0:0:0
     RDKit          3D

 91 99  0  0  1  0  0  0  0  0999 V2000
  -28.5930  -23.7250   20.0050 C   0  0  0  0  0  0  0  0  0  0  0  0
  -28.4850  -22.3660   22.0680 C   0  0  0  0  0  1  0  0  0  0  0  0
  -28.6850  -22.4680   20.6210 N   0  0  0  0  0  0  0  0  0  0  0  0
  -28.8010  -23.8390   18.7930 O   0  0  0  0  0  0  0  0  0  0  0  0
  -28.7670  -21.1010   19.9180 C   0  0  0  0  0  2  0  0  0  0  0  0
  -31.6490  -19.0350   21.5590 C   0  0  0  0  0  3  0  0  0  0  0  0
  -30.8220  -20.0990   21.1390 C   0  0  0  0  0  3  0  0  0  0  0  0
  -31.3090  -17.6860   21.3210 C   0  0  0  0  0  3  0  0  0  0  0  0
  -29.2700  -18.4520   20.2460 C   0  0  0  0  0  3  0  0  0  0  0  0
  -29.6080  -19.8550   20.4650 C   0  0  0  0  0  0  0  0  0  0  0  0
  -30.1120  -17.3330   20.6570 C   0  0  0  0  0  0  0  0  0  0  0  0
  -30.5570  -14.7590   20.3530 C   0  0  0  0  0  0  0  0  0  0  0  0
  -30.3540  -12.4790   19.3410 C   0  0  0  0  0  2  0  0  0  0  0  0
  -29.4090  -12.5400   18.1220 C   0  0  0  0  0  2  0  0  0  0  0  0
  -27.9410  -12.3710   18.5600 C   0  0  0  0  0  2  0  0  0  0  0  0
  -27.5720  -13.2680   19.7720 C   0  0  0  0  0  3  0  0  0  0  0  0
  -28.6350  -13.1880   20.8880 C   0  0  0  0  0  2  0  0  0  0  0  0
  -29.9250  -13.5380   20.2820 N   0  0  0  0  0  0  0  0  0  0  0  0
  -31.7540  -14.8430   20.0570 O   0  0  0  0  0  0  0  0  0  0  0  0
  -29.7660  -15.8950   20.4920 N   0  0  0  0  0  0  0  0  0  0  0  0
  -28.7780  -15.6950   20.4900 H   0  0  0  0  0  0  0  0  0  0  0  0
  -25.1910  -13.8710   20.5090 C   0  0  0  0  0  0  0  0  0  0  0  0
  -24.1240  -13.1020   20.8850 C   0  0  0  0  0  0  0  0  0  0  0  0
  -24.5820  -11.7500   20.8570 C   0  0  0  0  0  0  0  0  0  0  0  0
  -26.2300  -12.9870   20.2700 N   0  0  0  0  0  0  0  0  0  0  0  0
  -25.8710  -11.7070   20.5440 N   0  0  0  0  0  0  0  0  0  0  0  0
  -23.8510  -10.4900   21.0510 C   0  0  0  0  0  0  0  0  0  0  0  0
  -24.2890   -9.5190   21.9780 C   0  0  0  0  0  3  0  0  0  0  0  0
  -23.5590   -8.3240   22.1600 C   0  0  0  0  0  3  0  0  0  0  0  0
  -22.3760   -8.0940   21.4170 C   0  0  0  0  0  0  0  0  0  0  0  0
  -21.9580   -9.0550   20.4800 C   0  0  0  0  0  3  0  0  0  0  0  0
  -22.6880  -10.2400   20.2950 C   0  0  0  0  0  3  0  0  0  0  0  0
  -21.6170   -6.9530   21.5110 O   0  0  0  0  0  0  0  0  0  0  0  0
  -21.5850   -6.2010   22.6580 C   0  0  0  0  0  0  0  0  0  0  0  0
  -21.1870   -6.7500   23.8970 C   0  0  0  0  0  3  0  0  0  0  0  0
  -21.1020   -5.9250   25.0360 C   0  0  0  0  0  3  0  0  0  0  0  0
  -21.4030   -4.5530   24.9390 C   0  0  0  0  0  0  0  0  0  0  0  0
  -21.7940   -4.0050   23.7050 C   0  0  0  0  0  3  0  0  0  0  0  0
  -21.8810   -4.8270   22.5660 C   0  0  0  0  0  0  0  0  0  0  0  0
  -22.2380   -4.2890   21.3750 F   0  0  0  0  0  0  0  0  0  0  0  0
  -21.3140   -3.7600   26.0310 F   0  0  0  0  0  0  0  0  0  0  0  0
  -22.7280  -13.5850   21.1570 C   0  0  0  0  0  0  0  0  0  0  0  0
  -22.0000  -12.8950   22.0270 N   0  0  0  0  0  0  0  0  0  0  0  0
  -22.2940  -14.6110   20.6350 O   0  0  0  0  0  0  0  0  0  0  0  0
  -22.3650  -12.0650   22.4720 H   0  0  0  0  0  0  0  0  0  0  0  0
  -21.0630  -13.2000   22.2520 H   0  0  0  0  0  0  0  0  0  0  0  0
  -25.3560  -15.2410   20.3250 N   0  0  0  0  0  0  0  0  0  0  0  0
  -24.5850  -15.8920   20.4310 H   0  0  0  0  0  0  0  0  0  0  0  0
  -26.1910  -15.6780   19.9570 H   0  0  0  0  0  0  0  0  0  0  0  0
  -28.1520  -25.0520   20.8040 C   0  0  0  0  0  2  0  0  0  0  0  0
  -28.3270  -26.4050   20.1660 O   0  0  0  0  0  0  0  0  0  0  0  0
  -24.6370  -31.8750   23.2310 C   0  0  0  0  0  0  0  0  0  0  0  0
  -27.2290  -27.2900   20.1690 C   0  0  0  0  0  0  0  0  0  0  0  0
  -23.4280  -30.4820   21.5890 C   0  0  0  0  0  3  0  0  0  0  0  0
  -24.8750  -28.9260   20.1570 C   0  0  0  0  0  0  0  0  0  0  0  0
  -25.9690  -30.7920   21.4010 C   0  0  0  0  0  2  0  0  0  0  0  0
  -26.0480  -29.4100   20.7520 C   0  0  0  0  0  0  0  0  0  0  0  0
  -27.2310  -28.6060   20.7410 C   0  0  0  0  0  3  0  0  0  0  0  0
  -26.0360  -26.8660   19.5500 C   0  0  0  0  0  3  0  0  0  0  0  0
  -24.8720  -27.6620   19.5450 C   0  0  0  0  0  3  0  0  0  0  0  0
  -23.6400  -29.8060   20.2080 C   0  0  0  0  0  2  0  0  0  0  0  0
  -24.6970  -31.0680   22.1300 N   0  0  0  0  0  0  0  0  0  0  0  0
  -23.5540  -32.1510   23.7690 O   0  0  0  0  0  0  0  0  0  0  0  0
  -22.7640  -29.4660   22.5500 C   0  0  0  0  0  0  0  0  0  0  0  0
  -21.4360  -29.2960   22.4310 N   0  0  0  0  0  0  0  0  0  0  0  0
  -23.4440  -28.8320   23.3620 O   0  0  0  0  0  0  0  0  0  0  0  0
  -20.9460  -29.8590   21.7500 H   0  0  0  0  0  0  0  0  0  0  0  0
  -18.0570  -28.1070   22.9430 C   0  0  0  0  0  0  0  0  0  0  0  0
  -20.6180  -28.3590   23.2020 C   0  0  0  0  0  3  0  0  0  0  0  0
  -20.7130  -26.9290   22.6210 C   0  0  0  0  0  2  0  0  0  0  0  0
  -19.6060  -26.6140   21.6100 C   0  0  0  0  0  2  0  0  0  0  0  0
  -18.2270  -26.7600   22.2610 C   0  0  0  0  0  2  0  0  0  0  0  0
  -19.1800  -28.8650   23.3700 C   0  0  0  0  0  0  0  0  0  0  0  0
  -18.9670  -30.1250   23.9680 C   0  0  0  0  0  3  0  0  0  0  0  0
  -17.6630  -30.6290   24.1420 C   0  0  0  0  0  3  0  0  0  0  0  0
  -16.5550  -29.8690   23.7300 C   0  0  0  0  0  3  0  0  0  0  0  0
  -16.7530  -28.6090   23.1360 C   0  0  0  0  0  3  0  0  0  0  0  0
  -25.9200  -32.5050   23.8530 C   0  0  0  0  0  3  0  0  0  0  0  0
  -26.4360  -31.7320   25.1290 C   0  0  1  0  0  0  0  0  0  0  0  0
  -25.3450  -31.4990   26.1990 C   0  0  0  0  0  1  0  0  0  0  0  0
  -27.0130  -30.3520   24.7370 C   0  0  0  0  0  1  0  0  0  0  0  0
  -27.5900  -32.5220   25.7890 C   0  0  0  0  0  1  0  0  0  0  0  0
  -25.6130  -33.9030   24.1870 N   0  0  0  0  0  0  0  0  0  0  0  0
  -25.9390  -34.9580   23.4270 C   0  0  0  0  0  0  0  0  0  0  0  0
  -26.5970  -34.8560   22.3880 O   0  0  0  0  0  0  0  0  0  0  0  0
  -25.0290  -34.0570   24.9950 H   0  0  0  0  0  0  0  0  0  0  0  0
  -24.2060  -36.7520   23.0960 C   0  0  0  0  0  1  0  0  0  0  0  0
  -25.4570  -36.3460   23.8920 C   0  0  0  0  0  3  0  0  0  0  0  0
  -27.6020  -37.2290   24.6960 C   0  0  0  0  0  1  0  0  0  0  0  0
  -26.4880  -37.4000   23.7670 N   0  0  0  0  0  0  0  0  0  0  0  0
  -26.0840  -38.3190   23.9210 H   0  0  0  0  0  0  0  0  0  0  0  0
  1  3  1  0
  1 50  1  0
  3  2  1  0
  4  1  2  0
  5 10  1  0
  5  3  1  0
  7  6  2  0
  8  6  1  0
  9 10  2  0
  9 11  1  0
 10  7  1  0
 11  8  2  0
 12 20  1  0
 13 18  1  0
 14 15  1  0
 14 13  1  0
 16 15  1  0
 16 25  1  0
 16 17  1  0
 18 12  1  0
 18 17  1  0
 19 12  2  0
 20 11  1  0
 21 20  1  0
 22 23  2  0
 23 42  1  0
 24 23  1  0
 24 27  1  0
 25 22  1  0
 25 26  1  0
 26 24  2  0
 27 28  1  0
 28 29  2  0
 30 33  1  0
 30 29  1  0
 31 30  2  0
 32 31  1  0
 32 27  2  0
 33 34  1  0
 34 35  1  0
 35 36  2  0
 37 36  1  0
 37 41  1  0
 38 37  2  0
 39 34  2  0
 39 38  1  0
 40 39  1  0
 42 43  1  0
 43 46  1  0
 43 45  1  0
 44 42  2  0
 47 48  1  0
 47 22  1  0
 49 47  1  0
 51 53  1  0
 51 50  1  0
 52 63  2  0
 53 58  1  0
 54 62  1  0
 54 64  1  0
 55 61  1  0
 55 57  1  0
 56 62  1  0
 57 56  1  0
 58 57  2  0
 59 53  2  0
 60 59  1  0
 60 55  2  0
 61 54  1  0
 62 52  1  0
 64 66  2  0
 65 64  1  0
 67 65  1  0
 68 77  2  0
 68 73  1  0
 69 65  1  0
 69 73  1  0
 70 69  1  0
 71 72  1  0
 71 70  1  0
 72 68  1  0
 73 74  2  0
 74 75  1  0
 76 75  2  0
 77 76  1  0
 78 52  1  0
 78 83  1  0
 78 79  1  0
 79 82  1  1
 79 80  1  0
 81 79  1  0
 83 86  1  0
 84 88  1  0
 84 83  1  0
 85 84  2  0
 88 87  1  0
 90 88  1  0
 90 91  1  0
 90 89  1  0
M  ISO  4  12 100  20 100  50 101  51 101
M  END
>  <TORSDO>  (1) 
F 19

>  <SCORE>  (1) 
-14.454

>  <name>  (1) 
0

>  <ligand_id>  (1) 
0

>  <original_smiles>  (1) 
[H]c1c([H])c(N([H])C(=O)N2C([H])([H])C([H])([H])C([H])([H])C([H])(n3nc(-c4c([H])c([H])c(Oc5c([H])c([H])c(F)c([H])c5F)c([H])c4[H])c(C(=O)N([H])[H])c3N([H])[H])C2([H])[H])c([H])c(C([H])([H])N(C(=O)C([H])([H])Oc2c([H])c([H])c3c(c2[H])C([H])([H])N(C(=O)C([H])(N([H])C(=O)C([H])(N([H])C([H])([H])[H])C([H])([H])[H])C(C([H])([H])[H])(C([H])([H])[H])C([H])([H])[H])C([H])(C(=O)N([H])C2([H])c4c([H])c([H])c([H])c([H])c4C([H])([H])C([H])([H])C2([H])[H])C3([H])[H])C([H])([H])[H])c1[H]

>  <smiles>  (1) 
[H]c1c([H])c(N([H])C(=O)N2C([H])([H])C([H])([H])C([H])([H])C([H])(n3nc(-c4c([H])c([H])c(Oc5c([H])c([H])c(F)c([H])c5F)c([H])c4[H])c(C(=O)N([H])[H])c3N([H])[H])C2([H])[H])c([H])c(C([H])([H])N(C(=O)C([H])([H])Oc2c([H])c([H])c3c(c2[H])C([H])([H])N(C(=O)C([H])(N([H])C(=O)C([H])(N([H])C([H])([H])[H])C([H])([H])[H])C(C([H])([H])[H])(C([H])([H])[H])C([H])([H])[H])C([H])(C(=O)N([H])C2([H])c4c([H])c([H])c([H])c([H])c4C([H])([H])C([H])([H])C2([H])[H])C3([H])[H])C([H])([H])[H])c1[H]

$$$$
1:0:0
     RDKit          3D

 99108  0  0  1  0  0  0  0  0999 V2000
  -28.8620  -22.4370   21.1170 C   0  0  0  0  0  2  0  0  0  0  0  0
  -27.5180  -23.0950   19.3000 C   0  0  0  0  0  2  0  0  0  0  0  0
  -28.3550  -21.0930   20.4190 C   0  0  0  0  0  3  0  0  0  0  0  0
  -28.6360  -23.7080   20.1750 C   0  0  2  0  0  0  0  0  0  0  0  0
  -29.8970  -24.0180   19.3300 C   0  0  0  0  0  1  0  0  0  0  0  0
  -26.5440  -20.8610   18.7290 C   0  0  0  0  0  1  0  0  0  0  0  0
  -27.7460  -21.6130   19.1670 N   0  0  1  0  0  4  0  0  0  0  0  0
  -28.4420  -21.4980   18.4450 H   0  0  0  0  0  0  0  0  0  0  0  0
  -30.6670  -20.1980   19.7960 C   0  0  0  0  0  3  0  0  0  0  0  0
  -31.4020  -17.8750   20.0430 C   0  0  0  0  0  3  0  0  0  0  0  0
  -29.0950  -18.4600   20.4700 C   0  0  0  0  0  3  0  0  0  0  0  0
  -31.6890  -19.2280   19.7640 C   0  0  0  0  0  0  0  0  0  0  0  0
  -29.3650  -19.8760   20.2220 C   0  0  0  0  0  0  0  0  0  0  0  0
  -30.1040  -17.4110   20.3540 C   0  0  0  0  0  0  0  0  0  0  0  0
  -30.6530  -14.8260   20.2770 C   0  0  0  0  0  0  0  0  0  0  0  0
  -30.4620  -12.5640   19.2420 C   0  0  0  0  0  2  0  0  0  0  0  0
  -29.5140  -12.6660   18.0250 C   0  0  0  0  0  2  0  0  0  0  0  0
  -28.0430  -12.5080   18.4570 C   0  0  0  0  0  2  0  0  0  0  0  0
  -27.6900  -13.3570   19.7050 C   0  0  0  0  0  3  0  0  0  0  0  0
  -28.7550  -13.2260   20.8120 C   0  0  0  0  0  2  0  0  0  0  0  0
  -30.0410  -13.5940   20.2180 N   0  0  0  0  0  0  0  0  0  0  0  0
  -31.8320  -14.9070   19.9250 O   0  0  0  0  0  0  0  0  0  0  0  0
  -29.8630  -15.9470   20.5550 N   0  0  0  0  0  0  0  0  0  0  0  0
  -28.9320  -15.7140   20.8590 H   0  0  0  0  0  0  0  0  0  0  0  0
  -25.3070  -13.9290   20.4390 C   0  0  0  0  0  0  0  0  0  0  0  0
  -24.2520  -13.1480   20.8220 C   0  0  0  0  0  0  0  0  0  0  0  0
  -24.7260  -11.8000   20.7960 C   0  0  0  0  0  0  0  0  0  0  0  0
  -26.3540  -13.0560   20.2000 N   0  0  0  0  0  0  0  0  0  0  0  0
  -26.0140  -11.7730   20.4810 N   0  0  0  0  0  0  0  0  0  0  0  0
  -24.0140  -10.5330   20.9960 C   0  0  0  0  0  0  0  0  0  0  0  0
  -24.4520   -9.5730   21.9330 C   0  0  0  0  0  3  0  0  0  0  0  0
  -23.7320   -8.3720   22.1160 C   0  0  0  0  0  3  0  0  0  0  0  0
  -22.5590   -8.1250   21.3620 C   0  0  0  0  0  0  0  0  0  0  0  0
  -22.1450   -9.0740   20.4110 C   0  0  0  0  0  3  0  0  0  0  0  0
  -22.8660  -10.2650   20.2250 C   0  0  0  0  0  3  0  0  0  0  0  0
  -21.8060   -6.9790   21.4570 O   0  0  0  0  0  0  0  0  0  0  0  0
  -21.7520   -6.2480   22.6150 C   0  0  0  0  0  0  0  0  0  0  0  0
  -21.3030   -6.8080   23.8320 C   0  0  0  0  0  3  0  0  0  0  0  0
  -21.2000   -6.0020   24.9830 C   0  0  0  0  0  3  0  0  0  0  0  0
  -21.5360   -4.6360   24.9190 C   0  0  0  0  0  0  0  0  0  0  0  0
  -21.9790   -4.0760   23.7080 C   0  0  0  0  0  3  0  0  0  0  0  0
  -22.0830   -4.8790   22.5580 C   0  0  0  0  0  0  0  0  0  0  0  0
  -22.4900   -4.3260   21.3890 F   0  0  0  0  0  0  0  0  0  0  0  0
  -21.4310   -3.8580   26.0250 F   0  0  0  0  0  0  0  0  0  0  0  0
  -22.8530  -13.6160   21.0990 C   0  0  0  0  0  0  0  0  0  0  0  0
  -22.1350  -12.9140   21.9710 N   0  0  0  0  0  0  0  0  0  0  0  0
  -22.4050  -14.6380   20.5820 O   0  0  0  0  0  0  0  0  0  0  0  0
  -22.5080  -12.0840   22.4040 H   0  0  0  0  0  0  0  0  0  0  0  0
  -21.2020  -13.2160   22.2110 H   0  0  0  0  0  0  0  0  0  0  0  0
  -25.4590  -15.3020   20.2490 N   0  0  0  0  0  0  0  0  0  0  0  0
  -24.6840  -15.9500   20.3420 H   0  0  0  0  0  0  0  0  0  0  0  0
  -26.2900  -15.7330   19.8650 H   0  0  0  0  0  0  0  0  0  0  0  0
  -33.1000  -19.6030   19.4370 C   0  0  0  0  0  0  0  0  0  0  0  0
  -33.5120  -20.7830   19.8810 N   0  0  0  0  0  0  0  0  0  0  0  0
  -33.8580  -18.8190   18.8740 O   0  0  0  0  0  0  0  0  0  0  0  0
  -32.8730  -21.3920   20.3670 H   0  0  0  0  0  0  0  0  0  0  0  0
  -34.4820  -21.0360   19.7810 H   0  0  0  0  0  0  0  0  0  0  0  0
  -28.2130  -25.1010   20.8990 C   0  0  0  0  0  2  0  0  0  0  0  0
  -28.3700  -26.4570   20.2790 O   0  0  0  0  0  0  0  0  0  0  0  0
  -24.6110  -31.9090   23.2470 C   0  0  0  0  0  0  0  0  0  0  0  0
  -27.2650  -27.3270   20.2500 C   0  0  0  0  0  0  0  0  0  0  0  0
  -23.4340  -30.5070   21.5910 C   0  0  0  0  0  3  0  0  0  0  0  0
  -24.9090  -28.9520   20.1900 C   0  0  0  0  0  0  0  0  0  0  0  0
  -25.9760  -30.8300   21.4410 C   0  0  0  0  0  2  0  0  0  0  0  0
  -26.0710  -29.4470   20.7980 C   0  0  0  0  0  0  0  0  0  0  0  0
  -27.2580  -28.6460   20.8140 C   0  0  0  0  0  3  0  0  0  0  0  0
  -26.0820  -26.8840   19.6290 C   0  0  0  0  0  3  0  0  0  0  0  0
  -24.9130  -27.6760   19.5970 C   0  0  0  0  0  3  0  0  0  0  0  0
  -23.6700  -29.8330   20.2120 C   0  0  0  0  0  2  0  0  0  0  0  0
  -24.6910  -31.1020   22.1480 N   0  0  0  0  0  0  0  0  0  0  0  0
  -23.5180  -32.1810   23.7700 O   0  0  0  0  0  0  0  0  0  0  0  0
  -22.7670  -29.4840   22.5450 C   0  0  0  0  0  0  0  0  0  0  0  0
  -21.4430  -29.3040   22.4100 N   0  0  0  0  0  0  0  0  0  0  0  0
  -23.4390  -28.8590   23.3690 O   0  0  0  0  0  0  0  0  0  0  0  0
  -20.9630  -29.8700   21.7250 H   0  0  0  0  0  0  0  0  0  0  0  0
  -18.0520  -28.1200   22.8890 C   0  0  0  0  0  0  0  0  0  0  0  0
  -20.6140  -28.3620   23.1660 C   0  0  0  0  0  3  0  0  0  0  0  0
  -20.7040  -26.9380   22.5700 C   0  0  0  0  0  2  0  0  0  0  0  0
  -19.6010  -26.6340   21.5520 C   0  0  0  0  0  2  0  0  0  0  0  0
  -18.2200  -26.7790   22.1990 C   0  0  0  0  0  2  0  0  0  0  0  0
  -19.1770  -28.8720   23.3280 C   0  0  0  0  0  0  0  0  0  0  0  0
  -18.9670  -30.1300   23.9350 C   0  0  0  0  0  3  0  0  0  0  0  0
  -17.6650  -30.6360   24.1110 C   0  0  0  0  0  3  0  0  0  0  0  0
  -16.5560  -29.8830   23.6880 C   0  0  0  0  0  3  0  0  0  0  0  0
  -16.7520  -28.6280   23.0840 C   0  0  0  0  0  3  0  0  0  0  0  0
  -25.8790  -32.5430   23.8930 C   0  0  0  0  0  3  0  0  0  0  0  0
  -26.3650  -31.7860   25.1910 C   0  0  1  0  0  0  0  0  0  0  0  0
  -25.2490  -31.5530   26.2400 C   0  0  0  0  0  1  0  0  0  0  0  0
  -26.9600  -30.4100   24.8220 C   0  0  0  0  0  1  0  0  0  0  0  0
  -27.5010  -32.5890   25.8620 C   0  0  0  0  0  1  0  0  0  0  0  0
  -25.5650  -33.9440   24.2060 N   0  0  0  0  0  0  0  0  0  0  0  0
  -25.9100  -34.9910   23.4450 C   0  0  0  0  0  0  0  0  0  0  0  0
  -26.5980  -34.8830   22.4280 O   0  0  0  0  0  0  0  0  0  0  0  0
  -24.9360  -34.0920   24.9800 H   0  0  0  0  0  0  0  0  0  0  0  0
  -24.1920  -36.7880   23.0450 C   0  0  0  0  0  1  0  0  0  0  0  0
  -25.4160  -36.3850   23.8810 C   0  0  0  0  0  3  0  0  0  0  0  0
  -27.5320  -37.2750   24.7440 C   0  0  0  0  0  1  0  0  0  0  0  0
  -26.4510  -37.4340   23.7760 N   0  0  0  0  0  0  0  0  0  0  0  0
  -26.0470  -38.3580   23.9040 H   0  0  0  0  0  0  0  0  0  0  0  0
  2  4  1  0
  3 13  1  0
  3  1  1  0
  4  5  1  6
  4 58  1  0
  4  1  1  0
  6  7  1  0
  7  2  1  0
  7  3  1  0
  7  8  1  6
  9 13  1  0
 10 14  2  0
 12  9  2  0
 12 10  1  0
 13 11  2  0
 14 11  1  0
 14 23  1  0
 15 23  1  0
 16 21  1  0
 17 18  1  0
 17 16  1  0
 19 18  1  0
 19 28  1  0
 19 20  1  0
 21 15  1  0
 21 20  1  0
 22 15  2  0
 23 24  1  0
 25 26  2  0
 26 45  1  0
 27 26  1  0
 27 30  1  0
 28 25  1  0
 28 29  1  0
 29 27  2  0
 30 31  1  0
 31 32  2  0
 33 36  1  0
 33 32  1  0
 34 33  2  0
 35 34  1  0
 35 30  2  0
 36 37  1  0
 37 38  1  0
 38 39  2  0
 40 39  1  0
 40 44  1  0
 41 40  2  0
 42 37  2  0
 42 41  1  0
 43 42  1  0
 45 46  1  0
 46 49  1  0
 46 48  1  0
 47 45  2  0
 50 51  1  0
 50 25  1  0
 52 50  1  0
 53 12  1  0
 53 54  1  0
 54 56  1  0
 55 53  2  0
 57 54  1  0
 59 58  1  0
 60 71  2  0
 61 59  1  0
 61 66  1  0
 62 70  1  0
 62 72  1  0
 63 69  1  0
 63 65  1  0
 64 70  1  0
 65 66  2  0
 65 64  1  0
 67 61  2  0
 68 67  1  0
 68 63  2  0
 69 62  1  0
 70 60  1  0
 72 74  2  0
 73 72  1  0
 75 73  1  0
 76 85  2  0
 76 81  1  0
 77 73  1  0
 77 81  1  0
 78 77  1  0
 79 80  1  0
 79 78  1  0
 80 76  1  0
 81 82  2  0
 82 83  1  0
 84 83  2  0
 85 84  1  0
 86 60  1  0
 86 91  1  0
 86 87  1  0
 87 90  1  1
 87 88  1  0
 89 87  1  0
 91 94  1  0
 92 96  1  0
 92 91  1  0
 93 92  2  0
 96 95  1  0
 98 96  1  0
 98 99  1  0
 98 97  1  0
M  ISO  4  15 100  23 100  58 101  59 101
M  END
>  <TORSDO>  (2) 
F 19

>  <SCORE>  (2) 
-14.608

>  <name>  (2) 
1

>  <ligand_id>  (2) 
1

>  <original_smiles>  (2) 
[H]c1c([H])c([H])c2c(c1[H])C([H])([H])C([H])([H])C([H])([H])C2([H])N([H])C(=O)C1([H])N(C(=O)C([H])(N([H])C(=O)C([H])(N([H])C([H])([H])[H])C([H])([H])[H])C(C([H])([H])[H])(C([H])([H])[H])C([H])([H])[H])C([H])([H])c2c([H])c(OC([H])([H])C3(C([H])([H])[H])C([H])([H])C([H])(c4c([H])c(C(=O)N([H])[H])c([H])c(N([H])C(=O)N5C([H])([H])C([H])([H])C([H])([H])C([H])(n6nc(-c7c([H])c([H])c(Oc8c([H])c([H])c(F)c([H])c8F)c([H])c7[H])c(C(=O)N([H])[H])c6N([H])[H])C5([H])[H])c4[H])[N+]([H])(C([H])([H])[H])C3([H])[H])c([H])c([H])c2C1([H])[H]

>  <smiles>  (2) 
[H]c1c([H])c([H])c2c(c1[H])C([H])([H])C([H])([H])C([H])([H])C2([H])N([H])C(=O)C1([H])N(C(=O)C([H])(N([H])C(=O)C([H])(N([H])C([H])([H])[H])C([H])([H])[H])C(C([H])([H])[H])(C([H])([H])[H])C([H])([H])[H])C([H])([H])c2c([H])c(OC([H])([H])C3(C([H])([H])[H])C([H])([H])C([H])(c4c([H])c(C(=O)N([H])[H])c([H])c(N([H])C(=O)N5C([H])([H])C([H])([H])C([H])([H])C([H])(n6nc(-c7c([H])c([H])c(Oc8c([H])c([H])c(F)c([H])c8F)c([H])c7[H])c(C(=O)N([H])[H])c6N([H])[H])C5([H])[H])c4[H])[N+]([H])(C([H])([H])[H])C3([H])[H])c([H])c([H])c2C1([H])[H]

$$$$
2:0:0
     RDKit          3D

 93102  0  0  1  0  0  0  0  0999 V2000
  -29.1600  -24.1260   20.6270 C   0  0  0  0  0  0  0  0  0  0  0  0
  -28.8790  -21.9140   18.4190 C   0  0  0  0  0  2  0  0  0  0  0  0
  -30.0140  -22.9200   18.6070 C   0  0  0  0  0  2  0  0  0  0  0  0
  -28.8580  -21.7010   19.9420 C   0  0  0  0  0  3  0  0  0  0  0  0
  -29.6780  -22.9420   20.0300 N   0  0  0  0  0  0  0  0  0  0  0  0
  -29.5490  -24.4270   21.7570 O   0  0  0  0  0  0  0  0  0  0  0  0
  -29.5520  -20.3490   20.3710 C   0  0  0  0  0  0  0  0  0  0  0  0
  -27.5670  -19.0640   19.6360 C   0  0  0  0  0  1  0  0  0  0  0  0
  -28.9250  -19.1350   20.2020 N   0  0  0  0  0  0  0  0  0  0  0  0
  -30.6670  -20.4190   20.8980 O   0  0  0  0  0  0  0  0  0  0  0  0
  -28.4950  -16.7190   21.1040 C   0  0  0  0  0  2  0  0  0  0  0  0
  -29.4230  -17.8960   20.8440 C   0  0  0  0  0  3  0  0  0  0  0  0
  -29.6180  -16.5110   20.1170 C   0  0  0  0  0  3  0  0  0  0  0  0
  -30.9610  -14.4390   19.7090 C   0  0  0  0  0  0  0  0  0  0  0  0
  -30.4680  -12.2160   18.7310 C   0  0  0  0  0  2  0  0  0  0  0  0
  -29.4500  -12.3520   17.5810 C   0  0  0  0  0  2  0  0  0  0  0  0
  -28.0140  -12.2810   18.1270 C   0  0  0  0  0  2  0  0  0  0  0  0
  -27.7930  -13.2110   19.3510 C   0  0  0  0  0  3  0  0  0  0  0  0
  -28.9250  -13.0700   20.3930 C   0  0  0  0  0  2  0  0  0  0  0  0
  -30.2040  -13.2960   19.7050 N   0  0  0  0  0  0  0  0  0  0  0  0
  -32.0220  -14.4910   19.0780 O   0  0  0  0  0  0  0  0  0  0  0  0
  -31.7240  -16.0800   21.2680 C   0  0  0  0  0  1  0  0  0  0  0  0
  -30.6100  -15.4940   20.5070 N   0  0  0  0  0  0  0  0  0  0  0  0
  -25.5100  -13.9350   20.2760 C   0  0  0  0  0  0  0  0  0  0  0  0
  -24.4340  -13.2170   20.7260 C   0  0  0  0  0  0  0  0  0  0  0  0
  -24.8070  -11.8420   20.6260 C   0  0  0  0  0  0  0  0  0  0  0  0
  -26.4760  -12.9990   19.9420 N   0  0  0  0  0  0  0  0  0  0  0  0
  -26.0610  -11.7330   20.2100 N   0  0  0  0  0  0  0  0  0  0  0  0
  -24.0190  -10.6220   20.8470 C   0  0  0  0  0  0  0  0  0  0  0  0
  -24.4420   -9.6240   21.7520 C   0  0  0  0  0  3  0  0  0  0  0  0
  -23.6560   -8.4690   21.9620 C   0  0  0  0  0  3  0  0  0  0  0  0
  -22.4330   -8.3060   21.2680 C   0  0  0  0  0  0  0  0  0  0  0  0
  -22.0310   -9.2910   20.3490 C   0  0  0  0  0  3  0  0  0  0  0  0
  -22.8160  -10.4360   20.1370 C   0  0  0  0  0  3  0  0  0  0  0  0
  -21.6180   -7.2050   21.3900 O   0  0  0  0  0  0  0  0  0  0  0  0
  -21.5530   -6.4850   22.5560 C   0  0  0  0  0  0  0  0  0  0  0  0
  -21.1970   -7.0830   23.7840 C   0  0  0  0  0  3  0  0  0  0  0  0
  -21.0750   -6.2910   24.9450 C   0  0  0  0  0  3  0  0  0  0  0  0
  -21.2970   -4.9030   24.8770 C   0  0  0  0  0  0  0  0  0  0  0  0
  -21.6470   -4.3040   23.6530 C   0  0  0  0  0  3  0  0  0  0  0  0
  -21.7720   -5.0930   22.4960 C   0  0  0  0  0  0  0  0  0  0  0  0
  -22.0880   -4.5080   21.3160 F   0  0  0  0  0  0  0  0  0  0  0  0
  -21.1730   -4.1400   25.9890 F   0  0  0  0  0  0  0  0  0  0  0  0
  -23.1000  -13.7730   21.1290 C   0  0  0  0  0  0  0  0  0  0  0  0
  -22.4100  -13.1020   22.0470 N   0  0  0  0  0  0  0  0  0  0  0  0
  -22.6820  -14.8330   20.6690 O   0  0  0  0  0  0  0  0  0  0  0  0
  -22.7640  -12.2410   22.4360 H   0  0  0  0  0  0  0  0  0  0  0  0
  -21.5170  -13.4550   22.3620 H   0  0  0  0  0  0  0  0  0  0  0  0
  -25.7390  -15.2920   20.0940 N   0  0  0  0  0  0  0  0  0  0  0  0
  -25.0180  -15.9890   20.2520 H   0  0  0  0  0  0  0  0  0  0  0  0
  -26.5660  -15.6690   19.6520 H   0  0  0  0  0  0  0  0  0  0  0  0
  -28.1860  -25.0870   19.8700 C   0  0  0  0  0  2  0  0  0  0  0  0
  -28.3690  -26.5120   20.1790 O   0  0  0  0  0  0  0  0  0  0  0  0
  -24.6230  -31.8430   23.1870 C   0  0  0  0  0  0  0  0  0  0  0  0
  -27.2410  -27.3310   20.1100 C   0  0  0  0  0  0  0  0  0  0  0  0
  -23.4190  -30.4440   21.5460 C   0  0  0  0  0  3  0  0  0  0  0  0
  -24.8670  -28.9070   20.1140 C   0  0  0  0  0  0  0  0  0  0  0  0
  -25.9530  -30.7790   21.3550 C   0  0  0  0  0  2  0  0  0  0  0  0
  -26.0340  -29.4060   20.7060 C   0  0  0  0  0  0  0  0  0  0  0  0
  -27.2230  -28.6240   20.7040 C   0  0  0  0  0  3  0  0  0  0  0  0
  -26.0560  -26.8860   19.4750 C   0  0  0  0  0  3  0  0  0  0  0  0
  -24.8770  -27.6480   19.4960 C   0  0  0  0  0  3  0  0  0  0  0  0
  -23.6270  -29.7720   20.1660 C   0  0  0  0  0  2  0  0  0  0  0  0
  -24.6850  -31.0360   22.0870 N   0  0  0  0  0  0  0  0  0  0  0  0
  -23.5390  -32.1180   23.7210 O   0  0  0  0  0  0  0  0  0  0  0  0
  -22.7640  -29.4220   22.5030 C   0  0  0  0  0  0  0  0  0  0  0  0
  -21.4360  -29.2530   22.3840 N   0  0  0  0  0  0  0  0  0  0  0  0
  -23.4460  -28.7860   23.3100 O   0  0  0  0  0  0  0  0  0  0  0  0
  -20.9440  -29.8200   21.7050 H   0  0  0  0  0  0  0  0  0  0  0  0
  -18.0530  -28.0890   22.9090 C   0  0  0  0  0  0  0  0  0  0  0  0
  -20.6170  -28.3160   23.1530 C   0  0  0  0  0  3  0  0  0  0  0  0
  -20.6950  -26.8890   22.5620 C   0  0  0  0  0  2  0  0  0  0  0  0
  -19.5790  -26.5870   21.5590 C   0  0  0  0  0  2  0  0  0  0  0  0
  -18.2070  -26.7420   22.2200 C   0  0  0  0  0  2  0  0  0  0  0  0
  -19.1860  -28.8340   23.3310 C   0  0  0  0  0  0  0  0  0  0  0  0
  -18.9870  -30.0930   23.9360 C   0  0  0  0  0  3  0  0  0  0  0  0
  -17.6910  -30.6090   24.1190 C   0  0  0  0  0  3  0  0  0  0  0  0
  -16.5720  -29.8600   23.7130 C   0  0  0  0  0  3  0  0  0  0  0  0
  -16.7540  -28.6020   23.1150 C   0  0  0  0  0  3  0  0  0  0  0  0
  -25.9070  -32.4750   23.8090 C   0  0  0  0  0  3  0  0  0  0  0  0
  -26.4340  -31.6930   25.0740 C   0  0  1  0  0  0  0  0  0  0  0  0
  -25.3480  -31.4310   26.1450 C   0  0  0  0  0  1  0  0  0  0  0  0
  -27.0300  -30.3250   24.6630 C   0  0  0  0  0  1  0  0  0  0  0  0
  -27.5810  -32.4900   25.7400 C   0  0  0  0  0  1  0  0  0  0  0  0
  -25.5890  -33.8660   24.1550 N   0  0  0  0  0  0  0  0  0  0  0  0
  -25.9080  -34.9280   23.4030 C   0  0  0  0  0  0  0  0  0  0  0  0
  -26.5740  -34.8390   22.3680 O   0  0  0  0  0  0  0  0  0  0  0  0
  -24.9940  -34.0080   24.9560 H   0  0  0  0  0  0  0  0  0  0  0  0
  -24.1660  -36.7140   23.0820 C   0  0  0  0  0  1  0  0  0  0  0  0
  -25.4160  -36.3080   23.8790 C   0  0  0  0  0  3  0  0  0  0  0  0
  -27.5530  -37.1990   24.7000 C   0  0  0  0  0  1  0  0  0  0  0  0
  -26.4420  -37.3690   23.7670 N   0  0  0  0  0  0  0  0  0  0  0  0
  -26.0300  -38.2850   23.9270 H   0  0  0  0  0  0  0  0  0  0  0  0
  1  6  2  0
  2  3  1  0
  2  4  1  0
  3  5  1  0
  4  5  1  0
  4  7  1  0
  5  1  1  0
  7 10  2  0
  8  9  1  0
  9  7  1  0
 12  9  1  0
 12 11  1  0
 13 23  1  0
 13 12  1  0
 13 11  1  0
 14 23  1  0
 15 20  1  0
 16 17  1  0
 16 15  1  0
 18 17  1  0
 18 27  1  0
 18 19  1  0
 20 14  1  0
 20 19  1  0
 21 14  2  0
 23 22  1  0
 24 25  2  0
 25 44  1  0
 26 25  1  0
 26 29  1  0
 27 28  1  0
 27 24  1  0
 28 26  2  0
 29 30  1  0
 30 31  2  0
 32 35  1  0
 32 31  1  0
 33 32  2  0
 34 33  1  0
 34 29  2  0
 35 36  1  0
 36 37  1  0
 37 38  2  0
 39 38  1  0
 39 43  1  0
 40 39  2  0
 41 36  2  0
 41 40  1  0
 42 41  1  0
 44 45  1  0
 45 48  1  0
 45 47  1  0
 46 44  2  0
 49 50  1  0
 49 24  1  0
 51 49  1  0
 52 53  1  0
 52  1  1  0
 54 65  2  0
 55 53  1  0
 55 60  1  0
 56 64  1  0
 56 66  1  0
 57 63  1  0
 57 59  1  0
 58 64  1  0
 59 58  1  0
 60 59  2  0
 61 62  1  0
 61 55  2  0
 62 57  2  0
 63 56  1  0
 64 54  1  0
 66 68  2  0
 67 66  1  0
 69 67  1  0
 70 79  2  0
 70 75  1  0
 71 67  1  0
 71 75  1  0
 72 71  1  0
 73 74  1  0
 73 72  1  0
 74 70  1  0
 75 76  2  0
 76 77  1  0
 78 77  2  0
 79 78  1  0
 80 54  1  0
 80 85  1  0
 80 81  1  0
 81 84  1  1
 81 82  1  0
 83 81  1  0
 85 88  1  0
 86 90  1  0
 86 85  1  0
 87 86  2  0
 90 89  1  0
 92 90  1  0
 92 93  1  0
 92 91  1  0
M  ISO  4  14 100  23 100  52 101  53 101
M  END
>  <TORSDO>  (3) 
F 19

>  <SCORE>  (3) 
-13.698

>  <name>  (3) 
2

>  <ligand_id>  (3) 
2

>  <original_smiles>  (3) 
[H]c1c([H])c([H])c2c(c1[H])C([H])([H])C([H])([H])C([H])([H])C2([H])N([H])C(=O)C1([H])N(C(=O)C([H])(N([H])C(=O)C([H])(N([H])C([H])([H])[H])C([H])([H])[H])C(C([H])([H])[H])(C([H])([H])[H])C([H])([H])[H])C([H])([H])c2c([H])c(OC([H])([H])C(=O)N3C([H])([H])C([H])([H])C3([H])C(=O)N(C([H])([H])[H])C3([H])C([H])([H])C3([H])N(C(=O)N3C([H])([H])C([H])([H])C([H])([H])C([H])(n4nc(-c5c([H])c([H])c(Oc6c([H])c([H])c(F)c([H])c6F)c([H])c5[H])c(C(=O)N([H])[H])c4N([H])[H])C3([H])[H])C([H])([H])[H])c([H])c([H])c2C1([H])[H]

>  <smiles>  (3) 
[H]c1c([H])c([H])c2c(c1[H])C([H])([H])C([H])([H])C([H])([H])C2([H])N([H])C(=O)C1([H])N(C(=O)C([H])(N([H])C(=O)C([H])(N([H])C([H])([H])[H])C([H])([H])[H])C(C([H])([H])[H])(C([H])([H])[H])C([H])([H])[H])C([H])([H])c2c([H])c(OC([H])([H])C(=O)N3C([H])([H])C([H])([H])C3([H])C(=O)N(C([H])([H])[H])C3([H])C([H])([H])C3([H])N(C(=O)N3C([H])([H])C([H])([H])C([H])([H])C([H])(n4nc(-c5c([H])c([H])c(Oc6c([H])c([H])c(F)c([H])c6F)c([H])c5[H])c(C(=O)N([H])[H])c4N([H])[H])C3([H])[H])C([H])([H])[H])c([H])c([H])c2C1([H])[H]

$$$$
3:0:0
     RDKit          3D

 94102  0  0  1  0  0  0  0  0999 V2000
  -27.5960  -22.4840   21.8300 C   0  0  0  0  0  1  0  0  0  0  0  0
  -28.8250  -22.7660   20.9340 C   0  0  2  0  0  0  0  0  0  0  0  0
  -29.9300  -21.2230   19.0370 C   0  0  0  0  0  3  0  0  0  0  0  0
  -30.3260  -18.7300   18.8470 C   0  0  0  0  0  3  0  0  0  0  0  0
  -29.1710  -19.6900   20.7390 C   0  0  0  0  0  3  0  0  0  0  0  0
  -30.3880  -20.0710   18.3410 C   0  0  0  0  0  0  0  0  0  0  0  0
  -29.2460  -21.1780   20.2620 C   0  0  0  0  0  0  0  0  0  0  0  0
  -29.7250  -18.3790   20.0880 C   0  0  0  0  0  0  0  0  0  0  0  0
  -30.9010  -20.3190   16.9330 C   0  0  0  0  0  1  0  0  0  0  0  0
  -30.4300  -15.5020   20.1490 C   0  0  0  0  0  0  0  0  0  0  0  0
  -30.4870  -13.0250   19.2860 C   0  0  0  0  0  2  0  0  0  0  0  0
  -29.5670  -12.7940   18.0620 C   0  0  0  0  0  2  0  0  0  0  0  0
  -28.1140  -12.5160   18.4860 C   0  0  0  0  0  2  0  0  0  0  0  0
  -27.6670  -13.4240   19.6610 C   0  0  0  0  0  3  0  0  0  0  0  0
  -28.7230  -13.5940   20.7700 C   0  0  0  0  0  2  0  0  0  0  0  0
  -29.9240  -14.1570   20.1310 N   0  0  0  0  0  0  0  0  0  0  0  0
  -31.6220  -15.5340   19.8080 O   0  0  0  0  0  0  0  0  0  0  0  0
  -29.6680  -16.7710   20.4350 N   0  0  0  0  0  0  0  0  0  0  0  0
  -28.8330  -16.5450   20.9640 H   0  0  0  0  0  0  0  0  0  0  0  0
  -25.3090  -13.9290   20.4810 C   0  0  0  0  0  0  0  0  0  0  0  0
  -24.2710  -13.1310   20.8790 C   0  0  0  0  0  0  0  0  0  0  0  0
  -24.7560  -11.7910   20.8120 C   0  0  0  0  0  0  0  0  0  0  0  0
  -26.3540  -13.0710   20.1880 N   0  0  0  0  0  0  0  0  0  0  0  0
  -26.0390  -11.7760   20.4550 N   0  0  0  0  0  0  0  0  0  0  0  0
  -24.0470  -10.5170   21.0000 C   0  0  0  0  0  0  0  0  0  0  0  0
  -24.4830   -9.5520   21.9340 C   0  0  0  0  0  3  0  0  0  0  0  0
  -23.7640   -8.3490   22.1170 C   0  0  0  0  0  3  0  0  0  0  0  0
  -22.5920   -8.1050   21.3650 C   0  0  0  0  0  0  0  0  0  0  0  0
  -22.1710   -9.0550   20.4210 C   0  0  0  0  0  3  0  0  0  0  0  0
  -22.8900  -10.2510   20.2390 C   0  0  0  0  0  3  0  0  0  0  0  0
  -21.8510   -6.9450   21.4510 O   0  0  0  0  0  0  0  0  0  0  0  0
  -21.7830   -6.2170   22.6090 C   0  0  0  0  0  0  0  0  0  0  0  0
  -21.3030   -6.7800   23.8130 C   0  0  0  0  0  3  0  0  0  0  0  0
  -21.1890   -5.9790   24.9660 C   0  0  0  0  0  3  0  0  0  0  0  0
  -21.5350   -4.6170   24.9150 C   0  0  0  0  0  0  0  0  0  0  0  0
  -22.0020   -4.0530   23.7150 C   0  0  0  0  0  3  0  0  0  0  0  0
  -22.1230   -4.8500   22.5640 C   0  0  0  0  0  0  0  0  0  0  0  0
  -22.5560   -4.2970   21.4050 F   0  0  0  0  0  0  0  0  0  0  0  0
  -21.4150   -3.8450   26.0220 F   0  0  0  0  0  0  0  0  0  0  0  0
  -22.8770  -13.5980   21.1880 C   0  0  0  0  0  0  0  0  0  0  0  0
  -22.1740  -12.8780   22.0560 N   0  0  0  0  0  0  0  0  0  0  0  0
  -22.4230  -14.6240   20.6960 O   0  0  0  0  0  0  0  0  0  0  0  0
  -22.5630  -12.0500   22.4780 H   0  0  0  0  0  0  0  0  0  0  0  0
  -21.2400  -13.1690   22.3090 H   0  0  0  0  0  0  0  0  0  0  0  0
  -25.4460  -15.3000   20.3200 N   0  0  0  0  0  0  0  0  0  0  0  0
  -24.6640  -15.9290   20.4700 H   0  0  0  0  0  0  0  0  0  0  0  0
  -26.2350  -15.7500   19.8740 H   0  0  0  0  0  0  0  0  0  0  0  0
  -30.0900  -23.0690   21.8180 C   0  0  0  0  0  2  0  0  0  0  0  0
  -30.0580  -24.2610   22.6910 N   0  0  0  0  0  4  0  0  0  0  0  0
  -30.2900  -25.0900   22.1760 H   0  0  0  0  0  0  0  0  0  0  0  0
  -30.7690  -24.1370   23.3890 H   0  0  0  0  0  0  0  0  0  0  0  0
  -29.1840  -24.3890   23.1690 H   0  0  0  0  0  0  0  0  0  0  0  0
  -28.3870  -24.3290   20.0790 C   0  0  0  0  0  2  0  0  0  0  0  0
  -28.2760  -25.9510   20.4450 O   0  0  0  0  0  0  0  0  0  0  0  0
  -24.6110  -31.8840   23.1590 C   0  0  0  0  0  0  0  0  0  0  0  0
  -27.2300  -27.0120   20.2490 C   0  0  0  0  0  0  0  0  0  0  0  0
  -23.4280  -30.4760   21.5130 C   0  0  0  0  0  3  0  0  0  0  0  0
  -24.9030  -28.8720   20.1020 C   0  0  0  0  0  0  0  0  0  0  0  0
  -25.9850  -30.7110   21.3810 C   0  0  0  0  0  2  0  0  0  0  0  0
  -26.0710  -29.2950   20.7510 C   0  0  0  0  0  0  0  0  0  0  0  0
  -27.2190  -28.3870   20.8040 C   0  0  0  0  0  3  0  0  0  0  0  0
  -26.0440  -26.7470   19.5200 C   0  0  0  0  0  3  0  0  0  0  0  0
  -24.9150  -27.6180   19.4560 C   0  0  0  0  0  3  0  0  0  0  0  0
  -23.6650  -29.7650   20.1430 C   0  0  0  0  0  2  0  0  0  0  0  0
  -24.6920  -31.0560   22.0710 N   0  0  0  0  0  0  0  0  0  0  0  0
  -23.5200  -32.1700   23.6830 O   0  0  0  0  0  0  0  0  0  0  0  0
  -22.7390  -29.4880   22.4920 C   0  0  0  0  0  0  0  0  0  0  0  0
  -21.4060  -29.3350   22.3810 N   0  0  0  0  0  0  0  0  0  0  0  0
  -23.4070  -28.8580   23.3140 O   0  0  0  0  0  0  0  0  0  0  0  0
  -20.9130  -29.9070   21.7090 H   0  0  0  0  0  0  0  0  0  0  0  0
  -18.0330  -28.1240   22.9270 C   0  0  0  0  0  0  0  0  0  0  0  0
  -20.5940  -28.4000   23.1650 C   0  0  0  0  0  3  0  0  0  0  0  0
  -20.6930  -26.9690   22.5940 C   0  0  0  0  0  2  0  0  0  0  0  0
  -19.5840  -26.6420   21.5900 C   0  0  0  0  0  2  0  0  0  0  0  0
  -18.2090  -26.7740   22.2550 C   0  0  0  0  0  2  0  0  0  0  0  0
  -19.1540  -28.8900   23.3460 C   0  0  0  0  0  0  0  0  0  0  0  0
  -18.9390  -30.1500   23.9510 C   0  0  0  0  0  3  0  0  0  0  0  0
  -17.6350  -30.6440   24.1420 C   0  0  0  0  0  3  0  0  0  0  0  0
  -16.5270  -29.8780   23.7380 C   0  0  0  0  0  3  0  0  0  0  0  0
  -16.7250  -28.6200   23.1350 C   0  0  0  0  0  3  0  0  0  0  0  0
  -25.8850  -32.5310   23.7880 C   0  0  0  0  0  3  0  0  0  0  0  0
  -26.4020  -31.7630   25.0690 C   0  0  1  0  0  0  0  0  0  0  0  0
  -25.2980  -31.5310   26.1260 C   0  0  0  0  0  1  0  0  0  0  0  0
  -26.9950  -30.3830   24.6970 C   0  0  0  0  0  1  0  0  0  0  0  0
  -27.5560  -32.5540   25.7290 C   0  0  0  0  0  1  0  0  0  0  0  0
  -25.5590  -33.9280   24.1240 N   0  0  0  0  0  0  0  0  0  0  0  0
  -25.8960  -34.9960   23.3900 C   0  0  0  0  0  0  0  0  0  0  0  0
  -26.5740  -34.9110   22.3620 O   0  0  0  0  0  0  0  0  0  0  0  0
  -24.9530  -34.0610   24.9180 H   0  0  0  0  0  0  0  0  0  0  0  0
  -24.1710  -36.7980   23.0590 C   0  0  0  0  0  1  0  0  0  0  0  0
  -25.4080  -36.3800   23.8690 C   0  0  0  0  0  3  0  0  0  0  0  0
  -27.5350  -37.2580   24.7200 C   0  0  0  0  0  1  0  0  0  0  0  0
  -26.4420  -37.4320   23.7690 N   0  0  0  0  0  0  0  0  0  0  0  0
  -26.0370  -38.3520   23.9160 H   0  0  0  0  0  0  0  0  0  0  0  0
  2 48  1  0
  2  1  1  1
  3  7  1  0
  4  8  2  0
  6  4  1  0
  6  3  2  0
  7  5  2  0
  7  2  1  0
  8 18  1  0
  8  5  1  0
  9  6  1  0
 10 18  1  0
 11 16  1  0
 12 13  1  0
 12 11  1  0
 14 13  1  0
 14 23  1  0
 14 15  1  0
 16 10  1  0
 16 15  1  0
 17 10  2  0
 18 19  1  0
 20 21  2  0
 21 40  1  0
 22 21  1  0
 22 25  1  0
 23 24  1  0
 23 20  1  0
 24 22  2  0
 25 26  1  0
 26 27  2  0
 28 31  1  0
 28 27  1  0
 29 28  2  0
 30 29  1  0
 30 25  2  0
 31 32  1  0
 32 33  1  0
 33 34  2  0
 35 34  1  0
 35 39  1  0
 36 35  2  0
 37 32  2  0
 37 36  1  0
 38 37  1  0
 40 41  1  0
 41 44  1  0
 41 43  1  0
 42 40  2  0
 45 46  1  0
 45 20  1  0
 47 45  1  0
 48 49  1  0
 49 52  1  0
 49 51  1  0
 50 49  1  0
 53 54  1  0
 53  2  1  0
 55 66  2  0
 56 54  1  0
 56 61  1  0
 57 65  1  0
 57 67  1  0
 58 64  1  0
 58 60  1  0
 59 65  1  0
 60 61  2  0
 60 59  1  0
 62 56  2  0
 63 62  1  0
 63 58  2  0
 64 57  1  0
 65 55  1  0
 67 69  2  0
 68 67  1  0
 70 68  1  0
 71 80  2  0
 71 76  1  0
 72 68  1  0
 72 76  1  0
 73 72  1  0
 74 75  1  0
 74 73  1  0
 75 71  1  0
 76 77  2  0
 77 78  1  0
 79 78  2  0
 80 79  1  0
 81 55  1  0
 81 86  1  0
 81 82  1  0
 82 85  1  1
 82 83  1  0
 84 82  1  0
 86 89  1  0
 87 91  1  0
 87 86  1  0
 88 87  2  0
 91 90  1  0
 93 91  1  0
 93 94  1  0
 93 92  1  0
M  ISO  4  10 100  18 100  53 101  54 101
M  END
>  <TORSDO>  (4) 
F 20

>  <SCORE>  (4) 
-15.691

>  <name>  (4) 
3

>  <ligand_id>  (4) 
3

>  <original_smiles>  (4) 
[H]c1c([H])c([H])c2c(c1[H])C([H])([H])C([H])([H])C([H])([H])C2([H])N([H])C(=O)C1([H])N(C(=O)C([H])(N([H])C(=O)C([H])(N([H])C([H])([H])[H])C([H])([H])[H])C(C([H])([H])[H])(C([H])([H])[H])C([H])([H])[H])C([H])([H])c2c([H])c(OC([H])([H])C(c3c([H])c(N([H])C(=O)N4C([H])([H])C([H])([H])C([H])([H])C([H])(n5nc(-c6c([H])c([H])c(Oc7c([H])c([H])c(F)c([H])c7F)c([H])c6[H])c(C(=O)N([H])[H])c5N([H])[H])C4([H])[H])c([H])c(C([H])([H])[H])c3[H])(C([H])([H])[H])C([H])([H])[N+]([H])([H])[H])c([H])c([H])c2C1([H])[H]

>  <smiles>  (4) 
[H]c1c([H])c([H])c2c(c1[H])C([H])([H])C([H])([H])C([H])([H])C2([H])N([H])C(=O)C1([H])N(C(=O)C([H])(N([H])C(=O)C([H])(N([H])C([H])([H])[H])C([H])([H])[H])C(C([H])([H])[H])(C([H])([H])[H])C([H])([H])[H])C([H])([H])c2c([H])c(OC([H])([H])C(c3c([H])c(N([H])C(=O)N4C([H])([H])C([H])([H])C([H])([H])C([H])(n5nc(-c6c([H])c([H])c(Oc7c([H])c([H])c(F)c([H])c7F)c([H])c6[H])c(C(=O)N([H])[H])c5N([H])[H])C4([H])[H])c([H])c(C([H])([H])[H])c3[H])(C([H])([H])[H])C([H])([H])[N+]([H])([H])[H])c([H])c([H])c2C1([H])[H]

$$$$
4:0:0
     RDKit          3D

 93101  0  0  1  0  0  0  0  0999 V2000
  -30.7160  -21.5320   21.4840 C   0  0  0  0  0  1  0  0  0  0  0  0
  -29.4900  -21.1710   20.6280 C   0  0  0  0  0  3  0  0  0  0  0  0
  -30.6320  -18.6790   17.8640 C   0  0  0  0  0  3  0  0  0  0  0  0
  -30.2370  -19.8340   18.5580 C   0  0  0  0  0  3  0  0  0  0  0  0
  -30.6340  -17.4200   18.4890 C   0  0  0  0  0  3  0  0  0  0  0  0
  -29.7980  -19.7800   19.9000 C   0  0  0  0  0  0  0  0  0  0  0  0
  -29.7740  -18.4560   20.5250 C   0  0  0  0  0  0  0  0  0  0  0  0
  -30.2150  -17.2520   19.8270 C   0  0  0  0  0  0  0  0  0  0  0  0
  -29.3050  -18.3280   21.9730 C   0  0  0  0  0  1  0  0  0  0  0  0
  -30.8750  -14.7560   19.9220 C   0  0  0  0  0  0  0  0  0  0  0  0
  -30.5550  -12.5360   18.8430 C   0  0  0  0  0  2  0  0  0  0  0  0
  -29.5450  -12.7120   17.6860 C   0  0  0  0  0  2  0  0  0  0  0  0
  -28.1000  -12.5540   18.2040 C   0  0  0  0  0  2  0  0  0  0  0  0
  -27.8320  -13.3790   19.4920 C   0  0  0  0  0  3  0  0  0  0  0  0
  -28.9600  -13.2000   20.5320 C   0  0  0  0  0  2  0  0  0  0  0  0
  -30.2290  -13.5420   19.8790 N   0  0  0  0  0  0  0  0  0  0  0  0
  -32.0120  -14.8650   19.4530 O   0  0  0  0  0  0  0  0  0  0  0  0
  -30.1790  -15.8690   20.3610 N   0  0  0  0  0  0  0  0  0  0  0  0
  -29.3910  -15.6620   20.9560 H   0  0  0  0  0  0  0  0  0  0  0  0
  -25.5040  -13.9710   20.3980 C   0  0  0  0  0  0  0  0  0  0  0  0
  -24.4570  -13.1970   20.8180 C   0  0  0  0  0  0  0  0  0  0  0  0
  -24.9000  -11.8430   20.7130 C   0  0  0  0  0  0  0  0  0  0  0  0
  -26.5180  -13.0900   20.0610 N   0  0  0  0  0  0  0  0  0  0  0  0
  -26.1670  -11.8020   20.3130 N   0  0  0  0  0  0  0  0  0  0  0  0
  -24.1730  -10.5830   20.9170 C   0  0  0  0  0  0  0  0  0  0  0  0
  -24.6180   -9.6140   21.8440 C   0  0  0  0  0  3  0  0  0  0  0  0
  -23.8910   -8.4190   22.0360 C   0  0  0  0  0  3  0  0  0  0  0  0
  -22.7050   -8.1840   21.3000 C   0  0  0  0  0  0  0  0  0  0  0  0
  -22.2780   -9.1420   20.3640 C   0  0  0  0  0  3  0  0  0  0  0  0
  -23.0050  -10.3290   20.1700 C   0  0  0  0  0  3  0  0  0  0  0  0
  -21.9460   -7.0430   21.4030 O   0  0  0  0  0  0  0  0  0  0  0  0
  -21.8530   -6.3420   22.5790 C   0  0  0  0  0  0  0  0  0  0  0  0
  -21.3750   -6.9380   23.7650 C   0  0  0  0  0  3  0  0  0  0  0  0
  -21.2280   -6.1640   24.9340 C   0  0  0  0  0  3  0  0  0  0  0  0
  -21.5490   -4.7940   24.9150 C   0  0  0  0  0  0  0  0  0  0  0  0
  -22.0200   -4.1960   23.7320 C   0  0  0  0  0  3  0  0  0  0  0  0
  -22.1680   -4.9680   22.5660 C   0  0  0  0  0  0  0  0  0  0  0  0
  -22.6010   -4.3810   21.4250 F   0  0  0  0  0  0  0  0  0  0  0  0
  -21.4020   -4.0470   26.0340 F   0  0  0  0  0  0  0  0  0  0  0  0
  -23.0870  -13.6810   21.1970 C   0  0  0  0  0  0  0  0  0  0  0  0
  -22.4120  -12.9730   22.0950 N   0  0  0  0  0  0  0  0  0  0  0  0
  -22.6260  -14.7230   20.7330 O   0  0  0  0  0  0  0  0  0  0  0  0
  -22.7980  -12.1310   22.4980 H   0  0  0  0  0  0  0  0  0  0  0  0
  -21.4940  -13.2780   22.3840 H   0  0  0  0  0  0  0  0  0  0  0  0
  -25.6730  -15.3450   20.2490 N   0  0  0  0  0  0  0  0  0  0  0  0
  -24.9200  -16.0030   20.4160 H   0  0  0  0  0  0  0  0  0  0  0  0
  -26.5020  -15.7820   19.8690 H   0  0  0  0  0  0  0  0  0  0  0  0
  -27.7500  -22.0650   19.0920 C   0  0  0  0  0  1  0  0  0  0  0  0
  -29.0280  -22.3790   19.7810 N   0  0  1  0  0  4  0  0  0  0  0  0
  -29.7110  -22.4560   19.0420 H   0  0  0  0  0  0  0  0  0  0  0  0
  -29.0110  -23.7810   20.4480 C   0  0  0  0  0  3  0  0  0  0  0  0
  -28.3360  -25.0220   19.6710 C   0  0  0  0  0  3  0  0  0  0  0  0
  -28.4050  -26.4320   20.1890 O   0  0  0  0  0  0  0  0  0  0  0  0
  -24.6180  -31.8410   23.1910 C   0  0  0  0  0  0  0  0  0  0  0  0
  -27.2880  -27.2970   20.1070 C   0  0  0  0  0  0  0  0  0  0  0  0
  -23.4380  -30.4380   21.5420 C   0  0  0  0  0  3  0  0  0  0  0  0
  -24.9120  -28.9190   20.1050 C   0  0  0  0  0  0  0  0  0  0  0  0
  -25.9790  -30.7700   21.3810 C   0  0  0  0  0  2  0  0  0  0  0  0
  -26.0730  -29.3960   20.7220 C   0  0  0  0  0  0  0  0  0  0  0  0
  -27.2580  -28.5920   20.7270 C   0  0  0  0  0  3  0  0  0  0  0  0
  -26.1060  -26.9060   19.4320 C   0  0  0  0  0  3  0  0  0  0  0  0
  -24.9330  -27.6790   19.4530 C   0  0  0  0  0  3  0  0  0  0  0  0
  -23.6650  -29.7790   20.1570 C   0  0  0  0  0  2  0  0  0  0  0  0
  -24.6970  -31.0340   22.0930 N   0  0  0  0  0  0  0  0  0  0  0  0
  -23.5290  -32.1040   23.7220 O   0  0  0  0  0  0  0  0  0  0  0  0
  -22.7880  -29.4030   22.4900 C   0  0  0  0  0  0  0  0  0  0  0  0
  -21.4590  -29.2240   22.3750 N   0  0  0  0  0  0  0  0  0  0  0  0
  -23.4750  -28.7650   23.2920 O   0  0  0  0  0  0  0  0  0  0  0  0
  -20.9610  -29.7900   21.7040 H   0  0  0  0  0  0  0  0  0  0  0  0
  -18.0890  -28.0300   22.9090 C   0  0  0  0  0  0  0  0  0  0  0  0
  -20.6530  -28.2760   23.1440 C   0  0  0  0  0  3  0  0  0  0  0  0
  -20.7400  -26.8540   22.5430 C   0  0  0  0  0  2  0  0  0  0  0  0
  -19.6210  -26.5520   21.5410 C   0  0  0  0  0  2  0  0  0  0  0  0
  -18.2500  -26.6930   22.2080 C   0  0  0  0  0  2  0  0  0  0  0  0
  -19.2160  -28.7810   23.3350 C   0  0  0  0  0  0  0  0  0  0  0  0
  -19.0130  -30.0340   23.9520 C   0  0  0  0  0  3  0  0  0  0  0  0
  -17.7130  -30.5380   24.1460 C   0  0  0  0  0  3  0  0  0  0  0  0
  -16.5990  -29.7840   23.7380 C   0  0  0  0  0  3  0  0  0  0  0  0
  -16.7880  -28.5320   23.1260 C   0  0  0  0  0  3  0  0  0  0  0  0
  -25.8910  -32.4870   23.8180 C   0  0  0  0  0  3  0  0  0  0  0  0
  -26.4080  -31.7240   25.0970 C   0  0  1  0  0  0  0  0  0  0  0  0
  -25.3070  -31.4720   26.1560 C   0  0  0  0  0  1  0  0  0  0  0  0
  -27.0120  -30.3520   24.7150 C   0  0  0  0  0  1  0  0  0  0  0  0
  -27.5440  -32.5310   25.7660 C   0  0  0  0  0  1  0  0  0  0  0  0
  -25.5640  -33.8830   24.1440 N   0  0  0  0  0  0  0  0  0  0  0  0
  -25.8760  -34.9380   23.3810 C   0  0  0  0  0  0  0  0  0  0  0  0
  -26.5390  -34.8400   22.3450 O   0  0  0  0  0  0  0  0  0  0  0  0
  -24.9700  -34.0310   24.9480 H   0  0  0  0  0  0  0  0  0  0  0  0
  -24.1150  -36.7010   23.0420 C   0  0  0  0  0  1  0  0  0  0  0  0
  -25.3740  -36.3210   23.8390 C   0  0  0  0  0  3  0  0  0  0  0  0
  -27.5010  -37.2460   24.6410 C   0  0  0  0  0  1  0  0  0  0  0  0
  -26.3870  -37.3890   23.7070 N   0  0  0  0  0  0  0  0  0  0  0  0
  -25.9700  -38.3040   23.8500 H   0  0  0  0  0  0  0  0  0  0  0  0
  2  1  1  0
  3  5  2  0
  3  4  1  0
  4  6  2  0
  5  8  1  0
  6  7  1  0
  6  2  1  0
  7  9  1  0
  8 18  1  0
  8  7  2  0
 10 18  1  0
 11 16  1  0
 12 13  1  0
 12 11  1  0
 14 13  1  0
 14 23  1  0
 14 15  1  0
 16 10  1  0
 16 15  1  0
 17 10  2  0
 18 19  1  0
 20 21  2  0
 21 40  1  0
 22 21  1  0
 22 25  1  0
 23 24  1  0
 23 20  1  0
 24 22  2  0
 25 26  1  0
 26 27  2  0
 28 31  1  0
 28 27  1  0
 29 28  2  0
 30 29  1  0
 30 25  2  0
 31 32  1  0
 32 33  1  0
 33 34  2  0
 35 34  1  0
 35 39  1  0
 36 35  2  0
 37 32  2  0
 37 36  1  0
 38 37  1  0
 40 41  1  0
 41 44  1  0
 41 43  1  0
 42 40  2  0
 45 20  1  0
 45 46  1  0
 47 45  1  0
 48 49  1  0
 49 51  1  0
 49  2  1  0
 49 50  1  6
 52 53  1  0
 52 51  2  0
 54 65  2  0
 55 53  1  0
 55 60  1  0
 56 64  1  0
 56 66  1  0
 57 63  1  0
 57 59  1  0
 58 64  1  0
 59 60  2  0
 59 58  1  0
 61 62  1  0
 61 55  2  0
 62 57  2  0
 63 56  1  0
 64 54  1  0
 66 68  2  0
 67 66  1  0
 69 67  1  0
 70 79  2  0
 70 75  1  0
 71 67  1  0
 71 75  1  0
 72 71  1  0
 73 74  1  0
 73 72  1  0
 74 70  1  0
 75 76  2  0
 76 77  1  0
 78 77  2  0
 79 78  1  0
 80 54  1  0
 80 85  1  0
 80 81  1  0
 81 84  1  1
 81 82  1  0
 83 81  1  0
 85 88  1  0
 86 90  1  0
 86 85  1  0
 87 86  2  0
 90 89  1  0
 92 90  1  0
 92 93  1  0
 92 91  1  0
M  ISO  4  10 100  18 100  52 101  53 101
M  END
>  <TORSDO>  (5) 
F 20

>  <SCORE>  (5) 
-12.550

>  <name>  (5) 
4

>  <ligand_id>  (5) 
4

>  <original_smiles>  (5) 
[H]c1c([H])c([H])c2c(c1[H])C([H])([H])C([H])([H])C([H])([H])C2([H])N([H])C(=O)C1([H])N(C(=O)C([H])(N([H])C(=O)C([H])(N([H])C([H])([H])[H])C([H])([H])[H])C(C([H])([H])[H])(C([H])([H])[H])C([H])([H])[H])C([H])([H])c2c([H])c(OC([H])([H])C([H])([H])[N+]([H])(C([H])([H])[H])C([H])(c3c([H])c([H])c([H])c(N([H])C(=O)N4C([H])([H])C([H])([H])C([H])([H])C([H])(n5nc(-c6c([H])c([H])c(Oc7c([H])c([H])c(F)c([H])c7F)c([H])c6[H])c(C(=O)N([H])[H])c5N([H])[H])C4([H])[H])c3C([H])([H])[H])C([H])([H])[H])c([H])c([H])c2C1([H])[H]

>  <smiles>  (5) 
[H]c1c([H])c([H])c2c(c1[H])C([H])([H])C([H])([H])C([H])([H])C2([H])N([H])C(=O)C1([H])N(C(=O)C([H])(N([H])C(=O)C([H])(N([H])C([H])([H])[H])C([H])([H])[H])C(C([H])([H])[H])(C([H])([H])[H])C([H])([H])[H])C([H])([H])c2c([H])c(OC([H])([H])C([H])([H])[N+]([H])(C([H])([H])[H])C([H])(c3c([H])c([H])c([H])c(N([H])C(=O)N4C([H])([H])C([H])([H])C([H])([H])C([H])(n5nc(-c6c([H])c([H])c(Oc7c([H])c([H])c(F)c([H])c7F)c([H])c6[H])c(C(=O)N([H])[H])c5N([H])[H])C4([H])[H])c3C([H])([H])[H])C([H])([H])[H])c([H])c([H])c2C1([H])[H]

$$$$
5:0:0
     RDKit          3D

 92100  0  0  1  0  0  0  0  0999 V2000
  -28.6180  -22.6010   19.8320 C   0  0  0  0  0  3  0  0  0  0  0  0
  -30.8010  -18.6320   21.3680 C   0  0  0  0  0  3  0  0  0  0  0  0
  -31.0060  -19.9730   21.8020 C   0  0  0  0  0  3  0  0  0  0  0  0
  -29.0380  -19.5430   19.9970 C   0  0  0  0  0  3  0  0  0  0  0  0
  -29.2320  -21.0370   20.4080 C   0  0  0  0  0  0  0  0  0  0  0  0
  -29.7990  -18.2600   20.4460 C   0  0  0  0  0  0  0  0  0  0  0  0
  -30.2730  -21.1110   21.3600 C   0  0  0  0  0  0  0  0  0  0  0  0
  -30.6210  -22.3240   21.8480 F   0  0  0  0  0  0  0  0  0  0  0  0
  -30.4300  -15.3810   20.2200 C   0  0  0  0  0  0  0  0  0  0  0  0
  -30.4420  -12.9220   19.3330 C   0  0  0  0  0  2  0  0  0  0  0  0
  -29.5080  -12.6560   18.1230 C   0  0  0  0  0  2  0  0  0  0  0  0
  -28.0720  -12.3640   18.5910 C   0  0  0  0  0  2  0  0  0  0  0  0
  -27.6160  -13.3380   19.7060 C   0  0  0  0  0  3  0  0  0  0  0  0
  -28.6770  -13.5290   20.8090 C   0  0  0  0  0  2  0  0  0  0  0  0
  -29.8750  -14.0660   20.1400 N   0  0  0  0  0  0  0  0  0  0  0  0
  -31.6620  -15.3700   20.0710 O   0  0  0  0  0  0  0  0  0  0  0  0
  -29.6390  -16.6550   20.1770 N   0  0  0  0  0  0  0  0  0  0  0  0
  -28.6810  -16.4200   19.9670 H   0  0  0  0  0  0  0  0  0  0  0  0
  -25.2560  -13.8790   20.5000 C   0  0  0  0  0  0  0  0  0  0  0  0
  -24.2040  -13.0950   20.8770 C   0  0  0  0  0  0  0  0  0  0  0  0
  -24.6780  -11.7480   20.8370 C   0  0  0  0  0  0  0  0  0  0  0  0
  -26.3000  -13.0110   20.2380 N   0  0  0  0  0  0  0  0  0  0  0  0
  -25.9660  -11.7220   20.5100 N   0  0  0  0  0  0  0  0  0  0  0  0
  -23.9600  -10.4810   21.0280 C   0  0  0  0  0  0  0  0  0  0  0  0
  -24.4020   -9.5120   21.9560 C   0  0  0  0  0  3  0  0  0  0  0  0
  -23.6790   -8.3130   22.1380 C   0  0  0  0  0  3  0  0  0  0  0  0
  -22.5010   -8.0730   21.3910 C   0  0  0  0  0  0  0  0  0  0  0  0
  -22.0780   -9.0310   20.4520 C   0  0  0  0  0  3  0  0  0  0  0  0
  -22.8000  -10.2210   20.2690 C   0  0  0  0  0  3  0  0  0  0  0  0
  -21.7500   -6.9260   21.4820 O   0  0  0  0  0  0  0  0  0  0  0  0
  -21.7090   -6.1830   22.6350 C   0  0  0  0  0  0  0  0  0  0  0  0
  -21.2810   -6.7340   23.8620 C   0  0  0  0  0  3  0  0  0  0  0  0
  -21.1870   -5.9170   25.0060 C   0  0  0  0  0  3  0  0  0  0  0  0
  -21.5110   -4.5500   24.9240 C   0  0  0  0  0  0  0  0  0  0  0  0
  -21.9320   -3.9980   23.7020 C   0  0  0  0  0  3  0  0  0  0  0  0
  -22.0270   -4.8130   22.5590 C   0  0  0  0  0  0  0  0  0  0  0  0
  -22.4140   -4.2710   21.3790 F   0  0  0  0  0  0  0  0  0  0  0  0
  -21.4140   -3.7620   26.0210 F   0  0  0  0  0  0  0  0  0  0  0  0
  -22.8070  -13.5640   21.1600 C   0  0  0  0  0  0  0  0  0  0  0  0
  -22.0890  -12.8620   22.0280 N   0  0  0  0  0  0  0  0  0  0  0  0
  -22.3620  -14.5890   20.6460 O   0  0  0  0  0  0  0  0  0  0  0  0
  -22.4630  -12.0330   22.4660 H   0  0  0  0  0  0  0  0  0  0  0  0
  -21.1510  -13.1590   22.2600 H   0  0  0  0  0  0  0  0  0  0  0  0
  -25.4060  -15.2520   20.3250 N   0  0  0  0  0  0  0  0  0  0  0  0
  -24.6320  -15.8960   20.4480 H   0  0  0  0  0  0  0  0  0  0  0  0
  -26.2390  -15.7000   19.9660 H   0  0  0  0  0  0  0  0  0  0  0  0
  -27.5360  -22.2850   18.8810 N   0  0  0  0  0  4  0  0  0  0  0  0
  -26.7180  -21.9630   19.3670 H   0  0  0  0  0  0  0  0  0  0  0  0
  -27.8290  -21.5760   18.2350 H   0  0  0  0  0  0  0  0  0  0  0  0
  -27.2890  -23.1000   18.3480 H   0  0  0  0  0  0  0  0  0  0  0  0
  -28.1890  -24.2120   20.5950 C   0  0  0  0  0  2  0  0  0  0  0  0
  -28.2630  -25.8460   20.2250 O   0  0  0  0  0  0  0  0  0  0  0  0
  -24.6370  -31.8560   23.1910 C   0  0  0  0  0  0  0  0  0  0  0  0
  -27.2230  -26.9280   20.2440 C   0  0  0  0  0  0  0  0  0  0  0  0
  -23.4590  -30.4420   21.5580 C   0  0  0  0  0  3  0  0  0  0  0  0
  -24.9190  -28.8200   20.1660 C   0  0  0  0  0  0  0  0  0  0  0  0
  -26.0270  -30.6520   21.4250 C   0  0  0  0  0  2  0  0  0  0  0  0
  -26.1060  -29.2310   20.7860 C   0  0  0  0  0  0  0  0  0  0  0  0
  -27.2530  -28.3110   20.7900 C   0  0  0  0  0  3  0  0  0  0  0  0
  -26.0000  -26.6720   19.5830 C   0  0  0  0  0  3  0  0  0  0  0  0
  -24.8930  -27.5610   19.5440 C   0  0  0  0  0  3  0  0  0  0  0  0
  -23.7000  -29.7430   20.1910 C   0  0  0  0  0  2  0  0  0  0  0  0
  -24.7290  -31.0120   22.1110 N   0  0  0  0  0  0  0  0  0  0  0  0
  -23.5440  -32.1460   23.7020 O   0  0  0  0  0  0  0  0  0  0  0  0
  -22.7590  -29.4550   22.5290 C   0  0  0  0  0  0  0  0  0  0  0  0
  -21.4280  -29.2960   22.4060 N   0  0  0  0  0  0  0  0  0  0  0  0
  -23.4220  -28.8310   23.3610 O   0  0  0  0  0  0  0  0  0  0  0  0
  -20.9450  -29.8500   21.7130 H   0  0  0  0  0  0  0  0  0  0  0  0
  -18.0420  -28.0990   22.9260 C   0  0  0  0  0  0  0  0  0  0  0  0
  -20.6020  -28.3630   23.1820 C   0  0  0  0  0  3  0  0  0  0  0  0
  -20.7000  -26.9290   22.6110 C   0  0  0  0  0  2  0  0  0  0  0  0
  -19.5950  -26.6050   21.6010 C   0  0  0  0  0  2  0  0  0  0  0  0
  -18.2150  -26.7500   22.2490 C   0  0  0  0  0  2  0  0  0  0  0  0
  -19.1620  -28.8640   23.3490 C   0  0  0  0  0  0  0  0  0  0  0  0
  -18.9420  -30.1230   23.9470 C   0  0  0  0  0  3  0  0  0  0  0  0
  -17.6370  -30.6210   24.1220 C   0  0  0  0  0  3  0  0  0  0  0  0
  -16.5320  -29.8540   23.7100 C   0  0  0  0  0  3  0  0  0  0  0  0
  -16.7350  -28.5960   23.1190 C   0  0  0  0  0  3  0  0  0  0  0  0
  -25.9010  -32.5100   23.8280 C   0  0  0  0  0  3  0  0  0  0  0  0
  -26.4000  -31.7570   25.1220 C   0  0  1  0  0  0  0  0  0  0  0  0
  -25.2930  -31.5310   26.1800 C   0  0  0  0  0  1  0  0  0  0  0  0
  -26.9930  -30.3750   24.7650 C   0  0  0  0  0  1  0  0  0  0  0  0
  -27.5400  -32.5630   25.7890 C   0  0  0  0  0  1  0  0  0  0  0  0
  -25.5730  -33.9090   24.1530 N   0  0  0  0  0  0  0  0  0  0  0  0
  -25.9060  -34.9710   23.4070 C   0  0  0  0  0  0  0  0  0  0  0  0
  -26.5840  -34.8750   22.3800 O   0  0  0  0  0  0  0  0  0  0  0  0
  -24.9690  -34.0560   24.9480 H   0  0  0  0  0  0  0  0  0  0  0  0
  -24.1790  -36.7700   23.0550 C   0  0  0  0  0  1  0  0  0  0  0  0
  -25.4150  -36.3590   23.8700 C   0  0  0  0  0  3  0  0  0  0  0  0
  -27.5410  -37.2510   24.7210 C   0  0  0  0  0  1  0  0  0  0  0  0
  -26.4470  -37.4150   23.7660 N   0  0  0  0  0  0  0  0  0  0  0  0
  -26.0390  -38.3340   23.9050 H   0  0  0  0  0  0  0  0  0  0  0  0
  1  5  1  0
  1 51  1  0
  2  3  1  0
  4  5  2  0
  4  6  1  0
  5  7  1  0
  6  2  2  0
  7  3  2  0
  7  8  1  0
 10 15  1  0
 11 12  1  0
 11 10  1  0
 13 12  1  0
 13 22  1  0
 13 14  1  0
 15  9  1  0
 15 14  1  0
 16  9  2  0
 17  9  1  0
 17  6  1  0
 18 17  1  0
 19 20  2  0
 20 39  1  0
 21 20  1  0
 21 24  1  0
 22 19  1  0
 22 23  1  0
 23 21  2  0
 24 25  1  0
 25 26  2  0
 27 30  1  0
 27 26  1  0
 28 27  2  0
 29 28  1  0
 29 24  2  0
 30 31  1  0
 31 32  1  0
 32 33  2  0
 34 33  1  0
 34 38  1  0
 35 34  2  0
 36 31  2  0
 36 35  1  0
 37 36  1  0
 39 40  1  0
 40 43  1  0
 40 42  1  0
 41 39  2  0
 44 45  1  0
 44 19  1  0
 46 44  1  0
 47 48  1  0
 47  1  1  0
 49 47  1  0
 50 47  1  0
 52 54  1  0
 52 51  1  0
 53 64  2  0
 54 59  1  0
 55 63  1  0
 55 65  1  0
 56 62  1  0
 56 58  1  0
 57 63  1  0
 58 59  2  0
 58 57  1  0
 60 54  2  0
 61 60  1  0
 61 56  2  0
 62 55  1  0
 63 53  1  0
 65 67  2  0
 66 65  1  0
 68 66  1  0
 69 78  2  0
 69 74  1  0
 70 66  1  0
 70 74  1  0
 71 70  1  0
 72 73  1  0
 72 71  1  0
 73 69  1  0
 74 75  2  0
 75 76  1  0
 77 76  2  0
 78 77  1  0
 79 53  1  0
 79 84  1  0
 79 80  1  0
 80 83  1  1
 80 81  1  0
 82 80  1  0
 84 87  1  0
 85 89  1  0
 85 84  1  0
 86 85  2  0
 89 88  1  0
 91 89  1  0
 91 92  1  0
 91 90  1  0
M  ISO  4   9 100  17 100  51 101  52 101
M  END
>  <TORSDO>  (6) 
F 19

>  <SCORE>  (6) 
-16.471

>  <name>  (6) 
5

>  <ligand_id>  (6) 
5

>  <original_smiles>  (6) 
[H]c1c([H])c([H])c2c(c1[H])C([H])([H])C([H])([H])C([H])([H])C2([H])N([H])C(=O)C1([H])N(C(=O)C([H])(N([H])C(=O)C([H])(N([H])C([H])([H])[H])C([H])([H])[H])C(C([H])([H])[H])(C([H])([H])[H])C([H])([H])[H])C([H])([H])c2c([H])c(OC([H])([H])C([H])(c3c([H])c(N([H])C(=O)N4C([H])([H])C([H])([H])C([H])([H])C([H])(n5nc(-c6c([H])c([H])c(Oc7c([H])c([H])c(F)c([H])c7F)c([H])c6[H])c(C(=O)N([H])[H])c5N([H])[H])C4([H])[H])c([H])c([H])c3F)[N+]([H])([H])[H])c([H])c([H])c2C1([H])[H]

>  <smiles>  (6) 
[H]c1c([H])c([H])c2c(c1[H])C([H])([H])C([H])([H])C([H])([H])C2([H])N([H])C(=O)C1([H])N(C(=O)C([H])(N([H])C(=O)C([H])(N([H])C([H])([H])[H])C([H])([H])[H])C(C([H])([H])[H])(C([H])([H])[H])C([H])([H])[H])C([H])([H])c2c([H])c(OC([H])([H])C([H])(c3c([H])c(N([H])C(=O)N4C([H])([H])C([H])([H])C([H])([H])C([H])(n5nc(-c6c([H])c([H])c(Oc7c([H])c([H])c(F)c([H])c7F)c([H])c6[H])c(C(=O)N([H])[H])c5N([H])[H])C4([H])[H])c([H])c([H])c3F)[N+]([H])([H])[H])c([H])c([H])c2C1([H])[H]

$$$$
6:0:0
     RDKit          3D

 95103  0  0  1  0  0  0  0  0999 V2000
  -31.1680  -18.6430   19.6030 C   0  0  0  0  0  3  0  0  0  0  0  0
  -30.9930  -20.0870   19.4550 C   0  0  0  0  0  3  0  0  0  0  0  0
  -28.8290  -18.3980   19.6160 C   0  0  0  0  0  3  0  0  0  0  0  0
  -28.6340  -19.8350   19.4820 C   0  0  0  0  0  0  0  0  0  0  0  0
  -30.0830  -17.7080   19.7070 C   0  0  0  0  0  0  0  0  0  0  0  0
  -29.7250  -20.7810   19.3900 C   0  0  0  0  0  0  0  0  0  0  0  0
  -30.9120  -15.0560   19.6210 C   0  0  0  0  0  0  0  0  0  0  0  0
  -30.7280  -12.6660   18.7960 C   0  0  0  0  0  2  0  0  0  0  0  0
  -29.7160  -12.6000   17.6250 C   0  0  0  0  0  2  0  0  0  0  0  0
  -28.2750  -12.4440   18.1470 C   0  0  0  0  0  2  0  0  0  0  0  0
  -27.9610  -13.4290   19.3030 C   0  0  0  0  0  3  0  0  0  0  0  0
  -29.0790  -13.4360   20.3690 C   0  0  0  0  0  2  0  0  0  0  0  0
  -30.3290  -13.7930   19.6840 N   0  0  0  0  0  0  0  0  0  0  0  0
  -32.0810  -15.1380   19.2260 O   0  0  0  0  0  0  0  0  0  0  0  0
  -30.0870  -16.1820   19.8590 N   0  0  0  0  0  0  0  0  0  0  0  0
  -29.2040  -15.8480   20.2130 H   0  0  0  0  0  0  0  0  0  0  0  0
  -25.6750  -14.1230   20.2300 C   0  0  0  0  0  0  0  0  0  0  0  0
  -24.5940  -13.3980   20.6490 C   0  0  0  0  0  0  0  0  0  0  0  0
  -24.9690  -12.0260   20.5330 C   0  0  0  0  0  0  0  0  0  0  0  0
  -26.6430  -13.1960   19.8820 N   0  0  0  0  0  0  0  0  0  0  0  0
  -26.2300  -11.9250   20.1270 N   0  0  0  0  0  0  0  0  0  0  0  0
  -24.1810  -10.8020   20.7280 C   0  0  0  0  0  0  0  0  0  0  0  0
  -24.6400   -9.7510   21.5520 C   0  0  0  0  0  3  0  0  0  0  0  0
  -23.8570   -8.5920   21.7390 C   0  0  0  0  0  3  0  0  0  0  0  0
  -22.5990   -8.4770   21.1010 C   0  0  0  0  0  0  0  0  0  0  0  0
  -22.1580   -9.5140   20.2600 C   0  0  0  0  0  3  0  0  0  0  0  0
  -22.9400  -10.6640   20.0720 C   0  0  0  0  0  3  0  0  0  0  0  0
  -21.7820   -7.3770   21.2030 O   0  0  0  0  0  0  0  0  0  0  0  0
  -21.8480   -6.5280   22.2790 C   0  0  0  0  0  0  0  0  0  0  0  0
  -21.6740   -6.9870   23.6030 C   0  0  0  0  0  3  0  0  0  0  0  0
  -21.6820   -6.0690   24.6720 C   0  0  0  0  0  3  0  0  0  0  0  0
  -21.8520   -4.6950   24.4200 C   0  0  0  0  0  0  0  0  0  0  0  0
  -22.0190   -4.2360   23.1020 C   0  0  0  0  0  3  0  0  0  0  0  0
  -22.0140   -5.1500   22.0340 C   0  0  0  0  0  0  0  0  0  0  0  0
  -22.1540   -4.6990   20.7640 F   0  0  0  0  0  0  0  0  0  0  0  0
  -21.8510   -3.8120   25.4460 F   0  0  0  0  0  0  0  0  0  0  0  0
  -23.2490  -13.9450   21.0380 C   0  0  0  0  0  0  0  0  0  0  0  0
  -22.5520  -13.2700   21.9450 N   0  0  0  0  0  0  0  0  0  0  0  0
  -22.8320  -15.0050   20.5730 O   0  0  0  0  0  0  0  0  0  0  0  0
  -22.9040  -12.4110   22.3410 H   0  0  0  0  0  0  0  0  0  0  0  0
  -21.6530  -13.6160   22.2470 H   0  0  0  0  0  0  0  0  0  0  0  0
  -25.9100  -15.4890   20.0890 N   0  0  0  0  0  0  0  0  0  0  0  0
  -25.1850  -16.1770   20.2660 H   0  0  0  0  0  0  0  0  0  0  0  0
  -26.7320  -15.8850   19.6540 H   0  0  0  0  0  0  0  0  0  0  0  0
  -27.2100  -20.3220   19.4620 C   0  0  0  0  0  0  0  0  0  0  0  0
  -26.4280  -19.8660   20.4350 N   0  0  0  0  0  0  0  0  0  0  0  0
  -26.7870  -21.0920   18.5980 O   0  0  0  0  0  0  0  0  0  0  0  0
  -26.8100  -19.2560   21.1430 H   0  0  0  0  0  0  0  0  0  0  0  0
  -25.4640  -20.1590   20.4970 H   0  0  0  0  0  0  0  0  0  0  0  0
  -30.4300  -22.6940   20.6220 C   0  0  0  0  0  1  0  0  0  0  0  0
  -29.5540  -22.2590   19.5350 N   0  0  0  0  0  0  0  0  0  0  0  0
  -30.3760  -23.8880   17.8000 C   0  0  0  0  0  1  0  0  0  0  0  0
  -29.1350  -23.4070   18.5620 C   0  0  0  0  0  3  0  0  0  0  0  0
  -28.2700  -24.7550   19.1060 C   0  0  0  0  0  2  0  0  0  0  0  0
  -28.2550  -26.1980   18.5390 O   0  0  0  0  0  0  0  0  0  0  0  0
  -24.8100  -31.2600   22.6510 C   0  0  0  0  0  0  0  0  0  0  0  0
  -27.1730  -27.1150   18.7710 C   0  0  0  0  0  0  0  0  0  0  0  0
  -23.4960  -30.1220   20.9020 C   0  0  0  0  0  3  0  0  0  0  0  0
  -24.8400  -28.7950   19.1600 C   0  0  0  0  0  0  0  0  0  0  0  0
  -26.0280  -30.4440   20.6000 C   0  0  0  0  0  2  0  0  0  0  0  0
  -26.0580  -29.1660   19.7460 C   0  0  0  0  0  0  0  0  0  0  0  0
  -27.2260  -28.3460   19.5330 C   0  0  0  0  0  3  0  0  0  0  0  0
  -25.9240  -26.8310   18.1760 C   0  0  0  0  0  3  0  0  0  0  0  0
  -24.7820  -27.6410   18.3620 C   0  0  0  0  0  3  0  0  0  0  0  0
  -23.6220  -29.6640   19.4230 C   0  0  0  0  0  2  0  0  0  0  0  0
  -24.8020  -30.6210   21.4410 N   0  0  0  0  0  0  0  0  0  0  0  0
  -23.7660  -31.4510   23.2910 O   0  0  0  0  0  0  0  0  0  0  0  0
  -22.8860  -28.9720   21.7410 C   0  0  0  0  0  0  0  0  0  0  0  0
  -21.5510  -28.8190   21.6900 N   0  0  0  0  0  0  0  0  0  0  0  0
  -23.6120  -28.2290   22.4050 O   0  0  0  0  0  0  0  0  0  0  0  0
  -21.0190  -29.4730   21.1340 H   0  0  0  0  0  0  0  0  0  0  0  0
  -18.2100  -27.5450   22.2470 C   0  0  0  0  0  0  0  0  0  0  0  0
  -20.7830  -27.7690   22.3640 C   0  0  0  0  0  3  0  0  0  0  0  0
  -20.8310  -26.4460   21.5650 C   0  0  0  0  0  2  0  0  0  0  0  0
  -19.6550  -26.2830   20.5970 C   0  0  0  0  0  2  0  0  0  0  0  0
  -18.3260  -26.3210   21.3570 C   0  0  0  0  0  2  0  0  0  0  0  0
  -19.3630  -28.2340   22.7090 C   0  0  0  0  0  0  0  0  0  0  0  0
  -19.1960  -29.3860   23.5070 C   0  0  0  0  0  3  0  0  0  0  0  0
  -17.9100  -29.8470   23.8490 C   0  0  0  0  0  3  0  0  0  0  0  0
  -16.7730  -29.1520   23.4010 C   0  0  0  0  0  3  0  0  0  0  0  0
  -16.9250  -28.0020   22.6070 C   0  0  0  0  0  3  0  0  0  0  0  0
  -26.1320  -31.8010   23.2790 C   0  0  0  0  0  3  0  0  0  0  0  0
  -26.7840  -30.8020   24.3120 C   0  0  1  0  0  0  0  0  0  0  0  0
  -25.8050  -30.3130   25.4040 C   0  0  0  0  0  1  0  0  0  0  0  0
  -27.3470  -29.5580   23.5880 C   0  0  0  0  0  1  0  0  0  0  0  0
  -27.9820  -31.4830   25.0180 C   0  0  0  0  0  1  0  0  0  0  0  0
  -25.8260  -33.0830   23.9310 N   0  0  0  0  0  0  0  0  0  0  0  0
  -26.1130  -34.2880   23.4220 C   0  0  0  0  0  0  0  0  0  0  0  0
  -26.7300  -34.4340   22.3630 O   0  0  0  0  0  0  0  0  0  0  0  0
  -25.2710  -33.0380   24.7730 H   0  0  0  0  0  0  0  0  0  0  0  0
  -24.3560  -36.0850   23.5710 C   0  0  0  0  0  1  0  0  0  0  0  0
  -25.6400  -35.5270   24.2070 C   0  0  0  0  0  3  0  0  0  0  0  0
  -27.8080  -36.2360   25.1190 C   0  0  0  0  0  1  0  0  0  0  0  0
  -26.6580  -36.5960   24.2920 N   0  0  0  0  0  0  0  0  0  0  0  0
  -26.2530  -37.4480   24.6700 H   0  0  0  0  0  0  0  0  0  0  0  0
  1  5  1  0
  2  1  2  0
  3  5  2  0
  4  3  1  0
  5 15  1  0
  6  2  1  0
  6  4  2  0
  6 51  1  0
  7 13  1  0
  7 15  1  0
  8 13  1  0
  9 10  1  0
  9  8  1  0
 11 10  1  0
 11 20  1  0
 11 12  1  0
 13 12  1  0
 14  7  2  0
 15 16  1  0
 17 18  2  0
 18 37  1  0
 19 18  1  0
 19 22  1  0
 20 21  1  0
 20 17  1  0
 21 19  2  0
 22 23  1  0
 23 24  2  0
 25 28  1  0
 25 24  1  0
 26 25  2  0
 27 26  1  0
 27 22  2  0
 28 29  1  0
 29 30  1  0
 30 31  2  0
 32 31  1  0
 32 36  1  0
 33 32  2  0
 34 29  2  0
 34 33  1  0
 35 34  1  0
 37 38  1  0
 38 41  1  0
 38 40  1  0
 39 37  2  0
 42 17  1  0
 42 43  1  0
 44 42  1  0
 45  4  1  0
 45 46  1  0
 46 49  1  0
 46 48  1  0
 47 45  2  0
 51 50  1  0
 53 52  1  0
 53 54  1  0
 53 51  1  0
 55 57  1  0
 55 54  1  0
 56 67  2  0
 57 62  1  0
 58 66  1  0
 58 68  1  0
 59 65  1  0
 59 61  1  0
 60 66  1  0
 61 60  1  0
 62 61  2  0
 63 64  1  0
 63 57  2  0
 64 59  2  0
 65 58  1  0
 66 56  1  0
 68 70  2  0
 69 68  1  0
 71 69  1  0
 72 81  2  0
 72 77  1  0
 73 69  1  0
 73 77  1  0
 74 73  1  0
 75 76  1  0
 75 74  1  0
 76 72  1  0
 77 78  2  0
 78 79  1  0
 80 79  2  0
 81 80  1  0
 82 56  1  0
 82 87  1  0
 82 83  1  0
 83 86  1  1
 83 84  1  0
 85 83  1  0
 87 90  1  0
 88 87  1  0
 88 92  1  0
 89 88  2  0
 92 91  1  0
 92 94  1  0
 94 95  1  0
 94 93  1  0
M  ISO  4   7 100  15 100  54 101  55 101
M  END
>  <TORSDO>  (7) 
F 20

>  <SCORE>  (7) 
-9.866

>  <name>  (7) 
6

>  <ligand_id>  (7) 
6

>  <original_smiles>  (7) 
[H]c1c([H])c([H])c2c(c1[H])C([H])([H])C([H])([H])C([H])([H])C2([H])N([H])C(=O)C1([H])N(C(=O)C([H])(N([H])C(=O)C([H])(N([H])C([H])([H])[H])C([H])([H])[H])C(C([H])([H])[H])(C([H])([H])[H])C([H])([H])[H])C([H])([H])c2c([H])c(OC([H])([H])C([H])(N(c3c([H])c([H])c(N([H])C(=O)N4C([H])([H])C([H])([H])C([H])([H])C([H])(n5nc(-c6c([H])c([H])c(Oc7c([H])c([H])c(F)c([H])c7F)c([H])c6[H])c(C(=O)N([H])[H])c5N([H])[H])C4([H])[H])c([H])c3C(=O)N([H])[H])C([H])([H])[H])C([H])([H])[H])c([H])c([H])c2C1([H])[H]

>  <smiles>  (7) 
[H]c1c([H])c([H])c2c(c1[H])C([H])([H])C([H])([H])C([H])([H])C2([H])N([H])C(=O)C1([H])N(C(=O)C([H])(N([H])C(=O)C([H])(N([H])C([H])([H])[H])C([H])([H])[H])C(C([H])([H])[H])(C([H])([H])[H])C([H])([H])[H])C([H])([H])c2c([H])c(OC([H])([H])C([H])(N(c3c([H])c([H])c(N([H])C(=O)N4C([H])([H])C([H])([H])C([H])([H])C([H])(n5nc(-c6c([H])c([H])c(Oc7c([H])c([H])c(F)c([H])c7F)c([H])c6[H])c(C(=O)N([H])[H])c5N([H])[H])C4([H])[H])c([H])c3C(=O)N([H])[H])C([H])([H])[H])C([H])([H])[H])c([H])c([H])c2C1([H])[H]

$$$$
7:0:0
     RDKit          3D

 96105  0  0  1  0  0  0  0  0999 V2000
  -29.8940  -24.7400   20.2770 C   0  0  0  0  0  0  0  0  0  0  0  0
  -31.7270  -21.7160   20.8840 C   0  0  0  0  0  2  0  0  0  0  0  0
  -29.3160  -21.1460   20.4180 C   0  0  0  0  0  2  0  0  0  0  0  0
  -31.5730  -22.9410   19.9630 C   0  0  0  0  0  2  0  0  0  0  0  0
  -29.2250  -22.4190   19.5340 C   0  0  0  0  0  2  0  0  0  0  0  0
  -30.7570  -20.5830   20.4780 C   0  0  0  0  0  3  0  0  0  0  0  0
  -30.1870  -23.4430   19.9780 N   0  0  0  0  0  0  0  0  0  0  0  0
  -30.7530  -25.5090   20.7250 O   0  0  0  0  0  0  0  0  0  0  0  0
  -28.4750  -25.3010   20.0270 C   0  0  0  0  0  2  0  0  0  0  0  0
  -28.4850  -26.7320   20.1720 O   0  0  0  0  0  0  0  0  0  0  0  0
  -24.6340  -31.8860   23.1840 C   0  0  0  0  0  0  0  0  0  0  0  0
  -27.2860  -27.4120   20.1550 C   0  0  0  0  0  0  0  0  0  0  0  0
  -23.4240  -30.4530   21.5700 C   0  0  0  0  0  3  0  0  0  0  0  0
  -24.8760  -28.8990   20.1630 C   0  0  0  0  0  0  0  0  0  0  0  0
  -25.9460  -30.8230   21.3500 C   0  0  0  0  0  2  0  0  0  0  0  0
  -26.0340  -29.4430   20.7310 C   0  0  0  0  0  0  0  0  0  0  0  0
  -27.2400  -28.7080   20.7190 C   0  0  0  0  0  3  0  0  0  0  0  0
  -26.1070  -26.8770   19.5870 C   0  0  0  0  0  3  0  0  0  0  0  0
  -24.9080  -27.6160   19.5880 C   0  0  0  0  0  3  0  0  0  0  0  0
  -23.6290  -29.7510   20.2000 C   0  0  0  0  0  2  0  0  0  0  0  0
  -24.6870  -31.0700   22.0920 N   0  0  0  0  0  0  0  0  0  0  0  0
  -23.5550  -32.1610   23.7260 O   0  0  0  0  0  0  0  0  0  0  0  0
  -22.7830  -29.4460   22.5490 C   0  0  0  0  0  0  0  0  0  0  0  0
  -21.4600  -29.2500   22.4260 N   0  0  0  0  0  0  0  0  0  0  0  0
  -23.4710  -28.8410   23.3750 O   0  0  0  0  0  0  0  0  0  0  0  0
  -20.9660  -29.7900   21.7300 H   0  0  0  0  0  0  0  0  0  0  0  0
  -18.1010  -28.0150   22.9200 C   0  0  0  0  0  0  0  0  0  0  0  0
  -20.6510  -28.3190   23.2110 C   0  0  0  0  0  3  0  0  0  0  0  0
  -20.7800  -26.8750   22.6720 C   0  0  0  0  0  2  0  0  0  0  0  0
  -19.6950  -26.5100   21.6560 C   0  0  0  0  0  2  0  0  0  0  0  0
  -18.3040  -26.6510   22.2820 C   0  0  0  0  0  2  0  0  0  0  0  0
  -19.2030  -28.8050   23.3420 C   0  0  0  0  0  0  0  0  0  0  0  0
  -18.9600  -30.0800   23.8960 C   0  0  0  0  0  3  0  0  0  0  0  0
  -17.6460  -30.5680   24.0330 C   0  0  0  0  0  3  0  0  0  0  0  0
  -16.5580  -29.7750   23.6290 C   0  0  0  0  0  3  0  0  0  0  0  0
  -16.7860  -28.5010   23.0790 C   0  0  0  0  0  3  0  0  0  0  0  0
  -25.9220  -32.5320   23.7870 C   0  0  0  0  0  3  0  0  0  0  0  0
  -26.4730  -31.7560   25.0450 C   0  0  1  0  0  0  0  0  0  0  0  0
  -25.4030  -31.4850   26.1280 C   0  0  0  0  0  1  0  0  0  0  0  0
  -27.0720  -30.3930   24.6250 C   0  0  0  0  0  1  0  0  0  0  0  0
  -27.6200  -32.5620   25.6980 C   0  0  0  0  0  1  0  0  0  0  0  0
  -25.5990  -33.9210   24.1330 N   0  0  0  0  0  0  0  0  0  0  0  0
  -25.9210  -34.9850   23.3850 C   0  0  0  0  0  0  0  0  0  0  0  0
  -26.5930  -34.9000   22.3530 O   0  0  0  0  0  0  0  0  0  0  0  0
  -25.0010  -34.0610   24.9350 H   0  0  0  0  0  0  0  0  0  0  0  0
  -24.1880  -36.7730   23.0310 C   0  0  0  0  0  1  0  0  0  0  0  0
  -25.4180  -36.3630   23.8560 C   0  0  0  0  0  3  0  0  0  0  0  0
  -27.5310  -37.2480   24.7390 C   0  0  0  0  0  1  0  0  0  0  0  0
  -26.4460  -37.4230   23.7770 N   0  0  0  0  0  0  0  0  0  0  0  0
  -26.0320  -38.3390   23.9300 H   0  0  0  0  0  0  0  0  0  0  0  0
  -30.9590  -19.2810   21.3260 C   0  0  0  0  0  3  0  0  0  0  0  0
  -30.9590  -14.4820   20.3480 C   0  0  0  0  0  0  0  0  0  0  0  0
  -30.6400  -12.2780   19.3030 C   0  0  0  0  0  2  0  0  0  0  0  0
  -29.7060  -12.4510   18.0870 C   0  0  0  0  0  2  0  0  0  0  0  0
  -28.2270  -12.3480   18.5130 C   0  0  0  0  0  2  0  0  0  0  0  0
  -27.8940  -13.2230   19.7510 C   0  0  0  0  0  3  0  0  0  0  0  0
  -28.9490  -13.0530   20.8680 C   0  0  0  0  0  2  0  0  0  0  0  0
  -30.2720  -13.3110   20.2810 N   0  0  0  0  0  0  0  0  0  0  0  0
  -32.1430  -14.5850   20.0120 O   0  0  0  0  0  0  0  0  0  0  0  0
  -30.2630  -17.7180   19.3500 C   0  0  0  0  0  2  0  0  0  0  0  0
  -29.7600  -16.2790   19.2740 C   0  0  0  0  0  2  0  0  0  0  0  0
  -30.5710  -16.6680   21.4550 C   0  0  0  0  0  2  0  0  0  0  0  0
  -30.1590  -18.0300   20.8330 C   0  0  0  0  0  3  0  0  0  0  0  0
  -30.1980  -15.5990   20.5050 N   0  0  0  0  0  0  0  0  0  0  0  0
  -25.5210  -13.8920   20.4760 C   0  0  0  0  0  0  0  0  0  0  0  0
  -24.4350  -13.1450   20.8430 C   0  0  0  0  0  0  0  0  0  0  0  0
  -24.8630  -11.7830   20.8050 C   0  0  0  0  0  0  0  0  0  0  0  0
  -26.5410  -12.9830   20.2380 N   0  0  0  0  0  0  0  0  0  0  0  0
  -26.1500  -11.7100   20.4930 N   0  0  0  0  0  0  0  0  0  0  0  0
  -24.1090  -10.5400   20.9900 C   0  0  0  0  0  0  0  0  0  0  0  0
  -24.5060   -9.5710   21.9370 C   0  0  0  0  0  3  0  0  0  0  0  0
  -23.7520   -8.3890   22.1070 C   0  0  0  0  0  3  0  0  0  0  0  0
  -22.5900   -8.1710   21.3310 C   0  0  0  0  0  0  0  0  0  0  0  0
  -22.2140   -9.1290   20.3730 C   0  0  0  0  0  3  0  0  0  0  0  0
  -22.9680  -10.3010   20.2020 C   0  0  0  0  0  3  0  0  0  0  0  0
  -21.8100   -7.0430   21.4120 O   0  0  0  0  0  0  0  0  0  0  0  0
  -21.6990   -6.3280   22.5780 C   0  0  0  0  0  0  0  0  0  0  0  0
  -21.2060   -6.9110   23.7660 C   0  0  0  0  0  3  0  0  0  0  0  0
  -21.0440   -6.1200   24.9220 C   0  0  0  0  0  3  0  0  0  0  0  0
  -21.3600   -4.7490   24.8890 C   0  0  0  0  0  0  0  0  0  0  0  0
  -21.8430   -4.1670   23.7060 C   0  0  0  0  0  3  0  0  0  0  0  0
  -22.0080   -4.9540   22.5520 C   0  0  0  0  0  0  0  0  0  0  0  0
  -22.4550   -4.3820   21.4080 F   0  0  0  0  0  0  0  0  0  0  0  0
  -21.1990   -3.9900   25.9990 F   0  0  0  0  0  0  0  0  0  0  0  0
  -23.0510  -13.6540   21.1240 C   0  0  0  0  0  0  0  0  0  0  0  0
  -22.3110  -12.9680   21.9870 N   0  0  0  0  0  0  0  0  0  0  0  0
  -22.6360  -14.6940   20.6130 O   0  0  0  0  0  0  0  0  0  0  0  0
  -22.6620  -12.1260   22.4190 H   0  0  0  0  0  0  0  0  0  0  0  0
  -21.3800  -13.2850   22.2180 H   0  0  0  0  0  0  0  0  0  0  0  0
  -25.7210  -15.2590   20.3110 N   0  0  0  0  0  0  0  0  0  0  0  0
  -24.9740  -15.9330   20.4340 H   0  0  0  0  0  0  0  0  0  0  0  0
  -26.5940  -15.6790   20.0170 H   0  0  0  0  0  0  0  0  0  0  0  0
  -30.6850  -19.5320   22.7540 N   0  0  0  0  0  4  0  0  0  0  0  0
  -29.7060  -19.6950   22.9070 H   0  0  0  0  0  0  0  0  0  0  0  0
  -31.1980  -20.3340   23.0770 H   0  0  0  0  0  0  0  0  0  0  0  0
  -30.9670  -18.7460   23.3130 H   0  0  0  0  0  0  0  0  0  0  0  0
  1  8  2  0
  3  6  1  0
  4  7  1  0
  4  2  1  0
  5  7  1  0
  5  3  1  0
  6  2  1  0
  6 51  1  0
  7  1  1  0
  9 10  1  0
  9  1  1  0
 11 22  2  0
 12 10  1  0
 12 17  1  0
 13 21  1  0
 13 23  1  0
 14 20  1  0
 14 16  1  0
 15 21  1  0
 16 15  1  0
 17 16  2  0
 18 19  1  0
 18 12  2  0
 19 14  2  0
 20 13  1  0
 21 11  1  0
 23 25  2  0
 24 23  1  0
 26 24  1  0
 27 36  2  0
 27 32  1  0
 28 24  1  0
 28 32  1  0
 29 28  1  0
 30 31  1  0
 30 29  1  0
 31 27  1  0
 32 33  2  0
 33 34  1  0
 35 34  2  0
 36 35  1  0
 37 11  1  0
 37 42  1  0
 37 38  1  0
 38 41  1  1
 38 39  1  0
 40 38  1  0
 42 45  1  0
 43 47  1  0
 43 42  1  0
 44 43  2  0
 47 46  1  0
 49 47  1  0
 49 50  1  0
 49 48  1  0
 51 93  1  0
 52 64  1  0
 53 58  1  0
 54 55  1  0
 54 53  1  0
 56 55  1  0
 56 68  1  0
 56 57  1  0
 58 52  1  0
 58 57  1  0
 59 52  2  0
 60 63  1  0
 61 60  1  0
 61 64  1  0
 63 51  1  0
 63 62  1  0
 64 62  1  0
 65 66  2  0
 66 85  1  0
 67 66  1  0
 67 70  1  0
 68 65  1  0
 68 69  1  0
 69 67  2  0
 70 71  1  0
 71 72  2  0
 73 76  1  0
 73 72  1  0
 74 73  2  0
 75 74  1  0
 75 70  2  0
 76 77  1  0
 77 78  1  0
 78 79  2  0
 80 79  1  0
 80 84  1  0
 81 80  2  0
 82 77  2  0
 82 81  1  0
 83 82  1  0
 85 86  1  0
 86 89  1  0
 86 88  1  0
 87 85  2  0
 90 91  1  0
 90 65  1  0
 92 90  1  0
 93 94  1  0
 93 95  1  0
 93 96  1  0
M  ISO  4   9 101  10 101  52 100  64 100
M  END
>  <TORSDO>  (8) 
F 19

>  <SCORE>  (8) 
-14.718

>  <name>  (8) 
7

>  <ligand_id>  (8) 
7

>  <original_smiles>  (8) 
[H]c1c([H])c([H])c2c(c1[H])C([H])([H])C([H])([H])C([H])([H])C2([H])N([H])C(=O)C1([H])N(C(=O)C([H])(N([H])C(=O)C([H])(N([H])C([H])([H])[H])C([H])([H])[H])C(C([H])([H])[H])(C([H])([H])[H])C([H])([H])[H])C([H])([H])c2c([H])c(OC([H])([H])C(=O)N3C([H])([H])C([H])([H])C([H])(C([H])(C4([H])C([H])([H])N(C(=O)N5C([H])([H])C([H])([H])C([H])([H])C([H])(n6nc(-c7c([H])c([H])c(Oc8c([H])c([H])c(F)c([H])c8F)c([H])c7[H])c(C(=O)N([H])[H])c6N([H])[H])C5([H])[H])C([H])([H])C4([H])[H])[N+]([H])([H])[H])C([H])([H])C3([H])[H])c([H])c([H])c2C1([H])[H]

>  <smiles>  (8) 
[H]c1c([H])c([H])c2c(c1[H])C([H])([H])C([H])([H])C([H])([H])C2([H])N([H])C(=O)C1([H])N(C(=O)C([H])(N([H])C(=O)C([H])(N([H])C([H])([H])[H])C([H])([H])[H])C(C([H])([H])[H])(C([H])([H])[H])C([H])([H])[H])C([H])([H])c2c([H])c(OC([H])([H])C(=O)N3C([H])([H])C([H])([H])C([H])(C([H])(C4([H])C([H])([H])N(C(=O)N5C([H])([H])C([H])([H])C([H])([H])C([H])(n6nc(-c7c([H])c([H])c(Oc8c([H])c([H])c(F)c([H])c8F)c([H])c7[H])c(C(=O)N([H])[H])c6N([H])[H])C5([H])[H])C([H])([H])C4([H])[H])[N+]([H])([H])[H])C([H])([H])C3([H])[H])c([H])c([H])c2C1([H])[H]

$$$$
8:0:0
     RDKit          3D

103111  0  0  1  0  0  0  0  0999 V2000
  -32.5180  -20.1680   22.0500 C   0  0  0  0  0  3  0  0  0  0  0  0
  -32.9510  -18.5250   20.3110 C   0  0  0  0  0  3  0  0  0  0  0  0
  -31.1460  -20.1310   21.7090 C   0  0  0  0  0  0  0  0  0  0  0  0
  -30.7910  -19.5580   20.4700 C   0  0  0  0  0  0  0  0  0  0  0  0
  -31.5490  -18.3460   20.2000 C   0  0  0  0  0  0  0  0  0  0  0  0
  -33.4380  -19.4640   21.2460 C   0  0  0  0  0  0  0  0  0  0  0  0
  -34.7650  -19.5460   21.5020 F   0  0  0  0  0  0  0  0  0  0  0  0
  -31.6510  -15.7410   20.4880 C   0  0  0  0  0  0  0  0  0  0  0  0
  -31.3750  -13.3380   19.8930 C   0  0  0  0  0  2  0  0  0  0  0  0
  -30.5930  -13.2170   18.5680 C   0  0  0  0  0  2  0  0  0  0  0  0
  -29.0780  -13.1780   18.8510 C   0  0  0  0  0  2  0  0  0  0  0  0
  -28.6210  -14.2950   19.8260 C   0  0  0  0  0  3  0  0  0  0  0  0
  -29.5480  -14.4050   21.0580 C   0  0  0  0  0  2  0  0  0  0  0  0
  -30.9170  -14.5790   20.5590 N   0  0  0  0  0  0  0  0  0  0  0  0
  -32.8700  -15.6500   20.3390 O   0  0  0  0  0  0  0  0  0  0  0  0
  -30.9980  -16.9670   20.3580 N   0  0  0  0  0  0  0  0  0  0  0  0
  -29.9950  -16.9110   20.4460 H   0  0  0  0  0  0  0  0  0  0  0  0
  -26.2550  -15.1190   20.3710 C   0  0  0  0  0  0  0  0  0  0  0  0
  -25.0870  -14.4550   20.6360 C   0  0  0  0  0  0  0  0  0  0  0  0
  -25.4130  -13.0640   20.6230 C   0  0  0  0  0  0  0  0  0  0  0  0
  -27.2210  -14.1400   20.2070 N   0  0  0  0  0  0  0  0  0  0  0  0
  -26.7150  -12.8970   20.4250 N   0  0  0  0  0  0  0  0  0  0  0  0
  -24.5490  -11.8800   20.7260 C   0  0  0  0  0  0  0  0  0  0  0  0
  -24.8940  -10.7810   21.5450 C   0  0  0  0  0  3  0  0  0  0  0  0
  -24.0350   -9.6650   21.6440 C   0  0  0  0  0  3  0  0  0  0  0  0
  -22.8170   -9.6410   20.9250 C   0  0  0  0  0  0  0  0  0  0  0  0
  -22.4890  -10.7260   20.0940 C   0  0  0  0  0  3  0  0  0  0  0  0
  -23.3480  -11.8340   19.9920 C   0  0  0  0  0  3  0  0  0  0  0  0
  -21.9330   -8.5880   20.9400 O   0  0  0  0  0  0  0  0  0  0  0  0
  -21.9600   -7.6390   21.9300 C   0  0  0  0  0  0  0  0  0  0  0  0
  -21.8520   -7.9850   23.2950 C   0  0  0  0  0  3  0  0  0  0  0  0
  -21.8150   -6.9730   24.2770 C   0  0  0  0  0  3  0  0  0  0  0  0
  -21.8800   -5.6200   23.8960 C   0  0  0  0  0  0  0  0  0  0  0  0
  -21.9820   -5.2740   22.5370 C   0  0  0  0  0  3  0  0  0  0  0  0
  -22.0200   -6.2810   21.5570 C   0  0  0  0  0  0  0  0  0  0  0  0
  -22.0980   -5.9420   20.2470 F   0  0  0  0  0  0  0  0  0  0  0  0
  -21.8360   -4.6480   24.8370 F   0  0  0  0  0  0  0  0  0  0  0  0
  -23.7270  -15.0710   20.7930 C   0  0  0  0  0  0  0  0  0  0  0  0
  -22.8610  -14.4530   21.5890 N   0  0  0  0  0  0  0  0  0  0  0  0
  -23.4400  -16.1310   20.2400 O   0  0  0  0  0  0  0  0  0  0  0  0
  -23.1020  -13.5920   22.0570 H   0  0  0  0  0  0  0  0  0  0  0  0
  -21.9450  -14.8500   21.7380 H   0  0  0  0  0  0  0  0  0  0  0  0
  -26.5710  -16.4680   20.2280 N   0  0  0  0  0  0  0  0  0  0  0  0
  -25.8660  -17.1970   20.2730 H   0  0  0  0  0  0  0  0  0  0  0  0
  -27.4800  -16.8150   19.9500 H   0  0  0  0  0  0  0  0  0  0  0  0
  -30.0910  -20.5630   22.6740 C   0  0  0  0  0  0  0  0  0  0  0  0
  -30.2550  -20.0190   23.8820 N   0  0  0  0  0  0  0  0  0  0  0  0
  -29.0890  -21.1920   22.3330 O   0  0  0  0  0  0  0  0  0  0  0  0
  -31.1130  -19.5010   24.0100 H   0  0  0  0  0  0  0  0  0  0  0  0
  -29.2000  -19.8060   24.8620 C   0  0  0  0  0  2  0  0  0  0  0  0
  -29.6660  -18.7450   25.8780 C   0  0  0  0  0  2  0  0  0  0  0  0
  -27.6730  -17.4770   26.6200 C   0  0  0  0  0  1  0  0  0  0  0  0
  -29.3660  -18.1830   28.2490 C   0  0  0  0  0  1  0  0  0  0  0  0
  -28.6890  -18.5010   26.9680 N   0  0  1  0  0  4  0  0  0  0  0  0
  -28.1930  -19.3690   27.1210 H   0  0  0  0  0  0  0  0  0  0  0  0
  -30.4370  -20.6420   19.3470 C   0  0  0  0  0  2  0  0  0  0  0  0
  -30.6970  -22.2340   19.6030 C   0  0  0  0  0  2  0  0  0  0  0  0
  -29.6680  -24.6530   19.5040 C   0  0  0  0  0  0  0  0  0  0  0  0
  -29.6530  -23.2890   19.2400 N   0  0  0  0  0  0  0  0  0  0  0  0
  -30.6460  -25.1620   20.0550 O   0  0  0  0  0  0  0  0  0  0  0  0
  -28.8200  -22.9440   18.7800 H   0  0  0  0  0  0  0  0  0  0  0  0
  -28.4190  -25.5820   19.1420 C   0  0  0  0  0  2  0  0  0  0  0  0
  -28.5250  -27.0780   19.3140 O   0  0  0  0  0  0  0  0  0  0  0  0
  -24.4970  -31.8170   23.0560 C   0  0  0  0  0  0  0  0  0  0  0  0
  -27.3340  -27.8410   19.3920 C   0  0  0  0  0  0  0  0  0  0  0  0
  -23.3270  -30.4120   21.4010 C   0  0  0  0  0  3  0  0  0  0  0  0
  -24.8120  -29.1810   19.7210 C   0  0  0  0  0  0  0  0  0  0  0  0
  -25.7900  -31.0510   21.0460 C   0  0  0  0  0  2  0  0  0  0  0  0
  -25.9710  -29.7480   20.2680 C   0  0  0  0  0  0  0  0  0  0  0  0
  -27.2300  -29.0880   20.0990 C   0  0  0  0  0  3  0  0  0  0  0  0
  -26.1420  -27.3600   18.8000 C   0  0  0  0  0  3  0  0  0  0  0  0
  -24.9020  -27.9960   18.9790 C   0  0  0  0  0  3  0  0  0  0  0  0
  -23.4910  -29.8870   19.9520 C   0  0  0  0  0  2  0  0  0  0  0  0
  -24.5600  -31.1090   21.8900 N   0  0  0  0  0  0  0  0  0  0  0  0
  -23.4390  -31.9140   23.6970 O   0  0  0  0  0  0  0  0  0  0  0  0
  -22.8790  -29.2450   22.3110 C   0  0  0  0  0  0  0  0  0  0  0  0
  -21.5960  -28.8550   22.2150 N   0  0  0  0  0  0  0  0  0  0  0  0
  -23.6860  -28.6930   23.0650 O   0  0  0  0  0  0  0  0  0  0  0  0
  -20.9950  -29.3650   21.5840 H   0  0  0  0  0  0  0  0  0  0  0  0
  -18.5690  -26.8940   22.5340 C   0  0  0  0  0  0  0  0  0  0  0  0
  -20.9750  -27.7490   22.9490 C   0  0  0  0  0  3  0  0  0  0  0  0
  -21.4440  -26.3800   22.4030 C   0  0  0  0  0  2  0  0  0  0  0  0
  -20.5130  -25.8080   21.3300 C   0  0  0  0  0  2  0  0  0  0  0  0
  -19.0990  -25.6230   21.8890 C   0  0  0  0  0  2  0  0  0  0  0  0
  -19.4500  -27.8970   23.0180 C   0  0  0  0  0  0  0  0  0  0  0  0
  -18.9070  -29.0730   23.5780 C   0  0  0  0  0  3  0  0  0  0  0  0
  -17.5130  -29.2540   23.6600 C   0  0  0  0  0  3  0  0  0  0  0  0
  -16.6450  -28.2520   23.1960 C   0  0  0  0  0  3  0  0  0  0  0  0
  -17.1740  -27.0730   22.6400 C   0  0  0  0  0  3  0  0  0  0  0  0
  -25.7440  -32.5560   23.6300 C   0  0  0  0  0  3  0  0  0  0  0  0
  -25.3440  -33.9390   23.9210 N   0  0  0  0  0  0  0  0  0  0  0  0
  -25.7420  -35.0110   23.2210 C   0  0  0  0  0  0  0  0  0  0  0  0
  -26.5490  -34.9410   22.2910 O   0  0  0  0  0  0  0  0  0  0  0  0
  -24.6380  -34.0650   24.6330 H   0  0  0  0  0  0  0  0  0  0  0  0
  -24.0450  -36.7700   22.6260 C   0  0  0  0  0  1  0  0  0  0  0  0
  -25.1540  -36.3790   23.6160 C   0  0  0  0  0  3  0  0  0  0  0  0
  -27.1100  -37.2980   24.7800 C   0  0  0  0  0  1  0  0  0  0  0  0
  -26.1630  -37.4590   23.6810 N   0  0  0  0  0  0  0  0  0  0  0  0
  -25.7150  -38.3670   23.7810 H   0  0  0  0  0  0  0  0  0  0  0  0
  -26.3360  -31.8660   24.9180 C   0  0  1  0  0  0  0  0  0  0  0  0
  -25.2830  -31.5980   26.0190 C   0  0  0  0  0  1  0  0  0  0  0  0
  -26.9970  -30.5150   24.5610 C   0  0  0  0  0  1  0  0  0  0  0  0
  -27.4500  -32.7550   25.5210 C   0  0  0  0  0  1  0  0  0  0  0  0
  2  6  1  0
  3  1  1  0
  3 46  1  0
  4  3  2  0
  5  2  2  0
  5 16  1  0
  5  4  1  0
  6  7  1  0
  6  1  2  0
  8 14  1  0
  9 14  1  0
 10 11  1  0
 10  9  1  0
 12 11  1  0
 12 21  1  0
 12 13  1  0
 14 13  1  0
 15  8  2  0
 16 17  1  0
 16  8  1  0
 18 19  2  0
 19 38  1  0
 20 19  1  0
 20 23  1  0
 21 18  1  0
 21 22  1  0
 22 20  2  0
 23 24  1  0
 24 25  2  0
 26 29  1  0
 26 25  1  0
 27 26  2  0
 28 27  1  0
 28 23  2  0
 29 30  1  0
 30 31  1  0
 31 32  2  0
 33 32  1  0
 33 37  1  0
 34 33  2  0
 35 30  2  0
 35 34  1  0
 36 35  1  0
 38 39  1  0
 39 42  1  0
 39 41  1  0
 40 38  2  0
 43 44  1  0
 43 18  1  0
 45 43  1  0
 46 47  1  0
 47 49  1  0
 47 50  1  0
 48 46  2  0
 50 51  1  0
 51 54  1  0
 52 54  1  0
 54 55  1  1
 54 53  1  0
 56 57  1  0
 56  4  1  0
 58 60  2  0
 59 58  1  0
 59 57  1  0
 61 59  1  0
 62 63  1  0
 62 58  1  0
 63 65  1  0
 64 75  2  0
 65 70  1  0
 66 74  1  0
 66 76  1  0
 67 73  1  0
 67 69  1  0
 68 74  1  0
 69 68  1  0
 70 69  2  0
 71 72  1  0
 71 65  2  0
 72 67  2  0
 73 66  1  0
 74 64  1  0
 76 78  2  0
 77 76  1  0
 79 77  1  0
 80 89  2  0
 80 85  1  0
 81 77  1  0
 81 85  1  0
 82 81  1  0
 83 84  1  0
 83 82  1  0
 84 80  1  0
 85 86  2  0
 86 87  1  0
 88 87  2  0
 89 88  1  0
 90 64  1  0
 90 91  1  0
 90100  1  0
 91 94  1  0
 92 96  1  0
 92 91  1  0
 93 92  2  0
 96 95  1  0
 96 98  1  0
 98 99  1  0
 98 97  1  0
100103  1  1
100101  1  0
102100  1  0
M  ISO  4   8 100  16 100  62 101  63 101
M  END
>  <TORSDO>  (9) 
F 24

>  <SCORE>  (9) 
2.319

>  <name>  (9) 
8

>  <ligand_id>  (9) 
8

>  <original_smiles>  (9) 
[H]c1c([H])c([H])c2c(c1[H])C([H])([H])C([H])([H])C([H])([H])C2([H])N([H])C(=O)C1([H])N(C(=O)C([H])(N([H])C(=O)C([H])(N([H])C([H])([H])[H])C([H])([H])[H])C(C([H])([H])[H])(C([H])([H])[H])C([H])([H])[H])C([H])([H])c2c([H])c(OC([H])([H])C(=O)N([H])C([H])([H])C([H])([H])c3c(C(=O)N([H])C([H])([H])C([H])([H])[N+]([H])(C([H])([H])[H])C([H])([H])[H])c([H])c(F)c([H])c3N([H])C(=O)N3C([H])([H])C([H])([H])C([H])([H])C([H])(n4nc(-c5c([H])c([H])c(Oc6c([H])c([H])c(F)c([H])c6F)c([H])c5[H])c(C(=O)N([H])[H])c4N([H])[H])C3([H])[H])c([H])c([H])c2C1([H])[H]

>  <smiles>  (9) 
[H]c1c([H])c([H])c2c(c1[H])C([H])([H])C([H])([H])C([H])([H])C2([H])N([H])C(=O)C1([H])N(C(=O)C([H])(N([H])C(=O)C([H])(N([H])C([H])([H])[H])C([H])([H])[H])C(C([H])([H])[H])(C([H])([H])[H])C([H])([H])[H])C([H])([H])c2c([H])c(OC([H])([H])C(=O)N([H])C([H])([H])C([H])([H])c3c(C(=O)N([H])C([H])([H])C([H])([H])[N+]([H])(C([H])([H])[H])C([H])([H])[H])c([H])c(F)c([H])c3N([H])C(=O)N3C([H])([H])C([H])([H])C([H])([H])C([H])(n4nc(-c5c([H])c([H])c(Oc6c([H])c([H])c(F)c([H])c6F)c([H])c5[H])c(C(=O)N([H])[H])c4N([H])[H])C3([H])[H])c([H])c([H])c2C1([H])[H]

$$$$
9:0:0
     RDKit          3D

 96105  0  0  1  0  0  0  0  0999 V2000
  -31.3660  -22.1070   20.5640 C   0  0  0  0  0  2  0  0  0  0  0  0
  -30.9420  -22.7660   19.2520 C   0  0  0  0  0  2  0  0  0  0  0  0
  -29.9710  -21.4670   20.6430 C   0  0  0  0  0  3  0  0  0  0  0  0
  -29.4790  -22.6800   19.7290 C   0  0  0  0  0  3  0  0  0  0  0  0
  -30.7250  -19.2470   19.4380 C   0  0  0  0  0  3  0  0  0  0  0  0
  -30.8250  -17.8250   19.3800 C   0  0  0  0  0  3  0  0  0  0  0  0
  -29.2260  -19.0750   21.3150 C   0  0  0  0  0  3  0  0  0  0  0  0
  -29.9300  -19.9120   20.4120 C   0  0  0  0  0  0  0  0  0  0  0  0
  -29.3310  -17.6570   21.2750 C   0  0  0  0  0  0  0  0  0  0  0  0
  -30.1390  -16.9980   20.3070 C   0  0  0  0  0  0  0  0  0  0  0  0
  -28.6020  -16.8380   22.3290 C   0  0  0  0  0  1  0  0  0  0  0  0
  -30.8370  -14.6250   19.5600 C   0  0  0  0  0  0  0  0  0  0  0  0
  -30.4800  -12.4930   18.3350 C   0  0  0  0  0  2  0  0  0  0  0  0
  -29.3400  -12.6980   17.3110 C   0  0  0  0  0  2  0  0  0  0  0  0
  -27.9510  -12.5160   17.9540 C   0  0  0  0  0  2  0  0  0  0  0  0
  -27.8090  -13.2590   19.3070 C   0  0  0  0  0  3  0  0  0  0  0  0
  -29.0300  -12.9850   20.2150 C   0  0  0  0  0  2  0  0  0  0  0  0
  -30.2370  -13.3980   19.4760 N   0  0  0  0  0  0  0  0  0  0  0  0
  -31.8710  -14.8900   18.9400 O   0  0  0  0  0  0  0  0  0  0  0  0
  -30.1590  -15.5450   20.2990 N   0  0  0  0  0  0  0  0  0  0  0  0
  -29.4470  -15.1250   20.8760 H   0  0  0  0  0  0  0  0  0  0  0  0
  -25.5750  -13.7790   20.4720 C   0  0  0  0  0  0  0  0  0  0  0  0
  -24.5680  -12.9680   20.9260 C   0  0  0  0  0  0  0  0  0  0  0  0
  -24.9870  -11.6300   20.6570 C   0  0  0  0  0  0  0  0  0  0  0  0
  -26.5490  -12.9290   19.9710 N   0  0  0  0  0  0  0  0  0  0  0  0
  -26.2080  -11.6250   20.1360 N   0  0  0  0  0  0  0  0  0  0  0  0
  -24.2730  -10.3560   20.8130 C   0  0  0  0  0  0  0  0  0  0  0  0
  -24.7890   -9.3130   21.6130 C   0  0  0  0  0  3  0  0  0  0  0  0
  -24.0750   -8.1030   21.7600 C   0  0  0  0  0  3  0  0  0  0  0  0
  -22.8310   -7.9300   21.1090 C   0  0  0  0  0  0  0  0  0  0  0  0
  -22.3340   -8.9630   20.2940 C   0  0  0  0  0  3  0  0  0  0  0  0
  -23.0480  -10.1630   20.1440 C   0  0  0  0  0  3  0  0  0  0  0  0
  -22.0780   -6.7820   21.1760 O   0  0  0  0  0  0  0  0  0  0  0  0
  -22.0720   -5.9910   22.2970 C   0  0  0  0  0  0  0  0  0  0  0  0
  -21.7120   -6.4970   23.5650 C   0  0  0  0  0  3  0  0  0  0  0  0
  -21.6510   -5.6320   24.6770 C   0  0  0  0  0  3  0  0  0  0  0  0
  -21.9410   -4.2640   24.5230 C   0  0  0  0  0  0  0  0  0  0  0  0
  -22.2950   -3.7580   23.2590 C   0  0  0  0  0  3  0  0  0  0  0  0
  -22.3580   -4.6180   22.1490 C   0  0  0  0  0  0  0  0  0  0  0  0
  -22.6780   -4.1210   20.9310 F   0  0  0  0  0  0  0  0  0  0  0  0
  -21.8770   -3.4320   25.5890 F   0  0  0  0  0  0  0  0  0  0  0  0
  -23.2460  -13.4130   21.4830 C   0  0  0  0  0  0  0  0  0  0  0  0
  -22.6690  -12.6310   22.3900 N   0  0  0  0  0  0  0  0  0  0  0  0
  -22.7390  -14.4840   21.1530 O   0  0  0  0  0  0  0  0  0  0  0  0
  -23.0930  -11.7600   22.6760 H   0  0  0  0  0  0  0  0  0  0  0  0
  -21.7870  -12.9040   22.7990 H   0  0  0  0  0  0  0  0  0  0  0  0
  -25.7330  -15.1590   20.4160 N   0  0  0  0  0  0  0  0  0  0  0  0
  -24.9840  -15.7940   20.6660 H   0  0  0  0  0  0  0  0  0  0  0  0
  -26.4860  -15.6140   19.9130 H   0  0  0  0  0  0  0  0  0  0  0  0
  -28.7840  -24.0150   20.2870 C   0  0  0  0  0  3  0  0  0  0  0  0
  -29.3180  -24.4220   21.6060 N   0  0  0  0  0  4  0  0  0  0  0  0
  -30.3010  -24.6270   21.5680 H   0  0  0  0  0  0  0  0  0  0  0  0
  -29.1510  -23.7220   22.3070 H   0  0  0  0  0  0  0  0  0  0  0  0
  -28.8480  -25.2630   21.9040 H   0  0  0  0  0  0  0  0  0  0  0  0
  -28.7880  -25.2810   19.3260 C   0  0  0  0  0  2  0  0  0  0  0  0
  -28.5730  -26.6010   19.9440 O   0  0  0  0  0  0  0  0  0  0  0  0
  -24.4700  -31.6350   22.9720 C   0  0  0  0  0  0  0  0  0  0  0  0
  -27.3720  -27.3100   19.8730 C   0  0  0  0  0  0  0  0  0  0  0  0
  -23.3690  -30.2250   21.2670 C   0  0  0  0  0  3  0  0  0  0  0  0
  -24.9220  -28.7750   19.8480 C   0  0  0  0  0  0  0  0  0  0  0  0
  -25.8860  -30.6850   21.1340 C   0  0  0  0  0  2  0  0  0  0  0  0
  -26.0470  -29.3200   20.4770 C   0  0  0  0  0  0  0  0  0  0  0  0
  -27.2690  -28.5960   20.4810 C   0  0  0  0  0  3  0  0  0  0  0  0
  -26.2160  -26.7990   19.2390 C   0  0  0  0  0  3  0  0  0  0  0  0
  -25.0070  -27.5180   19.2280 C   0  0  0  0  0  3  0  0  0  0  0  0
  -23.6420  -29.5840   19.8800 C   0  0  0  0  0  2  0  0  0  0  0  0
  -24.5940  -30.8630   21.8530 N   0  0  0  0  0  0  0  0  0  0  0  0
  -23.3630  -31.8470   23.4860 O   0  0  0  0  0  0  0  0  0  0  0  0
  -22.7330  -29.1590   22.1870 C   0  0  0  0  0  0  0  0  0  0  0  0
  -21.4110  -28.9550   22.0480 N   0  0  0  0  0  0  0  0  0  0  0  0
  -23.4260  -28.5180   22.9820 O   0  0  0  0  0  0  0  0  0  0  0  0
  -20.9130  -29.5290   21.3840 H   0  0  0  0  0  0  0  0  0  0  0  0
  -18.0520  -27.7010   22.5150 C   0  0  0  0  0  0  0  0  0  0  0  0
  -20.6110  -27.9680   22.7760 C   0  0  0  0  0  3  0  0  0  0  0  0
  -20.7190  -26.5700   22.1230 C   0  0  0  0  0  2  0  0  0  0  0  0
  -19.6100  -26.2950   21.1030 C   0  0  0  0  0  2  0  0  0  0  0  0
  -18.2340  -26.3900   21.7690 C   0  0  0  0  0  2  0  0  0  0  0  0
  -19.1690  -28.4490   22.9740 C   0  0  0  0  0  0  0  0  0  0  0  0
  -18.9450  -29.6780   23.6320 C   0  0  0  0  0  3  0  0  0  0  0  0
  -17.6390  -30.1600   23.8330 C   0  0  0  0  0  3  0  0  0  0  0  0
  -16.5360  -29.4070   23.3930 C   0  0  0  0  0  3  0  0  0  0  0  0
  -16.7440  -28.1790   22.7400 C   0  0  0  0  0  3  0  0  0  0  0  0
  -25.7060  -32.3070   23.6440 C   0  0  0  0  0  3  0  0  0  0  0  0
  -26.2370  -31.5140   24.9010 C   0  0  1  0  0  0  0  0  0  0  0  0
  -25.1380  -31.1740   25.9360 C   0  0  0  0  0  1  0  0  0  0  0  0
  -26.8970  -30.1880   24.4560 C   0  0  0  0  0  1  0  0  0  0  0  0
  -27.3300  -32.3360   25.6200 C   0  0  0  0  0  1  0  0  0  0  0  0
  -25.3180  -33.6750   24.0200 N   0  0  0  0  0  0  0  0  0  0  0  0
  -25.6180  -34.7710   23.3100 C   0  0  0  0  0  0  0  0  0  0  0  0
  -26.3140  -34.7400   22.2930 O   0  0  0  0  0  0  0  0  0  0  0  0
  -24.6930  -33.7690   24.8070 H   0  0  0  0  0  0  0  0  0  0  0  0
  -23.8040  -36.4830   22.9910 C   0  0  0  0  0  1  0  0  0  0  0  0
  -25.0540  -36.1160   23.8080 C   0  0  0  0  0  3  0  0  0  0  0  0
  -27.1290  -37.0740   24.7030 C   0  0  0  0  0  1  0  0  0  0  0  0
  -26.0350  -37.2230   23.7490 N   0  0  0  0  0  0  0  0  0  0  0  0
  -25.5810  -38.1150   23.9260 H   0  0  0  0  0  0  0  0  0  0  0  0
  1  3  1  0
  2  4  1  0
  2  1  1  0
  3  8  1  0
  4 50  1  0
  4  3  1  0
  5  8  1  0
  6  5  2  0
  6 10  1  0
  8  7  2  0
  9  7  1  0
  9 11  1  0
 10  9  2  0
 12 20  1  0
 13 18  1  0
 14 15  1  0
 14 13  1  0
 16 15  1  0
 16 25  1  0
 16 17  1  0
 18 12  1  0
 18 17  1  0
 19 12  2  0
 20 10  1  0
 20 21  1  0
 22 23  2  0
 23 42  1  0
 24 27  1  0
 24 23  1  0
 25 26  1  0
 25 22  1  0
 26 24  2  0
 27 28  1  0
 28 29  2  0
 30 33  1  0
 30 29  1  0
 31 30  2  0
 32 31  1  0
 32 27  2  0
 33 34  1  0
 34 35  1  0
 35 36  2  0
 37 36  1  0
 37 41  1  0
 38 37  2  0
 39 34  2  0
 39 38  1  0
 40 39  1  0
 42 43  1  0
 43 45  1  0
 43 46  1  0
 44 42  2  0
 47 22  1  0
 47 48  1  0
 49 47  1  0
 50 55  1  0
 50 51  1  0
 51 54  1  0
 51 53  1  0
 52 51  1  0
 55 56  1  0
 57 68  2  0
 58 56  1  0
 58 63  1  0
 59 67  1  0
 59 69  1  0
 60 66  1  0
 60 62  1  0
 61 67  1  0
 62 63  2  0
 62 61  1  0
 64 58  2  0
 65 64  1  0
 65 60  2  0
 66 59  1  0
 67 57  1  0
 69 71  2  0
 70 69  1  0
 72 70  1  0
 73 82  2  0
 73 78  1  0
 74 70  1  0
 74 78  1  0
 75 74  1  0
 76 77  1  0
 76 75  1  0
 77 73  1  0
 78 79  2  0
 79 80  1  0
 81 80  2  0
 82 81  1  0
 83 57  1  0
 83 88  1  0
 83 84  1  0
 84 87  1  1
 84 85  1  0
 86 84  1  0
 88 91  1  0
 89 93  1  0
 89 88  1  0
 90 89  2  0
 93 92  1  0
 95 93  1  0
 95 96  1  0
 95 94  1  0
M  ISO  4  12 100  20 100  55 101  56 101
M  END
>  <TORSDO>  (10) 
F 20

>  <SCORE>  (10) 
-8.313

>  <name>  (10) 
9

>  <ligand_id>  (10) 
9

>  <original_smiles>  (10) 
[H]c1c([H])c([H])c2c(c1[H])C([H])([H])C([H])([H])C([H])([H])C2([H])N([H])C(=O)C1([H])N(C(=O)C([H])(N([H])C(=O)C([H])(N([H])C([H])([H])[H])C([H])([H])[H])C(C([H])([H])[H])(C([H])([H])[H])C([H])([H])[H])C([H])([H])c2c([H])c(OC([H])([H])C([H])(C3([H])C([H])([H])C([H])([H])C3([H])c3c([H])c([H])c(N([H])C(=O)N4C([H])([H])C([H])([H])C([H])([H])C([H])(n5nc(-c6c([H])c([H])c(Oc7c([H])c([H])c(F)c([H])c7F)c([H])c6[H])c(C(=O)N([H])[H])c5N([H])[H])C4([H])[H])c(C([H])([H])[H])c3[H])[N+]([H])([H])[H])c([H])c([H])c2C1([H])[H]

>  <smiles>  (10) 
[H]c1c([H])c([H])c2c(c1[H])C([H])([H])C([H])([H])C([H])([H])C2([H])N([H])C(=O)C1([H])N(C(=O)C([H])(N([H])C(=O)C([H])(N([H])C([H])([H])[H])C([H])([H])[H])C(C([H])([H])[H])(C([H])([H])[H])C([H])([H])[H])C([H])([H])c2c([H])c(OC([H])([H])C([H])(C3([H])C([H])([H])C([H])([H])C3([H])c3c([H])c([H])c(N([H])C(=O)N4C([H])([H])C([H])([H])C([H])([H])C([H])(n5nc(-c6c([H])c([H])c(Oc7c([H])c([H])c(F)c([H])c7F)c([H])c6[H])c(C(=O)N([H])[H])c5N([H])[H])C4([H])[H])c(C([H])([H])[H])c3[H])[N+]([H])([H])[H])c([H])c([H])c2C1([H])[H]

$$$$
10:0:0
     RDKit          3D

102110  0  0  1  0  0  0  0  0999 V2000
  -29.1950  -22.0240   20.4470 C   0  0  0  0  0  2  0  0  0  0  0  0
  -29.3710  -18.1310   20.5390 C   0  0  0  0  0  2  0  0  0  0  0  0
  -31.0660  -19.0390   22.1240 C   0  0  0  0  0  2  0  0  0  0  0  0
  -28.9170  -19.5650   20.1270 C   0  0  0  0  0  2  0  0  0  0  0  0
  -30.2080  -20.3430   22.0770 C   0  0  0  0  0  2  0  0  0  0  0  0
  -30.8590  -18.0060   20.9580 C   0  0  2  0  0  0  0  0  0  0  0  0
  -29.7670  -20.6580   20.6940 N   0  0  2  0  0  4  0  0  0  0  0  0
  -30.6240  -20.5960   20.1500 H   0  0  0  0  0  0  0  0  0  0  0  0
  -31.7630  -18.4070   19.7460 C   0  0  0  0  0  0  0  0  0  0  0  0
  -32.2620  -17.4710   18.9460 N   0  0  0  0  0  0  0  0  0  0  0  0
  -31.9860  -19.5940   19.5050 O   0  0  0  0  0  0  0  0  0  0  0  0
  -32.1360  -16.4730   19.1500 H   0  0  0  0  0  0  0  0  0  0  0  0
  -32.7390  -17.7160   18.0900 H   0  0  0  0  0  0  0  0  0  0  0  0
  -31.2330  -16.5660   21.4930 C   0  0  0  0  0  2  0  0  0  0  0  0
  -31.0060  -14.4580   20.1440 C   0  0  0  0  0  0  0  0  0  0  0  0
  -30.5810  -12.3400   18.9500 C   0  0  0  0  0  2  0  0  0  0  0  0
  -29.6000  -12.5520   17.7790 C   0  0  0  0  0  2  0  0  0  0  0  0
  -28.1410  -12.4470   18.2670 C   0  0  0  0  0  2  0  0  0  0  0  0
  -27.8710  -13.3030   19.5350 C   0  0  0  0  0  3  0  0  0  0  0  0
  -28.9550  -13.0690   20.6070 C   0  0  0  0  0  2  0  0  0  0  0  0
  -30.2680  -13.3310   19.9930 N   0  0  0  0  0  0  0  0  0  0  0  0
  -32.0770  -14.6380   19.5600 O   0  0  0  0  0  0  0  0  0  0  0  0
  -30.4970  -15.4090   20.9440 N   0  0  0  0  0  0  0  0  0  0  0  0
  -29.5960  -15.1950   21.3480 H   0  0  0  0  0  0  0  0  0  0  0  0
  -25.5250  -13.9660   20.3520 C   0  0  0  0  0  0  0  0  0  0  0  0
  -24.4470  -13.2210   20.7520 C   0  0  0  0  0  0  0  0  0  0  0  0
  -24.8650  -11.8560   20.6870 C   0  0  0  0  0  0  0  0  0  0  0  0
  -26.5320  -13.0580   20.0680 N   0  0  0  0  0  0  0  0  0  0  0  0
  -26.1420  -11.7820   20.3280 N   0  0  0  0  0  0  0  0  0  0  0  0
  -24.1110  -10.6140   20.9050 C   0  0  0  0  0  0  0  0  0  0  0  0
  -24.5250   -9.6570   21.8600 C   0  0  0  0  0  3  0  0  0  0  0  0
  -23.7780   -8.4750   22.0620 C   0  0  0  0  0  3  0  0  0  0  0  0
  -22.6040   -8.2410   21.3070 C   0  0  0  0  0  0  0  0  0  0  0  0
  -22.2060   -9.1860   20.3470 C   0  0  0  0  0  3  0  0  0  0  0  0
  -22.9510  -10.3600   20.1440 C   0  0  0  0  0  3  0  0  0  0  0  0
  -21.8310   -7.1090   21.4070 O   0  0  0  0  0  0  0  0  0  0  0  0
  -21.7280   -6.4100   22.5830 C   0  0  0  0  0  0  0  0  0  0  0  0
  -21.2360   -7.0110   23.7620 C   0  0  0  0  0  3  0  0  0  0  0  0
  -21.0840   -6.2430   24.9320 C   0  0  0  0  0  3  0  0  0  0  0  0
  -21.4090   -4.8740   24.9250 C   0  0  0  0  0  0  0  0  0  0  0  0
  -21.8930   -4.2720   23.7490 C   0  0  0  0  0  3  0  0  0  0  0  0
  -22.0510   -5.0390   22.5820 C   0  0  0  0  0  0  0  0  0  0  0  0
  -22.4990   -4.4510   21.4470 F   0  0  0  0  0  0  0  0  0  0  0  0
  -21.2580   -4.1340   26.0480 F   0  0  0  0  0  0  0  0  0  0  0  0
  -23.0750  -13.7310   21.0830 C   0  0  0  0  0  0  0  0  0  0  0  0
  -22.3660  -13.0460   21.9720 N   0  0  0  0  0  0  0  0  0  0  0  0
  -22.6430  -14.7700   20.5840 O   0  0  0  0  0  0  0  0  0  0  0  0
  -22.7370  -12.2100   22.3990 H   0  0  0  0  0  0  0  0  0  0  0  0
  -21.4420  -13.3620   22.2310 H   0  0  0  0  0  0  0  0  0  0  0  0
  -25.7310  -15.3340   20.1830 N   0  0  0  0  0  0  0  0  0  0  0  0
  -24.9920  -16.0180   20.3110 H   0  0  0  0  0  0  0  0  0  0  0  0
  -26.5810  -15.7350   19.8080 H   0  0  0  0  0  0  0  0  0  0  0  0
  -31.5760  -23.0080   20.5080 C   0  0  0  0  0  1  0  0  0  0  0  0
  -30.0860  -23.2670   20.8400 C   0  0  0  0  0  3  0  0  0  0  0  0
  -29.6810  -24.6740   20.2360 C   0  0  0  0  0  3  0  0  0  0  0  0
  -29.6180  -24.6630   18.7540 N   0  0  0  0  0  4  0  0  0  0  0  0
  -28.8970  -24.0630   18.3960 H   0  0  0  0  0  0  0  0  0  0  0  0
  -30.4970  -24.4020   18.3420 H   0  0  0  0  0  0  0  0  0  0  0  0
  -29.4080  -25.6010   18.4510 H   0  0  0  0  0  0  0  0  0  0  0  0
  -27.1870  -24.6200   20.8850 C   0  0  0  0  0  1  0  0  0  0  0  0
  -28.4700  -25.4710   20.8180 C   0  0  0  0  0  3  0  0  0  0  0  0
  -28.3940  -26.7040   20.0440 O   0  0  0  0  0  0  0  0  0  0  0  0
  -24.5910  -31.8860   23.1840 C   0  0  0  0  0  0  0  0  0  0  0  0
  -27.2400  -27.4620   20.0740 C   0  0  0  0  0  0  0  0  0  0  0  0
  -23.3910  -30.4970   21.5280 C   0  0  0  0  0  3  0  0  0  0  0  0
  -24.8510  -28.9850   20.0840 C   0  0  0  0  0  0  0  0  0  0  0  0
  -25.9170  -30.8620   21.3400 C   0  0  0  0  0  2  0  0  0  0  0  0
  -26.0070  -29.4950   20.6890 C   0  0  0  0  0  0  0  0  0  0  0  0
  -27.2050  -28.7400   20.6840 C   0  0  0  0  0  3  0  0  0  0  0  0
  -26.0790  -27.0000   19.4170 C   0  0  0  0  0  3  0  0  0  0  0  0
  -24.8820  -27.7360   19.4440 C   0  0  0  0  0  3  0  0  0  0  0  0
  -23.6030  -29.8380   20.1410 C   0  0  0  0  0  2  0  0  0  0  0  0
  -24.6500  -31.0980   22.0750 N   0  0  0  0  0  0  0  0  0  0  0  0
  -23.5100  -32.1490   23.7280 O   0  0  0  0  0  0  0  0  0  0  0  0
  -22.7480  -29.4590   22.4790 C   0  0  0  0  0  0  0  0  0  0  0  0
  -21.4210  -29.2870   22.3640 N   0  0  0  0  0  0  0  0  0  0  0  0
  -23.4380  -28.8140   23.2720 O   0  0  0  0  0  0  0  0  0  0  0  0
  -20.9270  -29.8610   21.6950 H   0  0  0  0  0  0  0  0  0  0  0  0
  -18.0400  -28.1230   22.8950 C   0  0  0  0  0  0  0  0  0  0  0  0
  -20.6050  -28.3410   23.1280 C   0  0  0  0  0  3  0  0  0  0  0  0
  -20.6820  -26.9240   22.5170 C   0  0  0  0  0  2  0  0  0  0  0  0
  -19.5580  -26.6370   21.5160 C   0  0  0  0  0  2  0  0  0  0  0  0
  -18.1880  -26.7870   22.1860 C   0  0  0  0  0  2  0  0  0  0  0  0
  -19.1770  -28.8600   23.3210 C   0  0  0  0  0  0  0  0  0  0  0  0
  -18.9850  -30.1120   23.9440 C   0  0  0  0  0  3  0  0  0  0  0  0
  -17.6910  -30.6270   24.1420 C   0  0  0  0  0  3  0  0  0  0  0  0
  -16.5690  -29.8860   23.7320 C   0  0  0  0  0  3  0  0  0  0  0  0
  -16.7440  -28.6360   23.1140 C   0  0  0  0  0  3  0  0  0  0  0  0
  -25.8770  -32.5160   23.8100 C   0  0  0  0  0  3  0  0  0  0  0  0
  -26.4010  -31.7310   25.0750 C   0  0  1  0  0  0  0  0  0  0  0  0
  -25.3090  -31.4750   26.1390 C   0  0  0  0  0  1  0  0  0  0  0  0
  -26.9950  -30.3620   24.6640 C   0  0  0  0  0  1  0  0  0  0  0  0
  -27.5470  -32.5230   25.7460 C   0  0  0  0  0  1  0  0  0  0  0  0
  -25.5630  -33.9090   24.1540 N   0  0  0  0  0  0  0  0  0  0  0  0
  -25.8850  -34.9690   23.4020 C   0  0  0  0  0  0  0  0  0  0  0  0
  -26.5510  -34.8770   22.3660 O   0  0  0  0  0  0  0  0  0  0  0  0
  -24.9690  -34.0530   24.9570 H   0  0  0  0  0  0  0  0  0  0  0  0
  -24.1500  -36.7560   23.0630 C   0  0  0  0  0  1  0  0  0  0  0  0
  -25.3920  -36.3500   23.8720 C   0  0  0  0  0  3  0  0  0  0  0  0
  -27.5200  -37.2360   24.7190 C   0  0  0  0  0  1  0  0  0  0  0  0
  -26.4210  -37.4070   23.7720 N   0  0  0  0  0  0  0  0  0  0  0  0
  -26.0120  -38.3260   23.9230 H   0  0  0  0  0  0  0  0  0  0  0  0
  1  7  1  0
  1 54  1  0
  2  6  1  0
  4  2  1  0
  4  7  1  0
  5  3  1  0
  6 14  1  1
  6  3  1  0
  7  5  1  0
  7  8  1  6
  9  6  1  0
 10 12  1  0
 10  9  1  0
 11  9  2  0
 13 10  1  0
 15 23  1  0
 16 21  1  0
 17 18  1  0
 17 16  1  0
 19 18  1  0
 19 28  1  0
 19 20  1  0
 21 15  1  0
 21 20  1  0
 22 15  2  0
 23 24  1  0
 23 14  1  0
 25 26  2  0
 26 45  1  0
 27 26  1  0
 27 30  1  0
 28 29  1  0
 28 25  1  0
 29 27  2  0
 30 31  1  0
 31 32  2  0
 33 36  1  0
 33 32  1  0
 34 33  2  0
 35 34  1  0
 35 30  2  0
 36 37  1  0
 37 38  1  0
 38 39  2  0
 40 39  1  0
 40 44  1  0
 41 40  2  0
 42 37  2  0
 42 41  1  0
 43 42  1  0
 45 46  1  0
 46 49  1  0
 46 48  1  0
 47 45  2  0
 50 51  1  0
 50 25  1  0
 52 50  1  0
 54 53  1  0
 55 56  1  0
 55 61  1  0
 55 54  1  0
 57 56  1  0
 58 56  1  0
 59 56  1  0
 61 60  1  0
 62 64  1  0
 62 61  1  0
 63 74  2  0
 64 69  1  0
 65 73  1  0
 65 75  1  0
 66 72  1  0
 66 68  1  0
 67 73  1  0
 68 67  1  0
 69 68  2  0
 70 71  1  0
 70 64  2  0
 71 66  2  0
 72 65  1  0
 73 63  1  0
 75 77  2  0
 76 75  1  0
 78 76  1  0
 79 88  2  0
 79 84  1  0
 80 76  1  0
 80 84  1  0
 81 80  1  0
 82 83  1  0
 82 81  1  0
 83 79  1  0
 84 85  2  0
 85 86  1  0
 87 86  2  0
 88 87  1  0
 89 63  1  0
 89 94  1  0
 89 90  1  0
 90 93  1  1
 90 91  1  0
 92 90  1  0
 94 97  1  0
 95 99  1  0
 95 94  1  0
 96 95  2  0
 99 98  1  0
101 99  1  0
101102  1  0
101100  1  0
M  ISO  4  15 100  23 100  61 101  62 101
M  END
>  <TORSDO>  (11) 
F 23

>  <SCORE>  (11) 
-13.146

>  <name>  (11) 
10

>  <ligand_id>  (11) 
10

>  <original_smiles>  (11) 
[H]c1c([H])c([H])c2c(c1[H])C([H])([H])C([H])([H])C([H])([H])C2([H])N([H])C(=O)C1([H])N(C(=O)C([H])(N([H])C(=O)C([H])(N([H])C([H])([H])[H])C([H])([H])[H])C(C([H])([H])[H])(C([H])([H])[H])C([H])([H])[H])C([H])([H])c2c([H])c(OC([H])(C([H])([H])[H])C([H])(C([H])(C([H])([H])[H])C([H])([H])[N+]3([H])C([H])([H])C([H])([H])C(C(=O)N([H])[H])(C([H])([H])N([H])C(=O)N4C([H])([H])C([H])([H])C([H])([H])C([H])(n5nc(-c6c([H])c([H])c(Oc7c([H])c([H])c(F)c([H])c7F)c([H])c6[H])c(C(=O)N([H])[H])c5N([H])[H])C4([H])[H])C([H])([H])C3([H])[H])[N+]([H])([H])[H])c([H])c([H])c2C1([H])[H]

>  <smiles>  (11) 
[H]c1c([H])c([H])c2c(c1[H])C([H])([H])C([H])([H])C([H])([H])C2([H])N([H])C(=O)C1([H])N(C(=O)C([H])(N([H])C(=O)C([H])(N([H])C([H])([H])[H])C([H])([H])[H])C(C([H])([H])[H])(C([H])([H])[H])C([H])([H])[H])C([H])([H])c2c([H])c(OC([H])(C([H])([H])[H])C([H])(C([H])(C([H])([H])[H])C([H])([H])[N+]3([H])C([H])([H])C([H])([H])C(C(=O)N([H])[H])(C([H])([H])N([H])C(=O)N4C([H])([H])C([H])([H])C([H])([H])C([H])(n5nc(-c6c([H])c([H])c(Oc7c([H])c([H])c(F)c([H])c7F)c([H])c6[H])c(C(=O)N([H])[H])c5N([H])[H])C4([H])[H])C([H])([H])C3([H])[H])[N+]([H])([H])[H])c([H])c([H])c2C1([H])[H]

$$$$
11:0:0
     RDKit          3D

 98106  0  0  1  0  0  0  0  0999 V2000
  -30.8650  -18.9950   22.0260 C   0  0  0  0  0  3  0  0  0  0  0  0
  -30.3180  -18.7180   19.3290 C   0  0  0  0  0  3  0  0  0  0  0  0
  -30.5650  -20.1550   21.2830 C   0  0  0  0  0  0  0  0  0  0  0  0
  -30.8930  -17.7000   21.4650 C   0  0  0  0  0  0  0  0  0  0  0  0
  -30.2880  -20.0660   19.8920 C   0  0  0  0  0  0  0  0  0  0  0  0
  -30.6230  -17.5070   20.0830 C   0  0  0  0  0  0  0  0  0  0  0  0
  -31.2500  -15.0150   19.4420 C   0  0  0  0  0  0  0  0  0  0  0  0
  -30.9550  -12.7150   18.4900 C   0  0  0  0  0  2  0  0  0  0  0  0
  -29.8840  -12.7460   17.3770 C   0  0  0  0  0  2  0  0  0  0  0  0
  -28.4680  -12.5990   17.9700 C   0  0  0  0  0  2  0  0  0  0  0  0
  -28.2290  -13.5320   19.1860 C   0  0  0  0  0  3  0  0  0  0  0  0
  -29.4000  -13.4550   20.1870 C   0  0  0  0  0  2  0  0  0  0  0  0
  -30.6230  -13.7910   19.4460 N   0  0  0  0  0  0  0  0  0  0  0  0
  -32.4190  -15.1160   19.0580 O   0  0  0  0  0  0  0  0  0  0  0  0
  -30.4250  -16.1240   19.5760 N   0  0  0  0  0  0  0  0  0  0  0  0
  -29.4550  -15.8540   19.5630 H   0  0  0  0  0  0  0  0  0  0  0  0
  -25.9800  -14.2010   20.2270 C   0  0  0  0  0  0  0  0  0  0  0  0
  -24.9260  -13.4600   20.6860 C   0  0  0  0  0  0  0  0  0  0  0  0
  -25.3120  -12.0930   20.5410 C   0  0  0  0  0  0  0  0  0  0  0  0
  -26.9410  -13.2870   19.8260 N   0  0  0  0  0  0  0  0  0  0  0  0
  -26.5540  -12.0100   20.0780 N   0  0  0  0  0  0  0  0  0  0  0  0
  -24.5500  -10.8570   20.7590 C   0  0  0  0  0  0  0  0  0  0  0  0
  -24.9560   -9.8990   21.7140 C   0  0  0  0  0  3  0  0  0  0  0  0
  -24.1970   -8.7270   21.9190 C   0  0  0  0  0  3  0  0  0  0  0  0
  -23.0180   -8.5040   21.1680 C   0  0  0  0  0  0  0  0  0  0  0  0
  -22.6310   -9.4500   20.2030 C   0  0  0  0  0  3  0  0  0  0  0  0
  -23.3910  -10.6150   19.9970 C   0  0  0  0  0  3  0  0  0  0  0  0
  -22.2310   -7.3840   21.2810 O   0  0  0  0  0  0  0  0  0  0  0  0
  -22.0180   -6.7730   22.4910 C   0  0  0  0  0  0  0  0  0  0  0  0
  -21.4470   -7.4640   23.5820 C   0  0  0  0  0  3  0  0  0  0  0  0
  -21.1790   -6.7810   24.7860 C   0  0  0  0  0  3  0  0  0  0  0  0
  -21.4700   -5.4080   24.8970 C   0  0  0  0  0  0  0  0  0  0  0  0
  -22.0330   -4.7180   23.8090 C   0  0  0  0  0  3  0  0  0  0  0  0
  -22.3020   -5.3980   22.6090 C   0  0  0  0  0  0  0  0  0  0  0  0
  -22.8250   -4.7220   21.5560 F   0  0  0  0  0  0  0  0  0  0  0  0
  -21.2070   -4.7500   26.0500 F   0  0  0  0  0  0  0  0  0  0  0  0
  -23.5950  -13.9860   21.1400 C   0  0  0  0  0  0  0  0  0  0  0  0
  -22.9610  -13.3080   22.0890 N   0  0  0  0  0  0  0  0  0  0  0  0
  -23.1320  -15.0330   20.6870 O   0  0  0  0  0  0  0  0  0  0  0  0
  -23.3530  -12.4620   22.4740 H   0  0  0  0  0  0  0  0  0  0  0  0
  -22.0730  -13.6410   22.4350 H   0  0  0  0  0  0  0  0  0  0  0  0
  -26.1920  -15.5710   20.0950 N   0  0  0  0  0  0  0  0  0  0  0  0
  -25.4780  -16.2490   20.3340 H   0  0  0  0  0  0  0  0  0  0  0  0
  -27.0090  -15.9940   19.6760 H   0  0  0  0  0  0  0  0  0  0  0  0
  -30.5710  -21.4570   22.0220 C   0  0  0  0  0  0  0  0  0  0  0  0
  -31.7710  -21.9450   22.2930 N   0  0  0  0  0  0  0  0  0  0  0  0
  -29.5260  -22.0110   22.3630 O   0  0  0  0  0  0  0  0  0  0  0  0
  -32.5930  -21.4470   21.9810 H   0  0  0  0  0  0  0  0  0  0  0  0
  -31.8710  -22.8090   22.8050 H   0  0  0  0  0  0  0  0  0  0  0  0
  -29.8620  -15.7180   22.6430 C   0  0  0  0  0  1  0  0  0  0  0  0
  -31.1320  -16.5480   22.4320 C   0  0  0  0  0  2  0  0  0  0  0  0
  -30.0470  -21.3720   18.9940 C   0  0  0  0  0  2  0  0  0  0  0  0
  -29.4550  -23.9400   19.1310 C   0  0  0  0  0  0  0  0  0  0  0  0
  -29.2480  -22.6020   19.4310 N   0  0  0  0  0  0  0  0  0  0  0  0
  -30.5060  -24.2830   18.5770 O   0  0  0  0  0  0  0  0  0  0  0  0
  -28.3830  -22.4000   19.9170 H   0  0  0  0  0  0  0  0  0  0  0  0
  -28.3390  -25.0560   19.4440 C   0  0  0  0  0  2  0  0  0  0  0  0
  -28.5180  -26.5420   19.2990 O   0  0  0  0  0  0  0  0  0  0  0  0
  -24.5740  -31.4010   22.9840 C   0  0  0  0  0  0  0  0  0  0  0  0
  -27.3600  -27.3460   19.3890 C   0  0  0  0  0  0  0  0  0  0  0  0
  -23.4040  -30.0960   21.2460 C   0  0  0  0  0  3  0  0  0  0  0  0
  -24.9000  -28.8040   19.6190 C   0  0  0  0  0  0  0  0  0  0  0  0
  -25.9110  -30.6060   21.0150 C   0  0  0  0  0  2  0  0  0  0  0  0
  -26.0600  -29.3080   20.2240 C   0  0  0  0  0  0  0  0  0  0  0  0
  -27.2950  -28.5940   20.0940 C   0  0  0  0  0  3  0  0  0  0  0  0
  -26.1710  -26.9030   18.7700 C   0  0  0  0  0  3  0  0  0  0  0  0
  -24.9600  -27.6130   18.8810 C   0  0  0  0  0  3  0  0  0  0  0  0
  -23.6120  -29.5830   19.7960 C   0  0  0  0  0  2  0  0  0  0  0  0
  -24.6510  -30.7140   21.8060 N   0  0  0  0  0  0  0  0  0  0  0  0
  -23.4960  -31.5450   23.5790 O   0  0  0  0  0  0  0  0  0  0  0  0
  -22.8470  -28.9420   22.1150 C   0  0  0  0  0  0  0  0  0  0  0  0
  -21.5420  -28.6500   21.9790 N   0  0  0  0  0  0  0  0  0  0  0  0
  -23.5910  -28.3140   22.8750 O   0  0  0  0  0  0  0  0  0  0  0  0
  -20.9950  -29.2210   21.3510 H   0  0  0  0  0  0  0  0  0  0  0  0
  -18.3040  -27.0840   22.3590 C   0  0  0  0  0  0  0  0  0  0  0  0
  -20.8240  -27.5740   22.6650 C   0  0  0  0  0  3  0  0  0  0  0  0
  -21.0680  -26.2110   21.9760 C   0  0  0  0  0  2  0  0  0  0  0  0
  -20.0020  -25.8630   20.9320 C   0  0  0  0  0  2  0  0  0  0  0  0
  -18.6140  -25.8170   21.5770 C   0  0  0  0  0  2  0  0  0  0  0  0
  -19.3420  -27.9150   22.8560 C   0  0  0  0  0  0  0  0  0  0  0  0
  -18.9990  -29.0970   23.5480 C   0  0  0  0  0  3  0  0  0  0  0  0
  -17.6510  -29.4520   23.7450 C   0  0  0  0  0  3  0  0  0  0  0  0
  -16.6290  -28.6160   23.2650 C   0  0  0  0  0  3  0  0  0  0  0  0
  -16.9550  -27.4320   22.5800 C   0  0  0  0  0  3  0  0  0  0  0  0
  -25.8340  -32.0570   23.6280 C   0  0  0  0  0  3  0  0  0  0  0  0
  -25.4750  -33.4280   24.0170 N   0  0  0  0  0  0  0  0  0  0  0  0
  -25.7770  -34.5250   23.3100 C   0  0  0  0  0  0  0  0  0  0  0  0
  -26.4560  -34.4910   22.2810 O   0  0  0  0  0  0  0  0  0  0  0  0
  -24.8730  -33.5270   24.8200 H   0  0  0  0  0  0  0  0  0  0  0  0
  -23.9900  -36.2730   23.0280 C   0  0  0  0  0  1  0  0  0  0  0  0
  -25.2390  -35.8740   23.8270 C   0  0  0  0  0  3  0  0  0  0  0  0
  -27.3350  -36.7970   24.7120 C   0  0  0  0  0  1  0  0  0  0  0  0
  -26.2340  -36.9660   23.7700 N   0  0  0  0  0  0  0  0  0  0  0  0
  -25.7950  -37.8630   23.9580 H   0  0  0  0  0  0  0  0  0  0  0  0
  -26.3870  -31.2560   24.8710 C   0  0  1  0  0  0  0  0  0  0  0  0
  -25.3070  -30.9250   25.9260 C   0  0  0  0  0  1  0  0  0  0  0  0
  -27.0340  -29.9270   24.4200 C   0  0  0  0  0  1  0  0  0  0  0  0
  -27.5010  -32.0730   25.5690 C   0  0  0  0  0  1  0  0  0  0  0  0
  2  5  2  0
  2  6  1  0
  3 45  1  0
  3  1  2  0
  4  1  1  0
  4 51  1  0
  5  3  1  0
  6  4  2  0
  7 13  1  0
  7 15  1  0
  8 13  1  0
  9 10  1  0
  9  8  1  0
 11 10  1  0
 11 20  1  0
 11 12  1  0
 13 12  1  0
 14  7  2  0
 15  6  1  0
 16 15  1  0
 17 18  2  0
 18 37  1  0
 19 18  1  0
 19 22  1  0
 20 21  1  0
 20 17  1  0
 21 19  2  0
 22 23  1  0
 23 24  2  0
 25 28  1  0
 25 24  1  0
 26 25  2  0
 27 26  1  0
 27 22  2  0
 28 29  1  0
 29 34  2  0
 29 30  1  0
 30 31  2  0
 31 32  1  0
 32 36  1  0
 33 32  2  0
 34 33  1  0
 35 34  1  0
 37 38  1  0
 38 41  1  0
 38 40  1  0
 39 37  2  0
 42 17  1  0
 42 43  1  0
 44 42  1  0
 45 46  1  0
 45 47  2  0
 46 49  1  0
 48 46  1  0
 51 50  1  0
 52 54  1  0
 52  5  1  0
 53 54  1  0
 53 57  1  0
 54 56  1  0
 55 53  2  0
 58 60  1  0
 58 57  1  0
 59 70  2  0
 60 65  1  0
 61 69  1  0
 61 71  1  0
 62 68  1  0
 62 64  1  0
 63 69  1  0
 64 63  1  0
 65 64  2  0
 66 67  1  0
 66 60  2  0
 67 62  2  0
 68 61  1  0
 69 59  1  0
 71 73  2  0
 72 71  1  0
 74 72  1  0
 75 84  2  0
 75 80  1  0
 76 72  1  0
 76 80  1  0
 77 76  1  0
 78 79  1  0
 78 77  1  0
 79 75  1  0
 80 81  2  0
 81 82  1  0
 83 82  2  0
 84 83  1  0
 85 59  1  0
 85 86  1  0
 85 95  1  0
 86 89  1  0
 87 91  1  0
 87 86  1  0
 88 87  2  0
 91 90  1  0
 93 91  1  0
 93 94  1  0
 93 92  1  0
 95 98  1  1
 95 96  1  0
 97 95  1  0
M  ISO  4   7 100  15 100  57 101  58 101
M  END
>  <TORSDO>  (12) 
F 21

>  <SCORE>  (12) 
-9.568

>  <name>  (12) 
11

>  <ligand_id>  (12) 
11

>  <original_smiles>  (12) 
[H]c1c([H])c([H])c2c(c1[H])C([H])([H])C([H])([H])C([H])([H])C2([H])N([H])C(=O)C1([H])N(C(=O)C([H])(N([H])C(=O)C([H])(N([H])C([H])([H])[H])C([H])([H])[H])C(C([H])([H])[H])(C([H])([H])[H])C([H])([H])[H])C([H])([H])c2c([H])c(OC([H])([H])C(=O)N([H])C([H])([H])c3c([H])c(N([H])C(=O)N4C([H])([H])C([H])([H])C([H])([H])C([H])(n5nc(-c6c([H])c([H])c(Oc7c([H])c([H])c(F)c([H])c7F)c([H])c6[H])c(C(=O)N([H])[H])c5N([H])[H])C4([H])[H])c(C([H])([H])C([H])([H])[H])c([H])c3C(=O)N([H])[H])c([H])c([H])c2C1([H])[H]

>  <smiles>  (12) 
[H]c1c([H])c([H])c2c(c1[H])C([H])([H])C([H])([H])C([H])([H])C2([H])N([H])C(=O)C1([H])N(C(=O)C([H])(N([H])C(=O)C([H])(N([H])C([H])([H])[H])C([H])([H])[H])C(C([H])([H])[H])(C([H])([H])[H])C([H])([H])[H])C([H])([H])c2c([H])c(OC([H])([H])C(=O)N([H])C([H])([H])c3c([H])c(N([H])C(=O)N4C([H])([H])C([H])([H])C([H])([H])C([H])(n5nc(-c6c([H])c([H])c(Oc7c([H])c([H])c(F)c([H])c7F)c([H])c6[H])c(C(=O)N([H])[H])c5N([H])[H])C4([H])[H])c(C([H])([H])C([H])([H])[H])c([H])c3C(=O)N([H])[H])c([H])c([H])c2C1([H])[H]

$$$$
12:0:0
     RDKit          3D

 96104  0  0  1  0  0  0  0  0999 V2000
  -29.1670  -21.8890   19.8850 C   0  0  0  0  0  0  0  0  0  0  0  0
  -29.0720  -20.4650   20.1970 N   0  0  0  0  0  0  0  0  0  0  0  0
  -30.1070  -22.2270   19.1630 O   0  0  0  0  0  0  0  0  0  0  0  0
  -28.1420  -20.1250   20.3920 H   0  0  0  0  0  0  0  0  0  0  0  0
  -32.3440  -19.7760   21.8870 C   0  0  0  0  0  3  0  0  0  0  0  0
  -32.4990  -18.4170   22.0770 C   0  0  0  0  0  3  0  0  0  0  0  0
  -31.2240  -20.2450   21.2000 C   0  0  0  0  0  3  0  0  0  0  0  0
  -31.5780  -17.5460   21.5020 C   0  0  0  0  0  3  0  0  0  0  0  0
  -30.1900  -19.4470   20.6080 C   0  0  0  0  0  0  0  0  0  0  0  0
  -30.4520  -17.9050   20.6920 C   0  0  0  0  0  0  0  0  0  0  0  0
  -30.5090  -15.2650   19.9760 C   0  0  0  0  0  0  0  0  0  0  0  0
  -30.3520  -12.9170   18.9870 C   0  0  0  0  0  2  0  0  0  0  0  0
  -29.3570  -12.8320   17.8110 C   0  0  0  0  0  2  0  0  0  0  0  0
  -27.9250  -12.5760   18.3150 C   0  0  0  0  0  2  0  0  0  0  0  0
  -27.5610  -13.4500   19.5460 C   0  0  0  0  0  3  0  0  0  0  0  0
  -28.6870  -13.5200   20.5970 C   0  0  0  0  0  2  0  0  0  0  0  0
  -29.8860  -14.0080   19.9040 N   0  0  0  0  0  0  0  0  0  0  0  0
  -31.6900  -15.2600   19.6130 O   0  0  0  0  0  0  0  0  0  0  0  0
  -29.8440  -16.5420   20.2270 N   0  0  0  0  0  0  0  0  0  0  0  0
  -28.8360  -16.4990   20.2210 H   0  0  0  0  0  0  0  0  0  0  0  0
  -25.2210  -13.9110   20.4630 C   0  0  0  0  0  0  0  0  0  0  0  0
  -24.2090  -13.0870   20.8690 C   0  0  0  0  0  0  0  0  0  0  0  0
  -24.7140  -11.7550   20.7630 C   0  0  0  0  0  0  0  0  0  0  0  0
  -26.2750  -13.0800   20.1260 N   0  0  0  0  0  0  0  0  0  0  0  0
  -25.9850  -11.7750   20.3730 N   0  0  0  0  0  0  0  0  0  0  0  0
  -24.0390  -10.4640   20.9530 C   0  0  0  0  0  0  0  0  0  0  0  0
  -24.4870   -9.5280   21.9110 C   0  0  0  0  0  3  0  0  0  0  0  0
  -23.8060   -8.3050   22.0910 C   0  0  0  0  0  3  0  0  0  0  0  0
  -22.6620   -8.0080   21.3130 C   0  0  0  0  0  0  0  0  0  0  0  0
  -22.2350   -8.9320   20.3440 C   0  0  0  0  0  3  0  0  0  0  0  0
  -22.9170  -10.1470   20.1620 C   0  0  0  0  0  3  0  0  0  0  0  0
  -21.9540   -6.8320   21.3990 O   0  0  0  0  0  0  0  0  0  0  0  0
  -21.8430   -6.1440   22.5800 C   0  0  0  0  0  0  0  0  0  0  0  0
  -21.2440   -6.7170   23.7240 C   0  0  0  0  0  3  0  0  0  0  0  0
  -21.0890   -5.9500   24.8940 C   0  0  0  0  0  3  0  0  0  0  0  0
  -21.5230   -4.6100   24.9230 C   0  0  0  0  0  0  0  0  0  0  0  0
  -22.1150   -4.0370   23.7840 C   0  0  0  0  0  3  0  0  0  0  0  0
  -22.2720   -4.8020   22.6160 C   0  0  0  0  0  0  0  0  0  0  0  0
  -22.8220   -4.2390   21.5130 F   0  0  0  0  0  0  0  0  0  0  0  0
  -21.3680   -3.8700   26.0460 F   0  0  0  0  0  0  0  0  0  0  0  0
  -22.8170  -13.5080   21.2370 C   0  0  0  0  0  0  0  0  0  0  0  0
  -22.1600  -12.7540   22.1110 N   0  0  0  0  0  0  0  0  0  0  0  0
  -22.3210  -14.5380   20.7820 O   0  0  0  0  0  0  0  0  0  0  0  0
  -22.5810  -11.9250   22.5040 H   0  0  0  0  0  0  0  0  0  0  0  0
  -21.2250  -13.0100   22.3950 H   0  0  0  0  0  0  0  0  0  0  0  0
  -25.3220  -15.2920   20.3220 N   0  0  0  0  0  0  0  0  0  0  0  0
  -24.5310  -15.9000   20.5000 H   0  0  0  0  0  0  0  0  0  0  0  0
  -26.1200  -15.7810   19.9410 H   0  0  0  0  0  0  0  0  0  0  0  0
  -28.5830  -23.4220   21.8330 C   0  0  0  0  0  1  0  0  0  0  0  0
  -28.1940  -23.1960   20.3560 C   0  0  2  0  0  0  0  0  0  0  0  0
  -26.8040  -22.6910   20.2800 N   0  0  0  0  0  4  0  0  0  0  0  0
  -26.6670  -21.8790   20.8530 H   0  0  0  0  0  0  0  0  0  0  0  0
  -26.5880  -22.4320   19.3320 H   0  0  0  0  0  0  0  0  0  0  0  0
  -26.1410  -23.3920   20.5650 H   0  0  0  0  0  0  0  0  0  0  0  0
  -28.2050  -24.7720   19.6170 C   0  0  0  0  0  2  0  0  0  0  0  0
  -28.0990  -26.2630   20.1670 O   0  0  0  0  0  0  0  0  0  0  0  0
  -24.5490  -31.9920   23.2230 C   0  0  0  0  0  0  0  0  0  0  0  0
  -27.0330  -27.2550   20.0700 C   0  0  0  0  0  0  0  0  0  0  0  0
  -23.3020  -30.6030   21.6100 C   0  0  0  0  0  3  0  0  0  0  0  0
  -24.7070  -29.0360   20.1180 C   0  0  0  0  0  0  0  0  0  0  0  0
  -25.8520  -30.8560   21.3760 C   0  0  0  0  0  2  0  0  0  0  0  0
  -25.9020  -29.4670   20.7040 C   0  0  0  0  0  0  0  0  0  0  0  0
  -27.0580  -28.5910   20.6630 C   0  0  0  0  0  3  0  0  0  0  0  0
  -25.8140  -26.9430   19.4300 C   0  0  0  0  0  3  0  0  0  0  0  0
  -24.6790  -27.7930   19.4610 C   0  0  0  0  0  3  0  0  0  0  0  0
  -23.4800  -29.9360   20.2190 C   0  0  0  0  0  2  0  0  0  0  0  0
  -24.5900  -31.1740   22.1240 N   0  0  0  0  0  0  0  0  0  0  0  0
  -23.4770  -32.2750   23.7810 O   0  0  0  0  0  0  0  0  0  0  0  0
  -22.6490  -29.5940   22.5900 C   0  0  0  0  0  0  0  0  0  0  0  0
  -21.3310  -29.3710   22.4530 N   0  0  0  0  0  0  0  0  0  0  0  0
  -23.3350  -29.0120   23.4330 O   0  0  0  0  0  0  0  0  0  0  0  0
  -20.8310  -29.8960   21.7480 H   0  0  0  0  0  0  0  0  0  0  0  0
  -18.0040  -27.9900   22.8890 C   0  0  0  0  0  0  0  0  0  0  0  0
  -20.5340  -28.4170   23.2340 C   0  0  0  0  0  3  0  0  0  0  0  0
  -20.7390  -26.9710   22.7230 C   0  0  0  0  0  2  0  0  0  0  0  0
  -19.6940  -26.5440   21.6860 C   0  0  0  0  0  2  0  0  0  0  0  0
  -18.2840  -26.6300   22.2750 C   0  0  0  0  0  2  0  0  0  0  0  0
  -19.0600  -28.8350   23.3250 C   0  0  0  0  0  0  0  0  0  0  0  0
  -18.7450  -30.1030   23.8620 C   0  0  0  0  0  3  0  0  0  0  0  0
  -17.4060  -30.5260   23.9710 C   0  0  0  0  0  3  0  0  0  0  0  0
  -16.3640  -29.6810   23.5520 C   0  0  0  0  0  3  0  0  0  0  0  0
  -16.6640  -28.4160   23.0170 C   0  0  0  0  0  3  0  0  0  0  0  0
  -25.8410  -32.6270   23.8180 C   0  0  0  0  0  3  0  0  0  0  0  0
  -26.3800  -31.8600   25.0880 C   0  0  1  0  0  0  0  0  0  0  0  0
  -25.3020  -31.6080   26.1680 C   0  0  0  0  0  1  0  0  0  0  0  0
  -26.9740  -30.4890   24.6900 C   0  0  0  0  0  1  0  0  0  0  0  0
  -27.5260  -32.6690   25.7400 C   0  0  0  0  0  1  0  0  0  0  0  0
  -25.5370  -34.0270   24.1610 N   0  0  0  0  0  0  0  0  0  0  0  0
  -25.8670  -35.0890   23.4130 C   0  0  0  0  0  0  0  0  0  0  0  0
  -26.5200  -34.9930   22.3720 O   0  0  0  0  0  0  0  0  0  0  0  0
  -24.9480  -34.1750   24.9670 H   0  0  0  0  0  0  0  0  0  0  0  0
  -24.1510  -36.9070   23.1060 C   0  0  0  0  0  1  0  0  0  0  0  0
  -25.3970  -36.4770   23.8960 C   0  0  0  0  0  3  0  0  0  0  0  0
  -27.5430  -37.3360   24.7250 C   0  0  0  0  0  1  0  0  0  0  0  0
  -26.4390  -37.5220   23.7890 N   0  0  0  0  0  0  0  0  0  0  0  0
  -26.0420  -38.4450   23.9440 H   0  0  0  0  0  0  0  0  0  0  0  0
  1  2  1  0
  1 50  1  0
  2  4  1  0
  2  9  1  0
  3  1  2  0
  5  6  1  0
  7  5  2  0
  8  6  2  0
  9 10  2  0
  9  7  1  0
 10  8  1  0
 11 19  1  0
 12 17  1  0
 13 14  1  0
 13 12  1  0
 15 14  1  0
 15 24  1  0
 15 16  1  0
 17 11  1  0
 17 16  1  0
 18 11  2  0
 19 10  1  0
 20 19  1  0
 21 22  2  0
 22 41  1  0
 23 22  1  0
 23 26  1  0
 24 25  1  0
 24 21  1  0
 25 23  2  0
 26 27  1  0
 27 28  2  0
 29 32  1  0
 29 28  1  0
 30 29  2  0
 31 30  1  0
 31 26  2  0
 32 33  1  0
 33 38  2  0
 33 34  1  0
 34 35  2  0
 35 36  1  0
 36 40  1  0
 37 36  2  0
 38 37  1  0
 39 38  1  0
 41 42  1  0
 42 45  1  0
 42 44  1  0
 43 41  2  0
 46 21  1  0
 46 47  1  0
 48 46  1  0
 50 49  1  1
 51 50  1  0
 51 54  1  0
 51 52  1  0
 53 51  1  0
 55 56  1  0
 55 50  1  0
 57 68  2  0
 58 56  1  0
 58 63  1  0
 59 67  1  0
 59 69  1  0
 60 66  1  0
 60 62  1  0
 61 67  1  0
 62 61  1  0
 63 62  2  0
 64 65  1  0
 64 58  2  0
 65 60  2  0
 66 59  1  0
 67 57  1  0
 69 71  2  0
 70 69  1  0
 72 70  1  0
 73 82  2  0
 73 78  1  0
 74 70  1  0
 74 78  1  0
 75 74  1  0
 76 77  1  0
 76 75  1  0
 77 73  1  0
 78 79  2  0
 79 80  1  0
 81 80  2  0
 82 81  1  0
 83 57  1  0
 83 88  1  0
 83 84  1  0
 84 87  1  1
 84 85  1  0
 86 84  1  0
 88 91  1  0
 89 93  1  0
 89 88  1  0
 90 89  2  0
 93 92  1  0
 95 93  1  0
 95 96  1  0
 95 94  1  0
M  ISO  4  11 100  19 100  55 101  56 101
M  END
>  <TORSDO>  (13) 
F 20

>  <SCORE>  (13) 
-14.427

>  <name>  (13) 
12

>  <ligand_id>  (13) 
12

>  <original_smiles>  (13) 
[H]c1c([H])c([H])c(N([H])C(=O)C(C([H])([H])[H])(C([H])([H])Oc2c([H])c([H])c3c(c2[H])C([H])([H])N(C(=O)C([H])(N([H])C(=O)C([H])(N([H])C([H])([H])[H])C([H])([H])[H])C(C([H])([H])[H])(C([H])([H])[H])C([H])([H])[H])C([H])(C(=O)N([H])C2([H])c4c([H])c([H])c([H])c([H])c4C([H])([H])C([H])([H])C2([H])[H])C3([H])[H])[N+]([H])([H])[H])c(N([H])C(=O)N2C([H])([H])C([H])([H])C([H])([H])C([H])(n3nc(-c4c([H])c([H])c(Oc5c([H])c([H])c(F)c([H])c5F)c([H])c4[H])c(C(=O)N([H])[H])c3N([H])[H])C2([H])[H])c1[H]

>  <smiles>  (13) 
[H]c1c([H])c([H])c(N([H])C(=O)C(C([H])([H])[H])(C([H])([H])Oc2c([H])c([H])c3c(c2[H])C([H])([H])N(C(=O)C([H])(N([H])C(=O)C([H])(N([H])C([H])([H])[H])C([H])([H])[H])C(C([H])([H])[H])(C([H])([H])[H])C([H])([H])[H])C([H])(C(=O)N([H])C2([H])c4c([H])c([H])c([H])c([H])c4C([H])([H])C([H])([H])C2([H])[H])C3([H])[H])[N+]([H])([H])[H])c(N([H])C(=O)N2C([H])([H])C([H])([H])C([H])([H])C([H])(n3nc(-c4c([H])c([H])c(Oc5c([H])c([H])c(F)c([H])c5F)c([H])c4[H])c(C(=O)N([H])[H])c3N([H])[H])C2([H])[H])c1[H]

$$$$
13:0:0
     RDKit          3D

 93101  0  0  1  0  0  0  0  0999 V2000
  -30.3570  -20.7320   19.5580 C   0  0  0  0  0  2  0  0  0  0  0  0
  -29.3040  -21.1600   21.8230 C   0  0  0  0  0  2  0  0  0  0  0  0
  -30.5960  -22.2610   19.6950 C   0  0  0  0  0  2  0  0  0  0  0  0
  -28.6210  -22.4090   21.2160 C   0  0  0  0  0  2  0  0  0  0  0  0
  -29.5730  -20.1020   20.7360 C   0  0  0  0  0  3  0  0  0  0  0  0
  -29.3550  -23.0050   20.0540 N   0  0  1  0  0  4  0  0  0  0  0  0
  -28.7480  -22.8640   19.2570 H   0  0  0  0  0  0  0  0  0  0  0  0
  -29.9500  -17.6380   21.0470 C   0  0  0  0  0  0  0  0  0  0  0  0
  -30.2530  -18.9250   21.2980 N   0  0  0  0  0  0  0  0  0  0  0  0
  -29.0540  -17.3070   20.2650 O   0  0  0  0  0  0  0  0  0  0  0  0
  -31.0020  -19.0930   21.9550 H   0  0  0  0  0  0  0  0  0  0  0  0
  -30.7570  -16.5640   21.7950 C   0  0  0  0  0  2  0  0  0  0  0  0
  -30.7320  -14.3960   20.5410 C   0  0  0  0  0  0  0  0  0  0  0  0
  -30.3660  -12.3130   19.2680 C   0  0  0  0  0  2  0  0  0  0  0  0
  -29.4180  -12.5490   18.0760 C   0  0  0  0  0  2  0  0  0  0  0  0
  -27.9490  -12.4110   18.5080 C   0  0  0  0  0  2  0  0  0  0  0  0
  -27.6240  -13.2370   19.7810 C   0  0  0  0  0  3  0  0  0  0  0  0
  -28.6720  -12.9750   20.8850 C   0  0  0  0  0  2  0  0  0  0  0  0
  -30.0130  -13.2590   20.3400 N   0  0  0  0  0  0  0  0  0  0  0  0
  -31.7480  -14.6750   19.8970 O   0  0  0  0  0  0  0  0  0  0  0  0
  -30.2800  -15.2030   21.5100 N   0  0  0  0  0  0  0  0  0  0  0  0
  -29.4620  -14.8960   22.0120 H   0  0  0  0  0  0  0  0  0  0  0  0
  -25.2250  -13.8660   20.4700 C   0  0  0  0  0  0  0  0  0  0  0  0
  -24.1470  -13.1060   20.8400 C   0  0  0  0  0  0  0  0  0  0  0  0
  -24.5990  -11.7490   20.8190 C   0  0  0  0  0  0  0  0  0  0  0  0
  -26.2650  -12.9770   20.2510 N   0  0  0  0  0  0  0  0  0  0  0  0
  -25.8890  -11.6990   20.5130 N   0  0  0  0  0  0  0  0  0  0  0  0
  -23.8620  -10.4930   21.0160 C   0  0  0  0  0  0  0  0  0  0  0  0
  -24.2870   -9.5270   21.9560 C   0  0  0  0  0  3  0  0  0  0  0  0
  -23.5530   -8.3360   22.1360 C   0  0  0  0  0  3  0  0  0  0  0  0
  -22.3810   -8.1010   21.3800 C   0  0  0  0  0  0  0  0  0  0  0  0
  -21.9750   -9.0550   20.4310 C   0  0  0  0  0  3  0  0  0  0  0  0
  -22.7100  -10.2400   20.2470 C   0  0  0  0  0  3  0  0  0  0  0  0
  -21.6190   -6.9620   21.4720 O   0  0  0  0  0  0  0  0  0  0  0  0
  -21.5610   -6.2270   22.6280 C   0  0  0  0  0  0  0  0  0  0  0  0
  -21.1290   -6.7910   23.8490 C   0  0  0  0  0  3  0  0  0  0  0  0
  -21.0150   -5.9830   24.9980 C   0  0  0  0  0  3  0  0  0  0  0  0
  -21.3240   -4.6110   24.9280 C   0  0  0  0  0  0  0  0  0  0  0  0
  -21.7490   -4.0450   23.7120 C   0  0  0  0  0  3  0  0  0  0  0  0
  -21.8630   -4.8510   22.5660 C   0  0  0  0  0  0  0  0  0  0  0  0
  -22.2540   -4.2970   21.3930 F   0  0  0  0  0  0  0  0  0  0  0  0
  -21.2070   -3.8330   26.0300 F   0  0  0  0  0  0  0  0  0  0  0  0
  -22.7550  -13.5940   21.1110 C   0  0  0  0  0  0  0  0  0  0  0  0
  -22.0230  -12.9080   21.9820 N   0  0  0  0  0  0  0  0  0  0  0  0
  -22.3240  -14.6210   20.5880 O   0  0  0  0  0  0  0  0  0  0  0  0
  -22.3870  -12.0790   22.4270 H   0  0  0  0  0  0  0  0  0  0  0  0
  -21.0860  -13.2150   22.2060 H   0  0  0  0  0  0  0  0  0  0  0  0
  -25.4050  -15.2350   20.2910 N   0  0  0  0  0  0  0  0  0  0  0  0
  -24.6500  -15.9010   20.4050 H   0  0  0  0  0  0  0  0  0  0  0  0
  -26.2790  -15.6660   20.0140 H   0  0  0  0  0  0  0  0  0  0  0  0
  -29.5560  -24.4860   20.1570 C   0  0  0  0  0  2  0  0  0  0  0  0
  -28.2560  -25.2870   19.9140 C   0  0  0  0  0  2  0  0  0  0  0  0
  -28.3790  -26.6990   20.1720 O   0  0  0  0  0  0  0  0  0  0  0  0
  -24.5970  -31.9190   23.2470 C   0  0  0  0  0  0  0  0  0  0  0  0
  -27.2050  -27.4370   20.1640 C   0  0  0  0  0  0  0  0  0  0  0  0
  -23.3770  -30.5210   21.6140 C   0  0  0  0  0  3  0  0  0  0  0  0
  -24.8170  -28.9700   20.1950 C   0  0  0  0  0  0  0  0  0  0  0  0
  -25.9090  -30.8570   21.4100 C   0  0  0  0  0  2  0  0  0  0  0  0
  -25.9830  -29.4840   20.7710 C   0  0  0  0  0  0  0  0  0  0  0  0
  -27.1790  -28.7270   20.7520 C   0  0  0  0  0  3  0  0  0  0  0  0
  -26.0070  -26.9410   19.5900 C   0  0  0  0  0  3  0  0  0  0  0  0
  -24.8230  -27.6980   19.6060 C   0  0  0  0  0  3  0  0  0  0  0  0
  -23.5810  -29.8400   20.2360 C   0  0  0  0  0  2  0  0  0  0  0  0
  -24.6460  -31.1140   22.1480 N   0  0  0  0  0  0  0  0  0  0  0  0
  -23.5180  -32.2020   23.7880 O   0  0  0  0  0  0  0  0  0  0  0  0
  -22.7220  -29.5060   22.5780 C   0  0  0  0  0  0  0  0  0  0  0  0
  -21.3970  -29.3330   22.4550 N   0  0  0  0  0  0  0  0  0  0  0  0
  -23.4040  -28.8750   23.3900 O   0  0  0  0  0  0  0  0  0  0  0  0
  -20.9080  -29.8940   21.7730 H   0  0  0  0  0  0  0  0  0  0  0  0
  -18.0170  -28.1590   22.9650 C   0  0  0  0  0  0  0  0  0  0  0  0
  -20.5760  -28.4000   23.2280 C   0  0  0  0  0  3  0  0  0  0  0  0
  -20.6690  -26.9680   22.6540 C   0  0  0  0  0  2  0  0  0  0  0  0
  -19.5620  -26.6510   21.6430 C   0  0  0  0  0  2  0  0  0  0  0  0
  -18.1820  -26.8060   22.2910 C   0  0  0  0  0  2  0  0  0  0  0  0
  -19.1420  -28.9130   23.3920 C   0  0  0  0  0  0  0  0  0  0  0  0
  -18.9340  -30.1780   23.9810 C   0  0  0  0  0  3  0  0  0  0  0  0
  -17.6350  -30.6910   24.1460 C   0  0  0  0  0  3  0  0  0  0  0  0
  -16.5240  -29.9340   23.7350 C   0  0  0  0  0  3  0  0  0  0  0  0
  -16.7150  -28.6690   23.1500 C   0  0  0  0  0  3  0  0  0  0  0  0
  -25.8880  -32.5440   23.8600 C   0  0  0  0  0  3  0  0  0  0  0  0
  -26.4140  -31.7640   25.1270 C   0  0  1  0  0  0  0  0  0  0  0  0
  -25.3290  -31.5220   26.2000 C   0  0  0  0  0  1  0  0  0  0  0  0
  -26.9950  -30.3900   24.7210 C   0  0  0  0  0  1  0  0  0  0  0  0
  -27.5700  -32.5550   25.7850 C   0  0  0  0  0  1  0  0  0  0  0  0
  -25.5850  -33.9400   24.2000 N   0  0  0  0  0  0  0  0  0  0  0  0
  -25.9030  -34.9940   23.4350 C   0  0  0  0  0  0  0  0  0  0  0  0
  -26.5560  -34.8920   22.3940 O   0  0  0  0  0  0  0  0  0  0  0  0
  -25.0030  -34.0920   25.0100 H   0  0  0  0  0  0  0  0  0  0  0  0
  -24.1650  -36.7830   23.1100 C   0  0  0  0  0  1  0  0  0  0  0  0
  -25.4190  -36.3820   23.9010 C   0  0  0  0  0  3  0  0  0  0  0  0
  -27.5640  -37.2680   24.7010 C   0  0  0  0  0  1  0  0  0  0  0  0
  -26.4480  -37.4360   23.7740 N   0  0  0  0  0  0  0  0  0  0  0  0
  -26.0430  -38.3550   23.9250 H   0  0  0  0  0  0  0  0  0  0  0  0
  1  3  1  0
  1  5  1  0
  3  6  1  0
  4  2  1  0
  5  9  1  0
  5  2  1  0
  6 51  1  0
  6  4  1  0
  6  7  1  6
  8  9  1  0
  8 12  1  0
  9 11  1  0
 10  8  2  0
 13 21  1  0
 14 19  1  0
 15 16  1  0
 15 14  1  0
 17 16  1  0
 17 26  1  0
 17 18  1  0
 19 13  1  0
 19 18  1  0
 20 13  2  0
 21 12  1  0
 21 22  1  0
 23 24  2  0
 24 43  1  0
 25 24  1  0
 25 28  1  0
 26 23  1  0
 26 27  1  0
 27 25  2  0
 28 29  1  0
 29 30  2  0
 31 34  1  0
 31 30  1  0
 32 31  2  0
 33 32  1  0
 33 28  2  0
 34 35  1  0
 35 36  1  0
 36 37  2  0
 38 37  1  0
 38 42  1  0
 39 38  2  0
 40 35  2  0
 40 39  1  0
 41 40  1  0
 43 44  1  0
 44 47  1  0
 44 46  1  0
 45 43  2  0
 48 49  1  0
 48 23  1  0
 50 48  1  0
 52 51  1  0
 52 53  1  0
 54 65  2  0
 55 53  1  0
 55 60  1  0
 56 64  1  0
 56 66  1  0
 57 63  1  0
 57 59  1  0
 58 64  1  0
 59 58  1  0
 60 59  2  0
 61 62  1  0
 61 55  2  0
 62 57  2  0
 63 56  1  0
 64 54  1  0
 66 68  2  0
 67 66  1  0
 69 67  1  0
 70 79  2  0
 70 75  1  0
 71 67  1  0
 71 75  1  0
 72 71  1  0
 73 74  1  0
 73 72  1  0
 74 70  1  0
 75 76  2  0
 76 77  1  0
 78 77  2  0
 79 78  1  0
 80 54  1  0
 80 85  1  0
 80 81  1  0
 81 84  1  1
 81 82  1  0
 83 81  1  0
 85 88  1  0
 86 90  1  0
 86 85  1  0
 87 86  2  0
 90 89  1  0
 92 90  1  0
 92 93  1  0
 92 91  1  0
M  ISO  4  13 100  21 100  52 101  53 101
M  END
>  <TORSDO>  (14) 
F 20

>  <SCORE>  (14) 
-14.111

>  <name>  (14) 
13

>  <ligand_id>  (14) 
13

>  <original_smiles>  (14) 
[H]c1c([H])c([H])c2c(c1[H])C([H])([H])C([H])([H])C([H])([H])C2([H])N([H])C(=O)C1([H])N(C(=O)C([H])(N([H])C(=O)C([H])(N([H])C([H])([H])[H])C([H])([H])[H])C(C([H])([H])[H])(C([H])([H])[H])C([H])([H])[H])C([H])([H])c2c([H])c(OC([H])([H])C([H])([H])[N+]3([H])C([H])([H])C([H])([H])C([H])(N([H])C(=O)C([H])([H])N([H])C(=O)N4C([H])([H])C([H])([H])C([H])([H])C([H])(n5nc(-c6c([H])c([H])c(Oc7c([H])c([H])c(F)c([H])c7F)c([H])c6[H])c(C(=O)N([H])[H])c5N([H])[H])C4([H])[H])C([H])([H])C3([H])[H])c([H])c([H])c2C1([H])[H]

>  <smiles>  (14) 
[H]c1c([H])c([H])c2c(c1[H])C([H])([H])C([H])([H])C([H])([H])C2([H])N([H])C(=O)C1([H])N(C(=O)C([H])(N([H])C(=O)C([H])(N([H])C([H])([H])[H])C([H])([H])[H])C(C([H])([H])[H])(C([H])([H])[H])C([H])([H])[H])C([H])([H])c2c([H])c(OC([H])([H])C([H])([H])[N+]3([H])C([H])([H])C([H])([H])C([H])(N([H])C(=O)C([H])([H])N([H])C(=O)N4C([H])([H])C([H])([H])C([H])([H])C([H])(n5nc(-c6c([H])c([H])c(Oc7c([H])c([H])c(F)c([H])c7F)c([H])c6[H])c(C(=O)N([H])[H])c5N([H])[H])C4([H])[H])C([H])([H])C3([H])[H])c([H])c([H])c2C1([H])[H]

$$$$
14:0:0
     RDKit          3D

 97106  0  0  1  0  0  0  0  0999 V2000
  -28.1910  -20.8610   21.3090 C   0  0  0  0  0  2  0  0  0  0  0  0
  -27.9640  -22.3500   21.5830 C   0  0  0  0  0  2  0  0  0  0  0  0
  -29.6720  -20.7460   20.9680 C   0  0  0  0  0  3  0  0  0  0  0  0
  -29.2320  -23.0720   21.0840 C   0  0  0  0  0  3  0  0  0  0  0  0
  -31.3920  -22.2770   20.2910 C   0  0  0  0  0  1  0  0  0  0  0  0
  -29.9470  -22.0380   20.3170 N   0  0  0  0  0  0  0  0  0  0  0  0
  -30.4310  -18.4500   17.9660 C   0  0  0  0  0  3  0  0  0  0  0  0
  -30.2100  -19.6010   18.7390 C   0  0  0  0  0  3  0  0  0  0  0  0
  -30.3960  -17.1810   18.5690 C   0  0  0  0  0  3  0  0  0  0  0  0
  -29.9900  -18.2150   20.7360 C   0  0  0  0  0  3  0  0  0  0  0  0
  -29.9820  -19.4980   20.1300 C   0  0  0  0  0  0  0  0  0  0  0  0
  -30.1910  -17.0430   19.9640 C   0  0  0  0  0  0  0  0  0  0  0  0
  -30.8700  -14.6800   20.2730 C   0  0  0  0  0  0  0  0  0  0  0  0
  -30.5790  -12.5120   19.1800 C   0  0  0  0  0  2  0  0  0  0  0  0
  -29.6340  -12.7540   17.9800 C   0  0  0  0  0  2  0  0  0  0  0  0
  -28.1610  -12.6200   18.4180 C   0  0  0  0  0  2  0  0  0  0  0  0
  -27.8390  -13.4200   19.7090 C   0  0  0  0  0  3  0  0  0  0  0  0
  -28.9030  -13.1910   20.8040 C   0  0  0  0  0  2  0  0  0  0  0  0
  -30.2210  -13.4880   20.2200 N   0  0  0  0  0  0  0  0  0  0  0  0
  -32.0310  -14.8240   19.8860 O   0  0  0  0  0  0  0  0  0  0  0  0
  -30.1000  -15.7480   20.5720 N   0  0  0  0  0  0  0  0  0  0  0  0
  -29.2240  -15.5400   21.0260 H   0  0  0  0  0  0  0  0  0  0  0  0
  -25.4390  -14.0160   20.4070 C   0  0  0  0  0  0  0  0  0  0  0  0
  -24.3730  -13.2400   20.7770 C   0  0  0  0  0  0  0  0  0  0  0  0
  -24.8380  -11.8900   20.7520 C   0  0  0  0  0  0  0  0  0  0  0  0
  -26.4880  -13.1390   20.1870 N   0  0  0  0  0  0  0  0  0  0  0  0
  -26.1310  -11.8570   20.4490 N   0  0  0  0  0  0  0  0  0  0  0  0
  -24.1180  -10.6240   20.9460 C   0  0  0  0  0  0  0  0  0  0  0  0
  -24.5390   -9.6790   21.9080 C   0  0  0  0  0  3  0  0  0  0  0  0
  -23.8270   -8.4750   22.0930 C   0  0  0  0  0  3  0  0  0  0  0  0
  -22.6750   -8.2080   21.3170 C   0  0  0  0  0  0  0  0  0  0  0  0
  -22.2720   -9.1390   20.3450 C   0  0  0  0  0  3  0  0  0  0  0  0
  -22.9850  -10.3350   20.1580 C   0  0  0  0  0  3  0  0  0  0  0  0
  -21.9280   -7.0600   21.4110 O   0  0  0  0  0  0  0  0  0  0  0  0
  -21.8360   -6.3560   22.5850 C   0  0  0  0  0  0  0  0  0  0  0  0
  -21.3150   -6.9330   23.7630 C   0  0  0  0  0  3  0  0  0  0  0  0
  -21.1760   -6.1510   24.9270 C   0  0  0  0  0  3  0  0  0  0  0  0
  -21.5490   -4.7940   24.9110 C   0  0  0  0  0  0  0  0  0  0  0  0
  -22.0660   -4.2170   23.7370 C   0  0  0  0  0  3  0  0  0  0  0  0
  -22.2050   -4.9960   22.5760 C   0  0  0  0  0  0  0  0  0  0  0  0
  -22.6840   -4.4300   21.4430 F   0  0  0  0  0  0  0  0  0  0  0  0
  -21.4080   -4.0390   26.0250 F   0  0  0  0  0  0  0  0  0  0  0  0
  -22.9740  -13.7120   21.0490 C   0  0  0  0  0  0  0  0  0  0  0  0
  -22.2540  -13.0110   21.9160 N   0  0  0  0  0  0  0  0  0  0  0  0
  -22.5350  -14.7370   20.5290 O   0  0  0  0  0  0  0  0  0  0  0  0
  -22.6240  -12.1780   22.3510 H   0  0  0  0  0  0  0  0  0  0  0  0
  -21.3150  -13.3060   22.1480 H   0  0  0  0  0  0  0  0  0  0  0  0
  -25.6120  -15.3840   20.2210 N   0  0  0  0  0  0  0  0  0  0  0  0
  -24.8560  -16.0540   20.3170 H   0  0  0  0  0  0  0  0  0  0  0  0
  -26.4670  -15.7990   19.8730 H   0  0  0  0  0  0  0  0  0  0  0  0
  -29.0220  -24.3670   20.2290 C   0  0  0  0  0  3  0  0  0  0  0  0
  -28.3200  -24.0350   18.9720 N   0  0  0  0  0  4  0  0  0  0  0  0
  -27.3310  -23.9110   19.0960 H   0  0  0  0  0  0  0  0  0  0  0  0
  -28.7050  -23.1710   18.6300 H   0  0  0  0  0  0  0  0  0  0  0  0
  -28.4760  -24.7520   18.2820 H   0  0  0  0  0  0  0  0  0  0  0  0
  -28.3470  -25.5580   20.9700 C   0  0  0  0  0  2  0  0  0  0  0  0
  -28.5000  -26.8030   20.2480 O   0  0  0  0  0  0  0  0  0  0  0  0
  -24.6200  -31.9670   23.2350 C   0  0  0  0  0  0  0  0  0  0  0  0
  -27.3580  -27.5690   20.1950 C   0  0  0  0  0  0  0  0  0  0  0  0
  -23.4610  -30.5600   21.5630 C   0  0  0  0  0  3  0  0  0  0  0  0
  -24.9590  -29.0560   20.1500 C   0  0  0  0  0  0  0  0  0  0  0  0
  -25.9830  -30.9580   21.4080 C   0  0  0  0  0  2  0  0  0  0  0  0
  -26.1000  -29.5900   20.7650 C   0  0  0  0  0  0  0  0  0  0  0  0
  -27.3070  -28.8540   20.7840 C   0  0  0  0  0  3  0  0  0  0  0  0
  -26.2090  -27.0610   19.5540 C   0  0  0  0  0  3  0  0  0  0  0  0
  -25.0090  -27.7960   19.5360 C   0  0  0  0  0  3  0  0  0  0  0  0
  -23.7040  -29.8970   20.1810 C   0  0  0  0  0  2  0  0  0  0  0  0
  -24.7050  -31.1770   22.1280 N   0  0  0  0  0  0  0  0  0  0  0  0
  -23.5260  -32.2180   23.7610 O   0  0  0  0  0  0  0  0  0  0  0  0
  -22.8110  -29.5210   22.5060 C   0  0  0  0  0  0  0  0  0  0  0  0
  -21.4880  -29.3350   22.3720 N   0  0  0  0  0  0  0  0  0  0  0  0
  -23.4960  -28.8860   23.3130 O   0  0  0  0  0  0  0  0  0  0  0  0
  -20.9970  -29.9040   21.6980 H   0  0  0  0  0  0  0  0  0  0  0  0
  -18.1100  -28.1410   22.8570 C   0  0  0  0  0  0  0  0  0  0  0  0
  -20.6700  -28.3830   23.1250 C   0  0  0  0  0  3  0  0  0  0  0  0
  -20.7650  -26.9640   22.5170 C   0  0  0  0  0  2  0  0  0  0  0  0
  -19.6580  -26.6690   21.5010 C   0  0  0  0  0  2  0  0  0  0  0  0
  -18.2800  -26.8060   22.1530 C   0  0  0  0  0  2  0  0  0  0  0  0
  -19.2340  -28.8880   23.2990 C   0  0  0  0  0  0  0  0  0  0  0  0
  -19.0210  -30.1410   23.9160 C   0  0  0  0  0  3  0  0  0  0  0  0
  -17.7200  -30.6440   24.0960 C   0  0  0  0  0  3  0  0  0  0  0  0
  -16.6110  -29.8910   23.6710 C   0  0  0  0  0  3  0  0  0  0  0  0
  -16.8090  -28.6420   23.0560 C   0  0  0  0  0  3  0  0  0  0  0  0
  -25.8870  -32.6120   23.8800 C   0  0  0  0  0  3  0  0  0  0  0  0
  -26.3840  -31.8540   25.1720 C   0  0  1  0  0  0  0  0  0  0  0  0
  -25.2710  -31.6110   26.2190 C   0  0  0  0  0  1  0  0  0  0  0  0
  -26.9880  -30.4800   24.7970 C   0  0  0  0  0  1  0  0  0  0  0  0
  -27.5120  -32.6620   25.8560 C   0  0  0  0  0  1  0  0  0  0  0  0
  -25.5620  -34.0100   24.1910 N   0  0  0  0  0  0  0  0  0  0  0  0
  -25.8990  -35.0580   23.4250 C   0  0  0  0  0  0  0  0  0  0  0  0
  -26.5880  -34.9490   22.4080 O   0  0  0  0  0  0  0  0  0  0  0  0
  -24.9570  -34.1700   24.9830 H   0  0  0  0  0  0  0  0  0  0  0  0
  -24.1730  -36.8380   23.0070 C   0  0  0  0  0  1  0  0  0  0  0  0
  -25.3900  -36.4460   23.8580 C   0  0  0  0  0  3  0  0  0  0  0  0
  -27.4910  -37.3550   24.7500 C   0  0  0  0  0  1  0  0  0  0  0  0
  -26.4190  -37.5050   23.7690 N   0  0  0  0  0  0  0  0  0  0  0  0
  -26.0020  -38.4240   23.8940 H   0  0  0  0  0  0  0  0  0  0  0  0
  1  2  1  0
  3 11  1  0
  3  1  1  0
  4 51  1  0
  4  2  1  0
  5  6  1  0
  6  3  1  0
  6  4  1  0
  7  9  2  0
  7  8  1  0
  8 11  2  0
  9 12  1  0
 11 10  1  0
 12 21  1  0
 12 10  2  0
 13 21  1  0
 14 19  1  0
 15 16  1  0
 15 14  1  0
 17 16  1  0
 17 26  1  0
 17 18  1  0
 19 13  1  0
 19 18  1  0
 20 13  2  0
 21 22  1  0
 23 24  2  0
 24 43  1  0
 25 24  1  0
 25 28  1  0
 26 23  1  0
 26 27  1  0
 27 25  2  0
 28 29  1  0
 29 30  2  0
 31 34  1  0
 31 30  1  0
 32 31  2  0
 33 32  1  0
 33 28  2  0
 34 35  1  0
 35 36  1  0
 36 37  2  0
 38 37  1  0
 38 42  1  0
 39 38  2  0
 40 35  2  0
 40 39  1  0
 41 40  1  0
 43 44  1  0
 44 47  1  0
 44 46  1  0
 45 43  2  0
 48 49  1  0
 48 23  1  0
 50 48  1  0
 51 56  1  0
 52 53  1  0
 52 51  1  0
 54 52  1  0
 55 52  1  0
 57 56  1  0
 58 69  2  0
 59 57  1  0
 59 64  1  0
 60 68  1  0
 60 70  1  0
 61 67  1  0
 61 63  1  0
 62 68  1  0
 63 64  2  0
 63 62  1  0
 65 59  2  0
 66 65  1  0
 66 61  2  0
 67 60  1  0
 68 58  1  0
 70 72  2  0
 71 70  1  0
 73 71  1  0
 74 83  2  0
 74 79  1  0
 75 71  1  0
 75 79  1  0
 76 75  1  0
 77 78  1  0
 77 76  1  0
 78 74  1  0
 79 80  2  0
 80 81  1  0
 82 81  2  0
 83 82  1  0
 84 58  1  0
 84 89  1  0
 84 85  1  0
 85 88  1  1
 85 86  1  0
 87 85  1  0
 89 92  1  0
 90 94  1  0
 90 89  1  0
 91 90  2  0
 94 93  1  0
 96 94  1  0
 96 97  1  0
 96 95  1  0
M  ISO  4  13 100  21 100  56 101  57 101
M  END
>  <TORSDO>  (15) 
F 20

>  <SCORE>  (15) 
-14.000

>  <name>  (15) 
14

>  <ligand_id>  (15) 
14

>  <original_smiles>  (15) 
[H]c1c([H])c([H])c2c(c1[H])C([H])([H])C([H])([H])C([H])([H])C2([H])N([H])C(=O)C1([H])N(C(=O)C([H])(N([H])C(=O)C([H])(N([H])C([H])([H])[H])C([H])([H])[H])C(C([H])([H])[H])(C([H])([H])[H])C([H])([H])[H])C([H])([H])c2c([H])c(OC([H])([H])C([H])(C3([H])N(C([H])([H])[H])C([H])(c4c([H])c([H])c([H])c(N([H])C(=O)N5C([H])([H])C([H])([H])C([H])([H])C([H])(n6nc(-c7c([H])c([H])c(Oc8c([H])c([H])c(F)c([H])c8F)c([H])c7[H])c(C(=O)N([H])[H])c6N([H])[H])C5([H])[H])c4[H])C([H])([H])C3([H])[H])[N+]([H])([H])[H])c([H])c([H])c2C1([H])[H]

>  <smiles>  (15) 
[H]c1c([H])c([H])c2c(c1[H])C([H])([H])C([H])([H])C([H])([H])C2([H])N([H])C(=O)C1([H])N(C(=O)C([H])(N([H])C(=O)C([H])(N([H])C([H])([H])[H])C([H])([H])[H])C(C([H])([H])[H])(C([H])([H])[H])C([H])([H])[H])C([H])([H])c2c([H])c(OC([H])([H])C([H])(C3([H])N(C([H])([H])[H])C([H])(c4c([H])c([H])c([H])c(N([H])C(=O)N5C([H])([H])C([H])([H])C([H])([H])C([H])(n6nc(-c7c([H])c([H])c(Oc8c([H])c([H])c(F)c([H])c8F)c([H])c7[H])c(C(=O)N([H])[H])c6N([H])[H])C5([H])[H])c4[H])C([H])([H])C3([H])[H])[N+]([H])([H])[H])c([H])c([H])c2C1([H])[H]

$$$$
15:0:0
     RDKit          3D

 96104  0  0  1  0  0  0  0  0999 V2000
  -28.2570  -19.1640   19.4620 C   0  0  0  0  0  3  0  0  0  0  0  0
  -28.0730  -16.7230   19.6350 C   0  0  0  0  0  3  0  0  0  0  0  0
  -30.2590  -17.7870   19.6970 C   0  0  0  0  0  3  0  0  0  0  0  0
  -27.4630  -17.9980   19.4980 C   0  0  0  0  0  0  0  0  0  0  0  0
  -29.6630  -19.1130   19.5430 C   0  0  0  0  0  0  0  0  0  0  0  0
  -29.4740  -16.5610   19.7640 C   0  0  0  0  0  0  0  0  0  0  0  0
  -30.9860  -14.3760   20.1260 C   0  0  0  0  0  0  0  0  0  0  0  0
  -31.3270  -11.9150   19.8040 C   0  0  0  0  0  2  0  0  0  0  0  0
  -30.4990  -11.4570   18.5790 C   0  0  0  0  0  2  0  0  0  0  0  0
  -29.0410  -11.1470   18.9820 C   0  0  0  0  0  2  0  0  0  0  0  0
  -28.4100  -12.2610   19.8560 C   0  0  0  0  0  3  0  0  0  0  0  0
  -29.3610  -12.6620   21.0060 C   0  0  0  0  0  2  0  0  0  0  0  0
  -30.6270  -13.0750   20.3900 N   0  0  0  0  0  0  0  0  0  0  0  0
  -32.1720  -14.6810   19.9680 O   0  0  0  0  0  0  0  0  0  0  0  0
  -29.9490  -15.1580   19.6290 N   0  0  0  0  0  0  0  0  0  0  0  0
  -29.1670  -14.5370   19.5070 H   0  0  0  0  0  0  0  0  0  0  0  0
  -25.9380  -12.6830   20.4010 C   0  0  0  0  0  0  0  0  0  0  0  0
  -24.9470  -11.8570   20.8550 C   0  0  0  0  0  0  0  0  0  0  0  0
  -25.5580  -10.5810   21.0580 C   0  0  0  0  0  0  0  0  0  0  0  0
  -27.0830  -11.9020   20.3420 N   0  0  0  0  0  0  0  0  0  0  0  0
  -26.8590  -10.6460   20.8040 N   0  0  0  0  0  0  0  0  0  0  0  0
  -24.9690   -9.2870   21.4190 C   0  0  0  0  0  0  0  0  0  0  0  0
  -25.0630   -8.7730   22.7310 C   0  0  0  0  0  3  0  0  0  0  0  0
  -24.4710   -7.5350   23.0600 C   0  0  0  0  0  3  0  0  0  0  0  0
  -23.7700   -6.8010   22.0740 C   0  0  0  0  0  0  0  0  0  0  0  0
  -23.7010   -7.3030   20.7630 C   0  0  0  0  0  3  0  0  0  0  0  0
  -24.2970   -8.5320   20.4360 C   0  0  0  0  0  3  0  0  0  0  0  0
  -23.1880   -5.5760   22.2950 O   0  0  0  0  0  0  0  0  0  0  0  0
  -22.1150   -5.4330   23.1390 C   0  0  0  0  0  0  0  0  0  0  0  0
  -20.9160   -6.1540   22.9500 C   0  0  0  0  0  3  0  0  0  0  0  0
  -19.8160   -5.9240   23.7990 C   0  0  0  0  0  3  0  0  0  0  0  0
  -19.9100   -4.9710   24.8310 C   0  0  0  0  0  0  0  0  0  0  0  0
  -21.1010   -4.2490   25.0170 C   0  0  0  0  0  3  0  0  0  0  0  0
  -22.2010   -4.4780   24.1710 C   0  0  0  0  0  0  0  0  0  0  0  0
  -23.3400   -3.7660   24.3420 F   0  0  0  0  0  0  0  0  0  0  0  0
  -18.8510   -4.7440   25.6440 F   0  0  0  0  0  0  0  0  0  0  0  0
  -23.4920  -12.1990   20.9920 C   0  0  0  0  0  0  0  0  0  0  0  0
  -22.8080  -11.5820   21.9490 N   0  0  0  0  0  0  0  0  0  0  0  0
  -22.9650  -13.0520   20.2790 O   0  0  0  0  0  0  0  0  0  0  0  0
  -23.2440  -10.8890   22.5380 H   0  0  0  0  0  0  0  0  0  0  0  0
  -21.8320  -11.8020   22.0930 H   0  0  0  0  0  0  0  0  0  0  0  0
  -25.9590  -14.0180   20.0090 N   0  0  0  0  0  0  0  0  0  0  0  0
  -25.1170  -14.5820   19.9980 H   0  0  0  0  0  0  0  0  0  0  0  0
  -26.7520  -14.4880   19.5950 H   0  0  0  0  0  0  0  0  0  0  0  0
  -25.9790  -18.1290   19.2960 C   0  0  0  0  0  0  0  0  0  0  0  0
  -25.1980  -17.5040   20.1650 N   0  0  0  0  0  0  0  0  0  0  0  0
  -25.5130  -18.8320   18.4000 O   0  0  0  0  0  0  0  0  0  0  0  0
  -25.6010  -16.9720   20.9200 H   0  0  0  0  0  0  0  0  0  0  0  0
  -24.1950  -17.5780   20.0840 H   0  0  0  0  0  0  0  0  0  0  0  0
  -30.4570  -20.4940   19.4680 C   0  0  0  0  0  2  0  0  0  0  0  0
  -30.2700  -23.1210   19.7550 C   0  0  0  0  0  0  0  0  0  0  0  0
  -29.7670  -21.8250   19.7790 N   0  0  0  0  0  0  0  0  0  0  0  0
  -31.4540  -23.3220   19.4730 O   0  0  0  0  0  0  0  0  0  0  0  0
  -28.7770  -21.7500   19.9720 H   0  0  0  0  0  0  0  0  0  0  0  0
  -29.3420  -24.3820   20.1050 C   0  0  0  0  0  2  0  0  0  0  0  0
  -29.7490  -25.7600   19.6310 O   0  0  0  0  0  0  0  0  0  0  0  0
  -27.2350  -30.7400   24.3150 C   0  0  0  0  0  0  0  0  0  0  0  0
  -28.8730  -26.8370   19.9160 C   0  0  0  0  0  0  0  0  0  0  0  0
  -25.7970  -30.1780   22.3900 C   0  0  0  0  0  3  0  0  0  0  0  0
  -26.9190  -28.8650   20.5010 C   0  0  0  0  0  0  0  0  0  0  0  0
  -28.3500  -29.9960   22.1940 C   0  0  0  0  0  2  0  0  0  0  0  0
  -28.1530  -28.8860   21.1640 C   0  0  0  0  0  0  0  0  0  0  0  0
  -29.1370  -27.8860   20.8650 C   0  0  0  0  0  3  0  0  0  0  0  0
  -27.6370  -26.9070   19.2400 C   0  0  0  0  0  3  0  0  0  0  0  0
  -26.6680  -27.8850   19.5300 C   0  0  0  0  0  3  0  0  0  0  0  0
  -25.8930  -29.9230   20.8650 C   0  0  0  0  0  2  0  0  0  0  0  0
  -27.1490  -30.3000   23.0260 N   0  0  0  0  0  0  0  0  0  0  0  0
  -26.2230  -31.0590   24.9580 O   0  0  0  0  0  0  0  0  0  0  0  0
  -24.9190  -29.0770   23.0330 C   0  0  0  0  0  0  0  0  0  0  0  0
  -23.6300  -29.0240   22.6510 N   0  0  0  0  0  0  0  0  0  0  0  0
  -25.4060  -28.2790   23.8390 O   0  0  0  0  0  0  0  0  0  0  0  0
  -23.3030  -29.7120   21.9880 H   0  0  0  0  0  0  0  0  0  0  0  0
  -20.1340  -28.1200   22.4700 C   0  0  0  0  0  0  0  0  0  0  0  0
  -22.6400  -28.0440   23.1000 C   0  0  0  0  0  3  0  0  0  0  0  0
  -22.7070  -26.7560   22.2460 C   0  0  0  0  0  2  0  0  0  0  0  0
  -21.7380  -26.7660   21.0600 C   0  0  0  0  0  2  0  0  0  0  0  0
  -20.2950  -26.9240   21.5460 C   0  0  0  0  0  2  0  0  0  0  0  0
  -21.2360  -28.6560   23.1870 C   0  0  0  0  0  0  0  0  0  0  0  0
  -21.0350  -29.7900   24.0050 C   0  0  0  0  0  3  0  0  0  0  0  0
  -19.7610  -30.3820   24.1140 C   0  0  0  0  0  3  0  0  0  0  0  0
  -18.6710  -29.8370   23.4150 C   0  0  0  0  0  3  0  0  0  0  0  0
  -18.8580  -28.7100   22.5980 C   0  0  0  0  0  3  0  0  0  0  0  0
  -28.6100  -30.8830   25.0380 C   0  0  0  0  0  3  0  0  0  0  0  0
  -28.9210  -29.6880   26.0200 C   0  0  1  0  0  0  0  0  0  0  0  0
  -27.7730  -29.3780   27.0100 C   0  0  0  0  0  1  0  0  0  0  0  0
  -29.2200  -28.3930   25.2300 C   0  0  0  0  0  1  0  0  0  0  0  0
  -30.1900  -30.0050   26.8450 C   0  0  0  0  0  1  0  0  0  0  0  0
  -28.5970  -32.1590   25.7670 N   0  0  0  0  0  0  0  0  0  0  0  0
  -29.1090  -33.3060   25.3040 C   0  0  0  0  0  0  0  0  0  0  0  0
  -29.7090  -33.3820   24.2300 O   0  0  0  0  0  0  0  0  0  0  0  0
  -28.0700  -32.1830   26.6270 H   0  0  0  0  0  0  0  0  0  0  0  0
  -27.7590  -35.4040   25.6280 C   0  0  0  0  0  1  0  0  0  0  0  0
  -28.9280  -34.5690   26.1720 C   0  0  0  0  0  3  0  0  0  0  0  0
  -31.2150  -34.7990   27.0340 C   0  0  0  0  0  1  0  0  0  0  0  0
  -30.1440  -35.4070   26.2500 N   0  0  0  0  0  0  0  0  0  0  0  0
  -29.9310  -36.3140   26.6560 H   0  0  0  0  0  0  0  0  0  0  0  0
  1  4  2  0
  1  5  1  0
  2  6  2  0
  3  6  1  0
  4  2  1  0
  5  3  2  0
  7 13  1  0
  8 13  1  0
  9 10  1  0
  9  8  1  0
 11 10  1  0
 11 20  1  0
 11 12  1  0
 13 12  1  0
 14  7  2  0
 15  6  1  0
 15  7  1  0
 16 15  1  0
 17 18  2  0
 18 37  1  0
 18 19  1  0
 19 22  1  0
 20 17  1  0
 20 21  1  0
 21 19  2  0
 22 23  1  0
 23 24  2  0
 25 28  1  0
 25 24  1  0
 26 25  2  0
 27 26  1  0
 27 22  2  0
 28 29  1  0
 29 34  1  0
 30 29  2  0
 30 31  1  0
 31 32  2  0
 32 33  1  0
 32 36  1  0
 34 35  1  0
 34 33  2  0
 37 38  1  0
 38 41  1  0
 38 40  1  0
 39 37  2  0
 42 17  1  0
 43 42  1  0
 44 42  1  0
 45  4  1  0
 45 46  1  0
 46 48  1  0
 47 45  2  0
 49 46  1  0
 50  5  1  0
 50 52  1  0
 51 52  1  0
 51 55  1  0
 52 54  1  0
 53 51  2  0
 56 58  1  0
 56 55  1  0
 57 68  2  0
 58 63  1  0
 59 67  1  0
 59 69  1  0
 60 66  1  0
 60 62  1  0
 61 67  1  0
 62 61  1  0
 63 62  2  0
 64 65  1  0
 64 58  2  0
 65 60  2  0
 66 59  1  0
 67 57  1  0
 69 71  2  0
 70 69  1  0
 72 70  1  0
 73 82  2  0
 73 78  1  0
 74 70  1  0
 74 78  1  0
 75 74  1  0
 76 77  1  0
 76 75  1  0
 77 73  1  0
 78 79  2  0
 79 80  1  0
 81 80  2  0
 82 81  1  0
 83 57  1  0
 83 88  1  0
 83 84  1  0
 84 87  1  1
 84 85  1  0
 86 84  1  0
 88 91  1  0
 89 88  1  0
 89 93  1  0
 90 89  2  0
 93 92  1  0
 93 95  1  0
 95 96  1  0
 95 94  1  0
M  ISO  4   7 100  15 100  55 101  56 101
M  END
>  <TORSDO>  (16) 
F 20

>  <SCORE>  (16) 
-5.775

>  <name>  (16) 
15

>  <ligand_id>  (16) 
15

>  <original_smiles>  (16) 
[H]c1c([H])c([H])c2c(c1[H])C([H])([H])C([H])([H])C([H])([H])C2([H])N([H])C(=O)C1([H])N(C(=O)C([H])(N([H])C(=O)C([H])(N([H])C([H])([H])[H])C([H])([H])[H])C(C([H])([H])[H])(C([H])([H])[H])C([H])([H])[H])C([H])([H])c2c([H])c(OC([H])([H])C(=O)N([H])C([H])([H])c3c([H])c(C(=O)N([H])[H])c([H])c(N([H])C(=O)N4C([H])([H])C([H])([H])C([H])([H])C([H])(n5nc(-c6c([H])c([H])c(Oc7c([H])c([H])c(F)c([H])c7F)c([H])c6[H])c(C(=O)N([H])[H])c5N([H])[H])C4([H])[H])c3[H])c([H])c([H])c2C1([H])[H]

>  <smiles>  (16) 
[H]c1c([H])c([H])c2c(c1[H])C([H])([H])C([H])([H])C([H])([H])C2([H])N([H])C(=O)C1([H])N(C(=O)C([H])(N([H])C(=O)C([H])(N([H])C([H])([H])[H])C([H])([H])[H])C(C([H])([H])[H])(C([H])([H])[H])C([H])([H])[H])C([H])([H])c2c([H])c(OC([H])([H])C(=O)N([H])C([H])([H])c3c([H])c(C(=O)N([H])[H])c([H])c(N([H])C(=O)N4C([H])([H])C([H])([H])C([H])([H])C([H])(n5nc(-c6c([H])c([H])c(Oc7c([H])c([H])c(F)c([H])c7F)c([H])c6[H])c(C(=O)N([H])[H])c5N([H])[H])C4([H])[H])c3[H])c([H])c([H])c2C1([H])[H]

$$$$
16:0:0
     RDKit          3D

 92100  0  0  1  0  0  0  0  0999 V2000
  -28.7290  -22.6310   19.7850 C   0  0  0  0  0  3  0  0  0  0  0  0
  -30.8550  -19.9410   22.0030 C   0  0  0  0  0  3  0  0  0  0  0  0
  -30.1950  -21.0940   21.4900 C   0  0  0  0  0  3  0  0  0  0  0  0
  -30.7490  -18.6240   21.4670 C   0  0  0  0  0  3  0  0  0  0  0  0
  -29.2550  -19.5970   19.8430 C   0  0  0  0  0  3  0  0  0  0  0  0
  -29.3410  -21.0640   20.3630 C   0  0  0  0  0  0  0  0  0  0  0  0
  -29.9520  -18.3000   20.3460 C   0  0  0  0  0  0  0  0  0  0  0  0
  -30.6230  -15.4290   20.0530 C   0  0  0  0  0  0  0  0  0  0  0  0
  -30.6030  -12.9640   19.1780 C   0  0  0  0  0  2  0  0  0  0  0  0
  -29.6380  -12.6710   18.0020 C   0  0  0  0  0  2  0  0  0  0  0  0
  -28.2180  -12.3810   18.5200 C   0  0  0  0  0  2  0  0  0  0  0  0
  -27.7860  -13.3890   19.6130 C   0  0  0  0  0  3  0  0  0  0  0  0
  -28.8710  -13.5970   20.6880 C   0  0  0  0  0  2  0  0  0  0  0  0
  -30.0550  -14.1200   19.9830 N   0  0  0  0  0  0  0  0  0  0  0  0
  -31.8550  -15.4060   19.8900 O   0  0  0  0  0  0  0  0  0  0  0  0
  -29.8450  -16.7100   19.9830 N   0  0  0  0  0  0  0  0  0  0  0  0
  -28.9040  -16.4850   19.6960 H   0  0  0  0  0  0  0  0  0  0  0  0
  -25.4680  -13.9660   20.4960 C   0  0  0  0  0  0  0  0  0  0  0  0
  -24.4060  -13.1990   20.8850 C   0  0  0  0  0  0  0  0  0  0  0  0
  -24.8500  -11.8420   20.8070 C   0  0  0  0  0  0  0  0  0  0  0  0
  -26.4820  -13.0790   20.1830 N   0  0  0  0  0  0  0  0  0  0  0  0
  -26.1260  -11.7930   20.4400 N   0  0  0  0  0  0  0  0  0  0  0  0
  -24.1110  -10.5880   20.9980 C   0  0  0  0  0  0  0  0  0  0  0  0
  -24.5450   -9.6060   21.9160 C   0  0  0  0  0  3  0  0  0  0  0  0
  -23.8040   -8.4200   22.0980 C   0  0  0  0  0  3  0  0  0  0  0  0
  -22.6170   -8.2020   21.3600 C   0  0  0  0  0  0  0  0  0  0  0  0
  -22.2020   -9.1720   20.4310 C   0  0  0  0  0  3  0  0  0  0  0  0
  -22.9430  -10.3510   20.2470 C   0  0  0  0  0  3  0  0  0  0  0  0
  -21.8460   -7.0700   21.4520 O   0  0  0  0  0  0  0  0  0  0  0  0
  -21.7850   -6.3300   22.6070 C   0  0  0  0  0  0  0  0  0  0  0  0
  -21.3390   -6.8890   23.8250 C   0  0  0  0  0  3  0  0  0  0  0  0
  -21.2270   -6.0770   24.9720 C   0  0  0  0  0  3  0  0  0  0  0  0
  -21.5510   -4.7100   24.9030 C   0  0  0  0  0  0  0  0  0  0  0  0
  -21.9910   -4.1500   23.6910 C   0  0  0  0  0  3  0  0  0  0  0  0
  -22.1060   -4.9600   22.5450 C   0  0  0  0  0  0  0  0  0  0  0  0
  -22.5100   -4.4110   21.3740 F   0  0  0  0  0  0  0  0  0  0  0  0
  -21.4370   -3.9280   26.0030 F   0  0  0  0  0  0  0  0  0  0  0  0
  -23.0300  -13.6910   21.2190 C   0  0  0  0  0  0  0  0  0  0  0  0
  -22.3220  -12.9890   22.0960 N   0  0  0  0  0  0  0  0  0  0  0  0
  -22.5930  -14.7360   20.7370 O   0  0  0  0  0  0  0  0  0  0  0  0
  -22.6890  -12.1440   22.5100 H   0  0  0  0  0  0  0  0  0  0  0  0
  -21.4000  -13.3020   22.3620 H   0  0  0  0  0  0  0  0  0  0  0  0
  -25.6500  -15.3400   20.3610 N   0  0  0  0  0  0  0  0  0  0  0  0
  -24.9180  -16.0090   20.5720 H   0  0  0  0  0  0  0  0  0  0  0  0
  -26.5220  -15.7800   20.0960 H   0  0  0  0  0  0  0  0  0  0  0  0
  -29.5080  -22.9630   18.5030 C   0  0  0  0  0  0  0  0  0  0  0  0
  -30.7750  -22.5680   18.4060 N   0  0  0  0  0  0  0  0  0  0  0  0
  -28.9760  -23.5820   17.5820 O   0  0  0  0  0  0  0  0  0  0  0  0
  -31.1990  -22.0450   19.1620 H   0  0  0  0  0  0  0  0  0  0  0  0
  -31.3110  -22.7610   17.5730 H   0  0  0  0  0  0  0  0  0  0  0  0
  -28.3420  -24.2410   20.5680 C   0  0  0  0  0  2  0  0  0  0  0  0
  -28.3720  -25.8790   20.2150 O   0  0  0  0  0  0  0  0  0  0  0  0
  -24.6280  -31.8360   23.1530 C   0  0  0  0  0  0  0  0  0  0  0  0
  -27.3120  -26.9400   20.2340 C   0  0  0  0  0  0  0  0  0  0  0  0
  -23.4870  -30.4040   21.5080 C   0  0  0  0  0  3  0  0  0  0  0  0
  -24.9820  -28.7980   20.1330 C   0  0  0  0  0  0  0  0  0  0  0  0
  -26.0480  -30.6480   21.3980 C   0  0  0  0  0  2  0  0  0  0  0  0
  -26.1560  -29.2250   20.7650 C   0  0  0  0  0  0  0  0  0  0  0  0
  -27.3170  -28.3220   20.7790 C   0  0  0  0  0  3  0  0  0  0  0  0
  -26.0970  -26.6610   19.5690 C   0  0  0  0  0  3  0  0  0  0  0  0
  -24.9750  -27.5320   19.5230 C   0  0  0  0  0  3  0  0  0  0  0  0
  -23.7540  -29.7100   20.1430 C   0  0  0  0  0  2  0  0  0  0  0  0
  -24.7420  -30.9910   22.0750 N   0  0  0  0  0  0  0  0  0  0  0  0
  -23.5250  -32.1150   23.6490 O   0  0  0  0  0  0  0  0  0  0  0  0
  -22.7850  -29.4090   22.4710 C   0  0  0  0  0  0  0  0  0  0  0  0
  -21.4590  -29.2220   22.3180 N   0  0  0  0  0  0  0  0  0  0  0  0
  -23.4410  -28.8040   23.3220 O   0  0  0  0  0  0  0  0  0  0  0  0
  -20.9770  -29.7660   21.6160 H   0  0  0  0  0  0  0  0  0  0  0  0
  -18.0930  -27.9370   22.7520 C   0  0  0  0  0  0  0  0  0  0  0  0
  -20.6390  -28.2750   23.0810 C   0  0  0  0  0  3  0  0  0  0  0  0
  -20.7930  -26.8380   22.5330 C   0  0  0  0  0  2  0  0  0  0  0  0
  -19.7300  -26.4710   21.4930 C   0  0  0  0  0  2  0  0  0  0  0  0
  -18.3280  -26.5840   22.0990 C   0  0  0  0  0  2  0  0  0  0  0  0
  -19.1800  -28.7360   23.1980 C   0  0  0  0  0  0  0  0  0  0  0  0
  -18.9100  -29.9970   23.7720 C   0  0  0  0  0  3  0  0  0  0  0  0
  -17.5870  -30.4620   23.9010 C   0  0  0  0  0  3  0  0  0  0  0  0
  -16.5150  -29.6620   23.4700 C   0  0  0  0  0  3  0  0  0  0  0  0
  -16.7690  -28.4010   22.9010 C   0  0  0  0  0  3  0  0  0  0  0  0
  -25.8790  -32.4990   23.8050 C   0  0  0  0  0  3  0  0  0  0  0  0
  -26.3780  -31.7460   25.0990 C   0  0  1  0  0  0  0  0  0  0  0  0
  -25.2640  -31.4990   26.1440 C   0  0  0  0  0  1  0  0  0  0  0  0
  -26.9920  -30.3760   24.7390 C   0  0  0  0  0  1  0  0  0  0  0  0
  -27.5030  -32.5620   25.7810 C   0  0  0  0  0  1  0  0  0  0  0  0
  -25.5350  -33.8950   24.1310 N   0  0  0  0  0  0  0  0  0  0  0  0
  -25.8630  -34.9580   23.3860 C   0  0  0  0  0  0  0  0  0  0  0  0
  -26.5500  -34.8700   22.3650 O   0  0  0  0  0  0  0  0  0  0  0  0
  -24.9200  -34.0380   24.9190 H   0  0  0  0  0  0  0  0  0  0  0  0
  -24.1210  -36.7400   23.0170 C   0  0  0  0  0  1  0  0  0  0  0  0
  -25.3490  -36.3370   23.8480 C   0  0  0  0  0  3  0  0  0  0  0  0
  -27.4500  -37.2500   24.7350 C   0  0  0  0  0  1  0  0  0  0  0  0
  -26.3700  -37.4050   23.7640 N   0  0  0  0  0  0  0  0  0  0  0  0
  -25.9460  -38.3170   23.9110 H   0  0  0  0  0  0  0  0  0  0  0  0
  1  6  1  0
  1 51  1  0
  3  2  1  0
  4  2  2  0
  5  7  2  0
  5  6  1  0
  6  3  2  0
  7  4  1  0
  9 14  1  0
 10 11  1  0
 10  9  1  0
 12 11  1  0
 12 21  1  0
 12 13  1  0
 14  8  1  0
 14 13  1  0
 15  8  2  0
 16  8  1  0
 16  7  1  0
 17 16  1  0
 18 19  2  0
 19 38  1  0
 20 19  1  0
 20 23  1  0
 21 22  1  0
 21 18  1  0
 22 20  2  0
 23 24  1  0
 24 25  2  0
 26 29  1  0
 26 25  1  0
 27 26  2  0
 28 27  1  0
 28 23  2  0
 29 30  1  0
 30 31  1  0
 31 32  2  0
 33 32  1  0
 33 37  1  0
 34 33  2  0
 35 30  2  0
 35 34  1  0
 36 35  1  0
 38 39  1  0
 39 42  1  0
 39 41  1  0
 40 38  2  0
 43 18  1  0
 43 44  1  0
 45 43  1  0
 46  1  1  0
 47 46  1  0
 47 49  1  0
 48 46  2  0
 50 47  1  0
 52 54  1  0
 52 51  1  0
 53 64  2  0
 54 59  1  0
 55 63  1  0
 55 65  1  0
 56 62  1  0
 56 58  1  0
 57 63  1  0
 58 59  2  0
 58 57  1  0
 60 54  2  0
 61 60  1  0
 61 56  2  0
 62 55  1  0
 63 53  1  0
 65 67  2  0
 66 65  1  0
 68 66  1  0
 69 78  2  0
 69 74  1  0
 70 66  1  0
 70 74  1  0
 71 70  1  0
 72 73  1  0
 72 71  1  0
 73 69  1  0
 74 75  2  0
 75 76  1  0
 77 76  2  0
 78 77  1  0
 79 53  1  0
 79 84  1  0
 79 80  1  0
 80 83  1  1
 80 81  1  0
 82 80  1  0
 84 87  1  0
 85 89  1  0
 85 84  1  0
 86 85  2  0
 89 88  1  0
 91 89  1  0
 91 92  1  0
 91 90  1  0
M  ISO  4   8 100  16 100  51 101  52 101
M  END
>  <TORSDO>  (17) 
F 19

>  <SCORE>  (17) 
-15.916

>  <name>  (17) 
16

>  <ligand_id>  (17) 
16

>  <original_smiles>  (17) 
[H]c1c([H])c([H])c2c(c1[H])C([H])([H])C([H])([H])C([H])([H])C2([H])N([H])C(=O)C1([H])N(C(=O)C([H])(N([H])C(=O)C([H])(N([H])C([H])([H])[H])C([H])([H])[H])C(C([H])([H])[H])(C([H])([H])[H])C([H])([H])[H])C([H])([H])c2c([H])c(OC([H])([H])C([H])(C(=O)N([H])[H])c3c([H])c([H])c([H])c(N([H])C(=O)N4C([H])([H])C([H])([H])C([H])([H])C([H])(n5nc(-c6c([H])c([H])c(Oc7c([H])c([H])c(F)c([H])c7F)c([H])c6[H])c(C(=O)N([H])[H])c5N([H])[H])C4([H])[H])c3[H])c([H])c([H])c2C1([H])[H]

>  <smiles>  (17) 
[H]c1c([H])c([H])c2c(c1[H])C([H])([H])C([H])([H])C([H])([H])C2([H])N([H])C(=O)C1([H])N(C(=O)C([H])(N([H])C(=O)C([H])(N([H])C([H])([H])[H])C([H])([H])[H])C(C([H])([H])[H])(C([H])([H])[H])C([H])([H])[H])C([H])([H])c2c([H])c(OC([H])([H])C([H])(C(=O)N([H])[H])c3c([H])c([H])c([H])c(N([H])C(=O)N4C([H])([H])C([H])([H])C([H])([H])C([H])(n5nc(-c6c([H])c([H])c(Oc7c([H])c([H])c(F)c([H])c7F)c([H])c6[H])c(C(=O)N([H])[H])c5N([H])[H])C4([H])[H])c3[H])c([H])c([H])c2C1([H])[H]

$$$$
17:0:0
     RDKit          3D

 91 99  0  0  1  0  0  0  0  0999 V2000
  -29.0980  -21.1230   19.8930 C   0  0  0  0  0  0  0  0  0  0  0  0
  -28.8920  -22.3940   22.0260 C   0  0  0  0  0  1  0  0  0  0  0  0
  -28.9640  -22.3500   20.5620 N   0  0  0  0  0  0  0  0  0  0  0  0
  -28.7290  -21.0250   18.7200 O   0  0  0  0  0  0  0  0  0  0  0  0
  -30.6060  -14.7730   20.3670 C   0  0  0  0  0  0  0  0  0  0  0  0
  -30.3910  -12.4960   19.3520 C   0  0  0  0  0  2  0  0  0  0  0  0
  -29.4480  -12.5540   18.1320 C   0  0  0  0  0  2  0  0  0  0  0  0
  -27.9780  -12.3860   18.5660 C   0  0  0  0  0  2  0  0  0  0  0  0
  -27.6070  -13.2800   19.7800 C   0  0  0  0  0  3  0  0  0  0  0  0
  -28.6710  -13.2040   20.8970 C   0  0  0  0  0  2  0  0  0  0  0  0
  -29.9600  -13.5580   20.2890 N   0  0  0  0  0  0  0  0  0  0  0  0
  -31.8050  -14.8330   20.0750 O   0  0  0  0  0  0  0  0  0  0  0  0
  -30.9800  -20.0180   21.2470 C   0  0  0  0  0  3  0  0  0  0  0  0
  -29.4240  -18.4690   20.2510 C   0  0  0  0  0  3  0  0  0  0  0  0
  -31.6940  -18.8930   21.6860 C   0  0  0  0  0  3  0  0  0  0  0  0
  -29.7900  -19.8590   20.5110 C   0  0  0  0  0  0  0  0  0  0  0  0
  -30.2150  -17.3400   20.7160 C   0  0  0  0  0  0  0  0  0  0  0  0
  -31.3270  -17.6160   21.4350 N   0  0  0  0  0  0  0  0  0  0  0  0
  -29.8330  -15.9260   20.4890 N   0  0  0  0  0  0  0  0  0  0  0  0
  -28.8420  -15.7600   20.4510 H   0  0  0  0  0  0  0  0  0  0  0  0
  -25.2220  -13.8690   20.5170 C   0  0  0  0  0  0  0  0  0  0  0  0
  -24.1580  -13.0940   20.8900 C   0  0  0  0  0  0  0  0  0  0  0  0
  -24.6240  -11.7430   20.8590 C   0  0  0  0  0  0  0  0  0  0  0  0
  -26.2660  -12.9910   20.2770 N   0  0  0  0  0  0  0  0  0  0  0  0
  -25.9130  -11.7070   20.5470 N   0  0  0  0  0  0  0  0  0  0  0  0
  -23.8980  -10.4790   21.0470 C   0  0  0  0  0  0  0  0  0  0  0  0
  -24.3310   -9.5120   21.9800 C   0  0  0  0  0  3  0  0  0  0  0  0
  -23.6050   -8.3140   22.1590 C   0  0  0  0  0  3  0  0  0  0  0  0
  -22.4320   -8.0760   21.4050 C   0  0  0  0  0  0  0  0  0  0  0  0
  -22.0180   -9.0320   20.4590 C   0  0  0  0  0  3  0  0  0  0  0  0
  -22.7440  -10.2220   20.2790 C   0  0  0  0  0  3  0  0  0  0  0  0
  -21.6800   -6.9300   21.4910 O   0  0  0  0  0  0  0  0  0  0  0  0
  -21.6310   -6.1860   22.6430 C   0  0  0  0  0  0  0  0  0  0  0  0
  -21.1970   -6.7370   23.8690 C   0  0  0  0  0  3  0  0  0  0  0  0
  -21.0980   -5.9200   25.0120 C   0  0  0  0  0  3  0  0  0  0  0  0
  -21.4220   -4.5520   24.9320 C   0  0  0  0  0  0  0  0  0  0  0  0
  -21.8480   -4.0010   23.7110 C   0  0  0  0  0  3  0  0  0  0  0  0
  -21.9500   -4.8150   22.5690 C   0  0  0  0  0  0  0  0  0  0  0  0
  -22.3410   -4.2740   21.3900 F   0  0  0  0  0  0  0  0  0  0  0  0
  -21.3200   -3.7650   26.0270 F   0  0  0  0  0  0  0  0  0  0  0  0
  -22.7610  -13.5690   21.1600 C   0  0  0  0  0  0  0  0  0  0  0  0
  -22.0310  -12.8700   22.0210 N   0  0  0  0  0  0  0  0  0  0  0  0
  -22.3230  -14.5960   20.6410 O   0  0  0  0  0  0  0  0  0  0  0  0
  -22.3990  -12.0400   22.4620 H   0  0  0  0  0  0  0  0  0  0  0  0
  -21.0900  -13.1670   22.2410 H   0  0  0  0  0  0  0  0  0  0  0  0
  -25.3840  -15.2390   20.3360 N   0  0  0  0  0  0  0  0  0  0  0  0
  -24.6180  -15.8920   20.4630 H   0  0  0  0  0  0  0  0  0  0  0  0
  -26.2110  -15.6750   19.9520 H   0  0  0  0  0  0  0  0  0  0  0  0
  -28.7710  -23.7210   19.8760 C   0  0  0  0  0  3  0  0  0  0  0  0
  -28.1810  -25.0100   20.6800 C   0  0  0  0  0  3  0  0  0  0  0  0
  -28.3370  -26.4280   20.2000 O   0  0  0  0  0  0  0  0  0  0  0  0
  -24.5990  -31.8860   23.2400 C   0  0  0  0  0  0  0  0  0  0  0  0
  -27.2230  -27.2940   20.2060 C   0  0  0  0  0  0  0  0  0  0  0  0
  -23.4010  -30.4780   21.6060 C   0  0  0  0  0  3  0  0  0  0  0  0
  -24.8560  -28.9180   20.1870 C   0  0  0  0  0  0  0  0  0  0  0  0
  -25.9410  -30.7930   21.4220 C   0  0  0  0  0  2  0  0  0  0  0  0
  -26.0260  -29.4090   20.7800 C   0  0  0  0  0  0  0  0  0  0  0  0
  -27.2150  -28.6130   20.7730 C   0  0  0  0  0  3  0  0  0  0  0  0
  -26.0300  -26.8620   19.5920 C   0  0  0  0  0  3  0  0  0  0  0  0
  -24.8600  -27.6500   19.5820 C   0  0  0  0  0  3  0  0  0  0  0  0
  -23.6190  -29.7950   20.2280 C   0  0  0  0  0  2  0  0  0  0  0  0
  -24.6670  -31.0710   22.1460 N   0  0  0  0  0  0  0  0  0  0  0  0
  -23.5130  -32.1640   23.7720 O   0  0  0  0  0  0  0  0  0  0  0  0
  -22.7380  -29.4650   22.5710 C   0  0  0  0  0  0  0  0  0  0  0  0
  -21.4120  -29.2850   22.4470 N   0  0  0  0  0  0  0  0  0  0  0  0
  -23.4180  -28.8450   23.3940 O   0  0  0  0  0  0  0  0  0  0  0  0
  -20.9220  -29.8350   21.7560 H   0  0  0  0  0  0  0  0  0  0  0  0
  -18.0370  -28.0870   22.9520 C   0  0  0  0  0  0  0  0  0  0  0  0
  -20.5960  -28.3460   23.2180 C   0  0  0  0  0  3  0  0  0  0  0  0
  -20.6990  -26.9160   22.6410 C   0  0  0  0  0  2  0  0  0  0  0  0
  -19.5950  -26.5920   21.6290 C   0  0  0  0  0  2  0  0  0  0  0  0
  -18.2140  -26.7370   22.2760 C   0  0  0  0  0  2  0  0  0  0  0  0
  -19.1570  -28.8500   23.3800 C   0  0  0  0  0  0  0  0  0  0  0  0
  -18.9370  -30.1140   23.9700 C   0  0  0  0  0  3  0  0  0  0  0  0
  -17.6330  -30.6130   24.1400 C   0  0  0  0  0  3  0  0  0  0  0  0
  -16.5280  -29.8470   23.7290 C   0  0  0  0  0  3  0  0  0  0  0  0
  -16.7310  -28.5860   23.1400 C   0  0  0  0  0  3  0  0  0  0  0  0
  -25.8780  -32.5250   23.8640 C   0  0  0  0  0  3  0  0  0  0  0  0
  -25.5680  -33.9280   24.1790 N   0  0  0  0  0  0  0  0  0  0  0  0
  -25.9060  -34.9750   23.4140 C   0  0  0  0  0  0  0  0  0  0  0  0
  -26.5810  -34.8620   22.3860 O   0  0  0  0  0  0  0  0  0  0  0  0
  -24.9780  -34.0910   24.9800 H   0  0  0  0  0  0  0  0  0  0  0  0
  -24.1870  -36.7690   23.0320 C   0  0  0  0  0  1  0  0  0  0  0  0
  -25.4200  -36.3680   23.8590 C   0  0  0  0  0  3  0  0  0  0  0  0
  -27.5490  -37.2540   24.7030 C   0  0  0  0  0  1  0  0  0  0  0  0
  -26.4570  -37.4180   23.7470 N   0  0  0  0  0  0  0  0  0  0  0  0
  -26.0520  -38.3400   23.8810 H   0  0  0  0  0  0  0  0  0  0  0  0
  -26.3850  -31.7690   25.1520 C   0  0  1  0  0  0  0  0  0  0  0  0
  -25.2860  -31.5460   26.2170 C   0  0  0  0  0  1  0  0  0  0  0  0
  -26.9690  -30.3870   24.7810 C   0  0  0  0  0  1  0  0  0  0  0  0
  -27.5340  -32.5680   25.8130 C   0  0  0  0  0  1  0  0  0  0  0  0
  1 16  1  0
  1  3  1  0
  3  2  1  0
  4  1  2  0
  5 19  1  0
  6 11  1  0
  7  8  1  0
  7  6  1  0
  9  8  1  0
  9 24  1  0
  9 10  1  0
 11  5  1  0
 11 10  1  0
 12  5  2  0
 13 15  1  0
 14 16  1  0
 14 17  2  0
 16 13  2  0
 17 18  1  0
 18 15  2  0
 19 17  1  0
 20 19  1  0
 21 22  2  0
 22 41  1  0
 23 22  1  0
 23 26  1  0
 24 21  1  0
 24 25  1  0
 25 23  2  0
 26 27  1  0
 27 28  2  0
 29 32  1  0
 29 28  1  0
 30 29  2  0
 31 30  1  0
 31 26  2  0
 32 33  1  0
 33 34  1  0
 34 35  2  0
 36 35  1  0
 36 40  1  0
 37 36  2  0
 38 33  2  0
 38 37  1  0
 39 38  1  0
 41 42  1  0
 42 45  1  0
 42 44  1  0
 43 41  2  0
 46 47  1  0
 46 21  1  0
 48 46  1  0
 49  3  1  0
 49 50  2  0
 51 53  1  0
 51 50  1  0
 52 63  2  0
 53 58  1  0
 54 62  1  0
 54 64  1  0
 55 61  1  0
 55 57  1  0
 56 62  1  0
 57 56  1  0
 58 57  2  0
 59 53  2  0
 60 59  1  0
 60 55  2  0
 61 54  1  0
 62 52  1  0
 64 66  2  0
 65 64  1  0
 67 65  1  0
 68 77  2  0
 68 73  1  0
 69 65  1  0
 69 73  1  0
 70 69  1  0
 71 72  1  0
 71 70  1  0
 72 68  1  0
 73 74  2  0
 74 75  1  0
 76 75  2  0
 77 76  1  0
 78 52  1  0
 78 79  1  0
 78 88  1  0
 79 82  1  0
 80 84  1  0
 80 79  1  0
 81 80  2  0
 84 83  1  0
 86 84  1  0
 86 87  1  0
 86 85  1  0
 88 91  1  1
 88 89  1  0
 90 88  1  0
M  ISO  4   5 100  19 100  50 101  51 101
M  END
>  <TORSDO>  (18) 
F 18

>  <SCORE>  (18) 
-14.913

>  <name>  (18) 
17

>  <ligand_id>  (18) 
17

>  <original_smiles>  (18) 
[H]c1nc(N([H])C(=O)N2C([H])([H])C([H])([H])C([H])([H])C([H])(n3nc(-c4c([H])c([H])c(Oc5c([H])c([H])c(F)c([H])c5F)c([H])c4[H])c(C(=O)N([H])[H])c3N([H])[H])C2([H])[H])c([H])c(C(=O)N(C([H])([H])[H])C([H])([H])C([H])([H])Oc2c([H])c([H])c3c(c2[H])C([H])([H])N(C(=O)C([H])(N([H])C(=O)C([H])(N([H])C([H])([H])[H])C([H])([H])[H])C(C([H])([H])[H])(C([H])([H])[H])C([H])([H])[H])C([H])(C(=O)N([H])C2([H])c4c([H])c([H])c([H])c([H])c4C([H])([H])C([H])([H])C2([H])[H])C3([H])[H])c1[H]

>  <smiles>  (18) 
[H]c1nc(N([H])C(=O)N2C([H])([H])C([H])([H])C([H])([H])C([H])(n3nc(-c4c([H])c([H])c(Oc5c([H])c([H])c(F)c([H])c5F)c([H])c4[H])c(C(=O)N([H])[H])c3N([H])[H])C2([H])[H])c([H])c(C(=O)N(C([H])([H])[H])C([H])([H])C([H])([H])Oc2c([H])c([H])c3c(c2[H])C([H])([H])N(C(=O)C([H])(N([H])C(=O)C([H])(N([H])C([H])([H])[H])C([H])([H])[H])C(C([H])([H])[H])(C([H])([H])[H])C([H])([H])[H])C([H])(C(=O)N([H])C2([H])c4c([H])c([H])c([H])c([H])c4C([H])([H])C([H])([H])C2([H])[H])C3([H])[H])c1[H]

$$$$
18:0:0
     RDKit          3D

 90 98  0  0  1  0  0  0  0  0999 V2000
  -28.6210  -23.3480   20.1430 C   0  0  0  0  0  0  0  0  0  0  0  0
  -29.1240  -22.4120   22.3300 C   0  0  0  0  0  1  0  0  0  0  0  0
  -28.9530  -22.1710   20.8930 N   0  0  0  0  0  0  0  0  0  0  0  0
  -28.6630  -23.3090   18.9090 O   0  0  0  0  0  0  0  0  0  0  0  0
  -28.4690  -18.3430   19.8660 C   0  0  0  0  0  3  0  0  0  0  0  0
  -30.5730  -18.5120   20.9030 C   0  0  0  0  0  3  0  0  0  0  0  0
  -28.2950  -19.7880   19.9220 C   0  0  0  0  0  3  0  0  0  0  0  0
  -30.3840  -19.9580   20.9880 C   0  0  0  0  0  3  0  0  0  0  0  0
  -29.6030  -17.6030   20.3630 C   0  0  0  0  0  0  0  0  0  0  0  0
  -29.2300  -20.6950   20.5220 C   0  0  0  0  0  0  0  0  0  0  0  0
  -30.4830  -14.9600   20.3010 C   0  0  0  0  0  0  0  0  0  0  0  0
  -30.4040  -12.6120   19.3440 C   0  0  0  0  0  2  0  0  0  0  0  0
  -29.4470  -12.5710   18.1280 C   0  0  0  0  0  2  0  0  0  0  0  0
  -27.9880  -12.3540   18.5800 C   0  0  0  0  0  2  0  0  0  0  0  0
  -27.5950  -13.2730   19.7660 C   0  0  0  0  0  3  0  0  0  0  0  0
  -28.6660  -13.2590   20.8780 C   0  0  0  0  0  2  0  0  0  0  0  0
  -29.9290  -13.6840   20.2620 N   0  0  0  0  0  0  0  0  0  0  0  0
  -31.6830  -15.0780   20.0300 O   0  0  0  0  0  0  0  0  0  0  0  0
  -29.5980  -16.0660   20.4110 N   0  0  0  0  0  0  0  0  0  0  0  0
  -28.6590  -15.7050   20.4780 H   0  0  0  0  0  0  0  0  0  0  0  0
  -25.2210  -13.8540   20.5320 C   0  0  0  0  0  0  0  0  0  0  0  0
  -24.1610  -13.0780   20.9110 C   0  0  0  0  0  0  0  0  0  0  0  0
  -24.6250  -11.7280   20.8680 C   0  0  0  0  0  0  0  0  0  0  0  0
  -26.2620  -12.9760   20.2770 N   0  0  0  0  0  0  0  0  0  0  0  0
  -25.9130  -11.6930   20.5450 N   0  0  0  0  0  0  0  0  0  0  0  0
  -23.9010  -10.4650   21.0590 C   0  0  0  0  0  0  0  0  0  0  0  0
  -24.3480   -9.4870   21.9740 C   0  0  0  0  0  3  0  0  0  0  0  0
  -23.6230   -8.2900   22.1530 C   0  0  0  0  0  3  0  0  0  0  0  0
  -22.4360   -8.0620   21.4170 C   0  0  0  0  0  0  0  0  0  0  0  0
  -22.0070   -9.0290   20.4900 C   0  0  0  0  0  3  0  0  0  0  0  0
  -22.7340  -10.2170   20.3090 C   0  0  0  0  0  3  0  0  0  0  0  0
  -21.6790   -6.9190   21.5080 O   0  0  0  0  0  0  0  0  0  0  0  0
  -21.6570   -6.1590   22.6480 C   0  0  0  0  0  0  0  0  0  0  0  0
  -21.2690   -6.6970   23.8960 C   0  0  0  0  0  3  0  0  0  0  0  0
  -21.1940   -5.8640   25.0290 C   0  0  0  0  0  3  0  0  0  0  0  0
  -21.4960   -4.4930   24.9160 C   0  0  0  0  0  0  0  0  0  0  0  0
  -21.8780   -3.9550   23.6750 C   0  0  0  0  0  3  0  0  0  0  0  0
  -21.9550   -4.7860   22.5440 C   0  0  0  0  0  0  0  0  0  0  0  0
  -22.3020   -4.2570   21.3450 F   0  0  0  0  0  0  0  0  0  0  0  0
  -21.4170   -3.6890   26.0040 F   0  0  0  0  0  0  0  0  0  0  0  0
  -22.7680  -13.5550   21.1940 C   0  0  0  0  0  0  0  0  0  0  0  0
  -22.0470  -12.8570   22.0650 N   0  0  0  0  0  0  0  0  0  0  0  0
  -22.3260  -14.5810   20.6800 O   0  0  0  0  0  0  0  0  0  0  0  0
  -22.4170  -12.0260   22.5020 H   0  0  0  0  0  0  0  0  0  0  0  0
  -21.1120  -13.1590   22.2970 H   0  0  0  0  0  0  0  0  0  0  0  0
  -25.3800  -15.2260   20.3580 N   0  0  0  0  0  0  0  0  0  0  0  0
  -24.6030  -15.8660   20.4730 H   0  0  0  0  0  0  0  0  0  0  0  0
  -26.2030  -15.6700   19.9760 H   0  0  0  0  0  0  0  0  0  0  0  0
  -28.1220  -24.7930   20.8220 C   0  0  0  0  0  2  0  0  0  0  0  0
  -28.2960  -26.2010   20.1880 O   0  0  0  0  0  0  0  0  0  0  0  0
  -24.6420  -31.8690   23.2170 C   0  0  0  0  0  0  0  0  0  0  0  0
  -27.2270  -27.1630   20.2040 C   0  0  0  0  0  0  0  0  0  0  0  0
  -23.4400  -30.4640   21.5850 C   0  0  0  0  0  3  0  0  0  0  0  0
  -24.8890  -28.8840   20.1680 C   0  0  0  0  0  0  0  0  0  0  0  0
  -25.9910  -30.7410   21.4090 C   0  0  0  0  0  2  0  0  0  0  0  0
  -26.0680  -29.3450   20.7670 C   0  0  0  0  0  0  0  0  0  0  0  0
  -27.2410  -28.5020   20.7650 C   0  0  0  0  0  3  0  0  0  0  0  0
  -26.0200  -26.7930   19.5750 C   0  0  0  0  0  3  0  0  0  0  0  0
  -24.8750  -27.6200   19.5560 C   0  0  0  0  0  3  0  0  0  0  0  0
  -23.6580  -29.7790   20.2100 C   0  0  0  0  0  2  0  0  0  0  0  0
  -24.7110  -31.0470   22.1250 N   0  0  0  0  0  0  0  0  0  0  0  0
  -23.5570  -32.1520   23.7490 O   0  0  0  0  0  0  0  0  0  0  0  0
  -22.7680  -29.4600   22.5550 C   0  0  0  0  0  0  0  0  0  0  0  0
  -21.4390  -29.2880   22.4370 N   0  0  0  0  0  0  0  0  0  0  0  0
  -23.4450  -28.8340   23.3760 O   0  0  0  0  0  0  0  0  0  0  0  0
  -20.9490  -29.8420   21.7480 H   0  0  0  0  0  0  0  0  0  0  0  0
  -18.0610  -28.0900   22.9610 C   0  0  0  0  0  0  0  0  0  0  0  0
  -20.6220  -28.3530   23.2150 C   0  0  0  0  0  3  0  0  0  0  0  0
  -20.7210  -26.9200   22.6440 C   0  0  0  0  0  2  0  0  0  0  0  0
  -19.6130  -26.5930   21.6370 C   0  0  0  0  0  2  0  0  0  0  0  0
  -18.2340  -26.7410   22.2850 C   0  0  0  0  0  2  0  0  0  0  0  0
  -19.1820  -28.8550   23.3830 C   0  0  0  0  0  0  0  0  0  0  0  0
  -18.9640  -30.1180   23.9750 C   0  0  0  0  0  3  0  0  0  0  0  0
  -17.6600  -30.6180   24.1470 C   0  0  0  0  0  3  0  0  0  0  0  0
  -16.5530  -29.8510   23.7410 C   0  0  0  0  0  3  0  0  0  0  0  0
  -16.7550  -28.5880   23.1540 C   0  0  0  0  0  3  0  0  0  0  0  0
  -25.9210  -32.5090   23.8380 C   0  0  0  0  0  3  0  0  0  0  0  0
  -25.6060  -33.9070   24.1740 N   0  0  0  0  0  0  0  0  0  0  0  0
  -25.9270  -34.9650   23.4180 C   0  0  0  0  0  0  0  0  0  0  0  0
  -26.5880  -34.8680   22.3800 O   0  0  0  0  0  0  0  0  0  0  0  0
  -25.0230  -34.0580   24.9840 H   0  0  0  0  0  0  0  0  0  0  0  0
  -24.1880  -36.7520   23.0920 C   0  0  0  0  0  1  0  0  0  0  0  0
  -25.4410  -36.3500   23.8880 C   0  0  0  0  0  3  0  0  0  0  0  0
  -27.5820  -37.2390   24.6970 C   0  0  0  0  0  1  0  0  0  0  0  0
  -26.4680  -37.4080   23.7680 N   0  0  0  0  0  0  0  0  0  0  0  0
  -26.0590  -38.3260   23.9250 H   0  0  0  0  0  0  0  0  0  0  0  0
  -26.4410  -31.7420   25.1160 C   0  0  1  0  0  0  0  0  0  0  0  0
  -25.3520  -31.5070   26.1880 C   0  0  0  0  0  1  0  0  0  0  0  0
  -27.0240  -30.3640   24.7300 C   0  0  0  0  0  1  0  0  0  0  0  0
  -27.5920  -32.5400   25.7720 C   0  0  0  0  0  1  0  0  0  0  0  0
  1 49  1  0
  1  3  1  0
  3  2  1  0
  4  1  2  0
  5  7  2  0
  5  9  1  0
  6  8  1  0
  7 10  1  0
  9 19  1  0
  9  6  2  0
 10  3  1  0
 10  8  2  0
 11 19  1  0
 12 17  1  0
 13 14  1  0
 13 12  1  0
 15 14  1  0
 15 24  1  0
 15 16  1  0
 17 11  1  0
 17 16  1  0
 18 11  2  0
 19 20  1  0
 21 22  2  0
 22 41  1  0
 23 22  1  0
 23 26  1  0
 24 21  1  0
 24 25  1  0
 25 23  2  0
 26 27  1  0
 27 28  2  0
 29 32  1  0
 29 28  1  0
 30 29  2  0
 31 30  1  0
 31 26  2  0
 32 33  1  0
 33 34  1  0
 34 35  2  0
 36 35  1  0
 36 40  1  0
 37 36  2  0
 38 33  2  0
 38 37  1  0
 39 38  1  0
 41 42  1  0
 42 45  1  0
 42 44  1  0
 43 41  2  0
 46 47  1  0
 46 21  1  0
 48 46  1  0
 50 52  1  0
 50 49  1  0
 51 62  2  0
 52 57  1  0
 53 61  1  0
 53 63  1  0
 54 60  1  0
 54 56  1  0
 55 61  1  0
 56 55  1  0
 57 56  2  0
 58 52  2  0
 59 58  1  0
 59 54  2  0
 60 53  1  0
 61 51  1  0
 63 65  2  0
 64 63  1  0
 66 64  1  0
 67 76  2  0
 67 72  1  0
 68 64  1  0
 68 72  1  0
 69 68  1  0
 70 71  1  0
 70 69  1  0
 71 67  1  0
 72 73  2  0
 73 74  1  0
 75 74  2  0
 76 75  1  0
 77 51  1  0
 77 78  1  0
 77 87  1  0
 78 81  1  0
 79 83  1  0
 79 78  1  0
 80 79  2  0
 83 82  1  0
 85 83  1  0
 85 86  1  0
 85 84  1  0
 87 90  1  1
 87 88  1  0
 89 87  1  0
M  ISO  4  11 100  19 100  49 101  50 101
M  END
>  <TORSDO>  (19) 
F 18

>  <SCORE>  (19) 
-14.855

>  <name>  (19) 
18

>  <ligand_id>  (19) 
18

>  <original_smiles>  (19) 
[H]c1c([H])c([H])c2c(c1[H])C([H])([H])C([H])([H])C([H])([H])C2([H])N([H])C(=O)C1([H])N(C(=O)C([H])(N([H])C(=O)C([H])(N([H])C([H])([H])[H])C([H])([H])[H])C(C([H])([H])[H])(C([H])([H])[H])C([H])([H])[H])C([H])([H])c2c([H])c(OC([H])([H])C(=O)N(c3c([H])c([H])c(N([H])C(=O)N4C([H])([H])C([H])([H])C([H])([H])C([H])(n5nc(-c6c([H])c([H])c(Oc7c([H])c([H])c(F)c([H])c7F)c([H])c6[H])c(C(=O)N([H])[H])c5N([H])[H])C4([H])[H])c([H])c3[H])C([H])([H])[H])c([H])c([H])c2C1([H])[H]

>  <smiles>  (19) 
[H]c1c([H])c([H])c2c(c1[H])C([H])([H])C([H])([H])C([H])([H])C2([H])N([H])C(=O)C1([H])N(C(=O)C([H])(N([H])C(=O)C([H])(N([H])C([H])([H])[H])C([H])([H])[H])C(C([H])([H])[H])(C([H])([H])[H])C([H])([H])[H])C([H])([H])c2c([H])c(OC([H])([H])C(=O)N(c3c([H])c([H])c(N([H])C(=O)N4C([H])([H])C([H])([H])C([H])([H])C([H])(n5nc(-c6c([H])c([H])c(Oc7c([H])c([H])c(F)c([H])c7F)c([H])c6[H])c(C(=O)N([H])[H])c5N([H])[H])C4([H])[H])c([H])c3[H])C([H])([H])[H])c([H])c([H])c2C1([H])[H]

$$$$
19:0:0
     RDKit          3D

 97106  0  0  1  0  0  0  0  0999 V2000
  -29.3630  -21.0790   21.3230 C   0  0  0  0  0  3  0  0  0  0  0  0
  -29.0410  -23.4080   19.8740 C   0  0  0  0  0  2  0  0  0  0  0  0
  -30.3060  -24.6360   21.4350 C   0  0  0  0  0  2  0  0  0  0  0  0
  -28.9740  -24.7280   20.7000 C   0  0  0  0  0  3  0  0  0  0  0  0
  -29.9660  -22.3870   20.6450 C   0  0  0  0  0  3  0  0  0  0  0  0
  -31.8590  -22.9490   22.0950 C   0  0  0  0  0  1  0  0  0  0  0  0
  -30.4600  -23.2210   21.7590 N   0  0  0  0  0  0  0  0  0  0  0  0
  -28.8540  -26.1420   20.0130 C   0  0  0  0  0  2  0  0  0  0  0  0
  -27.7130  -26.3430   19.1780 O   0  0  0  0  0  0  0  0  0  0  0  0
  -24.6190  -31.6050   23.0900 C   0  0  0  0  0  0  0  0  0  0  0  0
  -26.6930  -27.2320   19.4770 C   0  0  0  0  0  0  0  0  0  0  0  0
  -23.1880  -30.3970   21.4800 C   0  0  0  0  0  3  0  0  0  0  0  0
  -24.4140  -28.8900   19.8250 C   0  0  0  0  0  0  0  0  0  0  0  0
  -25.7070  -30.6210   21.0720 C   0  0  0  0  0  2  0  0  0  0  0  0
  -25.6550  -29.2900   20.3430 C   0  0  0  0  0  0  0  0  0  0  0  0
  -26.8030  -28.4660   20.1770 C   0  0  0  0  0  3  0  0  0  0  0  0
  -25.4370  -26.8690   18.9540 C   0  0  0  0  0  3  0  0  0  0  0  0
  -24.3000  -27.6770   19.1310 C   0  0  0  0  0  3  0  0  0  0  0  0
  -23.2340  -29.8130   20.0450 C   0  0  0  0  0  2  0  0  0  0  0  0
  -24.5290  -30.8850   21.9380 N   0  0  0  0  0  0  0  0  0  0  0  0
  -23.6090  -31.8940   23.7490 O   0  0  0  0  0  0  0  0  0  0  0  0
  -22.5640  -29.3440   22.4240 C   0  0  0  0  0  0  0  0  0  0  0  0
  -21.2290  -29.1970   22.3670 N   0  0  0  0  0  0  0  0  0  0  0  0
  -23.2750  -28.6610   23.1660 O   0  0  0  0  0  0  0  0  0  0  0  0
  -20.7130  -29.7990   21.7400 H   0  0  0  0  0  0  0  0  0  0  0  0
  -17.8660  -28.0150   22.9640 C   0  0  0  0  0  0  0  0  0  0  0  0
  -20.4350  -28.2410   23.1380 C   0  0  0  0  0  3  0  0  0  0  0  0
  -20.4980  -26.8310   22.5070 C   0  0  0  0  0  2  0  0  0  0  0  0
  -19.3510  -26.5550   21.5290 C   0  0  0  0  0  2  0  0  0  0  0  0
  -17.9990  -26.6900   22.2350 C   0  0  0  0  0  2  0  0  0  0  0  0
  -19.0090  -28.7520   23.3750 C   0  0  0  0  0  0  0  0  0  0  0  0
  -18.8280  -29.9950   24.0180 C   0  0  0  0  0  3  0  0  0  0  0  0
  -17.5360  -30.5010   24.2560 C   0  0  0  0  0  3  0  0  0  0  0  0
  -16.4090  -29.7630   23.8620 C   0  0  0  0  0  3  0  0  0  0  0  0
  -16.5740  -28.5210   23.2220 C   0  0  0  0  0  3  0  0  0  0  0  0
  -25.9910  -32.1200   23.6260 C   0  0  0  0  0  3  0  0  0  0  0  0
  -26.5710  -31.2390   24.8000 C   0  0  1  0  0  0  0  0  0  0  0  0
  -25.5660  -30.9990   25.9510 C   0  0  0  0  0  1  0  0  0  0  0  0
  -27.0240  -29.8570   24.2730 C   0  0  0  0  0  1  0  0  0  0  0  0
  -27.8260  -31.9190   25.3950 C   0  0  0  0  0  1  0  0  0  0  0  0
  -25.8020  -33.5100   24.0640 N   0  0  0  0  0  0  0  0  0  0  0  0
  -26.1680  -34.5860   23.3540 C   0  0  0  0  0  0  0  0  0  0  0  0
  -26.7720  -34.5070   22.2800 O   0  0  0  0  0  0  0  0  0  0  0  0
  -25.2660  -33.6500   24.9070 H   0  0  0  0  0  0  0  0  0  0  0  0
  -24.5660  -36.5200   23.2040 C   0  0  0  0  0  1  0  0  0  0  0  0
  -25.8070  -35.9700   23.9270 C   0  0  0  0  0  3  0  0  0  0  0  0
  -28.0260  -36.6470   24.7300 C   0  0  0  0  0  1  0  0  0  0  0  0
  -26.9110  -36.9510   23.8370 N   0  0  0  0  0  0  0  0  0  0  0  0
  -26.5790  -37.8880   24.0510 H   0  0  0  0  0  0  0  0  0  0  0  0
  -30.7940  -18.9230   21.1030 C   0  0  0  0  0  3  0  0  0  0  0  0
  -28.5770  -18.8880   20.1460 C   0  0  0  0  0  3  0  0  0  0  0  0
  -30.9090  -17.5140   20.9150 C   0  0  0  0  0  3  0  0  0  0  0  0
  -28.6800  -17.4840   19.9850 C   0  0  0  0  0  3  0  0  0  0  0  0
  -29.6080  -19.6350   20.7690 C   0  0  0  0  0  0  0  0  0  0  0  0
  -29.8270  -16.7630   20.3980 C   0  0  0  0  0  0  0  0  0  0  0  0
  -30.5620  -14.3380   19.9140 C   0  0  0  0  0  0  0  0  0  0  0  0
  -30.3060  -12.0980   18.8740 C   0  0  0  0  0  2  0  0  0  0  0  0
  -29.2390  -12.1950   17.7600 C   0  0  0  0  0  2  0  0  0  0  0  0
  -27.8160  -12.0200   18.3320 C   0  0  0  0  0  2  0  0  0  0  0  0
  -27.5640  -12.8960   19.5860 C   0  0  0  0  0  3  0  0  0  0  0  0
  -28.7260  -12.7480   20.5950 C   0  0  0  0  0  2  0  0  0  0  0  0
  -29.9740  -13.1050   19.8960 N   0  0  0  0  0  0  0  0  0  0  0  0
  -31.6580  -14.5590   19.3890 O   0  0  0  0  0  0  0  0  0  0  0  0
  -29.7480  -15.3210   20.3830 N   0  0  0  0  0  0  0  0  0  0  0  0
  -28.8590  -14.9520   20.6800 H   0  0  0  0  0  0  0  0  0  0  0  0
  -25.2640  -13.4860   20.5800 C   0  0  0  0  0  0  0  0  0  0  0  0
  -24.2360  -12.7050   21.0320 C   0  0  0  0  0  0  0  0  0  0  0  0
  -24.6770  -11.3530   20.8930 C   0  0  0  0  0  0  0  0  0  0  0  0
  -26.2690  -12.6090   20.1980 N   0  0  0  0  0  0  0  0  0  0  0  0
  -25.9250  -11.3190   20.4430 N   0  0  0  0  0  0  0  0  0  0  0  0
  -23.9630  -10.0880   21.1060 C   0  0  0  0  0  0  0  0  0  0  0  0
  -24.4130   -9.1360   22.0470 C   0  0  0  0  0  3  0  0  0  0  0  0
  -23.7000   -7.9350   22.2470 C   0  0  0  0  0  3  0  0  0  0  0  0
  -22.5220   -7.6770   21.5050 C   0  0  0  0  0  0  0  0  0  0  0  0
  -22.0910   -8.6180   20.5540 C   0  0  0  0  0  3  0  0  0  0  0  0
  -22.8050   -9.8100   20.3520 C   0  0  0  0  0  3  0  0  0  0  0  0
  -21.7780   -6.5260   21.6150 O   0  0  0  0  0  0  0  0  0  0  0  0
  -21.6700   -5.8490   22.8030 C   0  0  0  0  0  0  0  0  0  0  0  0
  -21.0840   -6.4380   23.9450 C   0  0  0  0  0  3  0  0  0  0  0  0
  -20.9300   -5.6830   25.1260 C   0  0  0  0  0  3  0  0  0  0  0  0
  -21.3520   -4.3400   25.1640 C   0  0  0  0  0  0  0  0  0  0  0  0
  -21.9310   -3.7510   24.0260 C   0  0  0  0  0  3  0  0  0  0  0  0
  -22.0870   -4.5040   22.8480 C   0  0  0  0  0  0  0  0  0  0  0  0
  -22.6260   -3.9250   21.7480 F   0  0  0  0  0  0  0  0  0  0  0  0
  -21.1970   -3.6130   26.2940 F   0  0  0  0  0  0  0  0  0  0  0  0
  -22.8810  -13.1780   21.4760 C   0  0  0  0  0  0  0  0  0  0  0  0
  -22.2440  -12.4460   22.3840 N   0  0  0  0  0  0  0  0  0  0  0  0
  -22.4010  -14.2280   21.0540 O   0  0  0  0  0  0  0  0  0  0  0  0
  -22.6470  -11.5940   22.7450 H   0  0  0  0  0  0  0  0  0  0  0  0
  -21.3390  -12.7420   22.7220 H   0  0  0  0  0  0  0  0  0  0  0  0
  -25.4210  -14.8610   20.4380 N   0  0  0  0  0  0  0  0  0  0  0  0
  -24.6640  -15.5060   20.6380 H   0  0  0  0  0  0  0  0  0  0  0  0
  -26.1970  -15.2990   19.9620 H   0  0  0  0  0  0  0  0  0  0  0  0
  -27.9890  -21.3150   21.7820 N   0  0  0  0  0  4  0  0  0  0  0  0
  -27.3530  -21.3930   21.0100 H   0  0  0  0  0  0  0  0  0  0  0  0
  -27.9890  -22.1780   22.2970 H   0  0  0  0  0  0  0  0  0  0  0  0
  -27.6950  -20.5750   22.3940 H   0  0  0  0  0  0  0  0  0  0  0  0
  1 94  1  0
  2  5  1  0
  2  4  1  0
  3  7  1  0
  4  8  1  0
  4  3  1  0
  5  1  1  0
  5  7  1  0
  7  6  1  0
  9 11  1  0
  9  8  1  0
 10 21  2  0
 11 16  1  0
 12 20  1  0
 12 22  1  0
 13 19  1  0
 13 15  1  0
 14 20  1  0
 15 14  1  0
 16 15  2  0
 17 18  1  0
 17 11  2  0
 18 13  2  0
 19 12  1  0
 20 10  1  0
 22 24  2  0
 23 22  1  0
 25 23  1  0
 26 35  2  0
 26 31  1  0
 27 23  1  0
 27 31  1  0
 28 27  1  0
 29 30  1  0
 29 28  1  0
 30 26  1  0
 31 32  2  0
 32 33  1  0
 34 33  2  0
 35 34  1  0
 36 10  1  0
 36 41  1  0
 36 37  1  0
 37 40  1  1
 37 38  1  0
 39 37  1  0
 41 44  1  0
 42 46  1  0
 42 41  1  0
 43 42  2  0
 46 45  1  0
 48 46  1  0
 48 49  1  0
 48 47  1  0
 51 54  1  0
 52 50  1  0
 53 51  2  0
 53 55  1  0
 54 50  2  0
 54  1  1  0
 55 52  2  0
 56 64  1  0
 57 62  1  0
 58 59  1  0
 58 57  1  0
 60 59  1  0
 60 69  1  0
 60 61  1  0
 62 56  1  0
 62 61  1  0
 63 56  2  0
 64 55  1  0
 64 65  1  0
 66 67  2  0
 67 86  1  0
 68 67  1  0
 68 71  1  0
 69 70  1  0
 69 66  1  0
 70 68  2  0
 71 72  1  0
 72 73  2  0
 74 77  1  0
 74 73  1  0
 75 74  2  0
 76 75  1  0
 76 71  2  0
 77 78  1  0
 78 83  2  0
 78 79  1  0
 79 80  2  0
 80 81  1  0
 81 85  1  0
 82 81  2  0
 83 82  1  0
 84 83  1  0
 86 87  1  0
 87 90  1  0
 87 89  1  0
 88 86  2  0
 91 66  1  0
 91 92  1  0
 93 91  1  0
 94 96  1  0
 94 97  1  0
 95 94  1  0
M  ISO  4   8 101   9 101  56 100  64 100
M  END
>  <TORSDO>  (20) 
F 20

>  <SCORE>  (20) 
-11.792

>  <name>  (20) 
19

>  <ligand_id>  (20) 
19

>  <original_smiles>  (20) 
[H]c1c([H])c([H])c2c(c1[H])C([H])([H])C([H])([H])C([H])([H])C2([H])N([H])C(=O)C1([H])N(C(=O)C([H])(N([H])C(=O)C([H])(N([H])C([H])([H])[H])C([H])([H])[H])C(C([H])([H])[H])(C([H])([H])[H])C([H])([H])[H])C([H])([H])c2c([H])c(OC([H])([H])C3([H])C([H])([H])N(C([H])([H])[H])C([H])(C([H])(c4c([H])c([H])c(N([H])C(=O)N5C([H])([H])C([H])([H])C([H])([H])C([H])(n6nc(-c7c([H])c([H])c(Oc8c([H])c([H])c(F)c([H])c8F)c([H])c7[H])c(C(=O)N([H])[H])c6N([H])[H])C5([H])[H])c([H])c4[H])[N+]([H])([H])[H])C3([H])[H])c([H])c([H])c2C1([H])[H]

>  <smiles>  (20) 
[H]c1c([H])c([H])c2c(c1[H])C([H])([H])C([H])([H])C([H])([H])C2([H])N([H])C(=O)C1([H])N(C(=O)C([H])(N([H])C(=O)C([H])(N([H])C([H])([H])[H])C([H])([H])[H])C(C([H])([H])[H])(C([H])([H])[H])C([H])([H])[H])C([H])([H])c2c([H])c(OC([H])([H])C3([H])C([H])([H])N(C([H])([H])[H])C([H])(C([H])(c4c([H])c([H])c(N([H])C(=O)N5C([H])([H])C([H])([H])C([H])([H])C([H])(n6nc(-c7c([H])c([H])c(Oc8c([H])c([H])c(F)c([H])c8F)c([H])c7[H])c(C(=O)N([H])[H])c6N([H])[H])C5([H])[H])c([H])c4[H])[N+]([H])([H])[H])C3([H])[H])c([H])c([H])c2C1([H])[H]

$$$$
20:0:0
     RDKit          3D

 96104  0  0  1  0  0  0  0  0999 V2000
  -31.2230  -21.5360   19.2200 C   0  0  0  0  0  2  0  0  0  0  0  0
  -29.2760  -20.2230   18.3300 C   0  0  0  0  0  0  0  0  0  0  0  0
  -30.0960  -22.1150   17.0440 C   0  0  0  0  0  1  0  0  0  0  0  0
  -30.1840  -21.2250   18.2120 N   0  0  0  0  0  0  0  0  0  0  0  0
  -28.2240  -20.2140   17.6770 O   0  0  0  0  0  0  0  0  0  0  0  0
  -28.4950  -18.4270   19.9360 C   0  0  0  0  0  3  0  0  0  0  0  0
  -30.8480  -18.4830   19.3250 C   0  0  0  0  0  3  0  0  0  0  0  0
  -28.7100  -17.2340   20.6570 C   0  0  0  0  0  3  0  0  0  0  0  0
  -31.0740  -17.3240   20.0830 C   0  0  0  0  0  3  0  0  0  0  0  0
  -29.5570  -19.0530   19.2400 C   0  0  0  0  0  0  0  0  0  0  0  0
  -29.9900  -16.6470   20.6860 C   0  0  0  0  0  0  0  0  0  0  0  0
  -30.7260  -14.3590   20.5470 C   0  0  0  0  0  0  0  0  0  0  0  0
  -30.3530  -12.2650   19.3340 C   0  0  0  0  0  2  0  0  0  0  0  0
  -29.4270  -12.5260   18.1300 C   0  0  0  0  0  2  0  0  0  0  0  0
  -27.9460  -12.4180   18.5470 C   0  0  0  0  0  2  0  0  0  0  0  0
  -27.6210  -13.2330   19.8300 C   0  0  0  0  0  3  0  0  0  0  0  0
  -28.6620  -12.9570   20.9390 C   0  0  0  0  0  2  0  0  0  0  0  0
  -30.0050  -13.2200   20.3940 N   0  0  0  0  0  0  0  0  0  0  0  0
  -31.8290  -14.5220   20.0200 O   0  0  0  0  0  0  0  0  0  0  0  0
  -30.1210  -15.3440   21.2320 N   0  0  0  0  0  0  0  0  0  0  0  0
  -29.3340  -15.0290   21.7750 H   0  0  0  0  0  0  0  0  0  0  0  0
  -25.2150  -13.8580   20.5090 C   0  0  0  0  0  0  0  0  0  0  0  0
  -24.1390  -13.0960   20.8840 C   0  0  0  0  0  0  0  0  0  0  0  0
  -24.5910  -11.7410   20.8620 C   0  0  0  0  0  0  0  0  0  0  0  0
  -26.2580  -12.9720   20.2950 N   0  0  0  0  0  0  0  0  0  0  0  0
  -25.8830  -11.6920   20.5580 N   0  0  0  0  0  0  0  0  0  0  0  0
  -23.8570  -10.4830   21.0590 C   0  0  0  0  0  0  0  0  0  0  0  0
  -24.2950   -9.5090   21.9820 C   0  0  0  0  0  3  0  0  0  0  0  0
  -23.5670   -8.3170   22.1670 C   0  0  0  0  0  3  0  0  0  0  0  0
  -22.3820   -8.0880   21.4280 C   0  0  0  0  0  0  0  0  0  0  0  0
  -21.9590   -9.0510   20.4960 C   0  0  0  0  0  3  0  0  0  0  0  0
  -22.6890  -10.2360   20.3100 C   0  0  0  0  0  3  0  0  0  0  0  0
  -21.6200   -6.9480   21.5230 O   0  0  0  0  0  0  0  0  0  0  0  0
  -21.6010   -6.1880   22.6650 C   0  0  0  0  0  0  0  0  0  0  0  0
  -21.2300   -6.7300   23.9160 C   0  0  0  0  0  3  0  0  0  0  0  0
  -21.1560   -5.8940   25.0500 C   0  0  0  0  0  3  0  0  0  0  0  0
  -21.4440   -4.5220   24.9330 C   0  0  0  0  0  0  0  0  0  0  0  0
  -21.8050   -3.9790   23.6870 C   0  0  0  0  0  3  0  0  0  0  0  0
  -21.8790   -4.8100   22.5560 C   0  0  0  0  0  0  0  0  0  0  0  0
  -22.2070   -4.2800   21.3540 F   0  0  0  0  0  0  0  0  0  0  0  0
  -21.3660   -3.7190   26.0180 F   0  0  0  0  0  0  0  0  0  0  0  0
  -22.7420  -13.5830   21.1420 C   0  0  0  0  0  0  0  0  0  0  0  0
  -22.0050  -12.9030   22.0160 N   0  0  0  0  0  0  0  0  0  0  0  0
  -22.3080  -14.6030   20.6080 O   0  0  0  0  0  0  0  0  0  0  0  0
  -22.3650  -12.0830   22.4840 H   0  0  0  0  0  0  0  0  0  0  0  0
  -21.0660  -13.2100   22.2210 H   0  0  0  0  0  0  0  0  0  0  0  0
  -25.3890  -15.2250   20.3100 N   0  0  0  0  0  0  0  0  0  0  0  0
  -24.6170  -15.8800   20.3660 H   0  0  0  0  0  0  0  0  0  0  0  0
  -26.2200  -15.6220   19.8910 H   0  0  0  0  0  0  0  0  0  0  0  0
  -31.4570  -23.0390   19.4780 C   0  0  0  0  0  2  0  0  0  0  0  0
  -29.9270  -25.0030   19.3820 C   0  0  0  0  0  0  0  0  0  0  0  0
  -30.2010  -23.7430   19.7450 N   0  0  0  0  0  0  0  0  0  0  0  0
  -30.7770  -25.7590   18.9040 O   0  0  0  0  0  0  0  0  0  0  0  0
  -29.4460  -23.2010   20.1410 H   0  0  0  0  0  0  0  0  0  0  0  0
  -28.4710  -25.4680   19.5330 C   0  0  0  0  0  2  0  0  0  0  0  0
  -28.4190  -26.7650   20.1330 O   0  0  0  0  0  0  0  0  0  0  0  0
  -24.5610  -31.8760   23.2360 C   0  0  0  0  0  0  0  0  0  0  0  0
  -27.2110  -27.4350   20.1490 C   0  0  0  0  0  0  0  0  0  0  0  0
  -23.3510  -30.4720   21.5950 C   0  0  0  0  0  3  0  0  0  0  0  0
  -24.8020  -28.9230   20.1850 C   0  0  0  0  0  0  0  0  0  0  0  0
  -25.8770  -30.8260   21.4010 C   0  0  0  0  0  2  0  0  0  0  0  0
  -25.9620  -29.4520   20.7670 C   0  0  0  0  0  0  0  0  0  0  0  0
  -27.1640  -28.7150   20.7470 C   0  0  0  0  0  3  0  0  0  0  0  0
  -26.0240  -26.9070   19.5870 C   0  0  0  0  0  3  0  0  0  0  0  0
  -24.8260  -27.6460   19.6010 C   0  0  0  0  0  3  0  0  0  0  0  0
  -23.5600  -29.7800   20.2230 C   0  0  0  0  0  2  0  0  0  0  0  0
  -24.6150  -31.0730   22.1370 N   0  0  0  0  0  0  0  0  0  0  0  0
  -23.4810  -32.1530   23.7760 O   0  0  0  0  0  0  0  0  0  0  0  0
  -22.6950  -29.4590   22.5600 C   0  0  0  0  0  0  0  0  0  0  0  0
  -21.3700  -29.2810   22.4290 N   0  0  0  0  0  0  0  0  0  0  0  0
  -23.3760  -28.8350   23.3800 O   0  0  0  0  0  0  0  0  0  0  0  0
  -20.8870  -29.8330   21.7340 H   0  0  0  0  0  0  0  0  0  0  0  0
  -17.9910  -28.1020   22.9210 C   0  0  0  0  0  0  0  0  0  0  0  0
  -20.5480  -28.3500   23.2010 C   0  0  0  0  0  3  0  0  0  0  0  0
  -20.6480  -26.9180   22.6290 C   0  0  0  0  0  2  0  0  0  0  0  0
  -19.5470  -26.5960   21.6110 C   0  0  0  0  0  2  0  0  0  0  0  0
  -18.1630  -26.7500   22.2500 C   0  0  0  0  0  2  0  0  0  0  0  0
  -19.1120  -28.8600   23.3520 C   0  0  0  0  0  0  0  0  0  0  0  0
  -18.8990  -30.1260   23.9390 C   0  0  0  0  0  3  0  0  0  0  0  0
  -17.5970  -30.6370   24.0970 C   0  0  0  0  0  3  0  0  0  0  0  0
  -16.4900  -29.8750   23.6830 C   0  0  0  0  0  3  0  0  0  0  0  0
  -16.6880  -28.6100   23.1020 C   0  0  0  0  0  3  0  0  0  0  0  0
  -25.8510  -32.5020   23.8560 C   0  0  0  0  0  3  0  0  0  0  0  0
  -25.5470  -33.8990   24.1860 N   0  0  0  0  0  0  0  0  0  0  0  0
  -25.8870  -34.9510   23.4280 C   0  0  0  0  0  0  0  0  0  0  0  0
  -26.5590  -34.8450   22.3980 O   0  0  0  0  0  0  0  0  0  0  0  0
  -24.9480  -34.0560   24.9820 H   0  0  0  0  0  0  0  0  0  0  0  0
  -24.1650  -36.7450   23.0690 C   0  0  0  0  0  1  0  0  0  0  0  0
  -25.4050  -36.3400   23.8820 C   0  0  0  0  0  3  0  0  0  0  0  0
  -27.5440  -37.2130   24.7130 C   0  0  0  0  0  1  0  0  0  0  0  0
  -26.4410  -37.3900   23.7700 N   0  0  0  0  0  0  0  0  0  0  0  0
  -26.0380  -38.3120   23.9230 H   0  0  0  0  0  0  0  0  0  0  0  0
  -26.3690  -31.7250   25.1290 C   0  0  1  0  0  0  0  0  0  0  0  0
  -25.2790  -31.4920   26.2000 C   0  0  0  0  0  1  0  0  0  0  0  0
  -26.9460  -30.3470   24.7330 C   0  0  0  0  0  1  0  0  0  0  0  0
  -27.5260  -32.5160   25.7850 C   0  0  0  0  0  1  0  0  0  0  0  0
  1 50  1  0
  2 10  1  0
  3  4  1  0
  4  2  1  0
  4  1  1  0
  5  2  2  0
  6  8  1  0
  7  9  2  0
  8 11  2  0
  9 11  1  0
 10  7  1  0
 10  6  2  0
 11 20  1  0
 12 20  1  0
 13 18  1  0
 14 15  1  0
 14 13  1  0
 16 15  1  0
 16 25  1  0
 16 17  1  0
 18 12  1  0
 18 17  1  0
 19 12  2  0
 20 21  1  0
 22 23  2  0
 23 42  1  0
 24 23  1  0
 24 27  1  0
 25 22  1  0
 25 26  1  0
 26 24  2  0
 27 28  1  0
 28 29  2  0
 30 33  1  0
 30 29  1  0
 31 30  2  0
 32 31  1  0
 32 27  2  0
 33 34  1  0
 34 35  1  0
 35 36  2  0
 37 36  1  0
 37 41  1  0
 38 37  2  0
 39 34  2  0
 39 38  1  0
 40 39  1  0
 42 43  1  0
 43 46  1  0
 43 45  1  0
 44 42  2  0
 47 48  1  0
 47 22  1  0
 49 47  1  0
 50 52  1  0
 51 55  1  0
 51 52  1  0
 52 54  1  0
 53 51  2  0
 55 56  1  0
 56 58  1  0
 57 68  2  0
 58 63  1  0
 59 67  1  0
 59 69  1  0
 60 66  1  0
 60 62  1  0
 61 67  1  0
 62 61  1  0
 63 62  2  0
 64 65  1  0
 64 58  2  0
 65 60  2  0
 66 59  1  0
 67 57  1  0
 69 71  2  0
 70 69  1  0
 72 70  1  0
 73 82  2  0
 73 78  1  0
 74 70  1  0
 74 78  1  0
 75 74  1  0
 76 77  1  0
 76 75  1  0
 77 73  1  0
 78 79  2  0
 79 80  1  0
 81 80  2  0
 82 81  1  0
 83 57  1  0
 83 84  1  0
 83 93  1  0
 84 87  1  0
 85 89  1  0
 85 84  1  0
 86 85  2  0
 89 88  1  0
 91 89  1  0
 91 92  1  0
 91 90  1  0
 93 96  1  1
 93 94  1  0
 95 93  1  0
M  ISO  4  12 100  20 100  55 101  56 101
M  END
>  <TORSDO>  (21) 
F 21

>  <SCORE>  (21) 
-13.712

>  <name>  (21) 
20

>  <ligand_id>  (21) 
20

>  <original_smiles>  (21) 
[H]c1c([H])c([H])c2c(c1[H])C([H])([H])C([H])([H])C([H])([H])C2([H])N([H])C(=O)C1([H])N(C(=O)C([H])(N([H])C(=O)C([H])(N([H])C([H])([H])[H])C([H])([H])[H])C(C([H])([H])[H])(C([H])([H])[H])C([H])([H])[H])C([H])([H])c2c([H])c(OC([H])([H])C(=O)N([H])C([H])([H])C([H])([H])N(C(=O)c3c([H])c([H])c(N([H])C(=O)N4C([H])([H])C([H])([H])C([H])([H])C([H])(n5nc(-c6c([H])c([H])c(Oc7c([H])c([H])c(F)c([H])c7F)c([H])c6[H])c(C(=O)N([H])[H])c5N([H])[H])C4([H])[H])c([H])c3[H])C([H])([H])[H])c([H])c([H])c2C1([H])[H]

>  <smiles>  (21) 
[H]c1c([H])c([H])c2c(c1[H])C([H])([H])C([H])([H])C([H])([H])C2([H])N([H])C(=O)C1([H])N(C(=O)C([H])(N([H])C(=O)C([H])(N([H])C([H])([H])[H])C([H])([H])[H])C(C([H])([H])[H])(C([H])([H])[H])C([H])([H])[H])C([H])([H])c2c([H])c(OC([H])([H])C(=O)N([H])C([H])([H])C([H])([H])N(C(=O)c3c([H])c([H])c(N([H])C(=O)N4C([H])([H])C([H])([H])C([H])([H])C([H])(n5nc(-c6c([H])c([H])c(Oc7c([H])c([H])c(F)c([H])c7F)c([H])c6[H])c(C(=O)N([H])[H])c5N([H])[H])C4([H])[H])c([H])c3[H])C([H])([H])[H])c([H])c([H])c2C1([H])[H]

$$$$
21:0:0
     RDKit          3D

100108  0  0  1  0  0  0  0  0999 V2000
  -28.3730  -21.7240   20.4290 C   0  0  0  0  0  0  0  0  0  0  0  0
  -28.4720  -20.4020   19.9520 N   0  0  0  0  0  0  0  0  0  0  0  0
  -29.3460  -22.2650   20.9540 O   0  0  0  0  0  0  0  0  0  0  0  0
  -32.0850  -19.1330   19.7860 C   0  0  0  0  0  3  0  0  0  0  0  0
  -31.9660  -17.8050   20.2310 C   0  0  0  0  0  3  0  0  0  0  0  0
  -30.9610  -19.9750   19.6960 C   0  0  0  0  0  3  0  0  0  0  0  0
  -29.5920  -18.1660   20.5450 C   0  0  0  0  0  3  0  0  0  0  0  0
  -30.7060  -17.2720   20.5950 C   0  0  0  0  0  0  0  0  0  0  0  0
  -29.6710  -19.5380   20.0920 C   0  0  0  0  0  0  0  0  0  0  0  0
  -31.2600  -14.7710   20.6710 C   0  0  0  0  0  0  0  0  0  0  0  0
  -31.0220  -12.5160   19.6840 C   0  0  0  0  0  2  0  0  0  0  0  0
  -30.1460  -12.6380   18.4190 C   0  0  0  0  0  2  0  0  0  0  0  0
  -28.6550  -12.5100   18.7840 C   0  0  0  0  0  2  0  0  0  0  0  0
  -28.2520  -13.4190   19.9760 C   0  0  0  0  0  3  0  0  0  0  0  0
  -29.2540  -13.3000   21.1460 C   0  0  0  0  0  2  0  0  0  0  0  0
  -30.5980  -13.5760   20.6180 N   0  0  0  0  0  0  0  0  0  0  0  0
  -32.4420  -14.8530   20.3290 O   0  0  0  0  0  0  0  0  0  0  0  0
  -30.5070  -15.8730   20.9600 N   0  0  0  0  0  0  0  0  0  0  0  0
  -29.5930  -15.6500   21.3210 H   0  0  0  0  0  0  0  0  0  0  0  0
  -25.8430  -14.0590   20.5990 C   0  0  0  0  0  0  0  0  0  0  0  0
  -24.7500  -13.3040   20.9290 C   0  0  0  0  0  0  0  0  0  0  0  0
  -25.1910  -11.9450   20.9150 C   0  0  0  0  0  0  0  0  0  0  0  0
  -26.8810  -13.1610   20.4070 N   0  0  0  0  0  0  0  0  0  0  0  0
  -26.4910  -11.8850   20.6570 N   0  0  0  0  0  0  0  0  0  0  0  0
  -24.4370  -10.6960   21.0780 C   0  0  0  0  0  0  0  0  0  0  0  0
  -24.7930   -9.7390   22.0550 C   0  0  0  0  0  3  0  0  0  0  0  0
  -24.0410   -8.5530   22.2030 C   0  0  0  0  0  3  0  0  0  0  0  0
  -22.9200   -8.3150   21.3740 C   0  0  0  0  0  0  0  0  0  0  0  0
  -22.5830   -9.2600   20.3880 C   0  0  0  0  0  3  0  0  0  0  0  0
  -23.3360  -10.4380   20.2380 C   0  0  0  0  0  3  0  0  0  0  0  0
  -22.1480   -7.1800   21.4280 O   0  0  0  0  0  0  0  0  0  0  0  0
  -21.9540   -6.4960   22.6020 C   0  0  0  0  0  0  0  0  0  0  0  0
  -21.4060   -7.1180   23.7450 C   0  0  0  0  0  3  0  0  0  0  0  0
  -21.1610   -6.3620   24.9090 C   0  0  0  0  0  3  0  0  0  0  0  0
  -21.4540   -4.9860   24.9280 C   0  0  0  0  0  0  0  0  0  0  0  0
  -21.9940   -4.3640   23.7890 C   0  0  0  0  0  3  0  0  0  0  0  0
  -22.2410   -5.1180   22.6290 C   0  0  0  0  0  0  0  0  0  0  0  0
  -22.7420   -4.5090   21.5260 F   0  0  0  0  0  0  0  0  0  0  0  0
  -21.2110   -4.2560   26.0420 F   0  0  0  0  0  0  0  0  0  0  0  0
  -23.3510  -13.8050   21.1470 C   0  0  0  0  0  0  0  0  0  0  0  0
  -22.5880  -13.1320   22.0020 N   0  0  0  0  0  0  0  0  0  0  0  0
  -22.9440  -14.8260   20.5960 O   0  0  0  0  0  0  0  0  0  0  0  0
  -22.9300  -12.3050   22.4680 H   0  0  0  0  0  0  0  0  0  0  0  0
  -21.6480  -13.4490   22.1920 H   0  0  0  0  0  0  0  0  0  0  0  0
  -26.0390  -15.4250   20.4230 N   0  0  0  0  0  0  0  0  0  0  0  0
  -25.2740  -16.0860   20.4870 H   0  0  0  0  0  0  0  0  0  0  0  0
  -26.8990  -15.8420   20.0950 H   0  0  0  0  0  0  0  0  0  0  0  0
  -26.5910  -22.5220   21.9890 C   0  0  0  0  0  1  0  0  0  0  0  0
  -25.8890  -22.1880   19.5640 C   0  0  0  0  0  1  0  0  0  0  0  0
  -27.0490  -22.6430   20.5070 C   0  0  2  0  0  0  0  0  0  0  0  0
  -27.1650  -24.2270   20.1450 C   0  0  0  0  0  3  0  0  0  0  0  0
  -26.0170  -24.9290   20.7890 N   0  0  0  0  0  4  0  0  0  0  0  0
  -26.0980  -24.9270   21.7930 H   0  0  0  0  0  0  0  0  0  0  0  0
  -25.1470  -24.4860   20.5390 H   0  0  0  0  0  0  0  0  0  0  0  0
  -25.9830  -25.8880   20.4760 H   0  0  0  0  0  0  0  0  0  0  0  0
  -28.4340  -25.1360   20.4110 C   0  0  0  0  0  2  0  0  0  0  0  0
  -28.4720  -26.5640   20.0080 O   0  0  0  0  0  0  0  0  0  0  0  0
  -24.7150  -31.7000   23.3330 C   0  0  0  0  0  0  0  0  0  0  0  0
  -27.3540  -27.3900   20.0190 C   0  0  0  0  0  0  0  0  0  0  0  0
  -23.5370  -30.4450   21.5590 C   0  0  0  0  0  3  0  0  0  0  0  0
  -25.0070  -28.9930   20.0570 C   0  0  0  0  0  0  0  0  0  0  0  0
  -26.0780  -30.7520   21.4670 C   0  0  0  0  0  2  0  0  0  0  0  0
  -26.1560  -29.4240   20.7330 C   0  0  0  0  0  0  0  0  0  0  0  0
  -27.3320  -28.6280   20.7170 C   0  0  0  0  0  3  0  0  0  0  0  0
  -26.2140  -27.0380   19.2660 C   0  0  0  0  0  3  0  0  0  0  0  0
  -25.0350  -27.8020   19.3150 C   0  0  0  0  0  3  0  0  0  0  0  0
  -23.7780  -29.8720   20.1370 C   0  0  0  0  0  2  0  0  0  0  0  0
  -24.7940  -30.9780   22.1780 N   0  0  0  0  0  0  0  0  0  0  0  0
  -23.6230  -31.9520   23.8610 O   0  0  0  0  0  0  0  0  0  0  0  0
  -22.8430  -29.3660   22.4220 C   0  0  0  0  0  0  0  0  0  0  0  0
  -21.5150  -29.2330   22.2650 N   0  0  0  0  0  0  0  0  0  0  0  0
  -23.4980  -28.6550   23.1880 O   0  0  0  0  0  0  0  0  0  0  0  0
  -21.0500  -29.8530   21.6160 H   0  0  0  0  0  0  0  0  0  0  0  0
  -18.0970  -28.1340   22.6760 C   0  0  0  0  0  0  0  0  0  0  0  0
  -20.6650  -28.2580   22.9470 C   0  0  0  0  0  3  0  0  0  0  0  0
  -20.7030  -26.8850   22.2340 C   0  0  0  0  0  2  0  0  0  0  0  0
  -19.5850  -26.7130   21.2030 C   0  0  0  0  0  2  0  0  0  0  0  0
  -18.2130  -26.8500   21.8720 C   0  0  0  0  0  2  0  0  0  0  0  0
  -19.2480  -28.8030   23.1660 C   0  0  0  0  0  0  0  0  0  0  0  0
  -19.0860  -30.0100   23.8800 C   0  0  0  0  0  3  0  0  0  0  0  0
  -17.8050  -30.5460   24.1070 C   0  0  0  0  0  3  0  0  0  0  0  0
  -16.6670  -29.8710   23.6320 C   0  0  0  0  0  3  0  0  0  0  0  0
  -16.8140  -28.6670   22.9210 C   0  0  0  0  0  3  0  0  0  0  0  0
  -25.9910  -32.2630   24.0320 C   0  0  0  0  0  3  0  0  0  0  0  0
  -26.4340  -31.4200   25.2910 C   0  0  1  0  0  0  0  0  0  0  0  0
  -25.2910  -31.1680   26.3030 C   0  0  0  0  0  1  0  0  0  0  0  0
  -26.9950  -30.0450   24.8620 C   0  0  0  0  0  1  0  0  0  0  0  0
  -27.5760  -32.1510   26.0340 C   0  0  0  0  0  1  0  0  0  0  0  0
  -25.7120  -33.6550   24.4110 N   0  0  0  0  0  0  0  0  0  0  0  0
  -26.0930  -34.7270   23.7030 C   0  0  0  0  0  0  0  0  0  0  0  0
  -26.7900  -34.6460   22.6870 O   0  0  0  0  0  0  0  0  0  0  0  0
  -25.0960  -33.7930   25.1980 H   0  0  0  0  0  0  0  0  0  0  0  0
  -24.4180  -36.5750   23.3810 C   0  0  0  0  0  1  0  0  0  0  0  0
  -25.6300  -36.1090   24.2020 C   0  0  0  0  0  3  0  0  0  0  0  0
  -27.7680  -36.9080   25.1090 C   0  0  0  0  0  1  0  0  0  0  0  0
  -26.6910  -37.1390   24.1490 N   0  0  0  0  0  0  0  0  0  0  0  0
  -26.3040  -38.0620   24.3250 H   0  0  0  0  0  0  0  0  0  0  0  0
  -27.4020  -19.7270   19.1800 C   0  0  0  0  0  2  0  0  0  0  0  0
  -25.5650  -17.9590   19.1000 C   0  0  0  0  0  1  0  0  0  0  0  0
  -26.5420  -18.7280   19.9960 C   0  0  0  0  0  2  0  0  0  0  0  0
  1 50  1  0
  1  3  2  0
  2  9  1  0
  2  1  1  0
  4  5  1  0
  5  8  2  0
  6  4  2  0
  6  9  1  0
  7  8  1  0
  8 18  1  0
  9  7  2  0
 10 18  1  0
 11 16  1  0
 12 13  1  0
 12 11  1  0
 14 13  1  0
 14 23  1  0
 14 15  1  0
 16 10  1  0
 16 15  1  0
 17 10  2  0
 18 19  1  0
 20 21  2  0
 21 40  1  0
 22 21  1  0
 22 25  1  0
 23 20  1  0
 23 24  1  0
 24 22  2  0
 25 26  1  0
 26 27  2  0
 28 31  1  0
 28 27  1  0
 29 28  2  0
 30 29  1  0
 30 25  2  0
 31 32  1  0
 32 37  2  0
 32 33  1  0
 33 34  2  0
 34 35  1  0
 35 39  1  0
 36 35  2  0
 37 36  1  0
 38 37  1  0
 40 41  1  0
 41 44  1  0
 41 43  1  0
 42 40  2  0
 45 46  1  0
 45 20  1  0
 47 45  1  0
 50 49  1  6
 50 48  1  0
 51 56  1  0
 51 50  1  0
 51 52  1  0
 52 53  1  0
 54 52  1  0
 55 52  1  0
 57 59  1  0
 57 56  1  0
 58 69  2  0
 59 64  1  0
 60 68  1  0
 60 70  1  0
 61 67  1  0
 61 63  1  0
 62 68  1  0
 63 62  1  0
 64 63  2  0
 65 66  1  0
 65 59  2  0
 66 61  2  0
 67 60  1  0
 68 58  1  0
 70 72  2  0
 71 70  1  0
 73 71  1  0
 74 83  2  0
 74 79  1  0
 75 71  1  0
 75 79  1  0
 76 75  1  0
 77 78  1  0
 77 76  1  0
 78 74  1  0
 79 80  2  0
 80 81  1  0
 82 81  2  0
 83 82  1  0
 84 58  1  0
 84 89  1  0
 84 85  1  0
 85 88  1  1
 85 86  1  0
 87 85  1  0
 89 92  1  0
 90 94  1  0
 90 89  1  0
 91 90  2  0
 94 93  1  0
 96 94  1  0
 96 97  1  0
 96 95  1  0
 98  2  1  0
 98100  1  0
 99100  1  0
M  ISO  4  10 100  18 100  56 101  57 101
M  END
>  <TORSDO>  (22) 
F 23

>  <SCORE>  (22) 
-10.670

>  <name>  (22) 
21

>  <ligand_id>  (22) 
21

>  <original_smiles>  (22) 
[H]c1c([H])c(N([H])C(=O)N2C([H])([H])C([H])([H])C([H])([H])C([H])(n3nc(-c4c([H])c([H])c(Oc5c([H])c([H])c(F)c([H])c5F)c([H])c4[H])c(C(=O)N([H])[H])c3N([H])[H])C2([H])[H])c([H])c(N(C(=O)C(C([H])([H])[H])(C([H])([H])[H])C([H])(C([H])([H])Oc2c([H])c([H])c3c(c2[H])C([H])([H])N(C(=O)C([H])(N([H])C(=O)C([H])(N([H])C([H])([H])[H])C([H])([H])[H])C(C([H])([H])[H])(C([H])([H])[H])C([H])([H])[H])C([H])(C(=O)N([H])C2([H])c4c([H])c([H])c([H])c([H])c4C([H])([H])C([H])([H])C2([H])[H])C3([H])[H])[N+]([H])([H])[H])C([H])([H])C([H])([H])C([H])([H])[H])c1[H]

>  <smiles>  (22) 
[H]c1c([H])c(N([H])C(=O)N2C([H])([H])C([H])([H])C([H])([H])C([H])(n3nc(-c4c([H])c([H])c(Oc5c([H])c([H])c(F)c([H])c5F)c([H])c4[H])c(C(=O)N([H])[H])c3N([H])[H])C2([H])[H])c([H])c(N(C(=O)C(C([H])([H])[H])(C([H])([H])[H])C([H])(C([H])([H])Oc2c([H])c([H])c3c(c2[H])C([H])([H])N(C(=O)C([H])(N([H])C(=O)C([H])(N([H])C([H])([H])[H])C([H])([H])[H])C(C([H])([H])[H])(C([H])([H])[H])C([H])([H])[H])C([H])(C(=O)N([H])C2([H])c4c([H])c([H])c([H])c([H])c4C([H])([H])C([H])([H])C2([H])[H])C3([H])[H])[N+]([H])([H])[H])C([H])([H])C([H])([H])C([H])([H])[H])c1[H]

$$$$
22:0:0
     RDKit          3D

103111  0  0  1  0  0  0  0  0999 V2000
  -31.5100  -19.3800   21.0090 C   0  0  0  0  0  0  0  0  0  0  0  0
  -30.8330  -20.5170   21.1960 N   0  0  0  0  0  0  0  0  0  0  0  0
  -32.7400  -19.3080   21.0420 O   0  0  0  0  0  0  0  0  0  0  0  0
  -29.8230  -20.4550   21.1890 H   0  0  0  0  0  0  0  0  0  0  0  0
  -29.4130  -18.2440   20.1590 C   0  0  0  0  0  3  0  0  0  0  0  0
  -31.1350  -16.9030   21.2440 C   0  0  0  0  0  3  0  0  0  0  0  0
  -29.0780  -15.8590   20.4430 C   0  0  0  0  0  3  0  0  0  0  0  0
  -30.6640  -18.1590   20.8110 C   0  0  0  0  0  0  0  0  0  0  0  0
  -28.5990  -17.1020   19.9700 C   0  0  0  0  0  0  0  0  0  0  0  0
  -30.3450  -15.7540   21.0550 C   0  0  0  0  0  0  0  0  0  0  0  0
  -31.1920  -13.5080   20.6710 C   0  0  0  0  0  0  0  0  0  0  0  0
  -30.9970  -11.0720   20.2910 C   0  0  0  0  0  2  0  0  0  0  0  0
  -30.1710  -10.7490   19.0330 C   0  0  0  0  0  2  0  0  0  0  0  0
  -28.6660  -10.7130   19.3580 C   0  0  0  0  0  2  0  0  0  0  0  0
  -28.2020  -11.9800   20.1210 C   0  0  0  0  0  3  0  0  0  0  0  0
  -29.1260  -12.2440   21.3290 C   0  0  0  0  0  2  0  0  0  0  0  0
  -30.5250  -12.3430   20.8540 N   0  0  0  0  0  0  0  0  0  0  0  0
  -32.1960  -13.6280   19.9590 O   0  0  0  0  0  0  0  0  0  0  0  0
  -30.7600  -14.4770   21.4860 N   0  0  0  0  0  0  0  0  0  0  0  0
  -30.1720  -14.0930   22.2090 H   0  0  0  0  0  0  0  0  0  0  0  0
  -25.8660  -12.8730   20.7430 C   0  0  0  0  0  0  0  0  0  0  0  0
  -24.6950  -12.2340   21.0550 C   0  0  0  0  0  0  0  0  0  0  0  0
  -24.9870  -10.8370   21.0140 C   0  0  0  0  0  0  0  0  0  0  0  0
  -26.8030  -11.8730   20.5340 N   0  0  0  0  0  0  0  0  0  0  0  0
  -26.2730  -10.6420   20.7520 N   0  0  0  0  0  0  0  0  0  0  0  0
  -24.1070   -9.6690   21.1520 C   0  0  0  0  0  0  0  0  0  0  0  0
  -24.2910   -8.7240   22.1870 C   0  0  0  0  0  3  0  0  0  0  0  0
  -23.4230   -7.6180   22.3080 C   0  0  0  0  0  3  0  0  0  0  0  0
  -22.3560   -7.4490   21.3930 C   0  0  0  0  0  0  0  0  0  0  0  0
  -22.1910   -8.3810   20.3530 C   0  0  0  0  0  3  0  0  0  0  0  0
  -23.0580   -9.4780   20.2300 C   0  0  0  0  0  3  0  0  0  0  0  0
  -21.4770   -6.3930   21.4190 O   0  0  0  0  0  0  0  0  0  0  0  0
  -20.8930   -5.9720   22.5870 C   0  0  0  0  0  0  0  0  0  0  0  0
  -20.2130   -6.8630   23.4440 C   0  0  0  0  0  3  0  0  0  0  0  0
  -19.5660   -6.3760   24.5980 C   0  0  0  0  0  3  0  0  0  0  0  0
  -19.5910   -4.9990   24.8910 C   0  0  0  0  0  0  0  0  0  0  0  0
  -20.2640   -4.1090   24.0350 C   0  0  0  0  0  3  0  0  0  0  0  0
  -20.9100   -4.5940   22.8850 C   0  0  0  0  0  0  0  0  0  0  0  0
  -21.5390   -3.7290   22.0530 F   0  0  0  0  0  0  0  0  0  0  0  0
  -18.9640   -4.5300   25.9950 F   0  0  0  0  0  0  0  0  0  0  0  0
  -23.3550  -12.8740   21.2830 C   0  0  0  0  0  0  0  0  0  0  0  0
  -22.5130  -12.2620   22.1080 N   0  0  0  0  0  0  0  0  0  0  0  0
  -23.0640  -13.9490   20.7630 O   0  0  0  0  0  0  0  0  0  0  0  0
  -22.7570  -11.3910   22.5570 H   0  0  0  0  0  0  0  0  0  0  0  0
  -21.6100  -12.6750   22.2970 H   0  0  0  0  0  0  0  0  0  0  0  0
  -26.2070  -14.2140   20.6000 N   0  0  0  0  0  0  0  0  0  0  0  0
  -25.5360  -14.9630   20.7270 H   0  0  0  0  0  0  0  0  0  0  0  0
  -27.1320  -14.5440   20.3580 H   0  0  0  0  0  0  0  0  0  0  0  0
  -27.4920  -17.9440   17.8870 C   0  0  0  0  0  1  0  0  0  0  0  0
  -26.2720  -18.0800   20.0830 C   0  0  0  0  0  1  0  0  0  0  0  0
  -26.5730  -15.8840   18.9510 C   0  0  0  0  0  1  0  0  0  0  0  0
  -27.2520  -17.2420   19.2370 C   0  0  2  0  0  0  0  0  0  0  0  0
  -31.4340  -21.8340   21.3580 C   0  0  0  0  0  2  0  0  0  0  0  0
  -30.3810  -22.8790   21.7560 C   0  0  0  0  0  2  0  0  0  0  0  0
  -30.6510  -24.2880   21.1850 C   0  0  2  0  0  0  0  0  0  0  0  0
  -31.9540  -24.5460   21.3140 F   0  0  0  0  0  0  0  0  0  0  0  0
  -30.0060  -25.1830   21.9330 F   0  0  0  0  0  0  0  0  0  0  0  0
  -30.2890  -24.4770   19.6890 C   0  0  0  0  0  2  0  0  0  0  0  0
  -27.9530  -24.5070   20.2880 C   0  0  0  0  0  1  0  0  0  0  0  0
  -28.9400  -24.0240   19.3190 N   0  0  0  0  0  0  0  0  0  0  0  0
  -28.6380  -24.5240   17.9700 C   0  0  0  0  0  2  0  0  0  0  0  0
  -27.1400  -24.4570   17.6060 C   0  0  0  0  0  2  0  0  0  0  0  0
  -26.7730  -25.6270   16.8810 O   0  0  0  0  0  0  0  0  0  0  0  0
  -25.7090  -29.0890   23.0020 C   0  0  0  0  0  0  0  0  0  0  0  0
  -26.0050  -26.5090   17.5970 C   0  0  0  0  0  0  0  0  0  0  0  0
  -23.8540  -29.1870   21.3660 C   0  0  0  0  0  3  0  0  0  0  0  0
  -24.3980  -28.3310   19.0250 C   0  0  0  0  0  0  0  0  0  0  0  0
  -26.2710  -28.9020   20.5850 C   0  0  0  0  0  2  0  0  0  0  0  0
  -25.7320  -28.1270   19.4030 C   0  0  0  0  0  0  0  0  0  0  0  0
  -26.5420  -27.2180   18.6910 C   0  0  0  0  0  3  0  0  0  0  0  0
  -24.6640  -26.7200   17.2220 C   0  0  0  0  0  3  0  0  0  0  0  0
  -23.8550  -27.6260   17.9350 C   0  0  0  0  0  3  0  0  0  0  0  0
  -23.6040  -29.3290   19.8390 C   0  0  0  0  0  2  0  0  0  0  0  0
  -25.3070  -29.0340   21.7010 N   0  0  0  0  0  0  0  0  0  0  0  0
  -24.9000  -29.3080   23.9140 O   0  0  0  0  0  0  0  0  0  0  0  0
  -22.9760  -28.0340   21.9020 C   0  0  0  0  0  0  0  0  0  0  0  0
  -21.6480  -28.1990   21.8010 N   0  0  0  0  0  0  0  0  0  0  0  0
  -23.4890  -27.0130   22.3690 O   0  0  0  0  0  0  0  0  0  0  0  0
  -21.3060  -29.0670   21.4140 H   0  0  0  0  0  0  0  0  0  0  0  0
  -18.0970  -27.5440   21.7900 C   0  0  0  0  0  0  0  0  0  0  0  0
  -20.6290  -27.2300   22.2030 C   0  0  0  0  0  3  0  0  0  0  0  0
  -20.5440  -26.0590   21.1970 C   0  0  0  0  0  2  0  0  0  0  0  0
  -19.4940  -26.2780   20.1030 C   0  0  0  0  0  2  0  0  0  0  0  0
  -18.1060  -26.4640   20.7210 C   0  0  0  0  0  2  0  0  0  0  0  0
  -19.2840  -27.9140   22.4750 C   0  0  0  0  0  0  0  0  0  0  0  0
  -19.2260  -28.9470   23.4360 C   0  0  0  0  0  3  0  0  0  0  0  0
  -18.0120  -29.6000   23.7190 C   0  0  0  0  0  3  0  0  0  0  0  0
  -16.8370  -29.2190   23.0490 C   0  0  0  0  0  3  0  0  0  0  0  0
  -16.8800  -28.1910   22.0910 C   0  0  0  0  0  3  0  0  0  0  0  0
  -27.2060  -28.9010   23.4040 C   0  0  0  0  0  3  0  0  0  0  0  0
  -27.5380  -27.4450   23.9130 C   0  0  1  0  0  0  0  0  0  0  0  0
  -26.6040  -26.9570   25.0450 C   0  0  0  0  0  1  0  0  0  0  0  0
  -27.4500  -26.4270   22.7520 C   0  0  0  0  0  1  0  0  0  0  0  0
  -28.9920  -27.3940   24.4390 C   0  0  0  0  0  1  0  0  0  0  0  0
  -27.5120  -29.8970   24.4390 N   0  0  0  0  0  0  0  0  0  0  0  0
  -28.2410  -31.0030   24.2380 C   0  0  0  0  0  0  0  0  0  0  0  0
  -28.7910  -31.2570   23.1620 O   0  0  0  0  0  0  0  0  0  0  0  0
  -27.0460  -29.7840   25.3280 H   0  0  0  0  0  0  0  0  0  0  0  0
  -27.4340  -33.1780   25.2080 C   0  0  0  0  0  1  0  0  0  0  0  0
  -28.3800  -31.9850   25.4170 C   0  0  0  0  0  3  0  0  0  0  0  0
  -30.6780  -31.4380   26.0840 C   0  0  0  0  0  1  0  0  0  0  0  0
  -29.7620  -32.4740   25.6140 N   0  0  0  0  0  0  0  0  0  0  0  0
  -29.7810  -33.2390   26.2830 H   0  0  0  0  0  0  0  0  0  0  0  0
  1  3  2  0
  1  2  1  0
  2 53  1  0
  4  2  1  0
  5  8  1  0
  7 10  2  0
  8  1  1  0
  8  6  2  0
  9  5  2  0
  9  7  1  0
 10  6  1  0
 10 19  1  0
 11 17  1  0
 11 19  1  0
 12 17  1  0
 13 14  1  0
 13 12  1  0
 15 14  1  0
 15 24  1  0
 15 16  1  0
 17 16  1  0
 18 11  2  0
 19 20  1  0
 21 22  2  0
 22 41  1  0
 23 22  1  0
 23 26  1  0
 24 21  1  0
 24 25  1  0
 25 23  2  0
 26 27  1  0
 27 28  2  0
 29 32  1  0
 29 28  1  0
 30 29  2  0
 31 30  1  0
 31 26  2  0
 32 33  1  0
 33 38  2  0
 33 34  1  0
 34 35  2  0
 35 36  1  0
 36 40  1  0
 37 36  2  0
 38 37  1  0
 39 38  1  0
 41 42  1  0
 42 45  1  0
 42 44  1  0
 43 41  2  0
 46 47  1  0
 46 21  1  0
 48 46  1  0
 52 49  1  6
 51 52  1  0
 52  9  1  0
 52 50  1  0
 53 54  1  0
 55 56  1  6
 55 54  1  0
 55 57  1  0
 58 55  1  0
 60 58  1  0
 60 59  1  0
 61 60  1  0
 62 61  1  0
 63 65  1  0
 63 62  1  0
 64 75  2  0
 65 70  1  0
 66 74  1  0
 66 76  1  0
 67 69  1  0
 67 73  1  0
 68 74  1  0
 69 68  1  0
 70 69  2  0
 71 65  2  0
 71 72  1  0
 72 67  2  0
 73 66  1  0
 74 64  1  0
 76 78  2  0
 77 76  1  0
 79 77  1  0
 80 89  2  0
 80 85  1  0
 81 77  1  0
 81 85  1  0
 82 81  1  0
 83 84  1  0
 83 82  1  0
 84 80  1  0
 85 86  2  0
 86 87  1  0
 88 87  2  0
 89 88  1  0
 90 64  1  0
 90 91  1  0
 90 95  1  0
 91 94  1  1
 91 92  1  0
 93 91  1  0
 95 98  1  0
 96 95  1  0
 96100  1  0
 97 96  2  0
100 99  1  0
100102  1  0
102101  1  0
102103  1  0
M  ISO  4  11 100  19 100  62 101  63 101
M  END
>  <TORSDO>  (23) 
F 25

>  <SCORE>  (23) 
-8.204

>  <name>  (23) 
22

>  <ligand_id>  (23) 
22

>  <original_smiles>  (23) 
[H]c1c([H])c([H])c2c(c1[H])C([H])([H])C([H])([H])C([H])([H])C2([H])N([H])C(=O)C1([H])N(C(=O)C([H])(N([H])C(=O)C([H])(N([H])C([H])([H])[H])C([H])([H])[H])C(C([H])([H])[H])(C([H])([H])[H])C([H])([H])[H])C([H])([H])c2c([H])c(OC([H])([H])C([H])([H])N(C([H])([H])[H])C([H])([H])C(F)(F)C([H])([H])C([H])([H])N([H])C(=O)c3c([H])c(N([H])C(=O)N4C([H])([H])C([H])([H])C([H])([H])C([H])(n5nc(-c6c([H])c([H])c(Oc7c([H])c([H])c(F)c([H])c7F)c([H])c6[H])c(C(=O)N([H])[H])c5N([H])[H])C4([H])[H])c([H])c(C(C([H])([H])[H])(C([H])([H])[H])C([H])([H])[H])c3[H])c([H])c([H])c2C1([H])[H]

>  <smiles>  (23) 
[H]c1c([H])c([H])c2c(c1[H])C([H])([H])C([H])([H])C([H])([H])C2([H])N([H])C(=O)C1([H])N(C(=O)C([H])(N([H])C(=O)C([H])(N([H])C([H])([H])[H])C([H])([H])[H])C(C([H])([H])[H])(C([H])([H])[H])C([H])([H])[H])C([H])([H])c2c([H])c(OC([H])([H])C([H])([H])N(C([H])([H])[H])C([H])([H])C(F)(F)C([H])([H])C([H])([H])N([H])C(=O)c3c([H])c(N([H])C(=O)N4C([H])([H])C([H])([H])C([H])([H])C([H])(n5nc(-c6c([H])c([H])c(Oc7c([H])c([H])c(F)c([H])c7F)c([H])c6[H])c(C(=O)N([H])[H])c5N([H])[H])C4([H])[H])c([H])c(C(C([H])([H])[H])(C([H])([H])[H])C([H])([H])[H])c3[H])c([H])c([H])c2C1([H])[H]

$$$$
23:0:0
     RDKit          3D

 98107  0  0  1  0  0  0  0  0999 V2000
  -31.4610  -18.3270   19.8510 C   0  0  0  0  0  3  0  0  0  0  0  0
  -29.4570  -17.5990   18.7120 C   0  0  0  0  0  3  0  0  0  0  0  0
  -31.2300  -19.6520   19.4000 C   0  0  0  0  0  3  0  0  0  0  0  0
  -29.2190  -18.9250   18.2710 C   0  0  0  0  0  3  0  0  0  0  0  0
  -30.5610  -17.2800   19.5420 C   0  0  0  0  0  0  0  0  0  0  0  0
  -30.0930  -19.9790   18.6210 C   0  0  0  0  0  0  0  0  0  0  0  0
  -31.3830  -14.0930   18.5210 C   0  0  0  0  0  0  0  0  0  0  0  0
  -30.4530  -12.0810   17.4090 C   0  0  0  0  0  2  0  0  0  0  0  0
  -29.1660  -12.4300   16.6400 C   0  0  0  0  0  2  0  0  0  0  0  0
  -27.9410  -12.3360   17.5660 C   0  0  0  0  0  2  0  0  0  0  0  0
  -28.1520  -13.1020   18.8990 C   0  0  0  0  0  3  0  0  0  0  0  0
  -29.5040  -12.7230   19.5400 C   0  0  0  0  0  2  0  0  0  0  0  0
  -30.5660  -12.9970   18.5590 N   0  0  0  0  0  0  0  0  0  0  0  0
  -32.1590  -14.2920   17.5800 O   0  0  0  0  0  0  0  0  0  0  0  0
  -32.0550  -14.8300   21.9570 C   0  0  0  0  0  2  0  0  0  0  0  0
  -32.5880  -14.4710   20.5770 C   0  0  0  0  0  2  0  0  0  0  0  0
  -30.6360  -15.8920   20.2400 C   0  0  0  0  0  3  0  0  0  0  0  0
  -31.2500  -16.0880   21.6590 C   0  0  0  0  0  3  0  0  0  0  0  0
  -31.5060  -14.8220   19.6590 N   0  0  0  0  0  0  0  0  0  0  0  0
  -26.4470  -13.7840   20.6970 C   0  0  0  0  0  0  0  0  0  0  0  0
  -25.4070  -13.1080   21.2750 C   0  0  0  0  0  0  0  0  0  0  0  0
  -25.4190  -11.8010   20.7010 C   0  0  0  0  0  0  0  0  0  0  0  0
  -27.0390  -12.8910   19.8180 N   0  0  0  0  0  0  0  0  0  0  0  0
  -26.4440  -11.6740   19.8690 N   0  0  0  0  0  0  0  0  0  0  0  0
  -24.4780  -10.6830   20.8450 C   0  0  0  0  0  0  0  0  0  0  0  0
  -24.8650   -9.4620   21.4420 C   0  0  0  0  0  3  0  0  0  0  0  0
  -23.9370   -8.4090   21.5880 C   0  0  0  0  0  3  0  0  0  0  0  0
  -22.6050   -8.5700   21.1360 C   0  0  0  0  0  0  0  0  0  0  0  0
  -22.2320   -9.7770   20.5190 C   0  0  0  0  0  3  0  0  0  0  0  0
  -23.1580  -10.8220   20.3710 C   0  0  0  0  0  3  0  0  0  0  0  0
  -21.6420   -7.5920   21.2130 O   0  0  0  0  0  0  0  0  0  0  0  0
  -21.5620   -6.7450   22.2870 C   0  0  0  0  0  0  0  0  0  0  0  0
  -21.3760   -7.2230   23.6030 C   0  0  0  0  0  3  0  0  0  0  0  0
  -21.2330   -6.3120   24.6690 C   0  0  0  0  0  3  0  0  0  0  0  0
  -21.2630   -4.9270   24.4230 C   0  0  0  0  0  0  0  0  0  0  0  0
  -21.4410   -4.4480   23.1130 C   0  0  0  0  0  3  0  0  0  0  0  0
  -21.5890   -5.3560   22.0480 C   0  0  0  0  0  0  0  0  0  0  0  0
  -21.7400   -4.8910   20.7840 F   0  0  0  0  0  0  0  0  0  0  0  0
  -21.1150   -4.0510   25.4440 F   0  0  0  0  0  0  0  0  0  0  0  0
  -24.3950  -13.6710   22.2300 C   0  0  0  0  0  0  0  0  0  0  0  0
  -23.8770  -12.8450   23.1330 N   0  0  0  0  0  0  0  0  0  0  0  0
  -24.0970  -14.8640   22.2140 O   0  0  0  0  0  0  0  0  0  0  0  0
  -24.1320  -11.8680   23.1550 H   0  0  0  0  0  0  0  0  0  0  0  0
  -23.2160  -13.1950   23.8120 H   0  0  0  0  0  0  0  0  0  0  0  0
  -26.9250  -15.0850   20.8210 N   0  0  0  0  0  0  0  0  0  0  0  0
  -26.4090  -15.7830   21.3450 H   0  0  0  0  0  0  0  0  0  0  0  0
  -27.5760  -15.4900   20.1630 H   0  0  0  0  0  0  0  0  0  0  0  0
  -30.4420  -18.0000   23.0620 C   0  0  0  0  0  1  0  0  0  0  0  0
  -28.9720  -16.0530   22.7340 C   0  0  0  0  0  1  0  0  0  0  0  0
  -30.3670  -16.5480   22.7720 N   0  0  1  0  0  4  0  0  0  0  0  0
  -30.7760  -16.1180   23.5900 H   0  0  0  0  0  0  0  0  0  0  0  0
  -29.8760  -21.4080   18.0740 C   0  0  0  0  0  2  0  0  0  0  0  0
  -28.9350  -23.6780   18.5990 C   0  0  0  0  0  0  0  0  0  0  0  0
  -29.1550  -22.3790   18.9260 N   0  0  0  0  0  0  0  0  0  0  0  0
  -29.2840  -24.1340   17.5050 O   0  0  0  0  0  0  0  0  0  0  0  0
  -28.8220  -22.0520   19.8220 H   0  0  0  0  0  0  0  0  0  0  0  0
  -28.2240  -24.6090   19.6210 C   0  0  0  0  0  2  0  0  0  0  0  0
  -28.4360  -26.0290   19.3660 O   0  0  0  0  0  0  0  0  0  0  0  0
  -24.9650  -31.2900   22.7570 C   0  0  0  0  0  0  0  0  0  0  0  0
  -27.3190  -26.8440   19.4280 C   0  0  0  0  0  0  0  0  0  0  0  0
  -23.6530  -30.0030   21.1030 C   0  0  0  0  0  3  0  0  0  0  0  0
  -24.9970  -28.4660   19.5720 C   0  0  0  0  0  0  0  0  0  0  0  0
  -26.1870  -30.2690   20.8310 C   0  0  0  0  0  2  0  0  0  0  0  0
  -26.1980  -28.9180   20.1330 C   0  0  0  0  0  0  0  0  0  0  0  0
  -27.3660  -28.1190   20.0500 C   0  0  0  0  0  3  0  0  0  0  0  0
  -26.1020  -26.4180   18.8550 C   0  0  0  0  0  3  0  0  0  0  0  0
  -24.9460  -27.2180   18.9270 C   0  0  0  0  0  3  0  0  0  0  0  0
  -23.7930  -29.3730   19.6920 C   0  0  0  0  0  2  0  0  0  0  0  0
  -24.9570  -30.5320   21.6220 N   0  0  0  0  0  0  0  0  0  0  0  0
  -23.9130  -31.5790   23.3430 O   0  0  0  0  0  0  0  0  0  0  0  0
  -22.9910  -28.9710   22.0470 C   0  0  0  0  0  0  0  0  0  0  0  0
  -21.6540  -28.8570   21.9700 N   0  0  0  0  0  0  0  0  0  0  0  0
  -23.6740  -28.2760   22.8030 O   0  0  0  0  0  0  0  0  0  0  0  0
  -21.1630  -29.4670   21.3300 H   0  0  0  0  0  0  0  0  0  0  0  0
  -18.2450  -27.8500   22.6250 C   0  0  0  0  0  0  0  0  0  0  0  0
  -20.8270  -27.9180   22.7300 C   0  0  0  0  0  3  0  0  0  0  0  0
  -20.7910  -26.5280   22.0540 C   0  0  0  0  0  2  0  0  0  0  0  0
  -19.6060  -26.3500   21.1000 C   0  0  0  0  0  2  0  0  0  0  0  0
  -18.2810  -26.5440   21.8470 C   0  0  0  0  0  2  0  0  0  0  0  0
  -19.4410  -28.5020   23.0250 C   0  0  0  0  0  0  0  0  0  0  0  0
  -19.3530  -29.7300   23.7180 C   0  0  0  0  0  3  0  0  0  0  0  0
  -18.1010  -30.3030   24.0130 C   0  0  0  0  0  3  0  0  0  0  0  0
  -16.9190  -29.6450   23.6290 C   0  0  0  0  0  3  0  0  0  0  0  0
  -16.9930  -28.4200   22.9400 C   0  0  0  0  0  3  0  0  0  0  0  0
  -26.2950  -31.8480   23.3560 C   0  0  0  0  0  3  0  0  0  0  0  0
  -26.9190  -30.9110   24.4650 C   0  0  1  0  0  0  0  0  0  0  0  0
  -25.9070  -30.4700   25.5480 C   0  0  0  0  0  1  0  0  0  0  0  0
  -27.5160  -29.6350   23.8280 C   0  0  0  0  0  1  0  0  0  0  0  0
  -28.0850  -31.6400   25.1730 C   0  0  0  0  0  1  0  0  0  0  0  0
  -26.0080  -33.1800   23.9040 N   0  0  0  0  0  0  0  0  0  0  0  0
  -26.2600  -34.3340   23.2720 C   0  0  0  0  0  0  0  0  0  0  0  0
  -26.8320  -34.3870   22.1810 O   0  0  0  0  0  0  0  0  0  0  0  0
  -25.4940  -33.2110   24.7720 H   0  0  0  0  0  0  0  0  0  0  0  0
  -24.4810  -36.1100   23.3470 C   0  0  0  0  0  1  0  0  0  0  0  0
  -25.8070  -35.6350   23.9610 C   0  0  0  0  0  3  0  0  0  0  0  0
  -28.0090  -36.4580   24.6710 C   0  0  0  0  0  1  0  0  0  0  0  0
  -26.8080  -36.7210   23.8840 N   0  0  0  0  0  0  0  0  0  0  0  0
  -26.4100  -37.6020   24.2020 H   0  0  0  0  0  0  0  0  0  0  0  0
  2  5  2  0
  3  1  2  0
  4  6  2  0
  4  2  1  0
  5  1  1  0
  6  3  1  0
  7 13  1  0
  7 19  1  0
  8 13  1  0
  9  8  1  0
  9 10  1  0
 11 10  1  0
 11 12  1  0
 11 23  1  0
 13 12  1  0
 14  7  2  0
 16 15  1  0
 17  5  1  0
 17 18  1  0
 18 15  1  0
 18 50  1  0
 19 17  1  0
 19 16  1  0
 20 45  1  0
 20 21  2  0
 21 40  1  0
 22 25  1  0
 22 21  1  0
 23 24  1  0
 23 20  1  0
 24 22  2  0
 25 26  1  0
 26 27  2  0
 28 31  1  0
 28 27  1  0
 29 28  2  0
 30 29  1  0
 30 25  2  0
 31 32  1  0
 32 33  1  0
 33 34  2  0
 35 34  1  0
 35 39  1  0
 36 35  2  0
 37 32  2  0
 37 36  1  0
 38 37  1  0
 40 41  1  0
 41 43  1  0
 41 44  1  0
 42 40  2  0
 45 46  1  0
 47 45  1  0
 49 50  1  0
 50 48  1  0
 50 51  1  1
 52  6  1  0
 52 54  1  0
 53 54  1  0
 53 57  1  0
 54 56  1  0
 55 53  2  0
 58 60  1  0
 58 57  1  0
 59 70  2  0
 60 65  1  0
 61 69  1  0
 61 71  1  0
 62 68  1  0
 62 64  1  0
 63 69  1  0
 64 63  1  0
 65 64  2  0
 66 67  1  0
 66 60  2  0
 67 62  2  0
 68 61  1  0
 69 59  1  0
 71 73  2  0
 72 71  1  0
 74 72  1  0
 75 84  2  0
 75 80  1  0
 76 72  1  0
 76 80  1  0
 77 76  1  0
 78 79  1  0
 78 77  1  0
 79 75  1  0
 80 81  2  0
 81 82  1  0
 83 82  2  0
 84 83  1  0
 85 59  1  0
 85 90  1  0
 85 86  1  0
 86 89  1  1
 86 87  1  0
 88 86  1  0
 90 93  1  0
 91 90  1  0
 91 95  1  0
 92 91  2  0
 95 94  1  0
 97 95  1  0
 97 98  1  0
 97 96  1  0
M  ISO  4   7 100  19 100  57 101  58 101
M  END
>  <TORSDO>  (24) 
F 20

>  <SCORE>  (24) 
-1.238

>  <name>  (24) 
23

>  <ligand_id>  (24) 
23

>  <original_smiles>  (24) 
[H]c1c([H])c([H])c2c(c1[H])C([H])([H])C([H])([H])C([H])([H])C2([H])N([H])C(=O)C1([H])N(C(=O)C([H])(N([H])C(=O)C([H])(N([H])C([H])([H])[H])C([H])([H])[H])C(C([H])([H])[H])(C([H])([H])[H])C([H])([H])[H])C([H])([H])c2c([H])c(OC([H])([H])C(=O)N([H])C([H])([H])c3c([H])c([H])c(C4([H])N(C(=O)N5C([H])([H])C([H])([H])C([H])([H])C([H])(n6nc(-c7c([H])c([H])c(Oc8c([H])c([H])c(F)c([H])c8F)c([H])c7[H])c(C(=O)N([H])[H])c6N([H])[H])C5([H])[H])C([H])([H])C([H])([H])C4([H])[N+]([H])(C([H])([H])[H])C([H])([H])[H])c([H])c3[H])c([H])c([H])c2C1([H])[H]

>  <smiles>  (24) 
[H]c1c([H])c([H])c2c(c1[H])C([H])([H])C([H])([H])C([H])([H])C2([H])N([H])C(=O)C1([H])N(C(=O)C([H])(N([H])C(=O)C([H])(N([H])C([H])([H])[H])C([H])([H])[H])C(C([H])([H])[H])(C([H])([H])[H])C([H])([H])[H])C([H])([H])c2c([H])c(OC([H])([H])C(=O)N([H])C([H])([H])c3c([H])c([H])c(C4([H])N(C(=O)N5C([H])([H])C([H])([H])C([H])([H])C([H])(n6nc(-c7c([H])c([H])c(Oc8c([H])c([H])c(F)c([H])c8F)c([H])c7[H])c(C(=O)N([H])[H])c6N([H])[H])C5([H])[H])C([H])([H])C([H])([H])C4([H])[N+]([H])(C([H])([H])[H])C([H])([H])[H])c([H])c3[H])c([H])c([H])c2C1([H])[H]

$$$$
24:0:0
     RDKit          3D

 93101  0  0  1  0  0  0  0  0999 V2000
  -29.0010  -23.3780   20.2790 C   0  0  0  0  0  3  0  0  0  0  0  0
  -28.8450  -21.8670   19.5830 C   0  0  0  0  0  0  0  0  0  0  0  0
  -28.1900  -18.9770   20.6090 C   0  0  0  0  0  2  0  0  0  0  0  0
  -28.8410  -20.1380   21.3730 C   0  0  0  0  0  2  0  0  0  0  0  0
  -29.2620  -19.1250   19.5230 C   0  0  0  0  0  3  0  0  0  0  0  0
  -29.4320  -20.5880   20.1100 N   0  0  0  0  0  0  0  0  0  0  0  0
  -28.2420  -21.8110   18.5120 O   0  0  0  0  0  0  0  0  0  0  0  0
  -30.8720  -15.2670   19.6990 C   0  0  0  0  0  0  0  0  0  0  0  0
  -30.7600  -12.8270   18.9800 C   0  0  0  0  0  2  0  0  0  0  0  0
  -29.7870  -12.6650   17.7910 C   0  0  0  0  0  2  0  0  0  0  0  0
  -28.3360  -12.4850   18.2770 C   0  0  0  0  0  2  0  0  0  0  0  0
  -27.9650  -13.4670   19.4180 C   0  0  0  0  0  3  0  0  0  0  0  0
  -29.0680  -13.6000   20.4880 C   0  0  0  0  0  2  0  0  0  0  0  0
  -30.2950  -13.9930   19.7850 N   0  0  0  0  0  0  0  0  0  0  0  0
  -32.0690  -15.2850   19.3790 O   0  0  0  0  0  0  0  0  0  0  0  0
  -30.3680  -17.8610   19.6180 C   0  0  0  0  0  0  0  0  0  0  0  0
  -30.0740  -16.4610   19.7700 N   0  0  0  0  0  0  0  0  0  0  0  0
  -31.5430  -18.2230   19.5200 O   0  0  0  0  0  0  0  0  0  0  0  0
  -29.0980  -16.2760   19.9310 H   0  0  0  0  0  0  0  0  0  0  0  0
  -25.6920  -14.0880   20.3800 C   0  0  0  0  0  0  0  0  0  0  0  0
  -24.6300  -13.3410   20.8110 C   0  0  0  0  0  0  0  0  0  0  0  0
  -25.0290  -11.9740   20.6760 C   0  0  0  0  0  0  0  0  0  0  0  0
  -26.6650  -13.1810   20.0070 N   0  0  0  0  0  0  0  0  0  0  0  0
  -26.2850  -11.9000   20.2470 N   0  0  0  0  0  0  0  0  0  0  0  0
  -24.2680  -10.7340   20.8720 C   0  0  0  0  0  0  0  0  0  0  0  0
  -24.6750   -9.7480   21.7980 C   0  0  0  0  0  3  0  0  0  0  0  0
  -23.9120   -8.5730   21.9740 C   0  0  0  0  0  3  0  0  0  0  0  0
  -22.7260   -8.3790   21.2290 C   0  0  0  0  0  0  0  0  0  0  0  0
  -22.3380   -9.3510   20.2910 C   0  0  0  0  0  3  0  0  0  0  0  0
  -23.1030  -10.5150   20.1130 C   0  0  0  0  0  3  0  0  0  0  0  0
  -21.9400   -7.2550   21.3170 O   0  0  0  0  0  0  0  0  0  0  0  0
  -21.7990   -6.5640   22.4940 C   0  0  0  0  0  0  0  0  0  0  0  0
  -21.2760   -7.1730   23.6570 C   0  0  0  0  0  3  0  0  0  0  0  0
  -21.0820   -6.4080   24.8250 C   0  0  0  0  0  3  0  0  0  0  0  0
  -21.4020   -5.0350   24.8310 C   0  0  0  0  0  0  0  0  0  0  0  0
  -21.9160   -4.4280   23.6720 C   0  0  0  0  0  3  0  0  0  0  0  0
  -22.1070   -5.1880   22.5070 C   0  0  0  0  0  0  0  0  0  0  0  0
  -22.5820   -4.5920   21.3850 F   0  0  0  0  0  0  0  0  0  0  0  0
  -21.2060   -4.3000   25.9510 F   0  0  0  0  0  0  0  0  0  0  0  0
  -23.2850  -13.8660   21.2170 C   0  0  0  0  0  0  0  0  0  0  0  0
  -22.5920  -13.1580   22.1050 N   0  0  0  0  0  0  0  0  0  0  0  0
  -22.8570  -14.9330   20.7770 O   0  0  0  0  0  0  0  0  0  0  0  0
  -22.9640  -12.3060   22.4950 H   0  0  0  0  0  0  0  0  0  0  0  0
  -21.6820  -13.4790   22.4040 H   0  0  0  0  0  0  0  0  0  0  0  0
  -25.9150  -15.4510   20.2320 N   0  0  0  0  0  0  0  0  0  0  0  0
  -25.1620  -16.1230   20.3280 H   0  0  0  0  0  0  0  0  0  0  0  0
  -26.7000  -15.8020   19.6990 H   0  0  0  0  0  0  0  0  0  0  0  0
  -30.4300  -23.7290   20.2030 N   0  0  0  0  0  4  0  0  0  0  0  0
  -30.1940  -24.4280   20.8880 H   0  0  0  0  0  0  0  0  0  0  0  0
  -30.5010  -22.7270   20.3000 H   0  0  0  0  0  0  0  0  0  0  0  0
  -31.1810  -23.5950   20.8590 H   0  0  0  0  0  0  0  0  0  0  0  0
  -28.0800  -24.7490   19.8590 C   0  0  0  0  0  2  0  0  0  0  0  0
  -28.3030  -26.2700   20.2150 O   0  0  0  0  0  0  0  0  0  0  0  0
  -24.5850  -31.8990   23.1700 C   0  0  0  0  0  0  0  0  0  0  0  0
  -27.2540  -27.2650   20.1050 C   0  0  0  0  0  0  0  0  0  0  0  0
  -23.4220  -30.5200   21.4900 C   0  0  0  0  0  3  0  0  0  0  0  0
  -24.9110  -29.0000   20.0460 C   0  0  0  0  0  0  0  0  0  0  0  0
  -25.9780  -30.8240   21.3660 C   0  0  0  0  0  2  0  0  0  0  0  0
  -26.0780  -29.4480   20.6790 C   0  0  0  0  0  0  0  0  0  0  0  0
  -27.2510  -28.6000   20.6880 C   0  0  0  0  0  3  0  0  0  0  0  0
  -26.0670  -26.9290   19.4190 C   0  0  0  0  0  3  0  0  0  0  0  0
  -24.9220  -27.7570   19.3970 C   0  0  0  0  0  3  0  0  0  0  0  0
  -23.6700  -29.8760   20.0990 C   0  0  0  0  0  2  0  0  0  0  0  0
  -24.6790  -31.1050   22.0620 N   0  0  0  0  0  0  0  0  0  0  0  0
  -23.4880  -32.1590   23.6890 O   0  0  0  0  0  0  0  0  0  0  0  0
  -22.7480  -29.4830   22.4260 C   0  0  0  0  0  0  0  0  0  0  0  0
  -21.4270  -29.2790   22.2700 N   0  0  0  0  0  0  0  0  0  0  0  0
  -23.4200  -28.8670   23.2550 O   0  0  0  0  0  0  0  0  0  0  0  0
  -20.9440  -29.8250   21.5710 H   0  0  0  0  0  0  0  0  0  0  0  0
  -18.0570  -28.0220   22.7170 C   0  0  0  0  0  0  0  0  0  0  0  0
  -20.6100  -28.3170   23.0160 C   0  0  0  0  0  3  0  0  0  0  0  0
  -20.7390  -26.8970   22.4170 C   0  0  0  0  0  2  0  0  0  0  0  0
  -19.6530  -26.5800   21.3850 C   0  0  0  0  0  2  0  0  0  0  0  0
  -18.2630  -26.6900   22.0160 C   0  0  0  0  0  2  0  0  0  0  0  0
  -19.1600  -28.7930   23.1730 C   0  0  0  0  0  0  0  0  0  0  0  0
  -18.9130  -30.0400   23.7910 C   0  0  0  0  0  3  0  0  0  0  0  0
  -17.5990  -30.5130   23.9560 C   0  0  0  0  0  3  0  0  0  0  0  0
  -16.5120  -29.7400   23.5160 C   0  0  0  0  0  3  0  0  0  0  0  0
  -16.7420  -28.4950   22.9030 C   0  0  0  0  0  3  0  0  0  0  0  0
  -25.8450  -32.5410   23.8230 C   0  0  0  0  0  3  0  0  0  0  0  0
  -26.3400  -31.7680   25.1080 C   0  0  1  0  0  0  0  0  0  0  0  0
  -25.2240  -31.5060   26.1460 C   0  0  0  0  0  1  0  0  0  0  0  0
  -26.9560  -30.4000   24.7330 C   0  0  0  0  0  1  0  0  0  0  0  0
  -27.4620  -32.5780   25.7990 C   0  0  0  0  0  1  0  0  0  0  0  0
  -25.5140  -33.9350   24.1550 N   0  0  0  0  0  0  0  0  0  0  0  0
  -25.8280  -34.9970   23.4030 C   0  0  0  0  0  0  0  0  0  0  0  0
  -26.4920  -34.9080   22.3670 O   0  0  0  0  0  0  0  0  0  0  0  0
  -24.9130  -34.0760   24.9540 H   0  0  0  0  0  0  0  0  0  0  0  0
  -24.0750  -36.7750   23.0760 C   0  0  0  0  0  1  0  0  0  0  0  0
  -25.3290  -36.3780   23.8720 C   0  0  0  0  0  3  0  0  0  0  0  0
  -27.4520  -37.2990   24.6990 C   0  0  0  0  0  1  0  0  0  0  0  0
  -26.3480  -37.4450   23.7530 N   0  0  0  0  0  0  0  0  0  0  0  0
  -25.9300  -38.3620   23.8880 H   0  0  0  0  0  0  0  0  0  0  0  0
  1 52  1  0
  2  6  1  0
  2  1  1  0
  3  4  1  0
  5 16  1  0
  5  6  1  0
  5  3  1  0
  6  4  1  0
  7  2  2  0
  8 17  1  0
  8 14  1  0
  9 14  1  0
 10 11  1  0
 10  9  1  0
 12 11  1  0
 12 23  1  0
 12 13  1  0
 14 13  1  0
 15  8  2  0
 16 17  1  0
 17 19  1  0
 18 16  2  0
 20 21  2  0
 21 40  1  0
 22 21  1  0
 22 25  1  0
 23 24  1  0
 23 20  1  0
 24 22  2  0
 25 26  1  0
 26 27  2  0
 28 31  1  0
 28 27  1  0
 29 28  2  0
 30 29  1  0
 30 25  2  0
 31 32  1  0
 32 37  2  0
 32 33  1  0
 33 34  2  0
 34 35  1  0
 35 39  1  0
 36 35  2  0
 37 36  1  0
 38 37  1  0
 40 41  1  0
 41 44  1  0
 41 43  1  0
 42 40  2  0
 45 46  1  0
 45 20  1  0
 47 45  1  0
 48  1  1  0
 48 50  1  0
 48 51  1  0
 48 49  1  0
 52 53  1  0
 54 65  2  0
 55 53  1  0
 55 60  1  0
 56 64  1  0
 56 66  1  0
 57 63  1  0
 57 59  1  0
 58 64  1  0
 59 60  2  0
 59 58  1  0
 61 55  2  0
 62 61  1  0
 62 57  2  0
 63 56  1  0
 64 54  1  0
 66 68  2  0
 67 66  1  0
 69 67  1  0
 70 79  2  0
 70 75  1  0
 71 67  1  0
 71 75  1  0
 72 71  1  0
 73 74  1  0
 73 72  1  0
 74 70  1  0
 75 76  2  0
 76 77  1  0
 78 77  2  0
 79 78  1  0
 80 54  1  0
 80 85  1  0
 80 81  1  0
 81 84  1  1
 81 82  1  0
 83 81  1  0
 85 88  1  0
 86 90  1  0
 86 85  1  0
 87 86  2  0
 90 89  1  0
 92 90  1  0
 92 93  1  0
 92 91  1  0
M  ISO  4   8 100  17 100  52 101  53 101
M  END
>  <TORSDO>  (25) 
F 19

>  <SCORE>  (25) 
-14.162

>  <name>  (25) 
24

>  <ligand_id>  (25) 
24

>  <original_smiles>  (25) 
[H]c1c([H])c([H])c2c(c1[H])C([H])([H])C([H])([H])C([H])([H])C2([H])N([H])C(=O)C1([H])N(C(=O)C([H])(N([H])C(=O)C([H])(N([H])C([H])([H])[H])C([H])([H])[H])C(C([H])([H])[H])(C([H])([H])[H])C([H])([H])[H])C([H])([H])c2c([H])c(OC([H])([H])C([H])(C(=O)N3C([H])([H])C([H])([H])C3([H])C(=O)N([H])C(=O)N3C([H])([H])C([H])([H])C([H])([H])C([H])(n4nc(-c5c([H])c([H])c(Oc6c([H])c([H])c(F)c([H])c6F)c([H])c5[H])c(C(=O)N([H])[H])c4N([H])[H])C3([H])[H])[N+]([H])([H])[H])c([H])c([H])c2C1([H])[H]

>  <smiles>  (25) 
[H]c1c([H])c([H])c2c(c1[H])C([H])([H])C([H])([H])C([H])([H])C2([H])N([H])C(=O)C1([H])N(C(=O)C([H])(N([H])C(=O)C([H])(N([H])C([H])([H])[H])C([H])([H])[H])C(C([H])([H])[H])(C([H])([H])[H])C([H])([H])[H])C([H])([H])c2c([H])c(OC([H])([H])C([H])(C(=O)N3C([H])([H])C([H])([H])C3([H])C(=O)N([H])C(=O)N3C([H])([H])C([H])([H])C([H])([H])C([H])(n4nc(-c5c([H])c([H])c(Oc6c([H])c([H])c(F)c([H])c6F)c([H])c5[H])c(C(=O)N([H])[H])c4N([H])[H])C3([H])[H])[N+]([H])([H])[H])c([H])c([H])c2C1([H])[H]

$$$$
25:0:0
     RDKit          3D

 93101  0  0  1  0  0  0  0  0999 V2000
  -29.8760  -21.9130   18.1960 C   0  0  0  0  0  1  0  0  0  0  0  0
  -29.9720  -21.5650   19.7050 C   0  0  0  0  0  3  0  0  0  0  0  0
  -29.2450  -17.6830   19.2480 C   0  0  0  0  0  2  0  0  0  0  0  0
  -30.2270  -18.0300   21.4650 C   0  0  0  0  0  2  0  0  0  0  0  0
  -29.5470  -19.1680   18.8810 C   0  0  0  0  0  2  0  0  0  0  0  0
  -30.5170  -19.5290   21.1040 C   0  0  0  0  0  2  0  0  0  0  0  0
  -30.2650  -17.0830   20.2390 C   0  0  0  0  0  3  0  0  0  0  0  0
  -29.6240  -20.1140   20.0470 N   0  0  1  0  0  4  0  0  0  0  0  0
  -28.6960  -20.1800   20.4470 H   0  0  0  0  0  0  0  0  0  0  0  0
  -30.7090  -14.5540   20.1630 C   0  0  0  0  0  0  0  0  0  0  0  0
  -30.3810  -12.3680   19.0560 C   0  0  0  0  0  2  0  0  0  0  0  0
  -29.3930  -12.5660   17.8870 C   0  0  0  0  0  2  0  0  0  0  0  0
  -27.9370  -12.4130   18.3750 C   0  0  0  0  0  2  0  0  0  0  0  0
  -27.6470  -13.2440   19.6540 C   0  0  0  0  0  3  0  0  0  0  0  0
  -28.7510  -13.0480   20.7180 C   0  0  0  0  0  2  0  0  0  0  0  0
  -30.0440  -13.3610   20.0920 N   0  0  0  0  0  0  0  0  0  0  0  0
  -31.8440  -14.6920   19.7060 O   0  0  0  0  0  0  0  0  0  0  0  0
  -29.9770  -15.6410   20.5410 N   0  0  0  0  0  0  0  0  0  0  0  0
  -29.0640  -15.4320   20.9200 H   0  0  0  0  0  0  0  0  0  0  0  0
  -25.2930  -13.8440   20.4930 C   0  0  0  0  0  0  0  0  0  0  0  0
  -24.2360  -13.0690   20.8880 C   0  0  0  0  0  0  0  0  0  0  0  0
  -24.6820  -11.7140   20.7980 C   0  0  0  0  0  0  0  0  0  0  0  0
  -26.3160  -12.9600   20.1880 N   0  0  0  0  0  0  0  0  0  0  0  0
  -25.9570  -11.6740   20.4290 N   0  0  0  0  0  0  0  0  0  0  0  0
  -23.9520  -10.4530   20.9830 C   0  0  0  0  0  0  0  0  0  0  0  0
  -24.3800   -9.4810   21.9150 C   0  0  0  0  0  3  0  0  0  0  0  0
  -23.6530   -8.2840   22.0870 C   0  0  0  0  0  3  0  0  0  0  0  0
  -22.4810   -8.0510   21.3290 C   0  0  0  0  0  0  0  0  0  0  0  0
  -22.0720   -9.0100   20.3870 C   0  0  0  0  0  3  0  0  0  0  0  0
  -22.8000  -10.1990   20.2110 C   0  0  0  0  0  3  0  0  0  0  0  0
  -21.7230   -6.9070   21.4130 O   0  0  0  0  0  0  0  0  0  0  0  0
  -21.6260   -6.1920   22.5800 C   0  0  0  0  0  0  0  0  0  0  0  0
  -21.0950   -6.7590   23.7590 C   0  0  0  0  0  3  0  0  0  0  0  0
  -20.9490   -5.9670   24.9160 C   0  0  0  0  0  3  0  0  0  0  0  0
  -21.3220   -4.6100   24.8930 C   0  0  0  0  0  0  0  0  0  0  0  0
  -21.8460   -4.0430   23.7180 C   0  0  0  0  0  3  0  0  0  0  0  0
  -21.9940   -4.8310   22.5640 C   0  0  0  0  0  0  0  0  0  0  0  0
  -22.4790   -4.2740   21.4280 F   0  0  0  0  0  0  0  0  0  0  0  0
  -21.1740   -3.8470   26.0020 F   0  0  0  0  0  0  0  0  0  0  0  0
  -22.8550  -13.5480   21.2340 C   0  0  0  0  0  0  0  0  0  0  0  0
  -22.1550  -12.8330   22.1070 N   0  0  0  0  0  0  0  0  0  0  0  0
  -22.4060  -14.5940   20.7640 O   0  0  0  0  0  0  0  0  0  0  0  0
  -22.5280  -11.9860   22.5090 H   0  0  0  0  0  0  0  0  0  0  0  0
  -21.2300  -13.1370   22.3760 H   0  0  0  0  0  0  0  0  0  0  0  0
  -25.4650  -15.2170   20.3470 N   0  0  0  0  0  0  0  0  0  0  0  0
  -24.7110  -15.8770   20.5040 H   0  0  0  0  0  0  0  0  0  0  0  0
  -26.2940  -15.6480   19.9600 H   0  0  0  0  0  0  0  0  0  0  0  0
  -29.0510  -22.5710   20.4860 C   0  0  0  0  0  0  0  0  0  0  0  0
  -28.0440  -22.1720   21.0790 O   0  0  0  0  0  0  0  0  0  0  0  0
  -29.9610  -24.4510   21.9200 C   0  0  0  0  0  1  0  0  0  0  0  0
  -29.4090  -24.1040   20.5240 C   0  0  0  0  0  3  0  0  0  0  0  0
  -28.2200  -25.0690   20.1440 C   0  0  0  0  0  2  0  0  0  0  0  0
  -28.4370  -26.5180   20.2560 O   0  0  0  0  0  0  0  0  0  0  0  0
  -24.6250  -31.8520   23.2040 C   0  0  0  0  0  0  0  0  0  0  0  0
  -27.3050  -27.3360   20.1840 C   0  0  0  0  0  0  0  0  0  0  0  0
  -23.4500  -30.4500   21.5460 C   0  0  0  0  0  3  0  0  0  0  0  0
  -24.9270  -28.9110   20.1430 C   0  0  0  0  0  0  0  0  0  0  0  0
  -25.9880  -30.7890   21.3950 C   0  0  0  0  0  2  0  0  0  0  0  0
  -26.0840  -29.4140   20.7520 C   0  0  0  0  0  0  0  0  0  0  0  0
  -27.2780  -28.6380   20.7620 C   0  0  0  0  0  3  0  0  0  0  0  0
  -26.1240  -26.8810   19.5490 C   0  0  0  0  0  3  0  0  0  0  0  0
  -24.9480  -27.6500   19.5320 C   0  0  0  0  0  3  0  0  0  0  0  0
  -23.6840  -29.7750   20.1700 C   0  0  0  0  0  2  0  0  0  0  0  0
  -24.7060  -31.0460   22.1070 N   0  0  0  0  0  0  0  0  0  0  0  0
  -23.5330  -32.1260   23.7220 O   0  0  0  0  0  0  0  0  0  0  0  0
  -22.7780  -29.4290   22.4950 C   0  0  0  0  0  0  0  0  0  0  0  0
  -21.4520  -29.2610   22.3570 N   0  0  0  0  0  0  0  0  0  0  0  0
  -23.4470  -28.7940   23.3140 O   0  0  0  0  0  0  0  0  0  0  0  0
  -20.9730  -29.8270   21.6700 H   0  0  0  0  0  0  0  0  0  0  0  0
  -18.0570  -28.1170   22.8460 C   0  0  0  0  0  0  0  0  0  0  0  0
  -20.6200  -28.3260   23.1150 C   0  0  0  0  0  3  0  0  0  0  0  0
  -20.6950  -26.9020   22.5180 C   0  0  0  0  0  2  0  0  0  0  0  0
  -19.5860  -26.6130   21.5010 C   0  0  0  0  0  2  0  0  0  0  0  0
  -18.2090  -26.7740   22.1510 C   0  0  0  0  0  2  0  0  0  0  0  0
  -19.1890  -28.8520   23.2850 C   0  0  0  0  0  0  0  0  0  0  0  0
  -18.9940  -30.1100   23.8940 C   0  0  0  0  0  3  0  0  0  0  0  0
  -17.7000  -30.6330   24.0710 C   0  0  0  0  0  3  0  0  0  0  0  0
  -16.5810  -29.8930   23.6510 C   0  0  0  0  0  3  0  0  0  0  0  0
  -16.7600  -28.6370   23.0440 C   0  0  0  0  0  3  0  0  0  0  0  0
  -25.8970  -32.4860   23.8480 C   0  0  0  0  0  3  0  0  0  0  0  0
  -26.3940  -31.7140   25.1310 C   0  0  1  0  0  0  0  0  0  0  0  0
  -25.2830  -31.4700   26.1790 C   0  0  0  0  0  1  0  0  0  0  0  0
  -26.9870  -30.3380   24.7450 C   0  0  0  0  0  1  0  0  0  0  0  0
  -27.5310  -32.5100   25.8150 C   0  0  0  0  0  1  0  0  0  0  0  0
  -25.5800  -33.8830   24.1720 N   0  0  0  0  0  0  0  0  0  0  0  0
  -25.9130  -34.9360   23.4140 C   0  0  0  0  0  0  0  0  0  0  0  0
  -26.5900  -34.8330   22.3870 O   0  0  0  0  0  0  0  0  0  0  0  0
  -24.9760  -34.0360   24.9670 H   0  0  0  0  0  0  0  0  0  0  0  0
  -24.1880  -36.7280   23.0350 C   0  0  0  0  0  1  0  0  0  0  0  0
  -25.4160  -36.3230   23.8660 C   0  0  0  0  0  3  0  0  0  0  0  0
  -27.5320  -37.2160   24.7370 C   0  0  0  0  0  1  0  0  0  0  0  0
  -26.4490  -37.3770   23.7700 N   0  0  0  0  0  0  0  0  0  0  0  0
  -26.0380  -38.2970   23.9040 H   0  0  0  0  0  0  0  0  0  0  0  0
  2  1  1  0
  2  8  1  0
  2 48  1  0
  3  7  1  0
  5  3  1  0
  5  8  1  0
  6  4  1  0
  7 18  1  0
  7  4  1  0
  8  9  1  1
  8  6  1  0
 10 18  1  0
 11 16  1  0
 12 13  1  0
 12 11  1  0
 14 13  1  0
 14 23  1  0
 14 15  1  0
 16 10  1  0
 16 15  1  0
 17 10  2  0
 18 19  1  0
 20 21  2  0
 21 40  1  0
 22 21  1  0
 22 25  1  0
 23 24  1  0
 23 20  1  0
 24 22  2  0
 25 26  1  0
 26 27  2  0
 28 31  1  0
 28 27  1  0
 29 28  2  0
 30 29  1  0
 30 25  2  0
 31 32  1  0
 32 33  1  0
 33 34  2  0
 35 34  1  0
 35 39  1  0
 36 35  2  0
 37 32  2  0
 37 36  1  0
 38 37  1  0
 40 41  1  0
 41 44  1  0
 41 43  1  0
 42 40  2  0
 45 20  1  0
 45 46  1  0
 47 45  1  0
 48 51  1  0
 48 49  2  0
 51 50  1  0
 52 53  1  0
 52 51  1  0
 54 65  2  0
 55 53  1  0
 55 60  1  0
 56 64  1  0
 56 66  1  0
 57 63  1  0
 57 59  1  0
 58 64  1  0
 59 60  2  0
 59 58  1  0
 61 55  2  0
 62 61  1  0
 62 57  2  0
 63 56  1  0
 64 54  1  0
 66 68  2  0
 67 66  1  0
 69 67  1  0
 70 79  2  0
 70 75  1  0
 71 67  1  0
 71 75  1  0
 72 71  1  0
 73 74  1  0
 73 72  1  0
 74 70  1  0
 75 76  2  0
 76 77  1  0
 78 77  2  0
 79 78  1  0
 80 54  1  0
 80 85  1  0
 80 81  1  0
 81 84  1  1
 81 82  1  0
 83 81  1  0
 85 88  1  0
 86 90  1  0
 86 85  1  0
 87 86  2  0
 90 89  1  0
 92 90  1  0
 92 93  1  0
 92 91  1  0
M  ISO  4  10 100  18 100  52 101  53 101
M  END
>  <TORSDO>  (26) 
F 20

>  <SCORE>  (26) 
-13.932

>  <name>  (26) 
25

>  <ligand_id>  (26) 
25

>  <original_smiles>  (26) 
[H]c1c([H])c([H])c2c(c1[H])C([H])([H])C([H])([H])C([H])([H])C2([H])N([H])C(=O)C1([H])N(C(=O)C([H])(N([H])C(=O)C([H])(N([H])C([H])([H])[H])C([H])([H])[H])C(C([H])([H])[H])(C([H])([H])[H])C([H])([H])[H])C([H])([H])c2c([H])c(OC([H])([H])C([H])(C(=O)C([H])(C([H])([H])[H])[N+]3([H])C([H])([H])C([H])([H])C([H])(N([H])C(=O)N4C([H])([H])C([H])([H])C([H])([H])C([H])(n5nc(-c6c([H])c([H])c(Oc7c([H])c([H])c(F)c([H])c7F)c([H])c6[H])c(C(=O)N([H])[H])c5N([H])[H])C4([H])[H])C([H])([H])C3([H])[H])C([H])([H])[H])c([H])c([H])c2C1([H])[H]

>  <smiles>  (26) 
[H]c1c([H])c([H])c2c(c1[H])C([H])([H])C([H])([H])C([H])([H])C2([H])N([H])C(=O)C1([H])N(C(=O)C([H])(N([H])C(=O)C([H])(N([H])C([H])([H])[H])C([H])([H])[H])C(C([H])([H])[H])(C([H])([H])[H])C([H])([H])[H])C([H])([H])c2c([H])c(OC([H])([H])C([H])(C(=O)C([H])(C([H])([H])[H])[N+]3([H])C([H])([H])C([H])([H])C([H])(N([H])C(=O)N4C([H])([H])C([H])([H])C([H])([H])C([H])(n5nc(-c6c([H])c([H])c(Oc7c([H])c([H])c(F)c([H])c7F)c([H])c6[H])c(C(=O)N([H])[H])c5N([H])[H])C4([H])[H])C([H])([H])C3([H])[H])C([H])([H])[H])c([H])c([H])c2C1([H])[H]

$$$$
26:0:0
     RDKit          3D

 97105  0  0  1  0  0  0  0  0999 V2000
  -29.4470  -22.5200   20.3340 C   0  0  0  0  0  0  0  0  0  0  0  0
  -27.9400  -20.7610   19.3560 C   0  0  0  0  0  1  0  0  0  0  0  0
  -29.1530  -21.1800   20.0630 N   0  0  0  0  0  0  0  0  0  0  0  0
  -30.4600  -22.7730   20.9860 O   0  0  0  0  0  0  0  0  0  0  0  0
  -31.2360  -20.1220   19.2100 C   0  0  0  0  0  2  0  0  0  0  0  0
  -29.9640  -18.4770   19.7850 C   0  0  0  0  0  3  0  0  0  0  0  0
  -30.1490  -20.0190   20.2800 C   0  0  0  0  0  3  0  0  0  0  0  0
  -31.3410  -18.1530   17.7030 C   0  0  0  0  0  1  0  0  0  0  0  0
  -31.2460  -18.6680   19.0880 N   0  0  1  0  0  4  0  0  0  0  0  0
  -31.9600  -18.2650   19.6830 H   0  0  0  0  0  0  0  0  0  0  0  0
  -30.6290  -14.7360   20.3930 C   0  0  0  0  0  0  0  0  0  0  0  0
  -30.3820  -12.4780   19.3540 C   0  0  0  0  0  2  0  0  0  0  0  0
  -29.4470  -12.5510   18.1300 C   0  0  0  0  0  2  0  0  0  0  0  0
  -27.9720  -12.3920   18.5540 C   0  0  0  0  0  2  0  0  0  0  0  0
  -27.5970  -13.2760   19.7770 C   0  0  0  0  0  3  0  0  0  0  0  0
  -28.6620  -13.2070   20.8920 C   0  0  0  0  0  2  0  0  0  0  0  0
  -29.9500  -13.5460   20.2790 N   0  0  0  0  0  0  0  0  0  0  0  0
  -31.8430  -14.7660   20.1870 O   0  0  0  0  0  0  0  0  0  0  0  0
  -30.3450  -17.1970   20.6680 C   0  0  0  0  0  0  0  0  0  0  0  0
  -29.8960  -15.9130   20.3880 N   0  0  0  0  0  0  0  0  0  0  0  0
  -31.1890  -17.3810   21.5510 O   0  0  0  0  0  0  0  0  0  0  0  0
  -28.9670  -15.8340   20.0160 H   0  0  0  0  0  0  0  0  0  0  0  0
  -25.2090  -13.8610   20.5080 C   0  0  0  0  0  0  0  0  0  0  0  0
  -24.1470  -13.0870   20.8830 C   0  0  0  0  0  0  0  0  0  0  0  0
  -24.6140  -11.7360   20.8570 C   0  0  0  0  0  0  0  0  0  0  0  0
  -26.2560  -12.9840   20.2780 N   0  0  0  0  0  0  0  0  0  0  0  0
  -25.9060  -11.7000   20.5490 N   0  0  0  0  0  0  0  0  0  0  0  0
  -23.8890  -10.4730   21.0500 C   0  0  0  0  0  0  0  0  0  0  0  0
  -24.3290   -9.5040   21.9790 C   0  0  0  0  0  3  0  0  0  0  0  0
  -23.6060   -8.3050   22.1600 C   0  0  0  0  0  3  0  0  0  0  0  0
  -22.4270   -8.0680   21.4130 C   0  0  0  0  0  0  0  0  0  0  0  0
  -22.0060   -9.0270   20.4750 C   0  0  0  0  0  3  0  0  0  0  0  0
  -22.7280  -10.2170   20.2910 C   0  0  0  0  0  3  0  0  0  0  0  0
  -21.6740   -6.9230   21.5050 O   0  0  0  0  0  0  0  0  0  0  0  0
  -21.6450   -6.1700   22.6510 C   0  0  0  0  0  0  0  0  0  0  0  0
  -21.2480   -6.7150   23.8910 C   0  0  0  0  0  3  0  0  0  0  0  0
  -21.1680   -5.8900   25.0310 C   0  0  0  0  0  3  0  0  0  0  0  0
  -21.4720   -4.5190   24.9290 C   0  0  0  0  0  0  0  0  0  0  0  0
  -21.8610   -3.9720   23.6950 C   0  0  0  0  0  3  0  0  0  0  0  0
  -21.9440   -4.7950   22.5580 C   0  0  0  0  0  0  0  0  0  0  0  0
  -22.2980   -4.2590   21.3650 F   0  0  0  0  0  0  0  0  0  0  0  0
  -21.3870   -3.7230   26.0210 F   0  0  0  0  0  0  0  0  0  0  0  0
  -22.7480  -13.5630   21.1470 C   0  0  0  0  0  0  0  0  0  0  0  0
  -22.0150  -12.8720   22.0150 N   0  0  0  0  0  0  0  0  0  0  0  0
  -22.3120  -14.5830   20.6180 O   0  0  0  0  0  0  0  0  0  0  0  0
  -22.3790  -12.0500   22.4720 H   0  0  0  0  0  0  0  0  0  0  0  0
  -21.0730  -13.1720   22.2240 H   0  0  0  0  0  0  0  0  0  0  0  0
  -25.3670  -15.2290   20.3110 N   0  0  0  0  0  0  0  0  0  0  0  0
  -24.5800  -15.8670   20.3570 H   0  0  0  0  0  0  0  0  0  0  0  0
  -26.1890  -15.6500   19.9000 H   0  0  0  0  0  0  0  0  0  0  0  0
  -28.6740  -23.7940   19.7300 C   0  0  0  0  0  3  0  0  0  0  0  0
  -29.4960  -24.2700   18.5990 N   0  0  0  0  0  4  0  0  0  0  0  0
  -30.3890  -24.5860   18.9390 H   0  0  0  0  0  0  0  0  0  0  0  0
  -29.0400  -25.0290   18.1240 H   0  0  0  0  0  0  0  0  0  0  0  0
  -29.6550  -23.5270   17.9410 H   0  0  0  0  0  0  0  0  0  0  0  0
  -28.3680  -25.0720   20.6770 C   0  0  0  0  0  2  0  0  0  0  0  0
  -28.3890  -26.4780   20.1520 O   0  0  0  0  0  0  0  0  0  0  0  0
  -24.6130  -31.8800   23.2420 C   0  0  0  0  0  0  0  0  0  0  0  0
  -27.2430  -27.2970   20.1980 C   0  0  0  0  0  0  0  0  0  0  0  0
  -23.4080  -30.4700   21.6090 C   0  0  0  0  0  3  0  0  0  0  0  0
  -24.8620  -28.8990   20.1950 C   0  0  0  0  0  0  0  0  0  0  0  0
  -25.9460  -30.7890   21.4160 C   0  0  0  0  0  2  0  0  0  0  0  0
  -26.0300  -29.4010   20.7830 C   0  0  0  0  0  0  0  0  0  0  0  0
  -27.2230  -28.6130   20.7690 C   0  0  0  0  0  3  0  0  0  0  0  0
  -26.0500  -26.8460   19.5970 C   0  0  0  0  0  3  0  0  0  0  0  0
  -24.8740  -27.6280   19.5960 C   0  0  0  0  0  3  0  0  0  0  0  0
  -23.6210  -29.7730   20.2390 C   0  0  0  0  0  2  0  0  0  0  0  0
  -24.6750  -31.0660   22.1450 N   0  0  0  0  0  0  0  0  0  0  0  0
  -23.5320  -32.1580   23.7790 O   0  0  0  0  0  0  0  0  0  0  0  0
  -22.7460  -29.4650   22.5800 C   0  0  0  0  0  0  0  0  0  0  0  0
  -21.4210  -29.2820   22.4540 N   0  0  0  0  0  0  0  0  0  0  0  0
  -23.4240  -28.8450   23.4040 O   0  0  0  0  0  0  0  0  0  0  0  0
  -20.9300  -29.8310   21.7630 H   0  0  0  0  0  0  0  0  0  0  0  0
  -18.0500  -28.0690   22.9630 C   0  0  0  0  0  0  0  0  0  0  0  0
  -20.6070  -28.3450   23.2290 C   0  0  0  0  0  3  0  0  0  0  0  0
  -20.7170  -26.9120   22.6620 C   0  0  0  0  0  2  0  0  0  0  0  0
  -19.6160  -26.5770   21.6480 C   0  0  0  0  0  2  0  0  0  0  0  0
  -18.2330  -26.7180   22.2910 C   0  0  0  0  0  2  0  0  0  0  0  0
  -19.1650  -28.8390   23.3890 C   0  0  0  0  0  0  0  0  0  0  0  0
  -18.9400  -30.1030   23.9770 C   0  0  0  0  0  3  0  0  0  0  0  0
  -17.6320  -30.5990   24.1390 C   0  0  0  0  0  3  0  0  0  0  0  0
  -16.5320  -29.8260   23.7290 C   0  0  0  0  0  3  0  0  0  0  0  0
  -16.7410  -28.5620   23.1500 C   0  0  0  0  0  3  0  0  0  0  0  0
  -25.8960  -32.5170   23.8600 C   0  0  0  0  0  3  0  0  0  0  0  0
  -26.4170  -31.7490   25.1370 C   0  0  1  0  0  0  0  0  0  0  0  0
  -25.3270  -31.5150   26.2100 C   0  0  0  0  0  1  0  0  0  0  0  0
  -26.9960  -30.3690   24.7470 C   0  0  0  0  0  1  0  0  0  0  0  0
  -27.5710  -32.5440   25.7900 C   0  0  0  0  0  1  0  0  0  0  0  0
  -25.5840  -33.9150   24.1910 N   0  0  0  0  0  0  0  0  0  0  0  0
  -25.9110  -34.9690   23.4320 C   0  0  0  0  0  0  0  0  0  0  0  0
  -26.5780  -34.8690   22.3980 O   0  0  0  0  0  0  0  0  0  0  0  0
  -24.9930  -34.0670   24.9950 H   0  0  0  0  0  0  0  0  0  0  0  0
  -24.1780  -36.7620   23.0820 C   0  0  0  0  0  1  0  0  0  0  0  0
  -25.4220  -36.3580   23.8910 C   0  0  0  0  0  3  0  0  0  0  0  0
  -27.5600  -37.2450   24.7110 C   0  0  0  0  0  1  0  0  0  0  0  0
  -26.4520  -37.4140   23.7750 N   0  0  0  0  0  0  0  0  0  0  0  0
  -26.0450  -38.3340   23.9260 H   0  0  0  0  0  0  0  0  0  0  0  0
  1  4  2  0
  2  3  1  0
  3  1  1  0
  5  7  1  0
  6  7  1  0
  6 19  1  0
  7  3  1  0
  8  9  1  0
  9  5  1  0
  9 10  1  1
  9  6  1  0
 12 17  1  0
 13 14  1  0
 13 12  1  0
 15 14  1  0
 15 26  1  0
 15 16  1  0
 17 11  1  0
 17 16  1  0
 18 11  2  0
 19 21  2  0
 20 11  1  0
 20 19  1  0
 22 20  1  0
 23 24  2  0
 24 43  1  0
 25 24  1  0
 25 28  1  0
 26 23  1  0
 26 27  1  0
 27 25  2  0
 28 29  1  0
 29 30  2  0
 31 34  1  0
 31 30  1  0
 32 31  2  0
 33 32  1  0
 33 28  2  0
 34 35  1  0
 35 36  1  0
 36 37  2  0
 38 37  1  0
 38 42  1  0
 39 38  2  0
 40 35  2  0
 40 39  1  0
 41 40  1  0
 43 44  1  0
 44 47  1  0
 44 46  1  0
 45 43  2  0
 48 49  1  0
 48 23  1  0
 50 48  1  0
 51  1  1  0
 51 56  1  0
 52 53  1  0
 52 51  1  0
 54 52  1  0
 55 52  1  0
 57 59  1  0
 57 56  1  0
 58 69  2  0
 59 64  1  0
 60 68  1  0
 60 70  1  0
 61 67  1  0
 61 63  1  0
 62 68  1  0
 63 62  1  0
 64 63  2  0
 65 59  2  0
 66 65  1  0
 66 61  2  0
 67 60  1  0
 68 58  1  0
 70 72  2  0
 71 70  1  0
 73 71  1  0
 74 83  2  0
 74 79  1  0
 75 71  1  0
 75 79  1  0
 76 75  1  0
 77 78  1  0
 77 76  1  0
 78 74  1  0
 79 80  2  0
 80 81  1  0
 82 81  2  0
 83 82  1  0
 84 58  1  0
 84 89  1  0
 84 85  1  0
 85 88  1  1
 85 86  1  0
 87 85  1  0
 89 92  1  0
 90 94  1  0
 90 89  1  0
 91 90  2  0
 94 93  1  0
 96 94  1  0
 96 97  1  0
 96 95  1  0
M  ISO  4  11 100  20 100  56 101  57 101
M  END
>  <TORSDO>  (27) 
F 20

>  <SCORE>  (27) 
-14.206

>  <name>  (27) 
26

>  <ligand_id>  (27) 
26

>  <original_smiles>  (27) 
[H]c1c([H])c([H])c2c(c1[H])C([H])([H])C([H])([H])C([H])([H])C2([H])N([H])C(=O)C1([H])N(C(=O)C([H])(N([H])C(=O)C([H])(N([H])C([H])([H])[H])C([H])([H])[H])C(C([H])([H])[H])(C([H])([H])[H])C([H])([H])[H])C([H])([H])c2c([H])c(OC([H])([H])C([H])(C(=O)N(C([H])([H])[H])C3([H])C([H])([H])[N+]([H])(C([H])([H])[H])C3([H])C(=O)N([H])C(=O)N3C([H])([H])C([H])([H])C([H])([H])C([H])(n4nc(-c5c([H])c([H])c(Oc6c([H])c([H])c(F)c([H])c6F)c([H])c5[H])c(C(=O)N([H])[H])c4N([H])[H])C3([H])[H])[N+]([H])([H])[H])c([H])c([H])c2C1([H])[H]

>  <smiles>  (27) 
[H]c1c([H])c([H])c2c(c1[H])C([H])([H])C([H])([H])C([H])([H])C2([H])N([H])C(=O)C1([H])N(C(=O)C([H])(N([H])C(=O)C([H])(N([H])C([H])([H])[H])C([H])([H])[H])C(C([H])([H])[H])(C([H])([H])[H])C([H])([H])[H])C([H])([H])c2c([H])c(OC([H])([H])C([H])(C(=O)N(C([H])([H])[H])C3([H])C([H])([H])[N+]([H])(C([H])([H])[H])C3([H])C(=O)N([H])C(=O)N3C([H])([H])C([H])([H])C([H])([H])C([H])(n4nc(-c5c([H])c([H])c(Oc6c([H])c([H])c(F)c([H])c6F)c([H])c5[H])c(C(=O)N([H])[H])c4N([H])[H])C3([H])[H])[N+]([H])([H])[H])c([H])c([H])c2C1([H])[H]

$$$$
27:0:0
     RDKit          3D

 92100  0  0  1  0  0  0  0  0999 V2000
  -28.5070  -22.5980   19.8190 C   0  0  0  0  0  3  0  0  0  0  0  0
  -31.2980  -20.0340   21.2170 C   0  0  0  0  0  3  0  0  0  0  0  0
  -30.4530  -21.1400   20.9320 C   0  0  0  0  0  3  0  0  0  0  0  0
  -30.9870  -18.6740   20.9510 C   0  0  0  0  0  3  0  0  0  0  0  0
  -29.1850  -21.0270   20.3250 C   0  0  0  0  0  0  0  0  0  0  0  0
  -28.8720  -19.5080   20.1010 C   0  0  0  0  0  0  0  0  0  0  0  0
  -29.7600  -18.2550   20.3970 C   0  0  0  0  0  0  0  0  0  0  0  0
  -27.5130  -19.1770   19.5140 C   0  0  0  0  0  1  0  0  0  0  0  0
  -30.3620  -15.3650   20.2440 C   0  0  0  0  0  0  0  0  0  0  0  0
  -30.3870  -12.9080   19.3550 C   0  0  0  0  0  2  0  0  0  0  0  0
  -29.4570  -12.6380   18.1430 C   0  0  0  0  0  2  0  0  0  0  0  0
  -28.0200  -12.3440   18.6090 C   0  0  0  0  0  2  0  0  0  0  0  0
  -27.5610  -13.3190   19.7200 C   0  0  0  0  0  3  0  0  0  0  0  0
  -28.6150  -13.5040   20.8300 C   0  0  0  0  0  2  0  0  0  0  0  0
  -29.8160  -14.0460   20.1710 N   0  0  0  0  0  0  0  0  0  0  0  0
  -31.5920  -15.3620   20.0720 O   0  0  0  0  0  0  0  0  0  0  0  0
  -29.5620  -16.6360   20.2590 N   0  0  0  0  0  0  0  0  0  0  0  0
  -28.5850  -16.3950   20.1860 H   0  0  0  0  0  0  0  0  0  0  0  0
  -25.1960  -13.8610   20.5000 C   0  0  0  0  0  0  0  0  0  0  0  0
  -24.1440  -13.0770   20.8770 C   0  0  0  0  0  0  0  0  0  0  0  0
  -24.6200  -11.7310   20.8410 C   0  0  0  0  0  0  0  0  0  0  0  0
  -26.2430  -12.9930   20.2450 N   0  0  0  0  0  0  0  0  0  0  0  0
  -25.9090  -11.7050   20.5200 N   0  0  0  0  0  0  0  0  0  0  0  0
  -23.9020  -10.4640   21.0330 C   0  0  0  0  0  0  0  0  0  0  0  0
  -24.3460   -9.4970   21.9630 C   0  0  0  0  0  3  0  0  0  0  0  0
  -23.6260   -8.2950   22.1440 C   0  0  0  0  0  3  0  0  0  0  0  0
  -22.4500   -8.0530   21.3970 C   0  0  0  0  0  0  0  0  0  0  0  0
  -22.0260   -9.0090   20.4560 C   0  0  0  0  0  3  0  0  0  0  0  0
  -22.7450  -10.2000   20.2730 C   0  0  0  0  0  3  0  0  0  0  0  0
  -21.7000   -6.9050   21.4900 O   0  0  0  0  0  0  0  0  0  0  0  0
  -21.6600   -6.1610   22.6420 C   0  0  0  0  0  0  0  0  0  0  0  0
  -21.2340   -6.7120   23.8710 C   0  0  0  0  0  3  0  0  0  0  0  0
  -21.1440   -5.8930   25.0140 C   0  0  0  0  0  3  0  0  0  0  0  0
  -21.4680   -4.5260   24.9320 C   0  0  0  0  0  0  0  0  0  0  0  0
  -21.8880   -3.9760   23.7090 C   0  0  0  0  0  3  0  0  0  0  0  0
  -21.9820   -4.7910   22.5660 C   0  0  0  0  0  0  0  0  0  0  0  0
  -22.3660   -4.2500   21.3840 F   0  0  0  0  0  0  0  0  0  0  0  0
  -21.3740   -3.7400   26.0290 F   0  0  0  0  0  0  0  0  0  0  0  0
  -22.7440  -13.5450   21.1500 C   0  0  0  0  0  0  0  0  0  0  0  0
  -22.0230  -12.8450   22.0160 N   0  0  0  0  0  0  0  0  0  0  0  0
  -22.3000  -14.5680   20.6300 O   0  0  0  0  0  0  0  0  0  0  0  0
  -22.3970  -12.0190   22.4610 H   0  0  0  0  0  0  0  0  0  0  0  0
  -21.0830  -13.1380   22.2400 H   0  0  0  0  0  0  0  0  0  0  0  0
  -25.3410  -15.2340   20.3190 N   0  0  0  0  0  0  0  0  0  0  0  0
  -24.5560  -15.8670   20.4300 H   0  0  0  0  0  0  0  0  0  0  0  0
  -26.1500  -15.6760   19.9070 H   0  0  0  0  0  0  0  0  0  0  0  0
  -27.3830  -22.3410   18.9030 N   0  0  0  0  0  4  0  0  0  0  0  0
  -26.5590  -22.0660   19.4070 H   0  0  0  0  0  0  0  0  0  0  0  0
  -27.6230  -21.6310   18.2350 H   0  0  0  0  0  0  0  0  0  0  0  0
  -27.1690  -23.1790   18.3930 H   0  0  0  0  0  0  0  0  0  0  0  0
  -28.1690  -24.2180   20.5960 C   0  0  0  0  0  2  0  0  0  0  0  0
  -28.2350  -25.8430   20.2030 O   0  0  0  0  0  0  0  0  0  0  0  0
  -24.6310  -31.8520   23.1800 C   0  0  0  0  0  0  0  0  0  0  0  0
  -27.1970  -26.9240   20.2230 C   0  0  0  0  0  0  0  0  0  0  0  0
  -23.4470  -30.4380   21.5530 C   0  0  0  0  0  3  0  0  0  0  0  0
  -24.9000  -28.8160   20.1540 C   0  0  0  0  0  0  0  0  0  0  0  0
  -26.0130  -30.6480   21.4090 C   0  0  0  0  0  2  0  0  0  0  0  0
  -26.0890  -29.2260   20.7710 C   0  0  0  0  0  0  0  0  0  0  0  0
  -27.2340  -28.3050   20.7710 C   0  0  0  0  0  3  0  0  0  0  0  0
  -25.9740  -26.6690   19.5640 C   0  0  0  0  0  3  0  0  0  0  0  0
  -24.8670  -27.5590   19.5290 C   0  0  0  0  0  3  0  0  0  0  0  0
  -23.6860  -29.7440   20.1830 C   0  0  0  0  0  2  0  0  0  0  0  0
  -24.7190  -31.0070   22.1010 N   0  0  0  0  0  0  0  0  0  0  0  0
  -23.5390  -32.1440   23.6930 O   0  0  0  0  0  0  0  0  0  0  0  0
  -22.7500  -29.4500   22.5250 C   0  0  0  0  0  0  0  0  0  0  0  0
  -21.4180  -29.2930   22.4050 N   0  0  0  0  0  0  0  0  0  0  0  0
  -23.4150  -28.8250   23.3530 O   0  0  0  0  0  0  0  0  0  0  0  0
  -20.9350  -29.8550   21.7190 H   0  0  0  0  0  0  0  0  0  0  0  0
  -18.0310  -28.0980   22.9360 C   0  0  0  0  0  0  0  0  0  0  0  0
  -20.5940  -28.3580   23.1810 C   0  0  0  0  0  3  0  0  0  0  0  0
  -20.6870  -26.9240   22.6080 C   0  0  0  0  0  2  0  0  0  0  0  0
  -19.5770  -26.6030   21.6020 C   0  0  0  0  0  2  0  0  0  0  0  0
  -18.1990  -26.7500   22.2560 C   0  0  0  0  0  2  0  0  0  0  0  0
  -19.1560  -28.8590   23.3560 C   0  0  0  0  0  0  0  0  0  0  0  0
  -18.9430  -30.1180   23.9560 C   0  0  0  0  0  3  0  0  0  0  0  0
  -17.6390  -30.6200   24.1370 C   0  0  0  0  0  3  0  0  0  0  0  0
  -16.5300  -29.8570   23.7300 C   0  0  0  0  0  3  0  0  0  0  0  0
  -16.7270  -28.5980   23.1360 C   0  0  0  0  0  3  0  0  0  0  0  0
  -25.8960  -32.5060   23.8120 C   0  0  0  0  0  3  0  0  0  0  0  0
  -26.4010  -31.7500   25.1050 C   0  0  1  0  0  0  0  0  0  0  0  0
  -25.2990  -31.5220   26.1670 C   0  0  0  0  0  1  0  0  0  0  0  0
  -26.9930  -30.3690   24.7420 C   0  0  0  0  0  1  0  0  0  0  0  0
  -27.5450  -32.5540   25.7680 C   0  0  0  0  0  1  0  0  0  0  0  0
  -25.5700  -33.9050   24.1420 N   0  0  0  0  0  0  0  0  0  0  0  0
  -25.8980  -34.9660   23.3920 C   0  0  0  0  0  0  0  0  0  0  0  0
  -26.5690  -34.8710   22.3610 O   0  0  0  0  0  0  0  0  0  0  0  0
  -24.9770  -34.0510   24.9460 H   0  0  0  0  0  0  0  0  0  0  0  0
  -24.1630  -36.7610   23.0520 C   0  0  0  0  0  1  0  0  0  0  0  0
  -25.4060  -36.3530   23.8580 C   0  0  0  0  0  3  0  0  0  0  0  0
  -27.5390  -37.2460   24.6890 C   0  0  0  0  0  1  0  0  0  0  0  0
  -26.4360  -37.4110   23.7480 N   0  0  0  0  0  0  0  0  0  0  0  0
  -26.0260  -38.3290   23.9010 H   0  0  0  0  0  0  0  0  0  0  0  0
  1  5  1  0
  1 51  1  0
  3  2  2  0
  4  2  1  0
  5  3  1  0
  6  5  2  0
  6  7  1  0
  7  4  2  0
  8  6  1  0
  9 17  1  0
 10 15  1  0
 11 12  1  0
 11 10  1  0
 13 12  1  0
 13 22  1  0
 13 14  1  0
 15  9  1  0
 15 14  1  0
 16  9  2  0
 17  7  1  0
 18 17  1  0
 19 20  2  0
 20 39  1  0
 21 20  1  0
 21 24  1  0
 22 19  1  0
 22 23  1  0
 23 21  2  0
 24 25  1  0
 25 26  2  0
 27 30  1  0
 27 26  1  0
 28 27  2  0
 29 28  1  0
 29 24  2  0
 30 31  1  0
 31 32  1  0
 32 33  2  0
 34 33  1  0
 34 38  1  0
 35 34  2  0
 36 31  2  0
 36 35  1  0
 37 36  1  0
 39 40  1  0
 40 43  1  0
 40 42  1  0
 41 39  2  0
 44 45  1  0
 44 19  1  0
 46 44  1  0
 47 48  1  0
 47  1  1  0
 49 47  1  0
 50 47  1  0
 52 54  1  0
 52 51  1  0
 53 64  2  0
 54 59  1  0
 55 63  1  0
 55 65  1  0
 56 62  1  0
 56 58  1  0
 57 63  1  0
 58 57  1  0
 59 58  2  0
 60 54  2  0
 61 60  1  0
 61 56  2  0
 62 55  1  0
 63 53  1  0
 65 67  2  0
 66 65  1  0
 68 66  1  0
 69 78  2  0
 69 74  1  0
 70 66  1  0
 70 74  1  0
 71 70  1  0
 72 73  1  0
 72 71  1  0
 73 69  1  0
 74 75  2  0
 75 76  1  0
 77 76  2  0
 78 77  1  0
 79 53  1  0
 79 84  1  0
 79 80  1  0
 80 83  1  1
 80 81  1  0
 82 80  1  0
 84 87  1  0
 85 89  1  0
 85 84  1  0
 86 85  2  0
 89 88  1  0
 91 89  1  0
 91 92  1  0
 91 90  1  0
M  ISO  4   9 100  17 100  51 101  52 101
M  END
>  <TORSDO>  (28) 
F 19

>  <SCORE>  (28) 
-16.380

>  <name>  (28) 
27

>  <ligand_id>  (28) 
27

>  <original_smiles>  (28) 
[H]c1c([H])c([H])c2c(c1[H])C([H])([H])C([H])([H])C([H])([H])C2([H])N([H])C(=O)C1([H])N(C(=O)C([H])(N([H])C(=O)C([H])(N([H])C([H])([H])[H])C([H])([H])[H])C(C([H])([H])[H])(C([H])([H])[H])C([H])([H])[H])C([H])([H])c2c([H])c(OC([H])([H])C([H])(c3c([H])c([H])c([H])c(N([H])C(=O)N4C([H])([H])C([H])([H])C([H])([H])C([H])(n5nc(-c6c([H])c([H])c(Oc7c([H])c([H])c(F)c([H])c7F)c([H])c6[H])c(C(=O)N([H])[H])c5N([H])[H])C4([H])[H])c3C([H])([H])[H])[N+]([H])([H])[H])c([H])c([H])c2C1([H])[H]

>  <smiles>  (28) 
[H]c1c([H])c([H])c2c(c1[H])C([H])([H])C([H])([H])C([H])([H])C2([H])N([H])C(=O)C1([H])N(C(=O)C([H])(N([H])C(=O)C([H])(N([H])C([H])([H])[H])C([H])([H])[H])C(C([H])([H])[H])(C([H])([H])[H])C([H])([H])[H])C([H])([H])c2c([H])c(OC([H])([H])C([H])(c3c([H])c([H])c([H])c(N([H])C(=O)N4C([H])([H])C([H])([H])C([H])([H])C([H])(n5nc(-c6c([H])c([H])c(Oc7c([H])c([H])c(F)c([H])c7F)c([H])c6[H])c(C(=O)N([H])[H])c5N([H])[H])C4([H])[H])c3C([H])([H])[H])[N+]([H])([H])[H])c([H])c([H])c2C1([H])[H]

$$$$
28:0:0
     RDKit          3D

 91 99  0  0  1  0  0  0  0  0999 V2000
  -28.6550  -22.6160   19.8190 C   0  0  0  0  0  3  0  0  0  0  0  0
  -30.9720  -19.9540   21.8360 C   0  0  0  0  0  3  0  0  0  0  0  0
  -30.2510  -21.0950   21.3830 C   0  0  0  0  0  3  0  0  0  0  0  0
  -30.7770  -18.6210   21.3790 C   0  0  0  0  0  3  0  0  0  0  0  0
  -29.0600  -19.5530   19.9630 C   0  0  0  0  0  3  0  0  0  0  0  0
  -29.2430  -21.0420   20.3950 C   0  0  0  0  0  0  0  0  0  0  0  0
  -29.8040  -18.2620   20.4210 C   0  0  0  0  0  0  0  0  0  0  0  0
  -30.4280  -15.3810   20.1890 C   0  0  0  0  0  0  0  0  0  0  0  0
  -30.4260  -12.9220   19.3040 C   0  0  0  0  0  2  0  0  0  0  0  0
  -29.4930  -12.6610   18.0940 C   0  0  0  0  0  2  0  0  0  0  0  0
  -28.0530  -12.3770   18.5590 C   0  0  0  0  0  2  0  0  0  0  0  0
  -27.6020  -13.3550   19.6730 C   0  0  0  0  0  3  0  0  0  0  0  0
  -28.6640  -13.5410   20.7760 C   0  0  0  0  0  2  0  0  0  0  0  0
  -29.8650  -14.0710   20.1080 N   0  0  0  0  0  0  0  0  0  0  0  0
  -31.6600  -15.3640   20.0460 O   0  0  0  0  0  0  0  0  0  0  0  0
  -29.6460  -16.6600   20.1350 N   0  0  0  0  0  0  0  0  0  0  0  0
  -28.6900  -16.4310   19.9080 H   0  0  0  0  0  0  0  0  0  0  0  0
  -25.2430  -13.9100   20.4600 C   0  0  0  0  0  0  0  0  0  0  0  0
  -24.1860  -13.1330   20.8400 C   0  0  0  0  0  0  0  0  0  0  0  0
  -24.6550  -11.7830   20.8020 C   0  0  0  0  0  0  0  0  0  0  0  0
  -26.2830  -13.0360   20.2030 N   0  0  0  0  0  0  0  0  0  0  0  0
  -25.9430  -11.7500   20.4790 N   0  0  0  0  0  0  0  0  0  0  0  0
  -23.9300  -10.5200   20.9970 C   0  0  0  0  0  0  0  0  0  0  0  0
  -24.3600   -9.5560   21.9360 C   0  0  0  0  0  3  0  0  0  0  0  0
  -23.6310   -8.3610   22.1190 C   0  0  0  0  0  3  0  0  0  0  0  0
  -22.4580   -8.1210   21.3640 C   0  0  0  0  0  0  0  0  0  0  0  0
  -22.0480   -9.0730   20.4150 C   0  0  0  0  0  3  0  0  0  0  0  0
  -22.7770  -10.2590   20.2300 C   0  0  0  0  0  3  0  0  0  0  0  0
  -21.7020   -6.9770   21.4560 O   0  0  0  0  0  0  0  0  0  0  0  0
  -21.6430   -6.2460   22.6150 C   0  0  0  0  0  0  0  0  0  0  0  0
  -21.1950   -6.8080   23.8300 C   0  0  0  0  0  3  0  0  0  0  0  0
  -21.0840   -6.0020   24.9800 C   0  0  0  0  0  3  0  0  0  0  0  0
  -21.4110   -4.6350   24.9180 C   0  0  0  0  0  0  0  0  0  0  0  0
  -21.8520   -4.0720   23.7080 C   0  0  0  0  0  3  0  0  0  0  0  0
  -21.9650   -4.8750   22.5590 C   0  0  0  0  0  0  0  0  0  0  0  0
  -22.3710   -4.3210   21.3910 F   0  0  0  0  0  0  0  0  0  0  0  0
  -21.2970   -3.8590   26.0210 F   0  0  0  0  0  0  0  0  0  0  0  0
  -22.7910  -13.6090   21.1170 C   0  0  0  0  0  0  0  0  0  0  0  0
  -22.0690  -12.9140   21.9870 N   0  0  0  0  0  0  0  0  0  0  0  0
  -22.3520  -14.6340   20.5970 O   0  0  0  0  0  0  0  0  0  0  0  0
  -22.4380  -12.0850   22.4290 H   0  0  0  0  0  0  0  0  0  0  0  0
  -21.1320  -13.2160   22.2170 H   0  0  0  0  0  0  0  0  0  0  0  0
  -25.4000  -15.2820   20.2820 N   0  0  0  0  0  0  0  0  0  0  0  0
  -24.6290  -15.9300   20.4040 H   0  0  0  0  0  0  0  0  0  0  0  0
  -26.2370  -15.7260   19.9280 H   0  0  0  0  0  0  0  0  0  0  0  0
  -27.6130  -22.3080   18.8250 N   0  0  0  0  0  4  0  0  0  0  0  0
  -26.7780  -21.9800   19.2760 H   0  0  0  0  0  0  0  0  0  0  0  0
  -27.9350  -21.6040   18.1870 H   0  0  0  0  0  0  0  0  0  0  0  0
  -27.3860  -23.1290   18.2910 H   0  0  0  0  0  0  0  0  0  0  0  0
  -28.1910  -24.2160   20.5840 C   0  0  0  0  0  2  0  0  0  0  0  0
  -28.2740  -25.8530   20.2310 O   0  0  0  0  0  0  0  0  0  0  0  0
  -24.6360  -31.8540   23.1960 C   0  0  0  0  0  0  0  0  0  0  0  0
  -27.2320  -26.9330   20.2480 C   0  0  0  0  0  0  0  0  0  0  0  0
  -23.4610  -30.4380   21.5630 C   0  0  0  0  0  3  0  0  0  0  0  0
  -24.9250  -28.8200   20.1700 C   0  0  0  0  0  0  0  0  0  0  0  0
  -26.0290  -30.6550   21.4300 C   0  0  0  0  0  2  0  0  0  0  0  0
  -26.1100  -29.2340   20.7900 C   0  0  0  0  0  0  0  0  0  0  0  0
  -27.2590  -28.3160   20.7940 C   0  0  0  0  0  3  0  0  0  0  0  0
  -26.0100  -26.6740   19.5870 C   0  0  0  0  0  3  0  0  0  0  0  0
  -24.9010  -27.5610   19.5480 C   0  0  0  0  0  3  0  0  0  0  0  0
  -23.7030  -29.7410   20.1960 C   0  0  0  0  0  2  0  0  0  0  0  0
  -24.7300  -31.0110   22.1160 N   0  0  0  0  0  0  0  0  0  0  0  0
  -23.5420  -32.1420   23.7070 O   0  0  0  0  0  0  0  0  0  0  0  0
  -22.7630  -29.4490   22.5340 C   0  0  0  0  0  0  0  0  0  0  0  0
  -21.4320  -29.2910   22.4140 N   0  0  0  0  0  0  0  0  0  0  0  0
  -23.4280  -28.8230   23.3620 O   0  0  0  0  0  0  0  0  0  0  0  0
  -20.9470  -29.8460   21.7230 H   0  0  0  0  0  0  0  0  0  0  0  0
  -18.0450  -28.0970   22.9430 C   0  0  0  0  0  0  0  0  0  0  0  0
  -20.6080  -28.3570   23.1900 C   0  0  0  0  0  3  0  0  0  0  0  0
  -20.7010  -26.9240   22.6150 C   0  0  0  0  0  2  0  0  0  0  0  0
  -19.5920  -26.6040   21.6080 C   0  0  0  0  0  2  0  0  0  0  0  0
  -18.2160  -26.7490   22.2610 C   0  0  0  0  0  2  0  0  0  0  0  0
  -19.1690  -28.8590   23.3640 C   0  0  0  0  0  0  0  0  0  0  0  0
  -18.9530  -30.1160   23.9670 C   0  0  0  0  0  3  0  0  0  0  0  0
  -17.6490  -30.6150   24.1480 C   0  0  0  0  0  3  0  0  0  0  0  0
  -16.5410  -29.8520   23.7380 C   0  0  0  0  0  3  0  0  0  0  0  0
  -16.7410  -28.5950   23.1420 C   0  0  0  0  0  3  0  0  0  0  0  0
  -25.8990  -32.5110   23.8330 C   0  0  0  0  0  3  0  0  0  0  0  0
  -26.3960  -31.7620   25.1300 C   0  0  1  0  0  0  0  0  0  0  0  0
  -25.2890  -31.5380   26.1870 C   0  0  0  0  0  1  0  0  0  0  0  0
  -26.9910  -30.3790   24.7780 C   0  0  0  0  0  1  0  0  0  0  0  0
  -27.5340  -32.5710   25.7970 C   0  0  0  0  0  1  0  0  0  0  0  0
  -25.5700  -33.9120   24.1530 N   0  0  0  0  0  0  0  0  0  0  0  0
  -25.9020  -34.9710   23.4030 C   0  0  0  0  0  0  0  0  0  0  0  0
  -26.5800  -34.8710   22.3770 O   0  0  0  0  0  0  0  0  0  0  0  0
  -24.9650  -34.0600   24.9480 H   0  0  0  0  0  0  0  0  0  0  0  0
  -24.1720  -36.7660   23.0460 C   0  0  0  0  0  1  0  0  0  0  0  0
  -25.4100  -36.3600   23.8620 C   0  0  0  0  0  3  0  0  0  0  0  0
  -27.5340  -37.2570   24.7070 C   0  0  0  0  0  1  0  0  0  0  0  0
  -26.4410  -37.4160   23.7530 N   0  0  0  0  0  0  0  0  0  0  0  0
  -26.0310  -38.3360   23.8900 H   0  0  0  0  0  0  0  0  0  0  0  0
  1  6  1  0
  1 50  1  0
  3  2  1  0
  4  2  2  0
  5  6  1  0
  5  7  2  0
  6  3  2  0
  7  4  1  0
  9 14  1  0
 10 11  1  0
 10  9  1  0
 12 11  1  0
 12 21  1  0
 12 13  1  0
 14  8  1  0
 14 13  1  0
 15  8  2  0
 16  8  1  0
 16  7  1  0
 17 16  1  0
 18 19  2  0
 19 38  1  0
 20 19  1  0
 20 23  1  0
 21 18  1  0
 21 22  1  0
 22 20  2  0
 23 24  1  0
 24 25  2  0
 26 29  1  0
 26 25  1  0
 27 26  2  0
 28 27  1  0
 28 23  2  0
 29 30  1  0
 30 31  1  0
 31 32  2  0
 33 32  1  0
 33 37  1  0
 34 33  2  0
 35 30  2  0
 35 34  1  0
 36 35  1  0
 38 39  1  0
 39 42  1  0
 39 41  1  0
 40 38  2  0
 43 44  1  0
 43 18  1  0
 45 43  1  0
 46 47  1  0
 46  1  1  0
 48 46  1  0
 49 46  1  0
 51 53  1  0
 51 50  1  0
 52 63  2  0
 53 58  1  0
 54 62  1  0
 54 64  1  0
 55 61  1  0
 55 57  1  0
 56 62  1  0
 57 58  2  0
 57 56  1  0
 59 53  2  0
 60 59  1  0
 60 55  2  0
 61 54  1  0
 62 52  1  0
 64 66  2  0
 65 64  1  0
 67 65  1  0
 68 77  2  0
 68 73  1  0
 69 65  1  0
 69 73  1  0
 70 69  1  0
 71 72  1  0
 71 70  1  0
 72 68  1  0
 73 74  2  0
 74 75  1  0
 76 75  2  0
 77 76  1  0
 78 52  1  0
 78 83  1  0
 78 79  1  0
 79 82  1  1
 79 80  1  0
 81 79  1  0
 83 86  1  0
 84 88  1  0
 84 83  1  0
 85 84  2  0
 88 87  1  0
 90 88  1  0
 90 91  1  0
 90 89  1  0
M  ISO  4   8 100  16 100  50 101  51 101
M  END
>  <TORSDO>  (29) 
F 19

>  <SCORE>  (29) 
-16.339

>  <name>  (29) 
28

>  <ligand_id>  (29) 
28

>  <original_smiles>  (29) 
[H]c1c([H])c([H])c2c(c1[H])C([H])([H])C([H])([H])C([H])([H])C2([H])N([H])C(=O)C1([H])N(C(=O)C([H])(N([H])C(=O)C([H])(N([H])C([H])([H])[H])C([H])([H])[H])C(C([H])([H])[H])(C([H])([H])[H])C([H])([H])[H])C([H])([H])c2c([H])c(OC([H])([H])C([H])(c3c([H])c([H])c([H])c(N([H])C(=O)N4C([H])([H])C([H])([H])C([H])([H])C([H])(n5nc(-c6c([H])c([H])c(Oc7c([H])c([H])c(F)c([H])c7F)c([H])c6[H])c(C(=O)N([H])[H])c5N([H])[H])C4([H])[H])c3[H])[N+]([H])([H])[H])c([H])c([H])c2C1([H])[H]

>  <smiles>  (29) 
[H]c1c([H])c([H])c2c(c1[H])C([H])([H])C([H])([H])C([H])([H])C2([H])N([H])C(=O)C1([H])N(C(=O)C([H])(N([H])C(=O)C([H])(N([H])C([H])([H])[H])C([H])([H])[H])C(C([H])([H])[H])(C([H])([H])[H])C([H])([H])[H])C([H])([H])c2c([H])c(OC([H])([H])C([H])(c3c([H])c([H])c([H])c(N([H])C(=O)N4C([H])([H])C([H])([H])C([H])([H])C([H])(n5nc(-c6c([H])c([H])c(Oc7c([H])c([H])c(F)c([H])c7F)c([H])c6[H])c(C(=O)N([H])[H])c5N([H])[H])C4([H])[H])c3[H])[N+]([H])([H])[H])c([H])c([H])c2C1([H])[H]

$$$$
29:0:0
     RDKit          3D

103112  0  0  1  0  0  0  0  0999 V2000
  -30.0970  -22.7150   20.1580 C   0  0  0  0  0  0  0  0  0  0  0  0
  -33.6570  -21.8940   20.8490 C   0  0  0  0  0  2  0  0  0  0  0  0
  -32.8730  -21.2100   21.9580 C   0  0  0  0  0  2  0  0  0  0  0  0
  -32.6040  -22.7120   20.1000 C   0  0  0  0  0  2  0  0  0  0  0  0
  -31.4690  -20.9970   21.3740 C   0  0  0  0  0  3  0  0  0  0  0  0
  -31.2960  -22.1120   20.4060 N   0  0  0  0  0  0  0  0  0  0  0  0
  -29.0390  -22.1520   20.4470 O   0  0  0  0  0  0  0  0  0  0  0  0
  -32.4120  -18.6840   20.6160 C   0  0  0  0  0  3  0  0  0  0  0  0
  -32.2290  -17.2880   20.4370 C   0  0  0  0  0  3  0  0  0  0  0  0
  -30.0320  -18.9410   20.9400 C   0  0  0  0  0  3  0  0  0  0  0  0
  -29.8220  -17.5520   20.7400 C   0  0  0  0  0  0  0  0  0  0  0  0
  -31.3160  -19.5280   20.9080 C   0  0  0  0  0  0  0  0  0  0  0  0
  -30.9430  -16.6880   20.5280 C   0  0  0  0  0  0  0  0  0  0  0  0
  -31.3070  -14.3050   19.6320 C   0  0  0  0  0  0  0  0  0  0  0  0
  -30.8200  -12.1610   18.4890 C   0  0  0  0  0  2  0  0  0  0  0  0
  -29.7700  -12.4110   17.3840 C   0  0  0  0  0  2  0  0  0  0  0  0
  -28.3380  -12.3470   17.9520 C   0  0  0  0  0  2  0  0  0  0  0  0
  -28.1680  -13.1900   19.2440 C   0  0  0  0  0  3  0  0  0  0  0  0
  -29.3080  -12.8820   20.2410 C   0  0  0  0  0  2  0  0  0  0  0  0
  -30.5920  -13.1450   19.5610 N   0  0  0  0  0  0  0  0  0  0  0  0
  -32.3640  -14.4720   19.0150 O   0  0  0  0  0  0  0  0  0  0  0  0
  -30.7170  -15.2710   20.3680 N   0  0  0  0  0  0  0  0  0  0  0  0
  -29.9490  -14.9130   20.9190 H   0  0  0  0  0  0  0  0  0  0  0  0
  -25.8970  -13.9360   20.2000 C   0  0  0  0  0  0  0  0  0  0  0  0
  -24.8170  -13.2260   20.6530 C   0  0  0  0  0  0  0  0  0  0  0  0
  -25.1760  -11.8470   20.5390 C   0  0  0  0  0  0  0  0  0  0  0  0
  -26.8510  -12.9940   19.8450 N   0  0  0  0  0  0  0  0  0  0  0  0
  -26.4230  -11.7300   20.1030 N   0  0  0  0  0  0  0  0  0  0  0  0
  -24.3840  -10.6320   20.7660 C   0  0  0  0  0  0  0  0  0  0  0  0
  -24.7500   -9.6850   21.7480 C   0  0  0  0  0  3  0  0  0  0  0  0
  -23.9640   -8.5320   21.9600 C   0  0  0  0  0  3  0  0  0  0  0  0
  -22.7960   -8.3190   21.1910 C   0  0  0  0  0  0  0  0  0  0  0  0
  -22.4480   -9.2530   20.2000 C   0  0  0  0  0  3  0  0  0  0  0  0
  -23.2350  -10.3970   19.9850 C   0  0  0  0  0  3  0  0  0  0  0  0
  -21.9840   -7.2160   21.3100 O   0  0  0  0  0  0  0  0  0  0  0  0
  -21.7870   -6.5950   22.5170 C   0  0  0  0  0  0  0  0  0  0  0  0
  -21.3280   -7.3000   23.6510 C   0  0  0  0  0  3  0  0  0  0  0  0
  -21.0720   -6.6090   24.8540 C   0  0  0  0  0  3  0  0  0  0  0  0
  -21.2650   -5.2160   24.9210 C   0  0  0  0  0  0  0  0  0  0  0  0
  -21.7160   -4.5130   23.7910 C   0  0  0  0  0  3  0  0  0  0  0  0
  -21.9740   -5.2000   22.5910 C   0  0  0  0  0  0  0  0  0  0  0  0
  -22.3880   -4.5140   21.4990 F   0  0  0  0  0  0  0  0  0  0  0  0
  -21.0120   -4.5510   26.0720 F   0  0  0  0  0  0  0  0  0  0  0  0
  -23.4890  -13.7870   21.0750 C   0  0  0  0  0  0  0  0  0  0  0  0
  -22.8200  -13.1320   22.0180 N   0  0  0  0  0  0  0  0  0  0  0  0
  -23.0610  -14.8390   20.6050 O   0  0  0  0  0  0  0  0  0  0  0  0
  -23.1820  -12.2790   22.4200 H   0  0  0  0  0  0  0  0  0  0  0  0
  -21.9320  -13.4880   22.3440 H   0  0  0  0  0  0  0  0  0  0  0  0
  -26.1390  -15.2970   20.0440 N   0  0  0  0  0  0  0  0  0  0  0  0
  -25.4370  -15.9990   20.2520 H   0  0  0  0  0  0  0  0  0  0  0  0
  -26.9840  -15.6900   19.6510 H   0  0  0  0  0  0  0  0  0  0  0  0
  -28.4040  -17.0330   20.8180 C   0  0  0  0  0  0  0  0  0  0  0  0
  -27.5020  -17.6790   20.0890 N   0  0  0  0  0  0  0  0  0  0  0  0
  -28.1020  -16.0370   21.4730 O   0  0  0  0  0  0  0  0  0  0  0  0
  -27.7810  -18.4640   19.5210 H   0  0  0  0  0  0  0  0  0  0  0  0
  -26.5440  -17.3650   20.0760 H   0  0  0  0  0  0  0  0  0  0  0  0
  -30.0300  -24.1370   19.5100 C   0  0  0  0  0  3  0  0  0  0  0  0
  -30.1610  -24.0460   18.0400 N   0  0  0  0  0  4  0  0  0  0  0  0
  -29.4390  -23.4600   17.6560 H   0  0  0  0  0  0  0  0  0  0  0  0
  -31.0490  -23.6590   17.7740 H   0  0  0  0  0  0  0  0  0  0  0  0
  -30.0810  -24.9610   17.6290 H   0  0  0  0  0  0  0  0  0  0  0  0
  -28.7250  -24.9160   19.8790 C   0  0  0  0  0  2  0  0  0  0  0  0
  -28.8070  -26.3550   19.6820 O   0  0  0  0  0  0  0  0  0  0  0  0
  -24.7660  -31.2530   22.9870 C   0  0  0  0  0  0  0  0  0  0  0  0
  -27.6070  -27.0550   19.7100 C   0  0  0  0  0  0  0  0  0  0  0  0
  -23.6230  -29.8750   21.2820 C   0  0  0  0  0  3  0  0  0  0  0  0
  -25.1450  -28.4740   19.7890 C   0  0  0  0  0  0  0  0  0  0  0  0
  -26.1350  -30.3500   21.1060 C   0  0  0  0  0  2  0  0  0  0  0  0
  -26.2830  -29.0140   20.4000 C   0  0  0  0  0  0  0  0  0  0  0  0
  -27.5170  -28.3160   20.3510 C   0  0  0  0  0  3  0  0  0  0  0  0
  -26.4440  -26.5410   19.0870 C   0  0  0  0  0  3  0  0  0  0  0  0
  -25.2230  -27.2370   19.1300 C   0  0  0  0  0  3  0  0  0  0  0  0
  -23.8630  -29.2740   19.8730 C   0  0  0  0  0  2  0  0  0  0  0  0
  -24.8590  -30.5070   21.8500 N   0  0  0  0  0  0  0  0  0  0  0  0
  -23.6740  -31.4520   23.5370 O   0  0  0  0  0  0  0  0  0  0  0  0
  -23.0210  -28.7820   22.1930 C   0  0  0  0  0  0  0  0  0  0  0  0
  -21.7190  -28.5040   22.0170 N   0  0  0  0  0  0  0  0  0  0  0  0
  -23.7230  -28.1880   23.0150 O   0  0  0  0  0  0  0  0  0  0  0  0
  -21.2090  -29.0400   21.3300 H   0  0  0  0  0  0  0  0  0  0  0  0
  -18.4570  -26.9690   22.2950 C   0  0  0  0  0  0  0  0  0  0  0  0
  -20.9520  -27.4840   22.7350 C   0  0  0  0  0  3  0  0  0  0  0  0
  -21.2380  -26.0720   22.1700 C   0  0  0  0  0  2  0  0  0  0  0  0
  -20.2430  -25.6430   21.0870 C   0  0  0  0  0  2  0  0  0  0  0  0
  -18.8140  -25.6460   21.6370 C   0  0  0  0  0  2  0  0  0  0  0  0
  -19.4620  -27.8390   22.7960 C   0  0  0  0  0  0  0  0  0  0  0  0
  -19.0790  -29.0720   23.3670 C   0  0  0  0  0  3  0  0  0  0  0  0
  -17.7230  -29.4390   23.4430 C   0  0  0  0  0  3  0  0  0  0  0  0
  -16.7310  -28.5670   22.9600 C   0  0  0  0  0  3  0  0  0  0  0  0
  -17.0980  -27.3340   22.3920 C   0  0  0  0  0  3  0  0  0  0  0  0
  -26.0220  -31.9140   23.6370 C   0  0  0  0  0  3  0  0  0  0  0  0
  -25.6370  -33.2640   24.0710 N   0  0  0  0  0  0  0  0  0  0  0  0
  -25.9700  -34.3920   23.4320 C   0  0  0  0  0  0  0  0  0  0  0  0
  -26.7030  -34.4080   22.4380 O   0  0  0  0  0  0  0  0  0  0  0  0
  -24.9930  -33.3240   24.8460 H   0  0  0  0  0  0  0  0  0  0  0  0
  -24.2080  -36.1580   23.1190 C   0  0  0  0  0  1  0  0  0  0  0  0
  -25.4000  -35.7140   23.9810 C   0  0  0  0  0  3  0  0  0  0  0  0
  -27.4370  -36.5730   25.0500 C   0  0  0  0  0  1  0  0  0  0  0  0
  -26.3990  -36.8030   24.0480 N   0  0  0  0  0  0  0  0  0  0  0  0
  -25.9510  -37.6920   24.2540 H   0  0  0  0  0  0  0  0  0  0  0  0
  -26.6060  -31.0860   24.8460 C   0  0  1  0  0  0  0  0  0  0  0  0
  -25.5440  -30.6830   25.8950 C   0  0  0  0  0  1  0  0  0  0  0  0
  -27.2870  -29.7920   24.3410 C   0  0  0  0  0  1  0  0  0  0  0  0
  -27.7000  -31.9100   25.5640 C   0  0  0  0  0  1  0  0  0  0  0  0
  1  6  1  0
  1  7  2  0
  2  3  1  0
  4  6  1  0
  4  2  1  0
  5 12  1  0
  5  3  1  0
  6  5  1  0
  8 12  1  0
  9 13  1  0
  9  8  2  0
 11 52  1  0
 11 10  1  0
 12 10  2  0
 13 11  2  0
 14 22  1  0
 15 20  1  0
 16 17  1  0
 16 15  1  0
 18 17  1  0
 18 27  1  0
 18 19  1  0
 20 14  1  0
 20 19  1  0
 21 14  2  0
 22 13  1  0
 22 23  1  0
 24 25  2  0
 25 44  1  0
 26 25  1  0
 26 29  1  0
 27 28  1  0
 27 24  1  0
 28 26  2  0
 29 30  1  0
 30 31  2  0
 32 35  1  0
 32 31  1  0
 33 32  2  0
 34 33  1  0
 34 29  2  0
 35 36  1  0
 36 41  2  0
 36 37  1  0
 37 38  2  0
 38 39  1  0
 39 43  1  0
 40 39  2  0
 41 40  1  0
 42 41  1  0
 44 45  1  0
 45 48  1  0
 45 47  1  0
 46 44  2  0
 49 24  1  0
 49 50  1  0
 51 49  1  0
 52 54  2  0
 53 52  1  0
 55 53  1  0
 56 53  1  0
 57 62  1  0
 57  1  1  0
 58 57  1  0
 59 58  1  0
 60 58  1  0
 61 58  1  0
 63 65  1  0
 63 62  1  0
 64 75  2  0
 65 70  1  0
 66 74  1  0
 66 76  1  0
 67 73  1  0
 67 69  1  0
 68 74  1  0
 69 68  1  0
 70 69  2  0
 71 72  1  0
 71 65  2  0
 72 67  2  0
 73 66  1  0
 74 64  1  0
 76 78  2  0
 77 76  1  0
 79 77  1  0
 80 89  2  0
 80 85  1  0
 81 77  1  0
 81 85  1  0
 82 81  1  0
 83 84  1  0
 83 82  1  0
 84 80  1  0
 85 86  2  0
 86 87  1  0
 88 87  2  0
 89 88  1  0
 90 64  1  0
 90 91  1  0
 90100  1  0
 91 94  1  0
 92 96  1  0
 92 91  1  0
 93 92  2  0
 96 95  1  0
 96 98  1  0
 98 99  1  0
 98 97  1  0
100103  1  1
100101  1  0
102100  1  0
M  ISO  4  14 100  22 100  62 101  63 101
M  END
>  <TORSDO>  (30) 
F 21

>  <SCORE>  (30) 
-11.021

>  <name>  (30) 
29

>  <ligand_id>  (30) 
29

>  <original_smiles>  (30) 
[H]c1c([H])c([H])c2c(c1[H])C([H])([H])C([H])([H])C([H])([H])C2([H])N([H])C(=O)C1([H])N(C(=O)C([H])(N([H])C(=O)C([H])(N([H])C([H])([H])[H])C([H])([H])[H])C(C([H])([H])[H])(C([H])([H])[H])C([H])([H])[H])C([H])([H])c2c([H])c(OC([H])([H])C([H])(C(=O)N3C([H])([H])C([H])([H])C([H])([H])C3([H])c3c([H])c([H])c(N([H])C(=O)N4C([H])([H])C([H])([H])C([H])([H])C([H])(n5nc(-c6c([H])c([H])c(Oc7c([H])c([H])c(F)c([H])c7F)c([H])c6[H])c(C(=O)N([H])[H])c5N([H])[H])C4([H])[H])c(C(=O)N([H])[H])c3[H])[N+]([H])([H])[H])c([H])c([H])c2C1([H])[H]

>  <smiles>  (30) 
[H]c1c([H])c([H])c2c(c1[H])C([H])([H])C([H])([H])C([H])([H])C2([H])N([H])C(=O)C1([H])N(C(=O)C([H])(N([H])C(=O)C([H])(N([H])C([H])([H])[H])C([H])([H])[H])C(C([H])([H])[H])(C([H])([H])[H])C([H])([H])[H])C([H])([H])c2c([H])c(OC([H])([H])C([H])(C(=O)N3C([H])([H])C([H])([H])C([H])([H])C3([H])c3c([H])c([H])c(N([H])C(=O)N4C([H])([H])C([H])([H])C([H])([H])C([H])(n5nc(-c6c([H])c([H])c(Oc7c([H])c([H])c(F)c([H])c7F)c([H])c6[H])c(C(=O)N([H])[H])c5N([H])[H])C4([H])[H])c(C(=O)N([H])[H])c3[H])[N+]([H])([H])[H])c([H])c([H])c2C1([H])[H]

$$$$
30:0:0
     RDKit          3D

 97105  0  0  1  0  0  0  0  0999 V2000
  -31.5490  -19.9030   20.9120 C   0  0  0  0  0  0  0  0  0  0  0  0
  -30.9000  -20.9460   21.4410 N   0  0  0  0  0  0  0  0  0  0  0  0
  -32.2750  -19.9910   19.9200 O   0  0  0  0  0  0  0  0  0  0  0  0
  -30.2780  -20.7310   22.2080 H   0  0  0  0  0  0  0  0  0  0  0  0
  -31.0900  -18.5850   23.0220 C   0  0  0  0  0  3  0  0  0  0  0  0
  -30.8850  -17.3810   23.7080 C   0  0  0  0  0  3  0  0  0  0  0  0
  -31.4010  -17.3610   20.9350 C   0  0  0  0  0  3  0  0  0  0  0  0
  -31.3260  -18.5970   21.6270 C   0  0  0  0  0  0  0  0  0  0  0  0
  -30.9450  -16.1560   23.0210 C   0  0  0  0  0  0  0  0  0  0  0  0
  -31.2180  -16.1360   21.6290 C   0  0  0  0  0  0  0  0  0  0  0  0
  -30.7010  -14.8820   23.8180 C   0  0  0  0  0  1  0  0  0  0  0  0
  -31.3940  -14.4950   19.7340 C   0  0  0  0  0  0  0  0  0  0  0  0
  -30.7300  -12.6720   18.1930 C   0  0  0  0  0  2  0  0  0  0  0  0
  -29.6400  -13.1410   17.2110 C   0  0  0  0  0  2  0  0  0  0  0  0
  -28.2380  -12.9930   17.8330 C   0  0  0  0  0  2  0  0  0  0  0  0
  -28.1530  -13.6280   19.2470 C   0  0  0  0  0  3  0  0  0  0  0  0
  -29.3220  -13.1310   20.1210 C   0  0  0  0  0  2  0  0  0  0  0  0
  -30.5970  -13.4370   19.4380 N   0  0  0  0  0  0  0  0  0  0  0  0
  -32.2580  -14.9460   18.9720 O   0  0  0  0  0  0  0  0  0  0  0  0
  -31.2850  -14.8570   21.0210 N   0  0  0  0  0  0  0  0  0  0  0  0
  -30.8070  -14.1470   21.5540 H   0  0  0  0  0  0  0  0  0  0  0  0
  -25.8960  -14.2640   20.3180 C   0  0  0  0  0  0  0  0  0  0  0  0
  -24.8520  -13.5020   20.7730 C   0  0  0  0  0  0  0  0  0  0  0  0
  -25.2490  -12.1410   20.5870 C   0  0  0  0  0  0  0  0  0  0  0  0
  -26.8620  -13.3670   19.8820 N   0  0  0  0  0  0  0  0  0  0  0  0
  -26.4800  -12.0830   20.0990 N   0  0  0  0  0  0  0  0  0  0  0  0
  -24.5030  -10.8930   20.7940 C   0  0  0  0  0  0  0  0  0  0  0  0
  -24.9450   -9.9140   21.7120 C   0  0  0  0  0  3  0  0  0  0  0  0
  -24.2060   -8.7280   21.9060 C   0  0  0  0  0  3  0  0  0  0  0  0
  -23.0100   -8.5110   21.1830 C   0  0  0  0  0  0  0  0  0  0  0  0
  -22.5850   -9.4770   20.2550 C   0  0  0  0  0  3  0  0  0  0  0  0
  -23.3250  -10.6570   20.0590 C   0  0  0  0  0  3  0  0  0  0  0  0
  -22.2390   -7.3790   21.2870 O   0  0  0  0  0  0  0  0  0  0  0  0
  -22.1000   -6.7100   22.4760 C   0  0  0  0  0  0  0  0  0  0  0  0
  -21.6580   -7.3590   23.6500 C   0  0  0  0  0  3  0  0  0  0  0  0
  -21.4640   -6.6170   24.8330 C   0  0  0  0  0  3  0  0  0  0  0  0
  -21.6990   -5.2290   24.8420 C   0  0  0  0  0  0  0  0  0  0  0  0
  -22.1330   -4.5810   23.6710 C   0  0  0  0  0  3  0  0  0  0  0  0
  -22.3290   -5.3190   22.4910 C   0  0  0  0  0  0  0  0  0  0  0  0
  -22.7270   -4.6860   21.3620 F   0  0  0  0  0  0  0  0  0  0  0  0
  -21.5040   -4.5150   25.9740 F   0  0  0  0  0  0  0  0  0  0  0  0
  -23.5260  -14.0020   21.2700 C   0  0  0  0  0  0  0  0  0  0  0  0
  -22.9180  -13.2990   22.2200 N   0  0  0  0  0  0  0  0  0  0  0  0
  -23.0390  -15.0500   20.8450 O   0  0  0  0  0  0  0  0  0  0  0  0
  -23.3250  -12.4520   22.5890 H   0  0  0  0  0  0  0  0  0  0  0  0
  -22.0300  -13.6140   22.5830 H   0  0  0  0  0  0  0  0  0  0  0  0
  -26.1000  -15.6380   20.2250 N   0  0  0  0  0  0  0  0  0  0  0  0
  -25.4180  -16.3110   20.5550 H   0  0  0  0  0  0  0  0  0  0  0  0
  -26.9610  -16.0690   19.9110 H   0  0  0  0  0  0  0  0  0  0  0  0
  -31.1030  -22.3560   21.1460 C   0  0  0  0  0  2  0  0  0  0  0  0
  -30.0990  -22.8680   20.0950 C   0  0  0  0  0  2  0  0  0  0  0  0
  -30.3410  -25.3550   20.3860 C   0  0  0  0  0  0  0  0  0  0  0  0
  -29.6300  -24.2200   20.3790 N   0  0  0  0  0  0  0  0  0  0  0  0
  -31.5680  -25.3840   20.2530 O   0  0  0  0  0  0  0  0  0  0  0  0
  -28.6330  -24.3340   20.5110 H   0  0  0  0  0  0  0  0  0  0  0  0
  -29.5230  -26.6450   20.5300 C   0  0  0  0  0  2  0  0  0  0  0  0
  -28.4650  -26.5590   19.5820 O   0  0  0  0  0  0  0  0  0  0  0  0
  -24.7770  -31.6390   23.0500 C   0  0  0  0  0  0  0  0  0  0  0  0
  -27.3330  -27.3140   19.7600 C   0  0  0  0  0  0  0  0  0  0  0  0
  -23.5080  -30.2510   21.4390 C   0  0  0  0  0  3  0  0  0  0  0  0
  -24.9140  -28.7570   19.9260 C   0  0  0  0  0  0  0  0  0  0  0  0
  -26.0140  -30.6520   21.1290 C   0  0  0  0  0  2  0  0  0  0  0  0
  -26.0900  -29.2910   20.4730 C   0  0  0  0  0  0  0  0  0  0  0  0
  -27.3050  -28.5730   20.4000 C   0  0  0  0  0  3  0  0  0  0  0  0
  -26.1460  -26.7920   19.2100 C   0  0  0  0  0  3  0  0  0  0  0  0
  -24.9350  -27.5000   19.2970 C   0  0  0  0  0  3  0  0  0  0  0  0
  -23.6620  -29.5940   20.0410 C   0  0  0  0  0  2  0  0  0  0  0  0
  -24.7870  -30.8600   21.9310 N   0  0  0  0  0  0  0  0  0  0  0  0
  -23.7210  -31.8880   23.6460 O   0  0  0  0  0  0  0  0  0  0  0  0
  -22.9140  -29.2070   22.4110 C   0  0  0  0  0  0  0  0  0  0  0  0
  -21.6000  -28.9570   22.2890 N   0  0  0  0  0  0  0  0  0  0  0  0
  -23.6310  -28.6250   23.2290 O   0  0  0  0  0  0  0  0  0  0  0  0
  -21.0820  -29.4780   21.5970 H   0  0  0  0  0  0  0  0  0  0  0  0
  -18.3080  -27.5470   22.7550 C   0  0  0  0  0  0  0  0  0  0  0  0
  -20.8350  -27.9870   23.0700 C   0  0  0  0  0  3  0  0  0  0  0  0
  -21.0480  -26.5530   22.5360 C   0  0  0  0  0  2  0  0  0  0  0  0
  -19.9920  -26.1280   21.5100 C   0  0  0  0  0  2  0  0  0  0  0  0
  -18.5900  -26.1950   22.1220 C   0  0  0  0  0  2  0  0  0  0  0  0
  -19.3620  -28.3950   23.1860 C   0  0  0  0  0  0  0  0  0  0  0  0
  -19.0450  -29.6560   23.7350 C   0  0  0  0  0  3  0  0  0  0  0  0
  -17.7060  -30.0720   23.8600 C   0  0  0  0  0  3  0  0  0  0  0  0
  -16.6660  -29.2230   23.4450 C   0  0  0  0  0  3  0  0  0  0  0  0
  -16.9670  -27.9630   22.8990 C   0  0  0  0  0  3  0  0  0  0  0  0
  -26.0860  -32.2690   23.6180 C   0  0  0  0  0  3  0  0  0  0  0  0
  -25.7590  -33.6240   24.0820 N   0  0  0  0  0  0  0  0  0  0  0  0
  -26.0030  -34.7440   23.3870 C   0  0  0  0  0  0  0  0  0  0  0  0
  -26.6010  -34.7470   22.3080 O   0  0  0  0  0  0  0  0  0  0  0  0
  -25.2210  -33.6940   24.9330 H   0  0  0  0  0  0  0  0  0  0  0  0
  -24.1930  -36.4860   23.2990 C   0  0  0  0  0  1  0  0  0  0  0  0
  -25.5030  -36.0720   23.9860 C   0  0  0  0  0  3  0  0  0  0  0  0
  -27.6650  -36.9730   24.7260 C   0  0  0  0  0  1  0  0  0  0  0  0
  -26.4890  -37.1710   23.8830 N   0  0  0  0  0  0  0  0  0  0  0  0
  -26.0640  -38.0600   24.1350 H   0  0  0  0  0  0  0  0  0  0  0  0
  -26.7330  -31.4200   24.7810 C   0  0  1  0  0  0  0  0  0  0  0  0
  -25.7310  -31.0220   25.8880 C   0  0  0  0  0  1  0  0  0  0  0  0
  -27.3630  -30.1230   24.2220 C   0  0  0  0  0  1  0  0  0  0  0  0
  -27.8810  -32.2230   25.4390 C   0  0  0  0  0  1  0  0  0  0  0  0
  1  2  1  0
  1  8  1  0
  2  4  1  0
  3  1  2  0
  5  6  1  0
  7  8  1  0
  7 10  2  0
  8  5  2  0
  9  6  2  0
  9 11  1  0
 10  9  1  0
 12 20  1  0
 13 18  1  0
 14 15  1  0
 14 13  1  0
 16 15  1  0
 16 25  1  0
 16 17  1  0
 18 12  1  0
 18 17  1  0
 19 12  2  0
 20 21  1  0
 20 10  1  0
 22 23  2  0
 23 42  1  0
 24 23  1  0
 24 27  1  0
 25 26  1  0
 25 22  1  0
 26 24  2  0
 27 28  1  0
 28 29  2  0
 30 33  1  0
 30 29  1  0
 31 30  2  0
 32 31  1  0
 32 27  2  0
 33 34  1  0
 34 39  2  0
 34 35  1  0
 35 36  2  0
 36 37  1  0
 37 41  1  0
 38 37  2  0
 39 38  1  0
 40 39  1  0
 42 43  1  0
 43 46  1  0
 43 45  1  0
 44 42  2  0
 47 22  1  0
 47 48  1  0
 49 47  1  0
 50  2  1  0
 51 53  1  0
 51 50  1  0
 52 56  1  0
 53 52  1  0
 53 55  1  0
 54 52  2  0
 57 59  1  0
 57 56  1  0
 58 69  2  0
 59 64  1  0
 60 68  1  0
 60 70  1  0
 61 67  1  0
 61 63  1  0
 62 68  1  0
 63 62  1  0
 64 63  2  0
 65 66  1  0
 65 59  2  0
 66 61  2  0
 67 60  1  0
 68 58  1  0
 70 72  2  0
 71 70  1  0
 73 71  1  0
 74 83  2  0
 74 79  1  0
 75 71  1  0
 75 79  1  0
 76 75  1  0
 77 78  1  0
 77 76  1  0
 78 74  1  0
 79 80  2  0
 80 81  1  0
 82 81  2  0
 83 82  1  0
 84 58  1  0
 84 85  1  0
 84 94  1  0
 85 88  1  0
 86 90  1  0
 86 85  1  0
 87 86  2  0
 90 89  1  0
 92 90  1  0
 92 93  1  0
 92 91  1  0
 94 97  1  1
 94 95  1  0
 96 94  1  0
M  ISO  4  12 100  20 100  56 101  57 101
M  END
>  <TORSDO>  (31) 
F 21

>  <SCORE>  (31) 
-3.848

>  <name>  (31) 
30

>  <ligand_id>  (31) 
30

>  <original_smiles>  (31) 
[H]c1c([H])c([H])c2c(c1[H])C([H])([H])C([H])([H])C([H])([H])C2([H])N([H])C(=O)C1([H])N(C(=O)C([H])(N([H])C(=O)C([H])(N([H])C([H])([H])[H])C([H])([H])[H])C(C([H])([H])[H])(C([H])([H])[H])C([H])([H])[H])C([H])([H])c2c([H])c(OC([H])([H])C(=O)N([H])C([H])([H])C([H])([H])N([H])C(=O)c3c([H])c([H])c(C([H])([H])[H])c(N([H])C(=O)N4C([H])([H])C([H])([H])C([H])([H])C([H])(n5nc(-c6c([H])c([H])c(Oc7c([H])c([H])c(F)c([H])c7F)c([H])c6[H])c(C(=O)N([H])[H])c5N([H])[H])C4([H])[H])c3[H])c([H])c([H])c2C1([H])[H]

>  <smiles>  (31) 
[H]c1c([H])c([H])c2c(c1[H])C([H])([H])C([H])([H])C([H])([H])C2([H])N([H])C(=O)C1([H])N(C(=O)C([H])(N([H])C(=O)C([H])(N([H])C([H])([H])[H])C([H])([H])[H])C(C([H])([H])[H])(C([H])([H])[H])C([H])([H])[H])C([H])([H])c2c([H])c(OC([H])([H])C(=O)N([H])C([H])([H])C([H])([H])N([H])C(=O)c3c([H])c([H])c(C([H])([H])[H])c(N([H])C(=O)N4C([H])([H])C([H])([H])C([H])([H])C([H])(n5nc(-c6c([H])c([H])c(Oc7c([H])c([H])c(F)c([H])c7F)c([H])c6[H])c(C(=O)N([H])[H])c5N([H])[H])C4([H])[H])c3[H])c([H])c([H])c2C1([H])[H]

$$$$
31:0:0
     RDKit          3D

 97106  0  0  1  0  0  0  0  0999 V2000
  -28.7580  -20.8350   21.4590 C   0  0  0  0  0  2  0  0  0  0  0  0
  -29.1570  -22.2950   19.6430 C   0  0  0  0  0  2  0  0  0  0  0  0
  -30.2770  -20.8130   21.2480 C   0  0  0  0  0  3  0  0  0  0  0  0
  -30.4560  -22.1710   20.4800 C   0  0  0  0  0  3  0  0  0  0  0  0
  -26.8010  -21.6460   20.1560 C   0  0  0  0  0  1  0  0  0  0  0  0
  -28.2280  -21.2590   20.1490 N   0  0  2  0  0  4  0  0  0  0  0  0
  -28.3230  -20.4600   19.5370 H   0  0  0  0  0  0  0  0  0  0  0  0
  -30.9850  -18.3020   18.3520 C   0  0  0  0  0  3  0  0  0  0  0  0
  -30.6880  -19.4860   19.0470 C   0  0  0  0  0  3  0  0  0  0  0  0
  -31.2540  -17.1170   19.0520 C   0  0  0  0  0  3  0  0  0  0  0  0
  -30.9590  -18.3070   21.1590 C   0  0  0  0  0  3  0  0  0  0  0  0
  -30.6670  -19.5200   20.4640 C   0  0  0  0  0  0  0  0  0  0  0  0
  -31.2400  -17.0980   20.4630 C   0  0  0  0  0  0  0  0  0  0  0  0
  -32.0290  -14.7760   20.6460 C   0  0  0  0  0  0  0  0  0  0  0  0
  -31.6150  -12.6450   19.4760 C   0  0  0  0  0  2  0  0  0  0  0  0
  -30.7670  -12.9300   18.2190 C   0  0  0  0  0  2  0  0  0  0  0  0
  -29.2640  -12.9450   18.5570 C   0  0  0  0  0  2  0  0  0  0  0  0
  -28.9340  -13.8040   19.8050 C   0  0  0  0  0  3  0  0  0  0  0  0
  -29.8900  -13.4720   20.9740 C   0  0  0  0  0  2  0  0  0  0  0  0
  -31.2750  -13.6510   20.4970 N   0  0  0  0  0  0  0  0  0  0  0  0
  -33.1870  -14.8670   20.2240 O   0  0  0  0  0  0  0  0  0  0  0  0
  -31.3840  -15.8490   21.1520 N   0  0  0  0  0  0  0  0  0  0  0  0
  -30.5880  -15.6100   21.7250 H   0  0  0  0  0  0  0  0  0  0  0  0
  -26.5690  -14.6430   20.3780 C   0  0  0  0  0  0  0  0  0  0  0  0
  -25.4100  -13.9780   20.6800 C   0  0  0  0  0  0  0  0  0  0  0  0
  -25.7400  -12.5880   20.6700 C   0  0  0  0  0  0  0  0  0  0  0  0
  -27.5350  -13.6650   20.1990 N   0  0  0  0  0  0  0  0  0  0  0  0
  -27.0350  -12.4230   20.4320 N   0  0  0  0  0  0  0  0  0  0  0  0
  -24.8870  -11.4000   20.8140 C   0  0  0  0  0  0  0  0  0  0  0  0
  -25.1940  -10.3780   21.7380 C   0  0  0  0  0  3  0  0  0  0  0  0
  -24.3490   -9.2550   21.8710 C   0  0  0  0  0  3  0  0  0  0  0  0
  -23.1830   -9.1460   21.0770 C   0  0  0  0  0  0  0  0  0  0  0  0
  -22.8940  -10.1560   20.1410 C   0  0  0  0  0  3  0  0  0  0  0  0
  -23.7390  -11.2710   20.0070 C   0  0  0  0  0  3  0  0  0  0  0  0
  -22.3180   -8.0790   21.1180 O   0  0  0  0  0  0  0  0  0  0  0  0
  -22.1340   -7.3470   22.2630 C   0  0  0  0  0  0  0  0  0  0  0  0
  -21.6850   -7.9410   23.4630 C   0  0  0  0  0  3  0  0  0  0  0  0
  -21.4400   -7.1400   24.5960 C   0  0  0  0  0  3  0  0  0  0  0  0
  -21.6340   -5.7470   24.5310 C   0  0  0  0  0  0  0  0  0  0  0  0
  -22.0760   -5.1530   23.3340 C   0  0  0  0  0  3  0  0  0  0  0  0
  -22.3210   -5.9520   22.2040 C   0  0  0  0  0  0  0  0  0  0  0  0
  -22.7270   -5.3710   21.0480 F   0  0  0  0  0  0  0  0  0  0  0  0
  -21.3920   -4.9770   25.6170 F   0  0  0  0  0  0  0  0  0  0  0  0
  -24.0520  -14.5870   20.8740 C   0  0  0  0  0  0  0  0  0  0  0  0
  -23.2190  -13.9800   21.7130 N   0  0  0  0  0  0  0  0  0  0  0  0
  -23.7360  -15.6370   20.3150 O   0  0  0  0  0  0  0  0  0  0  0  0
  -23.4860  -13.1310   22.1880 H   0  0  0  0  0  0  0  0  0  0  0  0
  -22.3030  -14.3690   21.8820 H   0  0  0  0  0  0  0  0  0  0  0  0
  -26.8770  -15.9920   20.2230 N   0  0  0  0  0  0  0  0  0  0  0  0
  -26.1740  -16.7180   20.3010 H   0  0  0  0  0  0  0  0  0  0  0  0
  -27.7850  -16.3450   19.9450 H   0  0  0  0  0  0  0  0  0  0  0  0
  -30.7540  -24.6450   20.8430 C   0  0  0  0  0  0  0  0  0  0  0  0
  -30.6250  -23.3840   21.3160 N   0  0  0  0  0  0  0  0  0  0  0  0
  -30.9130  -24.8690   19.6410 O   0  0  0  0  0  0  0  0  0  0  0  0
  -30.5290  -23.2800   22.3200 H   0  0  0  0  0  0  0  0  0  0  0  0
  -30.6500  -25.8180   21.8510 C   0  0  0  0  0  2  0  0  0  0  0  0
  -30.6220  -27.1170   21.2170 O   0  0  0  0  0  0  0  0  0  0  0  0
  -25.6630  -31.5340   23.8480 C   0  0  0  0  0  0  0  0  0  0  0  0
  -29.3750  -27.6890   21.0770 C   0  0  0  0  0  0  0  0  0  0  0  0
  -24.9440  -30.0750   21.9830 C   0  0  0  0  0  3  0  0  0  0  0  0
  -26.8100  -28.8440   20.7540 C   0  0  0  0  0  0  0  0  0  0  0  0
  -27.3880  -30.8010   22.2000 C   0  0  0  0  0  2  0  0  0  0  0  0
  -27.7760  -29.4930   21.5350 C   0  0  0  0  0  0  0  0  0  0  0  0
  -29.0630  -28.9250   21.6920 C   0  0  0  0  0  3  0  0  0  0  0  0
  -28.3920  -27.0530   20.2910 C   0  0  0  0  0  3  0  0  0  0  0  0
  -27.1140  -27.6220   20.1290 C   0  0  0  0  0  3  0  0  0  0  0  0
  -25.4590  -29.5150   20.6310 C   0  0  0  0  0  2  0  0  0  0  0  0
  -26.0060  -30.8170   22.7390 N   0  0  0  0  0  0  0  0  0  0  0  0
  -24.4850  -31.6170   24.2210 O   0  0  0  0  0  0  0  0  0  0  0  0
  -24.3130  -28.9180   22.7910 C   0  0  0  0  0  0  0  0  0  0  0  0
  -23.0730  -28.5430   22.4340 N   0  0  0  0  0  0  0  0  0  0  0  0
  -24.9450  -28.3590   23.6910 O   0  0  0  0  0  0  0  0  0  0  0  0
  -22.6220  -29.0570   21.6910 H   0  0  0  0  0  0  0  0  0  0  0  0
  -19.8970  -26.8250   22.3120 C   0  0  0  0  0  0  0  0  0  0  0  0
  -22.3000  -27.4510   23.0260 C   0  0  0  0  0  3  0  0  0  0  0  0
  -22.7210  -26.0860   22.4340 C   0  0  0  0  0  2  0  0  0  0  0  0
  -21.8680  -25.6580   21.2370 C   0  0  0  0  0  2  0  0  0  0  0  0
  -20.3930  -25.5570   21.6390 C   0  0  0  0  0  2  0  0  0  0  0  0
  -20.7930  -27.7230   22.9490 C   0  0  0  0  0  0  0  0  0  0  0  0
  -20.2840  -28.9040   23.5300 C   0  0  0  0  0  3  0  0  0  0  0  0
  -18.9070  -29.1930   23.4820 C   0  0  0  0  0  3  0  0  0  0  0  0
  -18.0210  -28.2940   22.8630 C   0  0  0  0  0  3  0  0  0  0  0  0
  -18.5150  -27.1120   22.2840 C   0  0  0  0  0  3  0  0  0  0  0  0
  -26.7330  -32.3020   24.6850 C   0  0  0  0  0  3  0  0  0  0  0  0
  -27.0110  -31.6430   26.0910 C   0  0  1  0  0  0  0  0  0  0  0  0
  -25.7300  -31.3560   26.9080 C   0  0  0  0  0  1  0  0  0  0  0  0
  -27.7760  -30.3090   25.9260 C   0  0  0  0  0  1  0  0  0  0  0  0
  -27.9200  -32.5690   26.9350 C   0  0  0  0  0  1  0  0  0  0  0  0
  -26.2610  -33.6840   24.8460 N   0  0  0  0  0  0  0  0  0  0  0  0
  -26.6430  -34.7110   24.0750 C   0  0  0  0  0  0  0  0  0  0  0  0
  -27.4970  -34.6030   23.1900 O   0  0  0  0  0  0  0  0  0  0  0  0
  -25.5210  -33.8340   25.5160 H   0  0  0  0  0  0  0  0  0  0  0  0
  -24.8510  -36.2940   23.2980 C   0  0  0  0  0  1  0  0  0  0  0  0
  -25.9730  -36.0750   24.3260 C   0  0  0  0  0  3  0  0  0  0  0  0
  -27.8610  -37.2230   25.3980 C   0  0  0  0  0  1  0  0  0  0  0  0
  -26.9180  -37.2120   24.2820 N   0  0  0  0  0  0  0  0  0  0  0  0
  -26.4190  -38.0970   24.2800 H   0  0  0  0  0  0  0  0  0  0  0  0
  2  6  1  0
  2  4  1  0
  3 12  1  0
  3  1  1  0
  4  3  1  0
  4 53  1  0
  6  5  1  0
  6  1  1  0
  6  7  1  6
  8  9  2  0
  8 10  1  0
  9 12  1  0
 10 13  2  0
 12 11  2  0
 13 22  1  0
 13 11  1  0
 14 22  1  0
 15 20  1  0
 16 17  1  0
 16 15  1  0
 18 17  1  0
 18 27  1  0
 18 19  1  0
 20 14  1  0
 20 19  1  0
 21 14  2  0
 22 23  1  0
 24 25  2  0
 25 44  1  0
 26 25  1  0
 26 29  1  0
 27 24  1  0
 27 28  1  0
 28 26  2  0
 29 30  1  0
 30 31  2  0
 32 35  1  0
 32 31  1  0
 33 32  2  0
 34 33  1  0
 34 29  2  0
 35 36  1  0
 36 37  1  0
 37 38  2  0
 39 38  1  0
 39 43  1  0
 40 39  2  0
 41 36  2  0
 41 40  1  0
 42 41  1  0
 44 45  1  0
 45 48  1  0
 45 47  1  0
 46 44  2  0
 49 50  1  0
 49 24  1  0
 51 49  1  0
 52 53  1  0
 52 56  1  0
 53 55  1  0
 54 52  2  0
 57 56  1  0
 58 69  2  0
 59 57  1  0
 59 64  1  0
 60 68  1  0
 60 70  1  0
 61 63  1  0
 62 68  1  0
 63 64  2  0
 63 62  1  0
 65 59  2  0
 66 65  1  0
 66 61  2  0
 67 61  1  0
 67 60  1  0
 68 58  1  0
 70 72  2  0
 71 70  1  0
 73 71  1  0
 74 79  1  0
 75 71  1  0
 76 75  1  0
 77 78  1  0
 77 76  1  0
 78 74  1  0
 79 75  1  0
 79 80  2  0
 81 80  1  0
 82 81  2  0
 83 74  2  0
 83 82  1  0
 84 58  1  0
 84 89  1  0
 84 85  1  0
 85 86  1  1
 85 88  1  0
 87 85  1  0
 89 92  1  0
 90 94  1  0
 90 89  1  0
 91 90  2  0
 94 93  1  0
 96 94  1  0
 96 95  1  0
 97 96  1  0
M  ISO  4  14 100  22 100  56 101  57 101
M  END
>  <TORSDO>  (32) 
F 19

>  <SCORE>  (32) 
-10.171

>  <name>  (32) 
31

>  <ligand_id>  (32) 
31

>  <original_smiles>  (32) 
[H]c1c([H])c([H])c2c(c1[H])C([H])([H])C([H])([H])C([H])([H])C2([H])N([H])C(=O)C1([H])N(C(=O)C([H])(N([H])C(=O)C([H])(N([H])C([H])([H])[H])C([H])([H])[H])C(C([H])([H])[H])(C([H])([H])[H])C([H])([H])[H])C([H])([H])c2c([H])c(OC([H])([H])C(=O)N([H])C3([H])C([H])(c4c([H])c([H])c([H])c(N([H])C(=O)N5C([H])([H])C([H])([H])C([H])([H])C([H])(n6nc(-c7c([H])c([H])c(Oc8c([H])c([H])c(F)c([H])c8F)c([H])c7[H])c(C(=O)N([H])[H])c6N([H])[H])C5([H])[H])c4[H])C([H])([H])[N+]([H])(C([H])([H])[H])C3([H])[H])c([H])c([H])c2C1([H])[H]

>  <smiles>  (32) 
[H]c1c([H])c([H])c2c(c1[H])C([H])([H])C([H])([H])C([H])([H])C2([H])N([H])C(=O)C1([H])N(C(=O)C([H])(N([H])C(=O)C([H])(N([H])C([H])([H])[H])C([H])([H])[H])C(C([H])([H])[H])(C([H])([H])[H])C([H])([H])[H])C([H])([H])c2c([H])c(OC([H])([H])C(=O)N([H])C3([H])C([H])(c4c([H])c([H])c([H])c(N([H])C(=O)N5C([H])([H])C([H])([H])C([H])([H])C([H])(n6nc(-c7c([H])c([H])c(Oc8c([H])c([H])c(F)c([H])c8F)c([H])c7[H])c(C(=O)N([H])[H])c6N([H])[H])C5([H])[H])c4[H])C([H])([H])[N+]([H])(C([H])([H])[H])C3([H])[H])c([H])c([H])c2C1([H])[H]

$$$$
32:0:0
     RDKit          3D

101110  0  0  1  0  0  0  0  0999 V2000
  -30.1490  -22.1000   21.0920 C   0  0  0  0  0  2  0  0  0  0  0  0
  -30.8460  -23.1910   20.7540 C   0  0  0  0  0  3  0  0  0  0  0  0
  -32.3320  -22.9160   20.8850 C   0  0  0  0  0  2  0  0  0  0  0  0
  -31.0550  -21.0030   21.5960 C   0  0  0  0  0  3  0  0  0  0  0  0
  -33.4920  -21.0900   22.1190 C   0  0  0  0  0  1  0  0  0  0  0  0
  -32.4060  -21.4630   21.1880 N   0  0  2  0  0  4  0  0  0  0  0  0
  -32.6000  -21.0020   20.3110 H   0  0  0  0  0  0  0  0  0  0  0  0
  -30.5350  -18.5950   22.1610 C   0  0  0  0  0  3  0  0  0  0  0  0
  -30.7700  -19.1670   19.8040 C   0  0  0  0  0  3  0  0  0  0  0  0
  -30.3190  -17.2510   21.8130 C   0  0  0  0  0  3  0  0  0  0  0  0
  -30.5680  -17.8110   19.4550 C   0  0  0  0  0  3  0  0  0  0  0  0
  -30.7660  -19.5670   21.1630 C   0  0  0  0  0  0  0  0  0  0  0  0
  -30.3490  -16.8420   20.4660 C   0  0  0  0  0  0  0  0  0  0  0  0
  -30.6870  -14.5500   19.4450 C   0  0  0  0  0  0  0  0  0  0  0  0
  -30.4020  -12.2590   18.5520 C   0  0  0  0  0  2  0  0  0  0  0  0
  -29.3220  -12.2420   17.4500 C   0  0  0  0  0  2  0  0  0  0  0  0
  -27.9070  -12.1080   18.0510 C   0  0  0  0  0  2  0  0  0  0  0  0
  -27.6580  -13.1040   19.2130 C   0  0  0  0  0  3  0  0  0  0  0  0
  -28.8240  -13.0380   20.2220 C   0  0  0  0  0  2  0  0  0  0  0  0
  -30.0740  -13.3370   19.4940 N   0  0  0  0  0  0  0  0  0  0  0  0
  -31.6690  -14.7870   18.7330 O   0  0  0  0  0  0  0  0  0  0  0  0
  -30.0960  -15.4640   20.2330 N   0  0  0  0  0  0  0  0  0  0  0  0
  -29.3450  -15.0730   20.7790 H   0  0  0  0  0  0  0  0  0  0  0  0
  -25.4180  -13.7780   20.2970 C   0  0  0  0  0  0  0  0  0  0  0  0
  -24.3700  -13.0330   20.7650 C   0  0  0  0  0  0  0  0  0  0  0  0
  -24.7430  -11.6670   20.5780 C   0  0  0  0  0  0  0  0  0  0  0  0
  -26.3680  -12.8660   19.8600 N   0  0  0  0  0  0  0  0  0  0  0  0
  -25.9710  -11.5880   20.0820 N   0  0  0  0  0  0  0  0  0  0  0  0
  -23.9810  -10.4290   20.7900 C   0  0  0  0  0  0  0  0  0  0  0  0
  -24.4410   -9.4180   21.6600 C   0  0  0  0  0  3  0  0  0  0  0  0
  -23.6820   -8.2450   21.8590 C   0  0  0  0  0  3  0  0  0  0  0  0
  -22.4480   -8.0760   21.1860 C   0  0  0  0  0  0  0  0  0  0  0  0
  -22.0070   -9.0760   20.3020 C   0  0  0  0  0  3  0  0  0  0  0  0
  -22.7670  -10.2410   20.1010 C   0  0  0  0  0  3  0  0  0  0  0  0
  -21.6560   -6.9590   21.2970 O   0  0  0  0  0  0  0  0  0  0  0  0
  -21.5210   -6.2880   22.4860 C   0  0  0  0  0  0  0  0  0  0  0  0
  -21.0100   -6.9160   23.6420 C   0  0  0  0  0  3  0  0  0  0  0  0
  -20.8230   -6.1710   24.8240 C   0  0  0  0  0  3  0  0  0  0  0  0
  -21.1370   -4.7990   24.8500 C   0  0  0  0  0  0  0  0  0  0  0  0
  -21.6410   -4.1700   23.6970 C   0  0  0  0  0  3  0  0  0  0  0  0
  -21.8300   -4.9130   22.5180 C   0  0  0  0  0  0  0  0  0  0  0  0
  -22.2960   -4.2980   21.4040 F   0  0  0  0  0  0  0  0  0  0  0  0
  -20.9500   -4.0820   25.9810 F   0  0  0  0  0  0  0  0  0  0  0  0
  -23.0550  -13.5540   21.2700 C   0  0  0  0  0  0  0  0  0  0  0  0
  -22.4340  -12.8480   22.2080 N   0  0  0  0  0  0  0  0  0  0  0  0
  -22.5930  -14.6210   20.8670 O   0  0  0  0  0  0  0  0  0  0  0  0
  -22.8250  -11.9830   22.5530 H   0  0  0  0  0  0  0  0  0  0  0  0
  -21.5570  -13.1750   22.5850 H   0  0  0  0  0  0  0  0  0  0  0  0
  -25.6350  -15.1490   20.1890 N   0  0  0  0  0  0  0  0  0  0  0  0
  -24.9310  -15.8290   20.4530 H   0  0  0  0  0  0  0  0  0  0  0  0
  -26.4610  -15.5710   19.7820 H   0  0  0  0  0  0  0  0  0  0  0  0
  -30.5100  -25.5740   21.4910 C   0  0  0  0  0  1  0  0  0  0  0  0
  -31.1590  -25.0330   19.1060 C   0  0  0  0  0  1  0  0  0  0  0  0
  -30.3220  -24.5750   20.3210 C   0  0  1  0  0  0  0  0  0  0  0  0
  -28.8620  -24.4480   20.0080 N   0  0  0  0  0  4  0  0  0  0  0  0
  -28.7550  -23.5490   19.5610 H   0  0  0  0  0  0  0  0  0  0  0  0
  -28.3600  -24.3760   20.8810 H   0  0  0  0  0  0  0  0  0  0  0  0
  -28.4890  -26.9130   19.4470 C   0  0  0  0  0  1  0  0  0  0  0  0
  -28.1700  -25.4360   19.1160 C   0  0  0  0  0  3  0  0  0  0  0  0
  -26.6400  -25.2140   19.1710 C   0  0  0  0  0  2  0  0  0  0  0  0
  -25.9960  -26.1050   18.2620 O   0  0  0  0  0  0  0  0  0  0  0  0
  -25.0720  -30.5470   23.7420 C   0  0  0  0  0  0  0  0  0  0  0  0
  -25.2140  -27.0540   18.8630 C   0  0  0  0  0  0  0  0  0  0  0  0
  -23.1370  -30.2890   22.2200 C   0  0  0  0  0  3  0  0  0  0  0  0
  -23.6030  -29.0450   20.0410 C   0  0  0  0  0  0  0  0  0  0  0  0
  -25.5220  -29.9510   21.3660 C   0  0  0  0  0  2  0  0  0  0  0  0
  -24.9610  -28.9560   20.3720 C   0  0  0  0  0  0  0  0  0  0  0  0
  -25.7730  -27.9630   19.7850 C   0  0  0  0  0  3  0  0  0  0  0  0
  -23.8460  -27.1470   18.5360 C   0  0  0  0  0  3  0  0  0  0  0  0
  -23.0370  -28.1400   19.1260 C   0  0  0  0  0  3  0  0  0  0  0  0
  -22.8090  -30.1470   20.7080 C   0  0  0  0  0  2  0  0  0  0  0  0
  -24.6100  -30.2460   22.4950 N   0  0  0  0  0  0  0  0  0  0  0  0
  -24.3000  -30.9000   24.6430 O   0  0  0  0  0  0  0  0  0  0  0  0
  -22.3390  -29.2200   22.9990 C   0  0  0  0  0  0  0  0  0  0  0  0
  -21.0020  -29.2630   22.8730 N   0  0  0  0  0  0  0  0  0  0  0  0
  -22.9180  -28.3610   23.6690 O   0  0  0  0  0  0  0  0  0  0  0  0
  -20.6050  -30.0040   22.3110 H   0  0  0  0  0  0  0  0  0  0  0  0
  -17.5670  -28.1560   22.7860 C   0  0  0  0  0  0  0  0  0  0  0  0
  -20.0490  -28.3360   23.4790 C   0  0  0  0  0  3  0  0  0  0  0  0
  -20.2100  -26.9130   22.8970 C   0  0  0  0  0  2  0  0  0  0  0  0
  -19.2820  -26.6370   21.7110 C   0  0  0  0  0  2  0  0  0  0  0  0
  -17.8170  -26.8110   22.1220 C   0  0  0  0  0  2  0  0  0  0  0  0
  -18.6180  -28.8780   23.4090 C   0  0  0  0  0  0  0  0  0  0  0  0
  -18.3400  -30.1390   23.9790 C   0  0  0  0  0  3  0  0  0  0  0  0
  -17.0400  -30.6760   23.9390 C   0  0  0  0  0  3  0  0  0  0  0  0
  -15.9980  -29.9500   23.3360 C   0  0  0  0  0  3  0  0  0  0  0  0
  -16.2620  -28.6920   22.7650 C   0  0  0  0  0  3  0  0  0  0  0  0
  -26.5940  -30.4870   24.0870 C   0  0  0  0  0  3  0  0  0  0  0  0
  -26.8970  -31.6300   24.9580 N   0  0  0  0  0  0  0  0  0  0  0  0
  -27.6250  -32.6940   24.5920 C   0  0  0  0  0  0  0  0  0  0  0  0
  -28.1800  -32.7800   23.4930 O   0  0  0  0  0  0  0  0  0  0  0  0
  -26.4300  -31.6520   25.8530 H   0  0  0  0  0  0  0  0  0  0  0  0
  -26.8790  -35.0240   25.1640 C   0  0  0  0  0  1  0  0  0  0  0  0
  -27.7580  -33.8440   25.6080 C   0  0  0  0  0  3  0  0  0  0  0  0
  -29.9920  -33.3270   26.4830 C   0  0  0  0  0  1  0  0  0  0  0  0
  -29.1510  -34.3030   25.7950 N   0  0  0  0  0  0  0  0  0  0  0  0
  -29.1760  -35.1690   26.3250 H   0  0  0  0  0  0  0  0  0  0  0  0
  -27.0240  -29.1320   24.7690 C   0  0  1  0  0  0  0  0  0  0  0  0
  -26.1500  -28.7460   25.9850 C   0  0  0  0  0  1  0  0  0  0  0  0
  -26.9640  -27.9710   23.7510 C   0  0  0  0  0  1  0  0  0  0  0  0
  -28.4920  -29.2280   25.2500 C   0  0  0  0  0  1  0  0  0  0  0  0
  1  4  1  0
  2 54  1  0
  2  3  1  0
  2  1  1  0
  3  6  1  0
  4 12  1  0
  6  4  1  0
  6  5  1  0
  6  7  1  6
  9 12  1  0
 10  8  1  0
 11  9  2  0
 11 13  1  0
 12  8  2  0
 13 10  2  0
 14 20  1  0
 14 22  1  0
 15 20  1  0
 16 17  1  0
 16 15  1  0
 18 17  1  0
 18 27  1  0
 18 19  1  0
 20 19  1  0
 21 14  2  0
 22 13  1  0
 22 23  1  0
 24 25  2  0
 25 44  1  0
 26 25  1  0
 26 29  1  0
 27 28  1  0
 27 24  1  0
 28 26  2  0
 29 30  1  0
 30 31  2  0
 32 35  1  0
 32 31  1  0
 33 32  2  0
 34 33  1  0
 34 29  2  0
 35 36  1  0
 36 41  2  0
 36 37  1  0
 37 38  2  0
 38 39  1  0
 39 43  1  0
 40 39  2  0
 41 40  1  0
 42 41  1  0
 44 45  1  0
 45 47  1  0
 45 48  1  0
 46 44  2  0
 49 24  1  0
 49 50  1  0
 51 49  1  0
 54 53  1  6
 54 52  1  0
 55 54  1  0
 55 57  1  0
 56 55  1  0
 59 60  1  0
 59 58  1  0
 59 55  1  0
 61 63  1  0
 61 60  1  0
 62 73  2  0
 63 68  1  0
 64 72  1  0
 64 74  1  0
 65 67  1  0
 65 71  1  0
 66 72  1  0
 67 66  1  0
 68 67  2  0
 69 63  2  0
 69 70  1  0
 70 65  2  0
 71 64  1  0
 72 62  1  0
 74 76  2  0
 75 74  1  0
 77 75  1  0
 78 83  1  0
 79 75  1  0
 80 79  1  0
 81 82  1  0
 81 80  1  0
 82 78  1  0
 83 79  1  0
 83 84  2  0
 85 84  1  0
 86 85  2  0
 87 78  2  0
 87 86  1  0
 88 62  1  0
 88 98  1  0
 88 89  1  0
 89 92  1  0
 90 89  1  0
 90 94  1  0
 91 90  2  0
 94 93  1  0
 94 96  1  0
 96 97  1  0
 96 95  1  0
 98101  1  1
 98 99  1  0
100 98  1  0
M  ISO  4  14 100  22 100  60 101  61 101
M  END
>  <TORSDO>  (33) 
F 21

>  <SCORE>  (33) 
-10.639

>  <name>  (33) 
32

>  <ligand_id>  (33) 
32

>  <original_smiles>  (33) 
[H]C1=C(C(C([H])([H])[H])(C([H])([H])[H])[N+]([H])([H])C([H])(C([H])([H])[H])C([H])([H])Oc2c([H])c([H])c3c(c2[H])C([H])([H])N(C(=O)C([H])(N([H])C(=O)C([H])(N([H])C([H])([H])[H])C([H])([H])[H])C(C([H])([H])[H])(C([H])([H])[H])C([H])([H])[H])C([H])(C(=O)N([H])C2([H])c4c([H])c([H])c([H])c([H])c4C([H])([H])C([H])([H])C2([H])[H])C3([H])[H])C([H])([H])[N+]([H])(C([H])([H])[H])C1([H])c1c([H])c([H])c(N([H])C(=O)N2C([H])([H])C([H])([H])C([H])([H])C([H])(n3nc(-c4c([H])c([H])c(Oc5c([H])c([H])c(F)c([H])c5F)c([H])c4[H])c(C(=O)N([H])[H])c3N([H])[H])C2([H])[H])c([H])c1[H]

>  <smiles>  (33) 
[H]C1=C(C(C([H])([H])[H])(C([H])([H])[H])[N+]([H])([H])C([H])(C([H])([H])[H])C([H])([H])Oc2c([H])c([H])c3c(c2[H])C([H])([H])N(C(=O)C([H])(N([H])C(=O)C([H])(N([H])C([H])([H])[H])C([H])([H])[H])C(C([H])([H])[H])(C([H])([H])[H])C([H])([H])[H])C([H])(C(=O)N([H])C2([H])c4c([H])c([H])c([H])c([H])c4C([H])([H])C([H])([H])C2([H])[H])C3([H])[H])C([H])([H])[N+]([H])(C([H])([H])[H])C1([H])c1c([H])c([H])c(N([H])C(=O)N2C([H])([H])C([H])([H])C([H])([H])C([H])(n3nc(-c4c([H])c([H])c(Oc5c([H])c([H])c(F)c([H])c5F)c([H])c4[H])c(C(=O)N([H])[H])c3N([H])[H])C2([H])[H])c([H])c1[H]

$$$$
33:0:0
     RDKit          3D

 91 99  0  0  1  0  0  0  0  0999 V2000
  -30.1790  -21.6710   20.3980 C   0  0  0  0  0  0  0  0  0  0  0  0
  -29.1730  -22.5860   20.2460 N   0  0  0  0  0  0  0  0  0  0  0  0
  -31.3280  -22.0690   20.5980 O   0  0  0  0  0  0  0  0  0  0  0  0
  -28.2420  -22.2410   20.0600 H   0  0  0  0  0  0  0  0  0  0  0  0
  -31.0220  -19.3220   19.7700 C   0  0  0  0  0  3  0  0  0  0  0  0
  -28.8810  -19.4340   20.8510 C   0  0  0  0  0  3  0  0  0  0  0  0
  -31.0010  -17.8960   19.8140 C   0  0  0  0  0  3  0  0  0  0  0  0
  -28.8560  -18.0010   20.8960 C   0  0  0  0  0  3  0  0  0  0  0  0
  -29.9810  -20.1400   20.2980 C   0  0  0  0  0  0  0  0  0  0  0  0
  -29.9200  -17.1870   20.4050 C   0  0  0  0  0  0  0  0  0  0  0  0
  -30.5960  -14.6910   20.0440 C   0  0  0  0  0  0  0  0  0  0  0  0
  -30.3130  -12.4890   18.9190 C   0  0  0  0  0  2  0  0  0  0  0  0
  -29.2970  -12.6830   17.7720 C   0  0  0  0  0  2  0  0  0  0  0  0
  -27.8510  -12.5140   18.2840 C   0  0  0  0  0  2  0  0  0  0  0  0
  -27.5820  -13.3230   19.5820 C   0  0  0  0  0  3  0  0  0  0  0  0
  -28.7050  -13.1070   20.6210 C   0  0  0  0  0  2  0  0  0  0  0  0
  -29.9790  -13.4670   19.9750 N   0  0  0  0  0  0  0  0  0  0  0  0
  -31.7270  -14.8550   19.5770 O   0  0  0  0  0  0  0  0  0  0  0  0
  -29.8260  -15.7250   20.5120 N   0  0  0  0  0  0  0  0  0  0  0  0
  -28.9720  -15.3980   20.9420 H   0  0  0  0  0  0  0  0  0  0  0  0
  -25.2420  -13.9130   20.4650 C   0  0  0  0  0  0  0  0  0  0  0  0
  -24.1930  -13.1380   20.8740 C   0  0  0  0  0  0  0  0  0  0  0  0
  -24.6380  -11.7850   20.7710 C   0  0  0  0  0  0  0  0  0  0  0  0
  -26.2610  -13.0330   20.1350 N   0  0  0  0  0  0  0  0  0  0  0  0
  -25.9070  -11.7450   20.3790 N   0  0  0  0  0  0  0  0  0  0  0  0
  -23.9130  -10.5230   20.9670 C   0  0  0  0  0  0  0  0  0  0  0  0
  -24.3600   -9.5490   21.8870 C   0  0  0  0  0  3  0  0  0  0  0  0
  -23.6350   -8.3520   22.0710 C   0  0  0  0  0  3  0  0  0  0  0  0
  -22.4500   -8.1180   21.3330 C   0  0  0  0  0  0  0  0  0  0  0  0
  -22.0230   -9.0800   20.4020 C   0  0  0  0  0  3  0  0  0  0  0  0
  -22.7480  -10.2690   20.2160 C   0  0  0  0  0  3  0  0  0  0  0  0
  -21.6980   -6.9730   21.4260 O   0  0  0  0  0  0  0  0  0  0  0  0
  -21.6200   -6.2550   22.5930 C   0  0  0  0  0  0  0  0  0  0  0  0
  -21.1390   -6.8290   23.7890 C   0  0  0  0  0  3  0  0  0  0  0  0
  -21.0120   -6.0360   24.9480 C   0  0  0  0  0  3  0  0  0  0  0  0
  -21.3520   -4.6700   24.9090 C   0  0  0  0  0  0  0  0  0  0  0  0
  -21.8260   -4.0960   23.7160 C   0  0  0  0  0  3  0  0  0  0  0  0
  -21.9560   -4.8870   22.5590 C   0  0  0  0  0  0  0  0  0  0  0  0
  -22.3930   -4.3240   21.4070 F   0  0  0  0  0  0  0  0  0  0  0  0
  -21.2220   -3.9060   26.0180 F   0  0  0  0  0  0  0  0  0  0  0  0
  -22.8200  -13.6170   21.2470 C   0  0  0  0  0  0  0  0  0  0  0  0
  -22.1420  -12.9000   22.1360 N   0  0  0  0  0  0  0  0  0  0  0  0
  -22.3600  -14.6620   20.7880 O   0  0  0  0  0  0  0  0  0  0  0  0
  -22.5270  -12.0570   22.5340 H   0  0  0  0  0  0  0  0  0  0  0  0
  -21.2220  -13.2040   22.4250 H   0  0  0  0  0  0  0  0  0  0  0  0
  -25.4090  -15.2880   20.3240 N   0  0  0  0  0  0  0  0  0  0  0  0
  -24.6500  -15.9380   20.4920 H   0  0  0  0  0  0  0  0  0  0  0  0
  -26.2290  -15.7330   19.9330 H   0  0  0  0  0  0  0  0  0  0  0  0
  -29.3780  -24.0850   20.3590 C   0  0  0  0  0  3  0  0  0  0  0  0
  -28.1920  -25.0630   19.9560 C   0  0  0  0  0  3  0  0  0  0  0  0
  -28.3730  -26.5180   20.1900 O   0  0  0  0  0  0  0  0  0  0  0  0
  -24.6130  -31.8710   23.2430 C   0  0  0  0  0  0  0  0  0  0  0  0
  -27.2450  -27.3550   20.1430 C   0  0  0  0  0  0  0  0  0  0  0  0
  -23.4170  -30.4890   21.5810 C   0  0  0  0  0  3  0  0  0  0  0  0
  -24.8730  -28.9560   20.1450 C   0  0  0  0  0  0  0  0  0  0  0  0
  -25.9550  -30.8150   21.4100 C   0  0  0  0  0  2  0  0  0  0  0  0
  -26.0380  -29.4440   20.7490 C   0  0  0  0  0  0  0  0  0  0  0  0
  -27.2270  -28.6550   20.7390 C   0  0  0  0  0  3  0  0  0  0  0  0
  -26.0540  -26.9220   19.5140 C   0  0  0  0  0  3  0  0  0  0  0  0
  -24.8820  -27.7010   19.5210 C   0  0  0  0  0  3  0  0  0  0  0  0
  -23.6340  -29.8270   20.1960 C   0  0  0  0  0  2  0  0  0  0  0  0
  -24.6810  -31.0750   22.1350 N   0  0  0  0  0  0  0  0  0  0  0  0
  -23.5260  -32.1430   23.7750 O   0  0  0  0  0  0  0  0  0  0  0  0
  -22.7510  -29.4630   22.5280 C   0  0  0  0  0  0  0  0  0  0  0  0
  -21.4260  -29.2850   22.3910 N   0  0  0  0  0  0  0  0  0  0  0  0
  -23.4260  -28.8260   23.3420 O   0  0  0  0  0  0  0  0  0  0  0  0
  -20.9430  -29.8500   21.7070 H   0  0  0  0  0  0  0  0  0  0  0  0
  -18.0420  -28.1010   22.8730 C   0  0  0  0  0  0  0  0  0  0  0  0
  -20.6020  -28.3400   23.1450 C   0  0  0  0  0  3  0  0  0  0  0  0
  -20.6960  -26.9180   22.5460 C   0  0  0  0  0  2  0  0  0  0  0  0
  -19.5890  -26.6190   21.5270 C   0  0  0  0  0  2  0  0  0  0  0  0
  -18.2090  -26.7610   22.1750 C   0  0  0  0  0  2  0  0  0  0  0  0
  -19.1660  -28.8490   23.3140 C   0  0  0  0  0  0  0  0  0  0  0  0
  -18.9550  -30.1030   23.9260 C   0  0  0  0  0  3  0  0  0  0  0  0
  -17.6540  -30.6100   24.1030 C   0  0  0  0  0  3  0  0  0  0  0  0
  -16.5450  -29.8590   23.6770 C   0  0  0  0  0  3  0  0  0  0  0  0
  -16.7390  -28.6060   23.0690 C   0  0  0  0  0  3  0  0  0  0  0  0
  -25.8930  -32.4950   23.8780 C   0  0  0  0  0  3  0  0  0  0  0  0
  -26.3930  -31.7180   25.1580 C   0  0  1  0  0  0  0  0  0  0  0  0
  -25.2870  -31.4800   26.2130 C   0  0  0  0  0  1  0  0  0  0  0  0
  -26.9790  -30.3410   24.7660 C   0  0  0  0  0  1  0  0  0  0  0  0
  -27.5370  -32.5080   25.8370 C   0  0  0  0  0  1  0  0  0  0  0  0
  -25.5860  -33.8940   24.2130 N   0  0  0  0  0  0  0  0  0  0  0  0
  -25.9070  -34.9460   23.4480 C   0  0  0  0  0  0  0  0  0  0  0  0
  -26.5640  -34.8430   22.4090 O   0  0  0  0  0  0  0  0  0  0  0  0
  -25.0030  -34.0500   25.0210 H   0  0  0  0  0  0  0  0  0  0  0  0
  -24.1630  -36.7300   23.1290 C   0  0  0  0  0  1  0  0  0  0  0  0
  -25.4260  -36.3340   23.9110 C   0  0  0  0  0  3  0  0  0  0  0  0
  -27.5720  -37.2370   24.6910 C   0  0  0  0  0  1  0  0  0  0  0  0
  -26.4490  -37.3920   23.7680 N   0  0  0  0  0  0  0  0  0  0  0  0
  -26.0410  -38.3110   23.9170 H   0  0  0  0  0  0  0  0  0  0  0  0
  1  3  2  0
  2 49  1  0
  2  1  1  0
  4  2  1  0
  5  7  2  0
  5  9  1  0
  6  8  1  0
  7 10  1  0
  9  1  1  0
  9  6  2  0
 10 19  1  0
 10  8  2  0
 11 19  1  0
 12 17  1  0
 13 14  1  0
 13 12  1  0
 15 14  1  0
 15 24  1  0
 15 16  1  0
 17 11  1  0
 17 16  1  0
 18 11  2  0
 19 20  1  0
 21 22  2  0
 22 41  1  0
 23 22  1  0
 23 26  1  0
 24 25  1  0
 24 21  1  0
 25 23  2  0
 26 27  1  0
 27 28  2  0
 29 32  1  0
 29 28  1  0
 30 29  2  0
 31 30  1  0
 31 26  2  0
 32 33  1  0
 33 34  1  0
 34 35  2  0
 36 35  1  0
 36 40  1  0
 37 36  2  0
 38 33  2  0
 38 37  1  0
 39 38  1  0
 41 42  1  0
 42 45  1  0
 42 44  1  0
 43 41  2  0
 46 21  1  0
 46 47  1  0
 48 46  1  0
 50 51  1  0
 50 49  2  0
 52 63  2  0
 53 51  1  0
 53 58  1  0
 54 62  1  0
 54 64  1  0
 55 61  1  0
 55 57  1  0
 56 62  1  0
 57 56  1  0
 58 57  2  0
 59 60  1  0
 59 53  2  0
 60 55  2  0
 61 54  1  0
 62 52  1  0
 64 66  2  0
 65 64  1  0
 67 65  1  0
 68 77  2  0
 68 73  1  0
 69 65  1  0
 69 73  1  0
 70 69  1  0
 71 72  1  0
 71 70  1  0
 72 68  1  0
 73 74  2  0
 74 75  1  0
 76 75  2  0
 77 76  1  0
 78 52  1  0
 78 83  1  0
 78 79  1  0
 79 82  1  1
 79 80  1  0
 81 79  1  0
 83 86  1  0
 84 88  1  0
 84 83  1  0
 85 84  2  0
 88 87  1  0
 90 88  1  0
 90 91  1  0
 90 89  1  0
M  ISO  4  11 100  19 100  50 101  51 101
M  END
>  <TORSDO>  (34) 
F 19

>  <SCORE>  (34) 
-13.884

>  <name>  (34) 
33

>  <ligand_id>  (34) 
33

>  <original_smiles>  (34) 
[H]c1c([H])c([H])c2c(c1[H])C([H])([H])C([H])([H])C([H])([H])C2([H])N([H])C(=O)C1([H])N(C(=O)C([H])(N([H])C(=O)C([H])(N([H])C([H])([H])[H])C([H])([H])[H])C(C([H])([H])[H])(C([H])([H])[H])C([H])([H])[H])C([H])([H])c2c([H])c(OC([H])([H])C([H])([H])N([H])C(=O)c3c([H])c([H])c(N([H])C(=O)N4C([H])([H])C([H])([H])C([H])([H])C([H])(n5nc(-c6c([H])c([H])c(Oc7c([H])c([H])c(F)c([H])c7F)c([H])c6[H])c(C(=O)N([H])[H])c5N([H])[H])C4([H])[H])c([H])c3[H])c([H])c([H])c2C1([H])[H]

>  <smiles>  (34) 
[H]c1c([H])c([H])c2c(c1[H])C([H])([H])C([H])([H])C([H])([H])C2([H])N([H])C(=O)C1([H])N(C(=O)C([H])(N([H])C(=O)C([H])(N([H])C([H])([H])[H])C([H])([H])[H])C(C([H])([H])[H])(C([H])([H])[H])C([H])([H])[H])C([H])([H])c2c([H])c(OC([H])([H])C([H])([H])N([H])C(=O)c3c([H])c([H])c(N([H])C(=O)N4C([H])([H])C([H])([H])C([H])([H])C([H])(n5nc(-c6c([H])c([H])c(Oc7c([H])c([H])c(F)c([H])c7F)c([H])c6[H])c(C(=O)N([H])[H])c5N([H])[H])C4([H])[H])c([H])c3[H])c([H])c([H])c2C1([H])[H]

$$$$
34:0:0
     RDKit          3D

 93101  0  0  1  0  0  0  0  0999 V2000
  -28.2790  -23.3880   19.9970 C   0  0  0  0  0  3  0  0  0  0  0  0
  -29.3190  -22.0330   20.0060 C   0  0  0  0  0  0  0  0  0  0  0  0
  -28.2890  -18.9070   18.9800 C   0  0  0  0  0  2  0  0  0  0  0  0
  -27.6660  -20.1460   19.6300 C   0  0  0  0  0  2  0  0  0  0  0  0
  -29.6670  -19.2720   19.5310 C   0  0  0  0  0  3  0  0  0  0  0  0
  -28.9730  -20.5650   20.1270 N   0  0  0  0  0  0  0  0  0  0  0  0
  -30.5070  -22.2790   19.8020 O   0  0  0  0  0  0  0  0  0  0  0  0
  -30.8460  -15.3480   20.1810 C   0  0  0  0  0  0  0  0  0  0  0  0
  -30.7380  -12.9480   19.3030 C   0  0  0  0  0  2  0  0  0  0  0  0
  -29.8150  -12.8150   18.0710 C   0  0  0  0  0  2  0  0  0  0  0  0
  -28.3510  -12.6110   18.5050 C   0  0  0  0  0  2  0  0  0  0  0  0
  -27.9250  -13.5900   19.6320 C   0  0  0  0  0  3  0  0  0  0  0  0
  -28.9760  -13.6920   20.7540 C   0  0  0  0  0  2  0  0  0  0  0  0
  -30.2340  -14.0930   20.1150 N   0  0  0  0  0  0  0  0  0  0  0  0
  -32.0760  -15.3550   20.0620 O   0  0  0  0  0  0  0  0  0  0  0  0
  -30.3640  -17.9480   20.3010 C   0  0  0  0  0  0  0  0  0  0  0  0
  -30.0750  -16.5580   20.0810 N   0  0  0  0  0  0  0  0  0  0  0  0
  -31.2530  -18.2410   21.1020 O   0  0  0  0  0  0  0  0  0  0  0  0
  -29.1500  -16.4030   19.7160 H   0  0  0  0  0  0  0  0  0  0  0  0
  -25.5660  -14.1910   20.4080 C   0  0  0  0  0  0  0  0  0  0  0  0
  -24.4950  -13.4260   20.7750 C   0  0  0  0  0  0  0  0  0  0  0  0
  -24.9440  -12.0700   20.7330 C   0  0  0  0  0  0  0  0  0  0  0  0
  -26.5940  -13.3020   20.1480 N   0  0  0  0  0  0  0  0  0  0  0  0
  -26.2320  -12.0220   20.4160 N   0  0  0  0  0  0  0  0  0  0  0  0
  -24.2000  -10.8160   20.9150 C   0  0  0  0  0  0  0  0  0  0  0  0
  -24.6010   -9.8500   21.8650 C   0  0  0  0  0  3  0  0  0  0  0  0
  -23.8570   -8.6620   22.0360 C   0  0  0  0  0  3  0  0  0  0  0  0
  -22.6970   -8.4330   21.2570 C   0  0  0  0  0  0  0  0  0  0  0  0
  -22.3150   -9.3890   20.2990 C   0  0  0  0  0  3  0  0  0  0  0  0
  -23.0600  -10.5680   20.1260 C   0  0  0  0  0  3  0  0  0  0  0  0
  -21.9290   -7.2960   21.3350 O   0  0  0  0  0  0  0  0  0  0  0  0
  -21.8340   -6.5690   22.4960 C   0  0  0  0  0  0  0  0  0  0  0  0
  -21.3370   -7.1350   23.6900 C   0  0  0  0  0  3  0  0  0  0  0  0
  -21.1910   -6.3350   24.8400 C   0  0  0  0  0  3  0  0  0  0  0  0
  -21.5310   -4.9690   24.7990 C   0  0  0  0  0  0  0  0  0  0  0  0
  -22.0190   -4.4010   23.6080 C   0  0  0  0  0  3  0  0  0  0  0  0
  -22.1660   -5.1990   22.4590 C   0  0  0  0  0  0  0  0  0  0  0  0
  -22.6160   -4.6430   21.3090 F   0  0  0  0  0  0  0  0  0  0  0  0
  -21.3810   -4.1980   25.9010 F   0  0  0  0  0  0  0  0  0  0  0  0
  -23.1030  -13.9170   21.0460 C   0  0  0  0  0  0  0  0  0  0  0  0
  -22.3760  -13.2490   21.9330 N   0  0  0  0  0  0  0  0  0  0  0  0
  -22.6690  -14.9330   20.5030 O   0  0  0  0  0  0  0  0  0  0  0  0
  -22.7420  -12.4300   22.3960 H   0  0  0  0  0  0  0  0  0  0  0  0
  -21.4410  -13.5600   22.1530 H   0  0  0  0  0  0  0  0  0  0  0  0
  -25.7460  -15.5610   20.2440 N   0  0  0  0  0  0  0  0  0  0  0  0
  -24.9900  -16.2240   20.3880 H   0  0  0  0  0  0  0  0  0  0  0  0
  -26.5940  -15.9950   19.9090 H   0  0  0  0  0  0  0  0  0  0  0  0
  -25.7700  -22.9970   20.1810 C   0  0  0  0  0  1  0  0  0  0  0  0
  -27.2190  -22.5510   22.1660 C   0  0  0  0  0  1  0  0  0  0  0  0
  -27.0630  -23.2500   20.8660 N   0  0  1  0  0  4  0  0  0  0  0  0
  -26.9410  -24.2050   21.1660 H   0  0  0  0  0  0  0  0  0  0  0  0
  -28.7650  -25.0010   20.2980 C   0  0  0  0  0  2  0  0  0  0  0  0
  -28.4290  -26.4590   19.7740 O   0  0  0  0  0  0  0  0  0  0  0  0
  -24.6760  -31.9530   23.1430 C   0  0  0  0  0  0  0  0  0  0  0  0
  -27.2950  -27.3380   19.9570 C   0  0  0  0  0  0  0  0  0  0  0  0
  -23.4730  -30.5640   21.4980 C   0  0  0  0  0  3  0  0  0  0  0  0
  -24.9250  -29.0410   20.0180 C   0  0  0  0  0  0  0  0  0  0  0  0
  -26.0180  -30.8850   21.2890 C   0  0  0  0  0  2  0  0  0  0  0  0
  -26.1090  -29.5020   20.6070 C   0  0  0  0  0  0  0  0  0  0  0  0
  -27.2940  -28.6720   20.5480 C   0  0  0  0  0  3  0  0  0  0  0  0
  -26.0790  -26.9770   19.3440 C   0  0  0  0  0  3  0  0  0  0  0  0
  -24.9230  -27.7920   19.3740 C   0  0  0  0  0  3  0  0  0  0  0  0
  -23.6830  -29.9170   20.1030 C   0  0  0  0  0  2  0  0  0  0  0  0
  -24.7430  -31.1570   22.0310 N   0  0  0  0  0  0  0  0  0  0  0  0
  -23.5970  -32.1990   23.7020 O   0  0  0  0  0  0  0  0  0  0  0  0
  -22.8370  -29.5220   22.4530 C   0  0  0  0  0  0  0  0  0  0  0  0
  -21.5110  -29.3240   22.3550 N   0  0  0  0  0  0  0  0  0  0  0  0
  -23.5420  -28.8930   23.2470 O   0  0  0  0  0  0  0  0  0  0  0  0
  -20.9930  -29.8840   21.6940 H   0  0  0  0  0  0  0  0  0  0  0  0
  -18.1740  -28.0230   22.8980 C   0  0  0  0  0  0  0  0  0  0  0  0
  -20.7290  -28.3510   23.1250 C   0  0  0  0  0  3  0  0  0  0  0  0
  -20.8580  -26.9310   22.5230 C   0  0  0  0  0  2  0  0  0  0  0  0
  -19.7480  -26.5990   21.5210 C   0  0  0  0  0  2  0  0  0  0  0  0
  -18.3750  -26.6930   22.1920 C   0  0  0  0  0  2  0  0  0  0  0  0
  -19.2780  -28.8080   23.3220 C   0  0  0  0  0  0  0  0  0  0  0  0
  -19.0340  -30.0520   23.9450 C   0  0  0  0  0  3  0  0  0  0  0  0
  -17.7190  -30.5110   24.1470 C   0  0  0  0  0  3  0  0  0  0  0  0
  -16.6290  -29.7230   23.7400 C   0  0  0  0  0  3  0  0  0  0  0  0
  -16.8580  -28.4810   23.1200 C   0  0  0  0  0  3  0  0  0  0  0  0
  -25.9520  -32.6060   23.7560 C   0  0  0  0  0  3  0  0  0  0  0  0
  -26.5060  -31.8300   25.0150 C   0  0  1  0  0  0  0  0  0  0  0  0
  -25.4360  -31.5530   26.0980 C   0  0  0  0  0  1  0  0  0  0  0  0
  -27.1150  -30.4700   24.6040 C   0  0  0  0  0  1  0  0  0  0  0  0
  -27.6490  -32.6450   25.6680 C   0  0  0  0  0  1  0  0  0  0  0  0
  -25.6150  -33.9930   24.1180 N   0  0  0  0  0  0  0  0  0  0  0  0
  -25.9230  -35.0720   23.3860 C   0  0  0  0  0  0  0  0  0  0  0  0
  -26.5820  -35.0050   22.3460 O   0  0  0  0  0  0  0  0  0  0  0  0
  -25.0170  -34.1150   24.9220 H   0  0  0  0  0  0  0  0  0  0  0  0
  -24.1730  -36.8600   23.0920 C   0  0  0  0  0  1  0  0  0  0  0  0
  -25.4200  -36.4400   23.8860 C   0  0  0  0  0  3  0  0  0  0  0  0
  -27.5400  -37.3380   24.7450 C   0  0  0  0  0  1  0  0  0  0  0  0
  -26.4390  -37.5100   23.8000 N   0  0  0  0  0  0  0  0  0  0  0  0
  -26.0200  -38.4210   23.9660 H   0  0  0  0  0  0  0  0  0  0  0  0
  1  2  1  0
  1 52  1  0
  1 50  1  0
  2  6  1  0
  3  5  1  0
  3  4  1  0
  4  6  1  0
  5  6  1  0
  5 16  1  0
  7  2  2  0
  9 14  1  0
 10 11  1  0
 10  9  1  0
 12 11  1  0
 12 23  1  0
 12 13  1  0
 14  8  1  0
 14 13  1  0
 15  8  2  0
 16 18  2  0
 17  8  1  0
 17 16  1  0
 19 17  1  0
 20 21  2  0
 21 40  1  0
 22 21  1  0
 22 25  1  0
 23 20  1  0
 23 24  1  0
 24 22  2  0
 25 26  1  0
 26 27  2  0
 28 31  1  0
 28 27  1  0
 29 28  2  0
 30 29  1  0
 30 25  2  0
 31 32  1  0
 32 33  1  0
 33 34  2  0
 35 34  1  0
 35 39  1  0
 36 35  2  0
 37 32  2  0
 37 36  1  0
 38 37  1  0
 40 41  1  0
 41 44  1  0
 41 43  1  0
 42 40  2  0
 45 46  1  0
 45 20  1  0
 47 45  1  0
 48 50  1  0
 50 51  1  1
 50 49  1  0
 53 55  1  0
 53 52  1  0
 54 65  2  0
 55 60  1  0
 56 64  1  0
 56 66  1  0
 57 63  1  0
 57 59  1  0
 58 64  1  0
 59 58  1  0
 60 59  2  0
 61 62  1  0
 61 55  2  0
 62 57  2  0
 63 56  1  0
 64 54  1  0
 66 68  2  0
 67 66  1  0
 69 67  1  0
 70 79  2  0
 70 75  1  0
 71 67  1  0
 71 75  1  0
 72 71  1  0
 73 74  1  0
 73 72  1  0
 74 70  1  0
 75 76  2  0
 76 77  1  0
 78 77  2  0
 79 78  1  0
 80 54  1  0
 80 85  1  0
 80 81  1  0
 81 84  1  1
 81 82  1  0
 83 81  1  0
 85 88  1  0
 86 90  1  0
 86 85  1  0
 87 86  2  0
 90 89  1  0
 92 90  1  0
 92 93  1  0
 92 91  1  0
M  ISO  4   8 100  17 100  52 101  53 101
M  END
>  <TORSDO>  (35) 
F 19

>  <SCORE>  (35) 
-14.516

>  <name>  (35) 
34

>  <ligand_id>  (35) 
34

>  <original_smiles>  (35) 
[H]c1c([H])c([H])c2c(c1[H])C([H])([H])C([H])([H])C([H])([H])C2([H])N([H])C(=O)C1([H])N(C(=O)C([H])(N([H])C(=O)C([H])(N([H])C([H])([H])[H])C([H])([H])[H])C(C([H])([H])[H])(C([H])([H])[H])C([H])([H])[H])C([H])([H])c2c([H])c(OC([H])([H])C([H])(C(=O)N3C([H])([H])C([H])([H])C3([H])C(=O)N([H])C(=O)N3C([H])([H])C([H])([H])C([H])([H])C([H])(n4nc(-c5c([H])c([H])c(Oc6c([H])c([H])c(F)c([H])c6F)c([H])c5[H])c(C(=O)N([H])[H])c4N([H])[H])C3([H])[H])[N+]([H])(C([H])([H])[H])C([H])([H])[H])c([H])c([H])c2C1([H])[H]

>  <smiles>  (35) 
[H]c1c([H])c([H])c2c(c1[H])C([H])([H])C([H])([H])C([H])([H])C2([H])N([H])C(=O)C1([H])N(C(=O)C([H])(N([H])C(=O)C([H])(N([H])C([H])([H])[H])C([H])([H])[H])C(C([H])([H])[H])(C([H])([H])[H])C([H])([H])[H])C([H])([H])c2c([H])c(OC([H])([H])C([H])(C(=O)N3C([H])([H])C([H])([H])C3([H])C(=O)N([H])C(=O)N3C([H])([H])C([H])([H])C([H])([H])C([H])(n4nc(-c5c([H])c([H])c(Oc6c([H])c([H])c(F)c([H])c6F)c([H])c5[H])c(C(=O)N([H])[H])c4N([H])[H])C3([H])[H])[N+]([H])(C([H])([H])[H])C([H])([H])[H])c([H])c([H])c2C1([H])[H]

$$$$
35:0:0
     RDKit          3D

 91 99  0  0  1  0  0  0  0  0999 V2000
  -28.6550  -22.6160   19.8190 C   0  0  0  0  0  3  0  0  0  0  0  0
  -30.9720  -19.9540   21.8360 C   0  0  0  0  0  3  0  0  0  0  0  0
  -30.2510  -21.0950   21.3830 C   0  0  0  0  0  3  0  0  0  0  0  0
  -30.7770  -18.6210   21.3790 C   0  0  0  0  0  3  0  0  0  0  0  0
  -29.0600  -19.5530   19.9630 C   0  0  0  0  0  3  0  0  0  0  0  0
  -29.2430  -21.0420   20.3950 C   0  0  0  0  0  0  0  0  0  0  0  0
  -29.8040  -18.2620   20.4210 C   0  0  0  0  0  0  0  0  0  0  0  0
  -30.4280  -15.3810   20.1890 C   0  0  0  0  0  0  0  0  0  0  0  0
  -30.4260  -12.9220   19.3040 C   0  0  0  0  0  2  0  0  0  0  0  0
  -29.4930  -12.6610   18.0940 C   0  0  0  0  0  2  0  0  0  0  0  0
  -28.0530  -12.3770   18.5590 C   0  0  0  0  0  2  0  0  0  0  0  0
  -27.6020  -13.3550   19.6730 C   0  0  0  0  0  3  0  0  0  0  0  0
  -28.6640  -13.5410   20.7760 C   0  0  0  0  0  2  0  0  0  0  0  0
  -29.8650  -14.0710   20.1080 N   0  0  0  0  0  0  0  0  0  0  0  0
  -31.6600  -15.3640   20.0460 O   0  0  0  0  0  0  0  0  0  0  0  0
  -29.6460  -16.6600   20.1350 N   0  0  0  0  0  0  0  0  0  0  0  0
  -28.6900  -16.4310   19.9080 H   0  0  0  0  0  0  0  0  0  0  0  0
  -25.2430  -13.9100   20.4600 C   0  0  0  0  0  0  0  0  0  0  0  0
  -24.1860  -13.1330   20.8400 C   0  0  0  0  0  0  0  0  0  0  0  0
  -24.6550  -11.7830   20.8020 C   0  0  0  0  0  0  0  0  0  0  0  0
  -26.2830  -13.0360   20.2030 N   0  0  0  0  0  0  0  0  0  0  0  0
  -25.9430  -11.7500   20.4790 N   0  0  0  0  0  0  0  0  0  0  0  0
  -23.9300  -10.5200   20.9970 C   0  0  0  0  0  0  0  0  0  0  0  0
  -24.3600   -9.5560   21.9360 C   0  0  0  0  0  3  0  0  0  0  0  0
  -23.6310   -8.3610   22.1190 C   0  0  0  0  0  3  0  0  0  0  0  0
  -22.4580   -8.1210   21.3640 C   0  0  0  0  0  0  0  0  0  0  0  0
  -22.0480   -9.0730   20.4150 C   0  0  0  0  0  3  0  0  0  0  0  0
  -22.7770  -10.2590   20.2300 C   0  0  0  0  0  3  0  0  0  0  0  0
  -21.7020   -6.9770   21.4560 O   0  0  0  0  0  0  0  0  0  0  0  0
  -21.6430   -6.2460   22.6150 C   0  0  0  0  0  0  0  0  0  0  0  0
  -21.1950   -6.8080   23.8300 C   0  0  0  0  0  3  0  0  0  0  0  0
  -21.0840   -6.0020   24.9800 C   0  0  0  0  0  3  0  0  0  0  0  0
  -21.4110   -4.6350   24.9180 C   0  0  0  0  0  0  0  0  0  0  0  0
  -21.8520   -4.0720   23.7080 C   0  0  0  0  0  3  0  0  0  0  0  0
  -21.9650   -4.8750   22.5590 C   0  0  0  0  0  0  0  0  0  0  0  0
  -22.3710   -4.3210   21.3910 F   0  0  0  0  0  0  0  0  0  0  0  0
  -21.2970   -3.8590   26.0210 F   0  0  0  0  0  0  0  0  0  0  0  0
  -22.7910  -13.6090   21.1170 C   0  0  0  0  0  0  0  0  0  0  0  0
  -22.0690  -12.9140   21.9870 N   0  0  0  0  0  0  0  0  0  0  0  0
  -22.3520  -14.6340   20.5970 O   0  0  0  0  0  0  0  0  0  0  0  0
  -22.4380  -12.0850   22.4290 H   0  0  0  0  0  0  0  0  0  0  0  0
  -21.1320  -13.2160   22.2170 H   0  0  0  0  0  0  0  0  0  0  0  0
  -25.4000  -15.2820   20.2820 N   0  0  0  0  0  0  0  0  0  0  0  0
  -24.6290  -15.9300   20.4040 H   0  0  0  0  0  0  0  0  0  0  0  0
  -26.2370  -15.7260   19.9280 H   0  0  0  0  0  0  0  0  0  0  0  0
  -27.6130  -22.3080   18.8250 N   0  0  0  0  0  4  0  0  0  0  0  0
  -26.7780  -21.9800   19.2760 H   0  0  0  0  0  0  0  0  0  0  0  0
  -27.9350  -21.6040   18.1870 H   0  0  0  0  0  0  0  0  0  0  0  0
  -27.3860  -23.1290   18.2910 H   0  0  0  0  0  0  0  0  0  0  0  0
  -28.1910  -24.2160   20.5840 C   0  0  0  0  0  2  0  0  0  0  0  0
  -28.2740  -25.8530   20.2310 O   0  0  0  0  0  0  0  0  0  0  0  0
  -24.6360  -31.8540   23.1960 C   0  0  0  0  0  0  0  0  0  0  0  0
  -27.2320  -26.9330   20.2480 C   0  0  0  0  0  0  0  0  0  0  0  0
  -23.4610  -30.4380   21.5630 C   0  0  0  0  0  3  0  0  0  0  0  0
  -24.9250  -28.8200   20.1700 C   0  0  0  0  0  0  0  0  0  0  0  0
  -26.0290  -30.6550   21.4300 C   0  0  0  0  0  2  0  0  0  0  0  0
  -26.1100  -29.2340   20.7900 C   0  0  0  0  0  0  0  0  0  0  0  0
  -27.2590  -28.3160   20.7940 C   0  0  0  0  0  3  0  0  0  0  0  0
  -26.0100  -26.6740   19.5870 C   0  0  0  0  0  3  0  0  0  0  0  0
  -24.9010  -27.5610   19.5480 C   0  0  0  0  0  3  0  0  0  0  0  0
  -23.7030  -29.7410   20.1960 C   0  0  0  0  0  2  0  0  0  0  0  0
  -24.7300  -31.0110   22.1160 N   0  0  0  0  0  0  0  0  0  0  0  0
  -23.5420  -32.1420   23.7070 O   0  0  0  0  0  0  0  0  0  0  0  0
  -22.7630  -29.4490   22.5340 C   0  0  0  0  0  0  0  0  0  0  0  0
  -21.4320  -29.2910   22.4140 N   0  0  0  0  0  0  0  0  0  0  0  0
  -23.4280  -28.8230   23.3620 O   0  0  0  0  0  0  0  0  0  0  0  0
  -20.9470  -29.8460   21.7230 H   0  0  0  0  0  0  0  0  0  0  0  0
  -18.0450  -28.0970   22.9430 C   0  0  0  0  0  0  0  0  0  0  0  0
  -20.6080  -28.3570   23.1900 C   0  0  0  0  0  3  0  0  0  0  0  0
  -20.7010  -26.9240   22.6150 C   0  0  0  0  0  2  0  0  0  0  0  0
  -19.5920  -26.6040   21.6080 C   0  0  0  0  0  2  0  0  0  0  0  0
  -18.2160  -26.7490   22.2610 C   0  0  0  0  0  2  0  0  0  0  0  0
  -19.1690  -28.8590   23.3640 C   0  0  0  0  0  0  0  0  0  0  0  0
  -18.9530  -30.1160   23.9670 C   0  0  0  0  0  3  0  0  0  0  0  0
  -17.6490  -30.6150   24.1480 C   0  0  0  0  0  3  0  0  0  0  0  0
  -16.5410  -29.8520   23.7380 C   0  0  0  0  0  3  0  0  0  0  0  0
  -16.7410  -28.5950   23.1420 C   0  0  0  0  0  3  0  0  0  0  0  0
  -25.8990  -32.5110   23.8330 C   0  0  0  0  0  3  0  0  0  0  0  0
  -26.3960  -31.7620   25.1300 C   0  0  1  0  0  0  0  0  0  0  0  0
  -25.2890  -31.5380   26.1870 C   0  0  0  0  0  1  0  0  0  0  0  0
  -26.9910  -30.3790   24.7780 C   0  0  0  0  0  1  0  0  0  0  0  0
  -27.5340  -32.5710   25.7970 C   0  0  0  0  0  1  0  0  0  0  0  0
  -25.5700  -33.9120   24.1530 N   0  0  0  0  0  0  0  0  0  0  0  0
  -25.9020  -34.9710   23.4030 C   0  0  0  0  0  0  0  0  0  0  0  0
  -26.5800  -34.8710   22.3770 O   0  0  0  0  0  0  0  0  0  0  0  0
  -24.9650  -34.0600   24.9480 H   0  0  0  0  0  0  0  0  0  0  0  0
  -24.1720  -36.7660   23.0460 C   0  0  0  0  0  1  0  0  0  0  0  0
  -25.4100  -36.3600   23.8620 C   0  0  0  0  0  3  0  0  0  0  0  0
  -27.5340  -37.2570   24.7070 C   0  0  0  0  0  1  0  0  0  0  0  0
  -26.4410  -37.4160   23.7530 N   0  0  0  0  0  0  0  0  0  0  0  0
  -26.0310  -38.3360   23.8900 H   0  0  0  0  0  0  0  0  0  0  0  0
  1  6  1  0
  1 50  1  0
  3  2  1  0
  4  2  2  0
  5  6  1  0
  5  7  2  0
  6  3  2  0
  7  4  1  0
  9 14  1  0
 10 11  1  0
 10  9  1  0
 12 11  1  0
 12 21  1  0
 12 13  1  0
 14  8  1  0
 14 13  1  0
 15  8  2  0
 16  8  1  0
 16  7  1  0
 17 16  1  0
 18 19  2  0
 19 38  1  0
 20 19  1  0
 20 23  1  0
 21 18  1  0
 21 22  1  0
 22 20  2  0
 23 24  1  0
 24 25  2  0
 26 29  1  0
 26 25  1  0
 27 26  2  0
 28 27  1  0
 28 23  2  0
 29 30  1  0
 30 31  1  0
 31 32  2  0
 33 32  1  0
 33 37  1  0
 34 33  2  0
 35 30  2  0
 35 34  1  0
 36 35  1  0
 38 39  1  0
 39 42  1  0
 39 41  1  0
 40 38  2  0
 43 44  1  0
 43 18  1  0
 45 43  1  0
 46 47  1  0
 46  1  1  0
 48 46  1  0
 49 46  1  0
 51 53  1  0
 51 50  1  0
 52 63  2  0
 53 58  1  0
 54 62  1  0
 54 64  1  0
 55 61  1  0
 55 57  1  0
 56 62  1  0
 57 58  2  0
 57 56  1  0
 59 53  2  0
 60 59  1  0
 60 55  2  0
 61 54  1  0
 62 52  1  0
 64 66  2  0
 65 64  1  0
 67 65  1  0
 68 77  2  0
 68 73  1  0
 69 65  1  0
 69 73  1  0
 70 69  1  0
 71 72  1  0
 71 70  1  0
 72 68  1  0
 73 74  2  0
 74 75  1  0
 76 75  2  0
 77 76  1  0
 78 52  1  0
 78 83  1  0
 78 79  1  0
 79 82  1  1
 79 80  1  0
 81 79  1  0
 83 86  1  0
 84 88  1  0
 84 83  1  0
 85 84  2  0
 88 87  1  0
 90 88  1  0
 90 91  1  0
 90 89  1  0
M  ISO  4   8 100  16 100  50 101  51 101
M  END
>  <TORSDO>  (36) 
F 19

>  <SCORE>  (36) 
-16.339

>  <name>  (36) 
35

>  <ligand_id>  (36) 
35

>  <original_smiles>  (36) 
[H]c1c([H])c([H])c2c(c1[H])C([H])([H])C([H])([H])C([H])([H])C2([H])N([H])C(=O)C1([H])N(C(=O)C([H])(N([H])C(=O)C([H])(N([H])C([H])([H])[H])C([H])([H])[H])C(C([H])([H])[H])(C([H])([H])[H])C([H])([H])[H])C([H])([H])c2c([H])c(OC([H])([H])C([H])(c3c([H])c([H])c([H])c(N([H])C(=O)N4C([H])([H])C([H])([H])C([H])([H])C([H])(n5nc(-c6c([H])c([H])c(Oc7c([H])c([H])c(F)c([H])c7F)c([H])c6[H])c(C(=O)N([H])[H])c5N([H])[H])C4([H])[H])c3[H])[N+]([H])([H])[H])c([H])c([H])c2C1([H])[H]

>  <smiles>  (36) 
[H]c1c([H])c([H])c2c(c1[H])C([H])([H])C([H])([H])C([H])([H])C2([H])N([H])C(=O)C1([H])N(C(=O)C([H])(N([H])C(=O)C([H])(N([H])C([H])([H])[H])C([H])([H])[H])C(C([H])([H])[H])(C([H])([H])[H])C([H])([H])[H])C([H])([H])c2c([H])c(OC([H])([H])C([H])(c3c([H])c([H])c([H])c(N([H])C(=O)N4C([H])([H])C([H])([H])C([H])([H])C([H])(n5nc(-c6c([H])c([H])c(Oc7c([H])c([H])c(F)c([H])c7F)c([H])c6[H])c(C(=O)N([H])[H])c5N([H])[H])C4([H])[H])c3[H])[N+]([H])([H])[H])c([H])c([H])c2C1([H])[H]

$$$$
36:0:0
     RDKit          3D

 96104  0  0  1  0  0  0  0  0999 V2000
  -28.7700  -22.3030   20.8830 C   0  0  0  0  0  0  0  0  0  0  0  0
  -29.1230  -21.0360   20.4020 N   0  0  0  0  0  0  0  0  0  0  0  0
  -28.3450  -22.4320   22.0300 O   0  0  0  0  0  0  0  0  0  0  0  0
  -29.3610  -21.0040   19.4220 H   0  0  0  0  0  0  0  0  0  0  0  0
  -29.2590  -19.6350   22.5190 C   0  0  0  0  0  3  0  0  0  0  0  0
  -29.6750  -17.2100   22.5160 C   0  0  0  0  0  3  0  0  0  0  0  0
  -29.5020  -18.4420   20.4190 C   0  0  0  0  0  3  0  0  0  0  0  0
  -29.4320  -18.4140   23.2090 C   0  0  0  0  0  0  0  0  0  0  0  0
  -29.2870  -19.7180   21.1000 C   0  0  0  0  0  0  0  0  0  0  0  0
  -29.7060  -17.1680   21.1060 C   0  0  0  0  0  0  0  0  0  0  0  0
  -29.3040  -18.3920   24.7230 C   0  0  0  0  0  1  0  0  0  0  0  0
  -30.5560  -14.7420   20.4910 C   0  0  0  0  0  0  0  0  0  0  0  0
  -30.4330  -12.4460   19.4790 C   0  0  0  0  0  2  0  0  0  0  0  0
  -29.5110  -12.4820   18.2350 C   0  0  0  0  0  2  0  0  0  0  0  0
  -28.0310  -12.3190   18.6460 C   0  0  0  0  0  2  0  0  0  0  0  0
  -27.6380  -13.2180   19.8490 C   0  0  0  0  0  3  0  0  0  0  0  0
  -28.6790  -13.1370   20.9850 C   0  0  0  0  0  2  0  0  0  0  0  0
  -29.9710  -13.5010   20.4020 N   0  0  0  0  0  0  0  0  0  0  0  0
  -31.7570  -14.8830   20.2460 O   0  0  0  0  0  0  0  0  0  0  0  0
  -29.6800  -15.8220   20.4910 N   0  0  0  0  0  0  0  0  0  0  0  0
  -28.7390  -15.4980   20.3330 H   0  0  0  0  0  0  0  0  0  0  0  0
  -25.2460  -13.8170   20.5610 C   0  0  0  0  0  0  0  0  0  0  0  0
  -24.1760  -13.0460   20.9220 C   0  0  0  0  0  0  0  0  0  0  0  0
  -24.6360  -11.6940   20.8810 C   0  0  0  0  0  0  0  0  0  0  0  0
  -26.2880  -12.9350   20.3260 N   0  0  0  0  0  0  0  0  0  0  0  0
  -25.9280  -11.6530   20.5850 N   0  0  0  0  0  0  0  0  0  0  0  0
  -23.9020  -10.4340   21.0460 C   0  0  0  0  0  0  0  0  0  0  0  0
  -24.3610   -9.4220   21.9190 C   0  0  0  0  0  3  0  0  0  0  0  0
  -23.6290   -8.2250   22.0740 C   0  0  0  0  0  3  0  0  0  0  0  0
  -22.4260   -8.0300   21.3540 C   0  0  0  0  0  0  0  0  0  0  0  0
  -21.9900   -9.0280   20.4630 C   0  0  0  0  0  3  0  0  0  0  0  0
  -22.7220  -10.2170   20.3050 C   0  0  0  0  0  3  0  0  0  0  0  0
  -21.6630   -6.8880   21.4240 O   0  0  0  0  0  0  0  0  0  0  0  0
  -21.6860   -6.0740   22.5290 C   0  0  0  0  0  0  0  0  0  0  0  0
  -21.4020   -6.5640   23.8220 C   0  0  0  0  0  3  0  0  0  0  0  0
  -21.3670   -5.6780   24.9170 C   0  0  0  0  0  3  0  0  0  0  0  0
  -21.6050   -4.3050   24.7230 C   0  0  0  0  0  0  0  0  0  0  0  0
  -21.8810   -3.8140   23.4350 C   0  0  0  0  0  3  0  0  0  0  0  0
  -21.9190   -4.6960   22.3410 C   0  0  0  0  0  0  0  0  0  0  0  0
  -22.1630   -4.2120   21.0990 F   0  0  0  0  0  0  0  0  0  0  0  0
  -21.5630   -3.4550   25.7760 F   0  0  0  0  0  0  0  0  0  0  0  0
  -22.7810  -13.5290   21.1930 C   0  0  0  0  0  0  0  0  0  0  0  0
  -22.0440  -12.8250   22.0460 N   0  0  0  0  0  0  0  0  0  0  0  0
  -22.3510  -14.5630   20.6820 O   0  0  0  0  0  0  0  0  0  0  0  0
  -22.4070  -11.9900   22.4810 H   0  0  0  0  0  0  0  0  0  0  0  0
  -21.1090  -13.1330   22.2790 H   0  0  0  0  0  0  0  0  0  0  0  0
  -25.4160  -15.1880   20.3960 N   0  0  0  0  0  0  0  0  0  0  0  0
  -24.6550  -15.8460   20.5220 H   0  0  0  0  0  0  0  0  0  0  0  0
  -26.2590  -15.6260   20.0530 H   0  0  0  0  0  0  0  0  0  0  0  0
  -28.8560  -23.6710   20.0300 C   0  0  0  0  0  3  0  0  0  0  0  0
  -28.5590  -23.4580   18.5940 N   0  0  0  0  0  4  0  0  0  0  0  0
  -27.5720  -23.3460   18.4270 H   0  0  0  0  0  0  0  0  0  0  0  0
  -29.0320  -22.6490   18.2340 H   0  0  0  0  0  0  0  0  0  0  0  0
  -28.8760  -24.2490   18.0590 H   0  0  0  0  0  0  0  0  0  0  0  0
  -28.0410  -24.9630   20.5890 C   0  0  0  0  0  2  0  0  0  0  0  0
  -28.3090  -26.3780   20.1460 O   0  0  0  0  0  0  0  0  0  0  0  0
  -24.6330  -31.8560   23.1980 C   0  0  0  0  0  0  0  0  0  0  0  0
  -27.2220  -27.2760   20.1260 C   0  0  0  0  0  0  0  0  0  0  0  0
  -23.4310  -30.4780   21.5350 C   0  0  0  0  0  3  0  0  0  0  0  0
  -24.8850  -28.9290   20.1080 C   0  0  0  0  0  0  0  0  0  0  0  0
  -25.9770  -30.7700   21.3850 C   0  0  0  0  0  2  0  0  0  0  0  0
  -26.0520  -29.3950   20.7220 C   0  0  0  0  0  0  0  0  0  0  0  0
  -27.2310  -28.5810   20.7190 C   0  0  0  0  0  3  0  0  0  0  0  0
  -26.0350  -26.8790   19.4770 C   0  0  0  0  0  3  0  0  0  0  0  0
  -24.8780  -27.6760   19.4770 C   0  0  0  0  0  3  0  0  0  0  0  0
  -23.6550  -29.8150   20.1520 C   0  0  0  0  0  2  0  0  0  0  0  0
  -24.6980  -31.0550   22.0950 N   0  0  0  0  0  0  0  0  0  0  0  0
  -23.5470  -32.1390   23.7260 O   0  0  0  0  0  0  0  0  0  0  0  0
  -22.7520  -29.4600   22.4840 C   0  0  0  0  0  0  0  0  0  0  0  0
  -21.4240  -29.3050   22.3570 N   0  0  0  0  0  0  0  0  0  0  0  0
  -23.4220  -28.8140   23.2930 O   0  0  0  0  0  0  0  0  0  0  0  0
  -20.9420  -29.8690   21.6690 H   0  0  0  0  0  0  0  0  0  0  0  0
  -18.0340  -28.1420   22.8450 C   0  0  0  0  0  0  0  0  0  0  0  0
  -20.5930  -28.3780   23.1280 C   0  0  0  0  0  3  0  0  0  0  0  0
  -20.6860  -26.9470   22.5560 C   0  0  0  0  0  2  0  0  0  0  0  0
  -19.5940  -26.6390   21.5270 C   0  0  0  0  0  2  0  0  0  0  0  0
  -18.2080  -26.7970   22.1610 C   0  0  0  0  0  2  0  0  0  0  0  0
  -19.1570  -28.8920   23.2850 C   0  0  0  0  0  0  0  0  0  0  0  0
  -18.9500  -30.1540   23.8860 C   0  0  0  0  0  3  0  0  0  0  0  0
  -17.6500  -30.6670   24.0510 C   0  0  0  0  0  3  0  0  0  0  0  0
  -16.5400  -29.9130   23.6290 C   0  0  0  0  0  3  0  0  0  0  0  0
  -16.7320  -28.6510   23.0350 C   0  0  0  0  0  3  0  0  0  0  0  0
  -25.9160  -32.4750   23.8330 C   0  0  0  0  0  3  0  0  0  0  0  0
  -26.4560  -31.6550   25.0700 C   0  0  1  0  0  0  0  0  0  0  0  0
  -25.3780  -31.3770   26.1420 C   0  0  0  0  0  1  0  0  0  0  0  0
  -27.0410  -30.2940   24.6250 C   0  0  0  0  0  1  0  0  0  0  0  0
  -27.6090  -32.4290   25.7510 C   0  0  0  0  0  1  0  0  0  0  0  0
  -25.5960  -33.8550   24.2240 N   0  0  0  0  0  0  0  0  0  0  0  0
  -25.9070  -34.9430   23.5060 C   0  0  0  0  0  0  0  0  0  0  0  0
  -26.5650  -34.8920   22.4640 O   0  0  0  0  0  0  0  0  0  0  0  0
  -25.0150  -33.9710   25.0410 H   0  0  0  0  0  0  0  0  0  0  0  0
  -24.1500  -36.7280   23.2620 C   0  0  0  0  0  1  0  0  0  0  0  0
  -25.4130  -36.3050   24.0300 C   0  0  0  0  0  3  0  0  0  0  0  0
  -27.5590  -37.1790   24.8460 C   0  0  0  0  0  1  0  0  0  0  0  0
  -26.4290  -37.3760   23.9410 N   0  0  0  0  0  0  0  0  0  0  0  0
  -26.0180  -38.2830   24.1420 H   0  0  0  0  0  0  0  0  0  0  0  0
  1  3  2  0
  2  1  1  0
  2  9  1  0
  4  2  1  0
  5  8  1  0
  6  8  2  0
  7  9  1  0
  7 10  2  0
  8 11  1  0
  9  5  2  0
 10  6  1  0
 12 20  1  0
 13 18  1  0
 14 15  1  0
 14 13  1  0
 16 15  1  0
 16 25  1  0
 16 17  1  0
 18 12  1  0
 18 17  1  0
 19 12  2  0
 20 10  1  0
 21 20  1  0
 22 23  2  0
 23 42  1  0
 24 23  1  0
 24 27  1  0
 25 22  1  0
 25 26  1  0
 26 24  2  0
 27 28  1  0
 28 29  2  0
 30 33  1  0
 30 29  1  0
 31 30  2  0
 32 31  1  0
 32 27  2  0
 33 34  1  0
 34 35  1  0
 35 36  2  0
 37 36  1  0
 37 41  1  0
 38 37  2  0
 39 34  2  0
 39 38  1  0
 40 39  1  0
 42 43  1  0
 43 46  1  0
 43 45  1  0
 44 42  2  0
 47 48  1  0
 47 22  1  0
 49 47  1  0
 50 55  1  0
 50  1  1  0
 51 50  1  0
 52 51  1  0
 53 51  1  0
 54 51  1  0
 56 55  1  0
 57 68  2  0
 58 56  1  0
 58 63  1  0
 59 67  1  0
 59 69  1  0
 60 66  1  0
 60 62  1  0
 61 67  1  0
 62 61  1  0
 63 62  2  0
 64 58  2  0
 65 64  1  0
 65 60  2  0
 66 59  1  0
 67 57  1  0
 69 71  2  0
 70 69  1  0
 72 70  1  0
 73 82  2  0
 73 78  1  0
 74 70  1  0
 74 78  1  0
 75 74  1  0
 76 77  1  0
 76 75  1  0
 77 73  1  0
 78 79  2  0
 79 80  1  0
 81 80  2  0
 82 81  1  0
 83 57  1  0
 83 88  1  0
 83 84  1  0
 84 87  1  1
 84 85  1  0
 86 84  1  0
 88 91  1  0
 89 93  1  0
 89 88  1  0
 90 89  2  0
 93 92  1  0
 95 93  1  0
 95 96  1  0
 95 94  1  0
M  ISO  4  12 100  20 100  55 101  56 101
M  END
>  <TORSDO>  (37) 
F 20

>  <SCORE>  (37) 
-5.373

>  <name>  (37) 
36

>  <ligand_id>  (37) 
36

>  <original_smiles>  (37) 
[H]c1c([H])c([H])c2c(c1[H])C([H])([H])C([H])([H])C([H])([H])C2([H])N([H])C(=O)C1([H])N(C(=O)C([H])(N([H])C(=O)C([H])(N([H])C([H])([H])[H])C([H])([H])[H])C(C([H])([H])[H])(C([H])([H])[H])C([H])([H])[H])C([H])([H])c2c([H])c(OC([H])([H])C([H])(C(=O)N([H])c3c([H])c(N([H])C(=O)N4C([H])([H])C([H])([H])C([H])([H])C([H])(n5nc(-c6c([H])c([H])c(Oc7c([H])c([H])c(F)c([H])c7F)c([H])c6[H])c(C(=O)N([H])[H])c5N([H])[H])C4([H])[H])c([H])c(C([H])([H])[H])c3[H])[N+]([H])([H])[H])c([H])c([H])c2C1([H])[H]

>  <smiles>  (37) 
[H]c1c([H])c([H])c2c(c1[H])C([H])([H])C([H])([H])C([H])([H])C2([H])N([H])C(=O)C1([H])N(C(=O)C([H])(N([H])C(=O)C([H])(N([H])C([H])([H])[H])C([H])([H])[H])C(C([H])([H])[H])(C([H])([H])[H])C([H])([H])[H])C([H])([H])c2c([H])c(OC([H])([H])C([H])(C(=O)N([H])c3c([H])c(N([H])C(=O)N4C([H])([H])C([H])([H])C([H])([H])C([H])(n5nc(-c6c([H])c([H])c(Oc7c([H])c([H])c(F)c([H])c7F)c([H])c6[H])c(C(=O)N([H])[H])c5N([H])[H])C4([H])[H])c([H])c(C([H])([H])[H])c3[H])[N+]([H])([H])[H])c([H])c([H])c2C1([H])[H]

$$$$
37:0:0
     RDKit          3D

101109  0  0  1  0  0  0  0  0999 V2000
  -30.9920  -21.7140   21.3140 C   0  0  0  0  0  2  0  0  0  0  0  0
  -31.8520  -19.3120   21.6850 C   0  0  0  0  0  3  0  0  0  0  0  0
  -31.6600  -17.9100   21.6560 C   0  0  0  0  0  3  0  0  0  0  0  0
  -29.7270  -19.6200   20.5730 C   0  0  0  0  0  3  0  0  0  0  0  0
  -30.8660  -20.1840   21.1750 C   0  0  0  0  0  0  0  0  0  0  0  0
  -30.4750  -17.3460   21.1210 C   0  0  0  0  0  0  0  0  0  0  0  0
  -29.5080  -18.2190   20.5410 C   0  0  0  0  0  0  0  0  0  0  0  0
  -31.0110  -14.8820   21.1750 C   0  0  0  0  0  0  0  0  0  0  0  0
  -30.8910  -12.6020   20.2400 C   0  0  0  0  0  2  0  0  0  0  0  0
  -30.0990  -12.6580   18.9160 C   0  0  0  0  0  2  0  0  0  0  0  0
  -28.5770  -12.5730   19.1680 C   0  0  0  0  0  2  0  0  0  0  0  0
  -28.0860  -13.5060   20.3090 C   0  0  0  0  0  3  0  0  0  0  0  0
  -29.0050  -13.4040   21.5440 C   0  0  0  0  0  2  0  0  0  0  0  0
  -30.3820  -13.6780   21.1020 N   0  0  0  0  0  0  0  0  0  0  0  0
  -32.2230  -15.0120   20.9720 O   0  0  0  0  0  0  0  0  0  0  0  0
  -30.1810  -15.9460   21.2270 N   0  0  0  0  0  0  0  0  0  0  0  0
  -29.2000  -15.7260   21.1370 H   0  0  0  0  0  0  0  0  0  0  0  0
  -25.6540  -14.1490   20.8550 C   0  0  0  0  0  0  0  0  0  0  0  0
  -24.5320  -13.3980   21.0700 C   0  0  0  0  0  0  0  0  0  0  0  0
  -24.9520  -12.0380   20.9880 C   0  0  0  0  0  0  0  0  0  0  0  0
  -26.6880  -13.2500   20.6510 N   0  0  0  0  0  0  0  0  0  0  0  0
  -26.2630  -11.9680   20.7950 N   0  0  0  0  0  0  0  0  0  0  0  0
  -24.1720  -10.7970   21.0280 C   0  0  0  0  0  0  0  0  0  0  0  0
  -24.5180   -9.7360   21.8940 C   0  0  0  0  0  3  0  0  0  0  0  0
  -23.7420   -8.5580   21.9270 C   0  0  0  0  0  3  0  0  0  0  0  0
  -22.6060   -8.4330   21.0930 C   0  0  0  0  0  0  0  0  0  0  0  0
  -22.2810   -9.4820   20.2140 C   0  0  0  0  0  3  0  0  0  0  0  0
  -23.0570  -10.6510   20.1780 C   0  0  0  0  0  3  0  0  0  0  0  0
  -21.8070   -7.3160   21.0390 O   0  0  0  0  0  0  0  0  0  0  0  0
  -21.6890   -6.4640   22.1070 C   0  0  0  0  0  0  0  0  0  0  0  0
  -21.2030   -6.9010   23.3590 C   0  0  0  0  0  3  0  0  0  0  0  0
  -21.0330   -5.9760   24.4090 C   0  0  0  0  0  3  0  0  0  0  0  0
  -21.3380   -4.6160   24.2080 C   0  0  0  0  0  0  0  0  0  0  0  0
  -21.8160   -4.1790   22.9600 C   0  0  0  0  0  3  0  0  0  0  0  0
  -21.9900   -5.1010   21.9130 C   0  0  0  0  0  0  0  0  0  0  0  0
  -22.4300   -4.6700   20.7070 F   0  0  0  0  0  0  0  0  0  0  0  0
  -21.1670   -3.7260   25.2140 F   0  0  0  0  0  0  0  0  0  0  0  0
  -23.1300  -13.9110   21.2400 C   0  0  0  0  0  0  0  0  0  0  0  0
  -22.3050  -13.1950   21.9960 N   0  0  0  0  0  0  0  0  0  0  0  0
  -22.7750  -14.9790   20.7460 O   0  0  0  0  0  0  0  0  0  0  0  0
  -22.6050  -12.3290   22.4190 H   0  0  0  0  0  0  0  0  0  0  0  0
  -21.3590  -13.5130   22.1480 H   0  0  0  0  0  0  0  0  0  0  0  0
  -25.8700  -15.5170   20.8000 N   0  0  0  0  0  0  0  0  0  0  0  0
  -25.1100  -16.1760   20.9180 H   0  0  0  0  0  0  0  0  0  0  0  0
  -26.7470  -15.9620   20.5500 H   0  0  0  0  0  0  0  0  0  0  0  0
  -27.1590  -18.4370   20.4380 C   0  0  0  0  0  1  0  0  0  0  0  0
  -28.3320  -17.7030   19.9460 N   0  0  0  0  0  0  0  0  0  0  0  0
  -29.7770  -16.7800   18.1270 C   0  0  0  0  0  1  0  0  0  0  0  0
  -27.3330  -16.4030   18.0720 C   0  0  0  0  0  1  0  0  0  0  0  0
  -28.2250  -18.6840   17.6400 C   0  0  0  0  0  1  0  0  0  0  0  0
  -28.4190  -17.4140   18.4930 C   0  0  1  0  0  0  0  0  0  0  0  0
  -29.5590  -21.8530   23.2050 C   0  0  0  0  0  1  0  0  0  0  0  0
  -29.7880  -22.3820   21.8530 N   0  0  0  0  0  0  0  0  0  0  0  0
  -29.8980  -23.8520   21.9950 C   0  0  0  0  0  2  0  0  0  0  0  0
  -29.5120  -24.7250   20.7580 C   0  0  0  0  0  3  0  0  0  0  0  0
  -30.6790  -24.8900   19.8620 N   0  0  0  0  0  4  0  0  0  0  0  0
  -31.4440  -25.3440   20.3310 H   0  0  0  0  0  0  0  0  0  0  0  0
  -30.4340  -25.4420   19.0560 H   0  0  0  0  0  0  0  0  0  0  0  0
  -31.0010  -23.9950   19.5370 H   0  0  0  0  0  0  0  0  0  0  0  0
  -28.9500  -26.1170   21.2100 C   0  0  0  0  0  2  0  0  0  0  0  0
  -28.5880  -26.9600   20.1030 O   0  0  0  0  0  0  0  0  0  0  0  0
  -24.6140  -32.0230   23.2790 C   0  0  0  0  0  0  0  0  0  0  0  0
  -27.3940  -27.6450   20.2070 C   0  0  0  0  0  0  0  0  0  0  0  0
  -23.4440  -30.5860   21.6420 C   0  0  0  0  0  3  0  0  0  0  0  0
  -24.9430  -29.0720   20.2310 C   0  0  0  0  0  0  0  0  0  0  0  0
  -25.9620  -31.0060   21.4430 C   0  0  0  0  0  2  0  0  0  0  0  0
  -26.0850  -29.6290   20.8210 C   0  0  0  0  0  0  0  0  0  0  0  0
  -27.3120  -28.9220   20.8120 C   0  0  0  0  0  3  0  0  0  0  0  0
  -26.2340  -27.0990   19.6160 C   0  0  0  0  0  3  0  0  0  0  0  0
  -25.0110  -27.8020   19.6290 C   0  0  0  0  0  3  0  0  0  0  0  0
  -23.6740  -29.9000   20.2690 C   0  0  0  0  0  2  0  0  0  0  0  0
  -24.6910  -31.2220   22.1790 N   0  0  0  0  0  0  0  0  0  0  0  0
  -23.5260  -32.2690   23.8220 O   0  0  0  0  0  0  0  0  0  0  0  0
  -22.8210  -29.5550   22.6100 C   0  0  0  0  0  0  0  0  0  0  0  0
  -21.5080  -29.3130   22.4640 N   0  0  0  0  0  0  0  0  0  0  0  0
  -23.5180  -28.9710   23.4440 O   0  0  0  0  0  0  0  0  0  0  0  0
  -21.0050  -29.8380   21.7630 H   0  0  0  0  0  0  0  0  0  0  0  0
  -18.1840  -27.9660   22.9190 C   0  0  0  0  0  0  0  0  0  0  0  0
  -20.7200  -28.3510   23.2350 C   0  0  0  0  0  3  0  0  0  0  0  0
  -20.9040  -26.9150   22.6900 C   0  0  0  0  0  2  0  0  0  0  0  0
  -19.8400  -26.5230   21.6600 C   0  0  0  0  0  2  0  0  0  0  0  0
  -18.4380  -26.6180   22.2710 C   0  0  0  0  0  2  0  0  0  0  0  0
  -19.2560  -28.7880   23.3570 C   0  0  0  0  0  0  0  0  0  0  0  0
  -18.9690  -30.0520   23.9170 C   0  0  0  0  0  3  0  0  0  0  0  0
  -17.6390  -30.4960   24.0460 C   0  0  0  0  0  3  0  0  0  0  0  0
  -16.5800  -29.6740   23.6210 C   0  0  0  0  0  3  0  0  0  0  0  0
  -16.8520  -28.4110   23.0650 C   0  0  0  0  0  3  0  0  0  0  0  0
  -25.8830  -32.6910   23.8960 C   0  0  0  0  0  3  0  0  0  0  0  0
  -26.3880  -31.9730   25.2070 C   0  0  1  0  0  0  0  0  0  0  0  0
  -25.2780  -31.7630   26.2650 C   0  0  0  0  0  1  0  0  0  0  0  0
  -26.9940  -30.5920   24.8720 C   0  0  0  0  0  1  0  0  0  0  0  0
  -27.5200  -32.8030   25.8530 C   0  0  0  0  0  1  0  0  0  0  0  0
  -25.5530  -34.0970   24.1670 N   0  0  0  0  0  0  0  0  0  0  0  0
  -25.9060  -35.1250   23.3830 C   0  0  0  0  0  0  0  0  0  0  0  0
  -26.6110  -34.9900   22.3790 O   0  0  0  0  0  0  0  0  0  0  0  0
  -24.9260  -34.2730   24.9390 H   0  0  0  0  0  0  0  0  0  0  0  0
  -24.1890  -36.8950   22.8950 C   0  0  0  0  0  1  0  0  0  0  0  0
  -25.3950  -36.5250   23.7740 C   0  0  0  0  0  3  0  0  0  0  0  0
  -27.4890  -37.4440   24.6670 C   0  0  0  0  0  1  0  0  0  0  0  0
  -26.4290  -37.5780   23.6720 N   0  0  0  0  0  0  0  0  0  0  0  0
  -26.0130  -38.5000   23.7740 H   0  0  0  0  0  0  0  0  0  0  0  0
  1 53  1  0
  3  2  1  0
  4  5  1  0
  5  1  1  0
  5  2  2  0
  6 16  1  0
  6  3  2  0
  7  4  2  0
  7  6  1  0
  8 16  1  0
  9 14  1  0
 10 11  1  0
 10  9  1  0
 12 11  1  0
 12 21  1  0
 12 13  1  0
 14  8  1  0
 14 13  1  0
 15  8  2  0
 17 16  1  0
 18 19  2  0
 19 38  1  0
 20 23  1  0
 20 19  1  0
 21 22  1  0
 21 18  1  0
 22 20  2  0
 23 24  1  0
 24 25  2  0
 26 25  1  0
 27 26  2  0
 28 27  1  0
 28 23  2  0
 29 26  1  0
 29 30  1  0
 30 31  1  0
 31 32  2  0
 33 32  1  0
 33 37  1  0
 34 33  2  0
 35 30  2  0
 35 34  1  0
 36 35  1  0
 38 39  1  0
 39 42  1  0
 39 41  1  0
 40 38  2  0
 43 18  1  0
 43 44  1  0
 45 43  1  0
 47 46  1  0
 47  7  1  0
 51 48  1  1
 49 51  1  0
 50 51  1  0
 51 47  1  0
 53 54  1  0
 53 52  1  0
 55 60  1  0
 55 54  1  0
 56 57  1  0
 56 55  1  0
 58 56  1  0
 59 56  1  0
 61 63  1  0
 61 60  1  0
 62 73  2  0
 63 68  1  0
 64 72  1  0
 64 74  1  0
 65 71  1  0
 65 67  1  0
 66 72  1  0
 67 66  1  0
 68 67  2  0
 69 70  1  0
 69 63  2  0
 70 65  2  0
 71 64  1  0
 72 62  1  0
 74 76  2  0
 75 74  1  0
 77 75  1  0
 78 87  2  0
 78 83  1  0
 79 75  1  0
 79 83  1  0
 80 79  1  0
 81 82  1  0
 81 80  1  0
 82 78  1  0
 83 84  2  0
 84 85  1  0
 86 85  2  0
 87 86  1  0
 88 62  1  0
 88 93  1  0
 88 89  1  0
 89 92  1  1
 89 90  1  0
 91 89  1  0
 93 96  1  0
 94 98  1  0
 94 93  1  0
 95 94  2  0
 98 97  1  0
100101  1  0
100 98  1  0
100 99  1  0
M  ISO  4   8 100  16 100  60 101  61 101
M  END
>  <TORSDO>  (38) 
F 24

>  <SCORE>  (38) 
-10.231

>  <name>  (38) 
37

>  <ligand_id>  (38) 
37

>  <original_smiles>  (38) 
[H]c1c([H])c([H])c2c(c1[H])C([H])([H])C([H])([H])C([H])([H])C2([H])N([H])C(=O)C1([H])N(C(=O)C([H])(N([H])C(=O)C([H])(N([H])C([H])([H])[H])C([H])([H])[H])C(C([H])([H])[H])(C([H])([H])[H])C([H])([H])[H])C([H])([H])c2c([H])c(OC([H])([H])C([H])(C([H])([H])N(C([H])([H])[H])C([H])([H])c3c([H])c([H])c(N([H])C(=O)N4C([H])([H])C([H])([H])C([H])([H])C([H])(n5nc(-c6c([H])c([H])c(Oc7c([H])c([H])c(F)c([H])c7F)c([H])c6[H])c(C(=O)N([H])[H])c5N([H])[H])C4([H])[H])c(N(C([H])([H])[H])C(C([H])([H])[H])(C([H])([H])[H])C([H])([H])[H])c3[H])[N+]([H])([H])[H])c([H])c([H])c2C1([H])[H]

>  <smiles>  (38) 
[H]c1c([H])c([H])c2c(c1[H])C([H])([H])C([H])([H])C([H])([H])C2([H])N([H])C(=O)C1([H])N(C(=O)C([H])(N([H])C(=O)C([H])(N([H])C([H])([H])[H])C([H])([H])[H])C(C([H])([H])[H])(C([H])([H])[H])C([H])([H])[H])C([H])([H])c2c([H])c(OC([H])([H])C([H])(C([H])([H])N(C([H])([H])[H])C([H])([H])c3c([H])c([H])c(N([H])C(=O)N4C([H])([H])C([H])([H])C([H])([H])C([H])(n5nc(-c6c([H])c([H])c(Oc7c([H])c([H])c(F)c([H])c7F)c([H])c6[H])c(C(=O)N([H])[H])c5N([H])[H])C4([H])[H])c(N(C([H])([H])[H])C(C([H])([H])[H])(C([H])([H])[H])C([H])([H])[H])c3[H])[N+]([H])([H])[H])c([H])c([H])c2C1([H])[H]

$$$$
38:0:0
     RDKit          3D

 97105  0  0  1  0  0  0  0  0999 V2000
  -30.2230  -19.4290   21.5920 C   0  0  0  0  0  3  0  0  0  0  0  0
  -30.2700  -18.0220   21.8320 C   0  0  0  0  0  3  0  0  0  0  0  0
  -29.6230  -17.6110   19.5560 C   0  0  0  0  0  3  0  0  0  0  0  0
  -29.5600  -19.0130   19.3090 C   0  0  0  0  0  0  0  0  0  0  0  0
  -29.8790  -19.9750   20.3250 C   0  0  0  0  0  0  0  0  0  0  0  0
  -30.0000  -17.0760   20.8060 C   0  0  0  0  0  0  0  0  0  0  0  0
  -30.6590  -14.6430   20.4290 C   0  0  0  0  0  0  0  0  0  0  0  0
  -30.4210  -12.4450   19.2900 C   0  0  0  0  0  2  0  0  0  0  0  0
  -29.4750  -12.6220   18.0820 C   0  0  0  0  0  2  0  0  0  0  0  0
  -28.0000  -12.4640   18.5050 C   0  0  0  0  0  2  0  0  0  0  0  0
  -27.6560  -13.2940   19.7710 C   0  0  0  0  0  3  0  0  0  0  0  0
  -28.7110  -13.0890   20.8810 C   0  0  0  0  0  2  0  0  0  0  0  0
  -30.0310  -13.4310   20.3210 N   0  0  0  0  0  0  0  0  0  0  0  0
  -31.7700  -14.8400   19.9240 O   0  0  0  0  0  0  0  0  0  0  0  0
  -29.9750  -15.6420   21.0590 N   0  0  0  0  0  0  0  0  0  0  0  0
  -29.1970  -15.3220   21.6170 H   0  0  0  0  0  0  0  0  0  0  0  0
  -25.2580  -13.8940   20.4870 C   0  0  0  0  0  0  0  0  0  0  0  0
  -24.1900  -13.1220   20.8560 C   0  0  0  0  0  0  0  0  0  0  0  0
  -24.6500  -11.7700   20.8210 C   0  0  0  0  0  0  0  0  0  0  0  0
  -26.3030  -13.0140   20.2520 N   0  0  0  0  0  0  0  0  0  0  0  0
  -25.9400  -11.7300   20.5090 N   0  0  0  0  0  0  0  0  0  0  0  0
  -23.9200  -10.5090   21.0120 C   0  0  0  0  0  0  0  0  0  0  0  0
  -24.3420   -9.5480   21.9580 C   0  0  0  0  0  3  0  0  0  0  0  0
  -23.6160   -8.3500   22.1360 C   0  0  0  0  0  3  0  0  0  0  0  0
  -22.4520   -8.1060   21.3680 C   0  0  0  0  0  0  0  0  0  0  0  0
  -22.0480   -9.0560   20.4140 C   0  0  0  0  0  3  0  0  0  0  0  0
  -22.7760  -10.2440   20.2340 C   0  0  0  0  0  3  0  0  0  0  0  0
  -21.6970   -6.9600   21.4540 O   0  0  0  0  0  0  0  0  0  0  0  0
  -21.6260   -6.2310   22.6140 C   0  0  0  0  0  0  0  0  0  0  0  0
  -21.1590   -6.7950   23.8230 C   0  0  0  0  0  3  0  0  0  0  0  0
  -21.0390   -5.9900   24.9730 C   0  0  0  0  0  3  0  0  0  0  0  0
  -21.3720   -4.6240   24.9170 C   0  0  0  0  0  0  0  0  0  0  0  0
  -21.8320   -4.0600   23.7130 C   0  0  0  0  0  3  0  0  0  0  0  0
  -21.9550   -4.8620   22.5650 C   0  0  0  0  0  0  0  0  0  0  0  0
  -22.3780   -4.3090   21.4020 F   0  0  0  0  0  0  0  0  0  0  0  0
  -21.2480   -3.8510   26.0200 F   0  0  0  0  0  0  0  0  0  0  0  0
  -22.7940  -13.6020   21.1320 C   0  0  0  0  0  0  0  0  0  0  0  0
  -22.0630  -12.9010   21.9940 N   0  0  0  0  0  0  0  0  0  0  0  0
  -22.3580  -14.6330   20.6210 O   0  0  0  0  0  0  0  0  0  0  0  0
  -22.4300  -12.0730   22.4360 H   0  0  0  0  0  0  0  0  0  0  0  0
  -21.1250  -13.2010   22.2150 H   0  0  0  0  0  0  0  0  0  0  0  0
  -25.4250  -15.2650   20.3130 N   0  0  0  0  0  0  0  0  0  0  0  0
  -24.6570  -15.9190   20.4220 H   0  0  0  0  0  0  0  0  0  0  0  0
  -26.2860  -15.7080   20.0140 H   0  0  0  0  0  0  0  0  0  0  0  0
  -29.1950  -19.4320   17.9220 C   0  0  0  0  0  0  0  0  0  0  0  0
  -30.2240  -19.6990   17.1340 N   0  0  0  0  0  0  0  0  0  0  0  0
  -28.0260  -19.5060   17.5540 O   0  0  0  0  0  0  0  0  0  0  0  0
  -31.1670  -19.5840   17.4750 H   0  0  0  0  0  0  0  0  0  0  0  0
  -30.0710  -19.9630   16.1710 H   0  0  0  0  0  0  0  0  0  0  0  0
  -30.0170  -21.5310   20.0360 C   0  0  0  0  0  2  0  0  0  0  0  0
  -27.6830  -22.0550   20.6770 C   0  0  0  0  0  1  0  0  0  0  0  0
  -29.0730  -22.5710   20.6350 N   0  0  2  0  0  4  0  0  0  0  0  0
  -29.3500  -22.6430   21.6040 H   0  0  0  0  0  0  0  0  0  0  0  0
  -30.6660  -24.4680   20.0150 C   0  0  0  0  0  1  0  0  0  0  0  0
  -29.1920  -23.9970   20.0480 C   0  0  0  0  0  3  0  0  0  0  0  0
  -28.3020  -25.1510   20.7220 C   0  0  0  0  0  2  0  0  0  0  0  0
  -28.4430  -26.5470   20.2390 O   0  0  0  0  0  0  0  0  0  0  0  0
  -24.6190  -31.8920   23.2360 C   0  0  0  0  0  0  0  0  0  0  0  0
  -27.3030  -27.3630   20.2200 C   0  0  0  0  0  0  0  0  0  0  0  0
  -23.4370  -30.4740   21.5950 C   0  0  0  0  0  3  0  0  0  0  0  0
  -24.9140  -28.9300   20.1900 C   0  0  0  0  0  0  0  0  0  0  0  0
  -25.9740  -30.8250   21.4210 C   0  0  0  0  0  2  0  0  0  0  0  0
  -26.0730  -29.4450   20.7840 C   0  0  0  0  0  0  0  0  0  0  0  0
  -27.2710  -28.6720   20.7860 C   0  0  0  0  0  3  0  0  0  0  0  0
  -26.1260  -26.8980   19.5950 C   0  0  0  0  0  3  0  0  0  0  0  0
  -24.9420  -27.6600   19.5880 C   0  0  0  0  0  3  0  0  0  0  0  0
  -23.6680  -29.7910   20.2210 C   0  0  0  0  0  2  0  0  0  0  0  0
  -24.6940  -31.0810   22.1410 N   0  0  0  0  0  0  0  0  0  0  0  0
  -23.5300  -32.1590   23.7640 O   0  0  0  0  0  0  0  0  0  0  0  0
  -22.7820  -29.4540   22.5570 C   0  0  0  0  0  0  0  0  0  0  0  0
  -21.4560  -29.2720   22.4300 N   0  0  0  0  0  0  0  0  0  0  0  0
  -23.4650  -28.8330   23.3750 O   0  0  0  0  0  0  0  0  0  0  0  0
  -20.9680  -29.8240   21.7400 H   0  0  0  0  0  0  0  0  0  0  0  0
  -18.0750  -28.0910   22.9470 C   0  0  0  0  0  0  0  0  0  0  0  0
  -20.6380  -28.3340   23.2010 C   0  0  0  0  0  3  0  0  0  0  0  0
  -20.7280  -26.9060   22.6120 C   0  0  0  0  0  2  0  0  0  0  0  0
  -19.6140  -26.5970   21.6060 C   0  0  0  0  0  2  0  0  0  0  0  0
  -18.2390  -26.7450   22.2610 C   0  0  0  0  0  2  0  0  0  0  0  0
  -19.2020  -28.8430   23.3740 C   0  0  0  0  0  0  0  0  0  0  0  0
  -18.9950  -30.1020   23.9750 C   0  0  0  0  0  3  0  0  0  0  0  0
  -17.6940  -30.6080   24.1570 C   0  0  0  0  0  3  0  0  0  0  0  0
  -16.5830  -29.8520   23.7470 C   0  0  0  0  0  3  0  0  0  0  0  0
  -16.7740  -28.5960   23.1460 C   0  0  0  0  0  3  0  0  0  0  0  0
  -25.8940  -32.5390   23.8610 C   0  0  0  0  0  3  0  0  0  0  0  0
  -25.5730  -33.9360   24.1780 N   0  0  0  0  0  0  0  0  0  0  0  0
  -25.9090  -34.9860   23.4190 C   0  0  0  0  0  0  0  0  0  0  0  0
  -26.5930  -34.8790   22.3960 O   0  0  0  0  0  0  0  0  0  0  0  0
  -24.9660  -34.0910   24.9690 H   0  0  0  0  0  0  0  0  0  0  0  0
  -24.1870  -36.7750   23.0160 C   0  0  0  0  0  1  0  0  0  0  0  0
  -25.4070  -36.3750   23.8610 C   0  0  0  0  0  3  0  0  0  0  0  0
  -27.5170  -37.2650   24.7470 C   0  0  0  0  0  1  0  0  0  0  0  0
  -26.4400  -37.4310   23.7740 N   0  0  0  0  0  0  0  0  0  0  0  0
  -26.0280  -38.3500   23.9090 H   0  0  0  0  0  0  0  0  0  0  0  0
  -26.4040  -31.7820   25.1500 C   0  0  1  0  0  0  0  0  0  0  0  0
  -25.3020  -31.5470   26.2090 C   0  0  0  0  0  1  0  0  0  0  0  0
  -27.0000  -30.4040   24.7740 C   0  0  0  0  0  1  0  0  0  0  0  0
  -27.5400  -32.5940   25.8180 C   0  0  0  0  0  1  0  0  0  0  0  0
  1  2  1  0
  3  6  1  0
  4  3  2  0
  4  5  1  0
  5  1  2  0
  6 15  1  0
  6  2  2  0
  7 15  1  0
  8 13  1  0
  9 10  1  0
  9  8  1  0
 11 10  1  0
 11 20  1  0
 11 12  1  0
 13  7  1  0
 13 12  1  0
 14  7  2  0
 15 16  1  0
 17 18  2  0
 18 37  1  0
 19 18  1  0
 19 22  1  0
 20 17  1  0
 20 21  1  0
 21 19  2  0
 22 23  1  0
 23 24  2  0
 25 28  1  0
 25 24  1  0
 26 25  2  0
 27 26  1  0
 27 22  2  0
 28 29  1  0
 29 30  1  0
 30 31  2  0
 32 31  1  0
 32 36  1  0
 33 32  2  0
 34 29  2  0
 34 33  1  0
 35 34  1  0
 37 38  1  0
 38 41  1  0
 38 40  1  0
 39 37  2  0
 42 43  1  0
 42 17  1  0
 44 42  1  0
 45  4  1  0
 46 48  1  0
 46 45  1  0
 47 45  2  0
 49 46  1  0
 50  5  1  0
 50 52  1  0
 52 51  1  0
 52 53  1  1
 55 54  1  0
 55 52  1  0
 55 56  1  0
 57 56  1  0
 58 69  2  0
 59 57  1  0
 59 64  1  0
 60 68  1  0
 60 70  1  0
 61 67  1  0
 61 63  1  0
 62 68  1  0
 63 64  2  0
 63 62  1  0
 65 59  2  0
 66 65  1  0
 66 61  2  0
 67 60  1  0
 68 58  1  0
 70 72  2  0
 71 70  1  0
 73 71  1  0
 74 83  2  0
 74 79  1  0
 75 71  1  0
 75 79  1  0
 76 75  1  0
 77 78  1  0
 77 76  1  0
 78 74  1  0
 79 80  2  0
 80 81  1  0
 82 81  2  0
 83 82  1  0
 84 58  1  0
 84 85  1  0
 84 94  1  0
 85 88  1  0
 86 90  1  0
 86 85  1  0
 87 86  2  0
 90 89  1  0
 92 90  1  0
 92 93  1  0
 92 91  1  0
 94 97  1  1
 94 95  1  0
 96 94  1  0
M  ISO  4   7 100  15 100  56 101  57 101
M  END
>  <TORSDO>  (39) 
F 21

>  <SCORE>  (39) 
-13.501

>  <name>  (39) 
38

>  <ligand_id>  (39) 
38

>  <original_smiles>  (39) 
[H]c1c([H])c([H])c2c(c1[H])C([H])([H])C([H])([H])C([H])([H])C2([H])N([H])C(=O)C1([H])N(C(=O)C([H])(N([H])C(=O)C([H])(N([H])C([H])([H])[H])C([H])([H])[H])C(C([H])([H])[H])(C([H])([H])[H])C([H])([H])[H])C([H])([H])c2c([H])c(OC([H])([H])C([H])(C([H])([H])[H])[N+]([H])(C([H])([H])[H])C([H])([H])c3c([H])c([H])c(N([H])C(=O)N4C([H])([H])C([H])([H])C([H])([H])C([H])(n5nc(-c6c([H])c([H])c(Oc7c([H])c([H])c(F)c([H])c7F)c([H])c6[H])c(C(=O)N([H])[H])c5N([H])[H])C4([H])[H])c([H])c3C(=O)N([H])[H])c([H])c([H])c2C1([H])[H]

>  <smiles>  (39) 
[H]c1c([H])c([H])c2c(c1[H])C([H])([H])C([H])([H])C([H])([H])C2([H])N([H])C(=O)C1([H])N(C(=O)C([H])(N([H])C(=O)C([H])(N([H])C([H])([H])[H])C([H])([H])[H])C(C([H])([H])[H])(C([H])([H])[H])C([H])([H])[H])C([H])([H])c2c([H])c(OC([H])([H])C([H])(C([H])([H])[H])[N+]([H])(C([H])([H])[H])C([H])([H])c3c([H])c([H])c(N([H])C(=O)N4C([H])([H])C([H])([H])C([H])([H])C([H])(n5nc(-c6c([H])c([H])c(Oc7c([H])c([H])c(F)c([H])c7F)c([H])c6[H])c(C(=O)N([H])[H])c5N([H])[H])C4([H])[H])c([H])c3C(=O)N([H])[H])c([H])c([H])c2C1([H])[H]

$$$$
39:0:0
     RDKit          3D

 97105  0  0  1  0  0  0  0  0999 V2000
  -30.6620  -18.9270   22.0980 C   0  0  0  0  0  3  0  0  0  0  0  0
  -30.3980  -20.0920   21.3590 C   0  0  0  0  0  3  0  0  0  0  0  0
  -30.2220  -18.7170   19.3640 C   0  0  0  0  0  3  0  0  0  0  0  0
  -30.7120  -17.6400   21.5110 C   0  0  0  0  0  0  0  0  0  0  0  0
  -30.1540  -20.0400   19.9740 C   0  0  0  0  0  0  0  0  0  0  0  0
  -30.5210  -17.4910   20.0990 C   0  0  0  0  0  0  0  0  0  0  0  0
  -31.2240  -15.0420   19.3900 C   0  0  0  0  0  0  0  0  0  0  0  0
  -30.9360  -12.7460   18.4320 C   0  0  0  0  0  2  0  0  0  0  0  0
  -29.8560  -12.7880   17.3260 C   0  0  0  0  0  2  0  0  0  0  0  0
  -28.4400  -12.6470   17.9240 C   0  0  0  0  0  2  0  0  0  0  0  0
  -28.2130  -13.5750   19.1460 C   0  0  0  0  0  3  0  0  0  0  0  0
  -29.3870  -13.4800   20.1430 C   0  0  0  0  0  2  0  0  0  0  0  0
  -30.6110  -13.8120   19.4010 N   0  0  0  0  0  0  0  0  0  0  0  0
  -32.3840  -15.1660   18.9820 O   0  0  0  0  0  0  0  0  0  0  0  0
  -30.3760  -16.1300   19.5250 N   0  0  0  0  0  0  0  0  0  0  0  0
  -29.4270  -15.7980   19.5770 H   0  0  0  0  0  0  0  0  0  0  0  0
  -25.9650  -14.2460   20.1900 C   0  0  0  0  0  0  0  0  0  0  0  0
  -24.9150  -13.5060   20.6580 C   0  0  0  0  0  0  0  0  0  0  0  0
  -25.3020  -12.1380   20.5150 C   0  0  0  0  0  0  0  0  0  0  0  0
  -26.9250  -13.3310   19.7890 N   0  0  0  0  0  0  0  0  0  0  0  0
  -26.5400  -12.0550   20.0450 N   0  0  0  0  0  0  0  0  0  0  0  0
  -24.5420  -10.9010   20.7390 C   0  0  0  0  0  0  0  0  0  0  0  0
  -24.9590   -9.9400   21.6840 C   0  0  0  0  0  3  0  0  0  0  0  0
  -24.2010   -8.7670   21.8960 C   0  0  0  0  0  3  0  0  0  0  0  0
  -23.0120   -8.5490   21.1600 C   0  0  0  0  0  0  0  0  0  0  0  0
  -22.6140   -9.5000   20.2030 C   0  0  0  0  0  3  0  0  0  0  0  0
  -23.3710  -10.6630   19.9910 C   0  0  0  0  0  3  0  0  0  0  0  0
  -22.2260   -7.4300   21.2810 O   0  0  0  0  0  0  0  0  0  0  0  0
  -22.0400   -6.8070   22.4890 C   0  0  0  0  0  0  0  0  0  0  0  0
  -21.5140   -7.4900   23.6060 C   0  0  0  0  0  3  0  0  0  0  0  0
  -21.2750   -6.7940   24.8080 C   0  0  0  0  0  3  0  0  0  0  0  0
  -21.5530   -5.4160   24.8920 C   0  0  0  0  0  0  0  0  0  0  0  0
  -22.0730   -4.7340   23.7780 C   0  0  0  0  0  3  0  0  0  0  0  0
  -22.3130   -5.4260   22.5790 C   0  0  0  0  0  0  0  0  0  0  0  0
  -22.7930   -4.7600   21.5030 F   0  0  0  0  0  0  0  0  0  0  0  0
  -21.3170   -4.7460   26.0440 F   0  0  0  0  0  0  0  0  0  0  0  0
  -23.5850  -14.0310   21.1180 C   0  0  0  0  0  0  0  0  0  0  0  0
  -22.9550  -13.3520   22.0710 N   0  0  0  0  0  0  0  0  0  0  0  0
  -23.1210  -15.0770   20.6690 O   0  0  0  0  0  0  0  0  0  0  0  0
  -23.3450  -12.5040   22.4530 H   0  0  0  0  0  0  0  0  0  0  0  0
  -22.0670  -13.6840   22.4190 H   0  0  0  0  0  0  0  0  0  0  0  0
  -26.1740  -15.6160   20.0500 N   0  0  0  0  0  0  0  0  0  0  0  0
  -25.4590  -16.2910   20.2880 H   0  0  0  0  0  0  0  0  0  0  0  0
  -26.9720  -16.0350   19.5930 H   0  0  0  0  0  0  0  0  0  0  0  0
  -30.9690  -16.4800   22.4430 C   0  0  0  0  0  0  0  0  0  0  0  0
  -30.3870  -16.5480   23.6360 N   0  0  0  0  0  0  0  0  0  0  0  0
  -31.6610  -15.5190   22.1200 O   0  0  0  0  0  0  0  0  0  0  0  0
  -29.8160  -17.3420   23.8800 H   0  0  0  0  0  0  0  0  0  0  0  0
  -30.5130  -15.8010   24.3030 H   0  0  0  0  0  0  0  0  0  0  0  0
  -29.9530  -21.4310   19.2190 C   0  0  0  0  0  2  0  0  0  0  0  0
  -27.6000  -22.1470   19.4550 C   0  0  0  0  0  1  0  0  0  0  0  0
  -29.0000  -22.5020   19.7890 N   0  0  2  0  0  4  0  0  0  0  0  0
  -29.0490  -22.3780   20.7880 H   0  0  0  0  0  0  0  0  0  0  0  0
  -30.3280  -24.4610   20.6590 C   0  0  0  0  0  1  0  0  0  0  0  0
  -29.3350  -24.0090   19.5710 C   0  0  0  0  0  3  0  0  0  0  0  0
  -28.1140  -25.0850   19.5020 C   0  0  0  0  0  2  0  0  0  0  0  0
  -28.3000  -26.5820   19.4920 O   0  0  0  0  0  0  0  0  0  0  0  0
  -24.5130  -31.6050   23.1320 C   0  0  0  0  0  0  0  0  0  0  0  0
  -27.1490  -27.4060   19.5750 C   0  0  0  0  0  0  0  0  0  0  0  0
  -23.2760  -30.2570   21.4780 C   0  0  0  0  0  3  0  0  0  0  0  0
  -24.7070  -28.9050   19.8400 C   0  0  0  0  0  0  0  0  0  0  0  0
  -25.7770  -30.7350   21.1440 C   0  0  0  0  0  2  0  0  0  0  0  0
  -25.8910  -29.4100   20.3920 C   0  0  0  0  0  0  0  0  0  0  0  0
  -27.1140  -28.6750   20.2480 C   0  0  0  0  0  3  0  0  0  0  0  0
  -25.9310  -26.9730   19.0000 C   0  0  0  0  0  3  0  0  0  0  0  0
  -24.7320  -27.6980   19.1320 C   0  0  0  0  0  3  0  0  0  0  0  0
  -23.4280  -29.6980   20.0400 C   0  0  0  0  0  2  0  0  0  0  0  0
  -24.5460  -30.8800   21.9740 N   0  0  0  0  0  0  0  0  0  0  0  0
  -23.4580  -31.7750   23.7590 O   0  0  0  0  0  0  0  0  0  0  0  0
  -22.7420  -29.1340   22.4010 C   0  0  0  0  0  0  0  0  0  0  0  0
  -21.4560  -28.7770   22.2410 N   0  0  0  0  0  0  0  0  0  0  0  0
  -23.4850  -28.5890   23.2210 O   0  0  0  0  0  0  0  0  0  0  0  0
  -20.9060  -29.2800   21.5580 H   0  0  0  0  0  0  0  0  0  0  0  0
  -18.3090  -27.0210   22.5470 C   0  0  0  0  0  0  0  0  0  0  0  0
  -20.7620  -27.7170   22.9720 C   0  0  0  0  0  3  0  0  0  0  0  0
  -21.1430  -26.3200   22.4270 C   0  0  0  0  0  2  0  0  0  0  0  0
  -20.1800  -25.8110   21.3500 C   0  0  0  0  0  2  0  0  0  0  0  0
  -18.7550  -25.7190   21.9040 C   0  0  0  0  0  2  0  0  0  0  0  0
  -19.2500  -27.9670   23.0340 C   0  0  0  0  0  0  0  0  0  0  0  0
  -18.7800  -29.1760   23.5900 C   0  0  0  0  0  3  0  0  0  0  0  0
  -17.4000  -29.4470   23.6650 C   0  0  0  0  0  3  0  0  0  0  0  0
  -16.4720  -28.5020   23.1940 C   0  0  0  0  0  3  0  0  0  0  0  0
  -16.9260  -27.2910   22.6410 C   0  0  0  0  0  3  0  0  0  0  0  0
  -25.7980  -32.2700   23.7140 C   0  0  0  0  0  3  0  0  0  0  0  0
  -25.4590  -33.6530   24.0790 N   0  0  0  0  0  0  0  0  0  0  0  0
  -25.7580  -34.7310   23.3420 C   0  0  0  0  0  0  0  0  0  0  0  0
  -26.4210  -34.6680   22.3010 O   0  0  0  0  0  0  0  0  0  0  0  0
  -24.8700  -33.7760   24.8910 H   0  0  0  0  0  0  0  0  0  0  0  0
  -23.9990  -36.5020   23.0300 C   0  0  0  0  0  1  0  0  0  0  0  0
  -25.2440  -36.0960   23.8370 C   0  0  0  0  0  3  0  0  0  0  0  0
  -27.3610  -36.9910   24.6990 C   0  0  0  0  0  1  0  0  0  0  0  0
  -26.2560  -37.1720   23.7610 N   0  0  0  0  0  0  0  0  0  0  0  0
  -25.8350  -38.0790   23.9410 H   0  0  0  0  0  0  0  0  0  0  0  0
  -26.3900  -31.4980   24.9560 C   0  0  1  0  0  0  0  0  0  0  0  0
  -25.3410  -31.1730   26.0450 C   0  0  0  0  0  1  0  0  0  0  0  0
  -27.0350  -30.1660   24.5110 C   0  0  0  0  0  1  0  0  0  0  0  0
  -27.5140  -32.3350   25.6080 C   0  0  0  0  0  1  0  0  0  0  0  0
  2  1  2  0
  3  5  2  0
  3  6  1  0
  4  1  1  0
  4 45  1  0
  5  2  1  0
  6  4  2  0
  7 13  1  0
  7 15  1  0
  8 13  1  0
  9 10  1  0
  9  8  1  0
 11 10  1  0
 11 20  1  0
 11 12  1  0
 13 12  1  0
 14  7  2  0
 15 16  1  0
 15  6  1  0
 17 18  2  0
 18 37  1  0
 19 18  1  0
 19 22  1  0
 20 21  1  0
 20 17  1  0
 21 19  2  0
 22 23  1  0
 23 24  2  0
 25 28  1  0
 25 24  1  0
 26 25  2  0
 27 26  1  0
 27 22  2  0
 28 29  1  0
 29 34  2  0
 29 30  1  0
 30 31  2  0
 31 32  1  0
 32 36  1  0
 33 32  2  0
 34 33  1  0
 35 34  1  0
 37 38  1  0
 38 41  1  0
 38 40  1  0
 39 37  2  0
 42 17  1  0
 42 43  1  0
 44 42  1  0
 45 46  1  0
 46 48  1  0
 46 49  1  0
 47 45  2  0
 50 52  1  0
 50  5  1  0
 51 52  1  0
 52 53  1  1
 55 52  1  0
 55 54  1  0
 56 55  1  0
 57 56  1  0
 57 59  1  0
 58 69  2  0
 59 64  1  0
 60 68  1  0
 60 70  1  0
 61 67  1  0
 61 63  1  0
 62 68  1  0
 63 62  1  0
 64 63  2  0
 65 66  1  0
 65 59  2  0
 66 61  2  0
 67 60  1  0
 68 58  1  0
 70 72  2  0
 71 70  1  0
 73 71  1  0
 74 83  2  0
 74 79  1  0
 75 71  1  0
 75 79  1  0
 76 75  1  0
 77 78  1  0
 77 76  1  0
 78 74  1  0
 79 80  2  0
 80 81  1  0
 82 81  2  0
 83 82  1  0
 84 58  1  0
 84 85  1  0
 84 94  1  0
 85 88  1  0
 86 90  1  0
 86 85  1  0
 87 86  2  0
 90 89  1  0
 92 90  1  0
 92 93  1  0
 92 91  1  0
 94 97  1  1
 94 95  1  0
 96 94  1  0
M  ISO  4   7 100  15 100  56 101  57 101
M  END
>  <TORSDO>  (40) 
F 21

>  <SCORE>  (40) 
-9.836

>  <name>  (40) 
39

>  <ligand_id>  (40) 
39

>  <original_smiles>  (40) 
[H]c1c([H])c([H])c2c(c1[H])C([H])([H])C([H])([H])C([H])([H])C2([H])N([H])C(=O)C1([H])N(C(=O)C([H])(N([H])C(=O)C([H])(N([H])C([H])([H])[H])C([H])([H])[H])C(C([H])([H])[H])(C([H])([H])[H])C([H])([H])[H])C([H])([H])c2c([H])c(OC([H])([H])C([H])(C([H])([H])[H])[N+]([H])(C([H])([H])[H])C([H])([H])c3c([H])c([H])c(C(=O)N([H])[H])c(N([H])C(=O)N4C([H])([H])C([H])([H])C([H])([H])C([H])(n5nc(-c6c([H])c([H])c(Oc7c([H])c([H])c(F)c([H])c7F)c([H])c6[H])c(C(=O)N([H])[H])c5N([H])[H])C4([H])[H])c3[H])c([H])c([H])c2C1([H])[H]

>  <smiles>  (40) 
[H]c1c([H])c([H])c2c(c1[H])C([H])([H])C([H])([H])C([H])([H])C2([H])N([H])C(=O)C1([H])N(C(=O)C([H])(N([H])C(=O)C([H])(N([H])C([H])([H])[H])C([H])([H])[H])C(C([H])([H])[H])(C([H])([H])[H])C([H])([H])[H])C([H])([H])c2c([H])c(OC([H])([H])C([H])(C([H])([H])[H])[N+]([H])(C([H])([H])[H])C([H])([H])c3c([H])c([H])c(C(=O)N([H])[H])c(N([H])C(=O)N4C([H])([H])C([H])([H])C([H])([H])C([H])(n5nc(-c6c([H])c([H])c(Oc7c([H])c([H])c(F)c([H])c7F)c([H])c6[H])c(C(=O)N([H])[H])c5N([H])[H])C4([H])[H])c3[H])c([H])c([H])c2C1([H])[H]

$$$$
40:0:0
     RDKit          3D

 91 99  0  0  1  0  0  0  0  0999 V2000
  -28.8430  -22.4830   20.2780 C   0  0  0  0  0  0  0  0  0  0  0  0
  -29.8330  -21.5370   20.2590 N   0  0  0  0  0  0  0  0  0  0  0  0
  -27.6500  -22.1720   20.2290 O   0  0  0  0  0  0  0  0  0  0  0  0
  -30.7630  -21.9300   20.1990 H   0  0  0  0  0  0  0  0  0  0  0  0
  -30.9300  -19.3270   19.8830 C   0  0  0  0  0  3  0  0  0  0  0  0
  -28.7040  -19.3100   20.7930 C   0  0  0  0  0  3  0  0  0  0  0  0
  -30.9840  -17.9020   19.9490 C   0  0  0  0  0  3  0  0  0  0  0  0
  -28.7610  -17.8870   20.8690 C   0  0  0  0  0  3  0  0  0  0  0  0
  -29.7920  -20.0740   20.2980 C   0  0  0  0  0  0  0  0  0  0  0  0
  -29.8960  -17.1400   20.4510 C   0  0  0  0  0  0  0  0  0  0  0  0
  -30.6220  -14.6700   20.0660 C   0  0  0  0  0  0  0  0  0  0  0  0
  -30.3530  -12.4730   18.9360 C   0  0  0  0  0  2  0  0  0  0  0  0
  -29.3360  -12.6480   17.7860 C   0  0  0  0  0  2  0  0  0  0  0  0
  -27.8900  -12.4760   18.2960 C   0  0  0  0  0  2  0  0  0  0  0  0
  -27.6100  -13.2950   19.5840 C   0  0  0  0  0  3  0  0  0  0  0  0
  -28.7310  -13.0850   20.6270 C   0  0  0  0  0  2  0  0  0  0  0  0
  -30.0090  -13.4480   19.9910 N   0  0  0  0  0  0  0  0  0  0  0  0
  -31.7480  -14.8550   19.5910 O   0  0  0  0  0  0  0  0  0  0  0  0
  -29.8490  -15.6830   20.5630 N   0  0  0  0  0  0  0  0  0  0  0  0
  -28.9980  -15.3310   20.9750 H   0  0  0  0  0  0  0  0  0  0  0  0
  -25.2620  -13.8780   20.4570 C   0  0  0  0  0  0  0  0  0  0  0  0
  -24.2160  -13.0940   20.8650 C   0  0  0  0  0  0  0  0  0  0  0  0
  -24.6720  -11.7440   20.7660 C   0  0  0  0  0  0  0  0  0  0  0  0
  -26.2880  -13.0040   20.1350 N   0  0  0  0  0  0  0  0  0  0  0  0
  -25.9410  -11.7130   20.3800 N   0  0  0  0  0  0  0  0  0  0  0  0
  -23.9540  -10.4780   20.9600 C   0  0  0  0  0  0  0  0  0  0  0  0
  -24.4110   -9.5030   21.8740 C   0  0  0  0  0  3  0  0  0  0  0  0
  -23.6940   -8.3000   22.0550 C   0  0  0  0  0  3  0  0  0  0  0  0
  -22.5070   -8.0640   21.3220 C   0  0  0  0  0  0  0  0  0  0  0  0
  -22.0700   -9.0280   20.3970 C   0  0  0  0  0  3  0  0  0  0  0  0
  -22.7860  -10.2220   20.2140 C   0  0  0  0  0  3  0  0  0  0  0  0
  -21.7590   -6.9150   21.4150 O   0  0  0  0  0  0  0  0  0  0  0  0
  -21.6970   -6.1890   22.5770 C   0  0  0  0  0  0  0  0  0  0  0  0
  -21.2380   -6.7560   23.7870 C   0  0  0  0  0  3  0  0  0  0  0  0
  -21.1240   -5.9550   24.9410 C   0  0  0  0  0  3  0  0  0  0  0  0
  -21.4570   -4.5880   24.8860 C   0  0  0  0  0  0  0  0  0  0  0  0
  -21.9090   -4.0220   23.6820 C   0  0  0  0  0  3  0  0  0  0  0  0
  -22.0250   -4.8200   22.5300 C   0  0  0  0  0  0  0  0  0  0  0  0
  -22.4400   -4.2630   21.3660 F   0  0  0  0  0  0  0  0  0  0  0  0
  -21.3410   -3.8170   25.9930 F   0  0  0  0  0  0  0  0  0  0  0  0
  -22.8380  -13.5650   21.2330 C   0  0  0  0  0  0  0  0  0  0  0  0
  -22.1620  -12.8460   22.1230 N   0  0  0  0  0  0  0  0  0  0  0  0
  -22.3710  -14.6030   20.7680 O   0  0  0  0  0  0  0  0  0  0  0  0
  -22.5530  -12.0050   22.5220 H   0  0  0  0  0  0  0  0  0  0  0  0
  -21.2400  -13.1430   22.4110 H   0  0  0  0  0  0  0  0  0  0  0  0
  -25.4190  -15.2530   20.3120 N   0  0  0  0  0  0  0  0  0  0  0  0
  -24.6540  -15.8980   20.4770 H   0  0  0  0  0  0  0  0  0  0  0  0
  -26.2320  -15.6990   19.9070 H   0  0  0  0  0  0  0  0  0  0  0  0
  -29.2280  -24.0150   20.3500 C   0  0  0  0  0  3  0  0  0  0  0  0
  -28.1040  -25.0750   19.9880 C   0  0  0  0  0  3  0  0  0  0  0  0
  -28.3380  -26.5210   20.2070 O   0  0  0  0  0  0  0  0  0  0  0  0
  -24.6180  -31.8920   23.2640 C   0  0  0  0  0  0  0  0  0  0  0  0
  -27.2210  -27.3700   20.1600 C   0  0  0  0  0  0  0  0  0  0  0  0
  -23.4120  -30.5170   21.6090 C   0  0  0  0  0  3  0  0  0  0  0  0
  -24.8590  -28.9840   20.1680 C   0  0  0  0  0  0  0  0  0  0  0  0
  -25.9540  -30.8330   21.4320 C   0  0  0  0  0  2  0  0  0  0  0  0
  -26.0300  -29.4630   20.7700 C   0  0  0  0  0  0  0  0  0  0  0  0
  -27.2140  -28.6680   20.7570 C   0  0  0  0  0  3  0  0  0  0  0  0
  -26.0260  -26.9470   19.5320 C   0  0  0  0  0  3  0  0  0  0  0  0
  -24.8590  -27.7300   19.5390 C   0  0  0  0  0  3  0  0  0  0  0  0
  -23.6250  -29.8590   20.2210 C   0  0  0  0  0  2  0  0  0  0  0  0
  -24.6810  -31.0970   22.1590 N   0  0  0  0  0  0  0  0  0  0  0  0
  -23.5340  -32.1680   23.8010 O   0  0  0  0  0  0  0  0  0  0  0  0
  -22.7470  -29.4890   22.5550 C   0  0  0  0  0  0  0  0  0  0  0  0
  -21.4220  -29.3100   22.4180 N   0  0  0  0  0  0  0  0  0  0  0  0
  -23.4210  -28.8570   23.3730 O   0  0  0  0  0  0  0  0  0  0  0  0
  -20.9380  -29.8710   21.7310 H   0  0  0  0  0  0  0  0  0  0  0  0
  -18.0420  -28.1100   22.8840 C   0  0  0  0  0  0  0  0  0  0  0  0
  -20.5980  -28.3680   23.1760 C   0  0  0  0  0  3  0  0  0  0  0  0
  -20.7050  -26.9390   22.5930 C   0  0  0  0  0  2  0  0  0  0  0  0
  -19.6110  -26.6230   21.5680 C   0  0  0  0  0  2  0  0  0  0  0  0
  -18.2240  -26.7640   22.2030 C   0  0  0  0  0  2  0  0  0  0  0  0
  -19.1570  -28.8690   23.3280 C   0  0  0  0  0  0  0  0  0  0  0  0
  -18.9330  -30.1280   23.9250 C   0  0  0  0  0  3  0  0  0  0  0  0
  -17.6270  -30.6290   24.0830 C   0  0  0  0  0  3  0  0  0  0  0  0
  -16.5260  -29.8660   23.6560 C   0  0  0  0  0  3  0  0  0  0  0  0
  -16.7350  -28.6090   23.0620 C   0  0  0  0  0  3  0  0  0  0  0  0
  -25.9020  -32.5140   23.8960 C   0  0  0  0  0  3  0  0  0  0  0  0
  -26.4050  -31.7350   25.1730 C   0  0  1  0  0  0  0  0  0  0  0  0
  -25.3030  -31.5020   26.2320 C   0  0  0  0  0  1  0  0  0  0  0  0
  -26.9820  -30.3550   24.7800 C   0  0  0  0  0  1  0  0  0  0  0  0
  -27.5580  -32.5180   25.8440 C   0  0  0  0  0  1  0  0  0  0  0  0
  -25.6010  -33.9140   24.2280 N   0  0  0  0  0  0  0  0  0  0  0  0
  -25.9220  -34.9630   23.4620 C   0  0  0  0  0  0  0  0  0  0  0  0
  -26.5730  -34.8570   22.4190 O   0  0  0  0  0  0  0  0  0  0  0  0
  -25.0200  -34.0700   25.0380 H   0  0  0  0  0  0  0  0  0  0  0  0
  -24.1770  -36.7490   23.1480 C   0  0  0  0  0  1  0  0  0  0  0  0
  -25.4440  -36.3550   23.9240 C   0  0  0  0  0  3  0  0  0  0  0  0
  -27.5990  -37.2530   24.6840 C   0  0  0  0  0  1  0  0  0  0  0  0
  -26.4700  -37.4090   23.7710 N   0  0  0  0  0  0  0  0  0  0  0  0
  -26.0650  -38.3300   23.9220 H   0  0  0  0  0  0  0  0  0  0  0  0
  1 49  1  0
  2  1  1  0
  2  9  1  0
  3  1  2  0
  4  2  1  0
  5  7  2  0
  5  9  1  0
  6  8  1  0
  7 10  1  0
  9  6  2  0
 10 19  1  0
 10  8  2  0
 11 19  1  0
 12 17  1  0
 13 14  1  0
 13 12  1  0
 15 14  1  0
 15 24  1  0
 15 16  1  0
 17 11  1  0
 17 16  1  0
 18 11  2  0
 19 20  1  0
 21 22  2  0
 22 41  1  0
 23 22  1  0
 23 26  1  0
 24 25  1  0
 24 21  1  0
 25 23  2  0
 26 27  1  0
 27 28  2  0
 29 32  1  0
 29 28  1  0
 30 29  2  0
 31 30  1  0
 31 26  2  0
 32 33  1  0
 33 34  1  0
 34 35  2  0
 36 35  1  0
 36 40  1  0
 37 36  2  0
 38 33  2  0
 38 37  1  0
 39 38  1  0
 41 42  1  0
 42 45  1  0
 42 44  1  0
 43 41  2  0
 46 21  1  0
 46 47  1  0
 48 46  1  0
 50 51  1  0
 50 49  2  0
 52 63  2  0
 53 51  1  0
 53 58  1  0
 54 62  1  0
 54 64  1  0
 55 61  1  0
 55 57  1  0
 56 62  1  0
 57 56  1  0
 58 57  2  0
 59 60  1  0
 59 53  2  0
 60 55  2  0
 61 54  1  0
 62 52  1  0
 64 66  2  0
 65 64  1  0
 67 65  1  0
 68 77  2  0
 68 73  1  0
 69 65  1  0
 69 73  1  0
 70 69  1  0
 71 72  1  0
 71 70  1  0
 72 68  1  0
 73 74  2  0
 74 75  1  0
 76 75  2  0
 77 76  1  0
 78 52  1  0
 78 83  1  0
 78 79  1  0
 79 82  1  1
 79 80  1  0
 81 79  1  0
 83 86  1  0
 84 88  1  0
 84 83  1  0
 85 84  2  0
 88 87  1  0
 90 91  1  0
 90 88  1  0
 90 89  1  0
M  ISO  4  11 100  19 100  50 101  51 101
M  END
>  <TORSDO>  (41) 
F 19

>  <SCORE>  (41) 
-13.934

>  <name>  (41) 
40

>  <ligand_id>  (41) 
40

>  <original_smiles>  (41) 
[H]c1c([H])c([H])c2c(c1[H])C([H])([H])C([H])([H])C([H])([H])C2([H])N([H])C(=O)C1([H])N(C(=O)C([H])(N([H])C(=O)C([H])(N([H])C([H])([H])[H])C([H])([H])[H])C(C([H])([H])[H])(C([H])([H])[H])C([H])([H])[H])C([H])([H])c2c([H])c(OC([H])([H])C([H])([H])C(=O)N([H])c3c([H])c([H])c(N([H])C(=O)N4C([H])([H])C([H])([H])C([H])([H])C([H])(n5nc(-c6c([H])c([H])c(Oc7c([H])c([H])c(F)c([H])c7F)c([H])c6[H])c(C(=O)N([H])[H])c5N([H])[H])C4([H])[H])c([H])c3[H])c([H])c([H])c2C1([H])[H]

>  <smiles>  (41) 
[H]c1c([H])c([H])c2c(c1[H])C([H])([H])C([H])([H])C([H])([H])C2([H])N([H])C(=O)C1([H])N(C(=O)C([H])(N([H])C(=O)C([H])(N([H])C([H])([H])[H])C([H])([H])[H])C(C([H])([H])[H])(C([H])([H])[H])C([H])([H])[H])C([H])([H])c2c([H])c(OC([H])([H])C([H])([H])C(=O)N([H])c3c([H])c([H])c(N([H])C(=O)N4C([H])([H])C([H])([H])C([H])([H])C([H])(n5nc(-c6c([H])c([H])c(Oc7c([H])c([H])c(F)c([H])c7F)c([H])c6[H])c(C(=O)N([H])[H])c5N([H])[H])C4([H])[H])c([H])c3[H])c([H])c([H])c2C1([H])[H]

$$$$
41:0:0
     RDKit          3D

 96104  0  0  1  0  0  0  0  0999 V2000
  -30.6470  -20.6790   20.3380 C   0  0  0  0  0  3  0  0  0  0  0  0
  -30.8290  -19.2070   20.3410 C   0  0  0  0  0  3  0  0  0  0  0  0
  -28.3630  -20.4560   20.3150 C   0  0  0  0  0  3  0  0  0  0  0  0
  -29.4100  -21.4610   20.3210 C   0  0  0  0  0  0  0  0  0  0  0  0
  -28.5280  -18.9730   20.3390 C   0  0  0  0  0  0  0  0  0  0  0  0
  -29.7830  -18.2040   20.3460 C   0  0  0  0  0  0  0  0  0  0  0  0
  -30.6980  -15.4180   20.1690 C   0  0  0  0  0  0  0  0  0  0  0  0
  -30.6630  -13.0260   19.1960 C   0  0  0  0  0  2  0  0  0  0  0  0
  -29.6840  -12.8970   18.0020 C   0  0  0  0  0  2  0  0  0  0  0  0
  -28.2500  -12.6100   18.4870 C   0  0  0  0  0  2  0  0  0  0  0  0
  -27.8470  -13.5050   19.6880 C   0  0  0  0  0  3  0  0  0  0  0  0
  -28.9490  -13.5810   20.7670 C   0  0  0  0  0  2  0  0  0  0  0  0
  -30.1610  -14.1080   20.1120 N   0  0  0  0  0  0  0  0  0  0  0  0
  -31.8960  -15.4950   19.8620 O   0  0  0  0  0  0  0  0  0  0  0  0
  -29.8510  -16.5950   20.3860 N   0  0  0  0  0  0  0  0  0  0  0  0
  -28.9470  -16.2160   20.6170 H   0  0  0  0  0  0  0  0  0  0  0  0
  -25.4970  -14.0050   20.5570 C   0  0  0  0  0  0  0  0  0  0  0  0
  -24.4550  -13.2050   20.9180 C   0  0  0  0  0  0  0  0  0  0  0  0
  -24.9330  -11.8650   20.8170 C   0  0  0  0  0  0  0  0  0  0  0  0
  -26.5410  -13.1560   20.2340 N   0  0  0  0  0  0  0  0  0  0  0  0
  -26.2130  -11.8570   20.4560 N   0  0  0  0  0  0  0  0  0  0  0  0
  -24.2260  -10.5920   20.9890 C   0  0  0  0  0  0  0  0  0  0  0  0
  -24.6380   -9.6390   21.9460 C   0  0  0  0  0  3  0  0  0  0  0  0
  -23.9230   -8.4320   22.1040 C   0  0  0  0  0  3  0  0  0  0  0  0
  -22.7840   -8.1720   21.3050 C   0  0  0  0  0  0  0  0  0  0  0  0
  -22.3920   -9.1170   20.3380 C   0  0  0  0  0  3  0  0  0  0  0  0
  -23.1080  -10.3140   20.1800 C   0  0  0  0  0  3  0  0  0  0  0  0
  -22.0430   -7.0170   21.3670 O   0  0  0  0  0  0  0  0  0  0  0  0
  -21.8640   -6.3460   22.5490 C   0  0  0  0  0  0  0  0  0  0  0  0
  -21.2040   -6.9360   23.6500 C   0  0  0  0  0  3  0  0  0  0  0  0
  -20.9790   -6.1830   24.8200 C   0  0  0  0  0  3  0  0  0  0  0  0
  -21.4020   -4.8430   24.8900 C   0  0  0  0  0  0  0  0  0  0  0  0
  -22.0530   -4.2520   23.7910 C   0  0  0  0  0  3  0  0  0  0  0  0
  -22.2810   -5.0020   22.6240 C   0  0  0  0  0  0  0  0  0  0  0  0
  -22.8910   -4.4230   21.5630 F   0  0  0  0  0  0  0  0  0  0  0  0
  -21.1770   -4.1170   26.0100 F   0  0  0  0  0  0  0  0  0  0  0  0
  -23.0690  -13.6660   21.2670 C   0  0  0  0  0  0  0  0  0  0  0  0
  -22.3730  -12.9400   22.1350 N   0  0  0  0  0  0  0  0  0  0  0  0
  -22.6220  -14.7170   20.8090 O   0  0  0  0  0  0  0  0  0  0  0  0
  -22.7470  -12.0890   22.5260 H   0  0  0  0  0  0  0  0  0  0  0  0
  -21.4500  -13.2410   22.4090 H   0  0  0  0  0  0  0  0  0  0  0  0
  -25.6360  -15.3860   20.4910 N   0  0  0  0  0  0  0  0  0  0  0  0
  -24.6950  -15.7080   20.7070 H   0  0  0  0  0  0  0  0  0  0  0  0
  -26.1960  -15.5590   21.3180 H   0  0  0  0  0  0  0  0  0  0  0  0
  -27.2320  -18.1690   20.4000 C   0  0  0  0  0  2  0  0  0  0  0  0
  -25.4370  -18.9480   18.8810 C   0  0  0  0  0  1  0  0  0  0  0  0
  -27.4120  -17.8110   17.9150 C   0  0  0  0  0  1  0  0  0  0  0  0
  -26.5360  -17.9820   19.0990 N   0  0  1  0  0  4  0  0  0  0  0  0
  -26.0870  -17.0720   19.2040 H   0  0  0  0  0  0  0  0  0  0  0  0
  -29.3890  -23.2080   20.2880 C   0  0  0  0  0  3  0  0  0  0  0  0
  -30.2370  -23.5740   19.1410 N   0  0  0  0  0  4  0  0  0  0  0  0
  -29.7780  -23.3590   18.2740 H   0  0  0  0  0  0  0  0  0  0  0  0
  -31.1140  -23.0850   19.1710 H   0  0  0  0  0  0  0  0  0  0  0  0
  -30.4280  -24.5600   19.1590 H   0  0  0  0  0  0  0  0  0  0  0  0
  -28.1950  -24.5140   20.3630 C   0  0  0  0  0  2  0  0  0  0  0  0
  -28.4030  -26.1380   20.3500 O   0  0  0  0  0  0  0  0  0  0  0  0
  -24.6930  -31.9860   23.2670 C   0  0  0  0  0  0  0  0  0  0  0  0
  -27.3560  -27.1830   20.2870 C   0  0  0  0  0  0  0  0  0  0  0  0
  -23.5450  -30.5900   21.5950 C   0  0  0  0  0  3  0  0  0  0  0  0
  -25.0360  -29.0110   20.1990 C   0  0  0  0  0  0  0  0  0  0  0  0
  -26.1080  -30.8370   21.5000 C   0  0  0  0  0  2  0  0  0  0  0  0
  -26.2050  -29.4350   20.8430 C   0  0  0  0  0  0  0  0  0  0  0  0
  -27.3610  -28.5430   20.8600 C   0  0  0  0  0  3  0  0  0  0  0  0
  -26.1560  -26.8990   19.5980 C   0  0  0  0  0  3  0  0  0  0  0  0
  -25.0330  -27.7620   19.5590 C   0  0  0  0  0  3  0  0  0  0  0  0
  -23.8090  -29.9170   20.2210 C   0  0  0  0  0  2  0  0  0  0  0  0
  -24.8020  -31.1630   22.1750 N   0  0  0  0  0  0  0  0  0  0  0  0
  -23.5910  -32.2630   23.7680 O   0  0  0  0  0  0  0  0  0  0  0  0
  -22.8400  -29.5820   22.5380 C   0  0  0  0  0  0  0  0  0  0  0  0
  -21.5200  -29.3830   22.3610 N   0  0  0  0  0  0  0  0  0  0  0  0
  -23.4870  -28.9780   23.3980 O   0  0  0  0  0  0  0  0  0  0  0  0
  -21.0520  -29.9250   21.6490 H   0  0  0  0  0  0  0  0  0  0  0  0
  -18.1460  -28.1070   22.7480 C   0  0  0  0  0  0  0  0  0  0  0  0
  -20.6880  -28.4310   23.1040 C   0  0  0  0  0  3  0  0  0  0  0  0
  -20.8400  -26.9980   22.5390 C   0  0  0  0  0  2  0  0  0  0  0  0
  -19.7840  -26.6480   21.4870 C   0  0  0  0  0  2  0  0  0  0  0  0
  -18.3780  -26.7620   22.0800 C   0  0  0  0  0  2  0  0  0  0  0  0
  -19.2310  -28.8970   23.2140 C   0  0  0  0  0  0  0  0  0  0  0  0
  -18.9610  -30.1520   23.8010 C   0  0  0  0  0  3  0  0  0  0  0  0
  -17.6390  -30.6200   23.9250 C   0  0  0  0  0  3  0  0  0  0  0  0
  -16.5690  -29.8290   23.4740 C   0  0  0  0  0  3  0  0  0  0  0  0
  -16.8220  -28.5740   22.8930 C   0  0  0  0  0  3  0  0  0  0  0  0
  -25.9470  -32.6320   23.9320 C   0  0  0  0  0  3  0  0  0  0  0  0
  -25.6220  -34.0360   24.2440 N   0  0  0  0  0  0  0  0  0  0  0  0
  -25.9190  -35.0830   23.4630 C   0  0  0  0  0  0  0  0  0  0  0  0
  -26.5610  -34.9720   22.4150 O   0  0  0  0  0  0  0  0  0  0  0  0
  -25.0460  -34.1920   25.0580 H   0  0  0  0  0  0  0  0  0  0  0  0
  -24.1400  -36.8420   23.1660 C   0  0  0  0  0  1  0  0  0  0  0  0
  -25.4310  -36.4760   23.9150 C   0  0  0  0  0  3  0  0  0  0  0  0
  -27.5800  -37.4360   24.6200 C   0  0  0  0  0  1  0  0  0  0  0  0
  -26.4350  -37.5450   23.7190 N   0  0  0  0  0  0  0  0  0  0  0  0
  -26.0170  -38.4620   23.8480 H   0  0  0  0  0  0  0  0  0  0  0  0
  -26.4110  -31.8790   25.2400 C   0  0  1  0  0  0  0  0  0  0  0  0
  -25.2740  -31.6430   26.2620 C   0  0  0  0  0  1  0  0  0  0  0  0
  -27.0240  -30.5030   24.8950 C   0  0  0  0  0  1  0  0  0  0  0  0
  -27.5260  -32.6900   25.9420 C   0  0  0  0  0  1  0  0  0  0  0  0
  1  2  1  0
  2  6  2  0
  3  4  1  0
  3  5  2  0
  4  1  2  0
  5  6  1  0
  5 45  1  0
  6 15  1  0
  7 15  1  0
  8 13  1  0
  9 10  1  0
  9  8  1  0
 11 10  1  0
 11 20  1  0
 11 12  1  0
 13  7  1  0
 13 12  1  0
 14  7  2  0
 15 16  1  0
 17 18  2  0
 18 37  1  0
 19 18  1  0
 19 22  1  0
 20 21  1  0
 20 17  1  0
 21 19  2  0
 22 23  1  0
 23 24  2  0
 25 28  1  0
 25 24  1  0
 26 25  2  0
 27 26  1  0
 27 22  2  0
 28 29  1  0
 29 34  2  0
 29 30  1  0
 30 31  2  0
 31 32  1  0
 32 36  1  0
 33 32  2  0
 34 33  1  0
 35 34  1  0
 37 38  1  0
 38 41  1  0
 38 40  1  0
 39 37  2  0
 42 17  1  0
 42 43  1  0
 42 44  1  0
 46 48  1  0
 47 48  1  0
 48 49  1  1
 48 45  1  0
 50  4  1  0
 50 55  1  0
 51 54  1  0
 51 53  1  0
 51 50  1  0
 52 51  1  0
 56 55  1  0
 57 68  2  0
 58 56  1  0
 58 63  1  0
 59 67  1  0
 59 69  1  0
 60 66  1  0
 60 62  1  0
 61 67  1  0
 62 63  2  0
 62 61  1  0
 64 58  2  0
 65 64  1  0
 65 60  2  0
 66 59  1  0
 67 57  1  0
 69 71  2  0
 70 69  1  0
 72 70  1  0
 73 82  2  0
 73 78  1  0
 74 70  1  0
 74 78  1  0
 75 74  1  0
 76 77  1  0
 76 75  1  0
 77 73  1  0
 78 79  2  0
 79 80  1  0
 81 80  2  0
 82 81  1  0
 83 57  1  0
 83 84  1  0
 83 93  1  0
 84 87  1  0
 85 89  1  0
 85 84  1  0
 86 85  2  0
 89 88  1  0
 91 92  1  0
 91 89  1  0
 91 90  1  0
 93 96  1  1
 93 94  1  0
 95 93  1  0
M  ISO  4   7 100  15 100  55 101  56 101
M  END
>  <TORSDO>  (42) 
F 21

>  <SCORE>  (42) 
-13.111

>  <name>  (42) 
41

>  <ligand_id>  (42) 
41

>  <original_smiles>  (42) 
[H]c1c([H])c([H])c2c(c1[H])C([H])([H])C([H])([H])C([H])([H])C2([H])N([H])C(=O)C1([H])N(C(=O)C([H])(N([H])C(=O)C([H])(N([H])C([H])([H])[H])C([H])([H])[H])C(C([H])([H])[H])(C([H])([H])[H])C([H])([H])[H])C([H])([H])c2c([H])c(OC([H])([H])C([H])(c3c([H])c([H])c(N([H])C(=O)N4C([H])([H])C([H])([H])C([H])([H])C([H])(n5nc(-c6c([H])c([H])c(Oc7c([H])c([H])c(F)c([H])c7F)c([H])c6[H])c(C(=O)N([H])[H])c5N([H])[H])C4([H])[H])c(C([H])([H])[N+]([H])(C([H])([H])[H])C([H])([H])[H])c3[H])[N+]([H])([H])[H])c([H])c([H])c2C1([H])[H]

>  <smiles>  (42) 
[H]c1c([H])c([H])c2c(c1[H])C([H])([H])C([H])([H])C([H])([H])C2([H])N([H])C(=O)C1([H])N(C(=O)C([H])(N([H])C(=O)C([H])(N([H])C([H])([H])[H])C([H])([H])[H])C(C([H])([H])[H])(C([H])([H])[H])C([H])([H])[H])C([H])([H])c2c([H])c(OC([H])([H])C([H])(c3c([H])c([H])c(N([H])C(=O)N4C([H])([H])C([H])([H])C([H])([H])C([H])(n5nc(-c6c([H])c([H])c(Oc7c([H])c([H])c(F)c([H])c7F)c([H])c6[H])c(C(=O)N([H])[H])c5N([H])[H])C4([H])[H])c(C([H])([H])[N+]([H])(C([H])([H])[H])C([H])([H])[H])c3[H])[N+]([H])([H])[H])c([H])c([H])c2C1([H])[H]

$$$$
42:0:0
     RDKit          3D

 91 99  0  0  1  0  0  0  0  0999 V2000
  -29.0700  -23.3170   20.2440 C   0  0  0  0  0  0  0  0  0  0  0  0
  -27.5740  -21.5900   19.3740 C   0  0  0  0  0  1  0  0  0  0  0  0
  -28.7800  -21.8870   20.1460 N   0  0  0  0  0  0  0  0  0  0  0  0
  -30.2460  -23.6800   20.3640 O   0  0  0  0  0  0  0  0  0  0  0  0
  -31.1600  -19.4060   22.0720 C   0  0  0  0  0  3  0  0  0  0  0  0
  -31.0030  -18.1310   21.4850 C   0  0  0  0  0  3  0  0  0  0  0  0
  -29.3680  -19.1620   20.0290 C   0  0  0  0  0  3  0  0  0  0  0  0
  -30.4510  -20.5710   21.6790 C   0  0  0  0  0  0  0  0  0  0  0  0
  -30.0730  -17.8940   20.4610 C   0  0  0  0  0  0  0  0  0  0  0  0
  -29.5520  -20.5690   20.5650 C   0  0  0  0  0  0  0  0  0  0  0  0
  -30.6300  -21.7580   22.6150 C   0  0  0  0  0  1  0  0  0  0  0  0
  -30.6300  -15.1760   20.1430 C   0  0  0  0  0  0  0  0  0  0  0  0
  -30.5340  -12.7970   19.2140 C   0  0  0  0  0  2  0  0  0  0  0  0
  -29.5630  -12.6520   18.0200 C   0  0  0  0  0  2  0  0  0  0  0  0
  -28.1300  -12.3810   18.5160 C   0  0  0  0  0  2  0  0  0  0  0  0
  -27.7250  -13.3460   19.6600 C   0  0  0  0  0  3  0  0  0  0  0  0
  -28.8140  -13.4480   20.7460 C   0  0  0  0  0  2  0  0  0  0  0  0
  -30.0300  -13.9120   20.0660 N   0  0  0  0  0  0  0  0  0  0  0  0
  -31.8570  -15.1930   19.9860 O   0  0  0  0  0  0  0  0  0  0  0  0
  -29.8530  -16.3960   20.0780 N   0  0  0  0  0  0  0  0  0  0  0  0
  -28.8970  -16.2040   19.8130 H   0  0  0  0  0  0  0  0  0  0  0  0
  -25.3790  -13.9210   20.4970 C   0  0  0  0  0  0  0  0  0  0  0  0
  -24.3220  -13.1470   20.8910 C   0  0  0  0  0  0  0  0  0  0  0  0
  -24.7780  -11.7920   20.8190 C   0  0  0  0  0  0  0  0  0  0  0  0
  -26.4090  -13.0420   20.2090 N   0  0  0  0  0  0  0  0  0  0  0  0
  -26.0570  -11.7560   20.4680 N   0  0  0  0  0  0  0  0  0  0  0  0
  -24.0490  -10.5330   20.9950 C   0  0  0  0  0  0  0  0  0  0  0  0
  -24.4860   -9.5550   21.9140 C   0  0  0  0  0  3  0  0  0  0  0  0
  -23.7600   -8.3550   22.0830 C   0  0  0  0  0  3  0  0  0  0  0  0
  -22.5800   -8.1290   21.3350 C   0  0  0  0  0  0  0  0  0  0  0  0
  -22.1610   -9.0970   20.4030 C   0  0  0  0  0  3  0  0  0  0  0  0
  -22.8890  -10.2860   20.2330 C   0  0  0  0  0  3  0  0  0  0  0  0
  -21.8230   -6.9850   21.4160 O   0  0  0  0  0  0  0  0  0  0  0  0
  -21.7510   -6.2500   22.5740 C   0  0  0  0  0  0  0  0  0  0  0  0
  -21.2720   -6.8030   23.7800 C   0  0  0  0  0  3  0  0  0  0  0  0
  -21.1510   -5.9930   24.9280 C   0  0  0  0  0  3  0  0  0  0  0  0
  -21.4980   -4.6310   24.8670 C   0  0  0  0  0  0  0  0  0  0  0  0
  -21.9680   -4.0770   23.6640 C   0  0  0  0  0  3  0  0  0  0  0  0
  -22.0930   -4.8840   22.5190 C   0  0  0  0  0  0  0  0  0  0  0  0
  -22.5290   -4.3390   21.3590 F   0  0  0  0  0  0  0  0  0  0  0  0
  -21.3710   -3.8520   25.9660 F   0  0  0  0  0  0  0  0  0  0  0  0
  -22.9390  -13.6270   21.2140 C   0  0  0  0  0  0  0  0  0  0  0  0
  -22.2230  -12.9200   22.0790 N   0  0  0  0  0  0  0  0  0  0  0  0
  -22.5000  -14.6720   20.7310 O   0  0  0  0  0  0  0  0  0  0  0  0
  -22.5870  -12.0780   22.5010 H   0  0  0  0  0  0  0  0  0  0  0  0
  -21.2960  -13.2310   22.3280 H   0  0  0  0  0  0  0  0  0  0  0  0
  -25.5470  -15.2920   20.3230 N   0  0  0  0  0  0  0  0  0  0  0  0
  -24.7570  -15.9280   20.3340 H   0  0  0  0  0  0  0  0  0  0  0  0
  -26.3720  -15.7030   19.9070 H   0  0  0  0  0  0  0  0  0  0  0  0
  -27.9550  -24.5870   20.1390 C   0  0  0  0  0  2  0  0  0  0  0  0
  -28.2660  -26.1350   20.2950 O   0  0  0  0  0  0  0  0  0  0  0  0
  -24.6410  -31.9380   23.2220 C   0  0  0  0  0  0  0  0  0  0  0  0
  -27.2150  -27.1440   20.2300 C   0  0  0  0  0  0  0  0  0  0  0  0
  -23.4410  -30.5230   21.6050 C   0  0  0  0  0  3  0  0  0  0  0  0
  -24.8820  -28.9170   20.1980 C   0  0  0  0  0  0  0  0  0  0  0  0
  -25.9980  -30.7690   21.4350 C   0  0  0  0  0  2  0  0  0  0  0  0
  -26.0680  -29.3620   20.7970 C   0  0  0  0  0  0  0  0  0  0  0  0
  -27.2290  -28.4910   20.7990 C   0  0  0  0  0  3  0  0  0  0  0  0
  -26.0020  -26.8200   19.5820 C   0  0  0  0  0  3  0  0  0  0  0  0
  -24.8630  -27.6570   19.5780 C   0  0  0  0  0  3  0  0  0  0  0  0
  -23.6620  -29.8290   20.2350 C   0  0  0  0  0  2  0  0  0  0  0  0
  -24.7140  -31.1000   22.1420 N   0  0  0  0  0  0  0  0  0  0  0  0
  -23.5550  -32.2350   23.7460 O   0  0  0  0  0  0  0  0  0  0  0  0
  -22.7610  -29.5320   22.5850 C   0  0  0  0  0  0  0  0  0  0  0  0
  -21.4340  -29.3510   22.4560 N   0  0  0  0  0  0  0  0  0  0  0  0
  -23.4300  -28.9310   23.4290 O   0  0  0  0  0  0  0  0  0  0  0  0
  -20.9550  -29.8740   21.7350 H   0  0  0  0  0  0  0  0  0  0  0  0
  -18.0630  -28.1290   22.9750 C   0  0  0  0  0  0  0  0  0  0  0  0
  -20.6170  -28.4230   23.2440 C   0  0  0  0  0  3  0  0  0  0  0  0
  -20.7420  -26.9840   22.6960 C   0  0  0  0  0  2  0  0  0  0  0  0
  -19.6480  -26.6290   21.6850 C   0  0  0  0  0  2  0  0  0  0  0  0
  -18.2600  -26.7720   22.3190 C   0  0  0  0  0  2  0  0  0  0  0  0
  -19.1720  -28.9120   23.3950 C   0  0  0  0  0  0  0  0  0  0  0  0
  -18.9400  -30.1780   23.9720 C   0  0  0  0  0  3  0  0  0  0  0  0
  -17.6290  -30.6630   24.1360 C   0  0  0  0  0  3  0  0  0  0  0  0
  -16.5330  -29.8810   23.7310 C   0  0  0  0  0  3  0  0  0  0  0  0
  -16.7510  -28.6170   23.1540 C   0  0  0  0  0  3  0  0  0  0  0  0
  -25.9200  -32.5840   23.8370 C   0  0  0  0  0  3  0  0  0  0  0  0
  -25.6040  -33.9810   24.1750 N   0  0  0  0  0  0  0  0  0  0  0  0
  -25.9150  -35.0430   23.4190 C   0  0  0  0  0  0  0  0  0  0  0  0
  -26.5670  -34.9470   22.3750 O   0  0  0  0  0  0  0  0  0  0  0  0
  -25.0210  -34.1270   24.9860 H   0  0  0  0  0  0  0  0  0  0  0  0
  -24.1800  -36.8340   23.0860 C   0  0  0  0  0  1  0  0  0  0  0  0
  -25.4280  -36.4290   23.8890 C   0  0  0  0  0  3  0  0  0  0  0  0
  -27.5630  -37.3150   24.7180 C   0  0  0  0  0  1  0  0  0  0  0  0
  -26.4580  -37.4860   23.7760 N   0  0  0  0  0  0  0  0  0  0  0  0
  -26.0540  -38.4070   23.9230 H   0  0  0  0  0  0  0  0  0  0  0  0
  -26.4450  -31.8150   25.1120 C   0  0  1  0  0  0  0  0  0  0  0  0
  -25.3520  -31.5630   26.1780 C   0  0  0  0  0  1  0  0  0  0  0  0
  -27.0400  -30.4430   24.7240 C   0  0  0  0  0  1  0  0  0  0  0  0
  -27.6010  -32.6090   25.7630 C   0  0  0  0  0  1  0  0  0  0  0  0
  1  4  2  0
  2  3  1  0
  3  1  1  0
  3 10  1  0
  6  5  2  0
  7  9  2  0
  7 10  1  0
  8  5  1  0
  8 11  1  0
  9  6  1  0
 10  8  2  0
 13 18  1  0
 14 15  1  0
 14 13  1  0
 16 15  1  0
 16 25  1  0
 16 17  1  0
 18 12  1  0
 18 17  1  0
 19 12  2  0
 20 12  1  0
 20  9  1  0
 21 20  1  0
 22 23  2  0
 23 42  1  0
 24 23  1  0
 24 27  1  0
 25 26  1  0
 25 22  1  0
 26 24  2  0
 27 28  1  0
 28 29  2  0
 30 33  1  0
 30 29  1  0
 31 30  2  0
 32 31  1  0
 32 27  2  0
 33 34  1  0
 34 35  1  0
 35 36  2  0
 37 36  1  0
 37 41  1  0
 38 37  2  0
 39 34  2  0
 39 38  1  0
 40 39  1  0
 42 43  1  0
 43 46  1  0
 43 45  1  0
 44 42  2  0
 47 48  1  0
 47 22  1  0
 49 47  1  0
 50  1  1  0
 50 51  1  0
 52 63  2  0
 53 51  1  0
 53 58  1  0
 54 62  1  0
 54 64  1  0
 55 61  1  0
 55 57  1  0
 56 62  1  0
 57 58  2  0
 57 56  1  0
 59 53  2  0
 60 59  1  0
 60 55  2  0
 61 54  1  0
 62 52  1  0
 64 66  2  0
 65 64  1  0
 67 65  1  0
 68 77  2  0
 68 73  1  0
 69 65  1  0
 69 73  1  0
 70 69  1  0
 71 72  1  0
 71 70  1  0
 72 68  1  0
 73 74  2  0
 74 75  1  0
 76 75  2  0
 77 76  1  0
 78 52  1  0
 78 79  1  0
 78 88  1  0
 79 82  1  0
 80 84  1  0
 80 79  1  0
 81 80  2  0
 84 83  1  0
 86 84  1  0
 86 87  1  0
 86 85  1  0
 88 91  1  1
 88 89  1  0
 90 88  1  0
M  ISO  4  12 100  20 100  50 101  51 101
M  END
>  <TORSDO>  (43) 
F 18

>  <SCORE>  (43) 
-14.965

>  <name>  (43) 
42

>  <ligand_id>  (43) 
42

>  <original_smiles>  (43) 
[H]c1c([H])c([H])c2c(c1[H])C([H])([H])C([H])([H])C([H])([H])C2([H])N([H])C(=O)C1([H])N(C(=O)C([H])(N([H])C(=O)C([H])(N([H])C([H])([H])[H])C([H])([H])[H])C(C([H])([H])[H])(C([H])([H])[H])C([H])([H])[H])C([H])([H])c2c([H])c(OC([H])([H])C(=O)N(c3c([H])c(N([H])C(=O)N4C([H])([H])C([H])([H])C([H])([H])C([H])(n5nc(-c6c([H])c([H])c(Oc7c([H])c([H])c(F)c([H])c7F)c([H])c6[H])c(C(=O)N([H])[H])c5N([H])[H])C4([H])[H])c([H])c([H])c3C([H])([H])[H])C([H])([H])[H])c([H])c([H])c2C1([H])[H]

>  <smiles>  (43) 
[H]c1c([H])c([H])c2c(c1[H])C([H])([H])C([H])([H])C([H])([H])C2([H])N([H])C(=O)C1([H])N(C(=O)C([H])(N([H])C(=O)C([H])(N([H])C([H])([H])[H])C([H])([H])[H])C(C([H])([H])[H])(C([H])([H])[H])C([H])([H])[H])C([H])([H])c2c([H])c(OC([H])([H])C(=O)N(c3c([H])c(N([H])C(=O)N4C([H])([H])C([H])([H])C([H])([H])C([H])(n5nc(-c6c([H])c([H])c(Oc7c([H])c([H])c(F)c([H])c7F)c([H])c6[H])c(C(=O)N([H])[H])c5N([H])[H])C4([H])[H])c([H])c([H])c3C([H])([H])[H])C([H])([H])[H])c([H])c([H])c2C1([H])[H]

$$$$
43:0:0
     RDKit          3D

102111  0  0  1  0  0  0  0  0999 V2000
  -29.4270  -20.5690   21.6210 C   0  0  0  0  0  0  0  0  0  0  0  0
  -29.2840  -20.7630   22.8310 O   0  0  0  0  0  0  0  0  0  0  0  0
  -27.3950  -22.1260   21.1890 C   0  0  0  0  0  2  0  0  0  0  0  0
  -29.4930  -22.4470   19.8430 C   0  0  0  0  0  2  0  0  0  0  0  0
  -27.7310  -23.4150   21.9750 C   0  0  0  0  0  2  0  0  0  0  0  0
  -29.8000  -23.7030   20.6870 C   0  0  0  0  0  2  0  0  0  0  0  0
  -28.6310  -21.4070   20.5950 C   0  0  0  0  0  3  0  0  0  0  0  0
  -28.5570  -24.3620   21.1760 N   0  0  2  0  0  4  0  0  0  0  0  0
  -28.0020  -24.6090   20.3670 H   0  0  0  0  0  0  0  0  0  0  0  0
  -28.8090  -25.6430   21.9020 C   0  0  0  0  0  2  0  0  0  0  0  0
  -29.3510  -26.7700   20.9940 C   0  0  0  0  0  2  0  0  0  0  0  0
  -28.5290  -26.9150   19.8320 O   0  0  0  0  0  0  0  0  0  0  0  0
  -24.7060  -31.9160   23.2330 C   0  0  0  0  0  0  0  0  0  0  0  0
  -27.3650  -27.6370   19.9650 C   0  0  0  0  0  0  0  0  0  0  0  0
  -23.4760  -30.5120   21.6070 C   0  0  0  0  0  3  0  0  0  0  0  0
  -24.9200  -29.0490   20.0960 C   0  0  0  0  0  0  0  0  0  0  0  0
  -25.9760  -30.9580   21.3180 C   0  0  0  0  0  2  0  0  0  0  0  0
  -26.0800  -29.6010   20.6560 C   0  0  0  0  0  0  0  0  0  0  0  0
  -27.3040  -28.9020   20.5950 C   0  0  0  0  0  3  0  0  0  0  0  0
  -26.1940  -27.1010   19.3920 C   0  0  0  0  0  3  0  0  0  0  0  0
  -24.9700  -27.7930   19.4640 C   0  0  0  0  0  3  0  0  0  0  0  0
  -23.6510  -29.8640   20.2060 C   0  0  0  0  0  2  0  0  0  0  0  0
  -24.7390  -31.1420   22.1110 N   0  0  0  0  0  0  0  0  0  0  0  0
  -23.6400  -32.1440   23.8210 O   0  0  0  0  0  0  0  0  0  0  0  0
  -22.8950  -29.4520   22.5680 C   0  0  0  0  0  0  0  0  0  0  0  0
  -21.5920  -29.1600   22.4180 N   0  0  0  0  0  0  0  0  0  0  0  0
  -23.6110  -28.8920   23.4020 O   0  0  0  0  0  0  0  0  0  0  0  0
  -21.0720  -29.6690   21.7170 H   0  0  0  0  0  0  0  0  0  0  0  0
  -18.3420  -27.6280   22.7870 C   0  0  0  0  0  0  0  0  0  0  0  0
  -20.8390  -28.1680   23.1830 C   0  0  0  0  0  3  0  0  0  0  0  0
  -21.1240  -26.7370   22.6700 C   0  0  0  0  0  2  0  0  0  0  0  0
  -20.1210  -26.2630   21.6130 C   0  0  0  0  0  2  0  0  0  0  0  0
  -18.6970  -26.2820   22.1780 C   0  0  0  0  0  2  0  0  0  0  0  0
  -19.3490  -28.5200   23.2440 C   0  0  0  0  0  0  0  0  0  0  0  0
  -18.9670  -29.7740   23.7690 C   0  0  0  0  0  3  0  0  0  0  0  0
  -17.6100  -30.1390   23.8440 C   0  0  0  0  0  3  0  0  0  0  0  0
  -16.6170  -29.2460   23.4060 C   0  0  0  0  0  3  0  0  0  0  0  0
  -16.9840  -27.9920   22.8840 C   0  0  0  0  0  3  0  0  0  0  0  0
  -25.9990  -32.5670   23.8170 C   0  0  0  0  0  3  0  0  0  0  0  0
  -25.6700  -33.9510   24.1840 N   0  0  0  0  0  0  0  0  0  0  0  0
  -25.9520  -35.0230   23.4320 C   0  0  0  0  0  0  0  0  0  0  0  0
  -26.5910  -34.9540   22.3790 O   0  0  0  0  0  0  0  0  0  0  0  0
  -25.0990  -34.0780   25.0070 H   0  0  0  0  0  0  0  0  0  0  0  0
  -24.1640  -36.7720   23.1690 C   0  0  0  0  0  1  0  0  0  0  0  0
  -25.4450  -36.3900   23.9290 C   0  0  0  0  0  3  0  0  0  0  0  0
  -27.5860  -37.3180   24.6920 C   0  0  0  0  0  1  0  0  0  0  0  0
  -26.4440  -37.4720   23.7950 N   0  0  0  0  0  0  0  0  0  0  0  0
  -26.0210  -38.3780   23.9760 H   0  0  0  0  0  0  0  0  0  0  0  0
  -26.5860  -31.7850   25.0550 C   0  0  1  0  0  0  0  0  0  0  0  0
  -25.5370  -31.4770   26.1480 C   0  0  0  0  0  1  0  0  0  0  0  0
  -27.2120  -30.4450   24.6040 C   0  0  0  0  0  1  0  0  0  0  0  0
  -27.7220  -32.6100   25.7060 C   0  0  0  0  0  1  0  0  0  0  0  0
  -29.9360  -18.1930   20.9780 C   0  0  0  0  0  3  0  0  0  0  0  0
  -32.1430  -17.5780   20.1530 C   0  0  0  0  0  3  0  0  0  0  0  0
  -30.3510  -19.5420   21.0800 C   0  0  0  0  0  0  0  0  0  0  0  0
  -32.5880  -18.9120   20.2820 C   0  0  0  0  0  0  0  0  0  0  0  0
  -30.8220  -17.2080   20.4870 C   0  0  0  0  0  0  0  0  0  0  0  0
  -31.6760  -19.8980   20.7400 C   0  0  0  0  0  0  0  0  0  0  0  0
  -32.0640  -21.1930   20.8680 F   0  0  0  0  0  0  0  0  0  0  0  0
  -31.0220  -14.8280   19.8010 C   0  0  0  0  0  0  0  0  0  0  0  0
  -30.7790  -12.5010   19.0050 C   0  0  0  0  0  2  0  0  0  0  0  0
  -29.8070  -12.4420   17.8100 C   0  0  0  0  0  2  0  0  0  0  0  0
  -28.3500  -12.3180   18.2970 C   0  0  0  0  0  2  0  0  0  0  0  0
  -27.9950  -13.3590   19.3920 C   0  0  0  0  0  3  0  0  0  0  0  0
  -29.0750  -13.3800   20.4980 C   0  0  0  0  0  2  0  0  0  0  0  0
  -30.3790  -13.6310   19.8590 N   0  0  0  0  0  0  0  0  0  0  0  0
  -32.0800  -14.9830   19.1800 O   0  0  0  0  0  0  0  0  0  0  0  0
  -30.3840  -15.8560   20.3930 N   0  0  0  0  0  0  0  0  0  0  0  0
  -29.4630  -15.6470   20.7470 H   0  0  0  0  0  0  0  0  0  0  0  0
  -25.6640  -14.0360   20.2480 C   0  0  0  0  0  0  0  0  0  0  0  0
  -24.5920  -13.2930   20.6640 C   0  0  0  0  0  0  0  0  0  0  0  0
  -25.0020  -11.9270   20.5780 C   0  0  0  0  0  0  0  0  0  0  0  0
  -26.6620  -13.1240   19.9400 N   0  0  0  0  0  0  0  0  0  0  0  0
  -26.2690  -11.8490   20.1930 N   0  0  0  0  0  0  0  0  0  0  0  0
  -24.2440  -10.6860   20.7850 C   0  0  0  0  0  0  0  0  0  0  0  0
  -24.6490   -9.7230   21.7340 C   0  0  0  0  0  3  0  0  0  0  0  0
  -23.8940   -8.5460   21.9280 C   0  0  0  0  0  3  0  0  0  0  0  0
  -22.7180   -8.3260   21.1700 C   0  0  0  0  0  0  0  0  0  0  0  0
  -22.3310   -9.2770   20.2110 C   0  0  0  0  0  3  0  0  0  0  0  0
  -23.0880  -10.4450   20.0170 C   0  0  0  0  0  3  0  0  0  0  0  0
  -21.9360   -7.2010   21.2720 O   0  0  0  0  0  0  0  0  0  0  0  0
  -21.7890   -6.5310   22.4600 C   0  0  0  0  0  0  0  0  0  0  0  0
  -21.2840   -7.1660   23.6160 C   0  0  0  0  0  3  0  0  0  0  0  0
  -21.0850   -6.4230   24.7960 C   0  0  0  0  0  3  0  0  0  0  0  0
  -21.3780   -5.0470   24.8220 C   0  0  0  0  0  0  0  0  0  0  0  0
  -21.8760   -4.4120   23.6700 C   0  0  0  0  0  3  0  0  0  0  0  0
  -22.0770   -5.1510   22.4920 C   0  0  0  0  0  0  0  0  0  0  0  0
  -22.5370   -4.5310   21.3790 F   0  0  0  0  0  0  0  0  0  0  0  0
  -21.1790   -4.3310   25.9530 F   0  0  0  0  0  0  0  0  0  0  0  0
  -23.2320  -13.8120   21.0300 C   0  0  0  0  0  0  0  0  0  0  0  0
  -22.5440  -13.1350   21.9440 N   0  0  0  0  0  0  0  0  0  0  0  0
  -22.7910  -14.8510   20.5410 O   0  0  0  0  0  0  0  0  0  0  0  0
  -22.9140  -12.2930   22.3590 H   0  0  0  0  0  0  0  0  0  0  0  0
  -21.6330  -13.4660   22.2330 H   0  0  0  0  0  0  0  0  0  0  0  0
  -25.8680  -15.4040   20.0870 N   0  0  0  0  0  0  0  0  0  0  0  0
  -25.1300  -16.0820   20.2460 H   0  0  0  0  0  0  0  0  0  0  0  0
  -26.7080  -15.8160   19.7030 H   0  0  0  0  0  0  0  0  0  0  0  0
  -34.0110  -19.2380   19.9030 C   0  0  0  0  0  0  0  0  0  0  0  0
  -34.5830  -20.2720   20.5040 N   0  0  0  0  0  0  0  0  0  0  0  0
  -34.6440  -18.5320   19.1180 O   0  0  0  0  0  0  0  0  0  0  0  0
  -34.0260  -20.8550   21.1170 H   0  0  0  0  0  0  0  0  0  0  0  0
  -35.5430  -20.5160   20.3110 H   0  0  0  0  0  0  0  0  0  0  0  0
  1  2  2  0
  3  5  1  0
  4  7  1  0
  4  6  1  0
  6  8  1  0
  7  3  1  0
  7  1  1  0
  8 10  1  0
  8  5  1  0
  8  9  1  6
 11 10  1  0
 12 14  1  0
 12 11  1  0
 13 24  2  0
 14 19  1  0
 15 23  1  0
 15 25  1  0
 16 22  1  0
 16 18  1  0
 17 23  1  0
 18 17  1  0
 19 18  2  0
 20 21  1  0
 20 14  2  0
 21 16  2  0
 22 15  1  0
 23 13  1  0
 25 27  2  0
 26 25  1  0
 28 26  1  0
 29 38  2  0
 29 34  1  0
 30 26  1  0
 30 34  1  0
 31 30  1  0
 32 33  1  0
 32 31  1  0
 33 29  1  0
 34 35  2  0
 35 36  1  0
 37 36  2  0
 38 37  1  0
 39 13  1  0
 39 40  1  0
 39 49  1  0
 40 43  1  0
 41 45  1  0
 41 40  1  0
 42 41  2  0
 45 44  1  0
 47 45  1  0
 47 48  1  0
 47 46  1  0
 49 52  1  1
 49 50  1  0
 51 49  1  0
 53 55  1  0
 54 56  2  0
 54 57  1  0
 55  1  1  0
 56 58  1  0
 57 53  2  0
 58 59  1  0
 58 55  2  0
 60 66  1  0
 60 68  1  0
 61 66  1  0
 62 63  1  0
 62 61  1  0
 64 63  1  0
 64 73  1  0
 64 65  1  0
 66 65  1  0
 67 60  2  0
 68 57  1  0
 68 69  1  0
 70 71  2  0
 71 90  1  0
 72 71  1  0
 72 75  1  0
 73 74  1  0
 73 70  1  0
 74 72  2  0
 75 76  1  0
 76 77  2  0
 78 81  1  0
 78 77  1  0
 79 78  2  0
 80 79  1  0
 80 75  2  0
 81 82  1  0
 82 87  2  0
 82 83  1  0
 83 84  2  0
 84 85  1  0
 85 89  1  0
 86 85  2  0
 87 86  1  0
 88 87  1  0
 90 91  1  0
 91 94  1  0
 91 93  1  0
 92 90  2  0
 95 96  1  0
 95 70  1  0
 97 95  1  0
 98 56  1  0
 98 99  1  0
 99101  1  0
100 98  2  0
102 99  1  0
M  ISO  4  11 101  12 101  60 100  68 100
M  END
>  <TORSDO>  (44) 
F 21

>  <SCORE>  (44) 
-12.576

>  <name>  (44) 
43

>  <ligand_id>  (44) 
43

>  <original_smiles>  (44) 
[H]c1c([H])c([H])c2c(c1[H])C([H])([H])C([H])([H])C([H])([H])C2([H])N([H])C(=O)C1([H])N(C(=O)C([H])(N([H])C(=O)C([H])(N([H])C([H])([H])[H])C([H])([H])[H])C(C([H])([H])[H])(C([H])([H])[H])C([H])([H])[H])C([H])([H])c2c([H])c(OC([H])([H])C([H])([H])[N+]3([H])C([H])([H])C([H])([H])C([H])(C(=O)c4c([H])c(N([H])C(=O)N5C([H])([H])C([H])([H])C([H])([H])C([H])(n6nc(-c7c([H])c([H])c(Oc8c([H])c([H])c(F)c([H])c8F)c([H])c7[H])c(C(=O)N([H])[H])c6N([H])[H])C5([H])[H])c([H])c(C(=O)N([H])[H])c4F)C([H])([H])C3([H])[H])c([H])c([H])c2C1([H])[H]

>  <smiles>  (44) 
[H]c1c([H])c([H])c2c(c1[H])C([H])([H])C([H])([H])C([H])([H])C2([H])N([H])C(=O)C1([H])N(C(=O)C([H])(N([H])C(=O)C([H])(N([H])C([H])([H])[H])C([H])([H])[H])C(C([H])([H])[H])(C([H])([H])[H])C([H])([H])[H])C([H])([H])c2c([H])c(OC([H])([H])C([H])([H])[N+]3([H])C([H])([H])C([H])([H])C([H])(C(=O)c4c([H])c(N([H])C(=O)N5C([H])([H])C([H])([H])C([H])([H])C([H])(n6nc(-c7c([H])c([H])c(Oc8c([H])c([H])c(F)c([H])c8F)c([H])c7[H])c(C(=O)N([H])[H])c6N([H])[H])C5([H])[H])c([H])c(C(=O)N([H])[H])c4F)C([H])([H])C3([H])[H])c([H])c([H])c2C1([H])[H]

$$$$
44:0:0
     RDKit          3D

 99107  0  0  1  0  0  0  0  0999 V2000
  -30.2150  -20.7720   18.7420 C   0  0  0  0  0  3  0  0  0  0  0  0
  -30.4390  -19.3410   19.0850 C   0  0  0  0  0  3  0  0  0  0  0  0
  -29.4050  -19.7010   21.1060 C   0  0  0  0  0  3  0  0  0  0  0  0
  -29.5800  -21.8150   19.5520 C   0  0  0  0  0  0  0  0  0  0  0  0
  -30.0600  -18.6660   20.3160 C   0  0  0  0  0  0  0  0  0  0  0  0
  -29.1990  -21.1400   20.7850 C   0  0  0  0  0  0  0  0  0  0  0  0
  -30.9880  -15.9540   20.8980 C   0  0  0  0  0  0  0  0  0  0  0  0
  -31.1890  -13.4020   20.5470 C   0  0  0  0  0  2  0  0  0  0  0  0
  -30.5090  -12.9500   19.2290 C   0  0  0  0  0  2  0  0  0  0  0  0
  -29.0050  -12.7030   19.4450 C   0  0  0  0  0  2  0  0  0  0  0  0
  -28.3430  -13.8320   20.2740 C   0  0  0  0  0  3  0  0  0  0  0  0
  -29.1650  -14.2100   21.5250 C   0  0  0  0  0  2  0  0  0  0  0  0
  -30.4920  -14.6350   21.0520 N   0  0  0  0  0  0  0  0  0  0  0  0
  -32.2230  -16.0210   20.8020 O   0  0  0  0  0  0  0  0  0  0  0  0
  -30.1080  -17.1150   20.7330 N   0  0  0  0  0  0  0  0  0  0  0  0
  -29.1850  -16.8050   21.0010 H   0  0  0  0  0  0  0  0  0  0  0  0
  -25.8990  -14.4470   20.6810 C   0  0  0  0  0  0  0  0  0  0  0  0
  -24.7810  -13.6920   20.8990 C   0  0  0  0  0  0  0  0  0  0  0  0
  -25.2190  -12.3320   20.9320 C   0  0  0  0  0  0  0  0  0  0  0  0
  -26.9480  -13.5490   20.5860 N   0  0  0  0  0  0  0  0  0  0  0  0
  -26.5400  -12.2720   20.8050 N   0  0  0  0  0  0  0  0  0  0  0  0
  -24.4470  -11.0860   21.0170 C   0  0  0  0  0  0  0  0  0  0  0  0
  -24.7540  -10.0890   21.9690 C   0  0  0  0  0  3  0  0  0  0  0  0
  -23.9820   -8.9090   22.0440 C   0  0  0  0  0  3  0  0  0  0  0  0
  -22.8890   -8.7180   21.1660 C   0  0  0  0  0  0  0  0  0  0  0  0
  -22.6020   -9.7030   20.2050 C   0  0  0  0  0  3  0  0  0  0  0  0
  -23.3740  -10.8740   20.1280 C   0  0  0  0  0  3  0  0  0  0  0  0
  -22.1000   -7.5920   21.1490 O   0  0  0  0  0  0  0  0  0  0  0  0
  -21.9340   -6.8140   22.2660 C   0  0  0  0  0  0  0  0  0  0  0  0
  -21.4410   -7.3450   23.4780 C   0  0  0  0  0  3  0  0  0  0  0  0
  -21.2190   -6.4950   24.5800 C   0  0  0  0  0  3  0  0  0  0  0  0
  -21.4800   -5.1160   24.4710 C   0  0  0  0  0  0  0  0  0  0  0  0
  -21.9660   -4.5840   23.2640 C   0  0  0  0  0  3  0  0  0  0  0  0
  -22.1890   -5.4300   22.1640 C   0  0  0  0  0  0  0  0  0  0  0  0
  -22.6380   -4.9100   20.9960 F   0  0  0  0  0  0  0  0  0  0  0  0
  -21.2600   -4.2990   25.5280 F   0  0  0  0  0  0  0  0  0  0  0  0
  -23.3700  -14.1990   20.9680 C   0  0  0  0  0  0  0  0  0  0  0  0
  -22.5120  -13.5230   21.7250 N   0  0  0  0  0  0  0  0  0  0  0  0
  -23.0320  -15.2310   20.3880 O   0  0  0  0  0  0  0  0  0  0  0  0
  -22.7950  -12.6870   22.2150 H   0  0  0  0  0  0  0  0  0  0  0  0
  -21.5580  -13.8460   21.8140 H   0  0  0  0  0  0  0  0  0  0  0  0
  -26.1110  -15.8140   20.5250 N   0  0  0  0  0  0  0  0  0  0  0  0
  -25.3330  -16.4640   20.4830 H   0  0  0  0  0  0  0  0  0  0  0  0
  -26.9880  -16.2260   20.2380 H   0  0  0  0  0  0  0  0  0  0  0  0
  -28.4930  -21.3630   23.1000 C   0  0  0  0  0  1  0  0  0  0  0  0
  -28.6160  -21.9540   21.7690 N   0  0  0  0  0  0  0  0  0  0  0  0
  -27.6120  -22.9100   21.2990 C   0  0  0  0  0  2  0  0  0  0  0  0
  -26.3450  -22.2440   20.7110 C   0  0  0  0  0  2  0  0  0  0  0  0
  -25.7970  -23.9370   18.9790 C   0  0  0  0  0  1  0  0  0  0  0  0
  -24.0140  -22.6130   20.0160 C   0  0  0  0  0  1  0  0  0  0  0  0
  -25.3520  -23.2230   20.2000 N   0  0  1  0  0  4  0  0  0  0  0  0
  -25.2350  -23.9210   20.9200 H   0  0  0  0  0  0  0  0  0  0  0  0
  -29.6290  -23.5400   19.2690 C   0  0  0  0  0  3  0  0  0  0  0  0
  -30.7540  -23.7720   18.3440 N   0  0  0  0  0  4  0  0  0  0  0  0
  -30.5120  -23.5030   17.4060 H   0  0  0  0  0  0  0  0  0  0  0  0
  -31.5660  -23.2570   18.6320 H   0  0  0  0  0  0  0  0  0  0  0  0
  -30.9930  -24.7500   18.3330 H   0  0  0  0  0  0  0  0  0  0  0  0
  -28.4660  -24.8360   18.9410 C   0  0  0  0  0  2  0  0  0  0  0  0
  -28.5970  -26.4530   19.1310 O   0  0  0  0  0  0  0  0  0  0  0  0
  -24.8220  -31.6330   23.0440 C   0  0  0  0  0  0  0  0  0  0  0  0
  -27.5040  -27.4450   19.2570 C   0  0  0  0  0  0  0  0  0  0  0  0
  -23.6290  -30.4140   21.2670 C   0  0  0  0  0  3  0  0  0  0  0  0
  -25.0950  -29.1280   19.5710 C   0  0  0  0  0  0  0  0  0  0  0  0
  -26.1650  -30.8180   21.0490 C   0  0  0  0  0  2  0  0  0  0  0  0
  -26.2840  -29.5270   20.1950 C   0  0  0  0  0  0  0  0  0  0  0  0
  -27.4810  -28.7100   20.0160 C   0  0  0  0  0  3  0  0  0  0  0  0
  -26.2750  -27.1860   18.6100 C   0  0  0  0  0  3  0  0  0  0  0  0
  -25.1110  -27.9810   18.7620 C   0  0  0  0  0  3  0  0  0  0  0  0
  -23.8290  -29.9490   19.7990 C   0  0  0  0  0  2  0  0  0  0  0  0
  -24.8950  -30.9750   21.8440 N   0  0  0  0  0  0  0  0  0  0  0  0
  -23.7450  -31.7750   23.6460 O   0  0  0  0  0  0  0  0  0  0  0  0
  -23.0420  -29.2490   22.1040 C   0  0  0  0  0  0  0  0  0  0  0  0
  -21.7290  -28.9860   21.9680 N   0  0  0  0  0  0  0  0  0  0  0  0
  -23.7730  -28.5840   22.8430 O   0  0  0  0  0  0  0  0  0  0  0  0
  -21.1860  -29.5810   21.3570 H   0  0  0  0  0  0  0  0  0  0  0  0
  -18.4820  -27.4030   22.2950 C   0  0  0  0  0  0  0  0  0  0  0  0
  -21.0010  -27.8920   22.6210 C   0  0  0  0  0  3  0  0  0  0  0  0
  -21.2480  -26.5480   21.8950 C   0  0  0  0  0  2  0  0  0  0  0  0
  -20.1860  -26.2310   20.8370 C   0  0  0  0  0  2  0  0  0  0  0  0
  -18.7950  -26.1630   21.4740 C   0  0  0  0  0  2  0  0  0  0  0  0
  -19.5160  -28.2220   22.8190 C   0  0  0  0  0  0  0  0  0  0  0  0
  -19.1660  -29.3800   23.5490 C   0  0  0  0  0  3  0  0  0  0  0  0
  -17.8170  -29.7210   23.7570 C   0  0  0  0  0  3  0  0  0  0  0  0
  -16.7980  -28.9000   23.2450 C   0  0  0  0  0  3  0  0  0  0  0  0
  -17.1300  -27.7410   22.5210 C   0  0  0  0  0  3  0  0  0  0  0  0
  -26.0850  -32.2550   23.7130 C   0  0  0  0  0  3  0  0  0  0  0  0
  -26.6610  -31.3740   24.8900 C   0  0  1  0  0  0  0  0  0  0  0  0
  -25.6050  -30.9860   25.9530 C   0  0  0  0  0  1  0  0  0  0  0  0
  -27.2800  -30.0660   24.3470 C   0  0  0  0  0  1  0  0  0  0  0  0
  -27.8010  -32.1350   25.6050 C   0  0  0  0  0  1  0  0  0  0  0  0
  -25.7220  -33.5920   24.2130 N   0  0  0  0  0  0  0  0  0  0  0  0
  -25.9880  -34.7450   23.5840 C   0  0  0  0  0  0  0  0  0  0  0  0
  -26.6290  -34.7970   22.5310 O   0  0  0  0  0  0  0  0  0  0  0  0
  -25.1470  -33.6220   25.0430 H   0  0  0  0  0  0  0  0  0  0  0  0
  -24.1730  -36.4880   23.5120 C   0  0  0  0  0  1  0  0  0  0  0  0
  -25.4630  -36.0470   24.2230 C   0  0  0  0  0  3  0  0  0  0  0  0
  -27.5900  -36.9290   25.0740 C   0  0  0  0  0  1  0  0  0  0  0  0
  -26.4440  -37.1550   24.1980 N   0  0  0  0  0  0  0  0  0  0  0  0
  -26.0050  -38.0300   24.4690 H   0  0  0  0  0  0  0  0  0  0  0  0
  1  2  2  0
  1  4  1  0
  2  5  1  0
  4  6  2  0
  5 15  1  0
  5  3  2  0
  6  3  1  0
  6 46  1  0
  7 13  1  0
  8 13  1  0
  9 10  1  0
  9  8  1  0
 11 10  1  0
 11 20  1  0
 11 12  1  0
 13 12  1  0
 14  7  2  0
 15  7  1  0
 15 16  1  0
 17 18  2  0
 18 19  1  0
 18 37  1  0
 19 22  1  0
 20 17  1  0
 20 21  1  0
 21 19  2  0
 22 23  1  0
 23 24  2  0
 25 24  1  0
 26 25  2  0
 27 26  1  0
 27 22  2  0
 28 25  1  0
 28 29  1  0
 29 30  1  0
 30 31  2  0
 32 31  1  0
 32 36  1  0
 33 32  2  0
 34 29  2  0
 34 33  1  0
 35 34  1  0
 37 38  1  0
 38 41  1  0
 38 40  1  0
 39 37  2  0
 42 17  1  0
 43 42  1  0
 44 42  1  0
 46 45  1  0
 47 46  1  0
 48 47  1  0
 49 51  1  0
 50 51  1  0
 51 48  1  0
 51 52  1  1
 53 58  1  0
 53  4  1  0
 54 56  1  0
 54 53  1  0
 55 54  1  0
 57 54  1  0
 58 59  1  0
 59 61  1  0
 60 71  2  0
 61 66  1  0
 62 70  1  0
 62 72  1  0
 63 69  1  0
 63 65  1  0
 64 70  1  0
 65 64  1  0
 66 65  2  0
 67 68  1  0
 67 61  2  0
 68 63  2  0
 69 62  1  0
 70 60  1  0
 72 74  2  0
 73 72  1  0
 75 73  1  0
 76 85  2  0
 76 81  1  0
 77 73  1  0
 77 81  1  0
 78 77  1  0
 79 80  1  0
 79 78  1  0
 80 76  1  0
 81 82  2  0
 82 83  1  0
 84 83  2  0
 85 84  1  0
 86 60  1  0
 86 91  1  0
 86 87  1  0
 87 90  1  1
 87 88  1  0
 89 87  1  0
 91 94  1  0
 92 91  1  0
 92 96  1  0
 93 92  2  0
 96 95  1  0
 98 96  1  0
 98 99  1  0
 98 97  1  0
M  ISO  4   7 100  15 100  58 101  59 101
M  END
>  <TORSDO>  (45) 
F 23

>  <SCORE>  (45) 
-8.891

>  <name>  (45) 
44

>  <ligand_id>  (45) 
44

>  <original_smiles>  (45) 
[H]c1c([H])c([H])c2c(c1[H])C([H])([H])C([H])([H])C([H])([H])C2([H])N([H])C(=O)C1([H])N(C(=O)C([H])(N([H])C(=O)C([H])(N([H])C([H])([H])[H])C([H])([H])[H])C(C([H])([H])[H])(C([H])([H])[H])C([H])([H])[H])C([H])([H])c2c([H])c(OC([H])([H])C([H])(c3c([H])c([H])c(N([H])C(=O)N4C([H])([H])C([H])([H])C([H])([H])C([H])(n5nc(-c6c([H])c([H])c(Oc7c([H])c([H])c(F)c([H])c7F)c([H])c6[H])c(C(=O)N([H])[H])c5N([H])[H])C4([H])[H])c([H])c3N(C([H])([H])[H])C([H])([H])C([H])([H])[N+]([H])(C([H])([H])[H])C([H])([H])[H])[N+]([H])([H])[H])c([H])c([H])c2C1([H])[H]

>  <smiles>  (45) 
[H]c1c([H])c([H])c2c(c1[H])C([H])([H])C([H])([H])C([H])([H])C2([H])N([H])C(=O)C1([H])N(C(=O)C([H])(N([H])C(=O)C([H])(N([H])C([H])([H])[H])C([H])([H])[H])C(C([H])([H])[H])(C([H])([H])[H])C([H])([H])[H])C([H])([H])c2c([H])c(OC([H])([H])C([H])(c3c([H])c([H])c(N([H])C(=O)N4C([H])([H])C([H])([H])C([H])([H])C([H])(n5nc(-c6c([H])c([H])c(Oc7c([H])c([H])c(F)c([H])c7F)c([H])c6[H])c(C(=O)N([H])[H])c5N([H])[H])C4([H])[H])c([H])c3N(C([H])([H])[H])C([H])([H])C([H])([H])[N+]([H])(C([H])([H])[H])C([H])([H])[H])[N+]([H])([H])[H])c([H])c([H])c2C1([H])[H]

$$$$
45:0:0
     RDKit          3D

 96105  0  0  1  0  0  0  0  0999 V2000
  -31.1620  -17.9990   20.2450 C   0  0  0  0  0  3  0  0  0  0  0  0
  -28.8180  -19.5150   20.3060 C   0  0  0  0  0  3  0  0  0  0  0  0
  -31.2160  -19.4380   20.1940 C   0  0  0  0  0  0  0  0  0  0  0  0
  -30.0240  -20.2440   20.2020 C   0  0  0  0  0  0  0  0  0  0  0  0
  -28.7730  -18.0900   20.3980 C   0  0  0  0  0  0  0  0  0  0  0  0
  -29.9430  -17.2710   20.3480 C   0  0  0  0  0  0  0  0  0  0  0  0
  -27.4000  -17.4670   20.5380 C   0  0  0  0  0  1  0  0  0  0  0  0
  -30.5590  -14.7210   19.9950 C   0  0  0  0  0  0  0  0  0  0  0  0
  -30.2580  -12.4890   18.9190 C   0  0  0  0  0  2  0  0  0  0  0  0
  -29.2390  -12.6220   17.7640 C   0  0  0  0  0  2  0  0  0  0  0  0
  -27.7960  -12.4590   18.2800 C   0  0  0  0  0  2  0  0  0  0  0  0
  -27.5140  -13.3080   19.5470 C   0  0  0  0  0  3  0  0  0  0  0  0
  -28.6430  -13.1570   20.5930 C   0  0  0  0  0  2  0  0  0  0  0  0
  -29.9160  -13.5050   19.9380 N   0  0  0  0  0  0  0  0  0  0  0  0
  -31.6990  -14.8490   19.5400 O   0  0  0  0  0  0  0  0  0  0  0  0
  -29.8070  -15.7960   20.4180 N   0  0  0  0  0  0  0  0  0  0  0  0
  -28.9090  -15.4940   20.7590 H   0  0  0  0  0  0  0  0  0  0  0  0
  -25.1650  -13.8990   20.4080 C   0  0  0  0  0  0  0  0  0  0  0  0
  -24.1190  -13.1330   20.8420 C   0  0  0  0  0  0  0  0  0  0  0  0
  -24.5720  -11.7810   20.7680 C   0  0  0  0  0  0  0  0  0  0  0  0
  -26.1940  -13.0220   20.1090 N   0  0  0  0  0  0  0  0  0  0  0  0
  -25.8430  -11.7390   20.3820 N   0  0  0  0  0  0  0  0  0  0  0  0
  -23.8470  -10.5250   20.9860 C   0  0  0  0  0  0  0  0  0  0  0  0
  -24.3280   -9.5400   21.8760 C   0  0  0  0  0  3  0  0  0  0  0  0
  -23.6010   -8.3470   22.0820 C   0  0  0  0  0  3  0  0  0  0  0  0
  -22.3810   -8.1320   21.4000 C   0  0  0  0  0  0  0  0  0  0  0  0
  -21.9200   -9.1060   20.4960 C   0  0  0  0  0  3  0  0  0  0  0  0
  -22.6460  -10.2890   20.2870 C   0  0  0  0  0  3  0  0  0  0  0  0
  -21.6230   -6.9920   21.5170 O   0  0  0  0  0  0  0  0  0  0  0  0
  -21.6410   -6.2320   22.6590 C   0  0  0  0  0  0  0  0  0  0  0  0
  -21.3080   -6.7710   23.9190 C   0  0  0  0  0  3  0  0  0  0  0  0
  -21.2710   -5.9370   25.0550 C   0  0  0  0  0  3  0  0  0  0  0  0
  -21.5600   -4.5660   24.9310 C   0  0  0  0  0  0  0  0  0  0  0  0
  -21.8900   -4.0260   23.6760 C   0  0  0  0  0  3  0  0  0  0  0  0
  -21.9280   -4.8570   22.5420 C   0  0  0  0  0  0  0  0  0  0  0  0
  -22.2240   -4.3260   21.3310 F   0  0  0  0  0  0  0  0  0  0  0  0
  -21.5180   -3.7640   26.0210 F   0  0  0  0  0  0  0  0  0  0  0  0
  -22.7440  -13.6210   21.1980 C   0  0  0  0  0  0  0  0  0  0  0  0
  -22.0640  -12.9310   22.1070 N   0  0  0  0  0  0  0  0  0  0  0  0
  -22.2840  -14.6510   20.7050 O   0  0  0  0  0  0  0  0  0  0  0  0
  -22.4490  -12.0980   22.5270 H   0  0  0  0  0  0  0  0  0  0  0  0
  -21.1440  -13.2390   22.3860 H   0  0  0  0  0  0  0  0  0  0  0  0
  -25.3100  -15.2650   20.2130 N   0  0  0  0  0  0  0  0  0  0  0  0
  -24.5340  -15.9050   20.3470 H   0  0  0  0  0  0  0  0  0  0  0  0
  -26.0890  -15.6830   19.7240 H   0  0  0  0  0  0  0  0  0  0  0  0
  -32.5720  -20.0860   20.1420 C   0  0  0  0  0  0  0  0  0  0  0  0
  -33.4160  -19.7190   21.0970 N   0  0  0  0  0  0  0  0  0  0  0  0
  -32.8660  -20.9330   19.3010 O   0  0  0  0  0  0  0  0  0  0  0  0
  -33.1230  -19.0510   21.7960 H   0  0  0  0  0  0  0  0  0  0  0  0
  -34.3360  -20.1320   21.1550 H   0  0  0  0  0  0  0  0  0  0  0  0
  -28.9270  -22.7650   20.8400 C   0  0  0  0  0  2  0  0  0  0  0  0
  -29.7980  -22.7660   18.9730 C   0  0  0  0  0  2  0  0  0  0  0  0
  -30.0140  -21.8350   20.2050 C   0  0  0  0  0  3  0  0  0  0  0  0
  -29.3340  -23.9500   19.8960 C   0  0  0  0  0  3  0  0  0  0  0  0
  -28.2910  -25.0500   19.4080 C   0  0  0  0  0  2  0  0  0  0  0  0
  -28.4020  -26.4760   19.8120 O   0  0  0  0  0  0  0  0  0  0  0  0
  -24.5220  -31.6660   23.0210 C   0  0  0  0  0  0  0  0  0  0  0  0
  -27.2480  -27.2880   19.7870 C   0  0  0  0  0  0  0  0  0  0  0  0
  -23.3480  -30.2950   21.3370 C   0  0  0  0  0  3  0  0  0  0  0  0
  -24.8330  -28.8360   19.8510 C   0  0  0  0  0  0  0  0  0  0  0  0
  -25.8770  -30.6840   21.1600 C   0  0  0  0  0  2  0  0  0  0  0  0
  -25.9900  -29.3320   20.4630 C   0  0  0  0  0  0  0  0  0  0  0  0
  -27.1960  -28.5680   20.4260 C   0  0  0  0  0  3  0  0  0  0  0  0
  -26.0650  -26.8560   19.1420 C   0  0  0  0  0  3  0  0  0  0  0  0
  -24.8720  -27.6030   19.1840 C   0  0  0  0  0  3  0  0  0  0  0  0
  -23.5720  -29.6710   19.9340 C   0  0  0  0  0  2  0  0  0  0  0  0
  -24.6000  -30.8970   21.8960 N   0  0  0  0  0  0  0  0  0  0  0  0
  -23.4340  -31.9010   23.5670 O   0  0  0  0  0  0  0  0  0  0  0  0
  -22.7140  -29.2300   22.2630 C   0  0  0  0  0  0  0  0  0  0  0  0
  -21.3890  -29.0420   22.1500 N   0  0  0  0  0  0  0  0  0  0  0  0
  -23.4150  -28.5790   23.0440 O   0  0  0  0  0  0  0  0  0  0  0  0
  -20.8820  -29.6230   21.4970 H   0  0  0  0  0  0  0  0  0  0  0  0
  -18.0320  -27.8010   22.6730 C   0  0  0  0  0  0  0  0  0  0  0  0
  -20.5950  -28.0620   22.8920 C   0  0  0  0  0  3  0  0  0  0  0  0
  -20.6880  -26.6630   22.2430 C   0  0  0  0  0  2  0  0  0  0  0  0
  -19.5630  -26.3850   21.2400 C   0  0  0  0  0  2  0  0  0  0  0  0
  -18.1970  -26.4890   21.9250 C   0  0  0  0  0  2  0  0  0  0  0  0
  -19.1570  -28.5470   23.1130 C   0  0  0  0  0  0  0  0  0  0  0  0
  -18.9480  -29.7770   23.7750 C   0  0  0  0  0  3  0  0  0  0  0  0
  -17.6450  -30.2620   23.9970 C   0  0  0  0  0  3  0  0  0  0  0  0
  -16.5340  -29.5110   23.5750 C   0  0  0  0  0  3  0  0  0  0  0  0
  -16.7290  -28.2820   22.9190 C   0  0  0  0  0  3  0  0  0  0  0  0
  -25.7910  -32.3100   23.6620 C   0  0  0  0  0  3  0  0  0  0  0  0
  -26.3320  -31.5080   24.9110 C   0  0  1  0  0  0  0  0  0  0  0  0
  -25.2510  -31.2110   25.9770 C   0  0  0  0  0  1  0  0  0  0  0  0
  -26.9420  -30.1560   24.4730 C   0  0  0  0  0  1  0  0  0  0  0  0
  -27.4710  -32.3040   25.5920 C   0  0  0  0  0  1  0  0  0  0  0  0
  -25.4490  -33.6880   24.0420 N   0  0  0  0  0  0  0  0  0  0  0  0
  -25.7470  -34.7750   23.3180 C   0  0  0  0  0  0  0  0  0  0  0  0
  -26.4090  -34.7230   22.2770 O   0  0  0  0  0  0  0  0  0  0  0  0
  -24.8590  -33.8000   24.8540 H   0  0  0  0  0  0  0  0  0  0  0  0
  -23.9600  -36.5250   23.0530 C   0  0  0  0  0  1  0  0  0  0  0  0
  -25.2280  -36.1340   23.8260 C   0  0  0  0  0  3  0  0  0  0  0  0
  -27.3520  -37.0570   24.6430 C   0  0  0  0  0  1  0  0  0  0  0  0
  -26.2270  -37.2190   23.7260 N   0  0  0  0  0  0  0  0  0  0  0  0
  -25.7960  -38.1220   23.9100 H   0  0  0  0  0  0  0  0  0  0  0  0
  1  6  1  0
  2  5  1  0
  3  4  1  0
  3  1  2  0
  4  2  2  0
  5  7  1  0
  6  5  2  0
  6 16  1  0
  8 16  1  0
  9 14  1  0
 10 11  1  0
 10  9  1  0
 12 11  1  0
 12 21  1  0
 12 13  1  0
 14  8  1  0
 14 13  1  0
 15  8  2  0
 16 17  1  0
 18 19  2  0
 19 38  1  0
 20 19  1  0
 20 23  1  0
 21 22  1  0
 21 18  1  0
 22 20  2  0
 23 24  1  0
 24 25  2  0
 26 29  1  0
 26 25  1  0
 27 26  2  0
 28 27  1  0
 28 23  2  0
 29 30  1  0
 30 31  1  0
 31 32  2  0
 33 32  1  0
 33 37  1  0
 34 33  2  0
 35 30  2  0
 35 34  1  0
 36 35  1  0
 38 39  1  0
 39 42  1  0
 39 41  1  0
 40 38  2  0
 43 44  1  0
 43 18  1  0
 45 43  1  0
 46  3  1  0
 46 47  1  0
 47 50  1  0
 47 49  1  0
 48 46  2  0
 52 54  1  0
 52 53  1  0
 53  4  1  0
 53 51  1  0
 54 55  1  0
 54 51  1  0
 55 56  1  0
 57 68  2  0
 58 56  1  0
 58 63  1  0
 59 67  1  0
 59 69  1  0
 60 66  1  0
 60 62  1  0
 61 67  1  0
 62 61  1  0
 63 62  2  0
 64 65  1  0
 64 58  2  0
 65 60  2  0
 66 59  1  0
 67 57  1  0
 69 71  2  0
 70 69  1  0
 72 70  1  0
 73 82  2  0
 73 78  1  0
 74 70  1  0
 74 78  1  0
 75 74  1  0
 76 77  1  0
 76 75  1  0
 77 73  1  0
 78 79  2  0
 79 80  1  0
 81 80  2  0
 82 81  1  0
 83 57  1  0
 83 88  1  0
 83 84  1  0
 84 87  1  1
 84 85  1  0
 86 84  1  0
 88 91  1  0
 89 93  1  0
 89 88  1  0
 90 89  2  0
 93 92  1  0
 95 93  1  0
 95 96  1  0
 95 94  1  0
M  ISO  4   8 100  16 100  55 101  56 101
M  END
>  <TORSDO>  (46) 
F 19

>  <SCORE>  (46) 
-13.929

>  <name>  (46) 
45

>  <ligand_id>  (46) 
45

>  <original_smiles>  (46) 
[H]c1c([H])c([H])c2c(c1[H])C([H])([H])C([H])([H])C([H])([H])C2([H])N([H])C(=O)C1([H])N(C(=O)C([H])(N([H])C(=O)C([H])(N([H])C([H])([H])[H])C([H])([H])[H])C(C([H])([H])[H])(C([H])([H])[H])C([H])([H])[H])C([H])([H])c2c([H])c(OC([H])([H])C3([H])C([H])([H])C([H])(c4c([H])c(C([H])([H])[H])c(N([H])C(=O)N5C([H])([H])C([H])([H])C([H])([H])C([H])(n6nc(-c7c([H])c([H])c(Oc8c([H])c([H])c(F)c([H])c8F)c([H])c7[H])c(C(=O)N([H])[H])c6N([H])[H])C5([H])[H])c([H])c4C(=O)N([H])[H])C3([H])[H])c([H])c([H])c2C1([H])[H]

>  <smiles>  (46) 
[H]c1c([H])c([H])c2c(c1[H])C([H])([H])C([H])([H])C([H])([H])C2([H])N([H])C(=O)C1([H])N(C(=O)C([H])(N([H])C(=O)C([H])(N([H])C([H])([H])[H])C([H])([H])[H])C(C([H])([H])[H])(C([H])([H])[H])C([H])([H])[H])C([H])([H])c2c([H])c(OC([H])([H])C3([H])C([H])([H])C([H])(c4c([H])c(C([H])([H])[H])c(N([H])C(=O)N5C([H])([H])C([H])([H])C([H])([H])C([H])(n6nc(-c7c([H])c([H])c(Oc8c([H])c([H])c(F)c([H])c8F)c([H])c7[H])c(C(=O)N([H])[H])c6N([H])[H])C5([H])[H])c([H])c4C(=O)N([H])[H])C3([H])[H])c([H])c([H])c2C1([H])[H]

$$$$
46:0:0
     RDKit          3D

 95103  0  0  1  0  0  0  0  0999 V2000
  -30.3230  -20.6770   21.4400 C   0  0  0  0  0  3  0  0  0  0  0  0
  -28.2020  -18.3360   19.2030 C   0  0  0  0  0  3  0  0  0  0  0  0
  -28.7480  -19.4770   19.8160 C   0  0  0  0  0  3  0  0  0  0  0  0
  -28.6580  -17.0540   19.5520 C   0  0  0  0  0  3  0  0  0  0  0  0
  -30.2210  -18.0500   21.1290 C   0  0  0  0  0  3  0  0  0  0  0  0
  -29.7920  -19.3740   20.7590 C   0  0  0  0  0  0  0  0  0  0  0  0
  -29.6520  -16.8790   20.5410 C   0  0  0  0  0  0  0  0  0  0  0  0
  -30.6200  -14.5650   20.4550 C   0  0  0  0  0  0  0  0  0  0  0  0
  -30.3740  -12.3780   19.3220 C   0  0  0  0  0  2  0  0  0  0  0  0
  -29.4390  -12.5870   18.1120 C   0  0  0  0  0  2  0  0  0  0  0  0
  -27.9540  -12.4550   18.5190 C   0  0  0  0  0  2  0  0  0  0  0  0
  -27.6100  -13.2450   19.8090 C   0  0  0  0  0  3  0  0  0  0  0  0
  -28.6690  -13.0210   20.9150 C   0  0  0  0  0  2  0  0  0  0  0  0
  -29.9910  -13.3560   20.3560 N   0  0  0  0  0  0  0  0  0  0  0  0
  -31.7380  -14.7760   19.9750 O   0  0  0  0  0  0  0  0  0  0  0  0
  -29.8990  -15.5500   21.0450 N   0  0  0  0  0  0  0  0  0  0  0  0
  -29.1000  -15.1510   21.5170 H   0  0  0  0  0  0  0  0  0  0  0  0
  -25.2100  -13.8610   20.5070 C   0  0  0  0  0  0  0  0  0  0  0  0
  -24.1410  -13.0930   20.8730 C   0  0  0  0  0  0  0  0  0  0  0  0
  -24.6000  -11.7400   20.8490 C   0  0  0  0  0  0  0  0  0  0  0  0
  -26.2550  -12.9760   20.2800 N   0  0  0  0  0  0  0  0  0  0  0  0
  -25.8890  -11.6950   20.5390 N   0  0  0  0  0  0  0  0  0  0  0  0
  -23.8750  -10.4800   21.0450 C   0  0  0  0  0  0  0  0  0  0  0  0
  -24.3110   -9.5110   21.9730 C   0  0  0  0  0  3  0  0  0  0  0  0
  -23.5840   -8.3150   22.1570 C   0  0  0  0  0  3  0  0  0  0  0  0
  -22.4040   -8.0800   21.4110 C   0  0  0  0  0  0  0  0  0  0  0  0
  -21.9850   -9.0390   20.4710 C   0  0  0  0  0  3  0  0  0  0  0  0
  -22.7140  -10.2240   20.2860 C   0  0  0  0  0  3  0  0  0  0  0  0
  -21.6510   -6.9340   21.5000 O   0  0  0  0  0  0  0  0  0  0  0  0
  -21.6210   -6.1800   22.6440 C   0  0  0  0  0  0  0  0  0  0  0  0
  -21.2230   -6.7250   23.8840 C   0  0  0  0  0  3  0  0  0  0  0  0
  -21.1390   -5.8980   25.0230 C   0  0  0  0  0  3  0  0  0  0  0  0
  -21.4440   -4.5270   24.9220 C   0  0  0  0  0  0  0  0  0  0  0  0
  -21.8360   -3.9830   23.6880 C   0  0  0  0  0  3  0  0  0  0  0  0
  -21.9230   -4.8080   22.5530 C   0  0  0  0  0  0  0  0  0  0  0  0
  -22.2810   -4.2720   21.3600 F   0  0  0  0  0  0  0  0  0  0  0  0
  -21.3550   -3.7310   26.0140 F   0  0  0  0  0  0  0  0  0  0  0  0
  -22.7420  -13.5760   21.1340 C   0  0  0  0  0  0  0  0  0  0  0  0
  -22.0060  -12.8850   21.9980 N   0  0  0  0  0  0  0  0  0  0  0  0
  -22.3070  -14.5990   20.6080 O   0  0  0  0  0  0  0  0  0  0  0  0
  -22.3650  -12.0570   22.4490 H   0  0  0  0  0  0  0  0  0  0  0  0
  -21.0680  -13.1920   22.2090 H   0  0  0  0  0  0  0  0  0  0  0  0
  -25.3760  -15.2330   20.3300 N   0  0  0  0  0  0  0  0  0  0  0  0
  -24.6140  -15.8850   20.4850 H   0  0  0  0  0  0  0  0  0  0  0  0
  -26.2220  -15.6850   20.0100 H   0  0  0  0  0  0  0  0  0  0  0  0
  -31.6060  -20.4120   22.1150 N   0  0  0  0  0  4  0  0  0  0  0  0
  -32.2960  -20.1250   21.4430 H   0  0  0  0  0  0  0  0  0  0  0  0
  -31.5010  -19.6950   22.8090 H   0  0  0  0  0  0  0  0  0  0  0  0
  -31.9310  -21.2430   22.5740 H   0  0  0  0  0  0  0  0  0  0  0  0
  -30.4940  -22.0140   20.5860 C   0  0  0  0  0  2  0  0  0  0  0  0
  -29.2470  -22.7120   18.6670 C   0  0  0  0  0  1  0  0  0  0  0  0
  -29.3090  -22.8030   20.1340 N   0  0  0  0  0  0  0  0  0  0  0  0
  -29.3920  -24.2540   20.4910 C   0  0  0  0  0  3  0  0  0  0  0  0
  -28.1730  -25.1530   20.0640 C   0  0  0  0  0  3  0  0  0  0  0  0
  -28.3430  -26.5890   20.2460 O   0  0  0  0  0  0  0  0  0  0  0  0
  -24.5930  -31.8890   23.2490 C   0  0  0  0  0  0  0  0  0  0  0  0
  -27.1990  -27.3850   20.1820 C   0  0  0  0  0  0  0  0  0  0  0  0
  -23.3800  -30.4950   21.6090 C   0  0  0  0  0  3  0  0  0  0  0  0
  -24.8250  -28.9540   20.1760 C   0  0  0  0  0  0  0  0  0  0  0  0
  -25.9140  -30.8280   21.4130 C   0  0  0  0  0  2  0  0  0  0  0  0
  -25.9900  -29.4560   20.7660 C   0  0  0  0  0  0  0  0  0  0  0  0
  -27.1810  -28.6820   20.7600 C   0  0  0  0  0  3  0  0  0  0  0  0
  -26.0110  -26.9210   19.5680 C   0  0  0  0  0  3  0  0  0  0  0  0
  -24.8340  -27.6900   19.5690 C   0  0  0  0  0  3  0  0  0  0  0  0
  -23.5870  -29.8240   20.2260 C   0  0  0  0  0  2  0  0  0  0  0  0
  -24.6480  -31.0870   22.1480 N   0  0  0  0  0  0  0  0  0  0  0  0
  -23.5130  -32.1650   23.7890 O   0  0  0  0  0  0  0  0  0  0  0  0
  -22.7240  -29.4730   22.5680 C   0  0  0  0  0  0  0  0  0  0  0  0
  -21.3970  -29.2950   22.4410 N   0  0  0  0  0  0  0  0  0  0  0  0
  -23.4050  -28.8450   23.3830 O   0  0  0  0  0  0  0  0  0  0  0  0
  -20.9090  -29.8540   21.7560 H   0  0  0  0  0  0  0  0  0  0  0  0
  -18.0190  -28.1060   22.9350 C   0  0  0  0  0  0  0  0  0  0  0  0
  -20.5770  -28.3590   23.2110 C   0  0  0  0  0  3  0  0  0  0  0  0
  -20.6790  -26.9270   22.6380 C   0  0  0  0  0  2  0  0  0  0  0  0
  -19.5780  -26.6040   21.6230 C   0  0  0  0  0  2  0  0  0  0  0  0
  -18.1950  -26.7540   22.2630 C   0  0  0  0  0  2  0  0  0  0  0  0
  -19.1390  -28.8660   23.3650 C   0  0  0  0  0  0  0  0  0  0  0  0
  -18.9210  -30.1310   23.9530 C   0  0  0  0  0  3  0  0  0  0  0  0
  -17.6180  -30.6350   24.1150 C   0  0  0  0  0  3  0  0  0  0  0  0
  -16.5130  -29.8720   23.7010 C   0  0  0  0  0  3  0  0  0  0  0  0
  -16.7140  -28.6090   23.1160 C   0  0  0  0  0  3  0  0  0  0  0  0
  -25.8790  -32.5160   23.8680 C   0  0  0  0  0  3  0  0  0  0  0  0
  -25.5740  -33.9150   24.1980 N   0  0  0  0  0  0  0  0  0  0  0  0
  -25.9060  -34.9660   23.4360 C   0  0  0  0  0  0  0  0  0  0  0  0
  -26.5700  -34.8600   22.4010 O   0  0  0  0  0  0  0  0  0  0  0  0
  -24.9860  -34.0720   25.0030 H   0  0  0  0  0  0  0  0  0  0  0  0
  -24.1810  -36.7610   23.0850 C   0  0  0  0  0  1  0  0  0  0  0  0
  -25.4240  -36.3570   23.8930 C   0  0  0  0  0  3  0  0  0  0  0  0
  -27.5670  -37.2350   24.7090 C   0  0  0  0  0  1  0  0  0  0  0  0
  -26.4600  -37.4070   23.7720 N   0  0  0  0  0  0  0  0  0  0  0  0
  -26.0580  -38.3280   23.9220 H   0  0  0  0  0  0  0  0  0  0  0  0
  -26.3970  -31.7420   25.1420 C   0  0  1  0  0  0  0  0  0  0  0  0
  -25.3080  -31.5100   26.2140 C   0  0  0  0  0  1  0  0  0  0  0  0
  -26.9720  -30.3630   24.7450 C   0  0  0  0  0  1  0  0  0  0  0  0
  -27.5540  -32.5320   25.7970 C   0  0  0  0  0  1  0  0  0  0  0  0
  1 50  1  0
  1 46  1  0
  2  4  2  0
  2  3  1  0
  3  6  2  0
  4  7  1  0
  6  5  1  0
  6  1  1  0
  7 16  1  0
  7  5  2  0
  8 16  1  0
  9 14  1  0
 10 11  1  0
 10  9  1  0
 12 11  1  0
 12 21  1  0
 12 13  1  0
 14  8  1  0
 14 13  1  0
 15  8  2  0
 16 17  1  0
 18 19  2  0
 19 38  1  0
 20 19  1  0
 20 23  1  0
 21 18  1  0
 21 22  1  0
 22 20  2  0
 23 24  1  0
 24 25  2  0
 26 29  1  0
 26 25  1  0
 27 26  2  0
 28 27  1  0
 28 23  2  0
 29 30  1  0
 30 31  1  0
 31 32  2  0
 33 32  1  0
 33 37  1  0
 34 33  2  0
 35 30  2  0
 35 34  1  0
 36 35  1  0
 38 39  1  0
 39 42  1  0
 39 41  1  0
 40 38  2  0
 43 44  1  0
 43 18  1  0
 45 43  1  0
 46 49  1  0
 46 48  1  0
 47 46  1  0
 51 52  1  0
 52 53  1  0
 52 50  1  0
 54 55  1  0
 54 53  2  0
 56 67  2  0
 57 55  1  0
 57 62  1  0
 58 66  1  0
 58 68  1  0
 59 65  1  0
 59 61  1  0
 60 66  1  0
 61 60  1  0
 62 61  2  0
 63 64  1  0
 63 57  2  0
 64 59  2  0
 65 58  1  0
 66 56  1  0
 68 70  2  0
 69 68  1  0
 71 69  1  0
 72 81  2  0
 72 77  1  0
 73 69  1  0
 73 77  1  0
 74 73  1  0
 75 76  1  0
 75 74  1  0
 76 72  1  0
 77 78  2  0
 78 79  1  0
 80 79  2  0
 81 80  1  0
 82 56  1  0
 82 83  1  0
 82 92  1  0
 83 86  1  0
 84 88  1  0
 84 83  1  0
 85 84  2  0
 88 87  1  0
 90 88  1  0
 90 91  1  0
 90 89  1  0
 92 95  1  1
 92 93  1  0
 94 92  1  0
M  ISO  4   8 100  16 100  54 101  55 101
M  END
>  <TORSDO>  (47) 
F 22

>  <SCORE>  (47) 
-13.687

>  <name>  (47) 
46

>  <ligand_id>  (47) 
46

>  <original_smiles>  (47) 
[H]c1c([H])c([H])c2c(c1[H])C([H])([H])C([H])([H])C([H])([H])C2([H])N([H])C(=O)C1([H])N(C(=O)C([H])(N([H])C(=O)C([H])(N([H])C([H])([H])[H])C([H])([H])[H])C(C([H])([H])[H])(C([H])([H])[H])C([H])([H])[H])C([H])([H])c2c([H])c(OC([H])([H])C([H])([H])N(C([H])([H])[H])C([H])([H])C([H])(c3c([H])c([H])c([H])c(N([H])C(=O)N4C([H])([H])C([H])([H])C([H])([H])C([H])(n5nc(-c6c([H])c([H])c(Oc7c([H])c([H])c(F)c([H])c7F)c([H])c6[H])c(C(=O)N([H])[H])c5N([H])[H])C4([H])[H])c3[H])[N+]([H])([H])[H])c([H])c([H])c2C1([H])[H]

>  <smiles>  (47) 
[H]c1c([H])c([H])c2c(c1[H])C([H])([H])C([H])([H])C([H])([H])C2([H])N([H])C(=O)C1([H])N(C(=O)C([H])(N([H])C(=O)C([H])(N([H])C([H])([H])[H])C([H])([H])[H])C(C([H])([H])[H])(C([H])([H])[H])C([H])([H])[H])C([H])([H])c2c([H])c(OC([H])([H])C([H])([H])N(C([H])([H])[H])C([H])([H])C([H])(c3c([H])c([H])c([H])c(N([H])C(=O)N4C([H])([H])C([H])([H])C([H])([H])C([H])(n5nc(-c6c([H])c([H])c(Oc7c([H])c([H])c(F)c([H])c7F)c([H])c6[H])c(C(=O)N([H])[H])c5N([H])[H])C4([H])[H])c3[H])[N+]([H])([H])[H])c([H])c([H])c2C1([H])[H]

$$$$
47:0:0
     RDKit          3D

 90 98  0  0  1  0  0  0  0  0999 V2000
  -28.1910  -23.0760   20.2300 C   0  0  0  0  0  0  0  0  0  0  0  0
  -30.4730  -22.2990   20.6380 C   0  0  0  0  0  1  0  0  0  0  0  0
  -29.1020  -21.9370   20.2850 N   0  0  0  0  0  0  0  0  0  0  0  0
  -27.0180  -22.8680   20.5590 O   0  0  0  0  0  0  0  0  0  0  0  0
  -27.9230  -18.7910   18.3720 C   0  0  0  0  0  3  0  0  0  0  0  0
  -28.5590  -17.6520   18.9190 C   0  0  0  0  0  3  0  0  0  0  0  0
  -28.0710  -20.1000   18.8910 C   0  0  0  0  0  3  0  0  0  0  0  0
  -29.5400  -19.1370   20.5640 C   0  0  0  0  0  3  0  0  0  0  0  0
  -29.3880  -17.7140   20.0590 C   0  0  0  0  0  0  0  0  0  0  0  0
  -28.9040  -20.3970   19.9920 C   0  0  0  0  0  0  0  0  0  0  0  0
  -30.4610  -15.1140   20.2500 C   0  0  0  0  0  0  0  0  0  0  0  0
  -30.3880  -12.7130   19.3680 C   0  0  0  0  0  2  0  0  0  0  0  0
  -29.4600  -12.6280   18.1310 C   0  0  0  0  0  2  0  0  0  0  0  0
  -27.9990  -12.4010   18.5610 C   0  0  0  0  0  2  0  0  0  0  0  0
  -27.5840  -13.3290   19.7310 C   0  0  0  0  0  3  0  0  0  0  0  0
  -28.6380  -13.3760   20.8610 C   0  0  0  0  0  2  0  0  0  0  0  0
  -29.9020  -13.8220   20.2570 N   0  0  0  0  0  0  0  0  0  0  0  0
  -31.6290  -15.1760   19.8460 O   0  0  0  0  0  0  0  0  0  0  0  0
  -29.7440  -16.3040   20.6560 N   0  0  0  0  0  0  0  0  0  0  0  0
  -29.0110  -16.0090   21.2850 H   0  0  0  0  0  0  0  0  0  0  0  0
  -25.2070  -13.8950   20.4740 C   0  0  0  0  0  0  0  0  0  0  0  0
  -24.1450  -13.1180   20.8480 C   0  0  0  0  0  0  0  0  0  0  0  0
  -24.6140  -11.7680   20.8200 C   0  0  0  0  0  0  0  0  0  0  0  0
  -26.2510  -13.0200   20.2320 N   0  0  0  0  0  0  0  0  0  0  0  0
  -25.9050  -11.7340   20.5060 N   0  0  0  0  0  0  0  0  0  0  0  0
  -23.8890  -10.5040   21.0170 C   0  0  0  0  0  0  0  0  0  0  0  0
  -24.3230   -9.5390   21.9520 C   0  0  0  0  0  3  0  0  0  0  0  0
  -23.5960   -8.3430   22.1360 C   0  0  0  0  0  3  0  0  0  0  0  0
  -22.4200   -8.1040   21.3860 C   0  0  0  0  0  0  0  0  0  0  0  0
  -22.0050   -9.0580   20.4400 C   0  0  0  0  0  3  0  0  0  0  0  0
  -22.7330  -10.2440   20.2530 C   0  0  0  0  0  3  0  0  0  0  0  0
  -21.6650   -6.9600   21.4800 O   0  0  0  0  0  0  0  0  0  0  0  0
  -21.6190   -6.2200   22.6350 C   0  0  0  0  0  0  0  0  0  0  0  0
  -21.1940   -6.7780   23.8610 C   0  0  0  0  0  3  0  0  0  0  0  0
  -21.0950   -5.9650   25.0070 C   0  0  0  0  0  3  0  0  0  0  0  0
  -21.4100   -4.5960   24.9300 C   0  0  0  0  0  0  0  0  0  0  0  0
  -21.8290   -4.0370   23.7090 C   0  0  0  0  0  3  0  0  0  0  0  0
  -21.9290   -4.8470   22.5650 C   0  0  0  0  0  0  0  0  0  0  0  0
  -22.3120   -4.3000   21.3850 F   0  0  0  0  0  0  0  0  0  0  0  0
  -21.3080   -3.8120   26.0280 F   0  0  0  0  0  0  0  0  0  0  0  0
  -22.7480  -13.5940   21.1190 C   0  0  0  0  0  0  0  0  0  0  0  0
  -22.0230  -12.9010   21.9890 N   0  0  0  0  0  0  0  0  0  0  0  0
  -22.3100  -14.6170   20.5940 O   0  0  0  0  0  0  0  0  0  0  0  0
  -22.3900  -12.0750   22.4360 H   0  0  0  0  0  0  0  0  0  0  0  0
  -21.0850  -13.2040   22.2130 H   0  0  0  0  0  0  0  0  0  0  0  0
  -25.3660  -15.2650   20.2930 N   0  0  0  0  0  0  0  0  0  0  0  0
  -24.5960  -15.9160   20.4090 H   0  0  0  0  0  0  0  0  0  0  0  0
  -26.2100  -15.7090   19.9570 H   0  0  0  0  0  0  0  0  0  0  0  0
  -28.4860  -24.6620   19.6790 C   0  0  0  0  0  2  0  0  0  0  0  0
  -28.2390  -26.0720   20.3820 O   0  0  0  0  0  0  0  0  0  0  0  0
  -24.6270  -31.8730   23.2160 C   0  0  0  0  0  0  0  0  0  0  0  0
  -27.2010  -27.0840   20.2060 C   0  0  0  0  0  0  0  0  0  0  0  0
  -23.4280  -30.4660   21.5840 C   0  0  0  0  0  3  0  0  0  0  0  0
  -24.8770  -28.8730   20.1570 C   0  0  0  0  0  0  0  0  0  0  0  0
  -25.9840  -30.7130   21.4240 C   0  0  0  0  0  2  0  0  0  0  0  0
  -26.0550  -29.3110   20.7740 C   0  0  0  0  0  0  0  0  0  0  0  0
  -27.2070  -28.4280   20.7870 C   0  0  0  0  0  3  0  0  0  0  0  0
  -26.0030  -26.7670   19.5320 C   0  0  0  0  0  3  0  0  0  0  0  0
  -24.8690  -27.6200   19.5200 C   0  0  0  0  0  3  0  0  0  0  0  0
  -23.6490  -29.7760   20.2090 C   0  0  0  0  0  2  0  0  0  0  0  0
  -24.7000  -31.0430   22.1290 N   0  0  0  0  0  0  0  0  0  0  0  0
  -23.5410  -32.1610   23.7430 O   0  0  0  0  0  0  0  0  0  0  0  0
  -22.7470  -29.4690   22.5580 C   0  0  0  0  0  0  0  0  0  0  0  0
  -21.4170  -29.3040   22.4400 N   0  0  0  0  0  0  0  0  0  0  0  0
  -23.4200  -28.8460   23.3830 O   0  0  0  0  0  0  0  0  0  0  0  0
  -20.9290  -29.8560   21.7490 H   0  0  0  0  0  0  0  0  0  0  0  0
  -18.0370  -28.1040   22.9650 C   0  0  0  0  0  0  0  0  0  0  0  0
  -20.5980  -28.3720   23.2200 C   0  0  0  0  0  3  0  0  0  0  0  0
  -20.6980  -26.9360   22.6530 C   0  0  0  0  0  2  0  0  0  0  0  0
  -19.5940  -26.6070   21.6440 C   0  0  0  0  0  2  0  0  0  0  0  0
  -18.2140  -26.7530   22.2910 C   0  0  0  0  0  2  0  0  0  0  0  0
  -19.1570  -28.8720   23.3860 C   0  0  0  0  0  0  0  0  0  0  0  0
  -18.9360  -30.1340   23.9760 C   0  0  0  0  0  3  0  0  0  0  0  0
  -17.6310  -30.6310   24.1490 C   0  0  0  0  0  3  0  0  0  0  0  0
  -16.5270  -29.8620   23.7420 C   0  0  0  0  0  3  0  0  0  0  0  0
  -16.7300  -28.6000   23.1550 C   0  0  0  0  0  3  0  0  0  0  0  0
  -25.9040  -32.5170   23.8390 C   0  0  0  0  0  3  0  0  0  0  0  0
  -25.5870  -33.9160   24.1710 N   0  0  0  0  0  0  0  0  0  0  0  0
  -25.9140  -34.9750   23.4190 C   0  0  0  0  0  0  0  0  0  0  0  0
  -26.5790  -34.8770   22.3840 O   0  0  0  0  0  0  0  0  0  0  0  0
  -24.9950  -34.0660   24.9750 H   0  0  0  0  0  0  0  0  0  0  0  0
  -24.1810  -36.7730   23.0890 C   0  0  0  0  0  1  0  0  0  0  0  0
  -25.4300  -36.3630   23.8870 C   0  0  0  0  0  3  0  0  0  0  0  0
  -27.5690  -37.2510   24.7040 C   0  0  0  0  0  1  0  0  0  0  0  0
  -26.4600  -37.4180   23.7690 N   0  0  0  0  0  0  0  0  0  0  0  0
  -26.0530  -38.3380   23.9210 H   0  0  0  0  0  0  0  0  0  0  0  0
  -26.4190  -31.7560   25.1250 C   0  0  1  0  0  0  0  0  0  0  0  0
  -25.3240  -31.5280   26.1940 C   0  0  0  0  0  1  0  0  0  0  0  0
  -27.0020  -30.3750   24.7510 C   0  0  0  0  0  1  0  0  0  0  0  0
  -27.5680  -32.5560   25.7820 C   0  0  0  0  0  1  0  0  0  0  0  0
  1  3  1  0
  1  4  2  0
  3  2  1  0
  5  7  2  0
  5  6  1  0
  6  9  2  0
  7 10  1  0
  9  8  1  0
  9 19  1  0
 10  3  1  0
 10  8  2  0
 11 17  1  0
 11 19  1  0
 12 17  1  0
 13 14  1  0
 13 12  1  0
 15 14  1  0
 15 24  1  0
 15 16  1  0
 17 16  1  0
 18 11  2  0
 19 20  1  0
 21 22  2  0
 22 41  1  0
 23 22  1  0
 23 26  1  0
 24 21  1  0
 24 25  1  0
 25 23  2  0
 26 27  1  0
 27 28  2  0
 29 32  1  0
 29 28  1  0
 30 29  2  0
 31 30  1  0
 31 26  2  0
 32 33  1  0
 33 34  1  0
 34 35  2  0
 36 35  1  0
 36 40  1  0
 37 36  2  0
 38 33  2  0
 38 37  1  0
 39 38  1  0
 41 42  1  0
 42 45  1  0
 42 44  1  0
 43 41  2  0
 46 47  1  0
 46 21  1  0
 48 46  1  0
 49  1  1  0
 49 50  1  0
 51 62  2  0
 52 50  1  0
 52 57  1  0
 53 61  1  0
 53 63  1  0
 54 60  1  0
 54 56  1  0
 55 61  1  0
 56 57  2  0
 56 55  1  0
 58 52  2  0
 59 58  1  0
 59 54  2  0
 60 53  1  0
 61 51  1  0
 63 65  2  0
 64 63  1  0
 66 64  1  0
 67 76  2  0
 67 72  1  0
 68 64  1  0
 68 72  1  0
 69 68  1  0
 70 71  1  0
 70 69  1  0
 71 67  1  0
 72 73  2  0
 73 74  1  0
 75 74  2  0
 76 75  1  0
 77 51  1  0
 77 78  1  0
 77 87  1  0
 78 81  1  0
 79 83  1  0
 79 78  1  0
 80 79  2  0
 83 82  1  0
 85 83  1  0
 85 86  1  0
 85 84  1  0
 87 90  1  1
 87 88  1  0
 89 87  1  0
M  ISO  4  11 100  19 100  49 101  50 101
M  END
>  <TORSDO>  (48) 
F 18

>  <SCORE>  (48) 
-15.527

>  <name>  (48) 
47

>  <ligand_id>  (48) 
47

>  <original_smiles>  (48) 
[H]c1c([H])c(N([H])C(=O)N2C([H])([H])C([H])([H])C([H])([H])C([H])(n3nc(-c4c([H])c([H])c(Oc5c([H])c([H])c(F)c([H])c5F)c([H])c4[H])c(C(=O)N([H])[H])c3N([H])[H])C2([H])[H])c([H])c(N(C(=O)C([H])([H])Oc2c([H])c([H])c3c(c2[H])C([H])([H])N(C(=O)C([H])(N([H])C(=O)C([H])(N([H])C([H])([H])[H])C([H])([H])[H])C(C([H])([H])[H])(C([H])([H])[H])C([H])([H])[H])C([H])(C(=O)N([H])C2([H])c4c([H])c([H])c([H])c([H])c4C([H])([H])C([H])([H])C2([H])[H])C3([H])[H])C([H])([H])[H])c1[H]

>  <smiles>  (48) 
[H]c1c([H])c(N([H])C(=O)N2C([H])([H])C([H])([H])C([H])([H])C([H])(n3nc(-c4c([H])c([H])c(Oc5c([H])c([H])c(F)c([H])c5F)c([H])c4[H])c(C(=O)N([H])[H])c3N([H])[H])C2([H])[H])c([H])c(N(C(=O)C([H])([H])Oc2c([H])c([H])c3c(c2[H])C([H])([H])N(C(=O)C([H])(N([H])C(=O)C([H])(N([H])C([H])([H])[H])C([H])([H])[H])C(C([H])([H])[H])(C([H])([H])[H])C([H])([H])[H])C([H])(C(=O)N([H])C2([H])c4c([H])c([H])c([H])c([H])c4C([H])([H])C([H])([H])C2([H])[H])C3([H])[H])C([H])([H])[H])c1[H]

$$$$
48:0:0
     RDKit          3D

 98107  0  0  1  0  0  0  0  0999 V2000
  -31.2000  -19.8890   20.7540 C   0  0  0  0  0  3  0  0  0  0  0  0
  -30.6930  -21.2160   20.8180 C   0  0  0  0  0  3  0  0  0  0  0  0
  -29.0200  -19.0410   20.2140 C   0  0  0  0  0  3  0  0  0  0  0  0
  -30.3980  -18.7640   20.4010 C   0  0  0  0  0  0  0  0  0  0  0  0
  -28.4980  -20.3730   20.2940 C   0  0  0  0  0  0  0  0  0  0  0  0
  -29.3320  -21.5010   20.5660 C   0  0  0  0  0  0  0  0  0  0  0  0
  -27.0110  -20.5760   20.0660 C   0  0  0  0  0  1  0  0  0  0  0  0
  -30.9590  -14.8270   20.2090 C   0  0  0  0  0  0  0  0  0  0  0  0
  -30.6460  -12.5520   19.2720 C   0  0  0  0  0  2  0  0  0  0  0  0
  -29.6900  -12.5500   18.0610 C   0  0  0  0  0  2  0  0  0  0  0  0
  -28.2160  -12.4740   18.5090 C   0  0  0  0  0  2  0  0  0  0  0  0
  -27.8660  -13.3790   19.7250 C   0  0  0  0  0  3  0  0  0  0  0  0
  -28.9570  -13.3600   20.8140 C   0  0  0  0  0  2  0  0  0  0  0  0
  -30.2360  -13.6600   20.1610 N   0  0  0  0  0  0  0  0  0  0  0  0
  -32.1840  -14.7870   20.0780 O   0  0  0  0  0  0  0  0  0  0  0  0
  -30.9350  -16.8020   17.7940 C   0  0  0  0  0  2  0  0  0  0  0  0
  -29.7910  -16.2400   18.6500 C   0  0  0  0  0  2  0  0  0  0  0  0
  -31.1130  -17.3680   20.1550 C   0  0  0  0  0  3  0  0  0  0  0  0
  -31.8610  -17.5100   18.7920 C   0  0  0  0  0  3  0  0  0  0  0  0
  -30.3360  -16.0590   20.0050 N   0  0  0  0  0  0  0  0  0  0  0  0
  -25.5030  -13.9560   20.5350 C   0  0  0  0  0  0  0  0  0  0  0  0
  -24.4420  -13.1770   20.9060 C   0  0  0  0  0  0  0  0  0  0  0  0
  -24.8990  -11.8260   20.8310 C   0  0  0  0  0  0  0  0  0  0  0  0
  -26.5380  -13.0810   20.2520 N   0  0  0  0  0  0  0  0  0  0  0  0
  -26.1840  -11.7920   20.4980 N   0  0  0  0  0  0  0  0  0  0  0  0
  -24.1710  -10.5620   21.0000 C   0  0  0  0  0  0  0  0  0  0  0  0
  -24.5670   -9.6020   21.9560 C   0  0  0  0  0  3  0  0  0  0  0  0
  -23.8380   -8.4030   22.1140 C   0  0  0  0  0  3  0  0  0  0  0  0
  -22.6980   -8.1560   21.3140 C   0  0  0  0  0  0  0  0  0  0  0  0
  -22.3200   -9.1040   20.3470 C   0  0  0  0  0  3  0  0  0  0  0  0
  -23.0490  -10.2940   20.1880 C   0  0  0  0  0  3  0  0  0  0  0  0
  -21.9410   -7.0090   21.3820 O   0  0  0  0  0  0  0  0  0  0  0  0
  -21.7710   -6.3270   22.5600 C   0  0  0  0  0  0  0  0  0  0  0  0
  -21.1630   -6.9260   23.6850 C   0  0  0  0  0  3  0  0  0  0  0  0
  -20.9450   -6.1680   24.8540 C   0  0  0  0  0  3  0  0  0  0  0  0
  -21.3250   -4.8140   24.8960 C   0  0  0  0  0  0  0  0  0  0  0  0
  -21.9240   -4.2140   23.7740 C   0  0  0  0  0  3  0  0  0  0  0  0
  -22.1450   -4.9690   22.6090 C   0  0  0  0  0  0  0  0  0  0  0  0
  -22.7050   -4.3810   21.5250 F   0  0  0  0  0  0  0  0  0  0  0  0
  -21.1090   -4.0840   26.0160 F   0  0  0  0  0  0  0  0  0  0  0  0
  -23.0520  -13.6520   21.2200 C   0  0  0  0  0  0  0  0  0  0  0  0
  -22.3430  -12.9410   22.0910 N   0  0  0  0  0  0  0  0  0  0  0  0
  -22.6040  -14.6870   20.7280 O   0  0  0  0  0  0  0  0  0  0  0  0
  -22.7170  -12.1010   22.5050 H   0  0  0  0  0  0  0  0  0  0  0  0
  -21.4110  -13.2400   22.3430 H   0  0  0  0  0  0  0  0  0  0  0  0
  -25.6680  -15.3310   20.3900 N   0  0  0  0  0  0  0  0  0  0  0  0
  -24.9100  -15.9840   20.5560 H   0  0  0  0  0  0  0  0  0  0  0  0
  -26.5140  -15.7770   20.0630 H   0  0  0  0  0  0  0  0  0  0  0  0
  -33.2210  -16.9370   18.8290 N   0  0  0  0  0  4  0  0  0  0  0  0
  -33.1700  -16.0000   19.2180 H   0  0  0  0  0  0  0  0  0  0  0  0
  -33.8270  -17.4850   19.4150 H   0  0  0  0  0  0  0  0  0  0  0  0
  -33.6320  -16.9010   17.9130 H   0  0  0  0  0  0  0  0  0  0  0  0
  -29.2580  -24.0970   20.4150 C   0  0  0  0  0  0  0  0  0  0  0  0
  -28.7590  -22.8420   20.6560 N   0  0  0  0  0  0  0  0  0  0  0  0
  -30.3820  -24.2950   19.9420 O   0  0  0  0  0  0  0  0  0  0  0  0
  -27.7890  -22.8570   20.9350 H   0  0  0  0  0  0  0  0  0  0  0  0
  -28.3180  -25.3150   20.7600 C   0  0  0  0  0  2  0  0  0  0  0  0
  -28.5760  -26.6140   20.0930 O   0  0  0  0  0  0  0  0  0  0  0  0
  -24.7210  -31.8530   23.1990 C   0  0  0  0  0  0  0  0  0  0  0  0
  -27.4660  -27.4650   20.0470 C   0  0  0  0  0  0  0  0  0  0  0  0
  -23.5650  -30.4760   21.5050 C   0  0  0  0  0  3  0  0  0  0  0  0
  -25.0690  -29.0120   20.0450 C   0  0  0  0  0  0  0  0  0  0  0  0
  -26.0970  -30.8650   21.3580 C   0  0  0  0  0  2  0  0  0  0  0  0
  -26.2170  -29.5110   20.6740 C   0  0  0  0  0  0  0  0  0  0  0  0
  -27.4230  -28.7480   20.6690 C   0  0  0  0  0  3  0  0  0  0  0  0
  -26.3070  -27.0290   19.3700 C   0  0  0  0  0  3  0  0  0  0  0  0
  -25.1150  -27.7770   19.3810 C   0  0  0  0  0  3  0  0  0  0  0  0
  -23.8080  -29.8490   20.1070 C   0  0  0  0  0  2  0  0  0  0  0  0
  -24.8110  -31.0790   22.0790 N   0  0  0  0  0  0  0  0  0  0  0  0
  -23.6260  -32.0910   23.7300 O   0  0  0  0  0  0  0  0  0  0  0  0
  -22.9170  -29.4150   22.4270 C   0  0  0  0  0  0  0  0  0  0  0  0
  -21.5960  -29.2180   22.2860 N   0  0  0  0  0  0  0  0  0  0  0  0
  -23.6050  -28.7750   23.2280 O   0  0  0  0  0  0  0  0  0  0  0  0
  -21.1000  -29.7910   21.6180 H   0  0  0  0  0  0  0  0  0  0  0  0
  -18.2230  -28.0160   22.8020 C   0  0  0  0  0  0  0  0  0  0  0  0
  -20.7890  -28.2430   23.0220 C   0  0  0  0  0  3  0  0  0  0  0  0
  -20.8650  -26.8450   22.3640 C   0  0  0  0  0  2  0  0  0  0  0  0
  -19.7360  -26.5880   21.3610 C   0  0  0  0  0  2  0  0  0  0  0  0
  -18.3710  -26.7050   22.0460 C   0  0  0  0  0  2  0  0  0  0  0  0
  -19.3590  -28.7450   23.2450 C   0  0  0  0  0  0  0  0  0  0  0  0
  -19.1640  -29.9740   23.9120 C   0  0  0  0  0  3  0  0  0  0  0  0
  -17.8690  -30.4750   24.1370 C   0  0  0  0  0  3  0  0  0  0  0  0
  -16.7480  -29.7410   23.7110 C   0  0  0  0  0  3  0  0  0  0  0  0
  -16.9260  -28.5130   23.0510 C   0  0  0  0  0  3  0  0  0  0  0  0
  -25.9840  -32.4960   23.8520 C   0  0  0  0  0  3  0  0  0  0  0  0
  -26.4910  -31.7160   25.1260 C   0  0  1  0  0  0  0  0  0  0  0  0
  -25.3830  -31.4370   26.1690 C   0  0  0  0  0  1  0  0  0  0  0  0
  -27.1110  -30.3570   24.7250 C   0  0  0  0  0  1  0  0  0  0  0  0
  -27.6140  -32.5210   25.8220 C   0  0  0  0  0  1  0  0  0  0  0  0
  -25.6490  -33.8860   24.1930 N   0  0  0  0  0  0  0  0  0  0  0  0
  -25.9460  -34.9480   23.4340 C   0  0  0  0  0  0  0  0  0  0  0  0
  -26.6020  -34.8640   22.3910 O   0  0  0  0  0  0  0  0  0  0  0  0
  -25.0690  -34.0240   25.0080 H   0  0  0  0  0  0  0  0  0  0  0  0
  -24.1680  -36.6980   23.1200 C   0  0  0  0  0  1  0  0  0  0  0  0
  -25.4340  -36.3230   23.9040 C   0  0  0  0  0  3  0  0  0  0  0  0
  -27.5540  -37.2630   24.7080 C   0  0  0  0  0  1  0  0  0  0  0  0
  -26.4380  -37.4000   23.7750 N   0  0  0  0  0  0  0  0  0  0  0  0
  -26.0110  -38.3100   23.9270 H   0  0  0  0  0  0  0  0  0  0  0  0
  1  2  1  0
  3  5  2  0
  3  4  1  0
  4  1  2  0
  5  6  1  0
  6 54  1  0
  6  2  2  0
  7  5  1  0
  9 14  1  0
 10 11  1  0
 10  9  1  0
 12 11  1  0
 12 24  1  0
 12 13  1  0
 14  8  1  0
 14 13  1  0
 15  8  2  0
 16 17  1  0
 16 19  1  0
 17 20  1  0
 18  4  1  0
 19 49  1  0
 19 18  1  0
 20 18  1  0
 20  8  1  0
 21 22  2  0
 22 41  1  0
 23 22  1  0
 23 26  1  0
 24 25  1  0
 24 21  1  0
 25 23  2  0
 26 27  1  0
 27 28  2  0
 29 32  1  0
 29 28  1  0
 30 29  2  0
 31 30  1  0
 31 26  2  0
 32 33  1  0
 33 38  2  0
 33 34  1  0
 34 35  2  0
 35 36  1  0
 36 40  1  0
 37 36  2  0
 38 37  1  0
 39 38  1  0
 41 42  1  0
 42 45  1  0
 42 44  1  0
 43 41  2  0
 46 21  1  0
 46 47  1  0
 48 46  1  0
 49 50  1  0
 49 51  1  0
 52 49  1  0
 53 54  1  0
 53 57  1  0
 54 56  1  0
 55 53  2  0
 58 57  1  0
 59 70  2  0
 60 58  1  0
 60 65  1  0
 61 69  1  0
 61 71  1  0
 62 68  1  0
 62 64  1  0
 63 69  1  0
 64 63  1  0
 65 64  2  0
 66 67  1  0
 66 60  2  0
 67 62  2  0
 68 61  1  0
 69 59  1  0
 71 73  2  0
 72 71  1  0
 74 72  1  0
 75 84  2  0
 75 80  1  0
 76 72  1  0
 76 80  1  0
 77 76  1  0
 78 79  1  0
 78 77  1  0
 79 75  1  0
 80 81  2  0
 81 82  1  0
 83 82  2  0
 84 83  1  0
 85 59  1  0
 85 90  1  0
 85 86  1  0
 86 89  1  1
 86 87  1  0
 88 86  1  0
 90 93  1  0
 91 95  1  0
 91 90  1  0
 92 91  2  0
 95 94  1  0
 97 95  1  0
 97 98  1  0
 97 96  1  0
M  ISO  4   8 100  20 100  57 101  58 101
M  END
>  <TORSDO>  (49) 
F 19

>  <SCORE>  (49) 
-13.364

>  <name>  (49) 
48

>  <ligand_id>  (49) 
48

>  <original_smiles>  (49) 
[H]c1c([H])c([H])c2c(c1[H])C([H])([H])C([H])([H])C([H])([H])C2([H])N([H])C(=O)C1([H])N(C(=O)C([H])(N([H])C(=O)C([H])(N([H])C([H])([H])[H])C([H])([H])[H])C(C([H])([H])[H])(C([H])([H])[H])C([H])([H])[H])C([H])([H])c2c([H])c(OC([H])([H])C(=O)N([H])c3c([H])c([H])c(C4([H])N(C(=O)N5C([H])([H])C([H])([H])C([H])([H])C([H])(n6nc(-c7c([H])c([H])c(Oc8c([H])c([H])c(F)c([H])c8F)c([H])c7[H])c(C(=O)N([H])[H])c6N([H])[H])C5([H])[H])C([H])([H])C([H])([H])C4([H])[N+]([H])([H])[H])c([H])c3C([H])([H])[H])c([H])c([H])c2C1([H])[H]

>  <smiles>  (49) 
[H]c1c([H])c([H])c2c(c1[H])C([H])([H])C([H])([H])C([H])([H])C2([H])N([H])C(=O)C1([H])N(C(=O)C([H])(N([H])C(=O)C([H])(N([H])C([H])([H])[H])C([H])([H])[H])C(C([H])([H])[H])(C([H])([H])[H])C([H])([H])[H])C([H])([H])c2c([H])c(OC([H])([H])C(=O)N([H])c3c([H])c([H])c(C4([H])N(C(=O)N5C([H])([H])C([H])([H])C([H])([H])C([H])(n6nc(-c7c([H])c([H])c(Oc8c([H])c([H])c(F)c([H])c8F)c([H])c7[H])c(C(=O)N([H])[H])c6N([H])[H])C5([H])[H])C([H])([H])C([H])([H])C4([H])[N+]([H])([H])[H])c([H])c3C([H])([H])[H])c([H])c([H])c2C1([H])[H]

$$$$
49:0:0
     RDKit          3D

 92100  0  0  1  0  0  0  0  0999 V2000
  -27.6080  -22.0510   20.3610 C   0  0  0  0  0  1  0  0  0  0  0  0
  -29.0010  -22.5670   20.4000 N   0  0  2  0  0  4  0  0  0  0  0  0
  -29.2330  -22.6240   21.3820 H   0  0  0  0  0  0  0  0  0  0  0  0
  -30.6160  -24.4690   19.8240 C   0  0  0  0  0  1  0  0  0  0  0  0
  -29.1400  -24.0010   19.8360 C   0  0  0  0  0  3  0  0  0  0  0  0
  -28.2580  -25.1410   20.5320 C   0  0  0  0  0  2  0  0  0  0  0  0
  -28.4030  -26.5390   20.0670 O   0  0  0  0  0  0  0  0  0  0  0  0
  -24.6230  -31.8420   23.1780 C   0  0  0  0  0  0  0  0  0  0  0  0
  -27.2630  -27.3510   20.0760 C   0  0  0  0  0  0  0  0  0  0  0  0
  -23.4220  -30.4530   21.5280 C   0  0  0  0  0  3  0  0  0  0  0  0
  -24.8770  -28.9200   20.0910 C   0  0  0  0  0  0  0  0  0  0  0  0
  -25.9570  -30.7980   21.3370 C   0  0  0  0  0  2  0  0  0  0  0  0
  -26.0440  -29.4260   20.6790 C   0  0  0  0  0  0  0  0  0  0  0  0
  -27.2410  -28.6530   20.6580 C   0  0  0  0  0  3  0  0  0  0  0  0
  -26.0780  -26.8950   19.4580 C   0  0  0  0  0  3  0  0  0  0  0  0
  -24.8950  -27.6610   19.4730 C   0  0  0  0  0  3  0  0  0  0  0  0
  -23.6360  -29.7880   20.1420 C   0  0  0  0  0  2  0  0  0  0  0  0
  -24.6870  -31.0470   22.0720 N   0  0  0  0  0  0  0  0  0  0  0  0
  -23.5400  -32.1080   23.7180 O   0  0  0  0  0  0  0  0  0  0  0  0
  -22.7690  -29.4260   22.4810 C   0  0  0  0  0  0  0  0  0  0  0  0
  -21.4440  -29.2390   22.3520 N   0  0  0  0  0  0  0  0  0  0  0  0
  -23.4530  -28.8000   23.2940 O   0  0  0  0  0  0  0  0  0  0  0  0
  -20.9530  -29.7970   21.6690 H   0  0  0  0  0  0  0  0  0  0  0  0
  -18.0760  -28.0020   22.8170 C   0  0  0  0  0  0  0  0  0  0  0  0
  -20.6280  -28.2920   23.1160 C   0  0  0  0  0  3  0  0  0  0  0  0
  -20.7540  -26.8620   22.5410 C   0  0  0  0  0  2  0  0  0  0  0  0
  -19.6650  -26.5260   21.5160 C   0  0  0  0  0  2  0  0  0  0  0  0
  -18.2750  -26.6550   22.1450 C   0  0  0  0  0  2  0  0  0  0  0  0
  -19.1800  -28.7780   23.2590 C   0  0  0  0  0  0  0  0  0  0  0  0
  -18.9410  -30.0380   23.8460 C   0  0  0  0  0  3  0  0  0  0  0  0
  -17.6280  -30.5230   24.0000 C   0  0  0  0  0  3  0  0  0  0  0  0
  -16.5380  -29.7450   23.5730 C   0  0  0  0  0  3  0  0  0  0  0  0
  -16.7620  -28.4870   22.9870 C   0  0  0  0  0  3  0  0  0  0  0  0
  -25.9070  -32.4740   23.8010 C   0  0  0  0  0  3  0  0  0  0  0  0
  -26.4320  -31.6890   25.0660 C   0  0  1  0  0  0  0  0  0  0  0  0
  -25.3460  -31.4350   26.1370 C   0  0  0  0  0  1  0  0  0  0  0  0
  -27.0180  -30.3180   24.6540 C   0  0  0  0  0  1  0  0  0  0  0  0
  -27.5820  -32.4790   25.7340 C   0  0  0  0  0  1  0  0  0  0  0  0
  -25.5920  -33.8640   24.1560 N   0  0  0  0  0  0  0  0  0  0  0  0
  -25.9090  -34.9300   23.4090 C   0  0  0  0  0  0  0  0  0  0  0  0
  -26.5700  -34.8460   22.3710 O   0  0  0  0  0  0  0  0  0  0  0  0
  -25.0030  -34.0000   24.9640 H   0  0  0  0  0  0  0  0  0  0  0  0
  -24.1620  -36.7110   23.1000 C   0  0  0  0  0  1  0  0  0  0  0  0
  -25.4150  -36.3080   23.8920 C   0  0  0  0  0  3  0  0  0  0  0  0
  -27.5530  -37.1980   24.7080 C   0  0  0  0  0  1  0  0  0  0  0  0
  -26.4360  -37.3720   23.7820 N   0  0  0  0  0  0  0  0  0  0  0  0
  -26.0250  -38.2870   23.9510 H   0  0  0  0  0  0  0  0  0  0  0  0
  -29.9830  -21.5500   19.8270 C   0  0  0  0  0  2  0  0  0  0  0  0
  -29.4790  -19.3770   21.2840 C   0  0  0  0  0  3  0  0  0  0  0  0
  -30.3590  -19.1140   19.0630 C   0  0  0  0  0  3  0  0  0  0  0  0
  -29.4990  -17.9570   21.4400 C   0  0  0  0  0  3  0  0  0  0  0  0
  -30.4140  -17.7010   19.2290 C   0  0  0  0  0  3  0  0  0  0  0  0
  -29.8900  -19.9950   20.0760 C   0  0  0  0  0  0  0  0  0  0  0  0
  -29.9750  -17.0810   20.4250 C   0  0  0  0  0  0  0  0  0  0  0  0
  -30.6130  -14.6150   20.0390 C   0  0  0  0  0  0  0  0  0  0  0  0
  -30.3120  -12.4190   18.9250 C   0  0  0  0  0  2  0  0  0  0  0  0
  -29.3000  -12.6060   17.7730 C   0  0  0  0  0  2  0  0  0  0  0  0
  -27.8510  -12.4480   18.2810 C   0  0  0  0  0  2  0  0  0  0  0  0
  -27.5800  -13.2720   19.5700 C   0  0  0  0  0  3  0  0  0  0  0  0
  -28.7010  -13.0580   20.6140 C   0  0  0  0  0  2  0  0  0  0  0  0
  -29.9800  -13.4010   19.9760 N   0  0  0  0  0  0  0  0  0  0  0  0
  -31.7140  -14.7940   19.5130 O   0  0  0  0  0  0  0  0  0  0  0  0
  -29.9140  -15.6350   20.6210 N   0  0  0  0  0  0  0  0  0  0  0  0
  -29.1430  -15.3210   21.1890 H   0  0  0  0  0  0  0  0  0  0  0  0
  -25.2330  -13.8690   20.4380 C   0  0  0  0  0  0  0  0  0  0  0  0
  -24.1840  -13.0970   20.8560 C   0  0  0  0  0  0  0  0  0  0  0  0
  -24.6340  -11.7430   20.7720 C   0  0  0  0  0  0  0  0  0  0  0  0
  -26.2580  -12.9880   20.1270 N   0  0  0  0  0  0  0  0  0  0  0  0
  -25.9030  -11.7030   20.3850 N   0  0  0  0  0  0  0  0  0  0  0  0
  -23.9110  -10.4820   20.9850 C   0  0  0  0  0  0  0  0  0  0  0  0
  -24.3850   -9.5040   21.8860 C   0  0  0  0  0  3  0  0  0  0  0  0
  -23.6650   -8.3050   22.0870 C   0  0  0  0  0  3  0  0  0  0  0  0
  -22.4560   -8.0770   21.3870 C   0  0  0  0  0  0  0  0  0  0  0  0
  -22.0010   -9.0460   20.4760 C   0  0  0  0  0  3  0  0  0  0  0  0
  -22.7200  -10.2350   20.2730 C   0  0  0  0  0  3  0  0  0  0  0  0
  -21.7020   -6.9330   21.4980 O   0  0  0  0  0  0  0  0  0  0  0  0
  -21.6930   -6.1880   22.6490 C   0  0  0  0  0  0  0  0  0  0  0  0
  -21.3250   -6.7420   23.8950 C   0  0  0  0  0  3  0  0  0  0  0  0
  -21.2650   -5.9220   25.0400 C   0  0  0  0  0  3  0  0  0  0  0  0
  -21.5600   -4.5490   24.9390 C   0  0  0  0  0  0  0  0  0  0  0  0
  -21.9230   -3.9950   23.6980 C   0  0  0  0  0  3  0  0  0  0  0  0
  -21.9860   -4.8130   22.5560 C   0  0  0  0  0  0  0  0  0  0  0  0
  -22.3160   -4.2690   21.3610 F   0  0  0  0  0  0  0  0  0  0  0  0
  -21.4950   -3.7600   26.0370 F   0  0  0  0  0  0  0  0  0  0  0  0
  -22.8070  -13.5770   21.2190 C   0  0  0  0  0  0  0  0  0  0  0  0
  -22.1280  -12.8720   22.1180 N   0  0  0  0  0  0  0  0  0  0  0  0
  -22.3450  -14.6120   20.7390 O   0  0  0  0  0  0  0  0  0  0  0  0
  -22.5170  -12.0410   22.5370 H   0  0  0  0  0  0  0  0  0  0  0  0
  -21.2070  -13.1790   22.3970 H   0  0  0  0  0  0  0  0  0  0  0  0
  -25.3950  -15.2410   20.2770 N   0  0  0  0  0  0  0  0  0  0  0  0
  -24.6370  -15.8950   20.4410 H   0  0  0  0  0  0  0  0  0  0  0  0
  -26.2340  -15.6900   19.9310 H   0  0  0  0  0  0  0  0  0  0  0  0
  1  2  1  0
  2  3  1  1
  5  4  1  0
  5  2  1  0
  5  6  1  0
  7  9  1  0
  7  6  1  0
  8 19  2  0
  9 14  1  0
 10 18  1  0
 10 20  1  0
 11 17  1  0
 11 13  1  0
 12 18  1  0
 13 12  1  0
 14 13  2  0
 15 16  1  0
 15  9  2  0
 16 11  2  0
 17 10  1  0
 18  8  1  0
 20 22  2  0
 21 20  1  0
 23 21  1  0
 24 33  2  0
 24 29  1  0
 25 21  1  0
 25 29  1  0
 26 25  1  0
 27 28  1  0
 27 26  1  0
 28 24  1  0
 29 30  2  0
 30 31  1  0
 32 31  2  0
 33 32  1  0
 34  8  1  0
 34 39  1  0
 34 35  1  0
 35 38  1  1
 35 36  1  0
 37 35  1  0
 39 42  1  0
 40 44  1  0
 40 39  1  0
 41 40  2  0
 44 43  1  0
 46 44  1  0
 46 47  1  0
 46 45  1  0
 48 53  1  0
 48  2  1  0
 49 51  1  0
 50 52  2  0
 50 53  1  0
 52 54  1  0
 53 49  2  0
 54 63  1  0
 54 51  2  0
 55 63  1  0
 56 61  1  0
 57 58  1  0
 57 56  1  0
 59 58  1  0
 59 68  1  0
 59 60  1  0
 61 55  1  0
 61 60  1  0
 62 55  2  0
 63 64  1  0
 65 66  2  0
 66 85  1  0
 67 66  1  0
 67 70  1  0
 68 69  1  0
 68 65  1  0
 69 67  2  0
 70 71  1  0
 71 72  2  0
 73 76  1  0
 73 72  1  0
 74 73  2  0
 75 74  1  0
 75 70  2  0
 76 77  1  0
 77 78  1  0
 78 79  2  0
 80 79  1  0
 80 84  1  0
 81 80  2  0
 82 77  2  0
 82 81  1  0
 83 82  1  0
 85 86  1  0
 86 89  1  0
 86 88  1  0
 87 85  2  0
 90 65  1  0
 90 91  1  0
 92 90  1  0
M  ISO  4   6 101   7 101  55 100  63 100
M  END
>  <TORSDO>  (50) 
F 20

>  <SCORE>  (50) 
-13.160

>  <name>  (50) 
49

>  <ligand_id>  (50) 
49

>  <original_smiles>  (50) 
[H]c1c([H])c([H])c2c(c1[H])C([H])([H])C([H])([H])C([H])([H])C2([H])N([H])C(=O)C1([H])N(C(=O)C([H])(N([H])C(=O)C([H])(N([H])C([H])([H])[H])C([H])([H])[H])C(C([H])([H])[H])(C([H])([H])[H])C([H])([H])[H])C([H])([H])c2c([H])c(OC([H])([H])C([H])(C([H])([H])[H])[N+]([H])(C([H])([H])[H])C([H])([H])c3c([H])c([H])c(N([H])C(=O)N4C([H])([H])C([H])([H])C([H])([H])C([H])(n5nc(-c6c([H])c([H])c(Oc7c([H])c([H])c(F)c([H])c7F)c([H])c6[H])c(C(=O)N([H])[H])c5N([H])[H])C4([H])[H])c([H])c3[H])c([H])c([H])c2C1([H])[H]

>  <smiles>  (50) 
[H]c1c([H])c([H])c2c(c1[H])C([H])([H])C([H])([H])C([H])([H])C2([H])N([H])C(=O)C1([H])N(C(=O)C([H])(N([H])C(=O)C([H])(N([H])C([H])([H])[H])C([H])([H])[H])C(C([H])([H])[H])(C([H])([H])[H])C([H])([H])[H])C([H])([H])c2c([H])c(OC([H])([H])C([H])(C([H])([H])[H])[N+]([H])(C([H])([H])[H])C([H])([H])c3c([H])c([H])c(N([H])C(=O)N4C([H])([H])C([H])([H])C([H])([H])C([H])(n5nc(-c6c([H])c([H])c(Oc7c([H])c([H])c(F)c([H])c7F)c([H])c6[H])c(C(=O)N([H])[H])c5N([H])[H])C4([H])[H])c([H])c3[H])c([H])c([H])c2C1([H])[H]

$$$$
50:0:0
     RDKit          3D

 96104  0  0  1  0  0  0  0  0999 V2000
  -30.8120  -20.3400   18.9360 C   0  0  0  0  0  3  0  0  0  0  0  0
  -30.9870  -18.9480   18.9480 C   0  0  0  0  0  3  0  0  0  0  0  0
  -28.7940  -20.0830   20.2470 C   0  0  0  0  0  3  0  0  0  0  0  0
  -29.6770  -20.9100   19.5290 C   0  0  0  0  0  0  0  0  0  0  0  0
  -30.0370  -18.0730   19.5400 C   0  0  0  0  0  0  0  0  0  0  0  0
  -28.9660  -18.6780   20.2750 C   0  0  0  0  0  0  0  0  0  0  0  0
  -27.9100  -17.9040   21.0530 C   0  0  0  0  0  1  0  0  0  0  0  0
  -31.3290  -16.2030   18.2930 C   0  0  0  0  0  1  0  0  0  0  0  0
  -28.8920  -16.2850   18.2500 C   0  0  0  0  0  1  0  0  0  0  0  0
  -30.0960  -16.5580   19.1810 C   0  0  2  0  0  0  0  0  0  0  0  0
  -30.7960  -14.6720   20.7710 C   0  0  0  0  0  0  0  0  0  0  0  0
  -30.6580  -12.3870   19.9500 C   0  0  0  0  0  2  0  0  0  0  0  0
  -29.8280  -12.4560   18.6490 C   0  0  0  0  0  2  0  0  0  0  0  0
  -28.3190  -12.3470   18.9530 C   0  0  0  0  0  2  0  0  0  0  0  0
  -27.8500  -13.2700   20.1090 C   0  0  0  0  0  3  0  0  0  0  0  0
  -28.8190  -13.2130   21.3150 C   0  0  0  0  0  2  0  0  0  0  0  0
  -30.1840  -13.4620   20.8290 N   0  0  0  0  0  0  0  0  0  0  0  0
  -32.0170  -14.8070   20.6990 O   0  0  0  0  0  0  0  0  0  0  0  0
  -29.9570  -15.6350   20.3370 N   0  0  0  0  0  0  0  0  0  0  0  0
  -28.9980  -15.4130   20.5470 H   0  0  0  0  0  0  0  0  0  0  0  0
  -25.4020  -13.8680   20.6260 C   0  0  0  0  0  0  0  0  0  0  0  0
  -24.3190  -13.0900   20.9300 C   0  0  0  0  0  0  0  0  0  0  0  0
  -24.7970  -11.7450   20.9640 C   0  0  0  0  0  0  0  0  0  0  0  0
  -26.4720  -12.9950   20.4980 N   0  0  0  0  0  0  0  0  0  0  0  0
  -26.1070  -11.7160   20.7620 N   0  0  0  0  0  0  0  0  0  0  0  0
  -24.0760  -10.4780   21.1200 C   0  0  0  0  0  0  0  0  0  0  0  0
  -24.4510   -9.5340   22.1000 C   0  0  0  0  0  3  0  0  0  0  0  0
  -23.7310   -8.3280   22.2430 C   0  0  0  0  0  3  0  0  0  0  0  0
  -22.6230   -8.0600   21.4050 C   0  0  0  0  0  0  0  0  0  0  0  0
  -22.2700   -8.9940   20.4140 C   0  0  0  0  0  3  0  0  0  0  0  0
  -22.9910  -10.1910   20.2700 C   0  0  0  0  0  3  0  0  0  0  0  0
  -21.8790   -6.9070   21.4560 O   0  0  0  0  0  0  0  0  0  0  0  0
  -21.7450   -6.1890   22.6170 C   0  0  0  0  0  0  0  0  0  0  0  0
  -21.1960   -6.7600   23.7870 C   0  0  0  0  0  3  0  0  0  0  0  0
  -21.0130   -5.9660   24.9370 C   0  0  0  0  0  3  0  0  0  0  0  0
  -21.3690   -4.6050   24.9190 C   0  0  0  0  0  0  0  0  0  0  0  0
  -21.9110   -4.0340   23.7530 C   0  0  0  0  0  3  0  0  0  0  0  0
  -22.0960   -4.8240   22.6050 C   0  0  0  0  0  0  0  0  0  0  0  0
  -22.6000   -4.2660   21.4780 F   0  0  0  0  0  0  0  0  0  0  0  0
  -21.1850   -3.8390   26.0200 F   0  0  0  0  0  0  0  0  0  0  0  0
  -22.8990  -13.5540   21.0810 C   0  0  0  0  0  0  0  0  0  0  0  0
  -22.1140  -12.8630   21.8990 N   0  0  0  0  0  0  0  0  0  0  0  0
  -22.4910  -14.5650   20.5080 O   0  0  0  0  0  0  0  0  0  0  0  0
  -22.4570  -12.0490   22.3870 H   0  0  0  0  0  0  0  0  0  0  0  0
  -21.1570  -13.1530   22.0460 H   0  0  0  0  0  0  0  0  0  0  0  0
  -25.5550  -15.2360   20.4260 N   0  0  0  0  0  0  0  0  0  0  0  0
  -24.7540  -15.8600   20.4420 H   0  0  0  0  0  0  0  0  0  0  0  0
  -26.3980  -15.6780   20.0870 H   0  0  0  0  0  0  0  0  0  0  0  0
  -29.3870  -22.3820   19.3010 C   0  0  0  0  0  2  0  0  0  0  0  0
  -30.1530  -23.3260   20.2470 C   0  0  0  0  0  2  0  0  0  0  0  0
  -30.0370  -25.5690   19.1010 C   0  0  0  0  0  0  0  0  0  0  0  0
  -32.1700  -24.3690   19.2840 C   0  0  0  0  0  1  0  0  0  0  0  0
  -30.7230  -24.4760   19.5250 N   0  0  0  0  0  0  0  0  0  0  0  0
  -30.6020  -26.4950   18.5080 O   0  0  0  0  0  0  0  0  0  0  0  0
  -28.5240  -25.7160   19.3550 C   0  0  0  0  0  2  0  0  0  0  0  0
  -28.3400  -26.9490   20.0420 O   0  0  0  0  0  0  0  0  0  0  0  0
  -24.5030  -31.9450   23.2420 C   0  0  0  0  0  0  0  0  0  0  0  0
  -27.1180  -27.5790   20.0500 C   0  0  0  0  0  0  0  0  0  0  0  0
  -23.2710  -30.5680   21.5920 C   0  0  0  0  0  3  0  0  0  0  0  0
  -24.7050  -29.0490   20.1260 C   0  0  0  0  0  0  0  0  0  0  0  0
  -25.7890  -30.9370   21.3630 C   0  0  0  0  0  2  0  0  0  0  0  0
  -25.8640  -29.5760   20.7060 C   0  0  0  0  0  0  0  0  0  0  0  0
  -27.0660  -28.8430   20.6710 C   0  0  0  0  0  3  0  0  0  0  0  0
  -25.9370  -27.0480   19.4790 C   0  0  0  0  0  3  0  0  0  0  0  0
  -24.7340  -27.7820   19.5150 C   0  0  0  0  0  3  0  0  0  0  0  0
  -23.4600  -29.9050   20.2010 C   0  0  0  0  0  2  0  0  0  0  0  0
  -24.5390  -31.1640   22.1240 N   0  0  0  0  0  0  0  0  0  0  0  0
  -23.4300  -32.2080   23.8030 O   0  0  0  0  0  0  0  0  0  0  0  0
  -22.6350  -29.5330   22.5470 C   0  0  0  0  0  0  0  0  0  0  0  0
  -21.3110  -29.3510   22.4310 N   0  0  0  0  0  0  0  0  0  0  0  0
  -23.3300  -28.8960   23.3440 O   0  0  0  0  0  0  0  0  0  0  0  0
  -20.8120  -29.9170   21.7580 H   0  0  0  0  0  0  0  0  0  0  0  0
  -17.9450  -28.1440   22.9350 C   0  0  0  0  0  0  0  0  0  0  0  0
  -20.5040  -28.4010   23.1950 C   0  0  0  0  0  3  0  0  0  0  0  0
  -20.6050  -26.9780   22.5980 C   0  0  0  0  0  2  0  0  0  0  0  0
  -19.4980  -26.6660   21.5870 C   0  0  0  0  0  2  0  0  0  0  0  0
  -18.1200  -26.8030   22.2420 C   0  0  0  0  0  2  0  0  0  0  0  0
  -19.0650  -28.9010   23.3680 C   0  0  0  0  0  0  0  0  0  0  0  0
  -18.8490  -30.1580   23.9730 C   0  0  0  0  0  3  0  0  0  0  0  0
  -17.5440  -30.6550   24.1530 C   0  0  0  0  0  3  0  0  0  0  0  0
  -16.4380  -29.8930   23.7370 C   0  0  0  0  0  3  0  0  0  0  0  0
  -16.6400  -28.6390   23.1330 C   0  0  0  0  0  3  0  0  0  0  0  0
  -25.8000  -32.5620   23.8530 C   0  0  0  0  0  3  0  0  0  0  0  0
  -25.5110  -33.9650   24.1770 N   0  0  0  0  0  0  0  0  0  0  0  0
  -25.8670  -35.0080   23.4160 C   0  0  0  0  0  0  0  0  0  0  0  0
  -26.5430  -34.8910   22.3900 O   0  0  0  0  0  0  0  0  0  0  0  0
  -24.9150  -34.1310   24.9740 H   0  0  0  0  0  0  0  0  0  0  0  0
  -24.1800  -36.8320   23.0230 C   0  0  0  0  0  1  0  0  0  0  0  0
  -25.3950  -36.4050   23.8620 C   0  0  0  0  0  3  0  0  0  0  0  0
  -27.5270  -37.2510   24.7410 C   0  0  0  0  0  1  0  0  0  0  0  0
  -26.4500  -37.4380   23.7720 N   0  0  0  0  0  0  0  0  0  0  0  0
  -26.0590  -38.3660   23.9090 H   0  0  0  0  0  0  0  0  0  0  0  0
  -26.3160  -31.7880   25.1280 C   0  0  1  0  0  0  0  0  0  0  0  0
  -25.2300  -31.5720   26.2060 C   0  0  0  0  0  1  0  0  0  0  0  0
  -26.8740  -30.4000   24.7330 C   0  0  0  0  0  1  0  0  0  0  0  0
  -27.4850  -32.5660   25.7770 C   0  0  0  0  0  1  0  0  0  0  0  0
  1  2  2  0
  1  4  1  0
  2  5  1  0
  3  6  1  0
  4  3  2  0
  5  6  2  0
  6  7  1  0
 10  8  1  6
  9 10  1  0
 10  5  1  0
 10 19  1  0
 11 17  1  0
 12 17  1  0
 13 14  1  0
 13 12  1  0
 15 14  1  0
 15 24  1  0
 15 16  1  0
 17 16  1  0
 18 11  2  0
 19 20  1  0
 19 11  1  0
 21 22  2  0
 22 23  1  0
 22 41  1  0
 23 26  1  0
 24 21  1  0
 24 25  1  0
 25 23  2  0
 26 27  1  0
 27 28  2  0
 29 32  1  0
 29 28  1  0
 30 29  2  0
 31 30  1  0
 31 26  2  0
 32 33  1  0
 33 34  1  0
 34 35  2  0
 36 35  1  0
 36 40  1  0
 37 36  2  0
 38 33  2  0
 38 37  1  0
 39 38  1  0
 41 42  1  0
 42 45  1  0
 42 44  1  0
 43 41  2  0
 46 47  1  0
 46 21  1  0
 48 46  1  0
 49  4  1  0
 49 50  1  0
 51 55  1  0
 51 53  1  0
 52 53  1  0
 53 50  1  0
 54 51  2  0
 55 56  1  0
 56 58  1  0
 57 68  2  0
 58 63  1  0
 59 67  1  0
 59 69  1  0
 60 66  1  0
 60 62  1  0
 61 67  1  0
 62 61  1  0
 63 62  2  0
 64 65  1  0
 64 58  2  0
 65 60  2  0
 66 59  1  0
 67 57  1  0
 69 71  2  0
 70 69  1  0
 72 70  1  0
 73 82  2  0
 73 78  1  0
 74 70  1  0
 74 78  1  0
 75 74  1  0
 76 77  1  0
 76 75  1  0
 77 73  1  0
 78 79  2  0
 79 80  1  0
 81 80  2  0
 82 81  1  0
 83 57  1  0
 83 84  1  0
 83 93  1  0
 84 87  1  0
 85 89  1  0
 85 84  1  0
 86 85  2  0
 89 88  1  0
 91 89  1  0
 91 92  1  0
 91 90  1  0
 93 96  1  1
 93 94  1  0
 95 93  1  0
M  ISO  4  11 100  19 100  55 101  56 101
M  END
>  <TORSDO>  (51) 
F 21

>  <SCORE>  (51) 
-11.931

>  <name>  (51) 
50

>  <ligand_id>  (51) 
50

>  <original_smiles>  (51) 
[H]c1c([H])c([H])c2c(c1[H])C([H])([H])C([H])([H])C([H])([H])C2([H])N([H])C(=O)C1([H])N(C(=O)C([H])(N([H])C(=O)C([H])(N([H])C([H])([H])[H])C([H])([H])[H])C(C([H])([H])[H])(C([H])([H])[H])C([H])([H])[H])C([H])([H])c2c([H])c(OC([H])([H])C(=O)N(C([H])([H])[H])C([H])([H])C([H])([H])c3c([H])c([H])c(C(N([H])C(=O)N4C([H])([H])C([H])([H])C([H])([H])C([H])(n5nc(-c6c([H])c([H])c(Oc7c([H])c([H])c(F)c([H])c7F)c([H])c6[H])c(C(=O)N([H])[H])c5N([H])[H])C4([H])[H])(C([H])([H])[H])C([H])([H])[H])c(C([H])([H])[H])c3[H])c([H])c([H])c2C1([H])[H]

>  <smiles>  (51) 
[H]c1c([H])c([H])c2c(c1[H])C([H])([H])C([H])([H])C([H])([H])C2([H])N([H])C(=O)C1([H])N(C(=O)C([H])(N([H])C(=O)C([H])(N([H])C([H])([H])[H])C([H])([H])[H])C(C([H])([H])[H])(C([H])([H])[H])C([H])([H])[H])C([H])([H])c2c([H])c(OC([H])([H])C(=O)N(C([H])([H])[H])C([H])([H])C([H])([H])c3c([H])c([H])c(C(N([H])C(=O)N4C([H])([H])C([H])([H])C([H])([H])C([H])(n5nc(-c6c([H])c([H])c(Oc7c([H])c([H])c(F)c([H])c7F)c([H])c6[H])c(C(=O)N([H])[H])c5N([H])[H])C4([H])[H])(C([H])([H])[H])C([H])([H])[H])c(C([H])([H])[H])c3[H])c([H])c([H])c2C1([H])[H]

$$$$
51:0:0
     RDKit          3D

 95104  0  0  1  0  0  0  0  0999 V2000
  -28.1690  -24.5330   19.8830 C   0  0  0  0  0  0  0  0  0  0  0  0
  -26.1470  -22.0580   20.9390 C   0  0  0  0  0  2  0  0  0  0  0  0
  -26.0830  -23.1870   19.9090 C   0  0  0  0  0  2  0  0  0  0  0  0
  -27.6520  -22.3610   21.0980 C   0  0  0  0  0  3  0  0  0  0  0  0
  -27.2860  -23.6880   20.5630 N   0  0  0  0  0  0  0  0  0  0  0  0
  -28.2880  -24.4900   18.6540 O   0  0  0  0  0  0  0  0  0  0  0  0
  -28.6170  -21.4560   20.3260 C   0  0  0  0  0  0  0  0  0  0  0  0
  -29.6110  -21.8430   19.7050 O   0  0  0  0  0  0  0  0  0  0  0  0
  -28.2800  -19.9500   20.3960 C   0  0  0  0  0  2  0  0  0  0  0  0
  -29.7030  -17.9400   20.7450 C   0  0  0  0  0  0  0  0  0  0  0  0
  -30.4270  -17.4890   18.5400 C   0  0  0  0  0  2  0  0  0  0  0  0
  -29.8980  -18.9210   18.6630 C   0  0  0  0  0  2  0  0  0  0  0  0
  -30.6550  -17.0190   19.9910 C   0  0  0  0  0  3  0  0  0  0  0  0
  -29.3490  -19.0070   20.0120 N   0  0  0  0  0  0  0  0  0  0  0  0
  -29.2950  -17.6720   21.8780 O   0  0  0  0  0  0  0  0  0  0  0  0
  -30.9570  -14.5600   19.6820 C   0  0  0  0  0  0  0  0  0  0  0  0
  -30.6240  -12.3020   18.7710 C   0  0  0  0  0  2  0  0  0  0  0  0
  -29.6130  -12.3760   17.6090 C   0  0  0  0  0  2  0  0  0  0  0  0
  -28.1680  -12.2640   18.1330 C   0  0  0  0  0  2  0  0  0  0  0  0
  -27.8850  -13.2200   19.3240 C   0  0  0  0  0  3  0  0  0  0  0  0
  -29.0040  -13.1260   20.3860 C   0  0  0  0  0  2  0  0  0  0  0  0
  -30.2930  -13.3760   19.7170 N   0  0  0  0  0  0  0  0  0  0  0  0
  -32.0300  -14.7140   19.0920 O   0  0  0  0  0  0  0  0  0  0  0  0
  -30.3070  -15.6070   20.2040 N   0  0  0  0  0  0  0  0  0  0  0  0
  -29.4460  -15.4290   20.7030 H   0  0  0  0  0  0  0  0  0  0  0  0
  -25.5640  -13.8780   20.2190 C   0  0  0  0  0  0  0  0  0  0  0  0
  -24.5080  -13.1280   20.6620 C   0  0  0  0  0  0  0  0  0  0  0  0
  -24.9310  -11.7670   20.5860 C   0  0  0  0  0  0  0  0  0  0  0  0
  -26.5660  -12.9750   19.9020 N   0  0  0  0  0  0  0  0  0  0  0  0
  -26.1920  -11.6980   20.1780 N   0  0  0  0  0  0  0  0  0  0  0  0
  -24.1910  -10.5200   20.8210 C   0  0  0  0  0  0  0  0  0  0  0  0
  -24.5860   -9.6030   21.8190 C   0  0  0  0  0  3  0  0  0  0  0  0
  -23.8480   -8.4190   22.0390 C   0  0  0  0  0  3  0  0  0  0  0  0
  -22.6990   -8.1450   21.2600 C   0  0  0  0  0  0  0  0  0  0  0  0
  -22.3230   -9.0500   20.2500 C   0  0  0  0  0  3  0  0  0  0  0  0
  -23.0620  -10.2240   20.0290 C   0  0  0  0  0  3  0  0  0  0  0  0
  -21.9350   -7.0100   21.3860 O   0  0  0  0  0  0  0  0  0  0  0  0
  -21.7320   -6.4120   22.6030 C   0  0  0  0  0  0  0  0  0  0  0  0
  -21.1420   -7.1020   23.6850 C   0  0  0  0  0  3  0  0  0  0  0  0
  -20.8880   -6.4270   24.8950 C   0  0  0  0  0  3  0  0  0  0  0  0
  -21.2120   -5.0630   25.0240 C   0  0  0  0  0  0  0  0  0  0  0  0
  -21.7930   -4.3730   23.9450 C   0  0  0  0  0  3  0  0  0  0  0  0
  -22.0500   -5.0450   22.7390 C   0  0  0  0  0  0  0  0  0  0  0  0
  -22.5900   -4.3700   21.6960 F   0  0  0  0  0  0  0  0  0  0  0  0
  -20.9610   -4.4130   26.1840 F   0  0  0  0  0  0  0  0  0  0  0  0
  -23.1470  -13.6370   21.0450 C   0  0  0  0  0  0  0  0  0  0  0  0
  -22.4790  -12.9640   21.9760 N   0  0  0  0  0  0  0  0  0  0  0  0
  -22.6880  -14.6660   20.5520 O   0  0  0  0  0  0  0  0  0  0  0  0
  -22.8650  -12.1330   22.3980 H   0  0  0  0  0  0  0  0  0  0  0  0
  -21.5700  -13.2880   22.2730 H   0  0  0  0  0  0  0  0  0  0  0  0
  -25.7490  -15.2460   20.0410 N   0  0  0  0  0  0  0  0  0  0  0  0
  -25.0120  -15.9190   20.2180 H   0  0  0  0  0  0  0  0  0  0  0  0
  -26.5860  -15.6710   19.6640 H   0  0  0  0  0  0  0  0  0  0  0  0
  -28.7470  -25.7080   20.6930 C   0  0  0  0  0  2  0  0  0  0  0  0
  -28.6960  -26.9460   19.9610 O   0  0  0  0  0  0  0  0  0  0  0  0
  -24.6010  -31.7930   23.1910 C   0  0  0  0  0  0  0  0  0  0  0  0
  -27.4910  -27.6080   19.9910 C   0  0  0  0  0  0  0  0  0  0  0  0
  -23.4870  -30.4020   21.4750 C   0  0  0  0  0  3  0  0  0  0  0  0
  -25.0300  -28.9870   20.0220 C   0  0  0  0  0  0  0  0  0  0  0  0
  -25.9930  -30.8850   21.3350 C   0  0  0  0  0  2  0  0  0  0  0  0
  -26.1520  -29.5440   20.6490 C   0  0  0  0  0  0  0  0  0  0  0  0
  -27.3860  -28.8600   20.6320 C   0  0  0  0  0  3  0  0  0  0  0  0
  -26.3560  -27.0650   19.3520 C   0  0  0  0  0  3  0  0  0  0  0  0
  -25.1260  -27.7460   19.3710 C   0  0  0  0  0  3  0  0  0  0  0  0
  -23.7480  -29.7860   20.0760 C   0  0  0  0  0  2  0  0  0  0  0  0
  -24.7110  -31.0390   22.0600 N   0  0  0  0  0  0  0  0  0  0  0  0
  -23.5010  -31.9940   23.7240 O   0  0  0  0  0  0  0  0  0  0  0  0
  -22.8700  -29.3150   22.3850 C   0  0  0  0  0  0  0  0  0  0  0  0
  -21.5550  -29.0860   22.2360 N   0  0  0  0  0  0  0  0  0  0  0  0
  -23.5710  -28.6820   23.1780 O   0  0  0  0  0  0  0  0  0  0  0  0
  -21.0490  -29.6520   21.5700 H   0  0  0  0  0  0  0  0  0  0  0  0
  -18.2230  -27.7580   22.6640 C   0  0  0  0  0  0  0  0  0  0  0  0
  -20.7700  -28.0840   22.9570 C   0  0  0  0  0  3  0  0  0  0  0  0
  -20.9200  -26.6880   22.3090 C   0  0  0  0  0  2  0  0  0  0  0  0
  -19.8310  -26.3810   21.2780 C   0  0  0  0  0  2  0  0  0  0  0  0
  -18.4430  -26.4490   21.9230 C   0  0  0  0  0  2  0  0  0  0  0  0
  -19.3160  -28.5330   23.1340 C   0  0  0  0  0  0  0  0  0  0  0  0
  -19.0560  -29.7590   23.7840 C   0  0  0  0  0  3  0  0  0  0  0  0
  -17.7360  -30.2100   23.9700 C   0  0  0  0  0  3  0  0  0  0  0  0
  -16.6570  -29.4320   23.5150 C   0  0  0  0  0  3  0  0  0  0  0  0
  -16.9020  -28.2070   22.8680 C   0  0  0  0  0  3  0  0  0  0  0  0
  -25.8490  -32.4570   23.8560 C   0  0  0  0  0  3  0  0  0  0  0  0
  -26.3420  -31.6970   25.1480 C   0  0  1  0  0  0  0  0  0  0  0  0
  -25.2210  -31.4260   26.1770 C   0  0  0  0  0  1  0  0  0  0  0  0
  -26.9780  -30.3380   24.7740 C   0  0  0  0  0  1  0  0  0  0  0  0
  -27.4470  -32.5220   25.8510 C   0  0  0  0  0  1  0  0  0  0  0  0
  -25.4940  -33.8470   24.1720 N   0  0  0  0  0  0  0  0  0  0  0  0
  -25.8230  -34.9050   23.4190 C   0  0  0  0  0  0  0  0  0  0  0  0
  -26.5280  -34.8150   22.4100 O   0  0  0  0  0  0  0  0  0  0  0  0
  -24.8710  -33.9900   24.9540 H   0  0  0  0  0  0  0  0  0  0  0  0
  -24.0590  -36.6460   22.9990 C   0  0  0  0  0  1  0  0  0  0  0  0
  -25.2850  -36.2810   23.8520 C   0  0  0  0  0  3  0  0  0  0  0  0
  -27.3660  -37.2260   24.7490 C   0  0  0  0  0  1  0  0  0  0  0  0
  -26.2930  -37.3610   23.7670 N   0  0  0  0  0  0  0  0  0  0  0  0
  -25.8580  -38.2700   23.8970 H   0  0  0  0  0  0  0  0  0  0  0  0
  1  5  1  0
  1 54  1  0
  2  4  1  0
  3  5  1  0
  3  2  1  0
  4  7  1  0
  5  4  1  0
  6  1  2  0
  7  9  1  0
  8  7  2  0
 10 15  2  0
 11 12  1  0
 11 13  1  0
 12 14  1  0
 13 24  1  0
 13 10  1  0
 14  9  1  0
 14 10  1  0
 16 22  1  0
 16 24  1  0
 17 22  1  0
 18 19  1  0
 18 17  1  0
 20 19  1  0
 20 29  1  0
 20 21  1  0
 22 21  1  0
 23 16  2  0
 24 25  1  0
 26 27  2  0
 27 46  1  0
 28 27  1  0
 28 31  1  0
 29 30  1  0
 29 26  1  0
 30 28  2  0
 31 32  1  0
 32 33  2  0
 34 37  1  0
 34 33  1  0
 35 34  2  0
 36 35  1  0
 36 31  2  0
 37 38  1  0
 38 43  2  0
 38 39  1  0
 39 40  2  0
 40 41  1  0
 41 45  1  0
 42 41  2  0
 43 42  1  0
 44 43  1  0
 46 47  1  0
 47 50  1  0
 47 49  1  0
 48 46  2  0
 51 52  1  0
 51 26  1  0
 53 51  1  0
 55 57  1  0
 55 54  1  0
 56 67  2  0
 57 62  1  0
 58 66  1  0
 58 68  1  0
 59 65  1  0
 59 61  1  0
 60 66  1  0
 61 60  1  0
 62 61  2  0
 63 64  1  0
 63 57  2  0
 64 59  2  0
 65 58  1  0
 66 56  1  0
 68 70  2  0
 69 68  1  0
 71 69  1  0
 72 81  2  0
 72 77  1  0
 73 69  1  0
 73 77  1  0
 74 73  1  0
 75 76  1  0
 75 74  1  0
 76 72  1  0
 77 78  2  0
 78 79  1  0
 80 79  2  0
 81 80  1  0
 82 56  1  0
 82 87  1  0
 82 83  1  0
 83 86  1  1
 83 84  1  0
 85 83  1  0
 87 90  1  0
 88 92  1  0
 88 87  1  0
 89 88  2  0
 92 91  1  0
 94 92  1  0
 94 95  1  0
 94 93  1  0
M  ISO  4  16 100  24 100  54 101  55 101
M  END
>  <TORSDO>  (52) 
F 20

>  <SCORE>  (52) 
-11.921

>  <name>  (52) 
51

>  <ligand_id>  (52) 
51

>  <original_smiles>  (52) 
[H]c1c([H])c([H])c2c(c1[H])C([H])([H])C([H])([H])C([H])([H])C2([H])N([H])C(=O)C1([H])N(C(=O)C([H])(N([H])C(=O)C([H])(N([H])C([H])([H])[H])C([H])([H])[H])C(C([H])([H])[H])(C([H])([H])[H])C([H])([H])[H])C([H])([H])c2c([H])c(OC([H])([H])C(=O)N3C([H])([H])C([H])([H])C3([H])C(=O)C([H])([H])N3C(=O)C([H])(N([H])C(=O)N4C([H])([H])C([H])([H])C([H])([H])C([H])(n5nc(-c6c([H])c([H])c(Oc7c([H])c([H])c(F)c([H])c7F)c([H])c6[H])c(C(=O)N([H])[H])c5N([H])[H])C4([H])[H])C([H])([H])C3([H])[H])c([H])c([H])c2C1([H])[H]

>  <smiles>  (52) 
[H]c1c([H])c([H])c2c(c1[H])C([H])([H])C([H])([H])C([H])([H])C2([H])N([H])C(=O)C1([H])N(C(=O)C([H])(N([H])C(=O)C([H])(N([H])C([H])([H])[H])C([H])([H])[H])C(C([H])([H])[H])(C([H])([H])[H])C([H])([H])[H])C([H])([H])c2c([H])c(OC([H])([H])C(=O)N3C([H])([H])C([H])([H])C3([H])C(=O)C([H])([H])N3C(=O)C([H])(N([H])C(=O)N4C([H])([H])C([H])([H])C([H])([H])C([H])(n5nc(-c6c([H])c([H])c(Oc7c([H])c([H])c(F)c([H])c7F)c([H])c6[H])c(C(=O)N([H])[H])c5N([H])[H])C4([H])[H])C([H])([H])C3([H])[H])c([H])c([H])c2C1([H])[H]

$$$$
52:0:0
     RDKit          3D

 96105  0  0  1  0  0  0  0  0999 V2000
  -29.7180  -21.3170   21.4930 C   0  0  0  0  0  3  0  0  0  0  0  0
  -29.3190  -22.7040   21.6040 C   0  0  0  0  0  3  0  0  0  0  0  0
  -29.4510  -20.4910   20.3490 C   0  0  0  0  0  0  0  0  0  0  0  0
  -28.6110  -23.4320   20.5920 C   0  0  0  0  0  0  0  0  0  0  0  0
  -28.7230  -21.2180   19.3430 C   0  0  0  0  0  0  0  0  0  0  0  0
  -28.3220  -22.6100   19.4560 C   0  0  0  0  0  0  0  0  0  0  0  0
  -28.4160  -20.5710   18.1950 F   0  0  0  0  0  0  0  0  0  0  0  0
  -27.6010  -23.1520   18.4440 F   0  0  0  0  0  0  0  0  0  0  0  0
  -31.8250  -17.7010   20.4820 C   0  0  0  0  0  2  0  0  0  0  0  0
  -30.1110  -19.0100   20.0780 C   0  0  0  0  0  3  0  0  0  0  0  0
  -30.3560  -17.5590   20.9030 C   0  0  0  0  0  3  0  0  0  0  0  0
  -31.6550  -19.1930   20.2860 C   0  0  0  0  0  3  0  0  0  0  0  0
  -30.5900  -14.8810   20.3650 C   0  0  0  0  0  0  0  0  0  0  0  0
  -30.3760  -12.5790   19.3640 C   0  0  0  0  0  2  0  0  0  0  0  0
  -29.4440  -12.5970   18.1350 C   0  0  0  0  0  2  0  0  0  0  0  0
  -27.9800  -12.4010   18.5700 C   0  0  0  0  0  2  0  0  0  0  0  0
  -27.5920  -13.3040   19.7730 C   0  0  0  0  0  3  0  0  0  0  0  0
  -28.6540  -13.2830   20.8920 C   0  0  0  0  0  2  0  0  0  0  0  0
  -29.9270  -13.6670   20.2720 N   0  0  0  0  0  0  0  0  0  0  0  0
  -31.7990  -14.8730   20.1240 O   0  0  0  0  0  0  0  0  0  0  0  0
  -29.8890  -16.1020   20.5260 N   0  0  0  0  0  0  0  0  0  0  0  0
  -28.8870  -15.9720   20.5820 H   0  0  0  0  0  0  0  0  0  0  0  0
  -25.2080  -13.8710   20.5120 C   0  0  0  0  0  0  0  0  0  0  0  0
  -24.1510  -13.0900   20.8840 C   0  0  0  0  0  0  0  0  0  0  0  0
  -24.6240  -11.7410   20.8540 C   0  0  0  0  0  0  0  0  0  0  0  0
  -26.2570  -13.0000   20.2730 N   0  0  0  0  0  0  0  0  0  0  0  0
  -25.9160  -11.7140   20.5470 N   0  0  0  0  0  0  0  0  0  0  0  0
  -23.9050  -10.4750   21.0440 C   0  0  0  0  0  0  0  0  0  0  0  0
  -24.3430   -9.5080   21.9760 C   0  0  0  0  0  3  0  0  0  0  0  0
  -23.6220   -8.3060   22.1540 C   0  0  0  0  0  3  0  0  0  0  0  0
  -22.4500   -8.0630   21.3980 C   0  0  0  0  0  0  0  0  0  0  0  0
  -22.0320   -9.0180   20.4530 C   0  0  0  0  0  3  0  0  0  0  0  0
  -22.7530  -10.2100   20.2740 C   0  0  0  0  0  3  0  0  0  0  0  0
  -21.7000   -6.9160   21.4870 O   0  0  0  0  0  0  0  0  0  0  0  0
  -21.6560   -6.1720   22.6380 C   0  0  0  0  0  0  0  0  0  0  0  0
  -21.2270   -6.7220   23.8670 C   0  0  0  0  0  3  0  0  0  0  0  0
  -21.1310   -5.9030   25.0090 C   0  0  0  0  0  3  0  0  0  0  0  0
  -21.4540   -4.5360   24.9270 C   0  0  0  0  0  0  0  0  0  0  0  0
  -21.8760   -3.9850   23.7040 C   0  0  0  0  0  3  0  0  0  0  0  0
  -21.9750   -4.8000   22.5630 C   0  0  0  0  0  0  0  0  0  0  0  0
  -22.3620   -4.2590   21.3810 F   0  0  0  0  0  0  0  0  0  0  0  0
  -21.3540   -3.7470   26.0220 F   0  0  0  0  0  0  0  0  0  0  0  0
  -22.7500  -13.5580   21.1520 C   0  0  0  0  0  0  0  0  0  0  0  0
  -22.0230  -12.8540   22.0130 N   0  0  0  0  0  0  0  0  0  0  0  0
  -22.3080  -14.5830   20.6330 O   0  0  0  0  0  0  0  0  0  0  0  0
  -22.3960  -12.0270   22.4540 H   0  0  0  0  0  0  0  0  0  0  0  0
  -21.0820  -13.1460   22.2370 H   0  0  0  0  0  0  0  0  0  0  0  0
  -25.3620  -15.2420   20.3280 N   0  0  0  0  0  0  0  0  0  0  0  0
  -24.5850  -15.8880   20.4140 H   0  0  0  0  0  0  0  0  0  0  0  0
  -26.2010  -15.6800   19.9710 H   0  0  0  0  0  0  0  0  0  0  0  0
  -32.2140  -21.1560   18.8390 C   0  0  0  0  0  1  0  0  0  0  0  0
  -33.9390  -19.5330   19.4190 C   0  0  0  0  0  1  0  0  0  0  0  0
  -32.4890  -19.7410   19.1680 N   0  0  1  0  0  4  0  0  0  0  0  0
  -32.2790  -19.2210   18.3280 H   0  0  0  0  0  0  0  0  0  0  0  0
  -27.9230  -24.8870   20.8800 C   0  0  0  0  0  2  0  0  0  0  0  0
  -28.2720  -26.2630   20.3040 O   0  0  0  0  0  0  0  0  0  0  0  0
  -24.6080  -31.9060   23.2350 C   0  0  0  0  0  0  0  0  0  0  0  0
  -27.2190  -27.2300   20.2540 C   0  0  0  0  0  0  0  0  0  0  0  0
  -23.4180  -30.4970   21.5970 C   0  0  0  0  0  3  0  0  0  0  0  0
  -24.8770  -28.9250   20.1920 C   0  0  0  0  0  0  0  0  0  0  0  0
  -25.9680  -30.7880   21.4350 C   0  0  0  0  0  2  0  0  0  0  0  0
  -26.0510  -29.3920   20.8020 C   0  0  0  0  0  0  0  0  0  0  0  0
  -27.2270  -28.5610   20.8170 C   0  0  0  0  0  3  0  0  0  0  0  0
  -26.0260  -26.8530   19.6000 C   0  0  0  0  0  3  0  0  0  0  0  0
  -24.8740  -27.6630   19.5770 C   0  0  0  0  0  3  0  0  0  0  0  0
  -23.6440  -29.8110   20.2240 C   0  0  0  0  0  2  0  0  0  0  0  0
  -24.6850  -31.0860   22.1440 N   0  0  0  0  0  0  0  0  0  0  0  0
  -23.5200  -32.1860   23.7630 O   0  0  0  0  0  0  0  0  0  0  0  0
  -22.7420  -29.4920   22.5640 C   0  0  0  0  0  0  0  0  0  0  0  0
  -21.4140  -29.3210   22.4370 N   0  0  0  0  0  0  0  0  0  0  0  0
  -23.4140  -28.8700   23.3890 O   0  0  0  0  0  0  0  0  0  0  0  0
  -20.9290  -29.8730   21.7440 H   0  0  0  0  0  0  0  0  0  0  0  0
  -18.0310  -28.1370   22.9520 C   0  0  0  0  0  0  0  0  0  0  0  0
  -20.5910  -28.3890   23.2130 C   0  0  0  0  0  3  0  0  0  0  0  0
  -20.6860  -26.9550   22.6420 C   0  0  0  0  0  2  0  0  0  0  0  0
  -19.5810  -26.6350   21.6310 C   0  0  0  0  0  2  0  0  0  0  0  0
  -18.2000  -26.7880   22.2740 C   0  0  0  0  0  2  0  0  0  0  0  0
  -19.1530  -28.8970   23.3780 C   0  0  0  0  0  0  0  0  0  0  0  0
  -18.9390  -30.1610   23.9700 C   0  0  0  0  0  3  0  0  0  0  0  0
  -17.6370  -30.6650   24.1380 C   0  0  0  0  0  3  0  0  0  0  0  0
  -16.5290  -29.9040   23.7280 C   0  0  0  0  0  3  0  0  0  0  0  0
  -16.7270  -28.6410   23.1420 C   0  0  0  0  0  3  0  0  0  0  0  0
  -25.8830  -32.5470   23.8640 C   0  0  0  0  0  3  0  0  0  0  0  0
  -26.3910  -31.7890   25.1510 C   0  0  1  0  0  0  0  0  0  0  0  0
  -25.2900  -31.5640   26.2150 C   0  0  0  0  0  1  0  0  0  0  0  0
  -26.9740  -30.4100   24.7760 C   0  0  0  0  0  1  0  0  0  0  0  0
  -27.5420  -32.5860   25.8090 C   0  0  0  0  0  1  0  0  0  0  0  0
  -25.5710  -33.9490   24.1850 N   0  0  0  0  0  0  0  0  0  0  0  0
  -25.9080  -35.0000   23.4240 C   0  0  0  0  0  0  0  0  0  0  0  0
  -26.5830  -34.8920   22.3970 O   0  0  0  0  0  0  0  0  0  0  0  0
  -24.9780  -34.1090   24.9860 H   0  0  0  0  0  0  0  0  0  0  0  0
  -24.1880  -36.7950   23.0460 C   0  0  0  0  0  1  0  0  0  0  0  0
  -25.4190  -36.3910   23.8730 C   0  0  0  0  0  3  0  0  0  0  0  0
  -27.5470  -37.2700   24.7240 C   0  0  0  0  0  1  0  0  0  0  0  0
  -26.4540  -37.4420   23.7690 N   0  0  0  0  0  0  0  0  0  0  0  0
  -26.0490  -38.3610   23.9170 H   0  0  0  0  0  0  0  0  0  0  0  0
  1  2  1  0
  3  1  2  0
  4 55  1  0
  4  2  2  0
  5  6  2  0
  5  3  1  0
  6  4  1  0
  7  5  1  0
  8  6  1  0
  9 11  1  0
 10 12  1  0
 10  3  1  0
 10 11  1  0
 11 21  1  0
 12 53  1  0
 12  9  1  0
 13 21  1  0
 14 19  1  0
 15 16  1  0
 15 14  1  0
 17 16  1  0
 17 26  1  0
 17 18  1  0
 19 13  1  0
 19 18  1  0
 20 13  2  0
 21 22  1  0
 23 24  2  0
 24 43  1  0
 25 24  1  0
 25 28  1  0
 26 23  1  0
 26 27  1  0
 27 25  2  0
 28 29  1  0
 29 30  2  0
 31 34  1  0
 31 30  1  0
 32 31  2  0
 33 32  1  0
 33 28  2  0
 34 35  1  0
 35 36  1  0
 36 37  2  0
 38 37  1  0
 38 42  1  0
 39 38  2  0
 40 35  2  0
 40 39  1  0
 41 40  1  0
 43 44  1  0
 44 47  1  0
 44 46  1  0
 45 43  2  0
 48 49  1  0
 48 23  1  0
 50 48  1  0
 51 53  1  0
 53 52  1  0
 53 54  1  6
 56 55  1  0
 57 68  2  0
 58 56  1  0
 58 63  1  0
 59 67  1  0
 59 69  1  0
 60 66  1  0
 60 62  1  0
 61 67  1  0
 62 63  2  0
 62 61  1  0
 64 58  2  0
 65 64  1  0
 65 60  2  0
 66 59  1  0
 67 57  1  0
 69 71  2  0
 70 69  1  0
 72 70  1  0
 73 82  2  0
 73 78  1  0
 74 70  1  0
 74 78  1  0
 75 74  1  0
 76 77  1  0
 76 75  1  0
 77 73  1  0
 78 79  2  0
 79 80  1  0
 81 80  2  0
 82 81  1  0
 83 57  1  0
 83 88  1  0
 83 84  1  0
 84 87  1  1
 84 85  1  0
 86 84  1  0
 88 91  1  0
 89 93  1  0
 89 88  1  0
 90 89  2  0
 93 92  1  0
 95 93  1  0
 95 96  1  0
 95 94  1  0
M  ISO  4  13 100  21 100  55 101  56 101
M  END
>  <TORSDO>  (53) 
F 19

>  <SCORE>  (53) 
-14.629

>  <name>  (53) 
52

>  <ligand_id>  (53) 
52

>  <original_smiles>  (53) 
[H]c1c([H])c([H])c2c(c1[H])C([H])([H])C([H])([H])C([H])([H])C2([H])N([H])C(=O)C1([H])N(C(=O)C([H])(N([H])C(=O)C([H])(N([H])C([H])([H])[H])C([H])([H])[H])C(C([H])([H])[H])(C([H])([H])[H])C([H])([H])[H])C([H])([H])c2c([H])c(OC([H])([H])c3c([H])c([H])c(C4([H])C([H])(N([H])C(=O)N5C([H])([H])C([H])([H])C([H])([H])C([H])(n6nc(-c7c([H])c([H])c(Oc8c([H])c([H])c(F)c([H])c8F)c([H])c7[H])c(C(=O)N([H])[H])c6N([H])[H])C5([H])[H])C([H])([H])C4([H])[N+]([H])(C([H])([H])[H])C([H])([H])[H])c(F)c3F)c([H])c([H])c2C1([H])[H]

>  <smiles>  (53) 
[H]c1c([H])c([H])c2c(c1[H])C([H])([H])C([H])([H])C([H])([H])C2([H])N([H])C(=O)C1([H])N(C(=O)C([H])(N([H])C(=O)C([H])(N([H])C([H])([H])[H])C([H])([H])[H])C(C([H])([H])[H])(C([H])([H])[H])C([H])([H])[H])C([H])([H])c2c([H])c(OC([H])([H])c3c([H])c([H])c(C4([H])C([H])(N([H])C(=O)N5C([H])([H])C([H])([H])C([H])([H])C([H])(n6nc(-c7c([H])c([H])c(Oc8c([H])c([H])c(F)c([H])c8F)c([H])c7[H])c(C(=O)N([H])[H])c6N([H])[H])C5([H])[H])C([H])([H])C4([H])[N+]([H])(C([H])([H])[H])C([H])([H])[H])c(F)c3F)c([H])c([H])c2C1([H])[H]

$$$$
53:0:0
     RDKit          3D

106115  0  0  1  0  0  0  0  0999 V2000
  -29.4560  -22.5430   23.3810 C   0  0  0  0  0  3  0  0  0  0  0  0
  -28.8350  -23.5610   24.1210 C   0  0  0  0  0  3  0  0  0  0  0  0
  -28.5300  -24.8480   22.0790 C   0  0  0  0  0  3  0  0  0  0  0  0
  -29.6130  -22.6510   21.9790 C   0  0  0  0  0  0  0  0  0  0  0  0
  -28.3610  -24.7150   23.4720 C   0  0  0  0  0  0  0  0  0  0  0  0
  -29.1670  -23.8360   21.3150 C   0  0  0  0  0  0  0  0  0  0  0  0
  -30.1500  -21.4540   21.2280 C   0  0  0  0  0  0  0  0  0  0  0  0
  -31.4410  -21.1540   21.4470 N   0  0  0  0  0  0  0  0  0  0  0  0
  -29.4290  -20.8350   20.4400 O   0  0  0  0  0  0  0  0  0  0  0  0
  -31.9590  -21.8260   21.9960 H   0  0  0  0  0  0  0  0  0  0  0  0
  -34.2240  -19.1800   19.9470 C   0  0  0  0  0  3  0  0  0  0  0  0
  -33.4740  -20.2540   20.4630 C   0  0  0  0  0  3  0  0  0  0  0  0
  -33.6760  -17.8830   19.9130 C   0  0  0  0  0  3  0  0  0  0  0  0
  -31.6290  -18.7260   20.9360 C   0  0  0  0  0  3  0  0  0  0  0  0
  -32.1630  -20.0390   20.9390 C   0  0  0  0  0  0  0  0  0  0  0  0
  -32.3700  -17.6500   20.4010 C   0  0  0  0  0  0  0  0  0  0  0  0
  -32.2250  -15.2890   19.7070 C   0  0  0  0  0  0  0  0  0  0  0  0
  -32.1010  -12.8390   19.4590 C   0  0  0  0  0  2  0  0  0  0  0  0
  -31.1410  -12.3970   18.3420 C   0  0  0  0  0  2  0  0  0  0  0  0
  -29.7070  -12.2710   18.8850 C   0  0  0  0  0  2  0  0  0  0  0  0
  -29.2600  -13.5310   19.6690 C   0  0  0  0  0  3  0  0  0  0  0  0
  -30.3270  -13.9520   20.7040 C   0  0  0  0  0  2  0  0  0  0  0  0
  -31.6220  -14.1120   20.0160 N   0  0  0  0  0  0  0  0  0  0  0  0
  -33.1440  -15.3780   18.8870 O   0  0  0  0  0  0  0  0  0  0  0  0
  -31.8010  -16.3490   20.4120 N   0  0  0  0  0  0  0  0  0  0  0  0
  -30.9810  -16.2080   20.9810 H   0  0  0  0  0  0  0  0  0  0  0  0
  -27.0990  -14.2610   20.8660 C   0  0  0  0  0  0  0  0  0  0  0  0
  -25.9770  -13.5680   21.2320 C   0  0  0  0  0  0  0  0  0  0  0  0
  -26.2060  -12.2130   20.8430 C   0  0  0  0  0  0  0  0  0  0  0  0
  -27.9520  -13.3320   20.2930 N   0  0  0  0  0  0  0  0  0  0  0  0
  -27.4230  -12.0810   20.3290 N   0  0  0  0  0  0  0  0  0  0  0  0
  -25.3180  -11.0420   20.8780 C   0  0  0  0  0  0  0  0  0  0  0  0
  -25.6000   -9.9240   21.6930 C   0  0  0  0  0  3  0  0  0  0  0  0
  -24.7210   -8.8200   21.7220 C   0  0  0  0  0  3  0  0  0  0  0  0
  -23.5450   -8.8290   20.9370 C   0  0  0  0  0  0  0  0  0  0  0  0
  -23.2800   -9.9350   20.1100 C   0  0  0  0  0  3  0  0  0  0  0  0
  -24.1580  -11.0310   20.0770 C   0  0  0  0  0  3  0  0  0  0  0  0
  -22.6460   -7.7910   20.8820 O   0  0  0  0  0  0  0  0  0  0  0  0
  -22.2710   -7.1030   22.0090 C   0  0  0  0  0  0  0  0  0  0  0  0
  -21.6610   -7.7480   23.1070 C   0  0  0  0  0  3  0  0  0  0  0  0
  -21.2280   -6.9920   24.2150 C   0  0  0  0  0  3  0  0  0  0  0  0
  -21.3990   -5.5940   24.2240 C   0  0  0  0  0  0  0  0  0  0  0  0
  -22.0010   -4.9500   23.1290 C   0  0  0  0  0  3  0  0  0  0  0  0
  -22.4330   -5.7040   22.0240 C   0  0  0  0  0  0  0  0  0  0  0  0
  -22.9940   -5.0750   20.9630 F   0  0  0  0  0  0  0  0  0  0  0  0
  -20.9770   -4.8680   25.2850 F   0  0  0  0  0  0  0  0  0  0  0  0
  -24.7210  -14.1420   21.8240 C   0  0  0  0  0  0  0  0  0  0  0  0
  -24.0640  -13.3960   22.7060 N   0  0  0  0  0  0  0  0  0  0  0  0
  -24.3410  -15.2780   21.5430 O   0  0  0  0  0  0  0  0  0  0  0  0
  -24.3870  -12.4720   22.9500 H   0  0  0  0  0  0  0  0  0  0  0  0
  -23.2270  -13.7530   23.1430 H   0  0  0  0  0  0  0  0  0  0  0  0
  -27.4600  -15.6030   20.9560 N   0  0  0  0  0  0  0  0  0  0  0  0
  -26.8380  -16.3170   21.3190 H   0  0  0  0  0  0  0  0  0  0  0  0
  -28.3340  -15.9800   20.6080 H   0  0  0  0  0  0  0  0  0  0  0  0
  -27.6500  -25.7990   24.2700 C   0  0  0  0  0  2  0  0  0  0  0  0
  -28.0880  -28.1790   23.8030 C   0  0  0  0  0  1  0  0  0  0  0  0
  -28.7590  -27.2280   25.9660 C   0  0  0  0  0  1  0  0  0  0  0  0
  -28.5320  -26.9650   24.5250 N   0  0  1  0  0  4  0  0  0  0  0  0
  -29.4310  -26.7240   24.1380 H   0  0  0  0  0  0  0  0  0  0  0  0
  -29.3340  -23.9870   19.7920 C   0  0  0  0  0  2  0  0  0  0  0  0
  -28.8650  -25.2530   17.7700 C   0  0  0  0  0  1  0  0  0  0  0  0
  -29.2010  -25.3550   19.2160 N   0  0  2  0  0  4  0  0  0  0  0  0
  -28.3960  -25.7630   19.6660 H   0  0  0  0  0  0  0  0  0  0  0  0
  -30.3860  -26.2370   19.4570 C   0  0  0  0  0  2  0  0  0  0  0  0
  -30.0430  -27.7410   19.5780 C   0  0  0  0  0  2  0  0  0  0  0  0
  -29.0980  -28.1290   18.5830 O   0  0  0  0  0  0  0  0  0  0  0  0
  -25.2660  -31.0520   23.8360 C   0  0  0  0  0  0  0  0  0  0  0  0
  -27.8730  -28.5130   19.0660 C   0  0  0  0  0  0  0  0  0  0  0  0
  -23.9840  -29.8920   22.0680 C   0  0  0  0  0  3  0  0  0  0  0  0
  -25.3100  -29.2430   19.9880 C   0  0  0  0  0  0  0  0  0  0  0  0
  -26.2560  -30.9450   21.5550 C   0  0  0  0  0  2  0  0  0  0  0  0
  -26.4480  -29.8730   20.5070 C   0  0  0  0  0  0  0  0  0  0  0  0
  -27.7350  -29.5100   20.0550 C   0  0  0  0  0  3  0  0  0  0  0  0
  -26.7210  -27.8960   18.5380 C   0  0  0  0  0  3  0  0  0  0  0  0
  -25.4390  -28.2460   19.0050 C   0  0  0  0  0  3  0  0  0  0  0  0
  -23.9720  -29.6990   20.5280 C   0  0  0  0  0  2  0  0  0  0  0  0
  -25.1980  -30.6310   22.5420 N   0  0  0  0  0  0  0  0  0  0  0  0
  -24.3250  -30.8670   24.6200 O   0  0  0  0  0  0  0  0  0  0  0  0
  -23.8070  -28.5110   22.7380 C   0  0  0  0  0  0  0  0  0  0  0  0
  -22.7020  -27.8240   22.4120 N   0  0  0  0  0  0  0  0  0  0  0  0
  -24.6650  -28.0690   23.5090 O   0  0  0  0  0  0  0  0  0  0  0  0
  -22.0430  -28.2570   21.7790 H   0  0  0  0  0  0  0  0  0  0  0  0
  -20.4080  -25.0750   21.9260 C   0  0  0  0  0  0  0  0  0  0  0  0
  -22.3430  -26.4900   22.8930 C   0  0  0  0  0  3  0  0  0  0  0  0
  -23.2880  -25.4140   22.3090 C   0  0  0  0  0  2  0  0  0  0  0  0
  -22.7560  -24.7790   21.0210 C   0  0  0  0  0  2  0  0  0  0  0  0
  -21.3940  -24.1220   21.2680 C   0  0  0  0  0  2  0  0  0  0  0  0
  -20.8550  -26.1960   22.6760 C   0  0  0  0  0  0  0  0  0  0  0  0
  -19.8990  -27.0690   23.2360 C   0  0  0  0  0  3  0  0  0  0  0  0
  -18.5200  -26.8390   23.0600 C   0  0  0  0  0  3  0  0  0  0  0  0
  -18.0840  -25.7180   22.3320 C   0  0  0  0  0  3  0  0  0  0  0  0
  -19.0260  -24.8380   21.7690 C   0  0  0  0  0  3  0  0  0  0  0  0
  -26.5170  -31.8040   24.3860 C   0  0  0  0  0  3  0  0  0  0  0  0
  -26.1360  -33.2050   24.5980 N   0  0  0  0  0  0  0  0  0  0  0  0
  -26.4760  -34.2150   23.7880 C   0  0  0  0  0  0  0  0  0  0  0  0
  -27.2180  -34.0720   22.8110 O   0  0  0  0  0  0  0  0  0  0  0  0
  -25.4940  -33.3920   25.3560 H   0  0  0  0  0  0  0  0  0  0  0  0
  -24.7330  -35.9130   23.1650 C   0  0  0  0  0  1  0  0  0  0  0  0
  -25.9020  -35.6070   24.1130 C   0  0  0  0  0  3  0  0  0  0  0  0
  -27.9610  -36.5770   25.0360 C   0  0  0  0  0  1  0  0  0  0  0  0
  -26.9010  -36.6950   24.0360 N   0  0  0  0  0  0  0  0  0  0  0  0
  -26.4540  -37.5990   24.1590 H   0  0  0  0  0  0  0  0  0  0  0  0
  -27.0860  -31.1730   25.7150 C   0  0  1  0  0  0  0  0  0  0  0  0
  -25.9990  -30.8460   26.7650 C   0  0  0  0  0  1  0  0  0  0  0  0
  -27.8580  -29.8690   25.4090 C   0  0  0  0  0  1  0  0  0  0  0  0
  -28.1020  -32.1440   26.3620 C   0  0  0  0  0  1  0  0  0  0  0  0
  1  2  1  0
  3  5  1  0
  4  1  2  0
  5  2  2  0
  5 55  1  0
  6  4  1  0
  6  3  2  0
  7  8  1  0
  7  4  1  0
  8 10  1  0
  9  7  2  0
 11 12  1  0
 12 15  2  0
 13 11  2  0
 13 16  1  0
 14 15  1  0
 15  8  1  0
 16 25  1  0
 16 14  2  0
 17 23  1  0
 17 25  1  0
 18 23  1  0
 19 20  1  0
 19 18  1  0
 21 20  1  0
 21 30  1  0
 21 22  1  0
 23 22  1  0
 24 17  2  0
 25 26  1  0
 27 52  1  0
 27 28  2  0
 28 47  1  0
 29 32  1  0
 29 28  1  0
 30 31  1  0
 30 27  1  0
 31 29  2  0
 32 33  1  0
 33 34  2  0
 35 34  1  0
 36 35  2  0
 37 36  1  0
 37 32  2  0
 38 35  1  0
 38 39  1  0
 39 44  2  0
 39 40  1  0
 40 41  2  0
 41 42  1  0
 42 46  1  0
 43 42  2  0
 44 43  1  0
 45 44  1  0
 47 48  1  0
 48 50  1  0
 48 51  1  0
 49 47  2  0
 52 53  1  0
 54 52  1  0
 55 58  1  0
 56 58  1  0
 58 57  1  0
 58 59  1  6
 60  6  1  0
 61 62  1  0
 62 64  1  0
 62 63  1  1
 62 60  1  0
 64 65  1  0
 66 68  1  0
 66 65  1  0
 67 78  2  0
 68 73  1  0
 69 77  1  0
 69 79  1  0
 70 72  1  0
 70 76  1  0
 71 77  1  0
 72 71  1  0
 73 72  2  0
 74 75  1  0
 74 68  2  0
 75 70  2  0
 76 69  1  0
 77 67  1  0
 79 81  2  0
 80 79  1  0
 82 80  1  0
 83 88  1  0
 84 80  1  0
 85 84  1  0
 86 87  1  0
 86 85  1  0
 87 83  1  0
 88 84  1  0
 88 89  2  0
 90 89  1  0
 91 90  2  0
 92 83  2  0
 92 91  1  0
 93 67  1  0
 93 94  1  0
 93103  1  0
 94 97  1  0
 95 99  1  0
 95 94  1  0
 96 95  2  0
 99 98  1  0
101 99  1  0
101102  1  0
101100  1  0
103106  1  1
103104  1  0
105103  1  0
M  ISO  4  17 100  25 100  65 101  66 101
M  END
>  <TORSDO>  (54) 
F 24

>  <SCORE>  (54) 
-3.077

>  <name>  (54) 
53

>  <ligand_id>  (54) 
53

>  <original_smiles>  (54) 
[H]c1c([H])c(N([H])C(=O)c2c([H])c([H])c(C([H])([H])[N+]([H])(C([H])([H])[H])C([H])([H])[H])c([H])c2C([H])([H])[N+]([H])(C([H])([H])[H])C([H])([H])C([H])([H])Oc2c([H])c([H])c3c(c2[H])C([H])([H])N(C(=O)C([H])(N([H])C(=O)C([H])(N([H])C([H])([H])[H])C([H])([H])[H])C(C([H])([H])[H])(C([H])([H])[H])C([H])([H])[H])C([H])(C(=O)N([H])C2([H])c4c([H])c([H])c([H])c([H])c4C([H])([H])C([H])([H])C2([H])[H])C3([H])[H])c([H])c(N([H])C(=O)N2C([H])([H])C([H])([H])C([H])([H])C([H])(n3nc(-c4c([H])c([H])c(Oc5c([H])c([H])c(F)c([H])c5F)c([H])c4[H])c(C(=O)N([H])[H])c3N([H])[H])C2([H])[H])c1[H]

>  <smiles>  (54) 
[H]c1c([H])c(N([H])C(=O)c2c([H])c([H])c(C([H])([H])[N+]([H])(C([H])([H])[H])C([H])([H])[H])c([H])c2C([H])([H])[N+]([H])(C([H])([H])[H])C([H])([H])C([H])([H])Oc2c([H])c([H])c3c(c2[H])C([H])([H])N(C(=O)C([H])(N([H])C(=O)C([H])(N([H])C([H])([H])[H])C([H])([H])[H])C(C([H])([H])[H])(C([H])([H])[H])C([H])([H])[H])C([H])(C(=O)N([H])C2([H])c4c([H])c([H])c([H])c([H])c4C([H])([H])C([H])([H])C2([H])[H])C3([H])[H])c([H])c(N([H])C(=O)N2C([H])([H])C([H])([H])C([H])([H])C([H])(n3nc(-c4c([H])c([H])c(Oc5c([H])c([H])c(F)c([H])c5F)c([H])c4[H])c(C(=O)N([H])[H])c3N([H])[H])C2([H])[H])c1[H]

$$$$
54:0:0
     RDKit          3D

 97106  0  0  1  0  0  0  0  0999 V2000
  -28.8740  -24.6410   20.1920 C   0  0  0  0  0  0  0  0  0  0  0  0
  -26.2500  -22.3320   21.4260 C   0  0  0  0  0  2  0  0  0  0  0  0
  -26.5140  -21.8500   20.0070 C   0  0  0  0  0  2  0  0  0  0  0  0
  -26.9740  -23.6730   21.5000 C   0  0  0  0  0  2  0  0  0  0  0  0
  -27.9090  -22.4040   19.6600 C   0  0  0  0  0  3  0  0  0  0  0  0
  -28.0170  -23.6310   20.4730 N   0  0  0  0  0  0  0  0  0  0  0  0
  -29.7670  -24.5130   19.3480 O   0  0  0  0  0  0  0  0  0  0  0  0
  -28.9740  -21.3140   19.9190 C   0  0  0  0  0  0  0  0  0  0  0  0
  -29.1480  -20.4630   18.8960 N   0  0  0  0  0  0  0  0  0  0  0  0
  -29.5790  -21.2380   20.9910 O   0  0  0  0  0  0  0  0  0  0  0  0
  -28.6880  -20.7370   18.0380 H   0  0  0  0  0  0  0  0  0  0  0  0
  -31.3490  -17.8520   17.4560 C   0  0  0  0  0  3  0  0  0  0  0  0
  -30.6530  -19.0570   17.6460 C   0  0  0  0  0  3  0  0  0  0  0  0
  -31.2890  -16.8420   18.4340 C   0  0  0  0  0  3  0  0  0  0  0  0
  -29.8520  -18.2530   19.8140 C   0  0  0  0  0  3  0  0  0  0  0  0
  -29.9170  -19.2740   18.8270 C   0  0  0  0  0  0  0  0  0  0  0  0
  -30.5340  -17.0220   19.6240 C   0  0  0  0  0  0  0  0  0  0  0  0
  -31.1170  -14.8440   20.6340 C   0  0  0  0  0  0  0  0  0  0  0  0
  -30.8470  -12.6150   19.6810 C   0  0  0  0  0  2  0  0  0  0  0  0
  -30.0050  -12.7740   18.3990 C   0  0  0  0  0  2  0  0  0  0  0  0
  -28.5020  -12.6780   18.7260 C   0  0  0  0  0  2  0  0  0  0  0  0
  -28.0830  -13.6030   19.9030 C   0  0  0  0  0  3  0  0  0  0  0  0
  -29.0560  -13.4690   21.0980 C   0  0  0  0  0  2  0  0  0  0  0  0
  -30.4270  -13.6760   20.6070 N   0  0  0  0  0  0  0  0  0  0  0  0
  -32.3320  -14.9150   20.4410 O   0  0  0  0  0  0  0  0  0  0  0  0
  -30.3590  -15.9570   20.5750 N   0  0  0  0  0  0  0  0  0  0  0  0
  -29.4310  -15.8700   20.9600 H   0  0  0  0  0  0  0  0  0  0  0  0
  -25.6590  -14.2790   20.4600 C   0  0  0  0  0  0  0  0  0  0  0  0
  -24.5490  -13.5350   20.7630 C   0  0  0  0  0  0  0  0  0  0  0  0
  -24.9760  -12.1740   20.7770 C   0  0  0  0  0  0  0  0  0  0  0  0
  -26.6950  -13.3680   20.3030 N   0  0  0  0  0  0  0  0  0  0  0  0
  -26.2820  -12.1000   20.5540 N   0  0  0  0  0  0  0  0  0  0  0  0
  -24.2070  -10.9320   20.9270 C   0  0  0  0  0  0  0  0  0  0  0  0
  -24.5650   -9.9490   21.8790 C   0  0  0  0  0  3  0  0  0  0  0  0
  -23.7980   -8.7720   22.0170 C   0  0  0  0  0  3  0  0  0  0  0  0
  -22.6590   -8.5690   21.2030 C   0  0  0  0  0  0  0  0  0  0  0  0
  -22.3210   -9.5370   20.2410 C   0  0  0  0  0  3  0  0  0  0  0  0
  -23.0880  -10.7050   20.1020 C   0  0  0  0  0  3  0  0  0  0  0  0
  -21.8700   -7.4450   21.2480 O   0  0  0  0  0  0  0  0  0  0  0  0
  -21.7480   -6.6950   22.3900 C   0  0  0  0  0  0  0  0  0  0  0  0
  -21.2840   -7.2530   23.6020 C   0  0  0  0  0  3  0  0  0  0  0  0
  -21.1100   -6.4310   24.7350 C   0  0  0  0  0  3  0  0  0  0  0  0
  -21.3920   -5.0540   24.6560 C   0  0  0  0  0  0  0  0  0  0  0  0
  -21.8500   -4.4970   23.4480 C   0  0  0  0  0  3  0  0  0  0  0  0
  -22.0240   -5.3160   22.3180 C   0  0  0  0  0  0  0  0  0  0  0  0
  -22.4450   -4.7700   21.1530 F   0  0  0  0  0  0  0  0  0  0  0  0
  -21.2210   -4.2640   25.7390 F   0  0  0  0  0  0  0  0  0  0  0  0
  -23.1480  -14.0500   20.9310 C   0  0  0  0  0  0  0  0  0  0  0  0
  -22.3470  -13.3900   21.7610 N   0  0  0  0  0  0  0  0  0  0  0  0
  -22.7710  -15.0720   20.3610 O   0  0  0  0  0  0  0  0  0  0  0  0
  -22.6660  -12.5660   22.2460 H   0  0  0  0  0  0  0  0  0  0  0  0
  -21.4050  -13.7220   21.9220 H   0  0  0  0  0  0  0  0  0  0  0  0
  -25.8660  -15.6440   20.2830 N   0  0  0  0  0  0  0  0  0  0  0  0
  -25.1040  -16.3140   20.3150 H   0  0  0  0  0  0  0  0  0  0  0  0
  -26.7450  -16.0620   19.9980 H   0  0  0  0  0  0  0  0  0  0  0  0
  -28.7110  -26.0070   20.8960 C   0  0  0  0  0  2  0  0  0  0  0  0
  -28.4540  -27.0270   19.9210 O   0  0  0  0  0  0  0  0  0  0  0  0
  -24.5760  -31.9820   23.2720 C   0  0  0  0  0  0  0  0  0  0  0  0
  -27.2520  -27.6830   20.0360 C   0  0  0  0  0  0  0  0  0  0  0  0
  -23.3630  -30.6000   21.6140 C   0  0  0  0  0  3  0  0  0  0  0  0
  -24.8190  -29.1150   20.1330 C   0  0  0  0  0  0  0  0  0  0  0  0
  -25.8720  -31.0120   21.3770 C   0  0  0  0  0  2  0  0  0  0  0  0
  -25.9750  -29.6560   20.7110 C   0  0  0  0  0  0  0  0  0  0  0  0
  -27.1950  -28.9460   20.6630 C   0  0  0  0  0  3  0  0  0  0  0  0
  -26.0830  -27.1400   19.4620 C   0  0  0  0  0  3  0  0  0  0  0  0
  -24.8660  -27.8550   19.5090 C   0  0  0  0  0  3  0  0  0  0  0  0
  -23.5600  -29.9500   20.2170 C   0  0  0  0  0  2  0  0  0  0  0  0
  -24.6230  -31.2120   22.1480 N   0  0  0  0  0  0  0  0  0  0  0  0
  -23.5020  -32.2230   23.8390 O   0  0  0  0  0  0  0  0  0  0  0  0
  -22.7440  -29.5490   22.5620 C   0  0  0  0  0  0  0  0  0  0  0  0
  -21.4230  -29.3440   22.4460 N   0  0  0  0  0  0  0  0  0  0  0  0
  -23.4510  -28.9170   23.3520 O   0  0  0  0  0  0  0  0  0  0  0  0
  -20.9160  -29.9120   21.7830 H   0  0  0  0  0  0  0  0  0  0  0  0
  -18.0810  -28.0610   22.9480 C   0  0  0  0  0  0  0  0  0  0  0  0
  -20.6350  -28.3690   23.1990 C   0  0  0  0  0  3  0  0  0  0  0  0
  -20.7660  -26.9570   22.5840 C   0  0  0  0  0  2  0  0  0  0  0  0
  -19.6560  -26.6320   21.5770 C   0  0  0  0  0  2  0  0  0  0  0  0
  -18.2810  -26.7290   22.2430 C   0  0  0  0  0  2  0  0  0  0  0  0
  -19.1870  -28.8390   23.3820 C   0  0  0  0  0  0  0  0  0  0  0  0
  -18.9490  -30.0860   23.9990 C   0  0  0  0  0  3  0  0  0  0  0  0
  -17.6360  -30.5570   24.1870 C   0  0  0  0  0  3  0  0  0  0  0  0
  -16.5440  -29.7760   23.7700 C   0  0  0  0  0  3  0  0  0  0  0  0
  -16.7670  -28.5280   23.1600 C   0  0  0  0  0  3  0  0  0  0  0  0
  -25.8640  -32.6180   23.8850 C   0  0  0  0  0  3  0  0  0  0  0  0
  -26.3890  -31.8490   25.1590 C   0  0  1  0  0  0  0  0  0  0  0  0
  -25.3020  -31.6060   26.2310 C   0  0  0  0  0  1  0  0  0  0  0  0
  -26.9770  -30.4750   24.7610 C   0  0  0  0  0  1  0  0  0  0  0  0
  -27.5390  -32.6480   25.8160 C   0  0  0  0  0  1  0  0  0  0  0  0
  -25.5550  -34.0160   24.2120 N   0  0  0  0  0  0  0  0  0  0  0  0
  -25.8990  -35.0660   23.4530 C   0  0  0  0  0  0  0  0  0  0  0  0
  -26.5810  -34.9580   22.4290 O   0  0  0  0  0  0  0  0  0  0  0  0
  -24.9530  -34.1720   25.0080 H   0  0  0  0  0  0  0  0  0  0  0  0
  -24.1780  -36.8580   23.0760 C   0  0  0  0  0  1  0  0  0  0  0  0
  -25.4100  -36.4550   23.9020 C   0  0  0  0  0  3  0  0  0  0  0  0
  -27.5380  -37.3350   24.7520 C   0  0  0  0  0  1  0  0  0  0  0  0
  -26.4460  -37.5060   23.7970 N   0  0  0  0  0  0  0  0  0  0  0  0
  -26.0420  -38.4270   23.9410 H   0  0  0  0  0  0  0  0  0  0  0  0
  1  6  1  0
  1 56  1  0
  2  4  1  0
  3  2  1  0
  5  8  1  0
  5  3  1  0
  5  6  1  0
  6  4  1  0
  7  1  2  0
  8 10  2  0
  9  8  1  0
 11  9  1  0
 12 13  2  0
 12 14  1  0
 13 16  1  0
 14 17  2  0
 16  9  1  0
 16 15  2  0
 17 15  1  0
 17 26  1  0
 19 24  1  0
 20 21  1  0
 20 19  1  0
 22 21  1  0
 22 31  1  0
 22 23  1  0
 24 18  1  0
 24 23  1  0
 25 18  2  0
 26 18  1  0
 26 27  1  0
 28 29  2  0
 29 30  1  0
 29 48  1  0
 30 33  1  0
 31 28  1  0
 31 32  1  0
 32 30  2  0
 33 34  1  0
 34 35  2  0
 36 39  1  0
 36 35  1  0
 37 36  2  0
 38 37  1  0
 38 33  2  0
 39 40  1  0
 40 41  1  0
 41 42  2  0
 43 42  1  0
 43 47  1  0
 44 43  2  0
 45 40  2  0
 45 44  1  0
 46 45  1  0
 48 49  1  0
 49 52  1  0
 49 51  1  0
 50 48  2  0
 53 54  1  0
 53 28  1  0
 55 53  1  0
 57 59  1  0
 57 56  1  0
 58 69  2  0
 59 64  1  0
 60 68  1  0
 60 70  1  0
 61 67  1  0
 61 63  1  0
 62 68  1  0
 63 62  1  0
 64 63  2  0
 65 66  1  0
 65 59  2  0
 66 61  2  0
 67 60  1  0
 68 58  1  0
 70 72  2  0
 71 70  1  0
 73 71  1  0
 74 83  2  0
 74 79  1  0
 75 71  1  0
 75 79  1  0
 76 75  1  0
 77 78  1  0
 77 76  1  0
 78 74  1  0
 79 80  2  0
 80 81  1  0
 82 81  2  0
 83 82  1  0
 84 58  1  0
 84 89  1  0
 84 85  1  0
 85 88  1  1
 85 86  1  0
 87 85  1  0
 89 92  1  0
 90 94  1  0
 90 89  1  0
 91 90  2  0
 94 93  1  0
 96 94  1  0
 96 97  1  0
 96 95  1  0
M  ISO  4  18 100  26 100  56 101  57 101
M  END
>  <TORSDO>  (55) 
F 19

>  <SCORE>  (55) 
-12.663

>  <name>  (55) 
54

>  <ligand_id>  (55) 
54

>  <original_smiles>  (55) 
[H]c1c([H])c(N([H])C(=O)N2C([H])([H])C([H])([H])C([H])([H])C([H])(n3nc(-c4c([H])c([H])c(Oc5c([H])c([H])c(F)c([H])c5F)c([H])c4[H])c(C(=O)N([H])[H])c3N([H])[H])C2([H])[H])c([H])c(N([H])C(=O)C2([H])N(C(=O)C([H])([H])Oc3c([H])c([H])c4c(c3[H])C([H])([H])N(C(=O)C([H])(N([H])C(=O)C([H])(N([H])C([H])([H])[H])C([H])([H])[H])C(C([H])([H])[H])(C([H])([H])[H])C([H])([H])[H])C([H])(C(=O)N([H])C3([H])c5c([H])c([H])c([H])c([H])c5C([H])([H])C([H])([H])C3([H])[H])C4([H])[H])C([H])([H])C([H])([H])C2([H])[H])c1[H]

>  <smiles>  (55) 
[H]c1c([H])c(N([H])C(=O)N2C([H])([H])C([H])([H])C([H])([H])C([H])(n3nc(-c4c([H])c([H])c(Oc5c([H])c([H])c(F)c([H])c5F)c([H])c4[H])c(C(=O)N([H])[H])c3N([H])[H])C2([H])[H])c([H])c(N([H])C(=O)C2([H])N(C(=O)C([H])([H])Oc3c([H])c([H])c4c(c3[H])C([H])([H])N(C(=O)C([H])(N([H])C(=O)C([H])(N([H])C([H])([H])[H])C([H])([H])[H])C(C([H])([H])[H])(C([H])([H])[H])C([H])([H])[H])C([H])(C(=O)N([H])C3([H])c5c([H])c([H])c([H])c([H])c5C([H])([H])C([H])([H])C3([H])[H])C4([H])[H])C([H])([H])C([H])([H])C2([H])[H])c1[H]

$$$$
55:0:0
     RDKit          3D

 94103  0  0  1  0  0  0  0  0999 V2000
  -30.9380  -21.2830   22.0420 C   0  0  0  0  0  2  0  0  0  0  0  0
  -29.7570  -20.6630   21.3600 C   0  0  0  0  0  3  0  0  0  0  0  0
  -30.2600  -22.0620   20.9160 C   0  0  0  0  0  3  0  0  0  0  0  0
  -30.1990  -19.4350   19.2080 C   0  0  0  0  0  3  0  0  0  0  0  0
  -30.4130  -18.2680   18.4620 C   0  0  0  0  0  3  0  0  0  0  0  0
  -30.0100  -18.0840   21.2230 C   0  0  0  0  0  3  0  0  0  0  0  0
  -29.9920  -19.3680   20.5970 C   0  0  0  0  0  0  0  0  0  0  0  0
  -30.4120  -16.9980   19.0740 C   0  0  0  0  0  0  0  0  0  0  0  0
  -30.2280  -16.8800   20.4850 C   0  0  0  0  0  0  0  0  0  0  0  0
  -30.5320  -15.8020   18.1510 C   0  0  0  0  0  1  0  0  0  0  0  0
  -30.9210  -14.5080   20.9990 C   0  0  0  0  0  0  0  0  0  0  0  0
  -30.7730  -12.2190   20.0900 C   0  0  0  0  0  2  0  0  0  0  0  0
  -29.9590  -12.2540   18.7780 C   0  0  0  0  0  2  0  0  0  0  0  0
  -28.4430  -12.1880   19.0540 C   0  0  0  0  0  2  0  0  0  0  0  0
  -27.9730  -13.1210   20.2050 C   0  0  0  0  0  3  0  0  0  0  0  0
  -28.9180  -13.0280   21.4250 C   0  0  0  0  0  2  0  0  0  0  0  0
  -30.2850  -13.3020   20.9610 N   0  0  0  0  0  0  0  0  0  0  0  0
  -32.1210  -14.6300   20.7390 O   0  0  0  0  0  0  0  0  0  0  0  0
  -30.1190  -15.5960   21.1440 N   0  0  0  0  0  0  0  0  0  0  0  0
  -29.2170  -15.3960   21.5490 H   0  0  0  0  0  0  0  0  0  0  0  0
  -25.5280  -13.7510   20.6980 C   0  0  0  0  0  0  0  0  0  0  0  0
  -24.4260  -12.9910   20.9850 C   0  0  0  0  0  0  0  0  0  0  0  0
  -24.8790  -11.6360   21.0190 C   0  0  0  0  0  0  0  0  0  0  0  0
  -26.5830  -12.8610   20.5740 N   0  0  0  0  0  0  0  0  0  0  0  0
  -26.1910  -11.5850   20.8300 N   0  0  0  0  0  0  0  0  0  0  0  0
  -24.1310  -10.3810   21.1660 C   0  0  0  0  0  0  0  0  0  0  0  0
  -24.4820   -9.4220   22.1420 C   0  0  0  0  0  3  0  0  0  0  0  0
  -23.7360   -8.2310   22.2750 C   0  0  0  0  0  3  0  0  0  0  0  0
  -22.6250   -7.9910   21.4330 C   0  0  0  0  0  0  0  0  0  0  0  0
  -22.2930   -8.9390   20.4490 C   0  0  0  0  0  3  0  0  0  0  0  0
  -23.0390  -10.1210   20.3140 C   0  0  0  0  0  3  0  0  0  0  0  0
  -21.8590   -6.8510   21.4740 O   0  0  0  0  0  0  0  0  0  0  0  0
  -21.7210   -6.1170   22.6240 C   0  0  0  0  0  0  0  0  0  0  0  0
  -21.1810   -6.6740   23.8040 C   0  0  0  0  0  3  0  0  0  0  0  0
  -20.9920   -5.8650   24.9420 C   0  0  0  0  0  3  0  0  0  0  0  0
  -21.3320   -4.5000   24.9010 C   0  0  0  0  0  0  0  0  0  0  0  0
  -21.8650   -3.9420   23.7260 C   0  0  0  0  0  3  0  0  0  0  0  0
  -22.0560   -4.7480   22.5900 C   0  0  0  0  0  0  0  0  0  0  0  0
  -22.5490   -4.2000   21.4540 F   0  0  0  0  0  0  0  0  0  0  0  0
  -21.1440   -3.7210   25.9920 F   0  0  0  0  0  0  0  0  0  0  0  0
  -23.0120  -13.4800   21.1240 C   0  0  0  0  0  0  0  0  0  0  0  0
  -22.2070  -12.8060   21.9370 N   0  0  0  0  0  0  0  0  0  0  0  0
  -22.6280  -14.4950   20.5460 O   0  0  0  0  0  0  0  0  0  0  0  0
  -22.5270  -11.9850   22.4290 H   0  0  0  0  0  0  0  0  0  0  0  0
  -21.2550  -13.1170   22.0700 H   0  0  0  0  0  0  0  0  0  0  0  0
  -25.7170  -15.1170   20.5110 N   0  0  0  0  0  0  0  0  0  0  0  0
  -24.9480  -15.7780   20.5370 H   0  0  0  0  0  0  0  0  0  0  0  0
  -26.5940  -15.5440   20.2430 H   0  0  0  0  0  0  0  0  0  0  0  0
  -28.8530  -24.0270   20.3060 C   0  0  0  0  0  0  0  0  0  0  0  0
  -29.9880  -23.9640   22.4890 C   0  0  0  0  0  1  0  0  0  0  0  0
  -29.5730  -23.3210   21.2320 N   0  0  0  0  0  0  0  0  0  0  0  0
  -28.8230  -23.6780   19.1200 O   0  0  0  0  0  0  0  0  0  0  0  0
  -27.9420  -25.2240   20.7350 C   0  0  0  0  0  2  0  0  0  0  0  0
  -28.1060  -26.4170   19.9180 O   0  0  0  0  0  0  0  0  0  0  0  0
  -24.4720  -31.7120   23.0620 C   0  0  0  0  0  0  0  0  0  0  0  0
  -26.9920  -27.2380   19.9090 C   0  0  0  0  0  0  0  0  0  0  0  0
  -23.2250  -30.3590   21.4100 C   0  0  0  0  0  3  0  0  0  0  0  0
  -24.6380  -28.8140   19.9480 C   0  0  0  0  0  0  0  0  0  0  0  0
  -25.7580  -30.6630   21.2000 C   0  0  0  0  0  2  0  0  0  0  0  0
  -25.8130  -29.2990   20.5360 C   0  0  0  0  0  0  0  0  0  0  0  0
  -26.9970  -28.5200   20.5110 C   0  0  0  0  0  3  0  0  0  0  0  0
  -25.8040  -26.7790   19.3010 C   0  0  0  0  0  3  0  0  0  0  0  0
  -24.6290  -27.5550   19.3240 C   0  0  0  0  0  3  0  0  0  0  0  0
  -23.4120  -29.6980   20.0180 C   0  0  0  0  0  2  0  0  0  0  0  0
  -24.5030  -30.9250   21.9490 N   0  0  0  0  0  0  0  0  0  0  0  0
  -23.4000  -31.9980   23.6150 O   0  0  0  0  0  0  0  0  0  0  0  0
  -22.5580  -29.3380   22.3600 C   0  0  0  0  0  0  0  0  0  0  0  0
  -21.2250  -29.2110   22.2660 N   0  0  0  0  0  0  0  0  0  0  0  0
  -23.2370  -28.6650   23.1390 O   0  0  0  0  0  0  0  0  0  0  0  0
  -20.7370  -29.8060   21.6090 H   0  0  0  0  0  0  0  0  0  0  0  0
  -17.8160  -28.1630   22.8530 C   0  0  0  0  0  0  0  0  0  0  0  0
  -20.3910  -28.2850   23.0330 C   0  0  0  0  0  3  0  0  0  0  0  0
  -20.4000  -26.8730   22.4000 C   0  0  0  0  0  2  0  0  0  0  0  0
  -19.2450  -26.6460   21.4190 C   0  0  0  0  0  2  0  0  0  0  0  0
  -17.8980  -26.8340   22.1220 C   0  0  0  0  0  2  0  0  0  0  0  0
  -18.9870  -28.8520   23.2670 C   0  0  0  0  0  0  0  0  0  0  0  0
  -18.8550  -30.1010   23.9120 C   0  0  0  0  0  3  0  0  0  0  0  0
  -17.5840  -30.6580   24.1480 C   0  0  0  0  0  3  0  0  0  0  0  0
  -16.4280  -29.9650   23.7500 C   0  0  0  0  0  3  0  0  0  0  0  0
  -16.5450  -28.7180   23.1090 C   0  0  0  0  0  3  0  0  0  0  0  0
  -25.7750  -32.3070   23.6810 C   0  0  0  0  0  3  0  0  0  0  0  0
  -26.3040  -31.4890   24.9220 C   0  0  1  0  0  0  0  0  0  0  0  0
  -25.2280  -31.2350   26.0020 C   0  0  0  0  0  1  0  0  0  0  0  0
  -26.8590  -30.1160   24.4740 C   0  0  0  0  0  1  0  0  0  0  0  0
  -27.4780  -32.2460   25.5870 C   0  0  0  0  0  1  0  0  0  0  0  0
  -25.4900  -33.6970   24.0590 N   0  0  0  0  0  0  0  0  0  0  0  0
  -25.8400  -34.7690   23.3360 C   0  0  0  0  0  0  0  0  0  0  0  0
  -26.5080  -34.6900   22.3010 O   0  0  0  0  0  0  0  0  0  0  0  0
  -24.8970  -33.8350   24.8650 H   0  0  0  0  0  0  0  0  0  0  0  0
  -24.1610  -36.6150   23.0220 C   0  0  0  0  0  1  0  0  0  0  0  0
  -25.3750  -36.1480   23.8410 C   0  0  0  0  0  3  0  0  0  0  0  0
  -27.5090  -36.9500   24.7540 C   0  0  0  0  0  1  0  0  0  0  0  0
  -26.4350  -37.1800   23.7920 N   0  0  0  0  0  0  0  0  0  0  0  0
  -26.0460  -38.1030   23.9670 H   0  0  0  0  0  0  0  0  0  0  0  0
  2  7  1  0
  2  1  1  0
  3 51  1  0
  3  2  1  0
  3  1  1  0
  4  7  1  0
  5  8  1  0
  5  4  2  0
  7  6  2  0
  8  9  2  0
  9 19  1  0
  9  6  1  0
 10  8  1  0
 11 19  1  0
 12 17  1  0
 13 14  1  0
 13 12  1  0
 15 14  1  0
 15 24  1  0
 15 16  1  0
 17 11  1  0
 17 16  1  0
 18 11  2  0
 19 20  1  0
 21 22  2  0
 22 23  1  0
 22 41  1  0
 23 26  1  0
 24 21  1  0
 24 25  1  0
 25 23  2  0
 26 27  1  0
 27 28  2  0
 29 32  1  0
 29 28  1  0
 30 29  2  0
 31 30  1  0
 31 26  2  0
 32 33  1  0
 33 34  1  0
 34 35  2  0
 36 35  1  0
 36 40  1  0
 37 36  2  0
 38 33  2  0
 38 37  1  0
 39 38  1  0
 41 42  1  0
 42 45  1  0
 42 44  1  0
 43 41  2  0
 46 47  1  0
 46 21  1  0
 48 46  1  0
 49 53  1  0
 49 51  1  0
 51 50  1  0
 52 49  2  0
 54 53  1  0
 55 66  2  0
 56 54  1  0
 56 61  1  0
 57 65  1  0
 57 67  1  0
 58 64  1  0
 58 60  1  0
 59 65  1  0
 60 59  1  0
 61 60  2  0
 62 63  1  0
 62 56  2  0
 63 58  2  0
 64 57  1  0
 65 55  1  0
 67 69  2  0
 68 67  1  0
 70 68  1  0
 71 80  2  0
 71 76  1  0
 72 68  1  0
 72 76  1  0
 73 72  1  0
 74 75  1  0
 74 73  1  0
 75 71  1  0
 76 77  2  0
 77 78  1  0
 79 78  2  0
 80 79  1  0
 81 55  1  0
 81 86  1  0
 81 82  1  0
 82 85  1  1
 82 83  1  0
 84 82  1  0
 86 89  1  0
 87 91  1  0
 87 86  1  0
 88 87  2  0
 91 90  1  0
 93 91  1  0
 93 94  1  0
 93 92  1  0
M  ISO  4  11 100  19 100  53 101  54 101
M  END
>  <TORSDO>  (56) 
F 19

>  <SCORE>  (56) 
-13.432

>  <name>  (56) 
55

>  <ligand_id>  (56) 
55

>  <original_smiles>  (56) 
[H]c1c([H])c([H])c2c(c1[H])C([H])([H])C([H])([H])C([H])([H])C2([H])N([H])C(=O)C1([H])N(C(=O)C([H])(N([H])C(=O)C([H])(N([H])C([H])([H])[H])C([H])([H])[H])C(C([H])([H])[H])(C([H])([H])[H])C([H])([H])[H])C([H])([H])c2c([H])c(OC([H])([H])C(=O)N(C([H])([H])[H])C3([H])C([H])([H])C3([H])c3c([H])c([H])c(C([H])([H])[H])c(N([H])C(=O)N4C([H])([H])C([H])([H])C([H])([H])C([H])(n5nc(-c6c([H])c([H])c(Oc7c([H])c([H])c(F)c([H])c7F)c([H])c6[H])c(C(=O)N([H])[H])c5N([H])[H])C4([H])[H])c3[H])c([H])c([H])c2C1([H])[H]

>  <smiles>  (56) 
[H]c1c([H])c([H])c2c(c1[H])C([H])([H])C([H])([H])C([H])([H])C2([H])N([H])C(=O)C1([H])N(C(=O)C([H])(N([H])C(=O)C([H])(N([H])C([H])([H])[H])C([H])([H])[H])C(C([H])([H])[H])(C([H])([H])[H])C([H])([H])[H])C([H])([H])c2c([H])c(OC([H])([H])C(=O)N(C([H])([H])[H])C3([H])C([H])([H])C3([H])c3c([H])c([H])c(C([H])([H])[H])c(N([H])C(=O)N4C([H])([H])C([H])([H])C([H])([H])C([H])(n5nc(-c6c([H])c([H])c(Oc7c([H])c([H])c(F)c([H])c7F)c([H])c6[H])c(C(=O)N([H])[H])c5N([H])[H])C4([H])[H])c3[H])c([H])c([H])c2C1([H])[H]

$$$$
56:0:0
     RDKit          3D

 97106  0  0  1  0  0  0  0  0999 V2000
  -27.4460  -21.1520   21.3660 C   0  0  0  0  0  2  0  0  0  0  0  0
  -26.9280  -22.5710   21.5590 C   0  0  0  0  0  2  0  0  0  0  0  0
  -28.9920  -22.7690   20.3450 C   0  0  0  0  0  2  0  0  0  0  0  0
  -28.6200  -21.2490   20.3750 C   0  0  0  0  0  3  0  0  0  0  0  0
  -28.1510  -23.4950   21.4290 C   0  0  0  0  0  3  0  0  0  0  0  0
  -29.7330  -20.2440   20.7640 C   0  0  0  0  0  0  0  0  0  0  0  0
  -29.4520  -18.9380   20.5930 N   0  0  0  0  0  0  0  0  0  0  0  0
  -30.7950  -20.6330   21.2560 O   0  0  0  0  0  0  0  0  0  0  0  0
  -28.5650  -18.7180   20.1580 H   0  0  0  0  0  0  0  0  0  0  0  0
  -29.5230  -16.9660   22.1220 C   0  0  0  0  0  2  0  0  0  0  0  0
  -30.2220  -17.8310   21.0980 C   0  0  0  0  0  3  0  0  0  0  0  0
  -29.8370  -16.3770   20.7590 C   0  0  0  0  0  3  0  0  0  0  0  0
  -30.9720  -14.5850   19.5260 C   0  0  0  0  0  0  0  0  0  0  0  0
  -30.4190  -12.4810   18.3490 C   0  0  0  0  0  2  0  0  0  0  0  0
  -29.2900  -12.6720   17.3190 C   0  0  0  0  0  2  0  0  0  0  0  0
  -27.9140  -12.5130   17.9900 C   0  0  0  0  0  2  0  0  0  0  0  0
  -27.7820  -13.3590   19.2840 C   0  0  0  0  0  3  0  0  0  0  0  0
  -29.0020  -13.1500   20.2090 C   0  0  0  0  0  2  0  0  0  0  0  0
  -30.2250  -13.4490   19.4440 N   0  0  0  0  0  0  0  0  0  0  0  0
  -31.8820  -14.8420   18.7290 O   0  0  0  0  0  0  0  0  0  0  0  0
  -31.9470  -15.2980   21.6130 C   0  0  0  0  0  1  0  0  0  0  0  0
  -30.8350  -15.3230   20.6510 N   0  0  0  0  0  0  0  0  0  0  0  0
  -25.5920  -13.9650   20.4930 C   0  0  0  0  0  0  0  0  0  0  0  0
  -24.5650  -13.1930   20.9690 C   0  0  0  0  0  0  0  0  0  0  0  0
  -24.9310  -11.8400   20.6970 C   0  0  0  0  0  0  0  0  0  0  0  0
  -26.5240  -13.0810   19.9740 N   0  0  0  0  0  0  0  0  0  0  0  0
  -26.1380  -11.7910   20.1480 N   0  0  0  0  0  0  0  0  0  0  0  0
  -24.1770  -10.5920   20.8720 C   0  0  0  0  0  0  0  0  0  0  0  0
  -24.6450   -9.5570   21.7120 C   0  0  0  0  0  3  0  0  0  0  0  0
  -23.8920   -8.3750   21.8770 C   0  0  0  0  0  3  0  0  0  0  0  0
  -22.6570   -8.2190   21.2030 C   0  0  0  0  0  0  0  0  0  0  0  0
  -22.2080   -9.2420   20.3490 C   0  0  0  0  0  3  0  0  0  0  0  0
  -22.9620  -10.4170   20.1820 C   0  0  0  0  0  3  0  0  0  0  0  0
  -21.8710   -7.0960   21.2860 O   0  0  0  0  0  0  0  0  0  0  0  0
  -21.7960   -6.3500   22.4350 C   0  0  0  0  0  0  0  0  0  0  0  0
  -21.3770   -6.9130   23.6610 C   0  0  0  0  0  3  0  0  0  0  0  0
  -21.2490   -6.0970   24.8030 C   0  0  0  0  0  3  0  0  0  0  0  0
  -21.5290   -4.7200   24.7200 C   0  0  0  0  0  0  0  0  0  0  0  0
  -21.9410   -4.1570   23.4990 C   0  0  0  0  0  3  0  0  0  0  0  0
  -22.0720   -4.9700   22.3590 C   0  0  0  0  0  0  0  0  0  0  0  0
  -22.4490   -4.4180   21.1810 F   0  0  0  0  0  0  0  0  0  0  0  0
  -21.3990   -3.9350   25.8150 F   0  0  0  0  0  0  0  0  0  0  0  0
  -23.2730  -13.6860   21.5530 C   0  0  0  0  0  0  0  0  0  0  0  0
  -22.6890  -12.9280   22.4750 N   0  0  0  0  0  0  0  0  0  0  0  0
  -22.7970  -14.7730   21.2290 O   0  0  0  0  0  0  0  0  0  0  0  0
  -23.0880  -12.0440   22.7540 H   0  0  0  0  0  0  0  0  0  0  0  0
  -21.8270  -13.2350   22.9040 H   0  0  0  0  0  0  0  0  0  0  0  0
  -25.8010  -15.3400   20.4420 N   0  0  0  0  0  0  0  0  0  0  0  0
  -25.0960  -16.0020   20.7520 H   0  0  0  0  0  0  0  0  0  0  0  0
  -26.5830  -15.7850   19.9790 H   0  0  0  0  0  0  0  0  0  0  0  0
  -27.6930  -24.9710   21.1640 C   0  0  0  0  0  3  0  0  0  0  0  0
  -27.5720  -26.2530   23.3740 C   0  0  0  0  0  1  0  0  0  0  0  0
  -25.4990  -25.8450   22.1120 C   0  0  0  0  0  1  0  0  0  0  0  0
  -26.8920  -25.3980   22.3710 N   0  0  1  0  0  4  0  0  0  0  0  0
  -26.7520  -24.5190   22.8510 H   0  0  0  0  0  0  0  0  0  0  0  0
  -28.8170  -25.9830   20.7150 C   0  0  0  0  0  2  0  0  0  0  0  0
  -28.5030  -26.8150   19.5790 O   0  0  0  0  0  0  0  0  0  0  0  0
  -24.6580  -31.6660   23.1480 C   0  0  0  0  0  0  0  0  0  0  0  0
  -27.3600  -27.5700   19.6670 C   0  0  0  0  0  0  0  0  0  0  0  0
  -23.4730  -30.3940   21.3880 C   0  0  0  0  0  3  0  0  0  0  0  0
  -24.9520  -29.0300   19.8140 C   0  0  0  0  0  0  0  0  0  0  0  0
  -25.9910  -30.8090   21.2270 C   0  0  0  0  0  2  0  0  0  0  0  0
  -26.0980  -29.5060   20.4640 C   0  0  0  0  0  0  0  0  0  0  0  0
  -27.3090  -28.7750   20.4020 C   0  0  0  0  0  3  0  0  0  0  0  0
  -26.2170  -27.1400   18.9630 C   0  0  0  0  0  3  0  0  0  0  0  0
  -25.0060  -27.8490   19.0560 C   0  0  0  0  0  3  0  0  0  0  0  0
  -23.6870  -29.8490   19.9510 C   0  0  0  0  0  2  0  0  0  0  0  0
  -24.7250  -30.9650   21.9790 N   0  0  0  0  0  0  0  0  0  0  0  0
  -23.5740  -31.8730   23.7100 O   0  0  0  0  0  0  0  0  0  0  0  0
  -22.8460  -29.2760   22.2520 C   0  0  0  0  0  0  0  0  0  0  0  0
  -21.5200  -29.0950   22.1240 N   0  0  0  0  0  0  0  0  0  0  0  0
  -23.5480  -28.5770   22.9870 O   0  0  0  0  0  0  0  0  0  0  0  0
  -21.0160  -29.7150   21.5050 H   0  0  0  0  0  0  0  0  0  0  0  0
  -18.1610  -27.8370   22.5570 C   0  0  0  0  0  0  0  0  0  0  0  0
  -20.7210  -28.0800   22.8100 C   0  0  0  0  0  3  0  0  0  0  0  0
  -20.8220  -26.7170   22.0890 C   0  0  0  0  0  2  0  0  0  0  0  0
  -19.7020  -26.4890   21.0700 C   0  0  0  0  0  2  0  0  0  0  0  0
  -18.3300  -26.5620   21.7480 C   0  0  0  0  0  2  0  0  0  0  0  0
  -19.2830  -28.5600   23.0400 C   0  0  0  0  0  0  0  0  0  0  0  0
  -19.0710  -29.7570   23.7550 C   0  0  0  0  0  3  0  0  0  0  0  0
  -17.7670  -30.2320   23.9950 C   0  0  0  0  0  3  0  0  0  0  0  0
  -16.6580  -29.5050   23.5290 C   0  0  0  0  0  3  0  0  0  0  0  0
  -16.8560  -28.3100   22.8150 C   0  0  0  0  0  3  0  0  0  0  0  0
  -25.9380  -32.2600   23.8170 C   0  0  0  0  0  3  0  0  0  0  0  0
  -25.6120  -33.6180   24.2670 N   0  0  0  0  0  0  0  0  0  0  0  0
  -25.9390  -34.7360   23.6070 C   0  0  0  0  0  0  0  0  0  0  0  0
  -26.6220  -34.7340   22.5790 O   0  0  0  0  0  0  0  0  0  0  0  0
  -25.0080  -33.6960   25.0730 H   0  0  0  0  0  0  0  0  0  0  0  0
  -24.2010  -36.5420   23.3800 C   0  0  0  0  0  1  0  0  0  0  0  0
  -25.4270  -36.0720   24.1790 C   0  0  0  0  0  3  0  0  0  0  0  0
  -27.5310  -36.8870   25.1470 C   0  0  0  0  0  1  0  0  0  0  0  0
  -26.4530  -37.1360   24.1910 N   0  0  0  0  0  0  0  0  0  0  0  0
  -26.0340  -38.0350   24.4170 H   0  0  0  0  0  0  0  0  0  0  0  0
  -26.4800  -31.3870   25.0150 C   0  0  1  0  0  0  0  0  0  0  0  0
  -25.3970  -31.0230   26.0580 C   0  0  0  0  0  1  0  0  0  0  0  0
  -27.1030  -30.0670   24.5000 C   0  0  0  0  0  1  0  0  0  0  0  0
  -27.6160  -32.1470   25.7440 C   0  0  0  0  0  1  0  0  0  0  0  0
  1  2  1  0
  3  4  1  0
  3  5  1  0
  4  6  1  0
  4  1  1  0
  5 51  1  0
  5  2  1  0
  6  8  2  0
  7  6  1  0
  9  7  1  0
 11  7  1  0
 11 10  1  0
 12 22  1  0
 12 11  1  0
 12 10  1  0
 13 22  1  0
 14 19  1  0
 15 16  1  0
 15 14  1  0
 17 16  1  0
 17 26  1  0
 17 18  1  0
 19 13  1  0
 19 18  1  0
 20 13  2  0
 22 21  1  0
 23 24  2  0
 24 43  1  0
 25 28  1  0
 25 24  1  0
 26 27  1  0
 26 23  1  0
 27 25  2  0
 28 29  1  0
 29 30  2  0
 31 34  1  0
 31 30  1  0
 32 31  2  0
 33 32  1  0
 33 28  2  0
 34 35  1  0
 35 36  1  0
 36 37  2  0
 38 37  1  0
 38 42  1  0
 39 38  2  0
 40 35  2  0
 40 39  1  0
 41 40  1  0
 43 44  1  0
 44 46  1  0
 44 47  1  0
 45 43  2  0
 48 23  1  0
 48 49  1  0
 50 48  1  0
 51 56  1  0
 51 54  1  0
 53 54  1  0
 54 55  1  1
 54 52  1  0
 57 59  1  0
 57 56  1  0
 58 69  2  0
 59 64  1  0
 60 68  1  0
 60 70  1  0
 61 67  1  0
 61 63  1  0
 62 68  1  0
 63 62  1  0
 64 63  2  0
 65 66  1  0
 65 59  2  0
 66 61  2  0
 67 60  1  0
 68 58  1  0
 70 72  2  0
 71 70  1  0
 73 71  1  0
 74 83  2  0
 74 79  1  0
 75 71  1  0
 75 79  1  0
 76 75  1  0
 77 78  1  0
 77 76  1  0
 78 74  1  0
 79 80  2  0
 80 81  1  0
 82 81  2  0
 83 82  1  0
 84 58  1  0
 84 85  1  0
 84 94  1  0
 85 88  1  0
 86 90  1  0
 86 85  1  0
 87 86  2  0
 90 89  1  0
 90 92  1  0
 92 93  1  0
 92 91  1  0
 94 97  1  1
 94 95  1  0
 96 94  1  0
M  ISO  4  13 100  22 100  56 101  57 101
M  END
>  <TORSDO>  (57) 
F 21

>  <SCORE>  (57) 
-10.058

>  <name>  (57) 
56

>  <ligand_id>  (57) 
56

>  <original_smiles>  (57) 
[H]c1c([H])c([H])c2c(c1[H])C([H])([H])C([H])([H])C([H])([H])C2([H])N([H])C(=O)C1([H])N(C(=O)C([H])(N([H])C(=O)C([H])(N([H])C([H])([H])[H])C([H])([H])[H])C(C([H])([H])[H])(C([H])([H])[H])C([H])([H])[H])C([H])([H])c2c([H])c(OC([H])([H])C([H])(C3([H])C([H])([H])C([H])([H])C([H])(C(=O)N([H])C4([H])C([H])([H])C4([H])N(C(=O)N4C([H])([H])C([H])([H])C([H])([H])C([H])(n5nc(-c6c([H])c([H])c(Oc7c([H])c([H])c(F)c([H])c7F)c([H])c6[H])c(C(=O)N([H])[H])c5N([H])[H])C4([H])[H])C([H])([H])[H])C3([H])[H])[N+]([H])(C([H])([H])[H])C([H])([H])[H])c([H])c([H])c2C1([H])[H]

>  <smiles>  (57) 
[H]c1c([H])c([H])c2c(c1[H])C([H])([H])C([H])([H])C([H])([H])C2([H])N([H])C(=O)C1([H])N(C(=O)C([H])(N([H])C(=O)C([H])(N([H])C([H])([H])[H])C([H])([H])[H])C(C([H])([H])[H])(C([H])([H])[H])C([H])([H])[H])C([H])([H])c2c([H])c(OC([H])([H])C([H])(C3([H])C([H])([H])C([H])([H])C([H])(C(=O)N([H])C4([H])C([H])([H])C4([H])N(C(=O)N4C([H])([H])C([H])([H])C([H])([H])C([H])(n5nc(-c6c([H])c([H])c(Oc7c([H])c([H])c(F)c([H])c7F)c([H])c6[H])c(C(=O)N([H])[H])c5N([H])[H])C4([H])[H])C([H])([H])[H])C3([H])[H])[N+]([H])(C([H])([H])[H])C([H])([H])[H])c([H])c([H])c2C1([H])[H]

$$$$
57:0:0
     RDKit          3D

 96105  0  0  1  0  0  0  0  0999 V2000
  -32.7020  -24.9840   20.5140 C   0  0  0  0  0  3  0  0  0  0  0  0
  -31.7090  -25.9720   20.6380 C   0  0  0  0  0  3  0  0  0  0  0  0
  -32.3480  -23.6230   20.5190 C   0  0  0  0  0  3  0  0  0  0  0  0
  -30.0010  -24.2310   20.7880 C   0  0  0  0  0  3  0  0  0  0  0  0
  -30.3550  -25.6040   20.7710 C   0  0  0  0  0  0  0  0  0  0  0  0
  -31.0010  -23.2310   20.6660 C   0  0  0  0  0  0  0  0  0  0  0  0
  -29.7580  -21.1400   21.2390 C   0  0  0  0  0  0  0  0  0  0  0  0
  -30.7360  -21.8310   20.6320 N   0  0  0  0  0  0  0  0  0  0  0  0
  -28.7890  -21.6680   21.7920 O   0  0  0  0  0  0  0  0  0  0  0  0
  -31.4650  -21.2520   20.2380 H   0  0  0  0  0  0  0  0  0  0  0  0
  -28.7420  -18.8250   21.4340 C   0  0  0  0  0  3  0  0  0  0  0  0
  -31.1080  -18.9800   20.9160 C   0  0  0  0  0  3  0  0  0  0  0  0
  -28.8340  -17.4180   21.4290 C   0  0  0  0  0  3  0  0  0  0  0  0
  -31.2000  -17.5700   20.9010 C   0  0  0  0  0  3  0  0  0  0  0  0
  -29.8730  -19.6300   21.1740 C   0  0  0  0  0  0  0  0  0  0  0  0
  -30.0580  -16.7720   21.1490 C   0  0  0  0  0  0  0  0  0  0  0  0
  -30.6970  -14.4690   20.3720 C   0  0  0  0  0  0  0  0  0  0  0  0
  -30.3980  -12.3240   19.1790 C   0  0  0  0  0  2  0  0  0  0  0  0
  -29.4160  -12.5280   18.0060 C   0  0  0  0  0  2  0  0  0  0  0  0
  -27.9510  -12.3960   18.4720 C   0  0  0  0  0  2  0  0  0  0  0  0
  -27.6520  -13.2220   19.7510 C   0  0  0  0  0  3  0  0  0  0  0  0
  -28.7300  -12.9560   20.8230 C   0  0  0  0  0  2  0  0  0  0  0  0
  -30.0470  -13.2810   20.2390 N   0  0  0  0  0  0  0  0  0  0  0  0
  -31.7580  -14.7220   19.7920 O   0  0  0  0  0  0  0  0  0  0  0  0
  -30.0540  -15.3480   21.1650 N   0  0  0  0  0  0  0  0  0  0  0  0
  -29.2580  -14.9330   21.6230 H   0  0  0  0  0  0  0  0  0  0  0  0
  -25.2730  -13.8400   20.5200 C   0  0  0  0  0  0  0  0  0  0  0  0
  -24.2100  -13.0710   20.9140 C   0  0  0  0  0  0  0  0  0  0  0  0
  -24.6630  -11.7180   20.8620 C   0  0  0  0  0  0  0  0  0  0  0  0
  -26.3070  -12.9550   20.2570 N   0  0  0  0  0  0  0  0  0  0  0  0
  -25.9440  -11.6730   20.5160 N   0  0  0  0  0  0  0  0  0  0  0  0
  -23.9370  -10.4580   21.0660 C   0  0  0  0  0  0  0  0  0  0  0  0
  -24.3660   -9.5040   22.0160 C   0  0  0  0  0  3  0  0  0  0  0  0
  -23.6410   -8.3070   22.2060 C   0  0  0  0  0  3  0  0  0  0  0  0
  -22.4740   -8.0560   21.4460 C   0  0  0  0  0  0  0  0  0  0  0  0
  -22.0640   -8.9980   20.4870 C   0  0  0  0  0  3  0  0  0  0  0  0
  -22.7880  -10.1870   20.2950 C   0  0  0  0  0  3  0  0  0  0  0  0
  -21.7220   -6.9110   21.5460 O   0  0  0  0  0  0  0  0  0  0  0  0
  -21.6350   -6.2070   22.7210 C   0  0  0  0  0  0  0  0  0  0  0  0
  -21.1710   -6.8030   23.9140 C   0  0  0  0  0  3  0  0  0  0  0  0
  -21.0310   -6.0250   25.0810 C   0  0  0  0  0  3  0  0  0  0  0  0
  -21.3430   -4.6530   25.0550 C   0  0  0  0  0  0  0  0  0  0  0  0
  -21.8000   -4.0570   23.8670 C   0  0  0  0  0  3  0  0  0  0  0  0
  -21.9430   -4.8320   22.7020 C   0  0  0  0  0  0  0  0  0  0  0  0
  -22.3640   -4.2470   21.5540 F   0  0  0  0  0  0  0  0  0  0  0  0
  -21.2000   -3.9040   26.1730 F   0  0  0  0  0  0  0  0  0  0  0  0
  -22.8240  -13.5530   21.2300 C   0  0  0  0  0  0  0  0  0  0  0  0
  -22.1240  -12.8640   22.1260 N   0  0  0  0  0  0  0  0  0  0  0  0
  -22.3700  -14.5760   20.7190 O   0  0  0  0  0  0  0  0  0  0  0  0
  -22.5010  -12.0350   22.5590 H   0  0  0  0  0  0  0  0  0  0  0  0
  -21.1960  -13.1710   22.3800 H   0  0  0  0  0  0  0  0  0  0  0  0
  -25.4400  -15.2100   20.3460 N   0  0  0  0  0  0  0  0  0  0  0  0
  -24.6840  -15.8710   20.4850 H   0  0  0  0  0  0  0  0  0  0  0  0
  -26.2860  -15.6440   19.9970 H   0  0  0  0  0  0  0  0  0  0  0  0
  -29.2900  -26.6880   20.8870 C   0  0  0  0  0  2  0  0  0  0  0  0
  -28.4220  -26.6690   19.7610 O   0  0  0  0  0  0  0  0  0  0  0  0
  -24.3820  -31.6280   22.9870 C   0  0  0  0  0  0  0  0  0  0  0  0
  -27.2560  -27.3950   19.8410 C   0  0  0  0  0  0  0  0  0  0  0  0
  -23.2510  -30.2080   21.3050 C   0  0  0  0  0  3  0  0  0  0  0  0
  -24.7870  -28.7690   19.8640 C   0  0  0  0  0  0  0  0  0  0  0  0
  -25.7570  -30.6890   21.1370 C   0  0  0  0  0  2  0  0  0  0  0  0
  -25.9100  -29.3350   20.4800 C   0  0  0  0  0  0  0  0  0  0  0  0
  -27.1450  -28.6520   20.4810 C   0  0  0  0  0  3  0  0  0  0  0  0
  -26.1200  -26.8440   19.2160 C   0  0  0  0  0  3  0  0  0  0  0  0
  -24.8830  -27.5160   19.2320 C   0  0  0  0  0  3  0  0  0  0  0  0
  -23.5020  -29.5670   19.9130 C   0  0  0  0  0  2  0  0  0  0  0  0
  -24.4800  -30.8560   21.8680 N   0  0  0  0  0  0  0  0  0  0  0  0
  -23.2860  -31.8390   23.5260 O   0  0  0  0  0  0  0  0  0  0  0  0
  -22.6420  -29.1380   22.2380 C   0  0  0  0  0  0  0  0  0  0  0  0
  -21.3220  -28.9240   22.1190 N   0  0  0  0  0  0  0  0  0  0  0  0
  -23.3540  -28.5040   23.0220 O   0  0  0  0  0  0  0  0  0  0  0  0
  -20.8090  -29.4900   21.4570 H   0  0  0  0  0  0  0  0  0  0  0  0
  -17.9810  -27.6520   22.6390 C   0  0  0  0  0  0  0  0  0  0  0  0
  -20.5400  -27.9400   22.8670 C   0  0  0  0  0  3  0  0  0  0  0  0
  -20.6520  -26.5390   22.2260 C   0  0  0  0  0  2  0  0  0  0  0  0
  -19.5330  -26.2410   21.2230 C   0  0  0  0  0  2  0  0  0  0  0  0
  -18.1640  -26.3360   21.9020 C   0  0  0  0  0  2  0  0  0  0  0  0
  -19.0970  -28.4130   23.0780 C   0  0  0  0  0  0  0  0  0  0  0  0
  -18.8720  -29.6470   23.7260 C   0  0  0  0  0  3  0  0  0  0  0  0
  -17.5650  -30.1210   23.9400 C   0  0  0  0  0  3  0  0  0  0  0  0
  -16.4640  -29.3560   23.5180 C   0  0  0  0  0  3  0  0  0  0  0  0
  -16.6720  -28.1230   22.8740 C   0  0  0  0  0  3  0  0  0  0  0  0
  -25.6350  -32.3010   23.6300 C   0  0  0  0  0  3  0  0  0  0  0  0
  -26.1940  -31.5120   24.8780 C   0  0  1  0  0  0  0  0  0  0  0  0
  -25.1160  -31.1810   25.9370 C   0  0  0  0  0  1  0  0  0  0  0  0
  -26.8450  -30.1810   24.4340 C   0  0  0  0  0  1  0  0  0  0  0  0
  -27.3040  -32.3390   25.5680 C   0  0  0  0  0  1  0  0  0  0  0  0
  -25.2570  -33.6700   24.0050 N   0  0  0  0  0  0  0  0  0  0  0  0
  -25.5370  -34.7620   23.2810 C   0  0  0  0  0  0  0  0  0  0  0  0
  -26.2140  -34.7270   22.2490 O   0  0  0  0  0  0  0  0  0  0  0  0
  -24.6540  -33.7690   24.8080 H   0  0  0  0  0  0  0  0  0  0  0  0
  -23.7170  -36.4690   22.9800 C   0  0  0  0  0  1  0  0  0  0  0  0
  -24.9770  -36.1070   23.7800 C   0  0  0  0  0  3  0  0  0  0  0  0
  -27.0630  -37.0740   24.6400 C   0  0  0  0  0  1  0  0  0  0  0  0
  -25.9530  -37.2170   23.7020 N   0  0  0  0  0  0  0  0  0  0  0  0
  -25.4990  -38.1090   23.8810 H   0  0  0  0  0  0  0  0  0  0  0  0
  1  3  2  0
  1  2  1  0
  2  5  2  0
  3  6  1  0
  5  4  1  0
  5 55  1  0
  6  4  2  0
  7  9  2  0
  8  6  1  0
  8  7  1  0
 10  8  1  0
 12 15  1  0
 13 11  1  0
 14 12  2  0
 14 16  1  0
 15  7  1  0
 15 11  2  0
 16 25  1  0
 16 13  2  0
 17 25  1  0
 18 23  1  0
 19 20  1  0
 19 18  1  0
 21 20  1  0
 21 30  1  0
 21 22  1  0
 23 17  1  0
 23 22  1  0
 24 17  2  0
 25 26  1  0
 27 28  2  0
 28 47  1  0
 29 28  1  0
 29 32  1  0
 30 31  1  0
 30 27  1  0
 31 29  2  0
 32 33  1  0
 33 34  2  0
 35 38  1  0
 35 34  1  0
 36 35  2  0
 37 36  1  0
 37 32  2  0
 38 39  1  0
 39 40  1  0
 40 41  2  0
 42 41  1  0
 42 46  1  0
 43 42  2  0
 44 39  2  0
 44 43  1  0
 45 44  1  0
 47 48  1  0
 48 51  1  0
 48 50  1  0
 49 47  2  0
 52 53  1  0
 52 27  1  0
 54 52  1  0
 56 58  1  0
 56 55  1  0
 57 68  2  0
 58 63  1  0
 59 67  1  0
 59 69  1  0
 60 66  1  0
 60 62  1  0
 61 67  1  0
 62 63  2  0
 62 61  1  0
 64 65  1  0
 64 58  2  0
 65 60  2  0
 66 59  1  0
 67 57  1  0
 69 71  2  0
 70 69  1  0
 72 70  1  0
 73 82  2  0
 73 78  1  0
 74 70  1  0
 74 78  1  0
 75 74  1  0
 76 77  1  0
 76 75  1  0
 77 73  1  0
 78 79  2  0
 79 80  1  0
 81 80  2  0
 82 81  1  0
 83 57  1  0
 83 88  1  0
 83 84  1  0
 84 87  1  1
 84 85  1  0
 86 84  1  0
 88 91  1  0
 89 93  1  0
 89 88  1  0
 90 89  2  0
 93 92  1  0
 95 93  1  0
 95 96  1  0
 95 94  1  0
M  ISO  4  17 100  25 100  55 101  56 101
M  END
>  <TORSDO>  (58) 
F 19

>  <SCORE>  (58) 
-12.226

>  <name>  (58) 
57

>  <ligand_id>  (58) 
57

>  <original_smiles>  (58) 
[H]c1c([H])c(N([H])C(=O)c2c([H])c([H])c(N([H])C(=O)N3C([H])([H])C([H])([H])C([H])([H])C([H])(n4nc(-c5c([H])c([H])c(Oc6c([H])c([H])c(F)c([H])c6F)c([H])c5[H])c(C(=O)N([H])[H])c4N([H])[H])C3([H])[H])c([H])c2[H])c([H])c(C([H])([H])Oc2c([H])c([H])c3c(c2[H])C([H])([H])N(C(=O)C([H])(N([H])C(=O)C([H])(N([H])C([H])([H])[H])C([H])([H])[H])C(C([H])([H])[H])(C([H])([H])[H])C([H])([H])[H])C([H])(C(=O)N([H])C2([H])c4c([H])c([H])c([H])c([H])c4C([H])([H])C([H])([H])C2([H])[H])C3([H])[H])c1[H]

>  <smiles>  (58) 
[H]c1c([H])c(N([H])C(=O)c2c([H])c([H])c(N([H])C(=O)N3C([H])([H])C([H])([H])C([H])([H])C([H])(n4nc(-c5c([H])c([H])c(Oc6c([H])c([H])c(F)c([H])c6F)c([H])c5[H])c(C(=O)N([H])[H])c4N([H])[H])C3([H])[H])c([H])c2[H])c([H])c(C([H])([H])Oc2c([H])c([H])c3c(c2[H])C([H])([H])N(C(=O)C([H])(N([H])C(=O)C([H])(N([H])C([H])([H])[H])C([H])([H])[H])C(C([H])([H])[H])(C([H])([H])[H])C([H])([H])[H])C([H])(C(=O)N([H])C2([H])c4c([H])c([H])c([H])c([H])c4C([H])([H])C([H])([H])C2([H])[H])C3([H])[H])c1[H]

$$$$
58:0:0
     RDKit          3D

 97105  0  0  1  0  0  0  0  0999 V2000
  -28.1620  -22.2390   22.0560 C   0  0  0  0  0  1  0  0  0  0  0  0
  -28.8930  -22.7410   20.7800 C   0  0  2  0  0  0  0  0  0  0  0  0
  -27.9600  -23.9420   20.2310 C   0  0  0  0  0  0  0  0  0  0  0  0
  -26.7370  -23.8320   20.3610 O   0  0  0  0  0  0  0  0  0  0  0  0
  -28.4730  -25.2160   19.4440 C   0  0  0  0  0  2  0  0  0  0  0  0
  -28.3940  -26.5360   20.1210 O   0  0  0  0  0  0  0  0  0  0  0  0
  -24.6560  -31.8550   23.2210 C   0  0  0  0  0  0  0  0  0  0  0  0
  -27.2560  -27.3520   20.0730 C   0  0  0  0  0  0  0  0  0  0  0  0
  -23.4440  -30.4680   21.5790 C   0  0  0  0  0  3  0  0  0  0  0  0
  -24.8840  -28.9480   20.1150 C   0  0  0  0  0  0  0  0  0  0  0  0
  -25.9780  -30.8040   21.3720 C   0  0  0  0  0  2  0  0  0  0  0  0
  -26.0540  -29.4350   20.7070 C   0  0  0  0  0  0  0  0  0  0  0  0
  -27.2390  -28.6440   20.6870 C   0  0  0  0  0  3  0  0  0  0  0  0
  -26.0610  -26.9150   19.4610 C   0  0  0  0  0  3  0  0  0  0  0  0
  -24.8880  -27.6930   19.4860 C   0  0  0  0  0  3  0  0  0  0  0  0
  -23.6440  -29.8150   20.1870 C   0  0  0  0  0  2  0  0  0  0  0  0
  -24.7120  -31.0610   22.1120 N   0  0  0  0  0  0  0  0  0  0  0  0
  -23.5760  -32.1200   23.7680 O   0  0  0  0  0  0  0  0  0  0  0  0
  -22.8000  -29.4350   22.5320 C   0  0  0  0  0  0  0  0  0  0  0  0
  -21.4760  -29.2420   22.4100 N   0  0  0  0  0  0  0  0  0  0  0  0
  -23.4900  -28.8100   23.3440 O   0  0  0  0  0  0  0  0  0  0  0  0
  -20.9810  -29.7950   21.7240 H   0  0  0  0  0  0  0  0  0  0  0  0
  -18.1130  -28.0110   22.9100 C   0  0  0  0  0  0  0  0  0  0  0  0
  -20.6710  -28.2920   23.1750 C   0  0  0  0  0  3  0  0  0  0  0  0
  -20.7850  -26.8680   22.5840 C   0  0  0  0  0  2  0  0  0  0  0  0
  -19.6810  -26.5450   21.5720 C   0  0  0  0  0  2  0  0  0  0  0  0
  -18.3000  -26.6690   22.2230 C   0  0  0  0  0  2  0  0  0  0  0  0
  -19.2270  -28.7790   23.3430 C   0  0  0  0  0  0  0  0  0  0  0  0
  -18.9990  -30.0350   23.9470 C   0  0  0  0  0  3  0  0  0  0  0  0
  -17.6900  -30.5200   24.1300 C   0  0  0  0  0  3  0  0  0  0  0  0
  -16.5910  -29.7480   23.7130 C   0  0  0  0  0  3  0  0  0  0  0  0
  -16.8040  -28.4980   23.1070 C   0  0  0  0  0  3  0  0  0  0  0  0
  -25.9410  -32.4850   23.8400 C   0  0  0  0  0  3  0  0  0  0  0  0
  -25.6280  -33.8790   24.1800 N   0  0  0  0  0  0  0  0  0  0  0  0
  -25.9570  -34.9390   23.4300 C   0  0  0  0  0  0  0  0  0  0  0  0
  -26.6270  -34.8450   22.3970 O   0  0  0  0  0  0  0  0  0  0  0  0
  -25.0290  -34.0260   24.9790 H   0  0  0  0  0  0  0  0  0  0  0  0
  -24.2300  -36.7340   23.0910 C   0  0  0  0  0  1  0  0  0  0  0  0
  -25.4700  -36.3220   23.9010 C   0  0  0  0  0  3  0  0  0  0  0  0
  -27.6010  -37.2040   24.7430 C   0  0  0  0  0  1  0  0  0  0  0  0
  -26.5010  -37.3780   23.7990 N   0  0  0  0  0  0  0  0  0  0  0  0
  -26.0920  -38.2960   23.9510 H   0  0  0  0  0  0  0  0  0  0  0  0
  -26.4640  -31.7060   25.1100 C   0  0  1  0  0  0  0  0  0  0  0  0
  -25.3750  -31.4620   26.1820 C   0  0  0  0  0  1  0  0  0  0  0  0
  -27.0520  -30.3330   24.7070 C   0  0  0  0  0  1  0  0  0  0  0  0
  -27.6130  -32.5020   25.7700 C   0  0  0  0  0  1  0  0  0  0  0  0
  -29.0840  -21.5720   19.8230 N   0  0  0  0  0  0  0  0  0  0  0  0
  -28.4250  -21.6590   19.0510 H   0  0  0  0  0  0  0  0  0  0  0  0
  -28.7160  -17.9240   20.9950 C   0  0  0  0  0  3  0  0  0  0  0  0
  -30.7010  -18.0810   19.6720 C   0  0  0  0  0  3  0  0  0  0  0  0
  -28.4920  -19.3280   20.8530 C   0  0  0  0  0  3  0  0  0  0  0  0
  -30.4680  -19.4900   19.5240 C   0  0  0  0  0  3  0  0  0  0  0  0
  -29.8150  -17.2390   20.4010 C   0  0  0  0  0  0  0  0  0  0  0  0
  -29.3590  -20.1750   20.1110 C   0  0  0  0  0  0  0  0  0  0  0  0
  -30.6820  -14.7660   20.0330 C   0  0  0  0  0  0  0  0  0  0  0  0
  -30.4730  -12.5290   18.9370 C   0  0  0  0  0  2  0  0  0  0  0  0
  -29.4660  -12.6770   17.7720 C   0  0  0  0  0  2  0  0  0  0  0  0
  -28.0160  -12.4940   18.2690 C   0  0  0  0  0  2  0  0  0  0  0  0
  -27.7200  -13.3200   19.5490 C   0  0  0  0  0  3  0  0  0  0  0  0
  -28.8320  -13.1350   20.6070 C   0  0  0  0  0  2  0  0  0  0  0  0
  -30.1060  -13.5170   19.9760 N   0  0  0  0  0  0  0  0  0  0  0  0
  -31.8030  -14.9640   19.5480 O   0  0  0  0  0  0  0  0  0  0  0  0
  -29.8920  -15.7700   20.5490 N   0  0  0  0  0  0  0  0  0  0  0  0
  -29.0980  -15.3790   21.0310 H   0  0  0  0  0  0  0  0  0  0  0  0
  -25.3630  -13.9060   20.3930 C   0  0  0  0  0  0  0  0  0  0  0  0
  -24.3130  -13.1270   20.7970 C   0  0  0  0  0  0  0  0  0  0  0  0
  -24.7690  -11.7750   20.7100 C   0  0  0  0  0  0  0  0  0  0  0  0
  -26.3930  -13.0300   20.0880 N   0  0  0  0  0  0  0  0  0  0  0  0
  -26.0420  -11.7420   20.3360 N   0  0  0  0  0  0  0  0  0  0  0  0
  -24.0470  -10.5110   20.9100 C   0  0  0  0  0  0  0  0  0  0  0  0
  -24.4730   -9.5610   21.8640 C   0  0  0  0  0  3  0  0  0  0  0  0
  -23.7530   -8.3600   22.0500 C   0  0  0  0  0  3  0  0  0  0  0  0
  -22.5940   -8.1020   21.2810 C   0  0  0  0  0  0  0  0  0  0  0  0
  -22.1870   -9.0410   20.3180 C   0  0  0  0  0  3  0  0  0  0  0  0
  -22.9070  -10.2330   20.1300 C   0  0  0  0  0  3  0  0  0  0  0  0
  -21.8470   -6.9510   21.3730 O   0  0  0  0  0  0  0  0  0  0  0  0
  -21.7220   -6.2690   22.5570 C   0  0  0  0  0  0  0  0  0  0  0  0
  -21.1980   -6.8790   23.7180 C   0  0  0  0  0  3  0  0  0  0  0  0
  -21.0190   -6.1200   24.8910 C   0  0  0  0  0  3  0  0  0  0  0  0
  -21.3570   -4.7540   24.9070 C   0  0  0  0  0  0  0  0  0  0  0  0
  -21.8770   -4.1440   23.7520 C   0  0  0  0  0  3  0  0  0  0  0  0
  -22.0550   -4.9000   22.5790 C   0  0  0  0  0  0  0  0  0  0  0  0
  -22.5360   -4.3010   21.4630 F   0  0  0  0  0  0  0  0  0  0  0  0
  -21.1790   -4.0230   26.0340 F   0  0  0  0  0  0  0  0  0  0  0  0
  -22.9320  -13.6030   21.1470 C   0  0  0  0  0  0  0  0  0  0  0  0
  -22.2440  -12.8870   22.0300 N   0  0  0  0  0  0  0  0  0  0  0  0
  -22.4730  -14.6410   20.6730 O   0  0  0  0  0  0  0  0  0  0  0  0
  -22.6300  -12.0470   22.4360 H   0  0  0  0  0  0  0  0  0  0  0  0
  -21.3190  -13.1840   22.3070 H   0  0  0  0  0  0  0  0  0  0  0  0
  -25.5240  -15.2800   20.2400 N   0  0  0  0  0  0  0  0  0  0  0  0
  -24.7590  -15.9270   20.3960 H   0  0  0  0  0  0  0  0  0  0  0  0
  -26.3480  -15.7260   19.8560 H   0  0  0  0  0  0  0  0  0  0  0  0
  -30.2610  -23.3300   21.2680 C   0  0  0  0  0  2  0  0  0  0  0  0
  -32.0190  -24.4740   19.9170 C   0  0  0  0  0  1  0  0  0  0  0  0
  -32.3650  -22.1800   20.6810 C   0  0  0  0  0  1  0  0  0  0  0  0
  -31.3590  -23.1910   20.2780 N   0  0  1  0  0  4  0  0  0  0  0  0
  -30.8960  -22.8130   19.4600 H   0  0  0  0  0  0  0  0  0  0  0  0
  2 93  1  0
  2  1  1  1
  3  4  2  0
  3  2  1  0
  5  6  1  0
  5  3  1  0
  7 18  2  0
  8  6  1  0
  8 13  1  0
  9 17  1  0
  9 19  1  0
 10 16  1  0
 10 12  1  0
 11 17  1  0
 12 11  1  0
 13 12  2  0
 14 15  1  0
 14  8  2  0
 15 10  2  0
 16  9  1  0
 17  7  1  0
 19 21  2  0
 20 19  1  0
 22 20  1  0
 23 32  2  0
 23 28  1  0
 24 20  1  0
 24 28  1  0
 25 24  1  0
 26 27  1  0
 26 25  1  0
 27 23  1  0
 28 29  2  0
 29 30  1  0
 31 30  2  0
 32 31  1  0
 33  7  1  0
 33 34  1  0
 33 43  1  0
 34 37  1  0
 35 39  1  0
 35 34  1  0
 36 35  2  0
 39 38  1  0
 41 39  1  0
 41 42  1  0
 41 40  1  0
 43 46  1  1
 43 44  1  0
 45 43  1  0
 47 54  1  0
 47  2  1  0
 48 47  1  0
 50 53  1  0
 51 49  1  0
 52 50  2  0
 52 54  1  0
 53 63  1  0
 53 49  2  0
 54 51  2  0
 55 63  1  0
 56 61  1  0
 57 58  1  0
 57 56  1  0
 59 58  1  0
 59 68  1  0
 59 60  1  0
 61 55  1  0
 61 60  1  0
 62 55  2  0
 63 64  1  0
 65 66  2  0
 66 85  1  0
 67 66  1  0
 67 70  1  0
 68 69  1  0
 68 65  1  0
 69 67  2  0
 70 71  1  0
 71 72  2  0
 73 76  1  0
 73 72  1  0
 74 73  2  0
 75 74  1  0
 75 70  2  0
 76 77  1  0
 77 82  2  0
 77 78  1  0
 78 79  2  0
 79 80  1  0
 80 84  1  0
 81 80  2  0
 82 81  1  0
 83 82  1  0
 85 86  1  0
 86 89  1  0
 86 88  1  0
 87 85  2  0
 90 65  1  0
 90 91  1  0
 92 90  1  0
 94 96  1  0
 96 95  1  0
 96 93  1  0
 96 97  1  6
M  ISO  4   5 101   6 101  55 100  63 100
M  END
>  <TORSDO>  (59) 
F 22

>  <SCORE>  (59) 
-12.618

>  <name>  (59) 
58

>  <ligand_id>  (59) 
58

>  <original_smiles>  (59) 
[H]c1c([H])c([H])c2c(c1[H])C([H])([H])C([H])([H])C([H])([H])C2([H])N([H])C(=O)C1([H])N(C(=O)C([H])(N([H])C(=O)C([H])(N([H])C([H])([H])[H])C([H])([H])[H])C(C([H])([H])[H])(C([H])([H])[H])C([H])([H])[H])C([H])([H])c2c([H])c(OC([H])([H])C(=O)C(N([H])c3c([H])c([H])c(N([H])C(=O)N4C([H])([H])C([H])([H])C([H])([H])C([H])(n5nc(-c6c([H])c([H])c(Oc7c([H])c([H])c(F)c([H])c7F)c([H])c6[H])c(C(=O)N([H])[H])c5N([H])[H])C4([H])[H])c([H])c3[H])(C([H])([H])[H])C([H])([H])[N+]([H])(C([H])([H])[H])C([H])([H])[H])c([H])c([H])c2C1([H])[H]

>  <smiles>  (59) 
[H]c1c([H])c([H])c2c(c1[H])C([H])([H])C([H])([H])C([H])([H])C2([H])N([H])C(=O)C1([H])N(C(=O)C([H])(N([H])C(=O)C([H])(N([H])C([H])([H])[H])C([H])([H])[H])C(C([H])([H])[H])(C([H])([H])[H])C([H])([H])[H])C([H])([H])c2c([H])c(OC([H])([H])C(=O)C(N([H])c3c([H])c([H])c(N([H])C(=O)N4C([H])([H])C([H])([H])C([H])([H])C([H])(n5nc(-c6c([H])c([H])c(Oc7c([H])c([H])c(F)c([H])c7F)c([H])c6[H])c(C(=O)N([H])[H])c5N([H])[H])C4([H])[H])c([H])c3[H])(C([H])([H])[H])C([H])([H])[N+]([H])(C([H])([H])[H])C([H])([H])[H])c([H])c([H])c2C1([H])[H]

$$$$
59:0:0
     RDKit          3D

100109  0  0  1  0  0  0  0  0999 V2000
  -29.8070  -23.2600   20.7370 C   0  0  0  0  0  0  0  0  0  0  0  0
  -29.5750  -21.9320   20.6510 N   0  0  0  0  0  0  0  0  0  0  0  0
  -30.7700  -23.7050   21.3620 O   0  0  0  0  0  0  0  0  0  0  0  0
  -28.7780  -21.6240   20.1100 H   0  0  0  0  0  0  0  0  0  0  0  0
  -30.4140  -20.8630   21.2460 C   0  0  0  0  0  3  0  0  0  0  0  0
  -30.3050  -18.2530   21.1240 C   0  0  0  0  0  3  0  0  0  0  0  0
  -30.4160  -19.5340   19.0580 C   0  0  0  0  0  3  0  0  0  0  0  0
  -30.3660  -17.0950   18.9830 C   0  0  0  0  0  3  0  0  0  0  0  0
  -30.3530  -19.5220   20.4710 C   0  0  0  0  0  0  0  0  0  0  0  0
  -30.3270  -17.0310   20.3960 C   0  0  0  0  0  0  0  0  0  0  0  0
  -30.4130  -18.3350   18.3210 C   0  0  0  0  0  0  0  0  0  0  0  0
  -30.4640  -18.3750   16.9690 F   0  0  0  0  0  0  0  0  0  0  0  0
  -31.0030  -14.6800   20.7870 C   0  0  0  0  0  0  0  0  0  0  0  0
  -30.8070  -12.4170   19.8480 C   0  0  0  0  0  2  0  0  0  0  0  0
  -29.9690  -12.5280   18.5540 C   0  0  0  0  0  2  0  0  0  0  0  0
  -28.4620  -12.4170   18.8700 C   0  0  0  0  0  2  0  0  0  0  0  0
  -28.0230  -13.3400   20.0380 C   0  0  0  0  0  3  0  0  0  0  0  0
  -28.9910  -13.2250   21.2390 C   0  0  0  0  0  2  0  0  0  0  0  0
  -30.3570  -13.4830   20.7560 N   0  0  0  0  0  0  0  0  0  0  0  0
  -32.1790  -14.8120   20.4350 O   0  0  0  0  0  0  0  0  0  0  0  0
  -30.2410  -15.7630   21.0640 N   0  0  0  0  0  0  0  0  0  0  0  0
  -29.3750  -15.5750   21.5470 H   0  0  0  0  0  0  0  0  0  0  0  0
  -25.5950  -13.9970   20.5780 C   0  0  0  0  0  0  0  0  0  0  0  0
  -24.4930  -13.2460   20.8910 C   0  0  0  0  0  0  0  0  0  0  0  0
  -24.9330  -11.8880   20.9160 C   0  0  0  0  0  0  0  0  0  0  0  0
  -26.6380  -13.0960   20.4340 N   0  0  0  0  0  0  0  0  0  0  0  0
  -26.2400  -11.8240   20.6930 N   0  0  0  0  0  0  0  0  0  0  0  0
  -24.1740  -10.6410   21.0790 C   0  0  0  0  0  0  0  0  0  0  0  0
  -24.5360   -9.6800   22.0490 C   0  0  0  0  0  3  0  0  0  0  0  0
  -23.7810   -8.4970   22.2020 C   0  0  0  0  0  3  0  0  0  0  0  0
  -22.6500   -8.2680   21.3830 C   0  0  0  0  0  0  0  0  0  0  0  0
  -22.3060   -9.2170   20.4050 C   0  0  0  0  0  3  0  0  0  0  0  0
  -23.0620  -10.3920   20.2510 C   0  0  0  0  0  3  0  0  0  0  0  0
  -21.8710   -7.1380   21.4440 O   0  0  0  0  0  0  0  0  0  0  0  0
  -21.7410   -6.4130   22.6000 C   0  0  0  0  0  0  0  0  0  0  0  0
  -21.2510   -6.9900   23.7930 C   0  0  0  0  0  3  0  0  0  0  0  0
  -21.0690   -6.1910   24.9390 C   0  0  0  0  0  3  0  0  0  0  0  0
  -21.3650   -4.8160   24.8950 C   0  0  0  0  0  0  0  0  0  0  0  0
  -21.8490   -4.2370   23.7070 C   0  0  0  0  0  3  0  0  0  0  0  0
  -22.0330   -5.0330   22.5640 C   0  0  0  0  0  0  0  0  0  0  0  0
  -22.4760   -4.4670   21.4160 F   0  0  0  0  0  0  0  0  0  0  0  0
  -21.1850   -4.0460   25.9940 F   0  0  0  0  0  0  0  0  0  0  0  0
  -23.0890  -13.7500   21.0600 C   0  0  0  0  0  0  0  0  0  0  0  0
  -22.2960  -13.0900   21.8980 N   0  0  0  0  0  0  0  0  0  0  0  0
  -22.7010  -14.7660   20.4850 O   0  0  0  0  0  0  0  0  0  0  0  0
  -22.6190  -12.2720   22.3930 H   0  0  0  0  0  0  0  0  0  0  0  0
  -21.3480  -13.4060   22.0440 H   0  0  0  0  0  0  0  0  0  0  0  0
  -25.7940  -15.3600   20.3860 N   0  0  0  0  0  0  0  0  0  0  0  0
  -25.0270  -16.0240   20.4200 H   0  0  0  0  0  0  0  0  0  0  0  0
  -26.6720  -15.7870   20.1250 H   0  0  0  0  0  0  0  0  0  0  0  0
  -31.3220  -20.2840   23.6660 C   0  0  0  0  0  2  0  0  0  0  0  0
  -30.7340  -21.6670   23.7640 C   0  0  0  0  0  2  0  0  0  0  0  0
  -30.1830  -20.6850   22.7450 C   0  0  0  0  0  3  0  0  0  0  0  0
  -28.9170  -24.2660   19.9650 C   0  0  0  0  0  3  0  0  0  0  0  0
  -29.7640  -24.8170   18.8930 N   0  0  0  0  0  4  0  0  0  0  0  0
  -30.6050  -25.1790   19.3110 H   0  0  0  0  0  0  0  0  0  0  0  0
  -29.2940  -25.5580   18.4000 H   0  0  0  0  0  0  0  0  0  0  0  0
  -30.0290  -24.0970   18.2450 H   0  0  0  0  0  0  0  0  0  0  0  0
  -28.3820  -25.4350   20.8590 C   0  0  0  0  0  2  0  0  0  0  0  0
  -28.4390  -26.7340   20.2130 O   0  0  0  0  0  0  0  0  0  0  0  0
  -24.5960  -31.9320   23.2640 C   0  0  0  0  0  0  0  0  0  0  0  0
  -27.2750  -27.4770   20.2230 C   0  0  0  0  0  0  0  0  0  0  0  0
  -23.4070  -30.5200   21.6180 C   0  0  0  0  0  3  0  0  0  0  0  0
  -24.8780  -28.9830   20.2050 C   0  0  0  0  0  0  0  0  0  0  0  0
  -25.9340  -30.8880   21.4360 C   0  0  0  0  0  2  0  0  0  0  0  0
  -26.0320  -29.5150   20.7990 C   0  0  0  0  0  0  0  0  0  0  0  0
  -27.2350  -28.7700   20.8000 C   0  0  0  0  0  3  0  0  0  0  0  0
  -26.1070  -26.9650   19.6210 C   0  0  0  0  0  3  0  0  0  0  0  0
  -24.9140  -27.7120   19.6080 C   0  0  0  0  0  3  0  0  0  0  0  0
  -23.6260  -29.8330   20.2420 C   0  0  0  0  0  2  0  0  0  0  0  0
  -24.6650  -31.1280   22.1640 N   0  0  0  0  0  0  0  0  0  0  0  0
  -23.5110  -32.2000   23.7980 O   0  0  0  0  0  0  0  0  0  0  0  0
  -22.7530  -29.5000   22.5790 C   0  0  0  0  0  0  0  0  0  0  0  0
  -21.4320  -29.3010   22.4380 N   0  0  0  0  0  0  0  0  0  0  0  0
  -23.4330  -28.8870   23.4060 O   0  0  0  0  0  0  0  0  0  0  0  0
  -20.9420  -29.8460   21.7430 H   0  0  0  0  0  0  0  0  0  0  0  0
  -18.0760  -28.0350   22.8660 C   0  0  0  0  0  0  0  0  0  0  0  0
  -20.6180  -28.3580   23.2050 C   0  0  0  0  0  3  0  0  0  0  0  0
  -20.7700  -26.9190   22.6610 C   0  0  0  0  0  2  0  0  0  0  0  0
  -19.7070  -26.5490   21.6220 C   0  0  0  0  0  2  0  0  0  0  0  0
  -18.3040  -26.6750   22.2240 C   0  0  0  0  0  2  0  0  0  0  0  0
  -19.1640  -28.8310   23.3120 C   0  0  0  0  0  0  0  0  0  0  0  0
  -18.8990  -30.1010   23.8690 C   0  0  0  0  0  3  0  0  0  0  0  0
  -17.5800  -30.5760   23.9850 C   0  0  0  0  0  3  0  0  0  0  0  0
  -16.5060  -29.7770   23.5580 C   0  0  0  0  0  3  0  0  0  0  0  0
  -16.7540  -28.5070   23.0050 C   0  0  0  0  0  3  0  0  0  0  0  0
  -25.8760  -32.5730   23.8890 C   0  0  0  0  0  3  0  0  0  0  0  0
  -25.5600  -33.9720   24.2050 N   0  0  0  0  0  0  0  0  0  0  0  0
  -25.8980  -35.0200   23.4410 C   0  0  0  0  0  0  0  0  0  0  0  0
  -26.5780  -34.9110   22.4170 O   0  0  0  0  0  0  0  0  0  0  0  0
  -24.9580  -34.1300   25.0000 H   0  0  0  0  0  0  0  0  0  0  0  0
  -24.1670  -36.8040   23.0600 C   0  0  0  0  0  1  0  0  0  0  0  0
  -25.4030  -36.4100   23.8840 C   0  0  0  0  0  3  0  0  0  0  0  0
  -27.5290  -37.3070   24.7230 C   0  0  0  0  0  1  0  0  0  0  0  0
  -26.4330  -37.4660   23.7710 N   0  0  0  0  0  0  0  0  0  0  0  0
  -26.0230  -38.3840   23.9130 H   0  0  0  0  0  0  0  0  0  0  0  0
  -26.3900  -31.8140   25.1720 C   0  0  1  0  0  0  0  0  0  0  0  0
  -25.2920  -31.5760   26.2340 C   0  0  0  0  0  1  0  0  0  0  0  0
  -26.9830  -30.4380   24.7920 C   0  0  0  0  0  1  0  0  0  0  0  0
  -27.5320  -32.6190   25.8360 C   0  0  0  0  0  1  0  0  0  0  0  0
  1  3  2  0
  2  1  1  0
  4  2  1  0
  5  2  1  0
  5 53  1  0
  7  9  2  0
  8 10  1  0
  9  6  1  0
  9  5  1  0
 10 21  1  0
 10  6  2  0
 11  8  2  0
 11  7  1  0
 12 11  1  0
 13 21  1  0
 14 19  1  0
 15 16  1  0
 15 14  1  0
 17 16  1  0
 17 26  1  0
 17 18  1  0
 19 13  1  0
 19 18  1  0
 20 13  2  0
 21 22  1  0
 23 24  2  0
 24 25  1  0
 24 43  1  0
 25 28  1  0
 26 23  1  0
 26 27  1  0
 27 25  2  0
 28 29  1  0
 29 30  2  0
 31 34  1  0
 31 30  1  0
 32 31  2  0
 33 32  1  0
 33 28  2  0
 34 35  1  0
 35 36  1  0
 36 37  2  0
 38 37  1  0
 38 42  1  0
 39 38  2  0
 40 35  2  0
 40 39  1  0
 41 40  1  0
 43 44  1  0
 44 47  1  0
 44 46  1  0
 45 43  2  0
 48 49  1  0
 48 23  1  0
 50 48  1  0
 51 52  1  0
 53 51  1  0
 53 52  1  0
 54  1  1  0
 54 59  1  0
 55 56  1  0
 55 54  1  0
 57 55  1  0
 58 55  1  0
 60 62  1  0
 60 59  1  0
 61 72  2  0
 62 67  1  0
 63 71  1  0
 63 73  1  0
 64 70  1  0
 64 66  1  0
 65 71  1  0
 66 67  2  0
 66 65  1  0
 68 62  2  0
 69 68  1  0
 69 64  2  0
 70 63  1  0
 71 61  1  0
 73 75  2  0
 74 73  1  0
 76 74  1  0
 77 86  2  0
 77 82  1  0
 78 74  1  0
 78 82  1  0
 79 78  1  0
 80 81  1  0
 80 79  1  0
 81 77  1  0
 82 83  2  0
 83 84  1  0
 85 84  2  0
 86 85  1  0
 87 61  1  0
 87 88  1  0
 87 97  1  0
 88 91  1  0
 89 93  1  0
 89 88  1  0
 90 89  2  0
 93 92  1  0
 95 93  1  0
 95 96  1  0
 95 94  1  0
 97100  1  1
 97 98  1  0
 99 97  1  0
M  ISO  4  13 100  21 100  59 101  60 101
M  END
>  <TORSDO>  (60) 
F 22

>  <SCORE>  (60) 
-13.674

>  <name>  (60) 
59

>  <ligand_id>  (60) 
59

>  <original_smiles>  (60) 
[H]c1c([H])c([H])c2c(c1[H])C([H])([H])C([H])([H])C([H])([H])C2([H])N([H])C(=O)C1([H])N(C(=O)C([H])(N([H])C(=O)C([H])(N([H])C([H])([H])[H])C([H])([H])[H])C(C([H])([H])[H])(C([H])([H])[H])C([H])([H])[H])C([H])([H])c2c([H])c(OC([H])([H])C([H])(C(=O)N([H])C([H])(c3c([H])c(F)c([H])c(N([H])C(=O)N4C([H])([H])C([H])([H])C([H])([H])C([H])(n5nc(-c6c([H])c([H])c(Oc7c([H])c([H])c(F)c([H])c7F)c([H])c6[H])c(C(=O)N([H])[H])c5N([H])[H])C4([H])[H])c3[H])C3([H])C([H])([H])C3([H])[H])[N+]([H])([H])[H])c([H])c([H])c2C1([H])[H]

>  <smiles>  (60) 
[H]c1c([H])c([H])c2c(c1[H])C([H])([H])C([H])([H])C([H])([H])C2([H])N([H])C(=O)C1([H])N(C(=O)C([H])(N([H])C(=O)C([H])(N([H])C([H])([H])[H])C([H])([H])[H])C(C([H])([H])[H])(C([H])([H])[H])C([H])([H])[H])C([H])([H])c2c([H])c(OC([H])([H])C([H])(C(=O)N([H])C([H])(c3c([H])c(F)c([H])c(N([H])C(=O)N4C([H])([H])C([H])([H])C([H])([H])C([H])(n5nc(-c6c([H])c([H])c(Oc7c([H])c([H])c(F)c([H])c7F)c([H])c6[H])c(C(=O)N([H])[H])c5N([H])[H])C4([H])[H])c3[H])C3([H])C([H])([H])C3([H])[H])[N+]([H])([H])[H])c([H])c([H])c2C1([H])[H]

$$$$
60:0:0
     RDKit          3D

 97106  0  0  1  0  0  0  0  0999 V2000
  -29.3250  -23.7510   20.0600 C   0  0  0  0  0  0  0  0  0  0  0  0
  -27.9870  -20.3700   20.9960 C   0  0  0  0  0  2  0  0  0  0  0  0
  -29.2530  -20.3340   18.9440 C   0  0  0  0  0  2  0  0  0  0  0  0
  -28.6910  -21.6880   21.4130 C   0  0  0  0  0  2  0  0  0  0  0  0
  -30.1470  -21.4860   19.4410 C   0  0  0  0  0  2  0  0  0  0  0  0
  -28.8030  -19.5520   20.0980 N   0  0  0  0  0  0  0  0  0  0  0  0
  -29.3730  -22.4030   20.3050 N   0  0  0  0  0  0  0  0  0  0  0  0
  -29.6070  -24.1850   18.9380 O   0  0  0  0  0  0  0  0  0  0  0  0
  -30.9100  -17.3130   22.3030 C   0  0  0  0  0  3  0  0  0  0  0  0
  -30.1730  -18.4340   21.8620 C   0  0  0  0  0  3  0  0  0  0  0  0
  -31.1070  -16.2020   21.4580 C   0  0  0  0  0  3  0  0  0  0  0  0
  -29.7700  -17.3150   19.7620 C   0  0  0  0  0  3  0  0  0  0  0  0
  -29.5750  -18.4540   20.5750 C   0  0  0  0  0  0  0  0  0  0  0  0
  -30.5660  -16.2050   20.1510 C   0  0  0  0  0  0  0  0  0  0  0  0
  -31.5440  -14.0360   19.4590 C   0  0  0  0  0  0  0  0  0  0  0  0
  -30.9930  -11.7860   18.6670 C   0  0  0  0  0  2  0  0  0  0  0  0
  -29.9680  -11.9140   17.5190 C   0  0  0  0  0  2  0  0  0  0  0  0
  -28.5300  -11.9700   18.0710 C   0  0  0  0  0  2  0  0  0  0  0  0
  -28.3630  -12.9800   19.2400 C   0  0  0  0  0  3  0  0  0  0  0  0
  -29.4960  -12.8340   20.2810 C   0  0  0  0  0  2  0  0  0  0  0  0
  -30.7790  -12.9200   19.5730 N   0  0  0  0  0  0  0  0  0  0  0  0
  -32.7240  -14.0090   19.0970 O   0  0  0  0  0  0  0  0  0  0  0  0
  -30.7970  -15.5280   17.7730 C   0  0  0  0  0  1  0  0  0  0  0  0
  -30.8210  -15.1520   19.1980 N   0  0  0  0  0  0  0  0  0  0  0  0
  -26.1670  -13.8820   20.2240 C   0  0  0  0  0  0  0  0  0  0  0  0
  -25.0370  -13.2480   20.6750 C   0  0  0  0  0  0  0  0  0  0  0  0
  -25.2970  -11.8480   20.5540 C   0  0  0  0  0  0  0  0  0  0  0  0
  -27.0430  -12.8730   19.8550 N   0  0  0  0  0  0  0  0  0  0  0  0
  -26.5320  -11.6430   20.1130 N   0  0  0  0  0  0  0  0  0  0  0  0
  -24.4220  -10.6910   20.7770 C   0  0  0  0  0  0  0  0  0  0  0  0
  -24.8020   -9.6320   21.6300 C   0  0  0  0  0  3  0  0  0  0  0  0
  -23.9370   -8.5360   21.8390 C   0  0  0  0  0  3  0  0  0  0  0  0
  -22.6750   -8.4950   21.1990 C   0  0  0  0  0  0  0  0  0  0  0  0
  -22.3120   -9.5410   20.3320 C   0  0  0  0  0  3  0  0  0  0  0  0
  -23.1760  -10.6280   20.1200 C   0  0  0  0  0  3  0  0  0  0  0  0
  -21.7800   -7.4590   21.3260 O   0  0  0  0  0  0  0  0  0  0  0  0
  -21.6650   -6.7460   22.4920 C   0  0  0  0  0  0  0  0  0  0  0  0
  -21.3650   -7.3720   23.7230 C   0  0  0  0  0  3  0  0  0  0  0  0
  -21.1880   -6.5920   24.8840 C   0  0  0  0  0  3  0  0  0  0  0  0
  -21.2990   -5.1910   24.8160 C   0  0  0  0  0  0  0  0  0  0  0  0
  -21.5900   -4.5660   23.5910 C   0  0  0  0  0  3  0  0  0  0  0  0
  -21.7710   -5.3420   22.4310 C   0  0  0  0  0  0  0  0  0  0  0  0
  -22.0310   -4.7320   21.2500 F   0  0  0  0  0  0  0  0  0  0  0  0
  -21.1190   -4.4410   25.9290 F   0  0  0  0  0  0  0  0  0  0  0  0
  -23.7560  -13.9000   21.1060 C   0  0  0  0  0  0  0  0  0  0  0  0
  -23.0770  -13.3220   22.0910 N   0  0  0  0  0  0  0  0  0  0  0  0
  -23.3720  -14.9540   20.6030 O   0  0  0  0  0  0  0  0  0  0  0  0
  -23.3980  -12.4640   22.5150 H   0  0  0  0  0  0  0  0  0  0  0  0
  -22.2210  -13.7420   22.4240 H   0  0  0  0  0  0  0  0  0  0  0  0
  -26.5190  -15.2180   20.0730 N   0  0  0  0  0  0  0  0  0  0  0  0
  -25.8930  -15.9890   20.2810 H   0  0  0  0  0  0  0  0  0  0  0  0
  -27.4200  -15.5210   19.7230 H   0  0  0  0  0  0  0  0  0  0  0  0
  -28.4760  -25.8680   21.0530 C   0  0  0  0  0  3  0  0  0  0  0  0
  -29.0460  -24.6490   21.2050 C   0  0  0  0  0  0  0  0  0  0  0  0
  -29.3850  -24.2980   22.4550 O   0  0  0  0  0  0  0  0  0  0  0  0
  -29.1090  -24.9980   23.0310 H   0  0  0  0  0  0  0  0  0  0  0  0
  -28.1030  -26.4340   19.8680 O   0  0  0  0  0  0  0  0  0  0  0  0
  -24.4020  -31.7040   22.9670 C   0  0  0  0  0  0  0  0  0  0  0  0
  -26.9780  -27.2180   19.9100 C   0  0  0  0  0  0  0  0  0  0  0  0
  -23.1740  -30.3020   21.3380 C   0  0  0  0  0  3  0  0  0  0  0  0
  -24.6030  -28.7340   19.9240 C   0  0  0  0  0  0  0  0  0  0  0  0
  -25.6980  -30.6330   21.1270 C   0  0  0  0  0  2  0  0  0  0  0  0
  -25.7670  -29.2550   20.5070 C   0  0  0  0  0  0  0  0  0  0  0  0
  -26.9610  -28.5010   20.5020 C   0  0  0  0  0  3  0  0  0  0  0  0
  -25.8040  -26.7070   19.3260 C   0  0  0  0  0  3  0  0  0  0  0  0
  -24.6150  -27.4600   19.3310 C   0  0  0  0  0  3  0  0  0  0  0  0
  -23.3720  -29.6100   19.9620 C   0  0  0  0  0  2  0  0  0  0  0  0
  -24.4430  -30.8930   21.8720 N   0  0  0  0  0  0  0  0  0  0  0  0
  -23.3260  -31.9960   23.5070 O   0  0  0  0  0  0  0  0  0  0  0  0
  -22.5120  -29.2970   22.3080 C   0  0  0  0  0  0  0  0  0  0  0  0
  -21.1770  -29.1760   22.2270 N   0  0  0  0  0  0  0  0  0  0  0  0
  -23.1960  -28.6310   23.0900 O   0  0  0  0  0  0  0  0  0  0  0  0
  -20.6890  -29.7750   21.5750 H   0  0  0  0  0  0  0  0  0  0  0  0
  -17.7660  -28.1780   22.8680 C   0  0  0  0  0  0  0  0  0  0  0  0
  -20.3450  -28.2640   23.0100 C   0  0  0  0  0  3  0  0  0  0  0  0
  -20.3230  -26.8490   22.3860 C   0  0  0  0  0  2  0  0  0  0  0  0
  -19.1520  -26.6300   21.4230 C   0  0  0  0  0  2  0  0  0  0  0  0
  -17.8190  -26.8420   22.1460 C   0  0  0  0  0  2  0  0  0  0  0  0
  -18.9530  -28.8520   23.2600 C   0  0  0  0  0  0  0  0  0  0  0  0
  -18.8490  -30.1060   23.9010 C   0  0  0  0  0  3  0  0  0  0  0  0
  -17.5900  -30.6860   24.1490 C   0  0  0  0  0  3  0  0  0  0  0  0
  -16.4190  -30.0050   23.7760 C   0  0  0  0  0  3  0  0  0  0  0  0
  -16.5070  -28.7530   23.1410 C   0  0  0  0  0  3  0  0  0  0  0  0
  -25.6990  -32.3230   23.5750 C   0  0  0  0  0  3  0  0  0  0  0  0
  -26.2580  -31.5070   24.8030 C   0  0  1  0  0  0  0  0  0  0  0  0
  -25.1960  -31.2050   25.8840 C   0  0  0  0  0  1  0  0  0  0  0  0
  -26.8490  -30.1570   24.3320 C   0  0  0  0  0  1  0  0  0  0  0  0
  -27.4160  -32.2870   25.4690 C   0  0  0  0  0  1  0  0  0  0  0  0
  -25.3920  -33.7050   23.9650 N   0  0  0  0  0  0  0  0  0  0  0  0
  -25.7670  -34.7920   23.2770 C   0  0  0  0  0  0  0  0  0  0  0  0
  -26.4810  -34.7340   22.2710 O   0  0  0  0  0  0  0  0  0  0  0  0
  -24.7590  -33.8270   24.7420 H   0  0  0  0  0  0  0  0  0  0  0  0
  -24.1390  -36.6680   22.8710 C   0  0  0  0  0  1  0  0  0  0  0  0
  -25.2690  -36.1600   23.7810 C   0  0  0  0  0  3  0  0  0  0  0  0
  -27.3170  -36.9060   24.9120 C   0  0  0  0  0  1  0  0  0  0  0  0
  -26.3350  -37.1810   23.8680 N   0  0  0  0  0  0  0  0  0  0  0  0
  -25.9380  -38.1000   24.0430 H   0  0  0  0  0  0  0  0  0  0  0  0
  1  7  1  0
  1 54  1  0
  2  4  1  0
  3  5  1  0
  3  6  1  0
  5  7  1  0
  6 13  1  0
  6  2  1  0
  7  4  1  0
  8  1  2  0
 10  9  1  0
 11  9  2  0
 12 14  2  0
 12 13  1  0
 13 10  2  0
 14 11  1  0
 15 21  1  0
 16 21  1  0
 17 18  1  0
 17 16  1  0
 19 18  1  0
 19 28  1  0
 19 20  1  0
 21 20  1  0
 22 15  2  0
 23 24  1  0
 24 15  1  0
 24 14  1  0
 25 26  2  0
 26 45  1  0
 27 26  1  0
 27 30  1  0
 28 29  1  0
 28 25  1  0
 29 27  2  0
 30 31  1  0
 31 32  2  0
 33 36  1  0
 33 32  1  0
 34 33  2  0
 35 34  1  0
 35 30  2  0
 36 37  1  0
 37 38  1  0
 38 39  2  0
 40 39  1  0
 40 44  1  0
 41 40  2  0
 42 37  2  0
 42 41  1  0
 43 42  1  0
 45 46  1  0
 46 49  1  0
 46 48  1  0
 47 45  2  0
 50 25  1  0
 50 51  1  0
 52 50  1  0
 53 54  2  0
 54 55  1  0
 55 56  1  0
 57 59  1  0
 57 53  1  0
 58 69  2  0
 59 64  1  0
 60 68  1  0
 60 70  1  0
 61 67  1  0
 61 63  1  0
 62 68  1  0
 63 62  1  0
 64 63  2  0
 65 66  1  0
 65 59  2  0
 66 61  2  0
 67 60  1  0
 68 58  1  0
 70 72  2  0
 71 70  1  0
 73 71  1  0
 74 83  2  0
 74 79  1  0
 75 71  1  0
 75 79  1  0
 76 75  1  0
 77 78  1  0
 77 76  1  0
 78 74  1  0
 79 80  2  0
 80 81  1  0
 82 81  2  0
 83 82  1  0
 84 58  1  0
 84 89  1  0
 84 85  1  0
 85 88  1  1
 85 86  1  0
 87 85  1  0
 89 92  1  0
 90 94  1  0
 90 89  1  0
 91 90  2  0
 94 93  1  0
 94 96  1  0
 96 97  1  0
 96 95  1  0
M  ISO  4  15 100  24 100  53 101  57 101
M  END
>  <TORSDO>  (61) 
F 19

>  <SCORE>  (61) 
-12.598

>  <name>  (61) 
60

>  <ligand_id>  (61) 
60

>  <original_smiles>  (61) 
[H]OC(C(=O)N1C([H])([H])C([H])([H])N(c2c([H])c([H])c([H])c(N(C(=O)N3C([H])([H])C([H])([H])C([H])([H])C([H])(n4nc(-c5c([H])c([H])c(Oc6c([H])c([H])c(F)c([H])c6F)c([H])c5[H])c(C(=O)N([H])[H])c4N([H])[H])C3([H])[H])C([H])([H])[H])c2[H])C([H])([H])C1([H])[H])=C([H])Oc1c([H])c([H])c2c(c1[H])C([H])([H])N(C(=O)C([H])(N([H])C(=O)C([H])(N([H])C([H])([H])[H])C([H])([H])[H])C(C([H])([H])[H])(C([H])([H])[H])C([H])([H])[H])C([H])(C(=O)N([H])C1([H])c3c([H])c([H])c([H])c([H])c3C([H])([H])C([H])([H])C1([H])[H])C2([H])[H]

>  <smiles>  (61) 
[H]OC(C(=O)N1C([H])([H])C([H])([H])N(c2c([H])c([H])c([H])c(N(C(=O)N3C([H])([H])C([H])([H])C([H])([H])C([H])(n4nc(-c5c([H])c([H])c(Oc6c([H])c([H])c(F)c([H])c6F)c([H])c5[H])c(C(=O)N([H])[H])c4N([H])[H])C3([H])[H])C([H])([H])[H])c2[H])C([H])([H])C1([H])[H])=C([H])Oc1c([H])c([H])c2c(c1[H])C([H])([H])N(C(=O)C([H])(N([H])C(=O)C([H])(N([H])C([H])([H])[H])C([H])([H])[H])C(C([H])([H])[H])(C([H])([H])[H])C([H])([H])[H])C([H])(C(=O)N([H])C1([H])c3c([H])c([H])c([H])c([H])c3C([H])([H])C([H])([H])C1([H])[H])C2([H])[H]

$$$$
61:0:0
     RDKit          3D

101110  0  0  1  0  0  0  0  0999 V2000
  -29.1290  -23.0430   19.1980 C   0  0  0  0  0  0  0  0  0  0  0  0
  -29.5370  -21.0540   15.9800 C   0  0  0  0  0  2  0  0  0  0  0  0
  -30.6510  -20.0160   16.2070 C   0  0  0  0  0  2  0  0  0  0  0  0
  -28.8610  -21.5850   17.2680 C   0  0  0  0  0  2  0  0  0  0  0  0
  -31.8970  -21.2620   18.0560 C   0  0  0  0  0  2  0  0  0  0  0  0
  -31.1350  -22.5840   17.7910 C   0  0  0  0  0  2  0  0  0  0  0  0
  -31.2060  -20.0680   17.5640 N   0  0  0  0  0  0  0  0  0  0  0  0
  -29.7000  -22.4720   18.1110 N   0  0  0  0  0  0  0  0  0  0  0  0
  -28.1670  -22.5110   19.7580 O   0  0  0  0  0  0  0  0  0  0  0  0
  -30.3040  -19.1970   19.6980 C   0  0  0  0  0  3  0  0  0  0  0  0
  -29.9760  -18.0980   20.5260 C   0  0  0  0  0  3  0  0  0  0  0  0
  -31.1700  -17.6810   18.0180 C   0  0  0  0  0  3  0  0  0  0  0  0
  -30.9040  -18.9990   18.4330 C   0  0  0  0  0  0  0  0  0  0  0  0
  -30.2670  -16.7770   20.1140 C   0  0  0  0  0  0  0  0  0  0  0  0
  -30.8570  -16.5840   18.8350 C   0  0  0  0  0  0  0  0  0  0  0  0
  -31.1130  -15.3470   18.3560 F   0  0  0  0  0  0  0  0  0  0  0  0
  -30.7190  -14.5910   21.1080 C   0  0  0  0  0  0  0  0  0  0  0  0
  -30.5690  -12.3330   20.2040 C   0  0  0  0  0  2  0  0  0  0  0  0
  -29.7670  -12.3980   18.8870 C   0  0  0  0  0  2  0  0  0  0  0  0
  -28.2570  -12.2810   19.1570 C   0  0  0  0  0  2  0  0  0  0  0  0
  -27.7640  -13.2250   20.2870 C   0  0  0  0  0  3  0  0  0  0  0  0
  -28.6920  -13.1490   21.5230 C   0  0  0  0  0  2  0  0  0  0  0  0
  -30.0690  -13.4020   21.0750 N   0  0  0  0  0  0  0  0  0  0  0  0
  -31.9430  -14.6990   21.0040 O   0  0  0  0  0  0  0  0  0  0  0  0
  -29.9350  -15.6720   20.9580 N   0  0  0  0  0  0  0  0  0  0  0  0
  -28.9590  -15.5620   21.1830 H   0  0  0  0  0  0  0  0  0  0  0  0
  -25.3020  -13.8310   20.7160 C   0  0  0  0  0  0  0  0  0  0  0  0
  -24.2060  -13.0600   20.9900 C   0  0  0  0  0  0  0  0  0  0  0  0
  -24.6760  -11.7130   21.0560 C   0  0  0  0  0  0  0  0  0  0  0  0
  -26.3720  -12.9540   20.6320 N   0  0  0  0  0  0  0  0  0  0  0  0
  -25.9920  -11.6780   20.8990 N   0  0  0  0  0  0  0  0  0  0  0  0
  -23.9440  -10.4490   21.2060 C   0  0  0  0  0  0  0  0  0  0  0  0
  -24.3070   -9.4970   22.1830 C   0  0  0  0  0  3  0  0  0  0  0  0
  -23.5780   -8.2960   22.3190 C   0  0  0  0  0  3  0  0  0  0  0  0
  -22.4700   -8.0400   21.4750 C   0  0  0  0  0  0  0  0  0  0  0  0
  -22.1280   -8.9810   20.4890 C   0  0  0  0  0  3  0  0  0  0  0  0
  -22.8580  -10.1730   20.3510 C   0  0  0  0  0  3  0  0  0  0  0  0
  -21.7190   -6.8910   21.5180 O   0  0  0  0  0  0  0  0  0  0  0  0
  -21.6100   -6.1440   22.6630 C   0  0  0  0  0  0  0  0  0  0  0  0
  -21.1150   -6.6940   23.8670 C   0  0  0  0  0  3  0  0  0  0  0  0
  -20.9550   -5.8730   25.0010 C   0  0  0  0  0  3  0  0  0  0  0  0
  -21.2790   -4.5040   24.9330 C   0  0  0  0  0  0  0  0  0  0  0  0
  -21.7680   -3.9560   23.7350 C   0  0  0  0  0  3  0  0  0  0  0  0
  -21.9290   -4.7730   22.6030 C   0  0  0  0  0  0  0  0  0  0  0  0
  -22.3800   -4.2350   21.4440 F   0  0  0  0  0  0  0  0  0  0  0  0
  -21.1170   -3.7130   26.0190 F   0  0  0  0  0  0  0  0  0  0  0  0
  -22.7820  -13.5290   21.0860 C   0  0  0  0  0  0  0  0  0  0  0  0
  -21.9690  -12.8570   21.8940 N   0  0  0  0  0  0  0  0  0  0  0  0
  -22.3940  -14.5270   20.4790 O   0  0  0  0  0  0  0  0  0  0  0  0
  -22.2940  -12.0530   22.4090 H   0  0  0  0  0  0  0  0  0  0  0  0
  -21.0100  -13.1530   22.0030 H   0  0  0  0  0  0  0  0  0  0  0  0
  -25.4760  -15.1960   20.5100 N   0  0  0  0  0  0  0  0  0  0  0  0
  -24.6920  -15.8410   20.5070 H   0  0  0  0  0  0  0  0  0  0  0  0
  -26.3480  -15.6320   20.2410 H   0  0  0  0  0  0  0  0  0  0  0  0
  -29.5780  -24.4260   19.7320 C   0  0  0  0  0  3  0  0  0  0  0  0
  -29.9600  -24.3040   21.1520 N   0  0  0  0  0  4  0  0  0  0  0  0
  -30.8440  -23.8320   21.2430 H   0  0  0  0  0  0  0  0  0  0  0  0
  -29.2660  -23.7660   21.6420 H   0  0  0  0  0  0  0  0  0  0  0  0
  -30.0350  -25.2120   21.5750 H   0  0  0  0  0  0  0  0  0  0  0  0
  -28.3580  -25.3600   19.5720 C   0  0  0  0  0  2  0  0  0  0  0  0
  -28.4870  -26.7230   20.0210 O   0  0  0  0  0  0  0  0  0  0  0  0
  -24.5770  -31.8680   23.0970 C   0  0  0  0  0  0  0  0  0  0  0  0
  -27.3080  -27.4590   20.0120 C   0  0  0  0  0  0  0  0  0  0  0  0
  -23.4070  -30.4570   21.4410 C   0  0  0  0  0  3  0  0  0  0  0  0
  -24.8960  -28.9550   20.0270 C   0  0  0  0  0  0  0  0  0  0  0  0
  -25.9370  -30.8450   21.2730 C   0  0  0  0  0  2  0  0  0  0  0  0
  -26.0470  -29.4780   20.6290 C   0  0  0  0  0  0  0  0  0  0  0  0
  -27.2540  -28.7360   20.6270 C   0  0  0  0  0  3  0  0  0  0  0  0
  -26.1240  -26.9720   19.3970 C   0  0  0  0  0  3  0  0  0  0  0  0
  -24.9290  -27.7000   19.4130 C   0  0  0  0  0  3  0  0  0  0  0  0
  -23.6410  -29.7940   20.0610 C   0  0  0  0  0  2  0  0  0  0  0  0
  -24.6580  -31.0710   21.9940 N   0  0  0  0  0  0  0  0  0  0  0  0
  -23.4850  -32.1220   23.6230 O   0  0  0  0  0  0  0  0  0  0  0  0
  -22.7620  -29.4160   22.3870 C   0  0  0  0  0  0  0  0  0  0  0  0
  -21.4340  -29.2540   22.2830 N   0  0  0  0  0  0  0  0  0  0  0  0
  -23.4540  -28.7590   23.1700 O   0  0  0  0  0  0  0  0  0  0  0  0
  -20.9390  -29.8370   21.6210 H   0  0  0  0  0  0  0  0  0  0  0  0
  -18.0440  -28.1430   22.8580 C   0  0  0  0  0  0  0  0  0  0  0  0
  -20.6170  -28.3130   23.0480 C   0  0  0  0  0  3  0  0  0  0  0  0
  -20.6540  -26.9020   22.4140 C   0  0  0  0  0  2  0  0  0  0  0  0
  -19.5060  -26.6520   21.4310 C   0  0  0  0  0  2  0  0  0  0  0  0
  -18.1540  -26.8140   22.1300 C   0  0  0  0  0  2  0  0  0  0  0  0
  -19.2000  -28.8550   23.2750 C   0  0  0  0  0  0  0  0  0  0  0  0
  -19.0420  -30.1020   23.9160 C   0  0  0  0  0  3  0  0  0  0  0  0
  -17.7590  -30.6360   24.1470 C   0  0  0  0  0  3  0  0  0  0  0  0
  -16.6180  -29.9200   23.7460 C   0  0  0  0  0  3  0  0  0  0  0  0
  -16.7620  -28.6760   23.1070 C   0  0  0  0  0  3  0  0  0  0  0  0
  -25.8470  -32.5140   23.7300 C   0  0  0  0  0  3  0  0  0  0  0  0
  -26.3860  -31.7200   24.9830 C   0  0  1  0  0  0  0  0  0  0  0  0
  -25.3010  -31.4260   26.0440 C   0  0  0  0  0  1  0  0  0  0  0  0
  -27.0060  -30.3720   24.5500 C   0  0  0  0  0  1  0  0  0  0  0  0
  -27.5150  -32.5280   25.6650 C   0  0  0  0  0  1  0  0  0  0  0  0
  -25.5020  -33.8940   24.0930 N   0  0  0  0  0  0  0  0  0  0  0  0
  -25.8500  -34.9760   23.3830 C   0  0  0  0  0  0  0  0  0  0  0  0
  -26.5620  -34.9170   22.3780 O   0  0  0  0  0  0  0  0  0  0  0  0
  -24.8710  -34.0120   24.8720 H   0  0  0  0  0  0  0  0  0  0  0  0
  -24.1230  -36.7660   23.0010 C   0  0  0  0  0  1  0  0  0  0  0  0
  -25.3210  -36.3400   23.8660 C   0  0  0  0  0  3  0  0  0  0  0  0
  -27.3980  -37.2080   24.8480 C   0  0  0  0  0  1  0  0  0  0  0  0
  -26.3470  -37.4060   23.8520 N   0  0  0  0  0  0  0  0  0  0  0  0
  -25.9240  -38.3150   24.0150 H   0  0  0  0  0  0  0  0  0  0  0  0
  1 55  1  0
  1  9  2  0
  2  3  1  0
  2  4  1  0
  3  7  1  0
  4  8  1  0
  6  5  1  0
  6  8  1  0
  7  5  1  0
  7 13  1  0
  8  1  1  0
 10 11  1  0
 12 13  1  0
 12 15  2  0
 13 10  2  0
 14 11  2  0
 14 25  1  0
 15 14  1  0
 16 15  1  0
 18 23  1  0
 19 20  1  0
 19 18  1  0
 21 20  1  0
 21 30  1  0
 21 22  1  0
 23 17  1  0
 23 22  1  0
 24 17  2  0
 25 17  1  0
 25 26  1  0
 27 28  2  0
 28 29  1  0
 28 47  1  0
 29 32  1  0
 30 27  1  0
 30 31  1  0
 31 29  2  0
 32 33  1  0
 33 34  2  0
 35 38  1  0
 35 34  1  0
 36 35  2  0
 37 36  1  0
 37 32  2  0
 38 39  1  0
 39 40  1  0
 40 41  2  0
 42 41  1  0
 42 46  1  0
 43 42  2  0
 44 39  2  0
 44 43  1  0
 45 44  1  0
 47 48  1  0
 48 51  1  0
 48 50  1  0
 49 47  2  0
 52 27  1  0
 53 52  1  0
 54 52  1  0
 55 60  1  0
 55 56  1  0
 56 57  1  0
 56 59  1  0
 56 58  1  0
 60 61  1  0
 62 73  2  0
 63 61  1  0
 63 68  1  0
 64 72  1  0
 64 74  1  0
 65 71  1  0
 65 67  1  0
 66 72  1  0
 67 66  1  0
 68 67  2  0
 69 70  1  0
 69 63  2  0
 70 65  2  0
 71 64  1  0
 72 62  1  0
 74 76  2  0
 75 74  1  0
 77 75  1  0
 78 87  2  0
 78 83  1  0
 79 75  1  0
 79 83  1  0
 80 79  1  0
 81 82  1  0
 81 80  1  0
 82 78  1  0
 83 84  2  0
 84 85  1  0
 86 85  2  0
 87 86  1  0
 88 62  1  0
 88 93  1  0
 88 89  1  0
 89 92  1  1
 89 90  1  0
 91 89  1  0
 93 96  1  0
 94 98  1  0
 94 93  1  0
 95 94  2  0
 98 97  1  0
100 98  1  0
100101  1  0
100 99  1  0
M  ISO  4  17 100  25 100  60 101  61 101
M  END
>  <TORSDO>  (62) 
F 20

>  <SCORE>  (62) 
-13.835

>  <name>  (62) 
61

>  <ligand_id>  (62) 
61

>  <original_smiles>  (62) 
[H]c1c([H])c([H])c2c(c1[H])C([H])([H])C([H])([H])C([H])([H])C2([H])N([H])C(=O)C1([H])N(C(=O)C([H])(N([H])C(=O)C([H])(N([H])C([H])([H])[H])C([H])([H])[H])C(C([H])([H])[H])(C([H])([H])[H])C([H])([H])[H])C([H])([H])c2c([H])c(OC([H])([H])C([H])(C(=O)N3C([H])([H])C([H])([H])N(c4c([H])c([H])c(N([H])C(=O)N5C([H])([H])C([H])([H])C([H])([H])C([H])(n6nc(-c7c([H])c([H])c(Oc8c([H])c([H])c(F)c([H])c8F)c([H])c7[H])c(C(=O)N([H])[H])c6N([H])[H])C5([H])[H])c(F)c4[H])C([H])([H])C([H])([H])C3([H])[H])[N+]([H])([H])[H])c([H])c([H])c2C1([H])[H]

>  <smiles>  (62) 
[H]c1c([H])c([H])c2c(c1[H])C([H])([H])C([H])([H])C([H])([H])C2([H])N([H])C(=O)C1([H])N(C(=O)C([H])(N([H])C(=O)C([H])(N([H])C([H])([H])[H])C([H])([H])[H])C(C([H])([H])[H])(C([H])([H])[H])C([H])([H])[H])C([H])([H])c2c([H])c(OC([H])([H])C([H])(C(=O)N3C([H])([H])C([H])([H])N(c4c([H])c([H])c(N([H])C(=O)N5C([H])([H])C([H])([H])C([H])([H])C([H])(n6nc(-c7c([H])c([H])c(Oc8c([H])c([H])c(F)c([H])c8F)c([H])c7[H])c(C(=O)N([H])[H])c6N([H])[H])C5([H])[H])c(F)c4[H])C([H])([H])C([H])([H])C3([H])[H])[N+]([H])([H])[H])c([H])c([H])c2C1([H])[H]

$$$$
62:0:0
     RDKit          3D

 94102  0  0  1  0  0  0  0  0999 V2000
  -30.4440  -18.0130   18.8790 C   0  0  0  0  0  3  0  0  0  0  0  0
  -29.9020  -20.4490   18.7960 C   0  0  0  0  0  3  0  0  0  0  0  0
  -29.2230  -19.0790   20.6710 C   0  0  0  0  0  3  0  0  0  0  0  0
  -30.5020  -19.2830   18.2390 C   0  0  0  0  0  0  0  0  0  0  0  0
  -29.7990  -17.7980   20.1150 C   0  0  0  0  0  0  0  0  0  0  0  0
  -29.2580  -20.4570   20.0490 C   0  0  0  0  0  0  0  0  0  0  0  0
  -30.4930  -15.1150   20.4170 C   0  0  0  0  0  0  0  0  0  0  0  0
  -30.4520  -12.7030   19.5810 C   0  0  0  0  0  2  0  0  0  0  0  0
  -29.5680  -12.5900   18.3160 C   0  0  0  0  0  2  0  0  0  0  0  0
  -28.0940  -12.3680   18.7050 C   0  0  0  0  0  2  0  0  0  0  0  0
  -27.6360  -13.3260   19.8340 C   0  0  0  0  0  3  0  0  0  0  0  0
  -28.6480  -13.3990   20.9980 C   0  0  0  0  0  2  0  0  0  0  0  0
  -29.9290  -13.8290   20.4230 N   0  0  0  0  0  0  0  0  0  0  0  0
  -31.6940  -15.1630   20.1200 O   0  0  0  0  0  0  0  0  0  0  0  0
  -29.7200  -16.3190   20.6220 N   0  0  0  0  0  0  0  0  0  0  0  0
  -28.8520  -16.1160   21.0990 H   0  0  0  0  0  0  0  0  0  0  0  0
  -25.2340  -13.9050   20.4840 C   0  0  0  0  0  0  0  0  0  0  0  0
  -24.1600  -13.1330   20.8320 C   0  0  0  0  0  0  0  0  0  0  0  0
  -24.6290  -11.7830   20.8390 C   0  0  0  0  0  0  0  0  0  0  0  0
  -26.2860  -13.0260   20.2950 N   0  0  0  0  0  0  0  0  0  0  0  0
  -25.9300  -11.7470   20.5740 N   0  0  0  0  0  0  0  0  0  0  0  0
  -23.8990  -10.5220   21.0250 C   0  0  0  0  0  0  0  0  0  0  0  0
  -24.3090   -9.5620   21.9770 C   0  0  0  0  0  3  0  0  0  0  0  0
  -23.5750   -8.3680   22.1520 C   0  0  0  0  0  3  0  0  0  0  0  0
  -22.4190   -8.1260   21.3740 C   0  0  0  0  0  0  0  0  0  0  0  0
  -22.0280   -9.0740   20.4110 C   0  0  0  0  0  3  0  0  0  0  0  0
  -22.7620  -10.2580   20.2350 C   0  0  0  0  0  3  0  0  0  0  0  0
  -21.6600   -6.9840   21.4560 O   0  0  0  0  0  0  0  0  0  0  0  0
  -21.5930   -6.2450   22.6100 C   0  0  0  0  0  0  0  0  0  0  0  0
  -21.1640   -6.8080   23.8310 C   0  0  0  0  0  3  0  0  0  0  0  0
  -21.0430   -5.9970   24.9770 C   0  0  0  0  0  3  0  0  0  0  0  0
  -21.3440   -4.6240   24.9030 C   0  0  0  0  0  0  0  0  0  0  0  0
  -21.7660   -4.0600   23.6860 C   0  0  0  0  0  3  0  0  0  0  0  0
  -21.8870   -4.8690   22.5430 C   0  0  0  0  0  0  0  0  0  0  0  0
  -22.2740   -4.3150   21.3680 F   0  0  0  0  0  0  0  0  0  0  0  0
  -21.2210   -3.8440   26.0010 F   0  0  0  0  0  0  0  0  0  0  0  0
  -22.7540  -13.6100   21.0460 C   0  0  0  0  0  0  0  0  0  0  0  0
  -21.9990  -12.9270   21.8990 N   0  0  0  0  0  0  0  0  0  0  0  0
  -22.3350  -14.6270   20.4940 O   0  0  0  0  0  0  0  0  0  0  0  0
  -22.3530  -12.1030   22.3630 H   0  0  0  0  0  0  0  0  0  0  0  0
  -21.0540  -13.2290   22.0890 H   0  0  0  0  0  0  0  0  0  0  0  0
  -25.4010  -15.2720   20.2850 N   0  0  0  0  0  0  0  0  0  0  0  0
  -24.6250  -15.9230   20.3460 H   0  0  0  0  0  0  0  0  0  0  0  0
  -26.2490  -15.7010   19.9390 H   0  0  0  0  0  0  0  0  0  0  0  0
  -31.2140  -19.3810   16.9230 C   0  0  0  0  0  0  0  0  0  0  0  0
  -31.9290  -20.4800   16.7250 N   0  0  0  0  0  0  0  0  0  0  0  0
  -31.1890  -18.4660   16.1020 O   0  0  0  0  0  0  0  0  0  0  0  0
  -31.9700  -21.1900   17.4410 H   0  0  0  0  0  0  0  0  0  0  0  0
  -32.4650  -20.5960   15.8780 H   0  0  0  0  0  0  0  0  0  0  0  0
  -28.7830  -21.8100   22.0350 C   0  0  0  0  0  1  0  0  0  0  0  0
  -28.8390  -21.8130   20.5780 N   0  0  0  0  0  0  0  0  0  0  0  0
  -28.0900  -23.0700   19.9440 C   0  0  0  0  0  2  0  0  0  0  0  0
  -28.6030  -24.7050   19.7240 C   0  0  0  0  0  2  0  0  0  0  0  0
  -28.3140  -26.1630   20.2850 O   0  0  0  0  0  0  0  0  0  0  0  0
  -24.6510  -31.8700   23.1560 C   0  0  0  0  0  0  0  0  0  0  0  0
  -27.2460  -27.1340   20.1150 C   0  0  0  0  0  0  0  0  0  0  0  0
  -23.4560  -30.4650   21.5200 C   0  0  0  0  0  3  0  0  0  0  0  0
  -24.9070  -28.8890   20.0770 C   0  0  0  0  0  0  0  0  0  0  0  0
  -26.0040  -30.7360   21.3440 C   0  0  0  0  0  2  0  0  0  0  0  0
  -26.0800  -29.3390   20.6910 C   0  0  0  0  0  0  0  0  0  0  0  0
  -27.2410  -28.4720   20.6980 C   0  0  0  0  0  3  0  0  0  0  0  0
  -26.0540  -26.7950   19.4440 C   0  0  0  0  0  3  0  0  0  0  0  0
  -24.9090  -27.6360   19.4370 C   0  0  0  0  0  3  0  0  0  0  0  0
  -23.6740  -29.7850   20.1390 C   0  0  0  0  0  2  0  0  0  0  0  0
  -24.7240  -31.0490   22.0610 N   0  0  0  0  0  0  0  0  0  0  0  0
  -23.5650  -32.1450   23.6920 O   0  0  0  0  0  0  0  0  0  0  0  0
  -22.7850  -29.4590   22.4900 C   0  0  0  0  0  0  0  0  0  0  0  0
  -21.4550  -29.2930   22.3840 N   0  0  0  0  0  0  0  0  0  0  0  0
  -23.4660  -28.8300   23.3040 O   0  0  0  0  0  0  0  0  0  0  0  0
  -20.9580  -29.8550   21.7050 H   0  0  0  0  0  0  0  0  0  0  0  0
  -18.0800  -28.0860   22.9230 C   0  0  0  0  0  0  0  0  0  0  0  0
  -20.6420  -28.3500   23.1600 C   0  0  0  0  0  3  0  0  0  0  0  0
  -20.7380  -26.9210   22.5780 C   0  0  0  0  0  2  0  0  0  0  0  0
  -19.6250  -26.6020   21.5750 C   0  0  0  0  0  2  0  0  0  0  0  0
  -18.2510  -26.7420   22.2350 C   0  0  0  0  0  2  0  0  0  0  0  0
  -19.2030  -28.8490   23.3420 C   0  0  0  0  0  0  0  0  0  0  0  0
  -18.9880  -30.1070   23.9480 C   0  0  0  0  0  3  0  0  0  0  0  0
  -17.6850  -30.6010   24.1380 C   0  0  0  0  0  3  0  0  0  0  0  0
  -16.5770  -29.8370   23.7330 C   0  0  0  0  0  3  0  0  0  0  0  0
  -16.7760  -28.5810   23.1300 C   0  0  0  0  0  3  0  0  0  0  0  0
  -25.9270  -32.5160   23.7800 C   0  0  0  0  0  3  0  0  0  0  0  0
  -26.4600  -31.7400   25.0480 C   0  0  1  0  0  0  0  0  0  0  0  0
  -25.3790  -31.4890   26.1250 C   0  0  0  0  0  1  0  0  0  0  0  0
  -27.0510  -30.3700   24.6460 C   0  0  0  0  0  1  0  0  0  0  0  0
  -27.6090  -32.5400   25.7070 C   0  0  0  0  0  1  0  0  0  0  0  0
  -25.6000  -33.9080   24.1350 N   0  0  0  0  0  0  0  0  0  0  0  0
  -25.9160  -34.9820   23.4000 C   0  0  0  0  0  0  0  0  0  0  0  0
  -26.5800  -34.9080   22.3630 O   0  0  0  0  0  0  0  0  0  0  0  0
  -25.0100  -34.0400   24.9440 H   0  0  0  0  0  0  0  0  0  0  0  0
  -24.1660  -36.7700   23.1080 C   0  0  0  0  0  1  0  0  0  0  0  0
  -25.4200  -36.3570   23.8940 C   0  0  0  0  0  3  0  0  0  0  0  0
  -27.5560  -37.2480   24.7180 C   0  0  0  0  0  1  0  0  0  0  0  0
  -26.4400  -37.4240   23.7930 N   0  0  0  0  0  0  0  0  0  0  0  0
  -26.0240  -38.3350   23.9670 H   0  0  0  0  0  0  0  0  0  0  0  0
  1  5  1  0
  2  6  2  0
  4  2  1  0
  4  1  2  0
  5 15  1  0
  5  3  2  0
  6 51  1  0
  6  3  1  0
  7 13  1  0
  7 15  1  0
  8 13  1  0
  9 10  1  0
  9  8  1  0
 11 10  1  0
 11 20  1  0
 11 12  1  0
 13 12  1  0
 14  7  2  0
 15 16  1  0
 17 18  2  0
 18 19  1  0
 18 37  1  0
 19 22  1  0
 20 17  1  0
 20 21  1  0
 21 19  2  0
 22 23  1  0
 23 24  2  0
 25 28  1  0
 25 24  1  0
 26 25  2  0
 27 26  1  0
 27 22  2  0
 28 29  1  0
 29 30  1  0
 30 31  2  0
 32 31  1  0
 32 36  1  0
 33 32  2  0
 34 29  2  0
 34 33  1  0
 35 34  1  0
 37 38  1  0
 38 41  1  0
 38 40  1  0
 39 37  2  0
 42 43  1  0
 42 17  1  0
 44 42  1  0
 45  4  1  0
 46 45  1  0
 46 48  1  0
 47 45  2  0
 49 46  1  0
 51 50  1  0
 52 51  1  0
 53 52  1  0
 53 54  1  0
 55 66  2  0
 56 54  1  0
 56 61  1  0
 57 65  1  0
 57 67  1  0
 58 64  1  0
 58 60  1  0
 59 65  1  0
 60 61  2  0
 60 59  1  0
 62 56  2  0
 63 62  1  0
 63 58  2  0
 64 57  1  0
 65 55  1  0
 67 69  2  0
 68 67  1  0
 70 68  1  0
 71 80  2  0
 71 76  1  0
 72 68  1  0
 72 76  1  0
 73 72  1  0
 74 75  1  0
 74 73  1  0
 75 71  1  0
 76 77  2  0
 77 78  1  0
 79 78  2  0
 80 79  1  0
 81 55  1  0
 81 86  1  0
 81 82  1  0
 82 85  1  1
 82 83  1  0
 84 82  1  0
 86 89  1  0
 87 91  1  0
 87 86  1  0
 88 87  2  0
 91 90  1  0
 93 91  1  0
 93 94  1  0
 93 92  1  0
M  ISO  4   7 100  15 100  53 101  54 101
M  END
>  <TORSDO>  (63) 
F 20

>  <SCORE>  (63) 
-14.650

>  <name>  (63) 
62

>  <ligand_id>  (63) 
62

>  <original_smiles>  (63) 
[H]c1c([H])c([H])c2c(c1[H])C([H])([H])C([H])([H])C([H])([H])C2([H])N([H])C(=O)C1([H])N(C(=O)C([H])(N([H])C(=O)C([H])(N([H])C([H])([H])[H])C([H])([H])[H])C(C([H])([H])[H])(C([H])([H])[H])C([H])([H])[H])C([H])([H])c2c([H])c(OC([H])([H])C([H])([H])N(c3c([H])c(C(=O)N([H])[H])c([H])c(N([H])C(=O)N4C([H])([H])C([H])([H])C([H])([H])C([H])(n5nc(-c6c([H])c([H])c(Oc7c([H])c([H])c(F)c([H])c7F)c([H])c6[H])c(C(=O)N([H])[H])c5N([H])[H])C4([H])[H])c3[H])C([H])([H])[H])c([H])c([H])c2C1([H])[H]

>  <smiles>  (63) 
[H]c1c([H])c([H])c2c(c1[H])C([H])([H])C([H])([H])C([H])([H])C2([H])N([H])C(=O)C1([H])N(C(=O)C([H])(N([H])C(=O)C([H])(N([H])C([H])([H])[H])C([H])([H])[H])C(C([H])([H])[H])(C([H])([H])[H])C([H])([H])[H])C([H])([H])c2c([H])c(OC([H])([H])C([H])([H])N(c3c([H])c(C(=O)N([H])[H])c([H])c(N([H])C(=O)N4C([H])([H])C([H])([H])C([H])([H])C([H])(n5nc(-c6c([H])c([H])c(Oc7c([H])c([H])c(F)c([H])c7F)c([H])c6[H])c(C(=O)N([H])[H])c5N([H])[H])C4([H])[H])c3[H])C([H])([H])[H])c([H])c([H])c2C1([H])[H]

$$$$
63:0:0
     RDKit          3D

102111  0  0  1  0  0  0  0  0999 V2000
  -27.4690  -20.9330   20.7110 C   0  0  0  0  0  2  0  0  0  0  0  0
  -29.9170  -21.5580   20.6520 C   0  0  0  0  0  2  0  0  0  0  0  0
  -27.1430  -22.4430   20.6360 C   0  0  0  0  0  2  0  0  0  0  0  0
  -29.5220  -23.0310   20.5640 C   0  0  0  0  0  2  0  0  0  0  0  0
  -28.8340  -20.6280   20.0600 C   0  0  0  0  0  3  0  0  0  0  0  0
  -28.2210  -23.2830   21.2320 N   0  0  1  0  0  4  0  0  0  0  0  0
  -28.2960  -23.0120   22.2010 H   0  0  0  0  0  0  0  0  0  0  0  0
  -29.5670  -18.7260   21.5230 C   0  0  0  0  0  3  0  0  0  0  0  0
  -30.3090  -17.5590   21.7610 C   0  0  0  0  0  3  0  0  0  0  0  0
  -30.4740  -17.2120   19.3640 C   0  0  0  0  0  3  0  0  0  0  0  0
  -29.6970  -18.3550   19.1050 C   0  0  0  0  0  0  0  0  0  0  0  0
  -29.3180  -19.1830   20.2080 C   0  0  0  0  0  0  0  0  0  0  0  0
  -30.8180  -16.8280   20.6790 C   0  0  0  0  0  0  0  0  0  0  0  0
  -32.1120  -14.8850   20.0510 C   0  0  0  0  0  0  0  0  0  0  0  0
  -31.5740  -12.7730   18.9000 C   0  0  0  0  0  2  0  0  0  0  0  0
  -30.5610  -12.9460   17.7550 C   0  0  0  0  0  2  0  0  0  0  0  0
  -29.1220  -12.8420   18.2890 C   0  0  0  0  0  2  0  0  0  0  0  0
  -28.8790  -13.7610   19.5130 C   0  0  0  0  0  3  0  0  0  0  0  0
  -29.9960  -13.5950   20.5670 C   0  0  0  0  0  2  0  0  0  0  0  0
  -31.3020  -13.8000   19.9120 N   0  0  0  0  0  0  0  0  0  0  0  0
  -33.1350  -15.0680   19.3910 O   0  0  0  0  0  0  0  0  0  0  0  0
  -31.7310  -15.7870   20.9570 N   0  0  0  0  0  0  0  0  0  0  0  0
  -32.5030  -16.1140   21.5190 H   0  0  0  0  0  0  0  0  0  0  0  0
  -26.6050  -14.5050   20.4520 C   0  0  0  0  0  0  0  0  0  0  0  0
  -25.5070  -13.7920   20.8440 C   0  0  0  0  0  0  0  0  0  0  0  0
  -25.8580  -12.4130   20.6890 C   0  0  0  0  0  0  0  0  0  0  0  0
  -27.5560  -13.5640   20.0880 N   0  0  0  0  0  0  0  0  0  0  0  0
  -27.1130  -12.2990   20.2820 N   0  0  0  0  0  0  0  0  0  0  0  0
  -25.0550  -11.1980   20.8510 C   0  0  0  0  0  0  0  0  0  0  0  0
  -25.3560  -10.2440   21.8490 C   0  0  0  0  0  3  0  0  0  0  0  0
  -24.5600   -9.0880   21.9940 C   0  0  0  0  0  3  0  0  0  0  0  0
  -23.4510   -8.8780   21.1410 C   0  0  0  0  0  0  0  0  0  0  0  0
  -23.1720   -9.8190   20.1340 C   0  0  0  0  0  3  0  0  0  0  0  0
  -23.9680  -10.9660   19.9870 C   0  0  0  0  0  3  0  0  0  0  0  0
  -22.6370   -7.7730   21.1940 O   0  0  0  0  0  0  0  0  0  0  0  0
  -22.2570   -7.2160   22.3880 C   0  0  0  0  0  0  0  0  0  0  0  0
  -21.5620   -7.9590   23.3680 C   0  0  0  0  0  3  0  0  0  0  0  0
  -21.1240   -7.3270   24.5500 C   0  0  0  0  0  3  0  0  0  0  0  0
  -21.3750   -5.9570   24.7520 C   0  0  0  0  0  0  0  0  0  0  0  0
  -22.0640   -5.2160   23.7780 C   0  0  0  0  0  3  0  0  0  0  0  0
  -22.5010   -5.8440   22.5980 C   0  0  0  0  0  0  0  0  0  0  0  0
  -23.1430   -5.1200   21.6490 F   0  0  0  0  0  0  0  0  0  0  0  0
  -20.9490   -5.3500   25.8850 F   0  0  0  0  0  0  0  0  0  0  0  0
  -24.1760  -14.3430   21.2650 C   0  0  0  0  0  0  0  0  0  0  0  0
  -23.4920  -13.6650   22.1790 N   0  0  0  0  0  0  0  0  0  0  0  0
  -23.7580  -15.4120   20.8210 O   0  0  0  0  0  0  0  0  0  0  0  0
  -23.8450  -12.7990   22.5600 H   0  0  0  0  0  0  0  0  0  0  0  0
  -22.6010  -14.0160   22.5000 H   0  0  0  0  0  0  0  0  0  0  0  0
  -26.8710  -15.8700   20.3590 N   0  0  0  0  0  0  0  0  0  0  0  0
  -26.1500  -16.5360   20.6130 H   0  0  0  0  0  0  0  0  0  0  0  0
  -27.8020  -16.2360   20.5040 H   0  0  0  0  0  0  0  0  0  0  0  0
  -29.4190  -18.6600   17.6550 C   0  0  0  0  0  0  0  0  0  0  0  0
  -28.9290  -17.6460   16.9480 N   0  0  0  0  0  0  0  0  0  0  0  0
  -29.6610  -19.7500   17.1430 O   0  0  0  0  0  0  0  0  0  0  0  0
  -28.6710  -16.7830   17.4030 H   0  0  0  0  0  0  0  0  0  0  0  0
  -28.7540  -17.7440   15.9590 H   0  0  0  0  0  0  0  0  0  0  0  0
  -27.8890  -24.7320   21.2410 C   0  0  0  0  0  2  0  0  0  0  0  0
  -28.6140  -25.5510   22.3510 C   0  0  0  0  0  3  0  0  0  0  0  0
  -27.6650  -26.0640   23.2730 O   0  0  0  0  0  0  0  0  0  0  0  0
  -27.2310  -26.8040   22.8590 H   0  0  0  0  0  0  0  0  0  0  0  0
  -29.5150  -26.7310   21.8630 C   0  0  0  0  0  2  0  0  0  0  0  0
  -29.2010  -27.2700   20.5750 O   0  0  0  0  0  0  0  0  0  0  0  0
  -24.8240  -32.0400   23.5140 C   0  0  0  0  0  0  0  0  0  0  0  0
  -28.0120  -27.9530   20.5110 C   0  0  0  0  0  0  0  0  0  0  0  0
  -23.8480  -30.5980   21.7550 C   0  0  0  0  0  3  0  0  0  0  0  0
  -25.5160  -29.2430   20.3840 C   0  0  0  0  0  0  0  0  0  0  0  0
  -26.3450  -31.1700   21.7470 C   0  0  0  0  0  2  0  0  0  0  0  0
  -26.5770  -29.8350   21.0830 C   0  0  0  0  0  0  0  0  0  0  0  0
  -27.8260  -29.1930   21.1580 C   0  0  0  0  0  3  0  0  0  0  0  0
  -26.9500  -27.3820   19.7850 C   0  0  0  0  0  3  0  0  0  0  0  0
  -25.6960  -28.0120   19.7290 C   0  0  0  0  0  3  0  0  0  0  0  0
  -24.2020  -29.9900   20.3720 C   0  0  0  0  0  2  0  0  0  0  0  0
  -25.0180  -31.2860   22.3950 N   0  0  0  0  0  0  0  0  0  0  0  0
  -23.6900  -32.2030   23.9890 O   0  0  0  0  0  0  0  0  0  0  0  0
  -23.2350  -29.4910   22.6410 C   0  0  0  0  0  0  0  0  0  0  0  0
  -21.9480  -29.1830   22.4050 N   0  0  0  0  0  0  0  0  0  0  0  0
  -23.9180  -28.9130   23.4930 O   0  0  0  0  0  0  0  0  0  0  0  0
  -21.4650  -29.6980   21.6810 H   0  0  0  0  0  0  0  0  0  0  0  0
  -18.6680  -27.6810   22.6610 C   0  0  0  0  0  0  0  0  0  0  0  0
  -21.1750  -28.1490   23.0890 C   0  0  0  0  0  3  0  0  0  0  0  0
  -21.4420  -26.7640   22.4610 C   0  0  0  0  0  2  0  0  0  0  0  0
  -20.4190  -26.3780   21.3890 C   0  0  0  0  0  2  0  0  0  0  0  0
  -19.0060  -26.3690   21.9730 C   0  0  0  0  0  2  0  0  0  0  0  0
  -19.6890  -28.5220   23.1750 C   0  0  0  0  0  0  0  0  0  0  0  0
  -19.3240  -29.7380   23.7940 C   0  0  0  0  0  3  0  0  0  0  0  0
  -17.9750  -30.1200   23.8940 C   0  0  0  0  0  3  0  0  0  0  0  0
  -16.9680  -29.2810   23.3860 C   0  0  0  0  0  3  0  0  0  0  0  0
  -17.3140  -28.0620   22.7750 C   0  0  0  0  0  3  0  0  0  0  0  0
  -26.0080  -32.7550   24.2360 C   0  0  0  0  0  3  0  0  0  0  0  0
  -25.6000  -34.1440   24.4820 N   0  0  0  0  0  0  0  0  0  0  0  0
  -25.9460  -35.1840   23.7120 C   0  0  0  0  0  0  0  0  0  0  0  0
  -26.7150  -35.0820   22.7510 O   0  0  0  0  0  0  0  0  0  0  0  0
  -24.9210  -34.2970   25.2120 H   0  0  0  0  0  0  0  0  0  0  0  0
  -24.1610  -36.8620   23.1340 C   0  0  0  0  0  1  0  0  0  0  0  0
  -25.3450  -36.5580   24.0670 C   0  0  0  0  0  3  0  0  0  0  0  0
  -27.3430  -37.5940   25.0440 C   0  0  0  0  0  1  0  0  0  0  0  0
  -26.3250  -37.6620   23.9990 N   0  0  0  0  0  0  0  0  0  0  0  0
  -25.8580  -38.5620   24.0680 H   0  0  0  0  0  0  0  0  0  0  0  0
  -26.4410  -32.0510   25.5810 C   0  0  1  0  0  0  0  0  0  0  0  0
  -25.2640  -31.7700   26.5400 C   0  0  0  0  0  1  0  0  0  0  0  0
  -27.1510  -30.7070   25.2920 C   0  0  0  0  0  1  0  0  0  0  0  0
  -27.4620  -32.9360   26.3320 C   0  0  0  0  0  1  0  0  0  0  0  0
  3  1  1  0
  3  6  1  0
  4  2  1  0
  4  6  1  0
  5 12  1  0
  5  2  1  0
  5  1  1  0
  6 57  1  0
  6  7  1  1
  8  9  1  0
 10 13  1  0
 11 10  2  0
 11 12  1  0
 12  8  2  0
 13 22  1  0
 13  9  2  0
 14 22  1  0
 15 20  1  0
 16 17  1  0
 16 15  1  0
 18 17  1  0
 18 27  1  0
 18 19  1  0
 20 14  1  0
 20 19  1  0
 21 14  2  0
 22 23  1  0
 24 25  2  0
 25 44  1  0
 26 25  1  0
 26 29  1  0
 27 28  1  0
 27 24  1  0
 28 26  2  0
 29 30  1  0
 30 31  2  0
 32 35  1  0
 32 31  1  0
 33 32  2  0
 34 33  1  0
 34 29  2  0
 35 36  1  0
 36 41  2  0
 36 37  1  0
 37 38  2  0
 38 39  1  0
 39 43  1  0
 40 39  2  0
 41 40  1  0
 42 41  1  0
 44 45  1  0
 45 48  1  0
 45 47  1  0
 46 44  2  0
 49 24  1  0
 49 51  1  0
 49 50  1  0
 52 11  1  0
 53 55  1  0
 53 52  1  0
 54 52  2  0
 56 53  1  0
 58 57  1  0
 58 59  1  0
 60 59  1  0
 61 58  1  0
 62 61  1  0
 63 74  2  0
 64 62  1  0
 64 69  1  0
 65 73  1  0
 65 75  1  0
 66 68  1  0
 67 73  1  0
 68 69  2  0
 68 67  1  0
 70 64  2  0
 71 70  1  0
 71 66  2  0
 72 66  1  0
 72 65  1  0
 73 63  1  0
 75 77  2  0
 76 75  1  0
 78 76  1  0
 79 88  2  0
 79 84  1  0
 80 76  1  0
 80 84  1  0
 81 80  1  0
 82 83  1  0
 82 81  1  0
 83 79  1  0
 84 85  2  0
 85 86  1  0
 87 86  2  0
 88 87  1  0
 89 63  1  0
 89 90  1  0
 89 99  1  0
 90 93  1  0
 91 95  1  0
 91 90  1  0
 92 91  2  0
 95 94  1  0
 97 95  1  0
 97 98  1  0
 97 96  1  0
 99102  1  1
 99100  1  0
101 99  1  0
M  ISO  4  14 100  22 100  61 101  62 101
M  END
>  <TORSDO>  (64) 
F 22

>  <SCORE>  (64) 
-9.809

>  <name>  (64) 
63

>  <ligand_id>  (64) 
63

>  <original_smiles>  (64) 
[H]OC([H])(C([H])([H])Oc1c([H])c([H])c2c(c1[H])C([H])([H])N(C(=O)C([H])(N([H])C(=O)C([H])(N([H])C([H])([H])[H])C([H])([H])[H])C(C([H])([H])[H])(C([H])([H])[H])C([H])([H])[H])C([H])(C(=O)N([H])C1([H])c3c([H])c([H])c([H])c([H])c3C([H])([H])C([H])([H])C1([H])[H])C2([H])[H])C([H])([H])[N+]1([H])C([H])([H])C([H])([H])C([H])(c2c([H])c([H])c(N([H])C(=O)N3C([H])([H])C([H])([H])C([H])([H])C([H])(n4nc(-c5c([H])c([H])c(Oc6c([H])c([H])c(F)c([H])c6F)c([H])c5[H])c(C(=O)N([H])[H])c4N([H])[H])C3([H])[H])c([H])c2C(=O)N([H])[H])C([H])([H])C1([H])[H]

>  <smiles>  (64) 
[H]OC([H])(C([H])([H])Oc1c([H])c([H])c2c(c1[H])C([H])([H])N(C(=O)C([H])(N([H])C(=O)C([H])(N([H])C([H])([H])[H])C([H])([H])[H])C(C([H])([H])[H])(C([H])([H])[H])C([H])([H])[H])C([H])(C(=O)N([H])C1([H])c3c([H])c([H])c([H])c([H])c3C([H])([H])C([H])([H])C1([H])[H])C2([H])[H])C([H])([H])[N+]1([H])C([H])([H])C([H])([H])C([H])(c2c([H])c([H])c(N([H])C(=O)N3C([H])([H])C([H])([H])C([H])([H])C([H])(n4nc(-c5c([H])c([H])c(Oc6c([H])c([H])c(F)c([H])c6F)c([H])c5[H])c(C(=O)N([H])[H])c4N([H])[H])C3([H])[H])c([H])c2C(=O)N([H])[H])C([H])([H])C1([H])[H]

$$$$
64:0:0
     RDKit          3D

 95103  0  0  1  0  0  0  0  0999 V2000
  -28.9810  -21.7840   20.1250 C   0  0  0  0  0  0  0  0  0  0  0  0
  -31.1430  -20.0440   22.4030 C   0  0  0  0  0  2  0  0  0  0  0  0
  -32.0920  -20.5010   21.2790 C   0  0  0  0  0  2  0  0  0  0  0  0
  -30.0770  -19.0340   21.9160 C   0  0  0  0  0  2  0  0  0  0  0  0
  -31.3510  -21.0950   20.0580 C   0  0  0  0  0  2  0  0  0  0  0  0
  -29.7390  -19.1480   20.4110 C   0  0  0  0  0  3  0  0  0  0  0  0
  -29.9260  -20.7020   20.0320 N   0  0  0  0  0  0  0  0  0  0  0  0
  -27.8140  -21.4890   20.3780 O   0  0  0  0  0  0  0  0  0  0  0  0
  -31.8680  -17.9390   19.2560 C   0  0  0  0  0  1  0  0  0  0  0  0
  -30.3820  -17.7700   19.6260 C   0  0  0  0  0  0  0  0  0  0  0  0
  -30.7700  -15.0210   19.9240 C   0  0  0  0  0  0  0  0  0  0  0  0
  -30.5270  -12.6850   19.0000 C   0  0  0  0  0  2  0  0  0  0  0  0
  -29.5210  -12.5990   17.8280 C   0  0  0  0  0  2  0  0  0  0  0  0
  -28.1090  -12.3470   18.3780 C   0  0  0  0  0  2  0  0  0  0  0  0
  -27.7460  -13.3290   19.5190 C   0  0  0  0  0  3  0  0  0  0  0  0
  -28.8630  -13.3970   20.5870 C   0  0  0  0  0  2  0  0  0  0  0  0
  -30.1060  -13.7940   19.9060 N   0  0  0  0  0  0  0  0  0  0  0  0
  -31.9530  -14.9920   19.5770 O   0  0  0  0  0  0  0  0  0  0  0  0
  -30.0940  -16.2680   20.0910 N   0  0  0  0  0  4  0  0  0  0  0  0
  -29.1510  -16.1470   20.4280 H   0  0  0  0  0  0  0  0  0  0  0  0
  -25.3990  -13.9000   20.3710 C   0  0  0  0  0  0  0  0  0  0  0  0
  -24.3560  -13.1230   20.7840 C   0  0  0  0  0  0  0  0  0  0  0  0
  -24.8230  -11.7710   20.7270 C   0  0  0  0  0  0  0  0  0  0  0  0
  -26.4360  -13.0280   20.0820 N   0  0  0  0  0  0  0  0  0  0  0  0
  -26.1000  -11.7430   20.3650 N   0  0  0  0  0  0  0  0  0  0  0  0
  -24.1140  -10.5040   20.9390 C   0  0  0  0  0  0  0  0  0  0  0  0
  -24.5460   -9.5630   21.8990 C   0  0  0  0  0  3  0  0  0  0  0  0
  -23.8330   -8.3610   22.0950 C   0  0  0  0  0  3  0  0  0  0  0  0
  -22.6730   -8.0910   21.3320 C   0  0  0  0  0  0  0  0  0  0  0  0
  -22.2630   -9.0180   20.3570 C   0  0  0  0  0  3  0  0  0  0  0  0
  -22.9780  -10.2110   20.1580 C   0  0  0  0  0  3  0  0  0  0  0  0
  -21.9310   -6.9380   21.4390 O   0  0  0  0  0  0  0  0  0  0  0  0
  -21.8200   -6.2640   22.6260 C   0  0  0  0  0  0  0  0  0  0  0  0
  -21.2780   -6.8710   23.7810 C   0  0  0  0  0  3  0  0  0  0  0  0
  -21.1160   -6.1190   24.9620 C   0  0  0  0  0  3  0  0  0  0  0  0
  -21.4850   -4.7610   24.9900 C   0  0  0  0  0  0  0  0  0  0  0  0
  -22.0200   -4.1530   23.8390 C   0  0  0  0  0  3  0  0  0  0  0  0
  -22.1820   -4.9010   22.6610 C   0  0  0  0  0  0  0  0  0  0  0  0
  -22.6770   -4.3050   21.5500 F   0  0  0  0  0  0  0  0  0  0  0  0
  -21.3230   -4.0370   26.1220 F   0  0  0  0  0  0  0  0  0  0  0  0
  -22.9670  -13.5870   21.1160 C   0  0  0  0  0  0  0  0  0  0  0  0
  -22.2850  -12.8900   22.0160 N   0  0  0  0  0  0  0  0  0  0  0  0
  -22.4970  -14.6090   20.6100 O   0  0  0  0  0  0  0  0  0  0  0  0
  -22.6810  -12.0650   22.4450 H   0  0  0  0  0  0  0  0  0  0  0  0
  -21.3560  -13.1830   22.2810 H   0  0  0  0  0  0  0  0  0  0  0  0
  -25.5530  -15.2740   20.1870 N   0  0  0  0  0  0  0  0  0  0  0  0
  -24.7990  -15.9350   20.3380 H   0  0  0  0  0  0  0  0  0  0  0  0
  -26.3760  -15.7010   19.7860 H   0  0  0  0  0  0  0  0  0  0  0  0
  -29.2590  -23.4260   19.9010 C   0  0  0  0  0  3  0  0  0  0  0  0
  -29.7350  -23.6200   18.5130 N   0  0  0  0  0  4  0  0  0  0  0  0
  -29.0010  -23.4020   17.8600 H   0  0  0  0  0  0  0  0  0  0  0  0
  -30.5210  -23.0290   18.3100 H   0  0  0  0  0  0  0  0  0  0  0  0
  -30.0110  -24.5770   18.3640 H   0  0  0  0  0  0  0  0  0  0  0  0
  -28.1460  -24.6520   20.2260 C   0  0  0  0  0  2  0  0  0  0  0  0
  -28.3870  -26.2030   20.1480 O   0  0  0  0  0  0  0  0  0  0  0  0
  -24.7400  -31.8820   23.2230 C   0  0  0  0  0  0  0  0  0  0  0  0
  -27.3140  -27.1740   20.1340 C   0  0  0  0  0  0  0  0  0  0  0  0
  -23.5260  -30.4750   21.6080 C   0  0  0  0  0  3  0  0  0  0  0  0
  -24.9620  -28.9040   20.1610 C   0  0  0  0  0  0  0  0  0  0  0  0
  -26.0770  -30.7530   21.3960 C   0  0  0  0  0  2  0  0  0  0  0  0
  -26.1510  -29.3610   20.7400 C   0  0  0  0  0  0  0  0  0  0  0  0
  -27.3300  -28.5180   20.6990 C   0  0  0  0  0  3  0  0  0  0  0  0
  -26.0920  -26.8250   19.5140 C   0  0  0  0  0  3  0  0  0  0  0  0
  -24.9460  -27.6480   19.5350 C   0  0  0  0  0  3  0  0  0  0  0  0
  -23.7220  -29.7860   20.2340 C   0  0  0  0  0  2  0  0  0  0  0  0
  -24.8030  -31.0590   22.1300 N   0  0  0  0  0  0  0  0  0  0  0  0
  -23.6580  -32.1630   23.7630 O   0  0  0  0  0  0  0  0  0  0  0  0
  -22.8630  -29.4690   22.5760 C   0  0  0  0  0  0  0  0  0  0  0  0
  -21.5370  -29.2800   22.4540 N   0  0  0  0  0  0  0  0  0  0  0  0
  -23.5460  -28.8490   23.3960 O   0  0  0  0  0  0  0  0  0  0  0  0
  -21.0380  -29.8270   21.7650 H   0  0  0  0  0  0  0  0  0  0  0  0
  -18.1780  -28.0200   22.9730 C   0  0  0  0  0  0  0  0  0  0  0  0
  -20.7320  -28.3330   23.2300 C   0  0  0  0  0  3  0  0  0  0  0  0
  -20.8550  -26.8970   22.6700 C   0  0  0  0  0  2  0  0  0  0  0  0
  -19.7600  -26.5480   21.6560 C   0  0  0  0  0  2  0  0  0  0  0  0
  -18.3770  -26.6700   22.3020 C   0  0  0  0  0  2  0  0  0  0  0  0
  -19.2850  -28.8080   23.3900 C   0  0  0  0  0  0  0  0  0  0  0  0
  -19.0460  -30.0680   23.9750 C   0  0  0  0  0  3  0  0  0  0  0  0
  -17.7350  -30.5510   24.1420 C   0  0  0  0  0  3  0  0  0  0  0  0
  -16.6430  -29.7650   23.7350 C   0  0  0  0  0  3  0  0  0  0  0  0
  -16.8650  -28.4980   23.1640 C   0  0  0  0  0  3  0  0  0  0  0  0
  -26.0180  -32.5260   23.8360 C   0  0  0  0  0  3  0  0  0  0  0  0
  -26.5520  -31.7590   25.1070 C   0  0  1  0  0  0  0  0  0  0  0  0
  -25.4700  -31.5080   26.1870 C   0  0  0  0  0  1  0  0  0  0  0  0
  -27.1470  -30.3870   24.7140 C   0  0  0  0  0  1  0  0  0  0  0  0
  -27.7070  -32.5650   25.7510 C   0  0  0  0  0  1  0  0  0  0  0  0
  -25.7000  -33.9230   24.1740 N   0  0  0  0  0  0  0  0  0  0  0  0
  -26.0230  -34.9810   23.4200 C   0  0  0  0  0  0  0  0  0  0  0  0
  -26.6880  -34.8870   22.3860 O   0  0  0  0  0  0  0  0  0  0  0  0
  -25.1120  -34.0730   24.9820 H   0  0  0  0  0  0  0  0  0  0  0  0
  -24.2910  -36.7780   23.0720 C   0  0  0  0  0  1  0  0  0  0  0  0
  -25.5310  -36.3680   23.8840 C   0  0  0  0  0  3  0  0  0  0  0  0
  -27.6630  -37.2470   24.7300 C   0  0  0  0  0  1  0  0  0  0  0  0
  -26.5620  -37.4240   23.7860 N   0  0  0  0  0  0  0  0  0  0  0  0
  -26.1560  -38.3410   23.9460 H   0  0  0  0  0  0  0  0  0  0  0  0
  1  8  2  0
  3  2  1  0
  4  2  1  0
  5  3  1  0
  6 10  1  0
  6  4  1  0
  7  5  1  0
  7  1  1  0
  7  6  1  0
  9 10  1  0
 10 19  2  0
 11 19  1  0
 12 17  1  0
 13 14  1  0
 13 12  1  0
 15 14  1  0
 15 24  1  0
 15 16  1  0
 17 11  1  0
 17 16  1  0
 18 11  2  0
 19 20  1  0
 21 22  2  0
 22 41  1  0
 23 22  1  0
 23 26  1  0
 24 25  1  0
 24 21  1  0
 25 23  2  0
 26 27  1  0
 27 28  2  0
 29 32  1  0
 29 28  1  0
 30 29  2  0
 31 30  1  0
 31 26  2  0
 32 33  1  0
 33 38  2  0
 33 34  1  0
 34 35  2  0
 35 36  1  0
 36 40  1  0
 37 36  2  0
 38 37  1  0
 39 38  1  0
 41 42  1  0
 42 45  1  0
 42 44  1  0
 43 41  2  0
 46 47  1  0
 46 21  1  0
 48 46  1  0
 49  1  1  0
 49 54  1  0
 50 49  1  0
 51 50  1  0
 52 50  1  0
 53 50  1  0
 55 54  1  0
 56 67  2  0
 57 55  1  0
 57 62  1  0
 58 66  1  0
 58 68  1  0
 59 65  1  0
 59 61  1  0
 60 66  1  0
 61 60  1  0
 62 61  2  0
 63 64  1  0
 63 57  2  0
 64 59  2  0
 65 58  1  0
 66 56  1  0
 68 70  2  0
 69 68  1  0
 71 69  1  0
 72 81  2  0
 72 77  1  0
 73 69  1  0
 73 77  1  0
 74 73  1  0
 75 76  1  0
 75 74  1  0
 76 72  1  0
 77 78  2  0
 78 79  1  0
 80 79  2  0
 81 80  1  0
 82 56  1  0
 82 87  1  0
 82 83  1  0
 83 86  1  1
 83 84  1  0
 85 83  1  0
 87 90  1  0
 88 92  1  0
 88 87  1  0
 89 88  2  0
 92 91  1  0
 94 92  1  0
 94 95  1  0
 94 93  1  0
M  ISO  4  11 100  19 100  54 101  55 101
M  END
>  <TORSDO>  (65) 
F 20

>  <SCORE>  (65) 
-13.923

>  <name>  (65) 
64

>  <ligand_id>  (65) 
64

>  <original_smiles>  (65) 
[H]c1c([H])c([H])c2c(c1[H])C([H])([H])C([H])([H])C([H])([H])C2([H])N([H])C(=O)C1([H])N(C(=O)C([H])(N([H])C(=O)C([H])(N([H])C([H])([H])[H])C([H])([H])[H])C(C([H])([H])[H])(C([H])([H])[H])C([H])([H])[H])C([H])([H])c2c([H])c(OC([H])([H])C([H])(C(=O)N3C([H])([H])C([H])([H])C([H])([H])C([H])([H])C3([H])C([H])(N([H])C(=O)N3C([H])([H])C([H])([H])C([H])([H])C([H])(n4nc(-c5c([H])c([H])c(Oc6c([H])c([H])c(F)c([H])c6F)c([H])c5[H])c(C(=O)N([H])[H])c4N([H])[H])C3([H])[H])C([H])([H])[H])[N+]([H])([H])[H])c([H])c([H])c2C1([H])[H]

>  <smiles>  (65) 
[H]c1c([H])c([H])c2c(c1[H])C([H])([H])C([H])([H])C([H])([H])C2([H])N([H])C(=O)C1([H])N(C(=O)C([H])(N([H])C(=O)C([H])(N([H])C([H])([H])[H])C([H])([H])[H])C(C([H])([H])[H])(C([H])([H])[H])C([H])([H])[H])C([H])([H])c2c([H])c(OC([H])([H])C([H])(C(=O)N3C([H])([H])C([H])([H])C([H])([H])C([H])([H])C3([H])C([H])(N([H])C(=O)N3C([H])([H])C([H])([H])C([H])([H])C([H])(n4nc(-c5c([H])c([H])c(Oc6c([H])c([H])c(F)c([H])c6F)c([H])c5[H])c(C(=O)N([H])[H])c4N([H])[H])C3([H])[H])C([H])([H])[H])[N+]([H])([H])[H])c([H])c([H])c2C1([H])[H]

$$$$
65:0:0
     RDKit          3D

104113  0  0  1  0  0  0  0  0999 V2000
  -30.1030  -20.7860   20.2270 C   0  0  0  0  0  0  0  0  0  0  0  0
  -31.0100  -19.8860   20.6770 N   0  0  0  0  0  0  0  0  0  0  0  0
  -28.9260  -20.7810   20.5960 O   0  0  0  0  0  0  0  0  0  0  0  0
  -31.8810  -19.8440   20.1630 H   0  0  0  0  0  0  0  0  0  0  0  0
  -30.8960  -17.3740   24.1680 C   0  0  0  0  0  3  0  0  0  0  0  0
  -30.5670  -18.7280   24.2700 C   0  0  0  0  0  3  0  0  0  0  0  0
  -31.2740  -16.8480   22.9290 C   0  0  0  0  0  3  0  0  0  0  0  0
  -30.6000  -19.5770   23.1420 C   0  0  0  0  0  0  0  0  0  0  0  0
  -31.3040  -17.6410   21.7550 C   0  0  0  0  0  0  0  0  0  0  0  0
  -30.9360  -19.0360   21.8430 C   0  0  0  0  0  0  0  0  0  0  0  0
  -31.9100  -14.7190   19.5170 C   0  0  0  0  0  0  0  0  0  0  0  0
  -31.3580  -12.5680   18.4280 C   0  0  0  0  0  2  0  0  0  0  0  0
  -30.2660  -12.7950   17.3630 C   0  0  0  0  0  2  0  0  0  0  0  0
  -28.8610  -12.7300   17.9910 C   0  0  0  0  0  2  0  0  0  0  0  0
  -28.7410  -13.5860   19.2790 C   0  0  0  0  0  3  0  0  0  0  0  0
  -29.9260  -13.3190   20.2330 C   0  0  0  0  0  2  0  0  0  0  0  0
  -31.1750  -13.5710   19.4900 N   0  0  0  0  0  0  0  0  0  0  0  0
  -32.9220  -14.8590   18.8220 O   0  0  0  0  0  0  0  0  0  0  0  0
  -31.8400  -16.9590   20.5040 C   0  0  0  0  0  0  0  0  0  0  0  0
  -31.4120  -15.6890   20.3160 N   0  0  0  0  0  0  0  0  0  0  0  0
  -32.6160  -17.5640   19.7540 O   0  0  0  0  0  0  0  0  0  0  0  0
  -30.6440  -15.4090   20.9000 H   0  0  0  0  0  0  0  0  0  0  0  0
  -26.5680  -14.3150   20.4470 C   0  0  0  0  0  0  0  0  0  0  0  0
  -25.4890  -13.6050   20.9020 C   0  0  0  0  0  0  0  0  0  0  0  0
  -25.7810  -12.2320   20.6340 C   0  0  0  0  0  0  0  0  0  0  0  0
  -27.4570  -13.3770   19.9430 N   0  0  0  0  0  0  0  0  0  0  0  0
  -26.9940  -12.1120   20.1080 N   0  0  0  0  0  0  0  0  0  0  0  0
  -24.9530  -11.0310   20.7950 C   0  0  0  0  0  0  0  0  0  0  0  0
  -25.2900  -10.0190   21.7210 C   0  0  0  0  0  3  0  0  0  0  0  0
  -24.4670   -8.8820   21.8720 C   0  0  0  0  0  3  0  0  0  0  0  0
  -23.2900   -8.7490   21.0970 C   0  0  0  0  0  0  0  0  0  0  0  0
  -22.9710   -9.7490   20.1590 C   0  0  0  0  0  3  0  0  0  0  0  0
  -23.7950  -10.8770   20.0070 C   0  0  0  0  0  3  0  0  0  0  0  0
  -22.4430   -7.6700   21.1570 O   0  0  0  0  0  0  0  0  0  0  0  0
  -22.0440   -7.1350   22.3550 C   0  0  0  0  0  0  0  0  0  0  0  0
  -21.5300   -7.9390   23.3960 C   0  0  0  0  0  3  0  0  0  0  0  0
  -21.0670   -7.3390   24.5850 C   0  0  0  0  0  3  0  0  0  0  0  0
  -21.1080   -5.9390   24.7320 C   0  0  0  0  0  0  0  0  0  0  0  0
  -21.6120   -5.1370   23.6940 C   0  0  0  0  0  3  0  0  0  0  0  0
  -22.0760   -5.7340   22.5080 C   0  0  0  0  0  0  0  0  0  0  0  0
  -22.5430   -4.9540   21.5030 F   0  0  0  0  0  0  0  0  0  0  0  0
  -20.6560   -5.3650   25.8710 F   0  0  0  0  0  0  0  0  0  0  0  0
  -24.2170  -14.1710   21.4600 C   0  0  0  0  0  0  0  0  0  0  0  0
  -23.6690  -13.5460   22.4980 N   0  0  0  0  0  0  0  0  0  0  0  0
  -23.7230  -15.2040   21.0090 O   0  0  0  0  0  0  0  0  0  0  0  0
  -24.0830  -12.7120   22.8840 H   0  0  0  0  0  0  0  0  0  0  0  0
  -22.8210  -13.9090   22.9120 H   0  0  0  0  0  0  0  0  0  0  0  0
  -26.8590  -15.6760   20.4030 N   0  0  0  0  0  0  0  0  0  0  0  0
  -26.1960  -16.3770   20.7170 H   0  0  0  0  0  0  0  0  0  0  0  0
  -27.6910  -16.0760   19.9840 H   0  0  0  0  0  0  0  0  0  0  0  0
  -30.3740  -21.0430   23.4240 C   0  0  0  0  0  0  0  0  0  0  0  0
  -29.4550  -21.3260   24.3400 N   0  0  0  0  0  0  0  0  0  0  0  0
  -30.9870  -21.9290   22.8290 O   0  0  0  0  0  0  0  0  0  0  0  0
  -28.9530  -20.5790   24.7960 H   0  0  0  0  0  0  0  0  0  0  0  0
  -29.2340  -22.2850   24.5670 H   0  0  0  0  0  0  0  0  0  0  0  0
  -32.0490  -22.2550   19.3020 C   0  0  0  0  0  2  0  0  0  0  0  0
  -31.6500  -23.5440   20.0080 C   0  0  0  0  0  2  0  0  0  0  0  0
  -30.5610  -21.8850   19.2360 C   0  0  0  0  0  3  0  0  0  0  0  0
  -30.2340  -23.2330   19.7560 N   0  0  2  0  0  4  0  0  0  0  0  0
  -29.7450  -23.0750   20.6290 H   0  0  0  0  0  0  0  0  0  0  0  0
  -30.2280  -24.6310   17.6090 C   0  0  0  0  0  1  0  0  0  0  0  0
  -29.4680  -24.2040   18.8900 C   0  0  0  0  0  3  0  0  0  0  0  0
  -28.9780  -25.4420   19.7130 C   0  0  0  0  0  2  0  0  0  0  0  0
  -28.7070  -26.6190   18.9230 O   0  0  0  0  0  0  0  0  0  0  0  0
  -24.5830  -31.0430   22.7300 C   0  0  0  0  0  0  0  0  0  0  0  0
  -27.4770  -27.2170   19.0920 C   0  0  0  0  0  0  0  0  0  0  0  0
  -23.4360  -29.7070   20.9930 C   0  0  0  0  0  3  0  0  0  0  0  0
  -24.9560  -28.4740   19.3540 C   0  0  0  0  0  0  0  0  0  0  0  0
  -25.9030  -30.3330   20.7340 C   0  0  0  0  0  2  0  0  0  0  0  0
  -26.0870  -29.0480   19.9500 C   0  0  0  0  0  0  0  0  0  0  0  0
  -27.3520  -28.4310   19.8080 C   0  0  0  0  0  3  0  0  0  0  0  0
  -26.3280  -26.6520   18.5000 C   0  0  0  0  0  3  0  0  0  0  0  0
  -25.0720  -27.2800   18.6230 C   0  0  0  0  0  3  0  0  0  0  0  0
  -23.6410  -29.1980   19.5400 C   0  0  0  0  0  2  0  0  0  0  0  0
  -24.6610  -30.3730   21.5450 N   0  0  0  0  0  0  0  0  0  0  0  0
  -23.5100  -31.1470   23.3390 O   0  0  0  0  0  0  0  0  0  0  0  0
  -22.9300  -28.5360   21.8620 C   0  0  0  0  0  0  0  0  0  0  0  0
  -21.6560  -28.1530   21.6690 N   0  0  0  0  0  0  0  0  0  0  0  0
  -23.6800  -27.9720   22.6650 O   0  0  0  0  0  0  0  0  0  0  0  0
  -21.1070  -28.6700   20.9970 H   0  0  0  0  0  0  0  0  0  0  0  0
  -18.5270  -26.3580   21.8940 C   0  0  0  0  0  0  0  0  0  0  0  0
  -20.9780  -27.0480   22.3450 C   0  0  0  0  0  3  0  0  0  0  0  0
  -21.3680  -25.6900   21.7150 C   0  0  0  0  0  2  0  0  0  0  0  0
  -20.4010  -25.2340   20.6180 C   0  0  0  0  0  2  0  0  0  0  0  0
  -18.9800  -25.0990   21.1750 C   0  0  0  0  0  2  0  0  0  0  0  0
  -19.4650  -27.2810   22.4290 C   0  0  0  0  0  0  0  0  0  0  0  0
  -18.9900  -28.4520   23.0570 C   0  0  0  0  0  3  0  0  0  0  0  0
  -17.6090  -28.7080   23.1580 C   0  0  0  0  0  3  0  0  0  0  0  0
  -16.6850  -27.7840   22.6400 C   0  0  0  0  0  3  0  0  0  0  0  0
  -17.1440  -26.6120   22.0140 C   0  0  0  0  0  3  0  0  0  0  0  0
  -25.8330  -31.7270   23.3670 C   0  0  0  0  0  3  0  0  0  0  0  0
  -25.3960  -33.0110   23.9300 N   0  0  0  0  0  0  0  0  0  0  0  0
  -25.5590  -34.1990   23.3290 C   0  0  0  0  0  0  0  0  0  0  0  0
  -26.1620  -34.3320   22.2610 O   0  0  0  0  0  0  0  0  0  0  0  0
  -24.8460  -32.9720   24.7740 H   0  0  0  0  0  0  0  0  0  0  0  0
  -23.6270  -35.8090   23.3460 C   0  0  0  0  0  1  0  0  0  0  0  0
  -24.9550  -35.4350   24.0240 C   0  0  0  0  0  3  0  0  0  0  0  0
  -27.0220  -36.4300   24.8980 C   0  0  0  0  0  1  0  0  0  0  0  0
  -25.8600  -36.6050   24.0320 N   0  0  0  0  0  0  0  0  0  0  0  0
  -25.3650  -37.4410   24.3300 H   0  0  0  0  0  0  0  0  0  0  0  0
  -26.5310  -30.8430   24.4700 C   0  0  1  0  0  0  0  0  0  0  0  0
  -25.5560  -30.3010   25.5420 C   0  0  0  0  0  1  0  0  0  0  0  0
  -27.2440  -29.6310   23.8250 C   0  0  0  0  0  1  0  0  0  0  0  0
  -27.6250  -31.6670   25.1890 C   0  0  0  0  0  1  0  0  0  0  0  0
  1  3  2  0
  1  2  1  0
  2 10  1  0
  4  2  1  0
  5  6  1  0
  7  5  2  0
  8 51  1  0
  8  6  2  0
  9 10  2  0
  9  7  1  0
 10  8  1  0
 11 20  1  0
 12 17  1  0
 13 14  1  0
 13 12  1  0
 15 14  1  0
 15 26  1  0
 15 16  1  0
 17 11  1  0
 17 16  1  0
 18 11  2  0
 19  9  1  0
 20 19  1  0
 20 22  1  0
 21 19  2  0
 23 24  2  0
 24 43  1  0
 25 28  1  0
 25 24  1  0
 26 27  1  0
 26 23  1  0
 27 25  2  0
 28 29  1  0
 29 30  2  0
 31 34  1  0
 31 30  1  0
 32 31  2  0
 33 32  1  0
 33 28  2  0
 34 35  1  0
 35 40  2  0
 35 36  1  0
 36 37  2  0
 37 38  1  0
 38 42  1  0
 39 38  2  0
 40 39  1  0
 41 40  1  0
 43 44  1  0
 44 46  1  0
 44 47  1  0
 45 43  2  0
 48 23  1  0
 48 49  1  0
 50 48  1  0
 51 52  1  0
 52 55  1  0
 52 54  1  0
 53 51  2  0
 56 57  1  0
 58 56  1  0
 58 59  1  0
 58  1  1  0
 59 57  1  0
 59 60  1  1
 62 61  1  0
 62 63  1  0
 62 59  1  0
 64 66  1  0
 64 63  1  0
 65 76  2  0
 66 71  1  0
 67 75  1  0
 67 77  1  0
 68 74  1  0
 68 70  1  0
 69 75  1  0
 70 69  1  0
 71 70  2  0
 72 73  1  0
 72 66  2  0
 73 68  2  0
 74 67  1  0
 75 65  1  0
 77 79  2  0
 78 77  1  0
 80 78  1  0
 81 90  2  0
 81 86  1  0
 82 78  1  0
 82 86  1  0
 83 82  1  0
 84 85  1  0
 84 83  1  0
 85 81  1  0
 86 87  2  0
 87 88  1  0
 89 88  2  0
 90 89  1  0
 91 65  1  0
 91 92  1  0
 91101  1  0
 92 95  1  0
 93 92  1  0
 93 97  1  0
 94 93  2  0
 97 96  1  0
 97 99  1  0
 99100  1  0
 99 98  1  0
101104  1  1
101102  1  0
103101  1  0
M  ISO  4  11 100  20 100  63 101  64 101
M  END
>  <TORSDO>  (66) 
F 21

>  <SCORE>  (66) 
-6.565

>  <name>  (66) 
65

>  <ligand_id>  (66) 
65

>  <original_smiles>  (66) 
[H]c1c([H])c(C(=O)N([H])[H])c(N([H])C(=O)C2([H])C([H])([H])C([H])([H])[N+]2([H])C([H])(C([H])([H])[H])C([H])([H])Oc2c([H])c([H])c3c(c2[H])C([H])([H])N(C(=O)C([H])(N([H])C(=O)C([H])(N([H])C([H])([H])[H])C([H])([H])[H])C(C([H])([H])[H])(C([H])([H])[H])C([H])([H])[H])C([H])(C(=O)N([H])C2([H])c4c([H])c([H])c([H])c([H])c4C([H])([H])C([H])([H])C2([H])[H])C3([H])[H])c(C(=O)N([H])C(=O)N2C([H])([H])C([H])([H])C([H])([H])C([H])(n3nc(-c4c([H])c([H])c(Oc5c([H])c([H])c(F)c([H])c5F)c([H])c4[H])c(C(=O)N([H])[H])c3N([H])[H])C2([H])[H])c1[H]

>  <smiles>  (66) 
[H]c1c([H])c(C(=O)N([H])[H])c(N([H])C(=O)C2([H])C([H])([H])C([H])([H])[N+]2([H])C([H])(C([H])([H])[H])C([H])([H])Oc2c([H])c([H])c3c(c2[H])C([H])([H])N(C(=O)C([H])(N([H])C(=O)C([H])(N([H])C([H])([H])[H])C([H])([H])[H])C(C([H])([H])[H])(C([H])([H])[H])C([H])([H])[H])C([H])(C(=O)N([H])C2([H])c4c([H])c([H])c([H])c([H])c4C([H])([H])C([H])([H])C2([H])[H])C3([H])[H])c(C(=O)N([H])C(=O)N2C([H])([H])C([H])([H])C([H])([H])C([H])(n3nc(-c4c([H])c([H])c(Oc5c([H])c([H])c(F)c([H])c5F)c([H])c4[H])c(C(=O)N([H])[H])c3N([H])[H])C2([H])[H])c1[H]

$$$$
66:0:0
     RDKit          3D

100108  0  0  1  0  0  0  0  0999 V2000
  -29.3690  -19.9060   21.8200 C   0  0  0  0  0  3  0  0  0  0  0  0
  -29.6460  -18.7050   21.1350 C   0  0  0  0  0  3  0  0  0  0  0  0
  -30.0710  -20.0250   19.1400 C   0  0  0  0  0  3  0  0  0  0  0  0
  -29.4670  -21.1790   21.2040 C   0  0  0  0  0  0  0  0  0  0  0  0
  -30.0360  -18.7230   19.7840 C   0  0  0  0  0  0  0  0  0  0  0  0
  -29.7860  -21.2820   19.8150 C   0  0  0  0  0  0  0  0  0  0  0  0
  -29.2880  -22.3900   22.0800 C   0  0  0  0  0  0  0  0  0  0  0  0
  -30.2380  -22.5900   22.9800 N   0  0  0  0  0  0  0  0  0  0  0  0
  -28.3410  -23.1620   21.9590 O   0  0  0  0  0  0  0  0  0  0  0  0
  -31.0240  -21.9590   23.0270 H   0  0  0  0  0  0  0  0  0  0  0  0
  -30.1990  -23.3880   23.5970 H   0  0  0  0  0  0  0  0  0  0  0  0
  -30.0540  -22.7150   19.1540 C   0  0  0  0  0  2  0  0  0  0  0  0
  -29.4470  -24.2940   17.2540 C   0  0  0  0  0  1  0  0  0  0  0  0
  -28.9130  -23.7400   18.5930 C   0  0  1  0  0  0  0  0  0  0  0  0
  -27.6520  -22.8590   18.3060 C   0  0  0  0  0  2  0  0  0  0  0  0
  -26.5420  -23.5210   17.5990 N   0  0  0  0  0  4  0  0  0  0  0  0
  -25.8630  -22.8270   17.3340 H   0  0  0  0  0  0  0  0  0  0  0  0
  -26.8580  -23.9770   16.7630 H   0  0  0  0  0  0  0  0  0  0  0  0
  -26.0760  -24.1770   18.1980 H   0  0  0  0  0  0  0  0  0  0  0  0
  -28.5800  -25.0450   19.5270 C   0  0  0  0  0  2  0  0  0  0  0  0
  -28.6210  -26.4780   19.0660 O   0  0  0  0  0  0  0  0  0  0  0  0
  -24.5740  -31.1970   22.8370 C   0  0  0  0  0  0  0  0  0  0  0  0
  -27.4620  -27.2680   19.1920 C   0  0  0  0  0  0  0  0  0  0  0  0
  -23.4490  -29.9240   21.0480 C   0  0  0  0  0  3  0  0  0  0  0  0
  -24.9860  -28.6930   19.4170 C   0  0  0  0  0  0  0  0  0  0  0  0
  -25.9540  -30.4680   20.8730 C   0  0  0  0  0  2  0  0  0  0  0  0
  -26.1300  -29.1910   20.0540 C   0  0  0  0  0  0  0  0  0  0  0  0
  -27.3730  -28.4930   19.9300 C   0  0  0  0  0  3  0  0  0  0  0  0
  -26.2950  -26.8450   18.5290 C   0  0  0  0  0  3  0  0  0  0  0  0
  -25.0700  -27.5250   18.6460 C   0  0  0  0  0  3  0  0  0  0  0  0
  -23.6870  -29.4530   19.5900 C   0  0  0  0  0  2  0  0  0  0  0  0
  -24.6780  -30.5410   21.6440 N   0  0  0  0  0  0  0  0  0  0  0  0
  -23.4840  -31.3140   23.4160 O   0  0  0  0  0  0  0  0  0  0  0  0
  -22.8930  -28.7400   21.8760 C   0  0  0  0  0  0  0  0  0  0  0  0
  -21.5850  -28.4620   21.7340 N   0  0  0  0  0  0  0  0  0  0  0  0
  -23.6350  -28.0790   22.6070 O   0  0  0  0  0  0  0  0  0  0  0  0
  -21.0370  -29.0540   21.1260 H   0  0  0  0  0  0  0  0  0  0  0  0
  -18.3400  -26.8960   22.0780 C   0  0  0  0  0  0  0  0  0  0  0  0
  -20.8640  -27.3680   22.3880 C   0  0  0  0  0  3  0  0  0  0  0  0
  -21.0990  -26.0280   21.6530 C   0  0  0  0  0  2  0  0  0  0  0  0
  -20.0260  -25.7200   20.6030 C   0  0  0  0  0  2  0  0  0  0  0  0
  -18.6400  -25.6570   21.2510 C   0  0  0  0  0  2  0  0  0  0  0  0
  -19.3830  -27.7070   22.5980 C   0  0  0  0  0  0  0  0  0  0  0  0
  -19.0480  -28.8670   23.3310 C   0  0  0  0  0  3  0  0  0  0  0  0
  -17.7030  -29.2190   23.5470 C   0  0  0  0  0  3  0  0  0  0  0  0
  -16.6730  -28.4030   23.0430 C   0  0  0  0  0  3  0  0  0  0  0  0
  -16.9930  -27.2430   22.3150 C   0  0  0  0  0  3  0  0  0  0  0  0
  -25.8150  -31.8510   23.5190 C   0  0  0  0  0  3  0  0  0  0  0  0
  -26.3540  -31.0230   24.7490 C   0  0  1  0  0  0  0  0  0  0  0  0
  -25.2620  -30.6710   25.7880 C   0  0  0  0  0  1  0  0  0  0  0  0
  -27.0030  -29.7010   24.2790 C   0  0  0  0  0  1  0  0  0  0  0  0
  -27.4660  -31.8230   25.4700 C   0  0  0  0  0  1  0  0  0  0  0  0
  -25.4310  -33.2070   23.9370 N   0  0  0  0  0  0  0  0  0  0  0  0
  -25.7390  -34.3260   23.2680 C   0  0  0  0  0  0  0  0  0  0  0  0
  -26.4450  -34.3280   22.2560 O   0  0  0  0  0  0  0  0  0  0  0  0
  -24.8070  -33.2780   24.7280 H   0  0  0  0  0  0  0  0  0  0  0  0
  -23.9450  -36.0650   22.9790 C   0  0  0  0  0  1  0  0  0  0  0  0
  -25.1740  -35.6550   23.8060 C   0  0  0  0  0  3  0  0  0  0  0  0
  -27.2300  -36.5660   24.7870 C   0  0  0  0  0  1  0  0  0  0  0  0
  -26.1610  -36.7560   23.8110 N   0  0  0  0  0  0  0  0  0  0  0  0
  -25.7090  -37.6440   24.0070 H   0  0  0  0  0  0  0  0  0  0  0  0
  -30.4910  -17.3710   19.0900 C   0  0  0  0  0  2  0  0  0  0  0  0
  -30.9710  -14.8550   19.5590 C   0  0  0  0  0  0  0  0  0  0  0  0
  -30.7330  -12.4750   18.8550 C   0  0  0  0  0  2  0  0  0  0  0  0
  -29.7330  -12.4070   17.6800 C   0  0  0  0  0  2  0  0  0  0  0  0
  -28.2920  -12.2790   18.2060 C   0  0  0  0  0  2  0  0  0  0  0  0
  -27.9740  -13.3090   19.3240 C   0  0  0  0  0  3  0  0  0  0  0  0
  -29.0890  -13.3570   20.3920 C   0  0  0  0  0  2  0  0  0  0  0  0
  -30.3530  -13.6330   19.6960 N   0  0  0  0  0  0  0  0  0  0  0  0
  -32.1210  -14.9200   19.1160 O   0  0  0  0  0  0  0  0  0  0  0  0
  -30.2080  -16.0000   19.6940 N   0  0  0  0  0  0  0  0  0  0  0  0
  -29.2760  -15.8660   20.0520 H   0  0  0  0  0  0  0  0  0  0  0  0
  -25.6950  -14.0010   20.2790 C   0  0  0  0  0  0  0  0  0  0  0  0
  -24.6220  -13.2700   20.7110 C   0  0  0  0  0  0  0  0  0  0  0  0
  -25.0010  -11.8990   20.5890 C   0  0  0  0  0  0  0  0  0  0  0  0
  -26.6620  -13.0760   19.9180 N   0  0  0  0  0  0  0  0  0  0  0  0
  -26.2570  -11.8040   20.1680 N   0  0  0  0  0  0  0  0  0  0  0  0
  -24.2230  -10.6710   20.7940 C   0  0  0  0  0  0  0  0  0  0  0  0
  -24.6410   -9.6740   21.7030 C   0  0  0  0  0  3  0  0  0  0  0  0
  -23.8650   -8.5100   21.8980 C   0  0  0  0  0  3  0  0  0  0  0  0
  -22.6560   -8.3370   21.1830 C   0  0  0  0  0  0  0  0  0  0  0  0
  -22.2550   -9.3230   20.2640 C   0  0  0  0  0  3  0  0  0  0  0  0
  -23.0310  -10.4770   20.0670 C   0  0  0  0  0  3  0  0  0  0  0  0
  -21.8500   -7.2290   21.2880 O   0  0  0  0  0  0  0  0  0  0  0  0
  -21.7730   -6.5020   22.4490 C   0  0  0  0  0  0  0  0  0  0  0  0
  -21.3450   -7.0810   23.6640 C   0  0  0  0  0  3  0  0  0  0  0  0
  -21.2150   -6.2830   24.8180 C   0  0  0  0  0  3  0  0  0  0  0  0
  -21.5020   -4.9050   24.7570 C   0  0  0  0  0  0  0  0  0  0  0  0
  -21.9240   -4.3270   23.5460 C   0  0  0  0  0  3  0  0  0  0  0  0
  -22.0550   -5.1220   22.3950 C   0  0  0  0  0  0  0  0  0  0  0  0
  -22.4410   -4.5560   21.2270 F   0  0  0  0  0  0  0  0  0  0  0  0
  -21.3700   -4.1350   25.8620 F   0  0  0  0  0  0  0  0  0  0  0  0
  -23.2830  -13.8110   21.1220 C   0  0  0  0  0  0  0  0  0  0  0  0
  -22.5980  -13.1260   22.0310 N   0  0  0  0  0  0  0  0  0  0  0  0
  -22.8580  -14.8730   20.6690 O   0  0  0  0  0  0  0  0  0  0  0  0
  -22.9580  -12.2640   22.4130 H   0  0  0  0  0  0  0  0  0  0  0  0
  -21.7040  -13.4690   22.3490 H   0  0  0  0  0  0  0  0  0  0  0  0
  -25.9210  -15.3670   20.1380 N   0  0  0  0  0  0  0  0  0  0  0  0
  -25.2000  -16.0520   20.3380 H   0  0  0  0  0  0  0  0  0  0  0  0
  -26.7510  -15.7750   19.7260 H   0  0  0  0  0  0  0  0  0  0  0  0
  2  1  2  0
  3  5  2  0
  3  6  1  0
  4  1  1  0
  4  7  1  0
  5  2  1  0
  6  4  2  0
  7  8  1  0
  8 10  1  0
  8 11  1  0
  9  7  2  0
 12  6  1  0
 14 13  1  6
 14 12  1  0
 14 20  1  0
 15 14  1  0
 16 19  1  0
 16 15  1  0
 17 16  1  0
 18 16  1  0
 21 23  1  0
 21 20  1  0
 22 33  2  0
 23 28  1  0
 24 32  1  0
 24 34  1  0
 25 31  1  0
 25 27  1  0
 26 32  1  0
 27 26  1  0
 28 27  2  0
 29 30  1  0
 29 23  2  0
 30 25  2  0
 31 24  1  0
 32 22  1  0
 34 36  2  0
 35 34  1  0
 37 35  1  0
 38 47  2  0
 38 43  1  0
 39 35  1  0
 39 43  1  0
 40 39  1  0
 41 42  1  0
 41 40  1  0
 42 38  1  0
 43 44  2  0
 44 45  1  0
 46 45  2  0
 47 46  1  0
 48 22  1  0
 48 53  1  0
 48 49  1  0
 49 52  1  1
 49 50  1  0
 51 49  1  0
 53 56  1  0
 54 58  1  0
 54 53  1  0
 55 54  2  0
 58 57  1  0
 58 60  1  0
 60 61  1  0
 60 59  1  0
 62 71  1  0
 62  5  1  0
 63 71  1  0
 63 69  1  0
 64 69  1  0
 65 66  1  0
 65 64  1  0
 67 66  1  0
 67 76  1  0
 67 68  1  0
 69 68  1  0
 70 63  2  0
 71 72  1  0
 73 74  2  0
 74 93  1  0
 75 74  1  0
 75 78  1  0
 76 77  1  0
 76 73  1  0
 77 75  2  0
 78 79  1  0
 79 80  2  0
 81 84  1  0
 81 80  1  0
 82 81  2  0
 83 82  1  0
 83 78  2  0
 84 85  1  0
 85 86  1  0
 86 87  2  0
 88 87  1  0
 88 92  1  0
 89 88  2  0
 90 85  2  0
 90 89  1  0
 91 90  1  0
 93 94  1  0
 94 97  1  0
 94 96  1  0
 95 93  2  0
 98 73  1  0
 98 99  1  0
100 98  1  0
M  ISO  4  20 101  21 101  63 100  71 100
M  END
>  <TORSDO>  (67) 
F 23

>  <SCORE>  (67) 
-10.565

>  <name>  (67) 
66

>  <ligand_id>  (67) 
66

>  <original_smiles>  (67) 
[H]c1c([H])c([H])c2c(c1[H])C([H])([H])C([H])([H])C([H])([H])C2([H])N([H])C(=O)C1([H])N(C(=O)C([H])(N([H])C(=O)C([H])(N([H])C([H])([H])[H])C([H])([H])[H])C(C([H])([H])[H])(C([H])([H])[H])C([H])([H])[H])C([H])([H])c2c([H])c(OC([H])([H])C(C([H])([H])[H])(C([H])([H])c3c([H])c(C([H])([H])N([H])C(=O)N4C([H])([H])C([H])([H])C([H])([H])C([H])(n5nc(-c6c([H])c([H])c(Oc7c([H])c([H])c(F)c([H])c7F)c([H])c6[H])c(C(=O)N([H])[H])c5N([H])[H])C4([H])[H])c([H])c([H])c3C(=O)N([H])[H])C([H])([H])[N+]([H])([H])[H])c([H])c([H])c2C1([H])[H]

>  <smiles>  (67) 
[H]c1c([H])c([H])c2c(c1[H])C([H])([H])C([H])([H])C([H])([H])C2([H])N([H])C(=O)C1([H])N(C(=O)C([H])(N([H])C(=O)C([H])(N([H])C([H])([H])[H])C([H])([H])[H])C(C([H])([H])[H])(C([H])([H])[H])C([H])([H])[H])C([H])([H])c2c([H])c(OC([H])([H])C(C([H])([H])[H])(C([H])([H])c3c([H])c(C([H])([H])N([H])C(=O)N4C([H])([H])C([H])([H])C([H])([H])C([H])(n5nc(-c6c([H])c([H])c(Oc7c([H])c([H])c(F)c([H])c7F)c([H])c6[H])c(C(=O)N([H])[H])c5N([H])[H])C4([H])[H])c([H])c([H])c3C(=O)N([H])[H])C([H])([H])[N+]([H])([H])[H])c([H])c([H])c2C1([H])[H]

$$$$
67:0:0
     RDKit          3D

 95103  0  0  1  0  0  0  0  0999 V2000
  -27.7710  -20.9900   17.3050 C   0  0  0  0  0  1  0  0  0  0  0  0
  -28.7130  -21.3380   18.4790 C   0  0  0  0  0  0  0  0  0  0  0  0
  -29.1500  -20.1100   19.3900 C   0  0  0  0  0  0  0  0  0  0  0  0
  -26.3240  -17.8920   20.0570 C   0  0  0  0  0  2  0  0  0  0  0  0
  -27.5100  -17.0640   20.5390 C   0  0  0  0  0  2  0  0  0  0  0  0
  -26.9300  -19.0720   19.2880 C   0  0  0  0  0  2  0  0  0  0  0  0
  -28.6500  -17.4840   19.6120 C   0  0  0  0  0  3  0  0  0  0  0  0
  -28.3920  -18.9600   19.3870 N   0  0  0  0  0  0  0  0  0  0  0  0
  -30.2520  -20.1520   19.9460 O   0  0  0  0  0  0  0  0  0  0  0  0
  -30.7400  -17.4230   21.1580 C   0  0  0  0  0  1  0  0  0  0  0  0
  -30.0400  -16.7870   19.9430 C   0  0  0  0  0  3  0  0  0  0  0  0
  -30.7100  -14.2550   20.0070 C   0  0  0  0  0  0  0  0  0  0  0  0
  -30.5430  -11.9280   19.1650 C   0  0  0  0  0  2  0  0  0  0  0  0
  -29.5840  -11.9390   17.9540 C   0  0  0  0  0  2  0  0  0  0  0  0
  -28.1180  -11.8040   18.4200 C   0  0  0  0  0  2  0  0  0  0  0  0
  -27.7660  -12.7640   19.5910 C   0  0  0  0  0  3  0  0  0  0  0  0
  -28.8400  -12.7070   20.6990 C   0  0  0  0  0  2  0  0  0  0  0  0
  -30.1330  -13.0180   20.0700 N   0  0  0  0  0  0  0  0  0  0  0  0
  -31.8640  -14.4170   19.5960 O   0  0  0  0  0  0  0  0  0  0  0  0
  -29.8640  -15.3110   20.2060 N   0  0  0  0  0  0  0  0  0  0  0  0
  -28.9440  -15.0360   20.5190 H   0  0  0  0  0  0  0  0  0  0  0  0
  -25.3870  -13.3940   20.3360 C   0  0  0  0  0  0  0  0  0  0  0  0
  -24.3300  -12.6370   20.7620 C   0  0  0  0  0  0  0  0  0  0  0  0
  -24.7920  -11.2860   20.7680 C   0  0  0  0  0  0  0  0  0  0  0  0
  -26.4270  -12.5050   20.1130 N   0  0  0  0  0  0  0  0  0  0  0  0
  -26.0750  -11.2340   20.4330 N   0  0  0  0  0  0  0  0  0  0  0  0
  -24.0710  -10.0320   21.0200 C   0  0  0  0  0  0  0  0  0  0  0  0
  -24.5080   -9.1170   22.0000 C   0  0  0  0  0  3  0  0  0  0  0  0
  -23.7890   -7.9250   22.2380 C   0  0  0  0  0  3  0  0  0  0  0  0
  -22.6190   -7.6430   21.4940 C   0  0  0  0  0  0  0  0  0  0  0  0
  -22.2000   -8.5490   20.5020 C   0  0  0  0  0  3  0  0  0  0  0  0
  -22.9200   -9.7320   20.2630 C   0  0  0  0  0  3  0  0  0  0  0  0
  -21.8730   -6.4990   21.6350 O   0  0  0  0  0  0  0  0  0  0  0  0
  -21.7940   -5.8350   22.8330 C   0  0  0  0  0  0  0  0  0  0  0  0
  -21.3330   -6.4680   24.0080 C   0  0  0  0  0  3  0  0  0  0  0  0
  -21.2000   -5.7290   25.2000 C   0  0  0  0  0  3  0  0  0  0  0  0
  -21.5230   -4.3600   25.2200 C   0  0  0  0  0  0  0  0  0  0  0  0
  -21.9790   -3.7270   24.0510 C   0  0  0  0  0  3  0  0  0  0  0  0
  -22.1130   -4.4620   22.8600 C   0  0  0  0  0  0  0  0  0  0  0  0
  -22.5310   -3.8420   21.7310 F   0  0  0  0  0  0  0  0  0  0  0  0
  -21.3900   -3.6480   26.3640 F   0  0  0  0  0  0  0  0  0  0  0  0
  -22.9390  -13.1270   21.0490 C   0  0  0  0  0  0  0  0  0  0  0  0
  -22.2330  -12.4650   21.9580 N   0  0  0  0  0  0  0  0  0  0  0  0
  -22.4860  -14.1290   20.4980 O   0  0  0  0  0  0  0  0  0  0  0  0
  -22.6140  -11.6570   22.4270 H   0  0  0  0  0  0  0  0  0  0  0  0
  -21.3010  -12.7760   22.1950 H   0  0  0  0  0  0  0  0  0  0  0  0
  -25.5390  -14.7530   20.0940 N   0  0  0  0  0  0  0  0  0  0  0  0
  -24.7580  -15.3930   20.1950 H   0  0  0  0  0  0  0  0  0  0  0  0
  -26.3440  -15.1750   19.6540 H   0  0  0  0  0  0  0  0  0  0  0  0
  -28.8810  -23.6820   19.7820 C   0  0  0  0  0  0  0  0  0  0  0  0
  -28.5630  -22.8000   18.7990 N   0  0  0  0  0  4  0  0  0  0  0  0
  -29.2330  -23.3280   20.9070 O   0  0  0  0  0  0  0  0  0  0  0  0
  -28.2230  -23.2980   17.9880 H   0  0  0  0  0  0  0  0  0  0  0  0
  -28.8560  -25.2040   19.3560 C   0  0  0  0  0  2  0  0  0  0  0  0
  -28.5650  -26.2080   20.3880 O   0  0  0  0  0  0  0  0  0  0  0  0
  -24.7010  -31.5510   23.2750 C   0  0  0  0  0  0  0  0  0  0  0  0
  -27.4240  -27.0140   20.3030 C   0  0  0  0  0  0  0  0  0  0  0  0
  -23.5590  -30.1650   21.5800 C   0  0  0  0  0  3  0  0  0  0  0  0
  -25.0590  -28.6120   20.2150 C   0  0  0  0  0  0  0  0  0  0  0  0
  -26.1020  -30.4750   21.5040 C   0  0  0  0  0  2  0  0  0  0  0  0
  -26.2010  -29.1000   20.8570 C   0  0  0  0  0  0  0  0  0  0  0  0
  -27.3840  -28.3110   20.8970 C   0  0  0  0  0  3  0  0  0  0  0  0
  -26.2440  -26.5550   19.6720 C   0  0  0  0  0  3  0  0  0  0  0  0
  -25.0780  -27.3420   19.6190 C   0  0  0  0  0  3  0  0  0  0  0  0
  -23.8290  -29.4960   20.2080 C   0  0  0  0  0  2  0  0  0  0  0  0
  -24.8040  -30.7450   22.1790 N   0  0  0  0  0  0  0  0  0  0  0  0
  -23.5980  -31.8370   23.7610 O   0  0  0  0  0  0  0  0  0  0  0  0
  -22.8520  -29.1480   22.5050 C   0  0  0  0  0  0  0  0  0  0  0  0
  -21.5300  -28.9870   22.3240 N   0  0  0  0  0  0  0  0  0  0  0  0
  -23.4910  -28.5090   23.3450 O   0  0  0  0  0  0  0  0  0  0  0  0
  -21.0760  -29.5500   21.6190 H   0  0  0  0  0  0  0  0  0  0  0  0
  -18.1230  -27.8450   22.6780 C   0  0  0  0  0  0  0  0  0  0  0  0
  -20.6730  -28.0510   23.0520 C   0  0  0  0  0  3  0  0  0  0  0  0
  -20.7770  -26.6260   22.4600 C   0  0  0  0  0  2  0  0  0  0  0  0
  -19.7030  -26.3120   21.4140 C   0  0  0  0  0  2  0  0  0  0  0  0
  -18.3010  -26.4960   22.0010 C   0  0  0  0  0  2  0  0  0  0  0  0
  -19.2390  -28.5780   23.1610 C   0  0  0  0  0  0  0  0  0  0  0  0
  -19.0220  -29.8390   23.7550 C   0  0  0  0  0  3  0  0  0  0  0  0
  -17.7210  -30.3610   23.8840 C   0  0  0  0  0  3  0  0  0  0  0  0
  -16.6190  -29.6210   23.4200 C   0  0  0  0  0  3  0  0  0  0  0  0
  -16.8210  -28.3660   22.8190 C   0  0  0  0  0  3  0  0  0  0  0  0
  -25.9650  -32.1710   23.9510 C   0  0  0  0  0  3  0  0  0  0  0  0
  -26.3960  -31.4160   25.2680 C   0  0  1  0  0  0  0  0  0  0  0  0
  -25.2420  -31.2210   26.2790 C   0  0  0  0  0  1  0  0  0  0  0  0
  -26.9710  -30.0190   24.9400 C   0  0  0  0  0  1  0  0  0  0  0  0
  -27.5230  -32.2010   25.9790 C   0  0  0  0  0  1  0  0  0  0  0  0
  -25.6690  -33.5820   24.2340 N   0  0  0  0  0  0  0  0  0  0  0  0
  -26.0590  -34.6090   23.4680 C   0  0  0  0  0  0  0  0  0  0  0  0
  -26.7740  -34.4670   22.4720 O   0  0  0  0  0  0  0  0  0  0  0  0
  -25.0430  -33.7720   25.0020 H   0  0  0  0  0  0  0  0  0  0  0  0
  -24.3830  -36.4210   22.9900 C   0  0  0  0  0  1  0  0  0  0  0  0
  -25.5780  -36.0150   23.8670 C   0  0  0  0  0  3  0  0  0  0  0  0
  -27.6860  -36.8830   24.7770 C   0  0  0  0  0  1  0  0  0  0  0  0
  -26.6330  -37.0470   23.7790 N   0  0  0  0  0  0  0  0  0  0  0  0
  -26.2360  -37.9770   23.8850 H   0  0  0  0  0  0  0  0  0  0  0  0
  1  2  1  0
  2 51  2  0
  2  3  1  0
  3  9  2  0
  4  5  1  0
  6  8  1  0
  6  4  1  0
  7 11  1  0
  7  5  1  0
  8  3  1  0
  8  7  1  0
 11 20  1  0
 11 10  1  0
 12 18  1  0
 12 20  1  0
 13 18  1  0
 14 15  1  0
 14 13  1  0
 16 15  1  0
 16 25  1  0
 16 17  1  0
 18 17  1  0
 19 12  2  0
 20 21  1  0
 22 23  2  0
 23 24  1  0
 23 42  1  0
 24 27  1  0
 25 22  1  0
 25 26  1  0
 26 24  2  0
 27 28  1  0
 28 29  2  0
 30 33  1  0
 30 29  1  0
 31 30  2  0
 32 31  1  0
 32 27  2  0
 33 34  1  0
 34 39  2  0
 34 35  1  0
 35 36  2  0
 36 37  1  0
 37 41  1  0
 38 37  2  0
 39 38  1  0
 40 39  1  0
 42 43  1  0
 43 46  1  0
 43 45  1  0
 44 42  2  0
 47 48  1  0
 47 22  1  0
 49 47  1  0
 50 52  2  0
 51 50  1  0
 53 51  1  0
 54 50  1  0
 54 55  1  0
 56 67  2  0
 57 55  1  0
 57 62  1  0
 58 66  1  0
 58 68  1  0
 59 61  1  0
 60 66  1  0
 61 62  2  0
 61 60  1  0
 63 57  2  0
 64 63  1  0
 64 59  2  0
 65 59  1  0
 65 58  1  0
 66 56  1  0
 68 70  2  0
 69 68  1  0
 71 69  1  0
 72 81  2  0
 72 77  1  0
 73 69  1  0
 73 77  1  0
 74 73  1  0
 75 76  1  0
 75 74  1  0
 76 72  1  0
 77 78  2  0
 78 79  1  0
 80 79  2  0
 81 80  1  0
 82 56  1  0
 82 87  1  0
 82 83  1  0
 83 86  1  1
 83 84  1  0
 85 83  1  0
 87 90  1  0
 88 92  1  0
 88 87  1  0
 89 88  2  0
 92 91  1  0
 94 92  1  0
 94 95  1  0
 94 93  1  0
M  ISO  4  12 100  20 100  54 101  55 101
M  END
>  <TORSDO>  (68) 
F 20

>  <SCORE>  (68) 
-12.505

>  <name>  (68) 
67

>  <ligand_id>  (68) 
67

>  <original_smiles>  (68) 
[H]c1c([H])c([H])c2c(c1[H])C([H])([H])C([H])([H])C([H])([H])C2([H])N([H])C(=O)C1([H])N(C(=O)C([H])(N([H])C(=O)C([H])(N([H])C([H])([H])[H])C([H])([H])[H])C(C([H])([H])[H])(C([H])([H])[H])C([H])([H])[H])C([H])([H])c2c([H])c(OC([H])([H])C(=O)N([H])C([H])(C(=O)N3C([H])([H])C([H])([H])C([H])([H])C3([H])C([H])(N([H])C(=O)N3C([H])([H])C([H])([H])C([H])([H])C([H])(n4nc(-c5c([H])c([H])c(Oc6c([H])c([H])c(F)c([H])c6F)c([H])c5[H])c(C(=O)N([H])[H])c4N([H])[H])C3([H])[H])C([H])([H])[H])C([H])([H])[H])c([H])c([H])c2C1([H])[H]

>  <smiles>  (68) 
[H]c1c([H])c([H])c2c(c1[H])C([H])([H])C([H])([H])C([H])([H])C2([H])N([H])C(=O)C1([H])N(C(=O)C([H])(N([H])C(=O)C([H])(N([H])C([H])([H])[H])C([H])([H])[H])C(C([H])([H])[H])(C([H])([H])[H])C([H])([H])[H])C([H])([H])c2c([H])c(OC([H])([H])C(=O)N([H])C([H])(C(=O)N3C([H])([H])C([H])([H])C([H])([H])C3([H])C([H])(N([H])C(=O)N3C([H])([H])C([H])([H])C([H])([H])C([H])(n4nc(-c5c([H])c([H])c(Oc6c([H])c([H])c(F)c([H])c6F)c([H])c5[H])c(C(=O)N([H])[H])c4N([H])[H])C3([H])[H])C([H])([H])[H])C([H])([H])[H])c([H])c([H])c2C1([H])[H]

$$$$
68:0:0
     RDKit          3D

101110  0  0  1  0  0  0  0  0999 V2000
  -30.0110  -21.3690   22.5420 C   0  0  0  0  0  2  0  0  0  0  0  0
  -28.3530  -21.4020   20.7290 C   0  0  0  0  0  2  0  0  0  0  0  0
  -30.5120  -22.7660   22.0780 C   0  0  0  0  0  2  0  0  0  0  0  0
  -28.8500  -22.8150   20.2830 C   0  0  0  0  0  2  0  0  0  0  0  0
  -29.3370  -20.6110   21.4890 N   0  0  0  0  0  0  0  0  0  0  0  0
  -29.4830  -23.6030   21.3800 N   0  0  2  0  0  4  0  0  0  0  0  0
  -28.7640  -23.7920   22.0620 H   0  0  0  0  0  0  0  0  0  0  0  0
  -31.6710  -18.9640   19.1020 C   0  0  0  0  0  3  0  0  0  0  0  0
  -31.0070  -19.9520   19.8460 C   0  0  0  0  0  3  0  0  0  0  0  0
  -29.8810  -18.1950   21.0970 C   0  0  0  0  0  3  0  0  0  0  0  0
  -31.4270  -17.5840   19.2990 C   0  0  0  0  0  0  0  0  0  0  0  0
  -30.0660  -19.5880   20.8230 C   0  0  0  0  0  0  0  0  0  0  0  0
  -30.5650  -17.1600   20.3730 C   0  0  0  0  0  0  0  0  0  0  0  0
  -31.0320  -14.6360   20.5430 C   0  0  0  0  0  0  0  0  0  0  0  0
  -30.7460  -12.4300   19.4790 C   0  0  0  0  0  2  0  0  0  0  0  0
  -29.8420  -12.5940   18.2400 C   0  0  0  0  0  2  0  0  0  0  0  0
  -28.3550  -12.4990   18.6240 C   0  0  0  0  0  2  0  0  0  0  0  0
  -27.9880  -13.3620   19.8610 C   0  0  0  0  0  3  0  0  0  0  0  0
  -29.0120  -13.1790   21.0060 C   0  0  0  0  0  2  0  0  0  0  0  0
  -30.3470  -13.4580   20.4540 N   0  0  0  0  0  0  0  0  0  0  0  0
  -32.2360  -14.7060   20.2860 O   0  0  0  0  0  0  0  0  0  0  0  0
  -30.2820  -15.7610   20.7280 N   0  0  0  0  0  0  0  0  0  0  0  0
  -29.3600  -15.5810   21.1010 H   0  0  0  0  0  0  0  0  0  0  0  0
  -25.5730  -14.0010   20.4750 C   0  0  0  0  0  0  0  0  0  0  0  0
  -24.4840  -13.2470   20.8200 C   0  0  0  0  0  0  0  0  0  0  0  0
  -24.9320  -11.8900   20.8330 C   0  0  0  0  0  0  0  0  0  0  0  0
  -26.6160  -13.1060   20.3000 N   0  0  0  0  0  0  0  0  0  0  0  0
  -26.2340  -11.8330   20.5710 N   0  0  0  0  0  0  0  0  0  0  0  0
  -24.1860  -10.6360   21.0170 C   0  0  0  0  0  0  0  0  0  0  0  0
  -24.5780   -9.6740   21.9700 C   0  0  0  0  0  3  0  0  0  0  0  0
  -23.8330   -8.4860   22.1360 C   0  0  0  0  0  3  0  0  0  0  0  0
  -22.6800   -8.2530   21.3490 C   0  0  0  0  0  0  0  0  0  0  0  0
  -22.3110   -9.2040   20.3810 C   0  0  0  0  0  3  0  0  0  0  0  0
  -23.0570  -10.3830   20.2120 C   0  0  0  0  0  3  0  0  0  0  0  0
  -21.9100   -7.1190   21.4240 O   0  0  0  0  0  0  0  0  0  0  0  0
  -21.8000   -6.3980   22.5860 C   0  0  0  0  0  0  0  0  0  0  0  0
  -21.3220   -6.9830   23.7810 C   0  0  0  0  0  3  0  0  0  0  0  0
  -21.1590   -6.1920   24.9350 C   0  0  0  0  0  3  0  0  0  0  0  0
  -21.4630   -4.8180   24.8970 C   0  0  0  0  0  0  0  0  0  0  0  0
  -21.9330   -4.2330   23.7070 C   0  0  0  0  0  3  0  0  0  0  0  0
  -22.0980   -5.0210   22.5540 C   0  0  0  0  0  0  0  0  0  0  0  0
  -22.5310   -4.4490   21.4050 F   0  0  0  0  0  0  0  0  0  0  0  0
  -21.3010   -4.0560   26.0040 F   0  0  0  0  0  0  0  0  0  0  0  0
  -23.0840  -13.7440   21.0410 C   0  0  0  0  0  0  0  0  0  0  0  0
  -22.3220  -13.0760   21.8990 N   0  0  0  0  0  0  0  0  0  0  0  0
  -22.6720  -14.7630   20.4870 O   0  0  0  0  0  0  0  0  0  0  0  0
  -22.6660  -12.2500   22.3670 H   0  0  0  0  0  0  0  0  0  0  0  0
  -21.3810  -13.3920   22.0940 H   0  0  0  0  0  0  0  0  0  0  0  0
  -25.7650  -15.3640   20.2750 N   0  0  0  0  0  0  0  0  0  0  0  0
  -25.0130  -16.0410   20.3180 H   0  0  0  0  0  0  0  0  0  0  0  0
  -26.6360  -15.7660   19.9510 H   0  0  0  0  0  0  0  0  0  0  0  0
  -32.0050  -16.6620   18.2560 C   0  0  0  0  0  0  0  0  0  0  0  0
  -33.2990  -16.8090   17.9910 N   0  0  0  0  0  0  0  0  0  0  0  0
  -31.3120  -15.8370   17.6670 O   0  0  0  0  0  0  0  0  0  0  0  0
  -33.8450  -17.4840   18.5030 H   0  0  0  0  0  0  0  0  0  0  0  0
  -33.7540  -16.2090   17.3190 H   0  0  0  0  0  0  0  0  0  0  0  0
  -30.0650  -24.9280   20.9280 C   0  0  0  0  0  2  0  0  0  0  0  0
  -28.4590  -26.2400   22.5230 C   0  0  0  0  0  1  0  0  0  0  0  0
  -30.4330  -27.3670   21.3850 C   0  0  0  0  0  1  0  0  0  0  0  0
  -29.3220  -26.2980   21.2360 C   0  0  1  0  0  0  0  0  0  0  0  0
  -28.5710  -26.6670   20.0500 O   0  0  0  0  0  0  0  0  0  0  0  0
  -24.6500  -31.8280   23.1580 C   0  0  0  0  0  0  0  0  0  0  0  0
  -27.4340  -27.4660   20.0970 C   0  0  0  0  0  0  0  0  0  0  0  0
  -23.4940  -30.4170   21.4850 C   0  0  0  0  0  3  0  0  0  0  0  0
  -24.9970  -28.9230   20.0670 C   0  0  0  0  0  0  0  0  0  0  0  0
  -26.0070  -30.8390   21.3130 C   0  0  0  0  0  2  0  0  0  0  0  0
  -26.1330  -29.4700   20.6770 C   0  0  0  0  0  0  0  0  0  0  0  0
  -27.3520  -28.7560   20.6850 C   0  0  0  0  0  3  0  0  0  0  0  0
  -26.2860  -26.9530   19.4580 C   0  0  0  0  0  3  0  0  0  0  0  0
  -25.0690  -27.6630   19.4500 C   0  0  0  0  0  3  0  0  0  0  0  0
  -23.7340  -29.7540   20.1020 C   0  0  0  0  0  2  0  0  0  0  0  0
  -24.7350  -31.0450   22.0460 N   0  0  0  0  0  0  0  0  0  0  0  0
  -23.5570  -32.0700   23.6880 O   0  0  0  0  0  0  0  0  0  0  0  0
  -22.8570  -29.3710   22.4290 C   0  0  0  0  0  0  0  0  0  0  0  0
  -21.5330  -29.1870   22.3060 N   0  0  0  0  0  0  0  0  0  0  0  0
  -23.5490  -28.7330   23.2260 O   0  0  0  0  0  0  0  0  0  0  0  0
  -21.0380  -29.7570   21.6350 H   0  0  0  0  0  0  0  0  0  0  0  0
  -18.1620  -27.9920   22.8210 C   0  0  0  0  0  0  0  0  0  0  0  0
  -20.7250  -28.2260   23.0570 C   0  0  0  0  0  3  0  0  0  0  0  0
  -20.8070  -26.8170   22.4310 C   0  0  0  0  0  2  0  0  0  0  0  0
  -19.6870  -26.5360   21.4230 C   0  0  0  0  0  2  0  0  0  0  0  0
  -18.3170  -26.6670   22.0960 C   0  0  0  0  0  2  0  0  0  0  0  0
  -19.2920  -28.7330   23.2570 C   0  0  0  0  0  0  0  0  0  0  0  0
  -19.0940  -29.9760   23.8970 C   0  0  0  0  0  3  0  0  0  0  0  0
  -17.7970  -30.4820   24.1000 C   0  0  0  0  0  3  0  0  0  0  0  0
  -16.6800  -29.7380   23.6770 C   0  0  0  0  0  3  0  0  0  0  0  0
  -16.8630  -28.4950   23.0460 C   0  0  0  0  0  3  0  0  0  0  0  0
  -25.9130  -32.4780   23.8030 C   0  0  0  0  0  3  0  0  0  0  0  0
  -26.4350  -31.7020   25.0770 C   0  0  1  0  0  0  0  0  0  0  0  0
  -25.3350  -31.4280   26.1290 C   0  0  0  0  0  1  0  0  0  0  0  0
  -27.0490  -30.3410   24.6700 C   0  0  0  0  0  1  0  0  0  0  0  0
  -27.5650  -32.5100   25.7590 C   0  0  0  0  0  1  0  0  0  0  0  0
  -25.5740  -33.8660   24.1430 N   0  0  0  0  0  0  0  0  0  0  0  0
  -25.8990  -34.9320   23.3990 C   0  0  0  0  0  0  0  0  0  0  0  0
  -26.5900  -34.8520   22.3780 O   0  0  0  0  0  0  0  0  0  0  0  0
  -24.9510  -34.0020   24.9260 H   0  0  0  0  0  0  0  0  0  0  0  0
  -24.1390  -36.6920   23.0290 C   0  0  0  0  0  1  0  0  0  0  0  0
  -25.3750  -36.3060   23.8590 C   0  0  0  0  0  3  0  0  0  0  0  0
  -27.4770  -37.2240   24.7350 C   0  0  0  0  0  1  0  0  0  0  0  0
  -26.3870  -37.3810   23.7750 N   0  0  0  0  0  0  0  0  0  0  0  0
  -25.9610  -38.2920   23.9220 H   0  0  0  0  0  0  0  0  0  0  0  0
  2  5  1  0
  3  1  1  0
  4  2  1  0
  4  6  1  0
  5  1  1  0
  6  7  1  1
  6  3  1  0
  8 11  2  0
  8  9  1  0
  9 12  2  0
 11 13  1  0
 12 10  1  0
 12  5  1  0
 13 22  1  0
 13 10  2  0
 14 22  1  0
 15 20  1  0
 16 17  1  0
 16 15  1  0
 18 17  1  0
 18 27  1  0
 18 19  1  0
 20 14  1  0
 20 19  1  0
 21 14  2  0
 22 23  1  0
 24 25  2  0
 25 26  1  0
 25 44  1  0
 26 29  1  0
 27 24  1  0
 27 28  1  0
 28 26  2  0
 29 30  1  0
 30 31  2  0
 32 35  1  0
 32 31  1  0
 33 32  2  0
 34 33  1  0
 34 29  2  0
 35 36  1  0
 36 37  1  0
 37 38  2  0
 39 38  1  0
 39 43  1  0
 40 39  2  0
 41 36  2  0
 41 40  1  0
 42 41  1  0
 44 45  1  0
 45 48  1  0
 45 47  1  0
 46 44  2  0
 49 50  1  0
 49 24  1  0
 51 49  1  0
 52 11  1  0
 53 52  1  0
 53 55  1  0
 54 52  2  0
 56 53  1  0
 57 60  1  0
 57  6  1  0
 60 59  1  1
 60 58  1  0
 61 63  1  0
 61 60  1  0
 62 73  2  0
 63 68  1  0
 64 72  1  0
 64 74  1  0
 65 71  1  0
 65 67  1  0
 66 72  1  0
 67 68  2  0
 67 66  1  0
 69 63  2  0
 70 69  1  0
 70 65  2  0
 71 64  1  0
 72 62  1  0
 74 76  2  0
 75 74  1  0
 77 75  1  0
 78 87  2  0
 78 83  1  0
 79 75  1  0
 79 83  1  0
 80 79  1  0
 81 82  1  0
 81 80  1  0
 82 78  1  0
 83 84  2  0
 84 85  1  0
 86 85  2  0
 87 86  1  0
 88 62  1  0
 88 93  1  0
 88 89  1  0
 89 92  1  1
 89 90  1  0
 91 89  1  0
 93 96  1  0
 94 98  1  0
 94 93  1  0
 95 94  2  0
 98 97  1  0
100 98  1  0
100101  1  0
100 99  1  0
M  ISO  4  14 100  22 100  60 101  61 101
M  END
>  <TORSDO>  (69) 
F 20

>  <SCORE>  (69) 
-13.995

>  <name>  (69) 
68

>  <ligand_id>  (69) 
68

>  <original_smiles>  (69) 
[H]c1c([H])c([H])c2c(c1[H])C([H])([H])C([H])([H])C([H])([H])C2([H])N([H])C(=O)C1([H])N(C(=O)C([H])(N([H])C(=O)C([H])(N([H])C([H])([H])[H])C([H])([H])[H])C(C([H])([H])[H])(C([H])([H])[H])C([H])([H])[H])C([H])([H])c2c([H])c(OC(C([H])([H])[H])(C([H])([H])[H])C([H])([H])[N+]3([H])C([H])([H])C([H])([H])N(c4c([H])c([H])c(C(=O)N([H])[H])c(N([H])C(=O)N5C([H])([H])C([H])([H])C([H])([H])C([H])(n6nc(-c7c([H])c([H])c(Oc8c([H])c([H])c(F)c([H])c8F)c([H])c7[H])c(C(=O)N([H])[H])c6N([H])[H])C5([H])[H])c4[H])C([H])([H])C3([H])[H])c([H])c([H])c2C1([H])[H]

>  <smiles>  (69) 
[H]c1c([H])c([H])c2c(c1[H])C([H])([H])C([H])([H])C([H])([H])C2([H])N([H])C(=O)C1([H])N(C(=O)C([H])(N([H])C(=O)C([H])(N([H])C([H])([H])[H])C([H])([H])[H])C(C([H])([H])[H])(C([H])([H])[H])C([H])([H])[H])C([H])([H])c2c([H])c(OC(C([H])([H])[H])(C([H])([H])[H])C([H])([H])[N+]3([H])C([H])([H])C([H])([H])N(c4c([H])c([H])c(C(=O)N([H])[H])c(N([H])C(=O)N5C([H])([H])C([H])([H])C([H])([H])C([H])(n6nc(-c7c([H])c([H])c(Oc8c([H])c([H])c(F)c([H])c8F)c([H])c7[H])c(C(=O)N([H])[H])c6N([H])[H])C5([H])[H])c4[H])C([H])([H])C3([H])[H])c([H])c([H])c2C1([H])[H]

$$$$
69:0:0
     RDKit          3D

 98106  0  0  1  0  0  0  0  0999 V2000
  -28.4010  -23.3600   19.7400 C   0  0  0  0  0  0  0  0  0  0  0  0
  -30.5360  -22.1990   19.1920 C   0  0  0  0  0  1  0  0  0  0  0  0
  -29.2340  -22.2740   19.8540 N   0  0  0  0  0  0  0  0  0  0  0  0
  -27.4140  -23.4840   20.4700 O   0  0  0  0  0  0  0  0  0  0  0  0
  -28.8300  -21.1380   20.7350 C   0  0  0  0  0  2  0  0  0  0  0  0
  -29.8160  -19.0370   21.7690 C   0  0  0  0  0  3  0  0  0  0  0  0
  -30.1420  -17.6640   21.7820 C   0  0  0  0  0  3  0  0  0  0  0  0
  -29.7040  -17.5380   19.4060 C   0  0  0  0  0  3  0  0  0  0  0  0
  -29.3870  -19.6920   20.5900 C   0  0  0  0  0  0  0  0  0  0  0  0
  -30.0750  -16.8820   20.6120 C   0  0  0  0  0  0  0  0  0  0  0  0
  -29.3470  -18.9190   19.3990 C   0  0  0  0  0  0  0  0  0  0  0  0
  -28.9070  -19.4800   18.2460 F   0  0  0  0  0  0  0  0  0  0  0  0
  -30.8470  -14.5420   19.9900 C   0  0  0  0  0  0  0  0  0  0  0  0
  -30.5320  -12.3670   18.8540 C   0  0  0  0  0  2  0  0  0  0  0  0
  -29.5000  -12.5670   17.7200 C   0  0  0  0  0  2  0  0  0  0  0  0
  -28.0660  -12.3980   18.2590 C   0  0  0  0  0  2  0  0  0  0  0  0
  -27.8080  -13.2370   19.5390 C   0  0  0  0  0  3  0  0  0  0  0  0
  -28.9370  -13.0000   20.5680 C   0  0  0  0  0  2  0  0  0  0  0  0
  -30.2240  -13.3310   19.9250 N   0  0  0  0  0  0  0  0  0  0  0  0
  -31.8880  -14.7980   19.3710 O   0  0  0  0  0  0  0  0  0  0  0  0
  -30.2280  -15.4580   20.7630 N   0  0  0  0  0  0  0  0  0  0  0  0
  -29.6060  -15.0430   21.4400 H   0  0  0  0  0  0  0  0  0  0  0  0
  -25.4690  -13.8470   20.4360 C   0  0  0  0  0  0  0  0  0  0  0  0
  -24.4250  -13.0750   20.8670 C   0  0  0  0  0  0  0  0  0  0  0  0
  -24.8700  -11.7200   20.7670 C   0  0  0  0  0  0  0  0  0  0  0  0
  -26.4880  -12.9640   20.1090 N   0  0  0  0  0  0  0  0  0  0  0  0
  -26.1320  -11.6800   20.3610 N   0  0  0  0  0  0  0  0  0  0  0  0
  -24.1490  -10.4570   20.9770 C   0  0  0  0  0  0  0  0  0  0  0  0
  -24.5680   -9.5200   21.9450 C   0  0  0  0  0  3  0  0  0  0  0  0
  -23.8460   -8.3220   22.1440 C   0  0  0  0  0  3  0  0  0  0  0  0
  -22.6920   -8.0530   21.3710 C   0  0  0  0  0  0  0  0  0  0  0  0
  -22.2920   -8.9810   20.3920 C   0  0  0  0  0  3  0  0  0  0  0  0
  -23.0160  -10.1680   20.1940 C   0  0  0  0  0  3  0  0  0  0  0  0
  -21.9490   -6.9020   21.4700 O   0  0  0  0  0  0  0  0  0  0  0  0
  -21.7850   -6.2540   22.6670 C   0  0  0  0  0  0  0  0  0  0  0  0
  -21.2130   -6.8930   23.7890 C   0  0  0  0  0  3  0  0  0  0  0  0
  -20.9990   -6.1680   24.9780 C   0  0  0  0  0  3  0  0  0  0  0  0
  -21.3470   -4.8060   25.0460 C   0  0  0  0  0  0  0  0  0  0  0  0
  -21.9140   -4.1680   23.9300 C   0  0  0  0  0  3  0  0  0  0  0  0
  -22.1290   -4.8900   22.7420 C   0  0  0  0  0  0  0  0  0  0  0  0
  -22.6540   -4.2650   21.6610 F   0  0  0  0  0  0  0  0  0  0  0  0
  -21.1360   -4.1080   26.1870 F   0  0  0  0  0  0  0  0  0  0  0  0
  -23.0550  -13.5550   21.2520 C   0  0  0  0  0  0  0  0  0  0  0  0
  -22.3980  -12.8680   22.1790 N   0  0  0  0  0  0  0  0  0  0  0  0
  -22.5740  -14.5750   20.7620 O   0  0  0  0  0  0  0  0  0  0  0  0
  -22.7990  -12.0460   22.6050 H   0  0  0  0  0  0  0  0  0  0  0  0
  -21.4840  -13.1750   22.4760 H   0  0  0  0  0  0  0  0  0  0  0  0
  -25.6300  -15.2200   20.2740 N   0  0  0  0  0  0  0  0  0  0  0  0
  -24.8640  -15.8700   20.4190 H   0  0  0  0  0  0  0  0  0  0  0  0
  -26.4470  -15.6520   19.8620 H   0  0  0  0  0  0  0  0  0  0  0  0
  -28.5490  -24.4210   18.6090 C   0  0  0  0  0  3  0  0  0  0  0  0
  -27.3260  -24.3700   17.7820 N   0  0  0  0  0  4  0  0  0  0  0  0
  -26.5280  -24.5760   18.3600 H   0  0  0  0  0  0  0  0  0  0  0  0
  -27.2010  -23.4370   17.4300 H   0  0  0  0  0  0  0  0  0  0  0  0
  -27.3600  -25.0010   17.0010 H   0  0  0  0  0  0  0  0  0  0  0  0
  -29.1940  -26.8240   17.7800 C   0  0  0  0  0  1  0  0  0  0  0  0
  -28.9760  -25.9000   18.9960 C   0  0  0  0  0  3  0  0  0  0  0  0
  -28.3660  -26.6760   20.0620 O   0  0  0  0  0  0  0  0  0  0  0  0
  -24.5810  -31.8540   23.1490 C   0  0  0  0  0  0  0  0  0  0  0  0
  -27.2150  -27.4460   19.9540 C   0  0  0  0  0  0  0  0  0  0  0  0
  -23.3670  -30.4770   21.4940 C   0  0  0  0  0  3  0  0  0  0  0  0
  -24.8150  -28.9740   20.0200 C   0  0  0  0  0  0  0  0  0  0  0  0
  -25.8960  -30.8360   21.2900 C   0  0  0  0  0  2  0  0  0  0  0  0
  -25.9780  -29.4810   20.6110 C   0  0  0  0  0  0  0  0  0  0  0  0
  -27.1740  -28.7210   20.5790 C   0  0  0  0  0  3  0  0  0  0  0  0
  -26.0230  -26.9590   19.3770 C   0  0  0  0  0  3  0  0  0  0  0  0
  -24.8350  -27.7130   19.4020 C   0  0  0  0  0  3  0  0  0  0  0  0
  -23.5680  -29.8270   20.0990 C   0  0  0  0  0  2  0  0  0  0  0  0
  -24.6330  -31.0720   22.0350 N   0  0  0  0  0  0  0  0  0  0  0  0
  -23.5040  -32.1140   23.7030 O   0  0  0  0  0  0  0  0  0  0  0  0
  -22.7280  -29.4370   22.4430 C   0  0  0  0  0  0  0  0  0  0  0  0
  -21.4080  -29.2270   22.3020 N   0  0  0  0  0  0  0  0  0  0  0  0
  -23.4170  -28.8220   23.2620 O   0  0  0  0  0  0  0  0  0  0  0  0
  -20.9160  -29.7740   21.6100 H   0  0  0  0  0  0  0  0  0  0  0  0
  -18.0600  -27.9390   22.7420 C   0  0  0  0  0  0  0  0  0  0  0  0
  -20.6030  -28.2700   23.0610 C   0  0  0  0  0  3  0  0  0  0  0  0
  -20.7570  -26.8410   22.4910 C   0  0  0  0  0  2  0  0  0  0  0  0
  -19.6840  -26.4850   21.4570 C   0  0  0  0  0  2  0  0  0  0  0  0
  -18.2850  -26.5940   22.0730 C   0  0  0  0  0  2  0  0  0  0  0  0
  -19.1480  -28.7330   23.1910 C   0  0  0  0  0  0  0  0  0  0  0  0
  -18.8850  -29.9900   23.7750 C   0  0  0  0  0  3  0  0  0  0  0  0
  -17.5630  -30.4560   23.9160 C   0  0  0  0  0  3  0  0  0  0  0  0
  -16.4890  -29.6600   23.4830 C   0  0  0  0  0  3  0  0  0  0  0  0
  -16.7370  -28.4030   22.9030 C   0  0  0  0  0  3  0  0  0  0  0  0
  -25.8700  -32.4810   23.7670 C   0  0  0  0  0  3  0  0  0  0  0  0
  -25.5550  -33.8680   24.1350 N   0  0  0  0  0  0  0  0  0  0  0  0
  -25.8740  -34.9430   23.4010 C   0  0  0  0  0  0  0  0  0  0  0  0
  -26.5370  -34.8710   22.3610 O   0  0  0  0  0  0  0  0  0  0  0  0
  -24.9650  -33.9980   24.9440 H   0  0  0  0  0  0  0  0  0  0  0  0
  -24.1350  -36.7350   23.0940 C   0  0  0  0  0  1  0  0  0  0  0  0
  -25.3780  -36.3150   23.8950 C   0  0  0  0  0  3  0  0  0  0  0  0
  -27.5070  -37.1860   24.7560 C   0  0  0  0  0  1  0  0  0  0  0  0
  -26.4060  -37.3760   23.8150 N   0  0  0  0  0  0  0  0  0  0  0  0
  -25.9940  -38.2890   23.9890 H   0  0  0  0  0  0  0  0  0  0  0  0
  -26.4110  -31.6860   25.0180 C   0  0  1  0  0  0  0  0  0  0  0  0
  -25.3330  -31.4190   26.0960 C   0  0  0  0  0  1  0  0  0  0  0  0
  -26.9940  -30.3200   24.5890 C   0  0  0  0  0  1  0  0  0  0  0  0
  -27.5640  -32.4740   25.6800 C   0  0  0  0  0  1  0  0  0  0  0  0
  1  3  1  0
  1  4  2  0
  2  3  1  0
  3  5  1  0
  6  7  1  0
  8 10  1  0
  9  5  1  0
  9  6  2  0
 10 21  1  0
 10  7  2  0
 11  8  2  0
 11  9  1  0
 12 11  1  0
 13 21  1  0
 14 19  1  0
 15 16  1  0
 15 14  1  0
 17 16  1  0
 17 26  1  0
 17 18  1  0
 19 13  1  0
 19 18  1  0
 20 13  2  0
 21 22  1  0
 23 24  2  0
 24 43  1  0
 25 24  1  0
 25 28  1  0
 26 27  1  0
 26 23  1  0
 27 25  2  0
 28 29  1  0
 29 30  2  0
 31 34  1  0
 31 30  1  0
 32 31  2  0
 33 32  1  0
 33 28  2  0
 34 35  1  0
 35 40  2  0
 35 36  1  0
 36 37  2  0
 37 38  1  0
 38 42  1  0
 39 38  2  0
 40 39  1  0
 41 40  1  0
 43 44  1  0
 44 47  1  0
 44 46  1  0
 45 43  2  0
 48 49  1  0
 48 23  1  0
 50 48  1  0
 51 57  1  0
 51  1  1  0
 52 53  1  0
 52 51  1  0
 54 52  1  0
 55 52  1  0
 57 56  1  0
 57 58  1  0
 59 70  2  0
 60 58  1  0
 60 65  1  0
 61 69  1  0
 61 71  1  0
 62 68  1  0
 62 64  1  0
 63 69  1  0
 64 63  1  0
 65 64  2  0
 66 67  1  0
 66 60  2  0
 67 62  2  0
 68 61  1  0
 69 59  1  0
 71 73  2  0
 72 71  1  0
 74 72  1  0
 75 84  2  0
 75 80  1  0
 76 72  1  0
 76 80  1  0
 77 76  1  0
 78 79  1  0
 78 77  1  0
 79 75  1  0
 80 81  2  0
 81 82  1  0
 83 82  2  0
 84 83  1  0
 85 59  1  0
 85 86  1  0
 85 95  1  0
 86 89  1  0
 87 91  1  0
 87 86  1  0
 88 87  2  0
 91 90  1  0
 93 91  1  0
 93 94  1  0
 93 92  1  0
 95 98  1  1
 95 96  1  0
 97 95  1  0
M  ISO  4  13 100  21 100  57 101  58 101
M  END
>  <TORSDO>  (70) 
F 21

>  <SCORE>  (70) 
-12.963

>  <name>  (70) 
69

>  <ligand_id>  (70) 
69

>  <original_smiles>  (70) 
[H]c1c([H])c([H])c2c(c1[H])C([H])([H])C([H])([H])C([H])([H])C2([H])N([H])C(=O)C1([H])N(C(=O)C([H])(N([H])C(=O)C([H])(N([H])C([H])([H])[H])C([H])([H])[H])C(C([H])([H])[H])(C([H])([H])[H])C([H])([H])[H])C([H])([H])c2c([H])c(OC([H])(C([H])([H])[H])C([H])(C(=O)N(C([H])([H])[H])C([H])([H])c3c([H])c([H])c(N([H])C(=O)N4C([H])([H])C([H])([H])C([H])([H])C([H])(n5nc(-c6c([H])c([H])c(Oc7c([H])c([H])c(F)c([H])c7F)c([H])c6[H])c(C(=O)N([H])[H])c5N([H])[H])C4([H])[H])c([H])c3F)[N+]([H])([H])[H])c([H])c([H])c2C1([H])[H]

>  <smiles>  (70) 
[H]c1c([H])c([H])c2c(c1[H])C([H])([H])C([H])([H])C([H])([H])C2([H])N([H])C(=O)C1([H])N(C(=O)C([H])(N([H])C(=O)C([H])(N([H])C([H])([H])[H])C([H])([H])[H])C(C([H])([H])[H])(C([H])([H])[H])C([H])([H])[H])C([H])([H])c2c([H])c(OC([H])(C([H])([H])[H])C([H])(C(=O)N(C([H])([H])[H])C([H])([H])c3c([H])c([H])c(N([H])C(=O)N4C([H])([H])C([H])([H])C([H])([H])C([H])(n5nc(-c6c([H])c([H])c(Oc7c([H])c([H])c(F)c([H])c7F)c([H])c6[H])c(C(=O)N([H])[H])c5N([H])[H])C4([H])[H])c([H])c3F)[N+]([H])([H])[H])c([H])c([H])c2C1([H])[H]

$$$$
70:0:0
     RDKit          3D

 96104  0  0  1  0  0  0  0  0999 V2000
  -30.8220  -19.4840   19.3850 C   0  0  0  0  0  3  0  0  0  0  0  0
  -30.8280  -18.0640   19.5640 C   0  0  0  0  0  3  0  0  0  0  0  0
  -30.5510  -18.3910   21.9290 C   0  0  0  0  0  3  0  0  0  0  0  0
  -30.7100  -20.4020   20.4650 C   0  0  0  0  0  0  0  0  0  0  0  0
  -30.5850  -19.8160   21.7650 C   0  0  0  0  0  0  0  0  0  0  0  0
  -30.7100  -17.4750   20.8510 C   0  0  0  0  0  0  0  0  0  0  0  0
  -31.4860  -14.9820   20.7910 C   0  0  0  0  0  0  0  0  0  0  0  0
  -31.4150  -12.6240   19.9810 C   0  0  0  0  0  2  0  0  0  0  0  0
  -30.5710  -12.5770   18.6860 C   0  0  0  0  0  2  0  0  0  0  0  0
  -29.0690  -12.4440   19.0000 C   0  0  0  0  0  2  0  0  0  0  0  0
  -28.5990  -13.4350   20.0970 C   0  0  0  0  0  3  0  0  0  0  0  0
  -29.5590  -13.4270   21.3070 C   0  0  0  0  0  2  0  0  0  0  0  0
  -30.9080  -13.7370   20.8120 N   0  0  0  0  0  0  0  0  0  0  0  0
  -32.6520  -15.1360   20.4090 O   0  0  0  0  0  0  0  0  0  0  0  0
  -30.6660  -16.0320   21.1190 N   0  0  0  0  0  0  0  0  0  0  0  0
  -29.8200  -15.7280   21.5770 H   0  0  0  0  0  0  0  0  0  0  0  0
  -26.1990  -14.0980   20.7310 C   0  0  0  0  0  0  0  0  0  0  0  0
  -25.0840  -13.3500   21.0060 C   0  0  0  0  0  0  0  0  0  0  0  0
  -25.4970  -11.9850   20.9210 C   0  0  0  0  0  0  0  0  0  0  0  0
  -27.2180  -13.1880   20.4980 N   0  0  0  0  0  0  0  0  0  0  0  0
  -26.7970  -11.9090   20.6680 N   0  0  0  0  0  0  0  0  0  0  0  0
  -24.7130  -10.7440   21.0040 C   0  0  0  0  0  0  0  0  0  0  0  0
  -25.0190   -9.7380   21.9470 C   0  0  0  0  0  3  0  0  0  0  0  0
  -24.2390   -8.5620   22.0200 C   0  0  0  0  0  3  0  0  0  0  0  0
  -23.1390   -8.3860   21.1480 C   0  0  0  0  0  0  0  0  0  0  0  0
  -22.8520   -9.3800   20.1940 C   0  0  0  0  0  3  0  0  0  0  0  0
  -23.6330  -10.5470   20.1200 C   0  0  0  0  0  3  0  0  0  0  0  0
  -22.3410   -7.2660   21.1310 O   0  0  0  0  0  0  0  0  0  0  0  0
  -22.0310   -6.5870   22.2810 C   0  0  0  0  0  0  0  0  0  0  0  0
  -21.3810   -7.2160   23.3670 C   0  0  0  0  0  3  0  0  0  0  0  0
  -21.0170   -6.4620   24.5000 C   0  0  0  0  0  3  0  0  0  0  0  0
  -21.2920   -5.0810   24.5470 C   0  0  0  0  0  0  0  0  0  0  0  0
  -21.9350   -4.4550   23.4650 C   0  0  0  0  0  3  0  0  0  0  0  0
  -22.2990   -5.2050   22.3340 C   0  0  0  0  0  0  0  0  0  0  0  0
  -22.8970   -4.5920   21.2840 F   0  0  0  0  0  0  0  0  0  0  0  0
  -20.9360   -4.3560   25.6330 F   0  0  0  0  0  0  0  0  0  0  0  0
  -23.6950  -13.8680   21.2430 C   0  0  0  0  0  0  0  0  0  0  0  0
  -22.9120  -13.1740   22.0620 N   0  0  0  0  0  0  0  0  0  0  0  0
  -23.3130  -14.9220   20.7370 O   0  0  0  0  0  0  0  0  0  0  0  0
  -23.2310  -12.3150   22.4840 H   0  0  0  0  0  0  0  0  0  0  0  0
  -21.9800  -13.5040   22.2620 H   0  0  0  0  0  0  0  0  0  0  0  0
  -26.4350  -15.4670   20.6490 N   0  0  0  0  0  0  0  0  0  0  0  0
  -25.7150  -16.1650   20.8000 H   0  0  0  0  0  0  0  0  0  0  0  0
  -27.3320  -15.8790   20.4290 H   0  0  0  0  0  0  0  0  0  0  0  0
  -30.5120  -20.6930   22.9900 C   0  0  0  0  0  0  0  0  0  0  0  0
  -31.6640  -21.6920   24.9220 C   0  0  0  0  0  1  0  0  0  0  0  0
  -33.0040  -20.6680   23.1090 C   0  0  0  0  0  1  0  0  0  0  0  0
  -31.6680  -20.9550   23.6520 N   0  0  0  0  0  0  0  0  0  0  0  0
  -29.4150  -21.1300   23.3500 O   0  0  0  0  0  0  0  0  0  0  0  0
  -31.0020  -21.9050   20.2370 C   0  0  0  0  0  0  0  0  0  0  0  0
  -30.0150  -22.8540   20.1470 N   0  0  0  0  0  0  0  0  0  0  0  0
  -32.1910  -22.2300   20.1460 O   0  0  0  0  0  0  0  0  0  0  0  0
  -29.0490  -22.5480   20.2040 H   0  0  0  0  0  0  0  0  0  0  0  0
  -30.2930  -24.3350   19.9430 C   0  0  0  0  0  2  0  0  0  0  0  0
  -29.0660  -25.3350   19.7880 C   0  0  0  0  0  2  0  0  0  0  0  0
  -29.2740  -26.7770   20.0880 O   0  0  0  0  0  0  0  0  0  0  0  0
  -25.3730  -31.4780   23.9250 C   0  0  0  0  0  0  0  0  0  0  0  0
  -28.1520  -27.6280   20.1380 C   0  0  0  0  0  0  0  0  0  0  0  0
  -24.2640  -30.4780   21.9600 C   0  0  0  0  0  3  0  0  0  0  0  0
  -25.7910  -29.2350   20.3260 C   0  0  0  0  0  0  0  0  0  0  0  0
  -26.8080  -30.7920   21.9910 C   0  0  0  0  0  2  0  0  0  0  0  0
  -26.9230  -29.5800   21.0730 C   0  0  0  0  0  0  0  0  0  0  0  0
  -28.1080  -28.7930   20.9680 C   0  0  0  0  0  3  0  0  0  0  0  0
  -26.9980  -27.3460   19.3760 C   0  0  0  0  0  3  0  0  0  0  0  0
  -25.8280  -28.1240   19.4680 C   0  0  0  0  0  3  0  0  0  0  0  0
  -24.5590  -30.1000   20.4820 C   0  0  0  0  0  2  0  0  0  0  0  0
  -25.4980  -30.9230   22.6850 N   0  0  0  0  0  0  0  0  0  0  0  0
  -24.2650  -31.6510   24.4500 O   0  0  0  0  0  0  0  0  0  0  0  0
  -23.5390  -29.2960   22.6480 C   0  0  0  0  0  0  0  0  0  0  0  0
  -22.2300  -29.1450   22.3890 N   0  0  0  0  0  0  0  0  0  0  0  0
  -24.1630  -28.5210   23.3800 O   0  0  0  0  0  0  0  0  0  0  0  0
  -21.7840  -29.8280   21.7910 H   0  0  0  0  0  0  0  0  0  0  0  0
  -18.8540  -27.8560   22.3380 C   0  0  0  0  0  0  0  0  0  0  0  0
  -21.3700  -28.0690   22.8850 C   0  0  0  0  0  3  0  0  0  0  0  0
  -21.5540  -26.7750   22.0570 C   0  0  0  0  0  2  0  0  0  0  0  0
  -20.5560  -26.6460   20.9020 C   0  0  0  0  0  2  0  0  0  0  0  0
  -19.1180  -26.6620   21.4330 C   0  0  0  0  0  2  0  0  0  0  0  0
  -19.9130  -28.5250   23.0020 C   0  0  0  0  0  0  0  0  0  0  0  0
  -19.6200  -29.6540   23.7980 C   0  0  0  0  0  3  0  0  0  0  0  0
  -18.2960  -30.1100   23.9400 C   0  0  0  0  0  3  0  0  0  0  0  0
  -17.2480  -29.4370   23.2890 C   0  0  0  0  0  3  0  0  0  0  0  0
  -17.5260  -28.3080   22.4940 C   0  0  0  0  0  3  0  0  0  0  0  0
  -26.6240  -31.9420   24.7330 C   0  0  0  0  0  3  0  0  0  0  0  0
  -26.9410  -31.0140   25.9710 C   0  0  1  0  0  0  0  0  0  0  0  0
  -25.7290  -30.7840   26.9020 C   0  0  0  0  0  1  0  0  0  0  0  0
  -27.4490  -29.6320   25.4970 C   0  0  0  0  0  1  0  0  0  0  0  0
  -28.0750  -31.6380   26.8190 C   0  0  0  0  0  1  0  0  0  0  0  0
  -26.3760  -33.3200   25.1780 N   0  0  0  0  0  0  0  0  0  0  0  0
  -26.8660  -34.4130   24.5800 C   0  0  0  0  0  0  0  0  0  0  0  0
  -27.6400  -34.3630   23.6200 O   0  0  0  0  0  0  0  0  0  0  0  0
  -25.7140  -33.4350   25.9290 H   0  0  0  0  0  0  0  0  0  0  0  0
  -25.3450  -36.3810   24.2210 C   0  0  0  0  0  1  0  0  0  0  0  0
  -26.4290  -35.7830   25.1320 C   0  0  0  0  0  3  0  0  0  0  0  0
  -28.4890  -36.3840   26.3280 C   0  0  0  0  0  1  0  0  0  0  0  0
  -27.5450  -36.7420   25.2730 N   0  0  0  0  0  0  0  0  0  0  0  0
  -27.1920  -37.6770   25.4630 H   0  0  0  0  0  0  0  0  0  0  0  0
  1  2  2  0
  1  4  1  0
  2  6  1  0
  4  5  2  0
  5  3  1  0
  5 45  1  0
  6 15  1  0
  6  3  2  0
  7 13  1  0
  7 15  1  0
  8 13  1  0
  9 10  1  0
  9  8  1  0
 11 10  1  0
 11 20  1  0
 11 12  1  0
 13 12  1  0
 14  7  2  0
 15 16  1  0
 17 18  2  0
 18 37  1  0
 19 22  1  0
 19 18  1  0
 20 21  1  0
 20 17  1  0
 21 19  2  0
 22 23  1  0
 23 24  2  0
 25 24  1  0
 26 25  2  0
 27 26  1  0
 27 22  2  0
 28 25  1  0
 28 29  1  0
 29 34  2  0
 29 30  1  0
 30 31  2  0
 31 32  1  0
 32 36  1  0
 33 32  2  0
 34 33  1  0
 35 34  1  0
 37 38  1  0
 38 41  1  0
 38 40  1  0
 39 37  2  0
 42 17  1  0
 42 43  1  0
 44 42  1  0
 45 49  2  0
 45 48  1  0
 47 48  1  0
 48 46  1  0
 50  4  1  0
 51 53  1  0
 51 50  1  0
 52 50  2  0
 54 51  1  0
 55 54  1  0
 55 56  1  0
 56 58  1  0
 57 68  2  0
 58 63  1  0
 59 69  1  0
 59 67  1  0
 60 66  1  0
 60 62  1  0
 61 67  1  0
 62 61  1  0
 63 62  2  0
 64 65  1  0
 64 58  2  0
 65 60  2  0
 66 59  1  0
 67 57  1  0
 69 71  2  0
 70 69  1  0
 72 70  1  0
 73 82  2  0
 73 78  1  0
 74 70  1  0
 74 78  1  0
 75 74  1  0
 76 77  1  0
 76 75  1  0
 77 73  1  0
 78 79  2  0
 79 80  1  0
 81 80  2  0
 82 81  1  0
 83 57  1  0
 83 88  1  0
 83 84  1  0
 84 87  1  1
 84 85  1  0
 86 84  1  0
 88 91  1  0
 89 93  1  0
 89 88  1  0
 90 89  2  0
 93 92  1  0
 93 95  1  0
 95 96  1  0
 95 94  1  0
M  ISO  4   7 100  15 100  55 101  56 101
M  END
>  <TORSDO>  (71) 
F 20

>  <SCORE>  (71) 
-10.672

>  <name>  (71) 
70

>  <ligand_id>  (71) 
70

>  <original_smiles>  (71) 
[H]c1c([H])c([H])c2c(c1[H])C([H])([H])C([H])([H])C([H])([H])C2([H])N([H])C(=O)C1([H])N(C(=O)C([H])(N([H])C(=O)C([H])(N([H])C([H])([H])[H])C([H])([H])[H])C(C([H])([H])[H])(C([H])([H])[H])C([H])([H])[H])C([H])([H])c2c([H])c(OC([H])([H])C([H])([H])N([H])C(=O)c3c([H])c([H])c(N([H])C(=O)N4C([H])([H])C([H])([H])C([H])([H])C([H])(n5nc(-c6c([H])c([H])c(Oc7c([H])c([H])c(F)c([H])c7F)c([H])c6[H])c(C(=O)N([H])[H])c5N([H])[H])C4([H])[H])c([H])c3C(=O)N(C([H])([H])[H])C([H])([H])[H])c([H])c([H])c2C1([H])[H]

>  <smiles>  (71) 
[H]c1c([H])c([H])c2c(c1[H])C([H])([H])C([H])([H])C([H])([H])C2([H])N([H])C(=O)C1([H])N(C(=O)C([H])(N([H])C(=O)C([H])(N([H])C([H])([H])[H])C([H])([H])[H])C(C([H])([H])[H])(C([H])([H])[H])C([H])([H])[H])C([H])([H])c2c([H])c(OC([H])([H])C([H])([H])N([H])C(=O)c3c([H])c([H])c(N([H])C(=O)N4C([H])([H])C([H])([H])C([H])([H])C([H])(n5nc(-c6c([H])c([H])c(Oc7c([H])c([H])c(F)c([H])c7F)c([H])c6[H])c(C(=O)N([H])[H])c5N([H])[H])C4([H])[H])c([H])c3C(=O)N(C([H])([H])[H])C([H])([H])[H])c([H])c([H])c2C1([H])[H]

$$$$
71:0:0
     RDKit          3D

 96104  0  0  1  0  0  0  0  0999 V2000
  -27.5560  -21.7710   18.8370 C   0  0  0  0  0  1  0  0  0  0  0  0
  -28.5560  -22.6770   19.5950 C   0  0  0  0  0  3  0  0  0  0  0  0
  -29.2920  -21.8370   20.7110 C   0  0  0  0  0  2  0  0  0  0  0  0
  -29.8940  -19.3910   21.1290 C   0  0  0  0  0  0  0  0  0  0  0  0
  -31.0290  -18.7640   19.1440 C   0  0  0  0  0  2  0  0  0  0  0  0
  -30.6970  -20.2810   19.1610 C   0  0  0  0  0  2  0  0  0  0  0  0
  -30.9780  -18.3990   20.6260 C   0  0  0  0  0  3  0  0  0  0  0  0
  -29.8280  -20.4860   20.3270 N   0  0  0  0  0  0  0  0  0  0  0  0
  -29.2650  -19.2500   22.1800 O   0  0  0  0  0  0  0  0  0  0  0  0
  -30.9740  -16.7370   22.6390 C   0  0  0  0  0  1  0  0  0  0  0  0
  -31.1850  -16.8940   21.1230 C   0  0  0  0  0  3  0  0  0  0  0  0
  -31.1950  -14.6230   19.9760 C   0  0  0  0  0  0  0  0  0  0  0  0
  -30.8100  -12.3860   18.9670 C   0  0  0  0  0  2  0  0  0  0  0  0
  -29.8430  -12.5090   17.7710 C   0  0  0  0  0  2  0  0  0  0  0  0
  -28.3780  -12.4360   18.2470 C   0  0  0  0  0  2  0  0  0  0  0  0
  -28.0930  -13.3740   19.4510 C   0  0  0  0  0  3  0  0  0  0  0  0
  -29.1700  -13.2210   20.5450 C   0  0  0  0  0  2  0  0  0  0  0  0
  -30.4740  -13.4640   19.9140 N   0  0  0  0  0  0  0  0  0  0  0  0
  -32.3460  -14.6950   19.5380 O   0  0  0  0  0  0  0  0  0  0  0  0
  -30.5480  -15.7270   20.4450 N   0  0  0  0  0  0  0  0  0  0  0  0
  -29.5660  -15.5910   20.6310 H   0  0  0  0  0  0  0  0  0  0  0  0
  -25.7660  -14.1190   20.2460 C   0  0  0  0  0  0  0  0  0  0  0  0
  -24.6680  -13.4130   20.6540 C   0  0  0  0  0  0  0  0  0  0  0  0
  -25.0460  -12.0360   20.6130 C   0  0  0  0  0  0  0  0  0  0  0  0
  -26.7470  -13.1760   19.9820 N   0  0  0  0  0  0  0  0  0  0  0  0
  -26.3200  -11.9180   20.2620 N   0  0  0  0  0  0  0  0  0  0  0  0
  -24.2530  -10.8200   20.8310 C   0  0  0  0  0  0  0  0  0  0  0  0
  -24.6480   -9.8370   21.7660 C   0  0  0  0  0  3  0  0  0  0  0  0
  -23.8570   -8.6860   21.9710 C   0  0  0  0  0  3  0  0  0  0  0  0
  -22.6570   -8.5090   21.2420 C   0  0  0  0  0  0  0  0  0  0  0  0
  -22.2800   -9.4790   20.2960 C   0  0  0  0  0  3  0  0  0  0  0  0
  -23.0710  -10.6230   20.0890 C   0  0  0  0  0  3  0  0  0  0  0  0
  -21.8400   -7.4110   21.3570 O   0  0  0  0  0  0  0  0  0  0  0  0
  -21.7510   -6.6980   22.5250 C   0  0  0  0  0  0  0  0  0  0  0  0
  -21.3810   -7.3080   23.7440 C   0  0  0  0  0  3  0  0  0  0  0  0
  -21.2350   -6.5250   24.9060 C   0  0  0  0  0  3  0  0  0  0  0  0
  -21.4480   -5.1350   24.8520 C   0  0  0  0  0  0  0  0  0  0  0  0
  -21.8110   -4.5250   23.6380 C   0  0  0  0  0  3  0  0  0  0  0  0
  -21.9590   -5.3050   22.4780 C   0  0  0  0  0  0  0  0  0  0  0  0
  -22.2880   -4.7090   21.3060 F   0  0  0  0  0  0  0  0  0  0  0  0
  -21.3000   -4.3820   25.9670 F   0  0  0  0  0  0  0  0  0  0  0  0
  -23.3110  -13.9740   20.9690 C   0  0  0  0  0  0  0  0  0  0  0  0
  -22.5760  -13.3340   21.8710 N   0  0  0  0  0  0  0  0  0  0  0  0
  -22.9140  -15.0160   20.4470 O   0  0  0  0  0  0  0  0  0  0  0  0
  -22.9120  -12.4910   22.3130 H   0  0  0  0  0  0  0  0  0  0  0  0
  -21.6670  -13.6930   22.1250 H   0  0  0  0  0  0  0  0  0  0  0  0
  -26.0050  -15.4780   20.0570 N   0  0  0  0  0  0  0  0  0  0  0  0
  -25.2780  -16.1730   20.1810 H   0  0  0  0  0  0  0  0  0  0  0  0
  -26.8610  -15.8650   19.6780 H   0  0  0  0  0  0  0  0  0  0  0  0
  -27.8150  -24.0370   19.9950 C   0  0  0  0  0  3  0  0  0  0  0  0
  -26.6610  -23.7440   20.8800 N   0  0  0  0  0  4  0  0  0  0  0  0
  -26.9560  -23.3580   21.7620 H   0  0  0  0  0  0  0  0  0  0  0  0
  -26.0490  -23.0760   20.4430 H   0  0  0  0  0  0  0  0  0  0  0  0
  -26.1200  -24.5700   21.0710 H   0  0  0  0  0  0  0  0  0  0  0  0
  -28.6260  -25.2860   20.5340 C   0  0  0  0  0  2  0  0  0  0  0  0
  -28.4960  -26.5920   19.8730 O   0  0  0  0  0  0  0  0  0  0  0  0
  -24.6050  -31.7550   23.0540 C   0  0  0  0  0  0  0  0  0  0  0  0
  -27.3200  -27.3290   19.9440 C   0  0  0  0  0  0  0  0  0  0  0  0
  -23.4300  -30.3520   21.3940 C   0  0  0  0  0  3  0  0  0  0  0  0
  -24.9120  -28.8510   19.9580 C   0  0  0  0  0  0  0  0  0  0  0  0
  -25.9580  -30.7410   21.2130 C   0  0  0  0  0  2  0  0  0  0  0  0
  -26.0680  -29.3710   20.5570 C   0  0  0  0  0  0  0  0  0  0  0  0
  -27.2740  -28.6200   20.5450 C   0  0  0  0  0  3  0  0  0  0  0  0
  -26.1510  -26.8560   19.3150 C   0  0  0  0  0  3  0  0  0  0  0  0
  -24.9530  -27.5940   19.3320 C   0  0  0  0  0  3  0  0  0  0  0  0
  -23.6590  -29.6980   20.0070 C   0  0  0  0  0  2  0  0  0  0  0  0
  -24.6840  -30.9640   21.9450 N   0  0  0  0  0  0  0  0  0  0  0  0
  -23.5170  -32.0020   23.5940 O   0  0  0  0  0  0  0  0  0  0  0  0
  -22.7940  -29.3050   22.3400 C   0  0  0  0  0  0  0  0  0  0  0  0
  -21.4710  -29.1090   22.2180 N   0  0  0  0  0  0  0  0  0  0  0  0
  -23.4900  -28.6720   23.1390 O   0  0  0  0  0  0  0  0  0  0  0  0
  -20.9700  -29.6720   21.5460 H   0  0  0  0  0  0  0  0  0  0  0  0
  -18.1150  -27.8620   22.7210 C   0  0  0  0  0  0  0  0  0  0  0  0
  -20.6710  -28.1470   22.9780 C   0  0  0  0  0  3  0  0  0  0  0  0
  -20.7890  -26.7290   22.3770 C   0  0  0  0  0  2  0  0  0  0  0  0
  -19.6840  -26.4110   21.3660 C   0  0  0  0  0  2  0  0  0  0  0  0
  -18.3040  -26.5260   22.0210 C   0  0  0  0  0  2  0  0  0  0  0  0
  -19.2280  -28.6290   23.1570 C   0  0  0  0  0  0  0  0  0  0  0  0
  -18.9980  -29.8790   23.7720 C   0  0  0  0  0  3  0  0  0  0  0  0
  -17.6890  -30.3620   23.9570 C   0  0  0  0  0  3  0  0  0  0  0  0
  -16.5900  -29.5900   23.5400 C   0  0  0  0  0  3  0  0  0  0  0  0
  -16.8040  -28.3430   22.9270 C   0  0  0  0  0  3  0  0  0  0  0  0
  -25.8750  -32.4070   23.6810 C   0  0  0  0  0  3  0  0  0  0  0  0
  -25.5310  -33.7870   24.0490 N   0  0  0  0  0  0  0  0  0  0  0  0
  -25.8280  -34.8670   23.3130 C   0  0  0  0  0  0  0  0  0  0  0  0
  -26.4910  -34.8060   22.2740 O   0  0  0  0  0  0  0  0  0  0  0  0
  -24.9390  -33.9060   24.8570 H   0  0  0  0  0  0  0  0  0  0  0  0
  -24.0420  -36.6140   23.0190 C   0  0  0  0  0  1  0  0  0  0  0  0
  -25.3060  -36.2310   23.8060 C   0  0  0  0  0  3  0  0  0  0  0  0
  -27.4260  -37.1540   24.6280 C   0  0  0  0  0  1  0  0  0  0  0  0
  -26.3070  -37.3160   23.7030 N   0  0  0  0  0  0  0  0  0  0  0  0
  -25.8770  -38.2190   23.8830 H   0  0  0  0  0  0  0  0  0  0  0  0
  -26.4210  -31.6210   24.9360 C   0  0  1  0  0  0  0  0  0  0  0  0
  -25.3420  -31.3310   26.0060 C   0  0  0  0  0  1  0  0  0  0  0  0
  -27.0370  -30.2680   24.5080 C   0  0  0  0  0  1  0  0  0  0  0  0
  -27.5580  -32.4300   25.6060 C   0  0  0  0  0  1  0  0  0  0  0  0
  2  1  1  0
  2 50  1  0
  2  3  1  0
  4  9  2  0
  5  6  1  0
  5  7  1  0
  6  8  1  0
  7 11  1  0
  7  4  1  0
  8  3  1  0
  8  4  1  0
 11 10  1  0
 12 20  1  0
 13 18  1  0
 14 15  1  0
 14 13  1  0
 16 15  1  0
 16 25  1  0
 16 17  1  0
 18 12  1  0
 18 17  1  0
 19 12  2  0
 20 21  1  0
 20 11  1  0
 22 23  2  0
 23 42  1  0
 24 23  1  0
 24 27  1  0
 25 22  1  0
 25 26  1  0
 26 24  2  0
 27 28  1  0
 28 29  2  0
 30 33  1  0
 30 29  1  0
 31 30  2  0
 32 31  1  0
 32 27  2  0
 33 34  1  0
 34 35  1  0
 35 36  2  0
 37 36  1  0
 37 41  1  0
 38 37  2  0
 39 34  2  0
 39 38  1  0
 40 39  1  0
 42 43  1  0
 43 46  1  0
 43 45  1  0
 44 42  2  0
 47 48  1  0
 47 22  1  0
 49 47  1  0
 50 55  1  0
 50 51  1  0
 51 54  1  0
 51 52  1  0
 53 51  1  0
 56 58  1  0
 56 55  1  0
 57 68  2  0
 58 63  1  0
 59 67  1  0
 59 69  1  0
 60 66  1  0
 60 62  1  0
 61 67  1  0
 62 61  1  0
 63 62  2  0
 64 65  1  0
 64 58  2  0
 65 60  2  0
 66 59  1  0
 67 57  1  0
 69 71  2  0
 70 69  1  0
 72 70  1  0
 73 82  2  0
 73 78  1  0
 74 70  1  0
 74 78  1  0
 75 74  1  0
 76 77  1  0
 76 75  1  0
 77 73  1  0
 78 79  2  0
 79 80  1  0
 81 80  2  0
 82 81  1  0
 83 57  1  0
 83 84  1  0
 83 93  1  0
 84 87  1  0
 85 89  1  0
 85 84  1  0
 86 85  2  0
 89 88  1  0
 91 89  1  0
 91 92  1  0
 91 90  1  0
 93 96  1  1
 93 94  1  0
 95 93  1  0
M  ISO  4  12 100  20 100  55 101  56 101
M  END
>  <TORSDO>  (72) 
F 22

>  <SCORE>  (72) 
-11.717

>  <name>  (72) 
71

>  <ligand_id>  (72) 
71

>  <original_smiles>  (72) 
[H]c1c([H])c([H])c2c(c1[H])C([H])([H])C([H])([H])C([H])([H])C2([H])N([H])C(=O)C1([H])N(C(=O)C([H])(N([H])C(=O)C([H])(N([H])C([H])([H])[H])C([H])([H])[H])C(C([H])([H])[H])(C([H])([H])[H])C([H])([H])[H])C([H])([H])c2c([H])c(OC([H])([H])C([H])(C([H])(C([H])([H])[H])C([H])([H])N3C(=O)C([H])(C([H])(N([H])C(=O)N4C([H])([H])C([H])([H])C([H])([H])C([H])(n5nc(-c6c([H])c([H])c(Oc7c([H])c([H])c(F)c([H])c7F)c([H])c6[H])c(C(=O)N([H])[H])c5N([H])[H])C4([H])[H])C([H])([H])[H])C([H])([H])C3([H])[H])[N+]([H])([H])[H])c([H])c([H])c2C1([H])[H]

>  <smiles>  (72) 
[H]c1c([H])c([H])c2c(c1[H])C([H])([H])C([H])([H])C([H])([H])C2([H])N([H])C(=O)C1([H])N(C(=O)C([H])(N([H])C(=O)C([H])(N([H])C([H])([H])[H])C([H])([H])[H])C(C([H])([H])[H])(C([H])([H])[H])C([H])([H])[H])C([H])([H])c2c([H])c(OC([H])([H])C([H])(C([H])(C([H])([H])[H])C([H])([H])N3C(=O)C([H])(C([H])(N([H])C(=O)N4C([H])([H])C([H])([H])C([H])([H])C([H])(n5nc(-c6c([H])c([H])c(Oc7c([H])c([H])c(F)c([H])c7F)c([H])c6[H])c(C(=O)N([H])[H])c5N([H])[H])C4([H])[H])C([H])([H])[H])C([H])([H])C3([H])[H])[N+]([H])([H])[H])c([H])c([H])c2C1([H])[H]

$$$$
72:0:0
     RDKit          3D

 94103  0  0  1  0  0  0  0  0999 V2000
  -28.1400  -21.8830   20.3500 C   0  0  0  0  0  2  0  0  0  0  0  0
  -29.4480  -21.2240   19.9520 C   0  0  0  0  0  3  0  0  0  0  0  0
  -29.4200  -22.2470   21.0870 C   0  0  0  0  0  3  0  0  0  0  0  0
  -30.2810  -19.0800   21.0910 C   0  0  0  0  0  3  0  0  0  0  0  0
  -28.9990  -18.9250   19.0370 C   0  0  0  0  0  3  0  0  0  0  0  0
  -30.3870  -17.6700   21.1350 C   0  0  0  0  0  3  0  0  0  0  0  0
  -29.0850  -17.5190   19.0800 C   0  0  0  0  0  3  0  0  0  0  0  0
  -29.5720  -19.7230   20.0550 C   0  0  0  0  0  0  0  0  0  0  0  0
  -29.7660  -16.8800   20.1410 C   0  0  0  0  0  0  0  0  0  0  0  0
  -30.6130  -14.5140   20.3780 C   0  0  0  0  0  0  0  0  0  0  0  0
  -30.4060  -12.3030   19.3510 C   0  0  0  0  0  2  0  0  0  0  0  0
  -29.4630  -12.4850   18.1410 C   0  0  0  0  0  2  0  0  0  0  0  0
  -27.9820  -12.3730   18.5630 C   0  0  0  0  0  2  0  0  0  0  0  0
  -27.6370  -13.2020   19.8200 C   0  0  0  0  0  3  0  0  0  0  0  0
  -28.6870  -13.0040   20.9370 C   0  0  0  0  0  2  0  0  0  0  0  0
  -30.0250  -13.2900   20.3710 N   0  0  0  0  0  0  0  0  0  0  0  0
  -31.8090  -14.7270   20.1460 O   0  0  0  0  0  0  0  0  0  0  0  0
  -29.6730  -15.4710   20.2660 N   0  0  0  0  0  0  0  0  0  0  0  0
  -28.7570  -15.0730   20.1490 H   0  0  0  0  0  0  0  0  0  0  0  0
  -25.2370  -13.8400   20.5030 C   0  0  0  0  0  0  0  0  0  0  0  0
  -24.1630  -13.0690   20.8670 C   0  0  0  0  0  0  0  0  0  0  0  0
  -24.6260  -11.7230   20.8620 C   0  0  0  0  0  0  0  0  0  0  0  0
  -26.2820  -12.9500   20.2950 N   0  0  0  0  0  0  0  0  0  0  0  0
  -25.9180  -11.6750   20.5720 N   0  0  0  0  0  0  0  0  0  0  0  0
  -23.9030  -10.4580   21.0560 C   0  0  0  0  0  0  0  0  0  0  0  0
  -24.3350   -9.4920   21.9880 C   0  0  0  0  0  3  0  0  0  0  0  0
  -23.6140   -8.2920   22.1600 C   0  0  0  0  0  3  0  0  0  0  0  0
  -22.4480   -8.0520   21.3950 C   0  0  0  0  0  0  0  0  0  0  0  0
  -22.0430   -9.0050   20.4430 C   0  0  0  0  0  3  0  0  0  0  0  0
  -22.7660  -10.1950   20.2730 C   0  0  0  0  0  3  0  0  0  0  0  0
  -21.7010   -6.9040   21.4770 O   0  0  0  0  0  0  0  0  0  0  0  0
  -21.6540   -6.1610   22.6300 C   0  0  0  0  0  0  0  0  0  0  0  0
  -21.2190   -6.7120   23.8550 C   0  0  0  0  0  3  0  0  0  0  0  0
  -21.1160   -5.8940   24.9990 C   0  0  0  0  0  3  0  0  0  0  0  0
  -21.4440   -4.5270   24.9200 C   0  0  0  0  0  0  0  0  0  0  0  0
  -21.8640   -3.9730   23.6980 C   0  0  0  0  0  3  0  0  0  0  0  0
  -21.9670   -4.7890   22.5560 C   0  0  0  0  0  0  0  0  0  0  0  0
  -22.3630   -4.2480   21.3780 F   0  0  0  0  0  0  0  0  0  0  0  0
  -21.3350   -3.7370   26.0140 F   0  0  0  0  0  0  0  0  0  0  0  0
  -22.7650  -13.5560   21.1190 C   0  0  0  0  0  0  0  0  0  0  0  0
  -22.0220  -12.8600   21.9730 N   0  0  0  0  0  0  0  0  0  0  0  0
  -22.3380  -14.5740   20.5790 O   0  0  0  0  0  0  0  0  0  0  0  0
  -22.3840  -12.0400   22.4300 H   0  0  0  0  0  0  0  0  0  0  0  0
  -21.0850  -13.1640   22.1830 H   0  0  0  0  0  0  0  0  0  0  0  0
  -25.4000  -15.2070   20.3230 N   0  0  0  0  0  0  0  0  0  0  0  0
  -24.6200  -15.8580   20.3950 H   0  0  0  0  0  0  0  0  0  0  0  0
  -26.2550  -15.6610   20.0050 H   0  0  0  0  0  0  0  0  0  0  0  0
  -30.1160  -23.4840   20.6420 N   0  0  0  0  0  4  0  0  0  0  0  0
  -30.1860  -23.4470   19.6370 H   0  0  0  0  0  0  0  0  0  0  0  0
  -31.0660  -23.3970   20.9720 H   0  0  0  0  0  0  0  0  0  0  0  0
  -29.1980  -24.9810   22.5080 C   0  0  0  0  0  1  0  0  0  0  0  0
  -29.6060  -24.8400   21.0180 C   0  0  0  0  0  3  0  0  0  0  0  0
  -28.6030  -25.4150   19.9830 C   0  0  0  0  0  2  0  0  0  0  0  0
  -28.4540  -26.8140   20.2150 O   0  0  0  0  0  0  0  0  0  0  0  0
  -24.5920  -31.8950   23.2400 C   0  0  0  0  0  0  0  0  0  0  0  0
  -27.2280  -27.4470   20.1720 C   0  0  0  0  0  0  0  0  0  0  0  0
  -23.3770  -30.4920   21.6040 C   0  0  0  0  0  3  0  0  0  0  0  0
  -24.8160  -28.9390   20.1790 C   0  0  0  0  0  0  0  0  0  0  0  0
  -25.8940  -30.8530   21.3840 C   0  0  0  0  0  2  0  0  0  0  0  0
  -25.9720  -29.4720   20.7600 C   0  0  0  0  0  0  0  0  0  0  0  0
  -27.1690  -28.7280   20.7570 C   0  0  0  0  0  3  0  0  0  0  0  0
  -26.0480  -26.9150   19.5900 C   0  0  0  0  0  3  0  0  0  0  0  0
  -24.8500  -27.6590   19.5860 C   0  0  0  0  0  3  0  0  0  0  0  0
  -23.5740  -29.8030   20.2250 C   0  0  0  0  0  2  0  0  0  0  0  0
  -24.6430  -31.0970   22.1360 N   0  0  0  0  0  0  0  0  0  0  0  0
  -23.5110  -32.1630   23.7820 O   0  0  0  0  0  0  0  0  0  0  0  0
  -22.7290  -29.4780   22.5740 C   0  0  0  0  0  0  0  0  0  0  0  0
  -21.4060  -29.3000   22.4430 N   0  0  0  0  0  0  0  0  0  0  0  0
  -23.4160  -28.8450   23.3810 O   0  0  0  0  0  0  0  0  0  0  0  0
  -20.9120  -29.8710   21.7680 H   0  0  0  0  0  0  0  0  0  0  0  0
  -18.0290  -28.1100   22.9360 C   0  0  0  0  0  0  0  0  0  0  0  0
  -20.5900  -28.3580   23.2080 C   0  0  0  0  0  3  0  0  0  0  0  0
  -20.6910  -26.9340   22.6130 C   0  0  0  0  0  2  0  0  0  0  0  0
  -19.5840  -26.6230   21.5980 C   0  0  0  0  0  2  0  0  0  0  0  0
  -18.2060  -26.7580   22.2580 C   0  0  0  0  0  2  0  0  0  0  0  0
  -19.1490  -28.8650   23.3680 C   0  0  0  0  0  0  0  0  0  0  0  0
  -18.9340  -30.1270   23.9600 C   0  0  0  0  0  3  0  0  0  0  0  0
  -17.6310  -30.6310   24.1290 C   0  0  0  0  0  3  0  0  0  0  0  0
  -16.5250  -29.8690   23.7140 C   0  0  0  0  0  3  0  0  0  0  0  0
  -16.7250  -28.6100   23.1220 C   0  0  0  0  0  3  0  0  0  0  0  0
  -25.8780  -32.5230   23.8590 C   0  0  0  0  0  3  0  0  0  0  0  0
  -26.3900  -31.7540   25.1380 C   0  0  1  0  0  0  0  0  0  0  0  0
  -25.2980  -31.5280   26.2130 C   0  0  0  0  0  1  0  0  0  0  0  0
  -26.9650  -30.3740   24.7390 C   0  0  0  0  0  1  0  0  0  0  0  0
  -27.5420  -32.5440   25.8040 C   0  0  0  0  0  1  0  0  0  0  0  0
  -25.5720  -33.9200   24.1870 N   0  0  0  0  0  0  0  0  0  0  0  0
  -25.9030  -34.9700   23.4220 C   0  0  0  0  0  0  0  0  0  0  0  0
  -26.5730  -34.8640   22.3900 O   0  0  0  0  0  0  0  0  0  0  0  0
  -24.9850  -34.0750   24.9910 H   0  0  0  0  0  0  0  0  0  0  0  0
  -24.1830  -36.7710   23.0550 C   0  0  0  0  0  1  0  0  0  0  0  0
  -25.4160  -36.3610   23.8750 C   0  0  0  0  0  3  0  0  0  0  0  0
  -27.5510  -37.2440   24.7130 C   0  0  0  0  0  1  0  0  0  0  0  0
  -26.4480  -37.4130   23.7680 N   0  0  0  0  0  0  0  0  0  0  0  0
  -26.0470  -38.3340   23.9130 H   0  0  0  0  0  0  0  0  0  0  0  0
  1  3  1  0
  2  8  1  0
  2  1  1  0
  2  3  1  0
  3 48  1  0
  4  6  1  0
  5  7  2  0
  5  8  1  0
  7  9  1  0
  8  4  2  0
  9 18  1  0
  9  6  2  0
 11 16  1  0
 12 13  1  0
 12 11  1  0
 14 13  1  0
 14 23  1  0
 14 15  1  0
 16 10  1  0
 16 15  1  0
 17 10  2  0
 18 10  1  0
 19 18  1  0
 20 21  2  0
 21 40  1  0
 22 21  1  0
 22 25  1  0
 23 20  1  0
 23 24  1  0
 24 22  2  0
 25 26  1  0
 26 27  2  0
 28 31  1  0
 28 27  1  0
 29 28  2  0
 30 29  1  0
 30 25  2  0
 31 32  1  0
 32 33  1  0
 33 34  2  0
 35 34  1  0
 35 39  1  0
 36 35  2  0
 37 32  2  0
 37 36  1  0
 38 37  1  0
 40 41  1  0
 41 44  1  0
 41 43  1  0
 42 40  2  0
 45 46  1  0
 45 20  1  0
 47 45  1  0
 48 50  1  0
 48 52  1  0
 49 48  1  0
 52 51  1  0
 53 54  1  0
 53 52  1  0
 55 66  2  0
 56 54  1  0
 56 61  1  0
 57 65  1  0
 57 67  1  0
 58 64  1  0
 58 60  1  0
 59 65  1  0
 60 59  1  0
 61 60  2  0
 62 56  2  0
 63 62  1  0
 63 58  2  0
 64 57  1  0
 65 55  1  0
 67 69  2  0
 68 67  1  0
 70 68  1  0
 71 80  2  0
 71 76  1  0
 72 68  1  0
 72 76  1  0
 73 72  1  0
 74 75  1  0
 74 73  1  0
 75 71  1  0
 76 77  2  0
 77 78  1  0
 79 78  2  0
 80 79  1  0
 81 55  1  0
 81 86  1  0
 81 82  1  0
 82 85  1  1
 82 83  1  0
 84 82  1  0
 86 89  1  0
 87 91  1  0
 87 86  1  0
 88 87  2  0
 91 90  1  0
 93 91  1  0
 93 94  1  0
 93 92  1  0
M  ISO  4  10 100  18 100  53 101  54 101
M  END
>  <TORSDO>  (73) 
F 20

>  <SCORE>  (73) 
-14.107

>  <name>  (73) 
72

>  <ligand_id>  (73) 
72

>  <original_smiles>  (73) 
[H]c1c([H])c([H])c2c(c1[H])C([H])([H])C([H])([H])C([H])([H])C2([H])N([H])C(=O)C1([H])N(C(=O)C([H])(N([H])C(=O)C([H])(N([H])C([H])([H])[H])C([H])([H])[H])C(C([H])([H])[H])(C([H])([H])[H])C([H])([H])[H])C([H])([H])c2c([H])c(OC([H])([H])C([H])(C([H])([H])[H])[N+]([H])([H])C3([H])C([H])([H])C3([H])c3c([H])c([H])c(N([H])C(=O)N4C([H])([H])C([H])([H])C([H])([H])C([H])(n5nc(-c6c([H])c([H])c(Oc7c([H])c([H])c(F)c([H])c7F)c([H])c6[H])c(C(=O)N([H])[H])c5N([H])[H])C4([H])[H])c([H])c3[H])c([H])c([H])c2C1([H])[H]

>  <smiles>  (73) 
[H]c1c([H])c([H])c2c(c1[H])C([H])([H])C([H])([H])C([H])([H])C2([H])N([H])C(=O)C1([H])N(C(=O)C([H])(N([H])C(=O)C([H])(N([H])C([H])([H])[H])C([H])([H])[H])C(C([H])([H])[H])(C([H])([H])[H])C([H])([H])[H])C([H])([H])c2c([H])c(OC([H])([H])C([H])(C([H])([H])[H])[N+]([H])([H])C3([H])C([H])([H])C3([H])c3c([H])c([H])c(N([H])C(=O)N4C([H])([H])C([H])([H])C([H])([H])C([H])(n5nc(-c6c([H])c([H])c(Oc7c([H])c([H])c(F)c([H])c7F)c([H])c6[H])c(C(=O)N([H])[H])c5N([H])[H])C4([H])[H])c([H])c3[H])c([H])c([H])c2C1([H])[H]

$$$$
73:0:0
     RDKit          3D

100108  0  0  1  0  0  0  0  0999 V2000
  -28.4730  -23.1670   20.4600 C   0  0  2  0  0  0  0  0  0  0  0  0
  -29.4410  -23.4920   21.5100 N   0  0  0  0  0  0  0  0  0  0  0  0
  -30.3520  -23.1510   21.2170 H   0  0  0  0  0  0  0  0  0  0  0  0
  -29.5790  -24.4990   21.4710 H   0  0  0  0  0  0  0  0  0  0  0  0
  -27.0990  -22.9480   21.1430 C   0  0  0  0  0  2  0  0  0  0  0  0
  -26.8740  -23.9650   22.1830 N   0  0  0  0  0  4  0  0  0  0  0  0
  -26.7140  -24.8790   21.8000 H   0  0  0  0  0  0  0  0  0  0  0  0
  -27.7500  -23.9950   22.6850 H   0  0  0  0  0  0  0  0  0  0  0  0
  -26.1250  -23.7100   22.7980 H   0  0  0  0  0  0  0  0  0  0  0  0
  -29.0000  -21.6380   19.7670 C   0  0  0  0  0  2  0  0  0  0  0  0
  -29.7750  -20.3500   21.8390 C   0  0  0  0  0  1  0  0  0  0  0  0
  -29.1000  -20.2000   20.5280 N   0  0  2  0  0  4  0  0  0  0  0  0
  -28.1350  -20.0880   20.7970 H   0  0  0  0  0  0  0  0  0  0  0  0
  -30.6630  -15.2160   19.8850 C   0  0  0  0  0  0  0  0  0  0  0  0
  -30.4320  -12.8470   18.9490 C   0  0  0  0  0  2  0  0  0  0  0  0
  -29.4420  -12.7430   17.7700 C   0  0  0  0  0  2  0  0  0  0  0  0
  -28.0140  -12.5130   18.2970 C   0  0  0  0  0  2  0  0  0  0  0  0
  -27.6640  -13.4540   19.4790 C   0  0  0  0  0  3  0  0  0  0  0  0
  -28.7830  -13.5470   20.5380 C   0  0  0  0  0  2  0  0  0  0  0  0
  -29.9890  -13.9840   19.8250 N   0  0  0  0  0  0  0  0  0  0  0  0
  -31.8550  -15.1470   19.5680 O   0  0  0  0  0  0  0  0  0  0  0  0
  -28.9390  -17.3200   20.5890 C   0  0  0  0  0  2  0  0  0  0  0  0
  -30.7180  -17.9140   19.6800 C   0  0  0  0  0  3  0  0  0  0  0  0
  -29.3450  -18.7160   19.8720 C   0  0  0  0  0  3  0  0  0  0  0  0
  -30.0510  -16.5410   19.8880 N   0  0  0  0  0  0  0  0  0  0  0  0
  -25.3540  -14.0130   20.4050 C   0  0  0  0  0  0  0  0  0  0  0  0
  -24.3110  -13.2350   20.8220 C   0  0  0  0  0  0  0  0  0  0  0  0
  -24.7610  -11.8820   20.7220 C   0  0  0  0  0  0  0  0  0  0  0  0
  -26.3680  -13.1370   20.0650 N   0  0  0  0  0  0  0  0  0  0  0  0
  -26.0310  -11.8480   20.3270 N   0  0  0  0  0  0  0  0  0  0  0  0
  -24.0360  -10.6180   20.9160 C   0  0  0  0  0  0  0  0  0  0  0  0
  -24.4640   -9.6560   21.8570 C   0  0  0  0  0  3  0  0  0  0  0  0
  -23.7350   -8.4630   22.0440 C   0  0  0  0  0  3  0  0  0  0  0  0
  -22.5630   -8.2210   21.2890 C   0  0  0  0  0  0  0  0  0  0  0  0
  -22.1520   -9.1710   20.3380 C   0  0  0  0  0  3  0  0  0  0  0  0
  -22.8820  -10.3570   20.1500 C   0  0  0  0  0  3  0  0  0  0  0  0
  -21.8080   -7.0780   21.3840 O   0  0  0  0  0  0  0  0  0  0  0  0
  -21.6990   -6.3800   22.5610 C   0  0  0  0  0  0  0  0  0  0  0  0
  -21.1920   -6.9760   23.7360 C   0  0  0  0  0  3  0  0  0  0  0  0
  -21.0350   -6.2050   24.9040 C   0  0  0  0  0  3  0  0  0  0  0  0
  -21.3750   -4.8380   24.8980 C   0  0  0  0  0  0  0  0  0  0  0  0
  -21.8770   -4.2430   23.7280 C   0  0  0  0  0  3  0  0  0  0  0  0
  -22.0350   -5.0120   22.5620 C   0  0  0  0  0  0  0  0  0  0  0  0
  -22.4990   -4.4280   21.4300 F   0  0  0  0  0  0  0  0  0  0  0  0
  -21.2160   -4.0960   26.0170 F   0  0  0  0  0  0  0  0  0  0  0  0
  -22.9370  -13.7130   21.1910 C   0  0  0  0  0  0  0  0  0  0  0  0
  -22.2550  -12.9970   22.0760 N   0  0  0  0  0  0  0  0  0  0  0  0
  -22.4800  -14.7590   20.7290 O   0  0  0  0  0  0  0  0  0  0  0  0
  -22.6370  -12.1490   22.4700 H   0  0  0  0  0  0  0  0  0  0  0  0
  -21.3350  -13.2990   22.3650 H   0  0  0  0  0  0  0  0  0  0  0  0
  -25.5170  -15.3880   20.2570 N   0  0  0  0  0  0  0  0  0  0  0  0
  -24.7670  -16.0440   20.4420 H   0  0  0  0  0  0  0  0  0  0  0  0
  -26.3330  -15.8160   19.8450 H   0  0  0  0  0  0  0  0  0  0  0  0
  -31.8440  -18.2220   20.6830 C   0  0  0  0  0  0  0  0  0  0  0  0
  -32.6600  -19.2250   20.3860 N   0  0  0  0  0  0  0  0  0  0  0  0
  -31.9720  -17.5760   21.7200 O   0  0  0  0  0  0  0  0  0  0  0  0
  -32.5580  -19.7460   19.5260 H   0  0  0  0  0  0  0  0  0  0  0  0
  -33.4090  -19.4730   21.0180 H   0  0  0  0  0  0  0  0  0  0  0  0
  -28.3050  -24.6850   19.6430 C   0  0  0  0  0  2  0  0  0  0  0  0
  -28.2710  -26.1760   20.2050 O   0  0  0  0  0  0  0  0  0  0  0  0
  -24.6700  -31.9080   23.2230 C   0  0  0  0  0  0  0  0  0  0  0  0
  -27.2150  -27.1770   20.1130 C   0  0  0  0  0  0  0  0  0  0  0  0
  -23.4520  -30.5090   21.6010 C   0  0  0  0  0  3  0  0  0  0  0  0
  -24.8810  -28.9500   20.1320 C   0  0  0  0  0  0  0  0  0  0  0  0
  -25.9980  -30.7850   21.3850 C   0  0  0  0  0  2  0  0  0  0  0  0
  -26.0690  -29.3880   20.7260 C   0  0  0  0  0  0  0  0  0  0  0  0
  -27.2290  -28.5160   20.7040 C   0  0  0  0  0  3  0  0  0  0  0  0
  -25.9970  -26.8590   19.4700 C   0  0  0  0  0  3  0  0  0  0  0  0
  -24.8620  -27.7020   19.4870 C   0  0  0  0  0  3  0  0  0  0  0  0
  -23.6490  -29.8410   20.2140 C   0  0  0  0  0  2  0  0  0  0  0  0
  -24.7290  -31.0900   22.1240 N   0  0  0  0  0  0  0  0  0  0  0  0
  -23.5930  -32.1870   23.7700 O   0  0  0  0  0  0  0  0  0  0  0  0
  -22.7980  -29.4920   22.5750 C   0  0  0  0  0  0  0  0  0  0  0  0
  -21.4730  -29.2950   22.4630 N   0  0  0  0  0  0  0  0  0  0  0  0
  -23.4880  -28.8860   23.3970 O   0  0  0  0  0  0  0  0  0  0  0  0
  -20.9690  -29.8430   21.7790 H   0  0  0  0  0  0  0  0  0  0  0  0
  -18.1280  -27.9940   22.9780 C   0  0  0  0  0  0  0  0  0  0  0  0
  -20.6780  -28.3420   23.2460 C   0  0  0  0  0  3  0  0  0  0  0  0
  -20.8230  -26.9050   22.6910 C   0  0  0  0  0  2  0  0  0  0  0  0
  -19.7350  -26.5360   21.6790 C   0  0  0  0  0  2  0  0  0  0  0  0
  -18.3480  -26.6440   22.3180 C   0  0  0  0  0  2  0  0  0  0  0  0
  -19.2210  -28.7970   23.4000 C   0  0  0  0  0  0  0  0  0  0  0  0
  -18.9610  -30.0570   23.9800 C   0  0  0  0  0  3  0  0  0  0  0  0
  -17.6400  -30.5150   24.1410 C   0  0  0  0  0  3  0  0  0  0  0  0
  -16.5610  -29.7090   23.7350 C   0  0  0  0  0  3  0  0  0  0  0  0
  -16.8060  -28.4510   23.1600 C   0  0  0  0  0  3  0  0  0  0  0  0
  -25.9520  -32.5540   23.8280 C   0  0  0  0  0  3  0  0  0  0  0  0
  -26.4890  -31.7880   25.1010 C   0  0  1  0  0  0  0  0  0  0  0  0
  -25.4110  -31.5470   26.1850 C   0  0  0  0  0  1  0  0  0  0  0  0
  -27.0760  -30.4130   24.7100 C   0  0  0  0  0  1  0  0  0  0  0  0
  -27.6460  -32.5880   25.7460 C   0  0  0  0  0  1  0  0  0  0  0  0
  -25.6380  -33.9520   24.1740 N   0  0  0  0  0  0  0  0  0  0  0  0
  -25.9490  -35.0130   23.4180 C   0  0  0  0  0  0  0  0  0  0  0  0
  -26.5990  -34.9200   22.3750 O   0  0  0  0  0  0  0  0  0  0  0  0
  -25.0570  -34.0950   24.9870 H   0  0  0  0  0  0  0  0  0  0  0  0
  -24.2070  -36.8050   23.1090 C   0  0  0  0  0  1  0  0  0  0  0  0
  -25.4610  -36.3990   23.8950 C   0  0  0  0  0  3  0  0  0  0  0  0
  -27.6020  -37.2930   24.6980 C   0  0  0  0  0  1  0  0  0  0  0  0
  -26.4880  -37.4570   23.7700 N   0  0  0  0  0  0  0  0  0  0  0  0
  -26.0800  -38.3740   23.9250 H   0  0  0  0  0  0  0  0  0  0  0  0
  1 59  1  6
  1  5  1  0
  1  2  1  0
  3  2  1  0
  4  2  1  0
  5  6  1  0
  6  8  1  0
  6  9  1  0
  7  6  1  0
 10  1  1  0
 10 12  1  0
 12 13  1  1
 12 11  1  0
 14 25  1  0
 15 20  1  0
 16 17  1  0
 16 15  1  0
 18 17  1  0
 18 29  1  0
 18 19  1  0
 20 14  1  0
 20 19  1  0
 21 14  2  0
 23 24  1  0
 23 25  1  0
 23 54  1  0
 24 12  1  0
 24 22  1  0
 25 22  1  0
 26 27  2  0
 27 46  1  0
 28 27  1  0
 28 31  1  0
 29 30  1  0
 29 26  1  0
 30 28  2  0
 31 32  1  0
 32 33  2  0
 34 37  1  0
 34 33  1  0
 35 34  2  0
 36 35  1  0
 36 31  2  0
 37 38  1  0
 38 43  2  0
 38 39  1  0
 39 40  2  0
 41 40  1  0
 41 45  1  0
 42 41  2  0
 43 42  1  0
 44 43  1  0
 46 47  1  0
 47 50  1  0
 47 49  1  0
 48 46  2  0
 51 26  1  0
 51 52  1  0
 53 51  1  0
 54 56  2  0
 55 54  1  0
 55 58  1  0
 57 55  1  0
 59 60  1  0
 61 72  2  0
 62 60  1  0
 62 67  1  0
 63 71  1  0
 63 73  1  0
 64 70  1  0
 64 66  1  0
 65 71  1  0
 66 65  1  0
 67 66  2  0
 68 69  1  0
 68 62  2  0
 69 64  2  0
 70 63  1  0
 71 61  1  0
 73 75  2  0
 74 73  1  0
 76 74  1  0
 77 86  2  0
 77 82  1  0
 78 74  1  0
 78 82  1  0
 79 78  1  0
 80 81  1  0
 80 79  1  0
 81 77  1  0
 82 83  2  0
 83 84  1  0
 85 84  2  0
 86 85  1  0
 87 61  1  0
 87 92  1  0
 87 88  1  0
 88 91  1  1
 88 89  1  0
 90 88  1  0
 92 95  1  0
 93 97  1  0
 93 92  1  0
 94 93  2  0
 97 96  1  0
 99 97  1  0
 99100  1  0
 99 98  1  0
M  ISO  4  14 100  25 100  59 101  60 101
M  END
>  <TORSDO>  (74) 
F 23

>  <SCORE>  (74) 
-14.188

>  <name>  (74) 
73

>  <ligand_id>  (74) 
73

>  <original_smiles>  (74) 
[H]c1c([H])c([H])c2c(c1[H])C([H])([H])C([H])([H])C([H])([H])C2([H])N([H])C(=O)C1([H])N(C(=O)C([H])(N([H])C(=O)C([H])(N([H])C([H])([H])[H])C([H])([H])[H])C(C([H])([H])[H])(C([H])([H])[H])C([H])([H])[H])C([H])([H])c2c([H])c(OC([H])([H])C(N([H])[H])(C([H])([H])[N+]([H])([H])[H])C([H])([H])[N+]([H])(C([H])([H])[H])C3([H])C([H])([H])N(C(=O)N4C([H])([H])C([H])([H])C([H])([H])C([H])(n5nc(-c6c([H])c([H])c(Oc7c([H])c([H])c(F)c([H])c7F)c([H])c6[H])c(C(=O)N([H])[H])c5N([H])[H])C4([H])[H])C3([H])C(=O)N([H])[H])c([H])c([H])c2C1([H])[H]

>  <smiles>  (74) 
[H]c1c([H])c([H])c2c(c1[H])C([H])([H])C([H])([H])C([H])([H])C2([H])N([H])C(=O)C1([H])N(C(=O)C([H])(N([H])C(=O)C([H])(N([H])C([H])([H])[H])C([H])([H])[H])C(C([H])([H])[H])(C([H])([H])[H])C([H])([H])[H])C([H])([H])c2c([H])c(OC([H])([H])C(N([H])[H])(C([H])([H])[N+]([H])([H])[H])C([H])([H])[N+]([H])(C([H])([H])[H])C3([H])C([H])([H])N(C(=O)N4C([H])([H])C([H])([H])C([H])([H])C([H])(n5nc(-c6c([H])c([H])c(Oc7c([H])c([H])c(F)c([H])c7F)c([H])c6[H])c(C(=O)N([H])[H])c5N([H])[H])C4([H])[H])C3([H])C(=O)N([H])[H])c([H])c([H])c2C1([H])[H]

$$$$
74:0:0
     RDKit          3D

 98107  0  0  1  0  0  0  0  0999 V2000
  -29.3160  -23.8590   18.7680 C   0  0  0  0  0  2  0  0  0  0  0  0
  -30.6600  -24.0730   20.7270 C   0  0  0  0  0  2  0  0  0  0  0  0
  -30.4300  -22.7890   18.7060 C   0  0  0  0  0  3  0  0  0  0  0  0
  -29.8150  -24.9260   19.7540 C   0  0  1  0  0  0  0  0  0  0  0  0
  -30.7350  -25.9430   19.0310 C   0  0  0  0  0  1  0  0  0  0  0  0
  -32.6520  -22.8780   19.8280 C   0  0  0  0  0  1  0  0  0  0  0  0
  -31.1750  -22.8950   19.9840 N   0  0  1  0  0  4  0  0  0  0  0  0
  -30.9200  -22.0940   20.5410 H   0  0  0  0  0  0  0  0  0  0  0  0
  -29.8780  -21.3740   18.4040 C   0  0  0  0  0  0  0  0  0  0  0  0
  -30.3930  -20.3080   19.0590 N   0  0  0  0  0  0  0  0  0  0  0  0
  -28.9580  -21.2730   17.5840 O   0  0  0  0  0  0  0  0  0  0  0  0
  -31.1170  -20.4800   19.7410 H   0  0  0  0  0  0  0  0  0  0  0  0
  -29.2020  -17.0610   17.5790 C   0  0  0  0  0  3  0  0  0  0  0  0
  -29.5790  -18.4070   17.6820 C   0  0  0  0  0  3  0  0  0  0  0  0
  -29.2870  -16.2220   18.6980 C   0  0  0  0  0  3  0  0  0  0  0  0
  -30.1260  -18.0710   20.0430 C   0  0  0  0  0  3  0  0  0  0  0  0
  -30.0190  -18.9370   18.9190 C   0  0  0  0  0  0  0  0  0  0  0  0
  -29.7700  -16.7020   19.9390 C   0  0  0  0  0  0  0  0  0  0  0  0
  -30.6750  -14.7870   21.1370 C   0  0  0  0  0  0  0  0  0  0  0  0
  -30.6170  -12.4810   20.3140 C   0  0  0  0  0  2  0  0  0  0  0  0
  -29.8310  -12.4980   18.9870 C   0  0  0  0  0  2  0  0  0  0  0  0
  -28.3080  -12.3910   19.2340 C   0  0  0  0  0  2  0  0  0  0  0  0
  -27.7870  -13.3120   20.3760 C   0  0  0  0  0  3  0  0  0  0  0  0
  -28.7180  -13.2730   21.6110 C   0  0  0  0  0  2  0  0  0  0  0  0
  -30.0890  -13.5620   21.1570 N   0  0  0  0  0  0  0  0  0  0  0  0
  -31.8800  -14.9630   20.9400 O   0  0  0  0  0  0  0  0  0  0  0  0
  -29.8120  -15.8200   21.0660 N   0  0  0  0  0  0  0  0  0  0  0  0
  -28.8990  -15.5660   21.4150 H   0  0  0  0  0  0  0  0  0  0  0  0
  -25.3200  -13.8900   20.8120 C   0  0  0  0  0  0  0  0  0  0  0  0
  -24.2310  -13.1040   21.0840 C   0  0  0  0  0  0  0  0  0  0  0  0
  -24.7200  -11.7610   21.1350 C   0  0  0  0  0  0  0  0  0  0  0  0
  -26.3980  -13.0240   20.7180 N   0  0  0  0  0  0  0  0  0  0  0  0
  -26.0350  -11.7410   20.9700 N   0  0  0  0  0  0  0  0  0  0  0  0
  -24.0050  -10.4880   21.2740 C   0  0  0  0  0  0  0  0  0  0  0  0
  -24.3910   -9.5250   22.2350 C   0  0  0  0  0  3  0  0  0  0  0  0
  -23.6750   -8.3160   22.3610 C   0  0  0  0  0  3  0  0  0  0  0  0
  -22.5610   -8.0610   21.5270 C   0  0  0  0  0  0  0  0  0  0  0  0
  -22.1970   -9.0110   20.5560 C   0  0  0  0  0  3  0  0  0  0  0  0
  -22.9130  -10.2130   20.4270 C   0  0  0  0  0  3  0  0  0  0  0  0
  -21.8250   -6.9020   21.5590 O   0  0  0  0  0  0  0  0  0  0  0  0
  -21.7410   -6.1370   22.6940 C   0  0  0  0  0  0  0  0  0  0  0  0
  -21.2700   -6.6660   23.9160 C   0  0  0  0  0  3  0  0  0  0  0  0
  -21.1320   -5.8260   25.0390 C   0  0  0  0  0  3  0  0  0  0  0  0
  -21.4570   -4.4600   24.9420 C   0  0  0  0  0  0  0  0  0  0  0  0
  -21.9180   -3.9300   23.7250 C   0  0  0  0  0  3  0  0  0  0  0  0
  -22.0570   -4.7650   22.6030 C   0  0  0  0  0  0  0  0  0  0  0  0
  -22.4830   -4.2450   21.4270 F   0  0  0  0  0  0  0  0  0  0  0  0
  -21.3150   -3.6550   26.0200 F   0  0  0  0  0  0  0  0  0  0  0  0
  -22.8040  -13.5560   21.1970 C   0  0  0  0  0  0  0  0  0  0  0  0
  -22.0020  -12.8700   22.0040 N   0  0  0  0  0  0  0  0  0  0  0  0
  -22.4010  -14.5570   20.6040 O   0  0  0  0  0  0  0  0  0  0  0  0
  -22.3350  -12.0590   22.5050 H   0  0  0  0  0  0  0  0  0  0  0  0
  -21.0430  -13.1620   22.1300 H   0  0  0  0  0  0  0  0  0  0  0  0
  -25.4760  -15.2590   20.6150 N   0  0  0  0  0  0  0  0  0  0  0  0
  -24.6890  -15.8980   20.6190 H   0  0  0  0  0  0  0  0  0  0  0  0
  -26.3430  -15.7060   20.3430 H   0  0  0  0  0  0  0  0  0  0  0  0
  -28.6390  -25.6520   20.4910 C   0  0  0  0  0  2  0  0  0  0  0  0
  -28.4160  -26.9440   19.9380 O   0  0  0  0  0  0  0  0  0  0  0  0
  -24.5240  -31.9280   23.2090 C   0  0  0  0  0  0  0  0  0  0  0  0
  -27.1890  -27.5440   20.0830 C   0  0  0  0  0  0  0  0  0  0  0  0
  -23.3070  -30.5170   21.5780 C   0  0  0  0  0  3  0  0  0  0  0  0
  -24.7560  -28.9800   20.1480 C   0  0  0  0  0  0  0  0  0  0  0  0
  -25.8210  -30.9070   21.3420 C   0  0  0  0  0  2  0  0  0  0  0  0
  -25.9130  -29.5330   20.7120 C   0  0  0  0  0  0  0  0  0  0  0  0
  -27.1300  -28.8230   20.6730 C   0  0  0  0  0  3  0  0  0  0  0  0
  -26.0170  -26.9820   19.5340 C   0  0  0  0  0  3  0  0  0  0  0  0
  -24.8000  -27.6990   19.5630 C   0  0  0  0  0  3  0  0  0  0  0  0
  -23.5040  -29.8260   20.2000 C   0  0  0  0  0  2  0  0  0  0  0  0
  -24.5690  -31.1320   22.1020 N   0  0  0  0  0  0  0  0  0  0  0  0
  -23.4490  -32.1910   23.7660 O   0  0  0  0  0  0  0  0  0  0  0  0
  -22.6770  -29.4930   22.5490 C   0  0  0  0  0  0  0  0  0  0  0  0
  -21.3520  -29.3030   22.4390 N   0  0  0  0  0  0  0  0  0  0  0  0
  -23.3770  -28.8710   23.3540 O   0  0  0  0  0  0  0  0  0  0  0  0
  -20.8500  -29.8580   21.7600 H   0  0  0  0  0  0  0  0  0  0  0  0
  -17.9940  -28.0830   22.9690 C   0  0  0  0  0  0  0  0  0  0  0  0
  -20.5520  -28.3580   23.2160 C   0  0  0  0  0  3  0  0  0  0  0  0
  -20.6590  -26.9280   22.6360 C   0  0  0  0  0  2  0  0  0  0  0  0
  -19.5490  -26.5990   21.6330 C   0  0  0  0  0  2  0  0  0  0  0  0
  -18.1730  -26.7350   22.2920 C   0  0  0  0  0  2  0  0  0  0  0  0
  -19.1120  -28.8520   23.3880 C   0  0  0  0  0  0  0  0  0  0  0  0
  -18.8910  -30.1150   23.9800 C   0  0  0  0  0  3  0  0  0  0  0  0
  -17.5850  -30.6090   24.1570 C   0  0  0  0  0  3  0  0  0  0  0  0
  -16.4820  -29.8360   23.7560 C   0  0  0  0  0  3  0  0  0  0  0  0
  -16.6870  -28.5760   23.1660 C   0  0  0  0  0  3  0  0  0  0  0  0
  -25.8150  -32.5650   23.8140 C   0  0  0  0  0  3  0  0  0  0  0  0
  -26.3670  -31.7840   25.0690 C   0  0  1  0  0  0  0  0  0  0  0  0
  -25.3010  -31.5250   26.1570 C   0  0  0  0  0  1  0  0  0  0  0  0
  -26.9540  -30.4170   24.6450 C   0  0  0  0  0  1  0  0  0  0  0  0
  -27.5240  -32.5820   25.7170 C   0  0  0  0  0  1  0  0  0  0  0  0
  -25.5000  -33.9560   24.1630 N   0  0  0  0  0  0  0  0  0  0  0  0
  -25.8210  -35.0200   23.4150 C   0  0  0  0  0  0  0  0  0  0  0  0
  -26.4860  -34.9330   22.3790 O   0  0  0  0  0  0  0  0  0  0  0  0
  -24.9060  -34.0970   24.9670 H   0  0  0  0  0  0  0  0  0  0  0  0
  -24.0810  -36.8050   23.0860 C   0  0  0  0  0  1  0  0  0  0  0  0
  -25.3260  -36.3980   23.8900 C   0  0  0  0  0  3  0  0  0  0  0  0
  -27.4610  -37.2810   24.7240 C   0  0  0  0  0  1  0  0  0  0  0  0
  -26.3520  -37.4590   23.7890 N   0  0  0  0  0  0  0  0  0  0  0  0
  -25.9410  -38.3740   23.9520 H   0  0  0  0  0  0  0  0  0  0  0  0
  1  4  1  0
  3  9  1  0
  3  1  1  0
  3  7  1  0
  4  5  1  6
  4 57  1  0
  4  2  1  0
  6  7  1  0
  7  8  1  1
  7  2  1  0
  9 10  1  0
 10 12  1  0
 11  9  2  0
 13 14  2  0
 13 15  1  0
 14 17  1  0
 15 18  2  0
 17 10  1  0
 17 16  2  0
 18 16  1  0
 18 27  1  0
 19 25  1  0
 20 25  1  0
 21 22  1  0
 21 20  1  0
 23 22  1  0
 23 32  1  0
 23 24  1  0
 25 24  1  0
 26 19  2  0
 27 19  1  0
 27 28  1  0
 29 30  2  0
 30 31  1  0
 30 49  1  0
 31 34  1  0
 32 29  1  0
 32 33  1  0
 33 31  2  0
 34 35  1  0
 35 36  2  0
 37 40  1  0
 37 36  1  0
 38 37  2  0
 39 38  1  0
 39 34  2  0
 40 41  1  0
 41 42  1  0
 42 43  2  0
 44 43  1  0
 44 48  1  0
 45 44  2  0
 46 41  2  0
 46 45  1  0
 47 46  1  0
 49 50  1  0
 50 53  1  0
 50 52  1  0
 51 49  2  0
 54 55  1  0
 54 29  1  0
 56 54  1  0
 58 60  1  0
 58 57  1  0
 59 70  2  0
 60 65  1  0
 61 69  1  0
 61 71  1  0
 62 68  1  0
 62 64  1  0
 63 69  1  0
 64 63  1  0
 65 64  2  0
 66 67  1  0
 66 60  2  0
 67 62  2  0
 68 61  1  0
 69 59  1  0
 71 73  2  0
 72 71  1  0
 74 72  1  0
 75 84  2  0
 75 80  1  0
 76 72  1  0
 76 80  1  0
 77 76  1  0
 78 79  1  0
 78 77  1  0
 79 75  1  0
 80 81  2  0
 81 82  1  0
 83 82  2  0
 84 83  1  0
 85 59  1  0
 85 90  1  0
 85 86  1  0
 86 89  1  1
 86 87  1  0
 88 86  1  0
 90 93  1  0
 91 95  1  0
 91 90  1  0
 92 91  2  0
 95 94  1  0
 97 95  1  0
 97 98  1  0
 97 96  1  0
M  ISO  4  19 100  27 100  57 101  58 101
M  END
>  <TORSDO>  (75) 
F 19

>  <SCORE>  (75) 
-12.794

>  <name>  (75) 
74

>  <ligand_id>  (75) 
74

>  <original_smiles>  (75) 
[H]c1c([H])c(N([H])C(=O)N2C([H])([H])C([H])([H])C([H])([H])C([H])(n3nc(-c4c([H])c([H])c(Oc5c([H])c([H])c(F)c([H])c5F)c([H])c4[H])c(C(=O)N([H])[H])c3N([H])[H])C2([H])[H])c([H])c(N([H])C(=O)C2([H])C([H])([H])C(C([H])([H])[H])(C([H])([H])Oc3c([H])c([H])c4c(c3[H])C([H])([H])N(C(=O)C([H])(N([H])C(=O)C([H])(N([H])C([H])([H])[H])C([H])([H])[H])C(C([H])([H])[H])(C([H])([H])[H])C([H])([H])[H])C([H])(C(=O)N([H])C3([H])c5c([H])c([H])c([H])c([H])c5C([H])([H])C([H])([H])C3([H])[H])C4([H])[H])C([H])([H])[N+]2([H])C([H])([H])[H])c1[H]

>  <smiles>  (75) 
[H]c1c([H])c(N([H])C(=O)N2C([H])([H])C([H])([H])C([H])([H])C([H])(n3nc(-c4c([H])c([H])c(Oc5c([H])c([H])c(F)c([H])c5F)c([H])c4[H])c(C(=O)N([H])[H])c3N([H])[H])C2([H])[H])c([H])c(N([H])C(=O)C2([H])C([H])([H])C(C([H])([H])[H])(C([H])([H])Oc3c([H])c([H])c4c(c3[H])C([H])([H])N(C(=O)C([H])(N([H])C(=O)C([H])(N([H])C([H])([H])[H])C([H])([H])[H])C(C([H])([H])[H])(C([H])([H])[H])C([H])([H])[H])C([H])(C(=O)N([H])C3([H])c5c([H])c([H])c([H])c([H])c5C([H])([H])C([H])([H])C3([H])[H])C4([H])[H])C([H])([H])[N+]2([H])C([H])([H])[H])c1[H]

$$$$
75:0:0
     RDKit          3D

 97105  0  0  1  0  0  0  0  0999 V2000
  -32.3880  -19.8470   21.2140 C   0  0  0  0  0  3  0  0  0  0  0  0
  -31.7010  -22.1670   20.9030 C   0  0  0  0  0  3  0  0  0  0  0  0
  -30.0260  -20.3990   20.9770 C   0  0  0  0  0  3  0  0  0  0  0  0
  -32.7180  -21.2080   21.0630 C   0  0  0  0  0  0  0  0  0  0  0  0
  -31.0450  -19.4100   21.1760 C   0  0  0  0  0  0  0  0  0  0  0  0
  -30.3370  -21.7940   20.8700 C   0  0  0  0  0  0  0  0  0  0  0  0
  -34.1690  -21.6510   21.0820 C   0  0  0  0  0  1  0  0  0  0  0  0
  -29.3150  -22.7770   20.7440 N   0  0  0  0  0  0  0  0  0  0  0  0
  -28.3510  -22.4630   20.6700 H   0  0  0  0  0  0  0  0  0  0  0  0
  -29.9440  -24.7630   22.1270 C   0  0  0  0  0  1  0  0  0  0  0  0
  -29.5430  -24.2490   20.7320 C   0  0  0  0  0  3  0  0  0  0  0  0
  -28.3000  -25.0550   20.2070 C   0  0  0  0  0  2  0  0  0  0  0  0
  -28.4420  -26.5000   20.2260 O   0  0  0  0  0  0  0  0  0  0  0  0
  -24.5780  -31.7490   23.1600 C   0  0  0  0  0  0  0  0  0  0  0  0
  -27.2750  -27.2550   20.1620 C   0  0  0  0  0  0  0  0  0  0  0  0
  -23.4060  -30.3370   21.5090 C   0  0  0  0  0  3  0  0  0  0  0  0
  -24.8830  -28.7930   20.1150 C   0  0  0  0  0  0  0  0  0  0  0  0
  -25.9420  -30.6860   21.3570 C   0  0  0  0  0  2  0  0  0  0  0  0
  -26.0350  -29.3130   20.7150 C   0  0  0  0  0  0  0  0  0  0  0  0
  -27.2360  -28.5580   20.7210 C   0  0  0  0  0  3  0  0  0  0  0  0
  -26.0960  -26.7580   19.5560 C   0  0  0  0  0  3  0  0  0  0  0  0
  -24.9090  -27.5170   19.5300 C   0  0  0  0  0  3  0  0  0  0  0  0
  -23.6370  -29.6540   20.1360 C   0  0  0  0  0  2  0  0  0  0  0  0
  -24.6600  -30.9390   22.0660 N   0  0  0  0  0  0  0  0  0  0  0  0
  -23.4870  -32.0260   23.6780 O   0  0  0  0  0  0  0  0  0  0  0  0
  -22.7370  -29.3190   22.4620 C   0  0  0  0  0  0  0  0  0  0  0  0
  -21.4150  -29.1420   22.3140 N   0  0  0  0  0  0  0  0  0  0  0  0
  -23.4050  -28.6960   23.2920 O   0  0  0  0  0  0  0  0  0  0  0  0
  -20.9370  -29.6920   21.6130 H   0  0  0  0  0  0  0  0  0  0  0  0
  -18.0270  -27.9600   22.7780 C   0  0  0  0  0  0  0  0  0  0  0  0
  -20.5830  -28.2120   23.0790 C   0  0  0  0  0  3  0  0  0  0  0  0
  -20.6860  -26.7770   22.5100 C   0  0  0  0  0  2  0  0  0  0  0  0
  -19.5930  -26.4550   21.4840 C   0  0  0  0  0  2  0  0  0  0  0  0
  -18.2040  -26.6080   22.1100 C   0  0  0  0  0  2  0  0  0  0  0  0
  -19.1440  -28.7200   23.2200 C   0  0  0  0  0  0  0  0  0  0  0  0
  -18.9240  -29.9850   23.8040 C   0  0  0  0  0  3  0  0  0  0  0  0
  -17.6190  -30.4940   23.9500 C   0  0  0  0  0  3  0  0  0  0  0  0
  -16.5170  -29.7330   23.5230 C   0  0  0  0  0  3  0  0  0  0  0  0
  -16.7220  -28.4660   22.9470 C   0  0  0  0  0  3  0  0  0  0  0  0
  -25.8520  -32.3850   23.8000 C   0  0  0  0  0  3  0  0  0  0  0  0
  -25.5300  -33.7790   24.1390 N   0  0  0  0  0  0  0  0  0  0  0  0
  -25.8760  -34.8380   23.3940 C   0  0  0  0  0  0  0  0  0  0  0  0
  -26.5700  -34.7450   22.3780 O   0  0  0  0  0  0  0  0  0  0  0  0
  -24.9110  -33.9240   24.9230 H   0  0  0  0  0  0  0  0  0  0  0  0
  -24.1500  -36.6240   23.0060 C   0  0  0  0  0  1  0  0  0  0  0  0
  -25.3690  -36.2190   23.8500 C   0  0  0  0  0  3  0  0  0  0  0  0
  -27.4710  -37.0990   24.7620 C   0  0  0  0  0  1  0  0  0  0  0  0
  -26.4020  -37.2750   23.7800 N   0  0  0  0  0  0  0  0  0  0  0  0
  -25.9880  -38.1930   23.9240 H   0  0  0  0  0  0  0  0  0  0  0  0
  -26.3650  -31.6060   25.0740 C   0  0  1  0  0  0  0  0  0  0  0  0
  -25.2630  -31.3440   26.1280 C   0  0  0  0  0  1  0  0  0  0  0  0
  -26.9700  -30.2390   24.6770 C   0  0  0  0  0  1  0  0  0  0  0  0
  -27.5030  -32.4070   25.7520 C   0  0  0  0  0  1  0  0  0  0  0  0
  -30.7760  -17.8930   21.4360 C   0  0  0  0  0  3  0  0  0  0  0  0
  -29.8450  -17.6770   22.5550 N   0  0  0  0  0  4  0  0  0  0  0  0
  -28.9050  -17.9110   22.2990 H   0  0  0  0  0  0  0  0  0  0  0  0
  -30.1220  -18.2400   23.3390 H   0  0  0  0  0  0  0  0  0  0  0  0
  -29.8750  -16.7140   22.8350 H   0  0  0  0  0  0  0  0  0  0  0  0
  -30.4360  -16.9990   20.2000 C   0  0  0  0  0  2  0  0  0  0  0  0
  -30.7810  -14.4800   20.0830 C   0  0  0  0  0  0  0  0  0  0  0  0
  -30.3840  -12.3350   18.9190 C   0  0  0  0  0  2  0  0  0  0  0  0
  -29.3870  -12.5820   17.7700 C   0  0  0  0  0  2  0  0  0  0  0  0
  -27.9360  -12.4480   18.2760 C   0  0  0  0  0  2  0  0  0  0  0  0
  -27.6710  -13.2540   19.5770 C   0  0  0  0  0  3  0  0  0  0  0  0
  -28.7880  -13.0100   20.6210 C   0  0  0  0  0  2  0  0  0  0  0  0
  -30.0800  -13.3130   19.9820 N   0  0  0  0  0  0  0  0  0  0  0  0
  -31.9170  -14.6060   19.6230 O   0  0  0  0  0  0  0  0  0  0  0  0
  -30.0900  -15.5720   20.4940 N   0  0  0  0  0  0  0  0  0  0  0  0
  -29.1450  -15.3900   20.7980 H   0  0  0  0  0  0  0  0  0  0  0  0
  -25.3050  -13.8530   20.3970 C   0  0  0  0  0  0  0  0  0  0  0  0
  -24.2560  -13.0770   20.8170 C   0  0  0  0  0  0  0  0  0  0  0  0
  -24.7200  -11.7270   20.7640 C   0  0  0  0  0  0  0  0  0  0  0  0
  -26.3420  -12.9720   20.1200 N   0  0  0  0  0  0  0  0  0  0  0  0
  -25.9950  -11.6890   20.3990 N   0  0  0  0  0  0  0  0  0  0  0  0
  -24.0010  -10.4620   20.9830 C   0  0  0  0  0  0  0  0  0  0  0  0
  -24.4510   -9.5110   21.9270 C   0  0  0  0  0  3  0  0  0  0  0  0
  -23.7320   -8.3150   22.1350 C   0  0  0  0  0  3  0  0  0  0  0  0
  -22.5500   -8.0610   21.3990 C   0  0  0  0  0  0  0  0  0  0  0  0
  -22.1210   -8.9990   20.4440 C   0  0  0  0  0  3  0  0  0  0  0  0
  -22.8410  -10.1860   20.2340 C   0  0  0  0  0  3  0  0  0  0  0  0
  -21.8030   -6.9130   21.5160 O   0  0  0  0  0  0  0  0  0  0  0  0
  -21.7450   -6.2060   22.6910 C   0  0  0  0  0  0  0  0  0  0  0  0
  -21.2790   -6.7890   23.8910 C   0  0  0  0  0  3  0  0  0  0  0  0
  -21.1740   -6.0080   25.0590 C   0  0  0  0  0  3  0  0  0  0  0  0
  -21.5250   -4.6450   25.0290 C   0  0  0  0  0  0  0  0  0  0  0  0
  -21.9830   -4.0610   23.8350 C   0  0  0  0  0  3  0  0  0  0  0  0
  -22.0910   -4.8400   22.6690 C   0  0  0  0  0  0  0  0  0  0  0  0
  -22.5130   -4.2680   21.5160 F   0  0  0  0  0  0  0  0  0  0  0  0
  -21.4160   -3.8910   26.1490 F   0  0  0  0  0  0  0  0  0  0  0  0
  -22.8700  -13.5520   21.1470 C   0  0  0  0  0  0  0  0  0  0  0  0
  -22.1800  -12.8490   22.0420 N   0  0  0  0  0  0  0  0  0  0  0  0
  -22.4070  -14.5760   20.6470 O   0  0  0  0  0  0  0  0  0  0  0  0
  -22.5670  -12.0180   22.4670 H   0  0  0  0  0  0  0  0  0  0  0  0
  -21.2500  -13.1400   22.3040 H   0  0  0  0  0  0  0  0  0  0  0  0
  -25.4570  -15.2210   20.2080 N   0  0  0  0  0  0  0  0  0  0  0  0
  -24.6950  -15.8730   20.3680 H   0  0  0  0  0  0  0  0  0  0  0  0
  -26.2620  -15.6570   19.7740 H   0  0  0  0  0  0  0  0  0  0  0  0
  2  4  1  0
  3  5  2  0
  4  7  1  0
  4  1  2  0
  5  1  1  0
  5 54  1  0
  6  2  2  0
  6  3  1  0
  8  6  1  0
  9  8  1  0
 11  8  1  0
 11 10  1  0
 12 13  1  0
 12 11  1  0
 14 25  2  0
 15 13  1  0
 15 20  1  0
 16 24  1  0
 16 26  1  0
 17 23  1  0
 17 19  1  0
 18 24  1  0
 19 20  2  0
 19 18  1  0
 21 15  2  0
 22 21  1  0
 22 17  2  0
 23 16  1  0
 24 14  1  0
 26 28  2  0
 27 26  1  0
 29 27  1  0
 30 39  2  0
 30 35  1  0
 31 27  1  0
 31 35  1  0
 32 31  1  0
 33 34  1  0
 33 32  1  0
 34 30  1  0
 35 36  2  0
 36 37  1  0
 38 37  2  0
 39 38  1  0
 40 14  1  0
 40 41  1  0
 40 50  1  0
 41 44  1  0
 42 46  1  0
 42 41  1  0
 43 42  2  0
 46 45  1  0
 48 46  1  0
 48 49  1  0
 48 47  1  0
 50 53  1  1
 50 51  1  0
 52 50  1  0
 54 59  1  0
 54 55  1  0
 55 58  1  0
 55 57  1  0
 56 55  1  0
 59 68  1  0
 60 68  1  0
 61 66  1  0
 62 63  1  0
 62 61  1  0
 64 63  1  0
 64 73  1  0
 64 65  1  0
 66 60  1  0
 66 65  1  0
 67 60  2  0
 68 69  1  0
 70 71  2  0
 71 90  1  0
 72 71  1  0
 72 75  1  0
 73 70  1  0
 73 74  1  0
 74 72  2  0
 75 76  1  0
 76 77  2  0
 78 81  1  0
 78 77  1  0
 79 78  2  0
 80 79  1  0
 80 75  2  0
 81 82  1  0
 82 83  1  0
 83 84  2  0
 85 84  1  0
 85 89  1  0
 86 85  2  0
 87 82  2  0
 87 86  1  0
 88 87  1  0
 90 91  1  0
 91 94  1  0
 91 93  1  0
 92 90  2  0
 95 96  1  0
 95 70  1  0
 97 95  1  0
M  ISO  4  12 101  13 101  60 100  68 100
M  END
>  <TORSDO>  (76) 
F 22

>  <SCORE>  (76) 
-12.875

>  <name>  (76) 
75

>  <ligand_id>  (76) 
75

>  <original_smiles>  (76) 
[H]c1c([H])c([H])c2c(c1[H])C([H])([H])C([H])([H])C([H])([H])C2([H])N([H])C(=O)C1([H])N(C(=O)C([H])(N([H])C(=O)C([H])(N([H])C([H])([H])[H])C([H])([H])[H])C(C([H])([H])[H])(C([H])([H])[H])C([H])([H])[H])C([H])([H])c2c([H])c(OC([H])([H])C([H])(N([H])c3c([H])c(C([H])([H])[H])c([H])c(C([H])(C([H])([H])N([H])C(=O)N4C([H])([H])C([H])([H])C([H])([H])C([H])(n5nc(-c6c([H])c([H])c(Oc7c([H])c([H])c(F)c([H])c7F)c([H])c6[H])c(C(=O)N([H])[H])c5N([H])[H])C4([H])[H])[N+]([H])([H])[H])c3[H])C([H])([H])[H])c([H])c([H])c2C1([H])[H]

>  <smiles>  (76) 
[H]c1c([H])c([H])c2c(c1[H])C([H])([H])C([H])([H])C([H])([H])C2([H])N([H])C(=O)C1([H])N(C(=O)C([H])(N([H])C(=O)C([H])(N([H])C([H])([H])[H])C([H])([H])[H])C(C([H])([H])[H])(C([H])([H])[H])C([H])([H])[H])C([H])([H])c2c([H])c(OC([H])([H])C([H])(N([H])c3c([H])c(C([H])([H])[H])c([H])c(C([H])(C([H])([H])N([H])C(=O)N4C([H])([H])C([H])([H])C([H])([H])C([H])(n5nc(-c6c([H])c([H])c(Oc7c([H])c([H])c(F)c([H])c7F)c([H])c6[H])c(C(=O)N([H])[H])c5N([H])[H])C4([H])[H])[N+]([H])([H])[H])c3[H])C([H])([H])[H])c([H])c([H])c2C1([H])[H]

$$$$
76:0:0
     RDKit          3D

 99101  0  0  1  0  0  0  0  0999 V2000
  -26.9400  -19.8020   19.1350 C   0  0  0  0  0  3  0  0  0  0  0  0
  -27.5090  -22.6650   19.4820 C   0  0  0  0  0  0  0  0  0  0  0  0
  -27.4150  -21.2330   19.8670 N   0  0  0  0  0  0  0  0  0  0  0  0
  -27.4270  -22.8870   18.2740 O   0  0  0  0  0  0  0  0  0  0  0  0
  -27.5740  -21.1140   20.8600 H   0  0  0  0  0  0  0  0  0  0  0  0
  -27.6350  -24.1090   20.4610 C   0  0  0  0  0  2  0  0  0  0  0  0
  -28.0670  -25.6610   20.1040 O   0  0  0  0  0  0  0  0  0  0  0  0
  -24.6320  -31.7250   23.0880 C   0  0  0  0  0  0  0  0  0  0  0  0
  -27.1680  -26.8230   20.1250 C   0  0  0  0  0  0  0  0  0  0  0  0
  -23.4830  -30.3000   21.4550 C   0  0  0  0  0  3  0  0  0  0  0  0
  -24.9450  -28.7210   20.0530 C   0  0  0  0  0  0  0  0  0  0  0  0
  -26.0540  -30.5280   21.3470 C   0  0  0  0  0  2  0  0  0  0  0  0
  -26.1290  -29.1180   20.6900 C   0  0  0  0  0  0  0  0  0  0  0  0
  -27.2590  -28.1830   20.7010 C   0  0  0  0  0  3  0  0  0  0  0  0
  -25.9730  -26.5850   19.4420 C   0  0  0  0  0  3  0  0  0  0  0  0
  -24.8930  -27.4800   19.4100 C   0  0  0  0  0  3  0  0  0  0  0  0
  -23.7330  -29.6390   20.0770 C   0  0  0  0  0  2  0  0  0  0  0  0
  -24.7450  -30.8810   22.0130 N   0  0  0  0  0  0  0  0  0  0  0  0
  -23.5290  -32.0020   23.5870 O   0  0  0  0  0  0  0  0  0  0  0  0
  -22.8010  -29.2860   22.4090 C   0  0  0  0  0  0  0  0  0  0  0  0
  -21.4760  -29.0930   22.2650 N   0  0  0  0  0  0  0  0  0  0  0  0
  -23.4670  -28.6760   23.2480 O   0  0  0  0  0  0  0  0  0  0  0  0
  -20.9920  -29.6370   21.5650 H   0  0  0  0  0  0  0  0  0  0  0  0
  -18.1060  -27.8400   22.7370 C   0  0  0  0  0  0  0  0  0  0  0  0
  -20.6580  -28.1490   23.0330 C   0  0  0  0  0  3  0  0  0  0  0  0
  -20.7900  -26.7130   22.4730 C   0  0  0  0  0  2  0  0  0  0  0  0
  -19.7080  -26.3620   21.4480 C   0  0  0  0  0  2  0  0  0  0  0  0
  -18.3150  -26.4890   22.0720 C   0  0  0  0  0  2  0  0  0  0  0  0
  -19.2060  -28.6250   23.1730 C   0  0  0  0  0  0  0  0  0  0  0  0
  -18.9550  -29.8860   23.7570 C   0  0  0  0  0  3  0  0  0  0  0  0
  -17.6400  -30.3630   23.9070 C   0  0  0  0  0  3  0  0  0  0  0  0
  -16.5540  -29.5750   23.4860 C   0  0  0  0  0  3  0  0  0  0  0  0
  -16.7890  -28.3150   22.9070 C   0  0  0  0  0  3  0  0  0  0  0  0
  -25.8810  -32.3970   23.7330 C   0  0  0  0  0  3  0  0  0  0  0  0
  -25.5220  -33.7860   24.0650 N   0  0  0  0  0  0  0  0  0  0  0  0
  -25.8210  -34.8580   23.3190 C   0  0  0  0  0  0  0  0  0  0  0  0
  -26.4940  -34.7830   22.2880 O   0  0  0  0  0  0  0  0  0  0  0  0
  -24.9220  -33.9160   24.8670 H   0  0  0  0  0  0  0  0  0  0  0  0
  -24.0360  -36.6050   22.9850 C   0  0  0  0  0  1  0  0  0  0  0  0
  -25.2920  -36.2300   23.7880 C   0  0  0  0  0  3  0  0  0  0  0  0
  -27.3990  -37.1790   24.6210 C   0  0  0  0  0  1  0  0  0  0  0  0
  -26.2910  -37.3160   23.6800 N   0  0  0  0  0  0  0  0  0  0  0  0
  -25.8570  -38.2220   23.8310 H   0  0  0  0  0  0  0  0  0  0  0  0
  -26.3880  -31.6470   25.0270 C   0  0  1  0  0  0  0  0  0  0  0  0
  -25.2800  -31.3900   26.0760 C   0  0  0  0  0  1  0  0  0  0  0  0
  -27.0160  -30.2820   24.6660 C   0  0  0  0  0  1  0  0  0  0  0  0
  -27.5030  -32.4750   25.7090 C   0  0  0  0  0  1  0  0  0  0  0  0
  -28.2170  -17.2100   18.9690 C   0  0  0  0  0  2  0  0  0  0  0  0
  -26.9010  -16.4780   18.7680 C   0  0  0  0  0  3  0  0  0  0  0  0
  -27.1060  -18.0720   19.5540 C   0  0  0  0  0  3  0  0  0  0  0  0
  -23.5100  -12.3820   19.8790 C   0  0  0  0  0 15  0  0  0  0  0  0
  -24.4390  -11.9020   22.0660 C   0  0  0  0  0 15  0  0  0  0  0  0
  -24.7740  -13.7280   18.6940 C   0  0  0  0  0 15  0  0  0  0  0  0
  -26.4050  -12.8460   22.4100 C   0  0  0  0  0 15  0  0  0  0  0  0
  -26.6230  -14.7920   19.2080 C   0  0  0  0  0  1  0  0  0  0  0  0
  -27.5570  -14.2490   21.1350 C   0  0  0  0  0  1  0  0  0  0  0  0
  -30.2900  -14.1250   20.5970 C   0  0  0  0  0  0  0  0  0  0  0  0
  -30.8760  -12.1080   19.1650 C   0  0  0  0  0  2  0  0  0  0  0  0
  -29.8730  -11.9740   17.9600 C   0  0  0  0  0  2  0  0  0  0  0  0
  -28.3840  -11.6100   18.3320 C   0  0  0  0  0  2  0  0  0  0  0  0
  -27.9990  -12.3760   19.5810 C   0  0  0  0  0  3  0  0  0  0  0  0
  -29.0970  -12.0550   20.6900 C   0  0  0  0  0  2  0  0  0  0  0  0
  -30.2340  -12.8140   20.2910 N   0  0  0  0  0  0  0  0  0  0  0  0
  -31.3460  -14.7190   20.2410 O   0  0  0  0  0  0  0  0  0  0  0  0
  -29.0760  -14.6410   21.2190 N   0  0  0  0  0  0  0  0  0  0  0  0
  -29.2190  -15.5730   21.5800 H   0  0  0  0  0  0  0  0  0  0  0  0
  -25.3870  -14.2070   20.9370 C   0  0  0  0  0  3  0  0  0  0  0  0
  -24.7310  -13.7640   21.0520 C   0  0  0  0  0  3  0  0  0  0  0  0
  -25.6230  -11.8550   20.3750 C   0  0  0  0  0  3  0  0  0  0  0  0
  -26.4520  -12.5540   20.1700 N   0  0  0  0  0  0  0  0  0  0  0  0
  -26.6440  -11.3580   20.5070 N   0  0  0  0  0  2  0  0  0  0  0  0
  -24.8210  -10.2250   20.4770 C   0  0  0  0  0  0  0  0  0  0  0  0
  -24.9310   -9.3330   21.6340 C   0  0  0  0  0  3  0  0  0  0  0  0
  -24.0190   -8.2740   22.0060 C   0  0  0  0  0  3  0  0  0  0  0  0
  -22.8360   -8.0100   21.2710 C   0  0  0  0  0  0  0  0  0  0  0  0
  -22.6430   -8.8340   20.1600 C   0  0  0  0  0  3  0  0  0  0  0  0
  -23.6320   -9.7710   19.7470 C   0  0  0  0  0  3  0  0  0  0  0  0
  -21.9240   -6.9710   21.4470 O   0  0  0  0  0  0  0  0  0  0  0  0
  -21.7970   -6.2200   22.6000 C   0  0  0  0  0  0  0  0  0  0  0  0
  -21.3140   -6.8060   23.7880 C   0  0  0  0  0  3  0  0  0  0  0  0
  -21.1040   -6.0200   24.9400 C   0  0  0  0  0  3  0  0  0  0  0  0
  -21.3660   -4.6380   24.9110 C   0  0  0  0  0  0  0  0  0  0  0  0
  -21.8240   -4.0390   23.7230 C   0  0  0  0  0  3  0  0  0  0  0  0
  -22.0270   -4.8220   22.5690 C   0  0  0  0  0  0  0  0  0  0  0  0
  -22.4310   -4.2150   21.4270 F   0  0  0  0  0  0  0  0  0  0  0  0
  -21.1770   -3.8850   26.0220 F   0  0  0  0  0  0  0  0  0  0  0  0
  -23.2210  -14.3270   21.4320 C   0  0  0  0  0  0  0  0  0  0  0  0
  -22.3550  -13.5970   22.1670 N   0  0  0  0  0  0  0  0  0  0  0  0
  -22.7130  -15.1700   20.7120 O   0  0  0  0  0  0  0  0  0  0  0  0
  -22.6850  -12.7870   22.6650 H   0  0  0  0  0  0  0  0  0  0  0  0
  -21.3920  -13.8870   22.2510 H   0  0  0  0  0  0  0  0  0  0  0  0
  -25.4960  -15.6480   21.1410 N   0  0  0  0  0  0  0  0  0  0  0  0
  -24.7400  -16.2380   21.4540 H   0  0  0  0  0  0  0  0  0  0  0  0
  -26.3370  -16.1470   20.8860 H   0  0  0  0  0  0  0  0  0  0  0  0
  -25.4160  -20.0240   18.9750 C   0  0  0  0  0  2  0  0  0  0  0  0
  -24.7570  -19.0410   18.1000 N   0  0  0  0  0  4  0  0  0  0  0  0
  -23.7650  -19.2050   18.1020 H   0  0  0  0  0  0  0  0  0  0  0  0
  -24.9200  -18.1060   18.4270 H   0  0  0  0  0  0  0  0  0  0  0  0
  -25.0900  -19.1280   17.1580 H   0  0  0  0  0  0  0  0  0  0  0  0
  1 95  1  0
  1  3  1  0
  2  3  1  0
  2  6  1  0
  3  5  1  0
  4  2  2  0
  7  9  1  0
  7  6  1  0
  8 19  2  0
  9 14  1  0
 10 18  1  0
 10 20  1  0
 11 17  1  0
 11 13  1  0
 12 18  1  0
 13 14  2  0
 13 12  1  0
 15  9  2  0
 16 15  1  0
 16 11  2  0
 17 10  1  0
 18  8  1  0
 20 22  2  0
 21 20  1  0
 23 21  1  0
 24 33  2  0
 24 29  1  0
 25 21  1  0
 25 29  1  0
 26 25  1  0
 27 28  1  0
 27 26  1  0
 28 24  1  0
 29 30  2  0
 30 31  1  0
 32 31  2  0
 33 32  1  0
 34  8  1  0
 34 35  1  0
 34 44  1  0
 35 38  1  0
 36 40  1  0
 36 35  1  0
 37 36  2  0
 40 39  1  0
 42 40  1  0
 42 43  1  0
 42 41  1  0
 44 47  1  1
 44 45  1  0
 46 44  1  0
 48 50  1  0
 49 48  1  0
 49 55  1  0
 49 50  1  0
 50  1  1  0
 56 65  1  0
 57 65  1  0
 58 63  1  0
 59 60  1  0
 59 58  1  0
 61 60  1  0
 61 70  1  0
 61 62  1  0
 63 57  1  0
 63 62  1  0
 64 57  2  0
 65 66  1  0
 67 68  2  0
 67 92  1  0
 68 87  1  0
 69 72  1  0
 69 71  1  0
 70 69  1  0
 70 71  1  0
 72 73  1  0
 73 74  2  0
 75 78  1  0
 75 74  1  0
 76 75  2  0
 77 76  1  0
 77 72  2  0
 78 79  1  0
 79 80  1  0
 80 81  2  0
 82 81  1  0
 82 86  1  0
 83 82  2  0
 84 79  2  0
 84 83  1  0
 85 84  1  0
 87 88  1  0
 88 91  1  0
 88 90  1  0
 89 87  2  0
 92 93  1  0
 94 92  1  0
 96 97  1  0
 96 98  1  0
 96 95  1  0
 99 96  1  0
M  ISO  4   6 101   7 101  57 100  65 100
M  END
>  <TORSDO>  (77) 
F 22

>  <SCORE>  (77) 
-8.079

>  <name>  (77) 
76

>  <ligand_id>  (77) 
76

>  <original_smiles>  (77) 
[H]c1c([H])c([H])c(C2([H])C([H])([H])C2([H])C([H])(N([H])C(=O)C([H])([H])Oc2c([H])c([H])c3c(c2[H])C([H])([H])N(C(=O)C([H])(N([H])C(=O)C([H])(N([H])C([H])([H])[H])C([H])([H])[H])C(C([H])([H])[H])(C([H])([H])[H])C([H])([H])[H])C([H])(C(=O)N([H])C2([H])c4c([H])c([H])c([H])c([H])c4C([H])([H])C([H])([H])C2([H])[H])C3([H])[H])C([H])([H])[N+]([H])([H])[H])c(N([H])C(=O)N2C([H])([H])C([H])([H])C([H])([H])C([H])(n3nc(-c4c([H])c([H])c(Oc5c([H])c([H])c(F)c([H])c5F)c([H])c4[H])c(C(=O)N([H])[H])c3N([H])[H])C2([H])[H])c1[H]

>  <smiles>  (77) 
[H]c1c([H])c([H])c(C2([H])C([H])([H])C2([H])C([H])(N([H])C(=O)C([H])([H])Oc2c([H])c([H])c3c(c2[H])C([H])([H])N(C(=O)C([H])(N([H])C(=O)C([H])(N([H])C([H])([H])[H])C([H])([H])[H])C(C([H])([H])[H])(C([H])([H])[H])C([H])([H])[H])C([H])(C(=O)N([H])C2([H])c4c([H])c([H])c([H])c([H])c4C([H])([H])C([H])([H])C2([H])[H])C3([H])[H])C([H])([H])[N+]([H])([H])[H])c(N([H])C(=O)N2C([H])([H])C([H])([H])C([H])([H])C([H])(n3nc(-c4c([H])c([H])c(Oc5c([H])c([H])c(F)c([H])c5F)c([H])c4[H])c(C(=O)N([H])[H])c3N([H])[H])C2([H])[H])c1[H]

$$$$
77:0:0
     RDKit          3D

101110  0  0  1  0  0  0  0  0999 V2000
  -28.5260  -22.1260   20.2440 C   0  0  0  0  0  0  0  0  0  0  0  0
  -30.0480  -23.4580   18.1060 C   0  0  0  0  0  0  0  0  0  0  0  0
  -29.9150  -21.5770   19.7820 C   0  0  0  0  0  3  0  0  0  0  0  0
  -28.6480  -23.9570   18.5500 C   0  0  0  0  0  3  0  0  0  0  0  0
  -31.8750  -21.8380   18.2240 C   0  0  0  0  0  1  0  0  0  0  0  0
  -28.0740  -23.2840   19.7210 N   0  0  0  0  0  0  0  0  0  0  0  0
  -30.5470  -22.3060   18.6480 N   0  0  0  0  0  0  0  0  0  0  0  0
  -27.8730  -21.5490   21.1150 O   0  0  0  0  0  0  0  0  0  0  0  0
  -30.6660  -24.0990   17.2490 O   0  0  0  0  0  0  0  0  0  0  0  0
  -27.2090  -23.6550   20.0830 H   0  0  0  0  0  0  0  0  0  0  0  0
  -29.7330  -19.1860   18.6010 C   0  0  0  0  0  3  0  0  0  0  0  0
  -29.8610  -17.7620   18.6500 C   0  0  0  0  0  3  0  0  0  0  0  0
  -30.2720  -19.3080   20.9180 C   0  0  0  0  0  3  0  0  0  0  0  0
  -30.3760  -17.8910   21.0110 C   0  0  0  0  0  0  0  0  0  0  0  0
  -29.9390  -20.0200   19.7370 C   0  0  0  0  0  0  0  0  0  0  0  0
  -30.1860  -17.0740   19.8520 C   0  0  0  0  0  0  0  0  0  0  0  0
  -30.9590  -14.6130   19.4450 C   0  0  0  0  0  0  0  0  0  0  0  0
  -30.7010  -12.3040   18.5620 C   0  0  0  0  0  2  0  0  0  0  0  0
  -29.6430  -12.3370   17.4350 C   0  0  0  0  0  2  0  0  0  0  0  0
  -28.2160  -12.2110   18.0050 C   0  0  0  0  0  2  0  0  0  0  0  0
  -27.9640  -13.1650   19.2040 C   0  0  0  0  0  3  0  0  0  0  0  0
  -29.1170  -13.0680   20.2280 C   0  0  0  0  0  2  0  0  0  0  0  0
  -30.3740  -13.3770   19.5190 N   0  0  0  0  0  0  0  0  0  0  0  0
  -32.0320  -14.7980   18.8620 O   0  0  0  0  0  0  0  0  0  0  0  0
  -30.2150  -15.6190   19.9810 N   0  0  0  0  0  0  0  0  0  0  0  0
  -29.4840  -15.2520   20.5720 H   0  0  0  0  0  0  0  0  0  0  0  0
  -25.6920  -13.8400   20.2020 C   0  0  0  0  0  0  0  0  0  0  0  0
  -24.6350  -13.0990   20.6600 C   0  0  0  0  0  0  0  0  0  0  0  0
  -25.0250  -11.7320   20.5240 C   0  0  0  0  0  0  0  0  0  0  0  0
  -26.6620  -12.9260   19.8210 N   0  0  0  0  0  0  0  0  0  0  0  0
  -26.2690  -11.6500   20.0700 N   0  0  0  0  0  0  0  0  0  0  0  0
  -24.2650  -10.4950   20.7450 C   0  0  0  0  0  0  0  0  0  0  0  0
  -24.6770   -9.5360   21.6960 C   0  0  0  0  0  3  0  0  0  0  0  0
  -23.9200   -8.3630   21.9050 C   0  0  0  0  0  3  0  0  0  0  0  0
  -22.7360   -8.1420   21.1610 C   0  0  0  0  0  0  0  0  0  0  0  0
  -22.3420   -9.0890   20.2010 C   0  0  0  0  0  3  0  0  0  0  0  0
  -23.0990  -10.2530   19.9900 C   0  0  0  0  0  3  0  0  0  0  0  0
  -21.9510   -7.0200   21.2780 O   0  0  0  0  0  0  0  0  0  0  0  0
  -21.7730   -6.3870   22.4830 C   0  0  0  0  0  0  0  0  0  0  0  0
  -21.2720   -7.0680   23.6140 C   0  0  0  0  0  3  0  0  0  0  0  0
  -21.0390   -6.3640   24.8120 C   0  0  0  0  0  3  0  0  0  0  0  0
  -21.2970   -4.9820   24.8790 C   0  0  0  0  0  0  0  0  0  0  0  0
  -21.7900   -4.3020   23.7510 C   0  0  0  0  0  3  0  0  0  0  0  0
  -22.0240   -5.0030   22.5560 C   0  0  0  0  0  0  0  0  0  0  0  0
  -22.4800   -4.3390   21.4670 F   0  0  0  0  0  0  0  0  0  0  0  0
  -21.0660   -4.3030   26.0270 F   0  0  0  0  0  0  0  0  0  0  0  0
  -23.3010  -13.6250   21.1070 C   0  0  0  0  0  0  0  0  0  0  0  0
  -22.6480  -12.9290   22.0320 N   0  0  0  0  0  0  0  0  0  0  0  0
  -22.8520  -14.6830   20.6730 O   0  0  0  0  0  0  0  0  0  0  0  0
  -23.0270  -12.0700   22.4040 H   0  0  0  0  0  0  0  0  0  0  0  0
  -21.7570  -13.2600   22.3730 H   0  0  0  0  0  0  0  0  0  0  0  0
  -25.9010  -15.2090   20.0590 N   0  0  0  0  0  0  0  0  0  0  0  0
  -25.1850  -15.8910   20.2860 H   0  0  0  0  0  0  0  0  0  0  0  0
  -26.7250  -15.6240   19.6430 H   0  0  0  0  0  0  0  0  0  0  0  0
  -30.7280  -17.3060   22.3580 C   0  0  0  0  0  0  0  0  0  0  0  0
  -30.1930  -17.9050   23.4140 N   0  0  0  0  0  0  0  0  0  0  0  0
  -31.4370  -16.3060   22.4780 O   0  0  0  0  0  0  0  0  0  0  0  0
  -29.5810  -18.6960   23.2870 H   0  0  0  0  0  0  0  0  0  0  0  0
  -30.3740  -17.5570   24.3440 H   0  0  0  0  0  0  0  0  0  0  0  0
  -28.1670  -25.4510   18.2590 C   0  0  0  0  0  2  0  0  0  0  0  0
  -28.1090  -26.4980   19.2810 O   0  0  0  0  0  0  0  0  0  0  0  0
  -24.8470  -31.6080   23.1410 C   0  0  0  0  0  0  0  0  0  0  0  0
  -26.9880  -27.3270   19.4120 C   0  0  0  0  0  0  0  0  0  0  0  0
  -23.4390  -30.4260   21.4910 C   0  0  0  0  0  3  0  0  0  0  0  0
  -24.6870  -28.9770   19.7960 C   0  0  0  0  0  0  0  0  0  0  0  0
  -25.9600  -30.6800   21.1020 C   0  0  0  0  0  2  0  0  0  0  0  0
  -25.9210  -29.3720   20.3230 C   0  0  0  0  0  0  0  0  0  0  0  0
  -27.0690  -28.5540   20.1320 C   0  0  0  0  0  3  0  0  0  0  0  0
  -25.7200  -26.9580   18.9010 C   0  0  0  0  0  3  0  0  0  0  0  0
  -24.5850  -27.7710   19.0840 C   0  0  0  0  0  3  0  0  0  0  0  0
  -23.4960  -29.8820   20.0390 C   0  0  0  0  0  2  0  0  0  0  0  0
  -24.7730  -30.9140   21.9680 N   0  0  0  0  0  0  0  0  0  0  0  0
  -23.8300  -31.8690   23.7990 O   0  0  0  0  0  0  0  0  0  0  0  0
  -22.8200  -29.3430   22.4060 C   0  0  0  0  0  0  0  0  0  0  0  0
  -21.4970  -29.1400   22.2920 N   0  0  0  0  0  0  0  0  0  0  0  0
  -23.5280  -28.6910   23.1780 O   0  0  0  0  0  0  0  0  0  0  0  0
  -20.9820  -29.7220   21.6460 H   0  0  0  0  0  0  0  0  0  0  0  0
  -18.1720  -27.7830   22.7170 C   0  0  0  0  0  0  0  0  0  0  0  0
  -20.7130  -28.1440   23.0240 C   0  0  0  0  0  3  0  0  0  0  0  0
  -20.8830  -26.7370   22.4070 C   0  0  0  0  0  2  0  0  0  0  0  0
  -19.8070  -26.3980   21.3710 C   0  0  0  0  0  2  0  0  0  0  0  0
  -18.4140  -26.4650   22.0020 C   0  0  0  0  0  2  0  0  0  0  0  0
  -19.2510  -28.5800   23.1830 C   0  0  0  0  0  0  0  0  0  0  0  0
  -18.9730  -29.8130   23.8090 C   0  0  0  0  0  3  0  0  0  0  0  0
  -17.6460  -30.2530   23.9750 C   0  0  0  0  0  3  0  0  0  0  0  0
  -16.5810  -29.4560   23.5250 C   0  0  0  0  0  3  0  0  0  0  0  0
  -16.8440  -28.2220   22.9030 C   0  0  0  0  0  3  0  0  0  0  0  0
  -26.2090  -32.1270   23.6980 C   0  0  0  0  0  3  0  0  0  0  0  0
  -26.8230  -31.1890   24.8090 C   0  0  1  0  0  0  0  0  0  0  0  0
  -25.8330  -30.8320   25.9420 C   0  0  0  0  0  1  0  0  0  0  0  0
  -27.3250  -29.8650   24.1870 C   0  0  0  0  0  1  0  0  0  0  0  0
  -28.0560  -31.8710   25.4490 C   0  0  0  0  0  1  0  0  0  0  0  0
  -25.9860  -33.4780   24.2300 N   0  0  0  0  0  0  0  0  0  0  0  0
  -26.3080  -34.6110   23.5900 C   0  0  0  0  0  0  0  0  0  0  0  0
  -26.8970  -34.6230   22.5060 O   0  0  0  0  0  0  0  0  0  0  0  0
  -25.4600  -33.5460   25.0880 H   0  0  0  0  0  0  0  0  0  0  0  0
  -24.6570  -36.5080   23.5870 C   0  0  0  0  0  1  0  0  0  0  0  0
  -25.9170  -35.9410   24.2620 C   0  0  0  0  0  3  0  0  0  0  0  0
  -28.1310  -36.6110   25.0830 C   0  0  0  0  0  1  0  0  0  0  0  0
  -26.9930  -36.9540   24.2350 N   0  0  0  0  0  0  0  0  0  0  0  0
  -26.6400  -37.8610   24.5290 H   0  0  0  0  0  0  0  0  0  0  0  0
  1  8  2  0
  2  4  1  0
  2  7  1  0
  3 15  1  0
  3  1  1  0
  4 60  1  0
  4  6  1  0
  5  7  1  0
  6 10  1  0
  6  1  1  0
  7  3  1  0
  9  2  2  0
 11 12  2  0
 11 15  1  0
 12 16  1  0
 13 14  1  0
 14 55  1  0
 15 13  2  0
 16 25  1  0
 16 14  2  0
 17 23  1  0
 17 25  1  0
 18 23  1  0
 19 20  1  0
 19 18  1  0
 21 20  1  0
 21 30  1  0
 21 22  1  0
 23 22  1  0
 24 17  2  0
 25 26  1  0
 27 28  2  0
 28 47  1  0
 29 28  1  0
 29 32  1  0
 30 31  1  0
 30 27  1  0
 31 29  2  0
 32 33  1  0
 33 34  2  0
 35 38  1  0
 35 34  1  0
 36 35  2  0
 37 36  1  0
 37 32  2  0
 38 39  1  0
 39 44  2  0
 39 40  1  0
 40 41  2  0
 41 42  1  0
 42 46  1  0
 43 42  2  0
 44 43  1  0
 45 44  1  0
 47 48  1  0
 48 51  1  0
 48 50  1  0
 49 47  2  0
 52 27  1  0
 52 53  1  0
 54 52  1  0
 55 57  2  0
 55 56  1  0
 56 59  1  0
 58 56  1  0
 60 61  1  0
 61 63  1  0
 62 73  2  0
 63 68  1  0
 64 72  1  0
 64 74  1  0
 65 71  1  0
 65 67  1  0
 66 72  1  0
 67 66  1  0
 68 67  2  0
 69 70  1  0
 69 63  2  0
 70 65  2  0
 71 64  1  0
 72 62  1  0
 74 76  2  0
 75 74  1  0
 77 75  1  0
 78 87  2  0
 78 83  1  0
 79 75  1  0
 79 83  1  0
 80 79  1  0
 81 82  1  0
 81 80  1  0
 82 78  1  0
 83 84  2  0
 84 85  1  0
 86 85  2  0
 87 86  1  0
 88 62  1  0
 88 93  1  0
 88 89  1  0
 89 92  1  1
 89 90  1  0
 91 89  1  0
 93 96  1  0
 94 93  1  0
 94 98  1  0
 95 94  2  0
 98 97  1  0
100 98  1  0
100101  1  0
100 99  1  0
M  ISO  4  17 100  25 100  60 101  61 101
M  END
>  <TORSDO>  (78) 
F 19

>  <SCORE>  (78) 
-12.332

>  <name>  (78) 
77

>  <ligand_id>  (78) 
77

>  <original_smiles>  (78) 
[H]c1c([H])c([H])c2c(c1[H])C([H])([H])C([H])([H])C([H])([H])C2([H])N([H])C(=O)C1([H])N(C(=O)C([H])(N([H])C(=O)C([H])(N([H])C([H])([H])[H])C([H])([H])[H])C(C([H])([H])[H])(C([H])([H])[H])C([H])([H])[H])C([H])([H])c2c([H])c(OC([H])([H])C3([H])C(=O)N(C([H])([H])[H])C([H])(c4c([H])c([H])c(N([H])C(=O)N5C([H])([H])C([H])([H])C([H])([H])C([H])(n6nc(-c7c([H])c([H])c(Oc8c([H])c([H])c(F)c([H])c8F)c([H])c7[H])c(C(=O)N([H])[H])c6N([H])[H])C5([H])[H])c(C(=O)N([H])[H])c4[H])C(=O)N3[H])c([H])c([H])c2C1([H])[H]

>  <smiles>  (78) 
[H]c1c([H])c([H])c2c(c1[H])C([H])([H])C([H])([H])C([H])([H])C2([H])N([H])C(=O)C1([H])N(C(=O)C([H])(N([H])C(=O)C([H])(N([H])C([H])([H])[H])C([H])([H])[H])C(C([H])([H])[H])(C([H])([H])[H])C([H])([H])[H])C([H])([H])c2c([H])c(OC([H])([H])C3([H])C(=O)N(C([H])([H])[H])C([H])(c4c([H])c([H])c(N([H])C(=O)N5C([H])([H])C([H])([H])C([H])([H])C([H])(n6nc(-c7c([H])c([H])c(Oc8c([H])c([H])c(F)c([H])c8F)c([H])c7[H])c(C(=O)N([H])[H])c6N([H])[H])C5([H])[H])c(C(=O)N([H])[H])c4[H])C(=O)N3[H])c([H])c([H])c2C1([H])[H]

$$$$
78:0:0
     RDKit          3D

 95104  0  0  1  0  0  0  0  0999 V2000
  -29.2840  -21.5560   19.6810 C   0  0  0  0  0  3  0  0  0  0  0  0
  -32.6940  -19.6260   19.7550 C   0  0  0  0  0  3  0  0  0  0  0  0
  -31.7240  -20.6370   19.6310 C   0  0  0  0  0  3  0  0  0  0  0  0
  -32.3440  -18.2920   20.0410 C   0  0  0  0  0  3  0  0  0  0  0  0
  -30.0200  -18.9640   20.0860 C   0  0  0  0  0  3  0  0  0  0  0  0
  -30.3510  -20.3620   19.8100 C   0  0  0  0  0  0  0  0  0  0  0  0
  -30.9960  -17.8900   20.2080 C   0  0  0  0  0  0  0  0  0  0  0  0
  -31.3910  -15.2920   20.3840 C   0  0  0  0  0  0  0  0  0  0  0  0
  -31.1940  -12.9630   19.5210 C   0  0  0  0  0  2  0  0  0  0  0  0
  -30.3320  -12.9770   18.2400 C   0  0  0  0  0  2  0  0  0  0  0  0
  -28.8380  -12.8510   18.5930 C   0  0  0  0  0  2  0  0  0  0  0  0
  -28.4080  -13.8180   19.7300 C   0  0  0  0  0  3  0  0  0  0  0  0
  -29.4000  -13.7910   20.9140 C   0  0  0  0  0  2  0  0  0  0  0  0
  -30.7330  -14.0830   20.3730 N   0  0  0  0  0  0  0  0  0  0  0  0
  -32.5980  -15.3060   20.1350 O   0  0  0  0  0  0  0  0  0  0  0  0
  -30.6450  -16.4630   20.4780 N   0  0  0  0  0  0  0  0  0  0  0  0
  -29.6730  -16.2990   20.6910 H   0  0  0  0  0  0  0  0  0  0  0  0
  -26.0070  -14.4760   20.3430 C   0  0  0  0  0  0  0  0  0  0  0  0
  -24.9060  -13.7330   20.6730 C   0  0  0  0  0  0  0  0  0  0  0  0
  -25.3350  -12.3710   20.6770 C   0  0  0  0  0  0  0  0  0  0  0  0
  -27.0370  -13.5680   20.1640 N   0  0  0  0  0  0  0  0  0  0  0  0
  -26.6370  -12.2980   20.4300 N   0  0  0  0  0  0  0  0  0  0  0  0
  -24.5680  -11.1290   20.8450 C   0  0  0  0  0  0  0  0  0  0  0  0
  -24.9180  -10.1720   21.8240 C   0  0  0  0  0  3  0  0  0  0  0  0
  -24.1530   -8.9950   21.9790 C   0  0  0  0  0  3  0  0  0  0  0  0
  -23.0260   -8.7680   21.1570 C   0  0  0  0  0  0  0  0  0  0  0  0
  -22.6960   -9.7120   20.1690 C   0  0  0  0  0  3  0  0  0  0  0  0
  -23.4600  -10.8800   20.0110 C   0  0  0  0  0  3  0  0  0  0  0  0
  -22.2390   -7.6430   21.2200 O   0  0  0  0  0  0  0  0  0  0  0  0
  -22.0540   -6.9580   22.3950 C   0  0  0  0  0  0  0  0  0  0  0  0
  -21.4800   -7.5700   23.5320 C   0  0  0  0  0  3  0  0  0  0  0  0
  -21.2450   -6.8110   24.6960 C   0  0  0  0  0  3  0  0  0  0  0  0
  -21.5710   -5.4430   24.7240 C   0  0  0  0  0  0  0  0  0  0  0  0
  -22.1370   -4.8300   23.5900 C   0  0  0  0  0  3  0  0  0  0  0  0
  -22.3740   -5.5860   22.4290 C   0  0  0  0  0  0  0  0  0  0  0  0
  -22.9000   -4.9860   21.3340 F   0  0  0  0  0  0  0  0  0  0  0  0
  -21.3370   -4.7120   25.8380 F   0  0  0  0  0  0  0  0  0  0  0  0
  -23.5100  -14.2480   20.8720 C   0  0  0  0  0  0  0  0  0  0  0  0
  -22.7270  -13.5940   21.7210 N   0  0  0  0  0  0  0  0  0  0  0  0
  -23.1200  -15.2680   20.3050 O   0  0  0  0  0  0  0  0  0  0  0  0
  -23.0510  -12.7690   22.2040 H   0  0  0  0  0  0  0  0  0  0  0  0
  -21.7870  -13.9250   21.8930 H   0  0  0  0  0  0  0  0  0  0  0  0
  -26.2130  -15.8410   20.1550 N   0  0  0  0  0  0  0  0  0  0  0  0
  -25.4550  -16.5110   20.2180 H   0  0  0  0  0  0  0  0  0  0  0  0
  -27.0780  -16.2490   19.8240 H   0  0  0  0  0  0  0  0  0  0  0  0
  -26.8970  -22.1450   20.8020 C   0  0  0  0  0  2  0  0  0  0  0  0
  -26.8550  -20.7240   20.3140 C   0  0  0  0  0  2  0  0  0  0  0  0
  -28.1820  -21.3360   20.7260 C   0  0  0  0  0  3  0  0  0  0  0  0
  -30.4480  -23.3790   20.9690 C   0  0  0  0  0  1  0  0  0  0  0  0
  -29.7720  -23.0400   19.6890 N   0  0  2  0  0  4  0  0  0  0  0  0
  -30.4990  -23.0440   18.9880 H   0  0  0  0  0  0  0  0  0  0  0  0
  -28.1720  -23.8590   17.8930 C   0  0  0  0  0  1  0  0  0  0  0  0
  -28.8050  -24.1910   19.2700 C   0  0  0  0  0  3  0  0  0  0  0  0
  -29.3990  -25.7150   19.1590 C   0  0  0  0  0  2  0  0  0  0  0  0
  -29.0360  -26.9050   19.9970 O   0  0  0  0  0  0  0  0  0  0  0  0
  -24.6320  -31.6350   23.2280 C   0  0  0  0  0  0  0  0  0  0  0  0
  -27.8540  -27.6670   19.8960 C   0  0  0  0  0  0  0  0  0  0  0  0
  -23.6810  -30.3440   21.3510 C   0  0  0  0  0  3  0  0  0  0  0  0
  -25.3620  -29.0940   19.8770 C   0  0  0  0  0  0  0  0  0  0  0  0
  -26.1890  -30.8800   21.4100 C   0  0  0  0  0  2  0  0  0  0  0  0
  -26.4360  -29.5940   20.6220 C   0  0  0  0  0  0  0  0  0  0  0  0
  -27.6790  -28.8890   20.6270 C   0  0  0  0  0  3  0  0  0  0  0  0
  -26.7550  -27.2330   19.1260 C   0  0  0  0  0  3  0  0  0  0  0  0
  -25.5260  -27.9220   19.1220 C   0  0  0  0  0  3  0  0  0  0  0  0
  -24.0500  -29.8540   19.9260 C   0  0  0  0  0  2  0  0  0  0  0  0
  -24.8490  -30.9670   22.0550 N   0  0  0  0  0  0  0  0  0  0  0  0
  -23.4940  -31.7570   23.7010 O   0  0  0  0  0  0  0  0  0  0  0  0
  -23.0470  -29.1720   22.1390 C   0  0  0  0  0  0  0  0  0  0  0  0
  -21.7480  -28.9170   21.9070 N   0  0  0  0  0  0  0  0  0  0  0  0
  -23.7270  -28.4980   22.9180 O   0  0  0  0  0  0  0  0  0  0  0  0
  -21.2570  -29.5190   21.2600 H   0  0  0  0  0  0  0  0  0  0  0  0
  -18.4430  -27.4550   22.0720 C   0  0  0  0  0  0  0  0  0  0  0  0
  -20.9640  -27.8350   22.5050 C   0  0  0  0  0  3  0  0  0  0  0  0
  -21.1880  -26.5030   21.7520 C   0  0  0  0  0  2  0  0  0  0  0  0
  -20.1540  -26.2520   20.6480 C   0  0  0  0  0  2  0  0  0  0  0  0
  -18.7400  -26.2240   21.2330 C   0  0  0  0  0  2  0  0  0  0  0  0
  -19.4870  -28.2200   22.6560 C   0  0  0  0  0  0  0  0  0  0  0  0
  -19.1560  -29.3750   23.3980 C   0  0  0  0  0  3  0  0  0  0  0  0
  -17.8130  -29.7660   23.5620 C   0  0  0  0  0  3  0  0  0  0  0  0
  -16.7840  -28.9960   22.9940 C   0  0  0  0  0  3  0  0  0  0  0  0
  -17.0990  -27.8420   22.2550 C   0  0  0  0  0  3  0  0  0  0  0  0
  -25.8040  -32.2950   24.0180 C   0  0  0  0  0  3  0  0  0  0  0  0
  -25.4300  -33.6910   24.2850 N   0  0  0  0  0  0  0  0  0  0  0  0
  -25.8520  -34.7440   23.5710 C   0  0  0  0  0  0  0  0  0  0  0  0
  -26.6630  -34.6440   22.6460 O   0  0  0  0  0  0  0  0  0  0  0  0
  -24.7230  -33.8410   24.9900 H   0  0  0  0  0  0  0  0  0  0  0  0
  -24.1550  -36.5010   22.9700 C   0  0  0  0  0  1  0  0  0  0  0  0
  -25.2850  -36.1290   23.9420 C   0  0  0  0  0  3  0  0  0  0  0  0
  -27.2680  -37.0700   25.0410 C   0  0  0  0  0  1  0  0  0  0  0  0
  -26.3050  -37.2000   23.9520 N   0  0  0  0  0  0  0  0  0  0  0  0
  -25.8670  -38.1150   24.0230 H   0  0  0  0  0  0  0  0  0  0  0  0
  -26.1440  -31.5470   25.3660 C   0  0  1  0  0  0  0  0  0  0  0  0
  -24.9120  -31.3040   26.2700 C   0  0  0  0  0  1  0  0  0  0  0  0
  -26.7960  -30.1750   25.0800 C   0  0  0  0  0  1  0  0  0  0  0  0
  -27.1760  -32.3670   26.1750 C   0  0  0  0  0  1  0  0  0  0  0  0
  1 50  1  0
  1  6  1  0
  1 48  1  0
  2  4  1  0
  3  2  2  0
  3  6  1  0
  4  7  2  0
  5  7  1  0
  6  5  2  0
  7 16  1  0
  8 16  1  0
  9 14  1  0
 10 11  1  0
 10  9  1  0
 12 11  1  0
 12 21  1  0
 12 13  1  0
 14  8  1  0
 14 13  1  0
 15  8  2  0
 16 17  1  0
 18 19  2  0
 19 20  1  0
 19 38  1  0
 20 23  1  0
 21 18  1  0
 21 22  1  0
 22 20  2  0
 23 24  1  0
 24 25  2  0
 26 29  1  0
 26 25  1  0
 27 26  2  0
 28 27  1  0
 28 23  2  0
 29 30  1  0
 30 35  2  0
 30 31  1  0
 31 32  2  0
 32 33  1  0
 33 37  1  0
 34 33  2  0
 35 34  1  0
 36 35  1  0
 38 39  1  0
 39 42  1  0
 39 41  1  0
 40 38  2  0
 43 44  1  0
 43 18  1  0
 45 43  1  0
 47 48  1  0
 47 46  1  0
 48 46  1  0
 50 49  1  0
 50 51  1  6
 53 52  1  0
 53 50  1  0
 54 53  1  0
 54 55  1  0
 56 67  2  0
 57 55  1  0
 57 62  1  0
 58 66  1  0
 58 68  1  0
 59 65  1  0
 59 61  1  0
 60 66  1  0
 61 62  2  0
 61 60  1  0
 63 57  2  0
 64 63  1  0
 64 59  2  0
 65 58  1  0
 66 56  1  0
 68 70  2  0
 69 68  1  0
 71 69  1  0
 72 81  2  0
 72 77  1  0
 73 69  1  0
 73 77  1  0
 74 73  1  0
 75 76  1  0
 75 74  1  0
 76 72  1  0
 77 78  2  0
 78 79  1  0
 80 79  2  0
 81 80  1  0
 82 56  1  0
 82 83  1  0
 82 92  1  0
 83 86  1  0
 84 88  1  0
 84 83  1  0
 85 84  2  0
 88 87  1  0
 88 90  1  0
 90 91  1  0
 90 89  1  0
 92 95  1  1
 92 93  1  0
 94 92  1  0
M  ISO  4   8 100  16 100  54 101  55 101
M  END
>  <TORSDO>  (79) 
F 21

>  <SCORE>  (79) 
-10.557

>  <name>  (79) 
78

>  <ligand_id>  (79) 
78

>  <original_smiles>  (79) 
[H]c1c([H])c([H])c2c(c1[H])C([H])([H])C([H])([H])C([H])([H])C2([H])N([H])C(=O)C1([H])N(C(=O)C([H])(N([H])C(=O)C([H])(N([H])C([H])([H])[H])C([H])([H])[H])C(C([H])([H])[H])(C([H])([H])[H])C([H])([H])[H])C([H])([H])c2c([H])c(OC([H])([H])C([H])(C([H])([H])[H])[N+]([H])(C([H])([H])[H])C([H])(c3c([H])c([H])c([H])c(N([H])C(=O)N4C([H])([H])C([H])([H])C([H])([H])C([H])(n5nc(-c6c([H])c([H])c(Oc7c([H])c([H])c(F)c([H])c7F)c([H])c6[H])c(C(=O)N([H])[H])c5N([H])[H])C4([H])[H])c3[H])C3([H])C([H])([H])C3([H])[H])c([H])c([H])c2C1([H])[H]

>  <smiles>  (79) 
[H]c1c([H])c([H])c2c(c1[H])C([H])([H])C([H])([H])C([H])([H])C2([H])N([H])C(=O)C1([H])N(C(=O)C([H])(N([H])C(=O)C([H])(N([H])C([H])([H])[H])C([H])([H])[H])C(C([H])([H])[H])(C([H])([H])[H])C([H])([H])[H])C([H])([H])c2c([H])c(OC([H])([H])C([H])(C([H])([H])[H])[N+]([H])(C([H])([H])[H])C([H])(c3c([H])c([H])c([H])c(N([H])C(=O)N4C([H])([H])C([H])([H])C([H])([H])C([H])(n5nc(-c6c([H])c([H])c(Oc7c([H])c([H])c(F)c([H])c7F)c([H])c6[H])c(C(=O)N([H])[H])c5N([H])[H])C4([H])[H])c3[H])C3([H])C([H])([H])C3([H])[H])c([H])c([H])c2C1([H])[H]

$$$$
79:0:0
     RDKit          3D

100109  0  0  1  0  0  0  0  0999 V2000
  -29.1610  -20.8760   20.4860 C   0  0  0  0  0  0  0  0  0  0  0  0
  -30.1530  -19.5210   22.3080 C   0  0  0  0  0  1  0  0  0  0  0  0
  -29.6610  -19.6740   20.9340 N   0  0  0  0  0  0  0  0  0  0  0  0
  -28.8470  -21.0490   19.3000 O   0  0  0  0  0  0  0  0  0  0  0  0
  -30.9300  -16.8460   18.7240 C   0  0  0  0  0  2  0  0  0  0  0  0
  -28.8040  -18.0540   19.0450 C   0  0  0  0  0  2  0  0  0  0  0  0
  -30.7960  -17.2740   20.2160 C   0  0  0  0  0  3  0  0  0  0  0  0
  -29.9190  -18.5530   19.9700 C   0  0  0  0  0  3  0  0  0  0  0  0
  -29.6360  -17.3000   17.9830 C   0  0  0  0  0  3  0  0  0  0  0  0
  -30.9740  -14.9980   21.2450 C   0  0  0  0  0  0  0  0  0  0  0  0
  -30.8620  -12.6830   20.4430 C   0  0  0  0  0  2  0  0  0  0  0  0
  -30.1090  -12.6730   19.0970 C   0  0  0  0  0  2  0  0  0  0  0  0
  -28.5930  -12.5410   19.3250 C   0  0  0  0  0  2  0  0  0  0  0  0
  -28.0510  -13.5310   20.3940 C   0  0  0  0  0  3  0  0  0  0  0  0
  -28.9400  -13.5440   21.6580 C   0  0  0  0  0  2  0  0  0  0  0  0
  -30.3210  -13.8020   21.2300 N   0  0  0  0  0  0  0  0  0  0  0  0
  -32.2020  -15.0710   21.1400 O   0  0  0  0  0  0  0  0  0  0  0  0
  -30.2280  -16.1010   20.9600 N   0  0  0  0  0  0  0  0  0  0  0  0
  -29.2280  -16.0270   21.0450 H   0  0  0  0  0  0  0  0  0  0  0  0
  -25.5940  -14.1550   20.7950 C   0  0  0  0  0  0  0  0  0  0  0  0
  -24.4840  -13.3950   21.0350 C   0  0  0  0  0  0  0  0  0  0  0  0
  -24.9340  -12.0410   21.0760 C   0  0  0  0  0  0  0  0  0  0  0  0
  -26.6540  -13.2650   20.7100 N   0  0  0  0  0  0  0  0  0  0  0  0
  -26.2540  -11.9890   20.9330 N   0  0  0  0  0  0  0  0  0  0  0  0
  -24.1790  -10.7870   21.1850 C   0  0  0  0  0  0  0  0  0  0  0  0
  -24.5000   -9.8180   22.1590 C   0  0  0  0  0  3  0  0  0  0  0  0
  -23.7510   -8.6260   22.2580 C   0  0  0  0  0  3  0  0  0  0  0  0
  -22.6660   -8.3950   21.3810 C   0  0  0  0  0  0  0  0  0  0  0  0
  -22.3620   -9.3540   20.3970 C   0  0  0  0  0  3  0  0  0  0  0  0
  -23.1120  -10.5370   20.2960 C   0  0  0  0  0  3  0  0  0  0  0  0
  -21.8950   -7.2580   21.3890 O   0  0  0  0  0  0  0  0  0  0  0  0
  -21.7300   -6.5070   22.5260 C   0  0  0  0  0  0  0  0  0  0  0  0
  -21.1900   -7.0560   23.7080 C   0  0  0  0  0  3  0  0  0  0  0  0
  -20.9740   -6.2340   24.8320 C   0  0  0  0  0  3  0  0  0  0  0  0
  -21.2880   -4.8630   24.7720 C   0  0  0  0  0  0  0  0  0  0  0  0
  -21.8180   -4.3120   23.5930 C   0  0  0  0  0  3  0  0  0  0  0  0
  -22.0380   -5.1330   22.4710 C   0  0  0  0  0  0  0  0  0  0  0  0
  -22.5310   -4.5940   21.3310 F   0  0  0  0  0  0  0  0  0  0  0  0
  -21.0740   -4.0700   25.8480 F   0  0  0  0  0  0  0  0  0  0  0  0
  -23.0670  -13.8830   21.1270 C   0  0  0  0  0  0  0  0  0  0  0  0
  -22.2320  -13.2000   21.9030 N   0  0  0  0  0  0  0  0  0  0  0  0
  -22.7060  -14.9070   20.5450 O   0  0  0  0  0  0  0  0  0  0  0  0
  -22.5300  -12.3730   22.3960 H   0  0  0  0  0  0  0  0  0  0  0  0
  -21.2730  -13.5060   22.0010 H   0  0  0  0  0  0  0  0  0  0  0  0
  -25.7940  -15.5220   20.6350 N   0  0  0  0  0  0  0  0  0  0  0  0
  -25.0290  -16.1840   20.6900 H   0  0  0  0  0  0  0  0  0  0  0  0
  -26.6970  -15.9730   20.5690 H   0  0  0  0  0  0  0  0  0  0  0  0
  -28.8930  -16.2140   17.3150 N   0  0  0  0  0  4  0  0  0  0  0  0
  -28.6050  -15.5040   17.9620 H   0  0  0  0  0  0  0  0  0  0  0  0
  -29.4590  -15.7890   16.5980 H   0  0  0  0  0  0  0  0  0  0  0  0
  -28.0770  -16.5860   16.8600 H   0  0  0  0  0  0  0  0  0  0  0  0
  -27.6840  -22.0160   22.2610 C   0  0  0  0  0  2  0  0  0  0  0  0
  -27.0520  -23.0170   21.3030 C   0  0  0  0  0  2  0  0  0  0  0  0
  -28.9620  -22.1060   21.4240 C   0  0  0  0  0  3  0  0  0  0  0  0
  -28.3650  -23.2490   20.6760 N   0  0  2  0  0  4  0  0  0  0  0  0
  -28.3810  -22.9350   19.7120 H   0  0  0  0  0  0  0  0  0  0  0  0
  -28.9260  -24.6460   20.8310 C   0  0  0  0  0  2  0  0  0  0  0  0
  -29.9080  -25.3720   18.5950 C   0  0  0  0  0  1  0  0  0  0  0  0
  -28.7330  -25.5560   19.5650 C   0  0  0  0  0  3  0  0  0  0  0  0
  -28.6670  -26.9950   19.8360 O   0  0  0  0  0  0  0  0  0  0  0  0
  -24.6600  -31.8190   23.2660 C   0  0  0  0  0  0  0  0  0  0  0  0
  -27.4640  -27.7030   19.8350 C   0  0  0  0  0  0  0  0  0  0  0  0
  -23.5070  -30.5140   21.5090 C   0  0  0  0  0  3  0  0  0  0  0  0
  -25.0220  -29.1710   19.9600 C   0  0  0  0  0  0  0  0  0  0  0  0
  -26.0240  -30.9760   21.3550 C   0  0  0  0  0  2  0  0  0  0  0  0
  -26.1660  -29.6670   20.5930 C   0  0  0  0  0  0  0  0  0  0  0  0
  -27.3870  -28.9480   20.5240 C   0  0  0  0  0  3  0  0  0  0  0  0
  -26.2910  -27.2450   19.1840 C   0  0  0  0  0  3  0  0  0  0  0  0
  -25.0870  -27.9640   19.2470 C   0  0  0  0  0  3  0  0  0  0  0  0
  -23.7460  -29.9730   20.0760 C   0  0  0  0  0  2  0  0  0  0  0  0
  -24.7470  -31.1150   22.1030 N   0  0  0  0  0  0  0  0  0  0  0  0
  -23.5720  -32.0010   23.8290 O   0  0  0  0  0  0  0  0  0  0  0  0
  -22.9050  -29.3840   22.3800 C   0  0  0  0  0  0  0  0  0  0  0  0
  -21.5900  -29.1460   22.2390 N   0  0  0  0  0  0  0  0  0  0  0  0
  -23.6190  -28.7300   23.1450 O   0  0  0  0  0  0  0  0  0  0  0  0
  -21.0710  -29.7360   21.6050 H   0  0  0  0  0  0  0  0  0  0  0  0
  -18.2870  -27.7400   22.6100 C   0  0  0  0  0  0  0  0  0  0  0  0
  -20.8230  -28.1080   22.9280 C   0  0  0  0  0  3  0  0  0  0  0  0
  -21.0000  -26.7330   22.2500 C   0  0  0  0  0  2  0  0  0  0  0  0
  -19.9290  -26.4440   21.1930 C   0  0  0  0  0  2  0  0  0  0  0  0
  -18.5380  -26.4600   21.8300 C   0  0  0  0  0  2  0  0  0  0  0  0
  -19.3600  -28.5210   23.1130 C   0  0  0  0  0  0  0  0  0  0  0  0
  -19.0730  -29.7220   23.7960 C   0  0  0  0  0  3  0  0  0  0  0  0
  -17.7430  -30.1430   23.9790 C   0  0  0  0  0  3  0  0  0  0  0  0
  -16.6830  -29.3590   23.4950 C   0  0  0  0  0  3  0  0  0  0  0  0
  -16.9560  -28.1580   22.8170 C   0  0  0  0  0  3  0  0  0  0  0  0
  -25.9230  -32.4510   23.9310 C   0  0  0  0  0  3  0  0  0  0  0  0
  -25.5570  -33.8030   24.3790 N   0  0  0  0  0  0  0  0  0  0  0  0
  -25.8590  -34.9310   23.7240 C   0  0  0  0  0  0  0  0  0  0  0  0
  -26.5480  -34.9440   22.6970 O   0  0  0  0  0  0  0  0  0  0  0  0
  -24.9380  -33.8610   25.1770 H   0  0  0  0  0  0  0  0  0  0  0  0
  -24.0770  -36.6910   23.4870 C   0  0  0  0  0  1  0  0  0  0  0  0
  -25.3110  -36.2520   24.2940 C   0  0  0  0  0  3  0  0  0  0  0  0
  -27.3860  -37.1270   25.2680 C   0  0  0  0  0  1  0  0  0  0  0  0
  -26.3050  -37.3450   24.3090 N   0  0  0  0  0  0  0  0  0  0  0  0
  -25.8610  -38.2300   24.5300 H   0  0  0  0  0  0  0  0  0  0  0  0
  -26.4790  -31.6020   25.1390 C   0  0  1  0  0  0  0  0  0  0  0  0
  -25.4030  -31.2350   26.1840 C   0  0  0  0  0  1  0  0  0  0  0  0
  -27.1160  -30.2870   24.6390 C   0  0  0  0  0  1  0  0  0  0  0  0
  -27.6020  -32.3830   25.8630 C   0  0  0  0  0  1  0  0  0  0  0  0
  1  3  1  0
  3  2  1  0
  4  1  2  0
  5  7  1  0
  6  8  1  0
  7 18  1  0
  8  7  1  0
  8  3  1  0
  9 48  1  0
  9  5  1  0
  9  6  1  0
 11 16  1  0
 12 13  1  0
 12 11  1  0
 14 13  1  0
 14 23  1  0
 14 15  1  0
 16 10  1  0
 16 15  1  0
 17 10  2  0
 18 19  1  0
 18 10  1  0
 20 21  2  0
 21 22  1  0
 21 40  1  0
 22 25  1  0
 23 20  1  0
 23 24  1  0
 24 22  2  0
 25 26  1  0
 26 27  2  0
 28 31  1  0
 28 27  1  0
 29 28  2  0
 30 29  1  0
 30 25  2  0
 31 32  1  0
 32 33  1  0
 33 34  2  0
 35 34  1  0
 35 39  1  0
 36 35  2  0
 37 32  2  0
 37 36  1  0
 38 37  1  0
 40 41  1  0
 41 44  1  0
 41 43  1  0
 42 40  2  0
 45 46  1  0
 45 20  1  0
 47 45  1  0
 48 49  1  0
 50 48  1  0
 51 48  1  0
 53 52  1  0
 54  1  1  0
 54 52  1  0
 55 57  1  0
 55 53  1  0
 55 54  1  0
 55 56  1  6
 59 58  1  0
 59 60  1  0
 59 57  1  0
 61 72  2  0
 62 60  1  0
 62 67  1  0
 63 71  1  0
 63 73  1  0
 64 70  1  0
 64 66  1  0
 65 71  1  0
 66 65  1  0
 67 66  2  0
 68 69  1  0
 68 62  2  0
 69 64  2  0
 70 63  1  0
 71 61  1  0
 73 75  2  0
 74 73  1  0
 76 74  1  0
 77 86  2  0
 77 82  1  0
 78 74  1  0
 78 82  1  0
 79 78  1  0
 80 81  1  0
 80 79  1  0
 81 77  1  0
 82 83  2  0
 83 84  1  0
 85 84  2  0
 86 85  1  0
 87 61  1  0
 87 88  1  0
 87 97  1  0
 88 91  1  0
 89 93  1  0
 89 88  1  0
 90 89  2  0
 93 92  1  0
 93 95  1  0
 95 96  1  0
 95 94  1  0
 97100  1  1
 97 98  1  0
 99 97  1  0
M  ISO  4  10 100  18 100  59 101  60 101
M  END
>  <TORSDO>  (80) 
F 21

>  <SCORE>  (80) 
-8.984

>  <name>  (80) 
79

>  <ligand_id>  (80) 
79

>  <original_smiles>  (80) 
[H]c1c([H])c([H])c2c(c1[H])C([H])([H])C([H])([H])C([H])([H])C2([H])N([H])C(=O)C1([H])N(C(=O)C([H])(N([H])C(=O)C([H])(N([H])C([H])([H])[H])C([H])([H])[H])C(C([H])([H])[H])(C([H])([H])[H])C([H])([H])[H])C([H])([H])c2c([H])c(OC([H])(C([H])([H])[H])C([H])([H])[N+]3([H])C([H])([H])C([H])([H])C3([H])C(=O)N(C([H])([H])[H])C3([H])C([H])([H])C([H])([N+]([H])([H])[H])C([H])([H])C3([H])N([H])C(=O)N3C([H])([H])C([H])([H])C([H])([H])C([H])(n4nc(-c5c([H])c([H])c(Oc6c([H])c([H])c(F)c([H])c6F)c([H])c5[H])c(C(=O)N([H])[H])c4N([H])[H])C3([H])[H])c([H])c([H])c2C1([H])[H]

>  <smiles>  (80) 
[H]c1c([H])c([H])c2c(c1[H])C([H])([H])C([H])([H])C([H])([H])C2([H])N([H])C(=O)C1([H])N(C(=O)C([H])(N([H])C(=O)C([H])(N([H])C([H])([H])[H])C([H])([H])[H])C(C([H])([H])[H])(C([H])([H])[H])C([H])([H])[H])C([H])([H])c2c([H])c(OC([H])(C([H])([H])[H])C([H])([H])[N+]3([H])C([H])([H])C([H])([H])C3([H])C(=O)N(C([H])([H])[H])C3([H])C([H])([H])C([H])([N+]([H])([H])[H])C([H])([H])C3([H])N([H])C(=O)N3C([H])([H])C([H])([H])C([H])([H])C([H])(n4nc(-c5c([H])c([H])c(Oc6c([H])c([H])c(F)c([H])c6F)c([H])c5[H])c(C(=O)N([H])[H])c4N([H])[H])C3([H])[H])c([H])c([H])c2C1([H])[H]

$$$$
80:0:0
     RDKit          3D

 98106  0  0  1  0  0  0  0  0999 V2000
  -26.8850  -22.2050   19.8780 C   0  0  0  0  0  1  0  0  0  0  0  0
  -28.3750  -22.6040   19.8900 C   0  0  1  0  0  0  0  0  0  0  0  0
  -31.1760  -20.0830   21.4590 C   0  0  0  0  0  3  0  0  0  0  0  0
  -30.3560  -21.1970   21.1170 C   0  0  0  0  0  3  0  0  0  0  0  0
  -30.9070  -18.7250   21.1230 C   0  0  0  0  0  3  0  0  0  0  0  0
  -28.9120  -19.5740   20.0690 C   0  0  0  0  0  3  0  0  0  0  0  0
  -29.1620  -21.0840   20.3720 C   0  0  0  0  0  0  0  0  0  0  0  0
  -29.7550  -18.3120   20.4180 C   0  0  0  0  0  0  0  0  0  0  0  0
  -30.3730  -15.4300   20.2000 C   0  0  0  0  0  0  0  0  0  0  0  0
  -30.3860  -12.9800   19.2900 C   0  0  0  0  0  2  0  0  0  0  0  0
  -29.4410  -12.7240   18.0880 C   0  0  0  0  0  2  0  0  0  0  0  0
  -28.0070  -12.4270   18.5660 C   0  0  0  0  0  2  0  0  0  0  0  0
  -27.5640  -13.3950   19.6910 C   0  0  0  0  0  3  0  0  0  0  0  0
  -28.6320  -13.5670   20.7880 C   0  0  0  0  0  2  0  0  0  0  0  0
  -29.8270  -14.1130   20.1200 N   0  0  0  0  0  0  0  0  0  0  0  0
  -31.6010  -15.4290   20.0150 O   0  0  0  0  0  0  0  0  0  0  0  0
  -29.5720  -16.6980   20.2210 N   0  0  0  0  0  0  0  0  0  0  0  0
  -28.5980  -16.4550   20.1240 H   0  0  0  0  0  0  0  0  0  0  0  0
  -25.2110  -13.9320   20.5060 C   0  0  0  0  0  0  0  0  0  0  0  0
  -24.1600  -13.1450   20.8860 C   0  0  0  0  0  0  0  0  0  0  0  0
  -24.6330  -11.7980   20.8280 C   0  0  0  0  0  0  0  0  0  0  0  0
  -26.2520  -13.0650   20.2280 N   0  0  0  0  0  0  0  0  0  0  0  0
  -25.9180  -11.7750   20.4900 N   0  0  0  0  0  0  0  0  0  0  0  0
  -23.9150  -10.5300   21.0130 C   0  0  0  0  0  0  0  0  0  0  0  0
  -24.3470   -9.5660   21.9500 C   0  0  0  0  0  3  0  0  0  0  0  0
  -23.6250   -8.3640   22.1250 C   0  0  0  0  0  3  0  0  0  0  0  0
  -22.4590   -8.1190   21.3630 C   0  0  0  0  0  0  0  0  0  0  0  0
  -22.0450   -9.0720   20.4150 C   0  0  0  0  0  3  0  0  0  0  0  0
  -22.7670  -10.2650   20.2380 C   0  0  0  0  0  3  0  0  0  0  0  0
  -21.7090   -6.9710   21.4480 O   0  0  0  0  0  0  0  0  0  0  0  0
  -21.6270   -6.2490   22.6110 C   0  0  0  0  0  0  0  0  0  0  0  0
  -21.1060   -6.8080   23.7990 C   0  0  0  0  0  3  0  0  0  0  0  0
  -20.9760   -6.0110   24.9540 C   0  0  0  0  0  3  0  0  0  0  0  0
  -21.3550   -4.6560   24.9210 C   0  0  0  0  0  0  0  0  0  0  0  0
  -21.8680   -4.0960   23.7380 C   0  0  0  0  0  3  0  0  0  0  0  0
  -22.0000   -4.8900   22.5860 C   0  0  0  0  0  0  0  0  0  0  0  0
  -22.4770   -4.3410   21.4420 F   0  0  0  0  0  0  0  0  0  0  0  0
  -21.2210   -3.8880   26.0270 F   0  0  0  0  0  0  0  0  0  0  0  0
  -22.7670  -13.6140   21.1830 C   0  0  0  0  0  0  0  0  0  0  0  0
  -22.0510  -12.8990   22.0440 N   0  0  0  0  0  0  0  0  0  0  0  0
  -22.3210  -14.6480   20.6860 O   0  0  0  0  0  0  0  0  0  0  0  0
  -22.4250  -12.0620   22.4650 H   0  0  0  0  0  0  0  0  0  0  0  0
  -21.1150  -13.1940   22.2880 H   0  0  0  0  0  0  0  0  0  0  0  0
  -25.3620  -15.3060   20.3410 N   0  0  0  0  0  0  0  0  0  0  0  0
  -24.5880  -15.9480   20.4670 H   0  0  0  0  0  0  0  0  0  0  0  0
  -26.1870  -15.7520   19.9640 H   0  0  0  0  0  0  0  0  0  0  0  0
  -28.7490  -22.8160   18.4640 N   0  0  0  0  0  4  0  0  0  0  0  0
  -28.3500  -22.0430   17.9550 H   0  0  0  0  0  0  0  0  0  0  0  0
  -28.2990  -23.6480   18.1110 H   0  0  0  0  0  0  0  0  0  0  0  0
  -30.1850  -22.8370   18.0870 C   0  0  0  0  0  2  0  0  0  0  0  0
  -30.8900  -24.1880   18.3430 C   0  0  0  0  0  2  0  0  0  0  0  0
  -32.3430  -24.2260   17.8110 C   0  0  0  0  0  2  0  0  0  0  0  0
  -34.6340  -23.4770   18.3280 C   0  0  0  0  0  1  0  0  0  0  0  0
  -33.6220  -25.2820   19.6420 C   0  0  0  0  0  1  0  0  0  0  0  0
  -33.3750  -24.0420   18.8670 N   0  0  1  0  0  4  0  0  0  0  0  0
  -33.0320  -23.3510   19.5190 H   0  0  0  0  0  0  0  0  0  0  0  0
  -28.3020  -24.2830   20.6370 C   0  0  0  0  0  2  0  0  0  0  0  0
  -28.2580  -25.9020   20.1960 O   0  0  0  0  0  0  0  0  0  0  0  0
  -24.6170  -31.9000   23.2000 C   0  0  0  0  0  0  0  0  0  0  0  0
  -27.2060  -26.9720   20.2460 C   0  0  0  0  0  0  0  0  0  0  0  0
  -23.4400  -30.4830   21.5700 C   0  0  0  0  0  3  0  0  0  0  0  0
  -24.9010  -28.8630   20.1730 C   0  0  0  0  0  0  0  0  0  0  0  0
  -26.0070  -30.6980   21.4300 C   0  0  0  0  0  2  0  0  0  0  0  0
  -26.0880  -29.2760   20.7920 C   0  0  0  0  0  0  0  0  0  0  0  0
  -27.2360  -28.3560   20.7930 C   0  0  0  0  0  3  0  0  0  0  0  0
  -25.9840  -26.7150   19.5870 C   0  0  0  0  0  3  0  0  0  0  0  0
  -24.8760  -27.6040   19.5510 C   0  0  0  0  0  3  0  0  0  0  0  0
  -23.6790  -29.7860   20.2020 C   0  0  0  0  0  2  0  0  0  0  0  0
  -24.7110  -31.0570   22.1200 N   0  0  0  0  0  0  0  0  0  0  0  0
  -23.5220  -32.1880   23.7110 O   0  0  0  0  0  0  0  0  0  0  0  0
  -22.7460  -29.4900   22.5410 C   0  0  0  0  0  0  0  0  0  0  0  0
  -21.4170  -29.3200   22.4160 N   0  0  0  0  0  0  0  0  0  0  0  0
  -23.4130  -28.8760   23.3760 O   0  0  0  0  0  0  0  0  0  0  0  0
  -20.9310  -29.8730   21.7240 H   0  0  0  0  0  0  0  0  0  0  0  0
  -18.0360  -28.1090   22.9430 C   0  0  0  0  0  0  0  0  0  0  0  0
  -20.5980  -28.3810   23.1910 C   0  0  0  0  0  3  0  0  0  0  0  0
  -20.6970  -26.9480   22.6170 C   0  0  0  0  0  2  0  0  0  0  0  0
  -19.5900  -26.6230   21.6090 C   0  0  0  0  0  2  0  0  0  0  0  0
  -18.2130  -26.7630   22.2620 C   0  0  0  0  0  2  0  0  0  0  0  0
  -19.1560  -28.8750   23.3640 C   0  0  0  0  0  0  0  0  0  0  0  0
  -18.9360  -30.1330   23.9670 C   0  0  0  0  0  3  0  0  0  0  0  0
  -17.6290  -30.6240   24.1500 C   0  0  0  0  0  3  0  0  0  0  0  0
  -16.5250  -29.8560   23.7420 C   0  0  0  0  0  3  0  0  0  0  0  0
  -16.7300  -28.6000   23.1450 C   0  0  0  0  0  3  0  0  0  0  0  0
  -25.8780  -32.5590   23.8350 C   0  0  0  0  0  3  0  0  0  0  0  0
  -25.5500  -33.9630   24.1480 N   0  0  0  0  0  0  0  0  0  0  0  0
  -25.8940  -35.0180   23.3980 C   0  0  0  0  0  0  0  0  0  0  0  0
  -26.5810  -34.9140   22.3800 O   0  0  0  0  0  0  0  0  0  0  0  0
  -24.9390  -34.1170   24.9360 H   0  0  0  0  0  0  0  0  0  0  0  0
  -24.1850  -36.8270   22.9980 C   0  0  0  0  0  1  0  0  0  0  0  0
  -25.3980  -36.4090   23.8460 C   0  0  0  0  0  3  0  0  0  0  0  0
  -27.5040  -37.2890   24.7550 C   0  0  0  0  0  1  0  0  0  0  0  0
  -26.4370  -37.4600   23.7700 N   0  0  0  0  0  0  0  0  0  0  0  0
  -26.0300  -38.3820   23.9020 H   0  0  0  0  0  0  0  0  0  0  0  0
  -26.3740  -31.8190   25.1390 C   0  0  1  0  0  0  0  0  0  0  0  0
  -25.2620  -31.5980   26.1910 C   0  0  0  0  0  1  0  0  0  0  0  0
  -26.9740  -30.4370   24.7950 C   0  0  0  0  0  1  0  0  0  0  0  0
  -27.5060  -32.6350   25.8050 C   0  0  0  0  0  1  0  0  0  0  0  0
  2  1  1  6
  2  7  1  0
  2 57  1  0
  4  3  2  0
  5  3  1  0
  6  7  2  0
  6  8  1  0
  7  4  1  0
  8  5  2  0
  9 17  1  0
 10 15  1  0
 11 12  1  0
 11 10  1  0
 13 12  1  0
 13 22  1  0
 13 14  1  0
 15  9  1  0
 15 14  1  0
 16  9  2  0
 17  8  1  0
 18 17  1  0
 19 20  2  0
 20 39  1  0
 21 20  1  0
 21 24  1  0
 22 23  1  0
 22 19  1  0
 23 21  2  0
 24 25  1  0
 25 26  2  0
 27 30  1  0
 27 26  1  0
 28 27  2  0
 29 28  1  0
 29 24  2  0
 30 31  1  0
 31 32  1  0
 32 33  2  0
 34 33  1  0
 34 38  1  0
 35 34  2  0
 36 31  2  0
 36 35  1  0
 37 36  1  0
 39 40  1  0
 40 43  1  0
 40 42  1  0
 41 39  2  0
 44 45  1  0
 44 19  1  0
 46 44  1  0
 47  2  1  0
 48 47  1  0
 49 47  1  0
 50 51  1  0
 50 47  1  0
 52 51  1  0
 52 55  1  0
 53 55  1  0
 55 56  1  1
 55 54  1  0
 58 60  1  0
 58 57  1  0
 59 70  2  0
 60 65  1  0
 61 69  1  0
 61 71  1  0
 62 68  1  0
 62 64  1  0
 63 69  1  0
 64 65  2  0
 64 63  1  0
 66 60  2  0
 67 66  1  0
 67 62  2  0
 68 61  1  0
 69 59  1  0
 71 73  2  0
 72 71  1  0
 74 72  1  0
 75 84  2  0
 75 80  1  0
 76 72  1  0
 76 80  1  0
 77 76  1  0
 78 79  1  0
 78 77  1  0
 79 75  1  0
 80 81  2  0
 81 82  1  0
 83 82  2  0
 84 83  1  0
 85 59  1  0
 85 86  1  0
 85 95  1  0
 86 89  1  0
 87 91  1  0
 87 86  1  0
 88 87  2  0
 91 90  1  0
 93 91  1  0
 93 94  1  0
 93 92  1  0
 95 98  1  1
 95 96  1  0
 97 95  1  0
M  ISO  4   9 100  17 100  57 101  58 101
M  END
>  <TORSDO>  (81) 
F 23

>  <SCORE>  (81) 
-14.169

>  <name>  (81) 
80

>  <ligand_id>  (81) 
80

>  <original_smiles>  (81) 
[H]c1c([H])c([H])c2c(c1[H])C([H])([H])C([H])([H])C([H])([H])C2([H])N([H])C(=O)C1([H])N(C(=O)C([H])(N([H])C(=O)C([H])(N([H])C([H])([H])[H])C([H])([H])[H])C(C([H])([H])[H])(C([H])([H])[H])C([H])([H])[H])C([H])([H])c2c([H])c(OC([H])([H])C(c3c([H])c([H])c([H])c(N([H])C(=O)N4C([H])([H])C([H])([H])C([H])([H])C([H])(n5nc(-c6c([H])c([H])c(Oc7c([H])c([H])c(F)c([H])c7F)c([H])c6[H])c(C(=O)N([H])[H])c5N([H])[H])C4([H])[H])c3[H])(C([H])([H])[H])[N+]([H])([H])C([H])([H])C([H])([H])C([H])([H])[N+]([H])(C([H])([H])[H])C([H])([H])[H])c([H])c([H])c2C1([H])[H]

>  <smiles>  (81) 
[H]c1c([H])c([H])c2c(c1[H])C([H])([H])C([H])([H])C([H])([H])C2([H])N([H])C(=O)C1([H])N(C(=O)C([H])(N([H])C(=O)C([H])(N([H])C([H])([H])[H])C([H])([H])[H])C(C([H])([H])[H])(C([H])([H])[H])C([H])([H])[H])C([H])([H])c2c([H])c(OC([H])([H])C(c3c([H])c([H])c([H])c(N([H])C(=O)N4C([H])([H])C([H])([H])C([H])([H])C([H])(n5nc(-c6c([H])c([H])c(Oc7c([H])c([H])c(F)c([H])c7F)c([H])c6[H])c(C(=O)N([H])[H])c5N([H])[H])C4([H])[H])c3[H])(C([H])([H])[H])[N+]([H])([H])C([H])([H])C([H])([H])C([H])([H])[N+]([H])(C([H])([H])[H])C([H])([H])[H])c([H])c([H])c2C1([H])[H]

$$$$
81:0:0
     RDKit          3D

 98107  0  0  1  0  0  0  0  0999 V2000
  -27.7150  -22.7390   19.6340 C   0  0  0  0  0  0  0  0  0  0  0  0
  -27.1570  -21.0600   17.9660 C   0  0  0  0  0  1  0  0  0  0  0  0
  -27.4050  -21.4480   19.3650 N   0  0  0  0  0  0  0  0  0  0  0  0
  -27.9200  -23.5560   18.7280 O   0  0  0  0  0  0  0  0  0  0  0  0
  -29.2590  -25.2440   21.2730 C   0  0  0  0  0  0  0  0  0  0  0  0
  -26.4640  -23.4930   21.8090 C   0  0  0  0  0  2  0  0  0  0  0  0
  -27.0920  -24.7830   22.3480 C   0  0  0  0  0  2  0  0  0  0  0  0
  -27.8050  -23.2220   21.1020 C   0  0  0  0  0  3  0  0  0  0  0  0
  -27.9910  -24.6700   21.2130 N   0  0  0  0  0  0  0  0  0  0  0  0
  -30.2750  -24.5720   21.4710 O   0  0  0  0  0  0  0  0  0  0  0  0
  -29.3380  -26.7240   20.8870 C   0  0  0  0  0  2  0  0  0  0  0  0
  -28.5900  -26.9170   19.6840 O   0  0  0  0  0  0  0  0  0  0  0  0
  -24.5850  -31.7540   23.0670 C   0  0  0  0  0  0  0  0  0  0  0  0
  -27.3990  -27.5900   19.7970 C   0  0  0  0  0  0  0  0  0  0  0  0
  -23.4200  -30.3610   21.3830 C   0  0  0  0  0  3  0  0  0  0  0  0
  -24.9260  -28.9420   19.8910 C   0  0  0  0  0  0  0  0  0  0  0  0
  -25.9170  -30.8510   21.1700 C   0  0  0  0  0  2  0  0  0  0  0  0
  -26.0580  -29.5070   20.4910 C   0  0  0  0  0  0  0  0  0  0  0  0
  -27.2970  -28.8350   20.4520 C   0  0  0  0  0  3  0  0  0  0  0  0
  -26.2580  -27.0320   19.1860 C   0  0  0  0  0  3  0  0  0  0  0  0
  -25.0170  -27.6970   19.2410 C   0  0  0  0  0  3  0  0  0  0  0  0
  -23.6410  -29.7370   19.9770 C   0  0  0  0  0  2  0  0  0  0  0  0
  -24.6590  -31.0000   21.9330 N   0  0  0  0  0  0  0  0  0  0  0  0
  -23.5000  -31.9590   23.6280 O   0  0  0  0  0  0  0  0  0  0  0  0
  -22.8270  -29.2780   22.3120 C   0  0  0  0  0  0  0  0  0  0  0  0
  -21.5090  -29.0500   22.1960 N   0  0  0  0  0  0  0  0  0  0  0  0
  -23.5500  -28.6470   23.0870 O   0  0  0  0  0  0  0  0  0  0  0  0
  -20.9870  -29.6150   21.5410 H   0  0  0  0  0  0  0  0  0  0  0  0
  -18.1880  -27.7280   22.7050 C   0  0  0  0  0  0  0  0  0  0  0  0
  -20.7420  -28.0520   22.9390 C   0  0  0  0  0  3  0  0  0  0  0  0
  -20.8760  -26.6550   22.2910 C   0  0  0  0  0  2  0  0  0  0  0  0
  -19.7610  -26.3470   21.2860 C   0  0  0  0  0  2  0  0  0  0  0  0
  -18.3910  -26.4180   21.9640 C   0  0  0  0  0  2  0  0  0  0  0  0
  -19.2920  -28.5030   23.1490 C   0  0  0  0  0  0  0  0  0  0  0  0
  -19.0490  -29.7320   23.8010 C   0  0  0  0  0  3  0  0  0  0  0  0
  -17.7330  -30.1840   24.0160 C   0  0  0  0  0  3  0  0  0  0  0  0
  -16.6450  -29.4040   23.5900 C   0  0  0  0  0  3  0  0  0  0  0  0
  -16.8730  -28.1790   22.9390 C   0  0  0  0  0  3  0  0  0  0  0  0
  -25.8520  -32.4120   23.6970 C   0  0  0  0  0  3  0  0  0  0  0  0
  -25.4950  -33.7860   24.0730 N   0  0  0  0  0  0  0  0  0  0  0  0
  -25.7940  -34.8740   23.3500 C   0  0  0  0  0  0  0  0  0  0  0  0
  -26.4730  -34.8280   22.3190 O   0  0  0  0  0  0  0  0  0  0  0  0
  -24.8890  -33.8940   24.8730 H   0  0  0  0  0  0  0  0  0  0  0  0
  -24.0030  -36.6130   23.0440 C   0  0  0  0  0  1  0  0  0  0  0  0
  -25.2550  -36.2290   23.8480 C   0  0  0  0  0  3  0  0  0  0  0  0
  -27.3520  -37.1610   24.7190 C   0  0  0  0  0  1  0  0  0  0  0  0
  -26.2500  -37.3200   23.7750 N   0  0  0  0  0  0  0  0  0  0  0  0
  -25.8110  -38.2210   23.9470 H   0  0  0  0  0  0  0  0  0  0  0  0
  -26.4160  -31.6190   24.9400 C   0  0  1  0  0  0  0  0  0  0  0  0
  -25.3450  -31.2990   26.0090 C   0  0  0  0  0  1  0  0  0  0  0  0
  -27.0500  -30.2810   24.4910 C   0  0  0  0  0  1  0  0  0  0  0  0
  -27.5420  -32.4350   25.6180 C   0  0  0  0  0  1  0  0  0  0  0  0
  -27.2250  -20.4180   20.4110 C   0  0  0  0  0  2  0  0  0  0  0  0
  -27.6420  -19.0050   19.9900 C   0  0  0  0  0  0  0  0  0  0  0  0
  -28.9140  -18.6280   20.1810 N   0  0  0  0  0  0  0  0  0  0  0  0
  -26.8000  -18.2550   19.4910 O   0  0  0  0  0  0  0  0  0  0  0  0
  -29.5520  -19.2900   20.6030 H   0  0  0  0  0  0  0  0  0  0  0  0
  -30.6210  -17.2310   18.9600 C   0  0  0  0  0  2  0  0  0  0  0  0
  -29.4110  -17.3310   19.8570 C   0  0  0  0  0  3  0  0  0  0  0  0
  -30.7340  -16.8540   20.4230 C   0  0  0  0  0  3  0  0  0  0  0  0
  -31.3440  -14.5250   20.0400 C   0  0  0  0  0  0  0  0  0  0  0  0
  -30.8240  -12.4910   18.7430 C   0  0  0  0  0  2  0  0  0  0  0  0
  -29.7980  -12.8060   17.6370 C   0  0  0  0  0  2  0  0  0  0  0  0
  -28.3610  -12.6830   18.1760 C   0  0  0  0  0  2  0  0  0  0  0  0
  -28.1580  -13.4640   19.4990 C   0  0  0  0  0  3  0  0  0  0  0  0
  -29.2790  -13.1330   20.5050 C   0  0  0  0  0  2  0  0  0  0  0  0
  -30.5800  -13.4110   19.8640 N   0  0  0  0  0  0  0  0  0  0  0  0
  -32.3500  -14.7610   19.3620 O   0  0  0  0  0  0  0  0  0  0  0  0
  -30.9510  -15.3430   22.2840 C   0  0  0  0  0  1  0  0  0  0  0  0
  -30.8060  -15.4780   20.8310 N   0  0  0  0  0  0  0  0  0  0  0  0
  -25.8650  -14.1240   20.4750 C   0  0  0  0  0  0  0  0  0  0  0  0
  -24.7950  -13.3750   20.8780 C   0  0  0  0  0  0  0  0  0  0  0  0
  -25.1760  -12.0120   20.6890 C   0  0  0  0  0  0  0  0  0  0  0  0
  -26.8360  -13.2200   20.0730 N   0  0  0  0  0  0  0  0  0  0  0  0
  -26.4280  -11.9380   20.2570 N   0  0  0  0  0  0  0  0  0  0  0  0
  -24.4030  -10.7730   20.8420 C   0  0  0  0  0  0  0  0  0  0  0  0
  -24.8030   -9.7610   21.7410 C   0  0  0  0  0  3  0  0  0  0  0  0
  -24.0330   -8.5860   21.8810 C   0  0  0  0  0  3  0  0  0  0  0  0
  -22.8500   -8.4170   21.1240 C   0  0  0  0  0  0  0  0  0  0  0  0
  -22.4690   -9.4200   20.2150 C   0  0  0  0  0  3  0  0  0  0  0  0
  -23.2390  -10.5860   20.0710 C   0  0  0  0  0  3  0  0  0  0  0  0
  -22.0550   -7.2990   21.1770 O   0  0  0  0  0  0  0  0  0  0  0  0
  -21.8950   -6.5820   22.3350 C   0  0  0  0  0  0  0  0  0  0  0  0
  -21.3850   -7.1730   23.5120 C   0  0  0  0  0  3  0  0  0  0  0  0
  -21.1720   -6.3850   24.6590 C   0  0  0  0  0  3  0  0  0  0  0  0
  -21.4570   -5.0060   24.6310 C   0  0  0  0  0  0  0  0  0  0  0  0
  -21.9580   -4.4150   23.4570 C   0  0  0  0  0  3  0  0  0  0  0  0
  -22.1740   -5.2020   22.3110 C   0  0  0  0  0  0  0  0  0  0  0  0
  -22.6370   -4.6230   21.1770 F   0  0  0  0  0  0  0  0  0  0  0  0
  -21.2440   -4.2450   25.7300 F   0  0  0  0  0  0  0  0  0  0  0  0
  -23.4560  -13.8920   21.3230 C   0  0  0  0  0  0  0  0  0  0  0  0
  -22.7930  -13.1770   22.2250 N   0  0  0  0  0  0  0  0  0  0  0  0
  -23.0110  -14.9590   20.9050 O   0  0  0  0  0  0  0  0  0  0  0  0
  -23.1670  -12.3100   22.5820 H   0  0  0  0  0  0  0  0  0  0  0  0
  -21.8970  -13.4990   22.5630 H   0  0  0  0  0  0  0  0  0  0  0  0
  -26.0800  -15.4940   20.4020 N   0  0  0  0  0  0  0  0  0  0  0  0
  -25.3650  -16.1710   20.6480 H   0  0  0  0  0  0  0  0  0  0  0  0
  -26.9090  -15.9410   20.0360 H   0  0  0  0  0  0  0  0  0  0  0  0
  2  3  1  0
  3  1  1  0
  3 53  1  0
  4  1  2  0
  5 10  2  0
  6  7  1  0
  8  1  1  0
  8  9  1  0
  8  6  1  0
  9  5  1  0
  9  7  1  0
 11  5  1  0
 12 14  1  0
 12 11  1  0
 13 24  2  0
 14 19  1  0
 15 23  1  0
 15 25  1  0
 16 22  1  0
 16 18  1  0
 17 23  1  0
 18 17  1  0
 19 18  2  0
 20 21  1  0
 20 14  2  0
 21 16  2  0
 22 15  1  0
 23 13  1  0
 25 27  2  0
 26 25  1  0
 28 26  1  0
 29 38  2  0
 29 34  1  0
 30 26  1  0
 30 34  1  0
 31 30  1  0
 32 33  1  0
 32 31  1  0
 33 29  1  0
 34 35  2  0
 35 36  1  0
 37 36  2  0
 38 37  1  0
 39 13  1  0
 39 40  1  0
 39 49  1  0
 40 43  1  0
 41 45  1  0
 41 40  1  0
 42 41  2  0
 45 44  1  0
 47 45  1  0
 47 48  1  0
 47 46  1  0
 49 52  1  1
 49 50  1  0
 51 49  1  0
 54 55  1  0
 54 53  1  0
 55 57  1  0
 56 54  2  0
 58 59  1  0
 58 60  1  0
 59 55  1  0
 59 60  1  0
 60 70  1  0
 61 70  1  0
 62 67  1  0
 63 64  1  0
 63 62  1  0
 65 64  1  0
 65 74  1  0
 65 66  1  0
 67 61  1  0
 67 66  1  0
 68 61  2  0
 70 69  1  0
 71 72  2  0
 72 91  1  0
 73 76  1  0
 73 72  1  0
 74 75  1  0
 74 71  1  0
 75 73  2  0
 76 77  1  0
 77 78  2  0
 79 82  1  0
 79 78  1  0
 80 79  2  0
 81 80  1  0
 81 76  2  0
 82 83  1  0
 83 84  1  0
 84 85  2  0
 86 85  1  0
 86 90  1  0
 87 86  2  0
 88 83  2  0
 88 87  1  0
 89 88  1  0
 91 92  1  0
 92 95  1  0
 92 94  1  0
 93 91  2  0
 96 71  1  0
 96 97  1  0
 98 96  1  0
M  ISO  4  11 101  12 101  61 100  70 100
M  END
>  <TORSDO>  (82) 
F 21

>  <SCORE>  (82) 
-11.631

>  <name>  (82) 
81

>  <ligand_id>  (82) 
81

>  <original_smiles>  (82) 
[H]c1c([H])c([H])c2c(c1[H])C([H])([H])C([H])([H])C([H])([H])C2([H])N([H])C(=O)C1([H])N(C(=O)C([H])(N([H])C(=O)C([H])(N([H])C([H])([H])[H])C([H])([H])[H])C(C([H])([H])[H])(C([H])([H])[H])C([H])([H])[H])C([H])([H])c2c([H])c(OC([H])([H])C(=O)N3C([H])([H])C([H])([H])C3([H])C(=O)N(C([H])([H])[H])C([H])([H])C(=O)N([H])C3([H])C([H])([H])C3([H])N(C(=O)N3C([H])([H])C([H])([H])C([H])([H])C([H])(n4nc(-c5c([H])c([H])c(Oc6c([H])c([H])c(F)c([H])c6F)c([H])c5[H])c(C(=O)N([H])[H])c4N([H])[H])C3([H])[H])C([H])([H])[H])c([H])c([H])c2C1([H])[H]

>  <smiles>  (82) 
[H]c1c([H])c([H])c2c(c1[H])C([H])([H])C([H])([H])C([H])([H])C2([H])N([H])C(=O)C1([H])N(C(=O)C([H])(N([H])C(=O)C([H])(N([H])C([H])([H])[H])C([H])([H])[H])C(C([H])([H])[H])(C([H])([H])[H])C([H])([H])[H])C([H])([H])c2c([H])c(OC([H])([H])C(=O)N3C([H])([H])C([H])([H])C3([H])C(=O)N(C([H])([H])[H])C([H])([H])C(=O)N([H])C3([H])C([H])([H])C3([H])N(C(=O)N3C([H])([H])C([H])([H])C([H])([H])C([H])(n4nc(-c5c([H])c([H])c(Oc6c([H])c([H])c(F)c([H])c6F)c([H])c5[H])c(C(=O)N([H])[H])c4N([H])[H])C3([H])[H])C([H])([H])[H])c([H])c([H])c2C1([H])[H]

$$$$
82:0:0
     RDKit          3D

 91 99  0  0  1  0  0  0  0  0999 V2000
  -29.1430  -23.0200   20.1210 C   0  0  0  0  0  3  0  0  0  0  0  0
  -30.3770  -20.4960   20.3540 C   0  0  0  0  0  3  0  0  0  0  0  0
  -28.0930  -20.2860   20.1630 C   0  0  0  0  0  3  0  0  0  0  0  0
  -30.5500  -19.0200   20.3600 C   0  0  0  0  0  3  0  0  0  0  0  0
  -28.2630  -18.8100   20.1870 C   0  0  0  0  0  3  0  0  0  0  0  0
  -29.1470  -21.2830   20.2500 C   0  0  0  0  0  0  0  0  0  0  0  0
  -29.4970  -18.0280   20.2740 C   0  0  0  0  0  0  0  0  0  0  0  0
  -30.3920  -15.2400   20.1630 C   0  0  0  0  0  0  0  0  0  0  0  0
  -30.3700  -12.8250   19.2400 C   0  0  0  0  0  2  0  0  0  0  0  0
  -29.4060  -12.6670   18.0370 C   0  0  0  0  0  2  0  0  0  0  0  0
  -27.9690  -12.3940   18.5140 C   0  0  0  0  0  2  0  0  0  0  0  0
  -27.5540  -13.3330   19.6720 C   0  0  0  0  0  3  0  0  0  0  0  0
  -28.6340  -13.4280   20.7700 C   0  0  0  0  0  2  0  0  0  0  0  0
  -29.8560  -13.9300   20.1210 N   0  0  0  0  0  0  0  0  0  0  0  0
  -31.5980  -15.3050   19.8910 O   0  0  0  0  0  0  0  0  0  0  0  0
  -29.5330  -16.4220   20.3110 N   0  0  0  0  0  0  0  0  0  0  0  0
  -28.6010  -16.0660   20.4530 H   0  0  0  0  0  0  0  0  0  0  0  0
  -25.1950  -13.8780   20.4880 C   0  0  0  0  0  0  0  0  0  0  0  0
  -24.1490  -13.0900   20.8790 C   0  0  0  0  0  0  0  0  0  0  0  0
  -24.6230  -11.7430   20.8230 C   0  0  0  0  0  0  0  0  0  0  0  0
  -26.2370  -13.0100   20.2090 N   0  0  0  0  0  0  0  0  0  0  0  0
  -25.9070  -11.7200   20.4800 N   0  0  0  0  0  0  0  0  0  0  0  0
  -23.9100  -10.4740   21.0190 C   0  0  0  0  0  0  0  0  0  0  0  0
  -24.3630   -9.5060   21.9400 C   0  0  0  0  0  3  0  0  0  0  0  0
  -23.6470   -8.3030   22.1240 C   0  0  0  0  0  3  0  0  0  0  0  0
  -22.4630   -8.0610   21.3880 C   0  0  0  0  0  0  0  0  0  0  0  0
  -22.0280   -9.0200   20.4550 C   0  0  0  0  0  3  0  0  0  0  0  0
  -22.7440  -10.2140   20.2700 C   0  0  0  0  0  3  0  0  0  0  0  0
  -21.7160   -6.9120   21.4830 O   0  0  0  0  0  0  0  0  0  0  0  0
  -21.6780   -6.1700   22.6370 C   0  0  0  0  0  0  0  0  0  0  0  0
  -21.2390   -6.7210   23.8610 C   0  0  0  0  0  3  0  0  0  0  0  0
  -21.1500   -5.9060   25.0070 C   0  0  0  0  0  3  0  0  0  0  0  0
  -21.4910   -4.5420   24.9300 C   0  0  0  0  0  0  0  0  0  0  0  0
  -21.9240   -3.9910   23.7110 C   0  0  0  0  0  3  0  0  0  0  0  0
  -22.0140   -4.8030   22.5670 C   0  0  0  0  0  0  0  0  0  0  0  0
  -22.4120   -4.2630   21.3900 F   0  0  0  0  0  0  0  0  0  0  0  0
  -21.3970   -3.7570   26.0300 F   0  0  0  0  0  0  0  0  0  0  0  0
  -22.7550  -13.5550   21.1860 C   0  0  0  0  0  0  0  0  0  0  0  0
  -22.0550  -12.8530   22.0690 N   0  0  0  0  0  0  0  0  0  0  0  0
  -22.2990  -14.5780   20.6760 O   0  0  0  0  0  0  0  0  0  0  0  0
  -22.4400  -12.0270   22.5040 H   0  0  0  0  0  0  0  0  0  0  0  0
  -21.1220  -13.1500   22.3190 H   0  0  0  0  0  0  0  0  0  0  0  0
  -25.3400  -15.2510   20.3140 N   0  0  0  0  0  0  0  0  0  0  0  0
  -24.5550  -15.8830   20.4250 H   0  0  0  0  0  0  0  0  0  0  0  0
  -26.1380  -15.6880   19.8720 H   0  0  0  0  0  0  0  0  0  0  0  0
  -29.7970  -23.2820   18.8280 N   0  0  0  0  0  4  0  0  0  0  0  0
  -29.1700  -23.0900   18.0660 H   0  0  0  0  0  0  0  0  0  0  0  0
  -30.6110  -22.7040   18.7190 H   0  0  0  0  0  0  0  0  0  0  0  0
  -30.0800  -24.2450   18.7690 H   0  0  0  0  0  0  0  0  0  0  0  0
  -27.9910  -24.3510   20.3180 C   0  0  0  0  0  2  0  0  0  0  0  0
  -28.2170  -25.9710   20.2660 O   0  0  0  0  0  0  0  0  0  0  0  0
  -24.6410  -31.8810   23.2380 C   0  0  0  0  0  0  0  0  0  0  0  0
  -27.1810  -27.0280   20.2280 C   0  0  0  0  0  0  0  0  0  0  0  0
  -23.4360  -30.4830   21.6090 C   0  0  0  0  0  3  0  0  0  0  0  0
  -24.8760  -28.8780   20.1870 C   0  0  0  0  0  0  0  0  0  0  0  0
  -25.9990  -30.7040   21.4440 C   0  0  0  0  0  2  0  0  0  0  0  0
  -26.0660  -29.2950   20.7970 C   0  0  0  0  0  0  0  0  0  0  0  0
  -27.2150  -28.3920   20.7910 C   0  0  0  0  0  3  0  0  0  0  0  0
  -25.9590  -26.7500   19.5750 C   0  0  0  0  0  3  0  0  0  0  0  0
  -24.8440  -27.6240   19.5570 C   0  0  0  0  0  3  0  0  0  0  0  0
  -23.6590  -29.7980   20.2330 C   0  0  0  0  0  2  0  0  0  0  0  0
  -24.7140  -31.0490   22.1520 N   0  0  0  0  0  0  0  0  0  0  0  0
  -23.5550  -32.1730   23.7660 O   0  0  0  0  0  0  0  0  0  0  0  0
  -22.7490  -29.4880   22.5800 C   0  0  0  0  0  0  0  0  0  0  0  0
  -21.4200  -29.3190   22.4570 N   0  0  0  0  0  0  0  0  0  0  0  0
  -23.4180  -28.8690   23.4110 O   0  0  0  0  0  0  0  0  0  0  0  0
  -20.9340  -29.8710   21.7630 H   0  0  0  0  0  0  0  0  0  0  0  0
  -18.0410  -28.1020   22.9660 C   0  0  0  0  0  0  0  0  0  0  0  0
  -20.5990  -28.3840   23.2340 C   0  0  0  0  0  3  0  0  0  0  0  0
  -20.7090  -26.9470   22.6730 C   0  0  0  0  0  2  0  0  0  0  0  0
  -19.6100  -26.6100   21.6600 C   0  0  0  0  0  2  0  0  0  0  0  0
  -18.2270  -26.7500   22.3010 C   0  0  0  0  0  2  0  0  0  0  0  0
  -19.1540  -28.8770   23.3910 C   0  0  0  0  0  0  0  0  0  0  0  0
  -18.9230  -30.1400   23.9780 C   0  0  0  0  0  3  0  0  0  0  0  0
  -17.6140  -30.6290   24.1440 C   0  0  0  0  0  3  0  0  0  0  0  0
  -16.5160  -29.8530   23.7320 C   0  0  0  0  0  3  0  0  0  0  0  0
  -16.7310  -28.5910   23.1500 C   0  0  0  0  0  3  0  0  0  0  0  0
  -25.9170  -32.5210   23.8640 C   0  0  0  0  0  3  0  0  0  0  0  0
  -26.4310  -31.7540   25.1450 C   0  0  1  0  0  0  0  0  0  0  0  0
  -25.3380  -31.5270   26.2160 C   0  0  0  0  0  1  0  0  0  0  0  0
  -27.0100  -30.3720   24.7670 C   0  0  0  0  0  1  0  0  0  0  0  0
  -27.5860  -32.5480   25.8010 C   0  0  0  0  0  1  0  0  0  0  0  0
  -25.6030  -33.9200   24.2010 N   0  0  0  0  0  0  0  0  0  0  0  0
  -25.9120  -34.9800   23.4410 C   0  0  0  0  0  0  0  0  0  0  0  0
  -26.5550  -34.8830   22.3930 O   0  0  0  0  0  0  0  0  0  0  0  0
  -25.0270  -34.0680   25.0150 H   0  0  0  0  0  0  0  0  0  0  0  0
  -24.1620  -36.7690   23.1580 C   0  0  0  0  0  1  0  0  0  0  0  0
  -25.4360  -36.3680   23.9190 C   0  0  0  0  0  3  0  0  0  0  0  0
  -27.5940  -37.2740   24.6660 C   0  0  0  0  0  1  0  0  0  0  0  0
  -26.4570  -37.4280   23.7620 N   0  0  0  0  0  0  0  0  0  0  0  0
  -26.0500  -38.3470   23.9180 H   0  0  0  0  0  0  0  0  0  0  0  0
  1  6  1  0
  1 50  1  0
  2  4  1  0
  3  5  2  0
  3  6  1  0
  5  7  1  0
  6  2  2  0
  7 16  1  0
  7  4  2  0
  8 16  1  0
  9 14  1  0
 10 11  1  0
 10  9  1  0
 12 11  1  0
 12 21  1  0
 12 13  1  0
 14  8  1  0
 14 13  1  0
 15  8  2  0
 16 17  1  0
 18 19  2  0
 19 38  1  0
 20 19  1  0
 20 23  1  0
 21 22  1  0
 21 18  1  0
 22 20  2  0
 23 24  1  0
 24 25  2  0
 26 29  1  0
 26 25  1  0
 27 26  2  0
 28 27  1  0
 28 23  2  0
 29 30  1  0
 30 31  1  0
 31 32  2  0
 33 32  1  0
 33 37  1  0
 34 33  2  0
 35 30  2  0
 35 34  1  0
 36 35  1  0
 38 39  1  0
 39 42  1  0
 39 41  1  0
 40 38  2  0
 43 44  1  0
 43 18  1  0
 45 43  1  0
 46  1  1  0
 47 46  1  0
 48 46  1  0
 49 46  1  0
 51 50  1  0
 52 63  2  0
 53 51  1  0
 53 58  1  0
 54 62  1  0
 54 64  1  0
 55 61  1  0
 55 57  1  0
 56 62  1  0
 57 56  1  0
 58 57  2  0
 59 53  2  0
 60 59  1  0
 60 55  2  0
 61 54  1  0
 62 52  1  0
 64 66  2  0
 65 64  1  0
 67 65  1  0
 68 77  2  0
 68 73  1  0
 69 65  1  0
 69 73  1  0
 70 69  1  0
 71 72  1  0
 71 70  1  0
 72 68  1  0
 73 74  2  0
 74 75  1  0
 76 75  2  0
 77 76  1  0
 78 52  1  0
 78 83  1  0
 78 79  1  0
 79 82  1  1
 79 80  1  0
 81 79  1  0
 83 86  1  0
 84 88  1  0
 84 83  1  0
 85 84  2  0
 88 87  1  0
 90 91  1  0
 90 88  1  0
 90 89  1  0
M  ISO  4   8 100  16 100  50 101  51 101
M  END
>  <TORSDO>  (83) 
F 19

>  <SCORE>  (83) 
-15.744

>  <name>  (83) 
82

>  <ligand_id>  (83) 
82

>  <original_smiles>  (83) 
[H]c1c([H])c([H])c2c(c1[H])C([H])([H])C([H])([H])C([H])([H])C2([H])N([H])C(=O)C1([H])N(C(=O)C([H])(N([H])C(=O)C([H])(N([H])C([H])([H])[H])C([H])([H])[H])C(C([H])([H])[H])(C([H])([H])[H])C([H])([H])[H])C([H])([H])c2c([H])c(OC([H])([H])C([H])(c3c([H])c([H])c(N([H])C(=O)N4C([H])([H])C([H])([H])C([H])([H])C([H])(n5nc(-c6c([H])c([H])c(Oc7c([H])c([H])c(F)c([H])c7F)c([H])c6[H])c(C(=O)N([H])[H])c5N([H])[H])C4([H])[H])c([H])c3[H])[N+]([H])([H])[H])c([H])c([H])c2C1([H])[H]

>  <smiles>  (83) 
[H]c1c([H])c([H])c2c(c1[H])C([H])([H])C([H])([H])C([H])([H])C2([H])N([H])C(=O)C1([H])N(C(=O)C([H])(N([H])C(=O)C([H])(N([H])C([H])([H])[H])C([H])([H])[H])C(C([H])([H])[H])(C([H])([H])[H])C([H])([H])[H])C([H])([H])c2c([H])c(OC([H])([H])C([H])(c3c([H])c([H])c(N([H])C(=O)N4C([H])([H])C([H])([H])C([H])([H])C([H])(n5nc(-c6c([H])c([H])c(Oc7c([H])c([H])c(F)c([H])c7F)c([H])c6[H])c(C(=O)N([H])[H])c5N([H])[H])C4([H])[H])c([H])c3[H])[N+]([H])([H])[H])c([H])c([H])c2C1([H])[H]

$$$$
83:0:0
     RDKit          3D

 97105  0  0  1  0  0  0  0  0999 V2000
  -28.6140  -22.8400   20.0890 C   0  0  0  0  0  0  0  0  0  0  0  0
  -29.6540  -21.9510   22.1350 C   0  0  0  0  0  1  0  0  0  0  0  0
  -28.9870  -21.7490   20.8370 N   0  0  0  0  0  0  0  0  0  0  0  0
  -28.3300  -22.7310   18.8920 O   0  0  0  0  0  0  0  0  0  0  0  0
  -27.3150  -18.7350   19.2580 C   0  0  0  0  0  3  0  0  0  0  0  0
  -28.2240  -17.7030   19.5550 C   0  0  0  0  0  3  0  0  0  0  0  0
  -27.5640  -20.0500   19.6860 C   0  0  0  0  0  3  0  0  0  0  0  0
  -29.6430  -19.3170   20.7030 C   0  0  0  0  0  3  0  0  0  0  0  0
  -29.3890  -17.9740   20.3060 C   0  0  0  0  0  0  0  0  0  0  0  0
  -28.7440  -20.3820   20.4000 C   0  0  0  0  0  0  0  0  0  0  0  0
  -30.7090  -14.4920   20.4320 C   0  0  0  0  0  0  0  0  0  0  0  0
  -30.3860  -12.2900   19.3820 C   0  0  0  0  0  2  0  0  0  0  0  0
  -29.4850  -12.4770   18.1460 C   0  0  0  0  0  2  0  0  0  0  0  0
  -28.0000  -12.3650   18.5440 C   0  0  0  0  0  2  0  0  0  0  0  0
  -27.6370  -13.2390   19.7770 C   0  0  0  0  0  3  0  0  0  0  0  0
  -28.6710  -13.0730   20.9140 C   0  0  0  0  0  2  0  0  0  0  0  0
  -30.0040  -13.3290   20.3520 N   0  0  0  0  0  0  0  0  0  0  0  0
  -31.8980  -14.5380   20.1060 O   0  0  0  0  0  0  0  0  0  0  0  0
  -30.4140  -16.8890   20.5750 C   0  0  0  0  0  0  0  0  0  0  0  0
  -29.9690  -15.6080   20.6260 N   0  0  0  0  0  0  0  0  0  0  0  0
  -31.5920  -17.2240   20.7450 O   0  0  0  0  0  0  0  0  0  0  0  0
  -28.9780  -15.4830   20.6970 H   0  0  0  0  0  0  0  0  0  0  0  0
  -25.2310  -13.8620   20.4390 C   0  0  0  0  0  0  0  0  0  0  0  0
  -24.1540  -13.0950   20.8020 C   0  0  0  0  0  0  0  0  0  0  0  0
  -24.6130  -11.7440   20.7980 C   0  0  0  0  0  0  0  0  0  0  0  0
  -26.2770  -12.9750   20.2420 N   0  0  0  0  0  0  0  0  0  0  0  0
  -25.9100  -11.6980   20.5200 N   0  0  0  0  0  0  0  0  0  0  0  0
  -23.8780  -10.4880   20.9960 C   0  0  0  0  0  0  0  0  0  0  0  0
  -24.2940   -9.5290   21.9460 C   0  0  0  0  0  3  0  0  0  0  0  0
  -23.5610   -8.3380   22.1290 C   0  0  0  0  0  3  0  0  0  0  0  0
  -22.3960   -8.0950   21.3640 C   0  0  0  0  0  0  0  0  0  0  0  0
  -22.0000   -9.0420   20.4030 C   0  0  0  0  0  3  0  0  0  0  0  0
  -22.7330  -10.2250   20.2180 C   0  0  0  0  0  3  0  0  0  0  0  0
  -21.6350   -6.9560   21.4580 O   0  0  0  0  0  0  0  0  0  0  0  0
  -21.5750   -6.2230   22.6170 C   0  0  0  0  0  0  0  0  0  0  0  0
  -21.1420   -6.7910   23.8350 C   0  0  0  0  0  3  0  0  0  0  0  0
  -21.0270   -5.9850   24.9850 C   0  0  0  0  0  3  0  0  0  0  0  0
  -21.3340   -4.6130   24.9180 C   0  0  0  0  0  0  0  0  0  0  0  0
  -21.7600   -4.0450   23.7050 C   0  0  0  0  0  3  0  0  0  0  0  0
  -21.8770   -4.8470   22.5570 C   0  0  0  0  0  0  0  0  0  0  0  0
  -22.2680   -4.2920   21.3850 F   0  0  0  0  0  0  0  0  0  0  0  0
  -21.2160   -3.8370   26.0210 F   0  0  0  0  0  0  0  0  0  0  0  0
  -22.7550  -13.5810   21.0450 C   0  0  0  0  0  0  0  0  0  0  0  0
  -22.0130  -12.9020   21.9130 N   0  0  0  0  0  0  0  0  0  0  0  0
  -22.3300  -14.5990   20.5000 O   0  0  0  0  0  0  0  0  0  0  0  0
  -22.3710  -12.0780   22.3730 H   0  0  0  0  0  0  0  0  0  0  0  0
  -21.0740  -13.2100   22.1200 H   0  0  0  0  0  0  0  0  0  0  0  0
  -25.3960  -15.2290   20.2390 N   0  0  0  0  0  0  0  0  0  0  0  0
  -24.6070  -15.8650   20.2810 H   0  0  0  0  0  0  0  0  0  0  0  0
  -26.2450  -15.6760   19.9230 H   0  0  0  0  0  0  0  0  0  0  0  0
  -28.5170  -24.2650   20.7170 C   0  0  0  0  0  3  0  0  0  0  0  0
  -27.2940  -24.3770   21.5440 N   0  0  0  0  0  4  0  0  0  0  0  0
  -26.4680  -24.2060   20.9960 H   0  0  0  0  0  0  0  0  0  0  0  0
  -27.2270  -25.3030   21.9360 H   0  0  0  0  0  0  0  0  0  0  0  0
  -27.3030  -23.7170   22.3000 H   0  0  0  0  0  0  0  0  0  0  0  0
  -28.5570  -25.4000   19.6450 C   0  0  0  0  0  2  0  0  0  0  0  0
  -28.4240  -26.7290   20.2020 O   0  0  0  0  0  0  0  0  0  0  0  0
  -24.5710  -31.8770   23.2490 C   0  0  0  0  0  0  0  0  0  0  0  0
  -27.2240  -27.4240   20.1670 C   0  0  0  0  0  0  0  0  0  0  0  0
  -23.3710  -30.4800   21.6030 C   0  0  0  0  0  3  0  0  0  0  0  0
  -24.8250  -28.9470   20.1780 C   0  0  0  0  0  0  0  0  0  0  0  0
  -25.8990  -30.8340   21.4140 C   0  0  0  0  0  2  0  0  0  0  0  0
  -25.9830  -29.4630   20.7710 C   0  0  0  0  0  0  0  0  0  0  0  0
  -27.1800  -28.7100   20.7610 C   0  0  0  0  0  3  0  0  0  0  0  0
  -26.0360  -26.9230   19.5770 C   0  0  0  0  0  3  0  0  0  0  0  0
  -24.8500  -27.6760   19.5810 C   0  0  0  0  0  3  0  0  0  0  0  0
  -23.5830  -29.8070   20.2210 C   0  0  0  0  0  2  0  0  0  0  0  0
  -24.6320  -31.0790   22.1450 N   0  0  0  0  0  0  0  0  0  0  0  0
  -23.4880  -32.1510   23.7850 O   0  0  0  0  0  0  0  0  0  0  0  0
  -22.7170  -29.4540   22.5570 C   0  0  0  0  0  0  0  0  0  0  0  0
  -21.3940  -29.2730   22.4260 N   0  0  0  0  0  0  0  0  0  0  0  0
  -23.3970  -28.8260   23.3720 O   0  0  0  0  0  0  0  0  0  0  0  0
  -20.9060  -29.8250   21.7360 H   0  0  0  0  0  0  0  0  0  0  0  0
  -18.0140  -28.0980   22.9250 C   0  0  0  0  0  0  0  0  0  0  0  0
  -20.5720  -28.3400   23.1960 C   0  0  0  0  0  3  0  0  0  0  0  0
  -20.6620  -26.9100   22.6130 C   0  0  0  0  0  2  0  0  0  0  0  0
  -19.5600  -26.6090   21.5930 C   0  0  0  0  0  2  0  0  0  0  0  0
  -18.1820  -26.7510   22.2430 C   0  0  0  0  0  2  0  0  0  0  0  0
  -19.1370  -28.8530   23.3550 C   0  0  0  0  0  0  0  0  0  0  0  0
  -18.9270  -30.1170   23.9480 C   0  0  0  0  0  3  0  0  0  0  0  0
  -17.6250  -30.6270   24.1170 C   0  0  0  0  0  3  0  0  0  0  0  0
  -16.5160  -29.8660   23.7070 C   0  0  0  0  0  3  0  0  0  0  0  0
  -16.7110  -28.6050   23.1150 C   0  0  0  0  0  3  0  0  0  0  0  0
  -25.8550  -32.5060   23.8750 C   0  0  0  0  0  3  0  0  0  0  0  0
  -26.3620  -31.7380   25.1560 C   0  0  1  0  0  0  0  0  0  0  0  0
  -25.2630  -31.5050   26.2190 C   0  0  0  0  0  1  0  0  0  0  0  0
  -26.9440  -30.3570   24.7690 C   0  0  0  0  0  1  0  0  0  0  0  0
  -27.5120  -32.5320   25.8190 C   0  0  0  0  0  1  0  0  0  0  0  0
  -25.5470  -33.9080   24.1940 N   0  0  0  0  0  0  0  0  0  0  0  0
  -25.8920  -34.9540   23.4310 C   0  0  0  0  0  0  0  0  0  0  0  0
  -26.5740  -34.8430   22.4080 O   0  0  0  0  0  0  0  0  0  0  0  0
  -24.9390  -34.0680   24.9830 H   0  0  0  0  0  0  0  0  0  0  0  0
  -24.1730  -36.7520   23.0510 C   0  0  0  0  0  1  0  0  0  0  0  0
  -25.4050  -36.3470   23.8780 C   0  0  0  0  0  3  0  0  0  0  0  0
  -27.5330  -37.2290   24.7260 C   0  0  0  0  0  1  0  0  0  0  0  0
  -26.4430  -37.3950   23.7690 N   0  0  0  0  0  0  0  0  0  0  0  0
  -26.0400  -38.3180   23.9040 H   0  0  0  0  0  0  0  0  0  0  0  0
  1 51  1  0
  1  3  1  0
  3  2  1  0
  4  1  2  0
  5  6  2  0
  5  7  1  0
  6  9  1  0
  7 10  2  0
  9 19  1  0
  9  8  2  0
 10  8  1  0
 10  3  1  0
 11 20  1  0
 12 17  1  0
 13 14  1  0
 13 12  1  0
 15 14  1  0
 15 26  1  0
 15 16  1  0
 17 11  1  0
 17 16  1  0
 18 11  2  0
 19 20  1  0
 19 21  2  0
 20 22  1  0
 23 24  2  0
 24 43  1  0
 25 24  1  0
 25 28  1  0
 26 23  1  0
 26 27  1  0
 27 25  2  0
 28 29  1  0
 29 30  2  0
 31 34  1  0
 31 30  1  0
 32 31  2  0
 33 32  1  0
 33 28  2  0
 34 35  1  0
 35 36  1  0
 36 37  2  0
 38 37  1  0
 38 42  1  0
 39 38  2  0
 40 35  2  0
 40 39  1  0
 41 40  1  0
 43 44  1  0
 44 47  1  0
 44 46  1  0
 45 43  2  0
 48 49  1  0
 48 23  1  0
 50 48  1  0
 51 56  1  0
 51 52  1  0
 52 54  1  0
 52 55  1  0
 53 52  1  0
 56 57  1  0
 58 69  2  0
 59 57  1  0
 59 64  1  0
 60 68  1  0
 60 70  1  0
 61 67  1  0
 61 63  1  0
 62 68  1  0
 63 62  1  0
 64 63  2  0
 65 66  1  0
 65 59  2  0
 66 61  2  0
 67 60  1  0
 68 58  1  0
 70 72  2  0
 71 70  1  0
 73 71  1  0
 74 83  2  0
 74 79  1  0
 75 71  1  0
 75 79  1  0
 76 75  1  0
 77 78  1  0
 77 76  1  0
 78 74  1  0
 79 80  2  0
 80 81  1  0
 82 81  2  0
 83 82  1  0
 84 58  1  0
 84 89  1  0
 84 85  1  0
 85 88  1  1
 85 86  1  0
 87 85  1  0
 89 92  1  0
 90 94  1  0
 90 89  1  0
 91 90  2  0
 94 93  1  0
 96 94  1  0
 96 97  1  0
 96 95  1  0
M  ISO  4  11 100  20 100  56 101  57 101
M  END
>  <TORSDO>  (84) 
F 20

>  <SCORE>  (84) 
-14.415

>  <name>  (84) 
83

>  <ligand_id>  (84) 
83

>  <original_smiles>  (84) 
[H]c1c([H])c(C(=O)N([H])C(=O)N2C([H])([H])C([H])([H])C([H])([H])C([H])(n3nc(-c4c([H])c([H])c(Oc5c([H])c([H])c(F)c([H])c5F)c([H])c4[H])c(C(=O)N([H])[H])c3N([H])[H])C2([H])[H])c([H])c(N(C(=O)C([H])(C([H])([H])Oc2c([H])c([H])c3c(c2[H])C([H])([H])N(C(=O)C([H])(N([H])C(=O)C([H])(N([H])C([H])([H])[H])C([H])([H])[H])C(C([H])([H])[H])(C([H])([H])[H])C([H])([H])[H])C([H])(C(=O)N([H])C2([H])c4c([H])c([H])c([H])c([H])c4C([H])([H])C([H])([H])C2([H])[H])C3([H])[H])[N+]([H])([H])[H])C([H])([H])[H])c1[H]

>  <smiles>  (84) 
[H]c1c([H])c(C(=O)N([H])C(=O)N2C([H])([H])C([H])([H])C([H])([H])C([H])(n3nc(-c4c([H])c([H])c(Oc5c([H])c([H])c(F)c([H])c5F)c([H])c4[H])c(C(=O)N([H])[H])c3N([H])[H])C2([H])[H])c([H])c(N(C(=O)C([H])(C([H])([H])Oc2c([H])c([H])c3c(c2[H])C([H])([H])N(C(=O)C([H])(N([H])C(=O)C([H])(N([H])C([H])([H])[H])C([H])([H])[H])C(C([H])([H])[H])(C([H])([H])[H])C([H])([H])[H])C([H])(C(=O)N([H])C2([H])c4c([H])c([H])c([H])c([H])c4C([H])([H])C([H])([H])C2([H])[H])C3([H])[H])[N+]([H])([H])[H])C([H])([H])[H])c1[H]

$$$$
84:0:0
     RDKit          3D

 93102  0  0  1  0  0  0  0  0999 V2000
  -29.1770  -24.3130   20.5090 C   0  0  0  0  0  0  0  0  0  0  0  0
  -29.8020  -22.0140   22.8380 C   0  0  0  0  0  2  0  0  0  0  0  0
  -28.8560  -23.2030   22.7030 C   0  0  0  0  0  2  0  0  0  0  0  0
  -30.1250  -22.0940   21.3340 C   0  0  0  0  0  3  0  0  0  0  0  0
  -29.0610  -23.1220   21.2610 N   0  0  0  0  0  0  0  0  0  0  0  0
  -29.9470  -24.3830   19.5470 O   0  0  0  0  0  0  0  0  0  0  0  0
  -29.8410  -20.7400   20.6100 C   0  0  0  0  0  0  0  0  0  0  0  0
  -31.8030  -19.6950   21.7250 C   0  0  0  0  0  1  0  0  0  0  0  0
  -30.5740  -19.6220   20.9220 N   0  0  0  0  0  0  0  0  0  0  0  0
  -28.9200  -20.7060   19.7880 O   0  0  0  0  0  0  0  0  0  0  0  0
  -30.8290  -14.6210   20.2360 C   0  0  0  0  0  0  0  0  0  0  0  0
  -30.4630  -12.4210   19.1650 C   0  0  0  0  0  2  0  0  0  0  0  0
  -29.5020  -12.5530   17.9660 C   0  0  0  0  0  2  0  0  0  0  0  0
  -28.0430  -12.3900   18.4280 C   0  0  0  0  0  2  0  0  0  0  0  0
  -27.7090  -13.2670   19.6620 C   0  0  0  0  0  3  0  0  0  0  0  0
  -28.7980  -13.1390   20.7590 C   0  0  0  0  0  2  0  0  0  0  0  0
  -30.0910  -13.4670   20.1420 N   0  0  0  0  0  0  0  0  0  0  0  0
  -31.9990  -14.6330   19.8470 O   0  0  0  0  0  0  0  0  0  0  0  0
  -28.8450  -17.7760   20.7510 C   0  0  0  0  0  2  0  0  0  0  0  0
  -28.8910  -16.2720   20.4560 C   0  0  0  0  0  2  0  0  0  0  0  0
  -31.0850  -17.0400   20.8320 C   0  0  0  0  0  2  0  0  0  0  0  0
  -30.2360  -18.2670   20.3750 C   0  0  0  0  0  3  0  0  0  0  0  0
  -30.2700  -15.8080   20.6560 N   0  0  0  0  0  0  0  0  0  0  0  0
  -25.3380  -13.9060   20.4220 C   0  0  0  0  0  0  0  0  0  0  0  0
  -24.2700  -13.1440   20.8090 C   0  0  0  0  0  0  0  0  0  0  0  0
  -24.7190  -11.7880   20.7710 C   0  0  0  0  0  0  0  0  0  0  0  0
  -26.3700  -13.0110   20.1750 N   0  0  0  0  0  0  0  0  0  0  0  0
  -26.0040  -11.7350   20.4450 N   0  0  0  0  0  0  0  0  0  0  0  0
  -23.9870  -10.5330   20.9690 C   0  0  0  0  0  0  0  0  0  0  0  0
  -24.4090   -9.5760   21.9170 C   0  0  0  0  0  3  0  0  0  0  0  0
  -23.6790   -8.3820   22.1000 C   0  0  0  0  0  3  0  0  0  0  0  0
  -22.5140   -8.1380   21.3360 C   0  0  0  0  0  0  0  0  0  0  0  0
  -22.1110   -9.0840   20.3760 C   0  0  0  0  0  3  0  0  0  0  0  0
  -22.8430  -10.2700   20.1920 C   0  0  0  0  0  3  0  0  0  0  0  0
  -21.7570   -6.9970   21.4300 O   0  0  0  0  0  0  0  0  0  0  0  0
  -21.6680   -6.2860   22.6000 C   0  0  0  0  0  0  0  0  0  0  0  0
  -21.1710   -6.8660   23.7880 C   0  0  0  0  0  3  0  0  0  0  0  0
  -21.0310   -6.0790   24.9490 C   0  0  0  0  0  3  0  0  0  0  0  0
  -21.3800   -4.7160   24.9230 C   0  0  0  0  0  0  0  0  0  0  0  0
  -21.8700   -4.1360   23.7400 C   0  0  0  0  0  3  0  0  0  0  0  0
  -22.0120   -4.9190   22.5810 C   0  0  0  0  0  0  0  0  0  0  0  0
  -22.4660   -4.3500   21.4370 F   0  0  0  0  0  0  0  0  0  0  0  0
  -21.2390   -3.9590   26.0370 F   0  0  0  0  0  0  0  0  0  0  0  0
  -22.8820  -13.6350   21.1000 C   0  0  0  0  0  0  0  0  0  0  0  0
  -22.1570  -12.9430   21.9720 N   0  0  0  0  0  0  0  0  0  0  0  0
  -22.4480  -14.6650   20.5890 O   0  0  0  0  0  0  0  0  0  0  0  0
  -22.5220  -12.1110   22.4110 H   0  0  0  0  0  0  0  0  0  0  0  0
  -21.2240  -13.2540   22.2040 H   0  0  0  0  0  0  0  0  0  0  0  0
  -25.5050  -15.2740   20.2340 N   0  0  0  0  0  0  0  0  0  0  0  0
  -24.7380  -15.9270   20.3510 H   0  0  0  0  0  0  0  0  0  0  0  0
  -26.3420  -15.7110   19.8710 H   0  0  0  0  0  0  0  0  0  0  0  0
  -28.3920  -25.5630   21.0060 C   0  0  0  0  0  2  0  0  0  0  0  0
  -28.4920  -26.7130   20.1330 O   0  0  0  0  0  0  0  0  0  0  0  0
  -24.5420  -31.8500   23.1500 C   0  0  0  0  0  0  0  0  0  0  0  0
  -27.3400  -27.4730   20.1040 C   0  0  0  0  0  0  0  0  0  0  0  0
  -23.4000  -30.4360   21.4730 C   0  0  0  0  0  3  0  0  0  0  0  0
  -24.9180  -28.9380   20.0680 C   0  0  0  0  0  0  0  0  0  0  0  0
  -25.9240  -30.8460   21.3310 C   0  0  0  0  0  2  0  0  0  0  0  0
  -26.0530  -29.4800   20.6850 C   0  0  0  0  0  0  0  0  0  0  0  0
  -27.2700  -28.7550   20.6980 C   0  0  0  0  0  3  0  0  0  0  0  0
  -26.1900  -26.9500   19.4750 C   0  0  0  0  0  3  0  0  0  0  0  0
  -24.9820  -27.6720   19.4580 C   0  0  0  0  0  3  0  0  0  0  0  0
  -23.6550  -29.7710   20.0940 C   0  0  0  0  0  2  0  0  0  0  0  0
  -24.6390  -31.0590   22.0440 N   0  0  0  0  0  0  0  0  0  0  0  0
  -23.4450  -32.0980   23.6690 O   0  0  0  0  0  0  0  0  0  0  0  0
  -22.7480  -29.3980   22.4130 C   0  0  0  0  0  0  0  0  0  0  0  0
  -21.4240  -29.2160   22.2810 N   0  0  0  0  0  0  0  0  0  0  0  0
  -23.4300  -28.7560   23.2170 O   0  0  0  0  0  0  0  0  0  0  0  0
  -20.9340  -29.7870   21.6060 H   0  0  0  0  0  0  0  0  0  0  0  0
  -18.0450  -28.0250   22.7660 C   0  0  0  0  0  0  0  0  0  0  0  0
  -20.6060  -28.2630   23.0310 C   0  0  0  0  0  3  0  0  0  0  0  0
  -20.6990  -26.8470   22.4170 C   0  0  0  0  0  2  0  0  0  0  0  0
  -19.5890  -26.5560   21.4010 C   0  0  0  0  0  2  0  0  0  0  0  0
  -18.2120  -26.6930   22.0550 C   0  0  0  0  0  2  0  0  0  0  0  0
  -19.1700  -28.7700   23.2100 C   0  0  0  0  0  0  0  0  0  0  0  0
  -18.9610  -30.0190   23.8340 C   0  0  0  0  0  3  0  0  0  0  0  0
  -17.6600  -30.5230   24.0180 C   0  0  0  0  0  3  0  0  0  0  0  0
  -16.5500  -29.7750   23.5910 C   0  0  0  0  0  3  0  0  0  0  0  0
  -16.7430  -28.5270   22.9710 C   0  0  0  0  0  3  0  0  0  0  0  0
  -25.8030  -32.5020   23.8020 C   0  0  0  0  0  3  0  0  0  0  0  0
  -25.4590  -33.8900   24.1400 N   0  0  0  0  0  0  0  0  0  0  0  0
  -25.7810  -34.9560   23.3930 C   0  0  0  0  0  0  0  0  0  0  0  0
  -26.4680  -34.8740   22.3710 O   0  0  0  0  0  0  0  0  0  0  0  0
  -24.8510  -34.0250   24.9330 H   0  0  0  0  0  0  0  0  0  0  0  0
  -24.0240  -36.7160   23.0200 C   0  0  0  0  0  1  0  0  0  0  0  0
  -25.2560  -36.3290   23.8530 C   0  0  0  0  0  3  0  0  0  0  0  0
  -27.3530  -37.2500   24.7390 C   0  0  0  0  0  1  0  0  0  0  0  0
  -26.2700  -37.4040   23.7720 N   0  0  0  0  0  0  0  0  0  0  0  0
  -25.8410  -38.3140   23.9170 H   0  0  0  0  0  0  0  0  0  0  0  0
  -26.3140  -31.7280   25.0790 C   0  0  1  0  0  0  0  0  0  0  0  0
  -25.2060  -31.4540   26.1240 C   0  0  0  0  0  1  0  0  0  0  0  0
  -26.9350  -30.3690   24.6800 C   0  0  0  0  0  1  0  0  0  0  0  0
  -27.4340  -32.5390   25.7710 C   0  0  0  0  0  1  0  0  0  0  0  0
  1 52  1  0
  1  5  1  0
  3  2  1  0
  4  7  1  0
  4  2  1  0
  5  4  1  0
  5  3  1  0
  6  1  2  0
  7  9  1  0
  9  8  1  0
 10  7  2  0
 11 23  1  0
 12 17  1  0
 13 14  1  0
 13 12  1  0
 15 14  1  0
 15 27  1  0
 15 16  1  0
 17 11  1  0
 17 16  1  0
 18 11  2  0
 20 23  1  0
 20 19  1  0
 22 19  1  0
 22 21  1  0
 22  9  1  0
 23 21  1  0
 24 25  2  0
 25 44  1  0
 26 25  1  0
 26 29  1  0
 27 24  1  0
 27 28  1  0
 28 26  2  0
 29 30  1  0
 30 31  2  0
 32 35  1  0
 32 31  1  0
 33 32  2  0
 34 33  1  0
 34 29  2  0
 35 36  1  0
 36 37  1  0
 37 38  2  0
 39 38  1  0
 39 43  1  0
 40 39  2  0
 41 36  2  0
 41 40  1  0
 42 41  1  0
 44 45  1  0
 45 48  1  0
 45 47  1  0
 46 44  2  0
 49 50  1  0
 49 24  1  0
 51 49  1  0
 53 52  1  0
 54 65  2  0
 55 53  1  0
 55 60  1  0
 56 64  1  0
 56 66  1  0
 57 63  1  0
 57 59  1  0
 58 64  1  0
 59 60  2  0
 59 58  1  0
 61 55  2  0
 62 61  1  0
 62 57  2  0
 63 56  1  0
 64 54  1  0
 66 68  2  0
 67 66  1  0
 69 67  1  0
 70 79  2  0
 70 75  1  0
 71 67  1  0
 71 75  1  0
 72 71  1  0
 73 74  1  0
 73 72  1  0
 74 70  1  0
 75 76  2  0
 76 77  1  0
 78 77  2  0
 79 78  1  0
 80 54  1  0
 80 81  1  0
 80 90  1  0
 81 84  1  0
 82 86  1  0
 82 81  1  0
 83 82  2  0
 86 85  1  0
 88 86  1  0
 88 89  1  0
 88 87  1  0
 90 93  1  1
 90 91  1  0
 92 90  1  0
M  ISO  4  11 100  23 100  52 101  53 101
M  END
>  <TORSDO>  (85) 
F 18

>  <SCORE>  (85) 
-14.919

>  <name>  (85) 
84

>  <ligand_id>  (85) 
84

>  <original_smiles>  (85) 
[H]c1c([H])c([H])c2c(c1[H])C([H])([H])C([H])([H])C([H])([H])C2([H])N([H])C(=O)C1([H])N(C(=O)C([H])(N([H])C(=O)C([H])(N([H])C([H])([H])[H])C([H])([H])[H])C(C([H])([H])[H])(C([H])([H])[H])C([H])([H])[H])C([H])([H])c2c([H])c(OC([H])([H])C(=O)N3C([H])([H])C([H])([H])C3([H])C(=O)N(C([H])([H])[H])C3([H])C([H])([H])N(C(=O)N4C([H])([H])C([H])([H])C([H])([H])C([H])(n5nc(-c6c([H])c([H])c(Oc7c([H])c([H])c(F)c([H])c7F)c([H])c6[H])c(C(=O)N([H])[H])c5N([H])[H])C4([H])[H])C([H])([H])C3([H])[H])c([H])c([H])c2C1([H])[H]

>  <smiles>  (85) 
[H]c1c([H])c([H])c2c(c1[H])C([H])([H])C([H])([H])C([H])([H])C2([H])N([H])C(=O)C1([H])N(C(=O)C([H])(N([H])C(=O)C([H])(N([H])C([H])([H])[H])C([H])([H])[H])C(C([H])([H])[H])(C([H])([H])[H])C([H])([H])[H])C([H])([H])c2c([H])c(OC([H])([H])C(=O)N3C([H])([H])C([H])([H])C3([H])C(=O)N(C([H])([H])[H])C3([H])C([H])([H])N(C(=O)N4C([H])([H])C([H])([H])C([H])([H])C([H])(n5nc(-c6c([H])c([H])c(Oc7c([H])c([H])c(F)c([H])c7F)c([H])c6[H])c(C(=O)N([H])[H])c5N([H])[H])C4([H])[H])C([H])([H])C3([H])[H])c([H])c([H])c2C1([H])[H]

$$$$
85:0:0
     RDKit          3D

 98107  0  0  1  0  0  0  0  0999 V2000
  -30.2000  -23.8730   19.7300 C   0  0  0  0  0  0  0  0  0  0  0  0
  -31.9360  -22.3240   20.3860 C   0  0  0  0  0  1  0  0  0  0  0  0
  -30.5030  -22.6110   20.1710 N   0  0  0  0  0  0  0  0  0  0  0  0
  -31.1180  -24.5990   19.3360 O   0  0  0  0  0  0  0  0  0  0  0  0
  -28.6550  -20.7140   20.0090 C   0  0  0  0  0  2  0  0  0  0  0  0
  -29.9970  -20.1430   20.3700 C   0  0  0  0  0  3  0  0  0  0  0  0
  -29.6520  -21.5910   20.7700 C   0  0  0  0  0  3  0  0  0  0  0  0
  -31.3280  -18.2310   23.4090 C   0  0  0  0  0  3  0  0  0  0  0  0
  -30.9060  -19.2830   22.5710 C   0  0  0  0  0  3  0  0  0  0  0  0
  -31.0850  -16.8910   23.0470 C   0  0  0  0  0  3  0  0  0  0  0  0
  -29.9860  -17.6700   21.0090 C   0  0  0  0  0  3  0  0  0  0  0  0
  -30.2500  -19.0200   21.3500 C   0  0  0  0  0  0  0  0  0  0  0  0
  -30.4000  -16.6030   21.8440 C   0  0  0  0  0  0  0  0  0  0  0  0
  -30.5090  -14.5430   20.4750 C   0  0  0  0  0  0  0  0  0  0  0  0
  -30.1800  -12.4940   19.1250 C   0  0  0  0  0  2  0  0  0  0  0  0
  -29.1850  -12.7300   17.9740 C   0  0  0  0  0  2  0  0  0  0  0  0
  -27.7420  -12.4900   18.4550 C   0  0  0  0  0  2  0  0  0  0  0  0
  -27.4160  -13.2720   19.7540 C   0  0  0  0  0  3  0  0  0  0  0  0
  -28.5150  -13.0330   20.8160 C   0  0  0  0  0  2  0  0  0  0  0  0
  -29.8250  -13.3870   20.2370 N   0  0  0  0  0  0  0  0  0  0  0  0
  -31.4920  -14.8930   19.8160 O   0  0  0  0  0  0  0  0  0  0  0  0
  -30.0700  -15.2560   21.5270 N   0  0  0  0  0  0  0  0  0  0  0  0
  -29.3390  -14.8250   22.0710 H   0  0  0  0  0  0  0  0  0  0  0  0
  -25.0130  -13.7660   20.5520 C   0  0  0  0  0  0  0  0  0  0  0  0
  -23.9920  -12.9410   20.9460 C   0  0  0  0  0  0  0  0  0  0  0  0
  -24.5090  -11.6110   20.8760 C   0  0  0  0  0  0  0  0  0  0  0  0
  -26.0880  -12.9350   20.2680 N   0  0  0  0  0  0  0  0  0  0  0  0
  -25.7860  -11.6330   20.5160 N   0  0  0  0  0  0  0  0  0  0  0  0
  -23.8470  -10.3170   21.0750 C   0  0  0  0  0  0  0  0  0  0  0  0
  -24.3180   -9.3890   22.0300 C   0  0  0  0  0  3  0  0  0  0  0  0
  -23.6610   -8.1530   22.2150 C   0  0  0  0  0  3  0  0  0  0  0  0
  -22.5150   -7.8370   21.4460 C   0  0  0  0  0  0  0  0  0  0  0  0
  -22.0670   -8.7510   20.4790 C   0  0  0  0  0  3  0  0  0  0  0  0
  -22.7240   -9.9780   20.2910 C   0  0  0  0  0  3  0  0  0  0  0  0
  -21.8250   -6.6510   21.5400 O   0  0  0  0  0  0  0  0  0  0  0  0
  -21.7610   -5.9480   22.7170 C   0  0  0  0  0  0  0  0  0  0  0  0
  -21.2270   -6.5120   23.8970 C   0  0  0  0  0  3  0  0  0  0  0  0
  -21.1180   -5.7300   25.0640 C   0  0  0  0  0  3  0  0  0  0  0  0
  -21.5280   -4.3820   25.0510 C   0  0  0  0  0  0  0  0  0  0  0  0
  -22.0510   -3.8180   23.8740 C   0  0  0  0  0  3  0  0  0  0  0  0
  -22.1650   -4.5980   22.7110 C   0  0  0  0  0  0  0  0  0  0  0  0
  -22.6550   -4.0420   21.5750 F   0  0  0  0  0  0  0  0  0  0  0  0
  -21.4120   -3.6290   26.1690 F   0  0  0  0  0  0  0  0  0  0  0  0
  -22.5850  -13.3500   21.2750 C   0  0  0  0  0  0  0  0  0  0  0  0
  -21.9210  -12.6150   22.1620 N   0  0  0  0  0  0  0  0  0  0  0  0
  -22.0810  -14.3550   20.7780 O   0  0  0  0  0  0  0  0  0  0  0  0
  -22.3420  -11.8060   22.5940 H   0  0  0  0  0  0  0  0  0  0  0  0
  -20.9750  -12.8660   22.4110 H   0  0  0  0  0  0  0  0  0  0  0  0
  -25.1110  -15.1440   20.4010 N   0  0  0  0  0  0  0  0  0  0  0  0
  -24.3230  -15.7610   20.5650 H   0  0  0  0  0  0  0  0  0  0  0  0
  -25.9350  -15.6330   20.0750 H   0  0  0  0  0  0  0  0  0  0  0  0
  -28.7620  -24.4660   19.6730 C   0  0  0  0  0  3  0  0  0  0  0  0
  -27.8060  -23.5820   18.9700 N   0  0  0  0  0  4  0  0  0  0  0  0
  -27.9810  -23.5770   17.9770 H   0  0  0  0  0  0  0  0  0  0  0  0
  -26.8620  -23.8880   19.1280 H   0  0  0  0  0  0  0  0  0  0  0  0
  -27.8870  -22.6390   19.3140 H   0  0  0  0  0  0  0  0  0  0  0  0
  -28.6990  -25.9220   19.0750 C   0  0  0  0  0  2  0  0  0  0  0  0
  -28.4380  -26.9230   20.0700 O   0  0  0  0  0  0  0  0  0  0  0  0
  -24.5550  -31.9490   23.2640 C   0  0  0  0  0  0  0  0  0  0  0  0
  -27.2240  -27.5860   20.0890 C   0  0  0  0  0  0  0  0  0  0  0  0
  -23.3550  -30.5740   21.5920 C   0  0  0  0  0  3  0  0  0  0  0  0
  -24.8120  -29.0650   20.1430 C   0  0  0  0  0  0  0  0  0  0  0  0
  -25.8740  -30.9550   21.3880 C   0  0  0  0  0  2  0  0  0  0  0  0
  -25.9640  -29.5860   20.7420 C   0  0  0  0  0  0  0  0  0  0  0  0
  -27.1660  -28.8480   20.7300 C   0  0  0  0  0  3  0  0  0  0  0  0
  -26.0410  -27.0640   19.5150 C   0  0  0  0  0  3  0  0  0  0  0  0
  -24.8410  -27.7980   19.5380 C   0  0  0  0  0  3  0  0  0  0  0  0
  -23.5770  -29.9350   20.1950 C   0  0  0  0  0  2  0  0  0  0  0  0
  -24.6150  -31.1730   22.1430 N   0  0  0  0  0  0  0  0  0  0  0  0
  -23.4730  -32.1930   23.8130 O   0  0  0  0  0  0  0  0  0  0  0  0
  -22.7140  -29.5270   22.5320 C   0  0  0  0  0  0  0  0  0  0  0  0
  -21.3890  -29.3400   22.4110 N   0  0  0  0  0  0  0  0  0  0  0  0
  -23.4050  -28.8880   23.3320 O   0  0  0  0  0  0  0  0  0  0  0  0
  -20.8870  -29.9200   21.7530 H   0  0  0  0  0  0  0  0  0  0  0  0
  -18.0290  -28.1000   22.9050 C   0  0  0  0  0  0  0  0  0  0  0  0
  -20.5870  -28.3800   23.1710 C   0  0  0  0  0  3  0  0  0  0  0  0
  -20.6990  -26.9570   22.5740 C   0  0  0  0  0  2  0  0  0  0  0  0
  -19.5970  -26.6370   21.5590 C   0  0  0  0  0  2  0  0  0  0  0  0
  -18.2160  -26.7630   22.2090 C   0  0  0  0  0  2  0  0  0  0  0  0
  -19.1420  -28.8650   23.3460 C   0  0  0  0  0  0  0  0  0  0  0  0
  -18.9130  -30.1170   23.9590 C   0  0  0  0  0  3  0  0  0  0  0  0
  -17.6040  -30.6020   24.1360 C   0  0  0  0  0  3  0  0  0  0  0  0
  -16.5060  -29.8400   23.7020 C   0  0  0  0  0  3  0  0  0  0  0  0
  -16.7190  -28.5880   23.0960 C   0  0  0  0  0  3  0  0  0  0  0  0
  -25.8330  -32.5840   23.8920 C   0  0  0  0  0  3  0  0  0  0  0  0
  -25.5230  -33.9840   24.2090 N   0  0  0  0  0  0  0  0  0  0  0  0
  -25.8680  -35.0300   23.4460 C   0  0  0  0  0  0  0  0  0  0  0  0
  -26.5470  -34.9180   22.4220 O   0  0  0  0  0  0  0  0  0  0  0  0
  -24.9310  -34.1470   25.0090 H   0  0  0  0  0  0  0  0  0  0  0  0
  -24.1530  -36.8310   23.0510 C   0  0  0  0  0  1  0  0  0  0  0  0
  -25.3790  -36.4240   23.8880 C   0  0  0  0  0  3  0  0  0  0  0  0
  -27.5050  -37.3000   24.7500 C   0  0  0  0  0  1  0  0  0  0  0  0
  -26.4180  -37.4710   23.7880 N   0  0  0  0  0  0  0  0  0  0  0  0
  -26.0140  -38.3930   23.9220 H   0  0  0  0  0  0  0  0  0  0  0  0
  -26.3350  -31.8240   25.1790 C   0  0  1  0  0  0  0  0  0  0  0  0
  -25.2370  -31.5950   26.2460 C   0  0  0  0  0  1  0  0  0  0  0  0
  -26.9180  -30.4480   24.7870 C   0  0  0  0  0  1  0  0  0  0  0  0
  -27.4780  -32.6240   25.8480 C   0  0  0  0  0  1  0  0  0  0  0  0
  1  3  1  0
  3  2  1  0
  4  1  2  0
  5  6  1  0
  5  7  1  0
  6  7  1  0
  6 12  1  0
  7  3  1  0
  9  8  2  0
 10  8  1  0
 11 12  2  0
 11 13  1  0
 12  9  1  0
 13 10  2  0
 14 22  1  0
 15 20  1  0
 16 17  1  0
 16 15  1  0
 18 17  1  0
 18 27  1  0
 18 19  1  0
 20 14  1  0
 20 19  1  0
 21 14  2  0
 22 13  1  0
 22 23  1  0
 24 25  2  0
 25 44  1  0
 26 25  1  0
 26 29  1  0
 27 28  1  0
 27 24  1  0
 28 26  2  0
 29 30  1  0
 30 31  2  0
 32 35  1  0
 32 31  1  0
 33 32  2  0
 34 33  1  0
 34 29  2  0
 35 36  1  0
 36 37  1  0
 37 38  2  0
 39 38  1  0
 39 43  1  0
 40 39  2  0
 41 36  2  0
 41 40  1  0
 42 41  1  0
 44 45  1  0
 45 48  1  0
 45 47  1  0
 46 44  2  0
 49 24  1  0
 49 50  1  0
 51 49  1  0
 52 57  1  0
 52  1  1  0
 53 55  1  0
 53 56  1  0
 53 52  1  0
 54 53  1  0
 57 58  1  0
 58 60  1  0
 59 70  2  0
 60 65  1  0
 61 69  1  0
 61 71  1  0
 62 68  1  0
 62 64  1  0
 63 69  1  0
 64 63  1  0
 65 64  2  0
 66 67  1  0
 66 60  2  0
 67 62  2  0
 68 61  1  0
 69 59  1  0
 71 73  2  0
 72 71  1  0
 74 72  1  0
 75 84  2  0
 75 80  1  0
 76 72  1  0
 76 80  1  0
 77 76  1  0
 78 79  1  0
 78 77  1  0
 79 75  1  0
 80 81  2  0
 81 82  1  0
 83 82  2  0
 84 83  1  0
 85 59  1  0
 85 86  1  0
 85 95  1  0
 86 89  1  0
 87 91  1  0
 87 86  1  0
 88 87  2  0
 91 90  1  0
 93 91  1  0
 93 94  1  0
 93 92  1  0
 95 98  1  1
 95 96  1  0
 97 95  1  0
M  ISO  4  14 100  22 100  57 101  58 101
M  END
>  <TORSDO>  (86) 
F 21

>  <SCORE>  (86) 
-12.683

>  <name>  (86) 
85

>  <ligand_id>  (86) 
85

>  <original_smiles>  (86) 
[H]c1c([H])c([H])c2c(c1[H])C([H])([H])C([H])([H])C([H])([H])C2([H])N([H])C(=O)C1([H])N(C(=O)C([H])(N([H])C(=O)C([H])(N([H])C([H])([H])[H])C([H])([H])[H])C(C([H])([H])[H])(C([H])([H])[H])C([H])([H])[H])C([H])([H])c2c([H])c(OC([H])([H])C([H])(C(=O)N(C([H])([H])[H])C3([H])C([H])([H])C3([H])c3c([H])c([H])c([H])c(N([H])C(=O)N4C([H])([H])C([H])([H])C([H])([H])C([H])(n5nc(-c6c([H])c([H])c(Oc7c([H])c([H])c(F)c([H])c7F)c([H])c6[H])c(C(=O)N([H])[H])c5N([H])[H])C4([H])[H])c3[H])[N+]([H])([H])[H])c([H])c([H])c2C1([H])[H]

>  <smiles>  (86) 
[H]c1c([H])c([H])c2c(c1[H])C([H])([H])C([H])([H])C([H])([H])C2([H])N([H])C(=O)C1([H])N(C(=O)C([H])(N([H])C(=O)C([H])(N([H])C([H])([H])[H])C([H])([H])[H])C(C([H])([H])[H])(C([H])([H])[H])C([H])([H])[H])C([H])([H])c2c([H])c(OC([H])([H])C([H])(C(=O)N(C([H])([H])[H])C3([H])C([H])([H])C3([H])c3c([H])c([H])c([H])c(N([H])C(=O)N4C([H])([H])C([H])([H])C([H])([H])C([H])(n5nc(-c6c([H])c([H])c(Oc7c([H])c([H])c(F)c([H])c7F)c([H])c6[H])c(C(=O)N([H])[H])c5N([H])[H])C4([H])[H])c3[H])[N+]([H])([H])[H])c([H])c([H])c2C1([H])[H]

$$$$
86:0:0
     RDKit          3D

 96105  0  0  1  0  0  0  0  0999 V2000
  -28.6880  -22.9270   20.9910 C   0  0  0  0  0  2  0  0  0  0  0  0
  -32.2690  -18.4820   21.2590 C   0  0  0  0  0  3  0  0  0  0  0  0
  -31.8060  -17.1620   21.1440 C   0  0  0  0  0  3  0  0  0  0  0  0
  -29.5370  -17.9850   20.7990 C   0  0  0  0  0  3  0  0  0  0  0  0
  -31.3720  -19.5590   21.1430 C   0  0  0  0  0  0  0  0  0  0  0  0
  -29.9950  -19.3250   20.9290 C   0  0  0  0  0  0  0  0  0  0  0  0
  -30.4430  -16.8900   20.8780 C   0  0  0  0  0  0  0  0  0  0  0  0
  -31.8860  -20.9800   21.2480 C   0  0  0  0  0  2  0  0  0  0  0  0
  -29.0260  -20.5230   20.9280 C   0  0  0  0  0  2  0  0  0  0  0  0
  -30.7810  -21.9580   21.6660 C   0  0  0  0  0  2  0  0  0  0  0  0
  -29.6600  -21.8490   20.7270 N   0  0  0  0  0  0  0  0  0  0  0  0
  -30.6340  -14.5250   20.1120 C   0  0  0  0  0  0  0  0  0  0  0  0
  -30.2500  -12.4050   18.9120 C   0  0  0  0  0  2  0  0  0  0  0  0
  -29.2510  -12.6660   17.7670 C   0  0  0  0  0  2  0  0  0  0  0  0
  -27.7990  -12.5270   18.2670 C   0  0  0  0  0  2  0  0  0  0  0  0
  -27.5380  -13.3120   19.5810 C   0  0  0  0  0  3  0  0  0  0  0  0
  -28.6500  -13.0460   20.6210 C   0  0  0  0  0  2  0  0  0  0  0  0
  -29.9400  -13.3600   19.9880 N   0  0  0  0  0  0  0  0  0  0  0  0
  -31.7290  -14.6900   19.5700 O   0  0  0  0  0  0  0  0  0  0  0  0
  -29.9820  -15.5410   20.7230 N   0  0  0  0  0  0  0  0  0  0  0  0
  -29.0310  -15.3440   20.9960 H   0  0  0  0  0  0  0  0  0  0  0  0
  -25.1730  -13.8970   20.4040 C   0  0  0  0  0  0  0  0  0  0  0  0
  -24.1290  -13.1160   20.8220 C   0  0  0  0  0  0  0  0  0  0  0  0
  -24.5980  -11.7670   20.7600 C   0  0  0  0  0  0  0  0  0  0  0  0
  -26.2110  -13.0240   20.1210 N   0  0  0  0  0  0  0  0  0  0  0  0
  -25.8720  -11.7380   20.3910 N   0  0  0  0  0  0  0  0  0  0  0  0
  -23.8900  -10.5000   20.9800 C   0  0  0  0  0  0  0  0  0  0  0  0
  -24.3550   -9.5450   21.9110 C   0  0  0  0  0  3  0  0  0  0  0  0
  -23.6460   -8.3410   22.1170 C   0  0  0  0  0  3  0  0  0  0  0  0
  -22.4590   -8.0840   21.3920 C   0  0  0  0  0  0  0  0  0  0  0  0
  -22.0130   -9.0270   20.4490 C   0  0  0  0  0  3  0  0  0  0  0  0
  -22.7220  -10.2220   20.2410 C   0  0  0  0  0  3  0  0  0  0  0  0
  -21.7180   -6.9310   21.5070 O   0  0  0  0  0  0  0  0  0  0  0  0
  -21.6900   -6.2080   22.6720 C   0  0  0  0  0  0  0  0  0  0  0  0
  -21.2670   -6.7770   23.8930 C   0  0  0  0  0  3  0  0  0  0  0  0
  -21.1870   -5.9790   25.0500 C   0  0  0  0  0  3  0  0  0  0  0  0
  -21.5210   -4.6120   24.9900 C   0  0  0  0  0  0  0  0  0  0  0  0
  -21.9380   -4.0430   23.7740 C   0  0  0  0  0  3  0  0  0  0  0  0
  -22.0210   -4.8380   22.6180 C   0  0  0  0  0  0  0  0  0  0  0  0
  -22.4030   -4.2800   21.4440 F   0  0  0  0  0  0  0  0  0  0  0  0
  -21.4370   -3.8440   26.1010 F   0  0  0  0  0  0  0  0  0  0  0  0
  -22.7440  -13.5830   21.1620 C   0  0  0  0  0  0  0  0  0  0  0  0
  -22.0600  -12.8730   22.0530 N   0  0  0  0  0  0  0  0  0  0  0  0
  -22.2760  -14.6110   20.6740 O   0  0  0  0  0  0  0  0  0  0  0  0
  -22.4510  -12.0400   22.4700 H   0  0  0  0  0  0  0  0  0  0  0  0
  -21.1320  -13.1650   22.3240 H   0  0  0  0  0  0  0  0  0  0  0  0
  -25.3190  -15.2680   20.2210 N   0  0  0  0  0  0  0  0  0  0  0  0
  -24.5510  -15.9160   20.3600 H   0  0  0  0  0  0  0  0  0  0  0  0
  -26.1370  -15.7100   19.8210 H   0  0  0  0  0  0  0  0  0  0  0  0
  -29.1330  -24.3240   20.4550 C   0  0  0  0  0  3  0  0  0  0  0  0
  -29.3170  -24.2450   18.9950 N   0  0  0  0  0  4  0  0  0  0  0  0
  -28.4500  -24.0650   18.5170 H   0  0  0  0  0  0  0  0  0  0  0  0
  -29.9500  -23.4890   18.7970 H   0  0  0  0  0  0  0  0  0  0  0  0
  -29.7090  -25.1000   18.6400 H   0  0  0  0  0  0  0  0  0  0  0  0
  -28.1050  -25.4260   20.8310 C   0  0  0  0  0  2  0  0  0  0  0  0
  -28.3280  -26.7110   20.2010 O   0  0  0  0  0  0  0  0  0  0  0  0
  -24.5790  -31.9460   23.2550 C   0  0  0  0  0  0  0  0  0  0  0  0
  -27.1950  -27.4990   20.1650 C   0  0  0  0  0  0  0  0  0  0  0  0
  -23.3610  -30.5450   21.6200 C   0  0  0  0  0  3  0  0  0  0  0  0
  -24.8070  -29.0160   20.1810 C   0  0  0  0  0  0  0  0  0  0  0  0
  -25.8870  -30.9080   21.4020 C   0  0  0  0  0  2  0  0  0  0  0  0
  -25.9710  -29.5390   20.7580 C   0  0  0  0  0  0  0  0  0  0  0  0
  -27.1730  -28.7900   20.7430 C   0  0  0  0  0  3  0  0  0  0  0  0
  -26.0190  -27.0060   19.5570 C   0  0  0  0  0  3  0  0  0  0  0  0
  -24.8250  -27.7500   19.5760 C   0  0  0  0  0  3  0  0  0  0  0  0
  -23.5610  -29.8690   20.2390 C   0  0  0  0  0  2  0  0  0  0  0  0
  -24.6270  -31.1470   22.1510 N   0  0  0  0  0  0  0  0  0  0  0  0
  -23.5000  -32.2170   23.8030 O   0  0  0  0  0  0  0  0  0  0  0  0
  -22.7200  -29.5190   22.5860 C   0  0  0  0  0  0  0  0  0  0  0  0
  -21.3950  -29.3330   22.4690 N   0  0  0  0  0  0  0  0  0  0  0  0
  -23.4130  -28.8990   23.3970 O   0  0  0  0  0  0  0  0  0  0  0  0
  -20.8990  -29.8880   21.7860 H   0  0  0  0  0  0  0  0  0  0  0  0
  -18.0330  -28.1110   22.9640 C   0  0  0  0  0  0  0  0  0  0  0  0
  -20.5870  -28.3920   23.2440 C   0  0  0  0  0  3  0  0  0  0  0  0
  -20.7030  -26.9580   22.6770 C   0  0  0  0  0  2  0  0  0  0  0  0
  -19.6070  -26.6190   21.6630 C   0  0  0  0  0  2  0  0  0  0  0  0
  -18.2220  -26.7580   22.3010 C   0  0  0  0  0  2  0  0  0  0  0  0
  -19.1430  -28.8850   23.3930 C   0  0  0  0  0  0  0  0  0  0  0  0
  -18.9110  -30.1520   23.9720 C   0  0  0  0  0  3  0  0  0  0  0  0
  -17.6020  -30.6440   24.1290 C   0  0  0  0  0  3  0  0  0  0  0  0
  -16.5060  -29.8650   23.7190 C   0  0  0  0  0  3  0  0  0  0  0  0
  -16.7220  -28.6020   23.1410 C   0  0  0  0  0  3  0  0  0  0  0  0
  -25.8670  -32.5800   23.8640 C   0  0  0  0  0  3  0  0  0  0  0  0
  -26.3940  -31.8130   25.1390 C   0  0  1  0  0  0  0  0  0  0  0  0
  -25.3090  -31.5800   26.2170 C   0  0  0  0  0  1  0  0  0  0  0  0
  -26.9730  -30.4350   24.7460 C   0  0  0  0  0  1  0  0  0  0  0  0
  -27.5470  -32.6110   25.7920 C   0  0  0  0  0  1  0  0  0  0  0  0
  -25.5590  -33.9790   24.1900 N   0  0  0  0  0  0  0  0  0  0  0  0
  -25.8980  -35.0280   23.4310 C   0  0  0  0  0  0  0  0  0  0  0  0
  -26.5720  -34.9220   22.4030 O   0  0  0  0  0  0  0  0  0  0  0  0
  -24.9600  -34.1360   24.9870 H   0  0  0  0  0  0  0  0  0  0  0  0
  -24.1790  -36.8260   23.0620 C   0  0  0  0  0  1  0  0  0  0  0  0
  -25.4100  -36.4170   23.8840 C   0  0  0  0  0  3  0  0  0  0  0  0
  -27.5410  -37.2910   24.7340 C   0  0  0  0  0  1  0  0  0  0  0  0
  -26.4470  -37.4680   23.7830 N   0  0  0  0  0  0  0  0  0  0  0  0
  -26.0410  -38.3880   23.9330 H   0  0  0  0  0  0  0  0  0  0  0  0
  3  2  1  0
  4  7  1  0
  4  6  2  0
  5  8  1  0
  5  2  2  0
  6  5  1  0
  7  3  2  0
  8 10  1  0
  9  6  1  0
 11  9  1  0
 11  1  1  0
 11 10  1  0
 12 20  1  0
 13 18  1  0
 14 15  1  0
 14 13  1  0
 16 15  1  0
 16 25  1  0
 16 17  1  0
 18 12  1  0
 18 17  1  0
 19 12  2  0
 20  7  1  0
 20 21  1  0
 22 23  2  0
 23 42  1  0
 24 23  1  0
 24 27  1  0
 25 26  1  0
 25 22  1  0
 26 24  2  0
 27 28  1  0
 28 29  2  0
 30 33  1  0
 30 29  1  0
 31 30  2  0
 32 31  1  0
 32 27  2  0
 33 34  1  0
 34 35  1  0
 35 36  2  0
 37 36  1  0
 37 41  1  0
 38 37  2  0
 39 34  2  0
 39 38  1  0
 40 39  1  0
 42 43  1  0
 43 46  1  0
 43 45  1  0
 44 42  2  0
 47 48  1  0
 47 22  1  0
 49 47  1  0
 50 55  1  0
 50  1  1  0
 51 50  1  0
 52 51  1  0
 53 51  1  0
 54 51  1  0
 56 55  1  0
 57 68  2  0
 58 56  1  0
 58 63  1  0
 59 67  1  0
 59 69  1  0
 60 66  1  0
 60 62  1  0
 61 67  1  0
 62 61  1  0
 63 62  2  0
 64 65  1  0
 64 58  2  0
 65 60  2  0
 66 59  1  0
 67 57  1  0
 69 71  2  0
 70 69  1  0
 72 70  1  0
 73 82  2  0
 73 78  1  0
 74 70  1  0
 74 78  1  0
 75 74  1  0
 76 77  1  0
 76 75  1  0
 77 73  1  0
 78 79  2  0
 79 80  1  0
 81 80  2  0
 82 81  1  0
 83 57  1  0
 83 88  1  0
 83 84  1  0
 84 87  1  1
 84 85  1  0
 86 84  1  0
 88 91  1  0
 89 93  1  0
 89 88  1  0
 90 89  2  0
 93 92  1  0
 95 93  1  0
 95 96  1  0
 95 94  1  0
M  ISO  4  12 100  20 100  55 101  56 101
M  END
>  <TORSDO>  (87) 
F 20

>  <SCORE>  (87) 
-14.147

>  <name>  (87) 
86

>  <ligand_id>  (87) 
86

>  <original_smiles>  (87) 
[H]c1c([H])c([H])c2c(c1[H])C([H])([H])C([H])([H])C([H])([H])C2([H])N([H])C(=O)C1([H])N(C(=O)C([H])(N([H])C(=O)C([H])(N([H])C([H])([H])[H])C([H])([H])[H])C(C([H])([H])[H])(C([H])([H])[H])C([H])([H])[H])C([H])([H])c2c([H])c(OC([H])([H])C([H])(C([H])([H])N3C([H])([H])c4c([H])c(N([H])C(=O)N5C([H])([H])C([H])([H])C([H])([H])C([H])(n6nc(-c7c([H])c([H])c(Oc8c([H])c([H])c(F)c([H])c8F)c([H])c7[H])c(C(=O)N([H])[H])c6N([H])[H])C5([H])[H])c([H])c([H])c4C([H])([H])C3([H])[H])[N+]([H])([H])[H])c([H])c([H])c2C1([H])[H]

>  <smiles>  (87) 
[H]c1c([H])c([H])c2c(c1[H])C([H])([H])C([H])([H])C([H])([H])C2([H])N([H])C(=O)C1([H])N(C(=O)C([H])(N([H])C(=O)C([H])(N([H])C([H])([H])[H])C([H])([H])[H])C(C([H])([H])[H])(C([H])([H])[H])C([H])([H])[H])C([H])([H])c2c([H])c(OC([H])([H])C([H])(C([H])([H])N3C([H])([H])c4c([H])c(N([H])C(=O)N5C([H])([H])C([H])([H])C([H])([H])C([H])(n6nc(-c7c([H])c([H])c(Oc8c([H])c([H])c(F)c([H])c8F)c([H])c7[H])c(C(=O)N([H])[H])c6N([H])[H])C5([H])[H])c([H])c([H])c4C([H])([H])C3([H])[H])[N+]([H])([H])[H])c([H])c([H])c2C1([H])[H]

$$$$
87:0:0
     RDKit          3D

102111  0  0  1  0  0  0  0  0999 V2000
  -31.4450  -21.1920   19.5920 C   0  0  0  0  0  2  0  0  0  0  0  0
  -31.3780  -22.4600   20.4630 C   0  0  0  0  0  2  0  0  0  0  0  0
  -31.4090  -21.0510   22.4530 C   0  0  0  0  0  2  0  0  0  0  0  0
  -31.8090  -19.8850   20.3560 C   0  0  0  0  0  3  0  0  0  0  0  0
  -30.6200  -22.1950   21.7800 C   0  0  1  0  0  0  0  0  0  0  0  0
  -30.6940  -23.4150   22.7170 C   0  0  0  0  0  1  0  0  0  0  0  0
  -31.2680  -19.8740   21.6800 O   0  0  0  0  0  0  0  0  0  0  0  0
  -30.3620  -17.5560   17.6440 C   0  0  0  0  0  3  0  0  0  0  0  0
  -30.9520  -18.6760   18.2600 C   0  0  0  0  0  3  0  0  0  0  0  0
  -30.1090  -16.3920   18.3910 C   0  0  0  0  0  3  0  0  0  0  0  0
  -31.0790  -17.4440   20.3630 C   0  0  0  0  0  3  0  0  0  0  0  0
  -31.2850  -18.6420   19.6340 C   0  0  0  0  0  0  0  0  0  0  0  0
  -30.4890  -16.3230   19.7460 C   0  0  0  0  0  0  0  0  0  0  0  0
  -30.9850  -14.0220   20.1720 C   0  0  0  0  0  0  0  0  0  0  0  0
  -30.5210  -11.8780   19.0890 C   0  0  0  0  0  2  0  0  0  0  0  0
  -29.5380  -12.1560   17.9330 C   0  0  0  0  0  2  0  0  0  0  0  0
  -28.0850  -12.0720   18.4400 C   0  0  0  0  0  2  0  0  0  0  0  0
  -27.8440  -12.9120   19.7230 C   0  0  0  0  0  3  0  0  0  0  0  0
  -28.9500  -12.6600   20.7750 C   0  0  0  0  0  2  0  0  0  0  0  0
  -30.2570  -12.8780   20.1310 N   0  0  0  0  0  0  0  0  0  0  0  0
  -32.1380  -14.1110   19.7450 O   0  0  0  0  0  0  0  0  0  0  0  0
  -30.2830  -15.1230   20.4680 N   0  0  0  0  0  0  0  0  0  0  0  0
  -29.3350  -14.9350   20.7530 H   0  0  0  0  0  0  0  0  0  0  0  0
  -25.5020  -13.5890   20.5520 C   0  0  0  0  0  0  0  0  0  0  0  0
  -24.4330  -12.8490   20.9750 C   0  0  0  0  0  0  0  0  0  0  0  0
  -24.8490  -11.4840   20.9170 C   0  0  0  0  0  0  0  0  0  0  0  0
  -26.5090  -12.6780   20.2700 N   0  0  0  0  0  0  0  0  0  0  0  0
  -26.1210  -11.4060   20.5450 N   0  0  0  0  0  0  0  0  0  0  0  0
  -24.0960  -10.2440   21.1410 C   0  0  0  0  0  0  0  0  0  0  0  0
  -24.4950   -9.3050   22.1170 C   0  0  0  0  0  3  0  0  0  0  0  0
  -23.7470   -8.1270   22.3260 C   0  0  0  0  0  3  0  0  0  0  0  0
  -22.5840   -7.8790   21.5560 C   0  0  0  0  0  0  0  0  0  0  0  0
  -22.2050   -8.8060   20.5680 C   0  0  0  0  0  3  0  0  0  0  0  0
  -22.9550   -9.9760   20.3600 C   0  0  0  0  0  3  0  0  0  0  0  0
  -21.8090   -6.7500   21.6720 O   0  0  0  0  0  0  0  0  0  0  0  0
  -21.7040   -6.0690   22.8570 C   0  0  0  0  0  0  0  0  0  0  0  0
  -21.1560   -6.6660   24.0130 C   0  0  0  0  0  3  0  0  0  0  0  0
  -21.0000   -5.9080   25.1910 C   0  0  0  0  0  3  0  0  0  0  0  0
  -21.3810   -4.5530   25.2130 C   0  0  0  0  0  0  0  0  0  0  0  0
  -21.9220   -3.9550   24.0600 C   0  0  0  0  0  3  0  0  0  0  0  0
  -22.0790   -4.7110   22.8850 C   0  0  0  0  0  0  0  0  0  0  0  0
  -22.5810   -4.1240   21.7720 F   0  0  0  0  0  0  0  0  0  0  0  0
  -21.2250   -3.8220   26.3400 F   0  0  0  0  0  0  0  0  0  0  0  0
  -23.0650  -13.3650   21.3210 C   0  0  0  0  0  0  0  0  0  0  0  0
  -22.3560  -12.6800   22.2090 N   0  0  0  0  0  0  0  0  0  0  0  0
  -22.6350  -14.4120   20.8370 O   0  0  0  0  0  0  0  0  0  0  0  0
  -22.7170  -11.8330   22.6240 H   0  0  0  0  0  0  0  0  0  0  0  0
  -21.4390  -13.0040   22.4820 H   0  0  0  0  0  0  0  0  0  0  0  0
  -25.6950  -14.9570   20.3700 N   0  0  0  0  0  0  0  0  0  0  0  0
  -24.9460  -15.6250   20.5090 H   0  0  0  0  0  0  0  0  0  0  0  0
  -26.5360  -15.3790   19.9960 H   0  0  0  0  0  0  0  0  0  0  0  0
  -29.1400  -21.7120   21.5950 C   0  0  0  0  0  2  0  0  0  0  0  0
  -26.7550  -22.1820   21.7740 C   0  0  0  0  0  1  0  0  0  0  0  0
  -28.0810  -22.7480   21.4190 N   0  0  2  0  0  4  0  0  0  0  0  0
  -28.2850  -23.5140   22.0520 H   0  0  0  0  0  0  0  0  0  0  0  0
  -28.0640  -23.4330   20.0970 C   0  0  0  0  0  2  0  0  0  0  0  0
  -26.3710  -25.2700   20.7230 C   0  0  0  0  0  1  0  0  0  0  0  0
  -27.8060  -24.9610   20.2430 C   0  0  1  0  0  0  0  0  0  0  0  0
  -28.7020  -25.4400   21.2300 O   0  0  0  0  0  0  0  0  0  0  0  0
  -28.7910  -26.3760   21.0720 H   0  0  0  0  0  0  0  0  0  0  0  0
  -28.1960  -25.7040   18.9340 C   0  0  0  0  0  2  0  0  0  0  0  0
  -28.2270  -27.1280   19.0820 O   0  0  0  0  0  0  0  0  0  0  0  0
  -24.5940  -31.5700   23.2350 C   0  0  0  0  0  0  0  0  0  0  0  0
  -27.0520  -27.8340   19.2200 C   0  0  0  0  0  0  0  0  0  0  0  0
  -23.3160  -30.5860   21.3590 C   0  0  0  0  0  3  0  0  0  0  0  0
  -24.6960  -29.3480   19.6110 C   0  0  0  0  0  0  0  0  0  0  0  0
  -25.8480  -30.9090   21.1920 C   0  0  0  0  0  2  0  0  0  0  0  0
  -25.8780  -29.7130   20.2670 C   0  0  0  0  0  0  0  0  0  0  0  0
  -27.0570  -28.9660   20.0650 C   0  0  0  0  0  3  0  0  0  0  0  0
  -25.8490  -27.4790   18.5680 C   0  0  0  0  0  3  0  0  0  0  0  0
  -24.6730  -28.2280   18.7630 C   0  0  0  0  0  3  0  0  0  0  0  0
  -23.4800  -30.2100   19.8630 C   0  0  0  0  0  2  0  0  0  0  0  0
  -24.6050  -31.0230   21.9880 N   0  0  0  0  0  0  0  0  0  0  0  0
  -23.5310  -31.7500   23.8450 O   0  0  0  0  0  0  0  0  0  0  0  0
  -22.6500  -29.4020   22.0910 C   0  0  0  0  0  0  0  0  0  0  0  0
  -21.3150  -29.3160   21.9950 N   0  0  0  0  0  0  0  0  0  0  0  0
  -23.3300  -28.5730   22.7040 O   0  0  0  0  0  0  0  0  0  0  0  0
  -20.8320  -30.0380   21.4780 H   0  0  0  0  0  0  0  0  0  0  0  0
  -17.8910  -28.2730   22.4830 C   0  0  0  0  0  0  0  0  0  0  0  0
  -20.4740  -28.2680   22.5710 C   0  0  0  0  0  3  0  0  0  0  0  0
  -20.4030  -27.0390   21.6380 C   0  0  0  0  0  2  0  0  0  0  0  0
  -19.2050  -27.0720   20.6840 C   0  0  0  0  0  2  0  0  0  0  0  0
  -17.8920  -27.1390   21.4710 C   0  0  0  0  0  2  0  0  0  0  0  0
  -19.1030  -28.8130   22.9870 C   0  0  0  0  0  0  0  0  0  0  0  0
  -19.0470  -29.8880   23.9000 C   0  0  0  0  0  3  0  0  0  0  0  0
  -17.8110  -30.4210   24.3110 C   0  0  0  0  0  3  0  0  0  0  0  0
  -16.6130  -29.8710   23.8220 C   0  0  0  0  0  3  0  0  0  0  0  0
  -16.6540  -28.7970   22.9150 C   0  0  0  0  0  3  0  0  0  0  0  0
  -25.9110  -32.0120   23.9460 C   0  0  0  0  0  3  0  0  0  0  0  0
  -25.6800  -33.3490   24.5090 N   0  0  0  0  0  0  0  0  0  0  0  0
  -26.0950  -34.4920   23.9490 C   0  0  0  0  0  0  0  0  0  0  0  0
  -26.7860  -34.5250   22.9270 O   0  0  0  0  0  0  0  0  0  0  0  0
  -25.0720  -33.4010   25.3140 H   0  0  0  0  0  0  0  0  0  0  0  0
  -24.5110  -36.4420   23.8580 C   0  0  0  0  0  1  0  0  0  0  0  0
  -25.6780  -35.8090   24.6310 C   0  0  0  0  0  3  0  0  0  0  0  0
  -27.8090  -36.3780   25.7110 C   0  0  0  0  0  1  0  0  0  0  0  0
  -26.7830  -36.7830   24.7520 N   0  0  0  0  0  0  0  0  0  0  0  0
  -26.4320  -37.6950   25.0300 H   0  0  0  0  0  0  0  0  0  0  0  0
  -26.3830  -31.0080   25.0680 C   0  0  1  0  0  0  0  0  0  0  0  0
  -25.2780  -30.6580   26.0910 C   0  0  0  0  0  1  0  0  0  0  0  0
  -26.8860  -29.6840   24.4430 C   0  0  0  0  0  1  0  0  0  0  0  0
  -27.5790  -31.6110   25.8420 C   0  0  0  0  0  1  0  0  0  0  0  0
  1  4  1  0
  1  2  1  0
  2  5  1  0
  4 12  1  0
  4  7  1  0
  5  3  1  0
  5  6  1  1
  7  3  1  0
  8  9  2  0
  8 10  1  0
  9 12  1  0
 10 13  2  0
 12 11  2  0
 13 11  1  0
 13 22  1  0
 14 22  1  0
 15 20  1  0
 16 17  1  0
 16 15  1  0
 18 17  1  0
 18 27  1  0
 18 19  1  0
 20 14  1  0
 20 19  1  0
 21 14  2  0
 22 23  1  0
 24 25  2  0
 25 44  1  0
 26 25  1  0
 26 29  1  0
 27 28  1  0
 27 24  1  0
 28 26  2  0
 29 30  1  0
 30 31  2  0
 32 35  1  0
 32 31  1  0
 33 32  2  0
 34 33  1  0
 34 29  2  0
 35 36  1  0
 36 41  2  0
 36 37  1  0
 37 38  2  0
 38 39  1  0
 39 43  1  0
 40 39  2  0
 41 40  1  0
 42 41  1  0
 44 45  1  0
 45 48  1  0
 45 47  1  0
 46 44  2  0
 49 50  1  0
 49 24  1  0
 51 49  1  0
 52  5  1  0
 54 52  1  0
 54 53  1  0
 54 55  1  1
 56 58  1  0
 56 54  1  0
 58 57  1  1
 58 59  1  0
 60 59  1  0
 61 62  1  0
 61 58  1  0
 62 64  1  0
 63 74  2  0
 64 69  1  0
 65 73  1  0
 65 75  1  0
 66 72  1  0
 66 68  1  0
 67 73  1  0
 68 67  1  0
 69 68  2  0
 70 71  1  0
 70 64  2  0
 71 66  2  0
 72 65  1  0
 73 63  1  0
 75 77  2  0
 76 75  1  0
 78 76  1  0
 79 88  2  0
 79 84  1  0
 80 76  1  0
 80 84  1  0
 81 80  1  0
 82 83  1  0
 82 81  1  0
 83 79  1  0
 84 85  2  0
 85 86  1  0
 87 86  2  0
 88 87  1  0
 89 63  1  0
 89 90  1  0
 89 99  1  0
 90 93  1  0
 91 90  1  0
 91 95  1  0
 92 91  2  0
 95 94  1  0
 95 97  1  0
 97 98  1  0
 97 96  1  0
 99102  1  1
 99100  1  0
101 99  1  0
M  ISO  4  14 100  22 100  61 101  62 101
M  END
>  <TORSDO>  (88) 
F 23

>  <SCORE>  (88) 
-10.098

>  <name>  (88) 
87

>  <ligand_id>  (88) 
87

>  <original_smiles>  (88) 
[H]OC(C([H])([H])[H])(C([H])([H])Oc1c([H])c([H])c2c(c1[H])C([H])([H])N(C(=O)C([H])(N([H])C(=O)C([H])(N([H])C([H])([H])[H])C([H])([H])[H])C(C([H])([H])[H])(C([H])([H])[H])C([H])([H])[H])C([H])(C(=O)N([H])C1([H])c3c([H])c([H])c([H])c([H])c3C([H])([H])C([H])([H])C1([H])[H])C2([H])[H])C([H])([H])[N+]([H])(C([H])([H])[H])C([H])([H])C1(C([H])([H])[H])C([H])([H])OC([H])(c2c([H])c([H])c([H])c(N([H])C(=O)N3C([H])([H])C([H])([H])C([H])([H])C([H])(n4nc(-c5c([H])c([H])c(Oc6c([H])c([H])c(F)c([H])c6F)c([H])c5[H])c(C(=O)N([H])[H])c4N([H])[H])C3([H])[H])c2[H])C([H])([H])C1([H])[H]

>  <smiles>  (88) 
[H]OC(C([H])([H])[H])(C([H])([H])Oc1c([H])c([H])c2c(c1[H])C([H])([H])N(C(=O)C([H])(N([H])C(=O)C([H])(N([H])C([H])([H])[H])C([H])([H])[H])C(C([H])([H])[H])(C([H])([H])[H])C([H])([H])[H])C([H])(C(=O)N([H])C1([H])c3c([H])c([H])c([H])c([H])c3C([H])([H])C([H])([H])C1([H])[H])C2([H])[H])C([H])([H])[N+]([H])(C([H])([H])[H])C([H])([H])C1(C([H])([H])[H])C([H])([H])OC([H])(c2c([H])c([H])c([H])c(N([H])C(=O)N3C([H])([H])C([H])([H])C([H])([H])C([H])(n4nc(-c5c([H])c([H])c(Oc6c([H])c([H])c(F)c([H])c6F)c([H])c5[H])c(C(=O)N([H])[H])c4N([H])[H])C3([H])[H])c2[H])C([H])([H])C1([H])[H]

$$$$
88:0:0
     RDKit          3D

 92100  0  0  1  0  0  0  0  0999 V2000
  -30.7860  -19.2450   18.3060 C   0  0  0  0  0  3  0  0  0  0  0  0
  -29.1640  -19.0400   20.4970 C   0  0  0  0  0  3  0  0  0  0  0  0
  -30.1440  -20.4250   18.7580 C   0  0  0  0  0  0  0  0  0  0  0  0
  -29.3060  -20.4310   19.9130 C   0  0  0  0  0  0  0  0  0  0  0  0
  -29.8310  -17.7590   20.0320 C   0  0  0  0  0  0  0  0  0  0  0  0
  -30.6370  -17.9730   18.8910 C   0  0  0  0  0  0  0  0  0  0  0  0
  -30.3390  -21.6500   17.8760 C   0  0  0  0  0  1  0  0  0  0  0  0
  -31.2340  -16.9350   18.2610 F   0  0  0  0  0  0  0  0  0  0  0  0
  -30.4470  -15.0610   20.3290 C   0  0  0  0  0  0  0  0  0  0  0  0
  -30.3550  -12.6710   19.4400 C   0  0  0  0  0  2  0  0  0  0  0  0
  -29.4350  -12.5990   18.1980 C   0  0  0  0  0  2  0  0  0  0  0  0
  -27.9740  -12.3700   18.6280 C   0  0  0  0  0  2  0  0  0  0  0  0
  -27.5550  -13.3000   19.7970 C   0  0  0  0  0  3  0  0  0  0  0  0
  -28.6050  -13.3460   20.9280 C   0  0  0  0  0  2  0  0  0  0  0  0
  -29.8650  -13.7830   20.3150 N   0  0  0  0  0  0  0  0  0  0  0  0
  -31.6550  -15.0850   20.0700 O   0  0  0  0  0  0  0  0  0  0  0  0
  -29.6810  -16.2750   20.5120 N   0  0  0  0  0  0  0  0  0  0  0  0
  -28.7810  -16.0910   20.9270 H   0  0  0  0  0  0  0  0  0  0  0  0
  -25.1780  -13.8680   20.5420 C   0  0  0  0  0  0  0  0  0  0  0  0
  -24.1150  -13.0930   20.9120 C   0  0  0  0  0  0  0  0  0  0  0  0
  -24.5800  -11.7420   20.8770 C   0  0  0  0  0  0  0  0  0  0  0  0
  -26.2210  -12.9930   20.2960 N   0  0  0  0  0  0  0  0  0  0  0  0
  -25.8710  -11.7070   20.5640 N   0  0  0  0  0  0  0  0  0  0  0  0
  -23.8520  -10.4800   21.0630 C   0  0  0  0  0  0  0  0  0  0  0  0
  -24.2880   -9.5050   21.9890 C   0  0  0  0  0  3  0  0  0  0  0  0
  -23.5600   -8.3090   22.1640 C   0  0  0  0  0  3  0  0  0  0  0  0
  -22.3830   -8.0780   21.4150 C   0  0  0  0  0  0  0  0  0  0  0  0
  -21.9640   -9.0420   20.4800 C   0  0  0  0  0  3  0  0  0  0  0  0
  -22.6930  -10.2300   20.3030 C   0  0  0  0  0  3  0  0  0  0  0  0
  -21.6250   -6.9350   21.5010 O   0  0  0  0  0  0  0  0  0  0  0  0
  -21.5850   -6.1820   22.6470 C   0  0  0  0  0  0  0  0  0  0  0  0
  -21.1640   -6.7250   23.8810 C   0  0  0  0  0  3  0  0  0  0  0  0
  -21.0740   -5.8980   25.0190 C   0  0  0  0  0  3  0  0  0  0  0  0
  -21.3910   -4.5310   24.9240 C   0  0  0  0  0  0  0  0  0  0  0  0
  -21.8040   -3.9870   23.6950 C   0  0  0  0  0  3  0  0  0  0  0  0
  -21.8980   -4.8110   22.5600 C   0  0  0  0  0  0  0  0  0  0  0  0
  -22.2770   -4.2780   21.3730 F   0  0  0  0  0  0  0  0  0  0  0  0
  -21.2960   -3.7350   26.0150 F   0  0  0  0  0  0  0  0  0  0  0  0
  -22.7180  -13.5720   21.1800 C   0  0  0  0  0  0  0  0  0  0  0  0
  -21.9890  -12.8790   22.0470 N   0  0  0  0  0  0  0  0  0  0  0  0
  -22.2820  -14.5950   20.6560 O   0  0  0  0  0  0  0  0  0  0  0  0
  -22.3550  -12.0540   22.4980 H   0  0  0  0  0  0  0  0  0  0  0  0
  -21.0510  -13.1840   22.2660 H   0  0  0  0  0  0  0  0  0  0  0  0
  -25.3420  -15.2390   20.3630 N   0  0  0  0  0  0  0  0  0  0  0  0
  -24.5660  -15.8860   20.4530 H   0  0  0  0  0  0  0  0  0  0  0  0
  -26.1770  -15.6700   19.9870 H   0  0  0  0  0  0  0  0  0  0  0  0
  -28.8810  -23.1850   20.2490 C   0  0  0  0  0  0  0  0  0  0  0  0
  -28.5600  -21.7690   20.2690 N   0  0  0  0  0  0  0  0  0  0  0  0
  -30.0670  -23.5080   20.3400 O   0  0  0  0  0  0  0  0  0  0  0  0
  -27.5810  -21.6230   20.4790 H   0  0  0  0  0  0  0  0  0  0  0  0
  -27.7970  -24.4770   20.1490 C   0  0  0  0  0  2  0  0  0  0  0  0
  -28.1640  -26.0250   20.2610 O   0  0  0  0  0  0  0  0  0  0  0  0
  -24.6140  -31.8550   23.2500 C   0  0  0  0  0  0  0  0  0  0  0  0
  -27.1490  -27.0760   20.2020 C   0  0  0  0  0  0  0  0  0  0  0  0
  -23.4100  -30.4750   21.6060 C   0  0  0  0  0  3  0  0  0  0  0  0
  -24.8490  -28.8900   20.1740 C   0  0  0  0  0  0  0  0  0  0  0  0
  -25.9720  -30.7020   21.4530 C   0  0  0  0  0  2  0  0  0  0  0  0
  -26.0350  -29.3080   20.7900 C   0  0  0  0  0  0  0  0  0  0  0  0
  -27.1870  -28.4200   20.7830 C   0  0  0  0  0  3  0  0  0  0  0  0
  -25.9360  -26.7840   19.5420 C   0  0  0  0  0  3  0  0  0  0  0  0
  -24.8160  -27.6440   19.5330 C   0  0  0  0  0  3  0  0  0  0  0  0
  -23.6310  -29.8040   20.2240 C   0  0  0  0  0  2  0  0  0  0  0  0
  -24.6860  -31.0340   22.1570 N   0  0  0  0  0  0  0  0  0  0  0  0
  -23.5290  -32.1440   23.7780 O   0  0  0  0  0  0  0  0  0  0  0  0
  -22.7190  -29.4690   22.5620 C   0  0  0  0  0  0  0  0  0  0  0  0
  -21.3910  -29.3040   22.4310 N   0  0  0  0  0  0  0  0  0  0  0  0
  -23.3850  -28.8390   23.3890 O   0  0  0  0  0  0  0  0  0  0  0  0
  -20.9100  -29.8660   21.7430 H   0  0  0  0  0  0  0  0  0  0  0  0
  -18.0050  -28.1020   22.9160 C   0  0  0  0  0  0  0  0  0  0  0  0
  -20.5630  -28.3680   23.1980 C   0  0  0  0  0  3  0  0  0  0  0  0
  -20.6680  -26.9350   22.6270 C   0  0  0  0  0  2  0  0  0  0  0  0
  -19.5730  -26.6100   21.6050 C   0  0  0  0  0  2  0  0  0  0  0  0
  -18.1880  -26.7540   22.2400 C   0  0  0  0  0  2  0  0  0  0  0  0
  -19.1210  -28.8670   23.3510 C   0  0  0  0  0  0  0  0  0  0  0  0
  -18.8940  -30.1280   23.9460 C   0  0  0  0  0  3  0  0  0  0  0  0
  -17.5880  -30.6240   24.1060 C   0  0  0  0  0  3  0  0  0  0  0  0
  -16.4870  -29.8570   23.6860 C   0  0  0  0  0  3  0  0  0  0  0  0
  -16.6980  -28.5980   23.0970 C   0  0  0  0  0  3  0  0  0  0  0  0
  -25.8930  -32.4840   23.8830 C   0  0  0  0  0  3  0  0  0  0  0  0
  -25.5860  -33.8840   24.2170 N   0  0  0  0  0  0  0  0  0  0  0  0
  -25.9140  -34.9410   23.4620 C   0  0  0  0  0  0  0  0  0  0  0  0
  -26.5690  -34.8380   22.4210 O   0  0  0  0  0  0  0  0  0  0  0  0
  -25.0000  -34.0370   25.0240 H   0  0  0  0  0  0  0  0  0  0  0  0
  -24.1800  -36.7410   23.1530 C   0  0  0  0  0  1  0  0  0  0  0  0
  -25.4400  -36.3320   23.9320 C   0  0  0  0  0  3  0  0  0  0  0  0
  -27.5950  -37.2140   24.7110 C   0  0  0  0  0  1  0  0  0  0  0  0
  -26.4710  -37.3840   23.7950 N   0  0  0  0  0  0  0  0  0  0  0  0
  -26.0690  -38.3050   23.9530 H   0  0  0  0  0  0  0  0  0  0  0  0
  -26.3920  -31.7120   25.1670 C   0  0  1  0  0  0  0  0  0  0  0  0
  -25.2890  -31.4890   26.2280 C   0  0  0  0  0  1  0  0  0  0  0  0
  -26.9620  -30.3260   24.7890 C   0  0  0  0  0  1  0  0  0  0  0  0
  -27.5490  -32.4960   25.8310 C   0  0  0  0  0  1  0  0  0  0  0  0
  1  3  2  0
  1  6  1  0
  3  4  1  0
  4 48  1  0
  4  2  2  0
  5  2  1  0
  5 17  1  0
  6  5  2  0
  7  3  1  0
  8  6  1  0
  9 17  1  0
 10 15  1  0
 11 12  1  0
 11 10  1  0
 13 12  1  0
 13 22  1  0
 13 14  1  0
 15  9  1  0
 15 14  1  0
 16  9  2  0
 17 18  1  0
 19 20  2  0
 20 39  1  0
 21 20  1  0
 21 24  1  0
 22 19  1  0
 22 23  1  0
 23 21  2  0
 24 25  1  0
 25 26  2  0
 27 30  1  0
 27 26  1  0
 28 27  2  0
 29 28  1  0
 29 24  2  0
 30 31  1  0
 31 32  1  0
 32 33  2  0
 34 33  1  0
 34 38  1  0
 35 34  2  0
 36 31  2  0
 36 35  1  0
 37 36  1  0
 39 40  1  0
 40 43  1  0
 40 42  1  0
 41 39  2  0
 44 45  1  0
 44 19  1  0
 46 44  1  0
 47 48  1  0
 47 49  2  0
 48 50  1  0
 51 47  1  0
 51 52  1  0
 53 64  2  0
 54 52  1  0
 54 59  1  0
 55 63  1  0
 55 65  1  0
 56 62  1  0
 56 58  1  0
 57 63  1  0
 58 57  1  0
 59 58  2  0
 60 54  2  0
 61 60  1  0
 61 56  2  0
 62 55  1  0
 63 53  1  0
 65 67  2  0
 66 65  1  0
 68 66  1  0
 69 78  2  0
 69 74  1  0
 70 66  1  0
 70 74  1  0
 71 70  1  0
 72 73  1  0
 72 71  1  0
 73 69  1  0
 74 75  2  0
 75 76  1  0
 77 76  2  0
 78 77  1  0
 79 53  1  0
 79 80  1  0
 79 89  1  0
 80 83  1  0
 81 85  1  0
 81 80  1  0
 82 81  2  0
 85 84  1  0
 87 85  1  0
 87 88  1  0
 87 86  1  0
 89 92  1  1
 89 90  1  0
 91 89  1  0
M  ISO  4   9 100  17 100  51 101  52 101
M  END
>  <TORSDO>  (89) 
F 18

>  <SCORE>  (89) 
-14.628

>  <name>  (89) 
88

>  <ligand_id>  (89) 
88

>  <original_smiles>  (89) 
[H]c1c([H])c([H])c2c(c1[H])C([H])([H])C([H])([H])C([H])([H])C2([H])N([H])C(=O)C1([H])N(C(=O)C([H])(N([H])C(=O)C([H])(N([H])C([H])([H])[H])C([H])([H])[H])C(C([H])([H])[H])(C([H])([H])[H])C([H])([H])[H])C([H])([H])c2c([H])c(OC([H])([H])C(=O)N([H])c3c([H])c(N([H])C(=O)N4C([H])([H])C([H])([H])C([H])([H])C([H])(n5nc(-c6c([H])c([H])c(Oc7c([H])c([H])c(F)c([H])c7F)c([H])c6[H])c(C(=O)N([H])[H])c5N([H])[H])C4([H])[H])c(F)c([H])c3C([H])([H])[H])c([H])c([H])c2C1([H])[H]

>  <smiles>  (89) 
[H]c1c([H])c([H])c2c(c1[H])C([H])([H])C([H])([H])C([H])([H])C2([H])N([H])C(=O)C1([H])N(C(=O)C([H])(N([H])C(=O)C([H])(N([H])C([H])([H])[H])C([H])([H])[H])C(C([H])([H])[H])(C([H])([H])[H])C([H])([H])[H])C([H])([H])c2c([H])c(OC([H])([H])C(=O)N([H])c3c([H])c(N([H])C(=O)N4C([H])([H])C([H])([H])C([H])([H])C([H])(n5nc(-c6c([H])c([H])c(Oc7c([H])c([H])c(F)c([H])c7F)c([H])c6[H])c(C(=O)N([H])[H])c5N([H])[H])C4([H])[H])c(F)c([H])c3C([H])([H])[H])c([H])c([H])c2C1([H])[H]

$$$$
89:0:0
     RDKit          3D

103112  0  0  1  0  0  0  0  0999 V2000
  -30.4090  -22.9360   19.7500 C   0  0  0  0  0  0  0  0  0  0  0  0
  -30.5570  -21.6340   19.4860 N   0  0  0  0  0  0  0  0  0  0  0  0
  -30.1040  -23.3560   20.8690 O   0  0  0  0  0  0  0  0  0  0  0  0
  -30.8100  -21.3730   18.5410 H   0  0  0  0  0  0  0  0  0  0  0  0
  -32.9200  -24.6050   18.6280 C   0  0  0  0  0  2  0  0  0  0  0  0
  -31.9210  -23.7680   17.8280 C   0  0  0  0  0  2  0  0  0  0  0  0
  -32.0610  -25.6470   19.3620 C   0  0  0  0  0  2  0  0  0  0  0  0
  -30.5950  -23.9240   18.5830 C   0  0  0  0  0  3  0  0  0  0  0  0
  -30.6360  -25.2940   19.1360 N   0  0  2  0  0  4  0  0  0  0  0  0
  -30.1790  -25.1860   20.0370 H   0  0  0  0  0  0  0  0  0  0  0  0
  -29.8800  -26.3030   18.3500 C   0  0  0  0  0  2  0  0  0  0  0  0
  -29.4430  -27.4770   19.2350 C   0  0  0  0  0  2  0  0  0  0  0  0
  -28.5180  -26.9470   20.1790 O   0  0  0  0  0  0  0  0  0  0  0  0
  -24.6010  -31.9560   23.3690 C   0  0  0  0  0  0  0  0  0  0  0  0
  -27.3430  -27.6420   20.2410 C   0  0  0  0  0  0  0  0  0  0  0  0
  -23.4300  -30.5730   21.6810 C   0  0  0  0  0  3  0  0  0  0  0  0
  -24.9220  -29.0750   20.2600 C   0  0  0  0  0  0  0  0  0  0  0  0
  -25.9470  -30.9800   21.5170 C   0  0  0  0  0  2  0  0  0  0  0  0
  -26.0620  -29.6180   20.8670 C   0  0  0  0  0  0  0  0  0  0  0  0
  -27.2760  -28.9060   20.8640 C   0  0  0  0  0  3  0  0  0  0  0  0
  -26.1880  -27.0880   19.6550 C   0  0  0  0  0  3  0  0  0  0  0  0
  -24.9750  -27.8040   19.6570 C   0  0  0  0  0  3  0  0  0  0  0  0
  -23.6700  -29.9200   20.2930 C   0  0  0  0  0  2  0  0  0  0  0  0
  -24.6780  -31.1830   22.2500 N   0  0  0  0  0  0  0  0  0  0  0  0
  -23.5100  -32.2060   23.9010 O   0  0  0  0  0  0  0  0  0  0  0  0
  -22.7830  -29.5270   22.6130 C   0  0  0  0  0  0  0  0  0  0  0  0
  -21.4650  -29.3210   22.4550 N   0  0  0  0  0  0  0  0  0  0  0  0
  -23.4610  -28.9030   23.4350 O   0  0  0  0  0  0  0  0  0  0  0  0
  -20.9780  -29.8830   21.7710 H   0  0  0  0  0  0  0  0  0  0  0  0
  -18.0980  -28.0900   22.8890 C   0  0  0  0  0  0  0  0  0  0  0  0
  -20.6500  -28.3590   23.1950 C   0  0  0  0  0  3  0  0  0  0  0  0
  -20.7680  -26.9430   22.5860 C   0  0  0  0  0  2  0  0  0  0  0  0
  -19.6780  -26.6380   21.5520 C   0  0  0  0  0  2  0  0  0  0  0  0
  -18.2890  -26.7580   22.1850 C   0  0  0  0  0  2  0  0  0  0  0  0
  -19.2070  -28.8490   23.3490 C   0  0  0  0  0  0  0  0  0  0  0  0
  -18.9750  -30.0960   23.9680 C   0  0  0  0  0  3  0  0  0  0  0  0
  -17.6650  -30.5870   24.1290 C   0  0  0  0  0  3  0  0  0  0  0  0
  -16.5700  -29.8270   23.6830 C   0  0  0  0  0  3  0  0  0  0  0  0
  -16.7860  -28.5810   23.0690 C   0  0  0  0  0  3  0  0  0  0  0  0
  -25.8740  -32.5870   24.0160 C   0  0  0  0  0  3  0  0  0  0  0  0
  -25.5700  -33.9970   24.3000 N   0  0  0  0  0  0  0  0  0  0  0  0
  -25.9620  -35.0250   23.5360 C   0  0  0  0  0  0  0  0  0  0  0  0
  -26.6880  -34.8880   22.5460 O   0  0  0  0  0  0  0  0  0  0  0  0
  -24.9270  -34.1780   25.0570 H   0  0  0  0  0  0  0  0  0  0  0  0
  -24.3130  -36.8510   23.0140 C   0  0  0  0  0  1  0  0  0  0  0  0
  -25.4720  -36.4290   23.9330 C   0  0  0  0  0  3  0  0  0  0  0  0
  -27.5420  -37.2840   24.9380 C   0  0  0  0  0  1  0  0  0  0  0  0
  -26.5350  -37.4570   23.8940 N   0  0  0  0  0  0  0  0  0  0  0  0
  -26.1380  -38.3880   23.9850 H   0  0  0  0  0  0  0  0  0  0  0  0
  -26.3430  -31.8390   25.3230 C   0  0  1  0  0  0  0  0  0  0  0  0
  -25.2070  -31.6030   26.3460 C   0  0  0  0  0  1  0  0  0  0  0  0
  -26.9560  -30.4630   24.9710 C   0  0  0  0  0  1  0  0  0  0  0  0
  -27.4550  -32.6540   26.0230 C   0  0  0  0  0  1  0  0  0  0  0  0
  -30.2580  -20.5470   20.4040 C   0  0  0  0  0  2  0  0  0  0  0  0
  -28.3020  -17.9440   18.2420 C   0  0  0  0  0  3  0  0  0  0  0  0
  -28.5220  -16.7920   19.0080 C   0  0  0  0  0  3  0  0  0  0  0  0
  -29.8560  -18.0930   20.5700 C   0  0  0  0  0  3  0  0  0  0  0  0
  -28.8500  -19.1860   18.6200 C   0  0  0  0  0  0  0  0  0  0  0  0
  -29.6430  -19.2690   19.8110 C   0  0  0  0  0  0  0  0  0  0  0  0
  -29.3140  -16.8560   20.1730 C   0  0  0  0  0  0  0  0  0  0  0  0
  -30.3570  -14.7290   20.5680 C   0  0  0  0  0  0  0  0  0  0  0  0
  -30.1710  -12.6160   19.3470 C   0  0  0  0  0  2  0  0  0  0  0  0
  -29.1880  -12.8450   18.1780 C   0  0  0  0  0  2  0  0  0  0  0  0
  -27.7210  -12.6600   18.6280 C   0  0  0  0  0  2  0  0  0  0  0  0
  -27.3830  -13.3740   19.9660 C   0  0  0  0  0  3  0  0  0  0  0  0
  -28.4810  -13.1180   21.0240 C   0  0  0  0  0  2  0  0  0  0  0  0
  -29.7760  -13.5110   20.4430 N   0  0  0  0  0  0  0  0  0  0  0  0
  -31.4890  -15.0000   20.1550 O   0  0  0  0  0  0  0  0  0  0  0  0
  -29.5130  -15.6950   20.9600 N   0  0  0  0  0  0  0  0  0  0  0  0
  -28.6730  -15.3320   21.3850 H   0  0  0  0  0  0  0  0  0  0  0  0
  -24.9640  -13.8110   20.7350 C   0  0  0  0  0  0  0  0  0  0  0  0
  -23.9530  -12.9610   21.0960 C   0  0  0  0  0  0  0  0  0  0  0  0
  -24.4980  -11.6430   21.0090 C   0  0  0  0  0  0  0  0  0  0  0  0
  -26.0580  -13.0050   20.4540 N   0  0  0  0  0  0  0  0  0  0  0  0
  -25.7800  -11.6950   20.6740 N   0  0  0  0  0  0  0  0  0  0  0  0
  -23.8580  -10.3300   21.1680 C   0  0  0  0  0  0  0  0  0  0  0  0
  -24.3250   -9.3910   22.1130 C   0  0  0  0  0  3  0  0  0  0  0  0
  -23.6820   -8.1420   22.2580 C   0  0  0  0  0  3  0  0  0  0  0  0
  -22.5590   -7.8250   21.4580 C   0  0  0  0  0  0  0  0  0  0  0  0
  -22.1110   -8.7560   20.5030 C   0  0  0  0  0  3  0  0  0  0  0  0
  -22.7570   -9.9950   20.3560 C   0  0  0  0  0  3  0  0  0  0  0  0
  -21.8900   -6.6260   21.5100 O   0  0  0  0  0  0  0  0  0  0  0  0
  -21.8090   -5.8990   22.6690 C   0  0  0  0  0  0  0  0  0  0  0  0
  -21.1680   -6.4000   23.8240 C   0  0  0  0  0  3  0  0  0  0  0  0
  -21.0490   -5.5900   24.9700 C   0  0  0  0  0  3  0  0  0  0  0  0
  -21.5630   -4.2790   24.9630 C   0  0  0  0  0  0  0  0  0  0  0  0
  -22.1970   -3.7770   23.8140 C   0  0  0  0  0  3  0  0  0  0  0  0
  -22.3180   -4.5850   22.6680 C   0  0  0  0  0  0  0  0  0  0  0  0
  -22.9140   -4.0900   21.5560 F   0  0  0  0  0  0  0  0  0  0  0  0
  -21.4410   -3.4970   26.0590 F   0  0  0  0  0  0  0  0  0  0  0  0
  -22.5340  -13.3420   21.4060 C   0  0  0  0  0  0  0  0  0  0  0  0
  -21.8580  -12.5680   22.2470 N   0  0  0  0  0  0  0  0  0  0  0  0
  -22.0280  -14.3600   20.9370 O   0  0  0  0  0  0  0  0  0  0  0  0
  -22.2740  -11.7460   22.6600 H   0  0  0  0  0  0  0  0  0  0  0  0
  -20.9050  -12.8040   22.4870 H   0  0  0  0  0  0  0  0  0  0  0  0
  -25.0380  -15.1940   20.6040 N   0  0  0  0  0  0  0  0  0  0  0  0
  -24.2230  -15.7830   20.7400 H   0  0  0  0  0  0  0  0  0  0  0  0
  -25.8460  -15.7030   20.2690 H   0  0  0  0  0  0  0  0  0  0  0  0
  -28.5450  -20.3490   17.7270 C   0  0  0  0  0  0  0  0  0  0  0  0
  -29.4020  -20.5240   16.7280 N   0  0  0  0  0  0  0  0  0  0  0  0
  -27.5780  -21.0810   17.9180 O   0  0  0  0  0  0  0  0  0  0  0  0
  -30.1390  -19.8480   16.5810 H   0  0  0  0  0  0  0  0  0  0  0  0
  -29.2500  -21.2510   16.0440 H   0  0  0  0  0  0  0  0  0  0  0  0
  1  3  2  0
  2  1  1  0
  2 54  1  0
  4  2  1  0
  5  7  1  0
  6  8  1  0
  6  5  1  0
  8  9  1  0
  8  1  1  0
  9  7  1  0
  9 10  1  1
 11  9  1  0
 11 12  1  0
 12 13  1  0
 13 15  1  0
 14 25  2  0
 15 20  1  0
 16 24  1  0
 16 26  1  0
 17 23  1  0
 17 19  1  0
 18 24  1  0
 19 18  1  0
 20 19  2  0
 21 22  1  0
 21 15  2  0
 22 17  2  0
 23 16  1  0
 24 14  1  0
 26 28  2  0
 27 26  1  0
 29 27  1  0
 30 39  2  0
 30 35  1  0
 31 27  1  0
 31 35  1  0
 32 31  1  0
 33 34  1  0
 33 32  1  0
 34 30  1  0
 35 36  2  0
 36 37  1  0
 38 37  2  0
 39 38  1  0
 40 14  1  0
 40 41  1  0
 40 50  1  0
 41 44  1  0
 42 46  1  0
 42 41  1  0
 43 42  2  0
 46 45  1  0
 48 46  1  0
 48 49  1  0
 48 47  1  0
 50 53  1  1
 50 51  1  0
 52 50  1  0
 55 58  2  0
 55 56  1  0
 56 60  2  0
 58 59  1  0
 59 54  1  0
 59 57  2  0
 60 57  1  0
 60 69  1  0
 61 69  1  0
 62 67  1  0
 63 64  1  0
 63 62  1  0
 65 64  1  0
 65 74  1  0
 65 66  1  0
 67 61  1  0
 67 66  1  0
 68 61  2  0
 69 70  1  0
 71 72  2  0
 72 91  1  0
 73 72  1  0
 73 76  1  0
 74 75  1  0
 74 71  1  0
 75 73  2  0
 76 77  1  0
 77 78  2  0
 79 82  1  0
 79 78  1  0
 80 79  2  0
 81 80  1  0
 81 76  2  0
 82 83  1  0
 83 84  1  0
 84 85  2  0
 86 85  1  0
 86 90  1  0
 87 86  2  0
 88 83  2  0
 88 87  1  0
 89 88  1  0
 91 92  1  0
 92 95  1  0
 92 94  1  0
 93 91  2  0
 96 71  1  0
 96 97  1  0
 98 96  1  0
 99101  2  0
 99 58  1  0
100 99  1  0
102100  1  0
103100  1  0
M  ISO  4  12 101  13 101  61 100  69 100
M  END
>  <TORSDO>  (90) 
F 22

>  <SCORE>  (90) 
-13.466

>  <name>  (90) 
89

>  <ligand_id>  (90) 
89

>  <original_smiles>  (90) 
[H]c1c([H])c([H])c2c(c1[H])C([H])([H])C([H])([H])C([H])([H])C2([H])N([H])C(=O)C1([H])N(C(=O)C([H])(N([H])C(=O)C([H])(N([H])C([H])([H])[H])C([H])([H])[H])C(C([H])([H])[H])(C([H])([H])[H])C([H])([H])[H])C([H])([H])c2c([H])c(OC([H])([H])C([H])([H])[N+]3([H])C([H])([H])C([H])([H])C([H])([H])C3([H])C(=O)N([H])C([H])([H])c3c([H])c(N([H])C(=O)N4C([H])([H])C([H])([H])C([H])([H])C([H])(n5nc(-c6c([H])c([H])c(Oc7c([H])c([H])c(F)c([H])c7F)c([H])c6[H])c(C(=O)N([H])[H])c5N([H])[H])C4([H])[H])c([H])c([H])c3C(=O)N([H])[H])c([H])c([H])c2C1([H])[H]

>  <smiles>  (90) 
[H]c1c([H])c([H])c2c(c1[H])C([H])([H])C([H])([H])C([H])([H])C2([H])N([H])C(=O)C1([H])N(C(=O)C([H])(N([H])C(=O)C([H])(N([H])C([H])([H])[H])C([H])([H])[H])C(C([H])([H])[H])(C([H])([H])[H])C([H])([H])[H])C([H])([H])c2c([H])c(OC([H])([H])C([H])([H])[N+]3([H])C([H])([H])C([H])([H])C([H])([H])C3([H])C(=O)N([H])C([H])([H])c3c([H])c(N([H])C(=O)N4C([H])([H])C([H])([H])C([H])([H])C([H])(n5nc(-c6c([H])c([H])c(Oc7c([H])c([H])c(F)c([H])c7F)c([H])c6[H])c(C(=O)N([H])[H])c5N([H])[H])C4([H])[H])c([H])c([H])c3C(=O)N([H])[H])c([H])c([H])c2C1([H])[H]

$$$$
90:0:0
     RDKit          3D

 95104  0  0  1  0  0  0  0  0999 V2000
  -26.7190  -20.6080   19.7540 C   0  0  0  0  0  3  0  0  0  0  0  0
  -27.7720  -19.7240   20.0370 C   0  0  0  0  0  3  0  0  0  0  0  0
  -26.9820  -21.9670   19.5000 C   0  0  0  0  0  3  0  0  0  0  0  0
  -29.3560  -21.5760   19.8810 C   0  0  0  0  0  3  0  0  0  0  0  0
  -29.1000  -20.1950   20.1040 C   0  0  0  0  0  0  0  0  0  0  0  0
  -28.3080  -22.4640   19.5180 C   0  0  0  0  0  0  0  0  0  0  0  0
  -30.2330  -18.7270   21.8920 C   0  0  0  0  0  2  0  0  0  0  0  0
  -31.1820  -17.5180   21.8960 C   0  0  0  0  0  2  0  0  0  0  0  0
  -30.2750  -17.9010   19.6610 C   0  0  0  0  0  2  0  0  0  0  0  0
  -30.2420  -19.2280   20.4470 C   0  0  0  0  0  3  0  0  0  0  0  0
  -31.2650  -16.9980   20.4400 C   0  0  0  0  0  3  0  0  0  0  0  0
  -31.5550  -14.5530   19.7710 C   0  0  0  0  0  0  0  0  0  0  0  0
  -31.2210  -12.2470   18.9360 C   0  0  0  0  0  2  0  0  0  0  0  0
  -30.2170  -12.2430   17.7630 C   0  0  0  0  0  2  0  0  0  0  0  0
  -28.7630  -12.1950   18.2690 C   0  0  0  0  0  2  0  0  0  0  0  0
  -28.4870  -13.2480   19.3690 C   0  0  0  0  0  3  0  0  0  0  0  0
  -29.5710  -13.1610   20.4670 C   0  0  0  0  0  2  0  0  0  0  0  0
  -30.8820  -13.3710   19.8230 N   0  0  0  0  0  0  0  0  0  0  0  0
  -32.6160  -14.7030   19.1560 O   0  0  0  0  0  0  0  0  0  0  0  0
  -30.9190  -15.5690   20.3830 N   0  0  0  0  0  0  0  0  0  0  0  0
  -30.0810  -15.3010   20.8730 H   0  0  0  0  0  0  0  0  0  0  0  0
  -26.1990  -14.0820   20.2140 C   0  0  0  0  0  0  0  0  0  0  0  0
  -25.0820  -13.4130   20.6370 C   0  0  0  0  0  0  0  0  0  0  0  0
  -25.4030  -12.0240   20.5590 C   0  0  0  0  0  0  0  0  0  0  0  0
  -27.1380  -13.1050   19.9150 N   0  0  0  0  0  0  0  0  0  0  0  0
  -26.6610  -11.8600   20.1720 N   0  0  0  0  0  0  0  0  0  0  0  0
  -24.5700  -10.8370   20.7820 C   0  0  0  0  0  0  0  0  0  0  0  0
  -24.9170   -9.8620   21.7430 C   0  0  0  0  0  3  0  0  0  0  0  0
  -24.0940   -8.7350   21.9480 C   0  0  0  0  0  3  0  0  0  0  0  0
  -22.9080   -8.5770   21.1900 C   0  0  0  0  0  0  0  0  0  0  0  0
  -22.5800   -9.5400   20.2160 C   0  0  0  0  0  3  0  0  0  0  0  0
  -23.4040  -10.6590   20.0120 C   0  0  0  0  0  3  0  0  0  0  0  0
  -22.0580   -7.5040   21.3020 O   0  0  0  0  0  0  0  0  0  0  0  0
  -21.8810   -6.8470   22.4940 C   0  0  0  0  0  0  0  0  0  0  0  0
  -21.4210   -7.5140   23.6490 C   0  0  0  0  0  3  0  0  0  0  0  0
  -21.1820   -6.7880   24.8330 C   0  0  0  0  0  3  0  0  0  0  0  0
  -21.3970   -5.3970   24.8630 C   0  0  0  0  0  0  0  0  0  0  0  0
  -21.8500   -4.7300   23.7110 C   0  0  0  0  0  3  0  0  0  0  0  0
  -22.0870   -5.4540   22.5280 C   0  0  0  0  0  0  0  0  0  0  0  0
  -22.5020   -4.8020   21.4150 F   0  0  0  0  0  0  0  0  0  0  0  0
  -21.1610   -4.6990   25.9990 F   0  0  0  0  0  0  0  0  0  0  0  0
  -23.7570  -14.0200   21.0030 C   0  0  0  0  0  0  0  0  0  0  0  0
  -23.0320  -13.3950   21.9220 N   0  0  0  0  0  0  0  0  0  0  0  0
  -23.3770  -15.0800   20.5070 O   0  0  0  0  0  0  0  0  0  0  0  0
  -23.3540  -12.5360   22.3450 H   0  0  0  0  0  0  0  0  0  0  0  0
  -22.1430  -13.7800   22.2060 H   0  0  0  0  0  0  0  0  0  0  0  0
  -26.4770  -15.4360   20.0390 N   0  0  0  0  0  0  0  0  0  0  0  0
  -25.7600  -16.1400   20.1690 H   0  0  0  0  0  0  0  0  0  0  0  0
  -27.3380  -15.8090   19.6590 H   0  0  0  0  0  0  0  0  0  0  0  0
  -27.9620  -24.5930   18.2790 C   0  0  0  0  0  0  0  0  0  0  0  0
  -28.5900  -23.8370   19.2060 N   0  0  0  0  0  0  0  0  0  0  0  0
  -27.1230  -24.1340   17.4970 O   0  0  0  0  0  0  0  0  0  0  0  0
  -29.3670  -24.2750   19.6830 H   0  0  0  0  0  0  0  0  0  0  0  0
  -28.3290  -26.0860   18.1410 C   0  0  0  0  0  2  0  0  0  0  0  0
  -28.0910  -26.8400   19.3420 O   0  0  0  0  0  0  0  0  0  0  0  0
  -24.6000  -31.7580   23.1420 C   0  0  0  0  0  0  0  0  0  0  0  0
  -26.9240  -27.5730   19.4640 C   0  0  0  0  0  0  0  0  0  0  0  0
  -23.2530  -30.5340   21.4680 C   0  0  0  0  0  3  0  0  0  0  0  0
  -24.5670  -29.1130   19.8030 C   0  0  0  0  0  0  0  0  0  0  0  0
  -25.7660  -30.8570   21.1310 C   0  0  0  0  0  2  0  0  0  0  0  0
  -25.7720  -29.5420   20.3750 C   0  0  0  0  0  0  0  0  0  0  0  0
  -26.9430  -28.7660   20.2260 C   0  0  0  0  0  3  0  0  0  0  0  0
  -25.6990  -27.1690   18.8840 C   0  0  0  0  0  3  0  0  0  0  0  0
  -24.5240  -27.9250   19.0600 C   0  0  0  0  0  3  0  0  0  0  0  0
  -23.3550  -29.9910   20.0160 C   0  0  0  0  0  2  0  0  0  0  0  0
  -24.5630  -31.0570   21.9740 N   0  0  0  0  0  0  0  0  0  0  0  0
  -23.5640  -31.9940   23.7780 O   0  0  0  0  0  0  0  0  0  0  0  0
  -22.6510  -29.4330   22.3730 C   0  0  0  0  0  0  0  0  0  0  0  0
  -21.3210  -29.2550   22.2960 N   0  0  0  0  0  0  0  0  0  0  0  0
  -23.3730  -28.7480   23.1040 O   0  0  0  0  0  0  0  0  0  0  0  0
  -20.7970  -29.8650   21.6840 H   0  0  0  0  0  0  0  0  0  0  0  0
  -17.9880  -27.9320   22.7850 C   0  0  0  0  0  0  0  0  0  0  0  0
  -20.5450  -28.2440   23.0140 C   0  0  0  0  0  3  0  0  0  0  0  0
  -20.6790  -26.8560   22.3400 C   0  0  0  0  0  2  0  0  0  0  0  0
  -19.5460  -26.5300   21.3610 C   0  0  0  0  0  2  0  0  0  0  0  0
  -18.1840  -26.6140   22.0540 C   0  0  0  0  0  2  0  0  0  0  0  0
  -19.0970  -28.7000   23.2290 C   0  0  0  0  0  0  0  0  0  0  0  0
  -18.8560  -29.9230   23.8940 C   0  0  0  0  0  3  0  0  0  0  0  0
  -17.5430  -30.3830   24.1090 C   0  0  0  0  0  3  0  0  0  0  0  0
  -16.4490  -29.6120   23.6720 C   0  0  0  0  0  3  0  0  0  0  0  0
  -16.6750  -28.3870   23.0170 C   0  0  0  0  0  3  0  0  0  0  0  0
  -25.9400  -32.3120   23.7190 C   0  0  0  0  0  3  0  0  0  0  0  0
  -26.5250  -31.4280   24.8850 C   0  0  1  0  0  0  0  0  0  0  0  0
  -25.5060  -31.1280   26.0110 C   0  0  0  0  0  1  0  0  0  0  0  0
  -27.0330  -30.0740   24.3370 C   0  0  0  0  0  1  0  0  0  0  0  0
  -27.7460  -32.1330   25.5190 C   0  0  0  0  0  1  0  0  0  0  0  0
  -25.6890  -33.6850   24.1800 N   0  0  0  0  0  0  0  0  0  0  0  0
  -26.0080  -34.7850   23.4870 C   0  0  0  0  0  0  0  0  0  0  0  0
  -26.6140  -34.7520   22.4110 O   0  0  0  0  0  0  0  0  0  0  0  0
  -25.1540  -33.7890   25.0280 H   0  0  0  0  0  0  0  0  0  0  0  0
  -24.3050  -36.6350   23.3880 C   0  0  0  0  0  1  0  0  0  0  0  0
  -25.5860  -36.1440   24.0800 C   0  0  0  0  0  3  0  0  0  0  0  0
  -27.7910  -36.9200   24.8350 C   0  0  0  0  0  1  0  0  0  0  0  0
  -26.6370  -37.1820   23.9780 N   0  0  0  0  0  0  0  0  0  0  0  0
  -26.2620  -38.0950   24.2230 H   0  0  0  0  0  0  0  0  0  0  0  0
  1  2  1  0
  2  5  2  0
  3  6  1  0
  3  1  2  0
  4  5  1  0
  6  4  2  0
  7  8  1  0
  9 11  1  0
  9 10  1  0
 10  5  1  0
 10  7  1  0
 11 20  1  0
 11  8  1  0
 12 18  1  0
 12 20  1  0
 13 18  1  0
 14 15  1  0
 14 13  1  0
 16 15  1  0
 16 25  1  0
 16 17  1  0
 18 17  1  0
 19 12  2  0
 20 21  1  0
 22 23  2  0
 23 42  1  0
 24 23  1  0
 24 27  1  0
 25 26  1  0
 25 22  1  0
 26 24  2  0
 27 28  1  0
 28 29  2  0
 30 33  1  0
 30 29  1  0
 31 30  2  0
 32 31  1  0
 32 27  2  0
 33 34  1  0
 34 39  2  0
 34 35  1  0
 35 36  2  0
 36 37  1  0
 37 41  1  0
 38 37  2  0
 39 38  1  0
 40 39  1  0
 42 43  1  0
 43 46  1  0
 43 45  1  0
 44 42  2  0
 47 48  1  0
 47 22  1  0
 49 47  1  0
 50 51  1  0
 51  6  1  0
 51 53  1  0
 52 50  2  0
 54 50  1  0
 54 55  1  0
 55 57  1  0
 56 67  2  0
 57 62  1  0
 58 66  1  0
 58 68  1  0
 59 65  1  0
 59 61  1  0
 60 66  1  0
 61 60  1  0
 62 61  2  0
 63 64  1  0
 63 57  2  0
 64 59  2  0
 65 58  1  0
 66 56  1  0
 68 70  2  0
 69 68  1  0
 71 69  1  0
 72 81  2  0
 72 77  1  0
 73 69  1  0
 73 77  1  0
 74 73  1  0
 75 76  1  0
 75 74  1  0
 76 72  1  0
 77 78  2  0
 78 79  1  0
 80 79  2  0
 81 80  1  0
 82 56  1  0
 82 87  1  0
 82 83  1  0
 83 86  1  1
 83 84  1  0
 85 83  1  0
 87 90  1  0
 88 92  1  0
 88 87  1  0
 89 88  2  0
 92 91  1  0
 94 92  1  0
 94 95  1  0
 94 93  1  0
M  ISO  4  12 100  20 100  54 101  55 101
M  END
>  <TORSDO>  (91) 
F 19

>  <SCORE>  (91) 
-12.070

>  <name>  (91) 
90

>  <ligand_id>  (91) 
90

>  <original_smiles>  (91) 
[H]c1c([H])c([H])c2c(c1[H])C([H])([H])C([H])([H])C([H])([H])C2([H])N([H])C(=O)C1([H])N(C(=O)C([H])(N([H])C(=O)C([H])(N([H])C([H])([H])[H])C([H])([H])[H])C(C([H])([H])[H])(C([H])([H])[H])C([H])([H])[H])C([H])([H])c2c([H])c(OC([H])([H])C(=O)N([H])c3c([H])c([H])c([H])c(C4([H])C([H])([H])C([H])([H])C([H])(N([H])C(=O)N5C([H])([H])C([H])([H])C([H])([H])C([H])(n6nc(-c7c([H])c([H])c(Oc8c([H])c([H])c(F)c([H])c8F)c([H])c7[H])c(C(=O)N([H])[H])c6N([H])[H])C5([H])[H])C4([H])[H])c3[H])c([H])c([H])c2C1([H])[H]

>  <smiles>  (91) 
[H]c1c([H])c([H])c2c(c1[H])C([H])([H])C([H])([H])C([H])([H])C2([H])N([H])C(=O)C1([H])N(C(=O)C([H])(N([H])C(=O)C([H])(N([H])C([H])([H])[H])C([H])([H])[H])C(C([H])([H])[H])(C([H])([H])[H])C([H])([H])[H])C([H])([H])c2c([H])c(OC([H])([H])C(=O)N([H])c3c([H])c([H])c([H])c(C4([H])C([H])([H])C([H])([H])C([H])(N([H])C(=O)N5C([H])([H])C([H])([H])C([H])([H])C([H])(n6nc(-c7c([H])c([H])c(Oc8c([H])c([H])c(F)c([H])c8F)c([H])c7[H])c(C(=O)N([H])[H])c6N([H])[H])C5([H])[H])C4([H])[H])c3[H])c([H])c([H])c2C1([H])[H]

$$$$
91:0:0
     RDKit          3D

105114  0  0  1  0  0  0  0  0999 V2000
  -32.4150  -19.2270   19.2640 C   0  0  0  0  0  3  0  0  0  0  0  0
  -32.2850  -17.2000   20.4680 C   0  0  0  0  0  2  0  0  0  0  0  0
  -31.2680  -19.8880   19.5370 C   0  0  0  0  0  0  0  0  0  0  0  0
  -30.2080  -19.5170   20.3240 C   0  0  0  0  0  3  0  0  0  0  0  0
  -32.9790  -18.1180   19.7720 C   0  0  0  0  0  3  0  0  0  0  0  0
  -30.9630  -16.9620   20.6170 C   0  0  0  0  0  3  0  0  0  0  0  0
  -29.9860  -18.0800   20.7260 C   0  0  0  0  0  0  0  0  0  0  0  0
  -28.8730  -17.7760   21.1770 O   0  0  0  0  0  0  0  0  0  0  0  0
  -30.9970  -14.5770   20.0610 C   0  0  0  0  0  0  0  0  0  0  0  0
  -30.5370  -12.4510   18.9270 C   0  0  0  0  0  2  0  0  0  0  0  0
  -29.5520  -12.7030   17.7690 C   0  0  0  0  0  2  0  0  0  0  0  0
  -28.1050  -12.5700   18.2750 C   0  0  0  0  0  2  0  0  0  0  0  0
  -27.8450  -13.3840   19.5730 C   0  0  0  0  0  3  0  0  0  0  0  0
  -28.9600  -13.1770   20.6250 C   0  0  0  0  0  2  0  0  0  0  0  0
  -30.2510  -13.4440   19.9760 N   0  0  0  0  0  0  0  0  0  0  0  0
  -32.0780  -14.6690   19.4820 O   0  0  0  0  0  0  0  0  0  0  0  0
  -30.4370  -15.6440   20.6640 N   0  0  0  0  0  0  0  0  0  0  0  0
  -29.4750  -15.5680   20.9590 H   0  0  0  0  0  0  0  0  0  0  0  0
  -25.5050  -13.9640   20.4580 C   0  0  0  0  0  0  0  0  0  0  0  0
  -24.4570  -13.1810   20.8590 C   0  0  0  0  0  0  0  0  0  0  0  0
  -24.9010  -11.8290   20.7340 C   0  0  0  0  0  0  0  0  0  0  0  0
  -26.5250  -13.0900   20.1230 N   0  0  0  0  0  0  0  0  0  0  0  0
  -26.1710  -11.7980   20.3470 N   0  0  0  0  0  0  0  0  0  0  0  0
  -24.1770  -10.5640   20.9100 C   0  0  0  0  0  0  0  0  0  0  0  0
  -24.5650   -9.6240   21.8900 C   0  0  0  0  0  3  0  0  0  0  0  0
  -23.8400   -8.4240   22.0570 C   0  0  0  0  0  3  0  0  0  0  0  0
  -22.7160   -8.1530   21.2420 C   0  0  0  0  0  0  0  0  0  0  0  0
  -22.3480   -9.0820   20.2540 C   0  0  0  0  0  3  0  0  0  0  0  0
  -23.0710  -10.2760   20.0860 C   0  0  0  0  0  3  0  0  0  0  0  0
  -21.9690   -7.0010   21.3140 O   0  0  0  0  0  0  0  0  0  0  0  0
  -21.7420   -6.3660   22.5070 C   0  0  0  0  0  0  0  0  0  0  0  0
  -21.0690   -7.0000   23.5750 C   0  0  0  0  0  3  0  0  0  0  0  0
  -20.7950   -6.2860   24.7580 C   0  0  0  0  0  3  0  0  0  0  0  0
  -21.1810   -4.9370   24.8720 C   0  0  0  0  0  0  0  0  0  0  0  0
  -21.8450   -4.3020   23.8090 C   0  0  0  0  0  3  0  0  0  0  0  0
  -22.1210   -5.0140   22.6280 C   0  0  0  0  0  0  0  0  0  0  0  0
  -22.7420   -4.3910   21.5980 F   0  0  0  0  0  0  0  0  0  0  0  0
  -20.9110   -4.2490   26.0060 F   0  0  0  0  0  0  0  0  0  0  0  0
  -23.0850  -13.6530   21.2410 C   0  0  0  0  0  0  0  0  0  0  0  0
  -22.4100  -12.9190   22.1180 N   0  0  0  0  0  0  0  0  0  0  0  0
  -22.6250  -14.7050   20.7980 O   0  0  0  0  0  0  0  0  0  0  0  0
  -22.7990  -12.0670   22.4960 H   0  0  0  0  0  0  0  0  0  0  0  0
  -21.4890  -13.2080   22.4160 H   0  0  0  0  0  0  0  0  0  0  0  0
  -25.6740  -15.3370   20.3270 N   0  0  0  0  0  0  0  0  0  0  0  0
  -24.9270  -15.9980   20.5120 H   0  0  0  0  0  0  0  0  0  0  0  0
  -26.5100  -15.7780   19.9630 H   0  0  0  0  0  0  0  0  0  0  0  0
  -28.0730  -20.9040   20.0740 C   0  0  0  0  0  2  0  0  0  0  0  0
  -29.4420  -21.0960   22.0950 C   0  0  0  0  0  2  0  0  0  0  0  0
  -28.0600  -22.4470   19.9230 C   0  0  0  0  0  2  0  0  0  0  0  0
  -29.5220  -22.6230   21.9030 C   0  0  0  0  0  2  0  0  0  0  0  0
  -29.2390  -20.4130   20.8180 N   0  0  0  0  0  0  0  0  0  0  0  0
  -28.3020  -23.1330   21.2230 N   0  0  1  0  0  4  0  0  0  0  0  0
  -27.5530  -22.7950   21.8080 H   0  0  0  0  0  0  0  0  0  0  0  0
  -26.8960  -24.9560   22.0830 C   0  0  0  0  0  1  0  0  0  0  0  0
  -28.1600  -24.6290   21.2580 C   0  0  0  0  0  3  0  0  0  0  0  0
  -28.2550  -25.3500   19.8700 C   0  0  0  0  0  2  0  0  0  0  0  0
  -28.2710  -26.7860   19.9410 O   0  0  0  0  0  0  0  0  0  0  0  0
  -24.5410  -31.8620   23.1710 C   0  0  0  0  0  0  0  0  0  0  0  0
  -27.0870  -27.4960   19.9220 C   0  0  0  0  0  0  0  0  0  0  0  0
  -23.2890  -30.5110   21.5230 C   0  0  0  0  0  3  0  0  0  0  0  0
  -24.6990  -29.0130   20.0180 C   0  0  0  0  0  0  0  0  0  0  0  0
  -25.8080  -30.8680   21.2700 C   0  0  0  0  0  2  0  0  0  0  0  0
  -25.8710  -29.5140   20.5960 C   0  0  0  0  0  0  0  0  0  0  0  0
  -27.0630  -28.7630   20.5480 C   0  0  0  0  0  3  0  0  0  0  0  0
  -25.8960  -27.0160   19.3220 C   0  0  0  0  0  3  0  0  0  0  0  0
  -24.7070  -27.7650   19.3760 C   0  0  0  0  0  3  0  0  0  0  0  0
  -23.4580  -29.8710   20.1200 C   0  0  0  0  0  2  0  0  0  0  0  0
  -24.5660  -31.0910   22.0480 N   0  0  0  0  0  0  0  0  0  0  0  0
  -23.4740  -32.1230   23.7440 O   0  0  0  0  0  0  0  0  0  0  0  0
  -22.6550  -29.4650   22.4700 C   0  0  0  0  0  0  0  0  0  0  0  0
  -21.3320  -29.2710   22.3470 N   0  0  0  0  0  0  0  0  0  0  0  0
  -23.3500  -28.8320   23.2690 O   0  0  0  0  0  0  0  0  0  0  0  0
  -20.8270  -29.8410   21.6820 H   0  0  0  0  0  0  0  0  0  0  0  0
  -17.9790  -28.0200   22.8370 C   0  0  0  0  0  0  0  0  0  0  0  0
  -20.5330  -28.3120   23.1090 C   0  0  0  0  0  3  0  0  0  0  0  0
  -20.6540  -26.8880   22.5180 C   0  0  0  0  0  2  0  0  0  0  0  0
  -19.5570  -26.5620   21.5000 C   0  0  0  0  0  2  0  0  0  0  0  0
  -18.1740  -26.6810   22.1460 C   0  0  0  0  0  2  0  0  0  0  0  0
  -19.0860  -28.7940   23.2740 C   0  0  0  0  0  0  0  0  0  0  0  0
  -18.8520  -30.0470   23.8810 C   0  0  0  0  0  3  0  0  0  0  0  0
  -17.5400  -30.5290   24.0530 C   0  0  0  0  0  3  0  0  0  0  0  0
  -16.4460  -29.7550   23.6300 C   0  0  0  0  0  3  0  0  0  0  0  0
  -16.6660  -28.5020   23.0320 C   0  0  0  0  0  3  0  0  0  0  0  0
  -25.8430  -32.4760   23.7760 C   0  0  0  0  0  3  0  0  0  0  0  0
  -25.5570  -33.8770   24.1200 N   0  0  0  0  0  0  0  0  0  0  0  0
  -25.9010  -34.9300   23.3660 C   0  0  0  0  0  0  0  0  0  0  0  0
  -26.5630  -34.8240   22.3300 O   0  0  0  0  0  0  0  0  0  0  0  0
  -24.9710  -34.0350   24.9280 H   0  0  0  0  0  0  0  0  0  0  0  0
  -24.2130  -36.7610   23.0120 C   0  0  0  0  0  1  0  0  0  0  0  0
  -25.4360  -36.3220   23.8330 C   0  0  0  0  0  3  0  0  0  0  0  0
  -27.5740  -37.1580   24.7060 C   0  0  0  0  0  1  0  0  0  0  0  0
  -26.4910  -37.3550   23.7460 N   0  0  0  0  0  0  0  0  0  0  0  0
  -26.1010  -38.2820   23.8940 H   0  0  0  0  0  0  0  0  0  0  0  0
  -26.3720  -31.6880   25.0360 C   0  0  1  0  0  0  0  0  0  0  0  0
  -25.2950  -31.4440   26.1190 C   0  0  0  0  0  1  0  0  0  0  0  0
  -26.9390  -30.3110   24.6160 C   0  0  0  0  0  1  0  0  0  0  0  0
  -27.5390  -32.4670   25.6870 C   0  0  0  0  0  1  0  0  0  0  0  0
  -31.3160  -21.2510   19.0130 C   0  0  0  0  0  0  0  0  0  0  0  0
  -32.0820  -22.0610   19.7370 N   0  0  0  0  0  0  0  0  0  0  0  0
  -30.7490  -21.6420   17.9950 O   0  0  0  0  0  0  0  0  0  0  0  0
  -32.5550  -21.7040   20.5540 H   0  0  0  0  0  0  0  0  0  0  0  0
  -32.2340  -23.0160   19.4490 H   0  0  0  0  0  0  0  0  0  0  0  0
  -34.8390  -16.6360   18.9570 C   0  0  0  0  0  1  0  0  0  0  0  0
  -35.3660  -18.9140   19.6740 C   0  0  0  0  0  1  0  0  0  0  0  0
  -34.3340  -17.8900   19.5170 N   0  0  0  0  0  0  0  0  0  0  0  0
  1  3  2  0
  1  5  1  0
  2  6  1  0
  4  3  1  0
  4  7  1  0
  4 51  1  0
  5105  1  0
  5  2  1  0
  6 17  1  0
  6  7  1  0
  7  8  2  0
  9 17  1  0
 10 15  1  0
 11 12  1  0
 11 10  1  0
 13 12  1  0
 13 22  1  0
 13 14  1  0
 15  9  1  0
 15 14  1  0
 16  9  2  0
 17 18  1  0
 19 20  2  0
 20 39  1  0
 21 20  1  0
 21 24  1  0
 22 23  1  0
 22 19  1  0
 23 21  2  0
 24 25  1  0
 25 26  2  0
 27 30  1  0
 27 26  1  0
 28 27  2  0
 29 28  1  0
 29 24  2  0
 30 31  1  0
 31 36  2  0
 31 32  1  0
 32 33  2  0
 33 34  1  0
 34 38  1  0
 35 34  2  0
 36 35  1  0
 37 36  1  0
 39 40  1  0
 40 43  1  0
 40 42  1  0
 41 39  2  0
 44 19  1  0
 44 45  1  0
 46 44  1  0
 49 47  1  0
 49 52  1  0
 50 48  1  0
 51 47  1  0
 51 48  1  0
 52 55  1  0
 52 53  1  1
 52 50  1  0
 55 54  1  0
 56 57  1  0
 56 55  1  0
 58 69  2  0
 59 57  1  0
 59 64  1  0
 60 68  1  0
 60 70  1  0
 61 67  1  0
 61 63  1  0
 62 68  1  0
 63 62  1  0
 64 63  2  0
 65 66  1  0
 65 59  2  0
 66 61  2  0
 67 60  1  0
 68 58  1  0
 70 72  2  0
 71 70  1  0
 73 71  1  0
 74 83  2  0
 74 79  1  0
 75 71  1  0
 75 79  1  0
 76 75  1  0
 77 78  1  0
 77 76  1  0
 78 74  1  0
 79 80  2  0
 80 81  1  0
 82 81  2  0
 83 82  1  0
 84 58  1  0
 84 85  1  0
 84 94  1  0
 85 88  1  0
 86 90  1  0
 86 85  1  0
 87 86  2  0
 90 89  1  0
 92 90  1  0
 92 93  1  0
 92 91  1  0
 94 97  1  1
 94 95  1  0
 96 94  1  0
 98  3  1  0
 98 99  1  0
 99101  1  0
100 98  2  0
102 99  1  0
103105  1  0
105104  1  0
M  ISO  4   9 100  17 100  56 101  57 101
M  END
>  <TORSDO>  (92) 
F 21

>  <SCORE>  (92) 
-13.394

>  <name>  (92) 
91

>  <ligand_id>  (92) 
91

>  <original_smiles>  (92) 
[H]c1c([H])c([H])c2c(c1[H])C([H])([H])C([H])([H])C([H])([H])C2([H])N([H])C(=O)C1([H])N(C(=O)C([H])(N([H])C(=O)C([H])(N([H])C([H])([H])[H])C([H])([H])[H])C(C([H])([H])[H])(C([H])([H])[H])C([H])([H])[H])C([H])([H])c2c([H])c(OC([H])([H])C([H])(C([H])([H])[H])[N+]3([H])C([H])([H])C([H])([H])N(c4c(C(=O)N([H])[H])c([H])c(N(C([H])([H])[H])C([H])([H])[H])c([H])c(N([H])C(=O)N5C([H])([H])C([H])([H])C([H])([H])C([H])(n6nc(-c7c([H])c([H])c(Oc8c([H])c([H])c(F)c([H])c8F)c([H])c7[H])c(C(=O)N([H])[H])c6N([H])[H])C5([H])[H])c4=O)C([H])([H])C3([H])[H])c([H])c([H])c2C1([H])[H]

>  <smiles>  (92) 
[H]c1c([H])c([H])c2c(c1[H])C([H])([H])C([H])([H])C([H])([H])C2([H])N([H])C(=O)C1([H])N(C(=O)C([H])(N([H])C(=O)C([H])(N([H])C([H])([H])[H])C([H])([H])[H])C(C([H])([H])[H])(C([H])([H])[H])C([H])([H])[H])C([H])([H])c2c([H])c(OC([H])([H])C([H])(C([H])([H])[H])[N+]3([H])C([H])([H])C([H])([H])N(c4c(C(=O)N([H])[H])c([H])c(N(C([H])([H])[H])C([H])([H])[H])c([H])c(N([H])C(=O)N5C([H])([H])C([H])([H])C([H])([H])C([H])(n6nc(-c7c([H])c([H])c(Oc8c([H])c([H])c(F)c([H])c8F)c([H])c7[H])c(C(=O)N([H])[H])c6N([H])[H])C5([H])[H])c4=O)C([H])([H])C3([H])[H])c([H])c([H])c2C1([H])[H]

$$$$
92:0:0
     RDKit          3D

100108  0  0  1  0  0  0  0  0999 V2000
  -28.8500  -21.8970   19.7010 C   0  0  0  0  0  2  0  0  0  0  0  0
  -29.1380  -23.5410   21.7220 C   0  0  0  0  0  1  0  0  0  0  0  0
  -28.2780  -23.3320   20.4600 C   0  0  2  0  0  0  0  0  0  0  0  0
  -26.8160  -23.1100   20.9480 C   0  0  0  0  0  2  0  0  0  0  0  0
  -25.8120  -22.9170   19.8800 N   0  0  0  0  0  4  0  0  0  0  0  0
  -25.8280  -23.6530   19.1990 H   0  0  0  0  0  0  0  0  0  0  0  0
  -24.8950  -22.9120   20.2940 H   0  0  0  0  0  0  0  0  0  0  0  0
  -25.9240  -22.0390   19.4110 H   0  0  0  0  0  0  0  0  0  0  0  0
  -28.3300  -24.8560   19.6780 C   0  0  0  0  0  2  0  0  0  0  0  0
  -28.2730  -26.3250   20.2430 O   0  0  0  0  0  0  0  0  0  0  0  0
  -24.6140  -31.9720   23.2750 C   0  0  0  0  0  0  0  0  0  0  0  0
  -27.2020  -27.2940   20.1570 C   0  0  0  0  0  0  0  0  0  0  0  0
  -23.4100  -30.5760   21.6390 C   0  0  0  0  0  3  0  0  0  0  0  0
  -24.8590  -29.0280   20.1760 C   0  0  0  0  0  0  0  0  0  0  0  0
  -25.9600  -30.8650   21.4460 C   0  0  0  0  0  2  0  0  0  0  0  0
  -26.0390  -29.4780   20.7790 C   0  0  0  0  0  0  0  0  0  0  0  0
  -27.2070  -28.6230   20.7600 C   0  0  0  0  0  3  0  0  0  0  0  0
  -25.9950  -26.9540   19.5120 C   0  0  0  0  0  3  0  0  0  0  0  0
  -24.8510  -27.7820   19.5310 C   0  0  0  0  0  3  0  0  0  0  0  0
  -23.6210  -29.9070   20.2540 C   0  0  0  0  0  2  0  0  0  0  0  0
  -24.6820  -31.1630   22.1730 N   0  0  0  0  0  0  0  0  0  0  0  0
  -23.5300  -32.2400   23.8180 O   0  0  0  0  0  0  0  0  0  0  0  0
  -22.7580  -29.5520   22.5980 C   0  0  0  0  0  0  0  0  0  0  0  0
  -21.4360  -29.3500   22.4720 N   0  0  0  0  0  0  0  0  0  0  0  0
  -23.4460  -28.9390   23.4170 O   0  0  0  0  0  0  0  0  0  0  0  0
  -20.9350  -29.8980   21.7860 H   0  0  0  0  0  0  0  0  0  0  0  0
  -18.0850  -28.0620   22.9650 C   0  0  0  0  0  0  0  0  0  0  0  0
  -20.6360  -28.3910   23.2390 C   0  0  0  0  0  3  0  0  0  0  0  0
  -20.7770  -26.9620   22.6660 C   0  0  0  0  0  2  0  0  0  0  0  0
  -19.6860  -26.6120   21.6490 C   0  0  0  0  0  2  0  0  0  0  0  0
  -18.2980  -26.7200   22.2880 C   0  0  0  0  0  2  0  0  0  0  0  0
  -19.1830  -28.8550   23.3980 C   0  0  0  0  0  0  0  0  0  0  0  0
  -18.9250  -30.1100   23.9900 C   0  0  0  0  0  3  0  0  0  0  0  0
  -17.6070  -30.5730   24.1570 C   0  0  0  0  0  3  0  0  0  0  0  0
  -16.5240  -29.7760   23.7400 C   0  0  0  0  0  3  0  0  0  0  0  0
  -16.7640  -28.5250   23.1510 C   0  0  0  0  0  3  0  0  0  0  0  0
  -25.8900  -32.6170   23.8960 C   0  0  0  0  0  3  0  0  0  0  0  0
  -26.4070  -31.8630   25.1830 C   0  0  1  0  0  0  0  0  0  0  0  0
  -25.3100  -31.6280   26.2490 C   0  0  0  0  0  1  0  0  0  0  0  0
  -26.9970  -30.4830   24.8100 C   0  0  0  0  0  1  0  0  0  0  0  0
  -27.5530  -32.6700   25.8390 C   0  0  0  0  0  1  0  0  0  0  0  0
  -25.5730  -34.0180   24.2200 N   0  0  0  0  0  0  0  0  0  0  0  0
  -25.8940  -35.0700   23.4560 C   0  0  0  0  0  0  0  0  0  0  0  0
  -26.5560  -34.9660   22.4200 O   0  0  0  0  0  0  0  0  0  0  0  0
  -24.9860  -34.1720   25.0290 H   0  0  0  0  0  0  0  0  0  0  0  0
  -24.1550  -36.8570   23.1180 C   0  0  0  0  0  1  0  0  0  0  0  0
  -25.4090  -36.4590   23.9140 C   0  0  0  0  0  3  0  0  0  0  0  0
  -27.5470  -37.3600   24.7220 C   0  0  0  0  0  1  0  0  0  0  0  0
  -26.4360  -37.5170   23.7850 N   0  0  0  0  0  0  0  0  0  0  0  0
  -26.0280  -38.4350   23.9360 H   0  0  0  0  0  0  0  0  0  0  0  0
  -28.6980  -20.1800   19.9740 C   0  0  0  0  0  3  0  0  0  0  0  0
  -31.0230  -17.4270   21.9670 C   0  0  0  0  0  3  0  0  0  0  0  0
  -31.7190  -18.3690   22.7320 C   0  0  0  0  0  3  0  0  0  0  0  0
  -30.5630  -20.1230   21.5670 C   0  0  0  0  0  3  0  0  0  0  0  0
  -29.7690  -19.2380   20.7910 C   0  0  0  0  0  0  0  0  0  0  0  0
  -30.0820  -17.7330   20.9410 C   0  0  0  0  0  0  0  0  0  0  0  0
  -31.5110  -19.7220   22.5080 C   0  0  0  0  0  0  0  0  0  0  0  0
  -32.1990  -20.6430   23.2220 F   0  0  0  0  0  0  0  0  0  0  0  0
  -30.3360  -15.1670   20.1120 C   0  0  0  0  0  0  0  0  0  0  0  0
  -30.1720  -12.8590   19.0450 C   0  0  0  0  0  2  0  0  0  0  0  0
  -29.1860  -12.8450   17.8570 C   0  0  0  0  0  2  0  0  0  0  0  0
  -27.7510  -12.5860   18.3550 C   0  0  0  0  0  2  0  0  0  0  0  0
  -27.3920  -13.4420   19.5980 C   0  0  0  0  0  3  0  0  0  0  0  0
  -28.5040  -13.4520   20.6670 C   0  0  0  0  0  2  0  0  0  0  0  0
  -29.7210  -13.9180   19.9960 N   0  0  0  0  0  0  0  0  0  0  0  0
  -31.5320  -15.2060   19.7980 O   0  0  0  0  0  0  0  0  0  0  0  0
  -29.6090  -16.3940   20.3370 N   0  0  0  0  0  0  0  0  0  0  0  0
  -28.6100  -16.2900   20.2560 H   0  0  0  0  0  0  0  0  0  0  0  0
  -25.0340  -13.9290   20.4530 C   0  0  0  0  0  0  0  0  0  0  0  0
  -24.0130  -13.1150   20.8550 C   0  0  0  0  0  0  0  0  0  0  0  0
  -24.5190  -11.7800   20.7810 C   0  0  0  0  0  0  0  0  0  0  0  0
  -26.0910  -13.0880   20.1530 N   0  0  0  0  0  0  0  0  0  0  0  0
  -25.7960  -11.7890   20.4160 N   0  0  0  0  0  0  0  0  0  0  0  0
  -23.8380  -10.4950   20.9810 C   0  0  0  0  0  0  0  0  0  0  0  0
  -24.3150   -9.5450   21.9110 C   0  0  0  0  0  3  0  0  0  0  0  0
  -23.6360   -8.3210   22.0970 C   0  0  0  0  0  3  0  0  0  0  0  0
  -22.4640   -8.0420   21.3570 C   0  0  0  0  0  0  0  0  0  0  0  0
  -22.0090   -8.9790   20.4120 C   0  0  0  0  0  3  0  0  0  0  0  0
  -22.6880  -10.1950   20.2240 C   0  0  0  0  0  3  0  0  0  0  0  0
  -21.7480   -6.8720   21.4540 O   0  0  0  0  0  0  0  0  0  0  0  0
  -21.7170   -6.1430   22.6150 C   0  0  0  0  0  0  0  0  0  0  0  0
  -21.2410   -6.6890   23.8260 C   0  0  0  0  0  3  0  0  0  0  0  0
  -21.1630   -5.8830   24.9790 C   0  0  0  0  0  3  0  0  0  0  0  0
  -21.5500   -4.5300   24.9200 C   0  0  0  0  0  0  0  0  0  0  0  0
  -22.0180   -3.9830   23.7120 C   0  0  0  0  0  3  0  0  0  0  0  0
  -22.1000   -4.7880   22.5620 C   0  0  0  0  0  0  0  0  0  0  0  0
  -22.5320   -4.2500   21.3960 F   0  0  0  0  0  0  0  0  0  0  0  0
  -21.4680   -3.7530   26.0250 F   0  0  0  0  0  0  0  0  0  0  0  0
  -22.6140  -13.5410   21.1900 C   0  0  0  0  0  0  0  0  0  0  0  0
  -21.9450  -12.8030   22.0680 N   0  0  0  0  0  0  0  0  0  0  0  0
  -22.1260  -14.5650   20.7120 O   0  0  0  0  0  0  0  0  0  0  0  0
  -22.3580  -11.9740   22.4680 H   0  0  0  0  0  0  0  0  0  0  0  0
  -21.0080  -13.0660   22.3400 H   0  0  0  0  0  0  0  0  0  0  0  0
  -25.1470  -15.3050   20.2880 N   0  0  0  0  0  0  0  0  0  0  0  0
  -24.3610  -15.9310   20.4280 H   0  0  0  0  0  0  0  0  0  0  0  0
  -25.9530  -15.7720   19.8960 H   0  0  0  0  0  0  0  0  0  0  0  0
  -28.5590  -19.5130   18.6670 N   0  0  0  0  0  4  0  0  0  0  0  0
  -27.8360  -19.9240   18.1070 H   0  0  0  0  0  0  0  0  0  0  0  0
  -28.3230  -18.5480   18.8060 H   0  0  0  0  0  0  0  0  0  0  0  0
  -29.4230  -19.5500   18.1550 H   0  0  0  0  0  0  0  0  0  0  0  0
  1  3  1  0
  3  4  1  0
  3  2  1  1
  5  7  1  0
  5  4  1  0
  6  5  1  0
  8  5  1  0
  9 10  1  0
  9  3  1  0
 11 22  2  0
 12 10  1  0
 12 17  1  0
 13 21  1  0
 13 23  1  0
 14 20  1  0
 14 16  1  0
 15 21  1  0
 16 15  1  0
 17 16  2  0
 18 19  1  0
 18 12  2  0
 19 14  2  0
 20 13  1  0
 21 11  1  0
 23 25  2  0
 24 23  1  0
 26 24  1  0
 27 36  2  0
 27 32  1  0
 28 24  1  0
 28 32  1  0
 29 28  1  0
 30 31  1  0
 30 29  1  0
 31 27  1  0
 32 33  2  0
 33 34  1  0
 35 34  2  0
 36 35  1  0
 37 11  1  0
 37 42  1  0
 37 38  1  0
 38 41  1  1
 38 39  1  0
 40 38  1  0
 42 45  1  0
 43 47  1  0
 43 42  1  0
 44 43  2  0
 47 46  1  0
 49 47  1  0
 49 50  1  0
 49 48  1  0
 51  1  1  0
 51 55  1  0
 52 53  1  0
 54 57  1  0
 55 56  1  0
 55 54  2  0
 56 52  2  0
 57 53  2  0
 57 58  1  0
 59 67  1  0
 60 65  1  0
 61 62  1  0
 61 60  1  0
 63 62  1  0
 63 72  1  0
 63 64  1  0
 65 59  1  0
 65 64  1  0
 66 59  2  0
 67 56  1  0
 68 67  1  0
 69 70  2  0
 70 89  1  0
 71 70  1  0
 71 74  1  0
 72 73  1  0
 72 69  1  0
 73 71  2  0
 74 75  1  0
 75 76  2  0
 77 80  1  0
 77 76  1  0
 78 77  2  0
 79 78  1  0
 79 74  2  0
 80 81  1  0
 81 82  1  0
 82 83  2  0
 84 83  1  0
 84 88  1  0
 85 84  2  0
 86 81  2  0
 86 85  1  0
 87 86  1  0
 89 90  1  0
 90 93  1  0
 90 92  1  0
 91 89  2  0
 94 95  1  0
 94 69  1  0
 96 94  1  0
 97 99  1  0
 97 51  1  0
 98 97  1  0
100 97  1  0
M  ISO  4   9 101  10 101  59 100  67 100
M  END
>  <TORSDO>  (93) 
F 23

>  <SCORE>  (93) 
-14.515

>  <name>  (93) 
92

>  <ligand_id>  (93) 
92

>  <original_smiles>  (93) 
[H]c1c([H])c([H])c2c(c1[H])C([H])([H])C([H])([H])C([H])([H])C2([H])N([H])C(=O)C1([H])N(C(=O)C([H])(N([H])C(=O)C([H])(N([H])C([H])([H])[H])C([H])([H])[H])C(C([H])([H])[H])(C([H])([H])[H])C([H])([H])[H])C([H])([H])c2c([H])c(OC([H])([H])C(C([H])([H])[H])(C([H])([H])C([H])(c3c([H])c(F)c([H])c([H])c3N([H])C(=O)N3C([H])([H])C([H])([H])C([H])([H])C([H])(n4nc(-c5c([H])c([H])c(Oc6c([H])c([H])c(F)c([H])c6F)c([H])c5[H])c(C(=O)N([H])[H])c4N([H])[H])C3([H])[H])[N+]([H])([H])[H])C([H])([H])[N+]([H])([H])[H])c([H])c([H])c2C1([H])[H]

>  <smiles>  (93) 
[H]c1c([H])c([H])c2c(c1[H])C([H])([H])C([H])([H])C([H])([H])C2([H])N([H])C(=O)C1([H])N(C(=O)C([H])(N([H])C(=O)C([H])(N([H])C([H])([H])[H])C([H])([H])[H])C(C([H])([H])[H])(C([H])([H])[H])C([H])([H])[H])C([H])([H])c2c([H])c(OC([H])([H])C(C([H])([H])[H])(C([H])([H])C([H])(c3c([H])c(F)c([H])c([H])c3N([H])C(=O)N3C([H])([H])C([H])([H])C([H])([H])C([H])(n4nc(-c5c([H])c([H])c(Oc6c([H])c([H])c(F)c([H])c6F)c([H])c5[H])c(C(=O)N([H])[H])c4N([H])[H])C3([H])[H])[N+]([H])([H])[H])C([H])([H])[N+]([H])([H])[H])c([H])c([H])c2C1([H])[H]

$$$$
93:0:0
     RDKit          3D

 96105  0  0  1  0  0  0  0  0999 V2000
  -28.9290  -20.8300   20.4060 C   0  0  0  0  0  2  0  0  0  0  0  0
  -30.7510  -21.5760   18.9470 C   0  0  0  0  0  2  0  0  0  0  0  0
  -28.2380  -22.2080   20.2680 C   0  0  0  0  0  2  0  0  0  0  0  0
  -30.0940  -22.9520   18.7460 C   0  0  0  0  0  2  0  0  0  0  0  0
  -29.6750  -20.4890   19.1060 C   0  0  0  0  0  3  0  0  0  0  0  0
  -29.1220  -23.3410   19.8170 N   0  0  1  0  0  4  0  0  0  0  0  0
  -29.6620  -23.6150   20.6300 H   0  0  0  0  0  0  0  0  0  0  0  0
  -31.4990  -17.5030   17.5630 C   0  0  0  0  0  3  0  0  0  0  0  0
  -30.9720  -18.7830   17.7880 C   0  0  0  0  0  3  0  0  0  0  0  0
  -31.2530  -16.4820   18.4880 C   0  0  0  0  0  3  0  0  0  0  0  0
  -29.9980  -18.0270   19.8980 C   0  0  0  0  0  3  0  0  0  0  0  0
  -30.2350  -19.0690   18.9600 C   0  0  0  0  0  0  0  0  0  0  0  0
  -30.5070  -16.7250   19.6700 C   0  0  0  0  0  0  0  0  0  0  0  0
  -30.9700  -14.5410   20.6630 C   0  0  0  0  0  0  0  0  0  0  0  0
  -30.6610  -12.3700   19.6090 C   0  0  0  0  0  2  0  0  0  0  0  0
  -29.7890  -12.5930   18.3570 C   0  0  0  0  0  2  0  0  0  0  0  0
  -28.2950  -12.4910   18.7100 C   0  0  0  0  0  2  0  0  0  0  0  0
  -27.9060  -13.3280   19.9580 C   0  0  0  0  0  3  0  0  0  0  0  0
  -28.9150  -13.1550   21.1180 C   0  0  0  0  0  2  0  0  0  0  0  0
  -30.2650  -13.3850   20.5930 N   0  0  0  0  0  0  0  0  0  0  0  0
  -32.1850  -14.6050   20.4750 O   0  0  0  0  0  0  0  0  0  0  0  0
  -30.2360  -15.6670   20.5990 N   0  0  0  0  0  0  0  0  0  0  0  0
  -29.3000  -15.6230   20.9690 H   0  0  0  0  0  0  0  0  0  0  0  0
  -25.4790  -13.9180   20.5540 C   0  0  0  0  0  0  0  0  0  0  0  0
  -24.4050  -13.1400   20.8870 C   0  0  0  0  0  0  0  0  0  0  0  0
  -24.8790  -11.7910   20.9020 C   0  0  0  0  0  0  0  0  0  0  0  0
  -26.5390  -13.0430   20.3870 N   0  0  0  0  0  0  0  0  0  0  0  0
  -26.1810  -11.7600   20.6530 N   0  0  0  0  0  0  0  0  0  0  0  0
  -24.1550  -10.5260   21.0740 C   0  0  0  0  0  0  0  0  0  0  0  0
  -24.5500   -9.5720   22.0380 C   0  0  0  0  0  3  0  0  0  0  0  0
  -23.8240   -8.3730   22.2000 C   0  0  0  0  0  3  0  0  0  0  0  0
  -22.6900   -8.1150   21.3950 C   0  0  0  0  0  0  0  0  0  0  0  0
  -22.3110   -9.0580   20.4210 C   0  0  0  0  0  3  0  0  0  0  0  0
  -23.0390  -10.2490   20.2590 C   0  0  0  0  0  3  0  0  0  0  0  0
  -21.9410   -6.9630   21.4640 O   0  0  0  0  0  0  0  0  0  0  0  0
  -21.8430   -6.2360   22.6240 C   0  0  0  0  0  0  0  0  0  0  0  0
  -21.3360   -6.7980   23.8160 C   0  0  0  0  0  3  0  0  0  0  0  0
  -21.1910   -5.9960   24.9640 C   0  0  0  0  0  3  0  0  0  0  0  0
  -21.5390   -4.6330   24.9230 C   0  0  0  0  0  0  0  0  0  0  0  0
  -22.0400   -4.0710   23.7360 C   0  0  0  0  0  3  0  0  0  0  0  0
  -22.1890   -4.8700   22.5900 C   0  0  0  0  0  0  0  0  0  0  0  0
  -22.6530   -4.3170   21.4420 F   0  0  0  0  0  0  0  0  0  0  0  0
  -21.3910   -3.8620   26.0260 F   0  0  0  0  0  0  0  0  0  0  0  0
  -22.9910  -13.6030   21.0860 C   0  0  0  0  0  0  0  0  0  0  0  0
  -22.2340  -12.9140   21.9290 N   0  0  0  0  0  0  0  0  0  0  0  0
  -22.5650  -14.6140   20.5270 O   0  0  0  0  0  0  0  0  0  0  0  0
  -22.5880  -12.0920   22.3960 H   0  0  0  0  0  0  0  0  0  0  0  0
  -21.2860  -13.2110   22.1120 H   0  0  0  0  0  0  0  0  0  0  0  0
  -25.6430  -15.2890   20.3610 N   0  0  0  0  0  0  0  0  0  0  0  0
  -24.8660  -15.9380   20.4020 H   0  0  0  0  0  0  0  0  0  0  0  0
  -26.4950  -15.7260   20.0310 H   0  0  0  0  0  0  0  0  0  0  0  0
  -28.2400  -24.5000   19.4310 C   0  0  0  0  0  2  0  0  0  0  0  0
  -30.4010  -26.0330   19.3230 C   0  0  0  0  0  1  0  0  0  0  0  0
  -28.5420  -26.4550   17.7370 C   0  0  0  0  0  1  0  0  0  0  0  0
  -28.8720  -25.9160   19.1540 C   0  0  1  0  0  0  0  0  0  0  0  0
  -28.4400  -26.8250   20.1820 O   0  0  0  0  0  0  0  0  0  0  0  0
  -24.5530  -31.9280   23.2170 C   0  0  0  0  0  0  0  0  0  0  0  0
  -27.2170  -27.4710   20.1720 C   0  0  0  0  0  0  0  0  0  0  0  0
  -23.3490  -30.5050   21.5900 C   0  0  0  0  0  3  0  0  0  0  0  0
  -24.8000  -28.9460   20.1930 C   0  0  0  0  0  0  0  0  0  0  0  0
  -25.8690  -30.8680   21.3830 C   0  0  0  0  0  2  0  0  0  0  0  0
  -25.9560  -29.4890   20.7670 C   0  0  0  0  0  0  0  0  0  0  0  0
  -27.1590  -28.7530   20.7620 C   0  0  0  0  0  3  0  0  0  0  0  0
  -26.0320  -26.9210   19.6330 C   0  0  0  0  0  3  0  0  0  0  0  0
  -24.8300  -27.6560   19.6330 C   0  0  0  0  0  3  0  0  0  0  0  0
  -23.5560  -29.8020   20.2230 C   0  0  0  0  0  2  0  0  0  0  0  0
  -24.6100  -31.1140   22.1220 N   0  0  0  0  0  0  0  0  0  0  0  0
  -23.4730  -32.2030   23.7550 O   0  0  0  0  0  0  0  0  0  0  0  0
  -22.6940  -29.4990   22.5640 C   0  0  0  0  0  0  0  0  0  0  0  0
  -21.3710  -29.3160   22.4370 N   0  0  0  0  0  0  0  0  0  0  0  0
  -23.3780  -28.8810   23.3860 O   0  0  0  0  0  0  0  0  0  0  0  0
  -20.8780  -29.8630   21.7440 H   0  0  0  0  0  0  0  0  0  0  0  0
  -17.9950  -28.1490   22.9630 C   0  0  0  0  0  0  0  0  0  0  0  0
  -20.5550  -28.3890   23.2200 C   0  0  0  0  0  3  0  0  0  0  0  0
  -20.6440  -26.9540   22.6500 C   0  0  0  0  0  2  0  0  0  0  0  0
  -19.5350  -26.6340   21.6430 C   0  0  0  0  0  2  0  0  0  0  0  0
  -18.1570  -26.7950   22.2930 C   0  0  0  0  0  2  0  0  0  0  0  0
  -19.1220  -28.9050   23.3840 C   0  0  0  0  0  0  0  0  0  0  0  0
  -18.9150  -30.1750   23.9660 C   0  0  0  0  0  3  0  0  0  0  0  0
  -17.6150  -30.6880   24.1350 C   0  0  0  0  0  3  0  0  0  0  0  0
  -16.5040  -29.9290   23.7320 C   0  0  0  0  0  3  0  0  0  0  0  0
  -16.6940  -28.6630   23.1510 C   0  0  0  0  0  3  0  0  0  0  0  0
  -25.8390  -32.5680   23.8280 C   0  0  0  0  0  3  0  0  0  0  0  0
  -26.3720  -31.8000   25.0990 C   0  0  1  0  0  0  0  0  0  0  0  0
  -25.2890  -31.5400   26.1710 C   0  0  0  0  0  1  0  0  0  0  0  0
  -26.9700  -30.4340   24.6920 C   0  0  0  0  0  1  0  0  0  0  0  0
  -27.5160  -32.6040   25.7570 C   0  0  0  0  0  1  0  0  0  0  0  0
  -25.5240  -33.9650   24.1620 N   0  0  0  0  0  0  0  0  0  0  0  0
  -25.8640  -35.0200   23.4110 C   0  0  0  0  0  0  0  0  0  0  0  0
  -26.5480  -34.9220   22.3880 O   0  0  0  0  0  0  0  0  0  0  0  0
  -24.9210  -34.1110   24.9580 H   0  0  0  0  0  0  0  0  0  0  0  0
  -24.1510  -36.8210   23.0250 C   0  0  0  0  0  1  0  0  0  0  0  0
  -25.3670  -36.4060   23.8700 C   0  0  0  0  0  3  0  0  0  0  0  0
  -27.4750  -37.2750   24.7770 C   0  0  0  0  0  1  0  0  0  0  0  0
  -26.4040  -37.4560   23.7980 N   0  0  0  0  0  0  0  0  0  0  0  0
  -25.9990  -38.3760   23.9420 H   0  0  0  0  0  0  0  0  0  0  0  0
  2  5  1  0
  3  1  1  0
  4  2  1  0
  4  6  1  0
  5 12  1  0
  5  1  1  0
  6  3  1  0
  6  7  1  1
  8  9  2  0
  8 10  1  0
  9 12  1  0
 10 13  2  0
 12 11  2  0
 13 11  1  0
 13 22  1  0
 15 20  1  0
 16 17  1  0
 16 15  1  0
 18 17  1  0
 18 27  1  0
 18 19  1  0
 20 14  1  0
 20 19  1  0
 21 14  2  0
 22 14  1  0
 22 23  1  0
 24 25  2  0
 25 26  1  0
 25 44  1  0
 26 29  1  0
 27 24  1  0
 27 28  1  0
 28 26  2  0
 29 30  1  0
 30 31  2  0
 32 35  1  0
 32 31  1  0
 33 32  2  0
 34 33  1  0
 34 29  2  0
 35 36  1  0
 36 37  1  0
 37 38  2  0
 39 38  1  0
 39 43  1  0
 40 39  2  0
 41 36  2  0
 41 40  1  0
 42 41  1  0
 44 45  1  0
 45 48  1  0
 45 47  1  0
 46 44  2  0
 49 50  1  0
 49 24  1  0
 51 49  1  0
 52  6  1  0
 55 54  1  6
 55 53  1  0
 55 52  1  0
 55 56  1  0
 57 68  2  0
 58 56  1  0
 58 63  1  0
 59 67  1  0
 59 69  1  0
 60 66  1  0
 60 62  1  0
 61 67  1  0
 62 61  1  0
 63 62  2  0
 64 58  2  0
 65 64  1  0
 65 60  2  0
 66 59  1  0
 67 57  1  0
 69 71  2  0
 70 69  1  0
 72 70  1  0
 73 82  2  0
 73 78  1  0
 74 70  1  0
 74 78  1  0
 75 74  1  0
 76 77  1  0
 76 75  1  0
 77 73  1  0
 78 79  2  0
 79 80  1  0
 81 80  2  0
 82 81  1  0
 83 57  1  0
 83 88  1  0
 83 84  1  0
 84 87  1  1
 84 85  1  0
 86 84  1  0
 88 91  1  0
 89 93  1  0
 89 88  1  0
 90 89  2  0
 93 92  1  0
 95 93  1  0
 95 96  1  0
 95 94  1  0
M  ISO  4  14 100  22 100  55 101  56 101
M  END
>  <TORSDO>  (94) 
F 19

>  <SCORE>  (94) 
-14.271

>  <name>  (94) 
93

>  <ligand_id>  (94) 
93

>  <original_smiles>  (94) 
[H]c1c([H])c([H])c2c(c1[H])C([H])([H])C([H])([H])C([H])([H])C2([H])N([H])C(=O)C1([H])N(C(=O)C([H])(N([H])C(=O)C([H])(N([H])C([H])([H])[H])C([H])([H])[H])C(C([H])([H])[H])(C([H])([H])[H])C([H])([H])[H])C([H])([H])c2c([H])c(OC(C([H])([H])[H])(C([H])([H])[H])C([H])([H])[N+]3([H])C([H])([H])C([H])([H])C([H])(c4c([H])c([H])c([H])c(N([H])C(=O)N5C([H])([H])C([H])([H])C([H])([H])C([H])(n6nc(-c7c([H])c([H])c(Oc8c([H])c([H])c(F)c([H])c8F)c([H])c7[H])c(C(=O)N([H])[H])c6N([H])[H])C5([H])[H])c4[H])C([H])([H])C3([H])[H])c([H])c([H])c2C1([H])[H]

>  <smiles>  (94) 
[H]c1c([H])c([H])c2c(c1[H])C([H])([H])C([H])([H])C([H])([H])C2([H])N([H])C(=O)C1([H])N(C(=O)C([H])(N([H])C(=O)C([H])(N([H])C([H])([H])[H])C([H])([H])[H])C(C([H])([H])[H])(C([H])([H])[H])C([H])([H])[H])C([H])([H])c2c([H])c(OC(C([H])([H])[H])(C([H])([H])[H])C([H])([H])[N+]3([H])C([H])([H])C([H])([H])C([H])(c4c([H])c([H])c([H])c(N([H])C(=O)N5C([H])([H])C([H])([H])C([H])([H])C([H])(n6nc(-c7c([H])c([H])c(Oc8c([H])c([H])c(F)c([H])c8F)c([H])c7[H])c(C(=O)N([H])[H])c6N([H])[H])C5([H])[H])c4[H])C([H])([H])C3([H])[H])c([H])c([H])c2C1([H])[H]

$$$$
94:0:0
     RDKit          3D

 95104  0  0  1  0  0  0  0  0999 V2000
  -27.8900  -21.5210   20.0700 C   0  0  0  0  0  3  0  0  0  0  0  0
  -30.1000  -21.6790   21.0260 C   0  0  0  0  0  3  0  0  0  0  0  0
  -27.6130  -22.8460   20.4880 C   0  0  0  0  0  3  0  0  0  0  0  0
  -29.8250  -23.0050   21.4430 C   0  0  0  0  0  3  0  0  0  0  0  0
  -29.1380  -20.9040   20.3310 C   0  0  0  0  0  0  0  0  0  0  0  0
  -28.5700  -23.6040   21.1940 C   0  0  0  0  0  0  0  0  0  0  0  0
  -30.8350  -18.9370   19.7400 C   0  0  0  0  0  2  0  0  0  0  0  0
  -29.4280  -19.4890   19.8090 C   0  0  0  0  0  3  0  0  0  0  0  0
  -29.8350  -18.2650   20.6540 C   0  0  0  0  0  3  0  0  0  0  0  0
  -29.3530  -16.8350   20.3110 C   0  0  0  0  0  2  0  0  0  0  0  0
  -30.6680  -14.6800   20.4530 C   0  0  0  0  0  0  0  0  0  0  0  0
  -30.4240  -12.5070   19.3020 C   0  0  0  0  0  2  0  0  0  0  0  0
  -29.4690  -12.6780   18.1030 C   0  0  0  0  0  2  0  0  0  0  0  0
  -28.0040  -12.5010   18.5440 C   0  0  0  0  0  2  0  0  0  0  0  0
  -27.6550  -13.3430   19.8010 C   0  0  0  0  0  3  0  0  0  0  0  0
  -28.7160  -13.1530   20.9080 C   0  0  0  0  0  2  0  0  0  0  0  0
  -30.0300  -13.4820   20.3330 N   0  0  0  0  0  0  0  0  0  0  0  0
  -31.7750  -14.9000   19.9540 O   0  0  0  0  0  0  0  0  0  0  0  0
  -29.9540  -15.6800   21.0230 N   0  0  0  0  0  0  0  0  0  0  0  0
  -30.2610  -15.8970   21.9620 H   0  0  0  0  0  0  0  0  0  0  0  0
  -25.2630  -13.9230   20.5430 C   0  0  0  0  0  0  0  0  0  0  0  0
  -24.2040  -13.1380   20.9120 C   0  0  0  0  0  0  0  0  0  0  0  0
  -24.6750  -11.7910   20.8590 C   0  0  0  0  0  0  0  0  0  0  0  0
  -26.3100  -13.0510   20.2890 N   0  0  0  0  0  0  0  0  0  0  0  0
  -25.9620  -11.7630   20.5390 N   0  0  0  0  0  0  0  0  0  0  0  0
  -23.9620  -10.5220   21.0400 C   0  0  0  0  0  0  0  0  0  0  0  0
  -24.3850   -9.5610   21.9850 C   0  0  0  0  0  3  0  0  0  0  0  0
  -23.6720   -8.3540   22.1510 C   0  0  0  0  0  3  0  0  0  0  0  0
  -22.5190   -8.0990   21.3700 C   0  0  0  0  0  0  0  0  0  0  0  0
  -22.1140   -9.0470   20.4120 C   0  0  0  0  0  3  0  0  0  0  0  0
  -22.8300  -10.2460   20.2470 C   0  0  0  0  0  3  0  0  0  0  0  0
  -21.7760   -6.9460   21.4470 O   0  0  0  0  0  0  0  0  0  0  0  0
  -21.6840   -6.2240   22.6120 C   0  0  0  0  0  0  0  0  0  0  0  0
  -21.1490   -6.7820   23.7940 C   0  0  0  0  0  3  0  0  0  0  0  0
  -21.0120   -5.9860   24.9470 C   0  0  0  0  0  3  0  0  0  0  0  0
  -21.3940   -4.6320   24.9200 C   0  0  0  0  0  0  0  0  0  0  0  0
  -21.9210   -4.0730   23.7420 C   0  0  0  0  0  3  0  0  0  0  0  0
  -22.0630   -4.8660   22.5910 C   0  0  0  0  0  0  0  0  0  0  0  0
  -22.5510   -4.3180   21.4520 F   0  0  0  0  0  0  0  0  0  0  0  0
  -21.2550   -3.8620   26.0250 F   0  0  0  0  0  0  0  0  0  0  0  0
  -22.8050  -13.6000   21.2060 C   0  0  0  0  0  0  0  0  0  0  0  0
  -22.0860  -12.8790   22.0580 N   0  0  0  0  0  0  0  0  0  0  0  0
  -22.3580  -14.6370   20.7160 O   0  0  0  0  0  0  0  0  0  0  0  0
  -22.4570  -12.0390   22.4790 H   0  0  0  0  0  0  0  0  0  0  0  0
  -21.1470  -13.1650   22.2920 H   0  0  0  0  0  0  0  0  0  0  0  0
  -25.4220  -15.2970   20.3830 N   0  0  0  0  0  0  0  0  0  0  0  0
  -24.6680  -15.9620   20.5220 H   0  0  0  0  0  0  0  0  0  0  0  0
  -26.2860  -15.7340   20.0900 H   0  0  0  0  0  0  0  0  0  0  0  0
  -28.2020  -24.9820   21.7870 C   0  0  0  0  0  3  0  0  0  0  0  0
  -28.3260  -24.9090   23.2580 N   0  0  0  0  0  4  0  0  0  0  0  0
  -29.2820  -24.8090   23.5530 H   0  0  0  0  0  0  0  0  0  0  0  0
  -27.8120  -24.1160   23.6020 H   0  0  0  0  0  0  0  0  0  0  0  0
  -27.9480  -25.7300   23.6960 H   0  0  0  0  0  0  0  0  0  0  0  0
  -28.9530  -26.2310   21.2100 C   0  0  0  0  0  2  0  0  0  0  0  0
  -28.4530  -26.7440   19.9600 O   0  0  0  0  0  0  0  0  0  0  0  0
  -24.6340  -31.8680   23.1870 C   0  0  0  0  0  0  0  0  0  0  0  0
  -27.3090  -27.5120   20.0200 C   0  0  0  0  0  0  0  0  0  0  0  0
  -23.4300  -30.4830   21.5270 C   0  0  0  0  0  3  0  0  0  0  0  0
  -24.8960  -28.9940   20.0570 C   0  0  0  0  0  0  0  0  0  0  0  0
  -25.9490  -30.8810   21.3140 C   0  0  0  0  0  2  0  0  0  0  0  0
  -26.0510  -29.5210   20.6530 C   0  0  0  0  0  0  0  0  0  0  0  0
  -27.2640  -28.7890   20.6320 C   0  0  0  0  0  3  0  0  0  0  0  0
  -26.1450  -27.0100   19.4040 C   0  0  0  0  0  3  0  0  0  0  0  0
  -24.9400  -27.7370   19.4270 C   0  0  0  0  0  3  0  0  0  0  0  0
  -23.6370  -29.8300   20.1340 C   0  0  0  0  0  2  0  0  0  0  0  0
  -24.6880  -31.0920   22.0670 N   0  0  0  0  0  0  0  0  0  0  0  0
  -23.5560  -32.1130   23.7450 O   0  0  0  0  0  0  0  0  0  0  0  0
  -22.8050  -29.4350   22.4760 C   0  0  0  0  0  0  0  0  0  0  0  0
  -21.4830  -29.2390   22.3610 N   0  0  0  0  0  0  0  0  0  0  0  0
  -23.5080  -28.8010   23.2690 O   0  0  0  0  0  0  0  0  0  0  0  0
  -20.9810  -29.7960   21.6820 H   0  0  0  0  0  0  0  0  0  0  0  0
  -18.1280  -28.0010   22.8820 C   0  0  0  0  0  0  0  0  0  0  0  0
  -20.6870  -28.2770   23.1210 C   0  0  0  0  0  3  0  0  0  0  0  0
  -20.7960  -26.8630   22.5050 C   0  0  0  0  0  2  0  0  0  0  0  0
  -19.6810  -26.5550   21.5010 C   0  0  0  0  0  2  0  0  0  0  0  0
  -18.3070  -26.6710   22.1700 C   0  0  0  0  0  2  0  0  0  0  0  0
  -19.2460  -28.7610   23.3140 C   0  0  0  0  0  0  0  0  0  0  0  0
  -19.0280  -30.0070   23.9400 C   0  0  0  0  0  3  0  0  0  0  0  0
  -17.7230  -30.4940   24.1390 C   0  0  0  0  0  3  0  0  0  0  0  0
  -16.6180  -29.7310   23.7230 C   0  0  0  0  0  3  0  0  0  0  0  0
  -16.8210  -28.4850   23.1000 C   0  0  0  0  0  3  0  0  0  0  0  0
  -25.9190  -32.5050   23.8040 C   0  0  0  0  0  3  0  0  0  0  0  0
  -25.5980  -33.8960   24.1520 N   0  0  0  0  0  0  0  0  0  0  0  0
  -25.9120  -34.9600   23.4000 C   0  0  0  0  0  0  0  0  0  0  0  0
  -26.5740  -34.8750   22.3620 O   0  0  0  0  0  0  0  0  0  0  0  0
  -25.0090  -34.0330   24.9600 H   0  0  0  0  0  0  0  0  0  0  0  0
  -24.1700  -36.7420   23.0660 C   0  0  0  0  0  1  0  0  0  0  0  0
  -25.4110  -36.3370   23.8760 C   0  0  0  0  0  3  0  0  0  0  0  0
  -27.5300  -37.2320   24.7360 C   0  0  0  0  0  1  0  0  0  0  0  0
  -26.4370  -37.3990   23.7820 N   0  0  0  0  0  0  0  0  0  0  0  0
  -26.0230  -38.3140   23.9280 H   0  0  0  0  0  0  0  0  0  0  0  0
  -26.4570  -31.7230   25.0650 C   0  0  1  0  0  0  0  0  0  0  0  0
  -25.3740  -31.4600   26.1370 C   0  0  0  0  0  1  0  0  0  0  0  0
  -27.0520  -30.3560   24.6500 C   0  0  0  0  0  1  0  0  0  0  0  0
  -27.6030  -32.5230   25.7250 C   0  0  0  0  0  1  0  0  0  0  0  0
  1  5  2  0
  1  3  1  0
  2  4  2  0
  3  6  2  0
  5  2  1  0
  6  4  1  0
  6 49  1  0
  7  8  1  0
  7  9  1  0
  8  5  1  0
  8  9  1  0
  9 10  1  0
 10 19  1  0
 11 19  1  0
 12 17  1  0
 13 14  1  0
 13 12  1  0
 15 14  1  0
 15 24  1  0
 15 16  1  0
 17 11  1  0
 17 16  1  0
 18 11  2  0
 19 20  1  0
 21 22  2  0
 22 41  1  0
 23 22  1  0
 23 26  1  0
 24 25  1  0
 24 21  1  0
 25 23  2  0
 26 27  1  0
 27 28  2  0
 29 32  1  0
 29 28  1  0
 30 29  2  0
 31 30  1  0
 31 26  2  0
 32 33  1  0
 33 34  1  0
 34 35  2  0
 36 35  1  0
 36 40  1  0
 37 36  2  0
 38 33  2  0
 38 37  1  0
 39 38  1  0
 41 42  1  0
 42 45  1  0
 42 44  1  0
 43 41  2  0
 46 47  1  0
 46 21  1  0
 48 46  1  0
 49 54  1  0
 49 50  1  0
 50 51  1  0
 50 52  1  0
 50 53  1  0
 55 57  1  0
 55 54  1  0
 56 67  2  0
 57 62  1  0
 58 66  1  0
 58 68  1  0
 59 65  1  0
 59 61  1  0
 60 66  1  0
 61 60  1  0
 62 61  2  0
 63 64  1  0
 63 57  2  0
 64 59  2  0
 65 58  1  0
 66 56  1  0
 68 70  2  0
 69 68  1  0
 71 69  1  0
 72 81  2  0
 72 77  1  0
 73 69  1  0
 73 77  1  0
 74 73  1  0
 75 76  1  0
 75 74  1  0
 76 72  1  0
 77 78  2  0
 78 79  1  0
 80 79  2  0
 81 80  1  0
 82 56  1  0
 82 83  1  0
 82 92  1  0
 83 86  1  0
 84 88  1  0
 84 83  1  0
 85 84  2  0
 88 87  1  0
 90 88  1  0
 90 91  1  0
 90 89  1  0
 92 95  1  1
 92 93  1  0
 94 92  1  0
M  ISO  4  11 100  19 100  54 101  55 101
M  END
>  <TORSDO>  (95) 
F 21

>  <SCORE>  (95) 
-13.944

>  <name>  (95) 
94

>  <ligand_id>  (95) 
94

>  <original_smiles>  (95) 
[H]c1c([H])c([H])c2c(c1[H])C([H])([H])C([H])([H])C([H])([H])C2([H])N([H])C(=O)C1([H])N(C(=O)C([H])(N([H])C(=O)C([H])(N([H])C([H])([H])[H])C([H])([H])[H])C(C([H])([H])[H])(C([H])([H])[H])C([H])([H])[H])C([H])([H])c2c([H])c(OC([H])([H])C([H])(c3c([H])c([H])c(C4([H])C([H])([H])C4([H])C([H])([H])N([H])C(=O)N4C([H])([H])C([H])([H])C([H])([H])C([H])(n5nc(-c6c([H])c([H])c(Oc7c([H])c([H])c(F)c([H])c7F)c([H])c6[H])c(C(=O)N([H])[H])c5N([H])[H])C4([H])[H])c([H])c3[H])[N+]([H])([H])[H])c([H])c([H])c2C1([H])[H]

>  <smiles>  (95) 
[H]c1c([H])c([H])c2c(c1[H])C([H])([H])C([H])([H])C([H])([H])C2([H])N([H])C(=O)C1([H])N(C(=O)C([H])(N([H])C(=O)C([H])(N([H])C([H])([H])[H])C([H])([H])[H])C(C([H])([H])[H])(C([H])([H])[H])C([H])([H])[H])C([H])([H])c2c([H])c(OC([H])([H])C([H])(c3c([H])c([H])c(C4([H])C([H])([H])C4([H])C([H])([H])N([H])C(=O)N4C([H])([H])C([H])([H])C([H])([H])C([H])(n5nc(-c6c([H])c([H])c(Oc7c([H])c([H])c(F)c([H])c7F)c([H])c6[H])c(C(=O)N([H])[H])c5N([H])[H])C4([H])[H])c([H])c3[H])[N+]([H])([H])[H])c([H])c([H])c2C1([H])[H]

$$$$
95:0:0
     RDKit          3D

 96104  0  0  1  0  0  0  0  0999 V2000
  -29.7410  -21.2610   21.0420 C   0  0  0  0  0  3  0  0  0  0  0  0
  -28.6790  -18.4990   18.4660 C   0  0  0  0  0  3  0  0  0  0  0  0
  -28.8620  -19.7280   19.1390 C   0  0  0  0  0  3  0  0  0  0  0  0
  -29.0710  -17.2710   19.0380 C   0  0  0  0  0  3  0  0  0  0  0  0
  -29.8250  -18.4970   20.9970 C   0  0  0  0  0  3  0  0  0  0  0  0
  -29.4590  -19.7950   20.4160 C   0  0  0  0  0  0  0  0  0  0  0  0
  -29.6490  -17.2120   20.3250 C   0  0  0  0  0  0  0  0  0  0  0  0
  -30.5740  -14.7790   20.4140 C   0  0  0  0  0  0  0  0  0  0  0  0
  -30.3910  -12.5020   19.3840 C   0  0  0  0  0  2  0  0  0  0  0  0
  -29.4760  -12.6330   18.1480 C   0  0  0  0  0  2  0  0  0  0  0  0
  -27.9920  -12.4730   18.5430 C   0  0  0  0  0  2  0  0  0  0  0  0
  -27.6180  -13.3130   19.7910 C   0  0  0  0  0  3  0  0  0  0  0  0
  -28.6630  -13.1720   20.9220 C   0  0  0  0  0  2  0  0  0  0  0  0
  -29.9710  -13.5380   20.3620 N   0  0  0  0  0  0  0  0  0  0  0  0
  -31.7160  -14.9260   19.9700 O   0  0  0  0  0  0  0  0  0  0  0  0
  -29.8540  -15.8610   20.9060 N   0  0  0  0  0  0  0  0  0  0  0  0
  -29.0730  -15.5590   21.4740 H   0  0  0  0  0  0  0  0  0  0  0  0
  -25.2140  -13.9000   20.4720 C   0  0  0  0  0  0  0  0  0  0  0  0
  -24.1450  -13.1270   20.8340 C   0  0  0  0  0  0  0  0  0  0  0  0
  -24.6090  -11.7780   20.8220 C   0  0  0  0  0  0  0  0  0  0  0  0
  -26.2630  -13.0220   20.2560 N   0  0  0  0  0  0  0  0  0  0  0  0
  -25.9040  -11.7400   20.5250 N   0  0  0  0  0  0  0  0  0  0  0  0
  -23.8810  -10.5160   21.0230 C   0  0  0  0  0  0  0  0  0  0  0  0
  -24.3130   -9.5530   21.9600 C   0  0  0  0  0  3  0  0  0  0  0  0
  -23.5860   -8.3550   22.1440 C   0  0  0  0  0  3  0  0  0  0  0  0
  -22.4100   -8.1150   21.3890 C   0  0  0  0  0  0  0  0  0  0  0  0
  -21.9990   -9.0680   20.4440 C   0  0  0  0  0  3  0  0  0  0  0  0
  -22.7260  -10.2560   20.2570 C   0  0  0  0  0  3  0  0  0  0  0  0
  -21.6540   -6.9710   21.4820 O   0  0  0  0  0  0  0  0  0  0  0  0
  -21.6150   -6.2250   22.6320 C   0  0  0  0  0  0  0  0  0  0  0  0
  -21.2080   -6.7820   23.8640 C   0  0  0  0  0  3  0  0  0  0  0  0
  -21.1150   -5.9630   25.0090 C   0  0  0  0  0  3  0  0  0  0  0  0
  -21.4190   -4.5910   24.9210 C   0  0  0  0  0  0  0  0  0  0  0  0
  -21.8140   -4.0330   23.6930 C   0  0  0  0  0  3  0  0  0  0  0  0
  -21.9100   -4.8480   22.5490 C   0  0  0  0  0  0  0  0  0  0  0  0
  -22.2750   -4.3030   21.3640 F   0  0  0  0  0  0  0  0  0  0  0  0
  -21.3210   -3.8050   26.0210 F   0  0  0  0  0  0  0  0  0  0  0  0
  -22.7440  -13.6050   21.0860 C   0  0  0  0  0  0  0  0  0  0  0  0
  -22.0050  -12.9210   21.9520 N   0  0  0  0  0  0  0  0  0  0  0  0
  -22.3130  -14.6250   20.5470 O   0  0  0  0  0  0  0  0  0  0  0  0
  -22.3690  -12.0990   22.4130 H   0  0  0  0  0  0  0  0  0  0  0  0
  -21.0620  -13.2250   22.1640 H   0  0  0  0  0  0  0  0  0  0  0  0
  -25.3850  -15.2690   20.2850 N   0  0  0  0  0  0  0  0  0  0  0  0
  -24.6200  -15.9280   20.3660 H   0  0  0  0  0  0  0  0  0  0  0  0
  -26.2450  -15.6960   19.9670 H   0  0  0  0  0  0  0  0  0  0  0  0
  -29.1890  -23.8320   20.5080 C   0  0  0  0  0  0  0  0  0  0  0  0
  -28.8880  -22.4710   20.5960 N   0  0  0  0  0  0  0  0  0  0  0  0
  -30.3060  -24.2200   20.8650 O   0  0  0  0  0  0  0  0  0  0  0  0
  -27.9410  -22.2330   20.3410 H   0  0  0  0  0  0  0  0  0  0  0  0
  -28.1390  -24.9240   19.9560 C   0  0  0  0  0  2  0  0  0  0  0  0
  -28.3230  -26.3900   20.2910 O   0  0  0  0  0  0  0  0  0  0  0  0
  -24.6220  -31.9210   23.2390 C   0  0  0  0  0  0  0  0  0  0  0  0
  -27.2230  -27.2880   20.2050 C   0  0  0  0  0  0  0  0  0  0  0  0
  -23.4160  -30.5220   21.6070 C   0  0  0  0  0  3  0  0  0  0  0  0
  -24.8590  -28.9480   20.1850 C   0  0  0  0  0  0  0  0  0  0  0  0
  -25.9610  -30.8090   21.4290 C   0  0  0  0  0  2  0  0  0  0  0  0
  -26.0330  -29.4250   20.7830 C   0  0  0  0  0  0  0  0  0  0  0  0
  -27.2130  -28.6080   20.7820 C   0  0  0  0  0  3  0  0  0  0  0  0
  -26.0260  -26.8950   19.5620 C   0  0  0  0  0  3  0  0  0  0  0  0
  -24.8620  -27.6920   19.5610 C   0  0  0  0  0  3  0  0  0  0  0  0
  -23.6220  -29.8270   20.2340 C   0  0  0  0  0  2  0  0  0  0  0  0
  -24.6850  -31.1030   22.1460 N   0  0  0  0  0  0  0  0  0  0  0  0
  -23.5390  -32.2100   23.7730 O   0  0  0  0  0  0  0  0  0  0  0  0
  -22.7400  -29.5200   22.5760 C   0  0  0  0  0  0  0  0  0  0  0  0
  -21.4120  -29.3520   22.4530 N   0  0  0  0  0  0  0  0  0  0  0  0
  -23.4100  -28.8940   23.4010 O   0  0  0  0  0  0  0  0  0  0  0  0
  -20.9260  -29.9040   21.7610 H   0  0  0  0  0  0  0  0  0  0  0  0
  -18.0280  -28.1720   22.9610 C   0  0  0  0  0  0  0  0  0  0  0  0
  -20.5880  -28.4210   23.2290 C   0  0  0  0  0  3  0  0  0  0  0  0
  -20.6810  -26.9860   22.6590 C   0  0  0  0  0  2  0  0  0  0  0  0
  -19.5780  -26.6660   21.6450 C   0  0  0  0  0  2  0  0  0  0  0  0
  -18.1970  -26.8200   22.2890 C   0  0  0  0  0  2  0  0  0  0  0  0
  -19.1510  -28.9300   23.3880 C   0  0  0  0  0  0  0  0  0  0  0  0
  -18.9380  -30.1960   23.9760 C   0  0  0  0  0  3  0  0  0  0  0  0
  -17.6340  -30.7020   24.1420 C   0  0  0  0  0  3  0  0  0  0  0  0
  -16.5250  -29.9390   23.7310 C   0  0  0  0  0  3  0  0  0  0  0  0
  -16.7250  -28.6760   23.1480 C   0  0  0  0  0  3  0  0  0  0  0  0
  -25.9070  -32.5500   23.8630 C   0  0  0  0  0  3  0  0  0  0  0  0
  -25.6010  -33.9480   24.2000 N   0  0  0  0  0  0  0  0  0  0  0  0
  -25.9250  -35.0050   23.4420 C   0  0  0  0  0  0  0  0  0  0  0  0
  -26.5810  -34.9010   22.4030 O   0  0  0  0  0  0  0  0  0  0  0  0
  -25.0120  -34.1000   25.0060 H   0  0  0  0  0  0  0  0  0  0  0  0
  -24.1870  -36.7950   23.1320 C   0  0  0  0  0  1  0  0  0  0  0  0
  -25.4470  -36.3930   23.9120 C   0  0  0  0  0  3  0  0  0  0  0  0
  -27.5990  -37.2810   24.6910 C   0  0  0  0  0  1  0  0  0  0  0  0
  -26.4740  -37.4460   23.7730 N   0  0  0  0  0  0  0  0  0  0  0  0
  -26.0730  -38.3670   23.9260 H   0  0  0  0  0  0  0  0  0  0  0  0
  -26.4190  -31.7770   25.1420 C   0  0  1  0  0  0  0  0  0  0  0  0
  -25.3240  -31.5470   26.2110 C   0  0  0  0  0  1  0  0  0  0  0  0
  -26.9970  -30.3960   24.7550 C   0  0  0  0  0  1  0  0  0  0  0  0
  -27.5750  -32.5670   25.8010 C   0  0  0  0  0  1  0  0  0  0  0  0
  -29.8950  -21.1930   22.5930 C   0  0  0  0  0  2  0  0  0  0  0  0
  -30.2740  -22.4720   23.2280 N   0  0  0  0  0  4  0  0  0  0  0  0
  -30.8950  -22.9910   22.6270 H   0  0  0  0  0  0  0  0  0  0  0  0
  -30.7400  -22.2980   24.1020 H   0  0  0  0  0  0  0  0  0  0  0  0
  -29.4670  -23.0380   23.4100 H   0  0  0  0  0  0  0  0  0  0  0  0
  1 92  1  0
  2  4  2  0
  2  3  1  0
  3  6  2  0
  4  7  1  0
  6  5  1  0
  6  1  1  0
  7 16  1  0
  7  5  2  0
  8 16  1  0
  9 14  1  0
 10 11  1  0
 10  9  1  0
 12 11  1  0
 12 21  1  0
 12 13  1  0
 14  8  1  0
 14 13  1  0
 15  8  2  0
 16 17  1  0
 18 19  2  0
 19 38  1  0
 20 19  1  0
 20 23  1  0
 21 18  1  0
 21 22  1  0
 22 20  2  0
 23 24  1  0
 24 25  2  0
 26 29  1  0
 26 25  1  0
 27 26  2  0
 28 27  1  0
 28 23  2  0
 29 30  1  0
 30 31  1  0
 31 32  2  0
 33 32  1  0
 33 37  1  0
 34 33  2  0
 35 30  2  0
 35 34  1  0
 36 35  1  0
 38 39  1  0
 39 42  1  0
 39 41  1  0
 40 38  2  0
 43 44  1  0
 43 18  1  0
 45 43  1  0
 46 47  1  0
 46 48  2  0
 47  1  1  0
 49 47  1  0
 50 51  1  0
 50 46  1  0
 52 63  2  0
 53 51  1  0
 53 58  1  0
 54 62  1  0
 54 64  1  0
 55 61  1  0
 55 57  1  0
 56 62  1  0
 57 56  1  0
 58 57  2  0
 59 53  2  0
 60 59  1  0
 60 55  2  0
 61 54  1  0
 62 52  1  0
 64 66  2  0
 65 64  1  0
 67 65  1  0
 68 77  2  0
 68 73  1  0
 69 65  1  0
 69 73  1  0
 70 69  1  0
 71 72  1  0
 71 70  1  0
 72 68  1  0
 73 74  2  0
 74 75  1  0
 76 75  2  0
 77 76  1  0
 78 52  1  0
 78 79  1  0
 78 88  1  0
 79 82  1  0
 80 84  1  0
 80 79  1  0
 81 80  2  0
 84 83  1  0
 86 84  1  0
 86 87  1  0
 86 85  1  0
 88 91  1  1
 88 89  1  0
 90 88  1  0
 92 93  1  0
 93 96  1  0
 93 95  1  0
 94 93  1  0
M  ISO  4   8 100  16 100  50 101  51 101
M  END
>  <TORSDO>  (96) 
F 21

>  <SCORE>  (96) 
-13.976

>  <name>  (96) 
95

>  <ligand_id>  (96) 
95

>  <original_smiles>  (96) 
[H]c1c([H])c([H])c2c(c1[H])C([H])([H])C([H])([H])C([H])([H])C2([H])N([H])C(=O)C1([H])N(C(=O)C([H])(N([H])C(=O)C([H])(N([H])C([H])([H])[H])C([H])([H])[H])C(C([H])([H])[H])(C([H])([H])[H])C([H])([H])[H])C([H])([H])c2c([H])c(OC([H])([H])C(=O)N([H])C([H])(c3c([H])c([H])c([H])c(N([H])C(=O)N4C([H])([H])C([H])([H])C([H])([H])C([H])(n5nc(-c6c([H])c([H])c(Oc7c([H])c([H])c(F)c([H])c7F)c([H])c6[H])c(C(=O)N([H])[H])c5N([H])[H])C4([H])[H])c3[H])C([H])([H])[N+]([H])([H])[H])c([H])c([H])c2C1([H])[H]

>  <smiles>  (96) 
[H]c1c([H])c([H])c2c(c1[H])C([H])([H])C([H])([H])C([H])([H])C2([H])N([H])C(=O)C1([H])N(C(=O)C([H])(N([H])C(=O)C([H])(N([H])C([H])([H])[H])C([H])([H])[H])C(C([H])([H])[H])(C([H])([H])[H])C([H])([H])[H])C([H])([H])c2c([H])c(OC([H])([H])C(=O)N([H])C([H])(c3c([H])c([H])c([H])c(N([H])C(=O)N4C([H])([H])C([H])([H])C([H])([H])C([H])(n5nc(-c6c([H])c([H])c(Oc7c([H])c([H])c(F)c([H])c7F)c([H])c6[H])c(C(=O)N([H])[H])c5N([H])[H])C4([H])[H])c3[H])C([H])([H])[N+]([H])([H])[H])c([H])c([H])c2C1([H])[H]

$$$$
96:0:0
     RDKit          3D

 97105  0  0  1  0  0  0  0  0999 V2000
  -30.7960  -19.4140   21.4220 C   0  0  0  0  0  3  0  0  0  0  0  0
  -30.9310  -17.9920   21.3670 C   0  0  0  0  0  3  0  0  0  0  0  0
  -29.4990  -17.9730   19.4410 C   0  0  0  0  0  3  0  0  0  0  0  0
  -29.9950  -20.1660   20.5110 C   0  0  0  0  0  0  0  0  0  0  0  0
  -30.2650  -17.2260   20.3750 C   0  0  0  0  0  0  0  0  0  0  0  0
  -29.3540  -19.3940   19.4980 C   0  0  0  0  0  0  0  0  0  0  0  0
  -30.9340  -14.7400   19.9060 C   0  0  0  0  0  0  0  0  0  0  0  0
  -30.5750  -12.5710   18.7200 C   0  0  0  0  0  2  0  0  0  0  0  0
  -29.5360  -12.8020   17.5990 C   0  0  0  0  0  2  0  0  0  0  0  0
  -28.1010  -12.6510   18.1400 C   0  0  0  0  0  2  0  0  0  0  0  0
  -27.8750  -13.4470   19.4560 C   0  0  0  0  0  3  0  0  0  0  0  0
  -29.0190  -13.1910   20.4660 C   0  0  0  0  0  2  0  0  0  0  0  0
  -30.2860  -13.5350   19.8000 N   0  0  0  0  0  0  0  0  0  0  0  0
  -32.0710  -14.9010   19.4490 O   0  0  0  0  0  0  0  0  0  0  0  0
  -30.1550  -15.7690   20.3700 N   0  0  0  0  0  0  0  0  0  0  0  0
  -29.2290  -15.4400   20.5980 H   0  0  0  0  0  0  0  0  0  0  0  0
  -25.5860  -14.0720   20.4380 C   0  0  0  0  0  0  0  0  0  0  0  0
  -24.5240  -13.3100   20.8410 C   0  0  0  0  0  0  0  0  0  0  0  0
  -24.9220  -11.9500   20.6640 C   0  0  0  0  0  0  0  0  0  0  0  0
  -26.5670  -13.1760   20.0400 N   0  0  0  0  0  0  0  0  0  0  0  0
  -26.1770  -11.8910   20.2360 N   0  0  0  0  0  0  0  0  0  0  0  0
  -24.1610  -10.7040   20.8220 C   0  0  0  0  0  0  0  0  0  0  0  0
  -24.6060   -9.6720   21.6770 C   0  0  0  0  0  3  0  0  0  0  0  0
  -23.8450   -8.4930   21.8290 C   0  0  0  0  0  3  0  0  0  0  0  0
  -22.6260   -8.3390   21.1290 C   0  0  0  0  0  0  0  0  0  0  0  0
  -22.1980   -9.3590   20.2630 C   0  0  0  0  0  3  0  0  0  0  0  0
  -22.9590  -10.5320   20.1090 C   0  0  0  0  0  3  0  0  0  0  0  0
  -21.8370   -7.2150   21.1930 O   0  0  0  0  0  0  0  0  0  0  0  0
  -21.7700   -6.4460   22.3270 C   0  0  0  0  0  0  0  0  0  0  0  0
  -21.3790   -6.9860   23.5720 C   0  0  0  0  0  3  0  0  0  0  0  0
  -21.2560   -6.1450   24.6970 C   0  0  0  0  0  3  0  0  0  0  0  0
  -21.5150   -4.7660   24.5770 C   0  0  0  0  0  0  0  0  0  0  0  0
  -21.8990   -4.2280   23.3370 C   0  0  0  0  0  3  0  0  0  0  0  0
  -22.0230   -5.0660   22.2160 C   0  0  0  0  0  0  0  0  0  0  0  0
  -22.3740   -4.5380   21.0180 F   0  0  0  0  0  0  0  0  0  0  0  0
  -21.3880   -3.9570   25.6530 F   0  0  0  0  0  0  0  0  0  0  0  0
  -23.1800  -13.8180   21.2780 C   0  0  0  0  0  0  0  0  0  0  0  0
  -22.5130  -13.0980   22.1730 N   0  0  0  0  0  0  0  0  0  0  0  0
  -22.7340  -14.8840   20.8570 O   0  0  0  0  0  0  0  0  0  0  0  0
  -22.8940  -12.2390   22.5410 H   0  0  0  0  0  0  0  0  0  0  0  0
  -21.6160  -13.4160   22.5080 H   0  0  0  0  0  0  0  0  0  0  0  0
  -25.7890  -15.4460   20.3610 N   0  0  0  0  0  0  0  0  0  0  0  0
  -25.0480  -16.0990   20.5910 H   0  0  0  0  0  0  0  0  0  0  0  0
  -26.6310  -15.8980   20.0310 H   0  0  0  0  0  0  0  0  0  0  0  0
  -27.2160  -20.2770   18.8090 C   0  0  0  0  0  0  0  0  0  0  0  0
  -29.0360  -20.0060   17.1540 C   0  0  0  0  0  1  0  0  0  0  0  0
  -28.5120  -19.9910   18.5220 N   0  0  0  0  0  0  0  0  0  0  0  0
  -26.7960  -20.3510   19.9690 O   0  0  0  0  0  0  0  0  0  0  0  0
  -24.8000  -20.0500   17.9930 C   0  0  0  0  0  1  0  0  0  0  0  0
  -26.2220  -20.5360   17.6610 C   0  0  0  0  0  2  0  0  0  0  0  0
  -29.7210  -21.7010   20.7970 C   0  0  0  0  0  2  0  0  0  0  0  0
  -28.9040  -23.9770   20.0140 C   0  0  0  0  0  0  0  0  0  0  0  0
  -30.3060  -22.6020   18.5030 C   0  0  0  0  0  1  0  0  0  0  0  0
  -29.5610  -22.7820   19.7490 N   0  0  0  0  0  0  0  0  0  0  0  0
  -28.2580  -24.1190   21.0570 O   0  0  0  0  0  0  0  0  0  0  0  0
  -28.9810  -25.2200   19.0320 C   0  0  0  0  0  2  0  0  0  0  0  0
  -28.7940  -26.5570   19.6420 O   0  0  0  0  0  0  0  0  0  0  0  0
  -24.7220  -31.4940   22.9150 C   0  0  0  0  0  0  0  0  0  0  0  0
  -27.5880  -27.2730   19.6180 C   0  0  0  0  0  0  0  0  0  0  0  0
  -23.5910  -30.1150   21.2020 C   0  0  0  0  0  3  0  0  0  0  0  0
  -25.1210  -28.7220   19.6990 C   0  0  0  0  0  0  0  0  0  0  0  0
  -26.1010  -30.5920   21.0320 C   0  0  0  0  0  2  0  0  0  0  0  0
  -26.2560  -29.2550   20.3200 C   0  0  0  0  0  0  0  0  0  0  0  0
  -27.4850  -28.5380   20.2740 C   0  0  0  0  0  3  0  0  0  0  0  0
  -26.4210  -26.7780   18.9920 C   0  0  0  0  0  3  0  0  0  0  0  0
  -25.2040  -27.4860   19.0330 C   0  0  0  0  0  3  0  0  0  0  0  0
  -23.8360  -29.5160   19.7900 C   0  0  0  0  0  2  0  0  0  0  0  0
  -24.8200  -30.7510   21.7730 N   0  0  0  0  0  0  0  0  0  0  0  0
  -23.6270  -31.6840   23.4640 O   0  0  0  0  0  0  0  0  0  0  0  0
  -22.9860  -29.0180   22.1110 C   0  0  0  0  0  0  0  0  0  0  0  0
  -21.6660  -28.8010   22.0010 N   0  0  0  0  0  0  0  0  0  0  0  0
  -23.7070  -28.3660   22.8690 O   0  0  0  0  0  0  0  0  0  0  0  0
  -21.1390  -29.3830   21.3640 H   0  0  0  0  0  0  0  0  0  0  0  0
  -18.3440  -27.4620   22.5030 C   0  0  0  0  0  0  0  0  0  0  0  0
  -20.9010  -27.7850   22.7260 C   0  0  0  0  0  3  0  0  0  0  0  0
  -21.0310  -26.4000   22.0490 C   0  0  0  0  0  2  0  0  0  0  0  0
  -19.9120  -26.1150   21.0420 C   0  0  0  0  0  2  0  0  0  0  0  0
  -18.5460  -26.1700   21.7280 C   0  0  0  0  0  2  0  0  0  0  0  0
  -19.4500  -28.2280   22.9580 C   0  0  0  0  0  0  0  0  0  0  0  0
  -19.2080  -29.4400   23.6390 C   0  0  0  0  0  3  0  0  0  0  0  0
  -17.8930  -29.8850   23.8730 C   0  0  0  0  0  3  0  0  0  0  0  0
  -16.8040  -29.1160   23.4350 C   0  0  0  0  0  3  0  0  0  0  0  0
  -17.0300  -27.9050   22.7560 C   0  0  0  0  0  3  0  0  0  0  0  0
  -25.9740  -32.1560   23.5690 C   0  0  0  0  0  3  0  0  0  0  0  0
  -25.6010  -33.5220   23.9610 N   0  0  0  0  0  0  0  0  0  0  0  0
  -25.9370  -34.6270   23.2830 C   0  0  0  0  0  0  0  0  0  0  0  0
  -26.6660  -34.6040   22.2870 O   0  0  0  0  0  0  0  0  0  0  0  0
  -24.9660  -33.6090   24.7410 H   0  0  0  0  0  0  0  0  0  0  0  0
  -24.1710  -36.3810   22.9240 C   0  0  0  0  0  1  0  0  0  0  0  0
  -25.3750  -35.9690   23.7860 C   0  0  0  0  0  3  0  0  0  0  0  0
  -27.4250  -36.8710   24.7940 C   0  0  0  0  0  1  0  0  0  0  0  0
  -26.3750  -37.0590   23.7950 N   0  0  0  0  0  0  0  0  0  0  0  0
  -25.9280  -37.9550   23.9680 H   0  0  0  0  0  0  0  0  0  0  0  0
  -26.5250  -31.3540   24.8130 C   0  0  1  0  0  0  0  0  0  0  0  0
  -25.4460  -31.0260   25.8710 C   0  0  0  0  0  1  0  0  0  0  0  0
  -27.1670  -30.0180   24.3670 C   0  0  0  0  0  1  0  0  0  0  0  0
  -27.6450  -32.1650   25.5080 C   0  0  0  0  0  1  0  0  0  0  0  0
  2  1  1  0
  3  6  2  0
  3  5  1  0
  4 51  1  0
  4  1  2  0
  5  2  2  0
  6  4  1  0
  7 15  1  0
  8 13  1  0
  9 10  1  0
  9  8  1  0
 11 10  1  0
 11 20  1  0
 11 12  1  0
 13  7  1  0
 13 12  1  0
 14  7  2  0
 15  5  1  0
 15 16  1  0
 17 18  2  0
 18 37  1  0
 19 22  1  0
 19 18  1  0
 20 21  1  0
 20 17  1  0
 21 19  2  0
 22 23  1  0
 23 24  2  0
 25 28  1  0
 25 24  1  0
 26 25  2  0
 27 26  1  0
 27 22  2  0
 28 29  1  0
 29 30  1  0
 30 31  2  0
 32 31  1  0
 32 36  1  0
 33 32  2  0
 34 29  2  0
 34 33  1  0
 35 34  1  0
 37 38  1  0
 38 41  1  0
 38 40  1  0
 39 37  2  0
 42 17  1  0
 42 43  1  0
 44 42  1  0
 45 48  2  0
 46 47  1  0
 47 45  1  0
 47  6  1  0
 50 49  1  0
 50 45  1  0
 52 55  2  0
 53 54  1  0
 54 52  1  0
 54 51  1  0
 56 57  1  0
 56 52  1  0
 58 69  2  0
 59 57  1  0
 59 64  1  0
 60 68  1  0
 60 70  1  0
 61 67  1  0
 61 63  1  0
 62 68  1  0
 63 62  1  0
 64 63  2  0
 65 66  1  0
 65 59  2  0
 66 61  2  0
 67 60  1  0
 68 58  1  0
 70 72  2  0
 71 70  1  0
 73 71  1  0
 74 83  2  0
 74 79  1  0
 75 71  1  0
 75 79  1  0
 76 75  1  0
 77 78  1  0
 77 76  1  0
 78 74  1  0
 79 80  2  0
 80 81  1  0
 82 81  2  0
 83 82  1  0
 84 58  1  0
 84 85  1  0
 84 94  1  0
 85 88  1  0
 86 90  1  0
 86 85  1  0
 87 86  2  0
 90 89  1  0
 90 92  1  0
 92 93  1  0
 92 91  1  0
 94 97  1  1
 94 95  1  0
 96 94  1  0
M  ISO  4   7 100  15 100  56 101  57 101
M  END
>  <TORSDO>  (97) 
F 21

>  <SCORE>  (97) 
-11.363

>  <name>  (97) 
96

>  <ligand_id>  (97) 
96

>  <original_smiles>  (97) 
[H]c1c([H])c([H])c2c(c1[H])C([H])([H])C([H])([H])C([H])([H])C2([H])N([H])C(=O)C1([H])N(C(=O)C([H])(N([H])C(=O)C([H])(N([H])C([H])([H])[H])C([H])([H])[H])C(C([H])([H])[H])(C([H])([H])[H])C([H])([H])[H])C([H])([H])c2c([H])c(OC([H])([H])C(=O)N(C([H])([H])[H])C([H])([H])c3c([H])c([H])c(N([H])C(=O)N4C([H])([H])C([H])([H])C([H])([H])C([H])(n5nc(-c6c([H])c([H])c(Oc7c([H])c([H])c(F)c([H])c7F)c([H])c6[H])c(C(=O)N([H])[H])c5N([H])[H])C4([H])[H])c([H])c3N(C(=O)C([H])([H])C([H])([H])[H])C([H])([H])[H])c([H])c([H])c2C1([H])[H]

>  <smiles>  (97) 
[H]c1c([H])c([H])c2c(c1[H])C([H])([H])C([H])([H])C([H])([H])C2([H])N([H])C(=O)C1([H])N(C(=O)C([H])(N([H])C(=O)C([H])(N([H])C([H])([H])[H])C([H])([H])[H])C(C([H])([H])[H])(C([H])([H])[H])C([H])([H])[H])C([H])([H])c2c([H])c(OC([H])([H])C(=O)N(C([H])([H])[H])C([H])([H])c3c([H])c([H])c(N([H])C(=O)N4C([H])([H])C([H])([H])C([H])([H])C([H])(n5nc(-c6c([H])c([H])c(Oc7c([H])c([H])c(F)c([H])c7F)c([H])c6[H])c(C(=O)N([H])[H])c5N([H])[H])C4([H])[H])c([H])c3N(C(=O)C([H])([H])C([H])([H])[H])C([H])([H])[H])c([H])c([H])c2C1([H])[H]

$$$$
