0:0:0
     RDKit          3D

106116  0  0  1  0  0  0  0  0999 V2000
  -26.8550  -23.9340   18.9710 C   0  0  0  0  0  2  0  0  0  0  0  0
  -27.2390  -25.2310   19.7040 C   0  0  0  0  0  2  0  0  0  0  0  0
  -27.4510  -24.0560   21.9050 C   0  0  0  0  0  2  0  0  0  0  0  0
  -26.4520  -23.0060   21.3100 C   0  0  0  0  0  3  0  0  0  0  0  0
  -26.8500  -22.6580   19.8390 C   0  0  0  0  0  3  0  0  0  0  0  0
  -28.0370  -25.0450   20.9410 N   0  0  2  0  0  4  0  0  0  0  0  0
  -28.9150  -24.6390   20.6470 H   0  0  0  0  0  0  0  0  0  0  0  0
  -27.2720  -19.2900   19.4730 C   0  0  0  0  0  2  0  0  0  0  0  0
  -27.9630  -20.7890   17.6110 C   0  0  0  0  0  2  0  0  0  0  0  0
  -26.0780  -20.2110   19.8360 C   0  0  0  0  0  2  0  0  0  0  0  0
  -26.5200  -21.3450   17.7220 C   0  0  0  0  0  2  0  0  0  0  0  0
  -28.3460  -20.0230   18.8010 N   0  0  0  0  0  0  0  0  0  0  0  0
  -26.1030  -21.5410   19.1470 N   0  0  2  0  0  4  0  0  0  0  0  0
  -25.1350  -21.8330   19.1000 H   0  0  0  0  0  0  0  0  0  0  0  0
  -31.8600  -19.2520   17.8600 C   0  0  0  0  0  3  0  0  0  0  0  0
  -30.6260  -19.9230   17.9860 C   0  0  0  0  0  3  0  0  0  0  0  0
  -32.0240  -17.9690   18.4120 C   0  0  0  0  0  3  0  0  0  0  0  0
  -29.7170  -18.0280   19.2180 C   0  0  0  0  0  3  0  0  0  0  0  0
  -29.5530  -19.3210   18.6730 C   0  0  0  0  0  0  0  0  0  0  0  0
  -30.9450  -17.3500   19.0750 C   0  0  0  0  0  0  0  0  0  0  0  0
  -31.5640  -15.0050   18.9940 C   0  0  0  0  0  0  0  0  0  0  0  0
  -31.4590  -12.5410   18.8840 C   0  0  0  0  0  2  0  0  0  0  0  0
  -30.4930  -12.0810   17.7760 C   0  0  0  0  0  2  0  0  0  0  0  0
  -29.0420  -12.0160   18.2930 C   0  0  0  0  0  2  0  0  0  0  0  0
  -28.6250  -13.3140   19.0300 C   0  0  0  0  0  3  0  0  0  0  0  0
  -29.6910  -13.7180   20.0680 C   0  0  0  0  0  2  0  0  0  0  0  0
  -30.9970  -13.8390   19.3900 N   0  0  0  0  0  0  0  0  0  0  0  0
  -32.4960  -15.0780   18.1830 O   0  0  0  0  0  0  0  0  0  0  0  0
  -31.0910  -16.0720   19.6490 N   0  0  0  0  0  0  0  0  0  0  0  0
  -30.4190  -15.8320   20.3640 H   0  0  0  0  0  0  0  0  0  0  0  0
  -26.4020  -14.1630   20.0170 C   0  0  0  0  0  0  0  0  0  0  0  0
  -25.3010  -13.5030   20.4870 C   0  0  0  0  0  0  0  0  0  0  0  0
  -25.5920  -12.1080   20.3640 C   0  0  0  0  0  0  0  0  0  0  0  0
  -27.3070  -13.1800   19.6450 N   0  0  0  0  0  0  0  0  0  0  0  0
  -26.8250  -11.9360   19.9050 N   0  0  0  0  0  0  0  0  0  0  0  0
  -24.7490  -10.9300   20.6050 C   0  0  0  0  0  0  0  0  0  0  0  0
  -25.0820   -9.9740   21.5900 C   0  0  0  0  0  3  0  0  0  0  0  0
  -24.2480   -8.8580   21.8120 C   0  0  0  0  0  3  0  0  0  0  0  0
  -23.0660   -8.6920   21.0510 C   0  0  0  0  0  0  0  0  0  0  0  0
  -22.7530   -9.6340   20.0560 C   0  0  0  0  0  3  0  0  0  0  0  0
  -23.5870  -10.7420   19.8330 C   0  0  0  0  0  3  0  0  0  0  0  0
  -22.2080   -7.6260   21.1810 O   0  0  0  0  0  0  0  0  0  0  0  0
  -21.9050   -7.0920   22.4080 C   0  0  0  0  0  0  0  0  0  0  0  0
  -21.3530   -7.8750   23.4470 C   0  0  0  0  0  3  0  0  0  0  0  0
  -20.9930   -7.2700   24.6670 C   0  0  0  0  0  3  0  0  0  0  0  0
  -21.1720   -5.8850   24.8470 C   0  0  0  0  0  0  0  0  0  0  0  0
  -21.7160   -5.1040   23.8130 C   0  0  0  0  0  3  0  0  0  0  0  0
  -22.0780   -5.7060   22.5960 C   0  0  0  0  0  0  0  0  0  0  0  0
  -22.5820   -4.9460   21.5940 F   0  0  0  0  0  0  0  0  0  0  0  0
  -20.8180   -5.3020   26.0170 F   0  0  0  0  0  0  0  0  0  0  0  0
  -24.0060  -14.1230   20.9320 C   0  0  0  0  0  0  0  0  0  0  0  0
  -23.3240  -13.5070   21.8890 N   0  0  0  0  0  0  0  0  0  0  0  0
  -23.6180  -15.1930   20.4610 O   0  0  0  0  0  0  0  0  0  0  0  0
  -23.6480  -12.6380   22.2900 H   0  0  0  0  0  0  0  0  0  0  0  0
  -22.4590  -13.9060   22.2240 H   0  0  0  0  0  0  0  0  0  0  0  0
  -26.7070  -15.5130   19.8570 N   0  0  0  0  0  0  0  0  0  0  0  0
  -26.0210  -16.2400   20.0200 H   0  0  0  0  0  0  0  0  0  0  0  0
  -27.5510  -15.8500   19.4130 H   0  0  0  0  0  0  0  0  0  0  0  0
  -24.9540  -23.4060   21.5180 C   0  0  0  0  0  2  0  0  0  0  0  0
  -24.4980  -23.2680   22.9220 N   0  0  0  0  0  4  0  0  0  0  0  0
  -24.7560  -22.3800   23.3170 H   0  0  0  0  0  0  0  0  0  0  0  0
  -23.4950  -23.3320   22.9640 H   0  0  0  0  0  0  0  0  0  0  0  0
  -24.8620  -23.9890   23.5170 H   0  0  0  0  0  0  0  0  0  0  0  0
  -28.4030  -26.3410   21.5950 C   0  0  0  0  0  2  0  0  0  0  0  0
  -29.2990  -27.2760   20.7370 C   0  0  0  0  0  2  0  0  0  0  0  0
  -28.6680  -27.7560   19.5450 O   0  0  0  0  0  0  0  0  0  0  0  0
  -24.5400  -31.9120   23.5870 C   0  0  0  0  0  0  0  0  0  0  0  0
  -27.4800  -28.4280   19.7020 C   0  0  0  0  0  0  0  0  0  0  0  0
  -23.4080  -30.7390   21.7220 C   0  0  0  0  0  3  0  0  0  0  0  0
  -24.9560  -29.6380   20.0160 C   0  0  0  0  0  0  0  0  0  0  0  0
  -25.8740  -31.3740   21.5560 C   0  0  0  0  0  2  0  0  0  0  0  0
  -26.0690  -30.1510   20.6930 C   0  0  0  0  0  0  0  0  0  0  0  0
  -27.3310  -29.5430   20.5570 C   0  0  0  0  0  3  0  0  0  0  0  0
  -26.3640  -27.9540   18.9840 C   0  0  0  0  0  3  0  0  0  0  0  0
  -25.0950  -28.5320   19.1620 C   0  0  0  0  0  3  0  0  0  0  0  0
  -23.6350  -30.3370   20.2400 C   0  0  0  0  0  2  0  0  0  0  0  0
  -24.6270  -31.3420   22.3530 N   0  0  0  0  0  0  0  0  0  0  0  0
  -23.4520  -31.9850   24.1780 O   0  0  0  0  0  0  0  0  0  0  0  0
  -22.8750  -29.5030   22.4790 C   0  0  0  0  0  0  0  0  0  0  0  0
  -21.5820  -29.2020   22.2840 N   0  0  0  0  0  0  0  0  0  0  0  0
  -23.6240  -28.8200   23.1860 O   0  0  0  0  0  0  0  0  0  0  0  0
  -21.0330  -29.8200   21.6990 H   0  0  0  0  0  0  0  0  0  0  0  0
  -18.3870  -27.5290   22.3690 C   0  0  0  0  0  0  0  0  0  0  0  0
  -20.8730  -28.0550   22.8460 C   0  0  0  0  0  3  0  0  0  0  0  0
  -21.1950  -26.7610   22.0610 C   0  0  0  0  0  2  0  0  0  0  0  0
  -20.1890  -26.4750   20.9410 C   0  0  0  0  0  2  0  0  0  0  0  0
  -18.7710  -26.3390   21.5090 C   0  0  0  0  0  2  0  0  0  0  0  0
  -19.3760  -28.3430   22.9830 C   0  0  0  0  0  0  0  0  0  0  0  0
  -18.9710  -29.4630   23.7400 C   0  0  0  0  0  3  0  0  0  0  0  0
  -17.6060  -29.7700   23.8940 C   0  0  0  0  0  3  0  0  0  0  0  0
  -16.6300  -28.9520   23.3010 C   0  0  0  0  0  3  0  0  0  0  0  0
  -17.0210  -27.8320   22.5450 C   0  0  0  0  0  3  0  0  0  0  0  0
  -25.7880  -32.5170   24.3060 C   0  0  0  0  0  3  0  0  0  0  0  0
  -25.5350  -33.9500   24.5090 N   0  0  0  0  0  0  0  0  0  0  0  0
  -26.0310  -34.9240   23.7380 C   0  0  0  0  0  0  0  0  0  0  0  0
  -26.8250  -34.7140   22.8160 O   0  0  0  0  0  0  0  0  0  0  0  0
  -24.8540  -34.1970   25.2130 H   0  0  0  0  0  0  0  0  0  0  0  0
  -24.4840  -36.7770   23.0320 C   0  0  0  0  0  1  0  0  0  0  0  0
  -25.5700  -36.3660   24.0340 C   0  0  0  0  0  3  0  0  0  0  0  0
  -27.6260  -37.1720   25.0980 C   0  0  0  0  0  1  0  0  0  0  0  0
  -26.6680  -37.3530   24.0100 N   0  0  0  0  0  0  0  0  0  0  0  0
  -26.3010  -38.3010   24.0660 H   0  0  0  0  0  0  0  0  0  0  0  0
  -26.1290  -31.8040   25.6730 C   0  0  1  0  0  0  0  0  0  0  0  0
  -24.9190  -31.6910   26.6290 C   0  0  0  0  0  1  0  0  0  0  0  0
  -26.6660  -30.3740   25.4180 C   0  0  0  0  0  1  0  0  0  0  0  0
  -27.2490  -32.5810   26.4110 C   0  0  0  0  0  1  0  0  0  0  0  0
  1  2  1  0
  2  6  1  0
  4 59  1  0
  4  3  1  0
  5  1  1  0
  5  4  1  0
  6 64  1  0
  6  3  1  0
  6  7  1  6
  8 10  1  0
  9 11  1  0
  9 12  1  0
 11 13  1  0
 12  8  1  0
 13 14  1  6
 13 10  1  0
 13  5  1  0
 15 16  2  0
 15 17  1  0
 16 19  1  0
 17 20  2  0
 19 12  1  0
 19 18  2  0
 20 18  1  0
 20 29  1  0
 21 27  1  0
 21 29  1  0
 22 27  1  0
 23 24  1  0
 23 22  1  0
 25 24  1  0
 25 34  1  0
 25 26  1  0
 27 26  1  0
 28 21  2  0
 29 30  1  0
 31 32  2  0
 32 51  1  0
 33 32  1  0
 33 36  1  0
 34 35  1  0
 34 31  1  0
 35 33  2  0
 36 37  1  0
 37 38  2  0
 39 42  1  0
 39 38  1  0
 40 39  2  0
 41 40  1  0
 41 36  2  0
 42 43  1  0
 43 48  2  0
 43 44  1  0
 44 45  2  0
 45 46  1  0
 46 50  1  0
 47 46  2  0
 48 47  1  0
 49 48  1  0
 51 52  1  0
 52 55  1  0
 52 54  1  0
 53 51  2  0
 56 31  1  0
 56 57  1  0
 58 56  1  0
 59 60  1  0
 60 62  1  0
 60 61  1  0
 60 63  1  0
 65 64  1  0
 66 68  1  0
 66 65  1  0
 67 78  2  0
 68 73  1  0
 69 77  1  0
 69 79  1  0
 70 76  1  0
 70 72  1  0
 71 77  1  0
 72 71  1  0
 73 72  2  0
 74 75  1  0
 74 68  2  0
 75 70  2  0
 76 69  1  0
 77 67  1  0
 79 81  2  0
 80 79  1  0
 82 80  1  0
 83 92  2  0
 83 88  1  0
 84 80  1  0
 84 88  1  0
 85 84  1  0
 86 87  1  0
 86 85  1  0
 87 83  1  0
 88 89  2  0
 89 90  1  0
 91 90  2  0
 92 91  1  0
 93 67  1  0
 93 94  1  0
 93103  1  0
 94 97  1  0
 95 99  1  0
 95 94  1  0
 96 95  2  0
 99 98  1  0
101 99  1  0
101102  1  0
101100  1  0
103106  1  1
103104  1  0
105103  1  0
M  ISO  4  21 100  29 100  65 101  66 101
M  END
>  <TORSDO>  (1) 
F 22

>  <SCORE>  (1) 
-8.788

>  <name>  (1) 
0

>  <ligand_id>  (1) 
0

>  <original_smiles>  (1) 
[H]c1c([H])c(N([H])C(=O)N2C([H])([H])C([H])([H])C([H])([H])C([H])(n3nc(-c4c([H])c([H])c(Oc5c([H])c([H])c(F)c([H])c5F)c([H])c4[H])c(C(=O)N([H])[H])c3N([H])[H])C2([H])[H])c([H])c(N2C([H])([H])C([H])([H])[N+]([H])(C3([H])C([H])([H])C([H])([H])[N+]([H])(C([H])([H])C([H])([H])Oc4c([H])c([H])c5c(c4[H])C([H])([H])N(C(=O)C([H])(N([H])C(=O)C([H])(N([H])C([H])([H])[H])C([H])([H])[H])C(C([H])([H])[H])(C([H])([H])[H])C([H])([H])[H])C([H])(C(=O)N([H])C4([H])c6c([H])c([H])c([H])c([H])c6C([H])([H])C([H])([H])C4([H])[H])C5([H])[H])C([H])([H])C3([H])C([H])([H])[N+]([H])([H])[H])C([H])([H])C2([H])[H])c1[H]

>  <smiles>  (1) 
[H]c1c([H])c(N([H])C(=O)N2C([H])([H])C([H])([H])C([H])([H])C([H])(n3nc(-c4c([H])c([H])c(Oc5c([H])c([H])c(F)c([H])c5F)c([H])c4[H])c(C(=O)N([H])[H])c3N([H])[H])C2([H])[H])c([H])c(N2C([H])([H])C([H])([H])[N+]([H])(C3([H])C([H])([H])C([H])([H])[N+]([H])(C([H])([H])C([H])([H])Oc4c([H])c([H])c5c(c4[H])C([H])([H])N(C(=O)C([H])(N([H])C(=O)C([H])(N([H])C([H])([H])[H])C([H])([H])[H])C(C([H])([H])[H])(C([H])([H])[H])C([H])([H])[H])C([H])(C(=O)N([H])C4([H])c6c([H])c([H])c([H])c([H])c6C([H])([H])C([H])([H])C4([H])[H])C5([H])[H])C([H])([H])C3([H])C([H])([H])[N+]([H])([H])[H])C([H])([H])C2([H])[H])c1[H]

$$$$
1:0:0
     RDKit          3D

 99107  0  0  1  0  0  0  0  0999 V2000
  -30.3290  -19.0570   19.1890 C   0  0  0  0  0  3  0  0  0  0  0  0
  -30.3190  -17.6330   19.2720 C   0  0  0  0  0  3  0  0  0  0  0  0
  -31.1060  -17.7830   21.5380 C   0  0  0  0  0  3  0  0  0  0  0  0
  -30.7520  -19.8940   20.2590 C   0  0  0  0  0  0  0  0  0  0  0  0
  -30.7080  -16.9540   20.4510 C   0  0  0  0  0  0  0  0  0  0  0  0
  -31.1770  -19.2160   21.4440 C   0  0  0  0  0  0  0  0  0  0  0  0
  -31.3140  -14.4870   19.9580 C   0  0  0  0  0  0  0  0  0  0  0  0
  -30.9610  -12.2880   18.8410 C   0  0  0  0  0  2  0  0  0  0  0  0
  -29.9290  -12.4950   17.7100 C   0  0  0  0  0  2  0  0  0  0  0  0
  -28.4900  -12.3730   18.2520 C   0  0  0  0  0  2  0  0  0  0  0  0
  -28.2650  -13.2080   19.5420 C   0  0  0  0  0  3  0  0  0  0  0  0
  -29.3960  -12.9520   20.5620 C   0  0  0  0  0  2  0  0  0  0  0  0
  -30.6730  -13.2770   19.9030 N   0  0  0  0  0  0  0  0  0  0  0  0
  -32.4000  -14.6680   19.3930 O   0  0  0  0  0  0  0  0  0  0  0  0
  -30.6480  -15.4950   20.6010 N   0  0  0  0  0  0  0  0  0  0  0  0
  -29.9110  -15.1590   21.2080 H   0  0  0  0  0  0  0  0  0  0  0  0
  -25.9830  -13.8820   20.5250 C   0  0  0  0  0  0  0  0  0  0  0  0
  -24.9130  -13.1400   20.9420 C   0  0  0  0  0  0  0  0  0  0  0  0
  -25.2880  -11.7710   20.7730 C   0  0  0  0  0  0  0  0  0  0  0  0
  -26.9480  -12.9670   20.1270 N   0  0  0  0  0  0  0  0  0  0  0  0
  -26.5380  -11.6880   20.3340 N   0  0  0  0  0  0  0  0  0  0  0  0
  -24.5130  -10.5380   20.9500 C   0  0  0  0  0  0  0  0  0  0  0  0
  -24.8910   -9.5560   21.8930 C   0  0  0  0  0  3  0  0  0  0  0  0
  -24.1170   -8.3880   22.0570 C   0  0  0  0  0  3  0  0  0  0  0  0
  -22.9520   -8.1930   21.2790 C   0  0  0  0  0  0  0  0  0  0  0  0
  -22.5890   -9.1630   20.3290 C   0  0  0  0  0  3  0  0  0  0  0  0
  -23.3630  -10.3240   20.1630 C   0  0  0  0  0  3  0  0  0  0  0  0
  -22.1520   -7.0760   21.3520 O   0  0  0  0  0  0  0  0  0  0  0  0
  -21.9280   -6.4290   22.5390 C   0  0  0  0  0  0  0  0  0  0  0  0
  -21.3450   -7.0830   23.6480 C   0  0  0  0  0  3  0  0  0  0  0  0
  -21.0680   -6.3610   24.8260 C   0  0  0  0  0  3  0  0  0  0  0  0
  -21.3620   -4.9870   24.8950 C   0  0  0  0  0  0  0  0  0  0  0  0
  -21.9370   -4.3330   23.7910 C   0  0  0  0  0  3  0  0  0  0  0  0
  -22.2160   -5.0520   22.6160 C   0  0  0  0  0  0  0  0  0  0  0  0
  -22.7500   -4.4140   21.5480 F   0  0  0  0  0  0  0  0  0  0  0  0
  -21.0880   -4.2890   26.0220 F   0  0  0  0  0  0  0  0  0  0  0  0
  -23.5790  -13.6660   21.3830 C   0  0  0  0  0  0  0  0  0  0  0  0
  -22.9030  -12.9590   22.2800 N   0  0  0  0  0  0  0  0  0  0  0  0
  -23.1500  -14.7420   20.9680 O   0  0  0  0  0  0  0  0  0  0  0  0
  -23.2620  -12.0850   22.6390 H   0  0  0  0  0  0  0  0  0  0  0  0
  -22.0110  -13.2970   22.6140 H   0  0  0  0  0  0  0  0  0  0  0  0
  -26.2080  -15.2530   20.4320 N   0  0  0  0  0  0  0  0  0  0  0  0
  -25.4870  -15.9210   20.6730 H   0  0  0  0  0  0  0  0  0  0  0  0
  -27.0480  -15.6870   20.0710 H   0  0  0  0  0  0  0  0  0  0  0  0
  -30.9320  -21.4160   20.0170 C   0  0  0  0  0  0  0  0  0  0  0  0
  -28.7270  -21.9620   20.9620 C   0  0  0  0  0  1  0  0  0  0  0  0
  -30.0390  -22.3800   20.4530 N   0  0  0  0  0  0  0  0  0  0  0  0
  -31.9610  -21.7480   19.4230 O   0  0  0  0  0  0  0  0  0  0  0  0
  -30.3720  -23.8720   20.4270 C   0  0  0  0  0  3  0  0  0  0  0  0
  -29.2080  -24.9600   20.3010 C   0  0  0  0  0  3  0  0  0  0  0  0
  -29.5090  -26.4140   20.3920 O   0  0  0  0  0  0  0  0  0  0  0  0
  -25.5890  -31.4540   23.7250 C   0  0  0  0  0  0  0  0  0  0  0  0
  -28.4210  -27.3060   20.3280 C   0  0  0  0  0  0  0  0  0  0  0  0
  -24.5220  -30.3310   21.7990 C   0  0  0  0  0  3  0  0  0  0  0  0
  -26.0880  -28.9670   20.3030 C   0  0  0  0  0  0  0  0  0  0  0  0
  -27.0700  -30.6180   21.8910 C   0  0  0  0  0  2  0  0  0  0  0  0
  -27.1980  -29.3420   21.0690 C   0  0  0  0  0  0  0  0  0  0  0  0
  -28.3680  -28.5240   21.0770 C   0  0  0  0  0  3  0  0  0  0  0  0
  -27.2960  -26.9960   19.5280 C   0  0  0  0  0  3  0  0  0  0  0  0
  -26.1440  -27.8030   19.5200 C   0  0  0  0  0  3  0  0  0  0  0  0
  -24.8560  -29.8460   20.3620 C   0  0  0  0  0  2  0  0  0  0  0  0
  -25.7400  -30.8070   22.5330 N   0  0  0  0  0  0  0  0  0  0  0  0
  -24.4660  -31.6810   24.1960 O   0  0  0  0  0  0  0  0  0  0  0  0
  -23.7620  -29.2100   22.5450 C   0  0  0  0  0  0  0  0  0  0  0  0
  -22.4510  -29.0880   22.2810 N   0  0  0  0  0  0  0  0  0  0  0  0
  -24.3560  -28.4590   23.3240 O   0  0  0  0  0  0  0  0  0  0  0  0
  -22.0310  -29.7420   21.6340 H   0  0  0  0  0  0  0  0  0  0  0  0
  -19.0130  -27.9690   22.3810 C   0  0  0  0  0  0  0  0  0  0  0  0
  -21.5560  -28.0720   22.8370 C   0  0  0  0  0  3  0  0  0  0  0  0
  -21.6510  -26.7520   22.0370 C   0  0  0  0  0  2  0  0  0  0  0  0
  -20.6060  -26.6460   20.9210 C   0  0  0  0  0  2  0  0  0  0  0  0
  -19.1910  -26.7430   21.4990 C   0  0  0  0  0  2  0  0  0  0  0  0
  -20.1270  -28.6010   22.9970 C   0  0  0  0  0  0  0  0  0  0  0  0
  -19.9110  -29.7560   23.7780 C   0  0  0  0  0  3  0  0  0  0  0  0
  -18.6170  -30.2790   23.9490 C   0  0  0  0  0  3  0  0  0  0  0  0
  -17.5180  -29.6430   23.3490 C   0  0  0  0  0  3  0  0  0  0  0  0
  -17.7150  -28.4880   22.5710 C   0  0  0  0  0  3  0  0  0  0  0  0
  -26.8210  -31.9580   24.5400 C   0  0  0  0  0  3  0  0  0  0  0  0
  -26.5170  -33.3160   25.0150 N   0  0  0  0  0  0  0  0  0  0  0  0
  -26.9160  -34.4410   24.4070 C   0  0  0  0  0  0  0  0  0  0  0  0
  -27.6450  -34.4430   23.4120 O   0  0  0  0  0  0  0  0  0  0  0  0
  -25.8790  -33.3910   25.7930 H   0  0  0  0  0  0  0  0  0  0  0  0
  -25.2380  -36.3000   24.1670 C   0  0  0  0  0  1  0  0  0  0  0  0
  -26.4240  -35.7790   24.9950 C   0  0  0  0  0  3  0  0  0  0  0  0
  -28.5170  -36.5170   26.0440 C   0  0  0  0  0  1  0  0  0  0  0  0
  -27.4770  -36.8150   25.0630 N   0  0  0  0  0  0  0  0  0  0  0  0
  -27.0750  -37.7220   25.2900 H   0  0  0  0  0  0  0  0  0  0  0  0
  -27.1910  -31.0170   25.7530 C   0  0  1  0  0  0  0  0  0  0  0  0
  -25.9870  -30.6920   26.6660 C   0  0  0  0  0  1  0  0  0  0  0  0
  -27.7770  -29.6770   25.2510 C   0  0  0  0  0  1  0  0  0  0  0  0
  -28.2900  -31.6800   26.6160 C   0  0  0  0  0  1  0  0  0  0  0  0
  -31.1860  -19.9450   23.7710 C   0  0  0  0  0  1  0  0  0  0  0  0
  -31.8280  -19.9460   22.4610 N   0  0  0  0  0  0  0  0  0  0  0  0
  -33.2750  -19.7160   22.4180 C   0  0  0  0  0  2  0  0  0  0  0  0
  -34.1130  -20.9590   22.7880 C   0  0  0  0  0  2  0  0  0  0  0  0
  -36.1740  -20.3780   21.5410 C   0  0  0  0  0  1  0  0  0  0  0  0
  -36.3210  -21.7090   23.5890 C   0  0  0  0  0  1  0  0  0  0  0  0
  -35.5670  -20.6610   22.8630 N   0  0  1  0  0  4  0  0  0  0  0  0
  -35.6660  -19.8230   23.4180 H   0  0  0  0  0  0  0  0  0  0  0  0
  1  2  2  0
  1  4  1  0
  2  5  1  0
  4  6  2  0
  5 15  1  0
  5  3  2  0
  6  3  1  0
  6 93  1  0
  7 15  1  0
  8 13  1  0
  9 10  1  0
  9  8  1  0
 11 10  1  0
 11 20  1  0
 11 12  1  0
 13  7  1  0
 13 12  1  0
 14  7  2  0
 15 16  1  0
 17 18  2  0
 18 37  1  0
 19 18  1  0
 19 22  1  0
 20 21  1  0
 20 17  1  0
 21 19  2  0
 22 23  1  0
 23 24  2  0
 25 28  1  0
 25 24  1  0
 26 25  2  0
 27 26  1  0
 27 22  2  0
 28 29  1  0
 29 34  2  0
 29 30  1  0
 30 31  2  0
 31 32  1  0
 32 36  1  0
 33 32  2  0
 34 33  1  0
 35 34  1  0
 37 38  1  0
 38 41  1  0
 38 40  1  0
 39 37  2  0
 42 17  1  0
 42 43  1  0
 44 42  1  0
 45  4  1  0
 45 47  1  0
 47 46  1  0
 48 45  2  0
 49 47  1  0
 50 51  1  0
 50 49  2  0
 52 63  2  0
 53 51  1  0
 53 58  1  0
 54 62  1  0
 54 64  1  0
 55 61  1  0
 55 57  1  0
 56 62  1  0
 57 58  2  0
 57 56  1  0
 59 53  2  0
 60 59  1  0
 60 55  2  0
 61 54  1  0
 62 52  1  0
 64 66  2  0
 65 64  1  0
 67 65  1  0
 68 77  2  0
 68 73  1  0
 69 65  1  0
 69 73  1  0
 70 69  1  0
 71 72  1  0
 71 70  1  0
 72 68  1  0
 73 74  2  0
 74 75  1  0
 76 75  2  0
 77 76  1  0
 78 52  1  0
 78 79  1  0
 78 88  1  0
 79 82  1  0
 80 84  1  0
 80 79  1  0
 81 80  2  0
 84 83  1  0
 84 86  1  0
 86 87  1  0
 86 85  1  0
 88 91  1  1
 88 89  1  0
 90 88  1  0
 93 92  1  0
 94 93  1  0
 94 95  1  0
 95 98  1  0
 96 98  1  0
 98 99  1  1
 98 97  1  0
M  ISO  4   7 100  15 100  50 101  51 101
M  END
>  <TORSDO>  (2) 
F 23

>  <SCORE>  (2) 
-10.688

>  <name>  (2) 
1

>  <ligand_id>  (2) 
1

>  <original_smiles>  (2) 
[H]c1c([H])c([H])c2c(c1[H])C([H])([H])C([H])([H])C([H])([H])C2([H])N([H])C(=O)C1([H])N(C(=O)C([H])(N([H])C(=O)C([H])(N([H])C([H])([H])[H])C([H])([H])[H])C(C([H])([H])[H])(C([H])([H])[H])C([H])([H])[H])C([H])([H])c2c([H])c(OC([H])([H])C([H])([H])N(C(=O)c3c([H])c([H])c(N([H])C(=O)N4C([H])([H])C([H])([H])C([H])([H])C([H])(n5nc(-c6c([H])c([H])c(Oc7c([H])c([H])c(F)c([H])c7F)c([H])c6[H])c(C(=O)N([H])[H])c5N([H])[H])C4([H])[H])c([H])c3N(C([H])([H])[H])C([H])([H])C([H])([H])[N+]([H])(C([H])([H])[H])C([H])([H])[H])C([H])([H])[H])c([H])c([H])c2C1([H])[H]

>  <smiles>  (2) 
[H]c1c([H])c([H])c2c(c1[H])C([H])([H])C([H])([H])C([H])([H])C2([H])N([H])C(=O)C1([H])N(C(=O)C([H])(N([H])C(=O)C([H])(N([H])C([H])([H])[H])C([H])([H])[H])C(C([H])([H])[H])(C([H])([H])[H])C([H])([H])[H])C([H])([H])c2c([H])c(OC([H])([H])C([H])([H])N(C(=O)c3c([H])c([H])c(N([H])C(=O)N4C([H])([H])C([H])([H])C([H])([H])C([H])(n5nc(-c6c([H])c([H])c(Oc7c([H])c([H])c(F)c([H])c7F)c([H])c6[H])c(C(=O)N([H])[H])c5N([H])[H])C4([H])[H])c([H])c3N(C([H])([H])[H])C([H])([H])C([H])([H])[N+]([H])(C([H])([H])[H])C([H])([H])[H])C([H])([H])[H])c([H])c([H])c2C1([H])[H]

$$$$
2:0:0
     RDKit          3D

 98107  0  0  1  0  0  0  0  0999 V2000
  -29.4570  -20.2450   18.9800 C   0  0  0  0  0  0  0  0  0  0  0  0
  -29.5700  -21.2180   16.8020 C   0  0  0  0  0  1  0  0  0  0  0  0
  -30.3400  -20.2160   19.9900 N   0  0  0  0  0  0  0  0  0  0  0  0
  -29.4350  -21.4010   18.2600 N   0  0  0  0  0  0  0  0  0  0  0  0
  -28.7970  -19.2520   18.6630 O   0  0  0  0  0  0  0  0  0  0  0  0
  -30.7730  -21.0990   20.2250 H   0  0  0  0  0  0  0  0  0  0  0  0
  -30.6750  -17.7390   20.4070 C   0  0  0  0  0  3  0  0  0  0  0  0
  -30.8630  -19.3600   22.2010 C   0  0  0  0  0  3  0  0  0  0  0  0
  -30.6200  -19.0960   20.8400 C   0  0  0  0  0  0  0  0  0  0  0  0
  -30.9000  -16.7220   21.3750 C   0  0  0  0  0  0  0  0  0  0  0  0
  -31.0950  -17.1180   22.7180 C   0  0  0  0  0  0  0  0  0  0  0  0
  -31.3150  -16.0930   23.8170 C   0  0  0  0  0  1  0  0  0  0  0  0
  -31.0930  -18.4030   23.1200 N   0  0  0  0  0  0  0  0  0  0  0  0
  -31.2910  -14.5270   20.1600 C   0  0  0  0  0  0  0  0  0  0  0  0
  -30.8780  -12.4030   18.9420 C   0  0  0  0  0  2  0  0  0  0  0  0
  -29.9060  -12.6500   17.7700 C   0  0  0  0  0  2  0  0  0  0  0  0
  -28.4390  -12.5890   18.2400 C   0  0  0  0  0  2  0  0  0  0  0  0
  -28.1830  -13.4510   19.5030 C   0  0  0  0  0  3  0  0  0  0  0  0
  -29.2400  -13.1240   20.5800 C   0  0  0  0  0  2  0  0  0  0  0  0
  -30.5800  -13.3770   20.0040 N   0  0  0  0  0  0  0  0  0  0  0  0
  -32.3180  -14.7930   19.5260 O   0  0  0  0  0  0  0  0  0  0  0  0
  -30.7990  -15.3180   21.1270 N   0  0  0  0  0  0  0  0  0  0  0  0
  -30.1340  -14.8320   21.7120 H   0  0  0  0  0  0  0  0  0  0  0  0
  -25.8550  -14.2220   20.2910 C   0  0  0  0  0  0  0  0  0  0  0  0
  -24.7420  -13.5210   20.6740 C   0  0  0  0  0  0  0  0  0  0  0  0
  -25.1000  -12.1410   20.6000 C   0  0  0  0  0  0  0  0  0  0  0  0
  -26.8230  -13.2700   20.0100 N   0  0  0  0  0  0  0  0  0  0  0  0
  -26.3730  -12.0130   20.2500 N   0  0  0  0  0  0  0  0  0  0  0  0
  -24.2880  -10.9290   20.7850 C   0  0  0  0  0  0  0  0  0  0  0  0
  -24.6610   -9.9230   21.7010 C   0  0  0  0  0  3  0  0  0  0  0  0
  -23.8540   -8.7780   21.8730 C   0  0  0  0  0  3  0  0  0  0  0  0
  -22.6590   -8.6340   21.1300 C   0  0  0  0  0  0  0  0  0  0  0  0
  -22.3040   -9.6290   20.2010 C   0  0  0  0  0  3  0  0  0  0  0  0
  -23.1120  -10.7650   20.0270 C   0  0  0  0  0  3  0  0  0  0  0  0
  -21.8290   -7.5420   21.2100 O   0  0  0  0  0  0  0  0  0  0  0  0
  -21.7030   -6.8160   22.3670 C   0  0  0  0  0  0  0  0  0  0  0  0
  -21.3060   -7.4180   23.5820 C   0  0  0  0  0  3  0  0  0  0  0  0
  -21.1200   -6.6270   24.7320 C   0  0  0  0  0  3  0  0  0  0  0  0
  -21.3230   -5.2350   24.6700 C   0  0  0  0  0  0  0  0  0  0  0  0
  -21.7140   -4.6330   23.4600 C   0  0  0  0  0  3  0  0  0  0  0  0
  -21.8990   -5.4220   22.3120 C   0  0  0  0  0  0  0  0  0  0  0  0
  -22.2550   -4.8350   21.1430 F   0  0  0  0  0  0  0  0  0  0  0  0
  -21.1380   -4.4720   25.7720 F   0  0  0  0  0  0  0  0  0  0  0  0
  -23.3910  -14.0930   21.0000 C   0  0  0  0  0  0  0  0  0  0  0  0
  -22.6510  -13.4430   21.8900 N   0  0  0  0  0  0  0  0  0  0  0  0
  -23.0070  -15.1520   20.5030 O   0  0  0  0  0  0  0  0  0  0  0  0
  -22.9750  -12.5840   22.3080 H   0  0  0  0  0  0  0  0  0  0  0  0
  -21.7480  -13.8080   22.1550 H   0  0  0  0  0  0  0  0  0  0  0  0
  -26.1180  -15.5810   20.1420 N   0  0  0  0  0  0  0  0  0  0  0  0
  -25.4140  -16.2930   20.3110 H   0  0  0  0  0  0  0  0  0  0  0  0
  -26.9910  -15.9610   19.7970 H   0  0  0  0  0  0  0  0  0  0  0  0
  -28.4310  -22.9510   20.0020 C   0  0  0  0  0  3  0  0  0  0  0  0
  -29.3400  -23.8710   17.9570 C   0  0  0  0  0  3  0  0  0  0  0  0
  -28.1040  -24.2660   20.4340 C   0  0  0  0  0  3  0  0  0  0  0  0
  -29.0110  -25.1750   18.3890 C   0  0  0  0  0  3  0  0  0  0  0  0
  -29.0730  -22.7240   18.7540 C   0  0  0  0  0  0  0  0  0  0  0  0
  -28.4010  -25.3990   19.6390 C   0  0  0  0  0  0  0  0  0  0  0  0
  -28.2690  -26.7030   20.1030 O   0  0  0  0  0  0  0  0  0  0  0  0
  -24.5250  -31.9020   23.2600 C   0  0  0  0  0  0  0  0  0  0  0  0
  -27.0770  -27.4120   20.1310 C   0  0  0  0  0  0  0  0  0  0  0  0
  -23.2800  -30.5180   21.6340 C   0  0  0  0  0  3  0  0  0  0  0  0
  -24.6940  -28.9530   20.1900 C   0  0  0  0  0  0  0  0  0  0  0  0
  -25.8070  -30.8370   21.4060 C   0  0  0  0  0  2  0  0  0  0  0  0
  -25.8640  -29.4590   20.7660 C   0  0  0  0  0  0  0  0  0  0  0  0
  -27.0520  -28.6920   20.7400 C   0  0  0  0  0  3  0  0  0  0  0  0
  -25.8860  -26.9210   19.5490 C   0  0  0  0  0  3  0  0  0  0  0  0
  -24.7010  -27.6840   19.5850 C   0  0  0  0  0  3  0  0  0  0  0  0
  -23.4610  -29.8280   20.2530 C   0  0  0  0  0  2  0  0  0  0  0  0
  -24.5560  -31.1020   22.1570 N   0  0  0  0  0  0  0  0  0  0  0  0
  -23.4550  -32.1840   23.8200 O   0  0  0  0  0  0  0  0  0  0  0  0
  -22.6280  -29.5080   22.6080 C   0  0  0  0  0  0  0  0  0  0  0  0
  -21.3050  -29.3140   22.4730 N   0  0  0  0  0  0  0  0  0  0  0  0
  -23.3080  -28.8990   23.4380 O   0  0  0  0  0  0  0  0  0  0  0  0
  -20.8160  -29.8510   21.7680 H   0  0  0  0  0  0  0  0  0  0  0  0
  -17.9430  -28.0700   22.9270 C   0  0  0  0  0  0  0  0  0  0  0  0
  -20.4890  -28.3820   23.2500 C   0  0  0  0  0  3  0  0  0  0  0  0
  -20.6310  -26.9380   22.7130 C   0  0  0  0  0  2  0  0  0  0  0  0
  -19.5570  -26.5720   21.6830 C   0  0  0  0  0  2  0  0  0  0  0  0
  -18.1580  -26.7070   22.2920 C   0  0  0  0  0  2  0  0  0  0  0  0
  -19.0380  -28.8620   23.3620 C   0  0  0  0  0  0  0  0  0  0  0  0
  -18.7830  -30.1350   23.9160 C   0  0  0  0  0  3  0  0  0  0  0  0
  -17.4660  -30.6170   24.0370 C   0  0  0  0  0  3  0  0  0  0  0  0
  -16.3850  -29.8190   23.6210 C   0  0  0  0  0  3  0  0  0  0  0  0
  -16.6240  -28.5460   23.0720 C   0  0  0  0  0  3  0  0  0  0  0  0
  -25.8280  -32.5160   23.8640 C   0  0  0  0  0  3  0  0  0  0  0  0
  -25.5370  -33.9150   24.2070 N   0  0  0  0  0  0  0  0  0  0  0  0
  -25.8600  -34.9690   23.4450 C   0  0  0  0  0  0  0  0  0  0  0  0
  -26.5080  -34.8630   22.3990 O   0  0  0  0  0  0  0  0  0  0  0  0
  -24.9590  -34.0650   25.0200 H   0  0  0  0  0  0  0  0  0  0  0  0
  -24.1290  -36.7670   23.1420 C   0  0  0  0  0  1  0  0  0  0  0  0
  -25.3910  -36.3590   23.9180 C   0  0  0  0  0  3  0  0  0  0  0  0
  -27.5570  -37.2250   24.6870 C   0  0  0  0  0  1  0  0  0  0  0  0
  -26.4260  -37.4080   23.7810 N   0  0  0  0  0  0  0  0  0  0  0  0
  -26.0300  -38.3270   23.9530 H   0  0  0  0  0  0  0  0  0  0  0  0
  -26.3590  -31.7300   25.1250 C   0  0  1  0  0  0  0  0  0  0  0  0
  -25.2820  -31.4910   26.2100 C   0  0  0  0  0  1  0  0  0  0  0  0
  -26.9240  -30.3510   24.7140 C   0  0  0  0  0  1  0  0  0  0  0  0
  -27.5270  -32.5070   25.7730 C   0  0  0  0  0  1  0  0  0  0  0  0
  1  3  1  0
  2  4  1  0
  3  6  1  0
  3  9  1  0
  4 56  1  0
  4  1  1  0
  5  1  2  0
  7  9  2  0
  7 10  1  0
  8 13  2  0
  9  8  1  0
 10 11  2  0
 11 13  1  0
 11 12  1  0
 14 22  1  0
 15 20  1  0
 16 17  1  0
 16 15  1  0
 18 17  1  0
 18 27  1  0
 18 19  1  0
 20 14  1  0
 20 19  1  0
 21 14  2  0
 22 10  1  0
 22 23  1  0
 24 25  2  0
 25 44  1  0
 26 25  1  0
 26 29  1  0
 27 28  1  0
 27 24  1  0
 28 26  2  0
 29 30  1  0
 30 31  2  0
 32 35  1  0
 32 31  1  0
 33 32  2  0
 34 33  1  0
 34 29  2  0
 35 36  1  0
 36 37  1  0
 37 38  2  0
 39 38  1  0
 39 43  1  0
 40 39  2  0
 41 36  2  0
 41 40  1  0
 42 41  1  0
 44 45  1  0
 45 48  1  0
 45 47  1  0
 46 44  2  0
 49 24  1  0
 49 50  1  0
 51 49  1  0
 52 54  1  0
 53 55  2  0
 53 56  1  0
 55 57  1  0
 56 52  2  0
 57 58  1  0
 57 54  2  0
 58 60  1  0
 59 70  2  0
 60 65  1  0
 61 69  1  0
 61 71  1  0
 62 68  1  0
 62 64  1  0
 63 69  1  0
 64 63  1  0
 65 64  2  0
 66 67  1  0
 66 60  2  0
 67 62  2  0
 68 61  1  0
 69 59  1  0
 71 73  2  0
 72 71  1  0
 74 72  1  0
 75 84  2  0
 75 80  1  0
 76 72  1  0
 76 80  1  0
 77 76  1  0
 78 79  1  0
 78 77  1  0
 79 75  1  0
 80 81  2  0
 81 82  1  0
 83 82  2  0
 84 83  1  0
 85 59  1  0
 85 86  1  0
 85 95  1  0
 86 89  1  0
 87 91  1  0
 87 86  1  0
 88 87  2  0
 91 90  1  0
 93 91  1  0
 93 94  1  0
 93 92  1  0
 95 98  1  1
 95 96  1  0
 97 95  1  0
M  ISO  4  14 100  22 100  57 101  58 101
M  END
>  <TORSDO>  (3) 
F 18

>  <SCORE>  (3) 
-11.057

>  <name>  (3) 
2

>  <ligand_id>  (3) 
2

>  <original_smiles>  (3) 
[H]c1nc(C([H])([H])[H])c(N([H])C(=O)N2C([H])([H])C([H])([H])C([H])([H])C([H])(n3nc(-c4c([H])c([H])c(Oc5c([H])c([H])c(F)c([H])c5F)c([H])c4[H])c(C(=O)N([H])[H])c3N([H])[H])C2([H])[H])c([H])c1N([H])C(=O)N(c1c([H])c([H])c(Oc2c([H])c([H])c3c(c2[H])C([H])([H])N(C(=O)C([H])(N([H])C(=O)C([H])(N([H])C([H])([H])[H])C([H])([H])[H])C(C([H])([H])[H])(C([H])([H])[H])C([H])([H])[H])C([H])(C(=O)N([H])C2([H])c4c([H])c([H])c([H])c([H])c4C([H])([H])C([H])([H])C2([H])[H])C3([H])[H])c([H])c1[H])C([H])([H])[H]

>  <smiles>  (3) 
[H]c1nc(C([H])([H])[H])c(N([H])C(=O)N2C([H])([H])C([H])([H])C([H])([H])C([H])(n3nc(-c4c([H])c([H])c(Oc5c([H])c([H])c(F)c([H])c5F)c([H])c4[H])c(C(=O)N([H])[H])c3N([H])[H])C2([H])[H])c([H])c1N([H])C(=O)N(c1c([H])c([H])c(Oc2c([H])c([H])c3c(c2[H])C([H])([H])N(C(=O)C([H])(N([H])C(=O)C([H])(N([H])C([H])([H])[H])C([H])([H])[H])C(C([H])([H])[H])(C([H])([H])[H])C([H])([H])[H])C([H])(C(=O)N([H])C2([H])c4c([H])c([H])c([H])c([H])c4C([H])([H])C([H])([H])C2([H])[H])C3([H])[H])c([H])c1[H])C([H])([H])[H]

$$$$
3:0:0
     RDKit          3D

105114  0  0  1  0  0  0  0  0999 V2000
  -30.2870  -20.6320   20.7010 C   0  0  0  0  0  2  0  0  0  0  0  0
  -32.1570  -21.9930   19.7660 C   0  0  0  0  0  2  0  0  0  0  0  0
  -30.0850  -21.7230   21.7600 C   0  0  0  0  0  2  0  0  0  0  0  0
  -31.8540  -23.0370   20.8570 C   0  0  0  0  0  2  0  0  0  0  0  0
  -31.7540  -20.5730   20.2000 C   0  0  0  0  0  3  0  0  0  0  0  0
  -30.4200  -23.0210   21.1760 N   0  0  0  0  0  0  0  0  0  0  0  0
  -32.0020  -19.6280   19.1020 N   0  0  0  0  0  0  0  0  0  0  0  0
  -32.2720  -20.1050   18.2430 H   0  0  0  0  0  0  0  0  0  0  0  0
  -29.0070  -17.8680   17.7140 C   0  0  0  0  0  3  0  0  0  0  0  0
  -28.8750  -16.8270   18.6500 C   0  0  0  0  0  3  0  0  0  0  0  0
  -30.9070  -17.5750   19.7590 C   0  0  0  0  0  3  0  0  0  0  0  0
  -30.0750  -18.7930   17.7920 C   0  0  0  0  0  0  0  0  0  0  0  0
  -29.8530  -16.6460   19.6480 C   0  0  0  0  0  0  0  0  0  0  0  0
  -31.0100  -18.6630   18.8620 C   0  0  0  0  0  0  0  0  0  0  0  0
  -30.5890  -14.4710   20.3140 C   0  0  0  0  0  0  0  0  0  0  0  0
  -30.2770  -12.3440   19.1700 C   0  0  0  0  0  2  0  0  0  0  0  0
  -29.3070  -12.6050   18.0010 C   0  0  0  0  0  2  0  0  0  0  0  0
  -27.8380  -12.4710   18.4600 C   0  0  0  0  0  2  0  0  0  0  0  0
  -27.5370  -13.2450   19.7740 C   0  0  0  0  0  3  0  0  0  0  0  0
  -28.6280  -12.9900   20.8390 C   0  0  0  0  0  2  0  0  0  0  0  0
  -29.9370  -13.2880   20.2370 N   0  0  0  0  0  0  0  0  0  0  0  0
  -31.7620  -14.6330   19.9660 O   0  0  0  0  0  0  0  0  0  0  0  0
  -29.7780  -15.5200   20.5070 N   0  0  0  0  0  0  0  0  0  0  0  0
  -28.8480  -15.2420   20.7730 H   0  0  0  0  0  0  0  0  0  0  0  0
  -25.1540  -13.8240   20.5530 C   0  0  0  0  0  0  0  0  0  0  0  0
  -24.1020  -13.0360   20.9360 C   0  0  0  0  0  0  0  0  0  0  0  0
  -24.5770  -11.6910   20.8720 C   0  0  0  0  0  0  0  0  0  0  0  0
  -26.2000  -12.9550   20.2820 N   0  0  0  0  0  0  0  0  0  0  0  0
  -25.8570  -11.6660   20.5270 N   0  0  0  0  0  0  0  0  0  0  0  0
  -23.8700  -10.4190   21.0570 C   0  0  0  0  0  0  0  0  0  0  0  0
  -24.3260   -9.4530   21.9790 C   0  0  0  0  0  3  0  0  0  0  0  0
  -23.6220   -8.2430   22.1510 C   0  0  0  0  0  3  0  0  0  0  0  0
  -22.4510   -7.9900   21.4010 C   0  0  0  0  0  0  0  0  0  0  0  0
  -22.0150   -8.9440   20.4660 C   0  0  0  0  0  3  0  0  0  0  0  0
  -22.7200  -10.1470   20.2920 C   0  0  0  0  0  3  0  0  0  0  0  0
  -21.7160   -6.8310   21.4830 O   0  0  0  0  0  0  0  0  0  0  0  0
  -21.6710   -6.0870   22.6350 C   0  0  0  0  0  0  0  0  0  0  0  0
  -21.2100   -6.6300   23.8540 C   0  0  0  0  0  3  0  0  0  0  0  0
  -21.1160   -5.8120   24.9970 C   0  0  0  0  0  3  0  0  0  0  0  0
  -21.4710   -4.4510   24.9230 C   0  0  0  0  0  0  0  0  0  0  0  0
  -21.9250   -3.9070   23.7080 C   0  0  0  0  0  3  0  0  0  0  0  0
  -22.0210   -4.7230   22.5670 C   0  0  0  0  0  0  0  0  0  0  0  0
  -22.4400   -4.1910   21.3940 F   0  0  0  0  0  0  0  0  0  0  0  0
  -21.3720   -3.6630   26.0190 F   0  0  0  0  0  0  0  0  0  0  0  0
  -22.7090  -13.4940   21.2530 C   0  0  0  0  0  0  0  0  0  0  0  0
  -22.0090  -12.7720   22.1210 N   0  0  0  0  0  0  0  0  0  0  0  0
  -22.2490  -14.5260   20.7680 O   0  0  0  0  0  0  0  0  0  0  0  0
  -22.3920  -11.9350   22.5380 H   0  0  0  0  0  0  0  0  0  0  0  0
  -21.0720  -13.0570   22.3700 H   0  0  0  0  0  0  0  0  0  0  0  0
  -25.3010  -15.2010   20.3990 N   0  0  0  0  0  0  0  0  0  0  0  0
  -24.5230  -15.8390   20.5300 H   0  0  0  0  0  0  0  0  0  0  0  0
  -26.1340  -15.6650   20.0640 H   0  0  0  0  0  0  0  0  0  0  0  0
  -30.1890  -19.8530   16.7210 C   0  0  0  0  0  0  0  0  0  0  0  0
  -29.0520  -20.3820   16.2840 N   0  0  0  0  0  0  0  0  0  0  0  0
  -31.2780  -20.2270   16.2840 O   0  0  0  0  0  0  0  0  0  0  0  0
  -28.1720  -20.0940   16.6850 H   0  0  0  0  0  0  0  0  0  0  0  0
  -29.0670  -21.0760   15.5530 H   0  0  0  0  0  0  0  0  0  0  0  0
  -30.0510  -24.0850   22.1080 C   0  0  0  0  0  2  0  0  0  0  0  0
  -29.9120  -25.4320   21.3680 C   0  0  0  0  0  3  0  0  0  0  0  0
  -30.2930  -26.5620   22.2430 N   0  0  0  0  0  4  0  0  0  0  0  0
  -29.7040  -26.6210   23.0560 H   0  0  0  0  0  0  0  0  0  0  0  0
  -30.2030  -27.4220   21.7270 H   0  0  0  0  0  0  0  0  0  0  0  0
  -31.2490  -26.4830   22.5440 H   0  0  0  0  0  0  0  0  0  0  0  0
  -28.4970  -25.6230   20.8040 C   0  0  0  0  0  2  0  0  0  0  0  0
  -28.4950  -26.8930   20.1750 O   0  0  0  0  0  0  0  0  0  0  0  0
  -24.5520  -31.9250   23.2310 C   0  0  0  0  0  0  0  0  0  0  0  0
  -27.2940  -27.5450   20.1950 C   0  0  0  0  0  0  0  0  0  0  0  0
  -23.3810  -30.5010   21.5760 C   0  0  0  0  0  3  0  0  0  0  0  0
  -24.8710  -28.9710   20.1880 C   0  0  0  0  0  0  0  0  0  0  0  0
  -25.8980  -30.9030   21.4040 C   0  0  0  0  0  2  0  0  0  0  0  0
  -26.0100  -29.5300   20.7780 C   0  0  0  0  0  0  0  0  0  0  0  0
  -27.2280  -28.8230   20.7790 C   0  0  0  0  0  3  0  0  0  0  0  0
  -26.1400  -26.9750   19.6150 C   0  0  0  0  0  3  0  0  0  0  0  0
  -24.9270  -27.6880   19.6070 C   0  0  0  0  0  3  0  0  0  0  0  0
  -23.6150  -29.8120   20.2050 C   0  0  0  0  0  2  0  0  0  0  0  0
  -24.6280  -31.1210   22.1300 N   0  0  0  0  0  0  0  0  0  0  0  0
  -23.4620  -32.1870   23.7560 O   0  0  0  0  0  0  0  0  0  0  0  0
  -22.7290  -29.4780   22.5330 C   0  0  0  0  0  0  0  0  0  0  0  0
  -21.4100  -29.2820   22.3830 N   0  0  0  0  0  0  0  0  0  0  0  0
  -23.4070  -28.8620   23.3590 O   0  0  0  0  0  0  0  0  0  0  0  0
  -20.9260  -29.8300   21.6850 H   0  0  0  0  0  0  0  0  0  0  0  0
  -18.0370  -28.0710   22.8320 C   0  0  0  0  0  0  0  0  0  0  0  0
  -20.5880  -28.3420   23.1430 C   0  0  0  0  0  3  0  0  0  0  0  0
  -20.7090  -26.9100   22.5690 C   0  0  0  0  0  2  0  0  0  0  0  0
  -19.6220  -26.5810   21.5400 C   0  0  0  0  0  2  0  0  0  0  0  0
  -18.2310  -26.7200   22.1640 C   0  0  0  0  0  2  0  0  0  0  0  0
  -19.1460  -28.8390   23.2770 C   0  0  0  0  0  0  0  0  0  0  0  0
  -18.9130  -30.1040   23.8610 C   0  0  0  0  0  3  0  0  0  0  0  0
  -17.6030  -30.5990   24.0050 C   0  0  0  0  0  3  0  0  0  0  0  0
  -16.5090  -29.8280   23.5760 C   0  0  0  0  0  3  0  0  0  0  0  0
  -16.7270  -28.5660   22.9960 C   0  0  0  0  0  3  0  0  0  0  0  0
  -25.8250  -32.5670   23.8660 C   0  0  0  0  0  3  0  0  0  0  0  0
  -26.3310  -31.8050   25.1520 C   0  0  1  0  0  0  0  0  0  0  0  0
  -25.2270  -31.5650   26.2070 C   0  0  0  0  0  1  0  0  0  0  0  0
  -26.9270  -30.4310   24.7680 C   0  0  0  0  0  1  0  0  0  0  0  0
  -27.4670  -32.6100   25.8250 C   0  0  0  0  0  1  0  0  0  0  0  0
  -25.5030  -33.9640   24.1810 N   0  0  0  0  0  0  0  0  0  0  0  0
  -25.8470  -35.0130   23.4200 C   0  0  0  0  0  0  0  0  0  0  0  0
  -26.5420  -34.9050   22.4070 O   0  0  0  0  0  0  0  0  0  0  0  0
  -24.8910  -34.1210   24.9680 H   0  0  0  0  0  0  0  0  0  0  0  0
  -24.1280  -36.7980   22.9970 C   0  0  0  0  0  1  0  0  0  0  0  0
  -25.3390  -36.4000   23.8550 C   0  0  0  0  0  3  0  0  0  0  0  0
  -27.4410  -37.2950   24.7560 C   0  0  0  0  0  1  0  0  0  0  0  0
  -26.3720  -37.4550   23.7750 N   0  0  0  0  0  0  0  0  0  0  0  0
  -25.9580  -38.3740   23.9070 H   0  0  0  0  0  0  0  0  0  0  0  0
  1  3  1  0
  2  5  1  0
  2  4  1  0
  4  6  1  0
  5  7  1  0
  5  1  1  0
  6  3  1  0
  6 58  1  0
  8  7  1  0
  9 12  2  0
  9 10  1  0
 10 13  2  0
 12 14  1  0
 13 11  1  0
 13 23  1  0
 14  7  1  0
 14 11  2  0
 15 23  1  0
 16 21  1  0
 17 18  1  0
 17 16  1  0
 19 18  1  0
 19 28  1  0
 19 20  1  0
 21 15  1  0
 21 20  1  0
 22 15  2  0
 23 24  1  0
 25 26  2  0
 26 45  1  0
 27 26  1  0
 27 30  1  0
 28 29  1  0
 28 25  1  0
 29 27  2  0
 30 31  1  0
 31 32  2  0
 33 36  1  0
 33 32  1  0
 34 33  2  0
 35 34  1  0
 35 30  2  0
 36 37  1  0
 37 38  1  0
 38 39  2  0
 40 39  1  0
 40 44  1  0
 41 40  2  0
 42 37  2  0
 42 41  1  0
 43 42  1  0
 45 46  1  0
 46 49  1  0
 46 48  1  0
 47 45  2  0
 50 51  1  0
 50 25  1  0
 52 50  1  0
 53 12  1  0
 54 56  1  0
 54 53  1  0
 55 53  2  0
 57 54  1  0
 59 64  1  0
 59 58  1  0
 59 60  1  0
 60 63  1  0
 60 61  1  0
 62 60  1  0
 65 67  1  0
 65 64  1  0
 66 77  2  0
 67 72  1  0
 68 76  1  0
 68 78  1  0
 69 75  1  0
 69 71  1  0
 70 76  1  0
 71 72  2  0
 71 70  1  0
 73 67  2  0
 74 73  1  0
 74 69  2  0
 75 68  1  0
 76 66  1  0
 78 80  2  0
 79 78  1  0
 81 79  1  0
 82 91  2  0
 82 87  1  0
 83 79  1  0
 83 87  1  0
 84 83  1  0
 85 86  1  0
 85 84  1  0
 86 82  1  0
 87 88  2  0
 88 89  1  0
 90 89  2  0
 91 90  1  0
 92 66  1  0
 92 97  1  0
 92 93  1  0
 93 96  1  1
 93 94  1  0
 95 93  1  0
 97100  1  0
 98102  1  0
 98 97  1  0
 99 98  2  0
102101  1  0
104102  1  0
104105  1  0
104103  1  0
M  ISO  4  15 100  23 100  64 101  65 101
M  END
>  <TORSDO>  (4) 
F 23

>  <SCORE>  (4) 
-13.163

>  <name>  (4) 
3

>  <ligand_id>  (4) 
3

>  <original_smiles>  (4) 
[H]c1c([H])c([H])c2c(c1[H])C([H])([H])C([H])([H])C([H])([H])C2([H])N([H])C(=O)C1([H])N(C(=O)C([H])(N([H])C(=O)C([H])(N([H])C([H])([H])[H])C([H])([H])[H])C(C([H])([H])[H])(C([H])([H])[H])C([H])([H])[H])C([H])([H])c2c([H])c(OC([H])([H])C([H])(C([H])([H])N3C([H])([H])C([H])([H])C([H])(N([H])c4c([H])c(N([H])C(=O)N5C([H])([H])C([H])([H])C([H])([H])C([H])(n6nc(-c7c([H])c([H])c(Oc8c([H])c([H])c(F)c([H])c8F)c([H])c7[H])c(C(=O)N([H])[H])c6N([H])[H])C5([H])[H])c([H])c([H])c4C(=O)N([H])[H])C([H])([H])C3([H])[H])[N+]([H])([H])[H])c([H])c([H])c2C1([H])[H]

>  <smiles>  (4) 
[H]c1c([H])c([H])c2c(c1[H])C([H])([H])C([H])([H])C([H])([H])C2([H])N([H])C(=O)C1([H])N(C(=O)C([H])(N([H])C(=O)C([H])(N([H])C([H])([H])[H])C([H])([H])[H])C(C([H])([H])[H])(C([H])([H])[H])C([H])([H])[H])C([H])([H])c2c([H])c(OC([H])([H])C([H])(C([H])([H])N3C([H])([H])C([H])([H])C([H])(N([H])c4c([H])c(N([H])C(=O)N5C([H])([H])C([H])([H])C([H])([H])C([H])(n6nc(-c7c([H])c([H])c(Oc8c([H])c([H])c(F)c([H])c8F)c([H])c7[H])c(C(=O)N([H])[H])c6N([H])[H])C5([H])[H])c([H])c([H])c4C(=O)N([H])[H])C([H])([H])C3([H])[H])[N+]([H])([H])[H])c([H])c([H])c2C1([H])[H]

$$$$
4:0:0
     RDKit          3D

 95103  0  0  1  0  0  0  0  0999 V2000
  -29.1730  -21.1390   20.8870 C   0  0  0  0  0  0  0  0  0  0  0  0
  -28.8040  -22.3420   20.2990 N   0  0  0  0  0  0  0  0  0  0  0  0
  -29.5750  -21.1270   22.0510 O   0  0  0  0  0  0  0  0  0  0  0  0
  -28.5420  -22.2230   19.3240 H   0  0  0  0  0  0  0  0  0  0  0  0
  -29.1850  -17.2270   18.7330 C   0  0  0  0  0  3  0  0  0  0  0  0
  -28.7420  -18.4090   18.1010 C   0  0  0  0  0  3  0  0  0  0  0  0
  -29.5130  -18.5110   20.7630 C   0  0  0  0  0  3  0  0  0  0  0  0
  -29.1120  -19.7660   20.1280 C   0  0  0  0  0  0  0  0  0  0  0  0
  -29.5530  -17.2180   20.0960 C   0  0  0  0  0  0  0  0  0  0  0  0
  -28.6670  -19.6500   18.7750 C   0  0  0  0  0  0  0  0  0  0  0  0
  -30.5360  -14.8070   20.3470 C   0  0  0  0  0  0  0  0  0  0  0  0
  -30.3670  -12.5100   19.3800 C   0  0  0  0  0  2  0  0  0  0  0  0
  -29.4540  -12.6270   18.1380 C   0  0  0  0  0  2  0  0  0  0  0  0
  -27.9760  -12.4440   18.5450 C   0  0  0  0  0  2  0  0  0  0  0  0
  -27.5950  -13.3090   19.7790 C   0  0  0  0  0  3  0  0  0  0  0  0
  -28.6430  -13.2050   20.9110 C   0  0  0  0  0  2  0  0  0  0  0  0
  -29.9470  -13.5590   20.3400 N   0  0  0  0  0  0  0  0  0  0  0  0
  -31.6840  -14.9390   19.9130 O   0  0  0  0  0  0  0  0  0  0  0  0
  -29.7900  -15.9080   20.7570 N   0  0  0  0  0  0  0  0  0  0  0  0
  -29.0670  -15.6550   21.4170 H   0  0  0  0  0  0  0  0  0  0  0  0
  -25.1980  -13.8930   20.4850 C   0  0  0  0  0  0  0  0  0  0  0  0
  -24.1360  -13.1170   20.8570 C   0  0  0  0  0  0  0  0  0  0  0  0
  -24.6050  -11.7670   20.8390 C   0  0  0  0  0  0  0  0  0  0  0  0
  -26.2470  -13.0160   20.2580 N   0  0  0  0  0  0  0  0  0  0  0  0
  -25.8970  -11.7330   20.5350 N   0  0  0  0  0  0  0  0  0  0  0  0
  -23.8840  -10.5020   21.0340 C   0  0  0  0  0  0  0  0  0  0  0  0
  -24.3220   -9.5380   21.9680 C   0  0  0  0  0  3  0  0  0  0  0  0
  -23.5980   -8.3390   22.1570 C   0  0  0  0  0  3  0  0  0  0  0  0
  -22.4230   -8.0960   21.4050 C   0  0  0  0  0  0  0  0  0  0  0  0
  -22.0040   -9.0480   20.4590 C   0  0  0  0  0  3  0  0  0  0  0  0
  -22.7290  -10.2360   20.2710 C   0  0  0  0  0  3  0  0  0  0  0  0
  -21.6700   -6.9500   21.4990 O   0  0  0  0  0  0  0  0  0  0  0  0
  -21.6330   -6.2070   22.6510 C   0  0  0  0  0  0  0  0  0  0  0  0
  -21.2170   -6.7600   23.8820 C   0  0  0  0  0  3  0  0  0  0  0  0
  -21.1270   -5.9430   25.0260 C   0  0  0  0  0  3  0  0  0  0  0  0
  -21.4420   -4.5750   24.9410 C   0  0  0  0  0  0  0  0  0  0  0  0
  -21.8510   -4.0200   23.7150 C   0  0  0  0  0  3  0  0  0  0  0  0
  -21.9440   -4.8350   22.5730 C   0  0  0  0  0  0  0  0  0  0  0  0
  -22.3200   -4.2920   21.3890 F   0  0  0  0  0  0  0  0  0  0  0  0
  -21.3460   -3.7860   26.0370 F   0  0  0  0  0  0  0  0  0  0  0  0
  -22.7340  -13.5890   21.1190 C   0  0  0  0  0  0  0  0  0  0  0  0
  -22.0080  -12.8940   21.9870 N   0  0  0  0  0  0  0  0  0  0  0  0
  -22.2940  -14.6100   20.5910 O   0  0  0  0  0  0  0  0  0  0  0  0
  -22.3750  -12.0670   22.4310 H   0  0  0  0  0  0  0  0  0  0  0  0
  -21.0690  -13.1970   22.2090 H   0  0  0  0  0  0  0  0  0  0  0  0
  -25.3520  -15.2620   20.2950 N   0  0  0  0  0  0  0  0  0  0  0  0
  -24.5670  -15.9000   20.3880 H   0  0  0  0  0  0  0  0  0  0  0  0
  -26.1810  -15.7060   19.9230 H   0  0  0  0  0  0  0  0  0  0  0  0
  -28.1220  -20.7190   18.0500 N   0  0  0  0  0  0  0  0  0  0  0  0
  -28.0350  -20.5650   17.0490 H   0  0  0  0  0  0  0  0  0  0  0  0
  -27.2050  -21.0070   18.3860 H   0  0  0  0  0  0  0  0  0  0  0  0
  -27.9660  -23.8440   22.1470 C   0  0  0  0  0  1  0  0  0  0  0  0
  -28.7870  -23.7820   20.8430 C   0  0  0  0  0  3  0  0  0  0  0  0
  -28.2130  -24.9530   19.8870 C   0  0  0  0  0  2  0  0  0  0  0  0
  -28.3280  -26.4190   20.2510 O   0  0  0  0  0  0  0  0  0  0  0  0
  -24.6310  -31.9130   23.2420 C   0  0  0  0  0  0  0  0  0  0  0  0
  -27.2290  -27.3120   20.1690 C   0  0  0  0  0  0  0  0  0  0  0  0
  -23.4310  -30.5230   21.5970 C   0  0  0  0  0  3  0  0  0  0  0  0
  -24.8780  -28.9750   20.1580 C   0  0  0  0  0  0  0  0  0  0  0  0
  -25.9730  -30.8240   21.4160 C   0  0  0  0  0  2  0  0  0  0  0  0
  -26.0510  -29.4410   20.7680 C   0  0  0  0  0  0  0  0  0  0  0  0
  -27.2250  -28.6190   20.7680 C   0  0  0  0  0  3  0  0  0  0  0  0
  -26.0380  -26.9340   19.5070 C   0  0  0  0  0  3  0  0  0  0  0  0
  -24.8780  -27.7290   19.5190 C   0  0  0  0  0  3  0  0  0  0  0  0
  -23.6450  -29.8560   20.2130 C   0  0  0  0  0  2  0  0  0  0  0  0
  -24.6990  -31.1060   22.1430 N   0  0  0  0  0  0  0  0  0  0  0  0
  -23.5450  -32.1930   23.7700 O   0  0  0  0  0  0  0  0  0  0  0  0
  -22.7650  -29.5010   22.5510 C   0  0  0  0  0  0  0  0  0  0  0  0
  -21.4370  -29.3360   22.4330 N   0  0  0  0  0  0  0  0  0  0  0  0
  -23.4430  -28.8600   23.3590 O   0  0  0  0  0  0  0  0  0  0  0  0
  -20.9450  -29.9270   21.7780 H   0  0  0  0  0  0  0  0  0  0  0  0
  -18.0620  -28.1070   22.9000 C   0  0  0  0  0  0  0  0  0  0  0  0
  -20.6170  -28.3830   23.1850 C   0  0  0  0  0  3  0  0  0  0  0  0
  -20.7390  -26.9620   22.5900 C   0  0  0  0  0  2  0  0  0  0  0  0
  -19.6330  -26.6210   21.5860 C   0  0  0  0  0  2  0  0  0  0  0  0
  -18.2480  -26.7610   22.2230 C   0  0  0  0  0  2  0  0  0  0  0  0
  -19.1730  -28.8750   23.3400 C   0  0  0  0  0  0  0  0  0  0  0  0
  -18.9420  -30.1370   23.9310 C   0  0  0  0  0  3  0  0  0  0  0  0
  -17.6340  -30.6330   24.0830 C   0  0  0  0  0  3  0  0  0  0  0  0
  -16.5370  -29.8620   23.6580 C   0  0  0  0  0  3  0  0  0  0  0  0
  -16.7530  -28.6010   23.0780 C   0  0  0  0  0  3  0  0  0  0  0  0
  -25.9100  -32.5430   23.8690 C   0  0  0  0  0  3  0  0  0  0  0  0
  -26.4170  -31.7710   25.1470 C   0  0  1  0  0  0  0  0  0  0  0  0
  -25.3170  -31.5370   26.2100 C   0  0  0  0  0  1  0  0  0  0  0  0
  -26.9940  -30.3910   24.7560 C   0  0  0  0  0  1  0  0  0  0  0  0
  -27.5710  -32.5590   25.8110 C   0  0  0  0  0  1  0  0  0  0  0  0
  -25.6020  -33.9440   24.1970 N   0  0  0  0  0  0  0  0  0  0  0  0
  -25.9350  -34.9950   23.4370 C   0  0  0  0  0  0  0  0  0  0  0  0
  -26.6020  -34.8890   22.4040 O   0  0  0  0  0  0  0  0  0  0  0  0
  -25.0110  -34.0990   25.0020 H   0  0  0  0  0  0  0  0  0  0  0  0
  -24.2070  -36.7880   23.0840 C   0  0  0  0  0  1  0  0  0  0  0  0
  -25.4510  -36.3870   23.8930 C   0  0  0  0  0  3  0  0  0  0  0  0
  -27.5900  -37.2690   24.7150 C   0  0  0  0  0  1  0  0  0  0  0  0
  -26.4860  -37.4370   23.7730 N   0  0  0  0  0  0  0  0  0  0  0  0
  -26.0830  -38.3580   23.9200 H   0  0  0  0  0  0  0  0  0  0  0  0
  1  3  2  0
  2 53  1  0
  2  1  1  0
  4  2  1  0
  5  9  1  0
  6  5  2  0
  6 10  1  0
  8  7  1  0
  8  1  1  0
  9 19  1  0
  9  7  2  0
 10  8  2  0
 11 19  1  0
 12 17  1  0
 13 14  1  0
 13 12  1  0
 15 14  1  0
 15 24  1  0
 15 16  1  0
 17 11  1  0
 17 16  1  0
 18 11  2  0
 19 20  1  0
 21 22  2  0
 22 41  1  0
 23 22  1  0
 23 26  1  0
 24 21  1  0
 24 25  1  0
 25 23  2  0
 26 27  1  0
 27 28  2  0
 29 32  1  0
 29 28  1  0
 30 29  2  0
 31 30  1  0
 31 26  2  0
 32 33  1  0
 33 34  1  0
 34 35  2  0
 36 35  1  0
 36 40  1  0
 37 36  2  0
 38 33  2  0
 38 37  1  0
 39 38  1  0
 41 42  1  0
 42 45  1  0
 42 44  1  0
 43 41  2  0
 46 47  1  0
 46 21  1  0
 48 46  1  0
 49 51  1  0
 49 10  1  0
 50 49  1  0
 53 52  1  0
 54 55  1  0
 54 53  1  0
 56 67  2  0
 57 55  1  0
 57 62  1  0
 58 66  1  0
 58 68  1  0
 59 65  1  0
 59 61  1  0
 60 66  1  0
 61 62  2  0
 61 60  1  0
 63 64  1  0
 63 57  2  0
 64 59  2  0
 65 58  1  0
 66 56  1  0
 68 70  2  0
 69 68  1  0
 71 69  1  0
 72 81  2  0
 72 77  1  0
 73 69  1  0
 73 77  1  0
 74 73  1  0
 75 76  1  0
 75 74  1  0
 76 72  1  0
 77 78  2  0
 78 79  1  0
 80 79  2  0
 81 80  1  0
 82 56  1  0
 82 87  1  0
 82 83  1  0
 83 86  1  1
 83 84  1  0
 85 83  1  0
 87 90  1  0
 88 92  1  0
 88 87  1  0
 89 88  2  0
 92 91  1  0
 94 92  1  0
 94 95  1  0
 94 93  1  0
M  ISO  4  11 100  19 100  54 101  55 101
M  END
>  <TORSDO>  (5) 
F 20

>  <SCORE>  (5) 
-14.192

>  <name>  (5) 
4

>  <ligand_id>  (5) 
4

>  <original_smiles>  (5) 
[H]c1c([H])c([H])c2c(c1[H])C([H])([H])C([H])([H])C([H])([H])C2([H])N([H])C(=O)C1([H])N(C(=O)C([H])(N([H])C(=O)C([H])(N([H])C([H])([H])[H])C([H])([H])[H])C(C([H])([H])[H])(C([H])([H])[H])C([H])([H])[H])C([H])([H])c2c([H])c(OC([H])([H])C([H])(N([H])C(=O)c3c([H])c(N([H])C(=O)N4C([H])([H])C([H])([H])C([H])([H])C([H])(n5nc(-c6c([H])c([H])c(Oc7c([H])c([H])c(F)c([H])c7F)c([H])c6[H])c(C(=O)N([H])[H])c5N([H])[H])C4([H])[H])c([H])c([H])c3N([H])[H])C([H])([H])[H])c([H])c([H])c2C1([H])[H]

>  <smiles>  (5) 
[H]c1c([H])c([H])c2c(c1[H])C([H])([H])C([H])([H])C([H])([H])C2([H])N([H])C(=O)C1([H])N(C(=O)C([H])(N([H])C(=O)C([H])(N([H])C([H])([H])[H])C([H])([H])[H])C(C([H])([H])[H])(C([H])([H])[H])C([H])([H])[H])C([H])([H])c2c([H])c(OC([H])([H])C([H])(N([H])C(=O)c3c([H])c(N([H])C(=O)N4C([H])([H])C([H])([H])C([H])([H])C([H])(n5nc(-c6c([H])c([H])c(Oc7c([H])c([H])c(F)c([H])c7F)c([H])c6[H])c(C(=O)N([H])[H])c5N([H])[H])C4([H])[H])c([H])c([H])c3N([H])[H])C([H])([H])[H])c([H])c([H])c2C1([H])[H]

$$$$
5:0:0
     RDKit          3D

 94102  0  0  1  0  0  0  0  0999 V2000
  -29.0750  -23.3520   20.1740 C   0  0  0  0  0  3  0  0  0  0  0  0
  -28.6990  -21.7030   20.2280 C   0  0  0  0  0  0  0  0  0  0  0  0
  -27.4880  -21.4650   20.2070 O   0  0  0  0  0  0  0  0  0  0  0  0
  -31.9790  -19.4410   20.3430 C   0  0  0  0  0  3  0  0  0  0  0  0
  -31.0900  -20.5430   20.3220 C   0  0  0  0  0  3  0  0  0  0  0  0
  -31.5430  -18.0960   20.3840 C   0  0  0  0  0  3  0  0  0  0  0  0
  -29.2750  -18.9390   20.3730 C   0  0  0  0  0  3  0  0  0  0  0  0
  -29.6800  -20.3850   20.3110 C   0  0  0  0  0  0  0  0  0  0  0  0
  -30.1740  -17.7390   20.4070 C   0  0  0  0  0  0  0  0  0  0  0  0
  -30.5330  -15.0140   20.3290 C   0  0  0  0  0  0  0  0  0  0  0  0
  -30.3780  -12.6620   19.3730 C   0  0  0  0  0  2  0  0  0  0  0  0
  -29.4560  -12.6160   18.1320 C   0  0  0  0  0  2  0  0  0  0  0  0
  -27.9880  -12.4200   18.5520 C   0  0  0  0  0  2  0  0  0  0  0  0
  -27.5850  -13.3330   19.7440 C   0  0  0  0  0  3  0  0  0  0  0  0
  -28.6370  -13.3350   20.8700 C   0  0  0  0  0  2  0  0  0  0  0  0
  -29.9060  -13.7610   20.2650 N   0  0  0  0  0  0  0  0  0  0  0  0
  -31.7400  -15.0240   20.0530 O   0  0  0  0  0  0  0  0  0  0  0  0
  -29.7970  -16.2370   20.4780 N   0  0  0  0  0  0  0  0  0  0  0  0
  -28.8120  -16.0690   20.6370 H   0  0  0  0  0  0  0  0  0  0  0  0
  -25.2140  -13.9000   20.5100 C   0  0  0  0  0  0  0  0  0  0  0  0
  -24.1540  -13.1220   20.8880 C   0  0  0  0  0  0  0  0  0  0  0  0
  -24.6220  -11.7720   20.8460 C   0  0  0  0  0  0  0  0  0  0  0  0
  -26.2530  -13.0250   20.2490 N   0  0  0  0  0  0  0  0  0  0  0  0
  -25.9100  -11.7400   20.5180 N   0  0  0  0  0  0  0  0  0  0  0  0
  -23.9040  -10.5050   21.0330 C   0  0  0  0  0  0  0  0  0  0  0  0
  -24.3410   -9.5460   21.9700 C   0  0  0  0  0  3  0  0  0  0  0  0
  -23.6310   -8.3390   22.1410 C   0  0  0  0  0  3  0  0  0  0  0  0
  -22.4680   -8.0870   21.3780 C   0  0  0  0  0  0  0  0  0  0  0  0
  -22.0490   -9.0360   20.4260 C   0  0  0  0  0  3  0  0  0  0  0  0
  -22.7610  -10.2360   20.2540 C   0  0  0  0  0  3  0  0  0  0  0  0
  -21.7170   -6.9390   21.4620 O   0  0  0  0  0  0  0  0  0  0  0  0
  -21.6500   -6.2070   22.6190 C   0  0  0  0  0  0  0  0  0  0  0  0
  -21.1580   -6.7570   23.8230 C   0  0  0  0  0  3  0  0  0  0  0  0
  -21.0420   -5.9470   24.9710 C   0  0  0  0  0  3  0  0  0  0  0  0
  -21.4080   -4.5910   24.9160 C   0  0  0  0  0  0  0  0  0  0  0  0
  -21.8860   -4.0370   23.7130 C   0  0  0  0  0  3  0  0  0  0  0  0
  -22.0060   -4.8440   22.5690 C   0  0  0  0  0  0  0  0  0  0  0  0
  -22.4510   -4.3010   21.4110 F   0  0  0  0  0  0  0  0  0  0  0  0
  -21.2890   -3.8120   26.0170 F   0  0  0  0  0  0  0  0  0  0  0  0
  -22.7530  -13.5910   21.1650 C   0  0  0  0  0  0  0  0  0  0  0  0
  -22.0310  -12.8890   22.0320 N   0  0  0  0  0  0  0  0  0  0  0  0
  -22.3060  -14.6150   20.6460 O   0  0  0  0  0  0  0  0  0  0  0  0
  -22.4190  -12.0740   22.4880 H   0  0  0  0  0  0  0  0  0  0  0  0
  -21.0840  -13.1720   22.2480 H   0  0  0  0  0  0  0  0  0  0  0  0
  -25.3810  -15.2720   20.3370 N   0  0  0  0  0  0  0  0  0  0  0  0
  -24.6310  -15.9400   20.4790 H   0  0  0  0  0  0  0  0  0  0  0  0
  -26.1980  -15.6810   19.9030 H   0  0  0  0  0  0  0  0  0  0  0  0
  -30.1560  -23.7300   19.1210 C   0  0  0  0  0  2  0  0  0  0  0  0
  -29.9220  -23.2570   17.7360 N   0  0  0  0  0  4  0  0  0  0  0  0
  -30.0340  -22.2620   17.6520 H   0  0  0  0  0  0  0  0  0  0  0  0
  -30.6090  -23.6810   17.1370 H   0  0  0  0  0  0  0  0  0  0  0  0
  -29.0200  -23.5170   17.3820 H   0  0  0  0  0  0  0  0  0  0  0  0
  -27.9500  -24.6330   20.0860 C   0  0  0  0  0  2  0  0  0  0  0  0
  -28.2260  -26.1710   20.2710 O   0  0  0  0  0  0  0  0  0  0  0  0
  -24.6510  -31.9130   23.2710 C   0  0  0  0  0  0  0  0  0  0  0  0
  -27.1850  -27.1780   20.2180 C   0  0  0  0  0  0  0  0  0  0  0  0
  -23.4460  -30.5430   21.6200 C   0  0  0  0  0  3  0  0  0  0  0  0
  -24.8820  -28.9680   20.1840 C   0  0  0  0  0  0  0  0  0  0  0  0
  -26.0040  -30.7800   21.4660 C   0  0  0  0  0  2  0  0  0  0  0  0
  -26.0640  -29.3920   20.8030 C   0  0  0  0  0  0  0  0  0  0  0  0
  -27.2160  -28.5110   20.8060 C   0  0  0  0  0  3  0  0  0  0  0  0
  -25.9710  -26.8620   19.5700 C   0  0  0  0  0  3  0  0  0  0  0  0
  -24.8490  -27.7160   19.5530 C   0  0  0  0  0  3  0  0  0  0  0  0
  -23.6630  -29.8740   20.2360 C   0  0  0  0  0  2  0  0  0  0  0  0
  -24.7220  -31.1030   22.1720 N   0  0  0  0  0  0  0  0  0  0  0  0
  -23.5630  -32.2020   23.7960 O   0  0  0  0  0  0  0  0  0  0  0  0
  -22.7580  -29.5330   22.5730 C   0  0  0  0  0  0  0  0  0  0  0  0
  -21.4280  -29.3700   22.4390 N   0  0  0  0  0  0  0  0  0  0  0  0
  -23.4200  -28.8930   23.3920 O   0  0  0  0  0  0  0  0  0  0  0  0
  -20.9510  -29.9280   21.7460 H   0  0  0  0  0  0  0  0  0  0  0  0
  -18.0340  -28.2010   22.9320 C   0  0  0  0  0  0  0  0  0  0  0  0
  -20.5980  -28.4360   23.2030 C   0  0  0  0  0  3  0  0  0  0  0  0
  -20.6840  -27.0090   22.6130 C   0  0  0  0  0  2  0  0  0  0  0  0
  -19.5770  -26.7080   21.5970 C   0  0  0  0  0  2  0  0  0  0  0  0
  -18.1970  -26.8590   22.2410 C   0  0  0  0  0  2  0  0  0  0  0  0
  -19.1610  -28.9490   23.3680 C   0  0  0  0  0  0  0  0  0  0  0  0
  -18.9510  -30.2070   23.9710 C   0  0  0  0  0  3  0  0  0  0  0  0
  -17.6480  -30.7150   24.1480 C   0  0  0  0  0  3  0  0  0  0  0  0
  -16.5370  -29.9640   23.7260 C   0  0  0  0  0  3  0  0  0  0  0  0
  -16.7320  -28.7090   23.1210 C   0  0  0  0  0  3  0  0  0  0  0  0
  -25.9300  -32.5370   23.9040 C   0  0  0  0  0  3  0  0  0  0  0  0
  -25.6250  -33.9380   24.2350 N   0  0  0  0  0  0  0  0  0  0  0  0
  -25.9420  -34.9920   23.4690 C   0  0  0  0  0  0  0  0  0  0  0  0
  -26.5860  -34.8860   22.4230 O   0  0  0  0  0  0  0  0  0  0  0  0
  -25.0450  -34.0880   25.0450 H   0  0  0  0  0  0  0  0  0  0  0  0
  -24.2020  -36.7840   23.1720 C   0  0  0  0  0  1  0  0  0  0  0  0
  -25.4720  -36.3840   23.9380 C   0  0  0  0  0  3  0  0  0  0  0  0
  -27.6350  -37.2800   24.6790 C   0  0  0  0  0  1  0  0  0  0  0  0
  -26.4960  -37.4390   23.7790 N   0  0  0  0  0  0  0  0  0  0  0  0
  -26.0950  -38.3600   23.9330 H   0  0  0  0  0  0  0  0  0  0  0  0
  -26.4150  -31.7650   25.1930 C   0  0  1  0  0  0  0  0  0  0  0  0
  -25.3040  -31.5490   26.2480 C   0  0  0  0  0  1  0  0  0  0  0  0
  -26.9880  -30.3780   24.8230 C   0  0  0  0  0  1  0  0  0  0  0  0
  -27.5640  -32.5500   25.8650 C   0  0  0  0  0  1  0  0  0  0  0  0
  1 48  1  0
  1  2  1  0
  2  8  1  0
  3  2  2  0
  4  6  1  0
  5  4  2  0
  6  9  2  0
  7  9  1  0
  8  5  1  0
  8  7  2  0
  9 18  1  0
 10 18  1  0
 11 16  1  0
 12 13  1  0
 12 11  1  0
 14 13  1  0
 14 23  1  0
 14 15  1  0
 16 10  1  0
 16 15  1  0
 17 10  2  0
 18 19  1  0
 20 21  2  0
 21 40  1  0
 22 21  1  0
 22 25  1  0
 23 20  1  0
 23 24  1  0
 24 22  2  0
 25 26  1  0
 26 27  2  0
 28 31  1  0
 28 27  1  0
 29 28  2  0
 30 29  1  0
 30 25  2  0
 31 32  1  0
 32 33  1  0
 33 34  2  0
 35 34  1  0
 35 39  1  0
 36 35  2  0
 37 32  2  0
 37 36  1  0
 38 37  1  0
 40 41  1  0
 41 44  1  0
 41 43  1  0
 42 40  2  0
 45 46  1  0
 45 20  1  0
 47 45  1  0
 49 48  1  0
 50 49  1  0
 51 49  1  0
 52 49  1  0
 53  1  1  0
 53 54  1  0
 55 66  2  0
 56 54  1  0
 56 61  1  0
 57 65  1  0
 57 67  1  0
 58 64  1  0
 58 60  1  0
 59 65  1  0
 60 61  2  0
 60 59  1  0
 62 56  2  0
 63 62  1  0
 63 58  2  0
 64 57  1  0
 65 55  1  0
 67 69  2  0
 68 67  1  0
 70 68  1  0
 71 80  2  0
 71 76  1  0
 72 68  1  0
 72 76  1  0
 73 72  1  0
 74 75  1  0
 74 73  1  0
 75 71  1  0
 76 77  2  0
 77 78  1  0
 79 78  2  0
 80 79  1  0
 81 55  1  0
 81 82  1  0
 81 91  1  0
 82 85  1  0
 83 87  1  0
 83 82  1  0
 84 83  2  0
 87 86  1  0
 89 90  1  0
 89 87  1  0
 89 88  1  0
 91 94  1  1
 91 92  1  0
 93 91  1  0
M  ISO  4  10 100  18 100  53 101  54 101
M  END
>  <TORSDO>  (6) 
F 21

>  <SCORE>  (6) 
-14.274

>  <name>  (6) 
5

>  <ligand_id>  (6) 
5

>  <original_smiles>  (6) 
[H]c1c([H])c(C(=O)C([H])(C([H])([H])Oc2c([H])c([H])c3c(c2[H])C([H])([H])N(C(=O)C([H])(N([H])C(=O)C([H])(N([H])C([H])([H])[H])C([H])([H])[H])C(C([H])([H])[H])(C([H])([H])[H])C([H])([H])[H])C([H])(C(=O)N([H])C2([H])c4c([H])c([H])c([H])c([H])c4C([H])([H])C([H])([H])C2([H])[H])C3([H])[H])C([H])([H])[N+]([H])([H])[H])c([H])c(N([H])C(=O)N2C([H])([H])C([H])([H])C([H])([H])C([H])(n3nc(-c4c([H])c([H])c(Oc5c([H])c([H])c(F)c([H])c5F)c([H])c4[H])c(C(=O)N([H])[H])c3N([H])[H])C2([H])[H])c1[H]

>  <smiles>  (6) 
[H]c1c([H])c(C(=O)C([H])(C([H])([H])Oc2c([H])c([H])c3c(c2[H])C([H])([H])N(C(=O)C([H])(N([H])C(=O)C([H])(N([H])C([H])([H])[H])C([H])([H])[H])C(C([H])([H])[H])(C([H])([H])[H])C([H])([H])[H])C([H])(C(=O)N([H])C2([H])c4c([H])c([H])c([H])c([H])c4C([H])([H])C([H])([H])C2([H])[H])C3([H])[H])C([H])([H])[N+]([H])([H])[H])c([H])c(N([H])C(=O)N2C([H])([H])C([H])([H])C([H])([H])C([H])(n3nc(-c4c([H])c([H])c(Oc5c([H])c([H])c(F)c([H])c5F)c([H])c4[H])c(C(=O)N([H])[H])c3N([H])[H])C2([H])[H])c1[H]

$$$$
6:0:0
     RDKit          3D

 99107  0  0  1  0  0  0  0  0999 V2000
  -30.3480  -23.2670   18.9280 C   0  0  0  0  0  0  0  0  0  0  0  0
  -30.3490  -22.2740   19.8770 N   0  0  0  0  0  0  0  0  0  0  0  0
  -30.4940  -22.9830   17.7370 O   0  0  0  0  0  0  0  0  0  0  0  0
  -30.1690  -22.6530   20.7970 H   0  0  0  0  0  0  0  0  0  0  0  0
  -31.3750  -18.6500   18.8450 C   0  0  0  0  0  3  0  0  0  0  0  0
  -31.1360  -20.0680   18.7830 C   0  0  0  0  0  3  0  0  0  0  0  0
  -30.4350  -18.6150   21.0470 C   0  0  0  0  0  3  0  0  0  0  0  0
  -30.1870  -20.0190   21.0030 C   0  0  0  0  0  0  0  0  0  0  0  0
  -31.0250  -17.8800   19.9910 C   0  0  0  0  0  0  0  0  0  0  0  0
  -30.5390  -20.8050   19.8550 C   0  0  0  0  0  0  0  0  0  0  0  0
  -31.9240  -15.4140   19.6870 C   0  0  0  0  0  0  0  0  0  0  0  0
  -31.7270  -13.0870   18.8070 C   0  0  0  0  0  2  0  0  0  0  0  0
  -30.6840  -13.0910   17.6650 C   0  0  0  0  0  2  0  0  0  0  0  0
  -29.2530  -12.9370   18.2180 C   0  0  0  0  0  2  0  0  0  0  0  0
  -28.9700  -13.8880   19.4110 C   0  0  0  0  0  3  0  0  0  0  0  0
  -30.1120  -13.8190   20.4490 C   0  0  0  0  0  2  0  0  0  0  0  0
  -31.3660  -14.1600   19.7560 N   0  0  0  0  0  0  0  0  0  0  0  0
  -33.0150  -15.6030   19.1390 O   0  0  0  0  0  0  0  0  0  0  0  0
  -31.1360  -16.4270   20.1780 N   0  0  0  0  0  0  0  0  0  0  0  0
  -30.3800  -16.0440   20.7240 H   0  0  0  0  0  0  0  0  0  0  0  0
  -26.7050  -14.5370   20.4410 C   0  0  0  0  0  0  0  0  0  0  0  0
  -25.6400  -13.7860   20.8580 C   0  0  0  0  0  0  0  0  0  0  0  0
  -26.0130  -12.4220   20.6550 C   0  0  0  0  0  0  0  0  0  0  0  0
  -27.6650  -13.6310   20.0130 N   0  0  0  0  0  0  0  0  0  0  0  0
  -27.2580  -12.3490   20.1990 N   0  0  0  0  0  0  0  0  0  0  0  0
  -25.2380  -11.1860   20.8140 C   0  0  0  0  0  0  0  0  0  0  0  0
  -25.5770  -10.2220   21.7890 C   0  0  0  0  0  3  0  0  0  0  0  0
  -24.8050   -9.0480   21.9340 C   0  0  0  0  0  3  0  0  0  0  0  0
  -23.6810   -8.8320   21.1030 C   0  0  0  0  0  0  0  0  0  0  0  0
  -23.3610   -9.7830   20.1200 C   0  0  0  0  0  3  0  0  0  0  0  0
  -24.1330  -10.9480   19.9720 C   0  0  0  0  0  3  0  0  0  0  0  0
  -22.8890   -7.7100   21.1560 O   0  0  0  0  0  0  0  0  0  0  0  0
  -22.4930   -7.1630   22.3500 C   0  0  0  0  0  0  0  0  0  0  0  0
  -21.7580   -7.9030   23.3010 C   0  0  0  0  0  3  0  0  0  0  0  0
  -21.3120   -7.2810   24.4840 C   0  0  0  0  0  3  0  0  0  0  0  0
  -21.5920   -5.9200   24.7140 C   0  0  0  0  0  0  0  0  0  0  0  0
  -22.3190   -5.1800   23.7650 C   0  0  0  0  0  3  0  0  0  0  0  0
  -22.7660   -5.8000   22.5850 C   0  0  0  0  0  0  0  0  0  0  0  0
  -23.4480   -5.0780   21.6640 F   0  0  0  0  0  0  0  0  0  0  0  0
  -21.1570   -5.3200   25.8460 F   0  0  0  0  0  0  0  0  0  0  0  0
  -24.3110  -14.3050   21.3290 C   0  0  0  0  0  0  0  0  0  0  0  0
  -23.6600  -13.5860   22.2360 N   0  0  0  0  0  0  0  0  0  0  0  0
  -23.8650  -15.3790   20.9260 O   0  0  0  0  0  0  0  0  0  0  0  0
  -24.0350  -12.7150   22.5830 H   0  0  0  0  0  0  0  0  0  0  0  0
  -22.7720  -13.9130   22.5910 H   0  0  0  0  0  0  0  0  0  0  0  0
  -26.9320  -15.9080   20.3700 N   0  0  0  0  0  0  0  0  0  0  0  0
  -26.2210  -16.5840   20.6220 H   0  0  0  0  0  0  0  0  0  0  0  0
  -27.7610  -16.3340   19.9750 H   0  0  0  0  0  0  0  0  0  0  0  0
  -29.5700  -20.6260   22.2350 C   0  0  0  0  0  0  0  0  0  0  0  0
  -28.4540  -21.3230   22.0620 N   0  0  0  0  0  0  0  0  0  0  0  0
  -30.0480  -20.4370   23.3530 O   0  0  0  0  0  0  0  0  0  0  0  0
  -28.0330  -21.3840   21.1460 H   0  0  0  0  0  0  0  0  0  0  0  0
  -27.9760  -21.7200   22.8580 H   0  0  0  0  0  0  0  0  0  0  0  0
  -29.9820  -24.9190   20.8930 C   0  0  0  0  0  1  0  0  0  0  0  0
  -31.6190  -25.4580   19.0630 C   0  0  0  0  0  1  0  0  0  0  0  0
  -30.2410  -24.8230   19.3740 C   0  0  1  0  0  0  0  0  0  0  0  0
  -29.2790  -25.9180   17.3080 C   0  0  0  0  0  1  0  0  0  0  0  0
  -29.1600  -25.6930   18.7470 N   0  0  0  0  0  0  0  0  0  0  0  0
  -29.1150  -27.0830   19.3630 O   0  0  0  0  0  0  0  0  0  0  0  0
  -24.7160  -31.4160   23.1150 C   0  0  0  0  0  0  0  0  0  0  0  0
  -27.8510  -27.6950   19.4620 C   0  0  0  0  0  0  0  0  0  0  0  0
  -23.6610  -30.0360   21.3590 C   0  0  0  0  0  3  0  0  0  0  0  0
  -25.2610  -28.8970   19.7190 C   0  0  0  0  0  0  0  0  0  0  0  0
  -26.1090  -30.7680   21.1370 C   0  0  0  0  0  2  0  0  0  0  0  0
  -26.3670  -29.4970   20.3340 C   0  0  0  0  0  0  0  0  0  0  0  0
  -27.6580  -28.9050   20.2000 C   0  0  0  0  0  3  0  0  0  0  0  0
  -26.7080  -27.1400   18.8380 C   0  0  0  0  0  3  0  0  0  0  0  0
  -25.4320  -27.7250   18.9670 C   0  0  0  0  0  3  0  0  0  0  0  0
  -23.9100  -29.5570   19.9030 C   0  0  0  0  0  2  0  0  0  0  0  0
  -24.8480  -30.7540   21.9270 N   0  0  0  0  0  0  0  0  0  0  0  0
  -23.6300  -31.4580   23.7110 O   0  0  0  0  0  0  0  0  0  0  0  0
  -23.2090  -28.8280   22.2130 C   0  0  0  0  0  0  0  0  0  0  0  0
  -21.9890  -28.3270   21.9550 N   0  0  0  0  0  0  0  0  0  0  0  0
  -23.9570  -28.3460   23.0680 O   0  0  0  0  0  0  0  0  0  0  0  0
  -21.4310  -28.7820   21.2460 H   0  0  0  0  0  0  0  0  0  0  0  0
  -19.0770  -26.1820   21.9710 C   0  0  0  0  0  0  0  0  0  0  0  0
  -21.3800  -27.1680   22.6080 C   0  0  0  0  0  3  0  0  0  0  0  0
  -21.9780  -25.8470   22.0700 C   0  0  0  0  0  2  0  0  0  0  0  0
  -21.1760  -25.2500   20.9090 C   0  0  0  0  0  2  0  0  0  0  0  0
  -19.7350  -24.9650   21.3430 C   0  0  0  0  0  2  0  0  0  0  0  0
  -19.8490  -27.2230   22.5500 C   0  0  0  0  0  0  0  0  0  0  0  0
  -19.1880  -28.3470   23.0900 C   0  0  0  0  0  3  0  0  0  0  0  0
  -17.7830  -28.4410   23.0570 C   0  0  0  0  0  3  0  0  0  0  0  0
  -17.0230  -27.4010   22.4960 C   0  0  0  0  0  3  0  0  0  0  0  0
  -17.6690  -26.2730   21.9580 C   0  0  0  0  0  3  0  0  0  0  0  0
  -25.9150  -32.1680   23.7680 C   0  0  0  0  0  3  0  0  0  0  0  0
  -26.4850  -31.4380   25.0460 C   0  0  1  0  0  0  0  0  0  0  0  0
  -25.4020  -31.0730   26.0880 C   0  0  0  0  0  1  0  0  0  0  0  0
  -27.2180  -30.1350   24.6520 C   0  0  0  0  0  1  0  0  0  0  0  0
  -27.5330  -32.3390   25.7410 C   0  0  0  0  0  1  0  0  0  0  0  0
  -25.4580  -33.5230   24.1080 N   0  0  0  0  0  0  0  0  0  0  0  0
  -25.6900  -34.6140   23.3680 C   0  0  0  0  0  0  0  0  0  0  0  0
  -26.3820  -34.5930   22.3460 O   0  0  0  0  0  0  0  0  0  0  0  0
  -24.8390  -33.6040   24.9020 H   0  0  0  0  0  0  0  0  0  0  0  0
  -23.7870  -36.2200   23.0130 C   0  0  0  0  0  1  0  0  0  0  0  0
  -25.0560  -35.9390   23.8330 C   0  0  0  0  0  3  0  0  0  0  0  0
  -27.0720  -37.0390   24.7020 C   0  0  0  0  0  1  0  0  0  0  0  0
  -25.9730  -37.0970   23.7410 N   0  0  0  0  0  0  0  0  0  0  0  0
  -25.4710  -37.9680   23.8880 H   0  0  0  0  0  0  0  0  0  0  0  0
  1 56  1  0
  1  2  1  0
  2  4  1  0
  3  1  2  0
  5  9  1  0
  6  5  2  0
  6 10  1  0
  8  7  1  0
  8 49  1  0
  9 19  1  0
  9  7  2  0
 10  2  1  0
 10  8  2  0
 11 17  1  0
 11 19  1  0
 12 17  1  0
 13 14  1  0
 13 12  1  0
 15 14  1  0
 15 24  1  0
 15 16  1  0
 17 16  1  0
 18 11  2  0
 19 20  1  0
 21 22  2  0
 22 41  1  0
 23 26  1  0
 23 22  1  0
 24 25  1  0
 24 21  1  0
 25 23  2  0
 26 27  1  0
 27 28  2  0
 29 32  1  0
 29 28  1  0
 30 29  2  0
 31 30  1  0
 31 26  2  0
 32 33  1  0
 33 38  2  0
 33 34  1  0
 34 35  2  0
 35 36  1  0
 36 40  1  0
 37 36  2  0
 38 37  1  0
 39 38  1  0
 41 42  1  0
 42 44  1  0
 42 45  1  0
 43 41  2  0
 46 21  1  0
 46 47  1  0
 48 46  1  0
 49 51  2  0
 50 49  1  0
 50 53  1  0
 52 50  1  0
 56 55  1  1
 56 54  1  0
 57 58  1  0
 58 59  1  0
 58 56  1  0
 59 61  1  0
 60 71  2  0
 61 66  1  0
 62 70  1  0
 62 72  1  0
 63 69  1  0
 63 65  1  0
 64 70  1  0
 65 64  1  0
 66 65  2  0
 67 68  1  0
 67 61  2  0
 68 63  2  0
 69 62  1  0
 70 60  1  0
 72 74  2  0
 73 72  1  0
 75 73  1  0
 76 81  1  0
 77 73  1  0
 78 77  1  0
 79 80  1  0
 79 78  1  0
 80 76  1  0
 81 77  1  0
 81 82  2  0
 83 82  1  0
 84 83  2  0
 85 76  2  0
 85 84  1  0
 86 60  1  0
 86 91  1  0
 86 87  1  0
 87 90  1  1
 87 88  1  0
 89 87  1  0
 91 94  1  0
 92 96  1  0
 92 91  1  0
 93 92  2  0
 96 95  1  0
 98 96  1  0
 98 99  1  0
 98 97  1  0
M  ISO  4  11 100  19 100  58 101  59 101
M  END
>  <TORSDO>  (7) 
F 20

>  <SCORE>  (7) 
-8.911

>  <name>  (7) 
6

>  <ligand_id>  (7) 
6

>  <original_smiles>  (7) 
[H]c1c([H])c([H])c2c(c1[H])C([H])([H])C([H])([H])C([H])([H])C2([H])N([H])C(=O)C1([H])N(C(=O)C([H])(N([H])C(=O)C([H])(N([H])C([H])([H])[H])C([H])([H])[H])C(C([H])([H])[H])(C([H])([H])[H])C([H])([H])[H])C([H])([H])c2c([H])c(ON(C([H])([H])[H])C(C(=O)N([H])c3c([H])c([H])c(N([H])C(=O)N4C([H])([H])C([H])([H])C([H])([H])C([H])(n5nc(-c6c([H])c([H])c(Oc7c([H])c([H])c(F)c([H])c7F)c([H])c6[H])c(C(=O)N([H])[H])c5N([H])[H])C4([H])[H])c([H])c3C(=O)N([H])[H])(C([H])([H])[H])C([H])([H])[H])c([H])c([H])c2C1([H])[H]

>  <smiles>  (7) 
[H]c1c([H])c([H])c2c(c1[H])C([H])([H])C([H])([H])C([H])([H])C2([H])N([H])C(=O)C1([H])N(C(=O)C([H])(N([H])C(=O)C([H])(N([H])C([H])([H])[H])C([H])([H])[H])C(C([H])([H])[H])(C([H])([H])[H])C([H])([H])[H])C([H])([H])c2c([H])c(ON(C([H])([H])[H])C(C(=O)N([H])c3c([H])c([H])c(N([H])C(=O)N4C([H])([H])C([H])([H])C([H])([H])C([H])(n5nc(-c6c([H])c([H])c(Oc7c([H])c([H])c(F)c([H])c7F)c([H])c6[H])c(C(=O)N([H])[H])c5N([H])[H])C4([H])[H])c([H])c3C(=O)N([H])[H])(C([H])([H])[H])C([H])([H])[H])c([H])c([H])c2C1([H])[H]

$$$$
7:0:0
     RDKit          3D

 94102  0  0  1  0  0  0  0  0999 V2000
  -30.3950  -19.3600   21.7110 C   0  0  0  0  0  3  0  0  0  0  0  0
  -30.4860  -17.9370   21.6480 C   0  0  0  0  0  3  0  0  0  0  0  0
  -28.9540  -19.3680   19.7930 C   0  0  0  0  0  3  0  0  0  0  0  0
  -29.6260  -20.1290   20.7880 C   0  0  0  0  0  0  0  0  0  0  0  0
  -29.8130  -17.1850   20.6590 C   0  0  0  0  0  0  0  0  0  0  0  0
  -29.0250  -17.9380   19.7450 C   0  0  0  0  0  0  0  0  0  0  0  0
  -30.5810  -14.7100   20.3790 C   0  0  0  0  0  0  0  0  0  0  0  0
  -30.4060  -12.4960   19.2550 C   0  0  0  0  0  2  0  0  0  0  0  0
  -29.4520  -12.6230   18.0460 C   0  0  0  0  0  2  0  0  0  0  0  0
  -27.9810  -12.4610   18.4780 C   0  0  0  0  0  2  0  0  0  0  0  0
  -27.6200  -13.3080   19.7280 C   0  0  0  0  0  3  0  0  0  0  0  0
  -28.6770  -13.1280   20.8430 C   0  0  0  0  0  2  0  0  0  0  0  0
  -29.9850  -13.4810   20.2680 N   0  0  0  0  0  0  0  0  0  0  0  0
  -31.7510  -14.8940   20.0320 O   0  0  0  0  0  0  0  0  0  0  0  0
  -29.7220  -15.7270   20.7040 N   0  0  0  0  0  0  0  0  0  0  0  0
  -28.7770  -15.3890   20.7990 H   0  0  0  0  0  0  0  0  0  0  0  0
  -25.2220  -13.9260   20.4190 C   0  0  0  0  0  0  0  0  0  0  0  0
  -24.1510  -13.1610   20.7980 C   0  0  0  0  0  0  0  0  0  0  0  0
  -24.6110  -11.8060   20.7930 C   0  0  0  0  0  0  0  0  0  0  0  0
  -26.2660  -13.0380   20.2030 N   0  0  0  0  0  0  0  0  0  0  0  0
  -25.9020  -11.7600   20.4850 N   0  0  0  0  0  0  0  0  0  0  0  0
  -23.8830  -10.5480   20.9960 C   0  0  0  0  0  0  0  0  0  0  0  0
  -24.3150   -9.5850   21.9340 C   0  0  0  0  0  3  0  0  0  0  0  0
  -23.5860   -8.3910   22.1230 C   0  0  0  0  0  3  0  0  0  0  0  0
  -22.4110   -8.1510   21.3730 C   0  0  0  0  0  0  0  0  0  0  0  0
  -21.9960   -9.1020   20.4250 C   0  0  0  0  0  3  0  0  0  0  0  0
  -22.7250  -10.2890   20.2340 C   0  0  0  0  0  3  0  0  0  0  0  0
  -21.6530   -7.0090   21.4700 O   0  0  0  0  0  0  0  0  0  0  0  0
  -21.6160   -6.2660   22.6230 C   0  0  0  0  0  0  0  0  0  0  0  0
  -21.2140   -6.8250   23.8560 C   0  0  0  0  0  3  0  0  0  0  0  0
  -21.1240   -6.0100   25.0030 C   0  0  0  0  0  3  0  0  0  0  0  0
  -21.4240   -4.6370   24.9170 C   0  0  0  0  0  0  0  0  0  0  0  0
  -21.8170   -4.0780   23.6890 C   0  0  0  0  0  3  0  0  0  0  0  0
  -21.9100   -4.8900   22.5460 C   0  0  0  0  0  0  0  0  0  0  0  0
  -22.2720   -4.3420   21.3610 F   0  0  0  0  0  0  0  0  0  0  0  0
  -21.3290   -3.8520   26.0160 F   0  0  0  0  0  0  0  0  0  0  0  0
  -22.7530  -13.6450   21.0550 C   0  0  0  0  0  0  0  0  0  0  0  0
  -22.0140  -12.9630   21.9220 N   0  0  0  0  0  0  0  0  0  0  0  0
  -22.3240  -14.6660   20.5210 O   0  0  0  0  0  0  0  0  0  0  0  0
  -22.3670  -12.1350   22.3790 H   0  0  0  0  0  0  0  0  0  0  0  0
  -21.0780  -13.2810   22.1330 H   0  0  0  0  0  0  0  0  0  0  0  0
  -25.3880  -15.2960   20.2190 N   0  0  0  0  0  0  0  0  0  0  0  0
  -24.6100  -15.9420   20.3050 H   0  0  0  0  0  0  0  0  0  0  0  0
  -26.2170  -15.7380   19.8280 H   0  0  0  0  0  0  0  0  0  0  0  0
  -29.7010  -21.6840   20.8330 C   0  0  0  0  0  0  0  0  0  0  0  0
  -27.2910  -22.0550   20.3070 C   0  0  0  0  0  1  0  0  0  0  0  0
  -28.6370  -22.5460   20.6140 N   0  0  0  0  0  0  0  0  0  0  0  0
  -30.7940  -22.1500   21.1660 O   0  0  0  0  0  0  0  0  0  0  0  0
  -28.6430  -24.0220   21.0050 C   0  0  0  0  0  3  0  0  0  0  0  0
  -28.5530  -25.1430   19.8780 C   0  0  0  0  0  3  0  0  0  0  0  0
  -28.4730  -26.5740   20.2880 O   0  0  0  0  0  0  0  0  0  0  0  0
  -24.6470  -31.9100   23.2480 C   0  0  0  0  0  0  0  0  0  0  0  0
  -27.3080  -27.3590   20.2170 C   0  0  0  0  0  0  0  0  0  0  0  0
  -23.4550  -30.4970   21.6100 C   0  0  0  0  0  3  0  0  0  0  0  0
  -24.9170  -28.9490   20.1860 C   0  0  0  0  0  0  0  0  0  0  0  0
  -25.9900  -30.8290   21.4290 C   0  0  0  0  0  2  0  0  0  0  0  0
  -26.0780  -29.4520   20.7850 C   0  0  0  0  0  0  0  0  0  0  0  0
  -27.2700  -28.6690   20.7870 C   0  0  0  0  0  3  0  0  0  0  0  0
  -26.1200  -26.9020   19.5990 C   0  0  0  0  0  3  0  0  0  0  0  0
  -24.9420  -27.6800   19.5840 C   0  0  0  0  0  3  0  0  0  0  0  0
  -23.6700  -29.8090   20.2360 C   0  0  0  0  0  2  0  0  0  0  0  0
  -24.7160  -31.0950   22.1540 N   0  0  0  0  0  0  0  0  0  0  0  0
  -23.5580  -32.1850   23.7740 O   0  0  0  0  0  0  0  0  0  0  0  0
  -22.7920  -29.4880   22.5770 C   0  0  0  0  0  0  0  0  0  0  0  0
  -21.4670  -29.3100   22.4500 N   0  0  0  0  0  0  0  0  0  0  0  0
  -23.4700  -28.8650   23.3970 O   0  0  0  0  0  0  0  0  0  0  0  0
  -20.9730  -29.8520   21.7540 H   0  0  0  0  0  0  0  0  0  0  0  0
  -18.1060  -28.0860   22.9370 C   0  0  0  0  0  0  0  0  0  0  0  0
  -20.6590  -28.3620   23.2140 C   0  0  0  0  0  3  0  0  0  0  0  0
  -20.7820  -26.9370   22.6240 C   0  0  0  0  0  2  0  0  0  0  0  0
  -19.6770  -26.6010   21.6170 C   0  0  0  0  0  2  0  0  0  0  0  0
  -18.2940  -26.7390   22.2570 C   0  0  0  0  0  2  0  0  0  0  0  0
  -19.2160  -28.8520   23.3790 C   0  0  0  0  0  0  0  0  0  0  0  0
  -18.9810  -30.1120   23.9770 C   0  0  0  0  0  3  0  0  0  0  0  0
  -17.6720  -30.6030   24.1400 C   0  0  0  0  0  3  0  0  0  0  0  0
  -16.5770  -29.8350   23.7080 C   0  0  0  0  0  3  0  0  0  0  0  0
  -16.7960  -28.5770   23.1180 C   0  0  0  0  0  3  0  0  0  0  0  0
  -25.9230  -32.5550   23.8720 C   0  0  0  0  0  3  0  0  0  0  0  0
  -26.4400  -31.7920   25.1520 C   0  0  1  0  0  0  0  0  0  0  0  0
  -25.3470  -31.5510   26.2190 C   0  0  0  0  0  1  0  0  0  0  0  0
  -27.0340  -30.4190   24.7670 C   0  0  0  0  0  1  0  0  0  0  0  0
  -27.5850  -32.5970   25.8130 C   0  0  0  0  0  1  0  0  0  0  0  0
  -25.6020  -33.9510   24.1980 N   0  0  0  0  0  0  0  0  0  0  0  0
  -25.9220  -35.0070   23.4370 C   0  0  0  0  0  0  0  0  0  0  0  0
  -26.5890  -34.9070   22.4040 O   0  0  0  0  0  0  0  0  0  0  0  0
  -25.0120  -34.1020   25.0030 H   0  0  0  0  0  0  0  0  0  0  0  0
  -24.1730  -36.7800   23.0920 C   0  0  0  0  0  1  0  0  0  0  0  0
  -25.4250  -36.3910   23.8950 C   0  0  0  0  0  3  0  0  0  0  0  0
  -27.5570  -37.2990   24.7070 C   0  0  0  0  0  1  0  0  0  0  0  0
  -26.4480  -37.4530   23.7700 N   0  0  0  0  0  0  0  0  0  0  0  0
  -26.0330  -38.3710   23.9160 H   0  0  0  0  0  0  0  0  0  0  0  0
  -28.2900  -17.2620   18.7740 N   0  0  0  0  0  0  0  0  0  0  0  0
  -27.9030  -17.8380   18.0330 H   0  0  0  0  0  0  0  0  0  0  0  0
  -28.7310  -16.4230   18.4140 H   0  0  0  0  0  0  0  0  0  0  0  0
  2  1  1  0
  3  4  1  0
  4 45  1  0
  4  1  2  0
  5 15  1  0
  5  2  2  0
  6  3  2  0
  6  5  1  0
  7 15  1  0
  8 13  1  0
  9 10  1  0
  9  8  1  0
 11 10  1  0
 11 20  1  0
 11 12  1  0
 13  7  1  0
 13 12  1  0
 14  7  2  0
 15 16  1  0
 17 18  2  0
 18 37  1  0
 19 18  1  0
 19 22  1  0
 20 17  1  0
 20 21  1  0
 21 19  2  0
 22 23  1  0
 23 24  2  0
 25 28  1  0
 25 24  1  0
 26 25  2  0
 27 26  1  0
 27 22  2  0
 28 29  1  0
 29 30  1  0
 30 31  2  0
 32 31  1  0
 32 36  1  0
 33 32  2  0
 34 29  2  0
 34 33  1  0
 35 34  1  0
 37 38  1  0
 38 41  1  0
 38 40  1  0
 39 37  2  0
 42 43  1  0
 42 17  1  0
 44 42  1  0
 45 48  2  0
 46 47  1  0
 47 45  1  0
 47 49  1  0
 50 51  1  0
 50 49  2  0
 52 63  2  0
 53 51  1  0
 53 58  1  0
 54 62  1  0
 54 64  1  0
 55 61  1  0
 55 57  1  0
 56 62  1  0
 57 58  2  0
 57 56  1  0
 59 53  2  0
 60 59  1  0
 60 55  2  0
 61 54  1  0
 62 52  1  0
 64 66  2  0
 65 64  1  0
 67 65  1  0
 68 77  2  0
 68 73  1  0
 69 65  1  0
 69 73  1  0
 70 69  1  0
 71 72  1  0
 71 70  1  0
 72 68  1  0
 73 74  2  0
 74 75  1  0
 76 75  2  0
 77 76  1  0
 78 52  1  0
 78 83  1  0
 78 79  1  0
 79 82  1  1
 79 80  1  0
 81 79  1  0
 83 86  1  0
 84 88  1  0
 84 83  1  0
 85 84  2  0
 88 87  1  0
 90 88  1  0
 90 91  1  0
 90 89  1  0
 92  6  1  0
 93 92  1  0
 94 92  1  0
M  ISO  4   7 100  15 100  50 101  51 101
M  END
>  <TORSDO>  (8) 
F 20

>  <SCORE>  (8) 
-14.225

>  <name>  (8) 
7

>  <ligand_id>  (8) 
7

>  <original_smiles>  (8) 
[H]c1c([H])c([H])c2c(c1[H])C([H])([H])C([H])([H])C([H])([H])C2([H])N([H])C(=O)C1([H])N(C(=O)C([H])(N([H])C(=O)C([H])(N([H])C([H])([H])[H])C([H])([H])[H])C(C([H])([H])[H])(C([H])([H])[H])C([H])([H])[H])C([H])([H])c2c([H])c(OC([H])([H])C([H])([H])N(C(=O)c3c([H])c([H])c(N([H])C(=O)N4C([H])([H])C([H])([H])C([H])([H])C([H])(n5nc(-c6c([H])c([H])c(Oc7c([H])c([H])c(F)c([H])c7F)c([H])c6[H])c(C(=O)N([H])[H])c5N([H])[H])C4([H])[H])c(N([H])[H])c3[H])C([H])([H])[H])c([H])c([H])c2C1([H])[H]

>  <smiles>  (8) 
[H]c1c([H])c([H])c2c(c1[H])C([H])([H])C([H])([H])C([H])([H])C2([H])N([H])C(=O)C1([H])N(C(=O)C([H])(N([H])C(=O)C([H])(N([H])C([H])([H])[H])C([H])([H])[H])C(C([H])([H])[H])(C([H])([H])[H])C([H])([H])[H])C([H])([H])c2c([H])c(OC([H])([H])C([H])([H])N(C(=O)c3c([H])c([H])c(N([H])C(=O)N4C([H])([H])C([H])([H])C([H])([H])C([H])(n5nc(-c6c([H])c([H])c(Oc7c([H])c([H])c(F)c([H])c7F)c([H])c6[H])c(C(=O)N([H])[H])c5N([H])[H])C4([H])[H])c(N([H])[H])c3[H])C([H])([H])[H])c([H])c([H])c2C1([H])[H]

$$$$
8:0:0
     RDKit          3D

 91 99  0  0  1  0  0  0  0  0999 V2000
  -29.2820  -20.7890   20.2360 C   0  0  0  0  0  0  0  0  0  0  0  0
  -30.5970  -21.4380   19.8610 C   0  0  0  0  0  2  0  0  0  0  0  0
  -30.2770  -22.9710   19.7190 C   0  0  0  0  0  2  0  0  0  0  0  0
  -28.9910  -23.2340   20.5360 C   0  0  0  0  0  3  0  0  0  0  0  0
  -28.4230  -21.7840   20.5030 N   0  0  0  0  0  0  0  0  0  0  0  0
  -28.0490  -24.6170   20.1620 C   0  0  0  0  0  2  0  0  0  0  0  0
  -28.3040  -26.1500   20.4210 O   0  0  0  0  0  0  0  0  0  0  0  0
  -24.6200  -31.8890   23.2940 C   0  0  0  0  0  0  0  0  0  0  0  0
  -27.2550  -27.1490   20.3250 C   0  0  0  0  0  0  0  0  0  0  0  0
  -23.4540  -30.4970   21.6270 C   0  0  0  0  0  3  0  0  0  0  0  0
  -24.9310  -28.9160   20.2350 C   0  0  0  0  0  0  0  0  0  0  0  0
  -26.0130  -30.7500   21.5210 C   0  0  0  0  0  2  0  0  0  0  0  0
  -26.0990  -29.3570   20.8690 C   0  0  0  0  0  0  0  0  0  0  0  0
  -27.2630  -28.4930   20.8910 C   0  0  0  0  0  3  0  0  0  0  0  0
  -26.0600  -26.8180   19.6500 C   0  0  0  0  0  3  0  0  0  0  0  0
  -24.9270  -27.6620   19.6060 C   0  0  0  0  0  3  0  0  0  0  0  0
  -23.7050  -29.8190   20.2540 C   0  0  0  0  0  2  0  0  0  0  0  0
  -24.7150  -31.0690   22.2010 N   0  0  0  0  0  0  0  0  0  0  0  0
  -23.5240  -32.1740   23.8000 O   0  0  0  0  0  0  0  0  0  0  0  0
  -22.7520  -29.4900   22.5740 C   0  0  0  0  0  0  0  0  0  0  0  0
  -21.4240  -29.3260   22.4250 N   0  0  0  0  0  0  0  0  0  0  0  0
  -23.4040  -28.8610   23.4110 O   0  0  0  0  0  0  0  0  0  0  0  0
  -20.9570  -29.8870   21.7260 H   0  0  0  0  0  0  0  0  0  0  0  0
  -18.0190  -28.1860   22.9120 C   0  0  0  0  0  0  0  0  0  0  0  0
  -20.5840  -28.3930   23.1790 C   0  0  0  0  0  3  0  0  0  0  0  0
  -20.6530  -26.9680   22.5790 C   0  0  0  0  0  2  0  0  0  0  0  0
  -19.5440  -26.6880   21.5600 C   0  0  0  0  0  2  0  0  0  0  0  0
  -18.1670  -26.8480   22.2090 C   0  0  0  0  0  2  0  0  0  0  0  0
  -19.1530  -28.9190   23.3540 C   0  0  0  0  0  0  0  0  0  0  0  0
  -18.9600  -30.1720   23.9750 C   0  0  0  0  0  3  0  0  0  0  0  0
  -17.6650  -30.6940   24.1540 C   0  0  0  0  0  3  0  0  0  0  0  0
  -16.5450  -29.9590   23.7270 C   0  0  0  0  0  3  0  0  0  0  0  0
  -16.7230  -28.7060   23.1140 C   0  0  0  0  0  3  0  0  0  0  0  0
  -25.8840  -32.5240   23.9470 C   0  0  0  0  0  3  0  0  0  0  0  0
  -26.3450  -31.7760   25.2590 C   0  0  1  0  0  0  0  0  0  0  0  0
  -25.2090  -31.5620   26.2880 C   0  0  0  0  0  1  0  0  0  0  0  0
  -26.9370  -30.3900   24.9200 C   0  0  0  0  0  1  0  0  0  0  0  0
  -27.4720  -32.5790   25.9510 C   0  0  0  0  0  1  0  0  0  0  0  0
  -25.5760  -33.9330   24.2470 N   0  0  0  0  0  0  0  0  0  0  0  0
  -25.8960  -34.9690   23.4600 C   0  0  0  0  0  0  0  0  0  0  0  0
  -26.5480  -34.8400   22.4210 O   0  0  0  0  0  0  0  0  0  0  0  0
  -24.9970  -34.1030   25.0540 H   0  0  0  0  0  0  0  0  0  0  0  0
  -24.1500  -36.7490   23.1120 C   0  0  0  0  0  1  0  0  0  0  0  0
  -25.4190  -36.3700   23.8940 C   0  0  0  0  0  3  0  0  0  0  0  0
  -27.5660  -37.3000   24.6460 C   0  0  0  0  0  1  0  0  0  0  0  0
  -26.4450  -37.4240   23.7170 N   0  0  0  0  0  0  0  0  0  0  0  0
  -26.0380  -38.3480   23.8330 H   0  0  0  0  0  0  0  0  0  0  0  0
  -29.0660  -19.0870   20.2100 C   0  0  0  0  0  3  0  0  0  0  0  0
  -26.8830  -19.2770   18.9720 C   0  0  0  0  0  1  0  0  0  0  0  0
  -28.9610  -18.8120   17.7290 C   0  0  0  0  0  1  0  0  0  0  0  0
  -28.2500  -18.6970   19.0250 N   0  0  1  0  0  4  0  0  0  0  0  0
  -28.0960  -17.7110   19.1570 H   0  0  0  0  0  0  0  0  0  0  0  0
  -30.1980  -17.8320   20.4880 C   0  0  0  0  0  2  0  0  0  0  0  0
  -30.6290  -15.0680   20.3790 C   0  0  0  0  0  0  0  0  0  0  0  0
  -30.5210  -12.7160   19.4200 C   0  0  0  0  0  2  0  0  0  0  0  0
  -29.5870  -12.6560   18.1870 C   0  0  0  0  0  2  0  0  0  0  0  0
  -28.1220  -12.4380   18.6180 C   0  0  0  0  0  2  0  0  0  0  0  0
  -27.7120  -13.3490   19.8020 C   0  0  0  0  0  3  0  0  0  0  0  0
  -28.7700  -13.3640   20.9260 C   0  0  0  0  0  2  0  0  0  0  0  0
  -30.0350  -13.8040   20.3210 N   0  0  0  0  0  0  0  0  0  0  0  0
  -31.8230  -15.1330   20.0700 O   0  0  0  0  0  0  0  0  0  0  0  0
  -29.8630  -16.2630   20.5810 N   0  0  0  0  0  0  0  0  0  0  0  0
  -28.9200  -16.0490   20.8690 H   0  0  0  0  0  0  0  0  0  0  0  0
  -25.3340  -13.9050   20.5590 C   0  0  0  0  0  0  0  0  0  0  0  0
  -24.2740  -13.1240   20.9270 C   0  0  0  0  0  0  0  0  0  0  0  0
  -24.7400  -11.7730   20.8720 C   0  0  0  0  0  0  0  0  0  0  0  0
  -26.3770  -13.0350   20.3000 N   0  0  0  0  0  0  0  0  0  0  0  0
  -26.0300  -11.7460   20.5540 N   0  0  0  0  0  0  0  0  0  0  0  0
  -24.0160  -10.5080   21.0460 C   0  0  0  0  0  0  0  0  0  0  0  0
  -24.4340   -9.5390   21.9830 C   0  0  0  0  0  3  0  0  0  0  0  0
  -23.7070   -8.3400   22.1460 C   0  0  0  0  0  3  0  0  0  0  0  0
  -22.5470   -8.1000   21.3710 C   0  0  0  0  0  0  0  0  0  0  0  0
  -22.1490   -9.0580   20.4220 C   0  0  0  0  0  3  0  0  0  0  0  0
  -22.8760  -10.2490   20.2580 C   0  0  0  0  0  3  0  0  0  0  0  0
  -21.7970   -6.9510   21.4410 O   0  0  0  0  0  0  0  0  0  0  0  0
  -21.7060   -6.2220   22.5980 C   0  0  0  0  0  0  0  0  0  0  0  0
  -21.1510   -6.7630   23.7790 C   0  0  0  0  0  3  0  0  0  0  0  0
  -21.0140   -5.9590   24.9260 C   0  0  0  0  0  3  0  0  0  0  0  0
  -21.4190   -4.6110   24.8940 C   0  0  0  0  0  0  0  0  0  0  0  0
  -21.9660   -4.0680   23.7180 C   0  0  0  0  0  3  0  0  0  0  0  0
  -22.1070   -4.8700   22.5730 C   0  0  0  0  0  0  0  0  0  0  0  0
  -22.6150   -4.3350   21.4370 F   0  0  0  0  0  0  0  0  0  0  0  0
  -21.2770   -3.8360   25.9950 F   0  0  0  0  0  0  0  0  0  0  0  0
  -22.8770  -13.5960   21.2000 C   0  0  0  0  0  0  0  0  0  0  0  0
  -22.1530  -12.8970   22.0660 N   0  0  0  0  0  0  0  0  0  0  0  0
  -22.4400  -14.6230   20.6810 O   0  0  0  0  0  0  0  0  0  0  0  0
  -22.5270  -12.0690   22.5040 H   0  0  0  0  0  0  0  0  0  0  0  0
  -21.2150  -13.1950   22.2950 H   0  0  0  0  0  0  0  0  0  0  0  0
  -25.4950  -15.2760   20.3870 N   0  0  0  0  0  0  0  0  0  0  0  0
  -24.6740  -15.8720   20.4020 H   0  0  0  0  0  0  0  0  0  0  0  0
  -26.2130  -15.6110   19.7620 H   0  0  0  0  0  0  0  0  0  0  0  0
  1  5  2  0
  2  1  1  0
  3  2  1  0
  3  4  1  0
  4  6  1  0
  5  4  1  0
  6  7  1  0
  8 19  2  0
  9  7  1  0
  9 14  1  0
 10 18  1  0
 10 20  1  0
 11 17  1  0
 11 13  1  0
 12 18  1  0
 13 14  2  0
 13 12  1  0
 15  9  2  0
 16 15  1  0
 16 11  2  0
 17 10  1  0
 18  8  1  0
 20 22  2  0
 21 20  1  0
 23 21  1  0
 24 33  2  0
 24 29  1  0
 25 21  1  0
 25 29  1  0
 26 25  1  0
 27 28  1  0
 27 26  1  0
 28 24  1  0
 29 30  2  0
 30 31  1  0
 32 31  2  0
 33 32  1  0
 34  8  1  0
 34 39  1  0
 34 35  1  0
 35 38  1  1
 35 36  1  0
 37 35  1  0
 39 42  1  0
 40 44  1  0
 40 39  1  0
 41 40  2  0
 44 43  1  0
 46 47  1  0
 46 44  1  0
 46 45  1  0
 48  1  1  0
 48 53  1  0
 49 51  1  0
 50 51  1  0
 51 52  1  1
 51 48  1  0
 53 62  1  0
 54 62  1  0
 55 60  1  0
 56 57  1  0
 56 55  1  0
 58 57  1  0
 58 67  1  0
 58 59  1  0
 60 54  1  0
 60 59  1  0
 61 54  2  0
 62 63  1  0
 64 65  2  0
 65 84  1  0
 66 65  1  0
 66 69  1  0
 67 68  1  0
 67 64  1  0
 68 66  2  0
 69 70  1  0
 70 71  2  0
 72 75  1  0
 72 71  1  0
 73 72  2  0
 74 73  1  0
 74 69  2  0
 75 76  1  0
 76 77  1  0
 77 78  2  0
 79 78  1  0
 79 83  1  0
 80 79  2  0
 81 76  2  0
 81 80  1  0
 82 81  1  0
 84 85  1  0
 85 88  1  0
 85 87  1  0
 86 84  2  0
 89 90  1  0
 89 64  1  0
 91 89  1  0
M  ISO  4   6 101   7 101  54 100  62 100
M  END
>  <TORSDO>  (9) 
F 20

>  <SCORE>  (9) 
-15.698

>  <name>  (9) 
8

>  <ligand_id>  (9) 
8

>  <original_smiles>  (9) 
[H]c1c([H])c([H])c2c(c1[H])C([H])([H])C([H])([H])C([H])([H])C2([H])N([H])C(=O)C1([H])N(C(=O)C([H])(N([H])C(=O)C([H])(N([H])C([H])([H])[H])C([H])([H])[H])C(C([H])([H])[H])(C([H])([H])[H])C([H])([H])[H])C([H])([H])c2c([H])c(OC([H])([H])C3([H])N=C(C([H])(C([H])([H])N([H])C(=O)N4C([H])([H])C([H])([H])C([H])([H])C([H])(n5nc(-c6c([H])c([H])c(Oc7c([H])c([H])c(F)c([H])c7F)c([H])c6[H])c(C(=O)N([H])[H])c5N([H])[H])C4([H])[H])[N+]([H])(C([H])([H])[H])C([H])([H])[H])C([H])([H])C3([H])[H])c([H])c([H])c2C1([H])[H]

>  <smiles>  (9) 
[H]c1c([H])c([H])c2c(c1[H])C([H])([H])C([H])([H])C([H])([H])C2([H])N([H])C(=O)C1([H])N(C(=O)C([H])(N([H])C(=O)C([H])(N([H])C([H])([H])[H])C([H])([H])[H])C(C([H])([H])[H])(C([H])([H])[H])C([H])([H])[H])C([H])([H])c2c([H])c(OC([H])([H])C3([H])N=C(C([H])(C([H])([H])N([H])C(=O)N4C([H])([H])C([H])([H])C([H])([H])C([H])(n5nc(-c6c([H])c([H])c(Oc7c([H])c([H])c(F)c([H])c7F)c([H])c6[H])c(C(=O)N([H])[H])c5N([H])[H])C4([H])[H])[N+]([H])(C([H])([H])[H])C([H])([H])[H])C([H])([H])C3([H])[H])c([H])c([H])c2C1([H])[H]

$$$$
9:0:0
     RDKit          3D

 98106  0  0  1  0  0  0  0  0999 V2000
  -28.8310  -20.8360   20.5010 C   0  0  0  0  0  3  0  0  0  0  0  0
  -29.7180  -16.9380   18.6700 C   0  0  0  0  0  3  0  0  0  0  0  0
  -29.2710  -18.0090   17.8790 C   0  0  0  0  0  3  0  0  0  0  0  0
  -29.6360  -18.3750   20.6340 C   0  0  0  0  0  3  0  0  0  0  0  0
  -29.1950  -19.4800   19.8400 C   0  0  0  0  0  0  0  0  0  0  0  0
  -29.8980  -17.0960   20.0630 C   0  0  0  0  0  0  0  0  0  0  0  0
  -28.9990  -19.2610   18.4540 C   0  0  0  0  0  0  0  0  0  0  0  0
  -28.5040  -20.2310   17.6520 F   0  0  0  0  0  0  0  0  0  0  0  0
  -30.9790  -14.9110   20.4920 C   0  0  0  0  0  0  0  0  0  0  0  0
  -30.7610  -12.6950   19.4410 C   0  0  0  0  0  2  0  0  0  0  0  0
  -29.8540  -12.8440   18.1990 C   0  0  0  0  0  2  0  0  0  0  0  0
  -28.3650  -12.7270   18.5810 C   0  0  0  0  0  2  0  0  0  0  0  0
  -27.9870  -13.5940   19.8110 C   0  0  0  0  0  3  0  0  0  0  0  0
  -29.0070  -13.4110   20.9580 C   0  0  0  0  0  2  0  0  0  0  0  0
  -30.3460  -13.7060   20.4270 N   0  0  0  0  0  0  0  0  0  0  0  0
  -32.1250  -15.0860   20.0680 O   0  0  0  0  0  0  0  0  0  0  0  0
  -30.2150  -15.9580   20.8810 N   0  0  0  0  0  0  0  0  0  0  0  0
  -29.4990  -15.7200   21.5520 H   0  0  0  0  0  0  0  0  0  0  0  0
  -25.5800  -14.2240   20.4700 C   0  0  0  0  0  0  0  0  0  0  0  0
  -24.4920  -13.4600   20.8000 C   0  0  0  0  0  0  0  0  0  0  0  0
  -24.9350  -12.1030   20.7550 C   0  0  0  0  0  0  0  0  0  0  0  0
  -26.6190  -13.3310   20.2500 N   0  0  0  0  0  0  0  0  0  0  0  0
  -26.2320  -12.0510   20.4780 N   0  0  0  0  0  0  0  0  0  0  0  0
  -24.1880  -10.8470   20.9060 C   0  0  0  0  0  0  0  0  0  0  0  0
  -24.5740   -9.8650   21.8450 C   0  0  0  0  0  3  0  0  0  0  0  0
  -23.8290   -8.6740   21.9830 C   0  0  0  0  0  3  0  0  0  0  0  0
  -22.6840   -8.4570   21.1800 C   0  0  0  0  0  0  0  0  0  0  0  0
  -22.3190   -9.4260   20.2300 C   0  0  0  0  0  3  0  0  0  0  0  0
  -23.0650  -10.6090   20.0910 C   0  0  0  0  0  3  0  0  0  0  0  0
  -21.9140   -7.3200   21.2270 O   0  0  0  0  0  0  0  0  0  0  0  0
  -21.7960   -6.5770   22.3750 C   0  0  0  0  0  0  0  0  0  0  0  0
  -21.2740   -7.1270   23.5660 C   0  0  0  0  0  3  0  0  0  0  0  0
  -21.1050   -6.3100   24.7030 C   0  0  0  0  0  3  0  0  0  0  0  0
  -21.4470   -4.9460   24.6470 C   0  0  0  0  0  0  0  0  0  0  0  0
  -21.9610   -4.3960   23.4600 C   0  0  0  0  0  3  0  0  0  0  0  0
  -22.1340   -5.2090   22.3260 C   0  0  0  0  0  0  0  0  0  0  0  0
  -22.6100   -4.6700   21.1790 F   0  0  0  0  0  0  0  0  0  0  0  0
  -21.2760   -4.1590   25.7350 F   0  0  0  0  0  0  0  0  0  0  0  0
  -23.0970  -13.9510   21.0500 C   0  0  0  0  0  0  0  0  0  0  0  0
  -22.3400  -13.2520   21.8890 N   0  0  0  0  0  0  0  0  0  0  0  0
  -22.6820  -14.9900   20.5350 O   0  0  0  0  0  0  0  0  0  0  0  0
  -22.6860  -12.4090   22.3240 H   0  0  0  0  0  0  0  0  0  0  0  0
  -21.4020  -13.5630   22.0980 H   0  0  0  0  0  0  0  0  0  0  0  0
  -25.7700  -15.5930   20.3170 N   0  0  0  0  0  0  0  0  0  0  0  0
  -25.0040  -16.2540   20.3930 H   0  0  0  0  0  0  0  0  0  0  0  0
  -26.6280  -16.0150   19.9870 H   0  0  0  0  0  0  0  0  0  0  0  0
  -29.5880  -22.0770   19.8870 C   0  0  0  0  0  2  0  0  0  0  0  0
  -29.2340  -24.5750   19.9470 C   0  0  0  0  0  0  0  0  0  0  0  0
  -29.4080  -23.3840   20.5700 N   0  0  0  0  0  0  0  0  0  0  0  0
  -29.1380  -24.6570   18.7200 O   0  0  0  0  0  0  0  0  0  0  0  0
  -29.5910  -23.4190   21.5670 H   0  0  0  0  0  0  0  0  0  0  0  0
  -29.1490  -25.8580   20.8120 C   0  0  0  0  0  2  0  0  0  0  0  0
  -29.0500  -27.0630   20.0180 O   0  0  0  0  0  0  0  0  0  0  0  0
  -24.7240  -31.7520   23.2120 C   0  0  0  0  0  0  0  0  0  0  0  0
  -27.8240  -27.6950   20.0280 C   0  0  0  0  0  0  0  0  0  0  0  0
  -23.6840  -30.3290   21.4750 C   0  0  0  0  0  3  0  0  0  0  0  0
  -25.3040  -28.9850   20.0290 C   0  0  0  0  0  0  0  0  0  0  0  0
  -26.1720  -30.9150   21.3610 C   0  0  0  0  0  2  0  0  0  0  0  0
  -26.3970  -29.5840   20.6700 C   0  0  0  0  0  0  0  0  0  0  0  0
  -27.6620  -28.9510   20.6600 C   0  0  0  0  0  3  0  0  0  0  0  0
  -26.7160  -27.1070   19.3830 C   0  0  0  0  0  3  0  0  0  0  0  0
  -25.4600  -27.7470   19.3790 C   0  0  0  0  0  3  0  0  0  0  0  0
  -23.9880  -29.7290   20.0740 C   0  0  0  0  0  2  0  0  0  0  0  0
  -24.8760  -31.0110   22.0760 N   0  0  0  0  0  0  0  0  0  0  0  0
  -23.6120  -31.9030   23.7340 O   0  0  0  0  0  0  0  0  0  0  0  0
  -23.1000  -29.2130   22.3720 C   0  0  0  0  0  0  0  0  0  0  0  0
  -21.8040  -28.9150   22.1910 N   0  0  0  0  0  0  0  0  0  0  0  0
  -23.8130  -28.6190   23.1850 O   0  0  0  0  0  0  0  0  0  0  0  0
  -21.2850  -29.4580   21.5150 H   0  0  0  0  0  0  0  0  0  0  0  0
  -18.5460  -27.3860   22.5040 C   0  0  0  0  0  0  0  0  0  0  0  0
  -21.0540  -27.8720   22.8920 C   0  0  0  0  0  3  0  0  0  0  0  0
  -21.3160  -26.4830   22.2680 C   0  0  0  0  0  2  0  0  0  0  0  0
  -20.2900  -26.1000   21.1950 C   0  0  0  0  0  2  0  0  0  0  0  0
  -18.8780  -26.0880   21.7880 C   0  0  0  0  0  2  0  0  0  0  0  0
  -19.5690  -28.2310   23.0090 C   0  0  0  0  0  0  0  0  0  0  0  0
  -19.2080  -29.4420   23.6360 C   0  0  0  0  0  3  0  0  0  0  0  0
  -17.8560  -29.8120   23.7650 C   0  0  0  0  0  3  0  0  0  0  0  0
  -16.8470  -28.9640   23.2770 C   0  0  0  0  0  3  0  0  0  0  0  0
  -17.1920  -27.7530   22.6530 C   0  0  0  0  0  3  0  0  0  0  0  0
  -25.9350  -32.4600   23.8960 C   0  0  0  0  0  3  0  0  0  0  0  0
  -25.5250  -33.8360   24.2070 N   0  0  0  0  0  0  0  0  0  0  0  0
  -25.8270  -34.9060   23.4610 C   0  0  0  0  0  0  0  0  0  0  0  0
  -26.5520  -34.8440   22.4640 O   0  0  0  0  0  0  0  0  0  0  0  0
  -24.8820  -33.9520   24.9770 H   0  0  0  0  0  0  0  0  0  0  0  0
  -24.0090  -36.5860   23.0160 C   0  0  0  0  0  1  0  0  0  0  0  0
  -25.2320  -36.2610   23.8880 C   0  0  0  0  0  3  0  0  0  0  0  0
  -27.2580  -37.2870   24.8230 C   0  0  0  0  0  1  0  0  0  0  0  0
  -26.2010  -37.3780   23.8190 N   0  0  0  0  0  0  0  0  0  0  0  0
  -25.7300  -38.2710   23.9340 H   0  0  0  0  0  0  0  0  0  0  0  0
  -26.4350  -31.7190   25.1960 C   0  0  1  0  0  0  0  0  0  0  0  0
  -25.3080  -31.4160   26.2110 C   0  0  0  0  0  1  0  0  0  0  0  0
  -27.1160  -30.3790   24.8320 C   0  0  0  0  0  1  0  0  0  0  0  0
  -27.5040  -32.5770   25.9130 C   0  0  0  0  0  1  0  0  0  0  0  0
  -27.2850  -20.9720   20.4690 C   0  0  0  0  0  2  0  0  0  0  0  0
  -26.7720  -22.2540   20.9820 N   0  0  0  0  0  4  0  0  0  0  0  0
  -25.7680  -22.2500   20.9520 H   0  0  0  0  0  0  0  0  0  0  0  0
  -27.0920  -23.0220   20.4200 H   0  0  0  0  0  0  0  0  0  0  0  0
  -27.0520  -22.3940   21.9360 H   0  0  0  0  0  0  0  0  0  0  0  0
  1 47  1  0
  2  6  1  0
  3  7  1  0
  3  2  2  0
  5  1  1  0
  5  4  1  0
  6  4  2  0
  6 17  1  0
  7  5  2  0
  8  7  1  0
  9 17  1  0
 10 15  1  0
 11 12  1  0
 11 10  1  0
 13 12  1  0
 13 22  1  0
 13 14  1  0
 15  9  1  0
 15 14  1  0
 16  9  2  0
 17 18  1  0
 19 20  2  0
 20 39  1  0
 21 20  1  0
 21 24  1  0
 22 19  1  0
 22 23  1  0
 23 21  2  0
 24 25  1  0
 25 26  2  0
 27 30  1  0
 27 26  1  0
 28 27  2  0
 29 28  1  0
 29 24  2  0
 30 31  1  0
 31 32  1  0
 32 33  2  0
 34 33  1  0
 34 38  1  0
 35 34  2  0
 36 31  2  0
 36 35  1  0
 37 36  1  0
 39 40  1  0
 40 43  1  0
 40 42  1  0
 41 39  2  0
 44 45  1  0
 44 19  1  0
 46 44  1  0
 47 49  1  0
 48 49  1  0
 48 52  1  0
 49 51  1  0
 50 48  2  0
 53 55  1  0
 53 52  1  0
 54 65  2  0
 55 60  1  0
 56 64  1  0
 56 66  1  0
 57 63  1  0
 57 59  1  0
 58 64  1  0
 59 58  1  0
 60 59  2  0
 61 55  2  0
 62 61  1  0
 62 57  2  0
 63 56  1  0
 64 54  1  0
 66 68  2  0
 67 66  1  0
 69 67  1  0
 70 79  2  0
 70 75  1  0
 71 67  1  0
 71 75  1  0
 72 71  1  0
 73 74  1  0
 73 72  1  0
 74 70  1  0
 75 76  2  0
 76 77  1  0
 78 77  2  0
 79 78  1  0
 80 54  1  0
 80 81  1  0
 80 90  1  0
 81 84  1  0
 82 86  1  0
 82 81  1  0
 83 82  2  0
 86 85  1  0
 88 86  1  0
 88 89  1  0
 88 87  1  0
 90 93  1  1
 90 91  1  0
 92 90  1  0
 94  1  1  0
 94 95  1  0
 95 98  1  0
 96 95  1  0
 97 95  1  0
M  ISO  4   9 100  17 100  52 101  53 101
M  END
>  <TORSDO>  (10) 
F 22

>  <SCORE>  (10) 
-12.006

>  <name>  (10) 
9

>  <ligand_id>  (10) 
9

>  <original_smiles>  (10) 
[H]c1c([H])c([H])c2c(c1[H])C([H])([H])C([H])([H])C([H])([H])C2([H])N([H])C(=O)C1([H])N(C(=O)C([H])(N([H])C(=O)C([H])(N([H])C([H])([H])[H])C([H])([H])[H])C(C([H])([H])[H])(C([H])([H])[H])C([H])([H])[H])C([H])([H])c2c([H])c(OC([H])([H])C(=O)N([H])C([H])([H])C([H])(c3c([H])c(N([H])C(=O)N4C([H])([H])C([H])([H])C([H])([H])C([H])(n5nc(-c6c([H])c([H])c(Oc7c([H])c([H])c(F)c([H])c7F)c([H])c6[H])c(C(=O)N([H])[H])c5N([H])[H])C4([H])[H])c([H])c([H])c3F)C([H])([H])[N+]([H])([H])[H])c([H])c([H])c2C1([H])[H]

>  <smiles>  (10) 
[H]c1c([H])c([H])c2c(c1[H])C([H])([H])C([H])([H])C([H])([H])C2([H])N([H])C(=O)C1([H])N(C(=O)C([H])(N([H])C(=O)C([H])(N([H])C([H])([H])[H])C([H])([H])[H])C(C([H])([H])[H])(C([H])([H])[H])C([H])([H])[H])C([H])([H])c2c([H])c(OC([H])([H])C(=O)N([H])C([H])([H])C([H])(c3c([H])c(N([H])C(=O)N4C([H])([H])C([H])([H])C([H])([H])C([H])(n5nc(-c6c([H])c([H])c(Oc7c([H])c([H])c(F)c([H])c7F)c([H])c6[H])c(C(=O)N([H])[H])c5N([H])[H])C4([H])[H])c([H])c([H])c3F)C([H])([H])[N+]([H])([H])[H])c([H])c([H])c2C1([H])[H]

$$$$
10:0:0
     RDKit          3D

 91 99  0  0  1  0  0  0  0  0999 V2000
  -28.8900  -22.9490   20.4080 C   0  0  0  0  0  3  0  0  0  0  0  0
  -30.4970  -15.2040   20.0330 C   0  0  0  0  0  0  0  0  0  0  0  0
  -30.3530  -12.8000   19.1110 C   0  0  0  0  0  2  0  0  0  0  0  0
  -29.3800  -12.6580   17.9170 C   0  0  0  0  0  2  0  0  0  0  0  0
  -27.9510  -12.3980   18.4210 C   0  0  0  0  0  2  0  0  0  0  0  0
  -27.5630  -13.3430   19.5870 C   0  0  0  0  0  3  0  0  0  0  0  0
  -28.6630  -13.4650   20.6640 C   0  0  0  0  0  2  0  0  0  0  0  0
  -29.8720  -13.9380   19.9750 N   0  0  0  0  0  0  0  0  0  0  0  0
  -31.7000  -15.1710   19.7380 O   0  0  0  0  0  0  0  0  0  0  0  0
  -28.7380  -21.4130   19.6510 C   0  0  0  0  0  0  0  0  0  0  0  0
  -29.0090  -18.8790   18.9170 C   0  0  0  0  0  3  0  0  0  0  0  0
  -29.6670  -19.1900   21.1210 C   0  0  0  0  0  3  0  0  0  0  0  0
  -29.9840  -17.5570   18.9610 C   0  0  0  0  0  3  0  0  0  0  0  0
  -29.5780  -17.4950   21.2100 C   0  0  0  0  0  3  0  0  0  0  0  0
  -29.1500  -20.0130   19.9310 N   0  0  0  0  0  0  0  0  0  0  0  0
  -29.8030  -16.5090   20.0410 N   0  0  0  0  0  0  0  0  0  0  0  0
  -28.1790  -21.5470   18.5570 O   0  0  0  0  0  0  0  0  0  0  0  0
  -25.2240  -13.8850   20.4420 C   0  0  0  0  0  0  0  0  0  0  0  0
  -24.1800  -13.0970   20.8420 C   0  0  0  0  0  0  0  0  0  0  0  0
  -24.6510  -11.7490   20.7750 C   0  0  0  0  0  0  0  0  0  0  0  0
  -26.2610  -13.0170   20.1490 N   0  0  0  0  0  0  0  0  0  0  0  0
  -25.9320  -11.7270   20.4190 N   0  0  0  0  0  0  0  0  0  0  0  0
  -23.9400  -10.4800   20.9730 C   0  0  0  0  0  0  0  0  0  0  0  0
  -24.3900   -9.5150   21.9020 C   0  0  0  0  0  3  0  0  0  0  0  0
  -23.6730   -8.3130   22.0890 C   0  0  0  0  0  3  0  0  0  0  0  0
  -22.4940   -8.0660   21.3470 C   0  0  0  0  0  0  0  0  0  0  0  0
  -22.0640   -9.0190   20.4070 C   0  0  0  0  0  3  0  0  0  0  0  0
  -22.7790  -10.2120   20.2170 C   0  0  0  0  0  3  0  0  0  0  0  0
  -21.7480   -6.9150   21.4450 O   0  0  0  0  0  0  0  0  0  0  0  0
  -21.6870   -6.1950   22.6100 C   0  0  0  0  0  0  0  0  0  0  0  0
  -21.2200   -6.7630   23.8160 C   0  0  0  0  0  3  0  0  0  0  0  0
  -21.1070   -5.9670   24.9720 C   0  0  0  0  0  3  0  0  0  0  0  0
  -21.4520   -4.6020   24.9250 C   0  0  0  0  0  0  0  0  0  0  0  0
  -21.9110   -4.0320   23.7250 C   0  0  0  0  0  3  0  0  0  0  0  0
  -22.0230   -4.8260   22.5690 C   0  0  0  0  0  0  0  0  0  0  0  0
  -22.4460   -4.2670   21.4100 F   0  0  0  0  0  0  0  0  0  0  0  0
  -21.3350   -3.8350   26.0340 F   0  0  0  0  0  0  0  0  0  0  0  0
  -22.7930  -13.5630   21.1710 C   0  0  0  0  0  0  0  0  0  0  0  0
  -22.1070  -12.8540   22.0590 N   0  0  0  0  0  0  0  0  0  0  0  0
  -22.3320  -14.5910   20.6760 O   0  0  0  0  0  0  0  0  0  0  0  0
  -22.4950  -12.0200   22.4760 H   0  0  0  0  0  0  0  0  0  0  0  0
  -21.1800  -13.1500   22.3310 H   0  0  0  0  0  0  0  0  0  0  0  0
  -25.3790  -15.2580   20.2730 N   0  0  0  0  0  0  0  0  0  0  0  0
  -24.6170  -15.9170   20.3880 H   0  0  0  0  0  0  0  0  0  0  0  0
  -26.2170  -15.6840   19.8950 H   0  0  0  0  0  0  0  0  0  0  0  0
  -30.3280  -23.2840   20.4290 N   0  0  0  0  0  4  0  0  0  0  0  0
  -30.6890  -23.3320   19.4900 H   0  0  0  0  0  0  0  0  0  0  0  0
  -30.8530  -22.5920   20.9350 H   0  0  0  0  0  0  0  0  0  0  0  0
  -30.4730  -24.1770   20.8670 H   0  0  0  0  0  0  0  0  0  0  0  0
  -28.0450  -24.4340   19.9470 C   0  0  0  0  0  2  0  0  0  0  0  0
  -28.2210  -25.9980   20.3390 O   0  0  0  0  0  0  0  0  0  0  0  0
  -24.6790  -31.8790   23.3090 C   0  0  0  0  0  0  0  0  0  0  0  0
  -27.2030  -27.0620   20.2490 C   0  0  0  0  0  0  0  0  0  0  0  0
  -23.4730  -30.5060   21.6590 C   0  0  0  0  0  3  0  0  0  0  0  0
  -24.9070  -28.9140   20.2220 C   0  0  0  0  0  0  0  0  0  0  0  0
  -26.0390  -30.7130   21.5150 C   0  0  0  0  0  2  0  0  0  0  0  0
  -26.0950  -29.3190   20.8420 C   0  0  0  0  0  0  0  0  0  0  0  0
  -27.2390  -28.4120   20.8330 C   0  0  0  0  0  3  0  0  0  0  0  0
  -25.9850  -26.7910   19.5860 C   0  0  0  0  0  3  0  0  0  0  0  0
  -24.8700  -27.6660   19.5810 C   0  0  0  0  0  3  0  0  0  0  0  0
  -23.6930  -29.8370   20.2770 C   0  0  0  0  0  2  0  0  0  0  0  0
  -24.7510  -31.0560   22.2150 N   0  0  0  0  0  0  0  0  0  0  0  0
  -23.5930  -32.1750   23.8340 O   0  0  0  0  0  0  0  0  0  0  0  0
  -22.7750  -29.5050   22.6180 C   0  0  0  0  0  0  0  0  0  0  0  0
  -21.4460  -29.3420   22.4820 N   0  0  0  0  0  0  0  0  0  0  0  0
  -23.4350  -28.8780   23.4510 O   0  0  0  0  0  0  0  0  0  0  0  0
  -20.9690  -29.8950   21.7850 H   0  0  0  0  0  0  0  0  0  0  0  0
  -18.0600  -28.1270   22.9400 C   0  0  0  0  0  0  0  0  0  0  0  0
  -20.6130  -28.4060   23.2460 C   0  0  0  0  0  3  0  0  0  0  0  0
  -20.7310  -26.9700   22.6850 C   0  0  0  0  0  2  0  0  0  0  0  0
  -19.6490  -26.6350   21.6530 C   0  0  0  0  0  2  0  0  0  0  0  0
  -18.2530  -26.7780   22.2650 C   0  0  0  0  0  2  0  0  0  0  0  0
  -19.1680  -28.8990   23.3840 C   0  0  0  0  0  0  0  0  0  0  0  0
  -18.9310  -30.1590   23.9760 C   0  0  0  0  0  3  0  0  0  0  0  0
  -17.6210  -30.6510   24.1240 C   0  0  0  0  0  3  0  0  0  0  0  0
  -16.5280  -29.8770   23.6960 C   0  0  0  0  0  3  0  0  0  0  0  0
  -16.7490  -28.6170   23.1110 C   0  0  0  0  0  3  0  0  0  0  0  0
  -25.9590  -32.5030   23.9440 C   0  0  0  0  0  3  0  0  0  0  0  0
  -26.4450  -31.7380   25.2370 C   0  0  1  0  0  0  0  0  0  0  0  0
  -25.3320  -31.5330   26.2920 C   0  0  0  0  0  1  0  0  0  0  0  0
  -27.0110  -30.3450   24.8800 C   0  0  0  0  0  1  0  0  0  0  0  0
  -27.6040  -32.5200   25.8990 C   0  0  0  0  0  1  0  0  0  0  0  0
  -25.6620  -33.9100   24.2650 N   0  0  0  0  0  0  0  0  0  0  0  0
  -25.9920  -34.9600   23.5010 C   0  0  0  0  0  0  0  0  0  0  0  0
  -26.6450  -34.8440   22.4600 O   0  0  0  0  0  0  0  0  0  0  0  0
  -25.0820  -34.0740   25.0740 H   0  0  0  0  0  0  0  0  0  0  0  0
  -24.2590  -36.7610   23.2010 C   0  0  0  0  0  1  0  0  0  0  0  0
  -25.5300  -36.3560   23.9640 C   0  0  0  0  0  3  0  0  0  0  0  0
  -27.7000  -37.2430   24.7000 C   0  0  0  0  0  1  0  0  0  0  0  0
  -26.5630  -37.4040   23.7980 N   0  0  0  0  0  0  0  0  0  0  0  0
  -26.1680  -38.3280   23.9480 H   0  0  0  0  0  0  0  0  0  0  0  0
  1 50  1  0
  1 46  1  0
  2 16  1  0
  3  8  1  0
  4  5  1  0
  4  3  1  0
  6  5  1  0
  6 21  1  0
  6  7  1  0
  8  2  1  0
  8  7  1  0
  9  2  2  0
 10 15  1  0
 10  1  1  0
 11 13  2  0
 11 15  1  0
 12 14  2  0
 13 16  1  0
 15 12  1  0
 16 14  1  0
 17 10  2  0
 18 19  2  0
 19 38  1  0
 20 19  1  0
 20 23  1  0
 21 22  1  0
 21 18  1  0
 22 20  2  0
 23 24  1  0
 24 25  2  0
 26 29  1  0
 26 25  1  0
 27 26  2  0
 28 27  1  0
 28 23  2  0
 29 30  1  0
 30 31  1  0
 31 32  2  0
 33 32  1  0
 33 37  1  0
 34 33  2  0
 35 30  2  0
 35 34  1  0
 36 35  1  0
 38 39  1  0
 39 42  1  0
 39 41  1  0
 40 38  2  0
 43 44  1  0
 43 18  1  0
 45 43  1  0
 46 49  1  0
 46 48  1  0
 47 46  1  0
 50 51  1  0
 52 63  2  0
 53 51  1  0
 53 58  1  0
 54 62  1  0
 54 64  1  0
 55 61  1  0
 55 57  1  0
 56 62  1  0
 57 56  1  0
 58 57  2  0
 59 53  2  0
 60 59  1  0
 60 55  2  0
 61 54  1  0
 62 52  1  0
 64 66  2  0
 65 64  1  0
 67 65  1  0
 68 77  2  0
 68 73  1  0
 69 65  1  0
 69 73  1  0
 70 69  1  0
 71 72  1  0
 71 70  1  0
 72 68  1  0
 73 74  2  0
 74 75  1  0
 76 75  2  0
 77 76  1  0
 78 52  1  0
 78 83  1  0
 78 79  1  0
 79 82  1  1
 79 80  1  0
 81 79  1  0
 83 86  1  0
 84 88  1  0
 84 83  1  0
 85 84  2  0
 88 87  1  0
 90 91  1  0
 90 88  1  0
 90 89  1  0
M  ISO  4   2 100  16 100  50 101  51 101
M  END
>  <TORSDO>  (11) 
F 18

>  <SCORE>  (11) 
-16.000

>  <name>  (11) 
10

>  <ligand_id>  (11) 
10

>  <original_smiles>  (11) 
[H]c1c([H])c([H])c2c(c1[H])C([H])([H])C([H])([H])C([H])([H])C2([H])N([H])C(=O)C1([H])N(C(=O)C([H])(N([H])C(=O)C([H])(N([H])C([H])([H])[H])C([H])([H])[H])C(C([H])([H])[H])(C([H])([H])[H])C([H])([H])[H])C([H])([H])c2c([H])c(OC([H])([H])C([H])(C(=O)N3C([H])([H])C([H])([H])N(C(=O)N4C([H])([H])C([H])([H])C([H])([H])C([H])(n5nc(-c6c([H])c([H])c(Oc7c([H])c([H])c(F)c([H])c7F)c([H])c6[H])c(C(=O)N([H])[H])c5N([H])[H])C4([H])[H])C([H])([H])C3([H])[H])[N+]([H])([H])[H])c([H])c([H])c2C1([H])[H]

>  <smiles>  (11) 
[H]c1c([H])c([H])c2c(c1[H])C([H])([H])C([H])([H])C([H])([H])C2([H])N([H])C(=O)C1([H])N(C(=O)C([H])(N([H])C(=O)C([H])(N([H])C([H])([H])[H])C([H])([H])[H])C(C([H])([H])[H])(C([H])([H])[H])C([H])([H])[H])C([H])([H])c2c([H])c(OC([H])([H])C([H])(C(=O)N3C([H])([H])C([H])([H])N(C(=O)N4C([H])([H])C([H])([H])C([H])([H])C([H])(n5nc(-c6c([H])c([H])c(Oc7c([H])c([H])c(F)c([H])c7F)c([H])c6[H])c(C(=O)N([H])[H])c5N([H])[H])C4([H])[H])C([H])([H])C3([H])[H])[N+]([H])([H])[H])c([H])c([H])c2C1([H])[H]

$$$$
11:0:0
     RDKit          3D

 98106  0  0  1  0  0  0  0  0999 V2000
  -30.8360  -20.1520   19.7690 C   0  0  0  0  0  2  0  0  0  0  0  0
  -30.9380  -18.6520   19.4020 C   0  0  0  0  0  2  0  0  0  0  0  0
  -29.3380  -20.4330   19.5850 C   0  0  0  0  0  3  0  0  0  0  0  0
  -29.6330  -18.0000   19.9290 C   0  0  0  0  0  3  0  0  0  0  0  0
  -28.7080  -19.1820   20.1030 N   0  0  0  0  0  4  0  0  0  0  0  0
  -27.8050  -19.0370   19.6800 H   0  0  0  0  0  0  0  0  0  0  0  0
  -28.5390  -19.3770   21.0780 H   0  0  0  0  0  0  0  0  0  0  0  0
  -28.7150  -21.7530   20.1760 C   0  0  0  0  0  0  0  0  0  0  0  0
  -29.9570  -23.2130   18.5930 C   0  0  0  0  0  1  0  0  0  0  0  0
  -28.8990  -22.9800   19.5810 N   0  0  0  0  0  0  0  0  0  0  0  0
  -27.9530  -21.6310   21.1400 O   0  0  0  0  0  0  0  0  0  0  0  0
  -27.9590  -24.1430   19.7250 C   0  0  0  0  0  2  0  0  0  0  0  0
  -28.4280  -25.3360   20.6340 C   0  0  0  0  0  2  0  0  0  0  0  0
  -28.4140  -26.6990   20.1040 O   0  0  0  0  0  0  0  0  0  0  0  0
  -24.6270  -31.9540   23.2430 C   0  0  0  0  0  0  0  0  0  0  0  0
  -27.2470  -27.4490   20.1600 C   0  0  0  0  0  0  0  0  0  0  0  0
  -23.4160  -30.5480   21.6120 C   0  0  0  0  0  3  0  0  0  0  0  0
  -24.8620  -29.0020   20.1800 C   0  0  0  0  0  0  0  0  0  0  0  0
  -25.9450  -30.8920   21.4010 C   0  0  0  0  0  2  0  0  0  0  0  0
  -26.0290  -29.5140   20.7590 C   0  0  0  0  0  0  0  0  0  0  0  0
  -27.2270  -28.7520   20.7340 C   0  0  0  0  0  3  0  0  0  0  0  0
  -26.0580  -26.9590   19.5840 C   0  0  0  0  0  3  0  0  0  0  0  0
  -24.8740  -27.7260   19.5870 C   0  0  0  0  0  3  0  0  0  0  0  0
  -23.6190  -29.8690   20.2320 C   0  0  0  0  0  2  0  0  0  0  0  0
  -24.6820  -31.1480   22.1420 N   0  0  0  0  0  0  0  0  0  0  0  0
  -23.5460  -32.2260   23.7860 O   0  0  0  0  0  0  0  0  0  0  0  0
  -22.7720  -29.5270   22.5780 C   0  0  0  0  0  0  0  0  0  0  0  0
  -21.4520  -29.3180   22.4370 N   0  0  0  0  0  0  0  0  0  0  0  0
  -23.4560  -28.9230   23.4070 O   0  0  0  0  0  0  0  0  0  0  0  0
  -20.9610  -29.8570   21.7380 H   0  0  0  0  0  0  0  0  0  0  0  0
  -18.0980  -28.0460   22.8940 C   0  0  0  0  0  0  0  0  0  0  0  0
  -20.6440  -28.3740   23.2090 C   0  0  0  0  0  3  0  0  0  0  0  0
  -20.7920  -26.9360   22.6590 C   0  0  0  0  0  2  0  0  0  0  0  0
  -19.7190  -26.5700   21.6290 C   0  0  0  0  0  2  0  0  0  0  0  0
  -18.3210  -26.6910   22.2430 C   0  0  0  0  0  2  0  0  0  0  0  0
  -19.1900  -28.8430   23.3300 C   0  0  0  0  0  0  0  0  0  0  0  0
  -18.9280  -30.1100   23.8950 C   0  0  0  0  0  3  0  0  0  0  0  0
  -17.6090  -30.5810   24.0290 C   0  0  0  0  0  3  0  0  0  0  0  0
  -16.5320  -29.7820   23.6060 C   0  0  0  0  0  3  0  0  0  0  0  0
  -16.7780  -28.5160   23.0460 C   0  0  0  0  0  3  0  0  0  0  0  0
  -25.9120  -32.5910   23.8560 C   0  0  0  0  0  3  0  0  0  0  0  0
  -25.5970  -33.9890   24.1840 N   0  0  0  0  0  0  0  0  0  0  0  0
  -25.9270  -35.0420   23.4240 C   0  0  0  0  0  0  0  0  0  0  0  0
  -26.5990  -34.9390   22.3940 O   0  0  0  0  0  0  0  0  0  0  0  0
  -24.9980  -34.1410   24.9820 H   0  0  0  0  0  0  0  0  0  0  0  0
  -24.1990  -36.8340   23.0600 C   0  0  0  0  0  1  0  0  0  0  0  0
  -25.4350  -36.4290   23.8800 C   0  0  0  0  0  3  0  0  0  0  0  0
  -27.5620  -37.3140   24.7300 C   0  0  0  0  0  1  0  0  0  0  0  0
  -26.4670  -37.4850   23.7780 N   0  0  0  0  0  0  0  0  0  0  0  0
  -26.0580  -38.4030   23.9260 H   0  0  0  0  0  0  0  0  0  0  0  0
  -26.4370  -31.8260   25.1320 C   0  0  1  0  0  0  0  0  0  0  0  0
  -25.3480  -31.5780   26.2050 C   0  0  0  0  0  1  0  0  0  0  0  0
  -27.0300  -30.4540   24.7390 C   0  0  0  0  0  1  0  0  0  0  0  0
  -27.5840  -32.6300   25.7880 C   0  0  0  0  0  1  0  0  0  0  0  0
  -29.8080  -17.0260   21.1790 C   0  0  0  0  0  3  0  0  0  0  0  0
  -30.5610  -14.6510   20.2750 C   0  0  0  0  0  0  0  0  0  0  0  0
  -30.3650  -12.4920   19.0580 C   0  0  0  0  0  2  0  0  0  0  0  0
  -29.3780  -12.6880   17.8840 C   0  0  0  0  0  2  0  0  0  0  0  0
  -27.9150  -12.5060   18.3460 C   0  0  0  0  0  2  0  0  0  0  0  0
  -27.5980  -13.3050   19.6380 C   0  0  0  0  0  3  0  0  0  0  0  0
  -28.6810  -13.0370   20.7060 C   0  0  0  0  0  2  0  0  0  0  0  0
  -29.9790  -13.4260   20.1260 N   0  0  0  0  0  0  0  0  0  0  0  0
  -31.6700  -14.9270   19.8110 O   0  0  0  0  0  0  0  0  0  0  0  0
  -29.7470  -15.5640   20.8700 N   0  0  0  0  0  0  0  0  0  0  0  0
  -28.8790  -15.1360   21.1610 H   0  0  0  0  0  0  0  0  0  0  0  0
  -25.2150  -13.8920   20.4040 C   0  0  0  0  0  0  0  0  0  0  0  0
  -24.1640  -13.1060   20.7990 C   0  0  0  0  0  0  0  0  0  0  0  0
  -24.6370  -11.7600   20.7530 C   0  0  0  0  0  0  0  0  0  0  0  0
  -26.2600  -13.0180   20.1430 N   0  0  0  0  0  0  0  0  0  0  0  0
  -25.9190  -11.7340   20.4100 N   0  0  0  0  0  0  0  0  0  0  0  0
  -23.9320  -10.4900   20.9570 C   0  0  0  0  0  0  0  0  0  0  0  0
  -24.3840   -9.5380   21.8970 C   0  0  0  0  0  3  0  0  0  0  0  0
  -23.6790   -8.3300   22.0860 C   0  0  0  0  0  3  0  0  0  0  0  0
  -22.5080   -8.0670   21.3370 C   0  0  0  0  0  0  0  0  0  0  0  0
  -22.0760   -9.0090   20.3850 C   0  0  0  0  0  3  0  0  0  0  0  0
  -22.7830  -10.2070   20.1940 C   0  0  0  0  0  3  0  0  0  0  0  0
  -21.7720   -6.9110   21.4350 O   0  0  0  0  0  0  0  0  0  0  0  0
  -21.7200   -6.1890   22.6000 C   0  0  0  0  0  0  0  0  0  0  0  0
  -21.2530   -6.7540   23.8070 C   0  0  0  0  0  3  0  0  0  0  0  0
  -21.1520   -5.9560   24.9640 C   0  0  0  0  0  3  0  0  0  0  0  0
  -21.5090   -4.5960   24.9160 C   0  0  0  0  0  0  0  0  0  0  0  0
  -21.9700   -4.0310   23.7140 C   0  0  0  0  0  3  0  0  0  0  0  0
  -22.0740   -4.8250   22.5590 C   0  0  0  0  0  0  0  0  0  0  0  0
  -22.4990   -4.2720   21.3970 F   0  0  0  0  0  0  0  0  0  0  0  0
  -21.4040   -3.8260   26.0250 F   0  0  0  0  0  0  0  0  0  0  0  0
  -22.7690  -13.5690   21.1080 C   0  0  0  0  0  0  0  0  0  0  0  0
  -22.0680  -12.8550   21.9830 N   0  0  0  0  0  0  0  0  0  0  0  0
  -22.3120  -14.5950   20.6090 O   0  0  0  0  0  0  0  0  0  0  0  0
  -22.4500  -12.0240   22.4050 H   0  0  0  0  0  0  0  0  0  0  0  0
  -21.1310  -13.1470   22.2320 H   0  0  0  0  0  0  0  0  0  0  0  0
  -25.3620  -15.2640   20.2250 N   0  0  0  0  0  0  0  0  0  0  0  0
  -24.5770  -15.9000   20.3070 H   0  0  0  0  0  0  0  0  0  0  0  0
  -26.1850  -15.7000   19.8310 H   0  0  0  0  0  0  0  0  0  0  0  0
  -30.9740  -17.3310   22.1600 C   0  0  0  0  0  2  0  0  0  0  0  0
  -30.9410  -16.4940   23.3780 N   0  0  0  0  0  4  0  0  0  0  0  0
  -30.0920  -16.6390   23.8940 H   0  0  0  0  0  0  0  0  0  0  0  0
  -31.7100  -16.7410   23.9760 H   0  0  0  0  0  0  0  0  0  0  0  0
  -31.0260  -15.5170   23.1630 H   0  0  0  0  0  0  0  0  0  0  0  0
  2  1  1  0
  2  4  1  0
  3  1  1  0
  3  5  1  0
  3  8  1  0
  4  5  1  0
  4 55  1  0
  5  7  1  0
  6  5  1  0
  8 11  2  0
  9 10  1  0
 10 12  1  0
 10  8  1  0
 12 13  1  0
 14 16  1  0
 14 13  1  0
 15 26  2  0
 16 21  1  0
 17 25  1  0
 17 27  1  0
 18 24  1  0
 18 20  1  0
 19 25  1  0
 20 19  1  0
 21 20  2  0
 22 23  1  0
 22 16  2  0
 23 18  2  0
 24 17  1  0
 25 15  1  0
 27 29  2  0
 28 27  1  0
 30 28  1  0
 31 40  2  0
 31 36  1  0
 32 28  1  0
 32 36  1  0
 33 32  1  0
 34 35  1  0
 34 33  1  0
 35 31  1  0
 36 37  2  0
 37 38  1  0
 39 38  2  0
 40 39  1  0
 41 15  1  0
 41 42  1  0
 41 51  1  0
 42 45  1  0
 43 47  1  0
 43 42  1  0
 44 43  2  0
 47 46  1  0
 49 47  1  0
 49 50  1  0
 49 48  1  0
 51 54  1  1
 51 52  1  0
 53 51  1  0
 55 94  1  0
 56 64  1  0
 57 62  1  0
 58 59  1  0
 58 57  1  0
 60 59  1  0
 60 69  1  0
 60 61  1  0
 62 56  1  0
 62 61  1  0
 63 56  2  0
 64 65  1  0
 64 55  1  0
 66 67  2  0
 67 86  1  0
 68 67  1  0
 68 71  1  0
 69 66  1  0
 69 70  1  0
 70 68  2  0
 71 72  1  0
 72 73  2  0
 74 77  1  0
 74 73  1  0
 75 74  2  0
 76 75  1  0
 76 71  2  0
 77 78  1  0
 78 79  1  0
 79 80  2  0
 81 80  1  0
 81 85  1  0
 82 81  2  0
 83 78  2  0
 83 82  1  0
 84 83  1  0
 86 87  1  0
 87 90  1  0
 87 89  1  0
 88 86  2  0
 91 92  1  0
 91 66  1  0
 93 91  1  0
 94 95  1  0
 95 96  1  0
 95 97  1  0
 98 95  1  0
M  ISO  4  13 101  14 101  56 100  64 100
M  END
>  <TORSDO>  (12) 
F 22

>  <SCORE>  (12) 
-13.000

>  <name>  (12) 
11

>  <ligand_id>  (12) 
11

>  <original_smiles>  (12) 
[H]c1c([H])c([H])c2c(c1[H])C([H])([H])C([H])([H])C([H])([H])C2([H])N([H])C(=O)C1([H])N(C(=O)C([H])(N([H])C(=O)C([H])(N([H])C([H])([H])[H])C([H])([H])[H])C(C([H])([H])[H])(C([H])([H])[H])C([H])([H])[H])C([H])([H])c2c([H])c(OC([H])([H])C([H])([H])N(C(=O)C3([H])C([H])([H])C([H])([H])C([H])(C([H])(N([H])C(=O)N4C([H])([H])C([H])([H])C([H])([H])C([H])(n5nc(-c6c([H])c([H])c(Oc7c([H])c([H])c(F)c([H])c7F)c([H])c6[H])c(C(=O)N([H])[H])c5N([H])[H])C4([H])[H])C([H])([H])[N+]([H])([H])[H])[N+]3([H])[H])C([H])([H])[H])c([H])c([H])c2C1([H])[H]

>  <smiles>  (12) 
[H]c1c([H])c([H])c2c(c1[H])C([H])([H])C([H])([H])C([H])([H])C2([H])N([H])C(=O)C1([H])N(C(=O)C([H])(N([H])C(=O)C([H])(N([H])C([H])([H])[H])C([H])([H])[H])C(C([H])([H])[H])(C([H])([H])[H])C([H])([H])[H])C([H])([H])c2c([H])c(OC([H])([H])C([H])([H])N(C(=O)C3([H])C([H])([H])C([H])([H])C([H])(C([H])(N([H])C(=O)N4C([H])([H])C([H])([H])C([H])([H])C([H])(n5nc(-c6c([H])c([H])c(Oc7c([H])c([H])c(F)c([H])c7F)c([H])c6[H])c(C(=O)N([H])[H])c5N([H])[H])C4([H])[H])C([H])([H])[N+]([H])([H])[H])[N+]3([H])[H])C([H])([H])[H])c([H])c([H])c2C1([H])[H]

$$$$
12:0:0
     RDKit          3D

 99108  0  0  1  0  0  0  0  0999 V2000
  -24.9480  -21.5710   18.5610 C   0  0  0  0  0  3  0  0  0  0  0  0
  -25.9640  -20.8000   19.1590 C   0  0  0  0  0  3  0  0  0  0  0  0
  -25.2630  -22.7890   17.9160 C   0  0  0  0  0  3  0  0  0  0  0  0
  -27.6200  -22.4250   18.4050 C   0  0  0  0  0  3  0  0  0  0  0  0
  -27.3050  -21.2380   19.0960 C   0  0  0  0  0  0  0  0  0  0  0  0
  -26.6050  -23.2330   17.8400 C   0  0  0  0  0  0  0  0  0  0  0  0
  -27.9680  -25.2580   17.3490 C   0  0  0  0  0  0  0  0  0  0  0  0
  -26.8580  -24.5020   17.2450 N   0  0  0  0  0  0  0  0  0  0  0  0
  -29.0850  -24.8390   17.6530 O   0  0  0  0  0  0  0  0  0  0  0  0
  -26.0480  -25.0100   16.9170 H   0  0  0  0  0  0  0  0  0  0  0  0
  -27.7890  -26.7510   17.0660 C   0  0  0  0  0  2  0  0  0  0  0  0
  -28.0010  -27.4970   18.2670 O   0  0  0  0  0  0  0  0  0  0  0  0
  -25.4810  -30.6450   24.1090 C   0  0  0  0  0  0  0  0  0  0  0  0
  -26.9480  -28.1900   18.8200 C   0  0  0  0  0  0  0  0  0  0  0  0
  -23.8900  -30.4660   22.2260 C   0  0  0  0  0  3  0  0  0  0  0  0
  -24.8910  -29.7200   20.0090 C   0  0  0  0  0  0  0  0  0  0  0  0
  -26.4110  -30.5450   21.8070 C   0  0  0  0  0  2  0  0  0  0  0  0
  -26.1720  -29.7120   20.5680 C   0  0  0  0  0  0  0  0  0  0  0  0
  -27.2000  -28.9440   19.9850 C   0  0  0  0  0  3  0  0  0  0  0  0
  -25.6370  -28.1850   18.2870 C   0  0  0  0  0  3  0  0  0  0  0  0
  -24.6130  -28.9540   18.8650 C   0  0  0  0  0  3  0  0  0  0  0  0
  -23.8560  -30.5940   20.6820 C   0  0  0  0  0  2  0  0  0  0  0  0
  -25.2850  -30.5310   22.7660 N   0  0  0  0  0  0  0  0  0  0  0  0
  -24.5250  -30.7320   24.8880 O   0  0  0  0  0  0  0  0  0  0  0  0
  -23.1260  -29.1870   22.6340 C   0  0  0  0  0  0  0  0  0  0  0  0
  -21.8000  -29.1930   22.4180 N   0  0  0  0  0  0  0  0  0  0  0  0
  -23.7220  -28.2170   23.1050 O   0  0  0  0  0  0  0  0  0  0  0  0
  -21.4000  -30.0090   21.9790 H   0  0  0  0  0  0  0  0  0  0  0  0
  -18.3910  -28.0530   22.0320 C   0  0  0  0  0  0  0  0  0  0  0  0
  -20.8850  -28.0930   22.7180 C   0  0  0  0  0  3  0  0  0  0  0  0
  -21.0800  -26.9290   21.7240 C   0  0  0  0  0  2  0  0  0  0  0  0
  -20.1430  -27.0140   20.5190 C   0  0  0  0  0  2  0  0  0  0  0  0
  -18.6770  -27.0060   20.9610 C   0  0  0  0  0  2  0  0  0  0  0  0
  -19.4370  -28.5800   22.8340 C   0  0  0  0  0  0  0  0  0  0  0  0
  -19.1390  -29.5990   23.7630 C   0  0  0  0  0  3  0  0  0  0  0  0
  -17.8280  -30.0950   23.8980 C   0  0  0  0  0  3  0  0  0  0  0  0
  -16.7930  -29.5510   23.1230 C   0  0  0  0  0  3  0  0  0  0  0  0
  -17.0700  -28.5250   22.2020 C   0  0  0  0  0  3  0  0  0  0  0  0
  -26.9110  -30.6900   24.7240 C   0  0  0  0  0  3  0  0  0  0  0  0
  -27.2580  -29.4060   25.5780 C   0  0  1  0  0  0  0  0  0  0  0  0
  -26.1880  -29.0600   26.6450 C   0  0  0  0  0  1  0  0  0  0  0  0
  -27.4300  -28.1750   24.6570 C   0  0  0  0  0  1  0  0  0  0  0  0
  -28.6110  -29.6130   26.2960 C   0  0  0  0  0  1  0  0  0  0  0  0
  -26.9930  -31.9010   25.5470 N   0  0  0  0  0  0  0  0  0  0  0  0
  -27.6840  -33.0020   25.2180 C   0  0  0  0  0  0  0  0  0  0  0  0
  -28.3850  -33.0760   24.2060 O   0  0  0  0  0  0  0  0  0  0  0  0
  -26.3880  -31.9260   26.3540 H   0  0  0  0  0  0  0  0  0  0  0  0
  -26.6500  -35.2760   25.5350 C   0  0  0  0  0  1  0  0  0  0  0  0
  -27.5800  -34.2200   26.1590 C   0  0  0  0  0  3  0  0  0  0  0  0
  -29.7330  -33.9760   27.3140 C   0  0  0  0  0  1  0  0  0  0  0  0
  -28.8920  -34.8310   26.4810 N   0  0  0  0  0  0  0  0  0  0  0  0
  -28.7690  -35.7200   26.9610 H   0  0  0  0  0  0  0  0  0  0  0  0
  -28.4020  -20.4810   19.8210 C   0  0  0  0  0  2  0  0  0  0  0  0
  -29.0220  -17.0200   20.6950 C   0  0  0  0  0  2  0  0  0  0  0  0
  -28.0820  -18.2180   20.6870 C   0  0  0  0  0  2  0  0  0  0  0  0
  -29.6820  -18.5390   18.9130 C   0  0  0  0  0  2  0  0  0  0  0  0
  -30.2290  -17.4660   19.8730 C   0  0  0  0  0  3  0  0  0  0  0  0
  -28.4140  -19.0410   19.5020 N   0  0  2  0  0  4  0  0  0  0  0  0
  -27.6740  -18.9310   18.8260 H   0  0  0  0  0  0  0  0  0  0  0  0
  -31.9650  -14.2060   19.6390 C   0  0  0  0  0  0  0  0  0  0  0  0
  -31.5280  -11.8850   19.0000 C   0  0  0  0  0  2  0  0  0  0  0  0
  -30.5730  -11.9640   17.7900 C   0  0  0  0  0  2  0  0  0  0  0  0
  -29.1100  -11.9730   18.2740 C   0  0  0  0  0  2  0  0  0  0  0  0
  -28.8500  -13.0640   19.3460 C   0  0  0  0  0  3  0  0  0  0  0  0
  -29.9290  -12.9650   20.4590 C   0  0  0  0  0  2  0  0  0  0  0  0
  -31.2640  -13.0570   19.8390 N   0  0  0  0  0  0  0  0  0  0  0  0
  -33.0360  -14.2690   19.0380 O   0  0  0  0  0  0  0  0  0  0  0  0
  -30.9380  -16.2960   19.1960 C   0  0  0  0  0  0  0  0  0  0  0  0
  -31.3010  -15.2920   20.0160 N   0  0  0  0  0  0  0  0  0  0  0  0
  -31.0830  -16.3000   17.9670 O   0  0  0  0  0  0  0  0  0  0  0  0
  -30.8380  -15.2290   20.9050 H   0  0  0  0  0  0  0  0  0  0  0  0
  -26.5860  -13.9710   20.1830 C   0  0  0  0  0  0  0  0  0  0  0  0
  -25.4510  -13.3310   20.6070 C   0  0  0  0  0  0  0  0  0  0  0  0
  -25.7330  -11.9350   20.5260 C   0  0  0  0  0  0  0  0  0  0  0  0
  -27.4980  -12.9690   19.8880 N   0  0  0  0  0  0  0  0  0  0  0  0
  -26.9880  -11.7400   20.1490 N   0  0  0  0  0  0  0  0  0  0  0  0
  -24.8640  -10.7680   20.7290 C   0  0  0  0  0  0  0  0  0  0  0  0
  -25.1860   -9.7610   21.6660 C   0  0  0  0  0  3  0  0  0  0  0  0
  -24.3270   -8.6570   21.8540 C   0  0  0  0  0  3  0  0  0  0  0  0
  -23.1330   -8.5520   21.1040 C   0  0  0  0  0  0  0  0  0  0  0  0
  -22.8290   -9.5430   20.1540 C   0  0  0  0  0  3  0  0  0  0  0  0
  -23.6870  -10.6380   19.9630 C   0  0  0  0  0  3  0  0  0  0  0  0
  -22.2500   -7.5040   21.2090 O   0  0  0  0  0  0  0  0  0  0  0  0
  -22.0430   -6.8500   22.3970 C   0  0  0  0  0  0  0  0  0  0  0  0
  -21.6110   -7.5300   23.5570 C   0  0  0  0  0  3  0  0  0  0  0  0
  -21.3450   -6.8070   24.7360 C   0  0  0  0  0  3  0  0  0  0  0  0
  -21.5000   -5.4090   24.7570 C   0  0  0  0  0  0  0  0  0  0  0  0
  -21.9260   -4.7310   23.6020 C   0  0  0  0  0  3  0  0  0  0  0  0
  -22.1950   -5.4490   22.4250 C   0  0  0  0  0  0  0  0  0  0  0  0
  -22.5870   -4.7880   21.3080 F   0  0  0  0  0  0  0  0  0  0  0  0
  -21.2370   -4.7150   25.8880 F   0  0  0  0  0  0  0  0  0  0  0  0
  -24.1420  -13.9690   20.9650 C   0  0  0  0  0  0  0  0  0  0  0  0
  -23.4250  -13.4020   21.9310 N   0  0  0  0  0  0  0  0  0  0  0  0
  -23.7660  -15.0040   20.4200 O   0  0  0  0  0  0  0  0  0  0  0  0
  -23.7430  -12.5630   22.3940 H   0  0  0  0  0  0  0  0  0  0  0  0
  -22.5440  -13.8100   22.2100 H   0  0  0  0  0  0  0  0  0  0  0  0
  -26.8980  -15.3150   19.9860 N   0  0  0  0  0  0  0  0  0  0  0  0
  -26.0710  -15.9010   19.9410 H   0  0  0  0  0  0  0  0  0  0  0  0
  -27.5080  -15.4900   19.1980 H   0  0  0  0  0  0  0  0  0  0  0  0
  1  2  1  0
  3  1  2  0
  4  5  1  0
  5  2  2  0
  5 53  1  0
  6  3  1  0
  6  4  2  0
  7  9  2  0
  8  7  1  0
  8  6  1  0
 10  8  1  0
 11  7  1  0
 11 12  1  0
 12 14  1  0
 13 24  2  0
 14 19  1  0
 15 25  1  0
 15 23  1  0
 16 18  1  0
 16 22  1  0
 17 23  1  0
 18 17  1  0
 19 18  2  0
 20 14  2  0
 20 21  1  0
 21 16  2  0
 22 15  1  0
 23 13  1  0
 25 27  2  0
 26 25  1  0
 28 26  1  0
 29 38  2  0
 29 34  1  0
 30 26  1  0
 30 34  1  0
 31 30  1  0
 32 33  1  0
 32 31  1  0
 33 29  1  0
 34 35  2  0
 35 36  1  0
 37 36  2  0
 38 37  1  0
 39 13  1  0
 39 44  1  0
 39 40  1  0
 40 43  1  1
 40 41  1  0
 42 40  1  0
 44 47  1  0
 45 44  1  0
 45 49  1  0
 46 45  2  0
 49 48  1  0
 49 51  1  0
 51 52  1  0
 51 50  1  0
 55 54  1  0
 56 58  1  0
 56 57  1  0
 57 68  1  0
 57 54  1  0
 58 53  1  0
 58 55  1  0
 58 59  1  6
 60 66  1  0
 60 69  1  0
 61 66  1  0
 62 63  1  0
 62 61  1  0
 64 63  1  0
 64 75  1  0
 64 65  1  0
 66 65  1  0
 67 60  2  0
 68 69  1  0
 69 71  1  0
 70 68  2  0
 72 73  2  0
 73 92  1  0
 74 73  1  0
 74 77  1  0
 75 76  1  0
 75 72  1  0
 76 74  2  0
 77 78  1  0
 78 79  2  0
 80 83  1  0
 80 79  1  0
 81 80  2  0
 82 81  1  0
 82 77  2  0
 83 84  1  0
 84 89  2  0
 84 85  1  0
 85 86  2  0
 86 87  1  0
 87 91  1  0
 88 87  2  0
 89 88  1  0
 90 89  1  0
 92 93  1  0
 93 96  1  0
 93 95  1  0
 94 92  2  0
 97 72  1  0
 98 97  1  0
 99 97  1  0
M  ISO  4  11 101  12 101  60 100  69 100
M  END
>  <TORSDO>  (13) 
F 20

>  <SCORE>  (13) 
-9.766

>  <name>  (13) 
12

>  <ligand_id>  (13) 
12

>  <original_smiles>  (13) 
[H]c1c([H])c([H])c2c(c1[H])C([H])([H])C([H])([H])C([H])([H])C2([H])N([H])C(=O)C1([H])N(C(=O)C([H])(N([H])C(=O)C([H])(N([H])C([H])([H])[H])C([H])([H])[H])C(C([H])([H])[H])(C([H])([H])[H])C([H])([H])[H])C([H])([H])c2c([H])c(OC([H])([H])C(=O)N([H])c3c([H])c([H])c([H])c(C([H])([H])[N+]4([H])C([H])([H])C([H])([H])C([H])(C(=O)N([H])C(=O)N5C([H])([H])C([H])([H])C([H])([H])C([H])(n6nc(-c7c([H])c([H])c(Oc8c([H])c([H])c(F)c([H])c8F)c([H])c7[H])c(C(=O)N([H])[H])c6N([H])[H])C5([H])[H])C4([H])[H])c3[H])c([H])c([H])c2C1([H])[H]

>  <smiles>  (13) 
[H]c1c([H])c([H])c2c(c1[H])C([H])([H])C([H])([H])C([H])([H])C2([H])N([H])C(=O)C1([H])N(C(=O)C([H])(N([H])C(=O)C([H])(N([H])C([H])([H])[H])C([H])([H])[H])C(C([H])([H])[H])(C([H])([H])[H])C([H])([H])[H])C([H])([H])c2c([H])c(OC([H])([H])C(=O)N([H])c3c([H])c([H])c([H])c(C([H])([H])[N+]4([H])C([H])([H])C([H])([H])C([H])(C(=O)N([H])C(=O)N5C([H])([H])C([H])([H])C([H])([H])C([H])(n6nc(-c7c([H])c([H])c(Oc8c([H])c([H])c(F)c([H])c8F)c([H])c7[H])c(C(=O)N([H])[H])c6N([H])[H])C5([H])[H])C4([H])[H])c3[H])c([H])c([H])c2C1([H])[H]

$$$$
13:0:0
     RDKit          3D

 93101  0  0  1  0  0  0  0  0999 V2000
  -29.0010  -23.3780   20.2790 C   0  0  0  0  0  3  0  0  0  0  0  0
  -28.8450  -21.8670   19.5830 C   0  0  0  0  0  0  0  0  0  0  0  0
  -28.1900  -18.9770   20.6090 C   0  0  0  0  0  2  0  0  0  0  0  0
  -28.8410  -20.1380   21.3730 C   0  0  0  0  0  2  0  0  0  0  0  0
  -29.2620  -19.1250   19.5230 C   0  0  0  0  0  3  0  0  0  0  0  0
  -29.4320  -20.5880   20.1100 N   0  0  0  0  0  0  0  0  0  0  0  0
  -28.2420  -21.8110   18.5120 O   0  0  0  0  0  0  0  0  0  0  0  0
  -30.8720  -15.2670   19.6990 C   0  0  0  0  0  0  0  0  0  0  0  0
  -30.7600  -12.8270   18.9800 C   0  0  0  0  0  2  0  0  0  0  0  0
  -29.7870  -12.6650   17.7910 C   0  0  0  0  0  2  0  0  0  0  0  0
  -28.3360  -12.4850   18.2770 C   0  0  0  0  0  2  0  0  0  0  0  0
  -27.9650  -13.4670   19.4180 C   0  0  0  0  0  3  0  0  0  0  0  0
  -29.0680  -13.6000   20.4880 C   0  0  0  0  0  2  0  0  0  0  0  0
  -30.2950  -13.9930   19.7850 N   0  0  0  0  0  0  0  0  0  0  0  0
  -32.0690  -15.2850   19.3790 O   0  0  0  0  0  0  0  0  0  0  0  0
  -30.3680  -17.8610   19.6180 C   0  0  0  0  0  0  0  0  0  0  0  0
  -30.0740  -16.4610   19.7700 N   0  0  0  0  0  0  0  0  0  0  0  0
  -31.5430  -18.2230   19.5200 O   0  0  0  0  0  0  0  0  0  0  0  0
  -29.0980  -16.2760   19.9310 H   0  0  0  0  0  0  0  0  0  0  0  0
  -25.6920  -14.0880   20.3800 C   0  0  0  0  0  0  0  0  0  0  0  0
  -24.6300  -13.3410   20.8110 C   0  0  0  0  0  0  0  0  0  0  0  0
  -25.0290  -11.9740   20.6760 C   0  0  0  0  0  0  0  0  0  0  0  0
  -26.6650  -13.1810   20.0070 N   0  0  0  0  0  0  0  0  0  0  0  0
  -26.2850  -11.9000   20.2470 N   0  0  0  0  0  0  0  0  0  0  0  0
  -24.2680  -10.7340   20.8720 C   0  0  0  0  0  0  0  0  0  0  0  0
  -24.6750   -9.7480   21.7980 C   0  0  0  0  0  3  0  0  0  0  0  0
  -23.9120   -8.5730   21.9740 C   0  0  0  0  0  3  0  0  0  0  0  0
  -22.7260   -8.3790   21.2290 C   0  0  0  0  0  0  0  0  0  0  0  0
  -22.3380   -9.3510   20.2910 C   0  0  0  0  0  3  0  0  0  0  0  0
  -23.1030  -10.5150   20.1130 C   0  0  0  0  0  3  0  0  0  0  0  0
  -21.9400   -7.2550   21.3170 O   0  0  0  0  0  0  0  0  0  0  0  0
  -21.7990   -6.5640   22.4940 C   0  0  0  0  0  0  0  0  0  0  0  0
  -21.2760   -7.1730   23.6570 C   0  0  0  0  0  3  0  0  0  0  0  0
  -21.0820   -6.4080   24.8250 C   0  0  0  0  0  3  0  0  0  0  0  0
  -21.4020   -5.0350   24.8310 C   0  0  0  0  0  0  0  0  0  0  0  0
  -21.9160   -4.4280   23.6720 C   0  0  0  0  0  3  0  0  0  0  0  0
  -22.1070   -5.1880   22.5070 C   0  0  0  0  0  0  0  0  0  0  0  0
  -22.5820   -4.5920   21.3850 F   0  0  0  0  0  0  0  0  0  0  0  0
  -21.2060   -4.3000   25.9510 F   0  0  0  0  0  0  0  0  0  0  0  0
  -23.2850  -13.8660   21.2170 C   0  0  0  0  0  0  0  0  0  0  0  0
  -22.5920  -13.1580   22.1050 N   0  0  0  0  0  0  0  0  0  0  0  0
  -22.8570  -14.9330   20.7770 O   0  0  0  0  0  0  0  0  0  0  0  0
  -22.9640  -12.3060   22.4950 H   0  0  0  0  0  0  0  0  0  0  0  0
  -21.6820  -13.4790   22.4040 H   0  0  0  0  0  0  0  0  0  0  0  0
  -25.9150  -15.4510   20.2320 N   0  0  0  0  0  0  0  0  0  0  0  0
  -25.1620  -16.1230   20.3280 H   0  0  0  0  0  0  0  0  0  0  0  0
  -26.7000  -15.8020   19.6990 H   0  0  0  0  0  0  0  0  0  0  0  0
  -30.4300  -23.7290   20.2030 N   0  0  0  0  0  4  0  0  0  0  0  0
  -30.1940  -24.4280   20.8880 H   0  0  0  0  0  0  0  0  0  0  0  0
  -30.5010  -22.7270   20.3000 H   0  0  0  0  0  0  0  0  0  0  0  0
  -31.1810  -23.5950   20.8590 H   0  0  0  0  0  0  0  0  0  0  0  0
  -28.0800  -24.7490   19.8590 C   0  0  0  0  0  2  0  0  0  0  0  0
  -28.3030  -26.2700   20.2150 O   0  0  0  0  0  0  0  0  0  0  0  0
  -24.5850  -31.8990   23.1700 C   0  0  0  0  0  0  0  0  0  0  0  0
  -27.2540  -27.2650   20.1050 C   0  0  0  0  0  0  0  0  0  0  0  0
  -23.4220  -30.5200   21.4900 C   0  0  0  0  0  3  0  0  0  0  0  0
  -24.9110  -29.0000   20.0460 C   0  0  0  0  0  0  0  0  0  0  0  0
  -25.9780  -30.8240   21.3660 C   0  0  0  0  0  2  0  0  0  0  0  0
  -26.0780  -29.4480   20.6790 C   0  0  0  0  0  0  0  0  0  0  0  0
  -27.2510  -28.6000   20.6880 C   0  0  0  0  0  3  0  0  0  0  0  0
  -26.0670  -26.9290   19.4190 C   0  0  0  0  0  3  0  0  0  0  0  0
  -24.9220  -27.7570   19.3970 C   0  0  0  0  0  3  0  0  0  0  0  0
  -23.6700  -29.8760   20.0990 C   0  0  0  0  0  2  0  0  0  0  0  0
  -24.6790  -31.1050   22.0620 N   0  0  0  0  0  0  0  0  0  0  0  0
  -23.4880  -32.1590   23.6890 O   0  0  0  0  0  0  0  0  0  0  0  0
  -22.7480  -29.4830   22.4260 C   0  0  0  0  0  0  0  0  0  0  0  0
  -21.4270  -29.2790   22.2700 N   0  0  0  0  0  0  0  0  0  0  0  0
  -23.4200  -28.8670   23.2550 O   0  0  0  0  0  0  0  0  0  0  0  0
  -20.9440  -29.8250   21.5710 H   0  0  0  0  0  0  0  0  0  0  0  0
  -18.0570  -28.0220   22.7170 C   0  0  0  0  0  0  0  0  0  0  0  0
  -20.6100  -28.3170   23.0160 C   0  0  0  0  0  3  0  0  0  0  0  0
  -20.7390  -26.8970   22.4170 C   0  0  0  0  0  2  0  0  0  0  0  0
  -19.6530  -26.5800   21.3850 C   0  0  0  0  0  2  0  0  0  0  0  0
  -18.2630  -26.6900   22.0160 C   0  0  0  0  0  2  0  0  0  0  0  0
  -19.1600  -28.7930   23.1730 C   0  0  0  0  0  0  0  0  0  0  0  0
  -18.9130  -30.0400   23.7910 C   0  0  0  0  0  3  0  0  0  0  0  0
  -17.5990  -30.5130   23.9560 C   0  0  0  0  0  3  0  0  0  0  0  0
  -16.5120  -29.7400   23.5160 C   0  0  0  0  0  3  0  0  0  0  0  0
  -16.7420  -28.4950   22.9030 C   0  0  0  0  0  3  0  0  0  0  0  0
  -25.8450  -32.5410   23.8230 C   0  0  0  0  0  3  0  0  0  0  0  0
  -26.3400  -31.7680   25.1080 C   0  0  1  0  0  0  0  0  0  0  0  0
  -25.2240  -31.5060   26.1460 C   0  0  0  0  0  1  0  0  0  0  0  0
  -26.9560  -30.4000   24.7330 C   0  0  0  0  0  1  0  0  0  0  0  0
  -27.4620  -32.5780   25.7990 C   0  0  0  0  0  1  0  0  0  0  0  0
  -25.5140  -33.9350   24.1550 N   0  0  0  0  0  0  0  0  0  0  0  0
  -25.8280  -34.9970   23.4030 C   0  0  0  0  0  0  0  0  0  0  0  0
  -26.4920  -34.9080   22.3670 O   0  0  0  0  0  0  0  0  0  0  0  0
  -24.9130  -34.0760   24.9540 H   0  0  0  0  0  0  0  0  0  0  0  0
  -24.0750  -36.7750   23.0760 C   0  0  0  0  0  1  0  0  0  0  0  0
  -25.3290  -36.3780   23.8720 C   0  0  0  0  0  3  0  0  0  0  0  0
  -27.4520  -37.2990   24.6990 C   0  0  0  0  0  1  0  0  0  0  0  0
  -26.3480  -37.4450   23.7530 N   0  0  0  0  0  0  0  0  0  0  0  0
  -25.9300  -38.3620   23.8880 H   0  0  0  0  0  0  0  0  0  0  0  0
  1 52  1  0
  2  6  1  0
  2  1  1  0
  3  4  1  0
  5 16  1  0
  5  6  1  0
  5  3  1  0
  6  4  1  0
  7  2  2  0
  8 17  1  0
  8 14  1  0
  9 14  1  0
 10 11  1  0
 10  9  1  0
 12 11  1  0
 12 23  1  0
 12 13  1  0
 14 13  1  0
 15  8  2  0
 16 17  1  0
 17 19  1  0
 18 16  2  0
 20 21  2  0
 21 40  1  0
 22 21  1  0
 22 25  1  0
 23 24  1  0
 23 20  1  0
 24 22  2  0
 25 26  1  0
 26 27  2  0
 28 31  1  0
 28 27  1  0
 29 28  2  0
 30 29  1  0
 30 25  2  0
 31 32  1  0
 32 37  2  0
 32 33  1  0
 33 34  2  0
 34 35  1  0
 35 39  1  0
 36 35  2  0
 37 36  1  0
 38 37  1  0
 40 41  1  0
 41 44  1  0
 41 43  1  0
 42 40  2  0
 45 46  1  0
 45 20  1  0
 47 45  1  0
 48  1  1  0
 48 50  1  0
 48 51  1  0
 48 49  1  0
 52 53  1  0
 54 65  2  0
 55 53  1  0
 55 60  1  0
 56 64  1  0
 56 66  1  0
 57 63  1  0
 57 59  1  0
 58 64  1  0
 59 60  2  0
 59 58  1  0
 61 55  2  0
 62 61  1  0
 62 57  2  0
 63 56  1  0
 64 54  1  0
 66 68  2  0
 67 66  1  0
 69 67  1  0
 70 79  2  0
 70 75  1  0
 71 67  1  0
 71 75  1  0
 72 71  1  0
 73 74  1  0
 73 72  1  0
 74 70  1  0
 75 76  2  0
 76 77  1  0
 78 77  2  0
 79 78  1  0
 80 54  1  0
 80 85  1  0
 80 81  1  0
 81 84  1  1
 81 82  1  0
 83 81  1  0
 85 88  1  0
 86 90  1  0
 86 85  1  0
 87 86  2  0
 90 89  1  0
 92 90  1  0
 92 93  1  0
 92 91  1  0
M  ISO  4   8 100  17 100  52 101  53 101
M  END
>  <TORSDO>  (14) 
F 19

>  <SCORE>  (14) 
-14.162

>  <name>  (14) 
13

>  <ligand_id>  (14) 
13

>  <original_smiles>  (14) 
[H]c1c([H])c([H])c2c(c1[H])C([H])([H])C([H])([H])C([H])([H])C2([H])N([H])C(=O)C1([H])N(C(=O)C([H])(N([H])C(=O)C([H])(N([H])C([H])([H])[H])C([H])([H])[H])C(C([H])([H])[H])(C([H])([H])[H])C([H])([H])[H])C([H])([H])c2c([H])c(OC([H])([H])C([H])(C(=O)N3C([H])([H])C([H])([H])C3([H])C(=O)N([H])C(=O)N3C([H])([H])C([H])([H])C([H])([H])C([H])(n4nc(-c5c([H])c([H])c(Oc6c([H])c([H])c(F)c([H])c6F)c([H])c5[H])c(C(=O)N([H])[H])c4N([H])[H])C3([H])[H])[N+]([H])([H])[H])c([H])c([H])c2C1([H])[H]

>  <smiles>  (14) 
[H]c1c([H])c([H])c2c(c1[H])C([H])([H])C([H])([H])C([H])([H])C2([H])N([H])C(=O)C1([H])N(C(=O)C([H])(N([H])C(=O)C([H])(N([H])C([H])([H])[H])C([H])([H])[H])C(C([H])([H])[H])(C([H])([H])[H])C([H])([H])[H])C([H])([H])c2c([H])c(OC([H])([H])C([H])(C(=O)N3C([H])([H])C([H])([H])C3([H])C(=O)N([H])C(=O)N3C([H])([H])C([H])([H])C([H])([H])C([H])(n4nc(-c5c([H])c([H])c(Oc6c([H])c([H])c(F)c([H])c6F)c([H])c5[H])c(C(=O)N([H])[H])c4N([H])[H])C3([H])[H])[N+]([H])([H])[H])c([H])c([H])c2C1([H])[H]

$$$$
14:0:0
     RDKit          3D

103112  0  0  1  0  0  0  0  0999 V2000
  -28.5230  -20.8610   19.7960 C   0  0  0  0  0  0  0  0  0  0  0  0
  -28.3260  -20.0050   22.0970 C   0  0  0  0  0  1  0  0  0  0  0  0
  -28.7820  -19.8730   20.7050 N   0  0  0  0  0  0  0  0  0  0  0  0
  -28.7190  -20.7090   18.5850 O   0  0  0  0  0  0  0  0  0  0  0  0
  -26.5890  -22.5610   20.0520 C   0  0  0  0  0  2  0  0  0  0  0  0
  -27.0260  -23.4910   18.9250 C   0  0  0  0  0  2  0  0  0  0  0  0
  -28.0670  -22.2680   20.2980 C   0  0  0  0  0  3  0  0  0  0  0  0
  -28.4190  -23.3830   19.3870 N   0  0  2  0  0  4  0  0  0  0  0  0
  -29.0290  -22.9930   18.6790 H   0  0  0  0  0  0  0  0  0  0  0  0
  -28.9680  -24.6300   20.0280 C   0  0  0  0  0  2  0  0  0  0  0  0
  -29.3730  -25.7650   19.0300 C   0  0  0  0  0  2  0  0  0  0  0  0
  -29.2040  -27.1200   19.5300 O   0  0  0  0  0  0  0  0  0  0  0  0
  -24.7370  -31.4610   23.0320 C   0  0  0  0  0  0  0  0  0  0  0  0
  -27.9440  -27.7000   19.5590 C   0  0  0  0  0  0  0  0  0  0  0  0
  -23.7370  -30.0860   21.2390 C   0  0  0  0  0  3  0  0  0  0  0  0
  -25.3830  -28.9110   19.6900 C   0  0  0  0  0  0  0  0  0  0  0  0
  -26.2010  -30.7810   21.1290 C   0  0  0  0  0  2  0  0  0  0  0  0
  -26.4640  -29.5070   20.3460 C   0  0  0  0  0  0  0  0  0  0  0  0
  -27.7470  -28.9080   20.2780 C   0  0  0  0  0  3  0  0  0  0  0  0
  -26.8320  -27.1300   18.8970 C   0  0  0  0  0  3  0  0  0  0  0  0
  -25.5610  -27.7250   18.9620 C   0  0  0  0  0  3  0  0  0  0  0  0
  -24.0400  -29.5920   19.8020 C   0  0  0  0  0  2  0  0  0  0  0  0
  -24.9070  -30.7880   21.8590 N   0  0  0  0  0  0  0  0  0  0  0  0
  -23.6270  -31.5320   23.5770 O   0  0  0  0  0  0  0  0  0  0  0  0
  -23.2250  -28.8940   22.0830 C   0  0  0  0  0  0  0  0  0  0  0  0
  -21.9430  -28.5340   21.9000 N   0  0  0  0  0  0  0  0  0  0  0  0
  -23.9790  -28.2980   22.8560 O   0  0  0  0  0  0  0  0  0  0  0  0
  -21.3870  -29.0750   21.2550 H   0  0  0  0  0  0  0  0  0  0  0  0
  -18.7810  -26.8040   22.1780 C   0  0  0  0  0  0  0  0  0  0  0  0
  -21.2640  -27.4180   22.5590 C   0  0  0  0  0  3  0  0  0  0  0  0
  -21.5940  -26.0750   21.8660 C   0  0  0  0  0  2  0  0  0  0  0  0
  -20.5750  -25.6840   20.7900 C   0  0  0  0  0  2  0  0  0  0  0  0
  -19.1740  -25.5610   21.3970 C   0  0  0  0  0  2  0  0  0  0  0  0
  -19.7610  -27.6820   22.7090 C   0  0  0  0  0  0  0  0  0  0  0  0
  -19.3400  -28.8420   23.3970 C   0  0  0  0  0  3  0  0  0  0  0  0
  -17.9700  -29.1250   23.5600 C   0  0  0  0  0  3  0  0  0  0  0  0
  -17.0050  -28.2440   23.0470 C   0  0  0  0  0  3  0  0  0  0  0  0
  -17.4100  -27.0850   22.3600 C   0  0  0  0  0  3  0  0  0  0  0  0
  -25.9230  -32.1970   23.7280 C   0  0  0  0  0  3  0  0  0  0  0  0
  -25.4610  -33.5420   24.0960 N   0  0  0  0  0  0  0  0  0  0  0  0
  -25.7030  -34.6500   23.3840 C   0  0  0  0  0  0  0  0  0  0  0  0
  -26.4080  -34.6550   22.3710 O   0  0  0  0  0  0  0  0  0  0  0  0
  -24.8420  -33.6100   24.8910 H   0  0  0  0  0  0  0  0  0  0  0  0
  -23.7980  -36.2550   23.0380 C   0  0  0  0  0  1  0  0  0  0  0  0
  -25.0560  -35.9610   23.8700 C   0  0  0  0  0  3  0  0  0  0  0  0
  -27.0550  -37.0460   24.7920 C   0  0  0  0  0  1  0  0  0  0  0  0
  -25.9690  -37.1230   23.8200 N   0  0  0  0  0  0  0  0  0  0  0  0
  -25.4600  -37.9860   23.9830 H   0  0  0  0  0  0  0  0  0  0  0  0
  -26.4750  -31.4310   24.9940 C   0  0  1  0  0  0  0  0  0  0  0  0
  -25.3750  -31.0370   26.0080 C   0  0  0  0  0  1  0  0  0  0  0  0
  -27.2160  -30.1380   24.5760 C   0  0  0  0  0  1  0  0  0  0  0  0
  -27.5120  -32.3130   25.7310 C   0  0  0  0  0  1  0  0  0  0  0  0
  -29.4390  -18.5620   20.3980 C   0  0  0  0  0  2  0  0  0  0  0  0
  -32.0630  -17.5370   17.7970 C   0  0  0  0  0  3  0  0  0  0  0  0
  -32.7300  -18.7460   17.5730 C   0  0  0  0  0  3  0  0  0  0  0  0
  -31.6220  -19.7020   19.5180 C   0  0  0  0  0  0  0  0  0  0  0  0
  -30.7750  -18.5420   19.6080 C   0  0  0  0  0  0  0  0  0  0  0  0
  -31.1580  -17.3600   18.8790 C   0  0  0  0  0  0  0  0  0  0  0  0
  -32.5660  -19.8020   18.4720 C   0  0  0  0  0  0  0  0  0  0  0  0
  -33.3320  -20.9090   18.3150 F   0  0  0  0  0  0  0  0  0  0  0  0
  -31.3510  -14.8470   19.1450 C   0  0  0  0  0  0  0  0  0  0  0  0
  -30.9980  -12.4800   18.5650 C   0  0  0  0  0  2  0  0  0  0  0  0
  -29.9670  -12.4020   17.4240 C   0  0  0  0  0  2  0  0  0  0  0  0
  -28.5470  -12.3110   18.0140 C   0  0  0  0  0  2  0  0  0  0  0  0
  -28.2740  -13.3900   19.1000 C   0  0  0  0  0  3  0  0  0  0  0  0
  -29.4340  -13.4950   20.1140 C   0  0  0  0  0  2  0  0  0  0  0  0
  -30.6720  -13.6830   19.3520 N   0  0  0  0  0  0  0  0  0  0  0  0
  -32.5050  -14.8080   18.7230 O   0  0  0  0  0  0  0  0  0  0  0  0
  -30.6600  -16.0270   19.2080 N   0  0  0  0  0  0  0  0  0  0  0  0
  -29.7330  -15.9600   19.5950 H   0  0  0  0  0  0  0  0  0  0  0  0
  -26.0660  -14.1020   20.1960 C   0  0  0  0  0  0  0  0  0  0  0  0
  -25.0060  -13.3810   20.6750 C   0  0  0  0  0  0  0  0  0  0  0  0
  -25.3510  -12.0050   20.5010 C   0  0  0  0  0  0  0  0  0  0  0  0
  -26.9930  -13.1690   19.7640 N   0  0  0  0  0  0  0  0  0  0  0  0
  -26.5770  -11.8980   20.0060 N   0  0  0  0  0  0  0  0  0  0  0  0
  -24.5610  -10.7860   20.7220 C   0  0  0  0  0  0  0  0  0  0  0  0
  -24.9570   -9.8110   21.6650 C   0  0  0  0  0  3  0  0  0  0  0  0
  -24.1700   -8.6580   21.8740 C   0  0  0  0  0  3  0  0  0  0  0  0
  -22.9760   -8.4700   21.1390 C   0  0  0  0  0  0  0  0  0  0  0  0
  -22.5980   -9.4340   20.1880 C   0  0  0  0  0  3  0  0  0  0  0  0
  -23.3840  -10.5790   19.9780 C   0  0  0  0  0  3  0  0  0  0  0  0
  -22.1620   -7.3690   21.2580 O   0  0  0  0  0  0  0  0  0  0  0  0
  -21.9680   -6.7430   22.4640 C   0  0  0  0  0  0  0  0  0  0  0  0
  -21.4170   -7.4190   23.5750 C   0  0  0  0  0  3  0  0  0  0  0  0
  -21.1690   -6.7200   24.7730 C   0  0  0  0  0  3  0  0  0  0  0  0
  -21.4620   -5.3470   24.8600 C   0  0  0  0  0  0  0  0  0  0  0  0
  -22.0070   -4.6700   23.7550 C   0  0  0  0  0  3  0  0  0  0  0  0
  -22.2550   -5.3650   22.5590 C   0  0  0  0  0  0  0  0  0  0  0  0
  -22.7600   -4.7040   21.4890 F   0  0  0  0  0  0  0  0  0  0  0  0
  -21.2180   -4.6740   26.0090 F   0  0  0  0  0  0  0  0  0  0  0  0
  -23.7040  -13.9360   21.1740 C   0  0  0  0  0  0  0  0  0  0  0  0
  -23.0600  -13.2460   22.1100 N   0  0  0  0  0  0  0  0  0  0  0  0
  -23.2720  -15.0120   20.7690 O   0  0  0  0  0  0  0  0  0  0  0  0
  -23.4260  -12.3710   22.4580 H   0  0  0  0  0  0  0  0  0  0  0  0
  -22.1910  -13.5990   22.4840 H   0  0  0  0  0  0  0  0  0  0  0  0
  -26.3110  -15.4660   20.0720 N   0  0  0  0  0  0  0  0  0  0  0  0
  -25.6030  -16.1560   20.2960 H   0  0  0  0  0  0  0  0  0  0  0  0
  -27.1050  -15.8600   19.5850 H   0  0  0  0  0  0  0  0  0  0  0  0
  -31.5730  -20.8420   20.5010 C   0  0  0  0  0  0  0  0  0  0  0  0
  -31.9210  -20.5400   21.7440 N   0  0  0  0  0  0  0  0  0  0  0  0
  -31.2160  -21.9750   20.1790 O   0  0  0  0  0  0  0  0  0  0  0  0
  -32.2240  -19.6050   21.9720 H   0  0  0  0  0  0  0  0  0  0  0  0
  -31.9530  -21.2590   22.4510 H   0  0  0  0  0  0  0  0  0  0  0  0
  1  3  1  0
  3  2  1  0
  4  1  2  0
  5  7  1  0
  6  8  1  0
  6  5  1  0
  7  1  1  0
  8 10  1  0
  8  7  1  0
  8  9  1  6
 11 12  1  0
 11 10  1  0
 12 14  1  0
 13 24  2  0
 14 19  1  0
 15 23  1  0
 15 25  1  0
 16 22  1  0
 16 18  1  0
 17 23  1  0
 18 17  1  0
 19 18  2  0
 20 21  1  0
 20 14  2  0
 21 16  2  0
 22 15  1  0
 23 13  1  0
 25 27  2  0
 26 25  1  0
 28 26  1  0
 29 38  2  0
 29 34  1  0
 30 26  1  0
 30 34  1  0
 31 30  1  0
 32 33  1  0
 32 31  1  0
 33 29  1  0
 34 35  2  0
 35 36  1  0
 37 36  2  0
 38 37  1  0
 39 13  1  0
 39 40  1  0
 39 49  1  0
 40 43  1  0
 41 45  1  0
 41 40  1  0
 42 41  2  0
 45 44  1  0
 47 45  1  0
 47 48  1  0
 47 46  1  0
 49 52  1  1
 49 50  1  0
 51 49  1  0
 53  3  1  0
 54 58  1  0
 55 54  2  0
 55 59  1  0
 56 57  1  0
 56 99  1  0
 57 53  1  0
 58 69  1  0
 58 57  2  0
 59 56  2  0
 60 59  1  0
 61 69  1  0
 61 67  1  0
 62 67  1  0
 63 64  1  0
 63 62  1  0
 65 64  1  0
 65 74  1  0
 65 66  1  0
 67 66  1  0
 68 61  2  0
 69 70  1  0
 71 72  2  0
 72 91  1  0
 73 72  1  0
 73 76  1  0
 74 75  1  0
 74 71  1  0
 75 73  2  0
 76 77  1  0
 77 78  2  0
 79 82  1  0
 79 78  1  0
 80 79  2  0
 81 80  1  0
 81 76  2  0
 82 83  1  0
 83 88  2  0
 83 84  1  0
 84 85  2  0
 85 86  1  0
 86 90  1  0
 87 86  2  0
 88 87  1  0
 89 88  1  0
 91 92  1  0
 92 94  1  0
 92 95  1  0
 93 91  2  0
 96 71  1  0
 96 97  1  0
 98 96  1  0
 99100  1  0
100102  1  0
100103  1  0
101 99  2  0
M  ISO  4  11 101  12 101  61 100  69 100
M  END
>  <TORSDO>  (15) 
F 22

>  <SCORE>  (15) 
-8.443

>  <name>  (15) 
14

>  <ligand_id>  (15) 
14

>  <original_smiles>  (15) 
[H]c1c([H])c([H])c2c(c1[H])C([H])([H])C([H])([H])C([H])([H])C2([H])N([H])C(=O)C1([H])N(C(=O)C([H])(N([H])C(=O)C([H])(N([H])C([H])([H])[H])C([H])([H])[H])C(C([H])([H])[H])(C([H])([H])[H])C([H])([H])[H])C([H])([H])c2c([H])c(OC([H])([H])C([H])([H])[N+]3([H])C([H])([H])C([H])([H])C3([H])C(=O)N(C([H])([H])[H])C([H])([H])c3c(C(=O)N([H])[H])c(F)c([H])c([H])c3N([H])C(=O)N3C([H])([H])C([H])([H])C([H])([H])C([H])(n4nc(-c5c([H])c([H])c(Oc6c([H])c([H])c(F)c([H])c6F)c([H])c5[H])c(C(=O)N([H])[H])c4N([H])[H])C3([H])[H])c([H])c([H])c2C1([H])[H]

>  <smiles>  (15) 
[H]c1c([H])c([H])c2c(c1[H])C([H])([H])C([H])([H])C([H])([H])C2([H])N([H])C(=O)C1([H])N(C(=O)C([H])(N([H])C(=O)C([H])(N([H])C([H])([H])[H])C([H])([H])[H])C(C([H])([H])[H])(C([H])([H])[H])C([H])([H])[H])C([H])([H])c2c([H])c(OC([H])([H])C([H])([H])[N+]3([H])C([H])([H])C([H])([H])C3([H])C(=O)N(C([H])([H])[H])C([H])([H])c3c(C(=O)N([H])[H])c(F)c([H])c([H])c3N([H])C(=O)N3C([H])([H])C([H])([H])C([H])([H])C([H])(n4nc(-c5c([H])c([H])c(Oc6c([H])c([H])c(F)c([H])c6F)c([H])c5[H])c(C(=O)N([H])[H])c4N([H])[H])C3([H])[H])c([H])c([H])c2C1([H])[H]

$$$$
15:0:0
     RDKit          3D

104112  0  0  1  0  0  0  0  0999 V2000
  -30.0640  -16.9230   18.7060 C   0  0  0  0  0  3  0  0  0  0  0  0
  -30.0270  -18.2440   18.2230 C   0  0  0  0  0  3  0  0  0  0  0  0
  -30.5680  -17.7750   20.9200 C   0  0  0  0  0  3  0  0  0  0  0  0
  -30.5270  -19.1230   20.4580 C   0  0  0  0  0  0  0  0  0  0  0  0
  -30.3440  -16.6650   20.0660 C   0  0  0  0  0  0  0  0  0  0  0  0
  -30.2370  -19.3530   19.0770 C   0  0  0  0  0  0  0  0  0  0  0  0
  -30.9800  -14.2640   20.0260 C   0  0  0  0  0  0  0  0  0  0  0  0
  -30.5110  -12.2140   18.7610 C   0  0  0  0  0  2  0  0  0  0  0  0
  -29.4420  -12.5380   17.6970 C   0  0  0  0  0  2  0  0  0  0  0  0
  -28.0210  -12.3760   18.2790 C   0  0  0  0  0  2  0  0  0  0  0  0
  -27.8440  -13.0900   19.6510 C   0  0  0  0  0  3  0  0  0  0  0  0
  -29.0170  -12.7620   20.5980 C   0  0  0  0  0  2  0  0  0  0  0  0
  -30.2750  -13.1030   19.9110 N   0  0  0  0  0  0  0  0  0  0  0  0
  -32.0810  -14.4240   19.4970 O   0  0  0  0  0  0  0  0  0  0  0  0
  -30.3290  -15.3180   20.5770 N   0  0  0  0  0  0  0  0  0  0  0  0
  -29.5740  -15.0910   21.2060 H   0  0  0  0  0  0  0  0  0  0  0  0
  -25.6280  -13.6450   20.8480 C   0  0  0  0  0  0  0  0  0  0  0  0
  -24.5520  -12.8710   21.1890 C   0  0  0  0  0  0  0  0  0  0  0  0
  -24.8790  -11.5430   20.7730 C   0  0  0  0  0  0  0  0  0  0  0  0
  -26.5470  -12.7890   20.2570 N   0  0  0  0  0  0  0  0  0  0  0  0
  -26.1060  -11.5070   20.2690 N   0  0  0  0  0  0  0  0  0  0  0  0
  -24.0730  -10.3170   20.7710 C   0  0  0  0  0  0  0  0  0  0  0  0
  -24.5760   -9.1030   21.2880 C   0  0  0  0  0  3  0  0  0  0  0  0
  -23.7780   -7.9380   21.2910 C   0  0  0  0  0  3  0  0  0  0  0  0
  -22.4580   -7.9810   20.7810 C   0  0  0  0  0  0  0  0  0  0  0  0
  -21.9700   -9.1870   20.2430 C   0  0  0  0  0  3  0  0  0  0  0  0
  -22.7690  -10.3420   20.2390 C   0  0  0  0  0  3  0  0  0  0  0  0
  -21.6150   -6.8970   20.7220 O   0  0  0  0  0  0  0  0  0  0  0  0
  -21.7690   -5.8220   21.5610 C   0  0  0  0  0  0  0  0  0  0  0  0
  -21.7700   -5.9670   22.9640 C   0  0  0  0  0  3  0  0  0  0  0  0
  -21.8560   -4.8280   23.7870 C   0  0  0  0  0  3  0  0  0  0  0  0
  -21.9300   -3.5470   23.2110 C   0  0  0  0  0  0  0  0  0  0  0  0
  -21.9210   -3.4010   21.8140 C   0  0  0  0  0  3  0  0  0  0  0  0
  -21.8370   -4.5360   20.9910 C   0  0  0  0  0  0  0  0  0  0  0  0
  -21.8050   -4.3910   19.6430 F   0  0  0  0  0  0  0  0  0  0  0  0
  -22.0040   -2.4490   24.0020 F   0  0  0  0  0  0  0  0  0  0  0  0
  -23.2540  -13.3440   21.7760 C   0  0  0  0  0  0  0  0  0  0  0  0
  -22.5940  -12.5080   22.5680 N   0  0  0  0  0  0  0  0  0  0  0  0
  -22.8420  -14.4880   21.5750 O   0  0  0  0  0  0  0  0  0  0  0  0
  -22.9510  -11.5860   22.7680 H   0  0  0  0  0  0  0  0  0  0  0  0
  -21.7160  -12.7950   22.9790 H   0  0  0  0  0  0  0  0  0  0  0  0
  -25.8960  -15.0060   20.9780 N   0  0  0  0  0  0  0  0  0  0  0  0
  -25.2190  -15.6570   21.3620 H   0  0  0  0  0  0  0  0  0  0  0  0
  -26.7430  -15.4600   20.6550 H   0  0  0  0  0  0  0  0  0  0  0  0
  -31.0400  -20.8950   17.3690 C   0  0  0  0  0  1  0  0  0  0  0  0
  -30.1700  -20.6370   18.5130 N   0  0  0  0  0  0  0  0  0  0  0  0
  -28.9820  -21.4590   18.7750 C   0  0  0  0  0  2  0  0  0  0  0  0
  -27.7620  -21.2050   17.8690 C   0  0  0  0  0  2  0  0  0  0  0  0
  -26.8500  -23.4150   17.2470 C   0  0  0  0  0  1  0  0  0  0  0  0
  -25.3400  -21.7340   18.2130 C   0  0  0  0  0  1  0  0  0  0  0  0
  -26.7310  -22.2410   18.1410 N   0  0  1  0  0  4  0  0  0  0  0  0
  -26.9190  -22.5860   19.0670 H   0  0  0  0  0  0  0  0  0  0  0  0
  -30.8430  -20.2210   21.5130 C   0  0  0  0  0  2  0  0  0  0  0  0
  -30.0870  -22.5940   21.9050 C   0  0  0  0  0  0  0  0  0  0  0  0
  -30.7010  -21.6520   21.1610 N   0  0  0  0  0  0  0  0  0  0  0  0
  -29.6030  -22.3170   23.0030 O   0  0  0  0  0  0  0  0  0  0  0  0
  -31.0330  -21.8900   20.2360 H   0  0  0  0  0  0  0  0  0  0  0  0
  -29.9850  -24.0510   21.3780 C   0  0  0  0  0  3  0  0  0  0  0  0
  -31.2150  -24.5020   20.6820 N   0  0  0  0  0  4  0  0  0  0  0  0
  -32.0240  -24.3920   21.2710 H   0  0  0  0  0  0  0  0  0  0  0  0
  -31.1320  -25.4810   20.4550 H   0  0  0  0  0  0  0  0  0  0  0  0
  -31.3710  -24.0040   19.8250 H   0  0  0  0  0  0  0  0  0  0  0  0
  -29.5890  -25.0470   22.5010 C   0  0  0  0  0  2  0  0  0  0  0  0
  -29.1130  -26.2960   21.9730 O   0  0  0  0  0  0  0  0  0  0  0  0
  -27.9380  -31.8480   26.2670 C   0  0  0  0  0  0  0  0  0  0  0  0
  -28.2250  -26.9600   22.7900 C   0  0  0  0  0  0  0  0  0  0  0  0
  -26.2340  -30.0620   26.3250 C   0  0  0  0  0  3  0  0  0  0  0  0
  -26.4060  -28.3050   24.4820 C   0  0  0  0  0  0  0  0  0  0  0  0
  -27.6100  -30.4800   24.2120 C   0  0  0  0  0  2  0  0  0  0  0  0
  -27.4670  -29.0050   23.9000 C   0  0  0  0  0  0  0  0  0  0  0  0
  -28.3730  -28.3440   23.0410 C   0  0  0  0  0  3  0  0  0  0  0  0
  -27.1400  -26.2710   23.3730 C   0  0  0  0  0  3  0  0  0  0  0  0
  -26.2310  -26.9340   24.2180 C   0  0  0  0  0  3  0  0  0  0  0  0
  -25.4750  -29.0960   25.3780 C   0  0  0  0  0  2  0  0  0  0  0  0
  -27.3090  -30.8290   25.6190 N   0  0  0  0  0  0  0  0  0  0  0  0
  -27.6050  -32.1820   27.4130 O   0  0  0  0  0  0  0  0  0  0  0  0
  -26.7430  -29.2530   27.5390 C   0  0  0  0  0  0  0  0  0  0  0  0
  -25.8480  -29.0030   28.5090 N   0  0  0  0  0  0  0  0  0  0  0  0
  -27.9070  -28.8440   27.5840 O   0  0  0  0  0  0  0  0  0  0  0  0
  -24.9140  -29.3730   28.3990 H   0  0  0  0  0  0  0  0  0  0  0  0
  -24.3510  -27.8960   31.6030 C   0  0  0  0  0  0  0  0  0  0  0  0
  -26.0970  -28.2370   29.7280 C   0  0  0  0  0  3  0  0  0  0  0  0
  -25.9600  -26.7200   29.4630 C   0  0  0  0  0  2  0  0  0  0  0  0
  -24.5550  -26.1820   29.7550 C   0  0  0  0  0  2  0  0  0  0  0  0
  -24.1730  -26.4390   31.2150 C   0  0  0  0  0  2  0  0  0  0  0  0
  -25.2430  -28.7440   30.8960 C   0  0  0  0  0  0  0  0  0  0  0  0
  -25.3480  -30.1000   31.2770 C   0  0  0  0  0  3  0  0  0  0  0  0
  -24.5850  -30.6040   32.3470 C   0  0  0  0  0  3  0  0  0  0  0  0
  -23.7120  -29.7570   33.0520 C   0  0  0  0  0  3  0  0  0  0  0  0
  -23.6000  -28.4050   32.6820 C   0  0  0  0  0  3  0  0  0  0  0  0
  -29.0880  -32.6610   25.5990 C   0  0  0  0  0  3  0  0  0  0  0  0
  -30.5110  -32.3410   26.2070 C   0  0  1  0  0  0  0  0  0  0  0  0
  -30.5670  -32.4480   27.7470 C   0  0  0  0  0  1  0  0  0  0  0  0
  -30.9700  -30.9160   25.8170 C   0  0  0  0  0  1  0  0  0  0  0  0
  -31.5570  -33.3220   25.6240 C   0  0  0  0  0  1  0  0  0  0  0  0
  -28.7610  -34.0850   25.7510 N   0  0  0  0  0  0  0  0  0  0  0  0
  -28.2370  -34.8530   24.7840 C   0  0  0  0  0  0  0  0  0  0  0  0
  -28.0430  -34.4460   23.6360 O   0  0  0  0  0  0  0  0  0  0  0  0
  -28.8250  -34.4680   26.6830 H   0  0  0  0  0  0  0  0  0  0  0  0
  -26.3660  -36.4110   25.4190 C   0  0  0  0  0  1  0  0  0  0  0  0
  -27.8770  -36.3060   25.1480 C   0  0  0  0  0  3  0  0  0  0  0  0
  -29.7040  -37.4410   23.9650 C   0  0  0  0  0  1  0  0  0  0  0  0
  -28.2590  -37.2850   24.1110 N   0  0  0  0  0  0  0  0  0  0  0  0
  -27.8630  -38.2010   24.3140 H   0  0  0  0  0  0  0  0  0  0  0  0
  1  5  1  0
  2  1  2  0
  2  6  1  0
  4  3  1  0
  4 53  1  0
  5 15  1  0
  5  3  2  0
  6  4  2  0
  7 15  1  0
  8 13  1  0
  9 10  1  0
  9  8  1  0
 11 10  1  0
 11 20  1  0
 11 12  1  0
 13  7  1  0
 13 12  1  0
 14  7  2  0
 15 16  1  0
 17 42  1  0
 17 18  2  0
 18 37  1  0
 19 18  1  0
 20 21  1  0
 20 17  1  0
 21 19  2  0
 22 19  1  0
 22 23  1  0
 23 24  2  0
 25 24  1  0
 26 25  2  0
 27 26  1  0
 27 22  2  0
 28 25  1  0
 28 29  1  0
 29 30  1  0
 30 31  2  0
 32 31  1  0
 32 36  1  0
 33 32  2  0
 34 29  2  0
 34 33  1  0
 35 34  1  0
 37 38  1  0
 38 40  1  0
 38 41  1  0
 39 37  2  0
 42 43  1  0
 44 42  1  0
 45 46  1  0
 46 47  1  0
 46  6  1  0
 48 51  1  0
 48 47  1  0
 49 51  1  0
 51 50  1  0
 51 52  1  1
 54 56  2  0
 55 53  1  0
 55 54  1  0
 57 55  1  0
 58 54  1  0
 58 63  1  0
 59 60  1  0
 59 58  1  0
 61 59  1  0
 62 59  1  0
 64 63  1  0
 64 66  1  0
 65 76  2  0
 66 71  2  0
 66 72  1  0
 67 77  1  0
 68 74  1  0
 69 75  1  0
 70 69  1  0
 70 68  2  0
 71 70  1  0
 72 73  2  0
 73 68  1  0
 74 67  1  0
 75 65  1  0
 75 67  1  0
 77 79  2  0
 77 78  1  0
 80 78  1  0
 81 90  1  0
 82 78  1  0
 82 86  1  0
 83 82  1  0
 83 84  1  0
 84 85  1  0
 85 81  1  0
 86 87  1  0
 86 81  2  0
 87 88  2  0
 88 89  1  0
 90 89  2  0
 91 96  1  0
 91 92  1  0
 91 65  1  0
 92 93  1  1
 94 92  1  0
 95 92  1  0
 96 99  1  0
 97101  1  0
 97 96  1  0
 98 97  2  0
101100  1  0
102103  1  0
103104  1  0
103101  1  0
M  ISO  4   7 100  15 100  63 101  64 101
M  END
>  <TORSDO>  (16) 
F 25

>  <SCORE>  (16) 
-7.669

>  <name>  (16) 
15

>  <ligand_id>  (16) 
15

>  <original_smiles>  (16) 
[H]c1c([H])c([H])c2c(c1[H])C([H])([H])C([H])([H])C([H])([H])C2([H])N([H])C(=O)C1([H])N(C(=O)C([H])(N([H])C(=O)C([H])(N([H])C([H])([H])[H])C([H])([H])[H])C(C([H])([H])[H])(C([H])([H])[H])C([H])([H])[H])C([H])([H])c2c([H])c(OC([H])([H])C([H])(C(=O)N([H])C([H])([H])c3c([H])c(N([H])C(=O)N4C([H])([H])C([H])([H])C([H])([H])C([H])(n5nc(-c6c([H])c([H])c(Oc7c([H])c([H])c(F)c([H])c7F)c([H])c6[H])c(C(=O)N([H])[H])c5N([H])[H])C4([H])[H])c([H])c([H])c3N(C([H])([H])[H])C([H])([H])C([H])([H])[N+]([H])(C([H])([H])[H])C([H])([H])[H])[N+]([H])([H])[H])c([H])c([H])c2C1([H])[H]

>  <smiles>  (16) 
[H]c1c([H])c([H])c2c(c1[H])C([H])([H])C([H])([H])C([H])([H])C2([H])N([H])C(=O)C1([H])N(C(=O)C([H])(N([H])C(=O)C([H])(N([H])C([H])([H])[H])C([H])([H])[H])C(C([H])([H])[H])(C([H])([H])[H])C([H])([H])[H])C([H])([H])c2c([H])c(OC([H])([H])C([H])(C(=O)N([H])C([H])([H])c3c([H])c(N([H])C(=O)N4C([H])([H])C([H])([H])C([H])([H])C([H])(n5nc(-c6c([H])c([H])c(Oc7c([H])c([H])c(F)c([H])c7F)c([H])c6[H])c(C(=O)N([H])[H])c5N([H])[H])C4([H])[H])c([H])c([H])c3N(C([H])([H])[H])C([H])([H])C([H])([H])[N+]([H])(C([H])([H])[H])C([H])([H])[H])[N+]([H])([H])[H])c([H])c([H])c2C1([H])[H]

$$$$
16:0:0
     RDKit          3D

 97105  0  0  1  0  0  0  0  0999 V2000
  -28.9300  -23.4690   19.9330 C   0  0  0  0  0  0  0  0  0  0  0  0
  -29.4920  -23.5700   18.7190 N   0  0  0  0  0  4  0  0  0  0  0  0
  -28.9350  -22.2020   20.5970 N   0  0  0  0  0  0  0  0  0  0  0  0
  -29.5320  -24.4670   18.2570 H   0  0  0  0  0  0  0  0  0  0  0  0
  -29.8930  -22.7770   18.2430 H   0  0  0  0  0  0  0  0  0  0  0  0
  -28.3240  -22.2780   21.4030 H   0  0  0  0  0  0  0  0  0  0  0  0
  -30.7870  -18.6550   19.8350 C   0  0  0  0  0  3  0  0  0  0  0  0
  -30.5430  -20.1040   19.8700 C   0  0  0  0  0  3  0  0  0  0  0  0
  -28.6030  -18.2850   20.6490 C   0  0  0  0  0  3  0  0  0  0  0  0
  -29.8230  -17.6560   20.2340 C   0  0  0  0  0  0  0  0  0  0  0  0
  -29.3060  -20.7050   20.3100 C   0  0  0  0  0  0  0  0  0  0  0  0
  -28.3590  -19.7090   20.6970 C   0  0  0  0  0  0  0  0  0  0  0  0
  -27.1630  -20.1370   21.1720 F   0  0  0  0  0  0  0  0  0  0  0  0
  -30.7300  -15.0440   19.8640 C   0  0  0  0  0  0  0  0  0  0  0  0
  -30.5690  -12.7280   18.8440 C   0  0  0  0  0  2  0  0  0  0  0  0
  -29.5360  -12.7480   17.6900 C   0  0  0  0  0  2  0  0  0  0  0  0
  -28.1060  -12.5330   18.2240 C   0  0  0  0  0  2  0  0  0  0  0  0
  -27.8040  -13.4070   19.4680 C   0  0  0  0  0  3  0  0  0  0  0  0
  -28.9420  -13.3350   20.5090 C   0  0  0  0  0  2  0  0  0  0  0  0
  -30.1740  -13.7680   19.8330 N   0  0  0  0  0  0  0  0  0  0  0  0
  -31.8830  -15.1890   19.4380 O   0  0  0  0  0  0  0  0  0  0  0  0
  -29.8920  -16.1220   20.2400 N   0  0  0  0  0  0  0  0  0  0  0  0
  -29.0420  -15.7220   20.6060 H   0  0  0  0  0  0  0  0  0  0  0  0
  -25.4900  -13.9800   20.4100 C   0  0  0  0  0  0  0  0  0  0  0  0
  -24.4490  -13.1990   20.8300 C   0  0  0  0  0  0  0  0  0  0  0  0
  -24.8920  -11.8470   20.7030 C   0  0  0  0  0  0  0  0  0  0  0  0
  -26.5010  -13.1030   20.0510 N   0  0  0  0  0  0  0  0  0  0  0  0
  -26.1540  -11.8120   20.2910 N   0  0  0  0  0  0  0  0  0  0  0  0
  -24.1660  -10.5840   20.8950 C   0  0  0  0  0  0  0  0  0  0  0  0
  -24.5850   -9.6290   21.8460 C   0  0  0  0  0  3  0  0  0  0  0  0
  -23.8600   -8.4310   22.0240 C   0  0  0  0  0  3  0  0  0  0  0  0
  -22.7010   -8.1810   21.2510 C   0  0  0  0  0  0  0  0  0  0  0  0
  -22.3020   -9.1250   20.2900 C   0  0  0  0  0  3  0  0  0  0  0  0
  -23.0280  -10.3140   20.1100 C   0  0  0  0  0  3  0  0  0  0  0  0
  -21.9480   -7.0350   21.3390 O   0  0  0  0  0  0  0  0  0  0  0  0
  -21.7750   -6.3760   22.5300 C   0  0  0  0  0  0  0  0  0  0  0  0
  -21.2020   -7.0070   23.6540 C   0  0  0  0  0  3  0  0  0  0  0  0
  -20.9800   -6.2730   24.8370 C   0  0  0  0  0  3  0  0  0  0  0  0
  -21.3200   -4.9090   24.8930 C   0  0  0  0  0  0  0  0  0  0  0  0
  -21.8870   -4.2770   23.7730 C   0  0  0  0  0  3  0  0  0  0  0  0
  -22.1110   -5.0080   22.5930 C   0  0  0  0  0  0  0  0  0  0  0  0
  -22.6370   -4.3890   21.5090 F   0  0  0  0  0  0  0  0  0  0  0  0
  -21.1000   -4.2010   26.0260 F   0  0  0  0  0  0  0  0  0  0  0  0
  -23.0820  -13.6770   21.2290 C   0  0  0  0  0  0  0  0  0  0  0  0
  -22.4190  -12.9550   22.1250 N   0  0  0  0  0  0  0  0  0  0  0  0
  -22.6160  -14.7230   20.7810 O   0  0  0  0  0  0  0  0  0  0  0  0
  -22.8120  -12.1080   22.5070 H   0  0  0  0  0  0  0  0  0  0  0  0
  -21.5050  -13.2560   22.4340 H   0  0  0  0  0  0  0  0  0  0  0  0
  -25.6560  -15.3560   20.2760 N   0  0  0  0  0  0  0  0  0  0  0  0
  -24.8940  -16.0010   20.4560 H   0  0  0  0  0  0  0  0  0  0  0  0
  -26.4460  -15.7960   19.8260 H   0  0  0  0  0  0  0  0  0  0  0  0
  -28.3230  -24.8620   20.5780 C   0  0  0  0  0  3  0  0  0  0  0  0
  -26.9920  -24.5320   21.3130 C   0  0  2  0  0  0  0  0  0  0  0  0
  -26.5600  -25.5440   22.0680 F   0  0  0  0  0  0  0  0  0  0  0  0
  -27.1980  -23.5030   22.1390 F   0  0  0  0  0  0  0  0  0  0  0  0
  -26.0450  -24.1760   20.4470 F   0  0  0  0  0  0  0  0  0  0  0  0
  -28.3850  -26.2730   19.9050 O   0  0  0  0  0  0  0  0  0  0  0  0
  -24.5260  -31.7200   23.0520 C   0  0  0  0  0  0  0  0  0  0  0  0
  -27.2950  -27.2130   19.9090 C   0  0  0  0  0  0  0  0  0  0  0  0
  -23.3920  -30.3410   21.3510 C   0  0  0  0  0  3  0  0  0  0  0  0
  -24.9100  -28.8660   19.8950 C   0  0  0  0  0  0  0  0  0  0  0  0
  -25.9350  -30.7000   21.2290 C   0  0  0  0  0  2  0  0  0  0  0  0
  -26.0630  -29.3350   20.5370 C   0  0  0  0  0  0  0  0  0  0  0  0
  -27.2580  -28.5230   20.5300 C   0  0  0  0  0  3  0  0  0  0  0  0
  -26.1240  -26.8540   19.2100 C   0  0  0  0  0  3  0  0  0  0  0  0
  -24.9510  -27.6390   19.2150 C   0  0  0  0  0  3  0  0  0  0  0  0
  -23.6520  -29.7180   19.9540 C   0  0  0  0  0  2  0  0  0  0  0  0
  -24.6360  -30.9410   21.9340 N   0  0  0  0  0  0  0  0  0  0  0  0
  -23.4260  -31.9500   23.5760 O   0  0  0  0  0  0  0  0  0  0  0  0
  -22.7370  -29.2810   22.2710 C   0  0  0  0  0  0  0  0  0  0  0  0
  -21.4110  -29.0970   22.1460 N   0  0  0  0  0  0  0  0  0  0  0  0
  -23.4240  -28.6270   23.0600 O   0  0  0  0  0  0  0  0  0  0  0  0
  -20.9120  -29.6770   21.4850 H   0  0  0  0  0  0  0  0  0  0  0  0
  -18.0420  -27.8730   22.6660 C   0  0  0  0  0  0  0  0  0  0  0  0
  -20.6080  -28.1150   22.8790 C   0  0  0  0  0  3  0  0  0  0  0  0
  -20.6910  -26.7210   22.2140 C   0  0  0  0  0  2  0  0  0  0  0  0
  -19.5600  -26.4630   21.2110 C   0  0  0  0  0  2  0  0  0  0  0  0
  -18.1970  -26.5680   21.9000 C   0  0  0  0  0  2  0  0  0  0  0  0
  -19.1730  -28.6050   23.1110 C   0  0  0  0  0  0  0  0  0  0  0  0
  -18.9720  -29.8270   23.7890 C   0  0  0  0  0  3  0  0  0  0  0  0
  -17.6730  -30.3160   24.0240 C   0  0  0  0  0  3  0  0  0  0  0  0
  -16.5570  -29.5790   23.5930 C   0  0  0  0  0  3  0  0  0  0  0  0
  -16.7410  -28.3590   22.9190 C   0  0  0  0  0  3  0  0  0  0  0  0
  -25.7750  -32.3740   23.7160 C   0  0  0  0  0  3  0  0  0  0  0  0
  -26.2970  -31.5770   24.9760 C   0  0  1  0  0  0  0  0  0  0  0  0
  -25.1960  -31.2680   26.0160 C   0  0  0  0  0  1  0  0  0  0  0  0
  -26.9330  -30.2330   24.5520 C   0  0  0  0  0  1  0  0  0  0  0  0
  -27.4090  -32.3870   25.6830 C   0  0  0  0  0  1  0  0  0  0  0  0
  -25.4140  -33.7500   24.0940 N   0  0  0  0  0  0  0  0  0  0  0  0
  -25.7210  -34.8430   23.3840 C   0  0  0  0  0  0  0  0  0  0  0  0
  -26.4060  -34.8020   22.3580 O   0  0  0  0  0  0  0  0  0  0  0  0
  -24.8040  -33.8520   24.8920 H   0  0  0  0  0  0  0  0  0  0  0  0
  -23.9370  -36.5940   23.0860 C   0  0  0  0  0  1  0  0  0  0  0  0
  -25.1860  -36.1980   23.8900 C   0  0  0  0  0  3  0  0  0  0  0  0
  -27.2810  -37.1240   24.7760 C   0  0  0  0  0  1  0  0  0  0  0  0
  -26.1840  -37.2880   23.8250 N   0  0  0  0  0  0  0  0  0  0  0  0
  -25.7460  -38.1890   23.9970 H   0  0  0  0  0  0  0  0  0  0  0  0
  1 52  1  0
  1  3  1  0
  2  1  2  0
  3  6  1  0
  4  2  1  0
  5  2  1  0
  7  8  2  0
  7 10  1  0
  8 11  1  0
  9 12  1  0
 10 22  1  0
 10  9  2  0
 11  3  1  0
 11 12  2  0
 12 13  1  0
 14 22  1  0
 15 20  1  0
 16 17  1  0
 16 15  1  0
 18 17  1  0
 18 27  1  0
 18 19  1  0
 20 14  1  0
 20 19  1  0
 21 14  2  0
 22 23  1  0
 24 25  2  0
 25 44  1  0
 26 25  1  0
 26 29  1  0
 27 28  1  0
 27 24  1  0
 28 26  2  0
 29 30  1  0
 30 31  2  0
 32 35  1  0
 32 31  1  0
 33 32  2  0
 34 33  1  0
 34 29  2  0
 35 36  1  0
 36 41  2  0
 36 37  1  0
 37 38  2  0
 38 39  1  0
 39 43  1  0
 40 39  2  0
 41 40  1  0
 42 41  1  0
 44 45  1  0
 45 48  1  0
 45 47  1  0
 46 44  2  0
 49 24  1  0
 49 50  1  0
 51 49  1  0
 52 57  1  0
 52 53  1  0
 53 54  1  1
 53 55  1  0
 56 53  1  0
 57 59  1  0
 58 69  2  0
 59 64  1  0
 60 68  1  0
 60 70  1  0
 61 67  1  0
 61 63  1  0
 62 68  1  0
 63 62  1  0
 64 63  2  0
 65 66  1  0
 65 59  2  0
 66 61  2  0
 67 60  1  0
 68 58  1  0
 70 72  2  0
 71 70  1  0
 73 71  1  0
 74 83  2  0
 74 79  1  0
 75 71  1  0
 75 79  1  0
 76 75  1  0
 77 78  1  0
 77 76  1  0
 78 74  1  0
 79 80  2  0
 80 81  1  0
 82 81  2  0
 83 82  1  0
 84 58  1  0
 84 89  1  0
 84 85  1  0
 85 88  1  1
 85 86  1  0
 87 85  1  0
 89 92  1  0
 90 94  1  0
 90 89  1  0
 91 90  2  0
 94 93  1  0
 96 94  1  0
 96 97  1  0
 96 95  1  0
M  ISO  4  14 100  22 100  52 101  57 101
M  END
>  <TORSDO>  (17) 
F 19

>  <SCORE>  (17) 
-13.018

>  <name>  (17) 
16

>  <ligand_id>  (17) 
16

>  <original_smiles>  (17) 
[H]c1c([H])c([H])c2c(c1[H])C([H])([H])C([H])([H])C([H])([H])C2([H])N([H])C(=O)C1([H])N(C(=O)C([H])(N([H])C(=O)C([H])(N([H])C([H])([H])[H])C([H])([H])[H])C(C([H])([H])[H])(C([H])([H])[H])C([H])([H])[H])C([H])([H])c2c([H])c(OC([H])(C(N([H])[H])=[N+]([H])c3c([H])c([H])c(N([H])C(=O)N4C([H])([H])C([H])([H])C([H])([H])C([H])(n5nc(-c6c([H])c([H])c(Oc7c([H])c([H])c(F)c([H])c7F)c([H])c6[H])c(C(=O)N([H])[H])c5N([H])[H])C4([H])[H])c([H])c3F)C(F)(F)F)c([H])c([H])c2C1([H])[H]

>  <smiles>  (17) 
[H]c1c([H])c([H])c2c(c1[H])C([H])([H])C([H])([H])C([H])([H])C2([H])N([H])C(=O)C1([H])N(C(=O)C([H])(N([H])C(=O)C([H])(N([H])C([H])([H])[H])C([H])([H])[H])C(C([H])([H])[H])(C([H])([H])[H])C([H])([H])[H])C([H])([H])c2c([H])c(OC([H])(C(N([H])[H])=[N+]([H])c3c([H])c([H])c(N([H])C(=O)N4C([H])([H])C([H])([H])C([H])([H])C([H])(n5nc(-c6c([H])c([H])c(Oc7c([H])c([H])c(F)c([H])c7F)c([H])c6[H])c(C(=O)N([H])[H])c5N([H])[H])C4([H])[H])c([H])c3F)C(F)(F)F)c([H])c([H])c2C1([H])[H]

$$$$
17:0:0
     RDKit          3D

 94103  0  0  1  0  0  0  0  0999 V2000
  -28.0740  -20.2160   20.6830 C   0  0  0  0  0  2  0  0  0  0  0  0
  -29.1020  -19.7350   19.6980 C   0  0  0  0  0  3  0  0  0  0  0  0
  -28.9440  -21.3180   20.0920 C   0  0  0  0  0  3  0  0  0  0  0  0
  -31.7730  -17.0350   21.0590 C   0  0  0  0  0  3  0  0  0  0  0  0
  -32.7520  -17.9590   21.4430 C   0  0  0  0  0  3  0  0  0  0  0  0
  -31.4060  -19.7080   20.4800 C   0  0  0  0  0  3  0  0  0  0  0  0
  -30.3240  -18.8390   20.1670 C   0  0  0  0  0  0  0  0  0  0  0  0
  -30.5890  -17.3810   20.3410 C   0  0  0  0  0  0  0  0  0  0  0  0
  -32.5860  -19.2990   21.1080 C   0  0  0  0  0  0  0  0  0  0  0  0
  -33.5470  -20.2030   21.4140 F   0  0  0  0  0  0  0  0  0  0  0  0
  -30.4540  -14.9480   19.5540 C   0  0  0  0  0  0  0  0  0  0  0  0
  -30.1200  -12.6420   18.6430 C   0  0  0  0  0  2  0  0  0  0  0  0
  -29.0490  -12.6300   17.5340 C   0  0  0  0  0  2  0  0  0  0  0  0
  -27.6540  -12.4270   18.1530 C   0  0  0  0  0  2  0  0  0  0  0  0
  -27.3970  -13.3600   19.3660 C   0  0  0  0  0  3  0  0  0  0  0  0
  -28.5860  -13.3870   20.3530 C   0  0  0  0  0  2  0  0  0  0  0  0
  -29.7810  -13.7420   19.5790 N   0  0  0  0  0  0  0  0  0  0  0  0
  -31.5690  -14.9810   19.0300 O   0  0  0  0  0  0  0  0  0  0  0  0
  -29.8490  -16.1560   19.9270 N   0  0  0  0  0  0  0  0  0  0  0  0
  -28.8530  -16.1450   20.0820 H   0  0  0  0  0  0  0  0  0  0  0  0
  -25.1520  -13.9140   20.4680 C   0  0  0  0  0  0  0  0  0  0  0  0
  -24.1370  -13.1260   20.9350 C   0  0  0  0  0  0  0  0  0  0  0  0
  -24.5680  -11.7750   20.7530 C   0  0  0  0  0  0  0  0  0  0  0  0
  -26.1370  -13.0460   20.0300 N   0  0  0  0  0  0  0  0  0  0  0  0
  -25.8020  -11.7490   20.2630 N   0  0  0  0  0  0  0  0  0  0  0  0
  -23.8540  -10.5090   20.9620 C   0  0  0  0  0  0  0  0  0  0  0  0
  -24.3390   -9.5250   21.8520 C   0  0  0  0  0  3  0  0  0  0  0  0
  -23.6230   -8.3240   22.0510 C   0  0  0  0  0  3  0  0  0  0  0  0
  -22.4080   -8.0990   21.3600 C   0  0  0  0  0  0  0  0  0  0  0  0
  -21.9420   -9.0710   20.4590 C   0  0  0  0  0  3  0  0  0  0  0  0
  -22.6580  -10.2630   20.2580 C   0  0  0  0  0  3  0  0  0  0  0  0
  -21.6600   -6.9530   21.4720 O   0  0  0  0  0  0  0  0  0  0  0  0
  -21.6170   -6.2310   22.6380 C   0  0  0  0  0  0  0  0  0  0  0  0
  -21.1400   -6.7910   23.8440 C   0  0  0  0  0  3  0  0  0  0  0  0
  -21.0480   -5.9950   25.0030 C   0  0  0  0  0  3  0  0  0  0  0  0
  -21.4210   -4.6380   24.9570 C   0  0  0  0  0  0  0  0  0  0  0  0
  -21.8890   -4.0770   23.7560 C   0  0  0  0  0  3  0  0  0  0  0  0
  -21.9830   -4.8710   22.5990 C   0  0  0  0  0  0  0  0  0  0  0  0
  -22.4160   -4.3200   21.4390 F   0  0  0  0  0  0  0  0  0  0  0  0
  -21.3250   -3.8700   26.0670 F   0  0  0  0  0  0  0  0  0  0  0  0
  -22.8000  -13.5950   21.4300 C   0  0  0  0  0  0  0  0  0  0  0  0
  -22.1860  -12.8490   22.3410 N   0  0  0  0  0  0  0  0  0  0  0  0
  -22.3130  -14.6570   21.0440 O   0  0  0  0  0  0  0  0  0  0  0  0
  -22.5950  -11.9890   22.6750 H   0  0  0  0  0  0  0  0  0  0  0  0
  -21.2940  -13.1450   22.7130 H   0  0  0  0  0  0  0  0  0  0  0  0
  -25.3120  -15.2920   20.3550 N   0  0  0  0  0  0  0  0  0  0  0  0
  -24.5760  -15.9450   20.6060 H   0  0  0  0  0  0  0  0  0  0  0  0
  -26.1110  -15.7430   19.9280 H   0  0  0  0  0  0  0  0  0  0  0  0
  -28.4370  -23.8420   19.6930 C   0  0  0  0  0  0  0  0  0  0  0  0
  -27.2560  -22.1090   18.3930 C   0  0  0  0  0  1  0  0  0  0  0  0
  -28.2150  -22.4760   19.4380 N   0  0  0  0  0  0  0  0  0  0  0  0
  -29.4030  -24.1960   20.3780 O   0  0  0  0  0  0  0  0  0  0  0  0
  -27.4250  -24.9970   19.2060 C   0  0  0  0  0  2  0  0  0  0  0  0
  -27.7470  -26.4620   19.4430 O   0  0  0  0  0  0  0  0  0  0  0  0
  -24.4860  -31.8630   23.0860 C   0  0  0  0  0  0  0  0  0  0  0  0
  -26.6830  -27.4020   19.5190 C   0  0  0  0  0  0  0  0  0  0  0  0
  -23.1020  -30.5770   21.4960 C   0  0  0  0  0  3  0  0  0  0  0  0
  -24.3750  -29.0980   19.8400 C   0  0  0  0  0  0  0  0  0  0  0  0
  -25.6240  -30.8510   21.0890 C   0  0  0  0  0  2  0  0  0  0  0  0
  -25.6110  -29.5100   20.3550 C   0  0  0  0  0  0  0  0  0  0  0  0
  -26.7640  -28.6720   20.1920 C   0  0  0  0  0  3  0  0  0  0  0  0
  -25.4250  -27.0870   18.9510 C   0  0  0  0  0  3  0  0  0  0  0  0
  -24.2880  -27.8950   19.1250 C   0  0  0  0  0  3  0  0  0  0  0  0
  -23.1670  -29.9860   20.0640 C   0  0  0  0  0  2  0  0  0  0  0  0
  -24.4290  -31.1140   21.9450 N   0  0  0  0  0  0  0  0  0  0  0  0
  -23.4640  -32.1250   23.7380 O   0  0  0  0  0  0  0  0  0  0  0  0
  -22.5190  -29.5160   22.4590 C   0  0  0  0  0  0  0  0  0  0  0  0
  -21.2040  -29.2540   22.3480 N   0  0  0  0  0  0  0  0  0  0  0  0
  -23.2450  -28.9330   23.2690 O   0  0  0  0  0  0  0  0  0  0  0  0
  -20.6750  -29.7840   21.6690 H   0  0  0  0  0  0  0  0  0  0  0  0
  -17.9530  -27.7160   22.7710 C   0  0  0  0  0  0  0  0  0  0  0  0
  -20.4560  -28.2600   23.1210 C   0  0  0  0  0  3  0  0  0  0  0  0
  -20.7330  -26.8290   22.6050 C   0  0  0  0  0  2  0  0  0  0  0  0
  -19.7140  -26.3530   21.5660 C   0  0  0  0  0  2  0  0  0  0  0  0
  -18.2990  -26.3710   22.1530 C   0  0  0  0  0  2  0  0  0  0  0  0
  -18.9660  -28.6090   23.2100 C   0  0  0  0  0  0  0  0  0  0  0  0
  -18.5920  -29.8590   23.7470 C   0  0  0  0  0  3  0  0  0  0  0  0
  -17.2360  -30.2230   23.8470 C   0  0  0  0  0  3  0  0  0  0  0  0
  -16.2360  -29.3290   23.4240 C   0  0  0  0  0  3  0  0  0  0  0  0
  -16.5950  -28.0770   22.8920 C   0  0  0  0  0  3  0  0  0  0  0  0
  -25.8330  -32.4440   23.6120 C   0  0  0  0  0  3  0  0  0  0  0  0
  -26.4570  -31.5970   24.7900 C   0  0  1  0  0  0  0  0  0  0  0  0
  -25.4580  -31.2860   25.9300 C   0  0  0  0  0  1  0  0  0  0  0  0
  -27.0060  -30.2510   24.2650 C   0  0  0  0  0  1  0  0  0  0  0  0
  -27.6610  -32.3560   25.3990 C   0  0  0  0  0  1  0  0  0  0  0  0
  -25.5820  -33.8240   24.0490 N   0  0  0  0  0  0  0  0  0  0  0  0
  -25.8650  -34.9180   23.3300 C   0  0  0  0  0  0  0  0  0  0  0  0
  -26.4400  -34.8680   22.2390 O   0  0  0  0  0  0  0  0  0  0  0  0
  -25.0620  -33.9370   24.9080 H   0  0  0  0  0  0  0  0  0  0  0  0
  -24.1520  -36.7590   23.2400 C   0  0  0  0  0  1  0  0  0  0  0  0
  -25.4500  -36.2820   23.9120 C   0  0  0  0  0  3  0  0  0  0  0  0
  -27.6620  -37.0850   24.6160 C   0  0  0  0  0  1  0  0  0  0  0  0
  -26.4910  -37.3240   23.7750 N   0  0  0  0  0  0  0  0  0  0  0  0
  -26.1170  -38.2410   24.0070 H   0  0  0  0  0  0  0  0  0  0  0  0
  2  3  1  0
  2  7  1  0
  2  1  1  0
  3 51  1  0
  3  1  1  0
  4  5  1  0
  6  9  1  0
  7  8  1  0
  7  6  2  0
  8  4  2  0
  9 10  1  0
  9  5  2  0
 11 17  1  0
 11 19  1  0
 12 17  1  0
 13 14  1  0
 13 12  1  0
 15 14  1  0
 15 24  1  0
 15 16  1  0
 17 16  1  0
 18 11  2  0
 19 20  1  0
 19  8  1  0
 21 22  2  0
 22 41  1  0
 23 22  1  0
 23 26  1  0
 24 25  1  0
 24 21  1  0
 25 23  2  0
 26 27  1  0
 27 28  2  0
 29 32  1  0
 29 28  1  0
 30 29  2  0
 31 30  1  0
 31 26  2  0
 32 33  1  0
 33 34  1  0
 34 35  2  0
 36 35  1  0
 36 40  1  0
 37 36  2  0
 38 33  2  0
 38 37  1  0
 39 38  1  0
 41 42  1  0
 42 44  1  0
 42 45  1  0
 43 41  2  0
 46 21  1  0
 46 47  1  0
 48 46  1  0
 49 52  2  0
 50 51  1  0
 51 49  1  0
 53 54  1  0
 53 49  1  0
 54 56  1  0
 55 66  2  0
 56 61  1  0
 57 65  1  0
 57 67  1  0
 58 64  1  0
 58 60  1  0
 59 65  1  0
 60 59  1  0
 61 60  2  0
 62 63  1  0
 62 56  2  0
 63 58  2  0
 64 57  1  0
 65 55  1  0
 67 69  2  0
 68 67  1  0
 70 68  1  0
 71 80  2  0
 71 76  1  0
 72 68  1  0
 72 76  1  0
 73 72  1  0
 74 75  1  0
 74 73  1  0
 75 71  1  0
 76 77  2  0
 77 78  1  0
 79 78  2  0
 80 79  1  0
 81 55  1  0
 81 86  1  0
 81 82  1  0
 82 85  1  1
 82 83  1  0
 84 82  1  0
 86 89  1  0
 87 91  1  0
 87 86  1  0
 88 87  2  0
 91 90  1  0
 93 91  1  0
 93 94  1  0
 93 92  1  0
M  ISO  4  11 100  19 100  53 101  54 101
M  END
>  <TORSDO>  (18) 
F 19

>  <SCORE>  (18) 
-12.635

>  <name>  (18) 
17

>  <ligand_id>  (18) 
17

>  <original_smiles>  (18) 
[H]c1c([H])c([H])c2c(c1[H])C([H])([H])C([H])([H])C([H])([H])C2([H])N([H])C(=O)C1([H])N(C(=O)C([H])(N([H])C(=O)C([H])(N([H])C([H])([H])[H])C([H])([H])[H])C(C([H])([H])[H])(C([H])([H])[H])C([H])([H])[H])C([H])([H])c2c([H])c(OC([H])([H])C(=O)N(C([H])([H])[H])C3([H])C([H])([H])C3([H])c3c([H])c(F)c([H])c([H])c3N([H])C(=O)N3C([H])([H])C([H])([H])C([H])([H])C([H])(n4nc(-c5c([H])c([H])c(Oc6c([H])c([H])c(F)c([H])c6F)c([H])c5[H])c(C(=O)N([H])[H])c4N([H])[H])C3([H])[H])c([H])c([H])c2C1([H])[H]

>  <smiles>  (18) 
[H]c1c([H])c([H])c2c(c1[H])C([H])([H])C([H])([H])C([H])([H])C2([H])N([H])C(=O)C1([H])N(C(=O)C([H])(N([H])C(=O)C([H])(N([H])C([H])([H])[H])C([H])([H])[H])C(C([H])([H])[H])(C([H])([H])[H])C([H])([H])[H])C([H])([H])c2c([H])c(OC([H])([H])C(=O)N(C([H])([H])[H])C3([H])C([H])([H])C3([H])c3c([H])c(F)c([H])c([H])c3N([H])C(=O)N3C([H])([H])C([H])([H])C([H])([H])C([H])(n4nc(-c5c([H])c([H])c(Oc6c([H])c([H])c(F)c([H])c6F)c([H])c5[H])c(C(=O)N([H])[H])c4N([H])[H])C3([H])[H])c([H])c([H])c2C1([H])[H]

$$$$
18:0:0
     RDKit          3D

100106  0  0  1  0  0  0  0  0999 V2000
  -32.1990  -17.9470   20.3700 C   0  0  0  0  0  3  0  0  0  0  0  0
  -33.1360  -17.5030   19.3880 C   0  0  0  0  0  3  0  0  0  0  0  0
  -32.1460  -20.0050   19.0410 C   0  0  0  0  0  3  0  0  0  0  0  0
  -31.5300  -19.1910   20.1610 C   0  0  0  0  0  0  0  0  0  0  0  0
  -33.1190  -18.1260   18.1460 C   0  0  0  0  0  0  0  0  0  0  0  0
  -33.0560  -19.5380   18.0800 C   0  0  0  0  0  0  0  0  0  0  0  0
  -33.7530  -20.2220   16.9280 C   0  0  0  0  0  1  0  0  0  0  0  0
  -29.4700  -18.5190   21.8140 C   0  0  0  0  0  1  0  0  0  0  0  0
  -30.3040  -19.6260   21.0410 C   0  0  0  0  0  3  0  0  0  0  0  0
  -29.4730  -20.3270   17.8430 C   0  0  0  0  0  2  0  0  0  0  0  0
  -29.7820  -20.9170   19.1470 C   0  0  0  0  0  2  0  0  0  0  0  0
  -29.1110  -18.9830   17.8320 C   0  0  0  0  0  2  0  0  0  0  0  0
  -28.2800  -19.0170   19.8650 C   0  0  0  0  0  2  0  0  0  0  0  0
  -29.1760  -20.1350   20.1800 C   0  0  0  0  0  3  0  0  0  0  0  0
  -28.5800  -18.1640   19.0090 C   0  0  0  0  0  3  0  0  0  0  0  0
  -29.3490  -15.0890   19.7060 C   0  0  0  0  0  0  0  0  0  0  0  0
  -30.2930  -12.7090   20.7280 C   0  0  0  0  0  2  0  0  0  0  0  0
  -29.8130  -11.3880   20.0880 C   0  0  0  0  0  2  0  0  0  0  0  0
  -28.3890  -11.0940   20.4150 C   0  0  0  0  0  2  0  0  0  0  0  0
  -27.5740  -12.3900   20.5100 C   0  0  0  0  0  3  0  0  0  0  0  0
  -28.2030  -13.4480   21.3670 C   0  0  0  0  0  2  0  0  0  0  0  0
  -29.2900  -14.0300   20.6800 N   0  0  0  0  0  0  0  0  0  0  0  0
  -30.4070  -14.8990   19.0010 O   0  0  0  0  0  0  0  0  0  0  0  0
  -28.6430  -16.4670   19.5300 N   0  0  0  0  0  0  0  0  0  0  0  0
  -29.4440  -16.4330   18.9320 H   0  0  0  0  0  0  0  0  0  0  0  0
  -25.2630  -13.0730   20.9850 C   0  0  0  0  0  0  0  0  0  0  0  0
  -24.0950  -12.3830   21.2660 C   0  0  0  0  0  0  0  0  0  0  0  0
  -24.4460  -11.0080   21.2370 C   0  0  0  0  0  0  0  0  0  0  0  0
  -26.2180  -12.1360   20.8220 N   0  0  0  0  0  0  0  0  0  0  0  0
  -25.7560  -10.8690   20.9720 N   0  0  0  0  0  0  0  0  0  0  0  0
  -23.6250   -9.7920   21.3580 C   0  0  0  0  0  0  0  0  0  0  0  0
  -23.6780   -8.9410   22.4860 C   0  0  0  0  0  3  0  0  0  0  0  0
  -22.8400   -7.8090   22.5490 C   0  0  0  0  0  3  0  0  0  0  0  0
  -21.9440   -7.5210   21.4970 C   0  0  0  0  0  0  0  0  0  0  0  0
  -21.9270   -8.3620   20.3730 C   0  0  0  0  0  3  0  0  0  0  0  0
  -22.7600   -9.4830   20.2990 C   0  0  0  0  0  3  0  0  0  0  0  0
  -21.0990   -6.4330   21.4700 O   0  0  0  0  0  0  0  0  0  0  0  0
  -20.5080   -5.9510   22.6100 C   0  0  0  0  0  0  0  0  0  0  0  0
  -19.5330   -6.6880   23.3140 C   0  0  0  0  0  3  0  0  0  0  0  0
  -18.9050   -6.1300   24.4450 C   0  0  0  0  0  3  0  0  0  0  0  0
  -19.2400   -4.8280   24.8630 C   0  0  0  0  0  0  0  0  0  0  0  0
  -20.2050   -4.0870   24.1600 C   0  0  0  0  0  3  0  0  0  0  0  0
  -20.8340   -4.6470   23.0340 C   0  0  0  0  0  0  0  0  0  0  0  0
  -21.7540   -3.9210   22.3540 F   0  0  0  0  0  0  0  0  0  0  0  0
  -18.6250   -4.2870   25.9380 F   0  0  0  0  0  0  0  0  0  0  0  0
  -22.7160  -12.9710   21.4410 C   0  0  0  0  0  0  0  0  0  0  0  0
  -21.9250  -12.4350   22.3740 N   0  0  0  0  0  0  0  0  0  0  0  0
  -22.3710  -13.9320   20.7720 O   0  0  0  0  0  0  0  0  0  0  0  0
  -22.2040  -11.6450   22.9190 H   0  0  0  0  0  0  0  0  0  0  0  0
  -20.9980  -12.8020   22.4990 H   0  0  0  0  0  0  0  0  0  0  0  0
  -25.5300  -14.4390   20.8950 N   0  0  0  0  0  0  0  0  0  0  0  0
  -24.8210  -15.1830   20.9870 H   0  0  0  0  0  0  0  0  0  0  0  0
  -26.4420  -14.7860   20.6470 H   0  0  0  0  0  0  0  0  0  0  0  0
  -33.2230  -17.5550   16.6550 C   0  0  0  0  0  3  0  0  0  0  0  0
  -32.3490  -16.2180   15.7930 C   0  0  0  0  0  1  0  0  0  0  0  0
  -32.0830  -18.3170   15.9690 N   0  0  0  0  0  2  0  0  0  0  0  0
  -31.2470  -17.9090   15.4550 H   0  0  0  0  0  0  0  0  0  0  0  0
  -31.1520  -20.5340   15.9470 C   0  0  0  0  0 15  0  0  0  0  0  0
  -29.5860  -22.9230   16.4650 C   0  0  0  0  0 15  0  0  0  0  0  0
  -28.6730  -24.9300   17.4350 O   0  0  0  0  0  1  0  0  0  0  0  0
  -24.8150  -31.2660   22.5760 C   0  0  0  0  0  0  0  0  0  0  0  0
  -27.5040  -26.3010   17.8690 C   0  0  0  0  0  0  0  0  0  0  0  0
  -23.6290  -29.9850   20.8490 C   0  0  0  0  0  3  0  0  0  0  0  0
  -24.9830  -28.6210   18.8510 C   0  0  0  0  0  0  0  0  0  0  0  0
  -26.2710  -30.0680   20.4540 C   0  0  0  0  0  2  0  0  0  0  0  0
  -26.1570  -28.7480   19.4110 C   0  0  0  0  0  0  0  0  0  0  0  0
  -27.1940  -27.6410   19.0650 C   0  0  0  0  0  3  0  0  0  0  0  0
  -26.1570  -26.5820   17.3030 C   0  0  0  0  0  3  0  0  0  0  0  0
  -25.1670  -27.5840   17.7330 C   0  0  0  0  0  3  0  0  0  0  0  0
  -23.7630  -29.4020   19.3340 C   0  0  0  0  0  2  0  0  0  0  0  0
  -25.0360  -30.4720   21.3450 N   0  0  0  0  0  0  0  0  0  0  0  0
  -23.7260  -31.4500   23.2440 O   0  0  0  0  0  0  0  0  0  0  0  0
  -22.8230  -29.0390   21.8740 C   0  0  0  0  0  0  0  0  0  0  0  0
  -21.5560  -28.6200   21.7250 N   0  0  0  0  0  0  0  0  0  0  0  0
  -23.3700  -28.6810   22.9180 O   0  0  0  0  0  0  0  0  0  0  0  0
  -20.9970  -28.9850   20.9930 H   0  0  0  0  0  0  0  0  0  0  0  0
  -19.0200  -25.8400   21.7640 C   0  0  0  0  0  0  0  0  0  0  0  0
  -20.9820  -27.4300   22.4190 C   0  0  0  0  0  3  0  0  0  0  0  0
  -21.8860  -26.1930   22.2070 C   0  0  0  0  0  2  0  0  0  0  0  0
  -21.3880  -25.2580   21.0880 C   0  0  0  0  0  2  0  0  0  0  0  0
  -19.9970  -24.7180   21.4310 C   0  0  0  0  0  2  0  0  0  0  0  0
  -19.4830  -27.1150   22.2100 C   0  0  0  0  0  0  0  0  0  0  0  0
  -18.5190  -28.1050   22.5010 C   0  0  0  0  0  3  0  0  0  0  0  0
  -17.1400  -27.8560   22.3240 C   0  0  0  0  0  3  0  0  0  0  0  0
  -16.7010  -26.6000   21.8790 C   0  0  0  0  0  3  0  0  0  0  0  0
  -17.6360  -25.5910   21.6000 C   0  0  0  0  0  3  0  0  0  0  0  0
  -25.9390  -32.0220   23.4110 C   0  0  0  0  0  3  0  0  0  0  0  0
  -25.6360  -33.4110   23.9460 N   0  0  0  0  0  0  0  0  0  0  0  0
  -26.1580  -34.6030   23.5540 C   0  0  0  0  0  0  0  0  0  0  0  0
  -26.9560  -34.6360   22.6230 O   0  0  0  0  0  0  0  0  0  0  0  0
  -24.9730  -33.3850   24.7300 H   0  0  0  0  0  0  0  0  0  0  0  0
  -24.7120  -36.6910   23.4340 C   0  0  0  0  0  1  0  0  0  0  0  0
  -25.7500  -35.9380   24.2790 C   0  0  0  0  0  3  0  0  0  0  0  0
  -27.7980  -36.4090   25.5850 C   0  0  0  0  0  1  0  0  0  0  0  0
  -26.9000  -36.8310   24.5130 N   0  0  0  0  0  0  0  0  0  0  0  0
  -26.6040  -37.7840   24.7130 H   0  0  0  0  0  0  0  0  0  0  0  0
  -26.4230  -31.1570   24.6690 C   0  0  1  0  0  0  0  0  0  0  0  0
  -25.3250  -30.8100   25.7030 C   0  0  0  0  0  1  0  0  0  0  0  0
  -27.0120  -29.8430   24.1500 C   0  0  0  0  0  1  0  0  0  0  0  0
  -27.5760  -31.8720   25.4470 C   0  0  0  0  0  1  0  0  0  0  0  0
  2  1  2  0
  3  4  2  0
  4  1  1  0
  4  9  1  0
  5  2  1  0
  6  5  2  0
  6  3  1  0
  7  6  1  0
  9  8  1  0
 10 11  1  0
 11 14  1  0
 12 10  1  0
 12 15  1  0
 13 14  1  0
 14  9  1  0
 15 24  1  0
 15 13  1  0
 16 22  1  0
 18 19  1  0
 18 17  1  0
 20 19  1  0
 20 29  1  0
 20 21  1  0
 22 17  1  0
 22 21  1  0
 23 16  2  0
 24 16  1  0
 25 24  1  0
 26 27  2  0
 27 46  1  0
 28 27  1  0
 28 31  1  0
 29 30  1  0
 29 26  1  0
 30 28  2  0
 31 32  1  0
 32 33  2  0
 34 33  1  0
 35 34  2  0
 36 35  1  0
 36 31  2  0
 37 34  1  0
 37 38  1  0
 38 43  2  0
 38 39  1  0
 39 40  2  0
 40 41  1  0
 41 45  1  0
 42 41  2  0
 43 42  1  0
 44 43  1  0
 46 47  1  0
 47 50  1  0
 47 49  1  0
 48 46  2  0
 51 26  1  0
 51 52  1  0
 53 51  1  0
 54 55  1  0
 54  5  1  0
 56 54  1  0
 57 56  1  0
 60 62  1  0
 61 72  2  0
 62 67  1  0
 63 71  1  0
 63 73  1  0
 64 70  1  0
 64 66  1  0
 65 71  1  0
 66 65  1  0
 67 66  2  0
 68 69  1  0
 68 62  2  0
 69 64  2  0
 70 63  1  0
 71 61  1  0
 73 75  2  0
 74 73  1  0
 76 74  1  0
 77 82  1  0
 78 74  1  0
 79 78  1  0
 80 81  1  0
 80 79  1  0
 81 77  1  0
 82 78  1  0
 82 83  2  0
 84 83  1  0
 85 84  2  0
 86 77  2  0
 86 85  1  0
 87 61  1  0
 87 88  1  0
 87 97  1  0
 88 91  1  0
 89 88  1  0
 89 93  1  0
 90 89  2  0
 93 92  1  0
 93 95  1  0
 95 96  1  0
 95 94  1  0
 97100  1  1
 97 98  1  0
 99 97  1  0
M  ISO  4  16 100  24 100  59 101  60 101
M  END
>  <TORSDO>  (19) 
F 22

>  <SCORE>  (19) 
-10.615

>  <name>  (19) 
18

>  <ligand_id>  (19) 
18

>  <original_smiles>  (19) 
[H]c1c([H])c([H])c2c(c1[H])C([H])([H])C([H])([H])C([H])([H])C2([H])N([H])C(=O)C1([H])N(C(=O)C([H])(N([H])C(=O)C([H])(N([H])C([H])([H])[H])C([H])([H])[H])C(C([H])([H])[H])(C([H])([H])[H])C([H])([H])[H])C([H])([H])c2c([H])c(OC([H])([H])C([H])([H])[N+]([H])(C([H])([H])[H])C([H])([H])c3c([H])c([H])c(C([H])(c4c([H])c([H])c([H])c(N([H])C(=O)N5C([H])([H])C([H])([H])C([H])([H])C([H])(n6nc(-c7c([H])c([H])c(Oc8c([H])c([H])c(F)c([H])c8F)c([H])c7[H])c(C(=O)N([H])[H])c6N([H])[H])C5([H])[H])c4[H])C([H])([H])[H])c([H])c3C([H])([H])[H])c([H])c([H])c2C1([H])[H]

>  <smiles>  (19) 
[H]c1c([H])c([H])c2c(c1[H])C([H])([H])C([H])([H])C([H])([H])C2([H])N([H])C(=O)C1([H])N(C(=O)C([H])(N([H])C(=O)C([H])(N([H])C([H])([H])[H])C([H])([H])[H])C(C([H])([H])[H])(C([H])([H])[H])C([H])([H])[H])C([H])([H])c2c([H])c(OC([H])([H])C([H])([H])[N+]([H])(C([H])([H])[H])C([H])([H])c3c([H])c([H])c(C([H])(c4c([H])c([H])c([H])c(N([H])C(=O)N5C([H])([H])C([H])([H])C([H])([H])C([H])(n6nc(-c7c([H])c([H])c(Oc8c([H])c([H])c(F)c([H])c8F)c([H])c7[H])c(C(=O)N([H])[H])c6N([H])[H])C5([H])[H])c4[H])C([H])([H])[H])c([H])c3C([H])([H])[H])c([H])c([H])c2C1([H])[H]

$$$$
19:0:0
     RDKit          3D

 93102  0  0  1  0  0  0  0  0999 V2000
  -30.7290  -21.2830   21.4920 C   0  0  0  0  0  2  0  0  0  0  0  0
  -29.4390  -20.5720   21.1730 C   0  0  0  0  0  3  0  0  0  0  0  0
  -29.7060  -21.9870   20.6180 C   0  0  0  0  0  3  0  0  0  0  0  0
  -29.3010  -18.1550   18.1970 C   0  0  0  0  0  3  0  0  0  0  0  0
  -29.2560  -19.3360   18.9600 C   0  0  0  0  0  3  0  0  0  0  0  0
  -29.5670  -16.9210   18.8190 C   0  0  0  0  0  3  0  0  0  0  0  0
  -29.7400  -18.0510   20.9710 C   0  0  0  0  0  3  0  0  0  0  0  0
  -29.4860  -19.3040   20.3530 C   0  0  0  0  0  0  0  0  0  0  0  0
  -29.7850  -16.8530   20.2140 C   0  0  0  0  0  0  0  0  0  0  0  0
  -30.6710  -14.5670   20.3820 C   0  0  0  0  0  0  0  0  0  0  0  0
  -30.3870  -12.3980   19.2650 C   0  0  0  0  0  2  0  0  0  0  0  0
  -29.4420  -12.6130   18.0630 C   0  0  0  0  0  2  0  0  0  0  0  0
  -27.9670  -12.4860   18.4940 C   0  0  0  0  0  2  0  0  0  0  0  0
  -27.6370  -13.3030   19.7730 C   0  0  0  0  0  3  0  0  0  0  0  0
  -28.6980  -13.0730   20.8730 C   0  0  0  0  0  2  0  0  0  0  0  0
  -30.0220  -13.3750   20.3030 N   0  0  0  0  0  0  0  0  0  0  0  0
  -31.7980  -14.7560   19.9170 O   0  0  0  0  0  0  0  0  0  0  0  0
  -29.9410  -15.5900   20.8670 N   0  0  0  0  0  0  0  0  0  0  0  0
  -29.1650  -15.3130   21.4470 H   0  0  0  0  0  0  0  0  0  0  0  0
  -25.2410  -13.8970   20.5080 C   0  0  0  0  0  0  0  0  0  0  0  0
  -24.1770  -13.1190   20.8780 C   0  0  0  0  0  0  0  0  0  0  0  0
  -24.6420  -11.7680   20.8330 C   0  0  0  0  0  0  0  0  0  0  0  0
  -26.2860  -13.0200   20.2600 N   0  0  0  0  0  0  0  0  0  0  0  0
  -25.9310  -11.7340   20.5150 N   0  0  0  0  0  0  0  0  0  0  0  0
  -23.9210  -10.5010   21.0220 C   0  0  0  0  0  0  0  0  0  0  0  0
  -24.3490   -9.5440   21.9680 C   0  0  0  0  0  3  0  0  0  0  0  0
  -23.6320   -8.3400   22.1450 C   0  0  0  0  0  3  0  0  0  0  0  0
  -22.4720   -8.0880   21.3750 C   0  0  0  0  0  0  0  0  0  0  0  0
  -22.0610   -9.0350   20.4190 C   0  0  0  0  0  3  0  0  0  0  0  0
  -22.7790  -10.2300   20.2410 C   0  0  0  0  0  3  0  0  0  0  0  0
  -21.7260   -6.9380   21.4580 O   0  0  0  0  0  0  0  0  0  0  0  0
  -21.6490   -6.2140   22.6200 C   0  0  0  0  0  0  0  0  0  0  0  0
  -21.1540   -6.7770   23.8170 C   0  0  0  0  0  3  0  0  0  0  0  0
  -21.0250   -5.9790   24.9720 C   0  0  0  0  0  3  0  0  0  0  0  0
  -21.3780   -4.6180   24.9300 C   0  0  0  0  0  0  0  0  0  0  0  0
  -21.8660   -4.0540   23.7380 C   0  0  0  0  0  3  0  0  0  0  0  0
  -21.9980   -4.8480   22.5860 C   0  0  0  0  0  0  0  0  0  0  0  0
  -22.4480   -4.2950   21.4340 F   0  0  0  0  0  0  0  0  0  0  0  0
  -21.2460   -3.8480   26.0360 F   0  0  0  0  0  0  0  0  0  0  0  0
  -22.7800  -13.5890   21.1640 C   0  0  0  0  0  0  0  0  0  0  0  0
  -22.0580  -12.8830   22.0250 N   0  0  0  0  0  0  0  0  0  0  0  0
  -22.3340  -14.6200   20.6600 O   0  0  0  0  0  0  0  0  0  0  0  0
  -22.4280  -12.0490   22.4580 H   0  0  0  0  0  0  0  0  0  0  0  0
  -21.1200  -13.1800   22.2530 H   0  0  0  0  0  0  0  0  0  0  0  0
  -25.4030  -15.2690   20.3400 N   0  0  0  0  0  0  0  0  0  0  0  0
  -24.6440  -15.9290   20.4680 H   0  0  0  0  0  0  0  0  0  0  0  0
  -26.2560  -15.7080   20.0140 H   0  0  0  0  0  0  0  0  0  0  0  0
  -29.0570  -24.3630   20.4110 C   0  0  0  0  0  0  0  0  0  0  0  0
  -28.5230  -23.1780   22.4980 C   0  0  0  0  0  1  0  0  0  0  0  0
  -29.1200  -23.2160   21.1500 N   0  0  0  0  0  0  0  0  0  0  0  0
  -29.5040  -24.4320   19.2590 O   0  0  0  0  0  0  0  0  0  0  0  0
  -28.4040  -25.6290   21.0270 C   0  0  0  0  0  2  0  0  0  0  0  0
  -28.4720  -26.7720   20.1510 O   0  0  0  0  0  0  0  0  0  0  0  0
  -24.6000  -31.9140   23.2170 C   0  0  0  0  0  0  0  0  0  0  0  0
  -27.3160  -27.5190   20.1400 C   0  0  0  0  0  0  0  0  0  0  0  0
  -23.4210  -30.5040   21.5600 C   0  0  0  0  0  3  0  0  0  0  0  0
  -24.9060  -28.9890   20.1390 C   0  0  0  0  0  0  0  0  0  0  0  0
  -25.9440  -30.8970   21.3770 C   0  0  0  0  0  2  0  0  0  0  0  0
  -26.0520  -29.5290   20.7360 C   0  0  0  0  0  0  0  0  0  0  0  0
  -27.2660  -28.8020   20.7310 C   0  0  0  0  0  3  0  0  0  0  0  0
  -26.1550  -26.9910   19.5380 C   0  0  0  0  0  3  0  0  0  0  0  0
  -24.9510  -27.7200   19.5370 C   0  0  0  0  0  3  0  0  0  0  0  0
  -23.6480  -29.8300   20.1810 C   0  0  0  0  0  2  0  0  0  0  0  0
  -24.6730  -31.1180   22.1110 N   0  0  0  0  0  0  0  0  0  0  0  0
  -23.5120  -32.1710   23.7500 O   0  0  0  0  0  0  0  0  0  0  0  0
  -22.7770  -29.4710   22.5150 C   0  0  0  0  0  0  0  0  0  0  0  0
  -21.4530  -29.2850   22.3860 N   0  0  0  0  0  0  0  0  0  0  0  0
  -23.4640  -28.8430   23.3230 O   0  0  0  0  0  0  0  0  0  0  0  0
  -20.9590  -29.8450   21.7060 H   0  0  0  0  0  0  0  0  0  0  0  0
  -18.0830  -28.0800   22.8850 C   0  0  0  0  0  0  0  0  0  0  0  0
  -20.6420  -28.3360   23.1490 C   0  0  0  0  0  3  0  0  0  0  0  0
  -20.7430  -26.9110   22.5540 C   0  0  0  0  0  2  0  0  0  0  0  0
  -19.6360  -26.6010   21.5410 C   0  0  0  0  0  2  0  0  0  0  0  0
  -18.2580  -26.7390   22.1930 C   0  0  0  0  0  2  0  0  0  0  0  0
  -19.2030  -28.8370   23.3200 C   0  0  0  0  0  0  0  0  0  0  0  0
  -18.9870  -30.0940   23.9260 C   0  0  0  0  0  3  0  0  0  0  0  0
  -17.6820  -30.5940   24.1010 C   0  0  0  0  0  3  0  0  0  0  0  0
  -16.5770  -29.8340   23.6840 C   0  0  0  0  0  3  0  0  0  0  0  0
  -16.7780  -28.5790   23.0810 C   0  0  0  0  0  3  0  0  0  0  0  0
  -25.8740  -32.5570   23.8470 C   0  0  0  0  0  3  0  0  0  0  0  0
  -26.3980  -31.7840   25.1190 C   0  0  1  0  0  0  0  0  0  0  0  0
  -25.3040  -31.5240   26.1800 C   0  0  0  0  0  1  0  0  0  0  0  0
  -27.0010  -30.4190   24.7160 C   0  0  0  0  0  1  0  0  0  0  0  0
  -27.5350  -32.5890   25.7900 C   0  0  0  0  0  1  0  0  0  0  0  0
  -25.5480  -33.9490   24.1820 N   0  0  0  0  0  0  0  0  0  0  0  0
  -25.8710  -35.0080   23.4270 C   0  0  0  0  0  0  0  0  0  0  0  0
  -26.5480  -34.9170   22.3990 O   0  0  0  0  0  0  0  0  0  0  0  0
  -24.9460  -34.0940   24.9790 H   0  0  0  0  0  0  0  0  0  0  0  0
  -24.1310  -36.7850   23.0610 C   0  0  0  0  0  1  0  0  0  0  0  0
  -25.3650  -36.3880   23.8880 C   0  0  0  0  0  3  0  0  0  0  0  0
  -27.4770  -37.2910   24.7540 C   0  0  0  0  0  1  0  0  0  0  0  0
  -26.3880  -37.4530   23.7940 N   0  0  0  0  0  0  0  0  0  0  0  0
  -25.9700  -38.3680   23.9390 H   0  0  0  0  0  0  0  0  0  0  0  0
  2  8  1  0
  2  1  1  0
  3 50  1  0
  3  2  1  0
  3  1  1  0
  4  6  2  0
  4  5  1  0
  5  8  2  0
  6  9  1  0
  8  7  1  0
  9 18  1  0
  9  7  2  0
 10 18  1  0
 11 16  1  0
 12 13  1  0
 12 11  1  0
 14 13  1  0
 14 23  1  0
 14 15  1  0
 16 10  1  0
 16 15  1  0
 17 10  2  0
 18 19  1  0
 20 21  2  0
 21 40  1  0
 22 21  1  0
 22 25  1  0
 23 20  1  0
 23 24  1  0
 24 22  2  0
 25 26  1  0
 26 27  2  0
 28 31  1  0
 28 27  1  0
 29 28  2  0
 30 29  1  0
 30 25  2  0
 31 32  1  0
 32 33  1  0
 33 34  2  0
 35 34  1  0
 35 39  1  0
 36 35  2  0
 37 32  2  0
 37 36  1  0
 38 37  1  0
 40 41  1  0
 41 44  1  0
 41 43  1  0
 42 40  2  0
 45 46  1  0
 45 20  1  0
 47 45  1  0
 48 52  1  0
 48 50  1  0
 50 49  1  0
 51 48  2  0
 53 52  1  0
 54 65  2  0
 55 53  1  0
 55 60  1  0
 56 64  1  0
 56 66  1  0
 57 63  1  0
 57 59  1  0
 58 64  1  0
 59 58  1  0
 60 59  2  0
 61 55  2  0
 62 61  1  0
 62 57  2  0
 63 56  1  0
 64 54  1  0
 66 68  2  0
 67 66  1  0
 69 67  1  0
 70 79  2  0
 70 75  1  0
 71 67  1  0
 71 75  1  0
 72 71  1  0
 73 74  1  0
 73 72  1  0
 74 70  1  0
 75 76  2  0
 76 77  1  0
 78 77  2  0
 79 78  1  0
 80 54  1  0
 80 85  1  0
 80 81  1  0
 81 84  1  1
 81 82  1  0
 83 81  1  0
 85 88  1  0
 86 90  1  0
 86 85  1  0
 87 86  2  0
 90 89  1  0
 92 90  1  0
 92 93  1  0
 92 91  1  0
M  ISO  4  10 100  18 100  52 101  53 101
M  END
>  <TORSDO>  (20) 
F 19

>  <SCORE>  (20) 
-14.205

>  <name>  (20) 
19

>  <ligand_id>  (20) 
19

>  <original_smiles>  (20) 
[H]c1c([H])c([H])c2c(c1[H])C([H])([H])C([H])([H])C([H])([H])C2([H])N([H])C(=O)C1([H])N(C(=O)C([H])(N([H])C(=O)C([H])(N([H])C([H])([H])[H])C([H])([H])[H])C(C([H])([H])[H])(C([H])([H])[H])C([H])([H])[H])C([H])([H])c2c([H])c(OC([H])([H])C(=O)N(C([H])([H])[H])C3([H])C([H])([H])C3([H])c3c([H])c([H])c([H])c(N([H])C(=O)N4C([H])([H])C([H])([H])C([H])([H])C([H])(n5nc(-c6c([H])c([H])c(Oc7c([H])c([H])c(F)c([H])c7F)c([H])c6[H])c(C(=O)N([H])[H])c5N([H])[H])C4([H])[H])c3[H])c([H])c([H])c2C1([H])[H]

>  <smiles>  (20) 
[H]c1c([H])c([H])c2c(c1[H])C([H])([H])C([H])([H])C([H])([H])C2([H])N([H])C(=O)C1([H])N(C(=O)C([H])(N([H])C(=O)C([H])(N([H])C([H])([H])[H])C([H])([H])[H])C(C([H])([H])[H])(C([H])([H])[H])C([H])([H])[H])C([H])([H])c2c([H])c(OC([H])([H])C(=O)N(C([H])([H])[H])C3([H])C([H])([H])C3([H])c3c([H])c([H])c([H])c(N([H])C(=O)N4C([H])([H])C([H])([H])C([H])([H])C([H])(n5nc(-c6c([H])c([H])c(Oc7c([H])c([H])c(F)c([H])c7F)c([H])c6[H])c(C(=O)N([H])[H])c5N([H])[H])C4([H])[H])c3[H])c([H])c([H])c2C1([H])[H]

$$$$
20:0:0
     RDKit          3D

104113  0  0  1  0  0  0  0  0999 V2000
  -30.5860  -20.0720   21.2960 N   0  0  0  0  0  0  0  0  0  0  0  0
  -34.0230  -21.4750   21.7640 C   0  0  0  0  0  3  0  0  0  0  0  0
  -33.7090  -20.8550   19.4260 C   0  0  0  0  0  3  0  0  0  0  0  0
  -32.7140  -21.0470   22.0540 C   0  0  0  0  0  3  0  0  0  0  0  0
  -32.4050  -20.4300   19.7190 C   0  0  0  0  0  3  0  0  0  0  0  0
  -34.5330  -21.3630   20.4510 C   0  0  0  0  0  0  0  0  0  0  0  0
  -31.8920  -20.5120   21.0350 C   0  0  0  0  0  0  0  0  0  0  0  0
  -35.9700  -21.7640   20.1320 C   0  0  0  0  0  2  0  0  0  0  0  0
  -36.9300  -20.8480   20.7590 N   0  0  0  0  0  4  0  0  0  0  0  0
  -36.9600  -21.0230   21.7460 H   0  0  0  0  0  0  0  0  0  0  0  0
  -37.8360  -21.0120   20.3650 H   0  0  0  0  0  0  0  0  0  0  0  0
  -36.6600  -19.8980   20.5830 H   0  0  0  0  0  0  0  0  0  0  0  0
  -28.4730  -18.5780   18.5880 C   0  0  0  0  0  3  0  0  0  0  0  0
  -28.5820  -17.2060   18.8840 C   0  0  0  0  0  3  0  0  0  0  0  0
  -29.1240  -19.5400   19.3870 C   0  0  0  0  0  3  0  0  0  0  0  0
  -30.0470  -17.7670   20.7630 C   0  0  0  0  0  3  0  0  0  0  0  0
  -29.3790  -16.7980   19.9860 C   0  0  0  0  0  0  0  0  0  0  0  0
  -29.9080  -19.1400   20.4880 C   0  0  0  0  0  0  0  0  0  0  0  0
  -30.2950  -14.5000   20.1540 C   0  0  0  0  0  0  0  0  0  0  0  0
  -30.0860  -12.3290   19.0170 C   0  0  0  0  0  2  0  0  0  0  0  0
  -29.0900  -12.6160   17.8770 C   0  0  0  0  0  2  0  0  0  0  0  0
  -27.6360  -12.4100   18.3610 C   0  0  0  0  0  2  0  0  0  0  0  0
  -27.3390  -13.1460   19.6970 C   0  0  0  0  0  3  0  0  0  0  0  0
  -28.4660  -12.8840   20.7310 C   0  0  0  0  0  2  0  0  0  0  0  0
  -29.7460  -13.2600   20.0990 N   0  0  0  0  0  0  0  0  0  0  0  0
  -31.4460  -14.7640   19.7610 O   0  0  0  0  0  0  0  0  0  0  0  0
  -29.3770  -15.4520   20.4320 N   0  0  0  0  0  0  0  0  0  0  0  0
  -28.4590  -15.0760   20.6480 H   0  0  0  0  0  0  0  0  0  0  0  0
  -24.9730  -13.6880   20.5430 C   0  0  0  0  0  0  0  0  0  0  0  0
  -23.9470  -12.8840   20.9390 C   0  0  0  0  0  0  0  0  0  0  0  0
  -24.4360  -11.5440   20.8420 C   0  0  0  0  0  0  0  0  0  0  0  0
  -26.0220  -12.8320   20.2280 N   0  0  0  0  0  0  0  0  0  0  0  0
  -25.7060  -11.5410   20.4730 N   0  0  0  0  0  0  0  0  0  0  0  0
  -23.7560  -10.2640   21.0340 C   0  0  0  0  0  0  0  0  0  0  0  0
  -24.2390   -9.3080   21.9560 C   0  0  0  0  0  3  0  0  0  0  0  0
  -23.5650   -8.0820   22.1350 C   0  0  0  0  0  3  0  0  0  0  0  0
  -22.3940   -7.8010   21.3940 C   0  0  0  0  0  0  0  0  0  0  0  0
  -21.9300   -8.7450   20.4620 C   0  0  0  0  0  3  0  0  0  0  0  0
  -22.6010   -9.9630   20.2790 C   0  0  0  0  0  3  0  0  0  0  0  0
  -21.6840   -6.6290   21.4920 O   0  0  0  0  0  0  0  0  0  0  0  0
  -21.6560   -5.8920   22.6460 C   0  0  0  0  0  0  0  0  0  0  0  0
  -21.1840   -6.4340   23.8630 C   0  0  0  0  0  3  0  0  0  0  0  0
  -21.1130   -5.6190   25.0140 C   0  0  0  0  0  3  0  0  0  0  0  0
  -21.4990   -4.2690   24.9450 C   0  0  0  0  0  0  0  0  0  0  0  0
  -21.9610   -3.7270   23.7360 C   0  0  0  0  0  3  0  0  0  0  0  0
  -22.0390   -4.5380   22.5890 C   0  0  0  0  0  0  0  0  0  0  0  0
  -22.4640   -4.0070   21.4160 F   0  0  0  0  0  0  0  0  0  0  0  0
  -21.4240   -3.4830   26.0460 F   0  0  0  0  0  0  0  0  0  0  0  0
  -22.5560  -13.3160   21.3040 C   0  0  0  0  0  0  0  0  0  0  0  0
  -21.8940  -12.5690   22.1820 N   0  0  0  0  0  0  0  0  0  0  0  0
  -22.0630  -14.3460   20.8430 O   0  0  0  0  0  0  0  0  0  0  0  0
  -22.2990  -11.7260   22.5680 H   0  0  0  0  0  0  0  0  0  0  0  0
  -20.9680  -12.8360   22.4740 H   0  0  0  0  0  0  0  0  0  0  0  0
  -25.1230  -15.0660   20.4070 N   0  0  0  0  0  0  0  0  0  0  0  0
  -24.3840  -15.7250   20.6270 H   0  0  0  0  0  0  0  0  0  0  0  0
  -25.9850  -15.5220   20.1330 H   0  0  0  0  0  0  0  0  0  0  0  0
  -29.7030  -21.0350   21.9710 C   0  0  0  0  0  2  0  0  0  0  0  0
  -29.2950  -22.1740   21.0240 C   0  0  0  0  0  2  0  0  0  0  0  0
  -28.7690  -24.5050   20.8550 C   0  0  0  0  0  0  0  0  0  0  0  0
  -29.1300  -23.4810   21.6410 N   0  0  0  0  0  0  0  0  0  0  0  0
  -28.4900  -24.3290   19.6650 O   0  0  0  0  0  0  0  0  0  0  0  0
  -29.4000  -23.6380   22.6080 H   0  0  0  0  0  0  0  0  0  0  0  0
  -28.7180  -25.9240   21.4220 C   0  0  0  0  0  2  0  0  0  0  0  0
  -28.6750  -26.8260   20.3110 O   0  0  0  0  0  0  0  0  0  0  0  0
  -24.6170  -31.7770   23.2280 C   0  0  0  0  0  0  0  0  0  0  0  0
  -27.4850  -27.4890   20.2240 C   0  0  0  0  0  0  0  0  0  0  0  0
  -23.4900  -30.3380   21.5460 C   0  0  0  0  0  3  0  0  0  0  0  0
  -25.0320  -28.8600   20.1550 C   0  0  0  0  0  0  0  0  0  0  0  0
  -25.9990  -30.8070   21.4080 C   0  0  0  0  0  2  0  0  0  0  0  0
  -26.1480  -29.4500   20.7630 C   0  0  0  0  0  0  0  0  0  0  0  0
  -27.3790  -28.7720   20.7910 C   0  0  0  0  0  3  0  0  0  0  0  0
  -26.3590  -26.8870   19.6250 C   0  0  0  0  0  3  0  0  0  0  0  0
  -25.1280  -27.5730   19.5890 C   0  0  0  0  0  3  0  0  0  0  0  0
  -23.7570  -29.6730   20.1690 C   0  0  0  0  0  2  0  0  0  0  0  0
  -24.7160  -30.9900   22.1180 N   0  0  0  0  0  0  0  0  0  0  0  0
  -23.5160  -32.0100   23.7500 O   0  0  0  0  0  0  0  0  0  0  0  0
  -22.8500  -29.2930   22.4880 C   0  0  0  0  0  0  0  0  0  0  0  0
  -21.5380  -29.0680   22.3220 N   0  0  0  0  0  0  0  0  0  0  0  0
  -23.5300  -28.6820   23.3150 O   0  0  0  0  0  0  0  0  0  0  0  0
  -21.0520  -29.6070   21.6180 H   0  0  0  0  0  0  0  0  0  0  0  0
  -18.1870  -27.7850   22.7330 C   0  0  0  0  0  0  0  0  0  0  0  0
  -20.7290  -28.1070   23.0670 C   0  0  0  0  0  3  0  0  0  0  0  0
  -20.8790  -26.6820   22.4860 C   0  0  0  0  0  2  0  0  0  0  0  0
  -19.8120  -26.3380   21.4430 C   0  0  0  0  0  2  0  0  0  0  0  0
  -18.4130  -26.4470   22.0530 C   0  0  0  0  0  2  0  0  0  0  0  0
  -19.2740  -28.5780   23.1880 C   0  0  0  0  0  0  0  0  0  0  0  0
  -19.0110  -29.8370   23.7730 C   0  0  0  0  0  3  0  0  0  0  0  0
  -17.6870  -30.2990   23.9130 C   0  0  0  0  0  3  0  0  0  0  0  0
  -16.6130  -29.5070   23.4720 C   0  0  0  0  0  3  0  0  0  0  0  0
  -16.8630  -28.2520   22.8870 C   0  0  0  0  0  3  0  0  0  0  0  0
  -25.8730  -32.4390   23.8800 C   0  0  0  0  0  3  0  0  0  0  0  0
  -26.3820  -31.6820   25.1650 C   0  0  1  0  0  0  0  0  0  0  0  0
  -25.2750  -31.4000   26.2080 C   0  0  0  0  0  1  0  0  0  0  0  0
  -27.0210  -30.3270   24.7870 C   0  0  0  0  0  1  0  0  0  0  0  0
  -27.4980  -32.5060   25.8490 C   0  0  0  0  0  1  0  0  0  0  0  0
  -25.5240  -33.8340   24.1930 N   0  0  0  0  0  0  0  0  0  0  0  0
  -25.8410  -34.8820   23.4270 C   0  0  0  0  0  0  0  0  0  0  0  0
  -26.5260  -34.7910   22.4030 O   0  0  0  0  0  0  0  0  0  0  0  0
  -24.9360  -33.9840   24.9990 H   0  0  0  0  0  0  0  0  0  0  0  0
  -24.0630  -36.6130   23.0210 C   0  0  0  0  0  1  0  0  0  0  0  0
  -25.3040  -36.2610   23.8580 C   0  0  0  0  0  3  0  0  0  0  0  0
  -27.3990  -37.2120   24.7140 C   0  0  0  0  0  1  0  0  0  0  0  0
  -26.3050  -37.3450   23.7560 N   0  0  0  0  0  0  0  0  0  0  0  0
  -25.8680  -38.2520   23.9000 H   0  0  0  0  0  0  0  0  0  0  0  0
  1 57  1  0
  2  4  1  0
  3  5  2  0
  3  6  1  0
  5  7  1  0
  6  2  2  0
  7  1  1  0
  7  4  2  0
  8  6  1  0
  8  9  1  0
  9 10  1  0
 11  9  1  0
 12  9  1  0
 13 14  2  0
 13 15  1  0
 14 17  1  0
 15 18  2  0
 17 27  1  0
 17 16  2  0
 18 16  1  0
 18  1  1  0
 19 27  1  0
 20 25  1  0
 21 22  1  0
 21 20  1  0
 23 22  1  0
 23 32  1  0
 23 24  1  0
 25 19  1  0
 25 24  1  0
 26 19  2  0
 27 28  1  0
 29 30  2  0
 30 49  1  0
 31 30  1  0
 31 34  1  0
 32 33  1  0
 32 29  1  0
 33 31  2  0
 34 35  1  0
 35 36  2  0
 37 40  1  0
 37 36  1  0
 38 37  2  0
 39 38  1  0
 39 34  2  0
 40 41  1  0
 41 42  1  0
 42 43  2  0
 44 43  1  0
 44 48  1  0
 45 44  2  0
 46 41  2  0
 46 45  1  0
 47 46  1  0
 49 50  1  0
 50 53  1  0
 50 52  1  0
 51 49  2  0
 54 29  1  0
 54 55  1  0
 56 54  1  0
 58 60  1  0
 58 57  1  0
 59 63  1  0
 59 60  1  0
 60 62  1  0
 61 59  2  0
 64 63  1  0
 65 76  2  0
 66 64  1  0
 66 71  1  0
 67 75  1  0
 67 77  1  0
 68 74  1  0
 68 70  1  0
 69 75  1  0
 70 71  2  0
 70 69  1  0
 72 66  2  0
 73 72  1  0
 73 68  2  0
 74 67  1  0
 75 65  1  0
 77 79  2  0
 78 77  1  0
 80 78  1  0
 81 90  2  0
 81 86  1  0
 82 78  1  0
 82 86  1  0
 83 82  1  0
 84 85  1  0
 84 83  1  0
 85 81  1  0
 86 87  2  0
 87 88  1  0
 89 88  2  0
 90 89  1  0
 91 65  1  0
 91 96  1  0
 91 92  1  0
 92 95  1  1
 92 93  1  0
 94 92  1  0
 96 99  1  0
 97101  1  0
 97 96  1  0
 98 97  2  0
101100  1  0
103101  1  0
103104  1  0
103102  1  0
M  ISO  4  19 100  27 100  63 101  64 101
M  END
>  <TORSDO>  (21) 
F 24

>  <SCORE>  (21) 
-12.758

>  <name>  (21) 
20

>  <ligand_id>  (21) 
20

>  <original_smiles>  (21) 
[H]c1c([H])c(N([H])C(=O)N2C([H])([H])C([H])([H])C([H])([H])C([H])(n3nc(-c4c([H])c([H])c(Oc5c([H])c([H])c(F)c([H])c5F)c([H])c4[H])c(C(=O)N([H])[H])c3N([H])[H])C2([H])[H])c([H])c(N(c2c([H])c([H])c(C([H])([H])[N+]([H])([H])[H])c([H])c2[H])C([H])([H])C([H])([H])N([H])C(=O)C([H])([H])Oc2c([H])c([H])c3c(c2[H])C([H])([H])N(C(=O)C([H])(N([H])C(=O)C([H])(N([H])C([H])([H])[H])C([H])([H])[H])C(C([H])([H])[H])(C([H])([H])[H])C([H])([H])[H])C([H])(C(=O)N([H])C2([H])c4c([H])c([H])c([H])c([H])c4C([H])([H])C([H])([H])C2([H])[H])C3([H])[H])c1[H]

>  <smiles>  (21) 
[H]c1c([H])c(N([H])C(=O)N2C([H])([H])C([H])([H])C([H])([H])C([H])(n3nc(-c4c([H])c([H])c(Oc5c([H])c([H])c(F)c([H])c5F)c([H])c4[H])c(C(=O)N([H])[H])c3N([H])[H])C2([H])[H])c([H])c(N(c2c([H])c([H])c(C([H])([H])[N+]([H])([H])[H])c([H])c2[H])C([H])([H])C([H])([H])N([H])C(=O)C([H])([H])Oc2c([H])c([H])c3c(c2[H])C([H])([H])N(C(=O)C([H])(N([H])C(=O)C([H])(N([H])C([H])([H])[H])C([H])([H])[H])C(C([H])([H])[H])(C([H])([H])[H])C([H])([H])[H])C([H])(C(=O)N([H])C2([H])c4c([H])c([H])c([H])c([H])c4C([H])([H])C([H])([H])C2([H])[H])C3([H])[H])c1[H]

$$$$
21:0:0
     RDKit          3D

 98106  0  0  1  0  0  0  0  0999 V2000
  -30.5570  -20.0900   22.8250 C   0  0  0  0  0  3  0  0  0  0  0  0
  -30.9790  -18.8090   22.4290 C   0  0  0  0  0  3  0  0  0  0  0  0
  -29.1640  -20.2300   20.8400 C   0  0  0  0  0  3  0  0  0  0  0  0
  -29.6660  -20.8250   22.0200 C   0  0  0  0  0  0  0  0  0  0  0  0
  -30.5250  -18.2300   21.2240 C   0  0  0  0  0  0  0  0  0  0  0  0
  -29.5780  -18.9380   20.4330 C   0  0  0  0  0  0  0  0  0  0  0  0
  -29.2920  -22.2420   22.4490 C   0  0  0  0  0  2  0  0  0  0  0  0
  -28.3470  -24.1060   20.9900 C   0  0  0  0  0  0  0  0  0  0  0  0
  -28.3190  -22.9010   21.5790 N   0  0  0  0  0  0  0  0  0  0  0  0
  -27.4220  -24.4070   20.2400 O   0  0  0  0  0  0  0  0  0  0  0  0
  -27.5010  -22.3470   21.3720 H   0  0  0  0  0  0  0  0  0  0  0  0
  -29.5030  -25.0990   21.2260 C   0  0  0  0  0  2  0  0  0  0  0  0
  -29.0880  -26.5900   21.2480 C   0  0  0  0  0  2  0  0  0  0  0  0
  -28.6700  -27.0680   19.9660 O   0  0  0  0  0  0  0  0  0  0  0  0
  -24.5380  -31.8650   23.2270 C   0  0  0  0  0  0  0  0  0  0  0  0
  -27.4840  -27.7610   19.9890 C   0  0  0  0  0  0  0  0  0  0  0  0
  -23.4370  -30.4710   21.5020 C   0  0  0  0  0  3  0  0  0  0  0  0
  -24.9990  -29.0910   20.0300 C   0  0  0  0  0  0  0  0  0  0  0  0
  -25.9330  -30.9940   21.3600 C   0  0  0  0  0  2  0  0  0  0  0  0
  -26.1080  -29.6600   20.6690 C   0  0  0  0  0  0  0  0  0  0  0  0
  -27.3540  -28.9970   20.6600 C   0  0  0  0  0  3  0  0  0  0  0  0
  -26.3690  -27.2110   19.3310 C   0  0  0  0  0  3  0  0  0  0  0  0
  -25.1210  -27.8620   19.3610 C   0  0  0  0  0  3  0  0  0  0  0  0
  -23.7020  -29.8660   20.0960 C   0  0  0  0  0  2  0  0  0  0  0  0
  -24.6520  -31.1240   22.0890 N   0  0  0  0  0  0  0  0  0  0  0  0
  -23.4370  -32.0470   23.7630 O   0  0  0  0  0  0  0  0  0  0  0  0
  -22.8350  -29.3720   22.4070 C   0  0  0  0  0  0  0  0  0  0  0  0
  -21.5230  -29.1290   22.2580 N   0  0  0  0  0  0  0  0  0  0  0  0
  -23.5450  -28.7450   23.1970 O   0  0  0  0  0  0  0  0  0  0  0  0
  -21.0090  -29.6930   21.5950 H   0  0  0  0  0  0  0  0  0  0  0  0
  -18.2120  -27.7500   22.6710 C   0  0  0  0  0  0  0  0  0  0  0  0
  -20.7510  -28.1150   22.9740 C   0  0  0  0  0  3  0  0  0  0  0  0
  -20.9270  -26.7230   22.3240 C   0  0  0  0  0  2  0  0  0  0  0  0
  -19.8450  -26.4010   21.2870 C   0  0  0  0  0  2  0  0  0  0  0  0
  -18.4550  -26.4460   21.9290 C   0  0  0  0  0  2  0  0  0  0  0  0
  -19.2900  -28.5400   23.1480 C   0  0  0  0  0  0  0  0  0  0  0  0
  -19.0090  -29.7600   23.8010 C   0  0  0  0  0  3  0  0  0  0  0  0
  -17.6810  -30.1890   23.9850 C   0  0  0  0  0  3  0  0  0  0  0  0
  -16.6160  -29.3950   23.5240 C   0  0  0  0  0  3  0  0  0  0  0  0
  -16.8820  -28.1780   22.8730 C   0  0  0  0  0  3  0  0  0  0  0  0
  -25.7790  -32.5370   23.8940 C   0  0  0  0  0  3  0  0  0  0  0  0
  -26.2580  -31.8010   25.2040 C   0  0  1  0  0  0  0  0  0  0  0  0
  -25.1260  -31.5550   26.2260 C   0  0  0  0  0  1  0  0  0  0  0  0
  -26.8930  -30.4330   24.8590 C   0  0  0  0  0  1  0  0  0  0  0  0
  -27.3570  -32.6350   25.9030 C   0  0  0  0  0  1  0  0  0  0  0  0
  -25.4230  -33.9340   24.1820 N   0  0  0  0  0  0  0  0  0  0  0  0
  -25.7580  -34.9770   23.4110 C   0  0  0  0  0  0  0  0  0  0  0  0
  -26.4700  -34.8690   22.4090 O   0  0  0  0  0  0  0  0  0  0  0  0
  -24.7990  -34.0910   24.9580 H   0  0  0  0  0  0  0  0  0  0  0  0
  -23.9930  -36.7080   22.9570 C   0  0  0  0  0  1  0  0  0  0  0  0
  -25.2170  -36.3610   23.8180 C   0  0  0  0  0  3  0  0  0  0  0  0
  -27.2960  -37.3290   24.6990 C   0  0  0  0  0  1  0  0  0  0  0  0
  -26.2240  -37.4410   23.7120 N   0  0  0  0  0  0  0  0  0  0  0  0
  -25.7860  -38.3520   23.8220 H   0  0  0  0  0  0  0  0  0  0  0  0
  -31.2360  -16.9650   20.7540 C   0  0  0  0  0  2  0  0  0  0  0  0
  -31.1310  -14.5790   20.3500 C   0  0  0  0  0  0  0  0  0  0  0  0
  -30.7120  -12.4340   19.2390 C   0  0  0  0  0  2  0  0  0  0  0  0
  -29.7880  -12.6670   18.0280 C   0  0  0  0  0  2  0  0  0  0  0  0
  -28.3120  -12.5810   18.4540 C   0  0  0  0  0  2  0  0  0  0  0  0
  -27.9960  -13.4290   19.7160 C   0  0  0  0  0  3  0  0  0  0  0  0
  -29.0510  -13.2200   20.8290 C   0  0  0  0  0  2  0  0  0  0  0  0
  -30.3810  -13.4500   20.2490 N   0  0  0  0  0  0  0  0  0  0  0  0
  -32.2500  -14.6740   19.8400 O   0  0  0  0  0  0  0  0  0  0  0  0
  -30.5550  -15.6700   20.8840 N   0  0  0  0  0  0  0  0  0  0  0  0
  -29.6480  -15.6080   21.3200 H   0  0  0  0  0  0  0  0  0  0  0  0
  -25.6180  -14.0760   20.4480 C   0  0  0  0  0  0  0  0  0  0  0  0
  -24.5380  -13.3270   20.8280 C   0  0  0  0  0  0  0  0  0  0  0  0
  -24.9660  -11.9660   20.7740 C   0  0  0  0  0  0  0  0  0  0  0  0
  -26.6410  -13.1750   20.2000 N   0  0  0  0  0  0  0  0  0  0  0  0
  -26.2520  -11.8990   20.4530 N   0  0  0  0  0  0  0  0  0  0  0  0
  -24.2080  -10.7200   20.9480 C   0  0  0  0  0  0  0  0  0  0  0  0
  -24.5990   -9.7470   21.8930 C   0  0  0  0  0  3  0  0  0  0  0  0
  -23.8430   -8.5660   22.0560 C   0  0  0  0  0  3  0  0  0  0  0  0
  -22.6840   -8.3510   21.2750 C   0  0  0  0  0  0  0  0  0  0  0  0
  -22.3130   -9.3130   20.3180 C   0  0  0  0  0  3  0  0  0  0  0  0
  -23.0690  -10.4840   20.1520 C   0  0  0  0  0  3  0  0  0  0  0  0
  -21.9020   -7.2230   21.3510 O   0  0  0  0  0  0  0  0  0  0  0  0
  -21.7730   -6.5130   22.5180 C   0  0  0  0  0  0  0  0  0  0  0  0
  -21.2830   -7.1080   23.7010 C   0  0  0  0  0  3  0  0  0  0  0  0
  -21.1010   -6.3260   24.8590 C   0  0  0  0  0  3  0  0  0  0  0  0
  -21.3990   -4.9500   24.8340 C   0  0  0  0  0  0  0  0  0  0  0  0
  -21.8830   -4.3560   23.6560 C   0  0  0  0  0  3  0  0  0  0  0  0
  -22.0670   -5.1350   22.5010 C   0  0  0  0  0  0  0  0  0  0  0  0
  -22.5140   -4.5520   21.3610 F   0  0  0  0  0  0  0  0  0  0  0  0
  -21.2170   -4.1980   25.9440 F   0  0  0  0  0  0  0  0  0  0  0  0
  -23.1530  -13.8380   21.1050 C   0  0  0  0  0  0  0  0  0  0  0  0
  -22.4120  -13.1610   21.9760 N   0  0  0  0  0  0  0  0  0  0  0  0
  -22.7420  -14.8740   20.5840 O   0  0  0  0  0  0  0  0  0  0  0  0
  -22.7580  -12.3230   22.4190 H   0  0  0  0  0  0  0  0  0  0  0  0
  -21.4840  -13.4880   22.2040 H   0  0  0  0  0  0  0  0  0  0  0  0
  -25.8030  -15.4380   20.2380 N   0  0  0  0  0  0  0  0  0  0  0  0
  -24.8970  -15.8870   20.3400 H   0  0  0  0  0  0  0  0  0  0  0  0
  -26.0920  -15.5070   19.2700 H   0  0  0  0  0  0  0  0  0  0  0  0
  -29.0170  -18.4100   19.1170 C   0  0  0  0  0  2  0  0  0  0  0  0
  -27.5630  -18.2100   19.2090 N   0  0  0  0  0  4  0  0  0  0  0  0
  -27.3210  -17.3930   19.7470 H   0  0  0  0  0  0  0  0  0  0  0  0
  -27.1800  -18.0930   18.2890 H   0  0  0  0  0  0  0  0  0  0  0  0
  -27.1250  -19.0080   19.6290 H   0  0  0  0  0  0  0  0  0  0  0  0
  2  1  1  0
  3  4  1  0
  4  7  1  0
  4  1  2  0
  5  2  2  0
  6  3  2  0
  6  5  1  0
  8 12  1  0
  8  9  1  0
  9  7  1  0
 10  8  2  0
 11  9  1  0
 12 13  1  0
 14 16  1  0
 14 13  1  0
 15 26  2  0
 16 21  1  0
 17 25  1  0
 17 27  1  0
 18 24  1  0
 18 20  1  0
 19 25  1  0
 20 19  1  0
 21 20  2  0
 22 23  1  0
 22 16  2  0
 23 18  2  0
 24 17  1  0
 25 15  1  0
 27 29  2  0
 28 27  1  0
 30 28  1  0
 31 40  2  0
 31 36  1  0
 32 28  1  0
 32 36  1  0
 33 32  1  0
 34 35  1  0
 34 33  1  0
 35 31  1  0
 36 37  2  0
 37 38  1  0
 39 38  2  0
 40 39  1  0
 41 15  1  0
 41 46  1  0
 41 42  1  0
 42 45  1  1
 42 43  1  0
 44 42  1  0
 46 49  1  0
 47 51  1  0
 47 46  1  0
 48 47  2  0
 51 50  1  0
 53 51  1  0
 53 54  1  0
 53 52  1  0
 55 64  1  0
 55  5  1  0
 56 64  1  0
 57 62  1  0
 58 59  1  0
 58 57  1  0
 60 59  1  0
 60 69  1  0
 60 61  1  0
 62 56  1  0
 62 61  1  0
 63 56  2  0
 64 65  1  0
 66 67  2  0
 67 86  1  0
 68 67  1  0
 68 71  1  0
 69 66  1  0
 69 70  1  0
 70 68  2  0
 71 72  1  0
 72 73  2  0
 74 77  1  0
 74 73  1  0
 75 74  2  0
 76 75  1  0
 76 71  2  0
 77 78  1  0
 78 79  1  0
 79 80  2  0
 81 80  1  0
 81 85  1  0
 82 81  2  0
 83 78  2  0
 83 82  1  0
 84 83  1  0
 86 87  1  0
 87 90  1  0
 87 89  1  0
 88 86  2  0
 91 92  1  0
 91 66  1  0
 93 91  1  0
 94 95  1  0
 94  6  1  0
 95 98  1  0
 95 96  1  0
 97 95  1  0
M  ISO  4  13 101  14 101  56 100  64 100
M  END
>  <TORSDO>  (22) 
F 23

>  <SCORE>  (22) 
-12.674

>  <name>  (22) 
21

>  <ligand_id>  (22) 
21

>  <original_smiles>  (22) 
[H]c1c([H])c([H])c2c(c1[H])C([H])([H])C([H])([H])C([H])([H])C2([H])N([H])C(=O)C1([H])N(C(=O)C([H])(N([H])C(=O)C([H])(N([H])C([H])([H])[H])C([H])([H])[H])C(C([H])([H])[H])(C([H])([H])[H])C([H])([H])[H])C([H])([H])c2c([H])c(OC([H])([H])C([H])([H])C(=O)N([H])C([H])([H])c3c([H])c([H])c(C([H])([H])N([H])C(=O)N4C([H])([H])C([H])([H])C([H])([H])C([H])(n5nc(-c6c([H])c([H])c(Oc7c([H])c([H])c(F)c([H])c7F)c([H])c6[H])c(C(=O)N([H])[H])c5N([H])[H])C4([H])[H])c(C([H])([H])[N+]([H])([H])[H])c3[H])c([H])c([H])c2C1([H])[H]

>  <smiles>  (22) 
[H]c1c([H])c([H])c2c(c1[H])C([H])([H])C([H])([H])C([H])([H])C2([H])N([H])C(=O)C1([H])N(C(=O)C([H])(N([H])C(=O)C([H])(N([H])C([H])([H])[H])C([H])([H])[H])C(C([H])([H])[H])(C([H])([H])[H])C([H])([H])[H])C([H])([H])c2c([H])c(OC([H])([H])C([H])([H])C(=O)N([H])C([H])([H])c3c([H])c([H])c(C([H])([H])N([H])C(=O)N4C([H])([H])C([H])([H])C([H])([H])C([H])(n5nc(-c6c([H])c([H])c(Oc7c([H])c([H])c(F)c([H])c7F)c([H])c6[H])c(C(=O)N([H])[H])c5N([H])[H])C4([H])[H])c(C([H])([H])[N+]([H])([H])[H])c3[H])c([H])c([H])c2C1([H])[H]

$$$$
22:0:0
     RDKit          3D

 98107  0  0  1  0  0  0  0  0999 V2000
  -30.9540  -21.9070   21.9540 C   0  0  0  0  0  2  0  0  0  0  0  0
  -30.5600  -23.3780   21.8450 C   0  0  0  0  0  2  0  0  0  0  0  0
  -30.4650  -21.2960   20.6450 C   0  0  0  0  0  3  0  0  0  0  0  0
  -29.6030  -23.4570   20.6370 C   0  0  0  0  0  3  0  0  0  0  0  0
  -28.7470  -21.8220   19.0500 C   0  0  0  0  0  1  0  0  0  0  0  0
  -29.2210  -22.0470   20.4150 N   0  0  0  0  0  0  0  0  0  0  0  0
  -29.3040  -19.0880   21.3080 C   0  0  0  0  0  3  0  0  0  0  0  0
  -29.2630  -17.6750   21.3470 C   0  0  0  0  0  3  0  0  0  0  0  0
  -31.3730  -17.5790   20.1520 C   0  0  0  0  0  3  0  0  0  0  0  0
  -30.3790  -19.7610   20.6850 C   0  0  0  0  0  0  0  0  0  0  0  0
  -30.2910  -16.8940   20.7650 C   0  0  0  0  0  0  0  0  0  0  0  0
  -31.4160  -18.9880   20.1170 C   0  0  0  0  0  0  0  0  0  0  0  0
  -32.4730  -19.5990   19.5260 F   0  0  0  0  0  0  0  0  0  0  0  0
  -30.8060  -14.5010   20.1240 C   0  0  0  0  0  0  0  0  0  0  0  0
  -30.4350  -12.3870   18.9100 C   0  0  0  0  0  2  0  0  0  0  0  0
  -29.4240  -12.6430   17.7730 C   0  0  0  0  0  2  0  0  0  0  0  0
  -27.9780  -12.4850   18.2840 C   0  0  0  0  0  2  0  0  0  0  0  0
  -27.7190  -13.2760   19.5950 C   0  0  0  0  0  3  0  0  0  0  0  0
  -28.8360  -13.0060   20.6290 C   0  0  0  0  0  2  0  0  0  0  0  0
  -30.1290  -13.3270   20.0000 N   0  0  0  0  0  0  0  0  0  0  0  0
  -31.8920  -14.6940   19.5720 O   0  0  0  0  0  0  0  0  0  0  0  0
  -30.1550  -15.4640   20.8140 N   0  0  0  0  0  0  0  0  0  0  0  0
  -29.3320  -15.1260   21.2910 H   0  0  0  0  0  0  0  0  0  0  0  0
  -25.3650  -13.8600   20.4580 C   0  0  0  0  0  0  0  0  0  0  0  0
  -24.3180  -13.0760   20.8650 C   0  0  0  0  0  0  0  0  0  0  0  0
  -24.7760  -11.7250   20.7660 C   0  0  0  0  0  0  0  0  0  0  0  0
  -26.3940  -12.9870   20.1400 N   0  0  0  0  0  0  0  0  0  0  0  0
  -26.0460  -11.6970   20.3830 N   0  0  0  0  0  0  0  0  0  0  0  0
  -24.0610  -10.4570   20.9620 C   0  0  0  0  0  0  0  0  0  0  0  0
  -24.5120   -9.4910   21.8860 C   0  0  0  0  0  3  0  0  0  0  0  0
  -23.7980   -8.2860   22.0690 C   0  0  0  0  0  3  0  0  0  0  0  0
  -22.6180   -8.0410   21.3260 C   0  0  0  0  0  0  0  0  0  0  0  0
  -22.1860   -8.9980   20.3900 C   0  0  0  0  0  3  0  0  0  0  0  0
  -22.9010  -10.1920   20.2050 C   0  0  0  0  0  3  0  0  0  0  0  0
  -21.8740   -6.8900   21.4180 O   0  0  0  0  0  0  0  0  0  0  0  0
  -21.7890   -6.1790   22.5890 C   0  0  0  0  0  0  0  0  0  0  0  0
  -21.3010   -6.7610   23.7790 C   0  0  0  0  0  3  0  0  0  0  0  0
  -21.1640   -5.9760   24.9410 C   0  0  0  0  0  3  0  0  0  0  0  0
  -21.5060   -4.6110   24.9140 C   0  0  0  0  0  0  0  0  0  0  0  0
  -21.9890   -4.0290   23.7290 C   0  0  0  0  0  3  0  0  0  0  0  0
  -22.1270   -4.8110   22.5690 C   0  0  0  0  0  0  0  0  0  0  0  0
  -22.5720   -4.2410   21.4230 F   0  0  0  0  0  0  0  0  0  0  0  0
  -21.3680   -3.8550   26.0280 F   0  0  0  0  0  0  0  0  0  0  0  0
  -22.9400  -13.5430   21.2340 C   0  0  0  0  0  0  0  0  0  0  0  0
  -22.2640  -12.8220   22.1220 N   0  0  0  0  0  0  0  0  0  0  0  0
  -22.4720  -14.5820   20.7710 O   0  0  0  0  0  0  0  0  0  0  0  0
  -22.6560  -11.9810   22.5190 H   0  0  0  0  0  0  0  0  0  0  0  0
  -21.3430  -13.1180   22.4120 H   0  0  0  0  0  0  0  0  0  0  0  0
  -25.5200  -15.2350   20.3120 N   0  0  0  0  0  0  0  0  0  0  0  0
  -24.7620  -15.8860   20.4830 H   0  0  0  0  0  0  0  0  0  0  0  0
  -26.3520  -15.6830   19.9470 H   0  0  0  0  0  0  0  0  0  0  0  0
  -28.3700  -24.3910   20.8170 C   0  0  0  0  0  3  0  0  0  0  0  0
  -27.5020  -23.8220   21.8680 N   0  0  0  0  0  4  0  0  0  0  0  0
  -27.9030  -23.9290   22.7830 H   0  0  0  0  0  0  0  0  0  0  0  0
  -27.4320  -22.8350   21.6780 H   0  0  0  0  0  0  0  0  0  0  0  0
  -26.5810  -24.2270   21.8590 H   0  0  0  0  0  0  0  0  0  0  0  0
  -28.7110  -25.8930   21.0840 C   0  0  0  0  0  2  0  0  0  0  0  0
  -28.4970  -26.7310   19.9380 O   0  0  0  0  0  0  0  0  0  0  0  0
  -24.5970  -31.7780   23.1280 C   0  0  0  0  0  0  0  0  0  0  0  0
  -27.3300  -27.4590   19.9690 C   0  0  0  0  0  0  0  0  0  0  0  0
  -23.4210  -30.3950   21.4460 C   0  0  0  0  0  3  0  0  0  0  0  0
  -24.9100  -28.9140   19.9950 C   0  0  0  0  0  0  0  0  0  0  0  0
  -25.9390  -30.8030   21.2710 C   0  0  0  0  0  2  0  0  0  0  0  0
  -26.0520  -29.4460   20.6060 C   0  0  0  0  0  0  0  0  0  0  0  0
  -27.2670  -28.7240   20.5940 C   0  0  0  0  0  3  0  0  0  0  0  0
  -26.1770  -26.9390   19.3470 C   0  0  0  0  0  3  0  0  0  0  0  0
  -24.9650  -27.6580   19.3640 C   0  0  0  0  0  3  0  0  0  0  0  0
  -23.6500  -29.7490   20.0520 C   0  0  0  0  0  2  0  0  0  0  0  0
  -24.6700  -31.0060   22.0070 N   0  0  0  0  0  0  0  0  0  0  0  0
  -23.5090  -32.0190   23.6700 O   0  0  0  0  0  0  0  0  0  0  0  0
  -22.7820  -29.3420   22.3790 C   0  0  0  0  0  0  0  0  0  0  0  0
  -21.4550  -29.1720   22.2690 N   0  0  0  0  0  0  0  0  0  0  0  0
  -23.4770  -28.6810   23.1550 O   0  0  0  0  0  0  0  0  0  0  0  0
  -20.9550  -29.7580   21.6140 H   0  0  0  0  0  0  0  0  0  0  0  0
  -18.0770  -28.0110   22.8100 C   0  0  0  0  0  0  0  0  0  0  0  0
  -20.6460  -28.2110   23.0160 C   0  0  0  0  0  3  0  0  0  0  0  0
  -20.7050  -26.8090   22.3670 C   0  0  0  0  0  2  0  0  0  0  0  0
  -19.5690  -26.5570   21.3710 C   0  0  0  0  0  2  0  0  0  0  0  0
  -18.2080  -26.6940   22.0630 C   0  0  0  0  0  2  0  0  0  0  0  0
  -19.2220  -28.7310   23.2440 C   0  0  0  0  0  0  0  0  0  0  0  0
  -19.0460  -29.9660   23.9030 C   0  0  0  0  0  3  0  0  0  0  0  0
  -17.7560  -30.4830   24.1330 C   0  0  0  0  0  3  0  0  0  0  0  0
  -16.6270  -29.7580   23.7160 C   0  0  0  0  0  3  0  0  0  0  0  0
  -16.7870  -28.5250   23.0610 C   0  0  0  0  0  3  0  0  0  0  0  0
  -25.8720  -32.4130   23.7690 C   0  0  0  0  0  3  0  0  0  0  0  0
  -26.3940  -31.6210   25.0310 C   0  0  1  0  0  0  0  0  0  0  0  0
  -25.3020  -31.3570   26.0920 C   0  0  0  0  0  1  0  0  0  0  0  0
  -26.9870  -30.2560   24.6110 C   0  0  0  0  0  1  0  0  0  0  0  0
  -27.5370  -32.4120   25.7090 C   0  0  0  0  0  1  0  0  0  0  0  0
  -25.5450  -33.7990   24.1230 N   0  0  0  0  0  0  0  0  0  0  0  0
  -25.8660  -34.8690   23.3830 C   0  0  0  0  0  0  0  0  0  0  0  0
  -26.5420  -34.7930   22.3540 O   0  0  0  0  0  0  0  0  0  0  0  0
  -24.9450  -33.9330   24.9250 H   0  0  0  0  0  0  0  0  0  0  0  0
  -24.1190  -36.6460   23.0450 C   0  0  0  0  0  1  0  0  0  0  0  0
  -25.3580  -36.2420   23.8620 C   0  0  0  0  0  3  0  0  0  0  0  0
  -27.4730  -37.1380   24.7290 C   0  0  0  0  0  1  0  0  0  0  0  0
  -26.3780  -37.3090   23.7780 N   0  0  0  0  0  0  0  0  0  0  0  0
  -25.9590  -38.2200   23.9400 H   0  0  0  0  0  0  0  0  0  0  0  0
  2  1  1  0
  3 10  1  0
  3  1  1  0
  4 52  1  0
  4  2  1  0
  5  6  1  0
  6  4  1  0
  6  3  1  0
  7  8  1  0
  9 11  1  0
 10  7  2  0
 11 22  1  0
 11  8  2  0
 12  9  2  0
 12 10  1  0
 13 12  1  0
 14 22  1  0
 15 20  1  0
 16 17  1  0
 16 15  1  0
 18 17  1  0
 18 27  1  0
 18 19  1  0
 20 14  1  0
 20 19  1  0
 21 14  2  0
 22 23  1  0
 24 25  2  0
 25 44  1  0
 26 25  1  0
 26 29  1  0
 27 28  1  0
 27 24  1  0
 28 26  2  0
 29 30  1  0
 30 31  2  0
 32 35  1  0
 32 31  1  0
 33 32  2  0
 34 33  1  0
 34 29  2  0
 35 36  1  0
 36 37  1  0
 37 38  2  0
 39 38  1  0
 39 43  1  0
 40 39  2  0
 41 36  2  0
 41 40  1  0
 42 41  1  0
 44 45  1  0
 45 48  1  0
 45 47  1  0
 46 44  2  0
 49 24  1  0
 49 50  1  0
 51 49  1  0
 52 57  1  0
 52 53  1  0
 53 54  1  0
 55 53  1  0
 56 53  1  0
 58 60  1  0
 58 57  1  0
 59 70  2  0
 60 65  1  0
 61 69  1  0
 61 71  1  0
 62 68  1  0
 62 64  1  0
 63 69  1  0
 64 63  1  0
 65 64  2  0
 66 67  1  0
 66 60  2  0
 67 62  2  0
 68 61  1  0
 69 59  1  0
 71 73  2  0
 72 71  1  0
 74 72  1  0
 75 84  2  0
 75 80  1  0
 76 72  1  0
 76 80  1  0
 77 76  1  0
 78 79  1  0
 78 77  1  0
 79 75  1  0
 80 81  2  0
 81 82  1  0
 83 82  2  0
 84 83  1  0
 85 59  1  0
 85 90  1  0
 85 86  1  0
 86 89  1  1
 86 87  1  0
 88 86  1  0
 90 93  1  0
 91 95  1  0
 91 90  1  0
 92 91  2  0
 95 94  1  0
 97 95  1  0
 97 98  1  0
 97 96  1  0
M  ISO  4  14 100  22 100  57 101  58 101
M  END
>  <TORSDO>  (23) 
F 20

>  <SCORE>  (23) 
-13.602

>  <name>  (23) 
22

>  <ligand_id>  (23) 
22

>  <original_smiles>  (23) 
[H]c1c([H])c([H])c2c(c1[H])C([H])([H])C([H])([H])C([H])([H])C2([H])N([H])C(=O)C1([H])N(C(=O)C([H])(N([H])C(=O)C([H])(N([H])C([H])([H])[H])C([H])([H])[H])C(C([H])([H])[H])(C([H])([H])[H])C([H])([H])[H])C([H])([H])c2c([H])c(OC([H])([H])C([H])(C3([H])N(C([H])([H])[H])C([H])(c4c([H])c([H])c(N([H])C(=O)N5C([H])([H])C([H])([H])C([H])([H])C([H])(n6nc(-c7c([H])c([H])c(Oc8c([H])c([H])c(F)c([H])c8F)c([H])c7[H])c(C(=O)N([H])[H])c6N([H])[H])C5([H])[H])c([H])c4F)C([H])([H])C3([H])[H])[N+]([H])([H])[H])c([H])c([H])c2C1([H])[H]

>  <smiles>  (23) 
[H]c1c([H])c([H])c2c(c1[H])C([H])([H])C([H])([H])C([H])([H])C2([H])N([H])C(=O)C1([H])N(C(=O)C([H])(N([H])C(=O)C([H])(N([H])C([H])([H])[H])C([H])([H])[H])C(C([H])([H])[H])(C([H])([H])[H])C([H])([H])[H])C([H])([H])c2c([H])c(OC([H])([H])C([H])(C3([H])N(C([H])([H])[H])C([H])(c4c([H])c([H])c(N([H])C(=O)N5C([H])([H])C([H])([H])C([H])([H])C([H])(n6nc(-c7c([H])c([H])c(Oc8c([H])c([H])c(F)c([H])c8F)c([H])c7[H])c(C(=O)N([H])[H])c6N([H])[H])C5([H])[H])c([H])c4F)C([H])([H])C3([H])[H])[N+]([H])([H])[H])c([H])c([H])c2C1([H])[H]

$$$$
23:0:0
     RDKit          3D

 95103  0  0  1  0  0  0  0  0999 V2000
  -28.4820  -24.1420   21.8700 C   0  0  0  0  0  1  0  0  0  0  0  0
  -28.3860  -23.9140   20.3350 C   0  0  2  0  0  0  0  0  0  0  0  0
  -26.9940  -23.6520   19.9060 N   0  0  0  0  0  4  0  0  0  0  0  0
  -26.3640  -24.3780   20.2000 H   0  0  0  0  0  0  0  0  0  0  0  0
  -26.6780  -22.7770   20.2850 H   0  0  0  0  0  0  0  0  0  0  0  0
  -26.9530  -23.5590   18.9030 H   0  0  0  0  0  0  0  0  0  0  0  0
  -29.2170  -22.5750   19.9460 C   0  0  0  0  0  0  0  0  0  0  0  0
  -27.7150  -20.9200   21.1520 C   0  0  0  0  0  1  0  0  0  0  0  0
  -28.8770  -21.2600   20.3110 N   0  0  0  0  0  0  0  0  0  0  0  0
  -30.2240  -22.7430   19.2540 O   0  0  0  0  0  0  0  0  0  0  0  0
  -30.1090  -17.9900   18.5480 C   0  0  0  0  0  2  0  0  0  0  0  0
  -29.5590  -19.4580   18.5540 C   0  0  0  0  0  2  0  0  0  0  0  0
  -29.5700  -18.6550   20.7940 C   0  0  0  0  0  2  0  0  0  0  0  0
  -30.3390  -17.5140   20.0050 C   0  0  0  0  0  3  0  0  0  0  0  0
  -29.7270  -20.0190   19.9810 C   0  0  0  0  0  3  0  0  0  0  0  0
  -30.8080  -14.9310   20.0470 C   0  0  0  0  0  0  0  0  0  0  0  0
  -30.6140  -12.6570   19.0490 C   0  0  0  0  0  2  0  0  0  0  0  0
  -29.6380  -12.7350   17.8550 C   0  0  0  0  0  2  0  0  0  0  0  0
  -28.1790  -12.5700   18.3250 C   0  0  0  0  0  2  0  0  0  0  0  0
  -27.8410  -13.4350   19.5690 C   0  0  0  0  0  3  0  0  0  0  0  0
  -28.9360  -13.3320   20.6540 C   0  0  0  0  0  2  0  0  0  0  0  0
  -30.2060  -13.6970   20.0170 N   0  0  0  0  0  0  0  0  0  0  0  0
  -31.9840  -15.0530   19.6920 O   0  0  0  0  0  0  0  0  0  0  0  0
  -30.0070  -16.0420   20.2480 N   0  0  0  0  0  0  0  0  0  0  0  0
  -29.0470  -15.8340   20.4790 H   0  0  0  0  0  0  0  0  0  0  0  0
  -25.4750  -14.0110   20.3740 C   0  0  0  0  0  0  0  0  0  0  0  0
  -24.4250  -13.2300   20.7690 C   0  0  0  0  0  0  0  0  0  0  0  0
  -24.8910  -11.8810   20.7090 C   0  0  0  0  0  0  0  0  0  0  0  0
  -26.5150  -13.1380   20.0970 N   0  0  0  0  0  0  0  0  0  0  0  0
  -26.1720  -11.8510   20.3590 N   0  0  0  0  0  0  0  0  0  0  0  0
  -24.1740  -10.6160   20.9070 C   0  0  0  0  0  0  0  0  0  0  0  0
  -24.5910   -9.6720   21.8740 C   0  0  0  0  0  3  0  0  0  0  0  0
  -23.8740   -8.4710   22.0580 C   0  0  0  0  0  3  0  0  0  0  0  0
  -22.7250   -8.2040   21.2770 C   0  0  0  0  0  0  0  0  0  0  0  0
  -22.3280   -9.1330   20.3000 C   0  0  0  0  0  3  0  0  0  0  0  0
  -23.0460  -10.3260   20.1140 C   0  0  0  0  0  3  0  0  0  0  0  0
  -21.9800   -7.0530   21.3690 O   0  0  0  0  0  0  0  0  0  0  0  0
  -21.8400   -6.3790   22.5550 C   0  0  0  0  0  0  0  0  0  0  0  0
  -21.2850   -6.9940   23.6990 C   0  0  0  0  0  3  0  0  0  0  0  0
  -21.0950   -6.2450   24.8780 C   0  0  0  0  0  3  0  0  0  0  0  0
  -21.4510   -4.8830   24.9130 C   0  0  0  0  0  0  0  0  0  0  0  0
  -22.0000   -4.2690   23.7740 C   0  0  0  0  0  3  0  0  0  0  0  0
  -22.1920   -5.0150   22.5980 C   0  0  0  0  0  0  0  0  0  0  0  0
  -22.7000   -4.4120   21.4960 F   0  0  0  0  0  0  0  0  0  0  0  0
  -21.2620   -4.1620   26.0430 F   0  0  0  0  0  0  0  0  0  0  0  0
  -23.0360  -13.6980   21.0920 C   0  0  0  0  0  0  0  0  0  0  0  0
  -22.3430  -12.9950   21.9800 N   0  0  0  0  0  0  0  0  0  0  0  0
  -22.5780  -14.7260   20.5950 O   0  0  0  0  0  0  0  0  0  0  0  0
  -22.7280  -12.1620   22.4030 H   0  0  0  0  0  0  0  0  0  0  0  0
  -21.4140  -13.2920   22.2380 H   0  0  0  0  0  0  0  0  0  0  0  0
  -25.6230  -15.3860   20.2010 N   0  0  0  0  0  0  0  0  0  0  0  0
  -24.8420  -16.0240   20.3190 H   0  0  0  0  0  0  0  0  0  0  0  0
  -26.4340  -15.8330   19.7960 H   0  0  0  0  0  0  0  0  0  0  0  0
  -28.8420  -25.3160   19.6380 C   0  0  0  0  0  2  0  0  0  0  0  0
  -28.6480  -26.6680   20.2620 O   0  0  0  0  0  0  0  0  0  0  0  0
  -24.7760  -31.9450   23.2930 C   0  0  0  0  0  0  0  0  0  0  0  0
  -27.4950  -27.4740   20.1710 C   0  0  0  0  0  0  0  0  0  0  0  0
  -23.6130  -30.5520   21.6210 C   0  0  0  0  0  3  0  0  0  0  0  0
  -25.1010  -29.0500   20.1730 C   0  0  0  0  0  0  0  0  0  0  0  0
  -26.1430  -30.9190   21.4580 C   0  0  0  0  0  2  0  0  0  0  0  0
  -26.2520  -29.5490   20.7910 C   0  0  0  0  0  0  0  0  0  0  0  0
  -27.4480  -28.7690   20.7840 C   0  0  0  0  0  3  0  0  0  0  0  0
  -26.3250  -27.0360   19.5150 C   0  0  0  0  0  3  0  0  0  0  0  0
  -25.1410  -27.8030   19.5240 C   0  0  0  0  0  3  0  0  0  0  0  0
  -23.8470  -29.9010   20.2290 C   0  0  0  0  0  2  0  0  0  0  0  0
  -24.8630  -31.1550   22.1820 N   0  0  0  0  0  0  0  0  0  0  0  0
  -23.6820  -32.1900   23.8240 O   0  0  0  0  0  0  0  0  0  0  0  0
  -22.9560  -29.5080   22.5570 C   0  0  0  0  0  0  0  0  0  0  0  0
  -21.6340  -29.3160   22.4170 N   0  0  0  0  0  0  0  0  0  0  0  0
  -23.6350  -28.8750   23.3680 O   0  0  0  0  0  0  0  0  0  0  0  0
  -21.1390  -29.8830   21.7440 H   0  0  0  0  0  0  0  0  0  0  0  0
  -18.2700  -28.0720   22.8800 C   0  0  0  0  0  0  0  0  0  0  0  0
  -20.8240  -28.3510   23.1630 C   0  0  0  0  0  3  0  0  0  0  0  0
  -20.9420  -26.9330   22.5560 C   0  0  0  0  0  2  0  0  0  0  0  0
  -19.8470  -26.6240   21.5300 C   0  0  0  0  0  2  0  0  0  0  0  0
  -18.4620  -26.7400   22.1740 C   0  0  0  0  0  2  0  0  0  0  0  0
  -19.3790  -28.8350   23.3300 C   0  0  0  0  0  0  0  0  0  0  0  0
  -19.1430  -30.0820   23.9500 C   0  0  0  0  0  3  0  0  0  0  0  0
  -17.8320  -30.5620   24.1290 C   0  0  0  0  0  3  0  0  0  0  0  0
  -16.7370  -29.7930   23.6980 C   0  0  0  0  0  3  0  0  0  0  0  0
  -16.9570  -28.5520   23.0760 C   0  0  0  0  0  3  0  0  0  0  0  0
  -26.0380  -32.5930   23.9370 C   0  0  0  0  0  3  0  0  0  0  0  0
  -26.5370  -31.8340   25.2280 C   0  0  1  0  0  0  0  0  0  0  0  0
  -25.4220  -31.5820   26.2710 C   0  0  0  0  0  1  0  0  0  0  0  0
  -27.1510  -30.4650   24.8540 C   0  0  0  0  0  1  0  0  0  0  0  0
  -27.6620  -32.6450   25.9140 C   0  0  0  0  0  1  0  0  0  0  0  0
  -25.7080  -33.9900   24.2560 N   0  0  0  0  0  0  0  0  0  0  0  0
  -26.0380  -35.0440   23.4980 C   0  0  0  0  0  0  0  0  0  0  0  0
  -26.7170  -34.9450   22.4730 O   0  0  0  0  0  0  0  0  0  0  0  0
  -25.1080  -34.1400   25.0530 H   0  0  0  0  0  0  0  0  0  0  0  0
  -24.2940  -36.8200   23.1290 C   0  0  0  0  0  1  0  0  0  0  0  0
  -25.5340  -36.4290   23.9500 C   0  0  0  0  0  3  0  0  0  0  0  0
  -27.6530  -37.3400   24.7950 C   0  0  0  0  0  1  0  0  0  0  0  0
  -26.5560  -37.4940   23.8420 N   0  0  0  0  0  0  0  0  0  0  0  0
  -26.1380  -38.4100   23.9840 H   0  0  0  0  0  0  0  0  0  0  0  0
  2  1  1  1
  3  4  1  0
  3  5  1  0
  3  2  1  0
  6  3  1  0
  7  9  1  0
  7  2  1  0
  9  8  1  0
 10  7  2  0
 11 12  1  0
 11 14  1  0
 12 15  1  0
 14 24  1  0
 14 13  1  0
 15  9  1  0
 15 13  1  0
 16 24  1  0
 17 22  1  0
 18 19  1  0
 18 17  1  0
 20 19  1  0
 20 29  1  0
 20 21  1  0
 22 16  1  0
 22 21  1  0
 23 16  2  0
 24 25  1  0
 26 27  2  0
 27 46  1  0
 28 27  1  0
 28 31  1  0
 29 30  1  0
 29 26  1  0
 30 28  2  0
 31 32  1  0
 32 33  2  0
 34 37  1  0
 34 33  1  0
 35 34  2  0
 36 35  1  0
 36 31  2  0
 37 38  1  0
 38 43  2  0
 38 39  1  0
 39 40  2  0
 40 41  1  0
 41 45  1  0
 42 41  2  0
 43 42  1  0
 44 43  1  0
 46 47  1  0
 47 50  1  0
 47 49  1  0
 48 46  2  0
 51 52  1  0
 51 26  1  0
 53 51  1  0
 54 55  1  0
 54  2  1  0
 56 67  2  0
 57 55  1  0
 57 62  1  0
 58 66  1  0
 58 68  1  0
 59 65  1  0
 59 61  1  0
 60 66  1  0
 61 60  1  0
 62 61  2  0
 63 64  1  0
 63 57  2  0
 64 59  2  0
 65 58  1  0
 66 56  1  0
 68 70  2  0
 69 68  1  0
 71 69  1  0
 72 81  2  0
 72 77  1  0
 73 69  1  0
 73 77  1  0
 74 73  1  0
 75 76  1  0
 75 74  1  0
 76 72  1  0
 77 78  2  0
 78 79  1  0
 80 79  2  0
 81 80  1  0
 82 56  1  0
 82 87  1  0
 82 83  1  0
 83 86  1  1
 83 84  1  0
 85 83  1  0
 87 90  1  0
 88 92  1  0
 88 87  1  0
 89 88  2  0
 92 91  1  0
 94 92  1  0
 94 95  1  0
 94 93  1  0
M  ISO  4  16 100  24 100  54 101  55 101
M  END
>  <TORSDO>  (24) 
F 20

>  <SCORE>  (24) 
-13.293

>  <name>  (24) 
23

>  <ligand_id>  (24) 
23

>  <original_smiles>  (24) 
[H]c1c([H])c([H])c2c(c1[H])C([H])([H])C([H])([H])C([H])([H])C2([H])N([H])C(=O)C1([H])N(C(=O)C([H])(N([H])C(=O)C([H])(N([H])C([H])([H])[H])C([H])([H])[H])C(C([H])([H])[H])(C([H])([H])[H])C([H])([H])[H])C([H])([H])c2c([H])c(OC([H])([H])C(C(=O)N(C([H])([H])[H])C3([H])C([H])([H])C([H])([H])C([H])(N([H])C(=O)N4C([H])([H])C([H])([H])C([H])([H])C([H])(n5nc(-c6c([H])c([H])c(Oc7c([H])c([H])c(F)c([H])c7F)c([H])c6[H])c(C(=O)N([H])[H])c5N([H])[H])C4([H])[H])C3([H])[H])(C([H])([H])[H])[N+]([H])([H])[H])c([H])c([H])c2C1([H])[H]

>  <smiles>  (24) 
[H]c1c([H])c([H])c2c(c1[H])C([H])([H])C([H])([H])C([H])([H])C2([H])N([H])C(=O)C1([H])N(C(=O)C([H])(N([H])C(=O)C([H])(N([H])C([H])([H])[H])C([H])([H])[H])C(C([H])([H])[H])(C([H])([H])[H])C([H])([H])[H])C([H])([H])c2c([H])c(OC([H])([H])C(C(=O)N(C([H])([H])[H])C3([H])C([H])([H])C([H])([H])C([H])(N([H])C(=O)N4C([H])([H])C([H])([H])C([H])([H])C([H])(n5nc(-c6c([H])c([H])c(Oc7c([H])c([H])c(F)c([H])c7F)c([H])c6[H])c(C(=O)N([H])[H])c5N([H])[H])C4([H])[H])C3([H])[H])(C([H])([H])[H])[N+]([H])([H])[H])c([H])c([H])c2C1([H])[H]

$$$$
24:0:0
     RDKit          3D

 96104  0  0  1  0  0  0  0  0999 V2000
  -28.8470  -19.3980   20.2270 C   0  0  0  0  0  3  0  0  0  0  0  0
  -28.7780  -17.9780   20.3310 C   0  0  0  0  0  3  0  0  0  0  0  0
  -31.1230  -17.8820   20.8350 C   0  0  0  0  0  3  0  0  0  0  0  0
  -31.2020  -19.3100   20.7630 C   0  0  0  0  0  0  0  0  0  0  0  0
  -30.0520  -20.1170   20.4530 C   0  0  0  0  0  0  0  0  0  0  0  0
  -29.9130  -17.1800   20.6240 C   0  0  0  0  0  0  0  0  0  0  0  0
  -30.5910  -14.6910   20.4290 C   0  0  0  0  0  0  0  0  0  0  0  0
  -30.3800  -12.4610   19.3540 C   0  0  0  0  0  2  0  0  0  0  0  0
  -29.4280  -12.5950   18.1460 C   0  0  0  0  0  2  0  0  0  0  0  0
  -27.9550  -12.4410   18.5780 C   0  0  0  0  0  2  0  0  0  0  0  0
  -27.6030  -13.2970   19.8230 C   0  0  0  0  0  3  0  0  0  0  0  0
  -28.6670  -13.1300   20.9310 C   0  0  0  0  0  2  0  0  0  0  0  0
  -29.9760  -13.4700   20.3510 N   0  0  0  0  0  0  0  0  0  0  0  0
  -31.7560  -14.8550   20.0550 O   0  0  0  0  0  0  0  0  0  0  0  0
  -29.7650  -15.7350   20.7470 N   0  0  0  0  0  0  0  0  0  0  0  0
  -28.8290  -15.4250   20.9570 H   0  0  0  0  0  0  0  0  0  0  0  0
  -25.2140  -13.9010   20.5580 C   0  0  0  0  0  0  0  0  0  0  0  0
  -24.1460  -13.1280   20.9240 C   0  0  0  0  0  0  0  0  0  0  0  0
  -24.6030  -11.7750   20.8770 C   0  0  0  0  0  0  0  0  0  0  0  0
  -26.2550  -13.0190   20.3090 N   0  0  0  0  0  0  0  0  0  0  0  0
  -25.8920  -11.7350   20.5620 N   0  0  0  0  0  0  0  0  0  0  0  0
  -23.8720  -10.5140   21.0560 C   0  0  0  0  0  0  0  0  0  0  0  0
  -24.2990   -9.5390   21.9840 C   0  0  0  0  0  3  0  0  0  0  0  0
  -23.5710   -8.3420   22.1510 C   0  0  0  0  0  3  0  0  0  0  0  0
  -22.4000   -8.1120   21.3910 C   0  0  0  0  0  0  0  0  0  0  0  0
  -21.9920   -9.0750   20.4510 C   0  0  0  0  0  3  0  0  0  0  0  0
  -22.7220  -10.2640   20.2810 C   0  0  0  0  0  3  0  0  0  0  0  0
  -21.6420   -6.9680   21.4670 O   0  0  0  0  0  0  0  0  0  0  0  0
  -21.5740   -6.2280   22.6200 C   0  0  0  0  0  0  0  0  0  0  0  0
  -21.0990   -6.7760   23.8310 C   0  0  0  0  0  3  0  0  0  0  0  0
  -20.9790   -5.9600   24.9740 C   0  0  0  0  0  3  0  0  0  0  0  0
  -21.3230   -4.5970   24.9070 C   0  0  0  0  0  0  0  0  0  0  0  0
  -21.7910   -4.0480   23.7000 C   0  0  0  0  0  3  0  0  0  0  0  0
  -21.9130   -4.8600   22.5590 C   0  0  0  0  0  0  0  0  0  0  0  0
  -22.3440   -4.3220   21.3930 F   0  0  0  0  0  0  0  0  0  0  0  0
  -21.2010   -3.8110   26.0020 F   0  0  0  0  0  0  0  0  0  0  0  0
  -22.7510  -13.6080   21.2060 C   0  0  0  0  0  0  0  0  0  0  0  0
  -22.0240  -12.9050   22.0680 N   0  0  0  0  0  0  0  0  0  0  0  0
  -22.3140  -14.6390   20.6970 O   0  0  0  0  0  0  0  0  0  0  0  0
  -22.3900  -12.0710   22.5030 H   0  0  0  0  0  0  0  0  0  0  0  0
  -21.0870  -13.2060   22.2970 H   0  0  0  0  0  0  0  0  0  0  0  0
  -25.3810  -15.2730   20.3900 N   0  0  0  0  0  0  0  0  0  0  0  0
  -24.6110  -15.9230   20.5030 H   0  0  0  0  0  0  0  0  0  0  0  0
  -26.2080  -15.7050   20.0000 H   0  0  0  0  0  0  0  0  0  0  0  0
  -32.5560  -19.9270   20.9720 C   0  0  0  0  0  0  0  0  0  0  0  0
  -33.1800  -19.5720   22.0850 N   0  0  0  0  0  0  0  0  0  0  0  0
  -33.0390  -20.7300   20.1760 O   0  0  0  0  0  0  0  0  0  0  0  0
  -32.7350  -18.9330   22.7290 H   0  0  0  0  0  0  0  0  0  0  0  0
  -34.0910  -19.9480   22.3050 H   0  0  0  0  0  0  0  0  0  0  0  0
  -30.1500  -21.6950   20.2950 C   0  0  0  0  0  2  0  0  0  0  0  0
  -28.3880  -22.3670   21.9130 C   0  0  0  0  0  1  0  0  0  0  0  0
  -28.9800  -22.6230   20.5750 N   0  0  1  0  0  4  0  0  0  0  0  0
  -28.2790  -22.3790   19.8920 H   0  0  0  0  0  0  0  0  0  0  0  0
  -29.2980  -24.1110   20.3840 C   0  0  0  0  0  3  0  0  0  0  0  0
  -28.0850  -25.0920   20.0810 C   0  0  0  0  0  3  0  0  0  0  0  0
  -28.3020  -26.5540   20.1600 O   0  0  0  0  0  0  0  0  0  0  0  0
  -24.5550  -31.8960   23.2280 C   0  0  0  0  0  0  0  0  0  0  0  0
  -27.1690  -27.3840   20.1210 C   0  0  0  0  0  0  0  0  0  0  0  0
  -23.3460  -30.5050   21.5840 C   0  0  0  0  0  3  0  0  0  0  0  0
  -24.7920  -28.9740   20.1400 C   0  0  0  0  0  0  0  0  0  0  0  0
  -25.8820  -30.8390   21.3860 C   0  0  0  0  0  2  0  0  0  0  0  0
  -25.9620  -29.4680   20.7290 C   0  0  0  0  0  0  0  0  0  0  0  0
  -27.1540  -28.6860   20.7080 C   0  0  0  0  0  3  0  0  0  0  0  0
  -25.9710  -26.9410   19.5090 C   0  0  0  0  0  3  0  0  0  0  0  0
  -24.7980  -27.7160   19.5200 C   0  0  0  0  0  3  0  0  0  0  0  0
  -23.5530  -29.8400   20.1980 C   0  0  0  0  0  2  0  0  0  0  0  0
  -24.6130  -31.0960   22.1240 N   0  0  0  0  0  0  0  0  0  0  0  0
  -23.4750  -32.1650   23.7710 O   0  0  0  0  0  0  0  0  0  0  0  0
  -22.6930  -29.4780   22.5420 C   0  0  0  0  0  0  0  0  0  0  0  0
  -21.3690  -29.2920   22.4170 N   0  0  0  0  0  0  0  0  0  0  0  0
  -23.3790  -28.8530   23.3550 O   0  0  0  0  0  0  0  0  0  0  0  0
  -20.8760  -29.8490   21.7320 H   0  0  0  0  0  0  0  0  0  0  0  0
  -17.9980  -28.0860   22.9300 C   0  0  0  0  0  0  0  0  0  0  0  0
  -20.5570  -28.3480   23.1860 C   0  0  0  0  0  3  0  0  0  0  0  0
  -20.6590  -26.9200   22.6000 C   0  0  0  0  0  2  0  0  0  0  0  0
  -19.5510  -26.6040   21.5910 C   0  0  0  0  0  2  0  0  0  0  0  0
  -18.1730  -26.7420   22.2440 C   0  0  0  0  0  2  0  0  0  0  0  0
  -19.1180  -28.8460   23.3580 C   0  0  0  0  0  0  0  0  0  0  0  0
  -18.9000  -30.1040   23.9610 C   0  0  0  0  0  3  0  0  0  0  0  0
  -17.5950  -30.6020   24.1380 C   0  0  0  0  0  3  0  0  0  0  0  0
  -16.4900  -29.8380   23.7250 C   0  0  0  0  0  3  0  0  0  0  0  0
  -16.6930  -28.5810   23.1260 C   0  0  0  0  0  3  0  0  0  0  0  0
  -25.8410  -32.5270   23.8470 C   0  0  0  0  0  3  0  0  0  0  0  0
  -25.5340  -33.9250   24.1740 N   0  0  0  0  0  0  0  0  0  0  0  0
  -25.8600  -34.9760   23.4080 C   0  0  0  0  0  0  0  0  0  0  0  0
  -26.5220  -34.8690   22.3730 O   0  0  0  0  0  0  0  0  0  0  0  0
  -24.9440  -34.0830   24.9780 H   0  0  0  0  0  0  0  0  0  0  0  0
  -24.1340  -36.7720   23.0580 C   0  0  0  0  0  1  0  0  0  0  0  0
  -25.3760  -36.3660   23.8660 C   0  0  0  0  0  3  0  0  0  0  0  0
  -27.5110  -37.2530   24.6930 C   0  0  0  0  0  1  0  0  0  0  0  0
  -26.4110  -37.4170   23.7480 N   0  0  0  0  0  0  0  0  0  0  0  0
  -26.0060  -38.3390   23.8890 H   0  0  0  0  0  0  0  0  0  0  0  0
  -26.3570  -31.7570   25.1250 C   0  0  1  0  0  0  0  0  0  0  0  0
  -25.2640  -31.5220   26.1930 C   0  0  0  0  0  1  0  0  0  0  0  0
  -26.9390  -30.3780   24.7350 C   0  0  0  0  0  1  0  0  0  0  0  0
  -27.5080  -32.5520   25.7840 C   0  0  0  0  0  1  0  0  0  0  0  0
  1  2  2  0
  1  5  1  0
  2  6  1  0
  4  3  1  0
  4 45  1  0
  5  4  2  0
  6 15  1  0
  6  3  2  0
  7 15  1  0
  8 13  1  0
  9 10  1  0
  9  8  1  0
 11 10  1  0
 11 20  1  0
 11 12  1  0
 13  7  1  0
 13 12  1  0
 14  7  2  0
 15 16  1  0
 17 18  2  0
 18 37  1  0
 19 18  1  0
 19 22  1  0
 20 17  1  0
 20 21  1  0
 21 19  2  0
 22 23  1  0
 23 24  2  0
 25 28  1  0
 25 24  1  0
 26 25  2  0
 27 26  1  0
 27 22  2  0
 28 29  1  0
 29 30  1  0
 30 31  2  0
 32 31  1  0
 32 36  1  0
 33 32  2  0
 34 29  2  0
 34 33  1  0
 35 34  1  0
 37 38  1  0
 38 41  1  0
 38 40  1  0
 39 37  2  0
 42 43  1  0
 42 17  1  0
 44 42  1  0
 45 46  1  0
 46 49  1  0
 46 48  1  0
 47 45  2  0
 50  5  1  0
 50 52  1  0
 52 51  1  0
 52 53  1  6
 54 52  1  0
 55 56  1  0
 55 54  2  0
 57 68  2  0
 58 56  1  0
 58 63  1  0
 59 67  1  0
 59 69  1  0
 60 66  1  0
 60 62  1  0
 61 67  1  0
 62 61  1  0
 63 62  2  0
 64 65  1  0
 64 58  2  0
 65 60  2  0
 66 59  1  0
 67 57  1  0
 69 71  2  0
 70 69  1  0
 72 70  1  0
 73 82  2  0
 73 78  1  0
 74 70  1  0
 74 78  1  0
 75 74  1  0
 76 77  1  0
 76 75  1  0
 77 73  1  0
 78 79  2  0
 79 80  1  0
 81 80  2  0
 82 81  1  0
 83 57  1  0
 83 84  1  0
 83 93  1  0
 84 87  1  0
 85 89  1  0
 85 84  1  0
 86 85  2  0
 89 88  1  0
 91 89  1  0
 91 92  1  0
 91 90  1  0
 93 96  1  1
 93 94  1  0
 95 93  1  0
M  ISO  4   7 100  15 100  55 101  56 101
M  END
>  <TORSDO>  (25) 
F 21

>  <SCORE>  (25) 
-13.844

>  <name>  (25) 
24

>  <ligand_id>  (25) 
24

>  <original_smiles>  (25) 
[H]c1c([H])c([H])c2c(c1[H])C([H])([H])C([H])([H])C([H])([H])C2([H])N([H])C(=O)C1([H])N(C(=O)C([H])(N([H])C(=O)C([H])(N([H])C([H])([H])[H])C([H])([H])[H])C(C([H])([H])[H])(C([H])([H])[H])C([H])([H])[H])C([H])([H])c2c([H])c(OC([H])([H])C([H])([H])[N+]([H])(C([H])([H])[H])C([H])([H])c3c([H])c([H])c(N([H])C(=O)N4C([H])([H])C([H])([H])C([H])([H])C([H])(n5nc(-c6c([H])c([H])c(Oc7c([H])c([H])c(F)c([H])c7F)c([H])c6[H])c(C(=O)N([H])[H])c5N([H])[H])C4([H])[H])c([H])c3C(=O)N([H])[H])c([H])c([H])c2C1([H])[H]

>  <smiles>  (25) 
[H]c1c([H])c([H])c2c(c1[H])C([H])([H])C([H])([H])C([H])([H])C2([H])N([H])C(=O)C1([H])N(C(=O)C([H])(N([H])C(=O)C([H])(N([H])C([H])([H])[H])C([H])([H])[H])C(C([H])([H])[H])(C([H])([H])[H])C([H])([H])[H])C([H])([H])c2c([H])c(OC([H])([H])C([H])([H])[N+]([H])(C([H])([H])[H])C([H])([H])c3c([H])c([H])c(N([H])C(=O)N4C([H])([H])C([H])([H])C([H])([H])C([H])(n5nc(-c6c([H])c([H])c(Oc7c([H])c([H])c(F)c([H])c7F)c([H])c6[H])c(C(=O)N([H])[H])c5N([H])[H])C4([H])[H])c([H])c3C(=O)N([H])[H])c([H])c([H])c2C1([H])[H]

$$$$
25:0:0
     RDKit          3D

 95103  0  0  1  0  0  0  0  0999 V2000
  -28.4220  -20.5460   20.7730 C   0  0  0  0  0  0  0  0  0  0  0  0
  -29.0770  -21.6170   20.2830 N   0  0  0  0  0  0  0  0  0  0  0  0
  -27.2760  -20.6410   21.2190 O   0  0  0  0  0  0  0  0  0  0  0  0
  -30.0020  -21.4810   19.8990 H   0  0  0  0  0  0  0  0  0  0  0  0
  -28.2800  -18.0230   20.6230 C   0  0  0  0  0  3  0  0  0  0  0  0
  -28.8480  -16.7330   20.6800 C   0  0  0  0  0  3  0  0  0  0  0  0
  -30.4830  -19.0280   20.8460 C   0  0  0  0  0  3  0  0  0  0  0  0
  -29.0840  -19.1870   20.7140 C   0  0  0  0  0  0  0  0  0  0  0  0
  -30.2420  -16.5810   20.8110 C   0  0  0  0  0  0  0  0  0  0  0  0
  -31.0570  -17.7370   20.8900 C   0  0  0  0  0  0  0  0  0  0  0  0
  -31.1140  -14.4840   19.9800 C   0  0  0  0  0  0  0  0  0  0  0  0
  -30.6290  -12.3730   18.7910 C   0  0  0  0  0  2  0  0  0  0  0  0
  -29.6170  -12.5850   17.6500 C   0  0  0  0  0  2  0  0  0  0  0  0
  -28.1760  -12.4660   18.1790 C   0  0  0  0  0  2  0  0  0  0  0  0
  -27.9370  -13.3220   19.4510 C   0  0  0  0  0  3  0  0  0  0  0  0
  -29.0570  -13.1010   20.4930 C   0  0  0  0  0  2  0  0  0  0  0  0
  -30.3520  -13.3640   19.8430 N   0  0  0  0  0  0  0  0  0  0  0  0
  -32.1140  -14.7000   19.2910 O   0  0  0  0  0  0  0  0  0  0  0  0
  -30.8320  -15.3020   21.0030 N   0  0  0  0  0  0  0  0  0  0  0  0
  -31.7060  -15.4660   21.4820 H   0  0  0  0  0  0  0  0  0  0  0  0
  -25.6110  -13.9740   20.3420 C   0  0  0  0  0  0  0  0  0  0  0  0
  -24.5520  -13.2220   20.7700 C   0  0  0  0  0  0  0  0  0  0  0  0
  -24.9660  -11.8590   20.6660 C   0  0  0  0  0  0  0  0  0  0  0  0
  -26.6130  -13.0720   20.0170 N   0  0  0  0  0  0  0  0  0  0  0  0
  -26.2300  -11.7920   20.2650 N   0  0  0  0  0  0  0  0  0  0  0  0
  -24.2150  -10.6130   20.8690 C   0  0  0  0  0  0  0  0  0  0  0  0
  -24.6210   -9.6520   21.8220 C   0  0  0  0  0  3  0  0  0  0  0  0
  -23.8700   -8.4720   22.0110 C   0  0  0  0  0  3  0  0  0  0  0  0
  -22.7000   -8.2440   21.2480 C   0  0  0  0  0  0  0  0  0  0  0  0
  -22.3140   -9.1920   20.2840 C   0  0  0  0  0  3  0  0  0  0  0  0
  -23.0660  -10.3650   20.0930 C   0  0  0  0  0  3  0  0  0  0  0  0
  -21.9230   -7.1150   21.3470 O   0  0  0  0  0  0  0  0  0  0  0  0
  -21.7770   -6.4420   22.5330 C   0  0  0  0  0  0  0  0  0  0  0  0
  -21.2620   -7.0720   23.6880 C   0  0  0  0  0  3  0  0  0  0  0  0
  -21.0640   -6.3260   24.8670 C   0  0  0  0  0  3  0  0  0  0  0  0
  -21.3700   -4.9530   24.8910 C   0  0  0  0  0  0  0  0  0  0  0  0
  -21.8780   -4.3230   23.7410 C   0  0  0  0  0  3  0  0  0  0  0  0
  -22.0780   -5.0660   22.5650 C   0  0  0  0  0  0  0  0  0  0  0  0
  -22.5480   -4.4500   21.4540 F   0  0  0  0  0  0  0  0  0  0  0  0
  -21.1720   -4.2340   26.0210 F   0  0  0  0  0  0  0  0  0  0  0  0
  -23.1930  -13.7310   21.1560 C   0  0  0  0  0  0  0  0  0  0  0  0
  -22.5140  -13.0380   22.0630 N   0  0  0  0  0  0  0  0  0  0  0  0
  -22.7470  -14.7790   20.6900 O   0  0  0  0  0  0  0  0  0  0  0  0
  -22.8880  -12.1900   22.4590 H   0  0  0  0  0  0  0  0  0  0  0  0
  -21.6040  -13.3610   22.3620 H   0  0  0  0  0  0  0  0  0  0  0  0
  -25.7930  -15.3440   20.1780 N   0  0  0  0  0  0  0  0  0  0  0  0
  -25.0340  -16.0000   20.3200 H   0  0  0  0  0  0  0  0  0  0  0  0
  -26.5990  -15.7610   19.7310 H   0  0  0  0  0  0  0  0  0  0  0  0
  -32.4370  -17.5980   21.0320 N   0  0  0  0  0  0  0  0  0  0  0  0
  -32.8310  -16.7750   20.5790 H   0  0  0  0  0  0  0  0  0  0  0  0
  -32.9970  -18.4220   20.8440 H   0  0  0  0  0  0  0  0  0  0  0  0
  -28.4490  -22.9470   20.1890 C   0  0  0  0  0  2  0  0  0  0  0  0
  -29.3900  -24.1090   19.7680 C   0  0  0  0  0  2  0  0  0  0  0  0
  -28.5820  -25.3950   19.4030 C   0  0  0  0  0  2  0  0  0  0  0  0
  -28.6730  -26.7810   19.7800 O   0  0  0  0  0  0  0  0  0  0  0  0
  -24.7180  -31.6950   23.1050 C   0  0  0  0  0  0  0  0  0  0  0  0
  -27.4760  -27.4850   19.7940 C   0  0  0  0  0  0  0  0  0  0  0  0
  -23.5390  -30.3160   21.4280 C   0  0  0  0  0  3  0  0  0  0  0  0
  -25.0240  -28.9030   19.9120 C   0  0  0  0  0  0  0  0  0  0  0  0
  -26.0460  -30.7820   21.2020 C   0  0  0  0  0  2  0  0  0  0  0  0
  -26.1740  -29.4440   20.5010 C   0  0  0  0  0  0  0  0  0  0  0  0
  -27.4020  -28.7430   20.4390 C   0  0  0  0  0  3  0  0  0  0  0  0
  -26.3020  -26.9650   19.1980 C   0  0  0  0  0  3  0  0  0  0  0  0
  -25.0830  -27.6640   19.2580 C   0  0  0  0  0  3  0  0  0  0  0  0
  -23.7490  -29.7080   20.0160 C   0  0  0  0  0  2  0  0  0  0  0  0
  -24.7870  -30.9430   21.9710 N   0  0  0  0  0  0  0  0  0  0  0  0
  -23.6360  -31.9010   23.6730 O   0  0  0  0  0  0  0  0  0  0  0  0
  -22.9480  -29.2270   22.3530 C   0  0  0  0  0  0  0  0  0  0  0  0
  -21.6410  -28.9560   22.2000 N   0  0  0  0  0  0  0  0  0  0  0  0
  -23.6610  -28.6320   23.1660 O   0  0  0  0  0  0  0  0  0  0  0  0
  -21.1220  -29.4940   21.5200 H   0  0  0  0  0  0  0  0  0  0  0  0
  -18.3610  -27.4900   22.5820 C   0  0  0  0  0  0  0  0  0  0  0  0
  -20.8810  -27.9470   22.9360 C   0  0  0  0  0  3  0  0  0  0  0  0
  -21.1150  -26.5360   22.3490 C   0  0  0  0  0  2  0  0  0  0  0  0
  -20.0740  -26.1390   21.2990 C   0  0  0  0  0  2  0  0  0  0  0  0
  -18.6650  -26.1660   21.9000 C   0  0  0  0  0  2  0  0  0  0  0  0
  -19.4030  -28.3340   23.0540 C   0  0  0  0  0  0  0  0  0  0  0  0
  -19.0660  -29.5690   23.6480 C   0  0  0  0  0  3  0  0  0  0  0  0
  -17.7210  -29.9640   23.7780 C   0  0  0  0  0  3  0  0  0  0  0  0
  -16.6940  -29.1190   23.3230 C   0  0  0  0  0  3  0  0  0  0  0  0
  -17.0140  -27.8840   22.7300 C   0  0  0  0  0  3  0  0  0  0  0  0
  -25.9890  -32.3520   23.7300 C   0  0  0  0  0  3  0  0  0  0  0  0
  -25.6370  -33.7290   24.1020 N   0  0  0  0  0  0  0  0  0  0  0  0
  -25.9270  -34.8120   23.3700 C   0  0  0  0  0  0  0  0  0  0  0  0
  -26.5920  -34.7600   22.3310 O   0  0  0  0  0  0  0  0  0  0  0  0
  -25.0440  -33.8420   24.9120 H   0  0  0  0  0  0  0  0  0  0  0  0
  -24.1360  -36.5530   23.0770 C   0  0  0  0  0  1  0  0  0  0  0  0
  -25.3970  -36.1700   23.8690 C   0  0  0  0  0  3  0  0  0  0  0  0
  -27.5060  -37.1030   24.7110 C   0  0  0  0  0  1  0  0  0  0  0  0
  -26.3940  -37.2600   23.7780 N   0  0  0  0  0  0  0  0  0  0  0  0
  -25.9580  -38.1610   23.9520 H   0  0  0  0  0  0  0  0  0  0  0  0
  -26.5500  -31.5620   24.9760 C   0  0  1  0  0  0  0  0  0  0  0  0
  -25.4750  -31.2380   26.0400 C   0  0  0  0  0  1  0  0  0  0  0  0
  -27.1930  -30.2280   24.5300 C   0  0  0  0  0  1  0  0  0  0  0  0
  -27.6660  -32.3850   25.6590 C   0  0  0  0  0  1  0  0  0  0  0  0
  1  3  2  0
  2  1  1  0
  4  2  1  0
  5  6  2  0
  5  8  1  0
  6  9  1  0
  7 10  1  0
  8  1  1  0
  8  7  2  0
  9 10  2  0
  9 19  1  0
 10 49  1  0
 11 19  1  0
 12 17  1  0
 13 14  1  0
 13 12  1  0
 15 14  1  0
 15 24  1  0
 15 16  1  0
 17 11  1  0
 17 16  1  0
 18 11  2  0
 19 20  1  0
 21 22  2  0
 22 41  1  0
 23 22  1  0
 23 26  1  0
 24 25  1  0
 24 21  1  0
 25 23  2  0
 26 27  1  0
 27 28  2  0
 29 32  1  0
 29 28  1  0
 30 29  2  0
 31 30  1  0
 31 26  2  0
 32 33  1  0
 33 38  2  0
 33 34  1  0
 34 35  2  0
 35 36  1  0
 36 40  1  0
 37 36  2  0
 38 37  1  0
 39 38  1  0
 41 42  1  0
 42 45  1  0
 42 44  1  0
 43 41  2  0
 46 47  1  0
 46 21  1  0
 48 46  1  0
 50 49  1  0
 51 49  1  0
 52  2  1  0
 53 52  1  0
 54 53  1  0
 54 55  1  0
 55 57  1  0
 56 67  2  0
 57 62  1  0
 58 66  1  0
 58 68  1  0
 59 65  1  0
 59 61  1  0
 60 66  1  0
 61 60  1  0
 62 61  2  0
 63 64  1  0
 63 57  2  0
 64 59  2  0
 65 58  1  0
 66 56  1  0
 68 70  2  0
 69 68  1  0
 71 69  1  0
 72 81  2  0
 72 77  1  0
 73 69  1  0
 73 77  1  0
 74 73  1  0
 75 76  1  0
 75 74  1  0
 76 72  1  0
 77 78  2  0
 78 79  1  0
 80 79  2  0
 81 80  1  0
 82 56  1  0
 82 83  1  0
 82 92  1  0
 83 86  1  0
 84 88  1  0
 84 83  1  0
 85 84  2  0
 88 87  1  0
 90 88  1  0
 90 91  1  0
 90 89  1  0
 92 95  1  1
 92 93  1  0
 94 92  1  0
M  ISO  4  11 100  19 100  54 101  55 101
M  END
>  <TORSDO>  (26) 
F 21

>  <SCORE>  (26) 
-11.868

>  <name>  (26) 
25

>  <ligand_id>  (26) 
25

>  <original_smiles>  (26) 
[H]c1c([H])c([H])c2c(c1[H])C([H])([H])C([H])([H])C([H])([H])C2([H])N([H])C(=O)C1([H])N(C(=O)C([H])(N([H])C(=O)C([H])(N([H])C([H])([H])[H])C([H])([H])[H])C(C([H])([H])[H])(C([H])([H])[H])C([H])([H])[H])C([H])([H])c2c([H])c(OC([H])([H])C([H])([H])C([H])([H])N([H])C(=O)c3c([H])c([H])c(N([H])C(=O)N4C([H])([H])C([H])([H])C([H])([H])C([H])(n5nc(-c6c([H])c([H])c(Oc7c([H])c([H])c(F)c([H])c7F)c([H])c6[H])c(C(=O)N([H])[H])c5N([H])[H])C4([H])[H])c(N([H])[H])c3[H])c([H])c([H])c2C1([H])[H]

>  <smiles>  (26) 
[H]c1c([H])c([H])c2c(c1[H])C([H])([H])C([H])([H])C([H])([H])C2([H])N([H])C(=O)C1([H])N(C(=O)C([H])(N([H])C(=O)C([H])(N([H])C([H])([H])[H])C([H])([H])[H])C(C([H])([H])[H])(C([H])([H])[H])C([H])([H])[H])C([H])([H])c2c([H])c(OC([H])([H])C([H])([H])C([H])([H])N([H])C(=O)c3c([H])c([H])c(N([H])C(=O)N4C([H])([H])C([H])([H])C([H])([H])C([H])(n5nc(-c6c([H])c([H])c(Oc7c([H])c([H])c(F)c([H])c7F)c([H])c6[H])c(C(=O)N([H])[H])c5N([H])[H])C4([H])[H])c(N([H])[H])c3[H])c([H])c([H])c2C1([H])[H]

$$$$
26:0:0
     RDKit          3D

104112  0  0  1  0  0  0  0  0999 V2000
  -29.0650  -19.8990   20.0810 C   0  0  0  0  0  2  0  0  0  0  0  0
  -31.7980  -18.1110   18.9690 C   0  0  0  0  0  2  0  0  0  0  0  0
  -29.9420  -18.5990   20.5610 C   0  0  0  0  0  3  0  0  0  0  0  0
  -29.6650  -17.2100   19.7810 C   0  0  0  0  0  3  0  0  0  0  0  0
  -31.4690  -18.7780   20.3320 C   0  0  0  0  0  3  0  0  0  0  0  0
  -30.5660  -17.2960   18.5140 C   0  0  0  0  0  3  0  0  0  0  0  0
  -30.6180  -14.7740   20.3030 C   0  0  0  0  0  0  0  0  0  0  0  0
  -30.4170  -12.5290   19.2630 C   0  0  0  0  0  2  0  0  0  0  0  0
  -29.4670  -12.6490   18.0500 C   0  0  0  0  0  2  0  0  0  0  0  0
  -27.9990  -12.4770   18.4840 C   0  0  0  0  0  2  0  0  0  0  0  0
  -27.6390  -13.3400   19.7230 C   0  0  0  0  0  3  0  0  0  0  0  0
  -28.7040  -13.2040   20.8350 C   0  0  0  0  0  2  0  0  0  0  0  0
  -30.0070  -13.5480   20.2520 N   0  0  0  0  0  0  0  0  0  0  0  0
  -31.7840  -14.9180   19.9300 O   0  0  0  0  0  0  0  0  0  0  0  0
  -29.8050  -15.8720   20.5150 N   0  0  0  0  0  0  0  0  0  0  0  0
  -28.9460  -15.5950   20.9690 H   0  0  0  0  0  0  0  0  0  0  0  0
  -25.2480  -13.9210   20.4500 C   0  0  0  0  0  0  0  0  0  0  0  0
  -24.1880  -13.1460   20.8270 C   0  0  0  0  0  0  0  0  0  0  0  0
  -24.6590  -11.7970   20.8030 C   0  0  0  0  0  0  0  0  0  0  0  0
  -26.2970  -13.0480   20.2140 N   0  0  0  0  0  0  0  0  0  0  0  0
  -25.9480  -11.7650   20.4880 N   0  0  0  0  0  0  0  0  0  0  0  0
  -23.9420  -10.5300   20.9990 C   0  0  0  0  0  0  0  0  0  0  0  0
  -24.3810   -9.5720   21.9390 C   0  0  0  0  0  3  0  0  0  0  0  0
  -23.6620   -8.3700   22.1240 C   0  0  0  0  0  3  0  0  0  0  0  0
  -22.4920   -8.1170   21.3690 C   0  0  0  0  0  0  0  0  0  0  0  0
  -22.0740   -9.0650   20.4190 C   0  0  0  0  0  3  0  0  0  0  0  0
  -22.7930  -10.2580   20.2300 C   0  0  0  0  0  3  0  0  0  0  0  0
  -21.7470   -6.9670   21.4610 O   0  0  0  0  0  0  0  0  0  0  0  0
  -21.6960   -6.2350   22.6210 C   0  0  0  0  0  0  0  0  0  0  0  0
  -21.2440   -6.7940   23.8360 C   0  0  0  0  0  3  0  0  0  0  0  0
  -21.1400   -5.9880   24.9860 C   0  0  0  0  0  3  0  0  0  0  0  0
  -21.4790   -4.6230   24.9240 C   0  0  0  0  0  0  0  0  0  0  0  0
  -21.9260   -4.0630   23.7140 C   0  0  0  0  0  3  0  0  0  0  0  0
  -22.0320   -4.8670   22.5660 C   0  0  0  0  0  0  0  0  0  0  0  0
  -22.4410   -4.3190   21.3960 F   0  0  0  0  0  0  0  0  0  0  0  0
  -21.3720   -3.8470   26.0260 F   0  0  0  0  0  0  0  0  0  0  0  0
  -22.7890  -13.6130   21.1020 C   0  0  0  0  0  0  0  0  0  0  0  0
  -22.0680  -12.9150   21.9710 N   0  0  0  0  0  0  0  0  0  0  0  0
  -22.3440  -14.6350   20.5790 O   0  0  0  0  0  0  0  0  0  0  0  0
  -22.4430  -12.0880   22.4140 H   0  0  0  0  0  0  0  0  0  0  0  0
  -21.1270  -13.2070   22.1950 H   0  0  0  0  0  0  0  0  0  0  0  0
  -25.4060  -15.2930   20.2660 N   0  0  0  0  0  0  0  0  0  0  0  0
  -24.6320  -15.9430   20.3560 H   0  0  0  0  0  0  0  0  0  0  0  0
  -26.2410  -15.7310   19.8990 H   0  0  0  0  0  0  0  0  0  0  0  0
  -29.8850  -17.9260   17.3590 N   0  0  0  0  0  4  0  0  0  0  0  0
  -29.6500  -18.8900   17.5000 H   0  0  0  0  0  0  0  0  0  0  0  0
  -29.0440  -17.4250   17.1260 H   0  0  0  0  0  0  0  0  0  0  0  0
  -30.4790  -17.8730   16.5480 H   0  0  0  0  0  0  0  0  0  0  0  0
  -32.2760  -18.1970   21.4320 N   0  0  0  0  0  4  0  0  0  0  0  0
  -32.0970  -17.2180   21.5580 H   0  0  0  0  0  0  0  0  0  0  0  0
  -32.0930  -18.6650   22.3030 H   0  0  0  0  0  0  0  0  0  0  0  0
  -33.2570  -18.3080   21.2430 H   0  0  0  0  0  0  0  0  0  0  0  0
  -29.6170  -21.4170   22.0100 C   0  0  0  0  0  1  0  0  0  0  0  0
  -29.3760  -21.3390   20.5490 N   0  0  2  0  0  4  0  0  0  0  0  0
  -30.2520  -21.5930   20.1160 H   0  0  0  0  0  0  0  0  0  0  0  0
  -28.3660  -22.4250   20.1250 C   0  0  0  0  0  2  0  0  0  0  0  0
  -28.8470  -23.9390   19.7880 C   0  0  0  0  0  3  0  0  0  0  0  0
  -28.6630  -24.2640   18.2730 C   0  0  0  0  0  2  0  0  0  0  0  0
  -29.6000  -23.5910   17.3480 N   0  0  0  0  0  4  0  0  0  0  0  0
  -30.5580  -23.7710   17.5920 H   0  0  0  0  0  0  0  0  0  0  0  0
  -29.4570  -23.9740   16.4280 H   0  0  0  0  0  0  0  0  0  0  0  0
  -29.4410  -22.6040   17.2750 H   0  0  0  0  0  0  0  0  0  0  0  0
  -28.0670  -25.1040   20.5690 C   0  0  0  0  0  2  0  0  0  0  0  0
  -28.2990  -26.5350   20.2200 O   0  0  0  0  0  0  0  0  0  0  0  0
  -24.5830  -31.9600   23.2270 C   0  0  0  0  0  0  0  0  0  0  0  0
  -27.1880  -27.3940   20.1840 C   0  0  0  0  0  0  0  0  0  0  0  0
  -23.3760  -30.5530   21.5980 C   0  0  0  0  0  3  0  0  0  0  0  0
  -24.8240  -29.0020   20.1690 C   0  0  0  0  0  0  0  0  0  0  0  0
  -25.9140  -30.8710   21.4070 C   0  0  0  0  0  2  0  0  0  0  0  0
  -25.9920  -29.4920   20.7670 C   0  0  0  0  0  0  0  0  0  0  0  0
  -27.1790  -28.6990   20.7660 C   0  0  0  0  0  3  0  0  0  0  0  0
  -26.0050  -26.9670   19.5430 C   0  0  0  0  0  3  0  0  0  0  0  0
  -24.8330  -27.7450   19.5440 C   0  0  0  0  0  3  0  0  0  0  0  0
  -23.5840  -29.8730   20.2200 C   0  0  0  0  0  2  0  0  0  0  0  0
  -24.6450  -31.1450   22.1350 N   0  0  0  0  0  0  0  0  0  0  0  0
  -23.5010  -32.2370   23.7640 O   0  0  0  0  0  0  0  0  0  0  0  0
  -22.7200  -29.5360   22.5630 C   0  0  0  0  0  0  0  0  0  0  0  0
  -21.3940  -29.3570   22.4400 N   0  0  0  0  0  0  0  0  0  0  0  0
  -23.4020  -28.9140   23.3820 O   0  0  0  0  0  0  0  0  0  0  0  0
  -20.9040  -29.9110   21.7520 H   0  0  0  0  0  0  0  0  0  0  0  0
  -18.0170  -28.1700   22.9580 C   0  0  0  0  0  0  0  0  0  0  0  0
  -20.5780  -28.4220   23.2170 C   0  0  0  0  0  3  0  0  0  0  0  0
  -20.6740  -26.9910   22.6410 C   0  0  0  0  0  2  0  0  0  0  0  0
  -19.5650  -26.6680   21.6350 C   0  0  0  0  0  2  0  0  0  0  0  0
  -18.1870  -26.8190   22.2850 C   0  0  0  0  0  2  0  0  0  0  0  0
  -19.1410  -28.9300   23.3820 C   0  0  0  0  0  0  0  0  0  0  0  0
  -18.9280  -30.1940   23.9730 C   0  0  0  0  0  3  0  0  0  0  0  0
  -17.6260  -30.6980   24.1480 C   0  0  0  0  0  3  0  0  0  0  0  0
  -16.5170  -29.9340   23.7420 C   0  0  0  0  0  3  0  0  0  0  0  0
  -16.7150  -28.6730   23.1520 C   0  0  0  0  0  3  0  0  0  0  0  0
  -25.8670  -32.5970   23.8440 C   0  0  0  0  0  3  0  0  0  0  0  0
  -26.3850  -31.8330   25.1240 C   0  0  1  0  0  0  0  0  0  0  0  0
  -25.2930  -31.5980   26.1930 C   0  0  0  0  0  1  0  0  0  0  0  0
  -26.9720  -30.4540   24.7400 C   0  0  0  0  0  1  0  0  0  0  0  0
  -27.5370  -32.6330   25.7800 C   0  0  0  0  0  1  0  0  0  0  0  0
  -25.5590  -33.9970   24.1660 N   0  0  0  0  0  0  0  0  0  0  0  0
  -25.8940  -35.0450   23.4030 C   0  0  0  0  0  0  0  0  0  0  0  0
  -26.5680  -34.9360   22.3740 O   0  0  0  0  0  0  0  0  0  0  0  0
  -24.9620  -34.1570   24.9630 H   0  0  0  0  0  0  0  0  0  0  0  0
  -24.1780  -36.8460   23.0250 C   0  0  0  0  0  1  0  0  0  0  0  0
  -25.4060  -36.4370   23.8530 C   0  0  0  0  0  3  0  0  0  0  0  0
  -27.5310  -37.3140   24.7140 C   0  0  0  0  0  1  0  0  0  0  0  0
  -26.4440  -37.4850   23.7530 N   0  0  0  0  0  0  0  0  0  0  0  0
  -26.0410  -38.4060   23.8930 H   0  0  0  0  0  0  0  0  0  0  0  0
  1 54  1  0
  2  5  1  0
  3  1  1  0
  4 15  1  0
  4  3  1  0
  5  3  1  0
  5 49  1  0
  6 45  1  0
  6  2  1  0
  6  4  1  0
  7 15  1  0
  8 13  1  0
  9 10  1  0
  9  8  1  0
 11 10  1  0
 11 20  1  0
 11 12  1  0
 13  7  1  0
 13 12  1  0
 14  7  2  0
 15 16  1  0
 17 18  2  0
 18 37  1  0
 19 18  1  0
 19 22  1  0
 20 17  1  0
 20 21  1  0
 21 19  2  0
 22 23  1  0
 23 24  2  0
 25 28  1  0
 25 24  1  0
 26 25  2  0
 27 26  1  0
 27 22  2  0
 28 29  1  0
 29 30  1  0
 30 31  2  0
 32 31  1  0
 32 36  1  0
 33 32  2  0
 34 29  2  0
 34 33  1  0
 35 34  1  0
 37 38  1  0
 38 41  1  0
 38 40  1  0
 39 37  2  0
 42 43  1  0
 42 17  1  0
 44 42  1  0
 45 46  1  0
 47 45  1  0
 48 45  1  0
 49 50  1  0
 49 51  1  0
 52 49  1  0
 54 53  1  0
 54 55  1  6
 56 54  1  0
 57 58  1  0
 57 56  1  0
 57 63  1  0
 59 60  1  0
 59 58  1  0
 61 59  1  0
 62 59  1  0
 64 63  1  0
 65 76  2  0
 66 64  1  0
 66 71  1  0
 67 75  1  0
 67 77  1  0
 68 74  1  0
 68 70  1  0
 69 75  1  0
 70 69  1  0
 71 70  2  0
 72 73  1  0
 72 66  2  0
 73 68  2  0
 74 67  1  0
 75 65  1  0
 77 79  2  0
 78 77  1  0
 80 78  1  0
 81 90  2  0
 81 86  1  0
 82 78  1  0
 82 86  1  0
 83 82  1  0
 84 85  1  0
 84 83  1  0
 85 81  1  0
 86 87  2  0
 87 88  1  0
 89 88  2  0
 90 89  1  0
 91 65  1  0
 91 96  1  0
 91 92  1  0
 92 95  1  1
 92 93  1  0
 94 92  1  0
 96 99  1  0
 97101  1  0
 97 96  1  0
 98 97  2  0
101100  1  0
103101  1  0
103104  1  0
103102  1  0
M  ISO  4   7 100  15 100  63 101  64 101
M  END
>  <TORSDO>  (27) 
F 25

>  <SCORE>  (27) 
-12.915

>  <name>  (27) 
26

>  <ligand_id>  (27) 
26

>  <original_smiles>  (27) 
[H]c1c([H])c([H])c2c(c1[H])C([H])([H])C([H])([H])C([H])([H])C2([H])N([H])C(=O)C1([H])N(C(=O)C([H])(N([H])C(=O)C([H])(N([H])C([H])([H])[H])C([H])([H])[H])C(C([H])([H])[H])(C([H])([H])[H])C([H])([H])[H])C([H])([H])c2c([H])c(OC([H])([H])C([H])(C([H])([H])[N+]([H])([H])[H])C([H])([H])[N+]([H])(C([H])([H])[H])C([H])([H])C3([H])C([H])(N([H])C(=O)N4C([H])([H])C([H])([H])C([H])([H])C([H])(n5nc(-c6c([H])c([H])c(Oc7c([H])c([H])c(F)c([H])c7F)c([H])c6[H])c(C(=O)N([H])[H])c5N([H])[H])C4([H])[H])C([H])([N+]([H])([H])[H])C([H])([H])C3([H])[N+]([H])([H])[H])c([H])c([H])c2C1([H])[H]

>  <smiles>  (27) 
[H]c1c([H])c([H])c2c(c1[H])C([H])([H])C([H])([H])C([H])([H])C2([H])N([H])C(=O)C1([H])N(C(=O)C([H])(N([H])C(=O)C([H])(N([H])C([H])([H])[H])C([H])([H])[H])C(C([H])([H])[H])(C([H])([H])[H])C([H])([H])[H])C([H])([H])c2c([H])c(OC([H])([H])C([H])(C([H])([H])[N+]([H])([H])[H])C([H])([H])[N+]([H])(C([H])([H])[H])C([H])([H])C3([H])C([H])(N([H])C(=O)N4C([H])([H])C([H])([H])C([H])([H])C([H])(n5nc(-c6c([H])c([H])c(Oc7c([H])c([H])c(F)c([H])c7F)c([H])c6[H])c(C(=O)N([H])[H])c5N([H])[H])C4([H])[H])C([H])([N+]([H])([H])[H])C([H])([H])C3([H])[N+]([H])([H])[H])c([H])c([H])c2C1([H])[H]

$$$$
27:0:0
     RDKit          3D

103111  0  0  1  0  0  0  0  0999 V2000
  -31.6310  -18.4650   21.0190 C   0  0  0  0  0  3  0  0  0  0  0  0
  -29.5930  -19.8020   21.1260 C   0  0  0  0  0  3  0  0  0  0  0  0
  -30.7130  -19.2250   21.7820 C   0  0  0  0  0  0  0  0  0  0  0  0
  -31.2890  -18.2480   19.6720 C   0  0  0  0  0  3  0  0  0  0  0  0
  -29.5520  -19.8880   19.7090 C   0  0  0  0  0  0  0  0  0  0  0  0
  -30.7600  -19.6080   19.0230 C   0  0  0  0  0  3  0  0  0  0  0  0
  -31.5910  -15.2820   19.5450 C   0  0  0  0  0  0  0  0  0  0  0  0
  -31.3700  -12.7700   18.8000 C   0  0  0  0  0  2  0  0  0  0  0  0
  -30.3560  -12.4870   17.6620 C   0  0  0  0  0  2  0  0  0  0  0  0
  -28.9310  -12.3220   18.2190 C   0  0  0  0  0  2  0  0  0  0  0  0
  -28.6090  -13.3830   19.2990 C   0  0  0  0  0  3  0  0  0  0  0  0
  -29.7430  -13.5800   20.3280 C   0  0  0  0  0  2  0  0  0  0  0  0
  -30.9320  -14.0050   19.5650 N   0  0  0  0  0  0  0  0  0  0  0  0
  -32.8030  -15.1490   19.3120 O   0  0  0  0  0  0  0  0  0  0  0  0
  -30.9230  -16.6420   19.5270 N   0  0  0  0  0  0  0  0  0  0  0  0
  -29.9260  -16.5040   19.4560 H   0  0  0  0  0  0  0  0  0  0  0  0
  -26.3960  -14.1410   20.2980 C   0  0  0  0  0  0  0  0  0  0  0  0
  -25.2930  -13.4610   20.7290 C   0  0  0  0  0  0  0  0  0  0  0  0
  -25.6000  -12.0730   20.5890 C   0  0  0  0  0  0  0  0  0  0  0  0
  -27.3110  -13.1750   19.9230 N   0  0  0  0  0  0  0  0  0  0  0  0
  -26.8500  -11.9190   20.1640 N   0  0  0  0  0  0  0  0  0  0  0  0
  -24.7490  -10.8890   20.7760 C   0  0  0  0  0  0  0  0  0  0  0  0
  -25.1450   -9.8140   21.6020 C   0  0  0  0  0  3  0  0  0  0  0  0
  -24.2990   -8.6990   21.7810 C   0  0  0  0  0  3  0  0  0  0  0  0
  -23.0390   -8.6520   21.1390 C   0  0  0  0  0  0  0  0  0  0  0  0
  -22.6580   -9.7140   20.2990 C   0  0  0  0  0  3  0  0  0  0  0  0
  -23.5050  -10.8210   20.1170 C   0  0  0  0  0  3  0  0  0  0  0  0
  -22.1600   -7.6000   21.2380 O   0  0  0  0  0  0  0  0  0  0  0  0
  -22.0580   -6.8550   22.3850 C   0  0  0  0  0  0  0  0  0  0  0  0
  -21.7540   -7.4430   23.6330 C   0  0  0  0  0  3  0  0  0  0  0  0
  -21.5890   -6.6320   24.7720 C   0  0  0  0  0  3  0  0  0  0  0  0
  -21.7190   -5.2330   24.6660 C   0  0  0  0  0  0  0  0  0  0  0  0
  -22.0160   -4.6460   23.4240 C   0  0  0  0  0  3  0  0  0  0  0  0
  -22.1810   -5.4550   22.2870 C   0  0  0  0  0  0  0  0  0  0  0  0
  -22.4470   -4.8810   21.0870 F   0  0  0  0  0  0  0  0  0  0  0  0
  -21.5520   -4.4520   25.7590 F   0  0  0  0  0  0  0  0  0  0  0  0
  -23.9860  -14.0700   21.1390 C   0  0  0  0  0  0  0  0  0  0  0  0
  -23.3200  -13.4850   22.1260 N   0  0  0  0  0  0  0  0  0  0  0  0
  -23.5810  -15.1100   20.6210 O   0  0  0  0  0  0  0  0  0  0  0  0
  -23.6670  -12.6440   22.5640 H   0  0  0  0  0  0  0  0  0  0  0  0
  -22.4370  -13.8650   22.4330 H   0  0  0  0  0  0  0  0  0  0  0  0
  -26.6810  -15.5010   20.1530 N   0  0  0  0  0  0  0  0  0  0  0  0
  -25.8360  -15.9650   19.8300 H   0  0  0  0  0  0  0  0  0  0  0  0
  -27.4230  -15.6590   19.4820 H   0  0  0  0  0  0  0  0  0  0  0  0
  -30.8130  -19.2400   23.2770 C   0  0  0  0  0  0  0  0  0  0  0  0
  -30.5700  -20.4010   23.8690 N   0  0  0  0  0  0  0  0  0  0  0  0
  -31.1540  -18.2450   23.9140 O   0  0  0  0  0  0  0  0  0  0  0  0
  -30.3450  -21.2170   23.3220 H   0  0  0  0  0  0  0  0  0  0  0  0
  -30.6390  -20.4770   24.8730 H   0  0  0  0  0  0  0  0  0  0  0  0
  -30.7920  -22.5340   18.4830 C   0  0  0  0  0  0  0  0  0  0  0  0
  -31.2840  -21.1750   18.9140 N   0  0  0  0  0  0  0  0  0  0  0  0
  -30.1160  -22.5220   17.4510 O   0  0  0  0  0  0  0  0  0  0  0  0
  -32.0150  -21.3220   19.5950 H   0  0  0  0  0  0  0  0  0  0  0  0
  -30.9700  -24.1820   19.1770 C   0  0  0  0  0  2  0  0  0  0  0  0
  -30.4950  -25.7370   18.7240 O   0  0  0  0  0  0  0  0  0  0  0  0
  -27.1840  -29.8600   24.2910 C   0  0  0  0  0  0  0  0  0  0  0  0
  -29.5150  -26.7220   19.3220 C   0  0  0  0  0  0  0  0  0  0  0  0
  -25.9220  -29.3840   22.2330 C   0  0  0  0  0  3  0  0  0  0  0  0
  -27.2930  -28.5280   20.2060 C   0  0  0  0  0  0  0  0  0  0  0  0
  -28.4970  -29.5450   22.1240 C   0  0  0  0  0  2  0  0  0  0  0  0
  -28.5080  -28.5660   20.9040 C   0  0  0  0  0  0  0  0  0  0  0  0
  -29.6140  -27.7040   20.4420 C   0  0  0  0  0  3  0  0  0  0  0  0
  -28.2710  -26.8530   18.6640 C   0  0  0  0  0  3  0  0  0  0  0  0
  -27.2040  -27.6990   19.0770 C   0  0  0  0  0  3  0  0  0  0  0  0
  -26.1150  -29.3780   20.6920 C   0  0  0  0  0  2  0  0  0  0  0  0
  -27.2270  -29.5980   22.9420 N   0  0  0  0  0  0  0  0  0  0  0  0
  -26.1110  -29.9180   24.9140 O   0  0  0  0  0  0  0  0  0  0  0  0
  -25.1960  -28.0850   22.6720 C   0  0  0  0  0  0  0  0  0  0  0  0
  -23.8950  -27.9550   22.3490 N   0  0  0  0  0  0  0  0  0  0  0  0
  -25.8160  -27.2040   23.2730 O   0  0  0  0  0  0  0  0  0  0  0  0
  -23.4460  -28.7210   21.8660 H   0  0  0  0  0  0  0  0  0  0  0  0
  -20.6340  -26.4650   21.7760 C   0  0  0  0  0  0  0  0  0  0  0  0
  -23.0640  -26.7750   22.6130 C   0  0  0  0  0  3  0  0  0  0  0  0
  -23.4280  -25.6140   21.6580 C   0  0  0  0  0  2  0  0  0  0  0  0
  -22.5610  -25.5780   20.3950 C   0  0  0  0  0  2  0  0  0  0  0  0
  -21.0820  -25.4250   20.7630 C   0  0  0  0  0  2  0  0  0  0  0  0
  -21.5660  -27.1100   22.6330 C   0  0  0  0  0  0  0  0  0  0  0  0
  -21.0990  -28.0900   23.5360 C   0  0  0  0  0  3  0  0  0  0  0  0
  -19.7340  -28.4280   23.5900 C   0  0  0  0  0  3  0  0  0  0  0  0
  -18.8150  -27.7780   22.7480 C   0  0  0  0  0  3  0  0  0  0  0  0
  -19.2650  -26.7960   21.8480 C   0  0  0  0  0  3  0  0  0  0  0  0
  -28.4820  -30.1150   25.1150 C   0  0  0  0  0  3  0  0  0  0  0  0
  -28.2780  -31.3310   25.9260 N   0  0  0  0  0  0  0  0  0  0  0  0
  -28.8790  -32.5080   25.7110 C   0  0  0  0  0  0  0  0  0  0  0  0
  -29.7210  -32.6720   24.8240 O   0  0  0  0  0  0  0  0  0  0  0  0
  -27.5590  -31.2830   26.6330 H   0  0  0  0  0  0  0  0  0  0  0  0
  -27.5790  -34.6620   25.8480 C   0  0  0  0  0  1  0  0  0  0  0  0
  -28.4880  -33.6930   26.6200 C   0  0  0  0  0  3  0  0  0  0  0  0
  -30.4210  -33.6640   28.1370 C   0  0  0  0  0  1  0  0  0  0  0  0
  -29.6510  -34.4310   27.1610 N   0  0  0  0  0  0  0  0  0  0  0  0
  -29.3540  -35.2980   27.6030 H   0  0  0  0  0  0  0  0  0  0  0  0
  -28.8680  -28.9030   26.0510 C   0  0  1  0  0  0  0  0  0  0  0  0
  -27.7110  -28.4250   26.9620 C   0  0  0  0  0  1  0  0  0  0  0  0
  -29.3390  -27.6890   25.2190 C   0  0  0  0  0  1  0  0  0  0  0  0
  -30.0570  -29.2980   26.9570 C   0  0  0  0  0  1  0  0  0  0  0  0
  -28.0400  -21.8220   19.6090 C   0  0  0  0  0  1  0  0  0  0  0  0
  -28.4920  -20.5450   19.0560 N   0  0  0  0  0  0  0  0  0  0  0  0
  -27.5020  -19.6260   18.4960 C   0  0  0  0  0  2  0  0  0  0  0  0
  -26.5500  -19.0310   19.5650 C   0  0  0  0  0  2  0  0  0  0  0  0
  -24.4230  -17.9290   20.0860 C   0  0  0  0  0  1  0  0  0  0  0  0
  -24.5610  -19.3820   18.1160 C   0  0  0  0  0  1  0  0  0  0  0  0
  -25.2940  -18.4600   19.0140 N   0  0  1  0  0  4  0  0  0  0  0  0
  -25.5410  -17.6400   18.4620 H   0  0  0  0  0  0  0  0  0  0  0  0
  1  3  2  0
  2  3  1  0
  3 45  1  0
  4 15  1  0
  4  1  1  0
  5  2  2  0
  6 51  1  0
  6  4  1  0
  6  5  1  0
  7 13  1  0
  8 13  1  0
  9 10  1  0
  9  8  1  0
 11 10  1  0
 11 20  1  0
 11 12  1  0
 13 12  1  0
 14  7  2  0
 15  7  1  0
 16 15  1  0
 17 18  2  0
 18 37  1  0
 19 18  1  0
 19 22  1  0
 20 21  1  0
 20 17  1  0
 21 19  2  0
 22 23  1  0
 23 24  2  0
 25 28  1  0
 25 24  1  0
 26 25  2  0
 27 26  1  0
 27 22  2  0
 28 29  1  0
 29 30  1  0
 30 31  2  0
 32 31  1  0
 32 36  1  0
 33 32  2  0
 34 29  2  0
 34 33  1  0
 35 34  1  0
 37 38  1  0
 38 41  1  0
 38 40  1  0
 39 37  2  0
 42 17  1  0
 43 42  1  0
 44 42  1  0
 45 46  1  0
 45 47  2  0
 46 49  1  0
 48 46  1  0
 50 51  1  0
 50 54  1  0
 51 53  1  0
 52 50  2  0
 55 54  1  0
 55 57  1  0
 56 67  2  0
 57 62  1  0
 58 68  1  0
 58 66  1  0
 59 65  1  0
 59 61  1  0
 60 66  1  0
 61 60  1  0
 62 61  2  0
 63 64  1  0
 63 57  2  0
 64 59  2  0
 65 58  1  0
 66 56  1  0
 68 70  2  0
 69 68  1  0
 71 69  1  0
 72 81  2  0
 72 77  1  0
 73 69  1  0
 73 77  1  0
 74 73  1  0
 75 76  1  0
 75 74  1  0
 76 72  1  0
 77 78  2  0
 78 79  1  0
 80 79  2  0
 81 80  1  0
 82 56  1  0
 82 83  1  0
 82 92  1  0
 83 86  1  0
 84 83  1  0
 84 88  1  0
 85 84  2  0
 88 87  1  0
 88 90  1  0
 90 91  1  0
 90 89  1  0
 92 95  1  1
 92 93  1  0
 94 92  1  0
 97 96  1  0
 97  5  1  0
 98 97  1  0
 98 99  1  0
101102  1  0
102 99  1  0
102100  1  0
102103  1  6
M  ISO  4   7 100  15 100  54 101  55 101
M  END
>  <TORSDO>  (28) 
F 23

>  <SCORE>  (28) 
-6.562

>  <name>  (28) 
27

>  <ligand_id>  (28) 
27

>  <original_smiles>  (28) 
[H]c1c([H])c([H])c2c(c1[H])C([H])([H])C([H])([H])C([H])([H])C2([H])N([H])C(=O)C1([H])N(C(=O)C([H])(N([H])C(=O)C([H])(N([H])C([H])([H])[H])C([H])([H])[H])C(C([H])([H])[H])(C([H])([H])[H])C([H])([H])[H])C([H])([H])c2c([H])c(OC([H])([H])C(=O)N([H])c3c(N([H])C(=O)N4C([H])([H])C([H])([H])C([H])([H])C([H])(n5nc(-c6c([H])c([H])c(Oc7c([H])c([H])c(F)c([H])c7F)c([H])c6[H])c(C(=O)N([H])[H])c5N([H])[H])C4([H])[H])c([H])c(C(=O)N([H])[H])c([H])c3N(C([H])([H])[H])C([H])([H])C([H])([H])[N+]([H])(C([H])([H])[H])C([H])([H])[H])c([H])c([H])c2C1([H])[H]

>  <smiles>  (28) 
[H]c1c([H])c([H])c2c(c1[H])C([H])([H])C([H])([H])C([H])([H])C2([H])N([H])C(=O)C1([H])N(C(=O)C([H])(N([H])C(=O)C([H])(N([H])C([H])([H])[H])C([H])([H])[H])C(C([H])([H])[H])(C([H])([H])[H])C([H])([H])[H])C([H])([H])c2c([H])c(OC([H])([H])C(=O)N([H])c3c(N([H])C(=O)N4C([H])([H])C([H])([H])C([H])([H])C([H])(n5nc(-c6c([H])c([H])c(Oc7c([H])c([H])c(F)c([H])c7F)c([H])c6[H])c(C(=O)N([H])[H])c5N([H])[H])C4([H])[H])c([H])c(C(=O)N([H])[H])c([H])c3N(C([H])([H])[H])C([H])([H])C([H])([H])[N+]([H])(C([H])([H])[H])C([H])([H])[H])c([H])c([H])c2C1([H])[H]

$$$$
28:0:0
     RDKit          3D

 97106  0  0  1  0  0  0  0  0999 V2000
  -30.0440  -21.2880   21.6840 C   0  0  0  0  0  3  0  0  0  0  0  0
  -31.1320  -18.9700   21.9010 C   0  0  0  0  0  3  0  0  0  0  0  0
  -29.1320  -19.1610   20.5370 C   0  0  0  0  0  3  0  0  0  0  0  0
  -31.1290  -17.5670   21.7250 C   0  0  0  0  0  3  0  0  0  0  0  0
  -29.1160  -17.7570   20.3760 C   0  0  0  0  0  3  0  0  0  0  0  0
  -30.1210  -19.7870   21.3330 C   0  0  0  0  0  0  0  0  0  0  0  0
  -30.1020  -16.9450   20.9810 C   0  0  0  0  0  0  0  0  0  0  0  0
  -30.6850  -14.5930   20.3470 C   0  0  0  0  0  0  0  0  0  0  0  0
  -30.4120  -12.4640   19.1180 C   0  0  0  0  0  2  0  0  0  0  0  0
  -29.4340  -12.6880   17.9450 C   0  0  0  0  0  2  0  0  0  0  0  0
  -27.9680  -12.5350   18.4020 C   0  0  0  0  0  2  0  0  0  0  0  0
  -27.6570  -13.3350   19.6930 C   0  0  0  0  0  3  0  0  0  0  0  0
  -28.7320  -13.0570   20.7680 C   0  0  0  0  0  2  0  0  0  0  0  0
  -30.0460  -13.4010   20.1910 N   0  0  0  0  0  0  0  0  0  0  0  0
  -31.7960  -14.8310   19.8620 O   0  0  0  0  0  0  0  0  0  0  0  0
  -29.9370  -15.5310   20.9620 N   0  0  0  0  0  0  0  0  0  0  0  0
  -29.0240  -15.1940   21.2260 H   0  0  0  0  0  0  0  0  0  0  0  0
  -25.2620  -13.9350   20.4300 C   0  0  0  0  0  0  0  0  0  0  0  0
  -24.2040  -13.1580   20.8170 C   0  0  0  0  0  0  0  0  0  0  0  0
  -24.6710  -11.8090   20.7790 C   0  0  0  0  0  0  0  0  0  0  0  0
  -26.3100  -13.0590   20.1880 N   0  0  0  0  0  0  0  0  0  0  0  0
  -25.9560  -11.7760   20.4520 N   0  0  0  0  0  0  0  0  0  0  0  0
  -23.9540  -10.5440   20.9810 C   0  0  0  0  0  0  0  0  0  0  0  0
  -24.4000   -9.5860   21.9170 C   0  0  0  0  0  3  0  0  0  0  0  0
  -23.6840   -8.3830   22.1060 C   0  0  0  0  0  3  0  0  0  0  0  0
  -22.5100   -8.1310   21.3580 C   0  0  0  0  0  0  0  0  0  0  0  0
  -22.0840   -9.0800   20.4100 C   0  0  0  0  0  3  0  0  0  0  0  0
  -22.8000  -10.2730   20.2200 C   0  0  0  0  0  3  0  0  0  0  0  0
  -21.7640   -6.9820   21.4560 O   0  0  0  0  0  0  0  0  0  0  0  0
  -21.7220   -6.2480   22.6150 C   0  0  0  0  0  0  0  0  0  0  0  0
  -21.2850   -6.8060   23.8350 C   0  0  0  0  0  3  0  0  0  0  0  0
  -21.1910   -5.9990   24.9850 C   0  0  0  0  0  3  0  0  0  0  0  0
  -21.5230   -4.6330   24.9170 C   0  0  0  0  0  0  0  0  0  0  0  0
  -21.9550   -4.0730   23.7010 C   0  0  0  0  0  3  0  0  0  0  0  0
  -22.0500   -4.8780   22.5520 C   0  0  0  0  0  0  0  0  0  0  0  0
  -22.4460   -4.3290   21.3790 F   0  0  0  0  0  0  0  0  0  0  0  0
  -21.4260   -3.8550   26.0200 F   0  0  0  0  0  0  0  0  0  0  0  0
  -22.8070  -13.6280   21.1090 C   0  0  0  0  0  0  0  0  0  0  0  0
  -22.0930  -12.9260   21.9820 N   0  0  0  0  0  0  0  0  0  0  0  0
  -22.3580  -14.6540   20.5980 O   0  0  0  0  0  0  0  0  0  0  0  0
  -22.4690  -12.0960   22.4170 H   0  0  0  0  0  0  0  0  0  0  0  0
  -21.1570  -13.2240   22.2190 H   0  0  0  0  0  0  0  0  0  0  0  0
  -25.4150  -15.3070   20.2460 N   0  0  0  0  0  0  0  0  0  0  0  0
  -24.6380  -15.9500   20.3530 H   0  0  0  0  0  0  0  0  0  0  0  0
  -26.2460  -15.7490   19.8760 H   0  0  0  0  0  0  0  0  0  0  0  0
  -31.1890  -22.5310   19.6450 C   0  0  0  0  0  2  0  0  0  0  0  0
  -30.8810  -24.0220   19.7350 C   0  0  0  0  0  2  0  0  0  0  0  0
  -29.9300  -22.2650   20.4800 C   0  0  0  0  0  3  0  0  0  0  0  0
  -30.0030  -23.6990   20.8640 N   0  0  0  0  0  0  0  0  0  0  0  0
  -28.7340  -24.4510   20.7640 C   0  0  0  0  0  2  0  0  0  0  0  0
  -28.7800  -25.9560   21.1250 C   0  0  0  0  0  0  0  0  0  0  0  0
  -29.0240  -26.3300   22.2770 O   0  0  0  0  0  0  0  0  0  0  0  0
  -28.4720  -26.7880   20.0950 O   0  0  0  0  0  0  0  0  0  0  0  0
  -24.6090  -31.9390   23.2400 C   0  0  0  0  0  0  0  0  0  0  0  0
  -27.3200  -27.5400   20.1650 C   0  0  0  0  0  0  0  0  0  0  0  0
  -23.4280  -30.5340   21.5850 C   0  0  0  0  0  3  0  0  0  0  0  0
  -24.9090  -29.0170   20.1640 C   0  0  0  0  0  0  0  0  0  0  0  0
  -25.9500  -30.9220   21.4020 C   0  0  0  0  0  2  0  0  0  0  0  0
  -26.0580  -29.5540   20.7610 C   0  0  0  0  0  0  0  0  0  0  0  0
  -27.2710  -28.8240   20.7580 C   0  0  0  0  0  3  0  0  0  0  0  0
  -26.1600  -27.0250   19.5530 C   0  0  0  0  0  3  0  0  0  0  0  0
  -24.9540  -27.7510   19.5570 C   0  0  0  0  0  3  0  0  0  0  0  0
  -23.6530  -29.8600   20.2050 C   0  0  0  0  0  2  0  0  0  0  0  0
  -24.6810  -31.1440   22.1340 N   0  0  0  0  0  0  0  0  0  0  0  0
  -23.5220  -32.1970   23.7760 O   0  0  0  0  0  0  0  0  0  0  0  0
  -22.7810  -29.5000   22.5350 C   0  0  0  0  0  0  0  0  0  0  0  0
  -21.4600  -29.3040   22.3990 N   0  0  0  0  0  0  0  0  0  0  0  0
  -23.4660  -28.8770   23.3510 O   0  0  0  0  0  0  0  0  0  0  0  0
  -20.9650  -29.8570   21.7130 H   0  0  0  0  0  0  0  0  0  0  0  0
  -18.0960  -28.0740   22.8770 C   0  0  0  0  0  0  0  0  0  0  0  0
  -20.6490  -28.3540   23.1610 C   0  0  0  0  0  3  0  0  0  0  0  0
  -20.7700  -26.9290   22.5750 C   0  0  0  0  0  2  0  0  0  0  0  0
  -19.6740  -26.6030   21.5540 C   0  0  0  0  0  2  0  0  0  0  0  0
  -18.2880  -26.7310   22.1920 C   0  0  0  0  0  2  0  0  0  0  0  0
  -19.2060  -28.8440   23.3170 C   0  0  0  0  0  0  0  0  0  0  0  0
  -18.9740  -30.1010   23.9130 C   0  0  0  0  0  3  0  0  0  0  0  0
  -17.6640  -30.5910   24.0760 C   0  0  0  0  0  3  0  0  0  0  0  0
  -16.5690  -29.8200   23.6510 C   0  0  0  0  0  3  0  0  0  0  0  0
  -16.7860  -28.5640   23.0590 C   0  0  0  0  0  3  0  0  0  0  0  0
  -25.8850  -32.5800   23.8690 C   0  0  0  0  0  3  0  0  0  0  0  0
  -25.5660  -33.9780   24.1890 N   0  0  0  0  0  0  0  0  0  0  0  0
  -25.9060  -35.0270   23.4280 C   0  0  0  0  0  0  0  0  0  0  0  0
  -26.5900  -34.9220   22.4070 O   0  0  0  0  0  0  0  0  0  0  0  0
  -24.9610  -34.1350   24.9810 H   0  0  0  0  0  0  0  0  0  0  0  0
  -24.1770  -36.8110   23.0360 C   0  0  0  0  0  1  0  0  0  0  0  0
  -25.4060  -36.4150   23.8710 C   0  0  0  0  0  3  0  0  0  0  0  0
  -27.5220  -37.3080   24.7360 C   0  0  0  0  0  1  0  0  0  0  0  0
  -26.4360  -37.4730   23.7740 N   0  0  0  0  0  0  0  0  0  0  0  0
  -26.0240  -38.3910   23.9160 H   0  0  0  0  0  0  0  0  0  0  0  0
  -26.3980  -31.8160   25.1510 C   0  0  1  0  0  0  0  0  0  0  0  0
  -25.2980  -31.5760   26.2090 C   0  0  0  0  0  1  0  0  0  0  0  0
  -26.9930  -30.4420   24.7670 C   0  0  0  0  0  1  0  0  0  0  0  0
  -27.5390  -32.6200   25.8200 C   0  0  0  0  0  1  0  0  0  0  0  0
  -28.9360  -21.4900   22.6230 N   0  0  0  0  0  4  0  0  0  0  0  0
  -28.0530  -21.3040   22.1870 H   0  0  0  0  0  0  0  0  0  0  0  0
  -28.9520  -22.4380   22.9510 H   0  0  0  0  0  0  0  0  0  0  0  0
  -29.0450  -20.8770   23.4100 H   0  0  0  0  0  0  0  0  0  0  0  0
  1 94  1  0
  3  6  1  0
  4  2  1  0
  5  3  2  0
  5  7  1  0
  6  1  1  0
  6  2  2  0
  7  4  2  0
  8 16  1  0
  9 14  1  0
 10 11  1  0
 10  9  1  0
 12 11  1  0
 12 21  1  0
 12 13  1  0
 14  8  1  0
 14 13  1  0
 15  8  2  0
 16  7  1  0
 16 17  1  0
 18 19  2  0
 19 38  1  0
 20 19  1  0
 20 23  1  0
 21 18  1  0
 21 22  1  0
 22 20  2  0
 23 24  1  0
 24 25  2  0
 26 29  1  0
 26 25  1  0
 27 26  2  0
 28 27  1  0
 28 23  2  0
 29 30  1  0
 30 31  1  0
 31 32  2  0
 33 32  1  0
 33 37  1  0
 34 33  2  0
 35 30  2  0
 35 34  1  0
 36 35  1  0
 38 39  1  0
 39 42  1  0
 39 41  1  0
 40 38  2  0
 43 44  1  0
 43 18  1  0
 45 43  1  0
 46 47  1  0
 46 48  1  0
 47 49  1  0
 48 49  1  0
 48  1  1  0
 50 49  1  0
 50 51  1  0
 51 52  2  0
 53 55  1  0
 53 51  1  0
 54 65  2  0
 55 60  1  0
 56 64  1  0
 56 66  1  0
 57 63  1  0
 57 59  1  0
 58 64  1  0
 59 58  1  0
 60 59  2  0
 61 62  1  0
 61 55  2  0
 62 57  2  0
 63 56  1  0
 64 54  1  0
 66 68  2  0
 67 66  1  0
 69 67  1  0
 70 79  2  0
 70 75  1  0
 71 67  1  0
 71 75  1  0
 72 71  1  0
 73 74  1  0
 73 72  1  0
 74 70  1  0
 75 76  2  0
 76 77  1  0
 78 77  2  0
 79 78  1  0
 80 54  1  0
 80 81  1  0
 80 90  1  0
 81 84  1  0
 82 86  1  0
 82 81  1  0
 83 82  2  0
 86 85  1  0
 88 86  1  0
 88 89  1  0
 88 87  1  0
 90 93  1  1
 90 91  1  0
 92 90  1  0
 94 96  1  0
 94 97  1  0
 95 94  1  0
M  ISO  4   8 100  16 100  51 101  53 101
M  END
>  <TORSDO>  (29) 
F 21

>  <SCORE>  (29) 
-14.182

>  <name>  (29) 
28

>  <ligand_id>  (29) 
28

>  <original_smiles>  (29) 
[H]c1c([H])c([H])c2c(c1[H])C([H])([H])C([H])([H])C([H])([H])C2([H])N([H])C(=O)C1([H])N(C(=O)C([H])(N([H])C(=O)C([H])(N([H])C([H])([H])[H])C([H])([H])[H])C(C([H])([H])[H])(C([H])([H])[H])C([H])([H])[H])C([H])([H])c2c([H])c(OC(=O)C([H])([H])N3C([H])([H])C([H])([H])C3([H])C([H])(c3c([H])c([H])c(N([H])C(=O)N4C([H])([H])C([H])([H])C([H])([H])C([H])(n5nc(-c6c([H])c([H])c(Oc7c([H])c([H])c(F)c([H])c7F)c([H])c6[H])c(C(=O)N([H])[H])c5N([H])[H])C4([H])[H])c([H])c3[H])[N+]([H])([H])[H])c([H])c([H])c2C1([H])[H]

>  <smiles>  (29) 
[H]c1c([H])c([H])c2c(c1[H])C([H])([H])C([H])([H])C([H])([H])C2([H])N([H])C(=O)C1([H])N(C(=O)C([H])(N([H])C(=O)C([H])(N([H])C([H])([H])[H])C([H])([H])[H])C(C([H])([H])[H])(C([H])([H])[H])C([H])([H])[H])C([H])([H])c2c([H])c(OC(=O)C([H])([H])N3C([H])([H])C([H])([H])C3([H])C([H])(c3c([H])c([H])c(N([H])C(=O)N4C([H])([H])C([H])([H])C([H])([H])C([H])(n5nc(-c6c([H])c([H])c(Oc7c([H])c([H])c(F)c([H])c7F)c([H])c6[H])c(C(=O)N([H])[H])c5N([H])[H])C4([H])[H])c([H])c3[H])[N+]([H])([H])[H])c([H])c([H])c2C1([H])[H]

$$$$
29:0:0
     RDKit          3D

106115  0  0  1  0  0  0  0  0999 V2000
  -29.8320  -20.9660   20.9390 C   0  0  0  0  0  0  0  0  0  0  0  0
  -30.5470  -19.9140   20.5010 N   0  0  0  0  0  0  0  0  0  0  0  0
  -28.6210  -21.1000   20.7300 O   0  0  0  0  0  0  0  0  0  0  0  0
  -31.5170  -19.9050   20.7890 H   0  0  0  0  0  0  0  0  0  0  0  0
  -29.2860  -17.4460   17.9320 C   0  0  0  0  0  3  0  0  0  0  0  0
  -29.4420  -16.2480   18.6440 C   0  0  0  0  0  3  0  0  0  0  0  0
  -30.2210  -17.5050   20.5710 C   0  0  0  0  0  3  0  0  0  0  0  0
  -29.5950  -18.6970   18.5080 C   0  0  0  0  0  0  0  0  0  0  0  0
  -29.9170  -16.2590   19.9710 C   0  0  0  0  0  0  0  0  0  0  0  0
  -30.0690  -18.7290   19.8600 C   0  0  0  0  0  0  0  0  0  0  0  0
  -30.7300  -13.9780   20.1880 C   0  0  0  0  0  0  0  0  0  0  0  0
  -30.3340  -11.8360   19.0490 C   0  0  0  0  0  2  0  0  0  0  0  0
  -29.3460  -12.0970   17.8910 C   0  0  0  0  0  2  0  0  0  0  0  0
  -27.8850  -12.0070   18.3790 C   0  0  0  0  0  2  0  0  0  0  0  0
  -27.6330  -12.8070   19.6850 C   0  0  0  0  0  3  0  0  0  0  0  0
  -28.7330  -12.5310   20.7360 C   0  0  0  0  0  2  0  0  0  0  0  0
  -30.0400  -12.8080   20.1130 N   0  0  0  0  0  0  0  0  0  0  0  0
  -31.8530  -14.1350   19.7000 O   0  0  0  0  0  0  0  0  0  0  0  0
  -30.0370  -15.0240   20.6760 N   0  0  0  0  0  0  0  0  0  0  0  0
  -29.1940  -14.7300   21.1470 H   0  0  0  0  0  0  0  0  0  0  0  0
  -25.2890  -13.4850   20.5080 C   0  0  0  0  0  0  0  0  0  0  0  0
  -24.2100  -12.7410   20.9030 C   0  0  0  0  0  0  0  0  0  0  0  0
  -24.6210  -11.3750   20.8170 C   0  0  0  0  0  0  0  0  0  0  0  0
  -26.2910  -12.5720   20.2130 N   0  0  0  0  0  0  0  0  0  0  0  0
  -25.8930  -11.2970   20.4530 N   0  0  0  0  0  0  0  0  0  0  0  0
  -23.8610  -10.1340   21.0070 C   0  0  0  0  0  0  0  0  0  0  0  0
  -24.2750   -9.1500   21.9320 C   0  0  0  0  0  3  0  0  0  0  0  0
  -23.5180   -7.9720   22.1100 C   0  0  0  0  0  3  0  0  0  0  0  0
  -22.3340   -7.7700   21.3630 C   0  0  0  0  0  0  0  0  0  0  0  0
  -21.9400   -8.7420   20.4260 C   0  0  0  0  0  3  0  0  0  0  0  0
  -22.6960   -9.9130   20.2470 C   0  0  0  0  0  3  0  0  0  0  0  0
  -21.5490   -6.6460   21.4500 O   0  0  0  0  0  0  0  0  0  0  0  0
  -21.4740   -5.9100   22.6060 C   0  0  0  0  0  0  0  0  0  0  0  0
  -21.0060   -6.4680   23.8160 C   0  0  0  0  0  3  0  0  0  0  0  0
  -20.8790   -5.6580   24.9610 C   0  0  0  0  0  3  0  0  0  0  0  0
  -21.2070   -4.2900   24.8980 C   0  0  0  0  0  0  0  0  0  0  0  0
  -21.6690   -3.7320   23.6930 C   0  0  0  0  0  3  0  0  0  0  0  0
  -21.7980   -4.5390   22.5490 C   0  0  0  0  0  0  0  0  0  0  0  0
  -22.2220   -3.9910   21.3850 F   0  0  0  0  0  0  0  0  0  0  0  0
  -21.0780   -3.5100   25.9960 F   0  0  0  0  0  0  0  0  0  0  0  0
  -22.8440  -13.2580   21.2520 C   0  0  0  0  0  0  0  0  0  0  0  0
  -22.1390  -12.5660   22.1400 N   0  0  0  0  0  0  0  0  0  0  0  0
  -22.4140  -14.3050   20.7720 O   0  0  0  0  0  0  0  0  0  0  0  0
  -22.5060  -11.7190   22.5470 H   0  0  0  0  0  0  0  0  0  0  0  0
  -21.2220  -12.8850   22.4140 H   0  0  0  0  0  0  0  0  0  0  0  0
  -25.4970  -14.8530   20.3570 N   0  0  0  0  0  0  0  0  0  0  0  0
  -24.7610  -15.5330   20.5200 H   0  0  0  0  0  0  0  0  0  0  0  0
  -26.3480  -15.2720   20.0030 H   0  0  0  0  0  0  0  0  0  0  0  0
  -29.4790  -19.8990   17.5990 C   0  0  0  0  0  0  0  0  0  0  0  0
  -28.7590  -20.9260   18.0220 N   0  0  0  0  0  0  0  0  0  0  0  0
  -29.9640  -19.8880   16.4680 O   0  0  0  0  0  0  0  0  0  0  0  0
  -28.3660  -20.9010   18.9580 H   0  0  0  0  0  0  0  0  0  0  0  0
  -28.6160  -21.7300   17.4280 H   0  0  0  0  0  0  0  0  0  0  0  0
  -31.2420  -21.5220   22.9890 C   0  0  0  0  0  2  0  0  0  0  0  0
  -30.7960  -22.8210   23.6410 C   0  0  0  0  0  2  0  0  0  0  0  0
  -30.6150  -22.0600   21.6940 C   0  0  0  0  0  3  0  0  0  0  0  0
  -29.7940  -22.9250   22.5720 N   0  0  0  0  0  0  0  0  0  0  0  0
  -29.0860  -25.1030   23.4500 C   0  0  0  0  0  1  0  0  0  0  0  0
  -29.5710  -24.3400   22.1920 C   0  0  0  0  0  3  0  0  0  0  0  0
  -28.6010  -24.5130   20.9870 C   0  0  0  0  0  3  0  0  0  0  0  0
  -27.3120  -23.8440   21.2640 N   0  0  0  0  0  4  0  0  0  0  0  0
  -26.8730  -24.2030   22.0940 H   0  0  0  0  0  0  0  0  0  0  0  0
  -27.4910  -22.8550   21.4020 H   0  0  0  0  0  0  0  0  0  0  0  0
  -26.6830  -23.9430   20.4870 H   0  0  0  0  0  0  0  0  0  0  0  0
  -28.3740  -25.9990   20.5770 C   0  0  0  0  0  2  0  0  0  0  0  0
  -27.3490  -26.0700   19.5860 O   0  0  0  0  0  0  0  0  0  0  0  0
  -24.4010  -31.6200   23.0620 C   0  0  0  0  0  0  0  0  0  0  0  0
  -26.3190  -26.9670   19.7660 C   0  0  0  0  0  0  0  0  0  0  0  0
  -22.9260  -30.3660   21.5210 C   0  0  0  0  0  3  0  0  0  0  0  0
  -24.0960  -28.7010   19.9840 C   0  0  0  0  0  0  0  0  0  0  0  0
  -25.4500  -30.4660   21.1210 C   0  0  0  0  0  2  0  0  0  0  0  0
  -25.3450  -29.0960   20.4830 C   0  0  0  0  0  0  0  0  0  0  0  0
  -26.4610  -28.2340   20.3840 C   0  0  0  0  0  3  0  0  0  0  0  0
  -25.0610  -26.5930   19.2540 C   0  0  0  0  0  3  0  0  0  0  0  0
  -23.9470  -27.4450   19.3700 C   0  0  0  0  0  3  0  0  0  0  0  0
  -22.9530  -29.6790   20.1290 C   0  0  0  0  0  2  0  0  0  0  0  0
  -24.2830  -30.8300   21.9580 N   0  0  0  0  0  0  0  0  0  0  0  0
  -23.4010  -31.9990   23.6890 O   0  0  0  0  0  0  0  0  0  0  0  0
  -22.2520  -29.4090   22.5300 C   0  0  0  0  0  0  0  0  0  0  0  0
  -20.9200  -29.2730   22.4300 N   0  0  0  0  0  0  0  0  0  0  0  0
  -22.9260  -28.7870   23.3580 O   0  0  0  0  0  0  0  0  0  0  0  0
  -20.4410  -29.8210   21.7290 H   0  0  0  0  0  0  0  0  0  0  0  0
  -17.5230  -28.1630   22.9580 C   0  0  0  0  0  0  0  0  0  0  0  0
  -20.0810  -28.4000   23.2480 C   0  0  0  0  0  3  0  0  0  0  0  0
  -20.1680  -26.9330   22.7640 C   0  0  0  0  0  2  0  0  0  0  0  0
  -19.0750  -26.5630   21.7570 C   0  0  0  0  0  2  0  0  0  0  0  0
  -17.6870  -26.7710   22.3720 C   0  0  0  0  0  2  0  0  0  0  0  0
  -18.6490  -28.9340   23.3550 C   0  0  0  0  0  0  0  0  0  0  0  0
  -18.4430  -30.2360   23.8590 C   0  0  0  0  0  3  0  0  0  0  0  0
  -17.1450  -30.7670   23.9740 C   0  0  0  0  0  3  0  0  0  0  0  0
  -16.0330  -29.9940   23.5960 C   0  0  0  0  0  3  0  0  0  0  0  0
  -16.2240  -28.6950   23.0940 C   0  0  0  0  0  3  0  0  0  0  0  0
  -25.7930  -32.1070   23.5740 C   0  0  0  0  0  3  0  0  0  0  0  0
  -26.3830  -31.2040   24.7240 C   0  0  1  0  0  0  0  0  0  0  0  0
  -25.3940  -30.9530   25.8860 C   0  0  0  0  0  1  0  0  0  0  0  0
  -26.8180  -29.8270   24.1690 C   0  0  0  0  0  1  0  0  0  0  0  0
  -27.6530  -31.8640   25.3110 C   0  0  0  0  0  1  0  0  0  0  0  0
  -25.6350  -33.4940   24.0300 N   0  0  0  0  0  0  0  0  0  0  0  0
  -26.0510  -34.5700   23.3500 C   0  0  0  0  0  0  0  0  0  0  0  0
  -26.6800  -34.4920   22.2910 O   0  0  0  0  0  0  0  0  0  0  0  0
  -25.0810  -33.6370   24.8620 H   0  0  0  0  0  0  0  0  0  0  0  0
  -24.5160  -36.5540   23.1890 C   0  0  0  0  0  1  0  0  0  0  0  0
  -25.7170  -35.9550   23.9370 C   0  0  0  0  0  3  0  0  0  0  0  0
  -27.9350  -36.5450   24.8080 C   0  0  0  0  0  1  0  0  0  0  0  0
  -26.8520  -36.9010   23.8960 N   0  0  0  0  0  0  0  0  0  0  0  0
  -26.5440  -37.8430   24.1220 H   0  0  0  0  0  0  0  0  0  0  0  0
  2  4  1  0
  2  1  1  0
  3  1  2  0
  5  8  2  0
  5  6  1  0
  6  9  2  0
  8 10  1  0
  9  7  1  0
  9 19  1  0
 10  2  1  0
 10  7  2  0
 11 19  1  0
 12 17  1  0
 13 14  1  0
 13 12  1  0
 15 14  1  0
 15 24  1  0
 15 16  1  0
 17 11  1  0
 17 16  1  0
 18 11  2  0
 19 20  1  0
 21 22  2  0
 22 41  1  0
 23 22  1  0
 23 26  1  0
 24 25  1  0
 24 21  1  0
 25 23  2  0
 26 27  1  0
 27 28  2  0
 29 32  1  0
 29 28  1  0
 30 29  2  0
 31 30  1  0
 31 26  2  0
 32 33  1  0
 33 34  1  0
 34 35  2  0
 36 35  1  0
 36 40  1  0
 37 36  2  0
 38 33  2  0
 38 37  1  0
 39 38  1  0
 41 42  1  0
 42 45  1  0
 42 44  1  0
 43 41  2  0
 46 21  1  0
 46 47  1  0
 48 46  1  0
 49 50  1  0
 49  8  1  0
 50 52  1  0
 51 49  2  0
 53 50  1  0
 54 55  1  0
 56  1  1  0
 56 57  1  0
 56 54  1  0
 57 55  1  0
 59 57  1  0
 59 58  1  0
 60 65  1  0
 60 61  1  0
 60 59  1  0
 61 63  1  0
 61 62  1  0
 64 61  1  0
 66 68  1  0
 66 65  1  0
 67 78  2  0
 68 73  1  0
 69 77  1  0
 69 79  1  0
 70 76  1  0
 70 72  1  0
 71 77  1  0
 72 71  1  0
 73 72  2  0
 74 75  1  0
 74 68  2  0
 75 70  2  0
 76 69  1  0
 77 67  1  0
 79 81  2  0
 80 79  1  0
 82 80  1  0
 83 92  2  0
 83 88  1  0
 84 80  1  0
 84 88  1  0
 85 84  1  0
 86 87  1  0
 86 85  1  0
 87 83  1  0
 88 89  2  0
 89 90  1  0
 91 90  2  0
 92 91  1  0
 93 67  1  0
 93 98  1  0
 93 94  1  0
 94 97  1  1
 94 95  1  0
 96 94  1  0
 98101  1  0
 99103  1  0
 99 98  1  0
100 99  2  0
103102  1  0
105103  1  0
105106  1  0
105104  1  0
M  ISO  4  11 100  19 100  65 101  66 101
M  END
>  <TORSDO>  (30) 
F 23

>  <SCORE>  (30) 
-11.432

>  <name>  (30) 
29

>  <ligand_id>  (30) 
29

>  <original_smiles>  (30) 
[H]c1c([H])c([H])c2c(c1[H])C([H])([H])C([H])([H])C([H])([H])C2([H])N([H])C(=O)C1([H])N(C(=O)C([H])(N([H])C(=O)C([H])(N([H])C([H])([H])[H])C([H])([H])[H])C(C([H])([H])[H])(C([H])([H])[H])C([H])([H])[H])C([H])([H])c2c([H])c(OC([H])([H])C([H])(C([H])(N3C([H])([H])C([H])([H])C3([H])C(=O)N([H])c3c([H])c(N([H])C(=O)N4C([H])([H])C([H])([H])C([H])([H])C([H])(n5nc(-c6c([H])c([H])c(Oc7c([H])c([H])c(F)c([H])c7F)c([H])c6[H])c(C(=O)N([H])[H])c5N([H])[H])C4([H])[H])c([H])c([H])c3C(=O)N([H])[H])C([H])([H])[H])[N+]([H])([H])[H])c([H])c([H])c2C1([H])[H]

>  <smiles>  (30) 
[H]c1c([H])c([H])c2c(c1[H])C([H])([H])C([H])([H])C([H])([H])C2([H])N([H])C(=O)C1([H])N(C(=O)C([H])(N([H])C(=O)C([H])(N([H])C([H])([H])[H])C([H])([H])[H])C(C([H])([H])[H])(C([H])([H])[H])C([H])([H])[H])C([H])([H])c2c([H])c(OC([H])([H])C([H])(C([H])(N3C([H])([H])C([H])([H])C3([H])C(=O)N([H])c3c([H])c(N([H])C(=O)N4C([H])([H])C([H])([H])C([H])([H])C([H])(n5nc(-c6c([H])c([H])c(Oc7c([H])c([H])c(F)c([H])c7F)c([H])c6[H])c(C(=O)N([H])[H])c5N([H])[H])C4([H])[H])c([H])c([H])c3C(=O)N([H])[H])C([H])([H])[H])[N+]([H])([H])[H])c([H])c([H])c2C1([H])[H]

$$$$
30:0:0
     RDKit          3D

103112  0  0  1  0  0  0  0  0999 V2000
  -30.5250  -21.6830   19.1290 C   0  0  0  0  0  0  0  0  0  0  0  0
  -29.6910  -20.6300   19.1840 N   0  0  0  0  0  0  0  0  0  0  0  0
  -31.5830  -21.7770   19.7580 O   0  0  0  0  0  0  0  0  0  0  0  0
  -28.8030  -20.7820   18.7270 H   0  0  0  0  0  0  0  0  0  0  0  0
  -29.2220  -23.8920   18.9850 C   0  0  0  0  0  2  0  0  0  0  0  0
  -30.9300  -25.0100   17.7120 C   0  0  0  0  0  2  0  0  0  0  0  0
  -30.0810  -22.8480   18.2320 C   0  0  0  0  0  3  0  0  0  0  0  0
  -30.0030  -25.2130   18.9100 C   0  0  0  0  0  3  0  0  0  0  0  0
  -31.8370  -23.0730   16.4600 C   0  0  0  0  0  1  0  0  0  0  0  0
  -31.2670  -23.5770   17.7290 N   0  0  1  0  0  4  0  0  0  0  0  0
  -31.9540  -23.4190   18.4560 H   0  0  0  0  0  0  0  0  0  0  0  0
  -29.1220  -26.4640   18.7860 C   0  0  0  0  0  2  0  0  0  0  0  0
  -28.5800  -26.7740   20.0630 O   0  0  0  0  0  0  0  0  0  0  0  0
  -24.5750  -31.7710   23.1180 C   0  0  0  0  0  0  0  0  0  0  0  0
  -27.3900  -27.4520   20.0470 C   0  0  0  0  0  0  0  0  0  0  0  0
  -23.4320  -30.3520   21.4430 C   0  0  0  0  0  3  0  0  0  0  0  0
  -24.9500  -28.8610   20.0380 C   0  0  0  0  0  0  0  0  0  0  0  0
  -25.9480  -30.7830   21.2910 C   0  0  0  0  0  2  0  0  0  0  0  0
  -26.0790  -29.4190   20.6510 C   0  0  0  0  0  0  0  0  0  0  0  0
  -27.3000  -28.7150   20.6660 C   0  0  0  0  0  3  0  0  0  0  0  0
  -26.2430  -26.8890   19.4490 C   0  0  0  0  0  3  0  0  0  0  0  0
  -25.0220  -27.5900   19.4410 C   0  0  0  0  0  3  0  0  0  0  0  0
  -23.6830  -29.6860   20.0620 C   0  0  0  0  0  2  0  0  0  0  0  0
  -24.6680  -30.9830   22.0100 N   0  0  0  0  0  0  0  0  0  0  0  0
  -23.4780  -32.0130   23.6410 O   0  0  0  0  0  0  0  0  0  0  0  0
  -22.7910  -29.3070   22.3840 C   0  0  0  0  0  0  0  0  0  0  0  0
  -21.4670  -29.1250   22.2580 N   0  0  0  0  0  0  0  0  0  0  0  0
  -23.4800  -28.6650   23.1800 O   0  0  0  0  0  0  0  0  0  0  0  0
  -20.9710  -29.6970   21.5870 H   0  0  0  0  0  0  0  0  0  0  0  0
  -18.0870  -27.9700   22.7970 C   0  0  0  0  0  0  0  0  0  0  0  0
  -20.6550  -28.1700   23.0110 C   0  0  0  0  0  3  0  0  0  0  0  0
  -20.7160  -26.7640   22.3720 C   0  0  0  0  0  2  0  0  0  0  0  0
  -19.5810  -26.5040   21.3760 C   0  0  0  0  0  2  0  0  0  0  0  0
  -18.2200  -26.6460   22.0630 C   0  0  0  0  0  2  0  0  0  0  0  0
  -19.2310  -28.6930   23.2290 C   0  0  0  0  0  0  0  0  0  0  0  0
  -19.0520  -29.9350   23.8750 C   0  0  0  0  0  3  0  0  0  0  0  0
  -17.7620  -30.4530   24.0950 C   0  0  0  0  0  3  0  0  0  0  0  0
  -16.6330  -29.7260   23.6800 C   0  0  0  0  0  3  0  0  0  0  0  0
  -16.7960  -28.4870   23.0370 C   0  0  0  0  0  3  0  0  0  0  0  0
  -25.8350  -32.4260   23.7650 C   0  0  0  0  0  3  0  0  0  0  0  0
  -26.3600  -31.6470   25.0330 C   0  0  1  0  0  0  0  0  0  0  0  0
  -25.2630  -31.3600   26.0830 C   0  0  0  0  0  1  0  0  0  0  0  0
  -26.9880  -30.2960   24.6210 C   0  0  0  0  0  1  0  0  0  0  0  0
  -27.4800  -32.4620   25.7230 C   0  0  0  0  0  1  0  0  0  0  0  0
  -25.4840  -33.8090   24.1140 N   0  0  0  0  0  0  0  0  0  0  0  0
  -25.8010  -34.8820   23.3760 C   0  0  0  0  0  0  0  0  0  0  0  0
  -26.4920  -34.8130   22.3560 O   0  0  0  0  0  0  0  0  0  0  0  0
  -24.8740  -33.9350   24.9070 H   0  0  0  0  0  0  0  0  0  0  0  0
  -24.0360  -36.6330   23.0110 C   0  0  0  0  0  1  0  0  0  0  0  0
  -25.2670  -36.2490   23.8450 C   0  0  0  0  0  3  0  0  0  0  0  0
  -27.3560  -37.1730   24.7460 C   0  0  0  0  0  1  0  0  0  0  0  0
  -26.2740  -37.3290   23.7770 N   0  0  0  0  0  0  0  0  0  0  0  0
  -25.8400  -38.2350   23.9300 H   0  0  0  0  0  0  0  0  0  0  0  0
  -31.1840  -18.8340   20.0280 C   0  0  0  0  0  3  0  0  0  0  0  0
  -31.3860  -17.5090   20.4580 C   0  0  0  0  0  3  0  0  0  0  0  0
  -28.7640  -18.4560   19.9360 C   0  0  0  0  0  0  0  0  0  0  0  0
  -29.8850  -19.3250   19.7450 C   0  0  0  0  0  0  0  0  0  0  0  0
  -30.2840  -16.6410   20.5940 C   0  0  0  0  0  0  0  0  0  0  0  0
  -28.9870  -17.1260   20.3670 C   0  0  0  0  0  0  0  0  0  0  0  0
  -27.9520  -16.2740   20.5640 F   0  0  0  0  0  0  0  0  0  0  0  0
  -30.9460  -14.3560   20.1270 C   0  0  0  0  0  0  0  0  0  0  0  0
  -30.5030  -12.2740   18.8910 C   0  0  0  0  0  2  0  0  0  0  0  0
  -29.4820  -12.5530   17.7670 C   0  0  0  0  0  2  0  0  0  0  0  0
  -28.0420  -12.4180   18.2930 C   0  0  0  0  0  2  0  0  0  0  0  0
  -27.8070  -13.2050   19.6100 C   0  0  0  0  0  3  0  0  0  0  0  0
  -28.9330  -12.9170   20.6310 C   0  0  0  0  0  2  0  0  0  0  0  0
  -30.2320  -13.2070   19.9940 N   0  0  0  0  0  0  0  0  0  0  0  0
  -31.9900  -14.5760   19.5080 O   0  0  0  0  0  0  0  0  0  0  0  0
  -30.4070  -15.2720   20.9420 N   0  0  0  0  0  0  0  0  0  0  0  0
  -29.6170  -14.9160   21.4580 H   0  0  0  0  0  0  0  0  0  0  0  0
  -25.4640  -13.8030   20.5040 C   0  0  0  0  0  0  0  0  0  0  0  0
  -24.4150  -13.0260   20.9130 C   0  0  0  0  0  0  0  0  0  0  0  0
  -24.8550  -11.6740   20.7900 C   0  0  0  0  0  0  0  0  0  0  0  0
  -26.4850  -12.9250   20.1700 N   0  0  0  0  0  0  0  0  0  0  0  0
  -26.1220  -11.6350   20.3940 N   0  0  0  0  0  0  0  0  0  0  0  0
  -24.1260  -10.4140   20.9770 C   0  0  0  0  0  0  0  0  0  0  0  0
  -24.5630   -9.4370   21.8990 C   0  0  0  0  0  3  0  0  0  0  0  0
  -23.8360   -8.2400   22.0710 C   0  0  0  0  0  3  0  0  0  0  0  0
  -22.6570   -8.0130   21.3210 C   0  0  0  0  0  0  0  0  0  0  0  0
  -22.2370   -8.9780   20.3890 C   0  0  0  0  0  3  0  0  0  0  0  0
  -22.9650  -10.1670   20.2150 C   0  0  0  0  0  3  0  0  0  0  0  0
  -21.8990   -6.8710   21.4030 O   0  0  0  0  0  0  0  0  0  0  0  0
  -21.7850   -6.1640   22.5730 C   0  0  0  0  0  0  0  0  0  0  0  0
  -21.2610   -6.7480   23.7470 C   0  0  0  0  0  3  0  0  0  0  0  0
  -21.0970   -5.9680   24.9090 C   0  0  0  0  0  3  0  0  0  0  0  0
  -21.4480   -4.6040   24.8970 C   0  0  0  0  0  0  0  0  0  0  0  0
  -21.9650   -4.0210   23.7270 C   0  0  0  0  0  3  0  0  0  0  0  0
  -22.1290   -4.7980   22.5680 C   0  0  0  0  0  0  0  0  0  0  0  0
  -22.6090   -4.2250   21.4380 F   0  0  0  0  0  0  0  0  0  0  0  0
  -21.2830   -3.8530   26.0110 F   0  0  0  0  0  0  0  0  0  0  0  0
  -23.0510  -13.5080   21.3130 C   0  0  0  0  0  0  0  0  0  0  0  0
  -22.3790  -12.7850   22.2000 N   0  0  0  0  0  0  0  0  0  0  0  0
  -22.5900  -14.5610   20.8740 O   0  0  0  0  0  0  0  0  0  0  0  0
  -22.7610  -11.9290   22.5760 H   0  0  0  0  0  0  0  0  0  0  0  0
  -21.4660  -13.0910   22.5080 H   0  0  0  0  0  0  0  0  0  0  0  0
  -25.6230  -15.1770   20.3800 N   0  0  0  0  0  0  0  0  0  0  0  0
  -24.8820  -15.8310   20.6090 H   0  0  0  0  0  0  0  0  0  0  0  0
  -26.5200  -15.6360   20.2580 H   0  0  0  0  0  0  0  0  0  0  0  0
  -27.3510  -18.8870   19.6480 C   0  0  0  0  0  0  0  0  0  0  0  0
  -26.9790  -20.0630   20.1420 N   0  0  0  0  0  0  0  0  0  0  0  0
  -26.5820  -18.1920   18.9870 O   0  0  0  0  0  0  0  0  0  0  0  0
  -27.6080  -20.5860   20.7350 H   0  0  0  0  0  0  0  0  0  0  0  0
  -26.0400  -20.4010   19.9930 H   0  0  0  0  0  0  0  0  0  0  0  0
  1  2  1  0
  1  3  2  0
  2 57  1  0
  4  2  1  0
  6 10  1  0
  6  8  1  0
  7  5  1  0
  7  1  1  0
  8 12  1  0
  8  5  1  0
  9 10  1  0
 10  7  1  0
 10 11  1  1
 12 13  1  0
 14 25  2  0
 15 13  1  0
 15 20  1  0
 16 24  1  0
 16 26  1  0
 17 23  1  0
 17 19  1  0
 18 24  1  0
 19 20  2  0
 19 18  1  0
 21 15  2  0
 22 21  1  0
 22 17  2  0
 23 16  1  0
 24 14  1  0
 26 28  2  0
 27 26  1  0
 29 27  1  0
 30 39  2  0
 30 35  1  0
 31 27  1  0
 31 35  1  0
 32 31  1  0
 33 34  1  0
 33 32  1  0
 34 30  1  0
 35 36  2  0
 36 37  1  0
 38 37  2  0
 39 38  1  0
 40 14  1  0
 40 45  1  0
 40 41  1  0
 41 44  1  1
 41 42  1  0
 43 41  1  0
 45 48  1  0
 46 50  1  0
 46 45  1  0
 47 46  2  0
 50 49  1  0
 52 50  1  0
 52 53  1  0
 52 51  1  0
 54 55  1  0
 55 58  2  0
 56 59  2  0
 57 56  1  0
 57 54  2  0
 58 69  1  0
 59 60  1  0
 59 58  1  0
 61 69  1  0
 62 67  1  0
 63 64  1  0
 63 62  1  0
 65 64  1  0
 65 74  1  0
 65 66  1  0
 67 61  1  0
 67 66  1  0
 68 61  2  0
 69 70  1  0
 71 72  2  0
 72 91  1  0
 73 72  1  0
 73 76  1  0
 74 75  1  0
 74 71  1  0
 75 73  2  0
 76 77  1  0
 77 78  2  0
 79 82  1  0
 79 78  1  0
 80 79  2  0
 81 80  1  0
 81 76  2  0
 82 83  1  0
 83 84  1  0
 84 85  2  0
 86 85  1  0
 86 90  1  0
 87 86  2  0
 88 83  2  0
 88 87  1  0
 89 88  1  0
 91 92  1  0
 92 95  1  0
 92 94  1  0
 93 91  2  0
 96 71  1  0
 96 97  1  0
 98 96  1  0
 99 56  1  0
 99100  1  0
100102  1  0
101 99  2  0
103100  1  0
M  ISO  4  12 101  13 101  61 100  69 100
M  END
>  <TORSDO>  (31) 
F 20

>  <SCORE>  (31) 
-13.404

>  <name>  (31) 
30

>  <ligand_id>  (31) 
30

>  <original_smiles>  (31) 
[H]c1c([H])c([H])c2c(c1[H])C([H])([H])C([H])([H])C([H])([H])C2([H])N([H])C(=O)C1([H])N(C(=O)C([H])(N([H])C(=O)C([H])(N([H])C([H])([H])[H])C([H])([H])[H])C(C([H])([H])[H])(C([H])([H])[H])C([H])([H])[H])C([H])([H])c2c([H])c(OC([H])([H])C3([H])C([H])([H])C([H])(C(=O)N([H])c4c([H])c([H])c(N([H])C(=O)N5C([H])([H])C([H])([H])C([H])([H])C([H])(n6nc(-c7c([H])c([H])c(Oc8c([H])c([H])c(F)c([H])c8F)c([H])c7[H])c(C(=O)N([H])[H])c6N([H])[H])C5([H])[H])c(F)c4C(=O)N([H])[H])[N+]([H])(C([H])([H])[H])C3([H])[H])c([H])c([H])c2C1([H])[H]

>  <smiles>  (31) 
[H]c1c([H])c([H])c2c(c1[H])C([H])([H])C([H])([H])C([H])([H])C2([H])N([H])C(=O)C1([H])N(C(=O)C([H])(N([H])C(=O)C([H])(N([H])C([H])([H])[H])C([H])([H])[H])C(C([H])([H])[H])(C([H])([H])[H])C([H])([H])[H])C([H])([H])c2c([H])c(OC([H])([H])C3([H])C([H])([H])C([H])(C(=O)N([H])c4c([H])c([H])c(N([H])C(=O)N5C([H])([H])C([H])([H])C([H])([H])C([H])(n6nc(-c7c([H])c([H])c(Oc8c([H])c([H])c(F)c([H])c8F)c([H])c7[H])c(C(=O)N([H])[H])c6N([H])[H])C5([H])[H])c(F)c4C(=O)N([H])[H])[N+]([H])(C([H])([H])[H])C3([H])[H])c([H])c([H])c2C1([H])[H]

$$$$
31:0:0
     RDKit          3D

 96105  0  0  1  0  0  0  0  0999 V2000
  -30.4440  -22.2020   19.6150 C   0  0  0  0  0  0  0  0  0  0  0  0
  -27.6870  -22.6780   20.4930 C   0  0  0  0  0  0  0  0  0  0  0  0
  -29.4120  -21.0110   19.6250 C   0  0  0  0  0  3  0  0  0  0  0  0
  -28.7810  -23.7700   20.6650 C   0  0  0  0  0  3  0  0  0  0  0  0
  -27.0200  -20.3750   20.0130 C   0  0  0  0  0  1  0  0  0  0  0  0
  -30.0690  -23.4380   20.0320 N   0  0  0  0  0  0  0  0  0  0  0  0
  -28.0550  -21.4130   20.1060 N   0  0  0  0  0  0  0  0  0  0  0  0
  -31.5860  -22.0190   19.1930 O   0  0  0  0  0  0  0  0  0  0  0  0
  -26.5150  -22.9690   20.7480 O   0  0  0  0  0  0  0  0  0  0  0  0
  -30.7460  -24.1850   19.9690 H   0  0  0  0  0  0  0  0  0  0  0  0
  -31.4090  -18.7450   22.1050 C   0  0  0  0  0  3  0  0  0  0  0  0
  -30.8060  -19.8590   21.4810 C   0  0  0  0  0  3  0  0  0  0  0  0
  -31.2210  -17.4390   21.6160 C   0  0  0  0  0  3  0  0  0  0  0  0
  -29.8050  -18.3680   19.8710 C   0  0  0  0  0  3  0  0  0  0  0  0
  -30.0070  -19.7350   20.3190 C   0  0  0  0  0  0  0  0  0  0  0  0
  -30.3990  -17.2050   20.4950 C   0  0  0  0  0  0  0  0  0  0  0  0
  -30.8980  -14.7150   19.9570 C   0  0  0  0  0  0  0  0  0  0  0  0
  -30.6140  -12.4760   18.8970 C   0  0  0  0  0  2  0  0  0  0  0  0
  -29.5930  -12.5880   17.7430 C   0  0  0  0  0  2  0  0  0  0  0  0
  -28.1510  -12.4320   18.2680 C   0  0  0  0  0  2  0  0  0  0  0  0
  -27.8710  -13.3050   19.5220 C   0  0  0  0  0  3  0  0  0  0  0  0
  -28.9990  -13.1640   20.5660 C   0  0  0  0  0  2  0  0  0  0  0  0
  -30.2580  -13.5050   19.8920 N   0  0  0  0  0  0  0  0  0  0  0  0
  -32.0740  -14.8330   19.6010 O   0  0  0  0  0  0  0  0  0  0  0  0
  -30.0890  -15.8190   20.1240 N   0  0  0  0  0  0  0  0  0  0  0  0
  -29.1060  -15.6040   20.0820 H   0  0  0  0  0  0  0  0  0  0  0  0
  -25.5550  -13.9260   20.4380 C   0  0  0  0  0  0  0  0  0  0  0  0
  -24.4970  -13.1600   20.8460 C   0  0  0  0  0  0  0  0  0  0  0  0
  -24.9200  -11.8020   20.7210 C   0  0  0  0  0  0  0  0  0  0  0  0
  -26.5560  -13.0320   20.0910 N   0  0  0  0  0  0  0  0  0  0  0  0
  -26.1840  -11.7470   20.3220 N   0  0  0  0  0  0  0  0  0  0  0  0
  -24.1750  -10.5480   20.9010 C   0  0  0  0  0  0  0  0  0  0  0  0
  -24.6030   -9.5580   21.8110 C   0  0  0  0  0  3  0  0  0  0  0  0
  -23.8580   -8.3720   21.9790 C   0  0  0  0  0  3  0  0  0  0  0  0
  -22.6710   -8.1670   21.2370 C   0  0  0  0  0  0  0  0  0  0  0  0
  -22.2620   -9.1460   20.3140 C   0  0  0  0  0  3  0  0  0  0  0  0
  -23.0080  -10.3240   20.1440 C   0  0  0  0  0  3  0  0  0  0  0  0
  -21.8980   -7.0350   21.3160 O   0  0  0  0  0  0  0  0  0  0  0  0
  -21.8130   -6.2990   22.4710 C   0  0  0  0  0  0  0  0  0  0  0  0
  -21.3120   -6.8520   23.6700 C   0  0  0  0  0  3  0  0  0  0  0  0
  -21.1780   -6.0440   24.8170 C   0  0  0  0  0  3  0  0  0  0  0  0
  -21.5340   -4.6820   24.7650 C   0  0  0  0  0  0  0  0  0  0  0  0
  -22.0260   -4.1290   23.5690 C   0  0  0  0  0  3  0  0  0  0  0  0
  -22.1620   -4.9350   22.4260 C   0  0  0  0  0  0  0  0  0  0  0  0
  -22.6180   -4.3920   21.2700 F   0  0  0  0  0  0  0  0  0  0  0  0
  -21.3980   -3.9020   25.8620 F   0  0  0  0  0  0  0  0  0  0  0  0
  -23.1340  -13.6560   21.2350 C   0  0  0  0  0  0  0  0  0  0  0  0
  -22.4460  -12.9310   22.1100 N   0  0  0  0  0  0  0  0  0  0  0  0
  -22.6920  -14.7180   20.8000 O   0  0  0  0  0  0  0  0  0  0  0  0
  -22.8180  -12.0700   22.4810 H   0  0  0  0  0  0  0  0  0  0  0  0
  -21.5350  -13.2440   22.4150 H   0  0  0  0  0  0  0  0  0  0  0  0
  -25.7400  -15.2990   20.3090 N   0  0  0  0  0  0  0  0  0  0  0  0
  -24.9930  -15.9590   20.4970 H   0  0  0  0  0  0  0  0  0  0  0  0
  -26.5540  -15.7380   19.8990 H   0  0  0  0  0  0  0  0  0  0  0  0
  -28.4110  -25.3200   20.9670 C   0  0  0  0  0  2  0  0  0  0  0  0
  -28.4130  -26.4510   20.0180 O   0  0  0  0  0  0  0  0  0  0  0  0
  -24.5780  -31.7560   23.1340 C   0  0  0  0  0  0  0  0  0  0  0  0
  -27.2980  -27.2950   20.0430 C   0  0  0  0  0  0  0  0  0  0  0  0
  -23.4150  -30.3600   21.4610 C   0  0  0  0  0  3  0  0  0  0  0  0
  -24.9060  -28.8520   20.0320 C   0  0  0  0  0  0  0  0  0  0  0  0
  -25.9480  -30.7290   21.3050 C   0  0  0  0  0  2  0  0  0  0  0  0
  -26.0600  -29.3590   20.6460 C   0  0  0  0  0  0  0  0  0  0  0  0
  -27.2630  -28.5910   20.6420 C   0  0  0  0  0  3  0  0  0  0  0  0
  -26.1250  -26.8330   19.4130 C   0  0  0  0  0  3  0  0  0  0  0  0
  -24.9400  -27.5930   19.4070 C   0  0  0  0  0  3  0  0  0  0  0  0
  -23.6530  -29.7030   20.0760 C   0  0  0  0  0  2  0  0  0  0  0  0
  -24.6650  -30.9650   22.0250 N   0  0  0  0  0  0  0  0  0  0  0  0
  -23.4850  -32.0070   23.6620 O   0  0  0  0  0  0  0  0  0  0  0  0
  -22.7590  -29.3200   22.4010 C   0  0  0  0  0  0  0  0  0  0  0  0
  -21.4370  -29.1220   22.2570 N   0  0  0  0  0  0  0  0  0  0  0  0
  -23.4390  -28.6930   23.2170 O   0  0  0  0  0  0  0  0  0  0  0  0
  -20.9470  -29.6810   21.5730 H   0  0  0  0  0  0  0  0  0  0  0  0
  -18.0690  -27.8940   22.7340 C   0  0  0  0  0  0  0  0  0  0  0  0
  -20.6260  -28.1610   23.0050 C   0  0  0  0  0  3  0  0  0  0  0  0
  -20.7350  -26.7450   22.3930 C   0  0  0  0  0  2  0  0  0  0  0  0
  -19.6320  -26.4430   21.3730 C   0  0  0  0  0  2  0  0  0  0  0  0
  -18.2510  -26.5640   22.0230 C   0  0  0  0  0  2  0  0  0  0  0  0
  -19.1840  -28.6520   23.1800 C   0  0  0  0  0  0  0  0  0  0  0  0
  -18.9590  -29.8990   23.8050 C   0  0  0  0  0  3  0  0  0  0  0  0
  -17.6530  -30.3890   23.9860 C   0  0  0  0  0  3  0  0  0  0  0  0
  -16.5520  -29.6280   23.5570 C   0  0  0  0  0  3  0  0  0  0  0  0
  -16.7600  -28.3820   22.9370 C   0  0  0  0  0  3  0  0  0  0  0  0
  -25.8440  -32.4000   23.7790 C   0  0  0  0  0  3  0  0  0  0  0  0
  -25.5120  -33.7920   24.1180 N   0  0  0  0  0  0  0  0  0  0  0  0
  -25.8360  -34.8560   23.3730 C   0  0  0  0  0  0  0  0  0  0  0  0
  -26.5150  -34.7710   22.3450 O   0  0  0  0  0  0  0  0  0  0  0  0
  -24.9110  -33.9310   24.9170 H   0  0  0  0  0  0  0  0  0  0  0  0
  -24.0820  -36.6240   23.0230 C   0  0  0  0  0  1  0  0  0  0  0  0
  -25.3250  -36.2330   23.8380 C   0  0  0  0  0  3  0  0  0  0  0  0
  -27.4340  -37.1510   24.6980 C   0  0  0  0  0  1  0  0  0  0  0  0
  -26.3430  -37.3020   23.7390 N   0  0  0  0  0  0  0  0  0  0  0  0
  -25.9220  -38.2160   23.8810 H   0  0  0  0  0  0  0  0  0  0  0  0
  -26.3550  -31.6240   25.0540 C   0  0  1  0  0  0  0  0  0  0  0  0
  -25.2490  -31.3500   26.0990 C   0  0  0  0  0  1  0  0  0  0  0  0
  -26.9740  -30.2630   24.6540 C   0  0  0  0  0  1  0  0  0  0  0  0
  -27.4810  -32.4310   25.7420 C   0  0  0  0  0  1  0  0  0  0  0  0
  1  3  1  0
  1  6  1  0
  2  4  1  0
  2  9  2  0
  3  7  1  0
  3 15  1  0
  4 55  1  0
  5  7  1  0
  6  4  1  0
  7  2  1  0
  8  1  2  0
 10  6  1  0
 12 11  2  0
 13 11  1  0
 14 15  2  0
 14 16  1  0
 15 12  1  0
 16 13  2  0
 17 25  1  0
 18 23  1  0
 19 20  1  0
 19 18  1  0
 21 20  1  0
 21 30  1  0
 21 22  1  0
 23 17  1  0
 23 22  1  0
 24 17  2  0
 25 16  1  0
 26 25  1  0
 27 28  2  0
 28 47  1  0
 29 28  1  0
 29 32  1  0
 30 31  1  0
 30 27  1  0
 31 29  2  0
 32 33  1  0
 33 34  2  0
 35 38  1  0
 35 34  1  0
 36 35  2  0
 37 36  1  0
 37 32  2  0
 38 39  1  0
 39 40  1  0
 40 41  2  0
 42 41  1  0
 42 46  1  0
 43 42  2  0
 44 39  2  0
 44 43  1  0
 45 44  1  0
 47 48  1  0
 48 51  1  0
 48 50  1  0
 49 47  2  0
 52 27  1  0
 52 53  1  0
 54 52  1  0
 56 58  1  0
 56 55  1  0
 57 68  2  0
 58 63  1  0
 59 67  1  0
 59 69  1  0
 60 66  1  0
 60 62  1  0
 61 67  1  0
 62 61  1  0
 63 62  2  0
 64 58  2  0
 65 64  1  0
 65 60  2  0
 66 59  1  0
 67 57  1  0
 69 71  2  0
 70 69  1  0
 72 70  1  0
 73 82  2  0
 73 78  1  0
 74 70  1  0
 74 78  1  0
 75 74  1  0
 76 77  1  0
 76 75  1  0
 77 73  1  0
 78 79  2  0
 79 80  1  0
 81 80  2  0
 82 81  1  0
 83 57  1  0
 83 84  1  0
 83 93  1  0
 84 87  1  0
 85 89  1  0
 85 84  1  0
 86 85  2  0
 89 88  1  0
 91 89  1  0
 91 92  1  0
 91 90  1  0
 93 96  1  1
 93 94  1  0
 95 93  1  0
M  ISO  4  17 100  25 100  55 101  56 101
M  END
>  <TORSDO>  (32) 
F 18

>  <SCORE>  (32) 
-14.006

>  <name>  (32) 
31

>  <ligand_id>  (32) 
31

>  <original_smiles>  (32) 
[H]c1c([H])c(N([H])C(=O)N2C([H])([H])C([H])([H])C([H])([H])C([H])(n3nc(-c4c([H])c([H])c(Oc5c([H])c([H])c(F)c([H])c5F)c([H])c4[H])c(C(=O)N([H])[H])c3N([H])[H])C2([H])[H])c([H])c(C2([H])C(=O)N([H])C([H])(C([H])([H])Oc3c([H])c([H])c4c(c3[H])C([H])([H])N(C(=O)C([H])(N([H])C(=O)C([H])(N([H])C([H])([H])[H])C([H])([H])[H])C(C([H])([H])[H])(C([H])([H])[H])C([H])([H])[H])C([H])(C(=O)N([H])C3([H])c5c([H])c([H])c([H])c([H])c5C([H])([H])C([H])([H])C3([H])[H])C4([H])[H])C(=O)N2C([H])([H])[H])c1[H]

>  <smiles>  (32) 
[H]c1c([H])c(N([H])C(=O)N2C([H])([H])C([H])([H])C([H])([H])C([H])(n3nc(-c4c([H])c([H])c(Oc5c([H])c([H])c(F)c([H])c5F)c([H])c4[H])c(C(=O)N([H])[H])c3N([H])[H])C2([H])[H])c([H])c(C2([H])C(=O)N([H])C([H])(C([H])([H])Oc3c([H])c([H])c4c(c3[H])C([H])([H])N(C(=O)C([H])(N([H])C(=O)C([H])(N([H])C([H])([H])[H])C([H])([H])[H])C(C([H])([H])[H])(C([H])([H])[H])C([H])([H])[H])C([H])(C(=O)N([H])C3([H])c5c([H])c([H])c([H])c([H])c5C([H])([H])C([H])([H])C3([H])[H])C4([H])[H])C(=O)N2C([H])([H])[H])c1[H]

$$$$
32:0:0
     RDKit          3D

 97106  0  0  1  0  0  0  0  0999 V2000
  -29.9260  -23.4490   20.3730 C   0  0  0  0  0  0  0  0  0  0  0  0
  -27.9310  -21.1630   21.7890 C   0  0  0  0  0  2  0  0  0  0  0  0
  -27.8070  -22.6190   21.3440 C   0  0  0  0  0  2  0  0  0  0  0  0
  -29.4040  -21.2210   21.3630 C   0  0  0  0  0  3  0  0  0  0  0  0
  -29.0170  -22.3940   20.5550 N   0  0  0  0  0  0  0  0  0  0  0  0
  -31.0860  -23.3570   20.7760 O   0  0  0  0  0  0  0  0  0  0  0  0
  -29.8510  -19.9730   20.5530 C   0  0  0  0  0  0  0  0  0  0  0  0
  -31.6140  -19.4210   22.1960 C   0  0  0  0  0  1  0  0  0  0  0  0
  -30.6520  -19.0500   21.1480 N   0  0  0  0  0  0  0  0  0  0  0  0
  -29.4110  -19.8200   19.4100 O   0  0  0  0  0  0  0  0  0  0  0  0
  -30.8970  -14.7310   20.0900 C   0  0  0  0  0  0  0  0  0  0  0  0
  -30.5440  -12.5960   18.9120 C   0  0  0  0  0  2  0  0  0  0  0  0
  -29.5240  -12.8130   17.7760 C   0  0  0  0  0  2  0  0  0  0  0  0
  -28.0840  -12.6450   18.2990 C   0  0  0  0  0  2  0  0  0  0  0  0
  -27.8180  -13.4620   19.5910 C   0  0  0  0  0  3  0  0  0  0  0  0
  -28.9420  -13.2320   20.6270 C   0  0  0  0  0  2  0  0  0  0  0  0
  -30.2250  -13.5540   19.9810 N   0  0  0  0  0  0  0  0  0  0  0  0
  -31.9710  -14.9480   19.5180 O   0  0  0  0  0  0  0  0  0  0  0  0
  -30.9930  -16.6060   21.6990 C   0  0  0  0  0  2  0  0  0  0  0  0
  -29.7090  -16.8980   20.1210 C   0  0  0  0  0  2  0  0  0  0  0  0
  -30.9240  -17.6930   20.6180 C   0  0  0  0  0  3  0  0  0  0  0  0
  -30.2700  -15.7040   20.7880 N   0  0  0  0  0  0  0  0  0  0  0  0
  -25.4740  -14.0350   20.4880 C   0  0  0  0  0  0  0  0  0  0  0  0
  -24.4320  -13.2450   20.8920 C   0  0  0  0  0  0  0  0  0  0  0  0
  -24.8870  -11.8980   20.7700 C   0  0  0  0  0  0  0  0  0  0  0  0
  -26.5000  -13.1660   20.1490 N   0  0  0  0  0  0  0  0  0  0  0  0
  -26.1530  -11.8730   20.3740 N   0  0  0  0  0  0  0  0  0  0  0  0
  -24.1730  -10.6260   20.9530 C   0  0  0  0  0  0  0  0  0  0  0  0
  -24.5970   -9.6720   21.9030 C   0  0  0  0  0  3  0  0  0  0  0  0
  -23.8840   -8.4660   22.0740 C   0  0  0  0  0  3  0  0  0  0  0  0
  -22.7330   -8.2050   21.2930 C   0  0  0  0  0  0  0  0  0  0  0  0
  -22.3290   -9.1490   20.3320 C   0  0  0  0  0  3  0  0  0  0  0  0
  -23.0420  -10.3460   20.1600 C   0  0  0  0  0  3  0  0  0  0  0  0
  -21.9940   -7.0490   21.3710 O   0  0  0  0  0  0  0  0  0  0  0  0
  -21.8330   -6.3760   22.5550 C   0  0  0  0  0  0  0  0  0  0  0  0
  -21.2300   -6.9780   23.6790 C   0  0  0  0  0  3  0  0  0  0  0  0
  -21.0230   -6.2290   24.8550 C   0  0  0  0  0  3  0  0  0  0  0  0
  -21.4090   -4.8760   24.9040 C   0  0  0  0  0  0  0  0  0  0  0  0
  -22.0060   -4.2720   23.7830 C   0  0  0  0  0  3  0  0  0  0  0  0
  -22.2150   -5.0200   22.6110 C   0  0  0  0  0  0  0  0  0  0  0  0
  -22.7720   -4.4280   21.5270 F   0  0  0  0  0  0  0  0  0  0  0  0
  -21.2040   -4.1520   26.0290 F   0  0  0  0  0  0  0  0  0  0  0  0
  -23.0560  -13.7090   21.2800 C   0  0  0  0  0  0  0  0  0  0  0  0
  -22.3860  -12.9700   22.1570 N   0  0  0  0  0  0  0  0  0  0  0  0
  -22.5890  -14.7600   20.8440 O   0  0  0  0  0  0  0  0  0  0  0  0
  -22.7760  -12.1160   22.5290 H   0  0  0  0  0  0  0  0  0  0  0  0
  -21.4680  -13.2630   22.4600 H   0  0  0  0  0  0  0  0  0  0  0  0
  -25.6320  -15.4120   20.3630 N   0  0  0  0  0  0  0  0  0  0  0  0
  -24.8840  -16.0680   20.5570 H   0  0  0  0  0  0  0  0  0  0  0  0
  -26.4800  -15.8610   20.0400 H   0  0  0  0  0  0  0  0  0  0  0  0
  -29.4850  -24.6990   19.5790 C   0  0  0  0  0  3  0  0  0  0  0  0
  -28.9270  -24.3150   18.2630 N   0  0  0  0  0  4  0  0  0  0  0  0
  -28.0950  -23.7570   18.3620 H   0  0  0  0  0  0  0  0  0  0  0  0
  -29.6040  -23.7590   17.7680 H   0  0  0  0  0  0  0  0  0  0  0  0
  -28.7230  -25.1260   17.7080 H   0  0  0  0  0  0  0  0  0  0  0  0
  -28.5520  -25.6430   20.3780 C   0  0  0  0  0  2  0  0  0  0  0  0
  -28.5930  -26.9940   19.8770 O   0  0  0  0  0  0  0  0  0  0  0  0
  -24.6720  -31.9600   23.1760 C   0  0  0  0  0  0  0  0  0  0  0  0
  -27.4060  -27.6930   19.9270 C   0  0  0  0  0  0  0  0  0  0  0  0
  -23.4920  -30.5870   21.4910 C   0  0  0  0  0  3  0  0  0  0  0  0
  -24.9760  -29.1380   20.0050 C   0  0  0  0  0  0  0  0  0  0  0  0
  -26.0060  -31.0150   21.2930 C   0  0  0  0  0  2  0  0  0  0  0  0
  -26.1250  -29.6690   20.6070 C   0  0  0  0  0  0  0  0  0  0  0  0
  -27.3460  -28.9550   20.5640 C   0  0  0  0  0  3  0  0  0  0  0  0
  -26.2420  -27.1820   19.3130 C   0  0  0  0  0  3  0  0  0  0  0  0
  -25.0310  -27.8940   19.3550 C   0  0  0  0  0  3  0  0  0  0  0  0
  -23.7130  -29.9630   20.0880 C   0  0  0  0  0  2  0  0  0  0  0  0
  -24.7430  -31.2000   22.0460 N   0  0  0  0  0  0  0  0  0  0  0  0
  -23.5880  -32.1870   23.7290 O   0  0  0  0  0  0  0  0  0  0  0  0
  -22.8730  -29.5160   22.4160 C   0  0  0  0  0  0  0  0  0  0  0  0
  -21.5550  -29.2930   22.2750 N   0  0  0  0  0  0  0  0  0  0  0  0
  -23.5730  -28.8880   23.2160 O   0  0  0  0  0  0  0  0  0  0  0  0
  -21.0470  -29.8640   21.6140 H   0  0  0  0  0  0  0  0  0  0  0  0
  -18.2170  -27.9770   22.7210 C   0  0  0  0  0  0  0  0  0  0  0  0
  -20.7660  -28.3040   23.0090 C   0  0  0  0  0  3  0  0  0  0  0  0
  -20.9110  -26.8950   22.3870 C   0  0  0  0  0  2  0  0  0  0  0  0
  -19.8220  -26.5720   21.3590 C   0  0  0  0  0  2  0  0  0  0  0  0
  -18.4360  -26.6560   22.0020 C   0  0  0  0  0  2  0  0  0  0  0  0
  -19.3120  -28.7580   23.1780 C   0  0  0  0  0  0  0  0  0  0  0  0
  -19.0540  -29.9980   23.8060 C   0  0  0  0  0  3  0  0  0  0  0  0
  -17.7350  -30.4550   23.9790 C   0  0  0  0  0  3  0  0  0  0  0  0
  -16.6550  -29.6690   23.5410 C   0  0  0  0  0  3  0  0  0  0  0  0
  -16.8970  -28.4310   22.9180 C   0  0  0  0  0  3  0  0  0  0  0  0
  -25.9470  -32.5990   23.8130 C   0  0  0  0  0  3  0  0  0  0  0  0
  -26.4670  -31.8220   25.0850 C   0  0  1  0  0  0  0  0  0  0  0  0
  -25.3690  -31.5510   26.1400 C   0  0  0  0  0  1  0  0  0  0  0  0
  -27.0820  -30.4630   24.6770 C   0  0  0  0  0  1  0  0  0  0  0  0
  -27.5940  -32.6300   25.7700 C   0  0  0  0  0  1  0  0  0  0  0  0
  -25.6210  -33.9910   24.1520 N   0  0  0  0  0  0  0  0  0  0  0  0
  -25.9530  -35.0530   23.4060 C   0  0  0  0  0  0  0  0  0  0  0  0
  -26.6350  -34.9670   22.3820 O   0  0  0  0  0  0  0  0  0  0  0  0
  -25.0190  -34.1310   24.9510 H   0  0  0  0  0  0  0  0  0  0  0  0
  -24.2170  -36.8350   23.0390 C   0  0  0  0  0  1  0  0  0  0  0  0
  -25.4440  -36.4300   23.8720 C   0  0  0  0  0  3  0  0  0  0  0  0
  -27.5480  -37.3240   24.7660 C   0  0  0  0  0  1  0  0  0  0  0  0
  -26.4690  -37.4920   23.7970 N   0  0  0  0  0  0  0  0  0  0  0  0
  -26.0510  -38.4070   23.9440 H   0  0  0  0  0  0  0  0  0  0  0  0
  1  5  1  0
  1  6  2  0
  3  2  1  0
  4  7  1  0
  4  2  1  0
  5  3  1  0
  5  4  1  0
  7  9  1  0
  9  8  1  0
 10  7  2  0
 11 22  1  0
 12 17  1  0
 13 14  1  0
 13 12  1  0
 15 14  1  0
 15 26  1  0
 15 16  1  0
 17 11  1  0
 17 16  1  0
 18 11  2  0
 20 21  1  0
 20 22  1  0
 21  9  1  0
 21 19  1  0
 22 19  1  0
 23 24  2  0
 24 43  1  0
 25 24  1  0
 25 28  1  0
 26 27  1  0
 26 23  1  0
 27 25  2  0
 28 29  1  0
 29 30  2  0
 31 34  1  0
 31 30  1  0
 32 31  2  0
 33 32  1  0
 33 28  2  0
 34 35  1  0
 35 40  2  0
 35 36  1  0
 36 37  2  0
 37 38  1  0
 38 42  1  0
 39 38  2  0
 40 39  1  0
 41 40  1  0
 43 44  1  0
 44 47  1  0
 44 46  1  0
 45 43  2  0
 48 23  1  0
 48 49  1  0
 50 48  1  0
 51  1  1  0
 51 56  1  0
 52 53  1  0
 52 51  1  0
 54 52  1  0
 55 52  1  0
 57 59  1  0
 57 56  1  0
 58 69  2  0
 59 64  1  0
 60 68  1  0
 60 70  1  0
 61 67  1  0
 61 63  1  0
 62 68  1  0
 63 62  1  0
 64 63  2  0
 65 66  1  0
 65 59  2  0
 66 61  2  0
 67 60  1  0
 68 58  1  0
 70 72  2  0
 71 70  1  0
 73 71  1  0
 74 83  2  0
 74 79  1  0
 75 71  1  0
 75 79  1  0
 76 75  1  0
 77 78  1  0
 77 76  1  0
 78 74  1  0
 79 80  2  0
 80 81  1  0
 82 81  2  0
 83 82  1  0
 84 58  1  0
 84 89  1  0
 84 85  1  0
 85 88  1  1
 85 86  1  0
 87 85  1  0
 89 92  1  0
 90 94  1  0
 90 89  1  0
 91 90  2  0
 94 93  1  0
 96 94  1  0
 96 97  1  0
 96 95  1  0
M  ISO  4  11 100  22 100  56 101  57 101
M  END
>  <TORSDO>  (33) 
F 20

>  <SCORE>  (33) 
-13.301

>  <name>  (33) 
32

>  <ligand_id>  (33) 
32

>  <original_smiles>  (33) 
[H]c1c([H])c([H])c2c(c1[H])C([H])([H])C([H])([H])C([H])([H])C2([H])N([H])C(=O)C1([H])N(C(=O)C([H])(N([H])C(=O)C([H])(N([H])C([H])([H])[H])C([H])([H])[H])C(C([H])([H])[H])(C([H])([H])[H])C([H])([H])[H])C([H])([H])c2c([H])c(OC([H])([H])C([H])(C(=O)N3C([H])([H])C([H])([H])C3([H])C(=O)N(C([H])([H])[H])C3([H])C([H])([H])N(C(=O)N4C([H])([H])C([H])([H])C([H])([H])C([H])(n5nc(-c6c([H])c([H])c(Oc7c([H])c([H])c(F)c([H])c7F)c([H])c6[H])c(C(=O)N([H])[H])c5N([H])[H])C4([H])[H])C3([H])[H])[N+]([H])([H])[H])c([H])c([H])c2C1([H])[H]

>  <smiles>  (33) 
[H]c1c([H])c([H])c2c(c1[H])C([H])([H])C([H])([H])C([H])([H])C2([H])N([H])C(=O)C1([H])N(C(=O)C([H])(N([H])C(=O)C([H])(N([H])C([H])([H])[H])C([H])([H])[H])C(C([H])([H])[H])(C([H])([H])[H])C([H])([H])[H])C([H])([H])c2c([H])c(OC([H])([H])C([H])(C(=O)N3C([H])([H])C([H])([H])C3([H])C(=O)N(C([H])([H])[H])C3([H])C([H])([H])N(C(=O)N4C([H])([H])C([H])([H])C([H])([H])C([H])(n5nc(-c6c([H])c([H])c(Oc7c([H])c([H])c(F)c([H])c7F)c([H])c6[H])c(C(=O)N([H])[H])c5N([H])[H])C4([H])[H])C3([H])[H])[N+]([H])([H])[H])c([H])c([H])c2C1([H])[H]

$$$$
33:0:0
     RDKit          3D

 95103  0  0  1  0  0  0  0  0999 V2000
  -29.2230  -23.9730   20.2740 C   0  0  0  0  0  0  0  0  0  0  0  0
  -29.0440  -22.6060   20.0750 N   0  0  0  0  0  0  0  0  0  0  0  0
  -30.2970  -24.4070   20.6960 O   0  0  0  0  0  0  0  0  0  0  0  0
  -30.1280  -21.6080   20.4410 C   0  0  0  0  0  2  0  0  0  0  0  0
  -30.2330  -19.3440   21.7320 C   0  0  0  0  0  3  0  0  0  0  0  0
  -29.7230  -19.2030   19.3840 C   0  0  0  0  0  3  0  0  0  0  0  0
  -30.2640  -17.9220   21.8180 C   0  0  0  0  0  3  0  0  0  0  0  0
  -29.7590  -17.7750   19.4640 C   0  0  0  0  0  3  0  0  0  0  0  0
  -29.9560  -20.0340   20.5190 C   0  0  0  0  0  0  0  0  0  0  0  0
  -30.0480  -17.0960   20.6820 C   0  0  0  0  0  0  0  0  0  0  0  0
  -30.7210  -14.6450   20.2540 C   0  0  0  0  0  0  0  0  0  0  0  0
  -30.4990  -12.4270   19.1480 C   0  0  0  0  0  2  0  0  0  0  0  0
  -29.5260  -12.6060   17.9590 C   0  0  0  0  0  2  0  0  0  0  0  0
  -28.0570  -12.4510   18.4190 C   0  0  0  0  0  2  0  0  0  0  0  0
  -27.7400  -13.2550   19.7100 C   0  0  0  0  0  3  0  0  0  0  0  0
  -28.8310  -13.0450   20.7820 C   0  0  0  0  0  2  0  0  0  0  0  0
  -30.1240  -13.4130   20.1800 N   0  0  0  0  0  0  0  0  0  0  0  0
  -31.8330  -14.8490   19.7500 O   0  0  0  0  0  0  0  0  0  0  0  0
  -29.9790  -15.6440   20.8200 N   0  0  0  0  0  0  0  0  0  0  0  0
  -29.1810  -15.3010   21.3360 H   0  0  0  0  0  0  0  0  0  0  0  0
  -25.3710  -13.8270   20.5280 C   0  0  0  0  0  0  0  0  0  0  0  0
  -24.3180  -13.0420   20.9130 C   0  0  0  0  0  0  0  0  0  0  0  0
  -24.7760  -11.6930   20.8200 C   0  0  0  0  0  0  0  0  0  0  0  0
  -26.4050  -12.9560   20.2270 N   0  0  0  0  0  0  0  0  0  0  0  0
  -26.0540  -11.6650   20.4610 N   0  0  0  0  0  0  0  0  0  0  0  0
  -24.0540  -10.4270   21.0020 C   0  0  0  0  0  0  0  0  0  0  0  0
  -24.4790   -9.4610   21.9420 C   0  0  0  0  0  3  0  0  0  0  0  0
  -23.7580   -8.2600   22.1100 C   0  0  0  0  0  3  0  0  0  0  0  0
  -22.5950   -8.0140   21.3400 C   0  0  0  0  0  0  0  0  0  0  0  0
  -22.1890   -8.9710   20.3920 C   0  0  0  0  0  3  0  0  0  0  0  0
  -22.9110  -10.1630   20.2210 C   0  0  0  0  0  3  0  0  0  0  0  0
  -21.8470   -6.8640   21.4200 O   0  0  0  0  0  0  0  0  0  0  0  0
  -21.7300   -6.1620   22.5910 C   0  0  0  0  0  0  0  0  0  0  0  0
  -21.1950   -6.7490   23.7580 C   0  0  0  0  0  3  0  0  0  0  0  0
  -21.0160   -5.9690   24.9200 C   0  0  0  0  0  3  0  0  0  0  0  0
  -21.3710   -4.6050   24.9120 C   0  0  0  0  0  0  0  0  0  0  0  0
  -21.8990   -4.0190   23.7470 C   0  0  0  0  0  3  0  0  0  0  0  0
  -22.0730   -4.7960   22.5890 C   0  0  0  0  0  0  0  0  0  0  0  0
  -22.5620   -4.2230   21.4630 F   0  0  0  0  0  0  0  0  0  0  0  0
  -21.1950   -3.8520   26.0240 F   0  0  0  0  0  0  0  0  0  0  0  0
  -22.9330  -13.5130   21.2530 C   0  0  0  0  0  0  0  0  0  0  0  0
  -22.2330  -12.8000   22.1300 N   0  0  0  0  0  0  0  0  0  0  0  0
  -22.4760  -14.5510   20.7720 O   0  0  0  0  0  0  0  0  0  0  0  0
  -22.6090  -11.9620   22.5490 H   0  0  0  0  0  0  0  0  0  0  0  0
  -21.3020  -13.1020   22.3840 H   0  0  0  0  0  0  0  0  0  0  0  0
  -25.5260  -15.2020   20.3920 N   0  0  0  0  0  0  0  0  0  0  0  0
  -24.7520  -15.8400   20.5450 H   0  0  0  0  0  0  0  0  0  0  0  0
  -26.3570  -15.6660   20.0500 H   0  0  0  0  0  0  0  0  0  0  0  0
  -28.0740  -25.0310   20.0050 C   0  0  0  0  0  2  0  0  0  0  0  0
  -28.3410  -26.4630   20.3030 O   0  0  0  0  0  0  0  0  0  0  0  0
  -24.6590  -31.8970   23.2980 C   0  0  0  0  0  0  0  0  0  0  0  0
  -27.2390  -27.3370   20.2300 C   0  0  0  0  0  0  0  0  0  0  0  0
  -23.4440  -30.5150   21.6500 C   0  0  0  0  0  3  0  0  0  0  0  0
  -24.8870  -28.9710   20.2140 C   0  0  0  0  0  0  0  0  0  0  0  0
  -25.9870  -30.8180   21.4740 C   0  0  0  0  0  2  0  0  0  0  0  0
  -26.0590  -29.4430   20.8220 C   0  0  0  0  0  0  0  0  0  0  0  0
  -27.2360  -28.6370   20.8250 C   0  0  0  0  0  3  0  0  0  0  0  0
  -26.0470  -26.9300   19.5820 C   0  0  0  0  0  3  0  0  0  0  0  0
  -24.8860  -27.7190   19.5830 C   0  0  0  0  0  3  0  0  0  0  0  0
  -23.6550  -29.8500   20.2650 C   0  0  0  0  0  2  0  0  0  0  0  0
  -24.7160  -31.0940   22.1970 N   0  0  0  0  0  0  0  0  0  0  0  0
  -23.5770  -32.1830   23.8330 O   0  0  0  0  0  0  0  0  0  0  0  0
  -22.7750  -29.4980   22.6040 C   0  0  0  0  0  0  0  0  0  0  0  0
  -21.4490  -29.3250   22.4690 N   0  0  0  0  0  0  0  0  0  0  0  0
  -23.4460  -28.8700   23.4260 O   0  0  0  0  0  0  0  0  0  0  0  0
  -20.9680  -29.8890   21.7830 H   0  0  0  0  0  0  0  0  0  0  0  0
  -18.0640  -28.1410   22.9460 C   0  0  0  0  0  0  0  0  0  0  0  0
  -20.6200  -28.3900   23.2330 C   0  0  0  0  0  3  0  0  0  0  0  0
  -20.7190  -26.9570   22.6570 C   0  0  0  0  0  2  0  0  0  0  0  0
  -19.6220  -26.6400   21.6350 C   0  0  0  0  0  2  0  0  0  0  0  0
  -18.2380  -26.7920   22.2710 C   0  0  0  0  0  2  0  0  0  0  0  0
  -19.1820  -28.8990   23.3840 C   0  0  0  0  0  0  0  0  0  0  0  0
  -18.9670  -30.1610   23.9770 C   0  0  0  0  0  3  0  0  0  0  0  0
  -17.6630  -30.6680   24.1390 C   0  0  0  0  0  3  0  0  0  0  0  0
  -16.5580  -29.9070   23.7150 C   0  0  0  0  0  3  0  0  0  0  0  0
  -16.7590  -28.6460   23.1260 C   0  0  0  0  0  3  0  0  0  0  0  0
  -25.9460  -32.5160   23.9250 C   0  0  0  0  0  3  0  0  0  0  0  0
  -25.6500  -33.9180   24.2550 N   0  0  0  0  0  0  0  0  0  0  0  0
  -25.9670  -34.9630   23.4800 C   0  0  0  0  0  0  0  0  0  0  0  0
  -26.6090  -34.8500   22.4340 O   0  0  0  0  0  0  0  0  0  0  0  0
  -25.0790  -34.0820   25.0710 H   0  0  0  0  0  0  0  0  0  0  0  0
  -24.2220  -36.7510   23.1800 C   0  0  0  0  0  1  0  0  0  0  0  0
  -25.4970  -36.3570   23.9410 C   0  0  0  0  0  3  0  0  0  0  0  0
  -27.6610  -37.2580   24.6720 C   0  0  0  0  0  1  0  0  0  0  0  0
  -26.5230  -37.4090   23.7710 N   0  0  0  0  0  0  0  0  0  0  0  0
  -26.1200  -38.3300   23.9180 H   0  0  0  0  0  0  0  0  0  0  0  0
  -26.4490  -31.7390   25.2030 C   0  0  1  0  0  0  0  0  0  0  0  0
  -25.3490  -31.5130   26.2660 C   0  0  0  0  0  1  0  0  0  0  0  0
  -27.0210  -30.3550   24.8170 C   0  0  0  0  0  1  0  0  0  0  0  0
  -27.6020  -32.5230   25.8710 C   0  0  0  0  0  1  0  0  0  0  0  0
  -27.8240  -22.0450   19.4690 C   0  0  0  0  0  2  0  0  0  0  0  0
  -27.8210  -22.0710   17.9230 C   0  0  1  0  0  0  0  0  0  0  0  0
  -26.9830  -21.1390   17.4710 F   0  0  0  0  0  0  0  0  0  0  0  0
  -27.4060  -23.2430   17.4500 F   0  0  0  0  0  0  0  0  0  0  0  0
  -29.0350  -21.8220   17.4350 F   0  0  0  0  0  0  0  0  0  0  0  0
  1  3  2  0
  2  1  1  0
  2  4  1  0
  4  9  1  0
  5  7  1  0
  6  8  2  0
  6  9  1  0
  8 10  1  0
  9  5  2  0
 10 19  1  0
 10  7  2  0
 11 19  1  0
 12 17  1  0
 13 14  1  0
 13 12  1  0
 15 14  1  0
 15 24  1  0
 15 16  1  0
 17 11  1  0
 17 16  1  0
 18 11  2  0
 19 20  1  0
 21 22  2  0
 22 41  1  0
 23 22  1  0
 23 26  1  0
 24 25  1  0
 24 21  1  0
 25 23  2  0
 26 27  1  0
 27 28  2  0
 29 32  1  0
 29 28  1  0
 30 29  2  0
 31 30  1  0
 31 26  2  0
 32 33  1  0
 33 34  1  0
 34 35  2  0
 36 35  1  0
 36 40  1  0
 37 36  2  0
 38 33  2  0
 38 37  1  0
 39 38  1  0
 41 42  1  0
 42 45  1  0
 42 44  1  0
 43 41  2  0
 46 21  1  0
 46 47  1  0
 48 46  1  0
 49  1  1  0
 49 50  1  0
 51 62  2  0
 52 50  1  0
 52 57  1  0
 53 61  1  0
 53 63  1  0
 54 60  1  0
 54 56  1  0
 55 61  1  0
 56 57  2  0
 56 55  1  0
 58 59  1  0
 58 52  2  0
 59 54  2  0
 60 53  1  0
 61 51  1  0
 63 65  2  0
 64 63  1  0
 66 64  1  0
 67 76  2  0
 67 72  1  0
 68 64  1  0
 68 72  1  0
 69 68  1  0
 70 71  1  0
 70 69  1  0
 71 67  1  0
 72 73  2  0
 73 74  1  0
 75 74  2  0
 76 75  1  0
 77 51  1  0
 77 78  1  0
 77 87  1  0
 78 81  1  0
 79 83  1  0
 79 78  1  0
 80 79  2  0
 83 82  1  0
 85 86  1  0
 85 83  1  0
 85 84  1  0
 87 90  1  1
 87 88  1  0
 89 87  1  0
 91  2  1  0
 92 91  1  0
 92 93  1  6
 94 92  1  0
 95 92  1  0
M  ISO  4  11 100  19 100  49 101  50 101
M  END
>  <TORSDO>  (34) 
F 21

>  <SCORE>  (34) 
-13.355

>  <name>  (34) 
33

>  <ligand_id>  (34) 
33

>  <original_smiles>  (34) 
[H]c1c([H])c([H])c2c(c1[H])C([H])([H])C([H])([H])C([H])([H])C2([H])N([H])C(=O)C1([H])N(C(=O)C([H])(N([H])C(=O)C([H])(N([H])C([H])([H])[H])C([H])([H])[H])C(C([H])([H])[H])(C([H])([H])[H])C([H])([H])[H])C([H])([H])c2c([H])c(OC([H])([H])C(=O)N(C([H])([H])c3c([H])c([H])c(N([H])C(=O)N4C([H])([H])C([H])([H])C([H])([H])C([H])(n5nc(-c6c([H])c([H])c(Oc7c([H])c([H])c(F)c([H])c7F)c([H])c6[H])c(C(=O)N([H])[H])c5N([H])[H])C4([H])[H])c([H])c3[H])C([H])([H])C(F)(F)F)c([H])c([H])c2C1([H])[H]

>  <smiles>  (34) 
[H]c1c([H])c([H])c2c(c1[H])C([H])([H])C([H])([H])C([H])([H])C2([H])N([H])C(=O)C1([H])N(C(=O)C([H])(N([H])C(=O)C([H])(N([H])C([H])([H])[H])C([H])([H])[H])C(C([H])([H])[H])(C([H])([H])[H])C([H])([H])[H])C([H])([H])c2c([H])c(OC([H])([H])C(=O)N(C([H])([H])c3c([H])c([H])c(N([H])C(=O)N4C([H])([H])C([H])([H])C([H])([H])C([H])(n5nc(-c6c([H])c([H])c(Oc7c([H])c([H])c(F)c([H])c7F)c([H])c6[H])c(C(=O)N([H])[H])c5N([H])[H])C4([H])[H])c([H])c3[H])C([H])([H])C(F)(F)F)c([H])c([H])c2C1([H])[H]

$$$$
34:0:0
     RDKit          3D

100109  0  0  1  0  0  0  0  0999 V2000
  -30.1380  -22.1470   21.7490 C   0  0  0  0  0  0  0  0  0  0  0  0
  -30.0290  -20.9740   23.8650 C   0  0  0  0  0  1  0  0  0  0  0  0
  -30.1590  -20.9570   22.4040 N   0  0  0  0  0  0  0  0  0  0  0  0
  -30.1510  -23.2180   22.3690 O   0  0  0  0  0  0  0  0  0  0  0  0
  -28.7790  -24.2340   19.4850 C   0  0  0  0  0  0  0  0  0  0  0  0
  -31.4140  -22.1320   19.4650 C   0  0  0  0  0  2  0  0  0  0  0  0
  -30.9820  -23.3640   18.6550 C   0  0  0  0  0  2  0  0  0  0  0  0
  -30.0690  -22.1930   20.2070 C   0  0  0  0  0  3  0  0  0  0  0  0
  -29.9910  -23.5640   19.6970 N   0  0  0  0  0  0  0  0  0  0  0  0
  -27.7190  -23.7870   19.9280 O   0  0  0  0  0  0  0  0  0  0  0  0
  -28.7970  -25.5260   18.6430 C   0  0  0  0  0  2  0  0  0  0  0  0
  -28.6160  -26.6810   19.4800 O   0  0  0  0  0  0  0  0  0  0  0  0
  -24.6950  -31.5180   22.9320 C   0  0  0  0  0  0  0  0  0  0  0  0
  -27.3900  -27.3150   19.5510 C   0  0  0  0  0  0  0  0  0  0  0  0
  -23.4910  -30.1720   21.2420 C   0  0  0  0  0  3  0  0  0  0  0  0
  -24.9510  -28.7420   19.7200 C   0  0  0  0  0  0  0  0  0  0  0  0
  -26.0040  -30.6020   21.0180 C   0  0  0  0  0  2  0  0  0  0  0  0
  -26.1080  -29.2660   20.3080 C   0  0  0  0  0  0  0  0  0  0  0  0
  -27.3250  -28.5550   20.2280 C   0  0  0  0  0  3  0  0  0  0  0  0
  -26.2030  -26.7900   18.9880 C   0  0  0  0  0  3  0  0  0  0  0  0
  -24.9910  -27.4990   19.0670 C   0  0  0  0  0  3  0  0  0  0  0  0
  -23.6890  -29.5660   19.8280 C   0  0  0  0  0  2  0  0  0  0  0  0
  -24.7490  -30.7760   21.7890 N   0  0  0  0  0  0  0  0  0  0  0  0
  -23.6180  -31.7340   23.5060 O   0  0  0  0  0  0  0  0  0  0  0  0
  -22.8840  -29.0850   22.1580 C   0  0  0  0  0  0  0  0  0  0  0  0
  -21.5550  -28.9100   22.0750 N   0  0  0  0  0  0  0  0  0  0  0  0
  -23.6020  -28.4060   22.8950 O   0  0  0  0  0  0  0  0  0  0  0  0
  -21.0350  -29.5160   21.4560 H   0  0  0  0  0  0  0  0  0  0  0  0
  -18.2010  -27.6940   22.6480 C   0  0  0  0  0  0  0  0  0  0  0  0
  -20.7700  -27.9210   22.8120 C   0  0  0  0  0  3  0  0  0  0  0  0
  -20.8350  -26.5350   22.1300 C   0  0  0  0  0  2  0  0  0  0  0  0
  -19.6830  -26.2900   21.1500 C   0  0  0  0  0  2  0  0  0  0  0  0
  -18.3350  -26.3950   21.8700 C   0  0  0  0  0  2  0  0  0  0  0  0
  -19.3440  -28.4180   23.0750 C   0  0  0  0  0  0  0  0  0  0  0  0
  -19.1630  -29.6390   23.7610 C   0  0  0  0  0  3  0  0  0  0  0  0
  -17.8720  -30.1290   24.0290 C   0  0  0  0  0  3  0  0  0  0  0  0
  -16.7440  -29.3990   23.6160 C   0  0  0  0  0  3  0  0  0  0  0  0
  -16.9090  -28.1830   22.9290 C   0  0  0  0  0  3  0  0  0  0  0  0
  -25.9780  -32.1460   23.5620 C   0  0  0  0  0  3  0  0  0  0  0  0
  -26.5600  -31.3010   24.7610 C   0  0  1  0  0  0  0  0  0  0  0  0
  -25.5140  -30.9550   25.8460 C   0  0  0  0  0  1  0  0  0  0  0  0
  -27.1660  -29.9740   24.2520 C   0  0  0  0  0  1  0  0  0  0  0  0
  -27.7150  -32.0760   25.4370 C   0  0  0  0  0  1  0  0  0  0  0  0
  -25.6360  -33.5040   24.0020 N   0  0  0  0  0  0  0  0  0  0  0  0
  -25.9310  -34.6190   23.3210 C   0  0  0  0  0  0  0  0  0  0  0  0
  -26.5960  -34.6130   22.2820 O   0  0  0  0  0  0  0  0  0  0  0  0
  -25.0440  -33.5810   24.8170 H   0  0  0  0  0  0  0  0  0  0  0  0
  -24.1510  -36.3840   23.1060 C   0  0  0  0  0  1  0  0  0  0  0  0
  -25.4060  -35.9540   23.8820 C   0  0  0  0  0  3  0  0  0  0  0  0
  -27.5190  -36.8300   24.7750 C   0  0  0  0  0  1  0  0  0  0  0  0
  -26.4080  -37.0420   23.8520 N   0  0  0  0  0  0  0  0  0  0  0  0
  -25.9770  -37.9360   24.0750 H   0  0  0  0  0  0  0  0  0  0  0  0
  -31.5580  -17.5230   21.8720 C   0  0  0  0  0  3  0  0  0  0  0  0
  -31.4620  -18.8900   22.2190 C   0  0  0  0  0  3  0  0  0  0  0  0
  -29.4800  -17.7280   20.6270 C   0  0  0  0  0  3  0  0  0  0  0  0
  -29.3710  -19.0980   20.9600 C   0  0  0  0  0  0  0  0  0  0  0  0
  -30.5390  -16.9240   21.1030 C   0  0  0  0  0  0  0  0  0  0  0  0
  -30.3600  -19.6770   21.8010 C   0  0  0  0  0  0  0  0  0  0  0  0
  -31.1970  -14.6230   20.2060 C   0  0  0  0  0  0  0  0  0  0  0  0
  -30.8420  -12.5420   18.9120 C   0  0  0  0  0  2  0  0  0  0  0  0
  -29.8520  -12.8530   17.7660 C   0  0  0  0  0  2  0  0  0  0  0  0
  -28.3870  -12.7540   18.2390 C   0  0  0  0  0  2  0  0  0  0  0  0
  -28.1350  -13.5150   19.5670 C   0  0  0  0  0  3  0  0  0  0  0  0
  -29.2130  -13.1320   20.6080 C   0  0  0  0  0  2  0  0  0  0  0  0
  -30.5320  -13.4500   20.0250 N   0  0  0  0  0  0  0  0  0  0  0  0
  -32.3070  -14.8620   19.7230 O   0  0  0  0  0  0  0  0  0  0  0  0
  -30.4250  -15.5310   20.8370 N   0  0  0  0  0  0  0  0  0  0  0  0
  -29.5360  -15.1320   21.0900 H   0  0  0  0  0  0  0  0  0  0  0  0
  -25.7960  -14.2130   20.3860 C   0  0  0  0  0  0  0  0  0  0  0  0
  -24.7030  -13.4780   20.7590 C   0  0  0  0  0  0  0  0  0  0  0  0
  -25.0920  -12.1080   20.6420 C   0  0  0  0  0  0  0  0  0  0  0  0
  -26.7850  -13.2920   20.0740 N   0  0  0  0  0  0  0  0  0  0  0  0
  -26.3660  -12.0200   20.2820 N   0  0  0  0  0  0  0  0  0  0  0  0
  -24.3120  -10.8750   20.7970 C   0  0  0  0  0  0  0  0  0  0  0  0
  -24.7030   -9.8630   21.7010 C   0  0  0  0  0  3  0  0  0  0  0  0
  -23.9260   -8.6910   21.8400 C   0  0  0  0  0  3  0  0  0  0  0  0
  -22.7490   -8.5250   21.0750 C   0  0  0  0  0  0  0  0  0  0  0  0
  -22.3770   -9.5270   20.1600 C   0  0  0  0  0  3  0  0  0  0  0  0
  -23.1510  -10.6890   20.0180 C   0  0  0  0  0  3  0  0  0  0  0  0
  -21.9480   -7.4090   21.1270 O   0  0  0  0  0  0  0  0  0  0  0  0
  -21.7910   -6.6880   22.2830 C   0  0  0  0  0  0  0  0  0  0  0  0
  -21.3430   -7.2880   23.4800 C   0  0  0  0  0  3  0  0  0  0  0  0
  -21.1280   -6.4990   24.6270 C   0  0  0  0  0  3  0  0  0  0  0  0
  -21.3510   -5.1100   24.5790 C   0  0  0  0  0  0  0  0  0  0  0  0
  -21.7940   -4.5090   23.3870 C   0  0  0  0  0  3  0  0  0  0  0  0
  -22.0100   -5.2950   22.2410 C   0  0  0  0  0  0  0  0  0  0  0  0
  -22.4160   -4.7080   21.0890 F   0  0  0  0  0  0  0  0  0  0  0  0
  -21.1380   -4.3500   25.6790 F   0  0  0  0  0  0  0  0  0  0  0  0
  -23.3420  -14.0100   21.1050 C   0  0  0  0  0  0  0  0  0  0  0  0
  -22.6150  -13.3210   21.9770 N   0  0  0  0  0  0  0  0  0  0  0  0
  -22.9290  -15.0680   20.6320 O   0  0  0  0  0  0  0  0  0  0  0  0
  -22.9600  -12.4630   22.3840 H   0  0  0  0  0  0  0  0  0  0  0  0
  -21.7030  -13.6620   22.2470 H   0  0  0  0  0  0  0  0  0  0  0  0
  -26.0260  -15.5810   20.2670 N   0  0  0  0  0  0  0  0  0  0  0  0
  -25.2930  -16.2650   20.4230 H   0  0  0  0  0  0  0  0  0  0  0  0
  -26.8520  -15.9810   19.8420 H   0  0  0  0  0  0  0  0  0  0  0  0
  -28.1550  -19.8880   20.4680 C   0  0  1  0  0  0  0  0  0  0  0  0
  -27.4700  -19.2150   19.5400 F   0  0  0  0  0  0  0  0  0  0  0  0
  -27.3360  -20.1350   21.4890 F   0  0  0  0  0  0  0  0  0  0  0  0
  -28.5230  -21.0470   19.9250 F   0  0  0  0  0  0  0  0  0  0  0  0
  1  4  2  0
  1  3  1  0
  3  2  1  0
  5  9  1  0
  5 10  2  0
  6  8  1  0
  7  6  1  0
  7  9  1  0
  8  1  1  0
  9  8  1  0
 11 12  1  0
 11  5  1  0
 12 14  1  0
 13 24  2  0
 14 19  1  0
 15 23  1  0
 15 25  1  0
 16 22  1  0
 16 18  1  0
 17 23  1  0
 18 17  1  0
 19 18  2  0
 20 21  1  0
 20 14  2  0
 21 16  2  0
 22 15  1  0
 23 13  1  0
 25 27  2  0
 26 25  1  0
 28 26  1  0
 29 38  2  0
 29 34  1  0
 30 26  1  0
 30 34  1  0
 31 30  1  0
 32 33  1  0
 32 31  1  0
 33 29  1  0
 34 35  2  0
 35 36  1  0
 37 36  2  0
 38 37  1  0
 39 13  1  0
 39 44  1  0
 39 40  1  0
 40 43  1  1
 40 41  1  0
 42 40  1  0
 44 47  1  0
 45 49  1  0
 45 44  1  0
 46 45  2  0
 49 48  1  0
 51 49  1  0
 51 52  1  0
 51 50  1  0
 53 54  1  0
 55 56  2  0
 55 57  1  0
 56 58  1  0
 57 53  2  0
 58 54  2  0
 58  3  1  0
 59 67  1  0
 60 65  1  0
 61 62  1  0
 61 60  1  0
 63 62  1  0
 63 72  1  0
 63 64  1  0
 65 59  1  0
 65 64  1  0
 66 59  2  0
 67 68  1  0
 67 57  1  0
 69 70  2  0
 70 89  1  0
 71 70  1  0
 71 74  1  0
 72 73  1  0
 72 69  1  0
 73 71  2  0
 74 75  1  0
 75 76  2  0
 77 80  1  0
 77 76  1  0
 78 77  2  0
 79 78  1  0
 79 74  2  0
 80 81  1  0
 81 82  1  0
 82 83  2  0
 84 83  1  0
 84 88  1  0
 85 84  2  0
 86 81  2  0
 86 85  1  0
 87 86  1  0
 89 90  1  0
 90 93  1  0
 90 92  1  0
 91 89  2  0
 94 69  1  0
 94 95  1  0
 96 94  1  0
 97 56  1  0
 97 99  1  1
 98 97  1  0
100 97  1  0
M  ISO  4  11 101  12 101  59 100  67 100
M  END
>  <TORSDO>  (35) 
F 20

>  <SCORE>  (35) 
-11.645

>  <name>  (35) 
34

>  <ligand_id>  (35) 
34

>  <original_smiles>  (35) 
[H]c1c([H])c([H])c2c(c1[H])C([H])([H])C([H])([H])C([H])([H])C2([H])N([H])C(=O)C1([H])N(C(=O)C([H])(N([H])C(=O)C([H])(N([H])C([H])([H])[H])C([H])([H])[H])C(C([H])([H])[H])(C([H])([H])[H])C([H])([H])[H])C([H])([H])c2c([H])c(OC([H])([H])C(=O)N3C([H])([H])C([H])([H])C3([H])C(=O)N(c3c([H])c([H])c(N([H])C(=O)N4C([H])([H])C([H])([H])C([H])([H])C([H])(n5nc(-c6c([H])c([H])c(Oc7c([H])c([H])c(F)c([H])c7F)c([H])c6[H])c(C(=O)N([H])[H])c5N([H])[H])C4([H])[H])c([H])c3C(F)(F)F)C([H])([H])[H])c([H])c([H])c2C1([H])[H]

>  <smiles>  (35) 
[H]c1c([H])c([H])c2c(c1[H])C([H])([H])C([H])([H])C([H])([H])C2([H])N([H])C(=O)C1([H])N(C(=O)C([H])(N([H])C(=O)C([H])(N([H])C([H])([H])[H])C([H])([H])[H])C(C([H])([H])[H])(C([H])([H])[H])C([H])([H])[H])C([H])([H])c2c([H])c(OC([H])([H])C(=O)N3C([H])([H])C([H])([H])C3([H])C(=O)N(c3c([H])c([H])c(N([H])C(=O)N4C([H])([H])C([H])([H])C([H])([H])C([H])(n5nc(-c6c([H])c([H])c(Oc7c([H])c([H])c(F)c([H])c7F)c([H])c6[H])c(C(=O)N([H])[H])c5N([H])[H])C4([H])[H])c([H])c3C(F)(F)F)C([H])([H])[H])c([H])c([H])c2C1([H])[H]

$$$$
35:0:0
     RDKit          3D

 97106  0  0  1  0  0  0  0  0999 V2000
  -30.2660  -22.4600   18.3060 C   0  0  0  0  0  2  0  0  0  0  0  0
  -29.4540  -21.1830   18.6200 C   0  0  0  0  0  2  0  0  0  0  0  0
  -29.0800  -22.3240   20.8200 C   0  0  0  0  0  2  0  0  0  0  0  0
  -29.5860  -23.7990   18.7520 C   0  0  0  0  0  3  0  0  0  0  0  0
  -28.6390  -23.6390   19.9810 C   0  0  0  0  0  3  0  0  0  0  0  0
  -29.2690  -21.0210   20.0640 N   0  0  0  0  0  0  0  0  0  0  0  0
  -31.1310  -18.7170   22.4280 C   0  0  0  0  0  3  0  0  0  0  0  0
  -30.5470  -19.8620   21.8430 C   0  0  0  0  0  3  0  0  0  0  0  0
  -30.9650  -17.4350   21.8710 C   0  0  0  0  0  3  0  0  0  0  0  0
  -29.6350  -18.4460   20.0990 C   0  0  0  0  0  3  0  0  0  0  0  0
  -29.7950  -19.7900   20.6470 C   0  0  0  0  0  0  0  0  0  0  0  0
  -30.2050  -17.2450   20.6990 C   0  0  0  0  0  0  0  0  0  0  0  0
  -30.7370  -14.7270   20.2390 C   0  0  0  0  0  0  0  0  0  0  0  0
  -30.5150  -12.4580   19.2150 C   0  0  0  0  0  2  0  0  0  0  0  0
  -29.5550  -12.5340   18.0100 C   0  0  0  0  0  2  0  0  0  0  0  0
  -28.0890  -12.3780   18.4640 C   0  0  0  0  0  2  0  0  0  0  0  0
  -27.7410  -13.2670   19.6890 C   0  0  0  0  0  3  0  0  0  0  0  0
  -28.8200  -13.1720   20.7870 C   0  0  0  0  0  2  0  0  0  0  0  0
  -30.1020  -13.5140   20.1610 N   0  0  0  0  0  0  0  0  0  0  0  0
  -31.9430  -14.8180   19.9890 O   0  0  0  0  0  0  0  0  0  0  0  0
  -29.9340  -15.8570   20.2690 N   0  0  0  0  0  0  0  0  0  0  0  0
  -28.9630  -15.6580   20.0930 H   0  0  0  0  0  0  0  0  0  0  0  0
  -25.3700  -13.8800   20.4560 C   0  0  0  0  0  0  0  0  0  0  0  0
  -24.3030  -13.1150   20.8400 C   0  0  0  0  0  0  0  0  0  0  0  0
  -24.7540  -11.7600   20.8020 C   0  0  0  0  0  0  0  0  0  0  0  0
  -26.4030  -12.9930   20.2040 N   0  0  0  0  0  0  0  0  0  0  0  0
  -26.0400  -11.7120   20.4750 N   0  0  0  0  0  0  0  0  0  0  0  0
  -24.0200  -10.5030   21.0010 C   0  0  0  0  0  0  0  0  0  0  0  0
  -24.4510   -9.5360   21.9330 C   0  0  0  0  0  3  0  0  0  0  0  0
  -23.7170   -8.3430   22.1190 C   0  0  0  0  0  3  0  0  0  0  0  0
  -22.5400   -8.1100   21.3710 C   0  0  0  0  0  0  0  0  0  0  0  0
  -22.1260   -9.0680   20.4290 C   0  0  0  0  0  3  0  0  0  0  0  0
  -22.8600  -10.2520   20.2410 C   0  0  0  0  0  3  0  0  0  0  0  0
  -21.7790   -6.9700   21.4660 O   0  0  0  0  0  0  0  0  0  0  0  0
  -21.7280   -6.2340   22.6220 C   0  0  0  0  0  0  0  0  0  0  0  0
  -21.2900   -6.7940   23.8420 C   0  0  0  0  0  3  0  0  0  0  0  0
  -21.1840   -5.9850   24.9900 C   0  0  0  0  0  3  0  0  0  0  0  0
  -21.5060   -4.6170   24.9210 C   0  0  0  0  0  0  0  0  0  0  0  0
  -21.9360   -4.0560   23.7060 C   0  0  0  0  0  3  0  0  0  0  0  0
  -22.0440   -4.8620   22.5600 C   0  0  0  0  0  0  0  0  0  0  0  0
  -22.4370   -4.3130   21.3850 F   0  0  0  0  0  0  0  0  0  0  0  0
  -21.3970   -3.8360   26.0210 F   0  0  0  0  0  0  0  0  0  0  0  0
  -22.9140  -13.6040   21.1330 C   0  0  0  0  0  0  0  0  0  0  0  0
  -22.1920  -12.9110   22.0050 N   0  0  0  0  0  0  0  0  0  0  0  0
  -22.4780  -14.6340   20.6190 O   0  0  0  0  0  0  0  0  0  0  0  0
  -22.5600  -12.0780   22.4400 H   0  0  0  0  0  0  0  0  0  0  0  0
  -21.2610  -13.2200   22.2470 H   0  0  0  0  0  0  0  0  0  0  0  0
  -25.5410  -15.2490   20.2760 N   0  0  0  0  0  0  0  0  0  0  0  0
  -24.7740  -15.9030   20.3840 H   0  0  0  0  0  0  0  0  0  0  0  0
  -26.3760  -15.6870   19.9080 H   0  0  0  0  0  0  0  0  0  0  0  0
  -28.8280  -24.4510   17.5780 C   0  0  0  0  0  0  0  0  0  0  0  0
  -28.7730  -25.7750   17.5360 N   0  0  0  0  0  0  0  0  0  0  0  0
  -28.2840  -23.7720   16.7100 O   0  0  0  0  0  0  0  0  0  0  0  0
  -29.1380  -26.3080   18.3190 H   0  0  0  0  0  0  0  0  0  0  0  0
  -28.2540  -26.2520   16.8140 H   0  0  0  0  0  0  0  0  0  0  0  0
  -28.4090  -25.0250   20.8200 C   0  0  0  0  0  2  0  0  0  0  0  0
  -28.4830  -26.4230   20.2770 O   0  0  0  0  0  0  0  0  0  0  0  0
  -24.6180  -31.8520   23.1890 C   0  0  0  0  0  0  0  0  0  0  0  0
  -27.3480  -27.2570   20.2670 C   0  0  0  0  0  0  0  0  0  0  0  0
  -23.4670  -30.4270   21.5340 C   0  0  0  0  0  3  0  0  0  0  0  0
  -24.9710  -28.8590   20.1720 C   0  0  0  0  0  0  0  0  0  0  0  0
  -26.0110  -30.7610   21.4100 C   0  0  0  0  0  2  0  0  0  0  0  0
  -26.1220  -29.3720   20.7820 C   0  0  0  0  0  0  0  0  0  0  0  0
  -27.3200  -28.5870   20.8040 C   0  0  0  0  0  3  0  0  0  0  0  0
  -26.1690  -26.7920   19.6480 C   0  0  0  0  0  3  0  0  0  0  0  0
  -24.9970  -27.5770   19.5960 C   0  0  0  0  0  3  0  0  0  0  0  0
  -23.7260  -29.7280   20.1720 C   0  0  0  0  0  2  0  0  0  0  0  0
  -24.7150  -31.0330   22.1010 N   0  0  0  0  0  0  0  0  0  0  0  0
  -23.5200  -32.1260   23.6950 O   0  0  0  0  0  0  0  0  0  0  0  0
  -22.7880  -29.4190   22.4910 C   0  0  0  0  0  0  0  0  0  0  0  0
  -21.4650  -29.2300   22.3350 N   0  0  0  0  0  0  0  0  0  0  0  0
  -23.4500  -28.8090   23.3350 O   0  0  0  0  0  0  0  0  0  0  0  0
  -20.9880  -29.7710   21.6270 H   0  0  0  0  0  0  0  0  0  0  0  0
  -18.0900  -27.9920   22.7560 C   0  0  0  0  0  0  0  0  0  0  0  0
  -20.6370  -28.2940   23.0950 C   0  0  0  0  0  3  0  0  0  0  0  0
  -20.7740  -26.8530   22.5480 C   0  0  0  0  0  2  0  0  0  0  0  0
  -19.7080  -26.4980   21.5060 C   0  0  0  0  0  2  0  0  0  0  0  0
  -18.3070  -26.6350   22.1070 C   0  0  0  0  0  2  0  0  0  0  0  0
  -19.1860  -28.7770   23.2070 C   0  0  0  0  0  0  0  0  0  0  0  0
  -18.9320  -30.0460   23.7720 C   0  0  0  0  0  3  0  0  0  0  0  0
  -17.6160  -30.5320   23.8900 C   0  0  0  0  0  3  0  0  0  0  0  0
  -16.5360  -29.7440   23.4560 C   0  0  0  0  0  3  0  0  0  0  0  0
  -16.7730  -28.4760   22.8980 C   0  0  0  0  0  3  0  0  0  0  0  0
  -25.8800  -32.5060   23.8350 C   0  0  0  0  0  3  0  0  0  0  0  0
  -26.3810  -31.7460   25.1230 C   0  0  1  0  0  0  0  0  0  0  0  0
  -25.2700  -31.5000   26.1710 C   0  0  0  0  0  1  0  0  0  0  0  0
  -26.9910  -30.3730   24.7520 C   0  0  0  0  0  1  0  0  0  0  0  0
  -27.5050  -32.5590   25.8100 C   0  0  0  0  0  1  0  0  0  0  0  0
  -25.5450  -33.9000   24.1580 N   0  0  0  0  0  0  0  0  0  0  0  0
  -25.8740  -34.9580   23.4060 C   0  0  0  0  0  0  0  0  0  0  0  0
  -26.5620  -34.8640   22.3850 O   0  0  0  0  0  0  0  0  0  0  0  0
  -24.9380  -34.0440   24.9520 H   0  0  0  0  0  0  0  0  0  0  0  0
  -24.1320  -36.7300   23.0210 C   0  0  0  0  0  1  0  0  0  0  0  0
  -25.3610  -36.3390   23.8570 C   0  0  0  0  0  3  0  0  0  0  0  0
  -27.4650  -37.2540   24.7370 C   0  0  0  0  0  1  0  0  0  0  0  0
  -26.3830  -37.4040   23.7660 N   0  0  0  0  0  0  0  0  0  0  0  0
  -25.9630  -38.3190   23.9060 H   0  0  0  0  0  0  0  0  0  0  0  0
  1  2  1  0
  1  4  1  0
  2  6  1  0
  4 51  1  0
  4  5  1  0
  5  3  1  0
  5 56  1  0
  6 11  1  0
  6  3  1  0
  8  7  2  0
  9  7  1  0
 10 11  2  0
 10 12  1  0
 11  8  1  0
 12  9  2  0
 13 21  1  0
 14 19  1  0
 15 16  1  0
 15 14  1  0
 17 16  1  0
 17 26  1  0
 17 18  1  0
 19 13  1  0
 19 18  1  0
 20 13  2  0
 21 12  1  0
 22 21  1  0
 23 24  2  0
 24 43  1  0
 25 24  1  0
 25 28  1  0
 26 23  1  0
 26 27  1  0
 27 25  2  0
 28 29  1  0
 29 30  2  0
 31 34  1  0
 31 30  1  0
 32 31  2  0
 33 32  1  0
 33 28  2  0
 34 35  1  0
 35 36  1  0
 36 37  2  0
 38 37  1  0
 38 42  1  0
 39 38  2  0
 40 35  2  0
 40 39  1  0
 41 40  1  0
 43 44  1  0
 44 47  1  0
 44 46  1  0
 45 43  2  0
 48 49  1  0
 48 23  1  0
 50 48  1  0
 52 51  1  0
 52 54  1  0
 53 51  2  0
 55 52  1  0
 57 56  1  0
 58 69  2  0
 59 57  1  0
 59 64  1  0
 60 68  1  0
 60 70  1  0
 61 67  1  0
 61 63  1  0
 62 68  1  0
 63 64  2  0
 63 62  1  0
 65 59  2  0
 66 65  1  0
 66 61  2  0
 67 60  1  0
 68 58  1  0
 70 72  2  0
 71 70  1  0
 73 71  1  0
 74 83  2  0
 74 79  1  0
 75 71  1  0
 75 79  1  0
 76 75  1  0
 77 78  1  0
 77 76  1  0
 78 74  1  0
 79 80  2  0
 80 81  1  0
 82 81  2  0
 83 82  1  0
 84 58  1  0
 84 89  1  0
 84 85  1  0
 85 88  1  1
 85 86  1  0
 87 85  1  0
 89 92  1  0
 90 94  1  0
 90 89  1  0
 91 90  2  0
 94 93  1  0
 96 94  1  0
 96 97  1  0
 96 95  1  0
M  ISO  4  13 100  21 100  56 101  57 101
M  END
>  <TORSDO>  (36) 
F 19

>  <SCORE>  (36) 
-14.436

>  <name>  (36) 
35

>  <ligand_id>  (36) 
35

>  <original_smiles>  (36) 
[H]c1c([H])c(N([H])C(=O)N2C([H])([H])C([H])([H])C([H])([H])C([H])(n3nc(-c4c([H])c([H])c(Oc5c([H])c([H])c(F)c([H])c5F)c([H])c4[H])c(C(=O)N([H])[H])c3N([H])[H])C2([H])[H])c([H])c(N2C([H])([H])C([H])([H])C([H])(C(=O)N([H])[H])C([H])(C([H])([H])Oc3c([H])c([H])c4c(c3[H])C([H])([H])N(C(=O)C([H])(N([H])C(=O)C([H])(N([H])C([H])([H])[H])C([H])([H])[H])C(C([H])([H])[H])(C([H])([H])[H])C([H])([H])[H])C([H])(C(=O)N([H])C3([H])c5c([H])c([H])c([H])c([H])c5C([H])([H])C([H])([H])C3([H])[H])C4([H])[H])C2([H])[H])c1[H]

>  <smiles>  (36) 
[H]c1c([H])c(N([H])C(=O)N2C([H])([H])C([H])([H])C([H])([H])C([H])(n3nc(-c4c([H])c([H])c(Oc5c([H])c([H])c(F)c([H])c5F)c([H])c4[H])c(C(=O)N([H])[H])c3N([H])[H])C2([H])[H])c([H])c(N2C([H])([H])C([H])([H])C([H])(C(=O)N([H])[H])C([H])(C([H])([H])Oc3c([H])c([H])c4c(c3[H])C([H])([H])N(C(=O)C([H])(N([H])C(=O)C([H])(N([H])C([H])([H])[H])C([H])([H])[H])C(C([H])([H])[H])(C([H])([H])[H])C([H])([H])[H])C([H])(C(=O)N([H])C3([H])c5c([H])c([H])c([H])c([H])c5C([H])([H])C([H])([H])C3([H])[H])C4([H])[H])C2([H])[H])c1[H]

$$$$
36:0:0
     RDKit          3D

 93101  0  0  1  0  0  0  0  0999 V2000
  -30.7140  -18.1890   21.6750 C   0  0  0  0  0  3  0  0  0  0  0  0
  -30.7610  -19.4620   22.2800 C   0  0  0  0  0  3  0  0  0  0  0  0
  -29.2100  -19.1640   20.0450 C   0  0  0  0  0  3  0  0  0  0  0  0
  -29.9020  -17.9170   20.5510 C   0  0  0  0  0  0  0  0  0  0  0  0
  -30.0740  -20.5990   21.7980 C   0  0  0  0  0  0  0  0  0  0  0  0
  -29.3020  -20.5750   20.5930 C   0  0  0  0  0  0  0  0  0  0  0  0
  -30.5510  -15.2080   20.2430 C   0  0  0  0  0  0  0  0  0  0  0  0
  -30.4700  -12.8270   19.3080 C   0  0  0  0  0  2  0  0  0  0  0  0
  -29.5010  -12.6470   18.1130 C   0  0  0  0  0  2  0  0  0  0  0  0
  -28.0740  -12.3820   18.6290 C   0  0  0  0  0  2  0  0  0  0  0  0
  -27.6510  -13.3760   19.7360 C   0  0  0  0  0  3  0  0  0  0  0  0
  -28.7300  -13.5020   20.8310 C   0  0  0  0  0  2  0  0  0  0  0  0
  -29.9540  -13.9460   20.1510 N   0  0  0  0  0  0  0  0  0  0  0  0
  -31.7780  -15.2220   20.1130 O   0  0  0  0  0  0  0  0  0  0  0  0
  -29.7670  -16.4200   20.1330 N   0  0  0  0  0  0  0  0  0  0  0  0
  -28.8630  -16.2150   19.7330 H   0  0  0  0  0  0  0  0  0  0  0  0
  -25.3060  -13.9420   20.5610 C   0  0  0  0  0  0  0  0  0  0  0  0
  -24.2460  -13.1600   20.9360 C   0  0  0  0  0  0  0  0  0  0  0  0
  -24.7100  -11.8100   20.8730 C   0  0  0  0  0  0  0  0  0  0  0  0
  -26.3400  -13.0680   20.2770 N   0  0  0  0  0  0  0  0  0  0  0  0
  -25.9930  -11.7800   20.5350 N   0  0  0  0  0  0  0  0  0  0  0  0
  -23.9850  -10.5460   21.0510 C   0  0  0  0  0  0  0  0  0  0  0  0
  -24.4210   -9.5730   21.9740 C   0  0  0  0  0  3  0  0  0  0  0  0
  -23.7030   -8.3690   22.1410 C   0  0  0  0  0  3  0  0  0  0  0  0
  -22.5320   -8.1310   21.3840 C   0  0  0  0  0  0  0  0  0  0  0  0
  -22.1120   -9.0930   20.4490 C   0  0  0  0  0  3  0  0  0  0  0  0
  -22.8320  -10.2890   20.2800 C   0  0  0  0  0  3  0  0  0  0  0  0
  -21.7770   -6.9860   21.4640 O   0  0  0  0  0  0  0  0  0  0  0  0
  -21.7170   -6.2480   22.6210 C   0  0  0  0  0  0  0  0  0  0  0  0
  -21.2370   -6.7950   23.8300 C   0  0  0  0  0  3  0  0  0  0  0  0
  -21.1270   -5.9810   24.9760 C   0  0  0  0  0  3  0  0  0  0  0  0
  -21.4830   -4.6210   24.9110 C   0  0  0  0  0  0  0  0  0  0  0  0
  -21.9570   -4.0730   23.7060 C   0  0  0  0  0  3  0  0  0  0  0  0
  -22.0730   -4.8860   22.5660 C   0  0  0  0  0  0  0  0  0  0  0  0
  -22.5080   -4.3480   21.4000 F   0  0  0  0  0  0  0  0  0  0  0  0
  -21.3740   -3.8370   26.0120 F   0  0  0  0  0  0  0  0  0  0  0  0
  -22.8540  -13.6290   21.2440 C   0  0  0  0  0  0  0  0  0  0  0  0
  -22.1520  -12.9170   22.1180 N   0  0  0  0  0  0  0  0  0  0  0  0
  -22.4030  -14.6600   20.7460 O   0  0  0  0  0  0  0  0  0  0  0  0
  -22.5350  -12.0760   22.5280 H   0  0  0  0  0  0  0  0  0  0  0  0
  -21.2190  -13.2070   22.3820 H   0  0  0  0  0  0  0  0  0  0  0  0
  -25.4740  -15.3130   20.3980 N   0  0  0  0  0  0  0  0  0  0  0  0
  -24.7210  -15.9830   20.5050 H   0  0  0  0  0  0  0  0  0  0  0  0
  -26.3240  -15.7230   20.0380 H   0  0  0  0  0  0  0  0  0  0  0  0
  -28.9180  -23.3080   20.2790 C   0  0  0  0  0  0  0  0  0  0  0  0
  -27.3470  -21.6270   19.3510 C   0  0  0  0  0  1  0  0  0  0  0  0
  -28.5820  -21.8960   20.1080 N   0  0  0  0  0  0  0  0  0  0  0  0
  -30.0600  -23.6120   20.6470 O   0  0  0  0  0  0  0  0  0  0  0  0
  -27.9410  -24.6470   19.9670 C   0  0  0  0  0  2  0  0  0  0  0  0
  -28.2970  -26.1640   20.2800 O   0  0  0  0  0  0  0  0  0  0  0  0
  -24.6860  -31.9180   23.3030 C   0  0  0  0  0  0  0  0  0  0  0  0
  -27.2810  -27.2050   20.2280 C   0  0  0  0  0  0  0  0  0  0  0  0
  -23.5020  -30.5450   21.6360 C   0  0  0  0  0  3  0  0  0  0  0  0
  -24.9630  -28.9830   20.2030 C   0  0  0  0  0  0  0  0  0  0  0  0
  -26.0570  -30.8010   21.5030 C   0  0  0  0  0  2  0  0  0  0  0  0
  -26.1390  -29.4110   20.8340 C   0  0  0  0  0  0  0  0  0  0  0  0
  -27.2950  -28.5320   20.8420 C   0  0  0  0  0  3  0  0  0  0  0  0
  -26.0810  -26.9040   19.5480 C   0  0  0  0  0  3  0  0  0  0  0  0
  -24.9470  -27.7420   19.5510 C   0  0  0  0  0  3  0  0  0  0  0  0
  -23.7400  -29.8850   20.2480 C   0  0  0  0  0  2  0  0  0  0  0  0
  -24.7680  -31.1090   22.2040 N   0  0  0  0  0  0  0  0  0  0  0  0
  -23.5950  -32.2010   23.8230 O   0  0  0  0  0  0  0  0  0  0  0  0
  -22.8120  -29.5300   22.5850 C   0  0  0  0  0  0  0  0  0  0  0  0
  -21.4860  -29.3480   22.4380 N   0  0  0  0  0  0  0  0  0  0  0  0
  -23.4770  -28.9040   23.4140 O   0  0  0  0  0  0  0  0  0  0  0  0
  -21.0080  -29.9210   21.7550 H   0  0  0  0  0  0  0  0  0  0  0  0
  -18.1100  -28.1090   22.8930 C   0  0  0  0  0  0  0  0  0  0  0  0
  -20.6650  -28.3910   23.1830 C   0  0  0  0  0  3  0  0  0  0  0  0
  -20.7800  -26.9670   22.5950 C   0  0  0  0  0  2  0  0  0  0  0  0
  -19.6920  -26.6450   21.5630 C   0  0  0  0  0  2  0  0  0  0  0  0
  -18.3030  -26.7690   22.1980 C   0  0  0  0  0  2  0  0  0  0  0  0
  -19.2200  -28.8750   23.3390 C   0  0  0  0  0  0  0  0  0  0  0  0
  -18.9860  -30.1230   23.9530 C   0  0  0  0  0  3  0  0  0  0  0  0
  -17.6760  -30.6150   24.1100 C   0  0  0  0  0  3  0  0  0  0  0  0
  -16.5820  -29.8510   23.6690 C   0  0  0  0  0  3  0  0  0  0  0  0
  -16.7990  -28.5970   23.0730 C   0  0  0  0  0  3  0  0  0  0  0  0
  -25.9570  -32.5440   23.9520 C   0  0  0  0  0  3  0  0  0  0  0  0
  -26.4370  -31.7730   25.2440 C   0  0  1  0  0  0  0  0  0  0  0  0
  -25.3210  -31.5450   26.2930 C   0  0  0  0  0  1  0  0  0  0  0  0
  -27.0200  -30.3880   24.8730 C   0  0  0  0  0  1  0  0  0  0  0  0
  -27.5760  -32.5640   25.9290 C   0  0  0  0  0  1  0  0  0  0  0  0
  -25.6500  -33.9460   24.2790 N   0  0  0  0  0  0  0  0  0  0  0  0
  -25.9570  -34.9980   23.5060 C   0  0  0  0  0  0  0  0  0  0  0  0
  -26.5960  -34.8930   22.4570 O   0  0  0  0  0  0  0  0  0  0  0  0
  -25.0730  -34.1010   25.0930 H   0  0  0  0  0  0  0  0  0  0  0  0
  -24.2000  -36.7810   23.2120 C   0  0  0  0  0  1  0  0  0  0  0  0
  -25.4810  -36.3930   23.9680 C   0  0  0  0  0  3  0  0  0  0  0  0
  -27.6420  -37.3190   24.6850 C   0  0  0  0  0  1  0  0  0  0  0  0
  -26.5010  -37.4500   23.7830 N   0  0  0  0  0  0  0  0  0  0  0  0
  -26.0950  -38.3740   23.9090 H   0  0  0  0  0  0  0  0  0  0  0  0
  -30.1260  -21.7220   22.6220 N   0  0  0  0  0  0  0  0  0  0  0  0
  -30.6820  -21.6620   23.4690 H   0  0  0  0  0  0  0  0  0  0  0  0
  -30.2760  -22.6120   22.1460 H   0  0  0  0  0  0  0  0  0  0  0  0
  1  2  1  0
  3  4  1  0
  3  6  2  0
  4  1  2  0
  5  2  2  0
  5 91  1  0
  6  5  1  0
  8 13  1  0
  9 10  1  0
  9  8  1  0
 11 10  1  0
 11 20  1  0
 11 12  1  0
 13  7  1  0
 13 12  1  0
 14  7  2  0
 15  7  1  0
 15  4  1  0
 16 15  1  0
 17 18  2  0
 18 37  1  0
 19 18  1  0
 19 22  1  0
 20 21  1  0
 20 17  1  0
 21 19  2  0
 22 23  1  0
 23 24  2  0
 25 28  1  0
 25 24  1  0
 26 25  2  0
 27 26  1  0
 27 22  2  0
 28 29  1  0
 29 30  1  0
 30 31  2  0
 32 31  1  0
 32 36  1  0
 33 32  2  0
 34 29  2  0
 34 33  1  0
 35 34  1  0
 37 38  1  0
 38 41  1  0
 38 40  1  0
 39 37  2  0
 42 43  1  0
 42 17  1  0
 44 42  1  0
 45 48  2  0
 46 47  1  0
 47 45  1  0
 47  6  1  0
 49 45  1  0
 49 50  1  0
 51 62  2  0
 52 50  1  0
 52 57  1  0
 53 61  1  0
 53 63  1  0
 54 60  1  0
 54 56  1  0
 55 61  1  0
 56 57  2  0
 56 55  1  0
 58 59  1  0
 58 52  2  0
 59 54  2  0
 60 53  1  0
 61 51  1  0
 63 65  2  0
 64 63  1  0
 66 64  1  0
 67 76  2  0
 67 72  1  0
 68 64  1  0
 68 72  1  0
 69 68  1  0
 70 71  1  0
 70 69  1  0
 71 67  1  0
 72 73  2  0
 73 74  1  0
 75 74  2  0
 76 75  1  0
 77 51  1  0
 77 82  1  0
 77 78  1  0
 78 81  1  1
 78 79  1  0
 80 78  1  0
 82 85  1  0
 83 87  1  0
 83 82  1  0
 84 83  2  0
 87 86  1  0
 89 90  1  0
 89 87  1  0
 89 88  1  0
 91 92  1  0
 93 91  1  0
M  ISO  4   7 100  15 100  49 101  50 101
M  END
>  <TORSDO>  (37) 
F 19

>  <SCORE>  (37) 
-14.489

>  <name>  (37) 
36

>  <ligand_id>  (37) 
36

>  <original_smiles>  (37) 
[H]c1c([H])c([H])c2c(c1[H])C([H])([H])C([H])([H])C([H])([H])C2([H])N([H])C(=O)C1([H])N(C(=O)C([H])(N([H])C(=O)C([H])(N([H])C([H])([H])[H])C([H])([H])[H])C(C([H])([H])[H])(C([H])([H])[H])C([H])([H])[H])C([H])([H])c2c([H])c(OC([H])([H])C(=O)N(c3c([H])c(N([H])C(=O)N4C([H])([H])C([H])([H])C([H])([H])C([H])(n5nc(-c6c([H])c([H])c(Oc7c([H])c([H])c(F)c([H])c7F)c([H])c6[H])c(C(=O)N([H])[H])c5N([H])[H])C4([H])[H])c([H])c([H])c3N([H])[H])C([H])([H])[H])c([H])c([H])c2C1([H])[H]

>  <smiles>  (37) 
[H]c1c([H])c([H])c2c(c1[H])C([H])([H])C([H])([H])C([H])([H])C2([H])N([H])C(=O)C1([H])N(C(=O)C([H])(N([H])C(=O)C([H])(N([H])C([H])([H])[H])C([H])([H])[H])C(C([H])([H])[H])(C([H])([H])[H])C([H])([H])[H])C([H])([H])c2c([H])c(OC([H])([H])C(=O)N(c3c([H])c(N([H])C(=O)N4C([H])([H])C([H])([H])C([H])([H])C([H])(n5nc(-c6c([H])c([H])c(Oc7c([H])c([H])c(F)c([H])c7F)c([H])c6[H])c(C(=O)N([H])[H])c5N([H])[H])C4([H])[H])c([H])c([H])c3N([H])[H])C([H])([H])[H])c([H])c([H])c2C1([H])[H]

$$$$
37:0:0
     RDKit          3D

 94102  0  0  1  0  0  0  0  0999 V2000
  -28.1530  -20.2900   20.1920 C   0  0  0  0  0  3  0  0  0  0  0  0
  -28.2860  -18.8080   20.2050 C   0  0  0  0  0  3  0  0  0  0  0  0
  -30.5550  -18.9650   20.5320 C   0  0  0  0  0  3  0  0  0  0  0  0
  -29.2190  -21.2630   20.3580 C   0  0  0  0  0  0  0  0  0  0  0  0
  -29.4940  -18.0010   20.3660 C   0  0  0  0  0  0  0  0  0  0  0  0
  -30.4400  -20.4500   20.5240 C   0  0  0  0  0  0  0  0  0  0  0  0
  -30.3870  -15.2280   20.2660 C   0  0  0  0  0  0  0  0  0  0  0  0
  -30.3800  -12.8150   19.3490 C   0  0  0  0  0  2  0  0  0  0  0  0
  -29.4320  -12.6600   18.1320 C   0  0  0  0  0  2  0  0  0  0  0  0
  -27.9860  -12.3900   18.5950 C   0  0  0  0  0  2  0  0  0  0  0  0
  -27.5600  -13.3310   19.7480 C   0  0  0  0  0  3  0  0  0  0  0  0
  -28.6290  -13.4200   20.8560 C   0  0  0  0  0  2  0  0  0  0  0  0
  -29.8560  -13.9190   20.2210 N   0  0  0  0  0  0  0  0  0  0  0  0
  -31.5970  -15.3010   20.0050 O   0  0  0  0  0  0  0  0  0  0  0  0
  -29.5210  -16.4010   20.3990 N   0  0  0  0  0  0  0  0  0  0  0  0
  -28.5840  -16.0480   20.5120 H   0  0  0  0  0  0  0  0  0  0  0  0
  -25.1990  -13.8760   20.5570 C   0  0  0  0  0  0  0  0  0  0  0  0
  -24.1490  -13.0890   20.9400 C   0  0  0  0  0  0  0  0  0  0  0  0
  -24.6220  -11.7420   20.8780 C   0  0  0  0  0  0  0  0  0  0  0  0
  -26.2410  -13.0080   20.2750 N   0  0  0  0  0  0  0  0  0  0  0  0
  -25.9070  -11.7180   20.5380 N   0  0  0  0  0  0  0  0  0  0  0  0
  -23.9050  -10.4720   21.0620 C   0  0  0  0  0  0  0  0  0  0  0  0
  -24.3510   -9.4980   21.9820 C   0  0  0  0  0  3  0  0  0  0  0  0
  -23.6310   -8.2960   22.1580 C   0  0  0  0  0  3  0  0  0  0  0  0
  -22.4530   -8.0590   21.4110 C   0  0  0  0  0  0  0  0  0  0  0  0
  -22.0270   -9.0210   20.4780 C   0  0  0  0  0  3  0  0  0  0  0  0
  -22.7470  -10.2140   20.3020 C   0  0  0  0  0  3  0  0  0  0  0  0
  -21.7070   -6.9090   21.4930 O   0  0  0  0  0  0  0  0  0  0  0  0
  -21.6550   -6.1660   22.6450 C   0  0  0  0  0  0  0  0  0  0  0  0
  -21.1830   -6.7080   23.8600 C   0  0  0  0  0  3  0  0  0  0  0  0
  -21.0800   -5.8900   25.0040 C   0  0  0  0  0  3  0  0  0  0  0  0
  -21.4400   -4.5320   24.9320 C   0  0  0  0  0  0  0  0  0  0  0  0
  -21.9070   -3.9890   23.7220 C   0  0  0  0  0  3  0  0  0  0  0  0
  -22.0110   -4.8040   22.5820 C   0  0  0  0  0  0  0  0  0  0  0  0
  -22.4410   -4.2720   21.4120 F   0  0  0  0  0  0  0  0  0  0  0  0
  -21.3340   -3.7440   26.0280 F   0  0  0  0  0  0  0  0  0  0  0  0
  -22.7540  -13.5550   21.2410 C   0  0  0  0  0  0  0  0  0  0  0  0
  -22.0490  -12.8480   22.1160 N   0  0  0  0  0  0  0  0  0  0  0  0
  -22.3010  -14.5820   20.7360 O   0  0  0  0  0  0  0  0  0  0  0  0
  -22.4310  -12.0200   22.5460 H   0  0  0  0  0  0  0  0  0  0  0  0
  -21.1140  -13.1440   22.3620 H   0  0  0  0  0  0  0  0  0  0  0  0
  -25.3460  -15.2500   20.3970 N   0  0  0  0  0  0  0  0  0  0  0  0
  -24.5590  -15.8800   20.5140 H   0  0  0  0  0  0  0  0  0  0  0  0
  -26.1490  -15.6960   19.9770 H   0  0  0  0  0  0  0  0  0  0  0  0
  -32.7230  -20.7060   19.8030 C   0  0  0  0  0  1  0  0  0  0  0  0
  -32.0240  -21.2150   22.1050 C   0  0  0  0  0  1  0  0  0  0  0  0
  -31.6480  -21.1540   20.6920 N   0  0  0  0  0  0  0  0  0  0  0  0
  -29.2090  -23.0150   20.3610 C   0  0  0  0  0  3  0  0  0  0  0  0
  -30.2730  -23.3730   19.4070 N   0  0  0  0  0  4  0  0  0  0  0  0
  -29.9860  -23.2200   18.4580 H   0  0  0  0  0  0  0  0  0  0  0  0
  -31.0580  -22.7660   19.6110 H   0  0  0  0  0  0  0  0  0  0  0  0
  -30.5550  -24.3310   19.5220 H   0  0  0  0  0  0  0  0  0  0  0  0
  -28.0270  -24.3390   20.2510 C   0  0  0  0  0  2  0  0  0  0  0  0
  -28.2230  -25.9640   20.3630 O   0  0  0  0  0  0  0  0  0  0  0  0
  -24.6420  -31.9180   23.2660 C   0  0  0  0  0  0  0  0  0  0  0  0
  -27.1890  -27.0270   20.2960 C   0  0  0  0  0  0  0  0  0  0  0  0
  -23.4460  -30.5170   21.6300 C   0  0  0  0  0  3  0  0  0  0  0  0
  -24.8890  -28.8920   20.2310 C   0  0  0  0  0  0  0  0  0  0  0  0
  -26.0100  -30.7200   21.4900 C   0  0  0  0  0  2  0  0  0  0  0  0
  -26.0750  -29.3050   20.8500 C   0  0  0  0  0  0  0  0  0  0  0  0
  -27.2190  -28.3930   20.8580 C   0  0  0  0  0  3  0  0  0  0  0  0
  -25.9680  -26.7530   19.6360 C   0  0  0  0  0  3  0  0  0  0  0  0
  -24.8590  -27.6360   19.6050 C   0  0  0  0  0  3  0  0  0  0  0  0
  -23.6770  -29.8200   20.2610 C   0  0  0  0  0  2  0  0  0  0  0  0
  -24.7200  -31.0780   22.1820 N   0  0  0  0  0  0  0  0  0  0  0  0
  -23.5530  -32.2170   23.7800 O   0  0  0  0  0  0  0  0  0  0  0  0
  -22.7390  -29.5350   22.6010 C   0  0  0  0  0  0  0  0  0  0  0  0
  -21.4100  -29.3730   22.4640 N   0  0  0  0  0  0  0  0  0  0  0  0
  -23.3950  -28.9190   23.4460 O   0  0  0  0  0  0  0  0  0  0  0  0
  -20.9340  -29.9210   21.7620 H   0  0  0  0  0  0  0  0  0  0  0  0
  -18.0170  -28.1840   22.9570 C   0  0  0  0  0  0  0  0  0  0  0  0
  -20.5760  -28.4460   23.2380 C   0  0  0  0  0  3  0  0  0  0  0  0
  -20.6780  -27.0070   22.6810 C   0  0  0  0  0  2  0  0  0  0  0  0
  -19.5830  -26.6770   21.6610 C   0  0  0  0  0  2  0  0  0  0  0  0
  -18.1960  -26.8290   22.2920 C   0  0  0  0  0  2  0  0  0  0  0  0
  -19.1340  -28.9500   23.3870 C   0  0  0  0  0  0  0  0  0  0  0  0
  -18.9110  -30.2150   23.9730 C   0  0  0  0  0  3  0  0  0  0  0  0
  -17.6030  -30.7150   24.1290 C   0  0  0  0  0  3  0  0  0  0  0  0
  -16.5020  -29.9480   23.7130 C   0  0  0  0  0  3  0  0  0  0  0  0
  -16.7090  -28.6840   23.1310 C   0  0  0  0  0  3  0  0  0  0  0  0
  -25.9150  -32.5540   23.9000 C   0  0  0  0  0  3  0  0  0  0  0  0
  -26.4120  -31.7920   25.1900 C   0  0  1  0  0  0  0  0  0  0  0  0
  -25.3070  -31.5730   26.2510 C   0  0  0  0  0  1  0  0  0  0  0  0
  -26.9880  -30.4050   24.8230 C   0  0  0  0  0  1  0  0  0  0  0  0
  -27.5630  -32.5830   25.8550 C   0  0  0  0  0  1  0  0  0  0  0  0
  -25.6060  -33.9580   24.2280 N   0  0  0  0  0  0  0  0  0  0  0  0
  -25.9180  -35.0120   23.4640 C   0  0  0  0  0  0  0  0  0  0  0  0
  -26.5600  -34.9050   22.4160 O   0  0  0  0  0  0  0  0  0  0  0  0
  -25.0310  -34.1130   25.0440 H   0  0  0  0  0  0  0  0  0  0  0  0
  -24.1740  -36.8050   23.1750 C   0  0  0  0  0  1  0  0  0  0  0  0
  -25.4490  -36.4050   23.9340 C   0  0  0  0  0  3  0  0  0  0  0  0
  -27.6110  -37.3090   24.6710 C   0  0  0  0  0  1  0  0  0  0  0  0
  -26.4730  -37.4600   23.7680 N   0  0  0  0  0  0  0  0  0  0  0  0
  -26.0690  -38.3810   23.9150 H   0  0  0  0  0  0  0  0  0  0  0  0
  1  2  2  0
  1  4  1  0
  2  5  1  0
  4 48  1  0
  4  6  2  0
  5 15  1  0
  5  3  2  0
  6  3  1  0
  6 47  1  0
  7 15  1  0
  8 13  1  0
  9 10  1  0
  9  8  1  0
 11 10  1  0
 11 20  1  0
 11 12  1  0
 13  7  1  0
 13 12  1  0
 14  7  2  0
 15 16  1  0
 17 18  2  0
 18 37  1  0
 19 18  1  0
 19 22  1  0
 20 21  1  0
 20 17  1  0
 21 19  2  0
 22 23  1  0
 23 24  2  0
 25 28  1  0
 25 24  1  0
 26 25  2  0
 27 26  1  0
 27 22  2  0
 28 29  1  0
 29 30  1  0
 30 31  2  0
 32 31  1  0
 32 36  1  0
 33 32  2  0
 34 29  2  0
 34 33  1  0
 35 34  1  0
 37 38  1  0
 38 41  1  0
 38 40  1  0
 39 37  2  0
 42 43  1  0
 42 17  1  0
 44 42  1  0
 45 47  1  0
 47 46  1  0
 48 53  1  0
 49 52  1  0
 49 51  1  0
 49 48  1  0
 50 49  1  0
 53 54  1  0
 55 66  2  0
 56 54  1  0
 56 61  1  0
 57 65  1  0
 57 67  1  0
 58 64  1  0
 58 60  1  0
 59 65  1  0
 60 61  2  0
 60 59  1  0
 62 56  2  0
 63 62  1  0
 63 58  2  0
 64 57  1  0
 65 55  1  0
 67 69  2  0
 68 67  1  0
 70 68  1  0
 71 80  2  0
 71 76  1  0
 72 68  1  0
 72 76  1  0
 73 72  1  0
 74 75  1  0
 74 73  1  0
 75 71  1  0
 76 77  2  0
 77 78  1  0
 79 78  2  0
 80 79  1  0
 81 55  1  0
 81 86  1  0
 81 82  1  0
 82 85  1  1
 82 83  1  0
 84 82  1  0
 86 89  1  0
 87 91  1  0
 87 86  1  0
 88 87  2  0
 91 90  1  0
 93 94  1  0
 93 91  1  0
 93 92  1  0
M  ISO  4   7 100  15 100  53 101  54 101
M  END
>  <TORSDO>  (38) 
F 20

>  <SCORE>  (38) 
-15.498

>  <name>  (38) 
37

>  <ligand_id>  (38) 
37

>  <original_smiles>  (38) 
[H]c1c([H])c([H])c2c(c1[H])C([H])([H])C([H])([H])C([H])([H])C2([H])N([H])C(=O)C1([H])N(C(=O)C([H])(N([H])C(=O)C([H])(N([H])C([H])([H])[H])C([H])([H])[H])C(C([H])([H])[H])(C([H])([H])[H])C([H])([H])[H])C([H])([H])c2c([H])c(OC([H])([H])C([H])(c3c([H])c([H])c(N([H])C(=O)N4C([H])([H])C([H])([H])C([H])([H])C([H])(n5nc(-c6c([H])c([H])c(Oc7c([H])c([H])c(F)c([H])c7F)c([H])c6[H])c(C(=O)N([H])[H])c5N([H])[H])C4([H])[H])c([H])c3N(C([H])([H])[H])C([H])([H])[H])[N+]([H])([H])[H])c([H])c([H])c2C1([H])[H]

>  <smiles>  (38) 
[H]c1c([H])c([H])c2c(c1[H])C([H])([H])C([H])([H])C([H])([H])C2([H])N([H])C(=O)C1([H])N(C(=O)C([H])(N([H])C(=O)C([H])(N([H])C([H])([H])[H])C([H])([H])[H])C(C([H])([H])[H])(C([H])([H])[H])C([H])([H])[H])C([H])([H])c2c([H])c(OC([H])([H])C([H])(c3c([H])c([H])c(N([H])C(=O)N4C([H])([H])C([H])([H])C([H])([H])C([H])(n5nc(-c6c([H])c([H])c(Oc7c([H])c([H])c(F)c([H])c7F)c([H])c6[H])c(C(=O)N([H])[H])c5N([H])[H])C4([H])[H])c([H])c3N(C([H])([H])[H])C([H])([H])[H])[N+]([H])([H])[H])c([H])c([H])c2C1([H])[H]

$$$$
38:0:0
     RDKit          3D

 97106  0  0  1  0  0  0  0  0999 V2000
  -28.8740  -24.6410   20.1920 C   0  0  0  0  0  0  0  0  0  0  0  0
  -26.2500  -22.3320   21.4260 C   0  0  0  0  0  2  0  0  0  0  0  0
  -26.5140  -21.8500   20.0070 C   0  0  0  0  0  2  0  0  0  0  0  0
  -26.9740  -23.6730   21.5000 C   0  0  0  0  0  2  0  0  0  0  0  0
  -27.9090  -22.4040   19.6600 C   0  0  0  0  0  3  0  0  0  0  0  0
  -28.0170  -23.6310   20.4730 N   0  0  0  0  0  0  0  0  0  0  0  0
  -29.7670  -24.5130   19.3480 O   0  0  0  0  0  0  0  0  0  0  0  0
  -28.9740  -21.3140   19.9190 C   0  0  0  0  0  0  0  0  0  0  0  0
  -29.1480  -20.4630   18.8960 N   0  0  0  0  0  0  0  0  0  0  0  0
  -29.5790  -21.2380   20.9910 O   0  0  0  0  0  0  0  0  0  0  0  0
  -28.6880  -20.7370   18.0380 H   0  0  0  0  0  0  0  0  0  0  0  0
  -31.3490  -17.8520   17.4560 C   0  0  0  0  0  3  0  0  0  0  0  0
  -30.6530  -19.0570   17.6460 C   0  0  0  0  0  3  0  0  0  0  0  0
  -31.2890  -16.8420   18.4340 C   0  0  0  0  0  3  0  0  0  0  0  0
  -29.8520  -18.2530   19.8140 C   0  0  0  0  0  3  0  0  0  0  0  0
  -29.9170  -19.2740   18.8270 C   0  0  0  0  0  0  0  0  0  0  0  0
  -30.5340  -17.0220   19.6240 C   0  0  0  0  0  0  0  0  0  0  0  0
  -31.1170  -14.8440   20.6340 C   0  0  0  0  0  0  0  0  0  0  0  0
  -30.8470  -12.6150   19.6810 C   0  0  0  0  0  2  0  0  0  0  0  0
  -30.0050  -12.7740   18.3990 C   0  0  0  0  0  2  0  0  0  0  0  0
  -28.5020  -12.6780   18.7260 C   0  0  0  0  0  2  0  0  0  0  0  0
  -28.0830  -13.6030   19.9030 C   0  0  0  0  0  3  0  0  0  0  0  0
  -29.0560  -13.4690   21.0980 C   0  0  0  0  0  2  0  0  0  0  0  0
  -30.4270  -13.6760   20.6070 N   0  0  0  0  0  0  0  0  0  0  0  0
  -32.3320  -14.9150   20.4410 O   0  0  0  0  0  0  0  0  0  0  0  0
  -30.3590  -15.9570   20.5750 N   0  0  0  0  0  0  0  0  0  0  0  0
  -29.4310  -15.8700   20.9600 H   0  0  0  0  0  0  0  0  0  0  0  0
  -25.6590  -14.2790   20.4600 C   0  0  0  0  0  0  0  0  0  0  0  0
  -24.5490  -13.5350   20.7630 C   0  0  0  0  0  0  0  0  0  0  0  0
  -24.9760  -12.1740   20.7770 C   0  0  0  0  0  0  0  0  0  0  0  0
  -26.6950  -13.3680   20.3030 N   0  0  0  0  0  0  0  0  0  0  0  0
  -26.2820  -12.1000   20.5540 N   0  0  0  0  0  0  0  0  0  0  0  0
  -24.2070  -10.9320   20.9270 C   0  0  0  0  0  0  0  0  0  0  0  0
  -24.5650   -9.9490   21.8790 C   0  0  0  0  0  3  0  0  0  0  0  0
  -23.7980   -8.7720   22.0170 C   0  0  0  0  0  3  0  0  0  0  0  0
  -22.6590   -8.5690   21.2030 C   0  0  0  0  0  0  0  0  0  0  0  0
  -22.3210   -9.5370   20.2410 C   0  0  0  0  0  3  0  0  0  0  0  0
  -23.0880  -10.7050   20.1020 C   0  0  0  0  0  3  0  0  0  0  0  0
  -21.8700   -7.4450   21.2480 O   0  0  0  0  0  0  0  0  0  0  0  0
  -21.7480   -6.6950   22.3900 C   0  0  0  0  0  0  0  0  0  0  0  0
  -21.2840   -7.2530   23.6020 C   0  0  0  0  0  3  0  0  0  0  0  0
  -21.1100   -6.4310   24.7350 C   0  0  0  0  0  3  0  0  0  0  0  0
  -21.3920   -5.0540   24.6560 C   0  0  0  0  0  0  0  0  0  0  0  0
  -21.8500   -4.4970   23.4480 C   0  0  0  0  0  3  0  0  0  0  0  0
  -22.0240   -5.3160   22.3180 C   0  0  0  0  0  0  0  0  0  0  0  0
  -22.4450   -4.7700   21.1530 F   0  0  0  0  0  0  0  0  0  0  0  0
  -21.2210   -4.2640   25.7390 F   0  0  0  0  0  0  0  0  0  0  0  0
  -23.1480  -14.0500   20.9310 C   0  0  0  0  0  0  0  0  0  0  0  0
  -22.3470  -13.3900   21.7610 N   0  0  0  0  0  0  0  0  0  0  0  0
  -22.7710  -15.0720   20.3610 O   0  0  0  0  0  0  0  0  0  0  0  0
  -22.6660  -12.5660   22.2460 H   0  0  0  0  0  0  0  0  0  0  0  0
  -21.4050  -13.7220   21.9220 H   0  0  0  0  0  0  0  0  0  0  0  0
  -25.8660  -15.6440   20.2830 N   0  0  0  0  0  0  0  0  0  0  0  0
  -25.1040  -16.3140   20.3150 H   0  0  0  0  0  0  0  0  0  0  0  0
  -26.7450  -16.0620   19.9980 H   0  0  0  0  0  0  0  0  0  0  0  0
  -28.7110  -26.0070   20.8960 C   0  0  0  0  0  2  0  0  0  0  0  0
  -28.4540  -27.0270   19.9210 O   0  0  0  0  0  0  0  0  0  0  0  0
  -24.5760  -31.9820   23.2720 C   0  0  0  0  0  0  0  0  0  0  0  0
  -27.2520  -27.6830   20.0360 C   0  0  0  0  0  0  0  0  0  0  0  0
  -23.3630  -30.6000   21.6140 C   0  0  0  0  0  3  0  0  0  0  0  0
  -24.8190  -29.1150   20.1330 C   0  0  0  0  0  0  0  0  0  0  0  0
  -25.8720  -31.0120   21.3770 C   0  0  0  0  0  2  0  0  0  0  0  0
  -25.9750  -29.6560   20.7110 C   0  0  0  0  0  0  0  0  0  0  0  0
  -27.1950  -28.9460   20.6630 C   0  0  0  0  0  3  0  0  0  0  0  0
  -26.0830  -27.1400   19.4620 C   0  0  0  0  0  3  0  0  0  0  0  0
  -24.8660  -27.8550   19.5090 C   0  0  0  0  0  3  0  0  0  0  0  0
  -23.5600  -29.9500   20.2170 C   0  0  0  0  0  2  0  0  0  0  0  0
  -24.6230  -31.2120   22.1480 N   0  0  0  0  0  0  0  0  0  0  0  0
  -23.5020  -32.2230   23.8390 O   0  0  0  0  0  0  0  0  0  0  0  0
  -22.7440  -29.5490   22.5620 C   0  0  0  0  0  0  0  0  0  0  0  0
  -21.4230  -29.3440   22.4460 N   0  0  0  0  0  0  0  0  0  0  0  0
  -23.4510  -28.9170   23.3520 O   0  0  0  0  0  0  0  0  0  0  0  0
  -20.9160  -29.9120   21.7830 H   0  0  0  0  0  0  0  0  0  0  0  0
  -18.0810  -28.0610   22.9480 C   0  0  0  0  0  0  0  0  0  0  0  0
  -20.6350  -28.3690   23.1990 C   0  0  0  0  0  3  0  0  0  0  0  0
  -20.7660  -26.9570   22.5840 C   0  0  0  0  0  2  0  0  0  0  0  0
  -19.6560  -26.6320   21.5770 C   0  0  0  0  0  2  0  0  0  0  0  0
  -18.2810  -26.7290   22.2430 C   0  0  0  0  0  2  0  0  0  0  0  0
  -19.1870  -28.8390   23.3820 C   0  0  0  0  0  0  0  0  0  0  0  0
  -18.9490  -30.0860   23.9990 C   0  0  0  0  0  3  0  0  0  0  0  0
  -17.6360  -30.5570   24.1870 C   0  0  0  0  0  3  0  0  0  0  0  0
  -16.5440  -29.7760   23.7700 C   0  0  0  0  0  3  0  0  0  0  0  0
  -16.7670  -28.5280   23.1600 C   0  0  0  0  0  3  0  0  0  0  0  0
  -25.8640  -32.6180   23.8850 C   0  0  0  0  0  3  0  0  0  0  0  0
  -26.3890  -31.8490   25.1590 C   0  0  1  0  0  0  0  0  0  0  0  0
  -25.3020  -31.6060   26.2310 C   0  0  0  0  0  1  0  0  0  0  0  0
  -26.9770  -30.4750   24.7610 C   0  0  0  0  0  1  0  0  0  0  0  0
  -27.5390  -32.6480   25.8160 C   0  0  0  0  0  1  0  0  0  0  0  0
  -25.5550  -34.0160   24.2120 N   0  0  0  0  0  0  0  0  0  0  0  0
  -25.8990  -35.0660   23.4530 C   0  0  0  0  0  0  0  0  0  0  0  0
  -26.5810  -34.9580   22.4290 O   0  0  0  0  0  0  0  0  0  0  0  0
  -24.9530  -34.1720   25.0080 H   0  0  0  0  0  0  0  0  0  0  0  0
  -24.1780  -36.8580   23.0760 C   0  0  0  0  0  1  0  0  0  0  0  0
  -25.4100  -36.4550   23.9020 C   0  0  0  0  0  3  0  0  0  0  0  0
  -27.5380  -37.3350   24.7520 C   0  0  0  0  0  1  0  0  0  0  0  0
  -26.4460  -37.5060   23.7970 N   0  0  0  0  0  0  0  0  0  0  0  0
  -26.0420  -38.4270   23.9410 H   0  0  0  0  0  0  0  0  0  0  0  0
  1  6  1  0
  1 56  1  0
  2  4  1  0
  3  2  1  0
  5  8  1  0
  5  3  1  0
  5  6  1  0
  6  4  1  0
  7  1  2  0
  8 10  2  0
  9  8  1  0
 11  9  1  0
 12 13  2  0
 12 14  1  0
 13 16  1  0
 14 17  2  0
 16  9  1  0
 16 15  2  0
 17 15  1  0
 17 26  1  0
 19 24  1  0
 20 21  1  0
 20 19  1  0
 22 21  1  0
 22 31  1  0
 22 23  1  0
 24 18  1  0
 24 23  1  0
 25 18  2  0
 26 18  1  0
 26 27  1  0
 28 29  2  0
 29 30  1  0
 29 48  1  0
 30 33  1  0
 31 28  1  0
 31 32  1  0
 32 30  2  0
 33 34  1  0
 34 35  2  0
 36 39  1  0
 36 35  1  0
 37 36  2  0
 38 37  1  0
 38 33  2  0
 39 40  1  0
 40 41  1  0
 41 42  2  0
 43 42  1  0
 43 47  1  0
 44 43  2  0
 45 40  2  0
 45 44  1  0
 46 45  1  0
 48 49  1  0
 49 52  1  0
 49 51  1  0
 50 48  2  0
 53 54  1  0
 53 28  1  0
 55 53  1  0
 57 59  1  0
 57 56  1  0
 58 69  2  0
 59 64  1  0
 60 68  1  0
 60 70  1  0
 61 67  1  0
 61 63  1  0
 62 68  1  0
 63 62  1  0
 64 63  2  0
 65 66  1  0
 65 59  2  0
 66 61  2  0
 67 60  1  0
 68 58  1  0
 70 72  2  0
 71 70  1  0
 73 71  1  0
 74 83  2  0
 74 79  1  0
 75 71  1  0
 75 79  1  0
 76 75  1  0
 77 78  1  0
 77 76  1  0
 78 74  1  0
 79 80  2  0
 80 81  1  0
 82 81  2  0
 83 82  1  0
 84 58  1  0
 84 89  1  0
 84 85  1  0
 85 88  1  1
 85 86  1  0
 87 85  1  0
 89 92  1  0
 90 94  1  0
 90 89  1  0
 91 90  2  0
 94 93  1  0
 96 94  1  0
 96 97  1  0
 96 95  1  0
M  ISO  4  18 100  26 100  56 101  57 101
M  END
>  <TORSDO>  (39) 
F 19

>  <SCORE>  (39) 
-12.663

>  <name>  (39) 
38

>  <ligand_id>  (39) 
38

>  <original_smiles>  (39) 
[H]c1c([H])c(N([H])C(=O)N2C([H])([H])C([H])([H])C([H])([H])C([H])(n3nc(-c4c([H])c([H])c(Oc5c([H])c([H])c(F)c([H])c5F)c([H])c4[H])c(C(=O)N([H])[H])c3N([H])[H])C2([H])[H])c([H])c(N([H])C(=O)C2([H])N(C(=O)C([H])([H])Oc3c([H])c([H])c4c(c3[H])C([H])([H])N(C(=O)C([H])(N([H])C(=O)C([H])(N([H])C([H])([H])[H])C([H])([H])[H])C(C([H])([H])[H])(C([H])([H])[H])C([H])([H])[H])C([H])(C(=O)N([H])C3([H])c5c([H])c([H])c([H])c([H])c5C([H])([H])C([H])([H])C3([H])[H])C4([H])[H])C([H])([H])C([H])([H])C2([H])[H])c1[H]

>  <smiles>  (39) 
[H]c1c([H])c(N([H])C(=O)N2C([H])([H])C([H])([H])C([H])([H])C([H])(n3nc(-c4c([H])c([H])c(Oc5c([H])c([H])c(F)c([H])c5F)c([H])c4[H])c(C(=O)N([H])[H])c3N([H])[H])C2([H])[H])c([H])c(N([H])C(=O)C2([H])N(C(=O)C([H])([H])Oc3c([H])c([H])c4c(c3[H])C([H])([H])N(C(=O)C([H])(N([H])C(=O)C([H])(N([H])C([H])([H])[H])C([H])([H])[H])C(C([H])([H])[H])(C([H])([H])[H])C([H])([H])[H])C([H])(C(=O)N([H])C3([H])c5c([H])c([H])c([H])c([H])c5C([H])([H])C([H])([H])C3([H])[H])C4([H])[H])C([H])([H])C([H])([H])C2([H])[H])c1[H]

$$$$
39:0:0
     RDKit          3D

105114  0  0  1  0  0  0  0  0999 V2000
  -29.0610  -22.1020   20.5590 C   0  0  0  0  0  2  0  0  0  0  0  0
  -31.3280  -22.0650   19.6000 C   0  0  0  0  0  2  0  0  0  0  0  0
  -28.8130  -23.5230   19.9830 C   0  0  0  0  0  2  0  0  0  0  0  0
  -31.0980  -23.4650   18.9820 C   0  0  0  0  0  2  0  0  0  0  0  0
  -30.0010  -21.2990   19.6430 C   0  0  0  0  0  3  0  0  0  0  0  0
  -30.0610  -24.2920   19.6820 N   0  0  1  0  0  4  0  0  0  0  0  0
  -30.4620  -24.5470   20.5720 H   0  0  0  0  0  0  0  0  0  0  0  0
  -30.9410  -19.3460   21.0350 C   0  0  0  0  0  3  0  0  0  0  0  0
  -31.0670  -17.9680   21.3470 C   0  0  0  0  0  3  0  0  0  0  0  0
  -29.5280  -17.4370   19.5530 C   0  0  0  0  0  3  0  0  0  0  0  0
  -30.1120  -19.7920   19.9750 C   0  0  0  0  0  0  0  0  0  0  0  0
  -30.3600  -16.9980   20.6020 C   0  0  0  0  0  0  0  0  0  0  0  0
  -29.4000  -18.8060   19.2280 C   0  0  0  0  0  0  0  0  0  0  0  0
  -31.0250  -14.6540   20.2430 C   0  0  0  0  0  0  0  0  0  0  0  0
  -30.6120  -12.6090   18.9270 C   0  0  0  0  0  2  0  0  0  0  0  0
  -29.6450  -12.9630   17.7770 C   0  0  0  0  0  2  0  0  0  0  0  0
  -28.1760  -12.8600   18.2360 C   0  0  0  0  0  2  0  0  0  0  0  0
  -27.9170  -13.5900   19.5780 C   0  0  0  0  0  3  0  0  0  0  0  0
  -28.9890  -13.2120   20.6280 C   0  0  0  0  0  2  0  0  0  0  0  0
  -30.3160  -13.5070   20.0540 N   0  0  0  0  0  0  0  0  0  0  0  0
  -32.1340  -14.8530   19.7370 O   0  0  0  0  0  0  0  0  0  0  0  0
  -30.3830  -15.6110   20.9420 N   0  0  0  0  0  0  0  0  0  0  0  0
  -29.5260  -15.2620   21.3440 H   0  0  0  0  0  0  0  0  0  0  0  0
  -25.5470  -14.2590   20.3270 C   0  0  0  0  0  0  0  0  0  0  0  0
  -24.4610  -13.5120   20.7010 C   0  0  0  0  0  0  0  0  0  0  0  0
  -24.8840  -12.1490   20.6450 C   0  0  0  0  0  0  0  0  0  0  0  0
  -26.5630  -13.3500   20.0710 N   0  0  0  0  0  0  0  0  0  0  0  0
  -26.1670  -12.0760   20.3180 N   0  0  0  0  0  0  0  0  0  0  0  0
  -24.1250  -10.9050   20.8300 C   0  0  0  0  0  0  0  0  0  0  0  0
  -24.5420   -9.9180   21.7500 C   0  0  0  0  0  3  0  0  0  0  0  0
  -23.7880   -8.7370   21.9230 C   0  0  0  0  0  3  0  0  0  0  0  0
  -22.6020   -8.5370   21.1770 C   0  0  0  0  0  0  0  0  0  0  0  0
  -22.2040   -9.5130   20.2460 C   0  0  0  0  0  3  0  0  0  0  0  0
  -22.9590  -10.6850   20.0720 C   0  0  0  0  0  3  0  0  0  0  0  0
  -21.8180   -7.4110   21.2600 O   0  0  0  0  0  0  0  0  0  0  0  0
  -21.7330   -6.6780   22.4160 C   0  0  0  0  0  0  0  0  0  0  0  0
  -21.3140   -7.2540   23.6350 C   0  0  0  0  0  3  0  0  0  0  0  0
  -21.1730   -6.4490   24.7840 C   0  0  0  0  0  3  0  0  0  0  0  0
  -21.4410   -5.0680   24.7120 C   0  0  0  0  0  0  0  0  0  0  0  0
  -21.8520   -4.4920   23.4980 C   0  0  0  0  0  3  0  0  0  0  0  0
  -21.9950   -5.2950   22.3530 C   0  0  0  0  0  0  0  0  0  0  0  0
  -22.3710   -4.7300   21.1800 F   0  0  0  0  0  0  0  0  0  0  0  0
  -21.2990   -4.2930   25.8120 F   0  0  0  0  0  0  0  0  0  0  0  0
  -23.0830  -14.0260   21.0020 C   0  0  0  0  0  0  0  0  0  0  0  0
  -22.3550  -13.3480   21.8820 N   0  0  0  0  0  0  0  0  0  0  0  0
  -22.6630  -15.0650   20.4940 O   0  0  0  0  0  0  0  0  0  0  0  0
  -22.7070  -12.5090   22.3170 H   0  0  0  0  0  0  0  0  0  0  0  0
  -21.4310  -13.6760   22.1270 H   0  0  0  0  0  0  0  0  0  0  0  0
  -25.7460  -15.6280   20.1700 N   0  0  0  0  0  0  0  0  0  0  0  0
  -25.0080  -16.2960   20.3590 H   0  0  0  0  0  0  0  0  0  0  0  0
  -26.6150  -16.0560   19.8830 H   0  0  0  0  0  0  0  0  0  0  0  0
  -29.1430  -18.9180   16.8210 C   0  0  0  0  0  1  0  0  0  0  0  0
  -28.5600  -19.1130   18.1460 N   0  0  0  0  0  0  0  0  0  0  0  0
  -27.5130  -20.1100   18.3710 C   0  0  0  0  0  2  0  0  0  0  0  0
  -26.3060  -19.9040   17.4310 C   0  0  0  0  0  2  0  0  0  0  0  0
  -25.5900  -22.2810   17.4480 C   0  0  0  0  0  1  0  0  0  0  0  0
  -23.9750  -20.5110   16.9330 C   0  0  0  0  0  1  0  0  0  0  0  0
  -25.2030  -20.8690   17.6810 N   0  0  1  0  0  4  0  0  0  0  0  0
  -24.9610  -20.7890   18.6580 H   0  0  0  0  0  0  0  0  0  0  0  0
  -29.7800  -25.5540   18.9100 C   0  0  0  0  0  2  0  0  0  0  0  0
  -29.7690  -26.8940   19.7010 C   0  0  0  0  0  3  0  0  0  0  0  0
  -28.8370  -26.8720   20.7820 O   0  0  0  0  0  0  0  0  0  0  0  0
  -24.6160  -31.9920   23.3470 C   0  0  0  0  0  0  0  0  0  0  0  0
  -27.6700  -27.5830   20.6160 C   0  0  0  0  0  0  0  0  0  0  0  0
  -23.5950  -30.4890   21.6690 C   0  0  0  0  0  3  0  0  0  0  0  0
  -25.2160  -28.9700   20.4070 C   0  0  0  0  0  0  0  0  0  0  0  0
  -26.1100  -30.9510   21.6460 C   0  0  0  0  0  2  0  0  0  0  0  0
  -26.3010  -29.5650   21.0630 C   0  0  0  0  0  0  0  0  0  0  0  0
  -27.5290  -28.8740   21.1740 C   0  0  0  0  0  3  0  0  0  0  0  0
  -26.5700  -26.9950   19.9590 C   0  0  0  0  0  3  0  0  0  0  0  0
  -25.3450  -27.6830   19.8530 C   0  0  0  0  0  3  0  0  0  0  0  0
  -23.9340  -29.7710   20.3330 C   0  0  0  0  0  2  0  0  0  0  0  0
  -24.7860  -31.1620   22.2790 N   0  0  0  0  0  0  0  0  0  0  0  0
  -23.4880  -32.2370   23.7960 O   0  0  0  0  0  0  0  0  0  0  0  0
  -22.9120  -29.4750   22.6150 C   0  0  0  0  0  0  0  0  0  0  0  0
  -21.5970  -29.2740   22.4310 N   0  0  0  0  0  0  0  0  0  0  0  0
  -23.5660  -28.8700   23.4690 O   0  0  0  0  0  0  0  0  0  0  0  0
  -21.1330  -29.8160   21.7160 H   0  0  0  0  0  0  0  0  0  0  0  0
  -18.2040  -28.1060   22.8510 C   0  0  0  0  0  0  0  0  0  0  0  0
  -20.7580  -28.3370   23.1770 C   0  0  0  0  0  3  0  0  0  0  0  0
  -20.8580  -26.9110   22.5880 C   0  0  0  0  0  2  0  0  0  0  0  0
  -19.7740  -26.6090   21.5490 C   0  0  0  0  0  2  0  0  0  0  0  0
  -18.3820  -26.7610   22.1670 C   0  0  0  0  0  2  0  0  0  0  0  0
  -19.3210  -28.8530   23.3120 C   0  0  0  0  0  0  0  0  0  0  0  0
  -19.1040  -30.1130   23.9100 C   0  0  0  0  0  3  0  0  0  0  0  0
  -17.8010  -30.6270   24.0540 C   0  0  0  0  0  3  0  0  0  0  0  0
  -16.6980  -29.8760   23.6120 C   0  0  0  0  0  3  0  0  0  0  0  0
  -16.9010  -28.6180   23.0170 C   0  0  0  0  0  3  0  0  0  0  0  0
  -25.8270  -32.6960   24.0380 C   0  0  0  0  0  3  0  0  0  0  0  0
  -26.2730  -31.9930   25.3790 C   0  0  1  0  0  0  0  0  0  0  0  0
  -25.1060  -31.7220   26.3580 C   0  0  0  0  0  1  0  0  0  0  0  0
  -26.9640  -30.6410   25.0830 C   0  0  0  0  0  1  0  0  0  0  0  0
  -27.3140  -32.8730   26.1110 C   0  0  0  0  0  1  0  0  0  0  0  0
  -25.4440  -34.0930   24.2850 N   0  0  0  0  0  0  0  0  0  0  0  0
  -25.7920  -35.1260   23.5070 C   0  0  0  0  0  0  0  0  0  0  0  0
  -26.5380  -35.0090   22.5320 O   0  0  0  0  0  0  0  0  0  0  0  0
  -24.7820  -34.2540   25.0310 H   0  0  0  0  0  0  0  0  0  0  0  0
  -24.0170  -36.8260   22.9680 C   0  0  0  0  0  1  0  0  0  0  0  0
  -25.2210  -36.5110   23.8700 C   0  0  0  0  0  3  0  0  0  0  0  0
  -27.2640  -37.5210   24.7850 C   0  0  0  0  0  1  0  0  0  0  0  0
  -26.2160  -37.6020   23.7700 N   0  0  0  0  0  0  0  0  0  0  0  0
  -25.7630  -38.5090   23.8520 H   0  0  0  0  0  0  0  0  0  0  0  0
  -31.1480  -27.2930   20.2720 C   0  0  0  0  0  2  0  0  0  0  0  0
  -31.2250  -28.6930   20.5050 O   0  0  0  0  0  0  0  0  0  0  0  0
  -32.0890  -28.8820   20.8590 H   0  0  0  0  0  0  0  0  0  0  0  0
  2  5  1  0
  3  1  1  0
  4  2  1  0
  4  6  1  0
  5 11  1  0
  5  1  1  0
  6  3  1  0
  6  7  1  1
  8  9  1  0
 10 12  1  0
 11  8  2  0
 12 22  1  0
 12  9  2  0
 13 10  2  0
 13 11  1  0
 14 22  1  0
 15 20  1  0
 16 17  1  0
 16 15  1  0
 18 17  1  0
 18 27  1  0
 18 19  1  0
 20 14  1  0
 20 19  1  0
 21 14  2  0
 22 23  1  0
 24 25  2  0
 25 44  1  0
 26 25  1  0
 26 29  1  0
 27 28  1  0
 27 24  1  0
 28 26  2  0
 29 30  1  0
 30 31  2  0
 32 35  1  0
 32 31  1  0
 33 32  2  0
 34 33  1  0
 34 29  2  0
 35 36  1  0
 36 37  1  0
 37 38  2  0
 39 38  1  0
 39 43  1  0
 40 39  2  0
 41 36  2  0
 41 40  1  0
 42 41  1  0
 44 45  1  0
 45 48  1  0
 45 47  1  0
 46 44  2  0
 49 24  1  0
 49 50  1  0
 51 49  1  0
 52 53  1  0
 53 54  1  0
 53 13  1  0
 55 58  1  0
 55 54  1  0
 56 58  1  0
 57 58  1  0
 58 59  1  1
 60  6  1  0
 61 60  1  0
 61103  1  0
 61 62  1  0
 63 74  2  0
 64 62  1  0
 64 69  1  0
 65 73  1  0
 65 75  1  0
 66 68  1  0
 67 73  1  0
 68 69  2  0
 68 67  1  0
 70 64  2  0
 71 70  1  0
 71 66  2  0
 72 66  1  0
 72 65  1  0
 73 63  1  0
 75 77  2  0
 76 75  1  0
 78 76  1  0
 79 88  2  0
 79 84  1  0
 80 76  1  0
 80 84  1  0
 81 80  1  0
 82 83  1  0
 82 81  1  0
 83 79  1  0
 84 85  2  0
 85 86  1  0
 87 86  2  0
 88 87  1  0
 89 63  1  0
 89 94  1  0
 89 90  1  0
 90 93  1  1
 90 91  1  0
 92 90  1  0
 94 97  1  0
 95 99  1  0
 95 94  1  0
 96 95  2  0
 99 98  1  0
101102  1  0
101 99  1  0
101100  1  0
103104  1  0
104105  1  0
M  ISO  4  14 100  22 100  61 101  62 101
M  END
>  <TORSDO>  (40) 
F 25

>  <SCORE>  (40) 
-11.847

>  <name>  (40) 
39

>  <ligand_id>  (40) 
39

>  <original_smiles>  (40) 
[H]OC([H])([H])C([H])(Oc1c([H])c([H])c2c(c1[H])C([H])([H])N(C(=O)C([H])(N([H])C(=O)C([H])(N([H])C([H])([H])[H])C([H])([H])[H])C(C([H])([H])[H])(C([H])([H])[H])C([H])([H])[H])C([H])(C(=O)N([H])C1([H])c3c([H])c([H])c([H])c([H])c3C([H])([H])C([H])([H])C1([H])[H])C2([H])[H])C([H])([H])[N+]1([H])C([H])([H])C([H])([H])C([H])(c2c([H])c([H])c(N([H])C(=O)N3C([H])([H])C([H])([H])C([H])([H])C([H])(n4nc(-c5c([H])c([H])c(Oc6c([H])c([H])c(F)c([H])c6F)c([H])c5[H])c(C(=O)N([H])[H])c4N([H])[H])C3([H])[H])c([H])c2N(C([H])([H])[H])C([H])([H])C([H])([H])[N+]([H])(C([H])([H])[H])C([H])([H])[H])C([H])([H])C1([H])[H]

>  <smiles>  (40) 
[H]OC([H])([H])C([H])(Oc1c([H])c([H])c2c(c1[H])C([H])([H])N(C(=O)C([H])(N([H])C(=O)C([H])(N([H])C([H])([H])[H])C([H])([H])[H])C(C([H])([H])[H])(C([H])([H])[H])C([H])([H])[H])C([H])(C(=O)N([H])C1([H])c3c([H])c([H])c([H])c([H])c3C([H])([H])C([H])([H])C1([H])[H])C2([H])[H])C([H])([H])[N+]1([H])C([H])([H])C([H])([H])C([H])(c2c([H])c([H])c(N([H])C(=O)N3C([H])([H])C([H])([H])C([H])([H])C([H])(n4nc(-c5c([H])c([H])c(Oc6c([H])c([H])c(F)c([H])c6F)c([H])c5[H])c(C(=O)N([H])[H])c4N([H])[H])C3([H])[H])c([H])c2N(C([H])([H])[H])C([H])([H])C([H])([H])[N+]([H])(C([H])([H])[H])C([H])([H])[H])C([H])([H])C1([H])[H]

$$$$
40:0:0
     RDKit          3D

 98106  0  0  1  0  0  0  0  0999 V2000
  -30.8270  -18.6040   19.4270 C   0  0  0  0  0  3  0  0  0  0  0  0
  -30.4950  -20.0240   19.2570 C   0  0  0  0  0  3  0  0  0  0  0  0
  -28.6000  -18.1790   20.0660 C   0  0  0  0  0  3  0  0  0  0  0  0
  -29.8880  -17.5890   19.8400 C   0  0  0  0  0  0  0  0  0  0  0  0
  -29.1880  -20.5910   19.4890 C   0  0  0  0  0  0  0  0  0  0  0  0
  -28.2620  -19.5810   19.9150 C   0  0  0  0  0  0  0  0  0  0  0  0
  -30.9250  -14.9990   19.6650 C   0  0  0  0  0  0  0  0  0  0  0  0
  -30.8740  -12.6030   18.8380 C   0  0  0  0  0  2  0  0  0  0  0  0
  -29.8170  -12.4560   17.7160 C   0  0  0  0  0  2  0  0  0  0  0  0
  -28.4150  -12.2120   18.3040 C   0  0  0  0  0  2  0  0  0  0  0  0
  -28.0860  -13.1830   19.4660 C   0  0  0  0  0  3  0  0  0  0  0  0
  -29.2420  -13.2560   20.4850 C   0  0  0  0  0  2  0  0  0  0  0  0
  -30.4360  -13.6970   19.7490 N   0  0  0  0  0  0  0  0  0  0  0  0
  -32.0620  -15.1630   19.2080 O   0  0  0  0  0  0  0  0  0  0  0  0
  -30.0360  -16.0630   19.9700 N   0  0  0  0  0  0  0  0  0  0  0  0
  -29.2200  -15.6590   20.4030 H   0  0  0  0  0  0  0  0  0  0  0  0
  -25.8140  -13.7430   20.5110 C   0  0  0  0  0  0  0  0  0  0  0  0
  -24.7880  -12.9560   20.9580 C   0  0  0  0  0  0  0  0  0  0  0  0
  -25.2240  -11.6050   20.7900 C   0  0  0  0  0  0  0  0  0  0  0  0
  -26.8090  -12.8710   20.0990 N   0  0  0  0  0  0  0  0  0  0  0  0
  -26.4690  -11.5760   20.3300 N   0  0  0  0  0  0  0  0  0  0  0  0
  -24.5060  -10.3390   20.9860 C   0  0  0  0  0  0  0  0  0  0  0  0
  -24.9190   -9.3990   21.9550 C   0  0  0  0  0  3  0  0  0  0  0  0
  -24.2010   -8.1970   22.1390 C   0  0  0  0  0  3  0  0  0  0  0  0
  -23.0550   -7.9280   21.3530 C   0  0  0  0  0  0  0  0  0  0  0  0
  -22.6600   -8.8580   20.3760 C   0  0  0  0  0  3  0  0  0  0  0  0
  -23.3790  -10.0510   20.1910 C   0  0  0  0  0  3  0  0  0  0  0  0
  -22.3100   -6.7760   21.4440 O   0  0  0  0  0  0  0  0  0  0  0  0
  -22.0870   -6.1590   22.6490 C   0  0  0  0  0  0  0  0  0  0  0  0
  -21.4410   -6.8200   23.7160 C   0  0  0  0  0  3  0  0  0  0  0  0
  -21.1670   -6.1260   24.9130 C   0  0  0  0  0  3  0  0  0  0  0  0
  -21.5280   -4.7710   25.0400 C   0  0  0  0  0  0  0  0  0  0  0  0
  -22.1650   -4.1100   23.9750 C   0  0  0  0  0  3  0  0  0  0  0  0
  -22.4400   -4.8020   22.7830 C   0  0  0  0  0  0  0  0  0  0  0  0
  -23.0360   -4.1540   21.7530 F   0  0  0  0  0  0  0  0  0  0  0  0
  -21.2590   -4.1010   26.1850 F   0  0  0  0  0  0  0  0  0  0  0  0
  -23.4390  -13.4280   21.4180 C   0  0  0  0  0  0  0  0  0  0  0  0
  -22.8170  -12.7040   22.3410 N   0  0  0  0  0  0  0  0  0  0  0  0
  -22.9500  -14.4760   20.9950 O   0  0  0  0  0  0  0  0  0  0  0  0
  -23.2240  -11.8550   22.7040 H   0  0  0  0  0  0  0  0  0  0  0  0
  -21.9180  -13.0030   22.6900 H   0  0  0  0  0  0  0  0  0  0  0  0
  -25.9700  -15.1200   20.3930 N   0  0  0  0  0  0  0  0  0  0  0  0
  -25.1750  -15.7320   20.5330 H   0  0  0  0  0  0  0  0  0  0  0  0
  -26.7230  -15.5570   19.8780 H   0  0  0  0  0  0  0  0  0  0  0  0
  -29.0660  -23.3290   18.9830 C   0  0  0  0  0  0  0  0  0  0  0  0
  -28.6570  -22.0230   19.3410 N   0  0  0  0  0  0  0  0  0  0  0  0
  -30.2430  -23.5530   18.6880 O   0  0  0  0  0  0  0  0  0  0  0  0
  -27.6780  -22.0280   19.5920 H   0  0  0  0  0  0  0  0  0  0  0  0
  -27.9860  -24.5840   18.9330 C   0  0  0  0  0  2  0  0  0  0  0  0
  -28.3600  -26.0960   18.9350 O   0  0  0  0  0  0  0  0  0  0  0  0
  -24.7940  -30.8290   23.3410 C   0  0  0  0  0  0  0  0  0  0  0  0
  -27.3330  -27.0820   19.1620 C   0  0  0  0  0  0  0  0  0  0  0  0
  -23.5970  -29.9740   21.3640 C   0  0  0  0  0  3  0  0  0  0  0  0
  -25.0410  -28.8200   19.5810 C   0  0  0  0  0  0  0  0  0  0  0  0
  -26.1570  -30.2140   21.3110 C   0  0  0  0  0  2  0  0  0  0  0  0
  -26.2180  -29.0500   20.3060 C   0  0  0  0  0  0  0  0  0  0  0  0
  -27.3670  -28.2020   20.0850 C   0  0  0  0  0  3  0  0  0  0  0  0
  -26.1390  -26.9710   18.4160 C   0  0  0  0  0  3  0  0  0  0  0  0
  -25.0160  -27.7980   18.6230 C   0  0  0  0  0  3  0  0  0  0  0  0
  -23.8330  -29.7010   19.8540 C   0  0  0  0  0  2  0  0  0  0  0  0
  -24.8690  -30.3420   22.0660 N   0  0  0  0  0  0  0  0  0  0  0  0
  -23.7040  -30.9840   23.9130 O   0  0  0  0  0  0  0  0  0  0  0  0
  -22.8810  -28.7560   21.9980 C   0  0  0  0  0  0  0  0  0  0  0  0
  -21.5530  -28.6570   21.8060 N   0  0  0  0  0  0  0  0  0  0  0  0
  -23.5210  -27.9120   22.6290 O   0  0  0  0  0  0  0  0  0  0  0  0
  -21.0930  -29.3920   21.2880 H   0  0  0  0  0  0  0  0  0  0  0  0
  -18.1380  -27.4580   21.9220 C   0  0  0  0  0  0  0  0  0  0  0  0
  -20.6970  -27.5650   22.2770 C   0  0  0  0  0  3  0  0  0  0  0  0
  -20.7730  -26.3450   21.3290 C   0  0  0  0  0  2  0  0  0  0  0  0
  -19.6820  -26.3510   20.2530 C   0  0  0  0  0  2  0  0  0  0  0  0
  -18.2940  -26.3470   20.8980 C   0  0  0  0  0  2  0  0  0  0  0  0
  -19.2670  -28.0390   22.5590 C   0  0  0  0  0  0  0  0  0  0  0  0
  -19.0650  -29.0910   23.4800 C   0  0  0  0  0  3  0  0  0  0  0  0
  -17.7680  -29.5560   23.7690 C   0  0  0  0  0  3  0  0  0  0  0  0
  -16.6550  -28.9680   23.1450 C   0  0  0  0  0  3  0  0  0  0  0  0
  -16.8410  -27.9170   22.2280 C   0  0  0  0  0  3  0  0  0  0  0  0
  -26.0730  -31.2340   24.1350 C   0  0  0  0  0  3  0  0  0  0  0  0
  -25.9220  -32.6390   24.5450 N   0  0  0  0  0  0  0  0  0  0  0  0
  -26.5720  -33.6690   23.9880 C   0  0  0  0  0  0  0  0  0  0  0  0
  -27.4250  -33.5220   23.1090 O   0  0  0  0  0  0  0  0  0  0  0  0
  -25.2040  -32.8370   25.2270 H   0  0  0  0  0  0  0  0  0  0  0  0
  -25.3730  -35.8070   23.4250 C   0  0  0  0  0  1  0  0  0  0  0  0
  -26.2240  -35.0870   24.4830 C   0  0  0  0  0  3  0  0  0  0  0  0
  -28.1330  -35.4330   25.9890 C   0  0  0  0  0  1  0  0  0  0  0  0
  -27.4100  -35.9080   24.8120 N   0  0  0  0  0  0  0  0  0  0  0  0
  -27.1450  -36.8750   24.9730 H   0  0  0  0  0  0  0  0  0  0  0  0
  -26.3340  -30.3200   25.3960 C   0  0  1  0  0  0  0  0  0  0  0  0
  -25.1170  -30.1980   26.3420 C   0  0  0  0  0  1  0  0  0  0  0  0
  -26.7380  -28.8940   24.9610 C   0  0  0  0  0  1  0  0  0  0  0  0
  -27.5200  -30.8830   26.2130 C   0  0  0  0  0  1  0  0  0  0  0  0
  -26.3430  -19.3980   21.4290 C   0  0  0  0  0  1  0  0  0  0  0  0
  -26.9510  -19.9810   20.2380 N   0  0  0  0  0  0  0  0  0  0  0  0
  -26.2660  -20.9900   19.4300 C   0  0  0  0  0  2  0  0  0  0  0  0
  -25.7100  -20.4310   18.0980 C   0  0  0  0  0  2  0  0  0  0  0  0
  -25.1940  -22.7720   17.3900 C   0  0  0  0  0  1  0  0  0  0  0  0
  -24.4360  -20.8720   16.0340 C   0  0  0  0  0  1  0  0  0  0  0  0
  -24.7710  -21.3510   17.3970 N   0  0  1  0  0  4  0  0  0  0  0  0
  -23.9020  -21.3200   17.9120 H   0  0  0  0  0  0  0  0  0  0  0  0
  1  4  1  0
  2  1  2  0
  2  5  1  0
  4 15  1  0
  4  3  2  0
  5  6  2  0
  6  3  1  0
  6 92  1  0
  7 13  1  0
  7 15  1  0
  8 13  1  0
  9 10  1  0
  9  8  1  0
 11 10  1  0
 11 20  1  0
 11 12  1  0
 13 12  1  0
 14  7  2  0
 15 16  1  0
 17 18  2  0
 18 37  1  0
 19 18  1  0
 19 22  1  0
 20 21  1  0
 20 17  1  0
 21 19  2  0
 22 23  1  0
 23 24  2  0
 25 28  1  0
 25 24  1  0
 26 25  2  0
 27 26  1  0
 27 22  2  0
 28 29  1  0
 29 34  2  0
 29 30  1  0
 30 31  2  0
 31 32  1  0
 32 36  1  0
 33 32  2  0
 34 33  1  0
 35 34  1  0
 37 38  1  0
 38 41  1  0
 38 40  1  0
 39 37  2  0
 42 17  1  0
 42 43  1  0
 44 42  1  0
 45 46  1  0
 46  5  1  0
 46 48  1  0
 47 45  2  0
 49 50  1  0
 49 45  1  0
 50 52  1  0
 51 62  2  0
 52 57  1  0
 53 63  1  0
 53 61  1  0
 54 60  1  0
 54 56  1  0
 55 61  1  0
 56 55  1  0
 57 56  2  0
 58 59  1  0
 58 52  2  0
 59 54  2  0
 60 53  1  0
 61 51  1  0
 63 65  2  0
 64 63  1  0
 66 64  1  0
 67 76  2  0
 67 72  1  0
 68 64  1  0
 68 72  1  0
 69 68  1  0
 70 71  1  0
 70 69  1  0
 71 67  1  0
 72 73  2  0
 73 74  1  0
 75 74  2  0
 76 75  1  0
 77 51  1  0
 77 78  1  0
 77 87  1  0
 78 81  1  0
 79 83  1  0
 79 78  1  0
 80 79  2  0
 83 82  1  0
 83 85  1  0
 85 86  1  0
 85 84  1  0
 87 90  1  1
 87 88  1  0
 89 87  1  0
 92 91  1  0
 93 92  1  0
 94 93  1  0
 95 97  1  0
 96 97  1  0
 97 98  1  1
 97 94  1  0
M  ISO  4   7 100  15 100  49 101  50 101
M  END
>  <TORSDO>  (41) 
F 22

>  <SCORE>  (41) 
-4.761

>  <name>  (41) 
40

>  <ligand_id>  (41) 
40

>  <original_smiles>  (41) 
[H]c1c([H])c([H])c2c(c1[H])C([H])([H])C([H])([H])C([H])([H])C2([H])N([H])C(=O)C1([H])N(C(=O)C([H])(N([H])C(=O)C([H])(N([H])C([H])([H])[H])C([H])([H])[H])C(C([H])([H])[H])(C([H])([H])[H])C([H])([H])[H])C([H])([H])c2c([H])c(OC([H])([H])C(=O)N([H])c3c([H])c([H])c(N([H])C(=O)N4C([H])([H])C([H])([H])C([H])([H])C([H])(n5nc(-c6c([H])c([H])c(Oc7c([H])c([H])c(F)c([H])c7F)c([H])c6[H])c(C(=O)N([H])[H])c5N([H])[H])C4([H])[H])c([H])c3N(C([H])([H])[H])C([H])([H])C([H])([H])[N+]([H])(C([H])([H])[H])C([H])([H])[H])c([H])c([H])c2C1([H])[H]

>  <smiles>  (41) 
[H]c1c([H])c([H])c2c(c1[H])C([H])([H])C([H])([H])C([H])([H])C2([H])N([H])C(=O)C1([H])N(C(=O)C([H])(N([H])C(=O)C([H])(N([H])C([H])([H])[H])C([H])([H])[H])C(C([H])([H])[H])(C([H])([H])[H])C([H])([H])[H])C([H])([H])c2c([H])c(OC([H])([H])C(=O)N([H])c3c([H])c([H])c(N([H])C(=O)N4C([H])([H])C([H])([H])C([H])([H])C([H])(n5nc(-c6c([H])c([H])c(Oc7c([H])c([H])c(F)c([H])c7F)c([H])c6[H])c(C(=O)N([H])[H])c5N([H])[H])C4([H])[H])c([H])c3N(C([H])([H])[H])C([H])([H])C([H])([H])[N+]([H])(C([H])([H])[H])C([H])([H])[H])c([H])c([H])c2C1([H])[H]

$$$$
41:0:0
     RDKit          3D

100108  0  0  1  0  0  0  0  0999 V2000
  -29.2700  -20.8420   21.5200 C   0  0  0  0  0  2  0  0  0  0  0  0
  -29.3070  -18.6760   20.2090 C   0  0  0  0  0  3  0  0  0  0  0  0
  -29.5660  -17.2950   20.1050 C   0  0  0  0  0  3  0  0  0  0  0  0
  -30.8650  -17.3870   22.1600 C   0  0  0  0  0  3  0  0  0  0  0  0
  -30.6260  -18.7730   22.2620 C   0  0  0  0  0  0  0  0  0  0  0  0
  -29.7930  -19.4190   21.3080 C   0  0  0  0  0  0  0  0  0  0  0  0
  -30.3190  -16.6360   21.1040 C   0  0  0  0  0  0  0  0  0  0  0  0
  -30.8760  -14.4340   20.1610 C   0  0  0  0  0  0  0  0  0  0  0  0
  -30.5040  -12.3300   18.9290 C   0  0  0  0  0  2  0  0  0  0  0  0
  -29.5020  -12.5730   17.7820 C   0  0  0  0  0  2  0  0  0  0  0  0
  -28.0510  -12.4170   18.2790 C   0  0  0  0  0  2  0  0  0  0  0  0
  -27.7760  -13.2260   19.5750 C   0  0  0  0  0  3  0  0  0  0  0  0
  -28.8820  -12.9590   20.6240 C   0  0  0  0  0  2  0  0  0  0  0  0
  -30.1940  -13.2660   20.0210 N   0  0  0  0  0  0  0  0  0  0  0  0
  -31.8550  -14.7400   19.4740 O   0  0  0  0  0  0  0  0  0  0  0  0
  -30.4410  -15.2240   21.1490 N   0  0  0  0  0  0  0  0  0  0  0  0
  -29.8810  -14.7620   21.8490 H   0  0  0  0  0  0  0  0  0  0  0  0
  -25.4020  -13.8160   20.3870 C   0  0  0  0  0  0  0  0  0  0  0  0
  -24.3560  -13.0340   20.8030 C   0  0  0  0  0  0  0  0  0  0  0  0
  -24.8260  -11.6870   20.7470 C   0  0  0  0  0  0  0  0  0  0  0  0
  -26.4440  -12.9440   20.1090 N   0  0  0  0  0  0  0  0  0  0  0  0
  -26.1000  -11.6570   20.3780 N   0  0  0  0  0  0  0  0  0  0  0  0
  -24.1190  -10.4170   20.9670 C   0  0  0  0  0  0  0  0  0  0  0  0
  -24.5640   -9.4810   21.9270 C   0  0  0  0  0  3  0  0  0  0  0  0
  -23.8580   -8.2770   22.1340 C   0  0  0  0  0  3  0  0  0  0  0  0
  -22.6920   -7.9990   21.3820 C   0  0  0  0  0  0  0  0  0  0  0  0
  -22.2650   -8.9250   20.4130 C   0  0  0  0  0  3  0  0  0  0  0  0
  -22.9720  -10.1210   20.2030 C   0  0  0  0  0  3  0  0  0  0  0  0
  -21.9570   -6.8440   21.4960 O   0  0  0  0  0  0  0  0  0  0  0  0
  -21.8620   -6.1660   22.6850 C   0  0  0  0  0  0  0  0  0  0  0  0
  -21.3670   -6.7800   23.8550 C   0  0  0  0  0  3  0  0  0  0  0  0
  -21.2200   -6.0280   25.0370 C   0  0  0  0  0  3  0  0  0  0  0  0
  -21.5570   -4.6600   25.0490 C   0  0  0  0  0  0  0  0  0  0  0  0
  -22.0440   -4.0460   23.8830 C   0  0  0  0  0  3  0  0  0  0  0  0
  -22.1930   -4.7960   22.7020 C   0  0  0  0  0  0  0  0  0  0  0  0
  -22.6430   -4.1930   21.5760 F   0  0  0  0  0  0  0  0  0  0  0  0
  -21.4090   -3.9360   26.1820 F   0  0  0  0  0  0  0  0  0  0  0  0
  -22.9680  -13.4980   21.1410 C   0  0  0  0  0  0  0  0  0  0  0  0
  -22.2920  -12.8050   22.0490 N   0  0  0  0  0  0  0  0  0  0  0  0
  -22.4920  -14.5140   20.6330 O   0  0  0  0  0  0  0  0  0  0  0  0
  -22.6880  -11.9850   22.4860 H   0  0  0  0  0  0  0  0  0  0  0  0
  -21.3620  -13.0990   22.3120 H   0  0  0  0  0  0  0  0  0  0  0  0
  -25.5460  -15.1880   20.2070 N   0  0  0  0  0  0  0  0  0  0  0  0
  -24.7820  -15.8370   20.3620 H   0  0  0  0  0  0  0  0  0  0  0  0
  -26.3890  -15.6400   19.8720 H   0  0  0  0  0  0  0  0  0  0  0  0
  -31.2150  -19.5090   23.4240 C   0  0  0  0  0  0  0  0  0  0  0  0
  -30.5550  -19.3840   24.5630 N   0  0  0  0  0  0  0  0  0  0  0  0
  -32.2390  -20.1790   23.3120 O   0  0  0  0  0  0  0  0  0  0  0  0
  -29.7170  -18.8220   24.5970 H   0  0  0  0  0  0  0  0  0  0  0  0
  -30.8810  -19.8480   25.3970 H   0  0  0  0  0  0  0  0  0  0  0  0
  -31.3060  -22.1010   21.3820 C   0  0  0  0  0  1  0  0  0  0  0  0
  -29.9630  -21.9410   20.8280 N   0  0  0  0  0  0  0  0  0  0  0  0
  -29.1130  -23.1210   21.0660 C   0  0  0  0  0  2  0  0  0  0  0  0
  -29.5630  -24.4980   20.5020 C   0  0  0  0  0  3  0  0  0  0  0  0
  -30.4630  -25.1990   21.4410 N   0  0  0  0  0  4  0  0  0  0  0  0
  -30.0510  -25.2940   22.3540 H   0  0  0  0  0  0  0  0  0  0  0  0
  -30.6550  -26.1250   21.0960 H   0  0  0  0  0  0  0  0  0  0  0  0
  -31.3370  -24.7120   21.5310 H   0  0  0  0  0  0  0  0  0  0  0  0
  -28.2950  -25.3450   20.2300 C   0  0  0  0  0  2  0  0  0  0  0  0
  -28.4880  -26.7710   20.2060 O   0  0  0  0  0  0  0  0  0  0  0  0
  -24.6450  -31.9520   23.2490 C   0  0  0  0  0  0  0  0  0  0  0  0
  -27.3190  -27.5100   20.1780 C   0  0  0  0  0  0  0  0  0  0  0  0
  -23.4500  -30.5400   21.6100 C   0  0  0  0  0  3  0  0  0  0  0  0
  -24.9130  -29.0100   20.1930 C   0  0  0  0  0  0  0  0  0  0  0  0
  -25.9770  -30.9070   21.4180 C   0  0  0  0  0  2  0  0  0  0  0  0
  -26.0710  -29.5360   20.7790 C   0  0  0  0  0  0  0  0  0  0  0  0
  -27.2780  -28.7980   20.7640 C   0  0  0  0  0  3  0  0  0  0  0  0
  -26.1340  -27.0060   19.5810 C   0  0  0  0  0  3  0  0  0  0  0  0
  -24.9400  -27.7430   19.5930 C   0  0  0  0  0  3  0  0  0  0  0  0
  -23.6650  -29.8610   20.2330 C   0  0  0  0  0  2  0  0  0  0  0  0
  -24.7090  -31.1470   22.1500 N   0  0  0  0  0  0  0  0  0  0  0  0
  -23.5600  -32.2210   23.7830 O   0  0  0  0  0  0  0  0  0  0  0  0
  -22.8010  -29.5150   22.5700 C   0  0  0  0  0  0  0  0  0  0  0  0
  -21.4840  -29.3030   22.4190 N   0  0  0  0  0  0  0  0  0  0  0  0
  -23.4800  -28.9150   23.4070 O   0  0  0  0  0  0  0  0  0  0  0  0
  -20.9960  -29.8440   21.7180 H   0  0  0  0  0  0  0  0  0  0  0  0
  -18.1330  -28.0130   22.8250 C   0  0  0  0  0  0  0  0  0  0  0  0
  -20.6690  -28.3600   23.1840 C   0  0  0  0  0  3  0  0  0  0  0  0
  -20.8380  -26.9180   22.6520 C   0  0  0  0  0  2  0  0  0  0  0  0
  -19.7860  -26.5320   21.6080 C   0  0  0  0  0  2  0  0  0  0  0  0
  -18.3780  -26.6510   22.1970 C   0  0  0  0  0  2  0  0  0  0  0  0
  -19.2100  -28.8230   23.2730 C   0  0  0  0  0  0  0  0  0  0  0  0
  -18.9300  -30.0950   23.8170 C   0  0  0  0  0  3  0  0  0  0  0  0
  -17.6050  -30.5580   23.9200 C   0  0  0  0  0  3  0  0  0  0  0  0
  -16.5430  -29.7460   23.4880 C   0  0  0  0  0  3  0  0  0  0  0  0
  -16.8070  -28.4760   22.9460 C   0  0  0  0  0  3  0  0  0  0  0  0
  -25.9260  -32.5890   23.8700 C   0  0  0  0  0  3  0  0  0  0  0  0
  -26.4470  -31.8210   25.1470 C   0  0  1  0  0  0  0  0  0  0  0  0
  -25.3550  -31.5760   26.2140 C   0  0  0  0  0  1  0  0  0  0  0  0
  -27.0400  -30.4490   24.7510 C   0  0  0  0  0  1  0  0  0  0  0  0
  -27.5890  -32.6260   25.8120 C   0  0  0  0  0  1  0  0  0  0  0  0
  -25.6090  -33.9850   24.1960 N   0  0  0  0  0  0  0  0  0  0  0  0
  -25.9460  -35.0370   23.4360 C   0  0  0  0  0  0  0  0  0  0  0  0
  -26.6250  -34.9330   22.4100 O   0  0  0  0  0  0  0  0  0  0  0  0
  -25.0110  -34.1400   24.9930 H   0  0  0  0  0  0  0  0  0  0  0  0
  -24.2120  -36.8200   23.0640 C   0  0  0  0  0  1  0  0  0  0  0  0
  -25.4500  -36.4240   23.8860 C   0  0  0  0  0  3  0  0  0  0  0  0
  -27.5770  -37.3190   24.7260 C   0  0  0  0  0  1  0  0  0  0  0  0
  -26.4780  -37.4810   23.7770 N   0  0  0  0  0  0  0  0  0  0  0  0
  -26.0660  -38.3980   23.9230 H   0  0  0  0  0  0  0  0  0  0  0  0
  2  6  1  0
  3  2  2  0
  3  7  1  0
  4  5  1  0
  5 46  1  0
  6  1  1  0
  6  5  2  0
  7 16  1  0
  7  4  2  0
  8 16  1  0
  9 14  1  0
 10 11  1  0
 10  9  1  0
 12 11  1  0
 12 21  1  0
 12 13  1  0
 14  8  1  0
 14 13  1  0
 15  8  2  0
 16 17  1  0
 18 19  2  0
 19 38  1  0
 20 19  1  0
 20 23  1  0
 21 22  1  0
 21 18  1  0
 22 20  2  0
 23 24  1  0
 24 25  2  0
 26 29  1  0
 26 25  1  0
 27 26  2  0
 28 27  1  0
 28 23  2  0
 29 30  1  0
 30 35  2  0
 30 31  1  0
 31 32  2  0
 32 33  1  0
 33 37  1  0
 34 33  2  0
 35 34  1  0
 36 35  1  0
 38 39  1  0
 39 42  1  0
 39 41  1  0
 40 38  2  0
 43 44  1  0
 43 18  1  0
 45 43  1  0
 46 47  1  0
 47 49  1  0
 47 50  1  0
 48 46  2  0
 52 53  1  0
 52 51  1  0
 52  1  1  0
 54 59  1  0
 54 53  1  0
 54 55  1  0
 55 58  1  0
 55 56  1  0
 57 55  1  0
 60 59  1  0
 61 72  2  0
 62 60  1  0
 62 67  1  0
 63 71  1  0
 63 73  1  0
 64 70  1  0
 64 66  1  0
 65 71  1  0
 66 65  1  0
 67 66  2  0
 68 69  1  0
 68 62  2  0
 69 64  2  0
 70 63  1  0
 71 61  1  0
 73 75  2  0
 74 73  1  0
 76 74  1  0
 77 86  2  0
 77 82  1  0
 78 74  1  0
 78 82  1  0
 79 78  1  0
 80 81  1  0
 80 79  1  0
 81 77  1  0
 82 83  2  0
 83 84  1  0
 85 84  2  0
 86 85  1  0
 87 61  1  0
 87 92  1  0
 87 88  1  0
 88 91  1  1
 88 89  1  0
 90 88  1  0
 92 95  1  0
 93 97  1  0
 93 92  1  0
 94 93  2  0
 97 96  1  0
 99 97  1  0
 99100  1  0
 99 98  1  0
M  ISO  4   8 100  16 100  59 101  60 101
M  END
>  <TORSDO>  (42) 
F 23

>  <SCORE>  (42) 
-12.694

>  <name>  (42) 
41

>  <ligand_id>  (42) 
41

>  <original_smiles>  (42) 
[H]c1c([H])c([H])c2c(c1[H])C([H])([H])C([H])([H])C([H])([H])C2([H])N([H])C(=O)C1([H])N(C(=O)C([H])(N([H])C(=O)C([H])(N([H])C([H])([H])[H])C([H])([H])[H])C(C([H])([H])[H])(C([H])([H])[H])C([H])([H])[H])C([H])([H])c2c([H])c(OC([H])([H])C([H])(C([H])([H])N(C([H])([H])[H])C([H])([H])c3c([H])c([H])c(N([H])C(=O)N4C([H])([H])C([H])([H])C([H])([H])C([H])(n5nc(-c6c([H])c([H])c(Oc7c([H])c([H])c(F)c([H])c7F)c([H])c6[H])c(C(=O)N([H])[H])c5N([H])[H])C4([H])[H])c([H])c3C(=O)N([H])[H])[N+]([H])([H])[H])c([H])c([H])c2C1([H])[H]

>  <smiles>  (42) 
[H]c1c([H])c([H])c2c(c1[H])C([H])([H])C([H])([H])C([H])([H])C2([H])N([H])C(=O)C1([H])N(C(=O)C([H])(N([H])C(=O)C([H])(N([H])C([H])([H])[H])C([H])([H])[H])C(C([H])([H])[H])(C([H])([H])[H])C([H])([H])[H])C([H])([H])c2c([H])c(OC([H])([H])C([H])(C([H])([H])N(C([H])([H])[H])C([H])([H])c3c([H])c([H])c(N([H])C(=O)N4C([H])([H])C([H])([H])C([H])([H])C([H])(n5nc(-c6c([H])c([H])c(Oc7c([H])c([H])c(F)c([H])c7F)c([H])c6[H])c(C(=O)N([H])[H])c5N([H])[H])C4([H])[H])c([H])c3C(=O)N([H])[H])[N+]([H])([H])[H])c([H])c([H])c2C1([H])[H]

$$$$
42:0:0
     RDKit          3D

100109  0  0  1  0  0  0  0  0999 V2000
  -29.7180  -22.1330   23.6990 C   0  0  0  0  0  2  0  0  0  0  0  0
  -28.1800  -23.2210   22.2620 C   0  0  0  0  0  2  0  0  0  0  0  0
  -30.4220  -22.3410   22.3370 C   0  0  0  0  0  3  0  0  0  0  0  0
  -29.5660  -23.4140   21.5970 C   0  0  0  0  0  3  0  0  0  0  0  0
  -28.4620  -22.8990   23.6640 N   0  0  0  0  0  4  0  0  0  0  0  0
  -28.6080  -23.7620   24.1610 H   0  0  0  0  0  0  0  0  0  0  0  0
  -27.7030  -22.4010   24.1040 H   0  0  0  0  0  0  0  0  0  0  0  0
  -30.5020  -21.0030   21.5660 C   0  0  0  0  0  0  0  0  0  0  0  0
  -31.7300  -20.6000   21.2100 N   0  0  0  0  0  0  0  0  0  0  0  0
  -29.4750  -20.3710   21.3050 O   0  0  0  0  0  0  0  0  0  0  0  0
  -32.4700  -21.2690   21.3810 H   0  0  0  0  0  0  0  0  0  0  0  0
  -33.6040  -18.4210   18.8790 C   0  0  0  0  0  3  0  0  0  0  0  0
  -33.1040  -19.5470   19.5500 C   0  0  0  0  0  3  0  0  0  0  0  0
  -33.1540  -17.1380   19.2300 C   0  0  0  0  0  3  0  0  0  0  0  0
  -31.6930  -18.0990   20.9280 C   0  0  0  0  0  3  0  0  0  0  0  0
  -32.1380  -19.4010   20.5650 C   0  0  0  0  0  0  0  0  0  0  0  0
  -32.2140  -16.9520   20.2770 C   0  0  0  0  0  0  0  0  0  0  0  0
  -32.3080  -14.4780   20.2450 C   0  0  0  0  0  0  0  0  0  0  0  0
  -31.6670  -12.4390   19.0480 C   0  0  0  0  0  2  0  0  0  0  0  0
  -30.7830  -12.8440   17.8510 C   0  0  0  0  0  2  0  0  0  0  0  0
  -29.3030  -12.9160   18.2740 C   0  0  0  0  0  2  0  0  0  0  0  0
  -29.0860  -13.7400   19.5710 C   0  0  0  0  0  3  0  0  0  0  0  0
  -30.0950  -13.3410   20.6730 C   0  0  0  0  0  2  0  0  0  0  0  0
  -31.4500  -13.4330   20.1090 N   0  0  0  0  0  0  0  0  0  0  0  0
  -33.4770  -14.4280   19.8630 O   0  0  0  0  0  0  0  0  0  0  0  0
  -31.7620  -15.6430   20.6500 N   0  0  0  0  0  0  0  0  0  0  0  0
  -30.8640  -15.5810   21.1050 H   0  0  0  0  0  0  0  0  0  0  0  0
  -26.7880  -14.6470   20.2910 C   0  0  0  0  0  0  0  0  0  0  0  0
  -25.6210  -14.0170   20.6360 C   0  0  0  0  0  0  0  0  0  0  0  0
  -25.8930  -12.6160   20.5660 C   0  0  0  0  0  0  0  0  0  0  0  0
  -27.7040  -13.6380   20.0400 N   0  0  0  0  0  0  0  0  0  0  0  0
  -27.1680  -12.4100   20.2630 N   0  0  0  0  0  0  0  0  0  0  0  0
  -24.9990  -11.4600   20.7150 C   0  0  0  0  0  0  0  0  0  0  0  0
  -25.3140  -10.3910   21.5830 C   0  0  0  0  0  3  0  0  0  0  0  0
  -24.4300   -9.2990   21.7230 C   0  0  0  0  0  3  0  0  0  0  0  0
  -23.2170   -9.2700   20.9950 C   0  0  0  0  0  0  0  0  0  0  0  0
  -22.9200  -10.3260   20.1160 C   0  0  0  0  0  3  0  0  0  0  0  0
  -23.8030  -11.4090   19.9720 C   0  0  0  0  0  3  0  0  0  0  0  0
  -22.3110   -8.2390   21.0480 O   0  0  0  0  0  0  0  0  0  0  0  0
  -22.1500   -7.4800   22.1790 C   0  0  0  0  0  0  0  0  0  0  0  0
  -21.8180   -8.0580   23.4250 C   0  0  0  0  0  3  0  0  0  0  0  0
  -21.5940   -7.2340   24.5460 C   0  0  0  0  0  3  0  0  0  0  0  0
  -21.6900   -5.8360   24.4240 C   0  0  0  0  0  0  0  0  0  0  0  0
  -22.0150   -5.2580   23.1840 C   0  0  0  0  0  3  0  0  0  0  0  0
  -22.2400   -6.0780   22.0640 C   0  0  0  0  0  0  0  0  0  0  0  0
  -22.5320   -5.5140   20.8670 F   0  0  0  0  0  0  0  0  0  0  0  0
  -21.4660   -5.0440   25.4980 F   0  0  0  0  0  0  0  0  0  0  0  0
  -24.3000  -14.6720   20.9170 C   0  0  0  0  0  0  0  0  0  0  0  0
  -23.4960  -14.0800   21.7920 N   0  0  0  0  0  0  0  0  0  0  0  0
  -23.9950  -15.7430   20.3940 O   0  0  0  0  0  0  0  0  0  0  0  0
  -23.7560  -13.2130   22.2360 H   0  0  0  0  0  0  0  0  0  0  0  0
  -22.6070  -14.5020   22.0220 H   0  0  0  0  0  0  0  0  0  0  0  0
  -27.1410  -15.9850   20.1540 N   0  0  0  0  0  0  0  0  0  0  0  0
  -26.4700  -16.7370   20.2660 H   0  0  0  0  0  0  0  0  0  0  0  0
  -28.0450  -16.3070   19.8300 H   0  0  0  0  0  0  0  0  0  0  0  0
  -29.0920  -25.8170   21.7490 C   0  0  0  0  0  1  0  0  0  0  0  0
  -30.1360  -24.7830   21.7470 N   0  0  0  0  0  0  0  0  0  0  0  0
  -31.0340  -25.1200   20.6250 C   0  0  0  0  0  2  0  0  0  0  0  0
  -31.5940  -26.5670   20.6980 C   0  0  0  0  0  2  0  0  0  0  0  0
  -31.0900  -27.3940   19.6470 O   0  0  0  0  0  0  0  0  0  0  0  0
  -25.9340  -30.5560   23.4420 C   0  0  0  0  0  0  0  0  0  0  0  0
  -29.7690  -27.7530   19.7630 C   0  0  0  0  0  0  0  0  0  0  0  0
  -25.1940  -29.2530   21.4720 C   0  0  0  0  0  3  0  0  0  0  0  0
  -27.0480  -28.4970   19.8850 C   0  0  0  0  0  0  0  0  0  0  0  0
  -27.5190  -30.3150   21.5360 C   0  0  0  0  0  2  0  0  0  0  0  0
  -27.9970  -29.1810   20.6560 C   0  0  0  0  0  0  0  0  0  0  0  0
  -29.3600  -28.8130   20.6020 C   0  0  0  0  0  3  0  0  0  0  0  0
  -28.8100  -27.0760   18.9860 C   0  0  0  0  0  3  0  0  0  0  0  0
  -27.4480  -27.4380   19.0480 C   0  0  0  0  0  3  0  0  0  0  0  0
  -25.6120  -28.9610   20.0050 C   0  0  0  0  0  2  0  0  0  0  0  0
  -26.2280  -30.0500   22.2120 N   0  0  0  0  0  0  0  0  0  0  0  0
  -24.8120  -30.4050   23.9470 O   0  0  0  0  0  0  0  0  0  0  0  0
  -24.8440  -27.9160   22.1660 C   0  0  0  0  0  0  0  0  0  0  0  0
  -23.6530  -27.3760   21.8600 N   0  0  0  0  0  0  0  0  0  0  0  0
  -25.6420  -27.3750   22.9360 O   0  0  0  0  0  0  0  0  0  0  0  0
  -23.0510  -27.8870   21.2280 H   0  0  0  0  0  0  0  0  0  0  0  0
  -20.8330  -25.1190   21.7090 C   0  0  0  0  0  0  0  0  0  0  0  0
  -23.1310  -26.1050   22.3640 C   0  0  0  0  0  3  0  0  0  0  0  0
  -23.7450  -24.9070   21.6050 C   0  0  0  0  0  2  0  0  0  0  0  0
  -22.9000  -24.4500   20.4100 C   0  0  0  0  0  2  0  0  0  0  0  0
  -21.4990  -24.0400   20.8720 C   0  0  0  0  0  2  0  0  0  0  0  0
  -21.5990  -26.0980   22.3970 C   0  0  0  0  0  0  0  0  0  0  0  0
  -20.9290  -27.0990   23.1310 C   0  0  0  0  0  3  0  0  0  0  0  0
  -19.5230  -27.1340   23.1870 C   0  0  0  0  0  3  0  0  0  0  0  0
  -18.7700  -26.1530   22.5180 C   0  0  0  0  0  3  0  0  0  0  0  0
  -19.4250  -25.1470   21.7850 C   0  0  0  0  0  3  0  0  0  0  0  0
  -26.9840  -31.3710   24.2630 C   0  0  0  0  0  3  0  0  0  0  0  0
  -26.4260  -32.7100   24.4870 N   0  0  0  0  0  0  0  0  0  0  0  0
  -26.7510  -33.7970   23.7740 C   0  0  0  0  0  0  0  0  0  0  0  0
  -27.6200  -33.7900   22.8970 O   0  0  0  0  0  0  0  0  0  0  0  0
  -25.6700  -32.7780   25.1510 H   0  0  0  0  0  0  0  0  0  0  0  0
  -24.9090  -35.3360   23.0200 C   0  0  0  0  0  1  0  0  0  0  0  0
  -25.9930  -35.1010   24.0850 C   0  0  0  0  0  3  0  0  0  0  0  0
  -27.7780  -36.2610   25.3110 C   0  0  0  0  0  1  0  0  0  0  0  0
  -26.8740  -36.2870   24.1640 N   0  0  0  0  0  0  0  0  0  0  0  0
  -26.3240  -37.1410   24.2120 H   0  0  0  0  0  0  0  0  0  0  0  0
  -27.3720  -30.6890   25.6320 C   0  0  1  0  0  0  0  0  0  0  0  0
  -26.1540  -30.3070   26.5060 C   0  0  0  0  0  1  0  0  0  0  0  0
  -28.2010  -29.4050   25.3920 C   0  0  0  0  0  1  0  0  0  0  0  0
  -28.2720  -31.6410   26.4540 C   0  0  0  0  0  1  0  0  0  0  0  0
  2  5  1  0
  3  8  1  0
  3  1  1  0
  4 57  1  0
  4  2  1  0
  4  3  1  0
  5  1  1  0
  5  7  1  0
  5  6  1  0
  9 11  1  0
  9  8  1  0
 10  8  2  0
 12 14  2  0
 12 13  1  0
 13 16  2  0
 14 17  1  0
 16 15  1  0
 16  9  1  0
 17 26  1  0
 17 15  2  0
 18 26  1  0
 19 24  1  0
 20 21  1  0
 20 19  1  0
 22 21  1  0
 22 31  1  0
 22 23  1  0
 24 18  1  0
 24 23  1  0
 25 18  2  0
 26 27  1  0
 28 29  2  0
 29 48  1  0
 30 29  1  0
 30 33  1  0
 31 32  1  0
 31 28  1  0
 32 30  2  0
 33 34  1  0
 34 35  2  0
 36 39  1  0
 36 35  1  0
 37 36  2  0
 38 37  1  0
 38 33  2  0
 39 40  1  0
 40 41  1  0
 41 42  2  0
 43 42  1  0
 43 47  1  0
 44 43  2  0
 45 40  2  0
 45 44  1  0
 46 45  1  0
 48 49  1  0
 49 52  1  0
 49 51  1  0
 50 48  2  0
 53 54  1  0
 53 28  1  0
 55 53  1  0
 57 56  1  0
 58 59  1  0
 58 57  1  0
 60 62  1  0
 60 59  1  0
 61 72  2  0
 62 67  1  0
 63 73  1  0
 63 71  1  0
 64 70  1  0
 64 66  1  0
 65 71  1  0
 66 65  1  0
 67 66  2  0
 68 69  1  0
 68 62  2  0
 69 64  2  0
 70 63  1  0
 71 61  1  0
 73 75  2  0
 74 73  1  0
 76 74  1  0
 77 86  2  0
 77 82  1  0
 78 74  1  0
 78 82  1  0
 79 78  1  0
 80 81  1  0
 80 79  1  0
 81 77  1  0
 82 83  2  0
 83 84  1  0
 85 84  2  0
 86 85  1  0
 87 61  1  0
 87 88  1  0
 87 97  1  0
 88 91  1  0
 89 93  1  0
 89 88  1  0
 90 89  2  0
 93 92  1  0
 93 95  1  0
 95 96  1  0
 95 94  1  0
 97100  1  1
 97 98  1  0
 99 97  1  0
M  ISO  4  18 100  26 100  59 101  60 101
M  END
>  <TORSDO>  (43) 
F 21

>  <SCORE>  (43) 
-6.554

>  <name>  (43) 
42

>  <ligand_id>  (43) 
42

>  <original_smiles>  (43) 
[H]c1c([H])c(N([H])C(=O)N2C([H])([H])C([H])([H])C([H])([H])C([H])(n3nc(-c4c([H])c([H])c(Oc5c([H])c([H])c(F)c([H])c5F)c([H])c4[H])c(C(=O)N([H])[H])c3N([H])[H])C2([H])[H])c([H])c(N([H])C(=O)C2([H])C([H])(N(C([H])([H])[H])C([H])([H])C([H])([H])Oc3c([H])c([H])c4c(c3[H])C([H])([H])N(C(=O)C([H])(N([H])C(=O)C([H])(N([H])C([H])([H])[H])C([H])([H])[H])C(C([H])([H])[H])(C([H])([H])[H])C([H])([H])[H])C([H])(C(=O)N([H])C3([H])c5c([H])c([H])c([H])c([H])c5C([H])([H])C([H])([H])C3([H])[H])C4([H])[H])C([H])([H])[N+]([H])([H])C2([H])[H])c1[H]

>  <smiles>  (43) 
[H]c1c([H])c(N([H])C(=O)N2C([H])([H])C([H])([H])C([H])([H])C([H])(n3nc(-c4c([H])c([H])c(Oc5c([H])c([H])c(F)c([H])c5F)c([H])c4[H])c(C(=O)N([H])[H])c3N([H])[H])C2([H])[H])c([H])c(N([H])C(=O)C2([H])C([H])(N(C([H])([H])[H])C([H])([H])C([H])([H])Oc3c([H])c([H])c4c(c3[H])C([H])([H])N(C(=O)C([H])(N([H])C(=O)C([H])(N([H])C([H])([H])[H])C([H])([H])[H])C(C([H])([H])[H])(C([H])([H])[H])C([H])([H])[H])C([H])(C(=O)N([H])C3([H])c5c([H])c([H])c([H])c([H])c5C([H])([H])C([H])([H])C3([H])[H])C4([H])[H])C([H])([H])[N+]([H])([H])C2([H])[H])c1[H]

$$$$
43:0:0
     RDKit          3D

104113  0  0  1  0  0  0  0  0999 V2000
  -29.2610  -18.6200   19.8460 N   0  0  0  0  0  0  0  0  0  0  0  0
  -33.3860  -17.8900   20.6980 C   0  0  0  0  0  3  0  0  0  0  0  0
  -32.9600  -19.1120   20.1780 C   0  0  0  0  0  3  0  0  0  0  0  0
  -32.4790  -16.8260   20.7770 C   0  0  0  0  0  3  0  0  0  0  0  0
  -31.6080  -19.2830   19.8430 C   0  0  0  0  0  3  0  0  0  0  0  0
  -31.1310  -16.9120   20.3210 C   0  0  0  0  0  0  0  0  0  0  0  0
  -30.6390  -18.2460   19.9770 C   0  0  0  0  0  0  0  0  0  0  0  0
  -30.9640  -14.4150   20.0410 C   0  0  0  0  0  0  0  0  0  0  0  0
  -30.7980  -11.9990   19.4980 C   0  0  0  0  0  2  0  0  0  0  0  0
  -30.1490  -11.8000   18.1160 C   0  0  0  0  0  2  0  0  0  0  0  0
  -28.6240  -11.6900   18.2670 C   0  0  0  0  0  2  0  0  0  0  0  0
  -28.0280  -12.8130   19.1600 C   0  0  0  0  0  3  0  0  0  0  0  0
  -28.8400  -13.0470   20.4580 C   0  0  0  0  0  2  0  0  0  0  0  0
  -30.2460  -13.2450   20.0880 N   0  0  0  0  0  0  0  0  0  0  0  0
  -32.1440  -14.3630   19.6920 O   0  0  0  0  0  0  0  0  0  0  0  0
  -30.3820  -15.6460   20.2620 N   0  0  0  0  0  0  0  0  0  0  0  0
  -29.3770  -15.6970   20.3240 H   0  0  0  0  0  0  0  0  0  0  0  0
  -25.5200  -13.3240   19.0550 C   0  0  0  0  0  0  0  0  0  0  0  0
  -24.4180  -12.6480   19.4980 C   0  0  0  0  0  0  0  0  0  0  0  0
  -24.9110  -11.4570   20.1090 C   0  0  0  0  0  0  0  0  0  0  0  0
  -26.6160  -12.5720   19.4360 N   0  0  0  0  0  0  0  0  0  0  0  0
  -26.2390  -11.4590   20.1190 N   0  0  0  0  0  0  0  0  0  0  0  0
  -24.1900  -10.2890   20.6300 C   0  0  0  0  0  0  0  0  0  0  0  0
  -24.4860   -9.7410   21.8970 C   0  0  0  0  0  3  0  0  0  0  0  0
  -23.7640   -8.6290   22.3830 C   0  0  0  0  0  3  0  0  0  0  0  0
  -22.7330   -8.0560   21.6020 C   0  0  0  0  0  0  0  0  0  0  0  0
  -22.4590   -8.5890   20.3300 C   0  0  0  0  0  3  0  0  0  0  0  0
  -23.1820   -9.6930   19.8460 C   0  0  0  0  0  3  0  0  0  0  0  0
  -21.9960   -6.9600   21.9820 O   0  0  0  0  0  0  0  0  0  0  0  0
  -21.7310   -6.6940   23.3010 C   0  0  0  0  0  0  0  0  0  0  0  0
  -21.1240   -7.6470   24.1470 C   0  0  0  0  0  3  0  0  0  0  0  0
  -20.8090   -7.3080   25.4780 C   0  0  0  0  0  3  0  0  0  0  0  0
  -21.0910   -6.0160   25.9620 C   0  0  0  0  0  0  0  0  0  0  0  0
  -21.6920   -5.0640   25.1200 C   0  0  0  0  0  3  0  0  0  0  0  0
  -22.0090   -5.4020   23.7920 C   0  0  0  0  0  0  0  0  0  0  0  0
  -22.5690   -4.4740   22.9780 F   0  0  0  0  0  0  0  0  0  0  0  0
  -20.7820   -5.6880   27.2380 F   0  0  0  0  0  0  0  0  0  0  0  0
  -22.9840  -13.0310   19.2660 C   0  0  0  0  0  0  0  0  0  0  0  0
  -22.1060  -12.7110   20.2080 N   0  0  0  0  0  0  0  0  0  0  0  0
  -22.6480  -13.6750   18.2720 O   0  0  0  0  0  0  0  0  0  0  0  0
  -22.3860  -12.1960   21.0310 H   0  0  0  0  0  0  0  0  0  0  0  0
  -21.1360  -12.9730   20.1020 H   0  0  0  0  0  0  0  0  0  0  0  0
  -25.6810  -14.4950   18.3300 N   0  0  0  0  0  0  0  0  0  0  0  0
  -24.8960  -14.9290   17.8560 H   0  0  0  0  0  0  0  0  0  0  0  0
  -26.5750  -14.7980   17.9700 H   0  0  0  0  0  0  0  0  0  0  0  0
  -25.9020  -17.0520   20.3150 C   0  0  0  0  0  3  0  0  0  0  0  0
  -27.5610  -15.7330   21.5010 C   0  0  0  0  0  3  0  0  0  0  0  0
  -26.9130  -17.9190   19.8470 C   0  0  0  0  0  3  0  0  0  0  0  0
  -28.5660  -16.6160   21.0620 C   0  0  0  0  0  3  0  0  0  0  0  0
  -26.2200  -15.9320   21.1140 C   0  0  0  0  0  0  0  0  0  0  0  0
  -28.2560  -17.7030   20.2120 C   0  0  0  0  0  0  0  0  0  0  0  0
  -25.1550  -14.9840   21.5860 C   0  0  0  0  0  0  0  0  0  0  0  0
  -24.0610  -14.9210   20.8380 N   0  0  0  0  0  0  0  0  0  0  0  0
  -25.3190  -14.2610   22.5680 O   0  0  0  0  0  0  0  0  0  0  0  0
  -23.9910  -15.5010   20.0150 H   0  0  0  0  0  0  0  0  0  0  0  0
  -23.3170  -14.2850   21.0810 H   0  0  0  0  0  0  0  0  0  0  0  0
  -28.8050  -19.9540   20.4120 C   0  0  0  0  0  2  0  0  0  0  0  0
  -28.9020  -21.3000   19.5600 C   0  0  0  0  0  2  0  0  0  0  0  0
  -26.9620  -22.4680   20.5780 C   0  0  0  0  0  1  0  0  0  0  0  0
  -28.4210  -22.5480   20.2900 N   0  0  2  0  0  4  0  0  0  0  0  0
  -28.8890  -22.5170   21.1850 H   0  0  0  0  0  0  0  0  0  0  0  0
  -28.7880  -23.9000   19.6780 C   0  0  0  0  0  3  0  0  0  0  0  0
  -28.3870  -25.1830   20.5250 C   0  0  0  0  0  3  0  0  0  0  0  0
  -28.5150  -26.5180   19.9210 O   0  0  0  0  0  0  0  0  0  0  0  0
  -24.6190  -31.6260   23.1350 C   0  0  0  0  0  0  0  0  0  0  0  0
  -27.3590  -27.2910   19.9340 C   0  0  0  0  0  0  0  0  0  0  0  0
  -23.4290  -30.1760   21.5270 C   0  0  0  0  0  3  0  0  0  0  0  0
  -24.9070  -28.7270   20.0260 C   0  0  0  0  0  0  0  0  0  0  0  0
  -25.9300  -30.6560   21.2390 C   0  0  0  0  0  2  0  0  0  0  0  0
  -26.0650  -29.2920   20.5790 C   0  0  0  0  0  0  0  0  0  0  0  0
  -27.2970  -28.5850   20.5230 C   0  0  0  0  0  3  0  0  0  0  0  0
  -26.1850  -26.7660   19.3560 C   0  0  0  0  0  3  0  0  0  0  0  0
  -24.9660  -27.4690   19.4040 C   0  0  0  0  0  3  0  0  0  0  0  0
  -23.6220  -29.5220   20.1340 C   0  0  0  0  0  2  0  0  0  0  0  0
  -24.6810  -30.8360   22.0250 N   0  0  0  0  0  0  0  0  0  0  0  0
  -23.5450  -31.8370   23.7150 O   0  0  0  0  0  0  0  0  0  0  0  0
  -22.8660  -29.1150   22.5020 C   0  0  0  0  0  0  0  0  0  0  0  0
  -21.5690  -28.7940   22.3600 N   0  0  0  0  0  0  0  0  0  0  0  0
  -23.5950  -28.5820   23.3410 O   0  0  0  0  0  0  0  0  0  0  0  0
  -21.0340  -29.2790   21.6530 H   0  0  0  0  0  0  0  0  0  0  0  0
  -18.3440  -27.2130   22.7980 C   0  0  0  0  0  0  0  0  0  0  0  0
  -20.8410  -27.7930   23.1410 C   0  0  0  0  0  3  0  0  0  0  0  0
  -21.1360  -26.3640   22.6280 C   0  0  0  0  0  2  0  0  0  0  0  0
  -20.1190  -25.8720   21.5930 C   0  0  0  0  0  2  0  0  0  0  0  0
  -18.7070  -25.8710   22.1840 C   0  0  0  0  0  2  0  0  0  0  0  0
  -19.3460  -28.1210   23.2320 C   0  0  0  0  0  0  0  0  0  0  0  0
  -18.9530  -29.3700   23.7620 C   0  0  0  0  0  3  0  0  0  0  0  0
  -17.5910  -29.7130   23.8640 C   0  0  0  0  0  3  0  0  0  0  0  0
  -16.6040  -28.8040   23.4450 C   0  0  0  0  0  3  0  0  0  0  0  0
  -16.9810  -27.5550   22.9190 C   0  0  0  0  0  3  0  0  0  0  0  0
  -25.8890  -32.3250   23.7110 C   0  0  0  0  0  3  0  0  0  0  0  0
  -25.5030  -33.6820   24.1220 N   0  0  0  0  0  0  0  0  0  0  0  0
  -25.7020  -34.7830   23.3850 C   0  0  0  0  0  0  0  0  0  0  0  0
  -26.3030  -34.7670   22.3070 O   0  0  0  0  0  0  0  0  0  0  0  0
  -24.9510  -33.7630   24.9640 H   0  0  0  0  0  0  0  0  0  0  0  0
  -23.8220  -36.4490   23.2320 C   0  0  0  0  0  1  0  0  0  0  0  0
  -25.1490  -36.1140   23.9290 C   0  0  0  0  0  3  0  0  0  0  0  0
  -27.2740  -37.1280   24.6280 C   0  0  0  0  0  1  0  0  0  0  0  0
  -26.0890  -37.2470   23.7830 N   0  0  0  0  0  0  0  0  0  0  0  0
  -25.6280  -38.1260   24.0040 H   0  0  0  0  0  0  0  0  0  0  0  0
  -26.5320  -31.5430   24.9190 C   0  0  1  0  0  0  0  0  0  0  0  0
  -25.5140  -31.1230   26.0060 C   0  0  0  0  0  1  0  0  0  0  0  0
  -27.2420  -30.2620   24.4240 C   0  0  0  0  0  1  0  0  0  0  0  0
  -27.6220  -32.4140   25.5860 C   0  0  0  0  0  1  0  0  0  0  0  0
  1  7  1  0
  1 51  1  0
  1 57  1  0
  2  4  1  0
  3  2  2  0
  5  7  2  0
  5  3  1  0
  6  4  2  0
  7  6  1  0
  8 14  1  0
  8 16  1  0
  9 14  1  0
 10 11  1  0
 10  9  1  0
 12 11  1  0
 12 21  1  0
 12 13  1  0
 14 13  1  0
 15  8  2  0
 16  6  1  0
 16 17  1  0
 18 21  1  0
 18 19  2  0
 19 20  1  0
 20 22  2  0
 20 23  1  0
 21 22  1  0
 23 24  1  0
 24 25  2  0
 26 29  1  0
 26 25  1  0
 27 26  2  0
 28 27  1  0
 28 23  2  0
 29 30  1  0
 30 35  2  0
 30 31  1  0
 31 32  2  0
 32 33  1  0
 33 37  1  0
 34 33  2  0
 35 34  1  0
 36 35  1  0
 38 19  1  0
 38 39  1  0
 39 41  1  0
 40 38  2  0
 42 39  1  0
 43 18  1  0
 44 43  1  0
 45 43  1  0
 46 50  1  0
 48 51  1  0
 48 46  2  0
 49 47  1  0
 50 47  2  0
 50 52  1  0
 51 49  2  0
 52 54  2  0
 53 56  1  0
 53 52  1  0
 55 53  1  0
 58 60  1  0
 58 57  1  0
 60 59  1  0
 60 61  1  1
 62 60  1  0
 62 63  2  0
 64 66  1  0
 64 63  1  0
 65 76  2  0
 66 71  1  0
 67 75  1  0
 67 77  1  0
 68 74  1  0
 68 70  1  0
 69 75  1  0
 70 69  1  0
 71 70  2  0
 72 73  1  0
 72 66  2  0
 73 68  2  0
 74 67  1  0
 75 65  1  0
 77 79  2  0
 78 77  1  0
 80 78  1  0
 81 90  2  0
 81 86  1  0
 82 78  1  0
 82 86  1  0
 83 82  1  0
 84 85  1  0
 84 83  1  0
 85 81  1  0
 86 87  2  0
 87 88  1  0
 89 88  2  0
 90 89  1  0
 91 65  1  0
 91 92  1  0
 91101  1  0
 92 95  1  0
 93 97  1  0
 93 92  1  0
 94 93  2  0
 97 96  1  0
 99 97  1  0
 99100  1  0
 99 98  1  0
101104  1  1
101102  1  0
103101  1  0
M  ISO  4   8 100  16 100  63 101  64 101
M  END
>  <TORSDO>  (44) 
F 24

>  <SCORE>  (44) 
0.138

>  <name>  (44) 
43

>  <ligand_id>  (44) 
43

>  <original_smiles>  (44) 
[H]c1c([H])c([H])c(N(c2c([H])c([H])c(C(=O)N([H])[H])c([H])c2[H])C([H])([H])C([H])([H])[N+]([H])(C([H])([H])[H])C([H])([H])C([H])([H])Oc2c([H])c([H])c3c(c2[H])C([H])([H])N(C(=O)C([H])(N([H])C(=O)C([H])(N([H])C([H])([H])[H])C([H])([H])[H])C(C([H])([H])[H])(C([H])([H])[H])C([H])([H])[H])C([H])(C(=O)N([H])C2([H])c4c([H])c([H])c([H])c([H])c4C([H])([H])C([H])([H])C2([H])[H])C3([H])[H])c(N([H])C(=O)N2C([H])([H])C([H])([H])C([H])([H])C([H])(n3nc(-c4c([H])c([H])c(Oc5c([H])c([H])c(F)c([H])c5F)c([H])c4[H])c(C(=O)N([H])[H])c3N([H])[H])C2([H])[H])c1[H]

>  <smiles>  (44) 
[H]c1c([H])c([H])c(N(c2c([H])c([H])c(C(=O)N([H])[H])c([H])c2[H])C([H])([H])C([H])([H])[N+]([H])(C([H])([H])[H])C([H])([H])C([H])([H])Oc2c([H])c([H])c3c(c2[H])C([H])([H])N(C(=O)C([H])(N([H])C(=O)C([H])(N([H])C([H])([H])[H])C([H])([H])[H])C(C([H])([H])[H])(C([H])([H])[H])C([H])([H])[H])C([H])(C(=O)N([H])C2([H])c4c([H])c([H])c([H])c([H])c4C([H])([H])C([H])([H])C2([H])[H])C3([H])[H])c(N([H])C(=O)N2C([H])([H])C([H])([H])C([H])([H])C([H])(n3nc(-c4c([H])c([H])c(Oc5c([H])c([H])c(F)c([H])c5F)c([H])c4[H])c(C(=O)N([H])[H])c3N([H])[H])C2([H])[H])c1[H]

$$$$
44:0:0
     RDKit          3D

 92100  0  0  1  0  0  0  0  0999 V2000
  -29.3170  -22.7120   19.7450 C   0  0  0  0  0  0  0  0  0  0  0  0
  -31.7180  -22.3210   19.9460 C   0  0  0  0  0  1  0  0  0  0  0  0
  -30.3480  -21.7980   19.9070 N   0  0  0  0  0  0  0  0  0  0  0  0
  -28.1640  -22.3380   19.5100 O   0  0  0  0  0  0  0  0  0  0  0  0
  -31.2310  -18.0860   19.4040 C   0  0  0  0  0  3  0  0  0  0  0  0
  -31.1980  -19.5090   19.2820 C   0  0  0  0  0  3  0  0  0  0  0  0
  -29.3460  -18.1990   20.8860 C   0  0  0  0  0  3  0  0  0  0  0  0
  -29.3080  -19.6230   20.7750 C   0  0  0  0  0  0  0  0  0  0  0  0
  -30.3080  -17.3880   20.2250 C   0  0  0  0  0  0  0  0  0  0  0  0
  -30.2390  -20.3260   19.9550 C   0  0  0  0  0  0  0  0  0  0  0  0
  -28.2750  -20.3730   21.6010 C   0  0  0  0  0  1  0  0  0  0  0  0
  -31.0140  -14.8980   19.9390 C   0  0  0  0  0  0  0  0  0  0  0  0
  -30.7690  -12.6340   18.9360 C   0  0  0  0  0  2  0  0  0  0  0  0
  -29.7570  -12.7240   17.7720 C   0  0  0  0  0  2  0  0  0  0  0  0
  -28.3120  -12.5650   18.2840 C   0  0  0  0  0  2  0  0  0  0  0  0
  -28.0140  -13.4540   19.5220 C   0  0  0  0  0  3  0  0  0  0  0  0
  -29.1330  -13.3280   20.5810 C   0  0  0  0  0  2  0  0  0  0  0  0
  -30.4090  -13.6670   19.9280 N   0  0  0  0  0  0  0  0  0  0  0  0
  -32.1360  -15.0630   19.4510 O   0  0  0  0  0  0  0  0  0  0  0  0
  -30.2470  -15.9360   20.3990 N   0  0  0  0  0  0  0  0  0  0  0  0
  -29.4160  -15.6160   20.8730 H   0  0  0  0  0  0  0  0  0  0  0  0
  -25.6870  -14.0610   20.4290 C   0  0  0  0  0  0  0  0  0  0  0  0
  -24.6340  -13.2880   20.8370 C   0  0  0  0  0  0  0  0  0  0  0  0
  -25.0670  -11.9320   20.7170 C   0  0  0  0  0  0  0  0  0  0  0  0
  -26.6970  -13.1740   20.0850 N   0  0  0  0  0  0  0  0  0  0  0  0
  -26.3330  -11.8870   20.3180 N   0  0  0  0  0  0  0  0  0  0  0  0
  -24.3310  -10.6750   20.9010 C   0  0  0  0  0  0  0  0  0  0  0  0
  -24.7160   -9.7310   21.8800 C   0  0  0  0  0  3  0  0  0  0  0  0
  -23.9810   -8.5380   22.0510 C   0  0  0  0  0  3  0  0  0  0  0  0
  -22.8500   -8.2800   21.2420 C   0  0  0  0  0  0  0  0  0  0  0  0
  -22.4850   -9.2100   20.2540 C   0  0  0  0  0  3  0  0  0  0  0  0
  -23.2200  -10.3950   20.0820 C   0  0  0  0  0  3  0  0  0  0  0  0
  -22.0910   -7.1360   21.3190 O   0  0  0  0  0  0  0  0  0  0  0  0
  -21.8470   -6.5150   22.5170 C   0  0  0  0  0  0  0  0  0  0  0  0
  -21.1750   -7.1690   23.5720 C   0  0  0  0  0  3  0  0  0  0  0  0
  -20.8820   -6.4690   24.7600 C   0  0  0  0  0  3  0  0  0  0  0  0
  -21.2520   -5.1180   24.8920 C   0  0  0  0  0  0  0  0  0  0  0  0
  -21.9160   -4.4630   23.8390 C   0  0  0  0  0  3  0  0  0  0  0  0
  -22.2090   -5.1600   22.6540 C   0  0  0  0  0  0  0  0  0  0  0  0
  -22.8310   -4.5190   21.6350 F   0  0  0  0  0  0  0  0  0  0  0  0
  -20.9640   -4.4430   26.0290 F   0  0  0  0  0  0  0  0  0  0  0  0
  -23.2680  -13.7750   21.2260 C   0  0  0  0  0  0  0  0  0  0  0  0
  -22.5940  -13.0590   22.1190 N   0  0  0  0  0  0  0  0  0  0  0  0
  -22.8100  -14.8240   20.7770 O   0  0  0  0  0  0  0  0  0  0  0  0
  -22.9780  -12.2090   22.5040 H   0  0  0  0  0  0  0  0  0  0  0  0
  -21.6800  -13.3660   22.4230 H   0  0  0  0  0  0  0  0  0  0  0  0
  -25.8650  -15.4350   20.3020 N   0  0  0  0  0  0  0  0  0  0  0  0
  -25.1100  -16.0920   20.4690 H   0  0  0  0  0  0  0  0  0  0  0  0
  -26.6990  -15.8760   19.9340 H   0  0  0  0  0  0  0  0  0  0  0  0
  -29.5720  -24.2760   19.8580 C   0  0  0  0  0  3  0  0  0  0  0  0
  -28.3930  -25.2690   19.4870 C   0  0  0  0  0  3  0  0  0  0  0  0
  -28.5220  -26.6970   19.8510 O   0  0  0  0  0  0  0  0  0  0  0  0
  -24.6500  -31.7700   23.2200 C   0  0  0  0  0  0  0  0  0  0  0  0
  -27.3660  -27.4940   19.8620 C   0  0  0  0  0  0  0  0  0  0  0  0
  -23.4690  -30.4330   21.5130 C   0  0  0  0  0  3  0  0  0  0  0  0
  -24.9460  -29.0170   19.9800 C   0  0  0  0  0  0  0  0  0  0  0  0
  -25.9940  -30.8380   21.3230 C   0  0  0  0  0  2  0  0  0  0  0  0
  -26.1040  -29.5040   20.5990 C   0  0  0  0  0  0  0  0  0  0  0  0
  -27.3130  -28.7510   20.5380 C   0  0  0  0  0  3  0  0  0  0  0  0
  -26.1820  -27.0630   19.2140 C   0  0  0  0  0  3  0  0  0  0  0  0
  -24.9880  -27.8010   19.2800 C   0  0  0  0  0  3  0  0  0  0  0  0
  -23.6830  -29.8440   20.0940 C   0  0  0  0  0  2  0  0  0  0  0  0
  -24.7230  -31.0300   22.0750 N   0  0  0  0  0  0  0  0  0  0  0  0
  -23.5650  -31.9810   23.7800 O   0  0  0  0  0  0  0  0  0  0  0  0
  -22.8520  -29.3400   22.4200 C   0  0  0  0  0  0  0  0  0  0  0  0
  -21.5390  -29.1010   22.2680 N   0  0  0  0  0  0  0  0  0  0  0  0
  -23.5540  -28.7130   23.2170 O   0  0  0  0  0  0  0  0  0  0  0  0
  -21.0300  -29.6630   21.6000 H   0  0  0  0  0  0  0  0  0  0  0  0
  -18.2230  -27.7120   22.6630 C   0  0  0  0  0  0  0  0  0  0  0  0
  -20.7590  -28.0900   22.9840 C   0  0  0  0  0  3  0  0  0  0  0  0
  -20.9440  -26.6910   22.3520 C   0  0  0  0  0  2  0  0  0  0  0  0
  -19.8750  -26.3530   21.3080 C   0  0  0  0  0  2  0  0  0  0  0  0
  -18.4790  -26.4030   21.9350 C   0  0  0  0  0  2  0  0  0  0  0  0
  -19.2940  -28.5120   23.1420 C   0  0  0  0  0  0  0  0  0  0  0  0
  -19.0020  -29.7370   23.7780 C   0  0  0  0  0  3  0  0  0  0  0  0
  -17.6710  -30.1630   23.9440 C   0  0  0  0  0  3  0  0  0  0  0  0
  -16.6140  -29.3600   23.4820 C   0  0  0  0  0  3  0  0  0  0  0  0
  -16.8900  -28.1360   22.8480 C   0  0  0  0  0  3  0  0  0  0  0  0
  -25.9200  -32.4060   23.8640 C   0  0  0  0  0  3  0  0  0  0  0  0
  -26.4280  -31.6250   25.1360 C   0  0  1  0  0  0  0  0  0  0  0  0
  -25.3260  -31.3580   26.1870 C   0  0  0  0  0  1  0  0  0  0  0  0
  -27.0350  -30.2620   24.7310 C   0  0  0  0  0  1  0  0  0  0  0  0
  -27.5590  -32.4250   25.8260 C   0  0  0  0  0  1  0  0  0  0  0  0
  -25.5950  -33.7960   24.2090 N   0  0  0  0  0  0  0  0  0  0  0  0
  -25.8940  -34.8600   23.4520 C   0  0  0  0  0  0  0  0  0  0  0  0
  -26.5440  -34.7760   22.4060 O   0  0  0  0  0  0  0  0  0  0  0  0
  -25.0200  -33.9360   25.0280 H   0  0  0  0  0  0  0  0  0  0  0  0
  -24.1120  -36.6110   23.1710 C   0  0  0  0  0  1  0  0  0  0  0  0
  -25.3940  -36.2380   23.9320 C   0  0  0  0  0  3  0  0  0  0  0  0
  -27.5320  -37.1770   24.6880 C   0  0  0  0  0  1  0  0  0  0  0  0
  -26.3970  -37.3130   23.7790 N   0  0  0  0  0  0  0  0  0  0  0  0
  -25.9730  -38.2240   23.9360 H   0  0  0  0  0  0  0  0  0  0  0  0
  1 50  1  0
  1  3  1  0
  3  2  1  0
  3 10  1  0
  4  1  2  0
  5  9  1  0
  6  5  2  0
  6 10  1  0
  8  7  1  0
  8 11  1  0
  9 20  1  0
  9  7  2  0
 10  8  2  0
 12 20  1  0
 13 18  1  0
 14 15  1  0
 14 13  1  0
 16 15  1  0
 16 25  1  0
 16 17  1  0
 18 12  1  0
 18 17  1  0
 19 12  2  0
 20 21  1  0
 22 23  2  0
 23 42  1  0
 24 23  1  0
 24 27  1  0
 25 26  1  0
 25 22  1  0
 26 24  2  0
 27 28  1  0
 28 29  2  0
 30 33  1  0
 30 29  1  0
 31 30  2  0
 32 31  1  0
 32 27  2  0
 33 34  1  0
 34 39  2  0
 34 35  1  0
 35 36  2  0
 36 37  1  0
 37 41  1  0
 38 37  2  0
 39 38  1  0
 40 39  1  0
 42 43  1  0
 43 46  1  0
 43 45  1  0
 44 42  2  0
 47 22  1  0
 47 48  1  0
 49 47  1  0
 51 52  1  0
 51 50  2  0
 52 54  1  0
 53 64  2  0
 54 59  1  0
 55 63  1  0
 55 65  1  0
 56 62  1  0
 56 58  1  0
 57 63  1  0
 58 57  1  0
 59 58  2  0
 60 61  1  0
 60 54  2  0
 61 56  2  0
 62 55  1  0
 63 53  1  0
 65 67  2  0
 66 65  1  0
 68 66  1  0
 69 78  2  0
 69 74  1  0
 70 66  1  0
 70 74  1  0
 71 70  1  0
 72 73  1  0
 72 71  1  0
 73 69  1  0
 74 75  2  0
 75 76  1  0
 77 76  2  0
 78 77  1  0
 79 53  1  0
 79 84  1  0
 79 80  1  0
 80 83  1  1
 80 81  1  0
 82 80  1  0
 84 87  1  0
 85 89  1  0
 85 84  1  0
 86 85  2  0
 89 88  1  0
 91 89  1  0
 91 92  1  0
 91 90  1  0
M  ISO  4  12 100  20 100  51 101  52 101
M  END
>  <TORSDO>  (45) 
F 19

>  <SCORE>  (45) 
-12.455

>  <name>  (45) 
44

>  <ligand_id>  (45) 
44

>  <original_smiles>  (45) 
[H]c1c([H])c([H])c2c(c1[H])C([H])([H])C([H])([H])C([H])([H])C2([H])N([H])C(=O)C1([H])N(C(=O)C([H])(N([H])C(=O)C([H])(N([H])C([H])([H])[H])C([H])([H])[H])C(C([H])([H])[H])(C([H])([H])[H])C([H])([H])[H])C([H])([H])c2c([H])c(OC([H])([H])C([H])([H])C(=O)N(c3c([H])c([H])c(N([H])C(=O)N4C([H])([H])C([H])([H])C([H])([H])C([H])(n5nc(-c6c([H])c([H])c(Oc7c([H])c([H])c(F)c([H])c7F)c([H])c6[H])c(C(=O)N([H])[H])c5N([H])[H])C4([H])[H])c([H])c3C([H])([H])[H])C([H])([H])[H])c([H])c([H])c2C1([H])[H]

>  <smiles>  (45) 
[H]c1c([H])c([H])c2c(c1[H])C([H])([H])C([H])([H])C([H])([H])C2([H])N([H])C(=O)C1([H])N(C(=O)C([H])(N([H])C(=O)C([H])(N([H])C([H])([H])[H])C([H])([H])[H])C(C([H])([H])[H])(C([H])([H])[H])C([H])([H])[H])C([H])([H])c2c([H])c(OC([H])([H])C([H])([H])C(=O)N(c3c([H])c([H])c(N([H])C(=O)N4C([H])([H])C([H])([H])C([H])([H])C([H])(n5nc(-c6c([H])c([H])c(Oc7c([H])c([H])c(F)c([H])c7F)c([H])c6[H])c(C(=O)N([H])[H])c5N([H])[H])C4([H])[H])c([H])c3C([H])([H])[H])C([H])([H])[H])c([H])c([H])c2C1([H])[H]

$$$$
45:0:0
     RDKit          3D

 98107  0  0  1  0  0  0  0  0999 V2000
  -30.7770  -23.8620   20.8920 C   0  0  0  0  0  2  0  0  0  0  0  0
  -30.8900  -25.2830   20.3100 C   0  0  0  0  0  2  0  0  0  0  0  0
  -30.2080  -23.0070   19.7560 C   0  0  0  0  0  3  0  0  0  0  0  0
  -30.0620  -25.2870   18.9930 C   0  0  1  0  0  0  0  0  0  0  0  0
  -31.0630  -25.3840   17.8030 C   0  0  0  0  0  1  0  0  0  0  0  0
  -28.8740  -23.4630   17.6760 C   0  0  0  0  0  1  0  0  0  0  0  0
  -29.3580  -23.9610   18.9940 N   0  0  1  0  0  4  0  0  0  0  0  0
  -28.5350  -24.0590   19.5770 H   0  0  0  0  0  0  0  0  0  0  0  0
  -29.4390  -21.7410   20.2180 C   0  0  0  0  0  0  0  0  0  0  0  0
  -30.1320  -20.5990   20.4320 N   0  0  0  0  0  0  0  0  0  0  0  0
  -28.2150  -21.7990   20.3660 O   0  0  0  0  0  0  0  0  0  0  0  0
  -31.1220  -20.7030   20.6100 H   0  0  0  0  0  0  0  0  0  0  0  0
  -28.7840  -17.9170   18.1980 C   0  0  0  0  0  3  0  0  0  0  0  0
  -29.1260  -19.1750   18.7140 C   0  0  0  0  0  3  0  0  0  0  0  0
  -29.0330  -16.7550   18.9500 C   0  0  0  0  0  3  0  0  0  0  0  0
  -29.9580  -18.1170   20.7600 C   0  0  0  0  0  3  0  0  0  0  0  0
  -29.7080  -19.3000   20.0000 C   0  0  0  0  0  0  0  0  0  0  0  0
  -29.6300  -16.8320   20.2320 C   0  0  0  0  0  0  0  0  0  0  0  0
  -30.5610  -14.5840   20.4950 C   0  0  0  0  0  0  0  0  0  0  0  0
  -30.3360  -12.4130   19.3580 C   0  0  0  0  0  2  0  0  0  0  0  0
  -29.3980  -12.6090   18.1450 C   0  0  0  0  0  2  0  0  0  0  0  0
  -27.9230  -12.4370   18.5590 C   0  0  0  0  0  2  0  0  0  0  0  0
  -27.5550  -13.2430   19.8330 C   0  0  0  0  0  3  0  0  0  0  0  0
  -28.6080  -13.0400   20.9460 C   0  0  0  0  0  2  0  0  0  0  0  0
  -29.9300  -13.3790   20.3940 N   0  0  0  0  0  0  0  0  0  0  0  0
  -31.6920  -14.7820   20.0440 O   0  0  0  0  0  0  0  0  0  0  0  0
  -29.8180  -15.6120   20.9660 N   0  0  0  0  0  0  0  0  0  0  0  0
  -29.0140  -15.3210   21.5060 H   0  0  0  0  0  0  0  0  0  0  0  0
  -25.1340  -13.8060   20.5050 C   0  0  0  0  0  0  0  0  0  0  0  0
  -24.0780  -13.0170   20.8690 C   0  0  0  0  0  0  0  0  0  0  0  0
  -24.5670  -11.6740   20.8570 C   0  0  0  0  0  0  0  0  0  0  0  0
  -26.2000  -12.9440   20.2940 N   0  0  0  0  0  0  0  0  0  0  0  0
  -25.8600  -11.6580   20.5610 N   0  0  0  0  0  0  0  0  0  0  0  0
  -23.8640  -10.4000   21.0510 C   0  0  0  0  0  0  0  0  0  0  0  0
  -24.3120   -9.4420   21.9890 C   0  0  0  0  0  3  0  0  0  0  0  0
  -23.6070   -8.2320   22.1720 C   0  0  0  0  0  3  0  0  0  0  0  0
  -22.4400   -7.9710   21.4140 C   0  0  0  0  0  0  0  0  0  0  0  0
  -22.0110   -8.9150   20.4650 C   0  0  0  0  0  3  0  0  0  0  0  0
  -22.7170  -10.1150   20.2810 C   0  0  0  0  0  3  0  0  0  0  0  0
  -21.7110   -6.8090   21.5010 O   0  0  0  0  0  0  0  0  0  0  0  0
  -21.6830   -6.0640   22.6520 C   0  0  0  0  0  0  0  0  0  0  0  0
  -21.2490   -6.6060   23.8810 C   0  0  0  0  0  3  0  0  0  0  0  0
  -21.1690   -5.7840   25.0240 C   0  0  0  0  0  3  0  0  0  0  0  0
  -21.5130   -4.4220   24.9400 C   0  0  0  0  0  0  0  0  0  0  0  0
  -21.9420   -3.8790   23.7170 C   0  0  0  0  0  3  0  0  0  0  0  0
  -22.0240   -4.6970   22.5750 C   0  0  0  0  0  0  0  0  0  0  0  0
  -22.4150   -4.1640   21.3940 F   0  0  0  0  0  0  0  0  0  0  0  0
  -21.4280   -3.6310   26.0360 F   0  0  0  0  0  0  0  0  0  0  0  0
  -22.6680  -13.4700   21.1250 C   0  0  0  0  0  0  0  0  0  0  0  0
  -21.9420  -12.7660   21.9900 N   0  0  0  0  0  0  0  0  0  0  0  0
  -22.2160  -14.4840   20.5960 O   0  0  0  0  0  0  0  0  0  0  0  0
  -22.3210  -11.9530   22.4510 H   0  0  0  0  0  0  0  0  0  0  0  0
  -20.9970  -13.0540   22.1980 H   0  0  0  0  0  0  0  0  0  0  0  0
  -25.2740  -15.1810   20.3220 N   0  0  0  0  0  0  0  0  0  0  0  0
  -24.4980  -15.8240   20.4290 H   0  0  0  0  0  0  0  0  0  0  0  0
  -26.1190  -15.6340   19.9970 H   0  0  0  0  0  0  0  0  0  0  0  0
  -29.0560  -26.4840   18.8950 C   0  0  0  0  0  2  0  0  0  0  0  0
  -28.4320  -26.7690   20.1490 O   0  0  0  0  0  0  0  0  0  0  0  0
  -24.6150  -31.9170   23.2590 C   0  0  0  0  0  0  0  0  0  0  0  0
  -27.2720  -27.5110   20.1190 C   0  0  0  0  0  0  0  0  0  0  0  0
  -23.4050  -30.5100   21.6230 C   0  0  0  0  0  3  0  0  0  0  0  0
  -24.8580  -28.9830   20.1780 C   0  0  0  0  0  0  0  0  0  0  0  0
  -25.9260  -30.8780   21.4140 C   0  0  0  0  0  2  0  0  0  0  0  0
  -26.0150  -29.5110   20.7650 C   0  0  0  0  0  0  0  0  0  0  0  0
  -27.2200  -28.7740   20.7490 C   0  0  0  0  0  3  0  0  0  0  0  0
  -26.1000  -26.9880   19.5330 C   0  0  0  0  0  3  0  0  0  0  0  0
  -24.8930  -27.7180   19.5640 C   0  0  0  0  0  3  0  0  0  0  0  0
  -23.6050  -29.8320   20.2410 C   0  0  0  0  0  2  0  0  0  0  0  0
  -24.6670  -31.1160   22.1570 N   0  0  0  0  0  0  0  0  0  0  0  0
  -23.5370  -32.1860   23.8050 O   0  0  0  0  0  0  0  0  0  0  0  0
  -22.7630  -29.4860   22.5860 C   0  0  0  0  0  0  0  0  0  0  0  0
  -21.4410  -29.2910   22.4560 N   0  0  0  0  0  0  0  0  0  0  0  0
  -23.4500  -28.8710   23.4050 O   0  0  0  0  0  0  0  0  0  0  0  0
  -20.9490  -29.8370   21.7620 H   0  0  0  0  0  0  0  0  0  0  0  0
  -18.0790  -28.0550   22.9300 C   0  0  0  0  0  0  0  0  0  0  0  0
  -20.6300  -28.3490   23.2260 C   0  0  0  0  0  3  0  0  0  0  0  0
  -20.7580  -26.9150   22.6650 C   0  0  0  0  0  2  0  0  0  0  0  0
  -19.6720  -26.5700   21.6420 C   0  0  0  0  0  2  0  0  0  0  0  0
  -18.2800  -26.7020   22.2690 C   0  0  0  0  0  2  0  0  0  0  0  0
  -19.1820  -28.8360   23.3650 C   0  0  0  0  0  0  0  0  0  0  0  0
  -18.9410  -30.1010   23.9420 C   0  0  0  0  0  3  0  0  0  0  0  0
  -17.6280  -30.5860   24.0910 C   0  0  0  0  0  3  0  0  0  0  0  0
  -16.5380  -29.8020   23.6720 C   0  0  0  0  0  3  0  0  0  0  0  0
  -16.7640  -28.5380   23.0980 C   0  0  0  0  0  3  0  0  0  0  0  0
  -25.9050  -32.5490   23.8710 C   0  0  0  0  0  3  0  0  0  0  0  0
  -26.4290  -31.7860   25.1500 C   0  0  1  0  0  0  0  0  0  0  0  0
  -25.3410  -31.5590   26.2250 C   0  0  0  0  0  1  0  0  0  0  0  0
  -27.0060  -30.4050   24.7640 C   0  0  0  0  0  1  0  0  0  0  0  0
  -27.5880  -32.5830   25.7960 C   0  0  0  0  0  1  0  0  0  0  0  0
  -25.6020  -33.9500   24.1900 N   0  0  0  0  0  0  0  0  0  0  0  0
  -25.9420  -34.9940   23.4210 C   0  0  0  0  0  0  0  0  0  0  0  0
  -26.6170  -34.8800   22.3950 O   0  0  0  0  0  0  0  0  0  0  0  0
  -25.0050  -34.1170   24.9870 H   0  0  0  0  0  0  0  0  0  0  0  0
  -24.2280  -36.7930   23.0380 C   0  0  0  0  0  1  0  0  0  0  0  0
  -25.4570  -36.3880   23.8650 C   0  0  0  0  0  3  0  0  0  0  0  0
  -27.5890  -37.2640   24.7100 C   0  0  0  0  0  1  0  0  0  0  0  0
  -26.4960  -37.4340   23.7560 N   0  0  0  0  0  0  0  0  0  0  0  0
  -26.0940  -38.3580   23.8970 H   0  0  0  0  0  0  0  0  0  0  0  0
  2  1  1  0
  3  9  1  0
  3  1  1  0
  4  5  1  6
  4  7  1  0
  4  2  1  0
  6  7  1  0
  7  8  1  1
  7  3  1  0
  9 11  2  0
  9 10  1  0
 10 12  1  0
 13 14  2  0
 13 15  1  0
 14 17  1  0
 15 18  2  0
 17 10  1  0
 17 16  2  0
 18 16  1  0
 18 27  1  0
 19 27  1  0
 20 25  1  0
 21 22  1  0
 21 20  1  0
 23 22  1  0
 23 32  1  0
 23 24  1  0
 25 19  1  0
 25 24  1  0
 26 19  2  0
 27 28  1  0
 29 30  2  0
 30 49  1  0
 31 30  1  0
 31 34  1  0
 32 29  1  0
 32 33  1  0
 33 31  2  0
 34 35  1  0
 35 36  2  0
 37 40  1  0
 37 36  1  0
 38 37  2  0
 39 38  1  0
 39 34  2  0
 40 41  1  0
 41 42  1  0
 42 43  2  0
 44 43  1  0
 44 48  1  0
 45 44  2  0
 46 41  2  0
 46 45  1  0
 47 46  1  0
 49 50  1  0
 50 53  1  0
 50 52  1  0
 51 49  2  0
 54 55  1  0
 54 29  1  0
 56 54  1  0
 57  4  1  0
 57 58  1  0
 59 70  2  0
 60 58  1  0
 60 65  1  0
 61 69  1  0
 61 71  1  0
 62 68  1  0
 62 64  1  0
 63 69  1  0
 64 63  1  0
 65 64  2  0
 66 67  1  0
 66 60  2  0
 67 62  2  0
 68 61  1  0
 69 59  1  0
 71 73  2  0
 72 71  1  0
 74 72  1  0
 75 84  2  0
 75 80  1  0
 76 72  1  0
 76 80  1  0
 77 76  1  0
 78 79  1  0
 78 77  1  0
 79 75  1  0
 80 81  2  0
 81 82  1  0
 83 82  2  0
 84 83  1  0
 85 59  1  0
 85 90  1  0
 85 86  1  0
 86 89  1  1
 86 87  1  0
 88 86  1  0
 90 93  1  0
 91 95  1  0
 91 90  1  0
 92 91  2  0
 95 94  1  0
 97 95  1  0
 97 98  1  0
 97 96  1  0
M  ISO  4  19 100  27 100  57 101  58 101
M  END
>  <TORSDO>  (46) 
F 19

>  <SCORE>  (46) 
-14.496

>  <name>  (46) 
45

>  <ligand_id>  (46) 
45

>  <original_smiles>  (46) 
[H]c1c([H])c(N([H])C(=O)N2C([H])([H])C([H])([H])C([H])([H])C([H])(n3nc(-c4c([H])c([H])c(Oc5c([H])c([H])c(F)c([H])c5F)c([H])c4[H])c(C(=O)N([H])[H])c3N([H])[H])C2([H])[H])c([H])c(N([H])C(=O)C2([H])C([H])([H])C([H])([H])C(C([H])([H])[H])(C([H])([H])Oc3c([H])c([H])c4c(c3[H])C([H])([H])N(C(=O)C([H])(N([H])C(=O)C([H])(N([H])C([H])([H])[H])C([H])([H])[H])C(C([H])([H])[H])(C([H])([H])[H])C([H])([H])[H])C([H])(C(=O)N([H])C3([H])c5c([H])c([H])c([H])c([H])c5C([H])([H])C([H])([H])C3([H])[H])C4([H])[H])[N+]2([H])C([H])([H])[H])c1[H]

>  <smiles>  (46) 
[H]c1c([H])c(N([H])C(=O)N2C([H])([H])C([H])([H])C([H])([H])C([H])(n3nc(-c4c([H])c([H])c(Oc5c([H])c([H])c(F)c([H])c5F)c([H])c4[H])c(C(=O)N([H])[H])c3N([H])[H])C2([H])[H])c([H])c(N([H])C(=O)C2([H])C([H])([H])C([H])([H])C(C([H])([H])[H])(C([H])([H])Oc3c([H])c([H])c4c(c3[H])C([H])([H])N(C(=O)C([H])(N([H])C(=O)C([H])(N([H])C([H])([H])[H])C([H])([H])[H])C(C([H])([H])[H])(C([H])([H])[H])C([H])([H])[H])C([H])(C(=O)N([H])C3([H])c5c([H])c([H])c([H])c([H])c5C([H])([H])C([H])([H])C3([H])[H])C4([H])[H])[N+]2([H])C([H])([H])[H])c1[H]

$$$$
46:0:0
     RDKit          3D

 91 99  0  0  1  0  0  0  0  0999 V2000
  -30.4760  -22.5740   18.8760 C   0  0  0  0  0  1  0  0  0  0  0  0
  -29.3150  -22.1530   19.6640 N   0  0  0  0  0  0  0  0  0  0  0  0
  -29.9910  -18.5540   21.2030 C   0  0  0  0  0  3  0  0  0  0  0  0
  -29.8060  -19.9960   21.0830 C   0  0  0  0  0  3  0  0  0  0  0  0
  -29.4220  -18.2740   18.9400 C   0  0  0  0  0  3  0  0  0  0  0  0
  -29.2150  -19.7110   18.8140 C   0  0  0  0  0  0  0  0  0  0  0  0
  -29.8280  -17.6010   20.1340 C   0  0  0  0  0  0  0  0  0  0  0  0
  -29.4070  -20.6740   19.8820 C   0  0  0  0  0  0  0  0  0  0  0  0
  -28.7370  -20.1980   17.4530 C   0  0  0  0  0  1  0  0  0  0  0  0
  -30.5700  -14.9620   19.9090 C   0  0  0  0  0  0  0  0  0  0  0  0
  -30.3750  -12.6410   18.9190 C   0  0  0  0  0  2  0  0  0  0  0  0
  -29.3480  -12.6510   17.7620 C   0  0  0  0  0  2  0  0  0  0  0  0
  -27.9200  -12.4400   18.2980 C   0  0  0  0  0  2  0  0  0  0  0  0
  -27.6140  -13.3320   19.5300 C   0  0  0  0  0  3  0  0  0  0  0  0
  -28.7500  -13.2830   20.5760 C   0  0  0  0  0  2  0  0  0  0  0  0
  -29.9870  -13.6980   19.8970 N   0  0  0  0  0  0  0  0  0  0  0  0
  -31.7120  -15.0740   19.4510 O   0  0  0  0  0  0  0  0  0  0  0  0
  -29.8110  -16.0830   20.3320 N   0  0  0  0  0  0  0  0  0  0  0  0
  -28.9890  -15.7750   20.8300 H   0  0  0  0  0  0  0  0  0  0  0  0
  -25.3000  -13.9050   20.4680 C   0  0  0  0  0  0  0  0  0  0  0  0
  -24.2570  -13.1250   20.8900 C   0  0  0  0  0  0  0  0  0  0  0  0
  -24.7020  -11.7720   20.7700 C   0  0  0  0  0  0  0  0  0  0  0  0
  -26.3110  -13.0280   20.1150 N   0  0  0  0  0  0  0  0  0  0  0  0
  -25.9650  -11.7380   20.3610 N   0  0  0  0  0  0  0  0  0  0  0  0
  -23.9770  -10.5100   20.9660 C   0  0  0  0  0  0  0  0  0  0  0  0
  -24.4250   -9.5360   21.8850 C   0  0  0  0  0  3  0  0  0  0  0  0
  -23.6980   -8.3400   22.0700 C   0  0  0  0  0  3  0  0  0  0  0  0
  -22.5100   -8.1100   21.3350 C   0  0  0  0  0  0  0  0  0  0  0  0
  -22.0820   -9.0720   20.4050 C   0  0  0  0  0  3  0  0  0  0  0  0
  -22.8090  -10.2600   20.2190 C   0  0  0  0  0  3  0  0  0  0  0  0
  -21.7550   -6.9670   21.4310 O   0  0  0  0  0  0  0  0  0  0  0  0
  -21.6780   -6.2490   22.5970 C   0  0  0  0  0  0  0  0  0  0  0  0
  -21.1680   -6.8140   23.7870 C   0  0  0  0  0  3  0  0  0  0  0  0
  -21.0410   -6.0210   24.9450 C   0  0  0  0  0  3  0  0  0  0  0  0
  -21.4140   -4.6640   24.9140 C   0  0  0  0  0  0  0  0  0  0  0  0
  -21.9160   -4.0980   23.7290 C   0  0  0  0  0  3  0  0  0  0  0  0
  -22.0440   -4.8890   22.5730 C   0  0  0  0  0  0  0  0  0  0  0  0
  -22.5090   -4.3320   21.4270 F   0  0  0  0  0  0  0  0  0  0  0  0
  -21.2840   -3.9000   26.0230 F   0  0  0  0  0  0  0  0  0  0  0  0
  -22.8910  -13.6050   21.2840 C   0  0  0  0  0  0  0  0  0  0  0  0
  -22.2180  -12.8800   22.1700 N   0  0  0  0  0  0  0  0  0  0  0  0
  -22.4330  -14.6570   20.8420 O   0  0  0  0  0  0  0  0  0  0  0  0
  -22.6050  -12.0290   22.5520 H   0  0  0  0  0  0  0  0  0  0  0  0
  -21.3040  -13.1820   22.4730 H   0  0  0  0  0  0  0  0  0  0  0  0
  -25.4630  -15.2810   20.3310 N   0  0  0  0  0  0  0  0  0  0  0  0
  -24.7060  -15.9290   20.5210 H   0  0  0  0  0  0  0  0  0  0  0  0
  -26.2730  -15.7300   19.9240 H   0  0  0  0  0  0  0  0  0  0  0  0
  -27.5160  -22.9290   21.2720 C   0  0  0  0  0  1  0  0  0  0  0  0
  -28.7530  -23.3610   20.4760 C   0  0  0  0  0  3  0  0  0  0  0  0
  -28.4100  -24.8250   19.7020 C   0  0  0  0  0  2  0  0  0  0  0  0
  -28.3190  -26.2530   20.3010 O   0  0  0  0  0  0  0  0  0  0  0  0
  -24.6220  -31.8820   23.2000 C   0  0  0  0  0  0  0  0  0  0  0  0
  -27.2260  -27.1820   20.1860 C   0  0  0  0  0  0  0  0  0  0  0  0
  -23.4270  -30.4740   21.5670 C   0  0  0  0  0  3  0  0  0  0  0  0
  -24.8790  -28.9020   20.1450 C   0  0  0  0  0  0  0  0  0  0  0  0
  -25.9760  -30.7550   21.3970 C   0  0  0  0  0  2  0  0  0  0  0  0
  -26.0540  -29.3610   20.7540 C   0  0  0  0  0  0  0  0  0  0  0  0
  -27.2220  -28.5150   20.7600 C   0  0  0  0  0  3  0  0  0  0  0  0
  -26.0210  -26.8170   19.5410 C   0  0  0  0  0  3  0  0  0  0  0  0
  -24.8760  -27.6440   19.5250 C   0  0  0  0  0  3  0  0  0  0  0  0
  -23.6480  -29.7930   20.1890 C   0  0  0  0  0  2  0  0  0  0  0  0
  -24.6950  -31.0580   22.1100 N   0  0  0  0  0  0  0  0  0  0  0  0
  -23.5350  -32.1640   23.7280 O   0  0  0  0  0  0  0  0  0  0  0  0
  -22.7540  -29.4670   22.5330 C   0  0  0  0  0  0  0  0  0  0  0  0
  -21.4260  -29.2900   22.4050 N   0  0  0  0  0  0  0  0  0  0  0  0
  -23.4270  -28.8490   23.3630 O   0  0  0  0  0  0  0  0  0  0  0  0
  -20.9410  -29.8420   21.7130 H   0  0  0  0  0  0  0  0  0  0  0  0
  -18.0470  -28.0860   22.9120 C   0  0  0  0  0  0  0  0  0  0  0  0
  -20.6060  -28.3550   23.1790 C   0  0  0  0  0  3  0  0  0  0  0  0
  -20.7100  -26.9190   22.6110 C   0  0  0  0  0  2  0  0  0  0  0  0
  -19.6090  -26.5900   21.5980 C   0  0  0  0  0  2  0  0  0  0  0  0
  -18.2270  -26.7340   22.2410 C   0  0  0  0  0  2  0  0  0  0  0  0
  -19.1650  -28.8520   23.3390 C   0  0  0  0  0  0  0  0  0  0  0  0
  -18.9400  -30.1160   23.9290 C   0  0  0  0  0  3  0  0  0  0  0  0
  -17.6340  -30.6120   24.0950 C   0  0  0  0  0  3  0  0  0  0  0  0
  -16.5320  -29.8420   23.6830 C   0  0  0  0  0  3  0  0  0  0  0  0
  -16.7390  -28.5810   23.0980 C   0  0  0  0  0  3  0  0  0  0  0  0
  -25.8980  -32.5240   23.8260 C   0  0  0  0  0  3  0  0  0  0  0  0
  -26.4060  -31.7660   25.1150 C   0  0  1  0  0  0  0  0  0  0  0  0
  -25.3050  -31.5380   26.1770 C   0  0  0  0  0  1  0  0  0  0  0  0
  -26.9970  -30.3870   24.7410 C   0  0  0  0  0  1  0  0  0  0  0  0
  -27.5490  -32.5710   25.7780 C   0  0  0  0  0  1  0  0  0  0  0  0
  -25.5840  -33.9250   24.1470 N   0  0  0  0  0  0  0  0  0  0  0  0
  -25.9100  -34.9760   23.3810 C   0  0  0  0  0  0  0  0  0  0  0  0
  -26.5730  -34.8680   22.3480 O   0  0  0  0  0  0  0  0  0  0  0  0
  -24.9960  -34.0830   24.9520 H   0  0  0  0  0  0  0  0  0  0  0  0
  -24.1800  -36.7690   23.0280 C   0  0  0  0  0  1  0  0  0  0  0  0
  -25.4240  -36.3660   23.8360 C   0  0  0  0  0  3  0  0  0  0  0  0
  -27.5550  -37.2630   24.6650 C   0  0  0  0  0  1  0  0  0  0  0  0
  -26.4560  -37.4190   23.7160 N   0  0  0  0  0  0  0  0  0  0  0  0
  -26.0490  -38.3410   23.8520 H   0  0  0  0  0  0  0  0  0  0  0  0
  1  2  1  0
  2  8  1  0
  2 49  1  0
  4  3  1  0
  5  7  1  0
  6  5  2  0
  6  8  1  0
  7 18  1  0
  7  3  2  0
  8  4  2  0
  9  6  1  0
 10 18  1  0
 11 16  1  0
 12 13  1  0
 12 11  1  0
 14 13  1  0
 14 23  1  0
 14 15  1  0
 16 10  1  0
 16 15  1  0
 17 10  2  0
 18 19  1  0
 20 21  2  0
 21 40  1  0
 22 21  1  0
 22 25  1  0
 23 24  1  0
 23 20  1  0
 24 22  2  0
 25 26  1  0
 26 27  2  0
 28 31  1  0
 28 27  1  0
 29 28  2  0
 30 29  1  0
 30 25  2  0
 31 32  1  0
 32 33  1  0
 33 34  2  0
 35 34  1  0
 35 39  1  0
 36 35  2  0
 37 32  2  0
 37 36  1  0
 38 37  1  0
 40 41  1  0
 41 44  1  0
 41 43  1  0
 42 40  2  0
 45 20  1  0
 45 46  1  0
 47 45  1  0
 49 48  1  0
 50 51  1  0
 50 49  1  0
 52 63  2  0
 53 51  1  0
 53 58  1  0
 54 62  1  0
 54 64  1  0
 55 61  1  0
 55 57  1  0
 56 62  1  0
 57 58  2  0
 57 56  1  0
 59 53  2  0
 60 59  1  0
 60 55  2  0
 61 54  1  0
 62 52  1  0
 64 66  2  0
 65 64  1  0
 67 65  1  0
 68 77  2  0
 68 73  1  0
 69 65  1  0
 69 73  1  0
 70 69  1  0
 71 72  1  0
 71 70  1  0
 72 68  1  0
 73 74  2  0
 74 75  1  0
 76 75  2  0
 77 76  1  0
 78 52  1  0
 78 83  1  0
 78 79  1  0
 79 82  1  1
 79 80  1  0
 81 79  1  0
 83 86  1  0
 84 88  1  0
 84 83  1  0
 85 84  2  0
 88 87  1  0
 90 88  1  0
 90 91  1  0
 90 89  1  0
M  ISO  4  10 100  18 100  50 101  51 101
M  END
>  <TORSDO>  (47) 
F 19

>  <SCORE>  (47) 
-14.128

>  <name>  (47) 
46

>  <ligand_id>  (47) 
46

>  <original_smiles>  (47) 
[H]c1c([H])c([H])c2c(c1[H])C([H])([H])C([H])([H])C([H])([H])C2([H])N([H])C(=O)C1([H])N(C(=O)C([H])(N([H])C(=O)C([H])(N([H])C([H])([H])[H])C([H])([H])[H])C(C([H])([H])[H])(C([H])([H])[H])C([H])([H])[H])C([H])([H])c2c([H])c(OC([H])([H])C([H])(N(c3c([H])c([H])c(N([H])C(=O)N4C([H])([H])C([H])([H])C([H])([H])C([H])(n5nc(-c6c([H])c([H])c(Oc7c([H])c([H])c(F)c([H])c7F)c([H])c6[H])c(C(=O)N([H])[H])c5N([H])[H])C4([H])[H])c([H])c3C([H])([H])[H])C([H])([H])[H])C([H])([H])[H])c([H])c([H])c2C1([H])[H]

>  <smiles>  (47) 
[H]c1c([H])c([H])c2c(c1[H])C([H])([H])C([H])([H])C([H])([H])C2([H])N([H])C(=O)C1([H])N(C(=O)C([H])(N([H])C(=O)C([H])(N([H])C([H])([H])[H])C([H])([H])[H])C(C([H])([H])[H])(C([H])([H])[H])C([H])([H])[H])C([H])([H])c2c([H])c(OC([H])([H])C([H])(N(c3c([H])c([H])c(N([H])C(=O)N4C([H])([H])C([H])([H])C([H])([H])C([H])(n5nc(-c6c([H])c([H])c(Oc7c([H])c([H])c(F)c([H])c7F)c([H])c6[H])c(C(=O)N([H])[H])c5N([H])[H])C4([H])[H])c([H])c3C([H])([H])[H])C([H])([H])[H])C([H])([H])[H])c([H])c([H])c2C1([H])[H]

$$$$
47:0:0
     RDKit          3D

 91 99  0  0  1  0  0  0  0  0999 V2000
  -28.2920  -23.1110   20.2670 C   0  0  0  0  0  0  0  0  0  0  0  0
  -29.1500  -21.9390   20.0660 N   0  0  0  0  0  0  0  0  0  0  0  0
  -27.2730  -22.9570   20.9480 O   0  0  0  0  0  0  0  0  0  0  0  0
  -27.2240  -18.7380   19.1150 C   0  0  0  0  0  3  0  0  0  0  0  0
  -28.0250  -17.6170   19.4340 C   0  0  0  0  0  3  0  0  0  0  0  0
  -27.5930  -20.0680   19.4150 C   0  0  0  0  0  3  0  0  0  0  0  0
  -29.6340  -19.1530   20.3750 C   0  0  0  0  0  3  0  0  0  0  0  0
  -29.2580  -17.7040   20.1170 C   0  0  0  0  0  0  0  0  0  0  0  0
  -28.8270  -20.3950   20.0190 C   0  0  0  0  0  0  0  0  0  0  0  0
  -30.4570  -15.1160   20.2360 C   0  0  0  0  0  0  0  0  0  0  0  0
  -30.3870  -12.7060   19.3700 C   0  0  0  0  0  2  0  0  0  0  0  0
  -29.4590  -12.6150   18.1330 C   0  0  0  0  0  2  0  0  0  0  0  0
  -27.9950  -12.4020   18.5610 C   0  0  0  0  0  2  0  0  0  0  0  0
  -27.5830  -13.3270   19.7340 C   0  0  0  0  0  3  0  0  0  0  0  0
  -28.6400  -13.3730   20.8600 C   0  0  0  0  0  2  0  0  0  0  0  0
  -29.9030  -13.8210   20.2520 N   0  0  0  0  0  0  0  0  0  0  0  0
  -31.6260  -15.1800   19.8330 O   0  0  0  0  0  0  0  0  0  0  0  0
  -29.7340  -16.3010   20.6570 N   0  0  0  0  0  0  0  0  0  0  0  0
  -29.0060  -15.9400   21.2570 H   0  0  0  0  0  0  0  0  0  0  0  0
  -25.2050  -13.9060   20.4750 C   0  0  0  0  0  0  0  0  0  0  0  0
  -24.1370  -13.1350   20.8400 C   0  0  0  0  0  0  0  0  0  0  0  0
  -24.5960  -11.7820   20.8080 C   0  0  0  0  0  0  0  0  0  0  0  0
  -26.2460  -13.0260   20.2340 N   0  0  0  0  0  0  0  0  0  0  0  0
  -25.8880  -11.7410   20.4970 N   0  0  0  0  0  0  0  0  0  0  0  0
  -23.8610  -10.5250   21.0000 C   0  0  0  0  0  0  0  0  0  0  0  0
  -24.2850   -9.5560   21.9360 C   0  0  0  0  0  3  0  0  0  0  0  0
  -23.5480   -8.3660   22.1170 C   0  0  0  0  0  3  0  0  0  0  0  0
  -22.3730   -8.1360   21.3630 C   0  0  0  0  0  0  0  0  0  0  0  0
  -21.9680   -9.0940   20.4170 C   0  0  0  0  0  3  0  0  0  0  0  0
  -22.7050  -10.2760   20.2340 C   0  0  0  0  0  3  0  0  0  0  0  0
  -21.6110   -6.9960   21.4510 O   0  0  0  0  0  0  0  0  0  0  0  0
  -21.5520   -6.2590   22.6060 C   0  0  0  0  0  0  0  0  0  0  0  0
  -21.1220   -6.8210   23.8280 C   0  0  0  0  0  3  0  0  0  0  0  0
  -21.0090   -6.0100   24.9750 C   0  0  0  0  0  3  0  0  0  0  0  0
  -21.3160   -4.6380   24.9010 C   0  0  0  0  0  0  0  0  0  0  0  0
  -21.7380   -4.0760   23.6820 C   0  0  0  0  0  3  0  0  0  0  0  0
  -21.8540   -4.8840   22.5390 C   0  0  0  0  0  0  0  0  0  0  0  0
  -22.2420   -4.3340   21.3630 F   0  0  0  0  0  0  0  0  0  0  0  0
  -21.2000   -3.8560   25.9980 F   0  0  0  0  0  0  0  0  0  0  0  0
  -22.7440  -13.6240   21.1070 C   0  0  0  0  0  0  0  0  0  0  0  0
  -22.0070  -12.9360   21.9720 N   0  0  0  0  0  0  0  0  0  0  0  0
  -22.3170  -14.6530   20.5840 O   0  0  0  0  0  0  0  0  0  0  0  0
  -22.3620  -12.1060   22.4230 H   0  0  0  0  0  0  0  0  0  0  0  0
  -21.0710  -13.2480   22.1890 H   0  0  0  0  0  0  0  0  0  0  0  0
  -25.3720  -15.2770   20.3060 N   0  0  0  0  0  0  0  0  0  0  0  0
  -24.6070  -15.9280   20.4400 H   0  0  0  0  0  0  0  0  0  0  0  0
  -26.2220  -15.7260   19.9980 H   0  0  0  0  0  0  0  0  0  0  0  0
  -31.3140  -22.7590   21.0000 C   0  0  0  0  0  1  0  0  0  0  0  0
  -30.5550  -22.2380   19.7690 C   0  0  0  0  0  2  0  0  0  0  0  0
  -28.4670  -24.6830   19.6350 C   0  0  0  0  0  2  0  0  0  0  0  0
  -28.2560  -26.0860   20.3560 O   0  0  0  0  0  0  0  0  0  0  0  0
  -24.6310  -31.8670   23.2140 C   0  0  0  0  0  0  0  0  0  0  0  0
  -27.2150  -27.0960   20.1950 C   0  0  0  0  0  0  0  0  0  0  0  0
  -23.4370  -30.4690   21.5720 C   0  0  0  0  0  3  0  0  0  0  0  0
  -24.8910  -28.8830   20.1460 C   0  0  0  0  0  0  0  0  0  0  0  0
  -25.9950  -30.7130   21.4280 C   0  0  0  0  0  2  0  0  0  0  0  0
  -26.0660  -29.3150   20.7700 C   0  0  0  0  0  0  0  0  0  0  0  0
  -27.2190  -28.4350   20.7830 C   0  0  0  0  0  3  0  0  0  0  0  0
  -26.0170  -26.7810   19.5160 C   0  0  0  0  0  3  0  0  0  0  0  0
  -24.8840  -27.6330   19.5020 C   0  0  0  0  0  3  0  0  0  0  0  0
  -23.6660  -29.7860   20.1930 C   0  0  0  0  0  2  0  0  0  0  0  0
  -24.7070  -31.0410   22.1240 N   0  0  0  0  0  0  0  0  0  0  0  0
  -23.5410  -32.1560   23.7340 O   0  0  0  0  0  0  0  0  0  0  0  0
  -22.7490  -29.4700   22.5350 C   0  0  0  0  0  0  0  0  0  0  0  0
  -21.4190  -29.3100   22.4100 N   0  0  0  0  0  0  0  0  0  0  0  0
  -23.4160  -28.8420   23.3620 O   0  0  0  0  0  0  0  0  0  0  0  0
  -20.9380  -29.8670   21.7180 H   0  0  0  0  0  0  0  0  0  0  0  0
  -18.0300  -28.1370   22.9240 C   0  0  0  0  0  0  0  0  0  0  0  0
  -20.5910  -28.3800   23.1810 C   0  0  0  0  0  3  0  0  0  0  0  0
  -20.6800  -26.9470   22.6020 C   0  0  0  0  0  2  0  0  0  0  0  0
  -19.5720  -26.6370   21.5910 C   0  0  0  0  0  2  0  0  0  0  0  0
  -18.1930  -26.7910   22.2400 C   0  0  0  0  0  2  0  0  0  0  0  0
  -19.1560  -28.8910   23.3510 C   0  0  0  0  0  0  0  0  0  0  0  0
  -18.9460  -30.1500   23.9540 C   0  0  0  0  0  3  0  0  0  0  0  0
  -17.6450  -30.6560   24.1310 C   0  0  0  0  0  3  0  0  0  0  0  0
  -16.5340  -29.9000   23.7180 C   0  0  0  0  0  3  0  0  0  0  0  0
  -16.7270  -28.6420   23.1190 C   0  0  0  0  0  3  0  0  0  0  0  0
  -25.9040  -32.5050   23.8490 C   0  0  0  0  0  3  0  0  0  0  0  0
  -26.4030  -31.7420   25.1400 C   0  0  1  0  0  0  0  0  0  0  0  0
  -25.2950  -31.5230   26.1980 C   0  0  0  0  0  1  0  0  0  0  0  0
  -26.9840  -30.3580   24.7750 C   0  0  0  0  0  1  0  0  0  0  0  0
  -27.5500  -32.5380   25.8070 C   0  0  0  0  0  1  0  0  0  0  0  0
  -25.5920  -33.9050   24.1750 N   0  0  0  0  0  0  0  0  0  0  0  0
  -25.9340  -34.9630   23.4240 C   0  0  0  0  0  0  0  0  0  0  0  0
  -26.6080  -34.8580   22.3960 O   0  0  0  0  0  0  0  0  0  0  0  0
  -24.9910  -34.0600   24.9700 H   0  0  0  0  0  0  0  0  0  0  0  0
  -24.2150  -36.7690   23.0710 C   0  0  0  0  0  1  0  0  0  0  0  0
  -25.4520  -36.3520   23.8850 C   0  0  0  0  0  3  0  0  0  0  0  0
  -27.5860  -37.2290   24.7260 C   0  0  0  0  0  1  0  0  0  0  0  0
  -26.4900  -37.4010   23.7770 N   0  0  0  0  0  0  0  0  0  0  0  0
  -26.0880  -38.3230   23.9230 H   0  0  0  0  0  0  0  0  0  0  0  0
  1  3  2  0
  2  1  1  0
  4  6  2  0
  4  5  1  0
  5  8  2  0
  6  9  1  0
  8  7  1  0
  8 18  1  0
  9  2  1  0
  9  7  2  0
 10 16  1  0
 10 18  1  0
 11 16  1  0
 12 13  1  0
 12 11  1  0
 14 13  1  0
 14 23  1  0
 14 15  1  0
 16 15  1  0
 17 10  2  0
 18 19  1  0
 20 21  2  0
 21 40  1  0
 22 21  1  0
 22 25  1  0
 23 20  1  0
 23 24  1  0
 24 22  2  0
 25 26  1  0
 26 27  2  0
 28 31  1  0
 28 27  1  0
 29 28  2  0
 30 29  1  0
 30 25  2  0
 31 32  1  0
 32 33  1  0
 33 34  2  0
 35 34  1  0
 35 39  1  0
 36 35  2  0
 37 32  2  0
 37 36  1  0
 38 37  1  0
 40 41  1  0
 41 44  1  0
 41 43  1  0
 42 40  2  0
 45 46  1  0
 45 20  1  0
 47 45  1  0
 49  2  1  0
 49 48  1  0
 50  1  1  0
 50 51  1  0
 52 63  2  0
 53 51  1  0
 53 58  1  0
 54 62  1  0
 54 64  1  0
 55 61  1  0
 55 57  1  0
 56 62  1  0
 57 58  2  0
 57 56  1  0
 59 53  2  0
 60 59  1  0
 60 55  2  0
 61 54  1  0
 62 52  1  0
 64 66  2  0
 65 64  1  0
 67 65  1  0
 68 77  2  0
 68 73  1  0
 69 65  1  0
 69 73  1  0
 70 69  1  0
 71 72  1  0
 71 70  1  0
 72 68  1  0
 73 74  2  0
 74 75  1  0
 76 75  2  0
 77 76  1  0
 78 52  1  0
 78 83  1  0
 78 79  1  0
 79 82  1  1
 79 80  1  0
 81 79  1  0
 83 86  1  0
 84 88  1  0
 84 83  1  0
 85 84  2  0
 88 87  1  0
 90 88  1  0
 90 91  1  0
 90 89  1  0
M  ISO  4  10 100  18 100  50 101  51 101
M  END
>  <TORSDO>  (48) 
F 19

>  <SCORE>  (48) 
-15.035

>  <name>  (48) 
47

>  <ligand_id>  (48) 
47

>  <original_smiles>  (48) 
[H]c1c([H])c(N([H])C(=O)N2C([H])([H])C([H])([H])C([H])([H])C([H])(n3nc(-c4c([H])c([H])c(Oc5c([H])c([H])c(F)c([H])c5F)c([H])c4[H])c(C(=O)N([H])[H])c3N([H])[H])C2([H])[H])c([H])c(N(C(=O)C([H])([H])Oc2c([H])c([H])c3c(c2[H])C([H])([H])N(C(=O)C([H])(N([H])C(=O)C([H])(N([H])C([H])([H])[H])C([H])([H])[H])C(C([H])([H])[H])(C([H])([H])[H])C([H])([H])[H])C([H])(C(=O)N([H])C2([H])c4c([H])c([H])c([H])c([H])c4C([H])([H])C([H])([H])C2([H])[H])C3([H])[H])C([H])([H])C([H])([H])[H])c1[H]

>  <smiles>  (48) 
[H]c1c([H])c(N([H])C(=O)N2C([H])([H])C([H])([H])C([H])([H])C([H])(n3nc(-c4c([H])c([H])c(Oc5c([H])c([H])c(F)c([H])c5F)c([H])c4[H])c(C(=O)N([H])[H])c3N([H])[H])C2([H])[H])c([H])c(N(C(=O)C([H])([H])Oc2c([H])c([H])c3c(c2[H])C([H])([H])N(C(=O)C([H])(N([H])C(=O)C([H])(N([H])C([H])([H])[H])C([H])([H])[H])C(C([H])([H])[H])(C([H])([H])[H])C([H])([H])[H])C([H])(C(=O)N([H])C2([H])c4c([H])c([H])c([H])c([H])c4C([H])([H])C([H])([H])C2([H])[H])C3([H])[H])C([H])([H])C([H])([H])[H])c1[H]

$$$$
48:0:0
     RDKit          3D

 95103  0  0  1  0  0  0  0  0999 V2000
  -29.0950  -19.0940   19.1370 C   0  0  0  0  0  3  0  0  0  0  0  0
  -30.4440  -18.1910   21.3860 C   0  0  0  0  0  3  0  0  0  0  0  0
  -29.4180  -20.0880   20.1110 C   0  0  0  0  0  0  0  0  0  0  0  0
  -30.1390  -19.5880   21.2470 C   0  0  0  0  0  0  0  0  0  0  0  0
  -30.0740  -17.2060   20.4260 C   0  0  0  0  0  0  0  0  0  0  0  0
  -29.4050  -17.7050   19.2810 C   0  0  0  0  0  0  0  0  0  0  0  0
  -28.9730  -16.8340   18.3380 F   0  0  0  0  0  0  0  0  0  0  0  0
  -30.8880  -14.7480   20.1750 C   0  0  0  0  0  0  0  0  0  0  0  0
  -30.6790  -12.4870   19.1410 C   0  0  0  0  0  2  0  0  0  0  0  0
  -29.7090  -12.5980   17.9430 C   0  0  0  0  0  2  0  0  0  0  0  0
  -28.2450  -12.4420   18.4020 C   0  0  0  0  0  2  0  0  0  0  0  0
  -27.9140  -13.3180   19.6390 C   0  0  0  0  0  3  0  0  0  0  0  0
  -28.9920  -13.1640   20.7360 C   0  0  0  0  0  2  0  0  0  0  0  0
  -30.2900  -13.5110   20.1360 N   0  0  0  0  0  0  0  0  0  0  0  0
  -32.0100  -14.9260   19.6910 O   0  0  0  0  0  0  0  0  0  0  0  0
  -30.1550  -15.7670   20.7280 N   0  0  0  0  0  0  0  0  0  0  0  0
  -29.3670  -15.4250   21.2560 H   0  0  0  0  0  0  0  0  0  0  0  0
  -25.5460  -13.9400   20.4160 C   0  0  0  0  0  0  0  0  0  0  0  0
  -24.4790  -13.1780   20.8060 C   0  0  0  0  0  0  0  0  0  0  0  0
  -24.9230  -11.8210   20.7540 C   0  0  0  0  0  0  0  0  0  0  0  0
  -26.5730  -13.0490   20.1510 N   0  0  0  0  0  0  0  0  0  0  0  0
  -26.2050  -11.7690   20.4130 N   0  0  0  0  0  0  0  0  0  0  0  0
  -24.1860  -10.5660   20.9520 C   0  0  0  0  0  0  0  0  0  0  0  0
  -24.6080   -9.6020   21.8930 C   0  0  0  0  0  3  0  0  0  0  0  0
  -23.8710   -8.4120   22.0790 C   0  0  0  0  0  3  0  0  0  0  0  0
  -22.6970   -8.1780   21.3230 C   0  0  0  0  0  0  0  0  0  0  0  0
  -22.2940   -9.1310   20.3720 C   0  0  0  0  0  3  0  0  0  0  0  0
  -23.0320  -10.3120   20.1840 C   0  0  0  0  0  3  0  0  0  0  0  0
  -21.9340   -7.0410   21.4170 O   0  0  0  0  0  0  0  0  0  0  0  0
  -21.8420   -6.3300   22.5870 C   0  0  0  0  0  0  0  0  0  0  0  0
  -21.3520   -6.9120   23.7760 C   0  0  0  0  0  3  0  0  0  0  0  0
  -21.2100   -6.1260   24.9380 C   0  0  0  0  0  3  0  0  0  0  0  0
  -21.5480   -4.7600   24.9100 C   0  0  0  0  0  0  0  0  0  0  0  0
  -22.0300   -4.1780   23.7250 C   0  0  0  0  0  3  0  0  0  0  0  0
  -22.1740   -4.9600   22.5660 C   0  0  0  0  0  0  0  0  0  0  0  0
  -22.6200   -4.3890   21.4220 F   0  0  0  0  0  0  0  0  0  0  0  0
  -21.4030   -4.0030   26.0240 F   0  0  0  0  0  0  0  0  0  0  0  0
  -23.0950  -13.6700   21.1170 C   0  0  0  0  0  0  0  0  0  0  0  0
  -22.3790  -12.9750   21.9950 N   0  0  0  0  0  0  0  0  0  0  0  0
  -22.6570  -14.7060   20.6170 O   0  0  0  0  0  0  0  0  0  0  0  0
  -22.7460  -12.1380   22.4220 H   0  0  0  0  0  0  0  0  0  0  0  0
  -21.4510  -13.2870   22.2450 H   0  0  0  0  0  0  0  0  0  0  0  0
  -25.7240  -15.3110   20.2450 N   0  0  0  0  0  0  0  0  0  0  0  0
  -24.9660  -15.9730   20.3740 H   0  0  0  0  0  0  0  0  0  0  0  0
  -26.5660  -15.7380   19.8810 H   0  0  0  0  0  0  0  0  0  0  0  0
  -28.8080  -21.5180   19.9610 C   0  0  0  0  0  0  0  0  0  0  0  0
  -29.4180  -22.6520   20.4310 N   0  0  0  0  0  0  0  0  0  0  0  0
  -27.7180  -21.6200   19.3950 O   0  0  0  0  0  0  0  0  0  0  0  0
  -30.3430  -22.5030   20.8130 H   0  0  0  0  0  0  0  0  0  0  0  0
  -28.7900  -24.0050   20.7360 C   0  0  0  0  0  2  0  0  0  0  0  0
  -29.0140  -25.2540   19.7660 C   0  0  0  0  0  2  0  0  0  0  0  0
  -28.8320  -26.6400   20.2740 O   0  0  0  0  0  0  0  0  0  0  0  0
  -24.7230  -31.7530   23.2550 C   0  0  0  0  0  0  0  0  0  0  0  0
  -27.6430  -27.3840   20.1890 C   0  0  0  0  0  0  0  0  0  0  0  0
  -23.6380  -30.3450   21.5380 C   0  0  0  0  0  3  0  0  0  0  0  0
  -25.2030  -28.8850   20.1310 C   0  0  0  0  0  0  0  0  0  0  0  0
  -26.1640  -30.7750   21.4530 C   0  0  0  0  0  2  0  0  0  0  0  0
  -26.3250  -29.4160   20.7790 C   0  0  0  0  0  0  0  0  0  0  0  0
  -27.5430  -28.6750   20.7970 C   0  0  0  0  0  3  0  0  0  0  0  0
  -26.4940  -26.8960   19.5290 C   0  0  0  0  0  3  0  0  0  0  0  0
  -25.2900  -27.6330   19.4990 C   0  0  0  0  0  3  0  0  0  0  0  0
  -23.9290  -29.7070   20.1520 C   0  0  0  0  0  2  0  0  0  0  0  0
  -24.8570  -30.9750   22.1400 N   0  0  0  0  0  0  0  0  0  0  0  0
  -23.6100  -31.9710   23.7560 O   0  0  0  0  0  0  0  0  0  0  0  0
  -22.9850  -29.2800   22.4520 C   0  0  0  0  0  0  0  0  0  0  0  0
  -21.6710  -29.0600   22.2810 N   0  0  0  0  0  0  0  0  0  0  0  0
  -23.6620  -28.6560   23.2740 O   0  0  0  0  0  0  0  0  0  0  0  0
  -21.1830  -29.6190   21.5950 H   0  0  0  0  0  0  0  0  0  0  0  0
  -18.3220  -27.7470   22.6600 C   0  0  0  0  0  0  0  0  0  0  0  0
  -20.8640  -28.0740   23.0000 C   0  0  0  0  0  3  0  0  0  0  0  0
  -21.0230  -26.6670   22.3790 C   0  0  0  0  0  2  0  0  0  0  0  0
  -19.9550  -26.3460   21.3280 C   0  0  0  0  0  2  0  0  0  0  0  0
  -18.5550  -26.4280   21.9430 C   0  0  0  0  0  2  0  0  0  0  0  0
  -19.4070  -28.5270   23.1420 C   0  0  0  0  0  0  0  0  0  0  0  0
  -19.1350  -29.7620   23.7710 C   0  0  0  0  0  3  0  0  0  0  0  0
  -17.8120  -30.2180   23.9220 C   0  0  0  0  0  3  0  0  0  0  0  0
  -16.7420  -29.4360   23.4560 C   0  0  0  0  0  3  0  0  0  0  0  0
  -16.9970  -28.2010   22.8310 C   0  0  0  0  0  3  0  0  0  0  0  0
  -25.9540  -32.4230   23.9380 C   0  0  0  0  0  3  0  0  0  0  0  0
  -26.4210  -31.6750   25.2480 C   0  0  1  0  0  0  0  0  0  0  0  0
  -25.2780  -31.4170   26.2580 C   0  0  0  0  0  1  0  0  0  0  0  0
  -27.0590  -30.3100   24.9010 C   0  0  0  0  0  1  0  0  0  0  0  0
  -27.5130  -32.5030   25.9640 C   0  0  0  0  0  1  0  0  0  0  0  0
  -25.5920  -33.8150   24.2410 N   0  0  0  0  0  0  0  0  0  0  0  0
  -25.9130  -34.8680   23.4770 C   0  0  0  0  0  0  0  0  0  0  0  0
  -26.6120  -34.7730   22.4660 O   0  0  0  0  0  0  0  0  0  0  0  0
  -24.9720  -33.9610   25.0240 H   0  0  0  0  0  0  0  0  0  0  0  0
  -24.1330  -36.5980   23.0650 C   0  0  0  0  0  1  0  0  0  0  0  0
  -25.3720  -36.2470   23.9050 C   0  0  0  0  0  3  0  0  0  0  0  0
  -27.4570  -37.2200   24.7620 C   0  0  0  0  0  1  0  0  0  0  0  0
  -26.3710  -37.3320   23.7930 N   0  0  0  0  0  0  0  0  0  0  0  0
  -25.9310  -38.2410   23.9120 H   0  0  0  0  0  0  0  0  0  0  0  0
  -30.5250  -20.4240   22.2990 N   0  0  0  0  0  0  0  0  0  0  0  0
  -30.8360  -19.9940   23.1660 H   0  0  0  0  0  0  0  0  0  0  0  0
  -30.0100  -21.2820   22.4660 H   0  0  0  0  0  0  0  0  0  0  0  0
  1  6  2  0
  1  3  1  0
  3  4  2  0
  4  2  1  0
  4 93  1  0
  5 16  1  0
  5  2  2  0
  6  5  1  0
  7  6  1  0
  8 16  1  0
  9 14  1  0
 10 11  1  0
 10  9  1  0
 12 11  1  0
 12 21  1  0
 12 13  1  0
 14  8  1  0
 14 13  1  0
 15  8  2  0
 16 17  1  0
 18 19  2  0
 19 38  1  0
 20 19  1  0
 20 23  1  0
 21 22  1  0
 21 18  1  0
 22 20  2  0
 23 24  1  0
 24 25  2  0
 26 29  1  0
 26 25  1  0
 27 26  2  0
 28 27  1  0
 28 23  2  0
 29 30  1  0
 30 31  1  0
 31 32  2  0
 33 32  1  0
 33 37  1  0
 34 33  2  0
 35 30  2  0
 35 34  1  0
 36 35  1  0
 38 39  1  0
 39 42  1  0
 39 41  1  0
 40 38  2  0
 43 44  1  0
 43 18  1  0
 45 43  1  0
 46  3  1  0
 46 47  1  0
 47 50  1  0
 47 49  1  0
 48 46  2  0
 51 52  1  0
 51 50  1  0
 53 64  2  0
 54 52  1  0
 54 59  1  0
 55 63  1  0
 55 65  1  0
 56 62  1  0
 56 58  1  0
 57 63  1  0
 58 59  2  0
 58 57  1  0
 60 54  2  0
 61 60  1  0
 61 56  2  0
 62 55  1  0
 63 53  1  0
 65 67  2  0
 66 65  1  0
 68 66  1  0
 69 78  2  0
 69 74  1  0
 70 66  1  0
 70 74  1  0
 71 70  1  0
 72 73  1  0
 72 71  1  0
 73 69  1  0
 74 75  2  0
 75 76  1  0
 77 76  2  0
 78 77  1  0
 79 53  1  0
 79 84  1  0
 79 80  1  0
 80 83  1  1
 80 81  1  0
 82 80  1  0
 84 87  1  0
 85 89  1  0
 85 84  1  0
 86 85  2  0
 89 88  1  0
 91 89  1  0
 91 92  1  0
 91 90  1  0
 93 95  1  0
 93 94  1  0
M  ISO  4   8 100  16 100  51 101  52 101
M  END
>  <TORSDO>  (49) 
F 20

>  <SCORE>  (49) 
-13.901

>  <name>  (49) 
48

>  <ligand_id>  (49) 
48

>  <original_smiles>  (49) 
[H]c1c([H])c([H])c2c(c1[H])C([H])([H])C([H])([H])C([H])([H])C2([H])N([H])C(=O)C1([H])N(C(=O)C([H])(N([H])C(=O)C([H])(N([H])C([H])([H])[H])C([H])([H])[H])C(C([H])([H])[H])(C([H])([H])[H])C([H])([H])[H])C([H])([H])c2c([H])c(OC([H])([H])C([H])([H])N([H])C(=O)c3c([H])c(F)c(N([H])C(=O)N4C([H])([H])C([H])([H])C([H])([H])C([H])(n5nc(-c6c([H])c([H])c(Oc7c([H])c([H])c(F)c([H])c7F)c([H])c6[H])c(C(=O)N([H])[H])c5N([H])[H])C4([H])[H])c([H])c3N([H])[H])c([H])c([H])c2C1([H])[H]

>  <smiles>  (49) 
[H]c1c([H])c([H])c2c(c1[H])C([H])([H])C([H])([H])C([H])([H])C2([H])N([H])C(=O)C1([H])N(C(=O)C([H])(N([H])C(=O)C([H])(N([H])C([H])([H])[H])C([H])([H])[H])C(C([H])([H])[H])(C([H])([H])[H])C([H])([H])[H])C([H])([H])c2c([H])c(OC([H])([H])C([H])([H])N([H])C(=O)c3c([H])c(F)c(N([H])C(=O)N4C([H])([H])C([H])([H])C([H])([H])C([H])(n5nc(-c6c([H])c([H])c(Oc7c([H])c([H])c(F)c([H])c7F)c([H])c6[H])c(C(=O)N([H])[H])c5N([H])[H])C4([H])[H])c([H])c3N([H])[H])c([H])c([H])c2C1([H])[H]

$$$$
49:0:0
     RDKit          3D

 93102  0  0  1  0  0  0  0  0999 V2000
  -29.0280  -21.1880   21.6770 C   0  0  0  0  0  2  0  0  0  0  0  0
  -28.9010  -20.5980   20.3020 C   0  0  0  0  0  3  0  0  0  0  0  0
  -29.6210  -21.9430   20.5000 C   0  0  0  0  0  3  0  0  0  0  0  0
  -31.0200  -18.2880   18.1500 C   0  0  0  0  0  3  0  0  0  0  0  0
  -30.3680  -19.4200   18.6640 C   0  0  0  0  0  3  0  0  0  0  0  0
  -30.9050  -17.0520   18.8020 C   0  0  0  0  0  3  0  0  0  0  0  0
  -29.5340  -18.0890   20.5300 C   0  0  0  0  0  3  0  0  0  0  0  0
  -29.6260  -19.3430   19.8580 C   0  0  0  0  0  0  0  0  0  0  0  0
  -30.1620  -16.9240   20.0050 C   0  0  0  0  0  0  0  0  0  0  0  0
  -30.7280  -14.5350   20.4210 C   0  0  0  0  0  0  0  0  0  0  0  0
  -30.4250  -12.3470   19.3610 C   0  0  0  0  0  2  0  0  0  0  0  0
  -29.5030  -12.5440   18.1390 C   0  0  0  0  0  2  0  0  0  0  0  0
  -28.0290  -12.3980   18.5610 C   0  0  0  0  0  2  0  0  0  0  0  0
  -27.6720  -13.2790   19.7870 C   0  0  0  0  0  3  0  0  0  0  0  0
  -28.7120  -13.1020   20.9170 C   0  0  0  0  0  2  0  0  0  0  0  0
  -30.0480  -13.3600   20.3580 N   0  0  0  0  0  0  0  0  0  0  0  0
  -31.9170  -14.6260   20.1030 O   0  0  0  0  0  0  0  0  0  0  0  0
  -29.9820  -15.6410   20.6370 N   0  0  0  0  0  0  0  0  0  0  0  0
  -29.0870  -15.4790   21.0690 H   0  0  0  0  0  0  0  0  0  0  0  0
  -25.2710  -13.8960   20.4660 C   0  0  0  0  0  0  0  0  0  0  0  0
  -24.1980  -13.1290   20.8380 C   0  0  0  0  0  0  0  0  0  0  0  0
  -24.6610  -11.7760   20.8300 C   0  0  0  0  0  0  0  0  0  0  0  0
  -26.3170  -13.0130   20.2610 N   0  0  0  0  0  0  0  0  0  0  0  0
  -25.9550  -11.7350   20.5400 N   0  0  0  0  0  0  0  0  0  0  0  0
  -23.9370  -10.5150   21.0230 C   0  0  0  0  0  0  0  0  0  0  0  0
  -24.3650   -9.5530   21.9650 C   0  0  0  0  0  3  0  0  0  0  0  0
  -23.6390   -8.3560   22.1440 C   0  0  0  0  0  3  0  0  0  0  0  0
  -22.4740   -8.1110   21.3790 C   0  0  0  0  0  0  0  0  0  0  0  0
  -22.0660   -9.0610   20.4260 C   0  0  0  0  0  3  0  0  0  0  0  0
  -22.7910  -10.2510   20.2450 C   0  0  0  0  0  3  0  0  0  0  0  0
  -21.7200   -6.9660   21.4700 O   0  0  0  0  0  0  0  0  0  0  0  0
  -21.6650   -6.2280   22.6260 C   0  0  0  0  0  0  0  0  0  0  0  0
  -21.2250   -6.7870   23.8460 C   0  0  0  0  0  3  0  0  0  0  0  0
  -21.1160   -5.9760   24.9930 C   0  0  0  0  0  3  0  0  0  0  0  0
  -21.4390   -4.6080   24.9210 C   0  0  0  0  0  0  0  0  0  0  0  0
  -21.8720   -4.0470   23.7060 C   0  0  0  0  0  3  0  0  0  0  0  0
  -21.9810   -4.8560   22.5600 C   0  0  0  0  0  0  0  0  0  0  0  0
  -22.3800   -4.3070   21.3860 F   0  0  0  0  0  0  0  0  0  0  0  0
  -21.3260   -3.8260   26.0200 F   0  0  0  0  0  0  0  0  0  0  0  0
  -22.7990  -13.6080   21.0900 C   0  0  0  0  0  0  0  0  0  0  0  0
  -22.0620  -12.9190   21.9550 N   0  0  0  0  0  0  0  0  0  0  0  0
  -22.3650  -14.6290   20.5570 O   0  0  0  0  0  0  0  0  0  0  0  0
  -22.4230  -12.0940   22.4120 H   0  0  0  0  0  0  0  0  0  0  0  0
  -21.1210  -13.2210   22.1660 H   0  0  0  0  0  0  0  0  0  0  0  0
  -25.4390  -15.2630   20.2650 N   0  0  0  0  0  0  0  0  0  0  0  0
  -24.6670  -15.9200   20.2970 H   0  0  0  0  0  0  0  0  0  0  0  0
  -26.2940  -15.6800   19.9190 H   0  0  0  0  0  0  0  0  0  0  0  0
  -29.4750  -24.4120   20.0890 C   0  0  0  0  0  0  0  0  0  0  0  0
  -28.9770  -23.1560   20.0500 N   0  0  0  0  0  0  0  0  0  0  0  0
  -30.5540  -24.6740   20.6320 O   0  0  0  0  0  0  0  0  0  0  0  0
  -28.0950  -23.0420   19.5660 H   0  0  0  0  0  0  0  0  0  0  0  0
  -28.6580  -25.5280   19.3800 C   0  0  0  0  0  2  0  0  0  0  0  0
  -28.4640  -26.7070   20.2070 O   0  0  0  0  0  0  0  0  0  0  0  0
  -24.6090  -31.9140   23.2430 C   0  0  0  0  0  0  0  0  0  0  0  0
  -27.2790  -27.4360   20.1590 C   0  0  0  0  0  0  0  0  0  0  0  0
  -23.4150  -30.5090   21.5980 C   0  0  0  0  0  3  0  0  0  0  0  0
  -24.8760  -28.9750   20.1780 C   0  0  0  0  0  0  0  0  0  0  0  0
  -25.9490  -30.8570   21.4200 C   0  0  0  0  0  2  0  0  0  0  0  0
  -26.0370  -29.4870   20.7690 C   0  0  0  0  0  0  0  0  0  0  0  0
  -27.2360  -28.7280   20.7550 C   0  0  0  0  0  3  0  0  0  0  0  0
  -26.0840  -26.9480   19.5770 C   0  0  0  0  0  3  0  0  0  0  0  0
  -24.8990  -27.7060   19.5800 C   0  0  0  0  0  3  0  0  0  0  0  0
  -23.6310  -29.8340   20.2170 C   0  0  0  0  0  2  0  0  0  0  0  0
  -24.6750  -31.1090   22.1430 N   0  0  0  0  0  0  0  0  0  0  0  0
  -23.5220  -32.1900   23.7720 O   0  0  0  0  0  0  0  0  0  0  0  0
  -22.7580  -29.4880   22.5570 C   0  0  0  0  0  0  0  0  0  0  0  0
  -21.4320  -29.3110   22.4220 N   0  0  0  0  0  0  0  0  0  0  0  0
  -23.4370  -28.8630   23.3740 O   0  0  0  0  0  0  0  0  0  0  0  0
  -20.9510  -29.8680   21.7310 H   0  0  0  0  0  0  0  0  0  0  0  0
  -18.0490  -28.1310   22.9150 C   0  0  0  0  0  0  0  0  0  0  0  0
  -20.6090  -28.3730   23.1870 C   0  0  0  0  0  3  0  0  0  0  0  0
  -20.7030  -26.9460   22.5990 C   0  0  0  0  0  2  0  0  0  0  0  0
  -19.5980  -26.6360   21.5850 C   0  0  0  0  0  2  0  0  0  0  0  0
  -18.2180  -26.7840   22.2320 C   0  0  0  0  0  2  0  0  0  0  0  0
  -19.1720  -28.8840   23.3490 C   0  0  0  0  0  0  0  0  0  0  0  0
  -18.9610  -30.1450   23.9470 C   0  0  0  0  0  3  0  0  0  0  0  0
  -17.6590  -30.6500   24.1200 C   0  0  0  0  0  3  0  0  0  0  0  0
  -16.5510  -29.8930   23.7020 C   0  0  0  0  0  3  0  0  0  0  0  0
  -16.7460  -28.6370   23.1050 C   0  0  0  0  0  3  0  0  0  0  0  0
  -25.8870  -32.5470   23.8710 C   0  0  0  0  0  3  0  0  0  0  0  0
  -26.3990  -31.7770   25.1500 C   0  0  1  0  0  0  0  0  0  0  0  0
  -25.2980  -31.5430   26.2120 C   0  0  0  0  0  1  0  0  0  0  0  0
  -26.9820  -30.3970   24.7640 C   0  0  0  0  0  1  0  0  0  0  0  0
  -27.5450  -32.5730   25.8170 C   0  0  0  0  0  1  0  0  0  0  0  0
  -25.5780  -33.9450   24.2000 N   0  0  0  0  0  0  0  0  0  0  0  0
  -25.9100  -34.9970   23.4420 C   0  0  0  0  0  0  0  0  0  0  0  0
  -26.5850  -34.8940   22.4120 O   0  0  0  0  0  0  0  0  0  0  0  0
  -24.9840  -34.0990   25.0000 H   0  0  0  0  0  0  0  0  0  0  0  0
  -24.1820  -36.7870   23.0700 C   0  0  0  0  0  1  0  0  0  0  0  0
  -25.4160  -36.3850   23.8930 C   0  0  0  0  0  3  0  0  0  0  0  0
  -27.5430  -37.2700   24.7460 C   0  0  0  0  0  1  0  0  0  0  0  0
  -26.4490  -37.4390   23.7930 N   0  0  0  0  0  0  0  0  0  0  0  0
  -26.0430  -38.3590   23.9390 H   0  0  0  0  0  0  0  0  0  0  0  0
  2  8  1  0
  2  3  1  0
  2  1  1  0
  3 49  1  0
  3  1  1  0
  4  5  2  0
  4  6  1  0
  5  8  1  0
  6  9  2  0
  8  7  2  0
  9  7  1  0
  9 18  1  0
 10 18  1  0
 11 16  1  0
 12 13  1  0
 12 11  1  0
 14 13  1  0
 14 23  1  0
 14 15  1  0
 16 10  1  0
 16 15  1  0
 17 10  2  0
 18 19  1  0
 20 21  2  0
 21 40  1  0
 22 21  1  0
 22 25  1  0
 23 20  1  0
 23 24  1  0
 24 22  2  0
 25 26  1  0
 26 27  2  0
 28 31  1  0
 28 27  1  0
 29 28  2  0
 30 29  1  0
 30 25  2  0
 31 32  1  0
 32 33  1  0
 33 34  2  0
 35 34  1  0
 35 39  1  0
 36 35  2  0
 37 32  2  0
 37 36  1  0
 38 37  1  0
 40 41  1  0
 41 44  1  0
 41 43  1  0
 42 40  2  0
 45 46  1  0
 45 20  1  0
 47 45  1  0
 48 50  2  0
 49 48  1  0
 51 49  1  0
 52 48  1  0
 52 53  1  0
 54 65  2  0
 55 53  1  0
 55 60  1  0
 56 64  1  0
 56 66  1  0
 57 63  1  0
 57 59  1  0
 58 64  1  0
 59 58  1  0
 60 59  2  0
 61 62  1  0
 61 55  2  0
 62 57  2  0
 63 56  1  0
 64 54  1  0
 66 68  2  0
 67 66  1  0
 69 67  1  0
 70 79  2  0
 70 75  1  0
 71 67  1  0
 71 75  1  0
 72 71  1  0
 73 74  1  0
 73 72  1  0
 74 70  1  0
 75 76  2  0
 76 77  1  0
 78 77  2  0
 79 78  1  0
 80 54  1  0
 80 85  1  0
 80 81  1  0
 81 84  1  1
 81 82  1  0
 83 81  1  0
 85 88  1  0
 86 90  1  0
 86 85  1  0
 87 86  2  0
 90 89  1  0
 92 90  1  0
 92 93  1  0
 92 91  1  0
M  ISO  4  10 100  18 100  52 101  53 101
M  END
>  <TORSDO>  (50) 
F 19

>  <SCORE>  (50) 
-14.421

>  <name>  (50) 
49

>  <ligand_id>  (50) 
49

>  <original_smiles>  (50) 
[H]c1c([H])c([H])c2c(c1[H])C([H])([H])C([H])([H])C([H])([H])C2([H])N([H])C(=O)C1([H])N(C(=O)C([H])(N([H])C(=O)C([H])(N([H])C([H])([H])[H])C([H])([H])[H])C(C([H])([H])[H])(C([H])([H])[H])C([H])([H])[H])C([H])([H])c2c([H])c(OC([H])([H])C(=O)N([H])C3([H])C([H])([H])C3([H])c3c([H])c([H])c([H])c(N([H])C(=O)N4C([H])([H])C([H])([H])C([H])([H])C([H])(n5nc(-c6c([H])c([H])c(Oc7c([H])c([H])c(F)c([H])c7F)c([H])c6[H])c(C(=O)N([H])[H])c5N([H])[H])C4([H])[H])c3[H])c([H])c([H])c2C1([H])[H]

>  <smiles>  (50) 
[H]c1c([H])c([H])c2c(c1[H])C([H])([H])C([H])([H])C([H])([H])C2([H])N([H])C(=O)C1([H])N(C(=O)C([H])(N([H])C(=O)C([H])(N([H])C([H])([H])[H])C([H])([H])[H])C(C([H])([H])[H])(C([H])([H])[H])C([H])([H])[H])C([H])([H])c2c([H])c(OC([H])([H])C(=O)N([H])C3([H])C([H])([H])C3([H])c3c([H])c([H])c([H])c(N([H])C(=O)N4C([H])([H])C([H])([H])C([H])([H])C([H])(n5nc(-c6c([H])c([H])c(Oc7c([H])c([H])c(F)c([H])c7F)c([H])c6[H])c(C(=O)N([H])[H])c5N([H])[H])C4([H])[H])c3[H])c([H])c([H])c2C1([H])[H]

$$$$
50:0:0
     RDKit          3D

 93101  0  0  1  0  0  0  0  0999 V2000
  -28.6290  -21.8490   20.8430 C   0  0  0  0  0  0  0  0  0  0  0  0
  -27.8790  -22.7440   20.1470 N   0  0  0  0  0  0  0  0  0  0  0  0
  -29.4750  -22.2070   21.6650 O   0  0  0  0  0  0  0  0  0  0  0  0
  -27.2750  -22.2920   19.4710 H   0  0  0  0  0  0  0  0  0  0  0  0
  -28.2080  -19.7610   19.2460 C   0  0  0  0  0  2  0  0  0  0  0  0
  -28.0580  -18.2490   19.5150 C   0  0  0  0  0  2  0  0  0  0  0  0
  -28.2970  -20.3190   20.6690 C   0  0  0  0  0  3  0  0  0  0  0  0
  -28.9740  -17.9720   20.7260 C   0  0  0  0  0  3  0  0  0  0  0  0
  -29.1710  -19.3290   21.3660 N   0  0  0  0  0  4  0  0  0  0  0  0
  -28.9550  -19.3180   22.3510 H   0  0  0  0  0  0  0  0  0  0  0  0
  -30.1210  -19.6460   21.2650 H   0  0  0  0  0  0  0  0  0  0  0  0
  -30.2600  -17.1340   20.3330 C   0  0  0  0  0  2  0  0  0  0  0  0
  -30.7940  -14.6440   19.8450 C   0  0  0  0  0  0  0  0  0  0  0  0
  -30.5940  -12.3440   18.9190 C   0  0  0  0  0  2  0  0  0  0  0  0
  -29.5690  -12.3520   17.7620 C   0  0  0  0  0  2  0  0  0  0  0  0
  -28.1250  -12.2130   18.2880 C   0  0  0  0  0  2  0  0  0  0  0  0
  -27.8240  -13.1610   19.4790 C   0  0  0  0  0  3  0  0  0  0  0  0
  -28.9460  -13.0790   20.5370 C   0  0  0  0  0  2  0  0  0  0  0  0
  -30.2130  -13.4090   19.8640 N   0  0  0  0  0  0  0  0  0  0  0  0
  -31.9020  -14.8420   19.3370 O   0  0  0  0  0  0  0  0  0  0  0  0
  -30.0030  -15.6620   20.2750 N   0  0  0  0  0  0  0  0  0  0  0  0
  -29.1050  -15.3680   20.6260 H   0  0  0  0  0  0  0  0  0  0  0  0
  -25.5130  -13.7930   20.4120 C   0  0  0  0  0  0  0  0  0  0  0  0
  -24.4670  -13.0300   20.8570 C   0  0  0  0  0  0  0  0  0  0  0  0
  -24.8980  -11.6720   20.7540 C   0  0  0  0  0  0  0  0  0  0  0  0
  -26.5140  -12.8990   20.0650 N   0  0  0  0  0  0  0  0  0  0  0  0
  -26.1540  -11.6170   20.3280 N   0  0  0  0  0  0  0  0  0  0  0  0
  -24.1690  -10.4180   20.9760 C   0  0  0  0  0  0  0  0  0  0  0  0
  -24.5890   -9.4770   21.9420 C   0  0  0  0  0  3  0  0  0  0  0  0
  -23.8560   -8.2890   22.1490 C   0  0  0  0  0  3  0  0  0  0  0  0
  -22.6900   -8.0320   21.3900 C   0  0  0  0  0  0  0  0  0  0  0  0
  -22.2890   -8.9630   20.4140 C   0  0  0  0  0  3  0  0  0  0  0  0
  -23.0230  -10.1430   20.2040 C   0  0  0  0  0  3  0  0  0  0  0  0
  -21.9290   -6.8940   21.5050 O   0  0  0  0  0  0  0  0  0  0  0  0
  -21.7620   -6.2590   22.7090 C   0  0  0  0  0  0  0  0  0  0  0  0
  -21.1900   -6.9110   23.8230 C   0  0  0  0  0  3  0  0  0  0  0  0
  -20.9710   -6.2000   25.0200 C   0  0  0  0  0  3  0  0  0  0  0  0
  -21.3190   -4.8380   25.1030 C   0  0  0  0  0  0  0  0  0  0  0  0
  -21.8890   -4.1870   23.9950 C   0  0  0  0  0  3  0  0  0  0  0  0
  -22.1070   -4.8950   22.8000 C   0  0  0  0  0  0  0  0  0  0  0  0
  -22.6350   -4.2570   21.7270 F   0  0  0  0  0  0  0  0  0  0  0  0
  -21.1030   -4.1520   26.2500 F   0  0  0  0  0  0  0  0  0  0  0  0
  -23.1090  -13.5280   21.2590 C   0  0  0  0  0  0  0  0  0  0  0  0
  -22.4430  -12.8280   22.1700 N   0  0  0  0  0  0  0  0  0  0  0  0
  -22.6500  -14.5720   20.8000 O   0  0  0  0  0  0  0  0  0  0  0  0
  -22.8290  -11.9850   22.5700 H   0  0  0  0  0  0  0  0  0  0  0  0
  -21.5340  -13.1420   22.4780 H   0  0  0  0  0  0  0  0  0  0  0  0
  -25.6870  -15.1650   20.2540 N   0  0  0  0  0  0  0  0  0  0  0  0
  -24.9300  -15.8180   20.4320 H   0  0  0  0  0  0  0  0  0  0  0  0
  -26.4790  -15.5930   19.7960 H   0  0  0  0  0  0  0  0  0  0  0  0
  -27.5750  -24.2100   20.2740 C   0  0  0  0  0  2  0  0  0  0  0  0
  -28.6930  -25.2920   20.5050 C   0  0  0  0  0  2  0  0  0  0  0  0
  -28.5460  -26.7050   20.0930 O   0  0  0  0  0  0  0  0  0  0  0  0
  -24.6080  -31.8710   23.2160 C   0  0  0  0  0  0  0  0  0  0  0  0
  -27.3580  -27.4360   20.1530 C   0  0  0  0  0  0  0  0  0  0  0  0
  -23.4620  -30.4860   21.5240 C   0  0  0  0  0  3  0  0  0  0  0  0
  -24.9630  -28.9860   20.1110 C   0  0  0  0  0  0  0  0  0  0  0  0
  -25.9920  -30.8630   21.3910 C   0  0  0  0  0  2  0  0  0  0  0  0
  -26.1080  -29.4940   20.7390 C   0  0  0  0  0  0  0  0  0  0  0  0
  -27.3070  -28.7290   20.7490 C   0  0  0  0  0  3  0  0  0  0  0  0
  -26.1970  -26.9780   19.4940 C   0  0  0  0  0  3  0  0  0  0  0  0
  -25.0080  -27.7340   19.4760 C   0  0  0  0  0  3  0  0  0  0  0  0
  -23.7130  -29.8370   20.1380 C   0  0  0  0  0  2  0  0  0  0  0  0
  -24.7050  -31.0920   22.1020 N   0  0  0  0  0  0  0  0  0  0  0  0
  -23.5090  -32.1130   23.7370 O   0  0  0  0  0  0  0  0  0  0  0  0
  -22.8010  -29.4390   22.4530 C   0  0  0  0  0  0  0  0  0  0  0  0
  -21.4830  -29.2350   22.2860 N   0  0  0  0  0  0  0  0  0  0  0  0
  -23.4750  -28.8130   23.2740 O   0  0  0  0  0  0  0  0  0  0  0  0
  -21.0010  -29.7920   21.5970 H   0  0  0  0  0  0  0  0  0  0  0  0
  -18.1160  -27.9820   22.7060 C   0  0  0  0  0  0  0  0  0  0  0  0
  -20.6660  -28.2690   23.0240 C   0  0  0  0  0  3  0  0  0  0  0  0
  -20.7970  -26.8530   22.4190 C   0  0  0  0  0  2  0  0  0  0  0  0
  -19.7170  -26.5370   21.3800 C   0  0  0  0  0  2  0  0  0  0  0  0
  -18.3240  -26.6500   22.0050 C   0  0  0  0  0  2  0  0  0  0  0  0
  -19.2170  -28.7490   23.1710 C   0  0  0  0  0  0  0  0  0  0  0  0
  -18.9700  -29.9950   23.7890 C   0  0  0  0  0  3  0  0  0  0  0  0
  -17.6560  -30.4740   23.9450 C   0  0  0  0  0  3  0  0  0  0  0  0
  -16.5710  -29.7030   23.4940 C   0  0  0  0  0  3  0  0  0  0  0  0
  -16.8010  -28.4610   22.8800 C   0  0  0  0  0  3  0  0  0  0  0  0
  -25.8650  -32.5200   23.8750 C   0  0  0  0  0  3  0  0  0  0  0  0
  -26.3620  -31.7560   25.1620 C   0  0  1  0  0  0  0  0  0  0  0  0
  -25.2460  -31.4900   26.1990 C   0  0  0  0  0  1  0  0  0  0  0  0
  -26.9910  -30.3980   24.7700 C   0  0  0  0  0  1  0  0  0  0  0  0
  -27.4750  -32.5690   25.8600 C   0  0  0  0  0  1  0  0  0  0  0  0
  -25.5290  -33.9150   24.1950 N   0  0  0  0  0  0  0  0  0  0  0  0
  -25.8610  -34.9690   23.4380 C   0  0  0  0  0  0  0  0  0  0  0  0
  -26.5460  -34.8700   22.4160 O   0  0  0  0  0  0  0  0  0  0  0  0
  -24.9120  -34.0600   24.9800 H   0  0  0  0  0  0  0  0  0  0  0  0
  -24.1030  -36.7290   23.0750 C   0  0  0  0  0  1  0  0  0  0  0  0
  -25.3520  -36.3520   23.8880 C   0  0  0  0  0  3  0  0  0  0  0  0
  -27.4680  -37.2780   24.7220 C   0  0  0  0  0  1  0  0  0  0  0  0
  -26.3680  -37.4210   23.7700 N   0  0  0  0  0  0  0  0  0  0  0  0
  -25.9490  -38.3370   23.9000 H   0  0  0  0  0  0  0  0  0  0  0  0
  1  3  2  0
  2 51  1  0
  2  1  1  0
  4  2  1  0
  5  6  1  0
  5  7  1  0
  6  8  1  0
  7  1  1  0
  7  9  1  0
  8 12  1  0
  8  9  1  0
  9 10  1  0
 11  9  1  0
 13 19  1  0
 13 21  1  0
 14 19  1  0
 15 16  1  0
 15 14  1  0
 17 16  1  0
 17 26  1  0
 17 18  1  0
 19 18  1  0
 20 13  2  0
 21 12  1  0
 21 22  1  0
 23 24  2  0
 24 43  1  0
 25 24  1  0
 25 28  1  0
 26 27  1  0
 26 23  1  0
 27 25  2  0
 28 29  1  0
 29 30  2  0
 31 34  1  0
 31 30  1  0
 32 31  2  0
 33 32  1  0
 33 28  2  0
 34 35  1  0
 35 40  2  0
 35 36  1  0
 36 37  2  0
 37 38  1  0
 38 42  1  0
 39 38  2  0
 40 39  1  0
 41 40  1  0
 43 44  1  0
 44 47  1  0
 44 46  1  0
 45 43  2  0
 48 23  1  0
 48 49  1  0
 50 48  1  0
 51 52  1  0
 53 55  1  0
 53 52  1  0
 54 65  2  0
 55 60  1  0
 56 64  1  0
 56 66  1  0
 57 63  1  0
 57 59  1  0
 58 64  1  0
 59 60  2  0
 59 58  1  0
 61 55  2  0
 62 61  1  0
 62 57  2  0
 63 56  1  0
 64 54  1  0
 66 68  2  0
 67 66  1  0
 69 67  1  0
 70 79  2  0
 70 75  1  0
 71 67  1  0
 71 75  1  0
 72 71  1  0
 73 74  1  0
 73 72  1  0
 74 70  1  0
 75 76  2  0
 76 77  1  0
 78 77  2  0
 79 78  1  0
 80 54  1  0
 80 85  1  0
 80 81  1  0
 81 84  1  1
 81 82  1  0
 83 81  1  0
 85 88  1  0
 86 90  1  0
 86 85  1  0
 87 86  2  0
 90 89  1  0
 92 90  1  0
 92 93  1  0
 92 91  1  0
M  ISO  4  13 100  21 100  52 101  53 101
M  END
>  <TORSDO>  (51) 
F 20

>  <SCORE>  (51) 
-13.431

>  <name>  (51) 
50

>  <ligand_id>  (51) 
50

>  <original_smiles>  (51) 
[H]c1c([H])c([H])c2c(c1[H])C([H])([H])C([H])([H])C([H])([H])C2([H])N([H])C(=O)C1([H])N(C(=O)C([H])(N([H])C(=O)C([H])(N([H])C([H])([H])[H])C([H])([H])[H])C(C([H])([H])[H])(C([H])([H])[H])C([H])([H])[H])C([H])([H])c2c([H])c(OC([H])([H])C([H])([H])N([H])C(=O)C3([H])C([H])([H])C([H])([H])C([H])(C([H])([H])N([H])C(=O)N4C([H])([H])C([H])([H])C([H])([H])C([H])(n5nc(-c6c([H])c([H])c(Oc7c([H])c([H])c(F)c([H])c7F)c([H])c6[H])c(C(=O)N([H])[H])c5N([H])[H])C4([H])[H])[N+]3([H])[H])c([H])c([H])c2C1([H])[H]

>  <smiles>  (51) 
[H]c1c([H])c([H])c2c(c1[H])C([H])([H])C([H])([H])C([H])([H])C2([H])N([H])C(=O)C1([H])N(C(=O)C([H])(N([H])C(=O)C([H])(N([H])C([H])([H])[H])C([H])([H])[H])C(C([H])([H])[H])(C([H])([H])[H])C([H])([H])[H])C([H])([H])c2c([H])c(OC([H])([H])C([H])([H])N([H])C(=O)C3([H])C([H])([H])C([H])([H])C([H])(C([H])([H])N([H])C(=O)N4C([H])([H])C([H])([H])C([H])([H])C([H])(n5nc(-c6c([H])c([H])c(Oc7c([H])c([H])c(F)c([H])c7F)c([H])c6[H])c(C(=O)N([H])[H])c5N([H])[H])C4([H])[H])[N+]3([H])[H])c([H])c([H])c2C1([H])[H]

$$$$
51:0:0
     RDKit          3D

 90 98  0  0  1  0  0  0  0  0999 V2000
  -28.1910  -23.0760   20.2300 C   0  0  0  0  0  0  0  0  0  0  0  0
  -30.4730  -22.2990   20.6380 C   0  0  0  0  0  1  0  0  0  0  0  0
  -29.1020  -21.9370   20.2850 N   0  0  0  0  0  0  0  0  0  0  0  0
  -27.0180  -22.8680   20.5590 O   0  0  0  0  0  0  0  0  0  0  0  0
  -27.9230  -18.7910   18.3720 C   0  0  0  0  0  3  0  0  0  0  0  0
  -28.5590  -17.6520   18.9190 C   0  0  0  0  0  3  0  0  0  0  0  0
  -28.0710  -20.1000   18.8910 C   0  0  0  0  0  3  0  0  0  0  0  0
  -29.5400  -19.1370   20.5640 C   0  0  0  0  0  3  0  0  0  0  0  0
  -29.3880  -17.7140   20.0590 C   0  0  0  0  0  0  0  0  0  0  0  0
  -28.9040  -20.3970   19.9920 C   0  0  0  0  0  0  0  0  0  0  0  0
  -30.4610  -15.1140   20.2500 C   0  0  0  0  0  0  0  0  0  0  0  0
  -30.3880  -12.7130   19.3680 C   0  0  0  0  0  2  0  0  0  0  0  0
  -29.4600  -12.6280   18.1310 C   0  0  0  0  0  2  0  0  0  0  0  0
  -27.9990  -12.4010   18.5610 C   0  0  0  0  0  2  0  0  0  0  0  0
  -27.5840  -13.3290   19.7310 C   0  0  0  0  0  3  0  0  0  0  0  0
  -28.6380  -13.3760   20.8610 C   0  0  0  0  0  2  0  0  0  0  0  0
  -29.9020  -13.8220   20.2570 N   0  0  0  0  0  0  0  0  0  0  0  0
  -31.6290  -15.1760   19.8460 O   0  0  0  0  0  0  0  0  0  0  0  0
  -29.7440  -16.3040   20.6560 N   0  0  0  0  0  0  0  0  0  0  0  0
  -29.0110  -16.0090   21.2850 H   0  0  0  0  0  0  0  0  0  0  0  0
  -25.2070  -13.8950   20.4740 C   0  0  0  0  0  0  0  0  0  0  0  0
  -24.1450  -13.1180   20.8480 C   0  0  0  0  0  0  0  0  0  0  0  0
  -24.6140  -11.7680   20.8200 C   0  0  0  0  0  0  0  0  0  0  0  0
  -26.2510  -13.0200   20.2320 N   0  0  0  0  0  0  0  0  0  0  0  0
  -25.9050  -11.7340   20.5060 N   0  0  0  0  0  0  0  0  0  0  0  0
  -23.8890  -10.5040   21.0170 C   0  0  0  0  0  0  0  0  0  0  0  0
  -24.3230   -9.5390   21.9520 C   0  0  0  0  0  3  0  0  0  0  0  0
  -23.5960   -8.3430   22.1360 C   0  0  0  0  0  3  0  0  0  0  0  0
  -22.4200   -8.1040   21.3860 C   0  0  0  0  0  0  0  0  0  0  0  0
  -22.0050   -9.0580   20.4400 C   0  0  0  0  0  3  0  0  0  0  0  0
  -22.7330  -10.2440   20.2530 C   0  0  0  0  0  3  0  0  0  0  0  0
  -21.6650   -6.9600   21.4800 O   0  0  0  0  0  0  0  0  0  0  0  0
  -21.6190   -6.2200   22.6350 C   0  0  0  0  0  0  0  0  0  0  0  0
  -21.1940   -6.7780   23.8610 C   0  0  0  0  0  3  0  0  0  0  0  0
  -21.0950   -5.9650   25.0070 C   0  0  0  0  0  3  0  0  0  0  0  0
  -21.4100   -4.5960   24.9300 C   0  0  0  0  0  0  0  0  0  0  0  0
  -21.8290   -4.0370   23.7090 C   0  0  0  0  0  3  0  0  0  0  0  0
  -21.9290   -4.8470   22.5650 C   0  0  0  0  0  0  0  0  0  0  0  0
  -22.3120   -4.3000   21.3850 F   0  0  0  0  0  0  0  0  0  0  0  0
  -21.3080   -3.8120   26.0280 F   0  0  0  0  0  0  0  0  0  0  0  0
  -22.7480  -13.5940   21.1190 C   0  0  0  0  0  0  0  0  0  0  0  0
  -22.0230  -12.9010   21.9890 N   0  0  0  0  0  0  0  0  0  0  0  0
  -22.3100  -14.6170   20.5940 O   0  0  0  0  0  0  0  0  0  0  0  0
  -22.3900  -12.0750   22.4360 H   0  0  0  0  0  0  0  0  0  0  0  0
  -21.0850  -13.2040   22.2130 H   0  0  0  0  0  0  0  0  0  0  0  0
  -25.3660  -15.2650   20.2930 N   0  0  0  0  0  0  0  0  0  0  0  0
  -24.5960  -15.9160   20.4090 H   0  0  0  0  0  0  0  0  0  0  0  0
  -26.2100  -15.7090   19.9570 H   0  0  0  0  0  0  0  0  0  0  0  0
  -28.4860  -24.6620   19.6790 C   0  0  0  0  0  2  0  0  0  0  0  0
  -28.2390  -26.0720   20.3820 O   0  0  0  0  0  0  0  0  0  0  0  0
  -24.6270  -31.8730   23.2160 C   0  0  0  0  0  0  0  0  0  0  0  0
  -27.2010  -27.0840   20.2060 C   0  0  0  0  0  0  0  0  0  0  0  0
  -23.4280  -30.4660   21.5840 C   0  0  0  0  0  3  0  0  0  0  0  0
  -24.8770  -28.8730   20.1570 C   0  0  0  0  0  0  0  0  0  0  0  0
  -25.9840  -30.7130   21.4240 C   0  0  0  0  0  2  0  0  0  0  0  0
  -26.0550  -29.3110   20.7740 C   0  0  0  0  0  0  0  0  0  0  0  0
  -27.2070  -28.4280   20.7870 C   0  0  0  0  0  3  0  0  0  0  0  0
  -26.0030  -26.7670   19.5320 C   0  0  0  0  0  3  0  0  0  0  0  0
  -24.8690  -27.6200   19.5200 C   0  0  0  0  0  3  0  0  0  0  0  0
  -23.6490  -29.7760   20.2090 C   0  0  0  0  0  2  0  0  0  0  0  0
  -24.7000  -31.0430   22.1290 N   0  0  0  0  0  0  0  0  0  0  0  0
  -23.5410  -32.1610   23.7430 O   0  0  0  0  0  0  0  0  0  0  0  0
  -22.7470  -29.4690   22.5580 C   0  0  0  0  0  0  0  0  0  0  0  0
  -21.4170  -29.3040   22.4400 N   0  0  0  0  0  0  0  0  0  0  0  0
  -23.4200  -28.8460   23.3830 O   0  0  0  0  0  0  0  0  0  0  0  0
  -20.9290  -29.8560   21.7490 H   0  0  0  0  0  0  0  0  0  0  0  0
  -18.0370  -28.1040   22.9650 C   0  0  0  0  0  0  0  0  0  0  0  0
  -20.5980  -28.3720   23.2200 C   0  0  0  0  0  3  0  0  0  0  0  0
  -20.6980  -26.9360   22.6530 C   0  0  0  0  0  2  0  0  0  0  0  0
  -19.5940  -26.6070   21.6440 C   0  0  0  0  0  2  0  0  0  0  0  0
  -18.2140  -26.7530   22.2910 C   0  0  0  0  0  2  0  0  0  0  0  0
  -19.1570  -28.8720   23.3860 C   0  0  0  0  0  0  0  0  0  0  0  0
  -18.9360  -30.1340   23.9760 C   0  0  0  0  0  3  0  0  0  0  0  0
  -17.6310  -30.6310   24.1490 C   0  0  0  0  0  3  0  0  0  0  0  0
  -16.5270  -29.8620   23.7420 C   0  0  0  0  0  3  0  0  0  0  0  0
  -16.7300  -28.6000   23.1550 C   0  0  0  0  0  3  0  0  0  0  0  0
  -25.9040  -32.5170   23.8390 C   0  0  0  0  0  3  0  0  0  0  0  0
  -25.5870  -33.9160   24.1710 N   0  0  0  0  0  0  0  0  0  0  0  0
  -25.9140  -34.9750   23.4190 C   0  0  0  0  0  0  0  0  0  0  0  0
  -26.5790  -34.8770   22.3840 O   0  0  0  0  0  0  0  0  0  0  0  0
  -24.9950  -34.0660   24.9750 H   0  0  0  0  0  0  0  0  0  0  0  0
  -24.1810  -36.7730   23.0890 C   0  0  0  0  0  1  0  0  0  0  0  0
  -25.4300  -36.3630   23.8870 C   0  0  0  0  0  3  0  0  0  0  0  0
  -27.5690  -37.2510   24.7040 C   0  0  0  0  0  1  0  0  0  0  0  0
  -26.4600  -37.4180   23.7690 N   0  0  0  0  0  0  0  0  0  0  0  0
  -26.0530  -38.3380   23.9210 H   0  0  0  0  0  0  0  0  0  0  0  0
  -26.4190  -31.7560   25.1250 C   0  0  1  0  0  0  0  0  0  0  0  0
  -25.3240  -31.5280   26.1940 C   0  0  0  0  0  1  0  0  0  0  0  0
  -27.0020  -30.3750   24.7510 C   0  0  0  0  0  1  0  0  0  0  0  0
  -27.5680  -32.5560   25.7820 C   0  0  0  0  0  1  0  0  0  0  0  0
  1  3  1  0
  1  4  2  0
  3  2  1  0
  5  7  2  0
  5  6  1  0
  6  9  2  0
  7 10  1  0
  9  8  1  0
  9 19  1  0
 10  3  1  0
 10  8  2  0
 11 17  1  0
 11 19  1  0
 12 17  1  0
 13 14  1  0
 13 12  1  0
 15 14  1  0
 15 24  1  0
 15 16  1  0
 17 16  1  0
 18 11  2  0
 19 20  1  0
 21 22  2  0
 22 41  1  0
 23 22  1  0
 23 26  1  0
 24 21  1  0
 24 25  1  0
 25 23  2  0
 26 27  1  0
 27 28  2  0
 29 32  1  0
 29 28  1  0
 30 29  2  0
 31 30  1  0
 31 26  2  0
 32 33  1  0
 33 34  1  0
 34 35  2  0
 36 35  1  0
 36 40  1  0
 37 36  2  0
 38 33  2  0
 38 37  1  0
 39 38  1  0
 41 42  1  0
 42 45  1  0
 42 44  1  0
 43 41  2  0
 46 47  1  0
 46 21  1  0
 48 46  1  0
 49  1  1  0
 49 50  1  0
 51 62  2  0
 52 50  1  0
 52 57  1  0
 53 61  1  0
 53 63  1  0
 54 60  1  0
 54 56  1  0
 55 61  1  0
 56 57  2  0
 56 55  1  0
 58 52  2  0
 59 58  1  0
 59 54  2  0
 60 53  1  0
 61 51  1  0
 63 65  2  0
 64 63  1  0
 66 64  1  0
 67 76  2  0
 67 72  1  0
 68 64  1  0
 68 72  1  0
 69 68  1  0
 70 71  1  0
 70 69  1  0
 71 67  1  0
 72 73  2  0
 73 74  1  0
 75 74  2  0
 76 75  1  0
 77 51  1  0
 77 78  1  0
 77 87  1  0
 78 81  1  0
 79 83  1  0
 79 78  1  0
 80 79  2  0
 83 82  1  0
 85 83  1  0
 85 86  1  0
 85 84  1  0
 87 90  1  1
 87 88  1  0
 89 87  1  0
M  ISO  4  11 100  19 100  49 101  50 101
M  END
>  <TORSDO>  (52) 
F 18

>  <SCORE>  (52) 
-15.527

>  <name>  (52) 
51

>  <ligand_id>  (52) 
51

>  <original_smiles>  (52) 
[H]c1c([H])c(N([H])C(=O)N2C([H])([H])C([H])([H])C([H])([H])C([H])(n3nc(-c4c([H])c([H])c(Oc5c([H])c([H])c(F)c([H])c5F)c([H])c4[H])c(C(=O)N([H])[H])c3N([H])[H])C2([H])[H])c([H])c(N(C(=O)C([H])([H])Oc2c([H])c([H])c3c(c2[H])C([H])([H])N(C(=O)C([H])(N([H])C(=O)C([H])(N([H])C([H])([H])[H])C([H])([H])[H])C(C([H])([H])[H])(C([H])([H])[H])C([H])([H])[H])C([H])(C(=O)N([H])C2([H])c4c([H])c([H])c([H])c([H])c4C([H])([H])C([H])([H])C2([H])[H])C3([H])[H])C([H])([H])[H])c1[H]

>  <smiles>  (52) 
[H]c1c([H])c(N([H])C(=O)N2C([H])([H])C([H])([H])C([H])([H])C([H])(n3nc(-c4c([H])c([H])c(Oc5c([H])c([H])c(F)c([H])c5F)c([H])c4[H])c(C(=O)N([H])[H])c3N([H])[H])C2([H])[H])c([H])c(N(C(=O)C([H])([H])Oc2c([H])c([H])c3c(c2[H])C([H])([H])N(C(=O)C([H])(N([H])C(=O)C([H])(N([H])C([H])([H])[H])C([H])([H])[H])C(C([H])([H])[H])(C([H])([H])[H])C([H])([H])[H])C([H])(C(=O)N([H])C2([H])c4c([H])c([H])c([H])c([H])c4C([H])([H])C([H])([H])C2([H])[H])C3([H])[H])C([H])([H])[H])c1[H]

$$$$
52:0:0
     RDKit          3D

 91 99  0  0  1  0  0  0  0  0999 V2000
  -28.8910  -22.3310   19.7750 C   0  0  0  0  0  0  0  0  0  0  0  0
  -29.0780  -21.1130   20.4280 N   0  0  0  0  0  0  0  0  0  0  0  0
  -28.9360  -22.3880   18.5440 O   0  0  0  0  0  0  0  0  0  0  0  0
  -28.8410  -21.1230   21.4110 H   0  0  0  0  0  0  0  0  0  0  0  0
  -31.1130  -18.7000   18.2970 C   0  0  0  0  0  3  0  0  0  0  0  0
  -30.5140  -19.8630   18.8100 C   0  0  0  0  0  3  0  0  0  0  0  0
  -30.8870  -17.4400   18.8760 C   0  0  0  0  0  3  0  0  0  0  0  0
  -29.4310  -18.5020   20.5120 C   0  0  0  0  0  3  0  0  0  0  0  0
  -29.6380  -19.8240   19.9210 C   0  0  0  0  0  0  0  0  0  0  0  0
  -30.0580  -17.2780   20.0110 C   0  0  0  0  0  0  0  0  0  0  0  0
  -30.5920  -14.7420   20.3330 C   0  0  0  0  0  0  0  0  0  0  0  0
  -30.3690  -12.4650   19.3540 C   0  0  0  0  0  2  0  0  0  0  0  0
  -29.4350  -12.5560   18.1270 C   0  0  0  0  0  2  0  0  0  0  0  0
  -27.9640  -12.3970   18.5550 C   0  0  0  0  0  2  0  0  0  0  0  0
  -27.5960  -13.2820   19.7760 C   0  0  0  0  0  3  0  0  0  0  0  0
  -28.6540  -13.1890   20.8970 C   0  0  0  0  0  2  0  0  0  0  0  0
  -29.9540  -13.5230   20.3040 N   0  0  0  0  0  0  0  0  0  0  0  0
  -31.7850  -14.8020   20.0220 O   0  0  0  0  0  0  0  0  0  0  0  0
  -29.8430  -15.8970   20.5370 N   0  0  0  0  0  0  0  0  0  0  0  0
  -28.9470  -15.7380   20.9740 H   0  0  0  0  0  0  0  0  0  0  0  0
  -25.2100  -13.8760   20.5050 C   0  0  0  0  0  0  0  0  0  0  0  0
  -24.1440  -13.1040   20.8780 C   0  0  0  0  0  0  0  0  0  0  0  0
  -24.6050  -11.7520   20.8520 C   0  0  0  0  0  0  0  0  0  0  0  0
  -26.2520  -12.9950   20.2690 N   0  0  0  0  0  0  0  0  0  0  0  0
  -25.8960  -11.7130   20.5420 N   0  0  0  0  0  0  0  0  0  0  0  0
  -23.8790  -10.4910   21.0460 C   0  0  0  0  0  0  0  0  0  0  0  0
  -24.3170   -9.5200   21.9730 C   0  0  0  0  0  3  0  0  0  0  0  0
  -23.5890   -8.3240   22.1550 C   0  0  0  0  0  3  0  0  0  0  0  0
  -22.4080   -8.0910   21.4110 C   0  0  0  0  0  0  0  0  0  0  0  0
  -21.9880   -9.0510   20.4730 C   0  0  0  0  0  3  0  0  0  0  0  0
  -22.7160  -10.2380   20.2890 C   0  0  0  0  0  3  0  0  0  0  0  0
  -21.6510   -6.9480   21.5030 O   0  0  0  0  0  0  0  0  0  0  0  0
  -21.6180   -6.1960   22.6500 C   0  0  0  0  0  0  0  0  0  0  0  0
  -21.2230   -6.7440   23.8890 C   0  0  0  0  0  3  0  0  0  0  0  0
  -21.1360   -5.9190   25.0280 C   0  0  0  0  0  3  0  0  0  0  0  0
  -21.4370   -4.5470   24.9290 C   0  0  0  0  0  0  0  0  0  0  0  0
  -21.8250   -3.9980   23.6940 C   0  0  0  0  0  3  0  0  0  0  0  0
  -21.9120   -4.8210   22.5570 C   0  0  0  0  0  0  0  0  0  0  0  0
  -22.2670   -4.2830   21.3660 F   0  0  0  0  0  0  0  0  0  0  0  0
  -21.3470   -3.7530   26.0210 F   0  0  0  0  0  0  0  0  0  0  0  0
  -22.7470  -13.5820   21.1470 C   0  0  0  0  0  0  0  0  0  0  0  0
  -22.0180  -12.8910   22.0150 N   0  0  0  0  0  0  0  0  0  0  0  0
  -22.3110  -14.6070   20.6220 O   0  0  0  0  0  0  0  0  0  0  0  0
  -22.3830  -12.0640   22.4640 H   0  0  0  0  0  0  0  0  0  0  0  0
  -21.0800  -13.1940   22.2360 H   0  0  0  0  0  0  0  0  0  0  0  0
  -25.3750  -15.2460   20.3230 N   0  0  0  0  0  0  0  0  0  0  0  0
  -24.6060  -15.9000   20.4260 H   0  0  0  0  0  0  0  0  0  0  0  0
  -26.2170  -15.6800   19.9680 H   0  0  0  0  0  0  0  0  0  0  0  0
  -28.5550  -23.7030   20.5320 C   0  0  0  0  0  3  0  0  0  0  0  0
  -28.4230  -25.0580   19.6470 C   0  0  0  0  0  3  0  0  0  0  0  0
  -28.3390  -26.4400   20.2340 O   0  0  0  0  0  0  0  0  0  0  0  0
  -24.6120  -31.8740   23.2300 C   0  0  0  0  0  0  0  0  0  0  0  0
  -27.2070  -27.2820   20.1600 C   0  0  0  0  0  0  0  0  0  0  0  0
  -23.4020  -30.4770   21.5910 C   0  0  0  0  0  3  0  0  0  0  0  0
  -24.8460  -28.9230   20.1580 C   0  0  0  0  0  0  0  0  0  0  0  0
  -25.9450  -30.7830   21.4050 C   0  0  0  0  0  2  0  0  0  0  0  0
  -26.0180  -29.4040   20.7520 C   0  0  0  0  0  0  0  0  0  0  0  0
  -27.1970  -28.5940   20.7440 C   0  0  0  0  0  3  0  0  0  0  0  0
  -26.0030  -26.8610   19.5520 C   0  0  0  0  0  3  0  0  0  0  0  0
  -24.8430  -27.6600   19.5480 C   0  0  0  0  0  3  0  0  0  0  0  0
  -23.6120  -29.8020   20.2090 C   0  0  0  0  0  2  0  0  0  0  0  0
  -24.6720  -31.0640   22.1310 N   0  0  0  0  0  0  0  0  0  0  0  0
  -23.5300  -32.1520   23.7670 O   0  0  0  0  0  0  0  0  0  0  0  0
  -22.7400  -29.4620   22.5530 C   0  0  0  0  0  0  0  0  0  0  0  0
  -21.4130  -29.2840   22.4310 N   0  0  0  0  0  0  0  0  0  0  0  0
  -23.4190  -28.8360   23.3700 O   0  0  0  0  0  0  0  0  0  0  0  0
  -20.9230  -29.8430   21.7460 H   0  0  0  0  0  0  0  0  0  0  0  0
  -18.0380  -28.0840   22.9330 C   0  0  0  0  0  0  0  0  0  0  0  0
  -20.5960  -28.3480   23.2030 C   0  0  0  0  0  3  0  0  0  0  0  0
  -20.6990  -26.9160   22.6290 C   0  0  0  0  0  2  0  0  0  0  0  0
  -19.5980  -26.5900   21.6160 C   0  0  0  0  0  2  0  0  0  0  0  0
  -18.2160  -26.7330   22.2600 C   0  0  0  0  0  2  0  0  0  0  0  0
  -19.1550  -28.8490   23.3610 C   0  0  0  0  0  0  0  0  0  0  0  0
  -18.9350  -30.1130   23.9500 C   0  0  0  0  0  3  0  0  0  0  0  0
  -17.6280  -30.6110   24.1170 C   0  0  0  0  0  3  0  0  0  0  0  0
  -16.5260  -29.8440   23.7040 C   0  0  0  0  0  3  0  0  0  0  0  0
  -16.7310  -28.5820   23.1170 C   0  0  0  0  0  3  0  0  0  0  0  0
  -25.8960  -32.5050   23.8490 C   0  0  0  0  0  3  0  0  0  0  0  0
  -26.4130  -31.7350   25.1260 C   0  0  1  0  0  0  0  0  0  0  0  0
  -25.3230  -31.5010   26.1970 C   0  0  0  0  0  1  0  0  0  0  0  0
  -26.9910  -30.3540   24.7370 C   0  0  0  0  0  1  0  0  0  0  0  0
  -27.5650  -32.5290   25.7850 C   0  0  0  0  0  1  0  0  0  0  0  0
  -25.5860  -33.9040   24.1810 N   0  0  0  0  0  0  0  0  0  0  0  0
  -25.9160  -34.9600   23.4240 C   0  0  0  0  0  0  0  0  0  0  0  0
  -26.5810  -34.8590   22.3900 O   0  0  0  0  0  0  0  0  0  0  0  0
  -24.9930  -34.0560   24.9830 H   0  0  0  0  0  0  0  0  0  0  0  0
  -24.1840  -36.7560   23.0850 C   0  0  0  0  0  1  0  0  0  0  0  0
  -25.4300  -36.3470   23.8880 C   0  0  0  0  0  3  0  0  0  0  0  0
  -27.5690  -37.2300   24.7090 C   0  0  0  0  0  1  0  0  0  0  0  0
  -26.4610  -37.4010   23.7750 N   0  0  0  0  0  0  0  0  0  0  0  0
  -26.0540  -38.3200   23.9310 H   0  0  0  0  0  0  0  0  0  0  0  0
  1  2  1  0
  1 49  1  0
  2  4  1  0
  3  1  2  0
  5  6  2  0
  5  7  1  0
  6  9  1  0
  7 10  2  0
  9  2  1  0
  9  8  2  0
 10  8  1  0
 10 19  1  0
 11 19  1  0
 12 17  1  0
 13 14  1  0
 13 12  1  0
 15 14  1  0
 15 24  1  0
 15 16  1  0
 17 11  1  0
 17 16  1  0
 18 11  2  0
 19 20  1  0
 21 22  2  0
 22 41  1  0
 23 22  1  0
 23 26  1  0
 24 21  1  0
 24 25  1  0
 25 23  2  0
 26 27  1  0
 27 28  2  0
 29 32  1  0
 29 28  1  0
 30 29  2  0
 31 30  1  0
 31 26  2  0
 32 33  1  0
 33 34  1  0
 34 35  2  0
 36 35  1  0
 36 40  1  0
 37 36  2  0
 38 33  2  0
 38 37  1  0
 39 38  1  0
 41 42  1  0
 42 45  1  0
 42 44  1  0
 43 41  2  0
 46 47  1  0
 46 21  1  0
 48 46  1  0
 50 51  1  0
 50 49  2  0
 52 63  2  0
 53 51  1  0
 53 58  1  0
 54 62  1  0
 54 64  1  0
 55 61  1  0
 55 57  1  0
 56 62  1  0
 57 56  1  0
 58 57  2  0
 59 53  2  0
 60 59  1  0
 60 55  2  0
 61 54  1  0
 62 52  1  0
 64 66  2  0
 65 64  1  0
 67 65  1  0
 68 77  2  0
 68 73  1  0
 69 65  1  0
 69 73  1  0
 70 69  1  0
 71 72  1  0
 71 70  1  0
 72 68  1  0
 73 74  2  0
 74 75  1  0
 76 75  2  0
 77 76  1  0
 78 52  1  0
 78 83  1  0
 78 79  1  0
 79 82  1  1
 79 80  1  0
 81 79  1  0
 83 86  1  0
 84 88  1  0
 84 83  1  0
 85 84  2  0
 88 87  1  0
 90 88  1  0
 90 91  1  0
 90 89  1  0
M  ISO  4  11 100  19 100  50 101  51 101
M  END
>  <TORSDO>  (53) 
F 19

>  <SCORE>  (53) 
-14.199

>  <name>  (53) 
52

>  <ligand_id>  (53) 
52

>  <original_smiles>  (53) 
[H]c1c([H])c(N([H])C(=O)N2C([H])([H])C([H])([H])C([H])([H])C([H])(n3nc(-c4c([H])c([H])c(Oc5c([H])c([H])c(F)c([H])c5F)c([H])c4[H])c(C(=O)N([H])[H])c3N([H])[H])C2([H])[H])c([H])c(N([H])C(=O)C([H])([H])C([H])([H])Oc2c([H])c([H])c3c(c2[H])C([H])([H])N(C(=O)C([H])(N([H])C(=O)C([H])(N([H])C([H])([H])[H])C([H])([H])[H])C(C([H])([H])[H])(C([H])([H])[H])C([H])([H])[H])C([H])(C(=O)N([H])C2([H])c4c([H])c([H])c([H])c([H])c4C([H])([H])C([H])([H])C2([H])[H])C3([H])[H])c1[H]

>  <smiles>  (53) 
[H]c1c([H])c(N([H])C(=O)N2C([H])([H])C([H])([H])C([H])([H])C([H])(n3nc(-c4c([H])c([H])c(Oc5c([H])c([H])c(F)c([H])c5F)c([H])c4[H])c(C(=O)N([H])[H])c3N([H])[H])C2([H])[H])c([H])c(N([H])C(=O)C([H])([H])C([H])([H])Oc2c([H])c([H])c3c(c2[H])C([H])([H])N(C(=O)C([H])(N([H])C(=O)C([H])(N([H])C([H])([H])[H])C([H])([H])[H])C(C([H])([H])[H])(C([H])([H])[H])C([H])([H])[H])C([H])(C(=O)N([H])C2([H])c4c([H])c([H])c([H])c([H])c4C([H])([H])C([H])([H])C2([H])[H])C3([H])[H])c1[H]

$$$$
53:0:0
     RDKit          3D

 99107  0  0  1  0  0  0  0  0999 V2000
  -28.6660  -21.6210   19.7820 C   0  0  0  0  0  3  0  0  0  0  0  0
  -30.4070  -23.4820   20.2640 C   0  0  0  0  0  1  0  0  0  0  0  0
  -28.6340  -23.0250   21.9760 C   0  0  0  0  0  1  0  0  0  0  0  0
  -28.9130  -23.1820   20.4720 C   0  0  2  0  0  0  0  0  0  0  0  0
  -28.0800  -24.6160   19.9770 C   0  0  0  0  0  2  0  0  0  0  0  0
  -28.2940  -26.1440   20.3540 O   0  0  0  0  0  0  0  0  0  0  0  0
  -24.6480  -31.9280   23.2760 C   0  0  0  0  0  0  0  0  0  0  0  0
  -27.2530  -27.1620   20.2710 C   0  0  0  0  0  0  0  0  0  0  0  0
  -23.4660  -30.5220   21.6340 C   0  0  0  0  0  3  0  0  0  0  0  0
  -24.9280  -28.9430   20.2180 C   0  0  0  0  0  0  0  0  0  0  0  0
  -26.0240  -30.7760   21.4940 C   0  0  0  0  0  2  0  0  0  0  0  0
  -26.1050  -29.3770   20.8420 C   0  0  0  0  0  0  0  0  0  0  0  0
  -27.2650  -28.5040   20.8500 C   0  0  0  0  0  3  0  0  0  0  0  0
  -26.0500  -26.8460   19.6020 C   0  0  0  0  0  3  0  0  0  0  0  0
  -24.9190  -27.6920   19.5810 C   0  0  0  0  0  3  0  0  0  0  0  0
  -23.7010  -29.8430   20.2580 C   0  0  0  0  0  2  0  0  0  0  0  0
  -24.7320  -31.1000   22.1890 N   0  0  0  0  0  0  0  0  0  0  0  0
  -23.5560  -32.2130   23.7920 O   0  0  0  0  0  0  0  0  0  0  0  0
  -22.7780  -29.5210   22.5950 C   0  0  0  0  0  0  0  0  0  0  0  0
  -21.4500  -29.3540   22.4610 N   0  0  0  0  0  0  0  0  0  0  0  0
  -23.4410  -28.8980   23.4270 O   0  0  0  0  0  0  0  0  0  0  0  0
  -20.9700  -29.9140   21.7710 H   0  0  0  0  0  0  0  0  0  0  0  0
  -18.0600  -28.1600   22.9510 C   0  0  0  0  0  0  0  0  0  0  0  0
  -20.6200  -28.4180   23.2250 C   0  0  0  0  0  3  0  0  0  0  0  0
  -20.7200  -26.9860   22.6520 C   0  0  0  0  0  2  0  0  0  0  0  0
  -19.6200  -26.6650   21.6350 C   0  0  0  0  0  2  0  0  0  0  0  0
  -18.2370  -26.8120   22.2740 C   0  0  0  0  0  2  0  0  0  0  0  0
  -19.1790  -28.9220   23.3830 C   0  0  0  0  0  0  0  0  0  0  0  0
  -18.9590  -30.1830   23.9790 C   0  0  0  0  0  3  0  0  0  0  0  0
  -17.6540  -30.6820   24.1480 C   0  0  0  0  0  3  0  0  0  0  0  0
  -16.5500  -29.9180   23.7310 C   0  0  0  0  0  3  0  0  0  0  0  0
  -16.7530  -28.6590   23.1370 C   0  0  0  0  0  3  0  0  0  0  0  0
  -25.9200  -32.5700   23.9120 C   0  0  0  0  0  3  0  0  0  0  0  0
  -25.6040  -33.9750   24.2230 N   0  0  0  0  0  0  0  0  0  0  0  0
  -25.9450  -35.0220   23.4600 C   0  0  0  0  0  0  0  0  0  0  0  0
  -26.6210  -34.9090   22.4350 O   0  0  0  0  0  0  0  0  0  0  0  0
  -25.0020  -34.1360   25.0170 H   0  0  0  0  0  0  0  0  0  0  0  0
  -24.2170  -36.8180   23.0960 C   0  0  0  0  0  1  0  0  0  0  0  0
  -25.4610  -36.4160   23.9050 C   0  0  0  0  0  3  0  0  0  0  0  0
  -27.5980  -37.3100   24.7190 C   0  0  0  0  0  1  0  0  0  0  0  0
  -26.4930  -37.4680   23.7770 N   0  0  0  0  0  0  0  0  0  0  0  0
  -26.0870  -38.3880   23.9220 H   0  0  0  0  0  0  0  0  0  0  0  0
  -26.4070  -31.8220   25.2140 C   0  0  1  0  0  0  0  0  0  0  0  0
  -25.2930  -31.6090   26.2660 C   0  0  0  0  0  1  0  0  0  0  0  0
  -26.9940  -30.4330   24.8660 C   0  0  0  0  0  1  0  0  0  0  0  0
  -27.5460  -32.6260   25.8830 C   0  0  0  0  0  1  0  0  0  0  0  0
  -26.6880  -21.6160   18.2130 C   0  0  0  0  0  3  0  0  0  0  0  0
  -27.1970  -21.4700   19.4490 C   0  0  0  0  0  3  0  0  0  0  0  0
  -25.2270  -21.4350   17.8470 C   0  0  0  0  0  2  0  0  0  0  0  0
  -23.5400  -22.3880   16.3250 C   0  0  0  0  0  1  0  0  0  0  0  0
  -24.2900  -23.6860   18.2720 C   0  0  0  0  0  1  0  0  0  0  0  0
  -24.6570  -22.6710   17.2560 N   0  0  1  0  0  4  0  0  0  0  0  0
  -25.3840  -23.0790   16.6880 H   0  0  0  0  0  0  0  0  0  0  0  0
  -29.1650  -20.2060   20.3440 N   0  0  0  0  0  0  0  0  0  0  0  0
  -28.6140  -19.8440   21.1170 H   0  0  0  0  0  0  0  0  0  0  0  0
  -31.7410  -17.9550   17.6780 C   0  0  0  0  0  3  0  0  0  0  0  0
  -31.5830  -19.3300   17.7080 C   0  0  0  0  0  3  0  0  0  0  0  0
  -31.1240  -17.1740   18.6590 C   0  0  0  0  0  3  0  0  0  0  0  0
  -30.7390  -19.9000   18.6630 C   0  0  0  0  0  3  0  0  0  0  0  0
  -30.3190  -17.6650   19.7360 C   0  0  0  0  0  0  0  0  0  0  0  0
  -30.0030  -19.1820   19.6490 C   0  0  0  0  0  0  0  0  0  0  0  0
  -30.6700  -15.1670   20.7400 C   0  0  0  0  0  0  0  0  0  0  0  0
  -30.6220  -12.7460   19.9830 C   0  0  0  0  0  2  0  0  0  0  0  0
  -29.8050  -12.5770   18.6830 C   0  0  0  0  0  2  0  0  0  0  0  0
  -28.3200  -12.3510   19.0140 C   0  0  0  0  0  2  0  0  0  0  0  0
  -27.7930  -13.3530   20.0740 C   0  0  0  0  0  3  0  0  0  0  0  0
  -28.7490  -13.5110   21.2750 C   0  0  0  0  0  2  0  0  0  0  0  0
  -30.0530  -13.9100   20.7330 N   0  0  0  0  0  0  0  0  0  0  0  0
  -31.9030  -15.1410   20.6500 O   0  0  0  0  0  0  0  0  0  0  0  0
  -29.9690  -16.4330   20.6170 N   0  0  0  0  0  0  0  0  0  0  0  0
  -29.0140  -16.4150   20.9450 H   0  0  0  0  0  0  0  0  0  0  0  0
  -25.3670  -13.9240   20.6290 C   0  0  0  0  0  0  0  0  0  0  0  0
  -24.2830  -13.1500   20.9350 C   0  0  0  0  0  0  0  0  0  0  0  0
  -24.7570  -11.8020   20.9730 C   0  0  0  0  0  0  0  0  0  0  0  0
  -26.4290  -13.0490   20.4870 N   0  0  0  0  0  0  0  0  0  0  0  0
  -26.0690  -11.7690   20.7660 N   0  0  0  0  0  0  0  0  0  0  0  0
  -24.0250  -10.5380   21.1380 C   0  0  0  0  0  0  0  0  0  0  0  0
  -24.4110   -9.5790   22.1000 C   0  0  0  0  0  3  0  0  0  0  0  0
  -23.6770   -8.3820   22.2520 C   0  0  0  0  0  3  0  0  0  0  0  0
  -22.5440   -8.1380   21.4400 C   0  0  0  0  0  0  0  0  0  0  0  0
  -22.1770   -9.0850   20.4690 C   0  0  0  0  0  3  0  0  0  0  0  0
  -22.9120  -10.2730   20.3150 C   0  0  0  0  0  3  0  0  0  0  0  0
  -21.7870   -6.9920   21.5010 O   0  0  0  0  0  0  0  0  0  0  0  0
  -21.7070   -6.2390   22.6450 C   0  0  0  0  0  0  0  0  0  0  0  0
  -21.2590   -6.7890   23.8670 C   0  0  0  0  0  3  0  0  0  0  0  0
  -21.1270   -5.9630   25.0010 C   0  0  0  0  0  3  0  0  0  0  0  0
  -21.4330   -4.5920   24.9160 C   0  0  0  0  0  0  0  0  0  0  0  0
  -21.8730   -4.0430   23.6990 C   0  0  0  0  0  3  0  0  0  0  0  0
  -22.0080   -4.8650   22.5660 C   0  0  0  0  0  0  0  0  0  0  0  0
  -22.4130   -4.3280   21.3900 F   0  0  0  0  0  0  0  0  0  0  0  0
  -21.2980   -3.7980   26.0030 F   0  0  0  0  0  0  0  0  0  0  0  0
  -22.8670  -13.6230   21.0800 C   0  0  0  0  0  0  0  0  0  0  0  0
  -22.0810  -12.9510   21.9130 N   0  0  0  0  0  0  0  0  0  0  0  0
  -22.4660  -14.6270   20.4930 O   0  0  0  0  0  0  0  0  0  0  0  0
  -22.4180  -12.1400   22.4090 H   0  0  0  0  0  0  0  0  0  0  0  0
  -21.1260  -13.2510   22.0560 H   0  0  0  0  0  0  0  0  0  0  0  0
  -25.5360  -15.2910   20.4310 N   0  0  0  0  0  0  0  0  0  0  0  0
  -24.7570  -15.9400   20.4630 H   0  0  0  0  0  0  0  0  0  0  0  0
  -26.4020  -15.7270   20.1430 H   0  0  0  0  0  0  0  0  0  0  0  0
  1 48  1  0
  1 54  1  0
  1  4  1  0
  4  2  1  1
  4  3  1  0
  5  6  1  0
  5  4  1  0
  7 18  2  0
  8  6  1  0
  8 13  1  0
  9 17  1  0
  9 19  1  0
 10 16  1  0
 10 12  1  0
 11 17  1  0
 12 13  2  0
 12 11  1  0
 14  8  2  0
 15 14  1  0
 15 10  2  0
 16  9  1  0
 17  7  1  0
 19 21  2  0
 20 19  1  0
 22 20  1  0
 23 32  2  0
 23 28  1  0
 24 20  1  0
 24 28  1  0
 25 24  1  0
 26 27  1  0
 26 25  1  0
 27 23  1  0
 28 29  2  0
 29 30  1  0
 31 30  2  0
 32 31  1  0
 33  7  1  0
 33 34  1  0
 33 43  1  0
 34 37  1  0
 35 39  1  0
 35 34  1  0
 36 35  2  0
 39 38  1  0
 41 39  1  0
 41 42  1  0
 41 40  1  0
 43 46  1  1
 43 44  1  0
 45 43  1  0
 47 48  2  0
 49 47  1  0
 50 52  1  0
 52 49  1  0
 52 51  1  0
 52 53  1  6
 54 55  1  0
 56 57  2  0
 56 58  1  0
 57 59  1  0
 58 60  2  0
 59 61  2  0
 60 70  1  0
 61 60  1  0
 61 54  1  0
 63 68  1  0
 64 65  1  0
 64 63  1  0
 66 65  1  0
 66 75  1  0
 66 67  1  0
 68 62  1  0
 68 67  1  0
 69 62  2  0
 70 62  1  0
 70 71  1  0
 72 73  2  0
 73 74  1  0
 73 92  1  0
 74 77  1  0
 75 72  1  0
 75 76  1  0
 76 74  2  0
 77 78  1  0
 78 79  2  0
 80 83  1  0
 80 79  1  0
 81 80  2  0
 82 81  1  0
 82 77  2  0
 83 84  1  0
 84 85  1  0
 85 86  2  0
 87 86  1  0
 87 91  1  0
 88 87  2  0
 89 84  2  0
 89 88  1  0
 90 89  1  0
 92 93  1  0
 93 96  1  0
 93 95  1  0
 94 92  2  0
 97 98  1  0
 97 72  1  0
 99 97  1  0
M  ISO  4   5 101   6 101  62 100  70 100
M  END
>  <TORSDO>  (54) 
F 23

>  <SCORE>  (54) 
-14.005

>  <name>  (54) 
53

>  <ligand_id>  (54) 
53

>  <original_smiles>  (54) 
[H]C(=C([H])C([H])([H])[N+]([H])(C([H])([H])[H])C([H])([H])[H])C([H])(N([H])c1c([H])c([H])c([H])c([H])c1N([H])C(=O)N1C([H])([H])C([H])([H])C([H])([H])C([H])(n2nc(-c3c([H])c([H])c(Oc4c([H])c([H])c(F)c([H])c4F)c([H])c3[H])c(C(=O)N([H])[H])c2N([H])[H])C1([H])[H])C(C([H])([H])[H])(C([H])([H])[H])C([H])([H])Oc1c([H])c([H])c2c(c1[H])C([H])([H])N(C(=O)C([H])(N([H])C(=O)C([H])(N([H])C([H])([H])[H])C([H])([H])[H])C(C([H])([H])[H])(C([H])([H])[H])C([H])([H])[H])C([H])(C(=O)N([H])C1([H])c3c([H])c([H])c([H])c([H])c3C([H])([H])C([H])([H])C1([H])[H])C2([H])[H]

>  <smiles>  (54) 
[H]C(=C([H])C([H])([H])[N+]([H])(C([H])([H])[H])C([H])([H])[H])C([H])(N([H])c1c([H])c([H])c([H])c([H])c1N([H])C(=O)N1C([H])([H])C([H])([H])C([H])([H])C([H])(n2nc(-c3c([H])c([H])c(Oc4c([H])c([H])c(F)c([H])c4F)c([H])c3[H])c(C(=O)N([H])[H])c2N([H])[H])C1([H])[H])C(C([H])([H])[H])(C([H])([H])[H])C([H])([H])Oc1c([H])c([H])c2c(c1[H])C([H])([H])N(C(=O)C([H])(N([H])C(=O)C([H])(N([H])C([H])([H])[H])C([H])([H])[H])C(C([H])([H])[H])(C([H])([H])[H])C([H])([H])[H])C([H])(C(=O)N([H])C1([H])c3c([H])c([H])c([H])c([H])c3C([H])([H])C([H])([H])C1([H])[H])C2([H])[H]

$$$$
54:0:0
     RDKit          3D

100109  0  0  1  0  0  0  0  0999 V2000
  -30.8240  -21.9420   20.1560 C   0  0  0  0  0  0  0  0  0  0  0  0
  -29.7940  -21.0930   22.1750 C   0  0  0  0  0  1  0  0  0  0  0  0
  -30.2010  -20.9150   20.7780 N   0  0  0  0  0  0  0  0  0  0  0  0
  -32.0440  -21.9490   19.9580 O   0  0  0  0  0  0  0  0  0  0  0  0
  -30.1850  -17.0420   19.0100 C   0  0  0  0  0  3  0  0  0  0  0  0
  -29.9790  -19.4490   18.8190 C   0  0  0  0  0  3  0  0  0  0  0  0
  -30.4270  -18.4440   20.9970 C   0  0  0  0  0  3  0  0  0  0  0  0
  -29.9640  -18.1810   18.2150 C   0  0  0  0  0  0  0  0  0  0  0  0
  -30.4200  -17.1630   20.4000 C   0  0  0  0  0  0  0  0  0  0  0  0
  -30.2220  -19.6040   20.2060 C   0  0  0  0  0  0  0  0  0  0  0  0
  -31.3260  -14.9570   20.7950 C   0  0  0  0  0  0  0  0  0  0  0  0
  -31.0910  -12.7890   19.6680 C   0  0  0  0  0  2  0  0  0  0  0  0
  -30.2270  -12.9960   18.4060 C   0  0  0  0  0  2  0  0  0  0  0  0
  -28.7260  -12.8880   18.7450 C   0  0  0  0  0  2  0  0  0  0  0  0
  -28.3160  -13.7260   19.9870 C   0  0  0  0  0  3  0  0  0  0  0  0
  -29.3010  -13.5000   21.1570 C   0  0  0  0  0  2  0  0  0  0  0  0
  -30.6660  -13.7760   20.6710 N   0  0  0  0  0  0  0  0  0  0  0  0
  -32.4790  -15.1410   20.3970 O   0  0  0  0  0  0  0  0  0  0  0  0
  -30.5720  -15.9930   21.1940 N   0  0  0  0  0  0  0  0  0  0  0  0
  -29.7460  -15.7300   21.7110 H   0  0  0  0  0  0  0  0  0  0  0  0
  -25.8870  -14.3480   20.5760 C   0  0  0  0  0  0  0  0  0  0  0  0
  -24.7900  -13.5810   20.8580 C   0  0  0  0  0  0  0  0  0  0  0  0
  -25.2360  -12.2230   20.8090 C   0  0  0  0  0  0  0  0  0  0  0  0
  -26.9340  -13.4600   20.3780 N   0  0  0  0  0  0  0  0  0  0  0  0
  -26.5410  -12.1750   20.5730 N   0  0  0  0  0  0  0  0  0  0  0  0
  -24.4850  -10.9660   20.9190 C   0  0  0  0  0  0  0  0  0  0  0  0
  -24.7850  -10.0130   21.9180 C   0  0  0  0  0  3  0  0  0  0  0  0
  -24.0380   -8.8200   22.0150 C   0  0  0  0  0  3  0  0  0  0  0  0
  -22.9780   -8.5700   21.1110 C   0  0  0  0  0  0  0  0  0  0  0  0
  -22.7000   -9.5120   20.1040 C   0  0  0  0  0  3  0  0  0  0  0  0
  -23.4470  -10.6960   20.0050 C   0  0  0  0  0  3  0  0  0  0  0  0
  -22.2150   -7.4280   21.1110 O   0  0  0  0  0  0  0  0  0  0  0  0
  -21.9120   -6.7660   22.2740 C   0  0  0  0  0  0  0  0  0  0  0  0
  -21.2090   -7.3920   23.3250 C   0  0  0  0  0  3  0  0  0  0  0  0
  -20.8580   -6.6560   24.4760 C   0  0  0  0  0  3  0  0  0  0  0  0
  -21.2010   -5.2940   24.5710 C   0  0  0  0  0  0  0  0  0  0  0  0
  -21.8960   -4.6660   23.5210 C   0  0  0  0  0  3  0  0  0  0  0  0
  -22.2490   -5.4000   22.3760 C   0  0  0  0  0  0  0  0  0  0  0  0
  -22.9010   -4.7880   21.3600 F   0  0  0  0  0  0  0  0  0  0  0  0
  -20.8580   -4.5840   25.6710 F   0  0  0  0  0  0  0  0  0  0  0  0
  -23.3870  -14.0670   21.0720 C   0  0  0  0  0  0  0  0  0  0  0  0
  -22.6120  -13.3640   21.8910 N   0  0  0  0  0  0  0  0  0  0  0  0
  -22.9830  -15.1060   20.5510 O   0  0  0  0  0  0  0  0  0  0  0  0
  -22.9510  -12.5260   22.3380 H   0  0  0  0  0  0  0  0  0  0  0  0
  -21.6670  -13.6700   22.0770 H   0  0  0  0  0  0  0  0  0  0  0  0
  -26.0770  -15.7220   20.4540 N   0  0  0  0  0  0  0  0  0  0  0  0
  -25.3080  -16.3760   20.5440 H   0  0  0  0  0  0  0  0  0  0  0  0
  -26.9500  -16.1710   20.2090 H   0  0  0  0  0  0  0  0  0  0  0  0
  -29.6770  -18.0590   16.7260 C   0  0  1  0  0  0  0  0  0  0  0  0
  -30.1160  -16.9030   16.2280 F   0  0  0  0  0  0  0  0  0  0  0  0
  -28.3620  -18.1380   16.5270 F   0  0  0  0  0  0  0  0  0  0  0  0
  -30.2640  -19.0530   16.0610 F   0  0  0  0  0  0  0  0  0  0  0  0
  -29.6200  -23.1480   18.2190 C   0  0  0  0  0  2  0  0  0  0  0  0
  -30.7320  -24.1720   18.0180 C   0  0  0  0  0  2  0  0  0  0  0  0
  -29.9670  -23.1460   19.7140 C   0  0  0  0  0  3  0  0  0  0  0  0
  -30.7920  -24.3360   19.4740 N   0  0  2  0  0  4  0  0  0  0  0  0
  -31.7270  -24.1280   19.8010 H   0  0  0  0  0  0  0  0  0  0  0  0
  -30.3110  -25.6430   20.0040 C   0  0  0  0  0  2  0  0  0  0  0  0
  -28.8470  -26.0070   19.6700 C   0  0  0  0  0  2  0  0  0  0  0  0
  -28.6550  -27.3090   20.1890 O   0  0  0  0  0  0  0  0  0  0  0  0
  -24.5340  -32.0220   23.4240 C   0  0  0  0  0  0  0  0  0  0  0  0
  -27.4020  -27.8730   20.1840 C   0  0  0  0  0  0  0  0  0  0  0  0
  -23.3900  -30.6140   21.7390 C   0  0  0  0  0  3  0  0  0  0  0  0
  -24.9150  -29.2050   20.2590 C   0  0  0  0  0  0  0  0  0  0  0  0
  -25.8850  -31.1270   21.5360 C   0  0  0  0  0  2  0  0  0  0  0  0
  -26.0390  -29.7860   20.8570 C   0  0  0  0  0  0  0  0  0  0  0  0
  -27.2800  -29.1230   20.8200 C   0  0  0  0  0  3  0  0  0  0  0  0
  -26.2590  -27.2870   19.5900 C   0  0  0  0  0  3  0  0  0  0  0  0
  -25.0160  -27.9530   19.6280 C   0  0  0  0  0  3  0  0  0  0  0  0
  -23.6250  -29.9890   20.3360 C   0  0  0  0  0  2  0  0  0  0  0  0
  -24.6210  -31.2670   22.2930 N   0  0  0  0  0  0  0  0  0  0  0  0
  -23.4450  -32.2190   23.9810 O   0  0  0  0  0  0  0  0  0  0  0  0
  -22.8060  -29.5280   22.6670 C   0  0  0  0  0  0  0  0  0  0  0  0
  -21.5210  -29.1930   22.4620 N   0  0  0  0  0  0  0  0  0  0  0  0
  -23.5060  -28.9860   23.5270 O   0  0  0  0  0  0  0  0  0  0  0  0
  -21.0120  -29.6890   21.7430 H   0  0  0  0  0  0  0  0  0  0  0  0
  -18.3040  -27.5760   22.7110 C   0  0  0  0  0  0  0  0  0  0  0  0
  -20.7730  -28.1720   23.1910 C   0  0  0  0  0  3  0  0  0  0  0  0
  -21.1100  -26.7560   22.6680 C   0  0  0  0  0  2  0  0  0  0  0  0
  -20.1520  -26.2720   21.5750 C   0  0  0  0  0  2  0  0  0  0  0  0
  -18.7120  -26.2480   22.0960 C   0  0  0  0  0  2  0  0  0  0  0  0
  -19.2730  -28.4840   23.2110 C   0  0  0  0  0  0  0  0  0  0  0  0
  -18.8420  -29.7200   23.7410 C   0  0  0  0  0  3  0  0  0  0  0  0
  -17.4750  -30.0510   23.7780 C   0  0  0  0  0  3  0  0  0  0  0  0
  -16.5190  -29.1400   23.2970 C   0  0  0  0  0  3  0  0  0  0  0  0
  -16.9340  -27.9040   22.7690 C   0  0  0  0  0  3  0  0  0  0  0  0
  -25.7920  -32.6980   24.0560 C   0  0  0  0  0  3  0  0  0  0  0  0
  -25.4540  -34.1040   24.3130 N   0  0  0  0  0  0  0  0  0  0  0  0
  -25.8000  -35.1260   23.5180 C   0  0  0  0  0  0  0  0  0  0  0  0
  -26.5090  -34.9880   22.5170 O   0  0  0  0  0  0  0  0  0  0  0  0
  -24.8300  -34.2870   25.0860 H   0  0  0  0  0  0  0  0  0  0  0  0
  -24.0660  -36.8750   23.0190 C   0  0  0  0  0  1  0  0  0  0  0  0
  -25.2790  -36.5260   23.8940 C   0  0  0  0  0  3  0  0  0  0  0  0
  -27.3690  -37.4760   24.7670 C   0  0  0  0  0  1  0  0  0  0  0  0
  -26.3010  -37.5880   23.7760 N   0  0  0  0  0  0  0  0  0  0  0  0
  -25.8780  -38.5070   23.8690 H   0  0  0  0  0  0  0  0  0  0  0  0
  -26.2850  -31.9900   25.3770 C   0  0  1  0  0  0  0  0  0  0  0  0
  -25.1530  -31.6940   26.3860 C   0  0  0  0  0  1  0  0  0  0  0  0
  -26.9870  -30.6510   25.0480 C   0  0  0  0  0  1  0  0  0  0  0  0
  -27.3370  -32.8780   26.0850 C   0  0  0  0  0  1  0  0  0  0  0  0
  1  3  1  0
  3  2  1  0
  4  1  2  0
  5  9  1  0
  6 10  2  0
  8  6  1  0
  8  5  2  0
  9  7  2  0
  9 19  1  0
 10  3  1  0
 10  7  1  0
 11 19  1  0
 12 17  1  0
 13 14  1  0
 13 12  1  0
 15 14  1  0
 15 24  1  0
 15 16  1  0
 17 11  1  0
 17 16  1  0
 18 11  2  0
 19 20  1  0
 21 22  2  0
 22 41  1  0
 23 22  1  0
 23 26  1  0
 24 25  1  0
 24 21  1  0
 25 23  2  0
 26 27  1  0
 27 28  2  0
 29 32  1  0
 29 28  1  0
 30 29  2  0
 31 30  1  0
 31 26  2  0
 32 33  1  0
 33 38  2  0
 33 34  1  0
 34 35  2  0
 35 36  1  0
 36 40  1  0
 37 36  2  0
 38 37  1  0
 39 38  1  0
 41 42  1  0
 42 45  1  0
 42 44  1  0
 43 41  2  0
 46 47  1  0
 46 21  1  0
 48 46  1  0
 49  8  1  0
 49 50  1  6
 51 49  1  0
 52 49  1  0
 53 55  1  0
 54 53  1  0
 54 56  1  0
 55  1  1  0
 56 55  1  0
 56 57  1  1
 56 58  1  0
 59 58  1  0
 59 60  1  0
 61 72  2  0
 62 60  1  0
 62 67  1  0
 63 71  1  0
 63 73  1  0
 64 70  1  0
 64 66  1  0
 65 71  1  0
 66 65  1  0
 67 66  2  0
 68 69  1  0
 68 62  2  0
 69 64  2  0
 70 63  1  0
 71 61  1  0
 73 75  2  0
 74 73  1  0
 76 74  1  0
 77 86  2  0
 77 82  1  0
 78 74  1  0
 78 82  1  0
 79 78  1  0
 80 81  1  0
 80 79  1  0
 81 77  1  0
 82 83  2  0
 83 84  1  0
 85 84  2  0
 86 85  1  0
 87 61  1  0
 87 88  1  0
 87 97  1  0
 88 91  1  0
 89 93  1  0
 89 88  1  0
 90 89  2  0
 93 92  1  0
 95 96  1  0
 95 93  1  0
 95 94  1  0
 97100  1  1
 97 98  1  0
 99 97  1  0
M  ISO  4  11 100  19 100  59 101  60 101
M  END
>  <TORSDO>  (55) 
F 21

>  <SCORE>  (55) 
-11.339

>  <name>  (55) 
54

>  <ligand_id>  (55) 
54

>  <original_smiles>  (55) 
[H]c1c([H])c([H])c2c(c1[H])C([H])([H])C([H])([H])C([H])([H])C2([H])N([H])C(=O)C1([H])N(C(=O)C([H])(N([H])C(=O)C([H])(N([H])C([H])([H])[H])C([H])([H])[H])C(C([H])([H])[H])(C([H])([H])[H])C([H])([H])[H])C([H])([H])c2c([H])c(OC([H])([H])C([H])([H])[N+]3([H])C([H])([H])C([H])([H])C3([H])C(=O)N(c3c([H])c(N([H])C(=O)N4C([H])([H])C([H])([H])C([H])([H])C([H])(n5nc(-c6c([H])c([H])c(Oc7c([H])c([H])c(F)c([H])c7F)c([H])c6[H])c(C(=O)N([H])[H])c5N([H])[H])C4([H])[H])c([H])c(C(F)(F)F)c3[H])C([H])([H])[H])c([H])c([H])c2C1([H])[H]

>  <smiles>  (55) 
[H]c1c([H])c([H])c2c(c1[H])C([H])([H])C([H])([H])C([H])([H])C2([H])N([H])C(=O)C1([H])N(C(=O)C([H])(N([H])C(=O)C([H])(N([H])C([H])([H])[H])C([H])([H])[H])C(C([H])([H])[H])(C([H])([H])[H])C([H])([H])[H])C([H])([H])c2c([H])c(OC([H])([H])C([H])([H])[N+]3([H])C([H])([H])C([H])([H])C3([H])C(=O)N(c3c([H])c(N([H])C(=O)N4C([H])([H])C([H])([H])C([H])([H])C([H])(n5nc(-c6c([H])c([H])c(Oc7c([H])c([H])c(F)c([H])c7F)c([H])c6[H])c(C(=O)N([H])[H])c5N([H])[H])C4([H])[H])c([H])c(C(F)(F)F)c3[H])C([H])([H])[H])c([H])c([H])c2C1([H])[H]

$$$$
55:0:0
     RDKit          3D

 95103  0  0  1  0  0  0  0  0999 V2000
  -29.0660  -22.3940   20.8990 C   0  0  0  0  0  0  0  0  0  0  0  0
  -29.2230  -21.1520   20.2790 N   0  0  0  0  0  0  0  0  0  0  0  0
  -29.0280  -22.4540   22.1300 O   0  0  0  0  0  0  0  0  0  0  0  0
  -29.0060  -21.1190   19.2940 H   0  0  0  0  0  0  0  0  0  0  0  0
  -31.5150  -18.8100   22.2200 C   0  0  0  0  0  3  0  0  0  0  0  0
  -30.8330  -19.9600   21.7730 C   0  0  0  0  0  3  0  0  0  0  0  0
  -31.2070  -17.5280   21.7220 C   0  0  0  0  0  3  0  0  0  0  0  0
  -29.5040  -18.5470   20.3090 C   0  0  0  0  0  3  0  0  0  0  0  0
  -29.8110  -19.8860   20.8000 C   0  0  0  0  0  0  0  0  0  0  0  0
  -30.1950  -17.3410   20.7560 C   0  0  0  0  0  0  0  0  0  0  0  0
  -30.6280  -14.8300   20.1620 C   0  0  0  0  0  0  0  0  0  0  0  0
  -30.3960  -12.5880   19.0700 C   0  0  0  0  0  2  0  0  0  0  0  0
  -29.4070  -12.6590   17.8870 C   0  0  0  0  0  2  0  0  0  0  0  0
  -27.9570  -12.4580   18.3740 C   0  0  0  0  0  2  0  0  0  0  0  0
  -27.6160  -13.3330   19.6100 C   0  0  0  0  0  3  0  0  0  0  0  0
  -28.7170  -13.2500   20.6900 C   0  0  0  0  0  2  0  0  0  0  0  0
  -29.9860  -13.6170   20.0500 N   0  0  0  0  0  0  0  0  0  0  0  0
  -31.8140  -14.9320   19.8400 O   0  0  0  0  0  0  0  0  0  0  0  0
  -29.8430  -15.9570   20.3560 N   0  0  0  0  0  0  0  0  0  0  0  0
  -28.8550  -15.7750   20.2670 H   0  0  0  0  0  0  0  0  0  0  0  0
  -25.2520  -13.8940   20.4330 C   0  0  0  0  0  0  0  0  0  0  0  0
  -24.2050  -13.1050   20.8300 C   0  0  0  0  0  0  0  0  0  0  0  0
  -24.6810  -11.7600   20.7710 C   0  0  0  0  0  0  0  0  0  0  0  0
  -26.2940  -13.0270   20.1480 N   0  0  0  0  0  0  0  0  0  0  0  0
  -25.9600  -11.7380   20.4150 N   0  0  0  0  0  0  0  0  0  0  0  0
  -23.9740  -10.4880   20.9720 C   0  0  0  0  0  0  0  0  0  0  0  0
  -24.4210   -9.5350   21.9130 C   0  0  0  0  0  3  0  0  0  0  0  0
  -23.7140   -8.3280   22.1000 C   0  0  0  0  0  3  0  0  0  0  0  0
  -22.5460   -8.0660   21.3450 C   0  0  0  0  0  0  0  0  0  0  0  0
  -22.1170   -9.0100   20.3940 C   0  0  0  0  0  3  0  0  0  0  0  0
  -22.8250  -10.2080   20.2050 C   0  0  0  0  0  3  0  0  0  0  0  0
  -21.8080   -6.9100   21.4410 O   0  0  0  0  0  0  0  0  0  0  0  0
  -21.7460   -6.1910   22.6070 C   0  0  0  0  0  0  0  0  0  0  0  0
  -21.2510   -6.7540   23.8040 C   0  0  0  0  0  3  0  0  0  0  0  0
  -21.1410   -5.9590   24.9630 C   0  0  0  0  0  3  0  0  0  0  0  0
  -21.5130   -4.6030   24.9250 C   0  0  0  0  0  0  0  0  0  0  0  0
  -22.0010   -4.0390   23.7320 C   0  0  0  0  0  3  0  0  0  0  0  0
  -22.1140   -4.8310   22.5760 C   0  0  0  0  0  0  0  0  0  0  0  0
  -22.5640   -4.2780   21.4250 F   0  0  0  0  0  0  0  0  0  0  0  0
  -21.4000   -3.8360   26.0350 F   0  0  0  0  0  0  0  0  0  0  0  0
  -22.8130  -13.5680   21.1520 C   0  0  0  0  0  0  0  0  0  0  0  0
  -22.1150  -12.8500   22.0220 N   0  0  0  0  0  0  0  0  0  0  0  0
  -22.3540  -14.6020   20.6660 O   0  0  0  0  0  0  0  0  0  0  0  0
  -22.4960  -12.0130   22.4370 H   0  0  0  0  0  0  0  0  0  0  0  0
  -21.1820  -13.1460   22.2810 H   0  0  0  0  0  0  0  0  0  0  0  0
  -25.3950  -15.2680   20.2700 N   0  0  0  0  0  0  0  0  0  0  0  0
  -24.6230  -15.9090   20.4240 H   0  0  0  0  0  0  0  0  0  0  0  0
  -26.2200  -15.7300   19.9140 H   0  0  0  0  0  0  0  0  0  0  0  0
  -28.9140  -23.7850   20.0980 C   0  0  0  0  0  3  0  0  0  0  0  0
  -28.4880  -23.5540   18.7040 N   0  0  0  0  0  4  0  0  0  0  0  0
  -27.5390  -23.2240   18.6670 H   0  0  0  0  0  0  0  0  0  0  0  0
  -29.0910  -22.8840   18.2650 H   0  0  0  0  0  0  0  0  0  0  0  0
  -28.5500  -24.4090   18.1800 H   0  0  0  0  0  0  0  0  0  0  0  0
  -28.0990  -25.0330   20.7460 C   0  0  0  0  0  2  0  0  0  0  0  0
  -28.3200  -26.4570   20.2950 O   0  0  0  0  0  0  0  0  0  0  0  0
  -24.5840  -31.9460   23.2380 C   0  0  0  0  0  0  0  0  0  0  0  0
  -27.2170  -27.3390   20.2490 C   0  0  0  0  0  0  0  0  0  0  0  0
  -23.3920  -30.5340   21.5990 C   0  0  0  0  0  3  0  0  0  0  0  0
  -24.8580  -28.9750   20.1900 C   0  0  0  0  0  0  0  0  0  0  0  0
  -25.9340  -30.8510   21.4280 C   0  0  0  0  0  2  0  0  0  0  0  0
  -26.0240  -29.4650   20.7940 C   0  0  0  0  0  0  0  0  0  0  0  0
  -27.2090  -28.6610   20.8080 C   0  0  0  0  0  3  0  0  0  0  0  0
  -26.0340  -26.9160   19.6070 C   0  0  0  0  0  3  0  0  0  0  0  0
  -24.8680  -27.7090   19.5840 C   0  0  0  0  0  3  0  0  0  0  0  0
  -23.6180  -29.8500   20.2230 C   0  0  0  0  0  2  0  0  0  0  0  0
  -24.6560  -31.1290   22.1440 N   0  0  0  0  0  0  0  0  0  0  0  0
  -23.4970  -32.2250   23.7650 O   0  0  0  0  0  0  0  0  0  0  0  0
  -22.7260  -29.5230   22.5640 C   0  0  0  0  0  0  0  0  0  0  0  0
  -21.4010  -29.3450   22.4370 N   0  0  0  0  0  0  0  0  0  0  0  0
  -23.4040  -28.9000   23.3860 O   0  0  0  0  0  0  0  0  0  0  0  0
  -20.9130  -29.9050   21.7510 H   0  0  0  0  0  0  0  0  0  0  0  0
  -18.0210  -28.1520   22.9450 C   0  0  0  0  0  0  0  0  0  0  0  0
  -20.5810  -28.4070   23.2100 C   0  0  0  0  0  3  0  0  0  0  0  0
  -20.6800  -26.9740   22.6340 C   0  0  0  0  0  2  0  0  0  0  0  0
  -19.5750  -26.6570   21.6200 C   0  0  0  0  0  2  0  0  0  0  0  0
  -18.1920  -26.8070   22.2610 C   0  0  0  0  0  2  0  0  0  0  0  0
  -19.1430  -28.9100   23.3760 C   0  0  0  0  0  0  0  0  0  0  0  0
  -18.9280  -30.1710   23.9740 C   0  0  0  0  0  3  0  0  0  0  0  0
  -17.6240  -30.6740   24.1450 C   0  0  0  0  0  3  0  0  0  0  0  0
  -16.5160  -29.9120   23.7310 C   0  0  0  0  0  3  0  0  0  0  0  0
  -16.7160  -28.6530   23.1380 C   0  0  0  0  0  3  0  0  0  0  0  0
  -25.8620  -32.5880   23.8620 C   0  0  0  0  0  3  0  0  0  0  0  0
  -26.3680  -31.8310   25.1520 C   0  0  1  0  0  0  0  0  0  0  0  0
  -25.2640  -31.6030   26.2110 C   0  0  0  0  0  1  0  0  0  0  0  0
  -26.9610  -30.4510   24.7810 C   0  0  0  0  0  1  0  0  0  0  0  0
  -27.5080  -32.6360   25.8170 C   0  0  0  0  0  1  0  0  0  0  0  0
  -25.5460  -33.9880   24.1780 N   0  0  0  0  0  0  0  0  0  0  0  0
  -25.8850  -35.0380   23.4180 C   0  0  0  0  0  0  0  0  0  0  0  0
  -26.5660  -34.9280   22.3940 O   0  0  0  0  0  0  0  0  0  0  0  0
  -24.9460  -34.1460   24.9750 H   0  0  0  0  0  0  0  0  0  0  0  0
  -24.1750  -36.8400   23.0190 C   0  0  0  0  0  1  0  0  0  0  0  0
  -25.3920  -36.4300   23.8620 C   0  0  0  0  0  3  0  0  0  0  0  0
  -27.5060  -37.3090   24.7510 C   0  0  0  0  0  1  0  0  0  0  0  0
  -26.4320  -37.4780   23.7760 N   0  0  0  0  0  0  0  0  0  0  0  0
  -26.0290  -38.4010   23.9070 H   0  0  0  0  0  0  0  0  0  0  0  0
  1  3  2  0
  2  9  1  0
  2  1  1  0
  4  2  1  0
  6  5  1  0
  7  5  2  0
  8 10  2  0
  8  9  1  0
  9  6  2  0
 10  7  1  0
 11 19  1  0
 12 17  1  0
 13 14  1  0
 13 12  1  0
 15 14  1  0
 15 24  1  0
 15 16  1  0
 17 11  1  0
 17 16  1  0
 18 11  2  0
 19 10  1  0
 20 19  1  0
 21 22  2  0
 22 41  1  0
 23 22  1  0
 23 26  1  0
 24 25  1  0
 24 21  1  0
 25 23  2  0
 26 27  1  0
 27 28  2  0
 29 32  1  0
 29 28  1  0
 30 29  2  0
 31 30  1  0
 31 26  2  0
 32 33  1  0
 33 34  1  0
 34 35  2  0
 36 35  1  0
 36 40  1  0
 37 36  2  0
 38 33  2  0
 38 37  1  0
 39 38  1  0
 41 42  1  0
 42 45  1  0
 42 44  1  0
 43 41  2  0
 46 47  1  0
 46 21  1  0
 48 46  1  0
 49 54  1  0
 49  1  1  0
 50 49  1  0
 51 50  1  0
 52 50  1  0
 53 50  1  0
 55 54  1  0
 56 67  2  0
 57 55  1  0
 57 62  1  0
 58 66  1  0
 58 68  1  0
 59 65  1  0
 59 61  1  0
 60 66  1  0
 61 62  2  0
 61 60  1  0
 63 57  2  0
 64 63  1  0
 64 59  2  0
 65 58  1  0
 66 56  1  0
 68 70  2  0
 69 68  1  0
 71 69  1  0
 72 81  2  0
 72 77  1  0
 73 69  1  0
 73 77  1  0
 74 73  1  0
 75 76  1  0
 75 74  1  0
 76 72  1  0
 77 78  2  0
 78 79  1  0
 80 79  2  0
 81 80  1  0
 82 56  1  0
 82 87  1  0
 82 83  1  0
 83 86  1  1
 83 84  1  0
 85 83  1  0
 87 90  1  0
 88 92  1  0
 88 87  1  0
 89 88  2  0
 92 91  1  0
 94 92  1  0
 94 95  1  0
 94 93  1  0
M  ISO  4  11 100  19 100  54 101  55 101
M  END
>  <TORSDO>  (56) 
F 20

>  <SCORE>  (56) 
-14.248

>  <name>  (56) 
55

>  <ligand_id>  (56) 
55

>  <original_smiles>  (56) 
[H]c1c([H])c(N([H])C(=O)N2C([H])([H])C([H])([H])C([H])([H])C([H])(n3nc(-c4c([H])c([H])c(Oc5c([H])c([H])c(F)c([H])c5F)c([H])c4[H])c(C(=O)N([H])[H])c3N([H])[H])C2([H])[H])c([H])c(N([H])C(=O)C([H])(C([H])([H])Oc2c([H])c([H])c3c(c2[H])C([H])([H])N(C(=O)C([H])(N([H])C(=O)C([H])(N([H])C([H])([H])[H])C([H])([H])[H])C(C([H])([H])[H])(C([H])([H])[H])C([H])([H])[H])C([H])(C(=O)N([H])C2([H])c4c([H])c([H])c([H])c([H])c4C([H])([H])C([H])([H])C2([H])[H])C3([H])[H])[N+]([H])([H])[H])c1[H]

>  <smiles>  (56) 
[H]c1c([H])c(N([H])C(=O)N2C([H])([H])C([H])([H])C([H])([H])C([H])(n3nc(-c4c([H])c([H])c(Oc5c([H])c([H])c(F)c([H])c5F)c([H])c4[H])c(C(=O)N([H])[H])c3N([H])[H])C2([H])[H])c([H])c(N([H])C(=O)C([H])(C([H])([H])Oc2c([H])c([H])c3c(c2[H])C([H])([H])N(C(=O)C([H])(N([H])C(=O)C([H])(N([H])C([H])([H])[H])C([H])([H])[H])C(C([H])([H])[H])(C([H])([H])[H])C([H])([H])[H])C([H])(C(=O)N([H])C2([H])c4c([H])c([H])c([H])c([H])c4C([H])([H])C([H])([H])C2([H])[H])C3([H])[H])[N+]([H])([H])[H])c1[H]

$$$$
56:0:0
     RDKit          3D

100109  0  0  1  0  0  0  0  0999 V2000
  -30.2480  -22.0470   19.4550 C   0  0  0  0  0  2  0  0  0  0  0  0
  -29.9520  -22.1460   21.8990 C   0  0  0  0  0  2  0  0  0  0  0  0
  -30.6110  -23.5490   19.4260 C   0  0  0  0  0  2  0  0  0  0  0  0
  -30.2890  -23.6590   21.8850 C   0  0  0  0  0  2  0  0  0  0  0  0
  -30.7070  -21.4080   20.7740 C   0  0  0  0  0  3  0  0  0  0  0  0
  -30.0330  -24.3230   20.5640 N   0  0  1  0  0  4  0  0  0  0  0  0
  -29.0320  -24.2930   20.4170 H   0  0  0  0  0  0  0  0  0  0  0  0
  -29.3370  -19.2400   20.9060 C   0  0  0  0  0  3  0  0  0  0  0  0
  -29.2080  -17.8340   20.9450 C   0  0  0  0  0  3  0  0  0  0  0  0
  -31.6060  -17.6120   20.7430 C   0  0  0  0  0  3  0  0  0  0  0  0
  -31.7490  -19.0170   20.6770 C   0  0  0  0  0  0  0  0  0  0  0  0
  -30.6020  -19.8630   20.7790 C   0  0  0  0  0  0  0  0  0  0  0  0
  -30.3380  -16.9940   20.8540 C   0  0  0  0  0  0  0  0  0  0  0  0
  -30.7810  -14.5960   20.2040 C   0  0  0  0  0  0  0  0  0  0  0  0
  -30.4370  -12.4610   19.0140 C   0  0  0  0  0  2  0  0  0  0  0  0
  -29.4390  -12.6840   17.8600 C   0  0  0  0  0  2  0  0  0  0  0  0
  -27.9890  -12.5170   18.3560 C   0  0  0  0  0  2  0  0  0  0  0  0
  -27.7030  -13.3220   19.6530 C   0  0  0  0  0  3  0  0  0  0  0  0
  -28.8130  -13.0900   20.7040 C   0  0  0  0  0  2  0  0  0  0  0  0
  -30.1070  -13.4180   20.0830 N   0  0  0  0  0  0  0  0  0  0  0  0
  -31.8660  -14.7830   19.6470 O   0  0  0  0  0  0  0  0  0  0  0  0
  -30.1330  -15.5720   20.8780 N   0  0  0  0  0  0  0  0  0  0  0  0
  -29.2680  -15.2650   21.2990 H   0  0  0  0  0  0  0  0  0  0  0  0
  -25.3390  -13.8860   20.5000 C   0  0  0  0  0  0  0  0  0  0  0  0
  -24.2960  -13.0920   20.8970 C   0  0  0  0  0  0  0  0  0  0  0  0
  -24.7640  -11.7450   20.7990 C   0  0  0  0  0  0  0  0  0  0  0  0
  -26.3770  -13.0210   20.1880 N   0  0  0  0  0  0  0  0  0  0  0  0
  -26.0370  -11.7270   20.4250 N   0  0  0  0  0  0  0  0  0  0  0  0
  -24.0570  -10.4720   20.9840 C   0  0  0  0  0  0  0  0  0  0  0  0
  -24.4830   -9.5230   21.9410 C   0  0  0  0  0  3  0  0  0  0  0  0
  -23.7760   -8.3140   22.1140 C   0  0  0  0  0  3  0  0  0  0  0  0
  -22.6290   -8.0440   21.3310 C   0  0  0  0  0  0  0  0  0  0  0  0
  -22.2220   -8.9810   20.3650 C   0  0  0  0  0  3  0  0  0  0  0  0
  -22.9300  -10.1820   20.1900 C   0  0  0  0  0  3  0  0  0  0  0  0
  -21.8950   -6.8840   21.4110 O   0  0  0  0  0  0  0  0  0  0  0  0
  -21.7470   -6.2080   22.5950 C   0  0  0  0  0  0  0  0  0  0  0  0
  -21.1050   -6.7910   23.7100 C   0  0  0  0  0  3  0  0  0  0  0  0
  -20.9100   -6.0360   24.8830 C   0  0  0  0  0  3  0  0  0  0  0  0
  -21.3460   -4.6980   24.9420 C   0  0  0  0  0  0  0  0  0  0  0  0
  -21.9800   -4.1150   23.8320 C   0  0  0  0  0  3  0  0  0  0  0  0
  -22.1770   -4.8670   22.6600 C   0  0  0  0  0  0  0  0  0  0  0  0
  -22.7690   -4.2940   21.5850 F   0  0  0  0  0  0  0  0  0  0  0  0
  -21.1510   -3.9710   26.0670 F   0  0  0  0  0  0  0  0  0  0  0  0
  -22.9110  -13.5480   21.2550 C   0  0  0  0  0  0  0  0  0  0  0  0
  -22.2320  -12.8200   22.1350 N   0  0  0  0  0  0  0  0  0  0  0  0
  -22.4380  -14.5850   20.7910 O   0  0  0  0  0  0  0  0  0  0  0  0
  -22.6270  -11.9800   22.5340 H   0  0  0  0  0  0  0  0  0  0  0  0
  -21.3040  -13.1060   22.4130 H   0  0  0  0  0  0  0  0  0  0  0  0
  -25.4860  -15.2630   20.3600 N   0  0  0  0  0  0  0  0  0  0  0  0
  -24.7190  -15.9070   20.5190 H   0  0  0  0  0  0  0  0  0  0  0  0
  -26.3130  -15.7160   19.9920 H   0  0  0  0  0  0  0  0  0  0  0  0
  -33.1460  -19.5440   20.5130 C   0  0  0  0  0  0  0  0  0  0  0  0
  -33.3960  -20.1930   19.3840 N   0  0  0  0  0  0  0  0  0  0  0  0
  -34.0180  -19.3350   21.3550 O   0  0  0  0  0  0  0  0  0  0  0  0
  -32.6700  -20.2760   18.6890 H   0  0  0  0  0  0  0  0  0  0  0  0
  -34.3210  -20.5420   19.1880 H   0  0  0  0  0  0  0  0  0  0  0  0
  -31.6980  -26.1520   21.2380 C   0  0  0  0  0  1  0  0  0  0  0  0
  -30.3970  -25.7850   20.4860 C   0  0  0  0  0  3  0  0  0  0  0  0
  -29.2330  -26.7320   20.8740 C   0  0  0  0  0  2  0  0  0  0  0  0
  -28.2910  -26.7340   19.8050 O   0  0  0  0  0  0  0  0  0  0  0  0
  -24.4660  -31.7860   23.1710 C   0  0  0  0  0  0  0  0  0  0  0  0
  -27.1570  -27.5080   19.9200 C   0  0  0  0  0  0  0  0  0  0  0  0
  -23.2670  -30.4330   21.4790 C   0  0  0  0  0  3  0  0  0  0  0  0
  -24.7350  -28.9680   19.9940 C   0  0  0  0  0  0  0  0  0  0  0  0
  -25.7830  -30.8360   21.2830 C   0  0  0  0  0  2  0  0  0  0  0  0
  -25.8850  -29.4860   20.6040 C   0  0  0  0  0  0  0  0  0  0  0  0
  -27.0970  -28.7610   20.5770 C   0  0  0  0  0  3  0  0  0  0  0  0
  -25.9940  -27.0100   19.2980 C   0  0  0  0  0  3  0  0  0  0  0  0
  -24.7820  -27.7240   19.3410 C   0  0  0  0  0  3  0  0  0  0  0  0
  -23.4790  -29.8060   20.0750 C   0  0  0  0  0  2  0  0  0  0  0  0
  -24.5230  -31.0310   22.0370 N   0  0  0  0  0  0  0  0  0  0  0  0
  -23.3860  -32.0240   23.7270 O   0  0  0  0  0  0  0  0  0  0  0  0
  -22.6340  -29.3680   22.4040 C   0  0  0  0  0  0  0  0  0  0  0  0
  -21.3120  -29.1730   22.2730 N   0  0  0  0  0  0  0  0  0  0  0  0
  -23.3290  -28.7210   23.1920 O   0  0  0  0  0  0  0  0  0  0  0  0
  -20.8110  -29.7510   21.6120 H   0  0  0  0  0  0  0  0  0  0  0  0
  -17.9500  -27.9500   22.7680 C   0  0  0  0  0  0  0  0  0  0  0  0
  -20.5110  -28.1970   23.0090 C   0  0  0  0  0  3  0  0  0  0  0  0
  -20.6050  -26.7960   22.3610 C   0  0  0  0  0  2  0  0  0  0  0  0
  -19.4870  -26.5240   21.3500 C   0  0  0  0  0  2  0  0  0  0  0  0
  -18.1160  -26.6360   22.0240 C   0  0  0  0  0  2  0  0  0  0  0  0
  -19.0750  -28.6900   23.2170 C   0  0  0  0  0  0  0  0  0  0  0  0
  -18.8670  -29.9230   23.8730 C   0  0  0  0  0  3  0  0  0  0  0  0
  -17.5660  -30.4160   24.0850 C   0  0  0  0  0  3  0  0  0  0  0  0
  -16.4550  -29.6710   23.6520 C   0  0  0  0  0  3  0  0  0  0  0  0
  -16.6480  -28.4400   23.0000 C   0  0  0  0  0  3  0  0  0  0  0  0
  -25.7490  -32.4060   23.8060 C   0  0  0  0  0  3  0  0  0  0  0  0
  -26.2730  -31.6050   25.0600 C   0  0  1  0  0  0  0  0  0  0  0  0
  -25.1820  -31.3270   26.1200 C   0  0  0  0  0  1  0  0  0  0  0  0
  -26.8680  -30.2440   24.6260 C   0  0  0  0  0  1  0  0  0  0  0  0
  -27.4140  -32.3900   25.7480 C   0  0  0  0  0  1  0  0  0  0  0  0
  -25.4360  -33.7950   24.1690 N   0  0  0  0  0  0  0  0  0  0  0  0
  -25.7710  -34.8650   23.4360 C   0  0  0  0  0  0  0  0  0  0  0  0
  -26.4490  -34.7880   22.4090 O   0  0  0  0  0  0  0  0  0  0  0  0
  -24.8350  -33.9280   24.9690 H   0  0  0  0  0  0  0  0  0  0  0  0
  -24.0640  -36.6760   23.0860 C   0  0  0  0  0  1  0  0  0  0  0  0
  -25.2760  -36.2410   23.9230 C   0  0  0  0  0  3  0  0  0  0  0  0
  -27.3770  -37.1000   24.8610 C   0  0  0  0  0  1  0  0  0  0  0  0
  -26.3170  -37.2900   23.8750 N   0  0  0  0  0  0  0  0  0  0  0  0
  -25.9080  -38.2090   24.0220 H   0  0  0  0  0  0  0  0  0  0  0  0
  1  5  1  0
  3  1  1  0
  3  6  1  0
  4  2  1  0
  5 12  1  0
  5  2  1  0
  6  4  1  0
  6  7  1  6
  8  9  1  0
 10 13  1  0
 11 10  2  0
 11 12  1  0
 12  8  2  0
 13 22  1  0
 13  9  2  0
 14 22  1  0
 15 20  1  0
 16 17  1  0
 16 15  1  0
 18 17  1  0
 18 27  1  0
 18 19  1  0
 20 14  1  0
 20 19  1  0
 21 14  2  0
 22 23  1  0
 24 25  2  0
 25 44  1  0
 26 25  1  0
 26 29  1  0
 27 28  1  0
 27 24  1  0
 28 26  2  0
 29 30  1  0
 30 31  2  0
 32 35  1  0
 32 31  1  0
 33 32  2  0
 34 33  1  0
 34 29  2  0
 35 36  1  0
 36 41  2  0
 36 37  1  0
 37 38  2  0
 38 39  1  0
 39 43  1  0
 40 39  2  0
 41 40  1  0
 42 41  1  0
 44 45  1  0
 45 48  1  0
 45 47  1  0
 46 44  2  0
 49 24  1  0
 49 50  1  0
 51 49  1  0
 52 11  1  0
 52 54  2  0
 53 52  1  0
 55 53  1  0
 56 53  1  0
 58  6  1  0
 58 59  1  0
 58 57  1  0
 60 62  1  0
 60 59  1  0
 61 72  2  0
 62 67  1  0
 63 71  1  0
 63 73  1  0
 64 70  1  0
 64 66  1  0
 65 71  1  0
 66 65  1  0
 67 66  2  0
 68 69  1  0
 68 62  2  0
 69 64  2  0
 70 63  1  0
 71 61  1  0
 73 75  2  0
 74 73  1  0
 76 74  1  0
 77 86  2  0
 77 82  1  0
 78 74  1  0
 78 82  1  0
 79 78  1  0
 80 81  1  0
 80 79  1  0
 81 77  1  0
 82 83  2  0
 83 84  1  0
 85 84  2  0
 86 85  1  0
 87 61  1  0
 87 92  1  0
 87 88  1  0
 88 91  1  1
 88 89  1  0
 90 88  1  0
 92 95  1  0
 93 97  1  0
 93 92  1  0
 94 93  2  0
 97 96  1  0
 99 97  1  0
 99100  1  0
 99 98  1  0
M  ISO  4  14 100  22 100  59 101  60 101
M  END
>  <TORSDO>  (57) 
F 20

>  <SCORE>  (57) 
-14.071

>  <name>  (57) 
56

>  <ligand_id>  (57) 
56

>  <original_smiles>  (57) 
[H]c1c([H])c([H])c2c(c1[H])C([H])([H])C([H])([H])C([H])([H])C2([H])N([H])C(=O)C1([H])N(C(=O)C([H])(N([H])C(=O)C([H])(N([H])C([H])([H])[H])C([H])([H])[H])C(C([H])([H])[H])(C([H])([H])[H])C([H])([H])[H])C([H])([H])c2c([H])c(OC([H])([H])C([H])(C([H])([H])[H])[N+]3([H])C([H])([H])C([H])([H])C([H])(c4c([H])c([H])c(N([H])C(=O)N5C([H])([H])C([H])([H])C([H])([H])C([H])(n6nc(-c7c([H])c([H])c(Oc8c([H])c([H])c(F)c([H])c8F)c([H])c7[H])c(C(=O)N([H])[H])c6N([H])[H])C5([H])[H])c([H])c4C(=O)N([H])[H])C([H])([H])C3([H])[H])c([H])c([H])c2C1([H])[H]

>  <smiles>  (57) 
[H]c1c([H])c([H])c2c(c1[H])C([H])([H])C([H])([H])C([H])([H])C2([H])N([H])C(=O)C1([H])N(C(=O)C([H])(N([H])C(=O)C([H])(N([H])C([H])([H])[H])C([H])([H])[H])C(C([H])([H])[H])(C([H])([H])[H])C([H])([H])[H])C([H])([H])c2c([H])c(OC([H])([H])C([H])(C([H])([H])[H])[N+]3([H])C([H])([H])C([H])([H])C([H])(c4c([H])c([H])c(N([H])C(=O)N5C([H])([H])C([H])([H])C([H])([H])C([H])(n6nc(-c7c([H])c([H])c(Oc8c([H])c([H])c(F)c([H])c8F)c([H])c7[H])c(C(=O)N([H])[H])c6N([H])[H])C5([H])[H])c([H])c4C(=O)N([H])[H])C([H])([H])C3([H])[H])c([H])c([H])c2C1([H])[H]

$$$$
57:0:0
     RDKit          3D

 92100  0  0  1  0  0  0  0  0999 V2000
  -29.7340  -21.6300   19.6140 C   0  0  0  0  0  2  0  0  0  0  0  0
  -30.5360  -19.6120   21.1100 C   0  0  0  0  0  3  0  0  0  0  0  0
  -30.7050  -18.2130   21.3380 C   0  0  0  0  0  3  0  0  0  0  0  0
  -29.2440  -19.1000   19.1670 C   0  0  0  0  0  3  0  0  0  0  0  0
  -29.7970  -20.1000   20.0100 C   0  0  0  0  0  0  0  0  0  0  0  0
  -29.4180  -17.6910   19.3760 C   0  0  0  0  0  0  0  0  0  0  0  0
  -30.1710  -17.1880   20.4900 C   0  0  0  0  0  0  0  0  0  0  0  0
  -28.7310  -16.7800   18.3720 C   0  0  0  0  0  1  0  0  0  0  0  0
  -30.8620  -14.7470   20.0520 C   0  0  0  0  0  0  0  0  0  0  0  0
  -30.5000  -12.5630   18.8900 C   0  0  0  0  0  2  0  0  0  0  0  0
  -29.4630  -12.7140   17.7550 C   0  0  0  0  0  2  0  0  0  0  0  0
  -28.0310  -12.5370   18.2940 C   0  0  0  0  0  2  0  0  0  0  0  0
  -27.7740  -13.3490   19.5890 C   0  0  0  0  0  3  0  0  0  0  0  0
  -28.9180  -13.1820   20.6060 C   0  0  0  0  0  2  0  0  0  0  0  0
  -30.1790  -13.5550   19.9420 N   0  0  0  0  0  0  0  0  0  0  0  0
  -31.9130  -14.9240   19.4290 O   0  0  0  0  0  0  0  0  0  0  0  0
  -30.5950  -15.4800   22.2790 C   0  0  0  0  0  1  0  0  0  0  0  0
  -30.3500  -15.7520   20.8520 N   0  0  0  0  0  0  0  0  0  0  0  0
  -25.4620  -13.9080   20.5590 C   0  0  0  0  0  0  0  0  0  0  0  0
  -24.4250  -13.1170   20.9710 C   0  0  0  0  0  0  0  0  0  0  0  0
  -24.8730  -11.7690   20.8190 C   0  0  0  0  0  0  0  0  0  0  0  0
  -26.4730  -13.0410   20.1760 N   0  0  0  0  0  0  0  0  0  0  0  0
  -26.1290  -11.7460   20.3910 N   0  0  0  0  0  0  0  0  0  0  0  0
  -24.1560  -10.4980   20.9970 C   0  0  0  0  0  0  0  0  0  0  0  0
  -24.6020   -9.5210   21.9140 C   0  0  0  0  0  3  0  0  0  0  0  0
  -23.8860   -8.3140   22.0780 C   0  0  0  0  0  3  0  0  0  0  0  0
  -22.7090   -8.0800   21.3270 C   0  0  0  0  0  0  0  0  0  0  0  0
  -22.2840   -9.0470   20.3990 C   0  0  0  0  0  3  0  0  0  0  0  0
  -23.0010  -10.2430   20.2320 C   0  0  0  0  0  3  0  0  0  0  0  0
  -21.9640   -6.9290   21.4010 O   0  0  0  0  0  0  0  0  0  0  0  0
  -21.8450   -6.2220   22.5710 C   0  0  0  0  0  0  0  0  0  0  0  0
  -21.3040   -6.8010   23.7390 C   0  0  0  0  0  3  0  0  0  0  0  0
  -21.1370   -6.0190   24.8990 C   0  0  0  0  0  3  0  0  0  0  0  0
  -21.5000   -4.6590   24.8910 C   0  0  0  0  0  0  0  0  0  0  0  0
  -22.0340   -4.0800   23.7270 C   0  0  0  0  0  3  0  0  0  0  0  0
  -22.2030   -4.8590   22.5690 C   0  0  0  0  0  0  0  0  0  0  0  0
  -22.6980   -4.2900   21.4440 F   0  0  0  0  0  0  0  0  0  0  0  0
  -21.3320   -3.9060   26.0030 F   0  0  0  0  0  0  0  0  0  0  0  0
  -23.0610  -13.5800   21.3940 C   0  0  0  0  0  0  0  0  0  0  0  0
  -22.4060  -12.8340   22.2770 N   0  0  0  0  0  0  0  0  0  0  0  0
  -22.5880  -14.6370   20.9790 O   0  0  0  0  0  0  0  0  0  0  0  0
  -22.8040  -11.9780   22.6340 H   0  0  0  0  0  0  0  0  0  0  0  0
  -21.4950  -13.1260   22.6000 H   0  0  0  0  0  0  0  0  0  0  0  0
  -25.6260  -15.2870   20.4590 N   0  0  0  0  0  0  0  0  0  0  0  0
  -24.8900  -15.9390   20.7040 H   0  0  0  0  0  0  0  0  0  0  0  0
  -26.4770  -15.7460   20.1610 H   0  0  0  0  0  0  0  0  0  0  0  0
  -29.1470  -24.0540   20.0850 C   0  0  0  0  0  0  0  0  0  0  0  0
  -28.0480  -22.2660   21.4110 C   0  0  0  0  0  1  0  0  0  0  0  0
  -29.0010  -22.7070   20.3870 N   0  0  0  0  0  0  0  0  0  0  0  0
  -29.9610  -24.4210   19.2300 O   0  0  0  0  0  0  0  0  0  0  0  0
  -28.2790  -25.1750   20.7930 C   0  0  0  0  0  2  0  0  0  0  0  0
  -28.5100  -26.5770   20.3470 O   0  0  0  0  0  0  0  0  0  0  0  0
  -24.6730  -31.9580   23.2470 C   0  0  0  0  0  0  0  0  0  0  0  0
  -27.3880  -27.4130   20.2900 C   0  0  0  0  0  0  0  0  0  0  0  0
  -23.5060  -30.5180   21.6140 C   0  0  0  0  0  3  0  0  0  0  0  0
  -24.9980  -28.9750   20.2240 C   0  0  0  0  0  0  0  0  0  0  0  0
  -26.0400  -30.8820   21.4490 C   0  0  0  0  0  2  0  0  0  0  0  0
  -26.1510  -29.4960   20.8250 C   0  0  0  0  0  0  0  0  0  0  0  0
  -27.3510  -28.7260   20.8490 C   0  0  0  0  0  3  0  0  0  0  0  0
  -26.2190  -26.9460   19.6500 C   0  0  0  0  0  3  0  0  0  0  0  0
  -25.0340  -27.7050   19.6250 C   0  0  0  0  0  3  0  0  0  0  0  0
  -23.7460  -29.8260   20.2450 C   0  0  0  0  0  2  0  0  0  0  0  0
  -24.7580  -31.1370   22.1610 N   0  0  0  0  0  0  0  0  0  0  0  0
  -23.5800  -32.2240   23.7700 O   0  0  0  0  0  0  0  0  0  0  0  0
  -22.8540  -29.5030   22.5810 C   0  0  0  0  0  0  0  0  0  0  0  0
  -21.5330  -29.2980   22.4420 N   0  0  0  0  0  0  0  0  0  0  0  0
  -23.5340  -28.9030   23.4180 O   0  0  0  0  0  0  0  0  0  0  0  0
  -21.0410  -29.8350   21.7400 H   0  0  0  0  0  0  0  0  0  0  0  0
  -18.1720  -28.0420   22.9130 C   0  0  0  0  0  0  0  0  0  0  0  0
  -20.7210  -28.3580   23.2170 C   0  0  0  0  0  3  0  0  0  0  0  0
  -20.8600  -26.9180   22.6710 C   0  0  0  0  0  2  0  0  0  0  0  0
  -19.7820  -26.5550   21.6450 C   0  0  0  0  0  2  0  0  0  0  0  0
  -18.3860  -26.6850   22.2640 C   0  0  0  0  0  2  0  0  0  0  0  0
  -19.2700  -28.8340   23.3460 C   0  0  0  0  0  0  0  0  0  0  0  0
  -19.0160  -30.1030   23.9110 C   0  0  0  0  0  3  0  0  0  0  0  0
  -17.7010  -30.5820   24.0480 C   0  0  0  0  0  3  0  0  0  0  0  0
  -16.6170  -29.7880   23.6330 C   0  0  0  0  0  3  0  0  0  0  0  0
  -16.8540  -28.5200   23.0710 C   0  0  0  0  0  3  0  0  0  0  0  0
  -25.9400  -32.6190   23.8720 C   0  0  0  0  0  3  0  0  0  0  0  0
  -26.4700  -31.8610   25.1520 C   0  0  1  0  0  0  0  0  0  0  0  0
  -25.3760  -31.5950   26.2140 C   0  0  0  0  0  1  0  0  0  0  0  0
  -27.0900  -30.4970   24.7650 C   0  0  0  0  0  1  0  0  0  0  0  0
  -27.5950  -32.6840   25.8200 C   0  0  0  0  0  1  0  0  0  0  0  0
  -25.6000  -34.0100   24.1990 N   0  0  0  0  0  0  0  0  0  0  0  0
  -25.9110  -35.0690   23.4390 C   0  0  0  0  0  0  0  0  0  0  0  0
  -26.5850  -34.9770   22.4090 O   0  0  0  0  0  0  0  0  0  0  0  0
  -25.0000  -34.1530   24.9980 H   0  0  0  0  0  0  0  0  0  0  0  0
  -24.1470  -36.8250   23.0760 C   0  0  0  0  0  1  0  0  0  0  0  0
  -25.3930  -36.4470   23.8920 C   0  0  0  0  0  3  0  0  0  0  0  0
  -27.5040  -37.3810   24.7320 C   0  0  0  0  0  1  0  0  0  0  0  0
  -26.4040  -37.5220   23.7820 N   0  0  0  0  0  0  0  0  0  0  0  0
  -25.9770  -38.4330   23.9230 H   0  0  0  0  0  0  0  0  0  0  0  0
  1  5  1  0
  1 49  1  0
  2  3  1  0
  4  6  2  0
  4  5  1  0
  5  2  2  0
  6  7  1  0
  7 18  1  0
  7  3  2  0
  8  6  1  0
  9 18  1  0
 10 15  1  0
 11 12  1  0
 11 10  1  0
 13 12  1  0
 13 22  1  0
 13 14  1  0
 15  9  1  0
 15 14  1  0
 16  9  2  0
 18 17  1  0
 19 20  2  0
 20 39  1  0
 21 20  1  0
 21 24  1  0
 22 23  1  0
 22 19  1  0
 23 21  2  0
 24 25  1  0
 25 26  2  0
 27 30  1  0
 27 26  1  0
 28 27  2  0
 29 28  1  0
 29 24  2  0
 30 31  1  0
 31 32  1  0
 32 33  2  0
 34 33  1  0
 34 38  1  0
 35 34  2  0
 36 31  2  0
 36 35  1  0
 37 36  1  0
 39 40  1  0
 40 43  1  0
 40 42  1  0
 41 39  2  0
 44 19  1  0
 44 45  1  0
 46 44  1  0
 47 49  1  0
 47 51  1  0
 49 48  1  0
 50 47  2  0
 52 51  1  0
 53 64  2  0
 54 52  1  0
 54 59  1  0
 55 63  1  0
 55 65  1  0
 56 62  1  0
 56 58  1  0
 57 63  1  0
 58 59  2  0
 58 57  1  0
 60 54  2  0
 61 60  1  0
 61 56  2  0
 62 55  1  0
 63 53  1  0
 65 67  2  0
 66 65  1  0
 68 66  1  0
 69 78  2  0
 69 74  1  0
 70 66  1  0
 70 74  1  0
 71 70  1  0
 72 73  1  0
 72 71  1  0
 73 69  1  0
 74 75  2  0
 75 76  1  0
 77 76  2  0
 78 77  1  0
 79 53  1  0
 79 84  1  0
 79 80  1  0
 80 83  1  1
 80 81  1  0
 82 80  1  0
 84 87  1  0
 85 89  1  0
 85 84  1  0
 86 85  2  0
 89 88  1  0
 91 89  1  0
 91 92  1  0
 91 90  1  0
M  ISO  4   9 100  18 100  51 101  52 101
M  END
>  <TORSDO>  (58) 
F 19

>  <SCORE>  (58) 
-13.349

>  <name>  (58) 
57

>  <ligand_id>  (58) 
57

>  <original_smiles>  (58) 
[H]c1c([H])c([H])c2c(c1[H])C([H])([H])C([H])([H])C([H])([H])C2([H])N([H])C(=O)C1([H])N(C(=O)C([H])(N([H])C(=O)C([H])(N([H])C([H])([H])[H])C([H])([H])[H])C(C([H])([H])[H])(C([H])([H])[H])C([H])([H])[H])C([H])([H])c2c([H])c(OC([H])([H])C(=O)N(C([H])([H])[H])C([H])([H])c3c([H])c([H])c(N(C(=O)N4C([H])([H])C([H])([H])C([H])([H])C([H])(n5nc(-c6c([H])c([H])c(Oc7c([H])c([H])c(F)c([H])c7F)c([H])c6[H])c(C(=O)N([H])[H])c5N([H])[H])C4([H])[H])C([H])([H])[H])c(C([H])([H])[H])c3[H])c([H])c([H])c2C1([H])[H]

>  <smiles>  (58) 
[H]c1c([H])c([H])c2c(c1[H])C([H])([H])C([H])([H])C([H])([H])C2([H])N([H])C(=O)C1([H])N(C(=O)C([H])(N([H])C(=O)C([H])(N([H])C([H])([H])[H])C([H])([H])[H])C(C([H])([H])[H])(C([H])([H])[H])C([H])([H])[H])C([H])([H])c2c([H])c(OC([H])([H])C(=O)N(C([H])([H])[H])C([H])([H])c3c([H])c([H])c(N(C(=O)N4C([H])([H])C([H])([H])C([H])([H])C([H])(n5nc(-c6c([H])c([H])c(Oc7c([H])c([H])c(F)c([H])c7F)c([H])c6[H])c(C(=O)N([H])[H])c5N([H])[H])C4([H])[H])C([H])([H])[H])c(C([H])([H])[H])c3[H])c([H])c([H])c2C1([H])[H]

$$$$
58:0:0
     RDKit          3D

 96104  0  0  1  0  0  0  0  0999 V2000
  -29.1310  -21.8430   20.2500 C   0  0  0  0  0  3  0  0  0  0  0  0
  -28.6400  -20.3650   20.5740 C   0  0  0  0  0  0  0  0  0  0  0  0
  -31.4070  -17.8050   20.5980 C   0  0  0  0  0  2  0  0  0  0  0  0
  -30.9490  -19.2760   20.7310 C   0  0  0  0  0  2  0  0  0  0  0  0
  -29.0380  -17.9130   21.0680 C   0  0  0  0  0  2  0  0  0  0  0  0
  -30.2900  -16.9780   21.2380 C   0  0  0  0  0  3  0  0  0  0  0  0
  -29.4880  -19.2890   20.7390 N   0  0  0  0  0  0  0  0  0  0  0  0
  -27.4200  -20.2020   20.6950 O   0  0  0  0  0  0  0  0  0  0  0  0
  -30.8750  -14.6070   20.1860 C   0  0  0  0  0  0  0  0  0  0  0  0
  -30.6280  -12.4520   18.9620 C   0  0  0  0  0  2  0  0  0  0  0  0
  -29.6110  -12.6110   17.8110 C   0  0  0  0  0  2  0  0  0  0  0  0
  -28.1610  -12.4270   18.3060 C   0  0  0  0  0  2  0  0  0  0  0  0
  -27.8610  -13.2770   19.5680 C   0  0  0  0  0  3  0  0  0  0  0  0
  -28.9530  -13.0270   20.6310 C   0  0  0  0  0  2  0  0  0  0  0  0
  -30.2520  -13.4000   20.0310 N   0  0  0  0  0  0  0  0  0  0  0  0
  -31.9850  -14.8470   19.6960 O   0  0  0  0  0  0  0  0  0  0  0  0
  -30.1060  -15.5530   20.8180 N   0  0  0  0  0  0  0  0  0  0  0  0
  -29.2470  -15.1560   21.1680 H   0  0  0  0  0  0  0  0  0  0  0  0
  -25.5280  -13.9050   20.4630 C   0  0  0  0  0  0  0  0  0  0  0  0
  -24.4680  -13.1360   20.8730 C   0  0  0  0  0  0  0  0  0  0  0  0
  -24.8990  -11.7820   20.7540 C   0  0  0  0  0  0  0  0  0  0  0  0
  -26.5320  -13.0130   20.1160 N   0  0  0  0  0  0  0  0  0  0  0  0
  -26.1600  -11.7290   20.3460 N   0  0  0  0  0  0  0  0  0  0  0  0
  -24.1640  -10.5240   20.9420 C   0  0  0  0  0  0  0  0  0  0  0  0
  -24.5770   -9.5650   21.8910 C   0  0  0  0  0  3  0  0  0  0  0  0
  -23.8450   -8.3710   22.0670 C   0  0  0  0  0  3  0  0  0  0  0  0
  -22.6840   -8.1330   21.2930 C   0  0  0  0  0  0  0  0  0  0  0  0
  -22.2910   -9.0810   20.3320 C   0  0  0  0  0  3  0  0  0  0  0  0
  -23.0230  -10.2660   20.1540 C   0  0  0  0  0  3  0  0  0  0  0  0
  -21.9280   -6.9880   21.3690 O   0  0  0  0  0  0  0  0  0  0  0  0
  -21.7640   -6.3180   22.5530 C   0  0  0  0  0  0  0  0  0  0  0  0
  -21.1950   -6.9350   23.6900 C   0  0  0  0  0  3  0  0  0  0  0  0
  -20.9770   -6.1840   24.8620 C   0  0  0  0  0  3  0  0  0  0  0  0
  -21.3220   -4.8190   24.9000 C   0  0  0  0  0  0  0  0  0  0  0  0
  -21.8880   -4.2050   23.7690 C   0  0  0  0  0  3  0  0  0  0  0  0
  -22.1050   -4.9510   22.6000 C   0  0  0  0  0  0  0  0  0  0  0  0
  -22.6280   -4.3490   21.5040 F   0  0  0  0  0  0  0  0  0  0  0  0
  -21.1070   -4.0960   26.0260 F   0  0  0  0  0  0  0  0  0  0  0  0
  -23.1010  -13.6330   21.2530 C   0  0  0  0  0  0  0  0  0  0  0  0
  -22.4100  -12.9170   22.1360 N   0  0  0  0  0  0  0  0  0  0  0  0
  -22.6540  -14.6880   20.8070 O   0  0  0  0  0  0  0  0  0  0  0  0
  -22.7790  -12.0700   22.5410 H   0  0  0  0  0  0  0  0  0  0  0  0
  -21.4910  -13.2310   22.4170 H   0  0  0  0  0  0  0  0  0  0  0  0
  -25.7070  -15.2760   20.3420 N   0  0  0  0  0  0  0  0  0  0  0  0
  -24.9630  -15.9320   20.5480 H   0  0  0  0  0  0  0  0  0  0  0  0
  -26.5380  -15.7280   19.9790 H   0  0  0  0  0  0  0  0  0  0  0  0
  -28.1070  -24.2010   20.9800 C   0  0  0  0  0  0  0  0  0  0  0  0
  -28.2110  -22.8370   20.8960 N   0  0  0  0  0  0  0  0  0  0  0  0
  -27.5440  -24.6650   21.9730 O   0  0  0  0  0  0  0  0  0  0  0  0
  -27.6040  -22.3520   21.5480 H   0  0  0  0  0  0  0  0  0  0  0  0
  -28.5570  -25.2060   19.8590 C   0  0  0  0  0  2  0  0  0  0  0  0
  -28.5080  -26.6330   20.2130 O   0  0  0  0  0  0  0  0  0  0  0  0
  -24.6580  -31.8380   23.2010 C   0  0  0  0  0  0  0  0  0  0  0  0
  -27.3480  -27.3930   20.1260 C   0  0  0  0  0  0  0  0  0  0  0  0
  -23.4800  -30.4420   21.5340 C   0  0  0  0  0  3  0  0  0  0  0  0
  -24.9630  -28.9410   20.0990 C   0  0  0  0  0  0  0  0  0  0  0  0
  -26.0100  -30.8160   21.3740 C   0  0  0  0  0  2  0  0  0  0  0  0
  -26.1130  -29.4540   20.7070 C   0  0  0  0  0  0  0  0  0  0  0  0
  -27.3080  -28.6880   20.7140 C   0  0  0  0  0  3  0  0  0  0  0  0
  -26.1730  -26.9140   19.4990 C   0  0  0  0  0  3  0  0  0  0  0  0
  -24.9930  -27.6750   19.4900 C   0  0  0  0  0  3  0  0  0  0  0  0
  -23.7110  -29.7940   20.1460 C   0  0  0  0  0  2  0  0  0  0  0  0
  -24.7310  -31.0500   22.0910 N   0  0  0  0  0  0  0  0  0  0  0  0
  -23.5700  -32.0890   23.7380 O   0  0  0  0  0  0  0  0  0  0  0  0
  -22.8500  -29.3900   22.4720 C   0  0  0  0  0  0  0  0  0  0  0  0
  -21.5290  -29.1840   22.3400 N   0  0  0  0  0  0  0  0  0  0  0  0
  -23.5440  -28.7640   23.2770 O   0  0  0  0  0  0  0  0  0  0  0  0
  -21.0310  -29.7430   21.6600 H   0  0  0  0  0  0  0  0  0  0  0  0
  -18.1670  -27.9650   22.8510 C   0  0  0  0  0  0  0  0  0  0  0  0
  -20.7270  -28.2230   23.0990 C   0  0  0  0  0  3  0  0  0  0  0  0
  -20.8270  -26.8080   22.4880 C   0  0  0  0  0  2  0  0  0  0  0  0
  -19.7170  -26.5080   21.4770 C   0  0  0  0  0  2  0  0  0  0  0  0
  -18.3410  -26.6330   22.1400 C   0  0  0  0  0  2  0  0  0  0  0  0
  -19.2880  -28.7190   23.2870 C   0  0  0  0  0  0  0  0  0  0  0  0
  -19.0710  -29.9670   23.9080 C   0  0  0  0  0  3  0  0  0  0  0  0
  -17.7680  -30.4570   24.1080 C   0  0  0  0  0  3  0  0  0  0  0  0
  -16.6620  -29.7000   23.6890 C   0  0  0  0  0  3  0  0  0  0  0  0
  -16.8620  -28.4580   23.0600 C   0  0  0  0  0  3  0  0  0  0  0  0
  -25.9320  -32.4780   23.8330 C   0  0  0  0  0  3  0  0  0  0  0  0
  -25.6050  -33.8710   24.1680 N   0  0  0  0  0  0  0  0  0  0  0  0
  -25.9170  -34.9280   23.4090 C   0  0  0  0  0  0  0  0  0  0  0  0
  -26.5910  -34.8410   22.3800 O   0  0  0  0  0  0  0  0  0  0  0  0
  -25.0100  -34.0180   24.9720 H   0  0  0  0  0  0  0  0  0  0  0  0
  -24.1580  -36.6830   23.0500 C   0  0  0  0  0  1  0  0  0  0  0  0
  -25.4010  -36.3040   23.8700 C   0  0  0  0  0  3  0  0  0  0  0  0
  -27.5040  -37.2220   24.7360 C   0  0  0  0  0  1  0  0  0  0  0  0
  -26.4140  -37.3770   23.7750 N   0  0  0  0  0  0  0  0  0  0  0  0
  -25.9880  -38.2880   23.9200 H   0  0  0  0  0  0  0  0  0  0  0  0
  -26.4550  -31.7120   25.1100 C   0  0  1  0  0  0  0  0  0  0  0  0
  -25.3540  -31.4500   26.1620 C   0  0  0  0  0  1  0  0  0  0  0  0
  -27.0710  -30.3480   24.7240 C   0  0  0  0  0  1  0  0  0  0  0  0
  -27.5830  -32.5270   25.7870 C   0  0  0  0  0  1  0  0  0  0  0  0
  -27.9840  -21.9760   17.9440 C   0  0  0  0  0  1  0  0  0  0  0  0
  -29.2950  -22.1390   18.7270 C   0  0  0  0  0  3  0  0  0  0  0  0
  -30.6770  -21.7360   16.5710 C   0  0  0  0  0  1  0  0  0  0  0  0
  -30.4740  -21.3950   18.0580 C   0  0  0  0  0  2  0  0  0  0  0  0
  1  2  1  0
  1 48  1  0
  2  8  2  0
  2  7  1  0
  3  4  1  0
  3  6  1  0
  4  7  1  0
  5  6  1  0
  6 17  1  0
  7  5  1  0
  9 17  1  0
 10 15  1  0
 11 12  1  0
 11 10  1  0
 13 12  1  0
 13 22  1  0
 13 14  1  0
 15  9  1  0
 15 14  1  0
 16  9  2  0
 17 18  1  0
 19 20  2  0
 20 39  1  0
 21 20  1  0
 21 24  1  0
 22 23  1  0
 22 19  1  0
 23 21  2  0
 24 25  1  0
 25 26  2  0
 27 30  1  0
 27 26  1  0
 28 27  2  0
 29 28  1  0
 29 24  2  0
 30 31  1  0
 31 36  2  0
 31 32  1  0
 32 33  2  0
 33 34  1  0
 34 38  1  0
 35 34  2  0
 36 35  1  0
 37 36  1  0
 39 40  1  0
 40 43  1  0
 40 42  1  0
 41 39  2  0
 44 19  1  0
 44 45  1  0
 46 44  1  0
 47 49  2  0
 48 47  1  0
 48 50  1  0
 51 52  1  0
 51 47  1  0
 53 64  2  0
 54 52  1  0
 54 59  1  0
 55 63  1  0
 55 65  1  0
 56 62  1  0
 56 58  1  0
 57 63  1  0
 58 59  2  0
 58 57  1  0
 60 54  2  0
 61 60  1  0
 61 56  2  0
 62 55  1  0
 63 53  1  0
 65 67  2  0
 66 65  1  0
 68 66  1  0
 69 78  2  0
 69 74  1  0
 70 66  1  0
 70 74  1  0
 71 70  1  0
 72 73  1  0
 72 71  1  0
 73 69  1  0
 74 75  2  0
 75 76  1  0
 77 76  2  0
 78 77  1  0
 79 53  1  0
 79 80  1  0
 79 89  1  0
 80 83  1  0
 81 85  1  0
 81 80  1  0
 82 81  2  0
 85 84  1  0
 87 85  1  0
 87 88  1  0
 87 86  1  0
 89 92  1  1
 89 90  1  0
 91 89  1  0
 94 93  1  0
 94  1  1  0
 95 96  1  0
 96 94  1  0
M  ISO  4   9 100  17 100  51 101  52 101
M  END
>  <TORSDO>  (59) 
F 21

>  <SCORE>  (59) 
-13.073

>  <name>  (59) 
58

>  <ligand_id>  (59) 
58

>  <original_smiles>  (59) 
[H]c1c([H])c([H])c2c(c1[H])C([H])([H])C([H])([H])C([H])([H])C2([H])N([H])C(=O)C1([H])N(C(=O)C([H])(N([H])C(=O)C([H])(N([H])C([H])([H])[H])C([H])([H])[H])C(C([H])([H])[H])(C([H])([H])[H])C([H])([H])[H])C([H])([H])c2c([H])c(OC([H])([H])C(=O)N([H])C([H])(C(=O)N3C([H])([H])C([H])([H])C([H])(N([H])C(=O)N4C([H])([H])C([H])([H])C([H])([H])C([H])(n5nc(-c6c([H])c([H])c(Oc7c([H])c([H])c(F)c([H])c7F)c([H])c6[H])c(C(=O)N([H])[H])c5N([H])[H])C4([H])[H])C3([H])[H])C([H])(C([H])([H])[H])C([H])([H])C([H])([H])[H])c([H])c([H])c2C1([H])[H]

>  <smiles>  (59) 
[H]c1c([H])c([H])c2c(c1[H])C([H])([H])C([H])([H])C([H])([H])C2([H])N([H])C(=O)C1([H])N(C(=O)C([H])(N([H])C(=O)C([H])(N([H])C([H])([H])[H])C([H])([H])[H])C(C([H])([H])[H])(C([H])([H])[H])C([H])([H])[H])C([H])([H])c2c([H])c(OC([H])([H])C(=O)N([H])C([H])(C(=O)N3C([H])([H])C([H])([H])C([H])(N([H])C(=O)N4C([H])([H])C([H])([H])C([H])([H])C([H])(n5nc(-c6c([H])c([H])c(Oc7c([H])c([H])c(F)c([H])c7F)c([H])c6[H])c(C(=O)N([H])[H])c5N([H])[H])C4([H])[H])C3([H])[H])C([H])(C([H])([H])[H])C([H])([H])C([H])([H])[H])c([H])c([H])c2C1([H])[H]

$$$$
59:0:0
     RDKit          3D

 96104  0  0  1  0  0  0  0  0999 V2000
  -28.6420  -22.9130   20.8470 C   0  0  0  0  0  0  0  0  0  0  0  0
  -28.8600  -21.8470   20.0490 N   0  0  0  0  0  0  0  0  0  0  0  0
  -28.6050  -22.8110   22.0730 O   0  0  0  0  0  0  0  0  0  0  0  0
  -28.9980  -22.0330   19.0650 H   0  0  0  0  0  0  0  0  0  0  0  0
  -28.2860  -20.5280   20.3590 C   0  0  0  0  0  2  0  0  0  0  0  0
  -29.7440  -18.7120   19.2190 C   0  0  0  0  0  3  0  0  0  0  0  0
  -29.2420  -18.5450   21.5880 C   0  0  0  0  0  3  0  0  0  0  0  0
  -30.3030  -17.4060   19.2520 C   0  0  0  0  0  3  0  0  0  0  0  0
  -29.7980  -17.2520   21.6240 C   0  0  0  0  0  3  0  0  0  0  0  0
  -29.1680  -19.2730   20.3830 C   0  0  0  0  0  0  0  0  0  0  0  0
  -30.2920  -16.6450   20.4520 C   0  0  0  0  0  0  0  0  0  0  0  0
  -31.0660  -14.4270   19.5860 C   0  0  0  0  0  0  0  0  0  0  0  0
  -30.6070  -12.2870   18.4380 C   0  0  0  0  0  2  0  0  0  0  0  0
  -29.4890  -12.4950   17.3940 C   0  0  0  0  0  2  0  0  0  0  0  0
  -28.0970  -12.3490   18.0380 C   0  0  0  0  0  2  0  0  0  0  0  0
  -27.9540  -13.1730   19.3440 C   0  0  0  0  0  3  0  0  0  0  0  0
  -29.1600  -12.9240   20.2780 C   0  0  0  0  0  2  0  0  0  0  0  0
  -30.3990  -13.2410   19.5380 N   0  0  0  0  0  0  0  0  0  0  0  0
  -32.0000  -14.7100   18.8260 O   0  0  0  0  0  0  0  0  0  0  0  0
  -30.6610  -15.2650   20.5540 N   0  0  0  0  0  0  0  0  0  0  0  0
  -30.2000  -14.7790   21.3090 H   0  0  0  0  0  0  0  0  0  0  0  0
  -25.7450  -13.7900   20.5200 C   0  0  0  0  0  0  0  0  0  0  0  0
  -24.7090  -13.0210   20.9800 C   0  0  0  0  0  0  0  0  0  0  0  0
  -25.0770  -11.6660   20.7200 C   0  0  0  0  0  0  0  0  0  0  0  0
  -26.6830  -12.9000   20.0160 N   0  0  0  0  0  0  0  0  0  0  0  0
  -26.2910  -11.6120   20.1860 N   0  0  0  0  0  0  0  0  0  0  0  0
  -24.3210  -10.4190   20.8970 C   0  0  0  0  0  0  0  0  0  0  0  0
  -24.7590   -9.4070   21.7800 C   0  0  0  0  0  3  0  0  0  0  0  0
  -24.0060   -8.2250   21.9450 C   0  0  0  0  0  3  0  0  0  0  0  0
  -22.8010   -8.0460   21.2250 C   0  0  0  0  0  0  0  0  0  0  0  0
  -22.3800   -9.0460   20.3310 C   0  0  0  0  0  3  0  0  0  0  0  0
  -23.1330  -10.2210   20.1650 C   0  0  0  0  0  3  0  0  0  0  0  0
  -22.0180   -6.9200   21.3020 O   0  0  0  0  0  0  0  0  0  0  0  0
  -21.8650   -6.2270   22.4760 C   0  0  0  0  0  0  0  0  0  0  0  0
  -21.3590   -6.8420   23.6430 C   0  0  0  0  0  3  0  0  0  0  0  0
  -21.1530   -6.0760   24.8070 C   0  0  0  0  0  3  0  0  0  0  0  0
  -21.4390   -4.6980   24.8060 C   0  0  0  0  0  0  0  0  0  0  0  0
  -21.9370   -4.0830   23.6440 C   0  0  0  0  0  3  0  0  0  0  0  0
  -22.1460   -4.8460   22.4810 C   0  0  0  0  0  0  0  0  0  0  0  0
  -22.6050   -4.2430   21.3570 F   0  0  0  0  0  0  0  0  0  0  0  0
  -21.2350   -3.9610   25.9240 F   0  0  0  0  0  0  0  0  0  0  0  0
  -23.4090  -13.5180   21.5470 C   0  0  0  0  0  0  0  0  0  0  0  0
  -22.8250  -12.7770   22.4830 N   0  0  0  0  0  0  0  0  0  0  0  0
  -22.9270  -14.5960   21.1990 O   0  0  0  0  0  0  0  0  0  0  0  0
  -23.2370  -11.9080   22.7890 H   0  0  0  0  0  0  0  0  0  0  0  0
  -21.9600  -13.0860   22.9040 H   0  0  0  0  0  0  0  0  0  0  0  0
  -25.9590  -15.1640   20.4740 N   0  0  0  0  0  0  0  0  0  0  0  0
  -25.2710  -15.8290   20.8100 H   0  0  0  0  0  0  0  0  0  0  0  0
  -26.7860  -15.6050   20.0920 H   0  0  0  0  0  0  0  0  0  0  0  0
  -28.1620  -24.2190   20.1830 C   0  0  0  0  0  3  0  0  0  0  0  0
  -26.6870  -24.1410   20.2490 N   0  0  0  0  0  4  0  0  0  0  0  0
  -26.2570  -24.9820   19.9120 H   0  0  0  0  0  0  0  0  0  0  0  0
  -26.4020  -23.9860   21.2020 H   0  0  0  0  0  0  0  0  0  0  0  0
  -26.3650  -23.3610   19.7020 H   0  0  0  0  0  0  0  0  0  0  0  0
  -28.6790  -25.5270   20.8700 C   0  0  0  0  0  2  0  0  0  0  0  0
  -28.6020  -26.7240   20.0580 O   0  0  0  0  0  0  0  0  0  0  0  0
  -24.5060  -31.7010   23.1630 C   0  0  0  0  0  0  0  0  0  0  0  0
  -27.4170  -27.4270   20.0730 C   0  0  0  0  0  0  0  0  0  0  0  0
  -23.4130  -30.3040   21.4380 C   0  0  0  0  0  3  0  0  0  0  0  0
  -24.9760  -28.8570   20.0330 C   0  0  0  0  0  0  0  0  0  0  0  0
  -25.9320  -30.7440   21.3570 C   0  0  0  0  0  2  0  0  0  0  0  0
  -26.0880  -29.3910   20.6940 C   0  0  0  0  0  0  0  0  0  0  0  0
  -27.3110  -28.6790   20.7220 C   0  0  0  0  0  3  0  0  0  0  0  0
  -26.3030  -26.9360   19.3610 C   0  0  0  0  0  3  0  0  0  0  0  0
  -25.0770  -27.6260   19.3620 C   0  0  0  0  0  3  0  0  0  0  0  0
  -23.7030  -29.6700   20.0510 C   0  0  0  0  0  2  0  0  0  0  0  0
  -24.6320  -30.9340   22.0430 N   0  0  0  0  0  0  0  0  0  0  0  0
  -23.3960  -31.9220   23.6660 O   0  0  0  0  0  0  0  0  0  0  0  0
  -22.7650  -29.2340   22.3460 C   0  0  0  0  0  0  0  0  0  0  0  0
  -21.4520  -29.0180   22.1700 N   0  0  0  0  0  0  0  0  0  0  0  0
  -23.4420  -28.6020   23.1640 O   0  0  0  0  0  0  0  0  0  0  0  0
  -20.9670  -29.5820   21.4860 H   0  0  0  0  0  0  0  0  0  0  0  0
  -18.0970  -27.7240   22.5300 C   0  0  0  0  0  0  0  0  0  0  0  0
  -20.6400  -28.0300   22.8800 C   0  0  0  0  0  3  0  0  0  0  0  0
  -20.7950  -26.6290   22.2440 C   0  0  0  0  0  2  0  0  0  0  0  0
  -19.7250  -26.3280   21.1880 C   0  0  0  0  0  2  0  0  0  0  0  0
  -18.3240  -26.4100   21.8020 C   0  0  0  0  0  2  0  0  0  0  0  0
  -19.1860  -28.4930   23.0220 C   0  0  0  0  0  0  0  0  0  0  0  0
  -18.9220  -29.7240   23.6580 C   0  0  0  0  0  3  0  0  0  0  0  0
  -17.6010  -30.1870   23.8090 C   0  0  0  0  0  3  0  0  0  0  0  0
  -16.5260  -29.4150   23.3360 C   0  0  0  0  0  3  0  0  0  0  0  0
  -16.7760  -28.1840   22.7030 C   0  0  0  0  0  3  0  0  0  0  0  0
  -25.7470  -32.3550   23.8490 C   0  0  0  0  0  3  0  0  0  0  0  0
  -25.3990  -33.7480   24.1560 N   0  0  0  0  0  0  0  0  0  0  0  0
  -25.7370  -34.7990   23.3960 C   0  0  0  0  0  0  0  0  0  0  0  0
  -26.4460  -34.7000   22.3920 O   0  0  0  0  0  0  0  0  0  0  0  0
  -24.7740  -33.9000   24.9330 H   0  0  0  0  0  0  0  0  0  0  0  0
  -23.9860  -36.5480   22.9530 C   0  0  0  0  0  1  0  0  0  0  0  0
  -25.2020  -36.1790   23.8180 C   0  0  0  0  0  3  0  0  0  0  0  0
  -27.2790  -37.1220   24.7250 C   0  0  0  0  0  1  0  0  0  0  0  0
  -26.2140  -37.2540   23.7340 N   0  0  0  0  0  0  0  0  0  0  0  0
  -25.7830  -38.1670   23.8500 H   0  0  0  0  0  0  0  0  0  0  0  0
  -26.2130  -31.5950   25.1510 C   0  0  1  0  0  0  0  0  0  0  0  0
  -25.0690  -31.3330   26.1580 C   0  0  0  0  0  1  0  0  0  0  0  0
  -26.8490  -30.2320   24.7920 C   0  0  0  0  0  1  0  0  0  0  0  0
  -27.3070  -32.4170   25.8740 C   0  0  0  0  0  1  0  0  0  0  0  0
  1  3  2  0
  2  5  1  0
  2  1  1  0
  4  2  1  0
  5 10  1  0
  6  8  2  0
  6 10  1  0
  7  9  1  0
  8 11  1  0
 10  7  2  0
 11 20  1  0
 11  9  2  0
 12 20  1  0
 13 18  1  0
 14 15  1  0
 14 13  1  0
 16 15  1  0
 16 25  1  0
 16 17  1  0
 18 12  1  0
 18 17  1  0
 19 12  2  0
 20 21  1  0
 22 23  2  0
 23 42  1  0
 24 27  1  0
 24 23  1  0
 25 26  1  0
 25 22  1  0
 26 24  2  0
 27 28  1  0
 28 29  2  0
 30 33  1  0
 30 29  1  0
 31 30  2  0
 32 31  1  0
 32 27  2  0
 33 34  1  0
 34 39  2  0
 34 35  1  0
 35 36  2  0
 37 36  1  0
 37 41  1  0
 38 37  2  0
 39 38  1  0
 40 39  1  0
 42 43  1  0
 43 45  1  0
 43 46  1  0
 44 42  2  0
 47 22  1  0
 47 48  1  0
 49 47  1  0
 50 51  1  0
 50  1  1  0
 50 55  1  0
 51 53  1  0
 52 51  1  0
 54 51  1  0
 56 58  1  0
 56 55  1  0
 57 68  2  0
 58 63  1  0
 59 67  1  0
 59 69  1  0
 60 66  1  0
 60 62  1  0
 61 67  1  0
 62 63  2  0
 62 61  1  0
 64 65  1  0
 64 58  2  0
 65 60  2  0
 66 59  1  0
 67 57  1  0
 69 71  2  0
 70 69  1  0
 72 70  1  0
 73 82  2  0
 73 78  1  0
 74 70  1  0
 74 78  1  0
 75 74  1  0
 76 77  1  0
 76 75  1  0
 77 73  1  0
 78 79  2  0
 79 80  1  0
 81 80  2  0
 82 81  1  0
 83 57  1  0
 83 84  1  0
 83 93  1  0
 84 87  1  0
 85 89  1  0
 85 84  1  0
 86 85  2  0
 89 88  1  0
 91 89  1  0
 91 92  1  0
 91 90  1  0
 93 96  1  1
 93 94  1  0
 95 93  1  0
M  ISO  4  12 100  20 100  55 101  56 101
M  END
>  <TORSDO>  (60) 
F 21

>  <SCORE>  (60) 
-11.614

>  <name>  (60) 
59

>  <ligand_id>  (60) 
59

>  <original_smiles>  (60) 
[H]c1c([H])c([H])c2c(c1[H])C([H])([H])C([H])([H])C([H])([H])C2([H])N([H])C(=O)C1([H])N(C(=O)C([H])(N([H])C(=O)C([H])(N([H])C([H])([H])[H])C([H])([H])[H])C(C([H])([H])[H])(C([H])([H])[H])C([H])([H])[H])C([H])([H])c2c([H])c(OC([H])([H])C([H])(C(=O)N([H])C([H])([H])c3c([H])c([H])c(N([H])C(=O)N4C([H])([H])C([H])([H])C([H])([H])C([H])(n5nc(-c6c([H])c([H])c(Oc7c([H])c([H])c(F)c([H])c7F)c([H])c6[H])c(C(=O)N([H])[H])c5N([H])[H])C4([H])[H])c([H])c3[H])[N+]([H])([H])[H])c([H])c([H])c2C1([H])[H]

>  <smiles>  (60) 
[H]c1c([H])c([H])c2c(c1[H])C([H])([H])C([H])([H])C([H])([H])C2([H])N([H])C(=O)C1([H])N(C(=O)C([H])(N([H])C(=O)C([H])(N([H])C([H])([H])[H])C([H])([H])[H])C(C([H])([H])[H])(C([H])([H])[H])C([H])([H])[H])C([H])([H])c2c([H])c(OC([H])([H])C([H])(C(=O)N([H])C([H])([H])c3c([H])c([H])c(N([H])C(=O)N4C([H])([H])C([H])([H])C([H])([H])C([H])(n5nc(-c6c([H])c([H])c(Oc7c([H])c([H])c(F)c([H])c7F)c([H])c6[H])c(C(=O)N([H])[H])c5N([H])[H])C4([H])[H])c([H])c3[H])[N+]([H])([H])[H])c([H])c([H])c2C1([H])[H]

$$$$
60:0:0
     RDKit          3D

 98107  0  0  1  0  0  0  0  0999 V2000
  -30.6270  -14.7000   20.5900 C   0  0  0  0  0  0  0  0  0  0  0  0
  -30.4390  -12.5170   19.3940 C   0  0  0  0  0  2  0  0  0  0  0  0
  -29.4990  -12.6920   18.1760 C   0  0  0  0  0  2  0  0  0  0  0  0
  -28.0190  -12.5340   18.5790 C   0  0  0  0  0  2  0  0  0  0  0  0
  -27.6600  -13.3420   19.8540 C   0  0  0  0  0  3  0  0  0  0  0  0
  -28.7020  -13.0990   20.9690 C   0  0  0  0  0  2  0  0  0  0  0  0
  -30.0190  -13.4790   20.4340 N   0  0  0  0  0  0  0  0  0  0  0  0
  -31.7880  -14.8810   20.2020 O   0  0  0  0  0  0  0  0  0  0  0  0
  -29.2210  -19.3090   19.8750 C   0  0  0  0  0  3  0  0  0  0  0  0
  -30.4060  -19.2980   21.9250 C   0  0  0  0  0  3  0  0  0  0  0  0
  -29.2560  -17.8810   19.8860 C   0  0  0  0  0  0  0  0  0  0  0  0
  -29.8050  -20.0860   20.9050 C   0  0  0  0  0  0  0  0  0  0  0  0
  -29.9060  -17.1750   20.9490 C   0  0  0  0  0  0  0  0  0  0  0  0
  -30.4450  -17.9260   21.9530 N   0  0  0  0  0  0  0  0  0  0  0  0
  -29.8220  -15.7130   21.0520 N   0  0  0  0  0  0  0  0  0  0  0  0
  -28.9100  -15.3800   21.3180 H   0  0  0  0  0  0  0  0  0  0  0  0
  -30.7620  -22.3230   21.9460 C   0  0  0  0  0  2  0  0  0  0  0  0
  -30.5110  -23.8460   21.8140 C   0  0  0  0  0  2  0  0  0  0  0  0
  -29.9840  -21.6630   20.7980 C   0  0  0  0  0  3  0  0  0  0  0  0
  -29.3780  -24.0300   20.7740 C   0  0  0  0  0  3  0  0  0  0  0  0
  -28.0820  -22.4370   19.3350 C   0  0  0  0  0  1  0  0  0  0  0  0
  -28.8300  -22.6230   20.6030 N   0  0  1  0  0  4  0  0  0  0  0  0
  -28.1780  -22.4700   21.3600 H   0  0  0  0  0  0  0  0  0  0  0  0
  -28.3230  -25.1880   21.1060 C   0  0  0  0  0  2  0  0  0  0  0  0
  -28.5480  -26.5560   20.5850 O   0  0  0  0  0  0  0  0  0  0  0  0
  -24.6440  -31.9650   23.2710 C   0  0  0  0  0  0  0  0  0  0  0  0
  -27.4170  -27.3760   20.4660 C   0  0  0  0  0  0  0  0  0  0  0  0
  -23.5060  -30.5010   21.6370 C   0  0  0  0  0  3  0  0  0  0  0  0
  -25.0270  -28.9320   20.3050 C   0  0  0  0  0  0  0  0  0  0  0  0
  -26.0410  -30.8580   21.5210 C   0  0  0  0  0  2  0  0  0  0  0  0
  -26.1630  -29.4640   20.9280 C   0  0  0  0  0  0  0  0  0  0  0  0
  -27.3610  -28.6960   21.0030 C   0  0  0  0  0  3  0  0  0  0  0  0
  -26.2700  -26.9020   19.7890 C   0  0  0  0  0  3  0  0  0  0  0  0
  -25.0800  -27.6550   19.7250 C   0  0  0  0  0  3  0  0  0  0  0  0
  -23.7700  -29.7790   20.2860 C   0  0  0  0  0  2  0  0  0  0  0  0
  -24.7470  -31.1230   22.2020 N   0  0  0  0  0  0  0  0  0  0  0  0
  -23.5440  -32.2470   23.7660 O   0  0  0  0  0  0  0  0  0  0  0  0
  -22.8300  -29.5070   22.6090 C   0  0  0  0  0  0  0  0  0  0  0  0
  -21.5070  -29.3260   22.4650 N   0  0  0  0  0  0  0  0  0  0  0  0
  -23.4940  -28.8980   23.4520 O   0  0  0  0  0  0  0  0  0  0  0  0
  -21.0290  -29.8570   21.7520 H   0  0  0  0  0  0  0  0  0  0  0  0
  -18.1180  -28.1750   22.9510 C   0  0  0  0  0  0  0  0  0  0  0  0
  -20.6750  -28.4080   23.2440 C   0  0  0  0  0  3  0  0  0  0  0  0
  -20.7680  -26.9680   22.6890 C   0  0  0  0  0  2  0  0  0  0  0  0
  -19.6740  -26.6450   21.6680 C   0  0  0  0  0  2  0  0  0  0  0  0
  -18.2870  -26.8140   22.2960 C   0  0  0  0  0  2  0  0  0  0  0  0
  -19.2400  -28.9310   23.3810 C   0  0  0  0  0  0  0  0  0  0  0  0
  -19.0320  -30.2030   23.9520 C   0  0  0  0  0  3  0  0  0  0  0  0
  -17.7320  -30.7250   24.0970 C   0  0  0  0  0  3  0  0  0  0  0  0
  -16.6220  -29.9650   23.6870 C   0  0  0  0  0  3  0  0  0  0  0  0
  -16.8160  -28.6940   23.1190 C   0  0  0  0  0  3  0  0  0  0  0  0
  -25.9040  -32.6320   23.9050 C   0  0  0  0  0  3  0  0  0  0  0  0
  -25.5610  -34.0270   24.2060 N   0  0  0  0  0  0  0  0  0  0  0  0
  -25.8940  -35.0770   23.4460 C   0  0  0  0  0  0  0  0  0  0  0  0
  -26.5890  -34.9750   22.4310 O   0  0  0  0  0  0  0  0  0  0  0  0
  -24.9380  -34.1810   24.9850 H   0  0  0  0  0  0  0  0  0  0  0  0
  -24.1350  -36.8320   23.0420 C   0  0  0  0  0  1  0  0  0  0  0  0
  -25.3700  -36.4610   23.8780 C   0  0  0  0  0  3  0  0  0  0  0  0
  -27.4690  -37.3990   24.7370 C   0  0  0  0  0  1  0  0  0  0  0  0
  -26.3790  -37.5340   23.7730 N   0  0  0  0  0  0  0  0  0  0  0  0
  -25.9500  -38.4440   23.9130 H   0  0  0  0  0  0  0  0  0  0  0  0
  -26.4120  -31.8900   25.2020 C   0  0  1  0  0  0  0  0  0  0  0  0
  -25.2980  -31.6410   26.2420 C   0  0  0  0  0  1  0  0  0  0  0  0
  -27.0410  -30.5220   24.8430 C   0  0  0  0  0  1  0  0  0  0  0  0
  -27.5190  -32.7250   25.8870 C   0  0  0  0  0  1  0  0  0  0  0  0
  -25.2530  -13.9520   20.5180 C   0  0  0  0  0  0  0  0  0  0  0  0
  -24.1820  -13.1830   20.8800 C   0  0  0  0  0  0  0  0  0  0  0  0
  -24.6430  -11.8310   20.8690 C   0  0  0  0  0  0  0  0  0  0  0  0
  -26.3020  -13.0680   20.3090 N   0  0  0  0  0  0  0  0  0  0  0  0
  -25.9360  -11.7880   20.5760 N   0  0  0  0  0  0  0  0  0  0  0  0
  -23.9120  -10.5690   21.0560 C   0  0  0  0  0  0  0  0  0  0  0  0
  -24.3380   -9.6020   21.9930 C   0  0  0  0  0  3  0  0  0  0  0  0
  -23.6100   -8.4060   22.1690 C   0  0  0  0  0  3  0  0  0  0  0  0
  -22.4410   -8.1680   21.4080 C   0  0  0  0  0  0  0  0  0  0  0  0
  -22.0320   -9.1250   20.4600 C   0  0  0  0  0  3  0  0  0  0  0  0
  -22.7620  -10.3130   20.2820 C   0  0  0  0  0  3  0  0  0  0  0  0
  -21.6820   -7.0260   21.4940 O   0  0  0  0  0  0  0  0  0  0  0  0
  -21.6300   -6.2810   22.6430 C   0  0  0  0  0  0  0  0  0  0  0  0
  -21.2120   -6.8350   23.8740 C   0  0  0  0  0  3  0  0  0  0  0  0
  -21.1060   -6.0160   25.0150 C   0  0  0  0  0  3  0  0  0  0  0  0
  -21.4100   -4.6440   24.9270 C   0  0  0  0  0  0  0  0  0  0  0  0
  -21.8190   -4.0880   23.7020 C   0  0  0  0  0  3  0  0  0  0  0  0
  -21.9250   -4.9050   22.5620 C   0  0  0  0  0  0  0  0  0  0  0  0
  -22.3000   -4.3620   21.3790 F   0  0  0  0  0  0  0  0  0  0  0  0
  -21.3020   -3.8550   26.0220 F   0  0  0  0  0  0  0  0  0  0  0  0
  -22.7780  -13.6610   21.1210 C   0  0  0  0  0  0  0  0  0  0  0  0
  -22.0330  -12.9760   21.9810 N   0  0  0  0  0  0  0  0  0  0  0  0
  -22.3520  -14.6830   20.5830 O   0  0  0  0  0  0  0  0  0  0  0  0
  -22.3900  -12.1520   22.4420 H   0  0  0  0  0  0  0  0  0  0  0  0
  -21.0920  -13.2820   22.1820 H   0  0  0  0  0  0  0  0  0  0  0  0
  -25.4180  -15.3210   20.3250 N   0  0  0  0  0  0  0  0  0  0  0  0
  -24.6210  -15.9450   20.3820 H   0  0  0  0  0  0  0  0  0  0  0  0
  -26.1830  -15.7260   19.7960 H   0  0  0  0  0  0  0  0  0  0  0  0
  -28.5920  -17.1770   18.7470 C   0  0  0  0  0  0  0  0  0  0  0  0
  -29.4030  -16.5460   17.9090 N   0  0  0  0  0  0  0  0  0  0  0  0
  -27.3750  -17.2150   18.5920 O   0  0  0  0  0  0  0  0  0  0  0  0
  -30.4040  -16.5870   18.0390 H   0  0  0  0  0  0  0  0  0  0  0  0
  -29.0280  -16.0940   17.0890 H   0  0  0  0  0  0  0  0  0  0  0  0
  1 15  1  0
  2  7  1  0
  3  4  1  0
  3  2  1  0
  5  4  1  0
  5 69  1  0
  5  6  1  0
  7  1  1  0
  7  6  1  0
  8  1  2  0
  9 11  2  0
  9 12  1  0
 10 14  1  0
 11 13  1  0
 12 10  2  0
 13 15  1  0
 13 14  2  0
 15 16  1  0
 18 17  1  0
 19 12  1  0
 19 17  1  0
 20 24  1  0
 20 18  1  0
 21 22  1  0
 22 20  1  0
 22 19  1  0
 22 23  1  1
 25 24  1  0
 26 37  2  0
 27 25  1  0
 27 32  1  0
 28 36  1  0
 28 38  1  0
 29 31  1  0
 30 36  1  0
 31 32  2  0
 31 30  1  0
 33 27  2  0
 34 33  1  0
 34 29  2  0
 35 29  1  0
 35 28  1  0
 36 26  1  0
 38 40  2  0
 39 38  1  0
 41 39  1  0
 42 51  2  0
 42 47  1  0
 43 39  1  0
 43 47  1  0
 44 43  1  0
 45 46  1  0
 45 44  1  0
 46 42  1  0
 47 48  2  0
 48 49  1  0
 50 49  2  0
 51 50  1  0
 52 26  1  0
 52 53  1  0
 52 62  1  0
 53 56  1  0
 54 58  1  0
 54 53  1  0
 55 54  2  0
 58 57  1  0
 60 58  1  0
 60 61  1  0
 60 59  1  0
 62 65  1  1
 62 63  1  0
 64 62  1  0
 66 67  2  0
 67 86  1  0
 68 67  1  0
 68 71  1  0
 69 66  1  0
 69 70  1  0
 70 68  2  0
 71 72  1  0
 72 73  2  0
 74 77  1  0
 74 73  1  0
 75 74  2  0
 76 75  1  0
 76 71  2  0
 77 78  1  0
 78 79  1  0
 79 80  2  0
 81 80  1  0
 81 85  1  0
 82 81  2  0
 83 78  2  0
 83 82  1  0
 84 83  1  0
 86 87  1  0
 87 90  1  0
 87 89  1  0
 88 86  2  0
 91 92  1  0
 91 66  1  0
 93 91  1  0
 94 11  1  0
 95 97  1  0
 95 94  1  0
 96 94  2  0
 98 95  1  0
M  ISO  4   1 100  15 100  24 101  25 101
M  END
>  <TORSDO>  (61) 
F 18

>  <SCORE>  (61) 
-14.252

>  <name>  (61) 
60

>  <ligand_id>  (61) 
60

>  <original_smiles>  (61) 
[H]c1nc(N([H])C(=O)N2C([H])([H])C([H])([H])C([H])([H])C([H])(n3nc(-c4c([H])c([H])c(Oc5c([H])c([H])c(F)c([H])c5F)c([H])c4[H])c(C(=O)N([H])[H])c3N([H])[H])C2([H])[H])c(C(=O)N([H])[H])c([H])c1C1([H])C([H])([H])C([H])([H])C([H])(C([H])([H])Oc2c([H])c([H])c3c(c2[H])C([H])([H])N(C(=O)C([H])(N([H])C(=O)C([H])(N([H])C([H])([H])[H])C([H])([H])[H])C(C([H])([H])[H])(C([H])([H])[H])C([H])([H])[H])C([H])(C(=O)N([H])C2([H])c4c([H])c([H])c([H])c([H])c4C([H])([H])C([H])([H])C2([H])[H])C3([H])[H])[N+]1([H])C([H])([H])[H]

>  <smiles>  (61) 
[H]c1nc(N([H])C(=O)N2C([H])([H])C([H])([H])C([H])([H])C([H])(n3nc(-c4c([H])c([H])c(Oc5c([H])c([H])c(F)c([H])c5F)c([H])c4[H])c(C(=O)N([H])[H])c3N([H])[H])C2([H])[H])c(C(=O)N([H])[H])c([H])c1C1([H])C([H])([H])C([H])([H])C([H])(C([H])([H])Oc2c([H])c([H])c3c(c2[H])C([H])([H])N(C(=O)C([H])(N([H])C(=O)C([H])(N([H])C([H])([H])[H])C([H])([H])[H])C(C([H])([H])[H])(C([H])([H])[H])C([H])([H])[H])C([H])(C(=O)N([H])C2([H])c4c([H])c([H])c([H])c([H])c4C([H])([H])C([H])([H])C2([H])[H])C3([H])[H])[N+]1([H])C([H])([H])[H]

$$$$
61:0:0
     RDKit          3D

 96104  0  0  1  0  0  0  0  0999 V2000
  -28.6780  -23.2850   19.4100 C   0  0  0  0  0  0  0  0  0  0  0  0
  -27.9270  -21.0340   18.8410 C   0  0  0  0  0  1  0  0  0  0  0  0
  -28.8340  -21.9340   19.5760 N   0  0  0  0  0  0  0  0  0  0  0  0
  -27.9150  -23.7390   18.5490 O   0  0  0  0  0  0  0  0  0  0  0  0
  -29.9150  -21.3030   20.3790 C   0  0  0  0  0  2  0  0  0  0  0  0
  -29.3730  -19.0420   21.4660 C   0  0  0  0  0  3  0  0  0  0  0  0
  -30.7220  -19.0230   19.4530 C   0  0  0  0  0  3  0  0  0  0  0  0
  -29.4560  -17.6340   21.5310 C   0  0  0  0  0  3  0  0  0  0  0  0
  -30.8120  -17.6100   19.5220 C   0  0  0  0  0  3  0  0  0  0  0  0
  -30.0030  -19.7600   20.4250 C   0  0  0  0  0  0  0  0  0  0  0  0
  -30.1810  -16.8920   20.5700 C   0  0  0  0  0  0  0  0  0  0  0  0
  -30.8570  -14.4970   20.0420 C   0  0  0  0  0  0  0  0  0  0  0  0
  -30.5400  -12.3210   18.9140 C   0  0  0  0  0  2  0  0  0  0  0  0
  -29.5420  -12.5230   17.7520 C   0  0  0  0  0  2  0  0  0  0  0  0
  -28.0850  -12.3970   18.2420 C   0  0  0  0  0  2  0  0  0  0  0  0
  -27.8090  -13.2300   19.5220 C   0  0  0  0  0  3  0  0  0  0  0  0
  -28.9100  -12.9860   20.5800 C   0  0  0  0  0  2  0  0  0  0  0  0
  -30.2100  -13.2990   19.9620 N   0  0  0  0  0  0  0  0  0  0  0  0
  -31.9460  -14.7020   19.5000 O   0  0  0  0  0  0  0  0  0  0  0  0
  -30.1670  -15.4610   20.6960 N   0  0  0  0  0  0  0  0  0  0  0  0
  -29.4010  -15.0950   21.2390 H   0  0  0  0  0  0  0  0  0  0  0  0
  -25.4580  -13.8620   20.3550 C   0  0  0  0  0  0  0  0  0  0  0  0
  -24.3980  -13.1000   20.7650 C   0  0  0  0  0  0  0  0  0  0  0  0
  -24.8360  -11.7420   20.6950 C   0  0  0  0  0  0  0  0  0  0  0  0
  -26.4760  -12.9680   20.0600 N   0  0  0  0  0  0  0  0  0  0  0  0
  -26.1080  -11.6880   20.3220 N   0  0  0  0  0  0  0  0  0  0  0  0
  -24.1000  -10.4880   20.9060 C   0  0  0  0  0  0  0  0  0  0  0  0
  -24.5240   -9.5380   21.8610 C   0  0  0  0  0  3  0  0  0  0  0  0
  -23.7930   -8.3460   22.0580 C   0  0  0  0  0  3  0  0  0  0  0  0
  -22.6250   -8.0950   21.2970 C   0  0  0  0  0  0  0  0  0  0  0  0
  -22.2190   -9.0360   20.3350 C   0  0  0  0  0  3  0  0  0  0  0  0
  -22.9490  -10.2210   20.1370 C   0  0  0  0  0  3  0  0  0  0  0  0
  -21.8680   -6.9540   21.4000 O   0  0  0  0  0  0  0  0  0  0  0  0
  -21.7530   -6.2710   22.5850 C   0  0  0  0  0  0  0  0  0  0  0  0
  -21.2590   -6.8880   23.7550 C   0  0  0  0  0  3  0  0  0  0  0  0
  -21.0910   -6.1310   24.9320 C   0  0  0  0  0  3  0  0  0  0  0  0
  -21.4090   -4.7590   24.9400 C   0  0  0  0  0  0  0  0  0  0  0  0
  -21.8980   -4.1410   23.7740 C   0  0  0  0  0  3  0  0  0  0  0  0
  -22.0670   -4.8960   22.6000 C   0  0  0  0  0  0  0  0  0  0  0  0
  -22.5180   -4.2930   21.4740 F   0  0  0  0  0  0  0  0  0  0  0  0
  -21.2390   -4.0330   26.0680 F   0  0  0  0  0  0  0  0  0  0  0  0
  -23.0240  -13.5950   21.1130 C   0  0  0  0  0  0  0  0  0  0  0  0
  -22.3320  -12.9080   22.0170 N   0  0  0  0  0  0  0  0  0  0  0  0
  -22.5710  -14.6260   20.6180 O   0  0  0  0  0  0  0  0  0  0  0  0
  -22.7070  -12.0730   22.4420 H   0  0  0  0  0  0  0  0  0  0  0  0
  -21.4130  -13.2260   22.2900 H   0  0  0  0  0  0  0  0  0  0  0  0
  -25.6390  -15.2330   20.1920 N   0  0  0  0  0  0  0  0  0  0  0  0
  -24.9000  -15.9040   20.3640 H   0  0  0  0  0  0  0  0  0  0  0  0
  -26.4880  -15.6580   19.8390 H   0  0  0  0  0  0  0  0  0  0  0  0
  -29.4430  -24.3250   20.2650 C   0  0  0  0  0  3  0  0  0  0  0  0
  -30.5140  -24.9470   19.4560 N   0  0  0  0  0  4  0  0  0  0  0  0
  -30.0950  -25.3890   18.6530 H   0  0  0  0  0  0  0  0  0  0  0  0
  -31.1800  -24.2670   19.1330 H   0  0  0  0  0  0  0  0  0  0  0  0
  -30.9980  -25.6520   19.9840 H   0  0  0  0  0  0  0  0  0  0  0  0
  -28.5060  -25.4360   20.8490 C   0  0  0  0  0  2  0  0  0  0  0  0
  -28.5070  -26.6700   20.0910 O   0  0  0  0  0  0  0  0  0  0  0  0
  -24.4700  -31.7110   23.1590 C   0  0  0  0  0  0  0  0  0  0  0  0
  -27.3210  -27.3760   20.1050 C   0  0  0  0  0  0  0  0  0  0  0  0
  -23.3450  -30.2810   21.4830 C   0  0  0  0  0  3  0  0  0  0  0  0
  -24.8770  -28.8030   20.0770 C   0  0  0  0  0  0  0  0  0  0  0  0
  -25.8580  -30.7290   21.3330 C   0  0  0  0  0  2  0  0  0  0  0  0
  -26.0060  -29.3630   20.6890 C   0  0  0  0  0  0  0  0  0  0  0  0
  -27.2330  -28.6580   20.6970 C   0  0  0  0  0  3  0  0  0  0  0  0
  -26.1770  -26.8330   19.4820 C   0  0  0  0  0  3  0  0  0  0  0  0
  -24.9580  -27.5380   19.4690 C   0  0  0  0  0  3  0  0  0  0  0  0
  -23.6020  -29.6190   20.1020 C   0  0  0  0  0  2  0  0  0  0  0  0
  -24.5740  -30.9230   22.0500 N   0  0  0  0  0  0  0  0  0  0  0  0
  -23.3710  -31.9420   23.6810 O   0  0  0  0  0  0  0  0  0  0  0  0
  -22.7110  -29.2310   22.4250 C   0  0  0  0  0  0  0  0  0  0  0  0
  -21.4000  -28.9970   22.2650 N   0  0  0  0  0  0  0  0  0  0  0  0
  -23.4000  -28.6300   23.2550 O   0  0  0  0  0  0  0  0  0  0  0  0
  -20.9050  -29.5380   21.5690 H   0  0  0  0  0  0  0  0  0  0  0  0
  -18.0690  -27.6530   22.6610 C   0  0  0  0  0  0  0  0  0  0  0  0
  -20.6030  -28.0250   23.0110 C   0  0  0  0  0  3  0  0  0  0  0  0
  -20.7880  -26.6000   22.4390 C   0  0  0  0  0  2  0  0  0  0  0  0
  -19.7330  -26.2290   21.3910 C   0  0  0  0  0  2  0  0  0  0  0  0
  -18.3270  -26.3130   21.9920 C   0  0  0  0  0  2  0  0  0  0  0  0
  -19.1390  -28.4630   23.1250 C   0  0  0  0  0  0  0  0  0  0  0  0
  -18.8460  -29.7150   23.7090 C   0  0  0  0  0  3  0  0  0  0  0  0
  -17.5170  -30.1580   23.8350 C   0  0  0  0  0  3  0  0  0  0  0  0
  -16.4610  -29.3450   23.3870 C   0  0  0  0  0  3  0  0  0  0  0  0
  -16.7380  -28.0940   22.8060 C   0  0  0  0  0  3  0  0  0  0  0  0
  -25.7240  -32.3800   23.8070 C   0  0  0  0  0  3  0  0  0  0  0  0
  -25.3620  -33.7630   24.1420 N   0  0  0  0  0  0  0  0  0  0  0  0
  -25.6630  -34.8310   23.3920 C   0  0  0  0  0  0  0  0  0  0  0  0
  -26.3460  -34.7580   22.3650 O   0  0  0  0  0  0  0  0  0  0  0  0
  -24.7520  -33.8920   24.9360 H   0  0  0  0  0  0  0  0  0  0  0  0
  -23.8670  -36.5570   23.0360 C   0  0  0  0  0  1  0  0  0  0  0  0
  -25.1190  -36.1990   23.8510 C   0  0  0  0  0  3  0  0  0  0  0  0
  -27.2160  -37.1630   24.6920 C   0  0  0  0  0  1  0  0  0  0  0  0
  -26.1100  -37.2920   23.7460 N   0  0  0  0  0  0  0  0  0  0  0  0
  -25.6670  -38.1930   23.8970 H   0  0  0  0  0  0  0  0  0  0  0  0
  -26.2470  -31.6160   25.0840 C   0  0  1  0  0  0  0  0  0  0  0  0
  -25.1460  -31.3330   26.1330 C   0  0  0  0  0  1  0  0  0  0  0  0
  -26.8830  -30.2610   24.6890 C   0  0  0  0  0  1  0  0  0  0  0  0
  -27.3600  -32.4410   25.7700 C   0  0  0  0  0  1  0  0  0  0  0  0
  1  3  1  0
  1 50  1  0
  2  3  1  0
  3  5  1  0
  4  1  2  0
  5 10  1  0
  6  8  1  0
  7  9  2  0
  7 10  1  0
  9 11  1  0
 10  6  2  0
 11 20  1  0
 11  8  2  0
 12 20  1  0
 13 18  1  0
 14 15  1  0
 14 13  1  0
 16 15  1  0
 16 25  1  0
 16 17  1  0
 18 12  1  0
 18 17  1  0
 19 12  2  0
 20 21  1  0
 22 23  2  0
 23 42  1  0
 24 23  1  0
 24 27  1  0
 25 26  1  0
 25 22  1  0
 26 24  2  0
 27 28  1  0
 28 29  2  0
 30 33  1  0
 30 29  1  0
 31 30  2  0
 32 31  1  0
 32 27  2  0
 33 34  1  0
 34 39  2  0
 34 35  1  0
 35 36  2  0
 36 37  1  0
 37 41  1  0
 38 37  2  0
 39 38  1  0
 40 39  1  0
 42 43  1  0
 43 46  1  0
 43 45  1  0
 44 42  2  0
 47 22  1  0
 47 48  1  0
 49 47  1  0
 50 55  1  0
 51 54  1  0
 51 50  1  0
 52 51  1  0
 53 51  1  0
 56 58  1  0
 56 55  1  0
 57 68  2  0
 58 63  1  0
 59 67  1  0
 59 69  1  0
 60 66  1  0
 60 62  1  0
 61 67  1  0
 62 63  2  0
 62 61  1  0
 64 58  2  0
 65 64  1  0
 65 60  2  0
 66 59  1  0
 67 57  1  0
 69 71  2  0
 70 69  1  0
 72 70  1  0
 73 82  2  0
 73 78  1  0
 74 70  1  0
 74 78  1  0
 75 74  1  0
 76 77  1  0
 76 75  1  0
 77 73  1  0
 78 79  2  0
 79 80  1  0
 81 80  2  0
 82 81  1  0
 83 57  1  0
 83 84  1  0
 83 93  1  0
 84 87  1  0
 85 89  1  0
 85 84  1  0
 86 85  2  0
 89 88  1  0
 91 89  1  0
 91 92  1  0
 91 90  1  0
 93 96  1  1
 93 94  1  0
 95 93  1  0
M  ISO  4  12 100  20 100  55 101  56 101
M  END
>  <TORSDO>  (62) 
F 21

>  <SCORE>  (62) 
-12.652

>  <name>  (62) 
61

>  <ligand_id>  (62) 
61

>  <original_smiles>  (62) 
[H]c1c([H])c([H])c2c(c1[H])C([H])([H])C([H])([H])C([H])([H])C2([H])N([H])C(=O)C1([H])N(C(=O)C([H])(N([H])C(=O)C([H])(N([H])C([H])([H])[H])C([H])([H])[H])C(C([H])([H])[H])(C([H])([H])[H])C([H])([H])[H])C([H])([H])c2c([H])c(OC([H])([H])C([H])(C(=O)N(C([H])([H])[H])C([H])([H])c3c([H])c([H])c(N([H])C(=O)N4C([H])([H])C([H])([H])C([H])([H])C([H])(n5nc(-c6c([H])c([H])c(Oc7c([H])c([H])c(F)c([H])c7F)c([H])c6[H])c(C(=O)N([H])[H])c5N([H])[H])C4([H])[H])c([H])c3[H])[N+]([H])([H])[H])c([H])c([H])c2C1([H])[H]

>  <smiles>  (62) 
[H]c1c([H])c([H])c2c(c1[H])C([H])([H])C([H])([H])C([H])([H])C2([H])N([H])C(=O)C1([H])N(C(=O)C([H])(N([H])C(=O)C([H])(N([H])C([H])([H])[H])C([H])([H])[H])C(C([H])([H])[H])(C([H])([H])[H])C([H])([H])[H])C([H])([H])c2c([H])c(OC([H])([H])C([H])(C(=O)N(C([H])([H])[H])C([H])([H])c3c([H])c([H])c(N([H])C(=O)N4C([H])([H])C([H])([H])C([H])([H])C([H])(n5nc(-c6c([H])c([H])c(Oc7c([H])c([H])c(F)c([H])c7F)c([H])c6[H])c(C(=O)N([H])[H])c5N([H])[H])C4([H])[H])c([H])c3[H])[N+]([H])([H])[H])c([H])c([H])c2C1([H])[H]

$$$$
62:0:0
     RDKit          3D

 98107  0  0  1  0  0  0  0  0999 V2000
  -27.3200  -19.0220   20.3960 C   0  0  0  0  0  3  0  0  0  0  0  0
  -28.3220  -18.0290   20.4120 C   0  0  0  0  0  3  0  0  0  0  0  0
  -27.6470  -20.3650   20.1240 C   0  0  0  0  0  3  0  0  0  0  0  0
  -29.9960  -19.7490   20.0330 C   0  0  0  0  0  3  0  0  0  0  0  0
  -29.6750  -18.3660   20.1630 C   0  0  0  0  0  0  0  0  0  0  0  0
  -28.9900  -20.7370   19.9240 C   0  0  0  0  0  0  0  0  0  0  0  0
  -30.9160  -14.7610   19.6790 C   0  0  0  0  0  0  0  0  0  0  0  0
  -30.5660  -12.5020   18.7660 C   0  0  0  0  0  2  0  0  0  0  0  0
  -29.5120  -12.5340   17.6370 C   0  0  0  0  0  2  0  0  0  0  0  0
  -28.0710  -12.4950   18.1920 C   0  0  0  0  0  2  0  0  0  0  0  0
  -27.8320  -13.3770   19.4540 C   0  0  0  0  0  3  0  0  0  0  0  0
  -29.0050  -13.3050   20.4530 C   0  0  0  0  0  2  0  0  0  0  0  0
  -30.2370  -13.5790   19.7100 N   0  0  0  0  0  0  0  0  0  0  0  0
  -32.1190  -14.7980   19.4130 O   0  0  0  0  0  0  0  0  0  0  0  0
  -30.8960  -17.0140   17.5090 C   0  0  0  0  0  2  0  0  0  0  0  0
  -29.7510  -16.2240   18.1630 C   0  0  0  0  0  2  0  0  0  0  0  0
  -30.7500  -17.2590   19.9220 C   0  0  0  0  0  3  0  0  0  0  0  0
  -31.6480  -17.6590   18.6940 C   0  0  0  0  0  3  0  0  0  0  0  0
  -30.1880  -15.9170   19.5390 N   0  0  0  0  0  0  0  0  0  0  0  0
  -25.5400  -13.9340   20.4670 C   0  0  0  0  0  0  0  0  0  0  0  0
  -24.5180  -13.1430   20.9160 C   0  0  0  0  0  0  0  0  0  0  0  0
  -24.9710  -11.7950   20.7860 C   0  0  0  0  0  0  0  0  0  0  0  0
  -26.5530  -13.0680   20.0870 N   0  0  0  0  0  0  0  0  0  0  0  0
  -26.2270  -11.7750   20.3480 N   0  0  0  0  0  0  0  0  0  0  0  0
  -24.2660  -10.5230   20.9930 C   0  0  0  0  0  0  0  0  0  0  0  0
  -24.6670   -9.6100   21.9930 C   0  0  0  0  0  3  0  0  0  0  0  0
  -23.9570   -8.4070   22.1880 C   0  0  0  0  0  3  0  0  0  0  0  0
  -22.8300   -8.1080   21.3860 C   0  0  0  0  0  0  0  0  0  0  0  0
  -22.4480   -9.0100   20.3780 C   0  0  0  0  0  3  0  0  0  0  0  0
  -23.1600  -10.2070   20.1800 C   0  0  0  0  0  3  0  0  0  0  0  0
  -22.0930   -6.9530   21.4890 O   0  0  0  0  0  0  0  0  0  0  0  0
  -21.8420   -6.3660   22.7040 C   0  0  0  0  0  0  0  0  0  0  0  0
  -21.1380   -7.0360   23.7280 C   0  0  0  0  0  3  0  0  0  0  0  0
  -20.8450   -6.3680   24.9340 C   0  0  0  0  0  3  0  0  0  0  0  0
  -21.2420   -5.0300   25.1150 C   0  0  0  0  0  0  0  0  0  0  0  0
  -21.9390   -4.3580   24.0940 C   0  0  0  0  0  3  0  0  0  0  0  0
  -22.2340   -5.0250   22.8920 C   0  0  0  0  0  0  0  0  0  0  0  0
  -22.8850   -4.3630   21.9050 F   0  0  0  0  0  0  0  0  0  0  0  0
  -20.9530   -4.3890   26.2710 F   0  0  0  0  0  0  0  0  0  0  0  0
  -23.1570  -13.6060   21.3460 C   0  0  0  0  0  0  0  0  0  0  0  0
  -22.5260  -12.8840   22.2670 N   0  0  0  0  0  0  0  0  0  0  0  0
  -22.6620  -14.6430   20.9010 O   0  0  0  0  0  0  0  0  0  0  0  0
  -22.9330  -12.0410   22.6420 H   0  0  0  0  0  0  0  0  0  0  0  0
  -21.6210  -13.1810   22.6000 H   0  0  0  0  0  0  0  0  0  0  0  0
  -25.6750  -15.3130   20.3190 N   0  0  0  0  0  0  0  0  0  0  0  0
  -24.9000  -15.9440   20.4960 H   0  0  0  0  0  0  0  0  0  0  0  0
  -26.4660  -15.7740   19.8900 H   0  0  0  0  0  0  0  0  0  0  0  0
  -33.8250  -17.4750   17.5200 C   0  0  0  0  0  1  0  0  0  0  0  0
  -33.8250  -17.8280   19.9250 C   0  0  0  0  0  1  0  0  0  0  0  0
  -33.0800  -17.2340   18.7830 N   0  0  1  0  0  4  0  0  0  0  0  0
  -33.0410  -16.2300   18.9630 H   0  0  0  0  0  0  0  0  0  0  0  0
  -29.3440  -22.1310   19.3850 C   0  0  0  0  0  2  0  0  0  0  0  0
  -28.6020  -24.4750   19.6740 C   0  0  0  0  0  0  0  0  0  0  0  0
  -29.4530  -23.1910   21.6340 C   0  0  0  0  0  1  0  0  0  0  0  0
  -29.0630  -23.3150   20.2240 N   0  0  0  0  0  0  0  0  0  0  0  0
  -28.2690  -24.5570   18.4880 O   0  0  0  0  0  0  0  0  0  0  0  0
  -28.5250  -25.7560   20.5370 C   0  0  0  0  0  2  0  0  0  0  0  0
  -28.3290  -26.9210   19.7200 O   0  0  0  0  0  0  0  0  0  0  0  0
  -24.3740  -31.8140   23.0140 C   0  0  0  0  0  0  0  0  0  0  0  0
  -27.1080  -27.5390   19.8240 C   0  0  0  0  0  0  0  0  0  0  0  0
  -23.1610  -30.3410   21.4330 C   0  0  0  0  0  3  0  0  0  0  0  0
  -24.6250  -28.8740   19.9470 C   0  0  0  0  0  0  0  0  0  0  0  0
  -25.6400  -30.8500   21.0950 C   0  0  0  0  0  2  0  0  0  0  0  0
  -25.7730  -29.4780   20.4770 C   0  0  0  0  0  0  0  0  0  0  0  0
  -27.0150  -28.8150   20.4140 C   0  0  0  0  0  3  0  0  0  0  0  0
  -25.9490  -26.9400   19.2880 C   0  0  0  0  0  3  0  0  0  0  0  0
  -24.7080  -27.6040   19.3530 C   0  0  0  0  0  3  0  0  0  0  0  0
  -23.3340  -29.6580   20.0490 C   0  0  0  0  0  2  0  0  0  0  0  0
  -24.4100  -31.0240   21.9050 N   0  0  0  0  0  0  0  0  0  0  0  0
  -23.3090  -32.0200   23.6130 O   0  0  0  0  0  0  0  0  0  0  0  0
  -22.6170  -29.2930   22.4320 C   0  0  0  0  0  0  0  0  0  0  0  0
  -21.2960  -29.0430   22.3810 N   0  0  0  0  0  0  0  0  0  0  0  0
  -23.3780  -28.7070   23.2060 O   0  0  0  0  0  0  0  0  0  0  0  0
  -20.7400  -29.5760   21.7240 H   0  0  0  0  0  0  0  0  0  0  0  0
  -18.0220  -27.6790   23.0460 C   0  0  0  0  0  0  0  0  0  0  0  0
  -20.5730  -28.0630   23.1900 C   0  0  0  0  0  3  0  0  0  0  0  0
  -20.7190  -26.6380   22.6040 C   0  0  0  0  0  2  0  0  0  0  0  0
  -19.5840  -26.2600   21.6480 C   0  0  0  0  0  2  0  0  0  0  0  0
  -18.2310  -26.3390   22.3610 C   0  0  0  0  0  2  0  0  0  0  0  0
  -19.1210  -28.4960   23.4210 C   0  0  0  0  0  0  0  0  0  0  0  0
  -18.8700  -29.7440   24.0240 C   0  0  0  0  0  3  0  0  0  0  0  0
  -17.5550  -30.1820   24.2640 C   0  0  0  0  0  3  0  0  0  0  0  0
  -16.4700  -29.3620   23.9090 C   0  0  0  0  0  3  0  0  0  0  0  0
  -16.7040  -28.1140   23.3040 C   0  0  0  0  0  3  0  0  0  0  0  0
  -25.6520  -32.5160   23.5680 C   0  0  0  0  0  3  0  0  0  0  0  0
  -26.2360  -31.8130   24.8570 C   0  0  1  0  0  0  0  0  0  0  0  0
  -25.1860  -31.5800   25.9700 C   0  0  0  0  0  1  0  0  0  0  0  0
  -26.8560  -30.4450   24.4920 C   0  0  0  0  0  1  0  0  0  0  0  0
  -27.3760  -32.6730   25.4500 C   0  0  0  0  0  1  0  0  0  0  0  0
  -25.3080  -33.9130   23.8550 N   0  0  0  0  0  0  0  0  0  0  0  0
  -25.5780  -34.9480   23.0460 C   0  0  0  0  0  0  0  0  0  0  0  0
  -26.2210  -34.8270   22.0010 O   0  0  0  0  0  0  0  0  0  0  0  0
  -24.7380  -34.0790   24.6720 H   0  0  0  0  0  0  0  0  0  0  0  0
  -23.7770  -36.6650   22.6670 C   0  0  0  0  0  1  0  0  0  0  0  0
  -25.0500  -36.3350   23.4620 C   0  0  0  0  0  3  0  0  0  0  0  0
  -27.1640  -37.3350   24.2140 C   0  0  0  0  0  1  0  0  0  0  0  0
  -26.0410  -37.4210   23.2850 N   0  0  0  0  0  0  0  0  0  0  0  0
  -25.6020  -38.3320   23.3970 H   0  0  0  0  0  0  0  0  0  0  0  0
  1  2  1  0
  3  1  2  0
  4  5  1  0
  5  2  2  0
  6  4  2  0
  6  3  1  0
  7 13  1  0
  8 13  1  0
  9 10  1  0
  9  8  1  0
 11 10  1  0
 11 23  1  0
 11 12  1  0
 13 12  1  0
 14  7  2  0
 15 16  1  0
 15 18  1  0
 16 19  1  0
 17  5  1  0
 18 50  1  0
 18 17  1  0
 19  7  1  0
 19 17  1  0
 20 21  2  0
 21 40  1  0
 22 21  1  0
 22 25  1  0
 23 24  1  0
 23 20  1  0
 24 22  2  0
 25 26  1  0
 26 27  2  0
 28 31  1  0
 28 27  1  0
 29 28  2  0
 30 29  1  0
 30 25  2  0
 31 32  1  0
 32 37  2  0
 32 33  1  0
 33 34  2  0
 34 35  1  0
 35 39  1  0
 36 35  2  0
 37 36  1  0
 38 37  1  0
 40 41  1  0
 41 44  1  0
 41 43  1  0
 42 40  2  0
 45 20  1  0
 45 46  1  0
 47 45  1  0
 48 50  1  0
 50 51  1  1
 50 49  1  0
 52  6  1  0
 52 55  1  0
 53 55  1  0
 53 57  1  0
 55 54  1  0
 56 53  2  0
 58 60  1  0
 58 57  1  0
 59 70  2  0
 60 65  1  0
 61 69  1  0
 61 71  1  0
 62 68  1  0
 62 64  1  0
 63 69  1  0
 64 63  1  0
 65 64  2  0
 66 67  1  0
 66 60  2  0
 67 62  2  0
 68 61  1  0
 69 59  1  0
 71 73  2  0
 72 71  1  0
 74 72  1  0
 75 84  2  0
 75 80  1  0
 76 72  1  0
 76 80  1  0
 77 76  1  0
 78 79  1  0
 78 77  1  0
 79 75  1  0
 80 81  2  0
 81 82  1  0
 83 82  2  0
 84 83  1  0
 85 59  1  0
 85 90  1  0
 85 86  1  0
 86 89  1  1
 86 87  1  0
 88 86  1  0
 90 93  1  0
 91 95  1  0
 91 90  1  0
 92 91  2  0
 95 94  1  0
 97 98  1  0
 97 95  1  0
 97 96  1  0
M  ISO  4   7 100  19 100  57 101  58 101
M  END
>  <TORSDO>  (63) 
F 20

>  <SCORE>  (63) 
-10.759

>  <name>  (63) 
62

>  <ligand_id>  (63) 
62

>  <original_smiles>  (63) 
[H]c1c([H])c([H])c2c(c1[H])C([H])([H])C([H])([H])C([H])([H])C2([H])N([H])C(=O)C1([H])N(C(=O)C([H])(N([H])C(=O)C([H])(N([H])C([H])([H])[H])C([H])([H])[H])C(C([H])([H])[H])(C([H])([H])[H])C([H])([H])[H])C([H])([H])c2c([H])c(OC([H])([H])C(=O)N(C([H])([H])[H])C([H])([H])c3c([H])c([H])c([H])c(C4([H])N(C(=O)N5C([H])([H])C([H])([H])C([H])([H])C([H])(n6nc(-c7c([H])c([H])c(Oc8c([H])c([H])c(F)c([H])c8F)c([H])c7[H])c(C(=O)N([H])[H])c6N([H])[H])C5([H])[H])C([H])([H])C([H])([H])C4([H])[N+]([H])(C([H])([H])[H])C([H])([H])[H])c3[H])c([H])c([H])c2C1([H])[H]

>  <smiles>  (63) 
[H]c1c([H])c([H])c2c(c1[H])C([H])([H])C([H])([H])C([H])([H])C2([H])N([H])C(=O)C1([H])N(C(=O)C([H])(N([H])C(=O)C([H])(N([H])C([H])([H])[H])C([H])([H])[H])C(C([H])([H])[H])(C([H])([H])[H])C([H])([H])[H])C([H])([H])c2c([H])c(OC([H])([H])C(=O)N(C([H])([H])[H])C([H])([H])c3c([H])c([H])c([H])c(C4([H])N(C(=O)N5C([H])([H])C([H])([H])C([H])([H])C([H])(n6nc(-c7c([H])c([H])c(Oc8c([H])c([H])c(F)c([H])c8F)c([H])c7[H])c(C(=O)N([H])[H])c6N([H])[H])C5([H])[H])C([H])([H])C([H])([H])C4([H])[N+]([H])(C([H])([H])[H])C([H])([H])[H])c3[H])c([H])c([H])c2C1([H])[H]

$$$$
63:0:0
     RDKit          3D

 99107  0  0  1  0  0  0  0  0999 V2000
  -30.8490  -19.6900   20.2810 C   0  0  0  0  0  3  0  0  0  0  0  0
  -31.1660  -21.0920   20.2720 C   0  0  0  0  0  3  0  0  0  0  0  0
  -28.6050  -20.4820   20.0570 C   0  0  0  0  0  3  0  0  0  0  0  0
  -28.8600  -22.1040   20.0320 C   0  0  0  0  0  0  0  0  0  0  0  0
  -29.5470  -19.1450   20.1780 C   0  0  0  0  0  0  0  0  0  0  0  0
  -30.2740  -22.2220   20.1450 C   0  0  0  0  0  0  0  0  0  0  0  0
  -30.2400  -16.0020   20.2760 C   0  0  0  0  0  0  0  0  0  0  0  0
  -30.4540  -13.3950   19.5760 C   0  0  0  0  0  2  0  0  0  0  0  0
  -29.6280  -12.8570   18.3680 C   0  0  0  0  0  2  0  0  0  0  0  0
  -28.2070  -12.4660   18.7960 C   0  0  0  0  0  2  0  0  0  0  0  0
  -27.6220  -13.5070   19.7760 C   0  0  0  0  0  3  0  0  0  0  0  0
  -28.5980  -13.9400   20.8970 C   0  0  0  0  0  2  0  0  0  0  0  0
  -29.7580  -14.6020   20.2400 N   0  0  0  0  0  0  0  0  0  0  0  0
  -31.4840  -15.9300   20.1760 O   0  0  0  0  0  0  0  0  0  0  0  0
  -29.4450  -17.3830   20.2340 N   0  0  0  0  0  0  0  0  0  0  0  0
  -28.4710  -17.1170   20.2370 H   0  0  0  0  0  0  0  0  0  0  0  0
  -25.2560  -14.0180   20.5290 C   0  0  0  0  0  0  0  0  0  0  0  0
  -24.1860  -13.2330   20.8510 C   0  0  0  0  0  0  0  0  0  0  0  0
  -24.6500  -11.8830   20.7790 C   0  0  0  0  0  0  0  0  0  0  0  0
  -26.2990  -13.1520   20.2690 N   0  0  0  0  0  0  0  0  0  0  0  0
  -25.9480  -11.8550   20.4860 N   0  0  0  0  0  0  0  0  0  0  0  0
  -23.9090  -10.6190   20.9100 C   0  0  0  0  0  0  0  0  0  0  0  0
  -24.3750   -9.5690   21.7320 C   0  0  0  0  0  3  0  0  0  0  0  0
  -23.6310   -8.3770   21.8610 C   0  0  0  0  0  3  0  0  0  0  0  0
  -22.4060   -8.2250   21.1690 C   0  0  0  0  0  0  0  0  0  0  0  0
  -21.9560   -9.2640   20.3350 C   0  0  0  0  0  3  0  0  0  0  0  0
  -22.7010  -10.4480   20.2030 C   0  0  0  0  0  3  0  0  0  0  0  0
  -21.6290   -7.0920   21.2140 O   0  0  0  0  0  0  0  0  0  0  0  0
  -21.7090   -6.2050   22.2580 C   0  0  0  0  0  0  0  0  0  0  0  0
  -21.4530   -6.5970   23.5890 C   0  0  0  0  0  3  0  0  0  0  0  0
  -21.4770   -5.6390   24.6220 C   0  0  0  0  0  3  0  0  0  0  0  0
  -21.7480   -4.2890   24.3260 C   0  0  0  0  0  0  0  0  0  0  0  0
  -21.9990   -3.8960   23.0000 C   0  0  0  0  0  3  0  0  0  0  0  0
  -21.9750   -4.8510   21.9690 C   0  0  0  0  0  0  0  0  0  0  0  0
  -22.1960   -4.4630   20.6890 F   0  0  0  0  0  0  0  0  0  0  0  0
  -21.7660   -3.3680   25.3170 F   0  0  0  0  0  0  0  0  0  0  0  0
  -22.7880  -13.7100   21.1070 C   0  0  0  0  0  0  0  0  0  0  0  0
  -22.0420  -13.0020   21.9470 N   0  0  0  0  0  0  0  0  0  0  0  0
  -22.3660  -14.7490   20.5980 O   0  0  0  0  0  0  0  0  0  0  0  0
  -22.3970  -12.1640   22.3810 H   0  0  0  0  0  0  0  0  0  0  0  0
  -21.1020  -13.3040   22.1600 H   0  0  0  0  0  0  0  0  0  0  0  0
  -25.4230  -15.3940   20.4010 N   0  0  0  0  0  0  0  0  0  0  0  0
  -24.6500  -16.0410   20.5140 H   0  0  0  0  0  0  0  0  0  0  0  0
  -26.2680  -15.8390   20.0690 H   0  0  0  0  0  0  0  0  0  0  0  0
  -32.0410  -23.9720   19.9400 C   0  0  0  0  0  0  0  0  0  0  0  0
  -30.7890  -23.5480   20.1830 N   0  0  0  0  0  0  0  0  0  0  0  0
  -32.9740  -23.2130   19.6520 O   0  0  0  0  0  0  0  0  0  0  0  0
  -30.1160  -24.2860   20.3530 H   0  0  0  0  0  0  0  0  0  0  0  0
  -32.2870  -25.4930   19.9970 C   0  0  0  0  0  3  0  0  0  0  0  0
  -33.7180  -25.7700   19.7910 N   0  0  0  0  0  4  0  0  0  0  0  0
  -34.2480  -25.3460   20.5310 H   0  0  0  0  0  0  0  0  0  0  0  0
  -33.9050  -26.7550   19.7510 H   0  0  0  0  0  0  0  0  0  0  0  0
  -34.0070  -25.3400   18.9310 H   0  0  0  0  0  0  0  0  0  0  0  0
  -31.7880  -26.1480   21.3180 C   0  0  0  0  0  2  0  0  0  0  0  0
  -30.2940  -27.8810   20.5080 C   0  0  0  0  0  1  0  0  0  0  0  0
  -29.9590  -26.9280   22.6460 C   0  0  0  0  0  1  0  0  0  0  0  0
  -30.4030  -26.6450   21.2840 N   0  0  0  0  0  0  0  0  0  0  0  0
  -27.8680  -23.7370   19.8670 C   0  0  0  0  0  2  0  0  0  0  0  0
  -28.0720  -25.5350   19.9120 O   0  0  0  0  0  0  0  0  0  0  0  0
  -24.5540  -31.8280   23.0690 C   0  0  0  0  0  0  0  0  0  0  0  0
  -27.0990  -26.7860   19.9160 C   0  0  0  0  0  0  0  0  0  0  0  0
  -23.3650  -30.4590   21.4130 C   0  0  0  0  0  3  0  0  0  0  0  0
  -24.8130  -28.8500   19.9430 C   0  0  0  0  0  0  0  0  0  0  0  0
  -25.9450  -30.6110   21.2690 C   0  0  0  0  0  2  0  0  0  0  0  0
  -26.0160  -29.1870   20.5720 C   0  0  0  0  0  0  0  0  0  0  0  0
  -27.1380  -28.1870   20.5240 C   0  0  0  0  0  3  0  0  0  0  0  0
  -25.8550  -26.6840   19.2350 C   0  0  0  0  0  3  0  0  0  0  0  0
  -24.7770  -27.6270   19.2480 C   0  0  0  0  0  3  0  0  0  0  0  0
  -23.5990  -29.7950   20.0240 C   0  0  0  0  0  2  0  0  0  0  0  0
  -24.6460  -31.0010   21.9700 N   0  0  0  0  0  0  0  0  0  0  0  0
  -23.4630  -32.1040   23.5980 O   0  0  0  0  0  0  0  0  0  0  0  0
  -22.6650  -29.4550   22.3700 C   0  0  0  0  0  0  0  0  0  0  0  0
  -21.3270  -29.3190   22.2850 N   0  0  0  0  0  0  0  0  0  0  0  0
  -23.3400  -28.7930   23.1620 O   0  0  0  0  0  0  0  0  0  0  0  0
  -20.8300  -29.9040   21.6270 H   0  0  0  0  0  0  0  0  0  0  0  0
  -17.9510  -28.0890   22.8430 C   0  0  0  0  0  0  0  0  0  0  0  0
  -20.5170  -28.3590   23.0480 C   0  0  0  0  0  3  0  0  0  0  0  0
  -20.6060  -26.9450   22.4270 C   0  0  0  0  0  2  0  0  0  0  0  0
  -19.4800  -26.6520   21.4290 C   0  0  0  0  0  2  0  0  0  0  0  0
  -18.1150  -26.7670   22.1110 C   0  0  0  0  0  2  0  0  0  0  0  0
  -19.0770  -28.8440   23.2670 C   0  0  0  0  0  0  0  0  0  0  0  0
  -18.8650  -30.0780   23.9180 C   0  0  0  0  0  3  0  0  0  0  0  0
  -17.5610  -30.5600   24.1450 C   0  0  0  0  0  3  0  0  0  0  0  0
  -16.4510  -29.8040   23.7310 C   0  0  0  0  0  3  0  0  0  0  0  0
  -16.6470  -28.5690   23.0870 C   0  0  0  0  0  3  0  0  0  0  0  0
  -25.8150  -32.4810   23.7150 C   0  0  0  0  0  3  0  0  0  0  0  0
  -25.4910  -33.8830   24.0540 N   0  0  0  0  0  0  0  0  0  0  0  0
  -25.8880  -34.9580   23.3600 C   0  0  0  0  0  0  0  0  0  0  0  0
  -26.6200  -34.8750   22.3710 O   0  0  0  0  0  0  0  0  0  0  0  0
  -24.8460  -34.0210   24.8180 H   0  0  0  0  0  0  0  0  0  0  0  0
  -24.2080  -36.7990   22.9770 C   0  0  0  0  0  1  0  0  0  0  0  0
  -25.4010  -36.3460   23.8350 C   0  0  0  0  0  3  0  0  0  0  0  0
  -27.5000  -37.1850   24.8000 C   0  0  0  0  0  1  0  0  0  0  0  0
  -26.4530  -37.3860   23.8000 N   0  0  0  0  0  0  0  0  0  0  0  0
  -26.0530  -38.3090   23.9440 H   0  0  0  0  0  0  0  0  0  0  0  0
  -26.3060  -31.7230   25.0110 C   0  0  1  0  0  0  0  0  0  0  0  0
  -25.2000  -31.5130   26.0720 C   0  0  0  0  0  1  0  0  0  0  0  0
  -26.8780  -30.3320   24.6590 C   0  0  0  0  0  1  0  0  0  0  0  0
  -27.4610  -32.5130   25.6740 C   0  0  0  0  0  1  0  0  0  0  0  0
  2  1  1  0
  3  5  1  0
  4  3  2  0
  4  6  1  0
  5 15  1  0
  5  1  2  0
  6 46  1  0
  6  2  2  0
  8 13  1  0
  9 10  1  0
  9  8  1  0
 11 10  1  0
 11 20  1  0
 11 12  1  0
 13  7  1  0
 13 12  1  0
 14  7  2  0
 15 16  1  0
 15  7  1  0
 17 18  2  0
 18 37  1  0
 19 18  1  0
 19 22  1  0
 20 21  1  0
 20 17  1  0
 21 19  2  0
 22 23  1  0
 23 24  2  0
 25 28  1  0
 25 24  1  0
 26 25  2  0
 27 26  1  0
 27 22  2  0
 28 29  1  0
 29 30  1  0
 30 31  2  0
 32 31  1  0
 32 36  1  0
 33 32  2  0
 34 29  2  0
 34 33  1  0
 35 34  1  0
 37 38  1  0
 38 41  1  0
 38 40  1  0
 39 37  2  0
 42 43  1  0
 42 17  1  0
 44 42  1  0
 45 49  1  0
 45 46  1  0
 46 48  1  0
 47 45  2  0
 49 54  1  0
 50 49  1  0
 50 51  1  0
 52 50  1  0
 53 50  1  0
 55 57  1  0
 57 54  1  0
 57 56  1  0
 58 59  1  0
 58  4  1  0
 59 61  1  0
 60 71  2  0
 61 66  1  0
 62 70  1  0
 62 72  1  0
 63 69  1  0
 63 65  1  0
 64 70  1  0
 65 64  1  0
 66 65  2  0
 67 68  1  0
 67 61  2  0
 68 63  2  0
 69 62  1  0
 70 60  1  0
 72 74  2  0
 73 72  1  0
 75 73  1  0
 76 85  2  0
 76 81  1  0
 77 73  1  0
 77 81  1  0
 78 77  1  0
 79 80  1  0
 79 78  1  0
 80 76  1  0
 81 82  2  0
 82 83  1  0
 84 83  2  0
 85 84  1  0
 86 60  1  0
 86 87  1  0
 86 96  1  0
 87 90  1  0
 88 92  1  0
 88 87  1  0
 89 88  2  0
 92 91  1  0
 94 92  1  0
 94 95  1  0
 94 93  1  0
 96 99  1  1
 96 97  1  0
 98 96  1  0
M  ISO  4   7 100  15 100  58 101  59 101
M  END
>  <TORSDO>  (64) 
F 22

>  <SCORE>  (64) 
-14.608

>  <name>  (64) 
63

>  <ligand_id>  (64) 
63

>  <original_smiles>  (64) 
[H]c1c([H])c([H])c2c(c1[H])C([H])([H])C([H])([H])C([H])([H])C2([H])N([H])C(=O)C1([H])N(C(=O)C([H])(N([H])C(=O)C([H])(N([H])C([H])([H])[H])C([H])([H])[H])C(C([H])([H])[H])(C([H])([H])[H])C([H])([H])[H])C([H])([H])c2c([H])c(OC([H])([H])c3c([H])c(N([H])C(=O)N4C([H])([H])C([H])([H])C([H])([H])C([H])(n5nc(-c6c([H])c([H])c(Oc7c([H])c([H])c(F)c([H])c7F)c([H])c6[H])c(C(=O)N([H])[H])c5N([H])[H])C4([H])[H])c([H])c([H])c3N([H])C(=O)C([H])(C([H])([H])N(C([H])([H])[H])C([H])([H])[H])[N+]([H])([H])[H])c([H])c([H])c2C1([H])[H]

>  <smiles>  (64) 
[H]c1c([H])c([H])c2c(c1[H])C([H])([H])C([H])([H])C([H])([H])C2([H])N([H])C(=O)C1([H])N(C(=O)C([H])(N([H])C(=O)C([H])(N([H])C([H])([H])[H])C([H])([H])[H])C(C([H])([H])[H])(C([H])([H])[H])C([H])([H])[H])C([H])([H])c2c([H])c(OC([H])([H])c3c([H])c(N([H])C(=O)N4C([H])([H])C([H])([H])C([H])([H])C([H])(n5nc(-c6c([H])c([H])c(Oc7c([H])c([H])c(F)c([H])c7F)c([H])c6[H])c(C(=O)N([H])[H])c5N([H])[H])C4([H])[H])c([H])c([H])c3N([H])C(=O)C([H])(C([H])([H])N(C([H])([H])[H])C([H])([H])[H])[N+]([H])([H])[H])c([H])c([H])c2C1([H])[H]

$$$$
64:0:0
     RDKit          3D

 94103  0  0  1  0  0  0  0  0999 V2000
  -28.0460  -21.0500   21.5330 C   0  0  0  0  0  2  0  0  0  0  0  0
  -28.8050  -20.4920   20.3450 C   0  0  0  0  0  3  0  0  0  0  0  0
  -28.9310  -21.9800   20.7240 C   0  0  0  0  0  3  0  0  0  0  0  0
  -32.0920  -18.7220   21.2820 C   0  0  0  0  0  3  0  0  0  0  0  0
  -31.1470  -19.7350   21.0330 C   0  0  0  0  0  3  0  0  0  0  0  0
  -31.7440  -17.3670   21.1240 C   0  0  0  0  0  3  0  0  0  0  0  0
  -29.4870  -18.0420   20.4940 C   0  0  0  0  0  3  0  0  0  0  0  0
  -29.8320  -19.4130   20.6300 C   0  0  0  0  0  0  0  0  0  0  0  0
  -30.4360  -17.0130   20.7220 C   0  0  0  0  0  0  0  0  0  0  0  0
  -30.7390  -14.6320   20.0450 C   0  0  0  0  0  0  0  0  0  0  0  0
  -30.4000  -12.4570   18.9270 C   0  0  0  0  0  2  0  0  0  0  0  0
  -29.3920  -12.6290   17.7750 C   0  0  0  0  0  2  0  0  0  0  0  0
  -27.9440  -12.4770   18.2870 C   0  0  0  0  0  2  0  0  0  0  0  0
  -27.6670  -13.3310   19.5520 C   0  0  0  0  0  3  0  0  0  0  0  0
  -28.7830  -13.1400   20.6040 C   0  0  0  0  0  2  0  0  0  0  0  0
  -30.0700  -13.4500   19.9580 N   0  0  0  0  0  0  0  0  0  0  0  0
  -31.8420  -14.8110   19.5170 O   0  0  0  0  0  0  0  0  0  0  0  0
  -30.0410  -15.6470   20.5950 N   0  0  0  0  0  0  0  0  0  0  0  0
  -29.0870  -15.4300   20.8390 H   0  0  0  0  0  0  0  0  0  0  0  0
  -25.3250  -13.9350   20.4340 C   0  0  0  0  0  0  0  0  0  0  0  0
  -24.2750  -13.1580   20.8460 C   0  0  0  0  0  0  0  0  0  0  0  0
  -24.7200  -11.8040   20.7410 C   0  0  0  0  0  0  0  0  0  0  0  0
  -26.3440  -13.0520   20.1080 N   0  0  0  0  0  0  0  0  0  0  0  0
  -25.9870  -11.7640   20.3470 N   0  0  0  0  0  0  0  0  0  0  0  0
  -23.9950  -10.5420   20.9370 C   0  0  0  0  0  0  0  0  0  0  0  0
  -24.4240   -9.5820   21.8800 C   0  0  0  0  0  3  0  0  0  0  0  0
  -23.7000   -8.3840   22.0590 C   0  0  0  0  0  3  0  0  0  0  0  0
  -22.5350   -8.1360   21.2950 C   0  0  0  0  0  0  0  0  0  0  0  0
  -22.1250   -9.0840   20.3430 C   0  0  0  0  0  3  0  0  0  0  0  0
  -22.8480  -10.2750   20.1600 C   0  0  0  0  0  3  0  0  0  0  0  0
  -21.7830   -6.9900   21.3860 O   0  0  0  0  0  0  0  0  0  0  0  0
  -21.6720   -6.2930   22.5620 C   0  0  0  0  0  0  0  0  0  0  0  0
  -21.1420   -6.8830   23.7300 C   0  0  0  0  0  3  0  0  0  0  0  0
  -20.9810   -6.1110   24.8990 C   0  0  0  0  0  3  0  0  0  0  0  0
  -21.3400   -4.7500   24.8970 C   0  0  0  0  0  0  0  0  0  0  0  0
  -21.8630   -4.1580   23.7330 C   0  0  0  0  0  3  0  0  0  0  0  0
  -22.0260   -4.9280   22.5690 C   0  0  0  0  0  0  0  0  0  0  0  0
  -22.5120   -4.3500   21.4430 F   0  0  0  0  0  0  0  0  0  0  0  0
  -21.1780   -4.0050   26.0160 F   0  0  0  0  0  0  0  0  0  0  0  0
  -22.9030  -13.6370   21.2240 C   0  0  0  0  0  0  0  0  0  0  0  0
  -22.2190  -12.9120   22.1020 N   0  0  0  0  0  0  0  0  0  0  0  0
  -22.4490  -14.6910   20.7800 O   0  0  0  0  0  0  0  0  0  0  0  0
  -22.5960  -12.0550   22.4830 H   0  0  0  0  0  0  0  0  0  0  0  0
  -21.3020  -13.2170   22.3970 H   0  0  0  0  0  0  0  0  0  0  0  0
  -25.4920  -15.3090   20.2900 N   0  0  0  0  0  0  0  0  0  0  0  0
  -24.7410  -15.9680   20.4630 H   0  0  0  0  0  0  0  0  0  0  0  0
  -26.3180  -15.7470   19.9010 H   0  0  0  0  0  0  0  0  0  0  0  0
  -26.8850  -22.6560   19.3210 C   0  0  0  0  0  1  0  0  0  0  0  0
  -28.2190  -23.0170   19.8840 N   0  0  1  0  0  4  0  0  0  0  0  0
  -28.8110  -23.0820   19.0660 H   0  0  0  0  0  0  0  0  0  0  0  0
  -27.1610  -24.6200   21.5390 C   0  0  0  0  0  1  0  0  0  0  0  0
  -28.2660  -24.4020   20.4790 C   0  0  0  0  0  3  0  0  0  0  0  0
  -28.3360  -25.5220   19.3900 C   0  0  0  0  0  2  0  0  0  0  0  0
  -28.2660  -26.8660   19.9050 O   0  0  0  0  0  0  0  0  0  0  0  0
  -24.5570  -31.9620   23.1980 C   0  0  0  0  0  0  0  0  0  0  0  0
  -27.0690  -27.5640   19.9350 C   0  0  0  0  0  0  0  0  0  0  0  0
  -23.2860  -30.5970   21.5770 C   0  0  0  0  0  3  0  0  0  0  0  0
  -24.6780  -29.0850   20.0670 C   0  0  0  0  0  0  0  0  0  0  0  0
  -25.8030  -30.9510   21.2870 C   0  0  0  0  0  2  0  0  0  0  0  0
  -25.8580  -29.5920   20.6210 C   0  0  0  0  0  0  0  0  0  0  0  0
  -27.0520  -28.8380   20.5540 C   0  0  0  0  0  3  0  0  0  0  0  0
  -25.8600  -27.0730   19.3810 C   0  0  0  0  0  3  0  0  0  0  0  0
  -24.6730  -27.8260   19.4450 C   0  0  0  0  0  3  0  0  0  0  0  0
  -23.4390  -29.9460   20.1770 C   0  0  0  0  0  2  0  0  0  0  0  0
  -24.5700  -31.1840   22.0790 N   0  0  0  0  0  0  0  0  0  0  0  0
  -23.4980  -32.2270   23.7820 O   0  0  0  0  0  0  0  0  0  0  0  0
  -22.6690  -29.5580   22.5380 C   0  0  0  0  0  0  0  0  0  0  0  0
  -21.3460  -29.3500   22.4250 N   0  0  0  0  0  0  0  0  0  0  0  0
  -23.3730  -28.9420   23.3430 O   0  0  0  0  0  0  0  0  0  0  0  0
  -20.8370  -29.8990   21.7460 H   0  0  0  0  0  0  0  0  0  0  0  0
  -18.0080  -28.0680   22.9330 C   0  0  0  0  0  0  0  0  0  0  0  0
  -20.5580  -28.3940   23.2000 C   0  0  0  0  0  3  0  0  0  0  0  0
  -20.6980  -26.9640   22.6270 C   0  0  0  0  0  2  0  0  0  0  0  0
  -19.6030  -26.6070   21.6190 C   0  0  0  0  0  2  0  0  0  0  0  0
  -18.2200  -26.7200   22.2650 C   0  0  0  0  0  2  0  0  0  0  0  0
  -19.1060  -28.8600   23.3590 C   0  0  0  0  0  0  0  0  0  0  0  0
  -18.8560  -30.1200   23.9450 C   0  0  0  0  0  3  0  0  0  0  0  0
  -17.5390  -30.5870   24.1120 C   0  0  0  0  0  3  0  0  0  0  0  0
  -16.4550  -29.7920   23.7040 C   0  0  0  0  0  3  0  0  0  0  0  0
  -16.6900  -28.5350   23.1190 C   0  0  0  0  0  3  0  0  0  0  0  0
  -25.8680  -32.5770   23.7800 C   0  0  0  0  0  3  0  0  0  0  0  0
  -26.4310  -31.7790   25.0200 C   0  0  1  0  0  0  0  0  0  0  0  0
  -25.3740  -31.5160   26.1190 C   0  0  0  0  0  1  0  0  0  0  0  0
  -26.9990  -30.4120   24.5750 C   0  0  0  0  0  1  0  0  0  0  0  0
  -27.6060  -32.5600   25.6560 C   0  0  0  0  0  1  0  0  0  0  0  0
  -25.5800  -33.9690   24.1440 N   0  0  0  0  0  0  0  0  0  0  0  0
  -25.8960  -35.0330   23.3930 C   0  0  0  0  0  0  0  0  0  0  0  0
  -26.5360  -34.9420   22.3420 O   0  0  0  0  0  0  0  0  0  0  0  0
  -25.0080  -34.1140   24.9630 H   0  0  0  0  0  0  0  0  0  0  0  0
  -24.1790  -36.8450   23.1070 C   0  0  0  0  0  1  0  0  0  0  0  0
  -25.4310  -36.4150   23.8870 C   0  0  0  0  0  3  0  0  0  0  0  0
  -27.5860  -37.2660   24.7010 C   0  0  0  0  0  1  0  0  0  0  0  0
  -26.4720  -37.4600   23.7750 N   0  0  0  0  0  0  0  0  0  0  0  0
  -26.0780  -38.3820   23.9420 H   0  0  0  0  0  0  0  0  0  0  0  0
  2  8  1  0
  2  3  1  0
  2  1  1  0
  3 49  1  0
  3  1  1  0
  5  4  2  0
  6  4  1  0
  7  8  2  0
  7  9  1  0
  8  5  1  0
  9  6  2  0
 10 18  1  0
 11 16  1  0
 12 13  1  0
 12 11  1  0
 14 13  1  0
 14 23  1  0
 14 15  1  0
 16 10  1  0
 16 15  1  0
 17 10  2  0
 18  9  1  0
 18 19  1  0
 20 21  2  0
 21 40  1  0
 22 21  1  0
 22 25  1  0
 23 24  1  0
 23 20  1  0
 24 22  2  0
 25 26  1  0
 26 27  2  0
 28 31  1  0
 28 27  1  0
 29 28  2  0
 30 29  1  0
 30 25  2  0
 31 32  1  0
 32 37  2  0
 32 33  1  0
 33 34  2  0
 35 34  1  0
 35 39  1  0
 36 35  2  0
 37 36  1  0
 38 37  1  0
 40 41  1  0
 41 44  1  0
 41 43  1  0
 42 40  2  0
 45 20  1  0
 45 46  1  0
 47 45  1  0
 48 49  1  0
 49 52  1  0
 49 50  1  6
 52 51  1  0
 53 54  1  0
 53 52  1  0
 54 56  1  0
 55 66  2  0
 56 61  1  0
 57 65  1  0
 57 67  1  0
 58 64  1  0
 58 60  1  0
 59 65  1  0
 60 59  1  0
 61 60  2  0
 62 63  1  0
 62 56  2  0
 63 58  2  0
 64 57  1  0
 65 55  1  0
 67 69  2  0
 68 67  1  0
 70 68  1  0
 71 80  2  0
 71 76  1  0
 72 68  1  0
 72 76  1  0
 73 72  1  0
 74 75  1  0
 74 73  1  0
 75 71  1  0
 76 77  2  0
 77 78  1  0
 79 78  2  0
 80 79  1  0
 81 55  1  0
 81 86  1  0
 81 82  1  0
 82 85  1  1
 82 83  1  0
 84 82  1  0
 86 89  1  0
 87 91  1  0
 87 86  1  0
 88 87  2  0
 91 90  1  0
 93 91  1  0
 93 94  1  0
 93 92  1  0
M  ISO  4  10 100  18 100  53 101  54 101
M  END
>  <TORSDO>  (65) 
F 20

>  <SCORE>  (65) 
-13.536

>  <name>  (65) 
64

>  <ligand_id>  (65) 
64

>  <original_smiles>  (65) 
[H]c1c([H])c([H])c2c(c1[H])C([H])([H])C([H])([H])C([H])([H])C2([H])N([H])C(=O)C1([H])N(C(=O)C([H])(N([H])C(=O)C([H])(N([H])C([H])([H])[H])C([H])([H])[H])C(C([H])([H])[H])(C([H])([H])[H])C([H])([H])[H])C([H])([H])c2c([H])c(OC([H])([H])C([H])(C([H])([H])[H])[N+]([H])(C([H])([H])[H])C3([H])C([H])([H])C3([H])c3c([H])c([H])c([H])c(N([H])C(=O)N4C([H])([H])C([H])([H])C([H])([H])C([H])(n5nc(-c6c([H])c([H])c(Oc7c([H])c([H])c(F)c([H])c7F)c([H])c6[H])c(C(=O)N([H])[H])c5N([H])[H])C4([H])[H])c3[H])c([H])c([H])c2C1([H])[H]

>  <smiles>  (65) 
[H]c1c([H])c([H])c2c(c1[H])C([H])([H])C([H])([H])C([H])([H])C2([H])N([H])C(=O)C1([H])N(C(=O)C([H])(N([H])C(=O)C([H])(N([H])C([H])([H])[H])C([H])([H])[H])C(C([H])([H])[H])(C([H])([H])[H])C([H])([H])[H])C([H])([H])c2c([H])c(OC([H])([H])C([H])(C([H])([H])[H])[N+]([H])(C([H])([H])[H])C3([H])C([H])([H])C3([H])c3c([H])c([H])c([H])c(N([H])C(=O)N4C([H])([H])C([H])([H])C([H])([H])C([H])(n5nc(-c6c([H])c([H])c(Oc7c([H])c([H])c(F)c([H])c7F)c([H])c6[H])c(C(=O)N([H])[H])c5N([H])[H])C4([H])[H])c3[H])c([H])c([H])c2C1([H])[H]

$$$$
65:0:0
     RDKit          3D

 99107  0  0  1  0  0  0  0  0999 V2000
  -29.3920  -22.5640   19.5720 C   0  0  0  0  0  0  0  0  0  0  0  0
  -29.3210  -19.1240   21.2410 C   0  0  0  0  0  2  0  0  0  0  0  0
  -29.3390  -20.6880   21.3770 C   0  0  0  0  0  2  0  0  0  0  0  0
  -29.9120  -20.0870   19.1720 C   0  0  0  0  0  2  0  0  0  0  0  0
  -30.1850  -18.7590   20.0170 C   0  0  0  0  0  3  0  0  0  0  0  0
  -29.5310  -21.2530   20.0360 N   0  0  0  0  0  0  0  0  0  0  0  0
  -29.5220  -22.7640   18.3620 O   0  0  0  0  0  0  0  0  0  0  0  0
  -28.6360  -17.1940   18.6730 C   0  0  0  0  0  1  0  0  0  0  0  0
  -30.0480  -17.2790   19.3000 C   0  0  2  0  0  0  0  0  0  0  0  0
  -30.8970  -14.8480   20.0440 C   0  0  0  0  0  0  0  0  0  0  0  0
  -30.6390  -12.5730   19.0720 C   0  0  0  0  0  2  0  0  0  0  0  0
  -29.6800  -12.6730   17.8660 C   0  0  0  0  0  2  0  0  0  0  0  0
  -28.2150  -12.5230   18.3220 C   0  0  0  0  0  2  0  0  0  0  0  0
  -27.8800  -13.3960   19.5620 C   0  0  0  0  0  3  0  0  0  0  0  0
  -28.9660  -13.3010   20.6560 C   0  0  0  0  0  2  0  0  0  0  0  0
  -30.2550  -13.6300   20.0370 N   0  0  0  0  0  0  0  0  0  0  0  0
  -32.0730  -14.9170   19.6800 O   0  0  0  0  0  0  0  0  0  0  0  0
  -30.1230  -15.9990   20.1660 N   0  0  0  0  0  0  0  0  0  0  0  0
  -29.2560  -15.8030   20.6400 H   0  0  0  0  0  0  0  0  0  0  0  0
  -25.5130  -13.9980   20.3470 C   0  0  0  0  0  0  0  0  0  0  0  0
  -24.4550  -13.2280   20.7440 C   0  0  0  0  0  0  0  0  0  0  0  0
  -24.9110  -11.8750   20.7020 C   0  0  0  0  0  0  0  0  0  0  0  0
  -26.5470  -13.1140   20.0850 N   0  0  0  0  0  0  0  0  0  0  0  0
  -26.1940  -11.8320   20.3620 N   0  0  0  0  0  0  0  0  0  0  0  0
  -24.1840  -10.6170   20.9110 C   0  0  0  0  0  0  0  0  0  0  0  0
  -24.6100   -9.6700   21.8680 C   0  0  0  0  0  3  0  0  0  0  0  0
  -23.8850   -8.4760   22.0640 C   0  0  0  0  0  3  0  0  0  0  0  0
  -22.7180   -8.2210   21.3040 C   0  0  0  0  0  0  0  0  0  0  0  0
  -22.3130   -9.1570   20.3350 C   0  0  0  0  0  3  0  0  0  0  0  0
  -23.0400  -10.3420   20.1370 C   0  0  0  0  0  3  0  0  0  0  0  0
  -21.9660   -7.0760   21.4080 O   0  0  0  0  0  0  0  0  0  0  0  0
  -21.8720   -6.3810   22.5870 C   0  0  0  0  0  0  0  0  0  0  0  0
  -21.3540   -6.9700   23.7610 C   0  0  0  0  0  3  0  0  0  0  0  0
  -21.2110   -6.1970   24.9310 C   0  0  0  0  0  3  0  0  0  0  0  0
  -21.5730   -4.8370   24.9270 C   0  0  0  0  0  0  0  0  0  0  0  0
  -22.0830   -4.2470   23.7570 C   0  0  0  0  0  3  0  0  0  0  0  0
  -22.2280   -5.0170   22.5890 C   0  0  0  0  0  0  0  0  0  0  0  0
  -22.7010   -4.4390   21.4580 F   0  0  0  0  0  0  0  0  0  0  0  0
  -21.4280   -4.0920   26.0480 F   0  0  0  0  0  0  0  0  0  0  0  0
  -23.0660  -13.7130   21.0480 C   0  0  0  0  0  0  0  0  0  0  0  0
  -22.3570  -13.0190   21.9320 N   0  0  0  0  0  0  0  0  0  0  0  0
  -22.6200  -14.7390   20.5370 O   0  0  0  0  0  0  0  0  0  0  0  0
  -22.7330  -12.1920   22.3690 H   0  0  0  0  0  0  0  0  0  0  0  0
  -21.4240  -13.3210   22.1730 H   0  0  0  0  0  0  0  0  0  0  0  0
  -25.6750  -15.3690   20.1640 N   0  0  0  0  0  0  0  0  0  0  0  0
  -24.9050  -16.0180   20.2870 H   0  0  0  0  0  0  0  0  0  0  0  0
  -26.4990  -15.8050   19.7750 H   0  0  0  0  0  0  0  0  0  0  0  0
  -31.0970  -17.1430   18.1380 C   0  0  0  0  0  2  0  0  0  0  0  0
  -30.9370  -18.0900   17.0200 N   0  0  0  0  0  4  0  0  0  0  0  0
  -31.6390  -17.9090   16.3230 H   0  0  0  0  0  0  0  0  0  0  0  0
  -31.0480  -19.0380   17.3320 H   0  0  0  0  0  0  0  0  0  0  0  0
  -30.0390  -17.9850   16.5830 H   0  0  0  0  0  0  0  0  0  0  0  0
  -29.2010  -23.8830   20.4530 C   0  0  0  0  0  3  0  0  0  0  0  0
  -30.5240  -24.5330   20.5250 N   0  0  0  0  0  4  0  0  0  0  0  0
  -30.8400  -24.7460   19.5930 H   0  0  0  0  0  0  0  0  0  0  0  0
  -31.2010  -23.9270   20.9510 H   0  0  0  0  0  0  0  0  0  0  0  0
  -30.4730  -25.3870   21.0510 H   0  0  0  0  0  0  0  0  0  0  0  0
  -28.1550  -24.9980   19.9240 C   0  0  0  0  0  2  0  0  0  0  0  0
  -28.3260  -26.4590   20.2440 O   0  0  0  0  0  0  0  0  0  0  0  0
  -24.6080  -31.9300   23.2040 C   0  0  0  0  0  0  0  0  0  0  0  0
  -27.2170  -27.3350   20.1620 C   0  0  0  0  0  0  0  0  0  0  0  0
  -23.4020  -30.5220   21.5750 C   0  0  0  0  0  3  0  0  0  0  0  0
  -24.8530  -28.9690   20.1450 C   0  0  0  0  0  0  0  0  0  0  0  0
  -25.9410  -30.8380   21.3820 C   0  0  0  0  0  2  0  0  0  0  0  0
  -26.0230  -29.4540   20.7420 C   0  0  0  0  0  0  0  0  0  0  0  0
  -27.2060  -28.6480   20.7420 C   0  0  0  0  0  3  0  0  0  0  0  0
  -26.0240  -26.9230   19.5230 C   0  0  0  0  0  3  0  0  0  0  0  0
  -24.8570  -27.7120   19.5260 C   0  0  0  0  0  3  0  0  0  0  0  0
  -23.6140  -29.8420   20.1970 C   0  0  0  0  0  2  0  0  0  0  0  0
  -24.6690  -31.1150   22.1100 N   0  0  0  0  0  0  0  0  0  0  0  0
  -23.5250  -32.2080   23.7420 O   0  0  0  0  0  0  0  0  0  0  0  0
  -22.7450  -29.5090   22.5430 C   0  0  0  0  0  0  0  0  0  0  0  0
  -21.4200  -29.3230   22.4200 N   0  0  0  0  0  0  0  0  0  0  0  0
  -23.4270  -28.8920   23.3670 O   0  0  0  0  0  0  0  0  0  0  0  0
  -20.9270  -29.8720   21.7300 H   0  0  0  0  0  0  0  0  0  0  0  0
  -18.0500  -28.1050   22.9270 C   0  0  0  0  0  0  0  0  0  0  0  0
  -20.6060  -28.3860   23.1970 C   0  0  0  0  0  3  0  0  0  0  0  0
  -20.7190  -26.9500   22.6340 C   0  0  0  0  0  2  0  0  0  0  0  0
  -19.6220  -26.6100   21.6210 C   0  0  0  0  0  2  0  0  0  0  0  0
  -18.2380  -26.7510   22.2610 C   0  0  0  0  0  2  0  0  0  0  0  0
  -19.1630  -28.8790   23.3510 C   0  0  0  0  0  0  0  0  0  0  0  0
  -18.9350  -30.1440   23.9340 C   0  0  0  0  0  3  0  0  0  0  0  0
  -17.6260  -30.6390   24.0940 C   0  0  0  0  0  3  0  0  0  0  0  0
  -16.5280  -29.8630   23.6840 C   0  0  0  0  0  3  0  0  0  0  0  0
  -16.7400  -28.5970   23.1080 C   0  0  0  0  0  3  0  0  0  0  0  0
  -25.8910  -32.5710   23.8180 C   0  0  0  0  0  3  0  0  0  0  0  0
  -25.5780  -33.9700   24.1430 N   0  0  0  0  0  0  0  0  0  0  0  0
  -25.9000  -35.0210   23.3760 C   0  0  0  0  0  0  0  0  0  0  0  0
  -26.5610  -34.9140   22.3380 O   0  0  0  0  0  0  0  0  0  0  0  0
  -24.9890  -34.1270   24.9460 H   0  0  0  0  0  0  0  0  0  0  0  0
  -24.1720  -36.8140   23.0210 C   0  0  0  0  0  1  0  0  0  0  0  0
  -25.4140  -36.4110   23.8310 C   0  0  0  0  0  3  0  0  0  0  0  0
  -27.5430  -37.3050   24.6650 C   0  0  0  0  0  1  0  0  0  0  0  0
  -26.4460  -37.4640   23.7140 N   0  0  0  0  0  0  0  0  0  0  0  0
  -26.0400  -38.3850   23.8530 H   0  0  0  0  0  0  0  0  0  0  0  0
  -26.4130  -31.8070   25.0970 C   0  0  1  0  0  0  0  0  0  0  0  0
  -25.3210  -31.5680   26.1670 C   0  0  0  0  0  1  0  0  0  0  0  0
  -27.0010  -30.4300   24.7080 C   0  0  0  0  0  1  0  0  0  0  0  0
  -27.5600  -32.6070   25.7550 C   0  0  0  0  0  1  0  0  0  0  0  0
  1  6  1  0
  1 53  1  0
  2  3  1  0
  4  5  1  0
  4  6  1  0
  5  9  1  0
  5  2  1  0
  6  3  1  0
  7  1  2  0
  9  8  1  6
  9 18  1  0
 10 18  1  0
 11 16  1  0
 12 13  1  0
 12 11  1  0
 14 13  1  0
 14 23  1  0
 14 15  1  0
 16 10  1  0
 16 15  1  0
 17 10  2  0
 18 19  1  0
 20 21  2  0
 21 40  1  0
 22 21  1  0
 22 25  1  0
 23 20  1  0
 23 24  1  0
 24 22  2  0
 25 26  1  0
 26 27  2  0
 28 31  1  0
 28 27  1  0
 29 28  2  0
 30 29  1  0
 30 25  2  0
 31 32  1  0
 32 37  2  0
 32 33  1  0
 33 34  2  0
 35 34  1  0
 35 39  1  0
 36 35  2  0
 37 36  1  0
 38 37  1  0
 40 41  1  0
 41 44  1  0
 41 43  1  0
 42 40  2  0
 45 46  1  0
 45 20  1  0
 47 45  1  0
 48  9  1  0
 49 51  1  0
 49 48  1  0
 50 49  1  0
 52 49  1  0
 53 58  1  0
 53 54  1  0
 54 56  1  0
 54 57  1  0
 55 54  1  0
 58 59  1  0
 60 71  2  0
 61 59  1  0
 61 66  1  0
 62 70  1  0
 62 72  1  0
 63 69  1  0
 63 65  1  0
 64 70  1  0
 65 66  2  0
 65 64  1  0
 67 68  1  0
 67 61  2  0
 68 63  2  0
 69 62  1  0
 70 60  1  0
 72 74  2  0
 73 72  1  0
 75 73  1  0
 76 85  2  0
 76 81  1  0
 77 73  1  0
 77 81  1  0
 78 77  1  0
 79 80  1  0
 79 78  1  0
 80 76  1  0
 81 82  2  0
 82 83  1  0
 84 83  2  0
 85 84  1  0
 86 60  1  0
 86 87  1  0
 86 96  1  0
 87 90  1  0
 88 92  1  0
 88 87  1  0
 89 88  2  0
 92 91  1  0
 94 92  1  0
 94 95  1  0
 94 93  1  0
 96 99  1  1
 96 97  1  0
 98 96  1  0
M  ISO  4  10 100  18 100  58 101  59 101
M  END
>  <TORSDO>  (66) 
F 22

>  <SCORE>  (66) 
-13.160

>  <name>  (66) 
65

>  <ligand_id>  (66) 
65

>  <original_smiles>  (66) 
[H]c1c([H])c([H])c2c(c1[H])C([H])([H])C([H])([H])C([H])([H])C2([H])N([H])C(=O)C1([H])N(C(=O)C([H])(N([H])C(=O)C([H])(N([H])C([H])([H])[H])C([H])([H])[H])C(C([H])([H])[H])(C([H])([H])[H])C([H])([H])[H])C([H])([H])c2c([H])c(OC([H])([H])C([H])(C(=O)N3C([H])([H])C([H])([H])C([H])(C(N([H])C(=O)N4C([H])([H])C([H])([H])C([H])([H])C([H])(n5nc(-c6c([H])c([H])c(Oc7c([H])c([H])c(F)c([H])c7F)c([H])c6[H])c(C(=O)N([H])[H])c5N([H])[H])C4([H])[H])(C([H])([H])[H])C([H])([H])[N+]([H])([H])[H])C3([H])[H])[N+]([H])([H])[H])c([H])c([H])c2C1([H])[H]

>  <smiles>  (66) 
[H]c1c([H])c([H])c2c(c1[H])C([H])([H])C([H])([H])C([H])([H])C2([H])N([H])C(=O)C1([H])N(C(=O)C([H])(N([H])C(=O)C([H])(N([H])C([H])([H])[H])C([H])([H])[H])C(C([H])([H])[H])(C([H])([H])[H])C([H])([H])[H])C([H])([H])c2c([H])c(OC([H])([H])C([H])(C(=O)N3C([H])([H])C([H])([H])C([H])(C(N([H])C(=O)N4C([H])([H])C([H])([H])C([H])([H])C([H])(n5nc(-c6c([H])c([H])c(Oc7c([H])c([H])c(F)c([H])c7F)c([H])c6[H])c(C(=O)N([H])[H])c5N([H])[H])C4([H])[H])(C([H])([H])[H])C([H])([H])[N+]([H])([H])[H])C3([H])[H])[N+]([H])([H])[H])c([H])c([H])c2C1([H])[H]

$$$$
66:0:0
     RDKit          3D

 90 98  0  0  1  0  0  0  0  0999 V2000
  -27.3130  -21.3920   20.3680 C   0  0  0  0  0  1  0  0  0  0  0  0
  -28.7210  -21.7690   20.4700 N   0  0  0  0  0  0  0  0  0  0  0  0
  -31.8650  -19.5430   20.5880 C   0  0  0  0  0  3  0  0  0  0  0  0
  -31.4460  -18.2000   20.5340 C   0  0  0  0  0  3  0  0  0  0  0  0
  -30.9750  -20.6380   20.5660 C   0  0  0  0  0  3  0  0  0  0  0  0
  -29.1790  -19.0460   20.4280 C   0  0  0  0  0  3  0  0  0  0  0  0
  -30.0840  -17.8400   20.4650 C   0  0  0  0  0  0  0  0  0  0  0  0
  -29.5710  -20.5070   20.4640 C   0  0  0  0  0  0  0  0  0  0  0  0
  -30.5300  -15.1050   20.3510 C   0  0  0  0  0  0  0  0  0  0  0  0
  -30.4270  -12.7460   19.4010 C   0  0  0  0  0  2  0  0  0  0  0  0
  -29.5030  -12.6830   18.1630 C   0  0  0  0  0  2  0  0  0  0  0  0
  -28.0380  -12.4610   18.5850 C   0  0  0  0  0  2  0  0  0  0  0  0
  -27.6190  -13.3770   19.7650 C   0  0  0  0  0  3  0  0  0  0  0  0
  -28.6690  -13.4050   20.8950 C   0  0  0  0  0  2  0  0  0  0  0  0
  -29.9320  -13.8420   20.2880 N   0  0  0  0  0  0  0  0  0  0  0  0
  -31.7420  -15.1290   20.1040 O   0  0  0  0  0  0  0  0  0  0  0  0
  -29.7560  -16.3170   20.4660 N   0  0  0  0  0  0  0  0  0  0  0  0
  -28.7690  -16.1190   20.5540 H   0  0  0  0  0  0  0  0  0  0  0  0
  -25.2350  -13.9330   20.5040 C   0  0  0  0  0  0  0  0  0  0  0  0
  -24.1760  -13.1490   20.8680 C   0  0  0  0  0  0  0  0  0  0  0  0
  -24.6520  -11.8010   20.8380 C   0  0  0  0  0  0  0  0  0  0  0  0
  -26.2850  -13.0640   20.2630 N   0  0  0  0  0  0  0  0  0  0  0  0
  -25.9450  -11.7760   20.5330 N   0  0  0  0  0  0  0  0  0  0  0  0
  -23.9310  -10.5340   21.0200 C   0  0  0  0  0  0  0  0  0  0  0  0
  -24.3480   -9.5780   21.9730 C   0  0  0  0  0  3  0  0  0  0  0  0
  -23.6270   -8.3760   22.1440 C   0  0  0  0  0  3  0  0  0  0  0  0
  -22.4740   -8.1230   21.3600 C   0  0  0  0  0  0  0  0  0  0  0  0
  -22.0780   -9.0680   20.3970 C   0  0  0  0  0  3  0  0  0  0  0  0
  -22.8000  -10.2600   20.2250 C   0  0  0  0  0  3  0  0  0  0  0  0
  -21.7270   -6.9730   21.4390 O   0  0  0  0  0  0  0  0  0  0  0  0
  -21.6310   -6.2540   22.6030 C   0  0  0  0  0  0  0  0  0  0  0  0
  -21.1100   -6.8190   23.7870 C   0  0  0  0  0  3  0  0  0  0  0  0
  -20.9660   -6.0240   24.9410 C   0  0  0  0  0  3  0  0  0  0  0  0
  -21.3310   -4.6650   24.9130 C   0  0  0  0  0  0  0  0  0  0  0  0
  -21.8470   -4.1000   23.7330 C   0  0  0  0  0  3  0  0  0  0  0  0
  -21.9930   -4.8920   22.5800 C   0  0  0  0  0  0  0  0  0  0  0  0
  -22.4700   -4.3370   21.4400 F   0  0  0  0  0  0  0  0  0  0  0  0
  -21.1860   -3.9000   26.0190 F   0  0  0  0  0  0  0  0  0  0  0  0
  -22.7740  -13.6160   21.1290 C   0  0  0  0  0  0  0  0  0  0  0  0
  -22.0420  -12.9170   21.9890 N   0  0  0  0  0  0  0  0  0  0  0  0
  -22.3340  -14.6400   20.6070 O   0  0  0  0  0  0  0  0  0  0  0  0
  -22.4090  -12.0920   22.4400 H   0  0  0  0  0  0  0  0  0  0  0  0
  -21.1010  -13.2170   22.2020 H   0  0  0  0  0  0  0  0  0  0  0  0
  -25.3840  -15.3060   20.3290 N   0  0  0  0  0  0  0  0  0  0  0  0
  -24.6020  -15.9440   20.4290 H   0  0  0  0  0  0  0  0  0  0  0  0
  -26.2100  -15.7520   19.9530 H   0  0  0  0  0  0  0  0  0  0  0  0
  -30.4180  -23.7860   20.5160 C   0  0  0  0  0  1  0  0  0  0  0  0
  -29.0080  -23.3150   20.1320 C   0  0  0  0  0  3  0  0  0  0  0  0
  -27.9970  -24.6380   20.5390 C   0  0  0  0  0  2  0  0  0  0  0  0
  -28.2620  -26.1800   20.3070 O   0  0  0  0  0  0  0  0  0  0  0  0
  -24.6260  -31.9390   23.2500 C   0  0  0  0  0  0  0  0  0  0  0  0
  -27.2130  -27.1790   20.2660 C   0  0  0  0  0  0  0  0  0  0  0  0
  -23.4380  -30.5290   21.6170 C   0  0  0  0  0  3  0  0  0  0  0  0
  -24.8950  -28.9490   20.2050 C   0  0  0  0  0  0  0  0  0  0  0  0
  -25.9940  -30.7920   21.4610 C   0  0  0  0  0  2  0  0  0  0  0  0
  -26.0720  -29.3920   20.8200 C   0  0  0  0  0  0  0  0  0  0  0  0
  -27.2340  -28.5250   20.8300 C   0  0  0  0  0  3  0  0  0  0  0  0
  -26.0130  -26.8510   19.6030 C   0  0  0  0  0  3  0  0  0  0  0  0
  -24.8800  -27.6950   19.5760 C   0  0  0  0  0  3  0  0  0  0  0  0
  -23.6700  -29.8490   20.2420 C   0  0  0  0  0  2  0  0  0  0  0  0
  -24.7070  -31.1100   22.1640 N   0  0  0  0  0  0  0  0  0  0  0  0
  -23.5350  -32.2230   23.7700 O   0  0  0  0  0  0  0  0  0  0  0  0
  -22.7600  -29.5230   22.5820 C   0  0  0  0  0  0  0  0  0  0  0  0
  -21.4340  -29.3440   22.4500 N   0  0  0  0  0  0  0  0  0  0  0  0
  -23.4310  -28.9080   23.4140 O   0  0  0  0  0  0  0  0  0  0  0  0
  -20.9500  -29.8940   21.7550 H   0  0  0  0  0  0  0  0  0  0  0  0
  -18.0540  -28.1390   22.9600 C   0  0  0  0  0  0  0  0  0  0  0  0
  -20.6140  -28.4080   23.2250 C   0  0  0  0  0  3  0  0  0  0  0  0
  -20.7180  -26.9740   22.6570 C   0  0  0  0  0  2  0  0  0  0  0  0
  -19.6170  -26.6450   21.6440 C   0  0  0  0  0  2  0  0  0  0  0  0
  -18.2350  -26.7890   22.2880 C   0  0  0  0  0  2  0  0  0  0  0  0
  -19.1710  -28.9060   23.3860 C   0  0  0  0  0  0  0  0  0  0  0  0
  -18.9470  -30.1680   23.9790 C   0  0  0  0  0  3  0  0  0  0  0  0
  -17.6400  -30.6640   24.1440 C   0  0  0  0  0  3  0  0  0  0  0  0
  -16.5380  -29.8940   23.7320 C   0  0  0  0  0  3  0  0  0  0  0  0
  -16.7470  -28.6330   23.1460 C   0  0  0  0  0  3  0  0  0  0  0  0
  -25.8960  -32.5870   23.8790 C   0  0  0  0  0  3  0  0  0  0  0  0
  -26.4000  -31.8330   25.1710 C   0  0  1  0  0  0  0  0  0  0  0  0
  -25.2960  -31.6040   26.2300 C   0  0  0  0  0  1  0  0  0  0  0  0
  -26.9930  -30.4530   24.8070 C   0  0  0  0  0  1  0  0  0  0  0  0
  -27.5410  -32.6380   25.8350 C   0  0  0  0  0  1  0  0  0  0  0  0
  -25.5770  -33.9870   24.1960 N   0  0  0  0  0  0  0  0  0  0  0  0
  -25.9070  -35.0380   23.4350 C   0  0  0  0  0  0  0  0  0  0  0  0
  -26.5800  -34.9310   22.4040 O   0  0  0  0  0  0  0  0  0  0  0  0
  -24.9770  -34.1430   24.9920 H   0  0  0  0  0  0  0  0  0  0  0  0
  -24.1800  -36.8330   23.0650 C   0  0  0  0  0  1  0  0  0  0  0  0
  -25.4160  -36.4300   23.8850 C   0  0  0  0  0  3  0  0  0  0  0  0
  -27.5400  -37.3270   24.7300 C   0  0  0  0  0  1  0  0  0  0  0  0
  -26.4470  -37.4840   23.7730 N   0  0  0  0  0  0  0  0  0  0  0  0
  -26.0390  -38.4040   23.9100 H   0  0  0  0  0  0  0  0  0  0  0  0
  1  2  1  0
  4  3  2  0
  5  3  1  0
  6  8  1  0
  6  7  2  0
  7 17  1  0
  7  4  1  0
  8  2  1  0
  8  5  2  0
  9 17  1  0
 10 15  1  0
 11 12  1  0
 11 10  1  0
 13 12  1  0
 13 22  1  0
 13 14  1  0
 15  9  1  0
 15 14  1  0
 16  9  2  0
 17 18  1  0
 19 20  2  0
 20 39  1  0
 21 20  1  0
 21 24  1  0
 22 19  1  0
 22 23  1  0
 23 21  2  0
 24 25  1  0
 25 26  2  0
 27 30  1  0
 27 26  1  0
 28 27  2  0
 29 28  1  0
 29 24  2  0
 30 31  1  0
 31 32  1  0
 32 33  2  0
 34 33  1  0
 34 38  1  0
 35 34  2  0
 36 31  2  0
 36 35  1  0
 37 36  1  0
 39 40  1  0
 40 43  1  0
 40 42  1  0
 41 39  2  0
 44 45  1  0
 44 19  1  0
 46 44  1  0
 48  2  1  0
 48 47  1  0
 48 49  1  0
 50 49  1  0
 51 62  2  0
 52 50  1  0
 52 57  1  0
 53 61  1  0
 53 63  1  0
 54 60  1  0
 54 56  1  0
 55 61  1  0
 56 57  2  0
 56 55  1  0
 58 52  2  0
 59 58  1  0
 59 54  2  0
 60 53  1  0
 61 51  1  0
 63 65  2  0
 64 63  1  0
 66 64  1  0
 67 76  2  0
 67 72  1  0
 68 64  1  0
 68 72  1  0
 69 68  1  0
 70 71  1  0
 70 69  1  0
 71 67  1  0
 72 73  2  0
 73 74  1  0
 75 74  2  0
 76 75  1  0
 77 51  1  0
 77 82  1  0
 77 78  1  0
 78 81  1  1
 78 79  1  0
 80 78  1  0
 82 85  1  0
 83 87  1  0
 83 82  1  0
 84 83  2  0
 87 86  1  0
 89 87  1  0
 89 90  1  0
 89 88  1  0
M  ISO  4   9 100  17 100  49 101  50 101
M  END
>  <TORSDO>  (67) 
F 19

>  <SCORE>  (67) 
-14.670

>  <name>  (67) 
66

>  <ligand_id>  (67) 
66

>  <original_smiles>  (67) 
[H]c1c([H])c(N([H])C(=O)N2C([H])([H])C([H])([H])C([H])([H])C([H])(n3nc(-c4c([H])c([H])c(Oc5c([H])c([H])c(F)c([H])c5F)c([H])c4[H])c(C(=O)N([H])[H])c3N([H])[H])C2([H])[H])c([H])c(N(C([H])([H])[H])C([H])(C([H])([H])[H])C([H])([H])Oc2c([H])c([H])c3c(c2[H])C([H])([H])N(C(=O)C([H])(N([H])C(=O)C([H])(N([H])C([H])([H])[H])C([H])([H])[H])C(C([H])([H])[H])(C([H])([H])[H])C([H])([H])[H])C([H])(C(=O)N([H])C2([H])c4c([H])c([H])c([H])c([H])c4C([H])([H])C([H])([H])C2([H])[H])C3([H])[H])c1[H]

>  <smiles>  (67) 
[H]c1c([H])c(N([H])C(=O)N2C([H])([H])C([H])([H])C([H])([H])C([H])(n3nc(-c4c([H])c([H])c(Oc5c([H])c([H])c(F)c([H])c5F)c([H])c4[H])c(C(=O)N([H])[H])c3N([H])[H])C2([H])[H])c([H])c(N(C([H])([H])[H])C([H])(C([H])([H])[H])C([H])([H])Oc2c([H])c([H])c3c(c2[H])C([H])([H])N(C(=O)C([H])(N([H])C(=O)C([H])(N([H])C([H])([H])[H])C([H])([H])[H])C(C([H])([H])[H])(C([H])([H])[H])C([H])([H])[H])C([H])(C(=O)N([H])C2([H])c4c([H])c([H])c([H])c([H])c4C([H])([H])C([H])([H])C2([H])[H])C3([H])[H])c1[H]

$$$$
67:0:0
     RDKit          3D

104113  0  0  1  0  0  0  0  0999 V2000
  -29.2470  -21.3700   17.2030 C   0  0  0  0  0  0  0  0  0  0  0  0
  -28.4890  -20.4920   17.8670 N   0  0  0  0  0  0  0  0  0  0  0  0
  -30.3370  -21.0710   16.7150 O   0  0  0  0  0  0  0  0  0  0  0  0
  -27.6060  -20.8370   18.2110 H   0  0  0  0  0  0  0  0  0  0  0  0
  -27.6620  -23.1770   18.1720 C   0  0  0  0  0  2  0  0  0  0  0  0
  -29.7860  -23.8820   17.0050 C   0  0  0  0  0  2  0  0  0  0  0  0
  -28.3530  -23.4450   19.5230 C   0  0  0  0  0  2  0  0  0  0  0  0
  -30.4170  -24.1730   18.3850 C   0  0  0  0  0  2  0  0  0  0  0  0
  -28.6810  -22.7980   17.0620 C   0  0  0  0  0  3  0  0  0  0  0  0
  -29.3670  -24.5210   19.3730 N   0  0  2  0  0  4  0  0  0  0  0  0
  -28.8850  -25.3140   18.9740 H   0  0  0  0  0  0  0  0  0  0  0  0
  -29.8760  -25.0680   20.6570 C   0  0  0  0  0  2  0  0  0  0  0  0
  -28.8660  -26.0800   21.2240 C   0  0  0  0  0  2  0  0  0  0  0  0
  -28.4910  -26.8970   20.1210 O   0  0  0  0  0  0  0  0  0  0  0  0
  -24.5320  -31.9080   23.2930 C   0  0  0  0  0  0  0  0  0  0  0  0
  -27.2940  -27.5560   20.2300 C   0  0  0  0  0  0  0  0  0  0  0  0
  -23.3710  -30.5120   21.6070 C   0  0  0  0  0  3  0  0  0  0  0  0
  -24.8710  -28.9960   20.2160 C   0  0  0  0  0  0  0  0  0  0  0  0
  -25.8940  -30.9050   21.4680 C   0  0  0  0  0  2  0  0  0  0  0  0
  -26.0070  -29.5390   20.8290 C   0  0  0  0  0  0  0  0  0  0  0  0
  -27.2220  -28.8230   20.8410 C   0  0  0  0  0  3  0  0  0  0  0  0
  -26.1450  -27.0130   19.6160 C   0  0  0  0  0  3  0  0  0  0  0  0
  -24.9290  -27.7250   19.6150 C   0  0  0  0  0  3  0  0  0  0  0  0
  -23.6170  -29.8420   20.2300 C   0  0  0  0  0  2  0  0  0  0  0  0
  -24.6150  -31.1230   22.1810 N   0  0  0  0  0  0  0  0  0  0  0  0
  -23.4370  -32.1650   23.8140 O   0  0  0  0  0  0  0  0  0  0  0  0
  -22.7080  -29.4800   22.5450 C   0  0  0  0  0  0  0  0  0  0  0  0
  -21.3870  -29.2920   22.3920 N   0  0  0  0  0  0  0  0  0  0  0  0
  -23.3790  -28.8480   23.3650 O   0  0  0  0  0  0  0  0  0  0  0  0
  -20.9010  -29.8590   21.7120 H   0  0  0  0  0  0  0  0  0  0  0  0
  -18.0060  -28.0960   22.8200 C   0  0  0  0  0  0  0  0  0  0  0  0
  -20.5620  -28.3390   23.1330 C   0  0  0  0  0  3  0  0  0  0  0  0
  -20.6660  -26.9200   22.5310 C   0  0  0  0  0  2  0  0  0  0  0  0
  -19.5750  -26.6210   21.4950 C   0  0  0  0  0  2  0  0  0  0  0  0
  -18.1870  -26.7590   22.1240 C   0  0  0  0  0  2  0  0  0  0  0  0
  -19.1210  -28.8440   23.2820 C   0  0  0  0  0  0  0  0  0  0  0  0
  -18.8990  -30.0990   23.8910 C   0  0  0  0  0  3  0  0  0  0  0  0
  -17.5940  -30.6030   24.0460 C   0  0  0  0  0  3  0  0  0  0  0  0
  -16.4920  -29.8480   23.6050 C   0  0  0  0  0  3  0  0  0  0  0  0
  -16.7000  -28.5970   22.9960 C   0  0  0  0  0  3  0  0  0  0  0  0
  -25.8000  -32.5400   23.9470 C   0  0  0  0  0  3  0  0  0  0  0  0
  -25.4900  -33.9430   24.2450 N   0  0  0  0  0  0  0  0  0  0  0  0
  -25.8600  -34.9820   23.4850 C   0  0  0  0  0  0  0  0  0  0  0  0
  -26.5690  -34.8580   22.4820 O   0  0  0  0  0  0  0  0  0  0  0  0
  -24.8650  -34.1130   25.0200 H   0  0  0  0  0  0  0  0  0  0  0  0
  -24.1800  -36.7940   23.0190 C   0  0  0  0  0  1  0  0  0  0  0  0
  -25.3660  -36.3780   23.9040 C   0  0  0  0  0  3  0  0  0  0  0  0
  -27.4560  -37.2540   24.8510 C   0  0  0  0  0  1  0  0  0  0  0  0
  -26.4140  -37.4160   23.8410 N   0  0  0  0  0  0  0  0  0  0  0  0
  -26.0100  -38.3440   23.9450 H   0  0  0  0  0  0  0  0  0  0  0  0
  -26.2760  -31.7830   25.2450 C   0  0  1  0  0  0  0  0  0  0  0  0
  -25.1550  -31.5590   26.2850 C   0  0  0  0  0  1  0  0  0  0  0  0
  -26.8670  -30.3980   24.8840 C   0  0  0  0  0  1  0  0  0  0  0  0
  -27.4090  -32.5790   25.9330 C   0  0  0  0  0  1  0  0  0  0  0  0
  -28.7140  -19.0620   18.0170 C   0  0  0  0  0  2  0  0  0  0  0  0
  -30.3280  -19.5160   19.9880 C   0  0  0  0  0  3  0  0  0  0  0  0
  -30.9060  -17.7160   21.5270 C   0  0  0  0  0  3  0  0  0  0  0  0
  -29.3340  -17.3060   19.7070 C   0  0  0  0  0  3  0  0  0  0  0  0
  -31.0510  -19.0580   21.1150 C   0  0  0  0  0  0  0  0  0  0  0  0
  -29.4770  -18.6380   19.2700 C   0  0  0  0  0  0  0  0  0  0  0  0
  -30.0590  -16.8370   20.8180 C   0  0  0  0  0  0  0  0  0  0  0  0
  -30.6500  -14.5080   20.6600 C   0  0  0  0  0  0  0  0  0  0  0  0
  -30.3670  -12.4040   19.4260 C   0  0  0  0  0  2  0  0  0  0  0  0
  -29.4420  -12.6850   18.2250 C   0  0  0  0  0  2  0  0  0  0  0  0
  -27.9580  -12.5240   18.6240 C   0  0  0  0  0  2  0  0  0  0  0  0
  -27.6050  -13.2870   19.9290 C   0  0  0  0  0  3  0  0  0  0  0  0
  -28.6560  -13.0130   21.0330 C   0  0  0  0  0  2  0  0  0  0  0  0
  -29.9900  -13.3330   20.4970 N   0  0  0  0  0  0  0  0  0  0  0  0
  -31.7820  -14.7190   20.2120 O   0  0  0  0  0  0  0  0  0  0  0  0
  -29.9190  -15.4870   21.2070 N   0  0  0  0  0  0  0  0  0  0  0  0
  -28.9920  -15.1930   21.4780 H   0  0  0  0  0  0  0  0  0  0  0  0
  -25.1800  -13.8420   20.5950 C   0  0  0  0  0  0  0  0  0  0  0  0
  -24.1240  -13.0470   20.9490 C   0  0  0  0  0  0  0  0  0  0  0  0
  -24.6100  -11.7040   20.9100 C   0  0  0  0  0  0  0  0  0  0  0  0
  -26.2480  -12.9840   20.3800 N   0  0  0  0  0  0  0  0  0  0  0  0
  -25.9070  -11.6920   20.6250 N   0  0  0  0  0  0  0  0  0  0  0  0
  -23.9030  -10.4270   21.0780 C   0  0  0  0  0  0  0  0  0  0  0  0
  -24.3180   -9.4800   22.0380 C   0  0  0  0  0  3  0  0  0  0  0  0
  -23.6180   -8.2660   22.1990 C   0  0  0  0  0  3  0  0  0  0  0  0
  -22.4860   -7.9900   21.3970 C   0  0  0  0  0  0  0  0  0  0  0  0
  -22.0890   -8.9280   20.4260 C   0  0  0  0  0  3  0  0  0  0  0  0
  -22.7910  -10.1330   20.2640 C   0  0  0  0  0  3  0  0  0  0  0  0
  -21.7560   -6.8280   21.4620 O   0  0  0  0  0  0  0  0  0  0  0  0
  -21.6520   -6.1070   22.6240 C   0  0  0  0  0  0  0  0  0  0  0  0
  -21.0840   -6.6550   23.7950 C   0  0  0  0  0  3  0  0  0  0  0  0
  -20.9360   -5.8560   24.9470 C   0  0  0  0  0  3  0  0  0  0  0  0
  -21.3480   -4.5100   24.9260 C   0  0  0  0  0  0  0  0  0  0  0  0
  -21.9080   -3.9610   23.7590 C   0  0  0  0  0  3  0  0  0  0  0  0
  -22.0590   -4.7580   22.6100 C   0  0  0  0  0  0  0  0  0  0  0  0
  -22.5790   -4.2180   21.4830 F   0  0  0  0  0  0  0  0  0  0  0  0
  -21.1990   -3.7390   26.0290 F   0  0  0  0  0  0  0  0  0  0  0  0
  -22.7130  -13.4920   21.2060 C   0  0  0  0  0  0  0  0  0  0  0  0
  -21.9830  -12.7710   22.0500 N   0  0  0  0  0  0  0  0  0  0  0  0
  -22.2650  -14.5170   20.6960 O   0  0  0  0  0  0  0  0  0  0  0  0
  -22.3510  -11.9390   22.4850 H   0  0  0  0  0  0  0  0  0  0  0  0
  -21.0390  -13.0580   22.2670 H   0  0  0  0  0  0  0  0  0  0  0  0
  -25.3180  -15.2170   20.4190 N   0  0  0  0  0  0  0  0  0  0  0  0
  -24.5280  -15.8490   20.4950 H   0  0  0  0  0  0  0  0  0  0  0  0
  -26.1610  -15.6770   20.0970 H   0  0  0  0  0  0  0  0  0  0  0  0
  -31.9290  -19.9860   21.9080 C   0  0  0  0  0  0  0  0  0  0  0  0
  -32.6620  -20.8530   21.2180 N   0  0  0  0  0  0  0  0  0  0  0  0
  -32.0030  -19.9100   23.1320 O   0  0  0  0  0  0  0  0  0  0  0  0
  -32.6200  -20.8640   20.2110 H   0  0  0  0  0  0  0  0  0  0  0  0
  -33.3070  -21.4660   21.6960 H   0  0  0  0  0  0  0  0  0  0  0  0
  1  2  1  0
  2 55  1  0
  2  4  1  0
  3  1  2  0
  5  7  1  0
  6  9  1  0
  6  8  1  0
  8 10  1  0
  9  1  1  0
  9  5  1  0
 10  7  1  0
 10 12  1  0
 10 11  1  6
 12 13  1  0
 14 16  1  0
 14 13  1  0
 15 26  2  0
 16 21  1  0
 17 25  1  0
 17 27  1  0
 18 24  1  0
 18 20  1  0
 19 25  1  0
 20 21  2  0
 20 19  1  0
 22 16  2  0
 23 22  1  0
 23 18  2  0
 24 17  1  0
 25 15  1  0
 27 29  2  0
 28 27  1  0
 30 28  1  0
 31 40  2  0
 31 36  1  0
 32 28  1  0
 32 36  1  0
 33 32  1  0
 34 35  1  0
 34 33  1  0
 35 31  1  0
 36 37  2  0
 37 38  1  0
 39 38  2  0
 40 39  1  0
 41 15  1  0
 41 42  1  0
 41 51  1  0
 42 45  1  0
 43 47  1  0
 43 42  1  0
 44 43  2  0
 47 46  1  0
 49 47  1  0
 49 50  1  0
 49 48  1  0
 51 54  1  1
 51 52  1  0
 53 51  1  0
 55 60  1  0
 56 59  1  0
 58 61  2  0
 59 57  2  0
 59100  1  0
 60 58  1  0
 60 56  2  0
 61 70  1  0
 61 57  1  0
 62 70  1  0
 63 68  1  0
 64 65  1  0
 64 63  1  0
 66 65  1  0
 66 75  1  0
 66 67  1  0
 68 62  1  0
 68 67  1  0
 69 62  2  0
 70 71  1  0
 72 73  2  0
 73 92  1  0
 74 73  1  0
 74 77  1  0
 75 72  1  0
 75 76  1  0
 76 74  2  0
 77 78  1  0
 78 79  2  0
 80 83  1  0
 80 79  1  0
 81 80  2  0
 82 81  1  0
 82 77  2  0
 83 84  1  0
 84 85  1  0
 85 86  2  0
 87 86  1  0
 87 91  1  0
 88 87  2  0
 89 84  2  0
 89 88  1  0
 90 89  1  0
 92 93  1  0
 93 96  1  0
 93 95  1  0
 94 92  2  0
 97 98  1  0
 97 72  1  0
 99 97  1  0
100102  2  0
101104  1  0
101100  1  0
103101  1  0
M  ISO  4  13 101  14 101  62 100  70 100
M  END
>  <TORSDO>  (68) 
F 22

>  <SCORE>  (68) 
-13.711

>  <name>  (68) 
67

>  <ligand_id>  (68) 
67

>  <original_smiles>  (68) 
[H]c1c([H])c([H])c2c(c1[H])C([H])([H])C([H])([H])C([H])([H])C2([H])N([H])C(=O)C1([H])N(C(=O)C([H])(N([H])C(=O)C([H])(N([H])C([H])([H])[H])C([H])([H])[H])C(C([H])([H])[H])(C([H])([H])[H])C([H])([H])[H])C([H])([H])c2c([H])c(OC([H])([H])C([H])([H])[N+]3([H])C([H])([H])C([H])([H])C([H])(C(=O)N([H])C([H])([H])c4c([H])c(C(=O)N([H])[H])c([H])c(N([H])C(=O)N5C([H])([H])C([H])([H])C([H])([H])C([H])(n6nc(-c7c([H])c([H])c(Oc8c([H])c([H])c(F)c([H])c8F)c([H])c7[H])c(C(=O)N([H])[H])c6N([H])[H])C5([H])[H])c4[H])C([H])([H])C3([H])[H])c([H])c([H])c2C1([H])[H]

>  <smiles>  (68) 
[H]c1c([H])c([H])c2c(c1[H])C([H])([H])C([H])([H])C([H])([H])C2([H])N([H])C(=O)C1([H])N(C(=O)C([H])(N([H])C(=O)C([H])(N([H])C([H])([H])[H])C([H])([H])[H])C(C([H])([H])[H])(C([H])([H])[H])C([H])([H])[H])C([H])([H])c2c([H])c(OC([H])([H])C([H])([H])[N+]3([H])C([H])([H])C([H])([H])C([H])(C(=O)N([H])C([H])([H])c4c([H])c(C(=O)N([H])[H])c([H])c(N([H])C(=O)N5C([H])([H])C([H])([H])C([H])([H])C([H])(n6nc(-c7c([H])c([H])c(Oc8c([H])c([H])c(F)c([H])c8F)c([H])c7[H])c(C(=O)N([H])[H])c6N([H])[H])C5([H])[H])c4[H])C([H])([H])C3([H])[H])c([H])c([H])c2C1([H])[H]

$$$$
68:0:0
     RDKit          3D

102111  0  0  1  0  0  0  0  0999 V2000
  -29.3030  -21.3960   21.5520 C   0  0  0  0  0  2  0  0  0  0  0  0
  -30.5300  -22.4130   19.9250 C   0  0  0  0  0  2  0  0  0  0  0  0
  -29.5640  -20.2930   20.5140 C   0  0  0  0  0  3  0  0  0  0  0  0
  -30.3600  -20.9820   19.3860 C   0  0  0  0  0  3  0  0  0  0  0  0
  -29.3710  -22.6420   20.7910 N   0  0  0  0  0  0  0  0  0  0  0  0
  -32.1000  -18.0830   22.3770 C   0  0  0  0  0  3  0  0  0  0  0  0
  -31.4410  -19.2130   21.8580 C   0  0  0  0  0  3  0  0  0  0  0  0
  -31.5920  -16.7960   22.1270 C   0  0  0  0  0  3  0  0  0  0  0  0
  -29.7380  -17.7740   20.8710 C   0  0  0  0  0  3  0  0  0  0  0  0
  -30.2560  -19.0670   21.1020 C   0  0  0  0  0  0  0  0  0  0  0  0
  -30.4170  -16.6400   21.3610 C   0  0  0  0  0  0  0  0  0  0  0  0
  -30.4500  -14.4960   20.2060 C   0  0  0  0  0  0  0  0  0  0  0  0
  -30.0680  -12.4430   18.8970 C   0  0  0  0  0  2  0  0  0  0  0  0
  -29.0500  -12.7120   17.7730 C   0  0  0  0  0  2  0  0  0  0  0  0
  -27.6100  -12.5230   18.2850 C   0  0  0  0  0  2  0  0  0  0  0  0
  -27.3420  -13.2840   19.6120 C   0  0  0  0  0  3  0  0  0  0  0  0
  -28.4630  -13.0020   20.6370 C   0  0  0  0  0  2  0  0  0  0  0  0
  -29.7530  -13.3470   20.0130 N   0  0  0  0  0  0  0  0  0  0  0  0
  -31.4800  -14.7740   19.5820 O   0  0  0  0  0  0  0  0  0  0  0  0
  -29.9120  -15.3510   21.0870 N   0  0  0  0  0  0  0  0  0  0  0  0
  -29.0130  -15.1020   21.4720 H   0  0  0  0  0  0  0  0  0  0  0  0
  -24.9720  -13.8140   20.4680 C   0  0  0  0  0  0  0  0  0  0  0  0
  -23.9430  -13.0040   20.8700 C   0  0  0  0  0  0  0  0  0  0  0  0
  -24.4300  -11.6660   20.7670 C   0  0  0  0  0  0  0  0  0  0  0  0
  -26.0220  -12.9660   20.1520 N   0  0  0  0  0  0  0  0  0  0  0  0
  -25.7020  -11.6670   20.3850 N   0  0  0  0  0  0  0  0  0  0  0  0
  -23.7440  -10.3820   20.9550 C   0  0  0  0  0  0  0  0  0  0  0  0
  -24.1830   -9.4440   21.9150 C   0  0  0  0  0  3  0  0  0  0  0  0
  -23.4960   -8.2230   22.0890 C   0  0  0  0  0  3  0  0  0  0  0  0
  -22.3560   -7.9320   21.3020 C   0  0  0  0  0  0  0  0  0  0  0  0
  -21.9370   -8.8590   20.3320 C   0  0  0  0  0  3  0  0  0  0  0  0
  -22.6260  -10.0710   20.1560 C   0  0  0  0  0  3  0  0  0  0  0  0
  -21.6420   -6.7600   21.3830 O   0  0  0  0  0  0  0  0  0  0  0  0
  -21.5160   -6.0740   22.5640 C   0  0  0  0  0  0  0  0  0  0  0  0
  -20.9330   -6.6600   23.7080 C   0  0  0  0  0  3  0  0  0  0  0  0
  -20.7600   -5.8980   24.8810 C   0  0  0  0  0  3  0  0  0  0  0  0
  -21.1600   -4.5480   24.9090 C   0  0  0  0  0  0  0  0  0  0  0  0
  -21.7370   -3.9610   23.7690 C   0  0  0  0  0  3  0  0  0  0  0  0
  -21.9110   -4.7220   22.5990 C   0  0  0  0  0  0  0  0  0  0  0  0
  -22.4480   -4.1460   21.4960 F   0  0  0  0  0  0  0  0  0  0  0  0
  -20.9880   -3.8130   26.0310 F   0  0  0  0  0  0  0  0  0  0  0  0
  -22.5530  -13.4400   21.2380 C   0  0  0  0  0  0  0  0  0  0  0  0
  -21.8920  -12.6980   22.1210 N   0  0  0  0  0  0  0  0  0  0  0  0
  -22.0630  -14.4710   20.7800 O   0  0  0  0  0  0  0  0  0  0  0  0
  -22.3020  -11.8640   22.5140 H   0  0  0  0  0  0  0  0  0  0  0  0
  -20.9630  -12.9700   22.4090 H   0  0  0  0  0  0  0  0  0  0  0  0
  -25.0980  -15.1930   20.3290 N   0  0  0  0  0  0  0  0  0  0  0  0
  -24.3260  -15.8290   20.5010 H   0  0  0  0  0  0  0  0  0  0  0  0
  -25.9240  -15.6600   19.9800 H   0  0  0  0  0  0  0  0  0  0  0  0
  -29.6150  -20.9430   18.0340 C   0  0  0  0  0  0  0  0  0  0  0  0
  -30.2420  -20.3860   17.0030 N   0  0  0  0  0  0  0  0  0  0  0  0
  -28.4840  -21.4070   17.8970 O   0  0  0  0  0  0  0  0  0  0  0  0
  -31.1700  -19.9990   17.1090 H   0  0  0  0  0  0  0  0  0  0  0  0
  -29.7950  -20.3430   16.0970 H   0  0  0  0  0  0  0  0  0  0  0  0
  -29.5310  -23.7800   21.6940 C   0  0  0  0  0  2  0  0  0  0  0  0
  -29.5420  -25.1430   20.9620 C   0  0  0  0  0  3  0  0  0  0  0  0
  -30.0420  -26.2000   21.8680 N   0  0  0  0  0  4  0  0  0  0  0  0
  -29.4680  -26.2860   22.6890 H   0  0  0  0  0  0  0  0  0  0  0  0
  -30.0320  -27.0830   21.3850 H   0  0  0  0  0  0  0  0  0  0  0  0
  -30.9870  -26.0150   22.1570 H   0  0  0  0  0  0  0  0  0  0  0  0
  -28.1550  -25.5240   20.4120 C   0  0  0  0  0  2  0  0  0  0  0  0
  -28.2300  -26.8610   19.9220 O   0  0  0  0  0  0  0  0  0  0  0  0
  -24.5000  -31.9360   23.1710 C   0  0  0  0  0  0  0  0  0  0  0  0
  -27.0480  -27.5580   19.9600 C   0  0  0  0  0  0  0  0  0  0  0  0
  -23.2410  -30.5550   21.5490 C   0  0  0  0  0  3  0  0  0  0  0  0
  -24.6480  -29.0310   20.0660 C   0  0  0  0  0  0  0  0  0  0  0  0
  -25.7540  -30.9250   21.2720 C   0  0  0  0  0  2  0  0  0  0  0  0
  -25.8210  -29.5630   20.6160 C   0  0  0  0  0  0  0  0  0  0  0  0
  -27.0270  -28.8350   20.5550 C   0  0  0  0  0  3  0  0  0  0  0  0
  -25.8600  -27.0260   19.4130 C   0  0  0  0  0  3  0  0  0  0  0  0
  -24.6610  -27.7610   19.4620 C   0  0  0  0  0  3  0  0  0  0  0  0
  -23.4050  -29.8860   20.1580 C   0  0  0  0  0  2  0  0  0  0  0  0
  -24.5190  -31.1520   22.0560 N   0  0  0  0  0  0  0  0  0  0  0  0
  -23.4380  -32.2030   23.7490 O   0  0  0  0  0  0  0  0  0  0  0  0
  -22.6200  -29.5240   22.5180 C   0  0  0  0  0  0  0  0  0  0  0  0
  -21.2970  -29.3220   22.4060 N   0  0  0  0  0  0  0  0  0  0  0  0
  -23.3240  -28.9070   23.3220 O   0  0  0  0  0  0  0  0  0  0  0  0
  -20.7910  -29.8720   21.7260 H   0  0  0  0  0  0  0  0  0  0  0  0
  -17.9460  -28.0850   22.9410 C   0  0  0  0  0  0  0  0  0  0  0  0
  -20.5030  -28.3720   23.1840 C   0  0  0  0  0  3  0  0  0  0  0  0
  -20.6170  -26.9440   22.6040 C   0  0  0  0  0  2  0  0  0  0  0  0
  -19.5070  -26.6110   21.6020 C   0  0  0  0  0  2  0  0  0  0  0  0
  -18.1320  -26.7380   22.2620 C   0  0  0  0  0  2  0  0  0  0  0  0
  -19.0600  -28.8600   23.3600 C   0  0  0  0  0  0  0  0  0  0  0  0
  -18.8350  -30.1200   23.9540 C   0  0  0  0  0  3  0  0  0  0  0  0
  -17.5270  -30.6070   24.1340 C   0  0  0  0  0  3  0  0  0  0  0  0
  -16.4260  -29.8300   23.7320 C   0  0  0  0  0  3  0  0  0  0  0  0
  -16.6380  -28.5710   23.1410 C   0  0  0  0  0  3  0  0  0  0  0  0
  -25.8080  -32.5560   23.7590 C   0  0  0  0  0  3  0  0  0  0  0  0
  -25.5140  -33.9500   24.1140 N   0  0  0  0  0  0  0  0  0  0  0  0
  -25.8480  -35.0110   23.3680 C   0  0  0  0  0  0  0  0  0  0  0  0
  -26.5090  -34.9190   22.3290 O   0  0  0  0  0  0  0  0  0  0  0  0
  -24.9270  -34.0970   24.9230 H   0  0  0  0  0  0  0  0  0  0  0  0
  -24.1490  -36.8340   23.0330 C   0  0  0  0  0  1  0  0  0  0  0  0
  -25.3750  -36.3960   23.8500 C   0  0  0  0  0  3  0  0  0  0  0  0
  -27.5090  -37.2340   24.7270 C   0  0  0  0  0  1  0  0  0  0  0  0
  -26.4230  -37.4360   23.7720 N   0  0  0  0  0  0  0  0  0  0  0  0
  -26.0270  -38.3590   23.9340 H   0  0  0  0  0  0  0  0  0  0  0  0
  -26.3660  -31.7660   25.0050 C   0  0  1  0  0  0  0  0  0  0  0  0
  -25.3020  -31.4890   26.0920 C   0  0  0  0  0  1  0  0  0  0  0  0
  -26.9590  -30.4070   24.5660 C   0  0  0  0  0  1  0  0  0  0  0  0
  -27.5190  -32.5630   25.6580 C   0  0  0  0  0  1  0  0  0  0  0  0
  2  5  1  0
  3 10  1  0
  3  1  1  0
  4 50  1  0
  4  2  1  0
  4  3  1  0
  5  1  1  0
  5 55  1  0
  7  6  2  0
  8  6  1  0
  9 10  2  0
  9 11  1  0
 10  7  1  0
 11  8  2  0
 12 20  1  0
 13 18  1  0
 14 15  1  0
 14 13  1  0
 16 15  1  0
 16 25  1  0
 16 17  1  0
 18 12  1  0
 18 17  1  0
 19 12  2  0
 20 11  1  0
 20 21  1  0
 22 23  2  0
 23 42  1  0
 24 23  1  0
 24 27  1  0
 25 26  1  0
 25 22  1  0
 26 24  2  0
 27 28  1  0
 28 29  2  0
 30 33  1  0
 30 29  1  0
 31 30  2  0
 32 31  1  0
 32 27  2  0
 33 34  1  0
 34 39  2  0
 34 35  1  0
 35 36  2  0
 36 37  1  0
 37 41  1  0
 38 37  2  0
 39 38  1  0
 40 39  1  0
 42 43  1  0
 43 46  1  0
 43 45  1  0
 44 42  2  0
 47 22  1  0
 47 48  1  0
 49 47  1  0
 51 53  1  0
 51 50  1  0
 52 50  2  0
 54 51  1  0
 56 61  1  0
 56 55  1  0
 56 57  1  0
 57 60  1  0
 57 58  1  0
 59 57  1  0
 62 64  1  0
 62 61  1  0
 63 74  2  0
 64 69  1  0
 65 73  1  0
 65 75  1  0
 66 72  1  0
 66 68  1  0
 67 73  1  0
 68 67  1  0
 69 68  2  0
 70 71  1  0
 70 64  2  0
 71 66  2  0
 72 65  1  0
 73 63  1  0
 75 77  2  0
 76 75  1  0
 78 76  1  0
 79 88  2  0
 79 84  1  0
 80 76  1  0
 80 84  1  0
 81 80  1  0
 82 83  1  0
 82 81  1  0
 83 79  1  0
 84 85  2  0
 85 86  1  0
 87 86  2  0
 88 87  1  0
 89 63  1  0
 89 90  1  0
 89 99  1  0
 90 93  1  0
 91 95  1  0
 91 90  1  0
 92 91  2  0
 95 94  1  0
 97 95  1  0
 97 98  1  0
 97 96  1  0
 99102  1  1
 99100  1  0
101 99  1  0
M  ISO  4  12 100  20 100  61 101  62 101
M  END
>  <TORSDO>  (69) 
F 22

>  <SCORE>  (69) 
-12.155

>  <name>  (69) 
68

>  <ligand_id>  (69) 
68

>  <original_smiles>  (69) 
[H]c1c([H])c([H])c2c(c1[H])C([H])([H])C([H])([H])C([H])([H])C2([H])N([H])C(=O)C1([H])N(C(=O)C([H])(N([H])C(=O)C([H])(N([H])C([H])([H])[H])C([H])([H])[H])C(C([H])([H])[H])(C([H])([H])[H])C([H])([H])[H])C([H])([H])c2c([H])c(OC([H])([H])C([H])(C([H])([H])N3C([H])([H])C([H])(C(=O)N([H])[H])C([H])(c4c([H])c([H])c([H])c(N([H])C(=O)N5C([H])([H])C([H])([H])C([H])([H])C([H])(n6nc(-c7c([H])c([H])c(Oc8c([H])c([H])c(F)c([H])c8F)c([H])c7[H])c(C(=O)N([H])[H])c6N([H])[H])C5([H])[H])c4[H])C3([H])[H])[N+]([H])([H])[H])c([H])c([H])c2C1([H])[H]

>  <smiles>  (69) 
[H]c1c([H])c([H])c2c(c1[H])C([H])([H])C([H])([H])C([H])([H])C2([H])N([H])C(=O)C1([H])N(C(=O)C([H])(N([H])C(=O)C([H])(N([H])C([H])([H])[H])C([H])([H])[H])C(C([H])([H])[H])(C([H])([H])[H])C([H])([H])[H])C([H])([H])c2c([H])c(OC([H])([H])C([H])(C([H])([H])N3C([H])([H])C([H])(C(=O)N([H])[H])C([H])(c4c([H])c([H])c([H])c(N([H])C(=O)N5C([H])([H])C([H])([H])C([H])([H])C([H])(n6nc(-c7c([H])c([H])c(Oc8c([H])c([H])c(F)c([H])c8F)c([H])c7[H])c(C(=O)N([H])[H])c6N([H])[H])C5([H])[H])c4[H])C3([H])[H])[N+]([H])([H])[H])c([H])c([H])c2C1([H])[H]

$$$$
69:0:0
     RDKit          3D

 93102  0  0  1  0  0  0  0  0999 V2000
  -30.7290  -21.2830   21.4920 C   0  0  0  0  0  2  0  0  0  0  0  0
  -29.4390  -20.5720   21.1730 C   0  0  0  0  0  3  0  0  0  0  0  0
  -29.7060  -21.9870   20.6180 C   0  0  0  0  0  3  0  0  0  0  0  0
  -29.3010  -18.1550   18.1970 C   0  0  0  0  0  3  0  0  0  0  0  0
  -29.2560  -19.3360   18.9600 C   0  0  0  0  0  3  0  0  0  0  0  0
  -29.5670  -16.9210   18.8190 C   0  0  0  0  0  3  0  0  0  0  0  0
  -29.7400  -18.0510   20.9710 C   0  0  0  0  0  3  0  0  0  0  0  0
  -29.4860  -19.3040   20.3530 C   0  0  0  0  0  0  0  0  0  0  0  0
  -29.7850  -16.8530   20.2140 C   0  0  0  0  0  0  0  0  0  0  0  0
  -30.6710  -14.5670   20.3820 C   0  0  0  0  0  0  0  0  0  0  0  0
  -30.3870  -12.3980   19.2650 C   0  0  0  0  0  2  0  0  0  0  0  0
  -29.4420  -12.6130   18.0630 C   0  0  0  0  0  2  0  0  0  0  0  0
  -27.9670  -12.4860   18.4940 C   0  0  0  0  0  2  0  0  0  0  0  0
  -27.6370  -13.3030   19.7730 C   0  0  0  0  0  3  0  0  0  0  0  0
  -28.6980  -13.0730   20.8730 C   0  0  0  0  0  2  0  0  0  0  0  0
  -30.0220  -13.3750   20.3030 N   0  0  0  0  0  0  0  0  0  0  0  0
  -31.7980  -14.7560   19.9170 O   0  0  0  0  0  0  0  0  0  0  0  0
  -29.9410  -15.5900   20.8670 N   0  0  0  0  0  0  0  0  0  0  0  0
  -29.1650  -15.3130   21.4470 H   0  0  0  0  0  0  0  0  0  0  0  0
  -25.2410  -13.8970   20.5080 C   0  0  0  0  0  0  0  0  0  0  0  0
  -24.1770  -13.1190   20.8780 C   0  0  0  0  0  0  0  0  0  0  0  0
  -24.6420  -11.7680   20.8330 C   0  0  0  0  0  0  0  0  0  0  0  0
  -26.2860  -13.0200   20.2600 N   0  0  0  0  0  0  0  0  0  0  0  0
  -25.9310  -11.7340   20.5150 N   0  0  0  0  0  0  0  0  0  0  0  0
  -23.9210  -10.5010   21.0220 C   0  0  0  0  0  0  0  0  0  0  0  0
  -24.3490   -9.5440   21.9680 C   0  0  0  0  0  3  0  0  0  0  0  0
  -23.6320   -8.3400   22.1450 C   0  0  0  0  0  3  0  0  0  0  0  0
  -22.4720   -8.0880   21.3750 C   0  0  0  0  0  0  0  0  0  0  0  0
  -22.0610   -9.0350   20.4190 C   0  0  0  0  0  3  0  0  0  0  0  0
  -22.7790  -10.2300   20.2410 C   0  0  0  0  0  3  0  0  0  0  0  0
  -21.7260   -6.9380   21.4580 O   0  0  0  0  0  0  0  0  0  0  0  0
  -21.6490   -6.2140   22.6200 C   0  0  0  0  0  0  0  0  0  0  0  0
  -21.1540   -6.7770   23.8170 C   0  0  0  0  0  3  0  0  0  0  0  0
  -21.0250   -5.9790   24.9720 C   0  0  0  0  0  3  0  0  0  0  0  0
  -21.3780   -4.6180   24.9300 C   0  0  0  0  0  0  0  0  0  0  0  0
  -21.8660   -4.0540   23.7380 C   0  0  0  0  0  3  0  0  0  0  0  0
  -21.9980   -4.8480   22.5860 C   0  0  0  0  0  0  0  0  0  0  0  0
  -22.4480   -4.2950   21.4340 F   0  0  0  0  0  0  0  0  0  0  0  0
  -21.2460   -3.8480   26.0360 F   0  0  0  0  0  0  0  0  0  0  0  0
  -22.7800  -13.5890   21.1640 C   0  0  0  0  0  0  0  0  0  0  0  0
  -22.0580  -12.8830   22.0250 N   0  0  0  0  0  0  0  0  0  0  0  0
  -22.3340  -14.6200   20.6600 O   0  0  0  0  0  0  0  0  0  0  0  0
  -22.4280  -12.0490   22.4580 H   0  0  0  0  0  0  0  0  0  0  0  0
  -21.1200  -13.1800   22.2530 H   0  0  0  0  0  0  0  0  0  0  0  0
  -25.4030  -15.2690   20.3400 N   0  0  0  0  0  0  0  0  0  0  0  0
  -24.6440  -15.9290   20.4680 H   0  0  0  0  0  0  0  0  0  0  0  0
  -26.2560  -15.7080   20.0140 H   0  0  0  0  0  0  0  0  0  0  0  0
  -29.0570  -24.3630   20.4110 C   0  0  0  0  0  0  0  0  0  0  0  0
  -28.5230  -23.1780   22.4980 C   0  0  0  0  0  1  0  0  0  0  0  0
  -29.1200  -23.2160   21.1500 N   0  0  0  0  0  0  0  0  0  0  0  0
  -29.5040  -24.4320   19.2590 O   0  0  0  0  0  0  0  0  0  0  0  0
  -28.4040  -25.6290   21.0270 C   0  0  0  0  0  2  0  0  0  0  0  0
  -28.4720  -26.7720   20.1510 O   0  0  0  0  0  0  0  0  0  0  0  0
  -24.6000  -31.9140   23.2170 C   0  0  0  0  0  0  0  0  0  0  0  0
  -27.3160  -27.5190   20.1400 C   0  0  0  0  0  0  0  0  0  0  0  0
  -23.4210  -30.5040   21.5600 C   0  0  0  0  0  3  0  0  0  0  0  0
  -24.9060  -28.9890   20.1390 C   0  0  0  0  0  0  0  0  0  0  0  0
  -25.9440  -30.8970   21.3770 C   0  0  0  0  0  2  0  0  0  0  0  0
  -26.0520  -29.5290   20.7360 C   0  0  0  0  0  0  0  0  0  0  0  0
  -27.2660  -28.8020   20.7310 C   0  0  0  0  0  3  0  0  0  0  0  0
  -26.1550  -26.9910   19.5380 C   0  0  0  0  0  3  0  0  0  0  0  0
  -24.9510  -27.7200   19.5370 C   0  0  0  0  0  3  0  0  0  0  0  0
  -23.6480  -29.8300   20.1810 C   0  0  0  0  0  2  0  0  0  0  0  0
  -24.6730  -31.1180   22.1110 N   0  0  0  0  0  0  0  0  0  0  0  0
  -23.5120  -32.1710   23.7500 O   0  0  0  0  0  0  0  0  0  0  0  0
  -22.7770  -29.4710   22.5150 C   0  0  0  0  0  0  0  0  0  0  0  0
  -21.4530  -29.2850   22.3860 N   0  0  0  0  0  0  0  0  0  0  0  0
  -23.4640  -28.8430   23.3230 O   0  0  0  0  0  0  0  0  0  0  0  0
  -20.9590  -29.8450   21.7060 H   0  0  0  0  0  0  0  0  0  0  0  0
  -18.0830  -28.0800   22.8850 C   0  0  0  0  0  0  0  0  0  0  0  0
  -20.6420  -28.3360   23.1490 C   0  0  0  0  0  3  0  0  0  0  0  0
  -20.7430  -26.9110   22.5540 C   0  0  0  0  0  2  0  0  0  0  0  0
  -19.6360  -26.6010   21.5410 C   0  0  0  0  0  2  0  0  0  0  0  0
  -18.2580  -26.7390   22.1930 C   0  0  0  0  0  2  0  0  0  0  0  0
  -19.2030  -28.8370   23.3200 C   0  0  0  0  0  0  0  0  0  0  0  0
  -18.9870  -30.0940   23.9260 C   0  0  0  0  0  3  0  0  0  0  0  0
  -17.6820  -30.5940   24.1010 C   0  0  0  0  0  3  0  0  0  0  0  0
  -16.5770  -29.8340   23.6840 C   0  0  0  0  0  3  0  0  0  0  0  0
  -16.7780  -28.5790   23.0810 C   0  0  0  0  0  3  0  0  0  0  0  0
  -25.8740  -32.5570   23.8470 C   0  0  0  0  0  3  0  0  0  0  0  0
  -26.3980  -31.7840   25.1190 C   0  0  1  0  0  0  0  0  0  0  0  0
  -25.3040  -31.5240   26.1800 C   0  0  0  0  0  1  0  0  0  0  0  0
  -27.0010  -30.4190   24.7160 C   0  0  0  0  0  1  0  0  0  0  0  0
  -27.5350  -32.5890   25.7900 C   0  0  0  0  0  1  0  0  0  0  0  0
  -25.5480  -33.9490   24.1820 N   0  0  0  0  0  0  0  0  0  0  0  0
  -25.8710  -35.0080   23.4270 C   0  0  0  0  0  0  0  0  0  0  0  0
  -26.5480  -34.9170   22.3990 O   0  0  0  0  0  0  0  0  0  0  0  0
  -24.9460  -34.0940   24.9790 H   0  0  0  0  0  0  0  0  0  0  0  0
  -24.1310  -36.7850   23.0610 C   0  0  0  0  0  1  0  0  0  0  0  0
  -25.3650  -36.3880   23.8880 C   0  0  0  0  0  3  0  0  0  0  0  0
  -27.4770  -37.2910   24.7540 C   0  0  0  0  0  1  0  0  0  0  0  0
  -26.3880  -37.4530   23.7940 N   0  0  0  0  0  0  0  0  0  0  0  0
  -25.9700  -38.3680   23.9390 H   0  0  0  0  0  0  0  0  0  0  0  0
  2  8  1  0
  2  1  1  0
  3 50  1  0
  3  2  1  0
  3  1  1  0
  4  6  2  0
  4  5  1  0
  5  8  2  0
  6  9  1  0
  8  7  1  0
  9 18  1  0
  9  7  2  0
 10 18  1  0
 11 16  1  0
 12 13  1  0
 12 11  1  0
 14 13  1  0
 14 23  1  0
 14 15  1  0
 16 10  1  0
 16 15  1  0
 17 10  2  0
 18 19  1  0
 20 21  2  0
 21 40  1  0
 22 21  1  0
 22 25  1  0
 23 20  1  0
 23 24  1  0
 24 22  2  0
 25 26  1  0
 26 27  2  0
 28 31  1  0
 28 27  1  0
 29 28  2  0
 30 29  1  0
 30 25  2  0
 31 32  1  0
 32 33  1  0
 33 34  2  0
 35 34  1  0
 35 39  1  0
 36 35  2  0
 37 32  2  0
 37 36  1  0
 38 37  1  0
 40 41  1  0
 41 44  1  0
 41 43  1  0
 42 40  2  0
 45 46  1  0
 45 20  1  0
 47 45  1  0
 48 52  1  0
 48 50  1  0
 50 49  1  0
 51 48  2  0
 53 52  1  0
 54 65  2  0
 55 53  1  0
 55 60  1  0
 56 64  1  0
 56 66  1  0
 57 63  1  0
 57 59  1  0
 58 64  1  0
 59 58  1  0
 60 59  2  0
 61 55  2  0
 62 61  1  0
 62 57  2  0
 63 56  1  0
 64 54  1  0
 66 68  2  0
 67 66  1  0
 69 67  1  0
 70 79  2  0
 70 75  1  0
 71 67  1  0
 71 75  1  0
 72 71  1  0
 73 74  1  0
 73 72  1  0
 74 70  1  0
 75 76  2  0
 76 77  1  0
 78 77  2  0
 79 78  1  0
 80 54  1  0
 80 85  1  0
 80 81  1  0
 81 84  1  1
 81 82  1  0
 83 81  1  0
 85 88  1  0
 86 90  1  0
 86 85  1  0
 87 86  2  0
 90 89  1  0
 92 90  1  0
 92 93  1  0
 92 91  1  0
M  ISO  4  10 100  18 100  52 101  53 101
M  END
>  <TORSDO>  (70) 
F 19

>  <SCORE>  (70) 
-14.205

>  <name>  (70) 
69

>  <ligand_id>  (70) 
69

>  <original_smiles>  (70) 
[H]c1c([H])c([H])c2c(c1[H])C([H])([H])C([H])([H])C([H])([H])C2([H])N([H])C(=O)C1([H])N(C(=O)C([H])(N([H])C(=O)C([H])(N([H])C([H])([H])[H])C([H])([H])[H])C(C([H])([H])[H])(C([H])([H])[H])C([H])([H])[H])C([H])([H])c2c([H])c(OC([H])([H])C(=O)N(C([H])([H])[H])C3([H])C([H])([H])C3([H])c3c([H])c([H])c([H])c(N([H])C(=O)N4C([H])([H])C([H])([H])C([H])([H])C([H])(n5nc(-c6c([H])c([H])c(Oc7c([H])c([H])c(F)c([H])c7F)c([H])c6[H])c(C(=O)N([H])[H])c5N([H])[H])C4([H])[H])c3[H])c([H])c([H])c2C1([H])[H]

>  <smiles>  (70) 
[H]c1c([H])c([H])c2c(c1[H])C([H])([H])C([H])([H])C([H])([H])C2([H])N([H])C(=O)C1([H])N(C(=O)C([H])(N([H])C(=O)C([H])(N([H])C([H])([H])[H])C([H])([H])[H])C(C([H])([H])[H])(C([H])([H])[H])C([H])([H])[H])C([H])([H])c2c([H])c(OC([H])([H])C(=O)N(C([H])([H])[H])C3([H])C([H])([H])C3([H])c3c([H])c([H])c([H])c(N([H])C(=O)N4C([H])([H])C([H])([H])C([H])([H])C([H])(n5nc(-c6c([H])c([H])c(Oc7c([H])c([H])c(F)c([H])c7F)c([H])c6[H])c(C(=O)N([H])[H])c5N([H])[H])C4([H])[H])c3[H])c([H])c([H])c2C1([H])[H]

$$$$
70:0:0
     RDKit          3D

 97105  0  0  1  0  0  0  0  0999 V2000
  -28.8720  -21.0040   21.1520 C   0  0  0  0  0  3  0  0  0  0  0  0
  -29.1370  -19.7490   21.7590 C   0  0  0  0  0  3  0  0  0  0  0  0
  -29.8890  -20.1630   19.1180 C   0  0  0  0  0  3  0  0  0  0  0  0
  -30.0880  -18.8340   19.6880 C   0  0  0  0  0  0  0  0  0  0  0  0
  -29.2680  -21.2870   19.8210 C   0  0  0  0  0  0  0  0  0  0  0  0
  -29.7280  -18.6790   21.0450 C   0  0  0  0  0  0  0  0  0  0  0  0
  -30.0230  -17.5200   21.6870 F   0  0  0  0  0  0  0  0  0  0  0  0
  -28.6110  -23.8730   19.7330 C   0  0  0  0  0  0  0  0  0  0  0  0
  -28.9690  -22.6240   19.1930 N   0  0  0  0  0  0  0  0  0  0  0  0
  -28.8890  -24.1130   20.9120 O   0  0  0  0  0  0  0  0  0  0  0  0
  -28.9810  -22.6050   18.1800 H   0  0  0  0  0  0  0  0  0  0  0  0
  -27.7840  -25.0180   18.9120 C   0  0  0  0  0  2  0  0  0  0  0  0
  -28.0040  -26.5300   19.0750 O   0  0  0  0  0  0  0  0  0  0  0  0
  -24.5970  -31.5710   22.9800 C   0  0  0  0  0  0  0  0  0  0  0  0
  -26.9160  -27.4570   19.1340 C   0  0  0  0  0  0  0  0  0  0  0  0
  -23.2280  -30.3270   21.3560 C   0  0  0  0  0  3  0  0  0  0  0  0
  -24.5220  -29.0360   19.5550 C   0  0  0  0  0  0  0  0  0  0  0  0
  -25.7130  -30.7700   20.8830 C   0  0  0  0  0  2  0  0  0  0  0  0
  -25.7480  -29.4820   20.0590 C   0  0  0  0  0  0  0  0  0  0  0  0
  -26.9450  -28.7200   19.8320 C   0  0  0  0  0  3  0  0  0  0  0  0
  -25.6740  -27.1310   18.5460 C   0  0  0  0  0  3  0  0  0  0  0  0
  -24.4980  -27.8750   18.7590 C   0  0  0  0  0  3  0  0  0  0  0  0
  -23.2760  -29.8490   19.8790 C   0  0  0  0  0  2  0  0  0  0  0  0
  -24.5400  -30.9080   21.7930 N   0  0  0  0  0  0  0  0  0  0  0  0
  -23.5910  -31.7290   23.6840 O   0  0  0  0  0  0  0  0  0  0  0  0
  -22.7410  -29.1660   22.2580 C   0  0  0  0  0  0  0  0  0  0  0  0
  -21.4580  -28.7900   22.1150 N   0  0  0  0  0  0  0  0  0  0  0  0
  -23.5180  -28.6090   23.0390 O   0  0  0  0  0  0  0  0  0  0  0  0
  -20.8660  -29.3200   21.4890 H   0  0  0  0  0  0  0  0  0  0  0  0
  -18.4130  -26.8570   22.3290 C   0  0  0  0  0  0  0  0  0  0  0  0
  -20.8070  -27.6900   22.8350 C   0  0  0  0  0  3  0  0  0  0  0  0
  -21.2820  -26.3100   22.3290 C   0  0  0  0  0  2  0  0  0  0  0  0
  -20.3910  -25.7420   21.2130 C   0  0  0  0  0  2  0  0  0  0  0  0
  -18.9500  -25.5850   21.6980 C   0  0  0  0  0  2  0  0  0  0  0  0
  -19.2840  -27.8540   22.8450 C   0  0  0  0  0  0  0  0  0  0  0  0
  -18.7380  -29.0390   23.3770 C   0  0  0  0  0  3  0  0  0  0  0  0
  -17.3440  -29.2330   23.4120 C   0  0  0  0  0  3  0  0  0  0  0  0
  -16.4820  -28.2400   22.9180 C   0  0  0  0  0  3  0  0  0  0  0  0
  -17.0140  -27.0520   22.3830 C   0  0  0  0  0  3  0  0  0  0  0  0
  -25.9340  -32.1890   23.4950 C   0  0  0  0  0  3  0  0  0  0  0  0
  -25.6350  -33.5600   23.9420 N   0  0  0  0  0  0  0  0  0  0  0  0
  -25.9010  -34.6710   23.2410 C   0  0  0  0  0  0  0  0  0  0  0  0
  -26.4910  -34.6530   22.1610 O   0  0  0  0  0  0  0  0  0  0  0  0
  -25.0990  -33.6430   24.7920 H   0  0  0  0  0  0  0  0  0  0  0  0
  -24.1460  -36.4740   23.1590 C   0  0  0  0  0  1  0  0  0  0  0  0
  -25.4400  -36.0130   23.8450 C   0  0  0  0  0  3  0  0  0  0  0  0
  -27.6110  -36.8640   24.6070 C   0  0  0  0  0  1  0  0  0  0  0  0
  -26.4520  -37.0820   23.7460 N   0  0  0  0  0  0  0  0  0  0  0  0
  -26.0460  -37.9820   23.9830 H   0  0  0  0  0  0  0  0  0  0  0  0
  -26.5930  -31.3520   24.6620 C   0  0  1  0  0  0  0  0  0  0  0  0
  -25.6180  -31.0050   25.8050 C   0  0  0  0  0  1  0  0  0  0  0  0
  -27.1840  -30.0290   24.1200 C   0  0  0  0  0  1  0  0  0  0  0  0
  -27.7680  -32.1490   25.2720 C   0  0  0  0  0  1  0  0  0  0  0  0
  -30.7740  -17.6150   18.8970 C   0  0  0  0  0  3  0  0  0  0  0  0
  -31.0660  -14.9600   18.8750 C   0  0  0  0  0  0  0  0  0  0  0  0
  -30.9560  -12.4750   18.5110 C   0  0  0  0  0  2  0  0  0  0  0  0
  -29.8710  -12.0850   17.4790 C   0  0  0  0  0  2  0  0  0  0  0  0
  -28.5100  -11.9140   18.1660 C   0  0  0  0  0  2  0  0  0  0  0  0
  -28.1680  -13.1100   19.0890 C   0  0  0  0  0  3  0  0  0  0  0  0
  -29.3540  -13.4560   20.0350 C   0  0  0  0  0  2  0  0  0  0  0  0
  -30.5290  -13.7240   19.1960 N   0  0  0  0  0  0  0  0  0  0  0  0
  -32.1300  -15.0060   18.2530 O   0  0  0  0  0  0  0  0  0  0  0  0
  -30.3790  -16.1400   19.1640 N   0  0  0  0  0  0  0  0  0  0  0  0
  -29.5260  -15.9920   19.6860 H   0  0  0  0  0  0  0  0  0  0  0  0
  -26.0290  -13.8440   20.3110 C   0  0  0  0  0  0  0  0  0  0  0  0
  -24.9720  -13.1420   20.8280 C   0  0  0  0  0  0  0  0  0  0  0  0
  -25.2690  -11.7660   20.5990 C   0  0  0  0  0  0  0  0  0  0  0  0
  -26.9080  -12.9020   19.8030 N   0  0  0  0  0  0  0  0  0  0  0  0
  -26.4670  -11.6410   20.0360 N   0  0  0  0  0  0  0  0  0  0  0  0
  -24.4580  -10.5620   20.8450 C   0  0  0  0  0  0  0  0  0  0  0  0
  -24.8510   -9.5840   21.7890 C   0  0  0  0  0  3  0  0  0  0  0  0
  -24.0480   -8.4440   22.0170 C   0  0  0  0  0  3  0  0  0  0  0  0
  -22.8370   -8.2730   21.3050 C   0  0  0  0  0  0  0  0  0  0  0  0
  -22.4670   -9.2290   20.3420 C   0  0  0  0  0  3  0  0  0  0  0  0
  -23.2700  -10.3620   20.1130 C   0  0  0  0  0  3  0  0  0  0  0  0
  -22.0090   -7.1840   21.4420 O   0  0  0  0  0  0  0  0  0  0  0  0
  -21.7590   -6.6200   22.6660 C   0  0  0  0  0  0  0  0  0  0  0  0
  -21.1690   -7.3560   23.7180 C   0  0  0  0  0  3  0  0  0  0  0  0
  -20.8670   -6.7200   24.9380 C   0  0  0  0  0  3  0  0  0  0  0  0
  -21.1450   -5.3510   25.1070 C   0  0  0  0  0  0  0  0  0  0  0  0
  -21.7210   -4.6150   24.0570 C   0  0  0  0  0  3  0  0  0  0  0  0
  -22.0270   -5.2470   22.8400 C   0  0  0  0  0  0  0  0  0  0  0  0
  -22.5690   -4.5320   21.8250 F   0  0  0  0  0  0  0  0  0  0  0  0
  -20.8420   -4.7340   26.2740 F   0  0  0  0  0  0  0  0  0  0  0  0
  -23.7130  -13.7230   21.4030 C   0  0  0  0  0  0  0  0  0  0  0  0
  -23.1050  -13.0460   22.3730 N   0  0  0  0  0  0  0  0  0  0  0  0
  -23.2790  -14.8090   21.0230 O   0  0  0  0  0  0  0  0  0  0  0  0
  -23.4730  -12.1720   22.7220 H   0  0  0  0  0  0  0  0  0  0  0  0
  -22.2550  -13.4200   22.7760 H   0  0  0  0  0  0  0  0  0  0  0  0
  -26.3060  -15.2030   20.2140 N   0  0  0  0  0  0  0  0  0  0  0  0
  -25.6550  -15.9030   20.5460 H   0  0  0  0  0  0  0  0  0  0  0  0
  -27.1270  -15.5950   19.7710 H   0  0  0  0  0  0  0  0  0  0  0  0
  -32.3450  -17.7620   18.8690 C   0  0  0  0  0  2  0  0  0  0  0  0
  -32.8680  -19.1400   19.0390 N   0  0  0  0  0  4  0  0  0  0  0  0
  -32.7590  -19.4200   19.9940 H   0  0  0  0  0  0  0  0  0  0  0  0
  -32.3820  -19.7910   18.4490 H   0  0  0  0  0  0  0  0  0  0  0  0
  -33.8490  -19.2040   18.8150 H   0  0  0  0  0  0  0  0  0  0  0  0
  1  2  1  0
  3  4  2  0
  3  5  1  0
  4  6  1  0
  5  1  2  0
  6  7  1  0
  6  2  2  0
  8 10  2  0
  9  8  1  0
  9  5  1  0
 11  9  1  0
 12 13  1  0
 12  8  1  0
 13 15  1  0
 14 25  2  0
 15 20  1  0
 16 24  1  0
 16 26  1  0
 17 23  1  0
 17 19  1  0
 18 24  1  0
 19 18  1  0
 20 19  2  0
 21 22  1  0
 21 15  2  0
 22 17  2  0
 23 16  1  0
 24 14  1  0
 26 28  2  0
 27 26  1  0
 29 27  1  0
 30 39  2  0
 30 35  1  0
 31 27  1  0
 31 35  1  0
 32 31  1  0
 33 34  1  0
 33 32  1  0
 34 30  1  0
 35 36  2  0
 36 37  1  0
 38 37  2  0
 39 38  1  0
 40 14  1  0
 40 41  1  0
 40 50  1  0
 41 44  1  0
 42 46  1  0
 42 41  1  0
 43 42  2  0
 46 45  1  0
 48 46  1  0
 48 49  1  0
 48 47  1  0
 50 53  1  1
 50 51  1  0
 52 50  1  0
 54 93  1  0
 54 63  1  0
 54  4  1  0
 55 63  1  0
 55 61  1  0
 56 61  1  0
 57 58  1  0
 57 56  1  0
 59 58  1  0
 59 68  1  0
 59 60  1  0
 61 60  1  0
 62 55  2  0
 63 64  1  0
 65 66  2  0
 66 85  1  0
 67 66  1  0
 67 70  1  0
 68 69  1  0
 68 65  1  0
 69 67  2  0
 70 71  1  0
 71 72  2  0
 73 76  1  0
 73 72  1  0
 74 73  2  0
 75 74  1  0
 75 70  2  0
 76 77  1  0
 77 82  2  0
 77 78  1  0
 78 79  2  0
 79 80  1  0
 80 84  1  0
 81 80  2  0
 82 81  1  0
 83 82  1  0
 85 86  1  0
 86 88  1  0
 86 89  1  0
 87 85  2  0
 90 65  1  0
 90 91  1  0
 92 90  1  0
 93 94  1  0
 94 95  1  0
 96 94  1  0
 97 94  1  0
M  ISO  4  12 101  13 101  55 100  63 100
M  END
>  <TORSDO>  (71) 
F 21

>  <SCORE>  (71) 
-10.327

>  <name>  (71) 
70

>  <ligand_id>  (71) 
70

>  <original_smiles>  (71) 
[H]c1c([H])c([H])c2c(c1[H])C([H])([H])C([H])([H])C([H])([H])C2([H])N([H])C(=O)C1([H])N(C(=O)C([H])(N([H])C(=O)C([H])(N([H])C([H])([H])[H])C([H])([H])[H])C(C([H])([H])[H])(C([H])([H])[H])C([H])([H])[H])C([H])([H])c2c([H])c(OC([H])([H])C(=O)N([H])c3c([H])c([H])c(F)c(C([H])(N([H])C(=O)N4C([H])([H])C([H])([H])C([H])([H])C([H])(n5nc(-c6c([H])c([H])c(Oc7c([H])c([H])c(F)c([H])c7F)c([H])c6[H])c(C(=O)N([H])[H])c5N([H])[H])C4([H])[H])C([H])([H])[N+]([H])([H])[H])c3[H])c([H])c([H])c2C1([H])[H]

>  <smiles>  (71) 
[H]c1c([H])c([H])c2c(c1[H])C([H])([H])C([H])([H])C([H])([H])C2([H])N([H])C(=O)C1([H])N(C(=O)C([H])(N([H])C(=O)C([H])(N([H])C([H])([H])[H])C([H])([H])[H])C(C([H])([H])[H])(C([H])([H])[H])C([H])([H])[H])C([H])([H])c2c([H])c(OC([H])([H])C(=O)N([H])c3c([H])c([H])c(F)c(C([H])(N([H])C(=O)N4C([H])([H])C([H])([H])C([H])([H])C([H])(n5nc(-c6c([H])c([H])c(Oc7c([H])c([H])c(F)c([H])c7F)c([H])c6[H])c(C(=O)N([H])[H])c5N([H])[H])C4([H])[H])C([H])([H])[N+]([H])([H])[H])c3[H])c([H])c([H])c2C1([H])[H]

$$$$
71:0:0
     RDKit          3D

 94102  0  0  1  0  0  0  0  0999 V2000
  -30.6680  -18.4760   20.4520 C   0  0  0  0  0  3  0  0  0  0  0  0
  -30.3640  -19.9070   20.3670 C   0  0  0  0  0  3  0  0  0  0  0  0
  -28.5280  -18.0040   19.5970 C   0  0  0  0  0  3  0  0  0  0  0  0
  -28.2110  -19.4150   19.4940 C   0  0  0  0  0  0  0  0  0  0  0  0
  -29.7400  -17.4360   20.0920 C   0  0  0  0  0  0  0  0  0  0  0  0
  -29.1160  -20.4680   19.9080 C   0  0  0  0  0  0  0  0  0  0  0  0
  -30.7010  -14.8310   19.9940 C   0  0  0  0  0  0  0  0  0  0  0  0
  -30.5860  -12.4630   19.1020 C   0  0  0  0  0  2  0  0  0  0  0  0
  -29.5910  -12.4140   17.9170 C   0  0  0  0  0  2  0  0  0  0  0  0
  -28.1460  -12.2130   18.4150 C   0  0  0  0  0  2  0  0  0  0  0  0
  -27.7940  -13.1530   19.5980 C   0  0  0  0  0  3  0  0  0  0  0  0
  -28.9000  -13.1520   20.6760 C   0  0  0  0  0  2  0  0  0  0  0  0
  -30.1530  -13.5530   20.0150 N   0  0  0  0  0  0  0  0  0  0  0  0
  -31.8720  -14.9630   19.6210 O   0  0  0  0  0  0  0  0  0  0  0  0
  -29.8240  -15.9140   20.2200 N   0  0  0  0  0  0  0  0  0  0  0  0
  -28.9300  -15.5230   20.4740 H   0  0  0  0  0  0  0  0  0  0  0  0
  -25.4670  -13.7570   20.4860 C   0  0  0  0  0  0  0  0  0  0  0  0
  -24.4110  -12.9910   20.8980 C   0  0  0  0  0  0  0  0  0  0  0  0
  -24.8450  -11.6330   20.7970 C   0  0  0  0  0  0  0  0  0  0  0  0
  -26.4770  -12.8680   20.1580 N   0  0  0  0  0  0  0  0  0  0  0  0
  -26.1150  -11.5830   20.4090 N   0  0  0  0  0  0  0  0  0  0  0  0
  -24.1050  -10.3790   20.9870 C   0  0  0  0  0  0  0  0  0  0  0  0
  -24.5590   -9.3830   21.8790 C   0  0  0  0  0  3  0  0  0  0  0  0
  -23.8190   -8.1930   22.0600 C   0  0  0  0  0  3  0  0  0  0  0  0
  -22.6120   -7.9930   21.3500 C   0  0  0  0  0  0  0  0  0  0  0  0
  -22.1770   -8.9790   20.4460 C   0  0  0  0  0  3  0  0  0  0  0  0
  -22.9160  -10.1580   20.2640 C   0  0  0  0  0  3  0  0  0  0  0  0
  -21.8420   -6.8590   21.4440 O   0  0  0  0  0  0  0  0  0  0  0  0
  -21.7960   -6.1130   22.5940 C   0  0  0  0  0  0  0  0  0  0  0  0
  -21.4030   -6.6710   23.8310 C   0  0  0  0  0  3  0  0  0  0  0  0
  -21.3040   -5.8520   24.9730 C   0  0  0  0  0  3  0  0  0  0  0  0
  -21.5880   -4.4760   24.8800 C   0  0  0  0  0  0  0  0  0  0  0  0
  -21.9730   -3.9180   23.6490 C   0  0  0  0  0  3  0  0  0  0  0  0
  -22.0750   -4.7340   22.5090 C   0  0  0  0  0  0  0  0  0  0  0  0
  -22.4270   -4.1860   21.3210 F   0  0  0  0  0  0  0  0  0  0  0  0
  -21.4840   -3.6870   25.9760 F   0  0  0  0  0  0  0  0  0  0  0  0
  -23.0410  -13.4840   21.2630 C   0  0  0  0  0  0  0  0  0  0  0  0
  -22.3540  -12.7820   22.1580 N   0  0  0  0  0  0  0  0  0  0  0  0
  -22.5890  -14.5260   20.7880 O   0  0  0  0  0  0  0  0  0  0  0  0
  -22.7330  -11.9380   22.5630 H   0  0  0  0  0  0  0  0  0  0  0  0
  -21.4380  -13.0950   22.4450 H   0  0  0  0  0  0  0  0  0  0  0  0
  -25.6450  -15.1300   20.3360 N   0  0  0  0  0  0  0  0  0  0  0  0
  -24.8790  -15.7790   20.4760 H   0  0  0  0  0  0  0  0  0  0  0  0
  -26.4210  -15.5370   19.8360 H   0  0  0  0  0  0  0  0  0  0  0  0
  -26.8660  -19.7460   18.9040 C   0  0  0  0  0  0  0  0  0  0  0  0
  -25.8490  -18.9940   19.3130 N   0  0  0  0  0  0  0  0  0  0  0  0
  -26.7090  -20.6550   18.0890 O   0  0  0  0  0  0  0  0  0  0  0  0
  -25.9940  -18.2690   19.9980 H   0  0  0  0  0  0  0  0  0  0  0  0
  -24.9190  -19.1640   18.9570 H   0  0  0  0  0  0  0  0  0  0  0  0
  -27.9810  -22.0140   21.3590 C   0  0  0  0  0  1  0  0  0  0  0  0
  -28.6660  -21.8830   20.0730 N   0  0  0  0  0  0  0  0  0  0  0  0
  -29.0560  -23.2610   19.4670 C   0  0  0  0  0  3  0  0  0  0  0  0
  -27.9990  -24.5690   19.5510 C   0  0  0  0  0  3  0  0  0  0  0  0
  -28.2960  -26.0840   19.4020 O   0  0  0  0  0  0  0  0  0  0  0  0
  -24.8040  -31.4260   23.0780 C   0  0  0  0  0  0  0  0  0  0  0  0
  -27.2440  -27.0620   19.4900 C   0  0  0  0  0  0  0  0  0  0  0  0
  -23.5500  -30.2520   21.3100 C   0  0  0  0  0  3  0  0  0  0  0  0
  -24.9440  -28.8260   19.6940 C   0  0  0  0  0  0  0  0  0  0  0  0
  -26.1030  -30.4930   21.1330 C   0  0  0  0  0  2  0  0  0  0  0  0
  -26.1410  -29.1830   20.3300 C   0  0  0  0  0  0  0  0  0  0  0  0
  -27.2920  -28.3200   20.2110 C   0  0  0  0  0  3  0  0  0  0  0  0
  -26.0230  -26.8110   18.8230 C   0  0  0  0  0  3  0  0  0  0  0  0
  -24.8980  -27.6530   18.9270 C   0  0  0  0  0  3  0  0  0  0  0  0
  -23.7360  -29.7330   19.8600 C   0  0  0  0  0  2  0  0  0  0  0  0
  -24.8400  -30.7380   21.8970 N   0  0  0  0  0  0  0  0  0  0  0  0
  -23.7320  -31.6690   23.6540 O   0  0  0  0  0  0  0  0  0  0  0  0
  -22.8650  -29.1540   22.1620 C   0  0  0  0  0  0  0  0  0  0  0  0
  -21.5300  -29.0390   22.0550 N   0  0  0  0  0  0  0  0  0  0  0  0
  -23.5380  -28.4100   22.8820 O   0  0  0  0  0  0  0  0  0  0  0  0
  -21.0450  -29.6900   21.4540 H   0  0  0  0  0  0  0  0  0  0  0  0
  -18.1210  -27.9100   22.5320 C   0  0  0  0  0  0  0  0  0  0  0  0
  -20.6970  -28.0400   22.7310 C   0  0  0  0  0  3  0  0  0  0  0  0
  -20.7190  -26.6930   21.9720 C   0  0  0  0  0  2  0  0  0  0  0  0
  -19.5690  -26.5440   20.9690 C   0  0  0  0  0  2  0  0  0  0  0  0
  -18.2180  -26.6540   21.6820 C   0  0  0  0  0  2  0  0  0  0  0  0
  -19.2840  -28.5680   23.0120 C   0  0  0  0  0  0  0  0  0  0  0  0
  -19.1380  -29.7490   23.7720 C   0  0  0  0  0  3  0  0  0  0  0  0
  -17.8610  -30.2690   24.0550 C   0  0  0  0  0  3  0  0  0  0  0  0
  -16.7120  -29.6060   23.5900 C   0  0  0  0  0  3  0  0  0  0  0  0
  -16.8440  -28.4270   22.8340 C   0  0  0  0  0  3  0  0  0  0  0  0
  -26.1050  -31.9600   23.7510 C   0  0  0  0  0  3  0  0  0  0  0  0
  -26.6380  -31.0180   24.9010 C   0  0  1  0  0  0  0  0  0  0  0  0
  -25.5680  -30.6570   25.9580 C   0  0  0  0  0  1  0  0  0  0  0  0
  -27.1860  -29.6950   24.3170 C   0  0  0  0  0  1  0  0  0  0  0  0
  -27.8190  -31.6990   25.6300 C   0  0  0  0  0  1  0  0  0  0  0  0
  -25.8170  -33.3020   24.2810 N   0  0  0  0  0  0  0  0  0  0  0  0
  -26.1480  -34.4490   23.6740 C   0  0  0  0  0  0  0  0  0  0  0  0
  -26.7940  -34.4870   22.6240 O   0  0  0  0  0  0  0  0  0  0  0  0
  -25.2410  -33.3460   25.1090 H   0  0  0  0  0  0  0  0  0  0  0  0
  -24.4410  -36.2990   23.6160 C   0  0  0  0  0  1  0  0  0  0  0  0
  -25.6900  -35.7650   24.3360 C   0  0  0  0  0  3  0  0  0  0  0  0
  -27.8530  -36.4960   25.2430 C   0  0  0  0  0  1  0  0  0  0  0  0
  -26.7370  -36.8100   24.3540 N   0  0  0  0  0  0  0  0  0  0  0  0
  -26.3480  -37.7050   24.6380 H   0  0  0  0  0  0  0  0  0  0  0  0
  2  1  1  0
  3  5  1  0
  4  3  2  0
  4  6  1  0
  5 15  1  0
  5  1  2  0
  6 51  1  0
  6  2  2  0
  7 13  1  0
  7 15  1  0
  8 13  1  0
  9 10  1  0
  9  8  1  0
 11 10  1  0
 11 20  1  0
 11 12  1  0
 13 12  1  0
 14  7  2  0
 15 16  1  0
 17 18  2  0
 18 37  1  0
 19 18  1  0
 19 22  1  0
 20 21  1  0
 20 17  1  0
 21 19  2  0
 22 23  1  0
 23 24  2  0
 25 28  1  0
 25 24  1  0
 26 25  2  0
 27 26  1  0
 27 22  2  0
 28 29  1  0
 29 30  1  0
 30 31  2  0
 32 31  1  0
 32 36  1  0
 33 32  2  0
 34 29  2  0
 34 33  1  0
 35 34  1  0
 37 38  1  0
 38 41  1  0
 38 40  1  0
 39 37  2  0
 42 43  1  0
 42 17  1  0
 44 42  1  0
 45 46  1  0
 45  4  1  0
 46 48  1  0
 47 45  2  0
 49 46  1  0
 51 50  1  0
 52 53  2  0
 52 51  1  0
 54 56  1  0
 54 53  1  0
 55 66  2  0
 56 61  1  0
 57 65  1  0
 57 67  1  0
 58 64  1  0
 58 60  1  0
 59 65  1  0
 60 59  1  0
 61 60  2  0
 62 63  1  0
 62 56  2  0
 63 58  2  0
 64 57  1  0
 65 55  1  0
 67 69  2  0
 68 67  1  0
 70 68  1  0
 71 80  2  0
 71 76  1  0
 72 68  1  0
 72 76  1  0
 73 72  1  0
 74 75  1  0
 74 73  1  0
 75 71  1  0
 76 77  2  0
 77 78  1  0
 79 78  2  0
 80 79  1  0
 81 55  1  0
 81 86  1  0
 81 82  1  0
 82 85  1  1
 82 83  1  0
 84 82  1  0
 86 89  1  0
 87 86  1  0
 87 91  1  0
 88 87  2  0
 91 90  1  0
 91 93  1  0
 93 94  1  0
 93 92  1  0
M  ISO  4   7 100  15 100  53 101  54 101
M  END
>  <TORSDO>  (72) 
F 20

>  <SCORE>  (72) 
-12.694

>  <name>  (72) 
71

>  <ligand_id>  (72) 
71

>  <original_smiles>  (72) 
[H]c1c([H])c([H])c2c(c1[H])C([H])([H])C([H])([H])C([H])([H])C2([H])N([H])C(=O)C1([H])N(C(=O)C([H])(N([H])C(=O)C([H])(N([H])C([H])([H])[H])C([H])([H])[H])C(C([H])([H])[H])(C([H])([H])[H])C([H])([H])[H])C([H])([H])c2c([H])c(OC([H])([H])C([H])([H])N(c3c([H])c([H])c(N([H])C(=O)N4C([H])([H])C([H])([H])C([H])([H])C([H])(n5nc(-c6c([H])c([H])c(Oc7c([H])c([H])c(F)c([H])c7F)c([H])c6[H])c(C(=O)N([H])[H])c5N([H])[H])C4([H])[H])c([H])c3C(=O)N([H])[H])C([H])([H])[H])c([H])c([H])c2C1([H])[H]

>  <smiles>  (72) 
[H]c1c([H])c([H])c2c(c1[H])C([H])([H])C([H])([H])C([H])([H])C2([H])N([H])C(=O)C1([H])N(C(=O)C([H])(N([H])C(=O)C([H])(N([H])C([H])([H])[H])C([H])([H])[H])C(C([H])([H])[H])(C([H])([H])[H])C([H])([H])[H])C([H])([H])c2c([H])c(OC([H])([H])C([H])([H])N(c3c([H])c([H])c(N([H])C(=O)N4C([H])([H])C([H])([H])C([H])([H])C([H])(n5nc(-c6c([H])c([H])c(Oc7c([H])c([H])c(F)c([H])c7F)c([H])c6[H])c(C(=O)N([H])[H])c5N([H])[H])C4([H])[H])c([H])c3C(=O)N([H])[H])C([H])([H])[H])c([H])c([H])c2C1([H])[H]

$$$$
72:0:0
     RDKit          3D

 93101  0  0  1  0  0  0  0  0999 V2000
  -30.5810  -22.2210   20.3360 C   0  0  0  0  0  2  0  0  0  0  0  0
  -30.0130  -18.4370   19.8600 C   0  0  0  0  0  3  0  0  0  0  0  0
  -30.3170  -18.8860   22.2330 C   0  0  0  0  0  3  0  0  0  0  0  0
  -30.0390  -19.8270   19.5960 C   0  0  0  0  0  3  0  0  0  0  0  0
  -30.3400  -20.2740   21.9710 C   0  0  0  0  0  3  0  0  0  0  0  0
  -30.2240  -17.9500   21.1750 C   0  0  0  0  0  0  0  0  0  0  0  0
  -30.2690  -20.7520   20.6420 C   0  0  0  0  0  0  0  0  0  0  0  0
  -30.6930  -14.4830   20.1960 C   0  0  0  0  0  0  0  0  0  0  0  0
  -30.2870  -12.4060   18.9200 C   0  0  0  0  0  2  0  0  0  0  0  0
  -29.2760  -12.6570   17.7860 C   0  0  0  0  0  2  0  0  0  0  0  0
  -27.8240  -12.5210   18.2950 C   0  0  0  0  0  2  0  0  0  0  0  0
  -27.5700  -13.2930   19.6200 C   0  0  0  0  0  3  0  0  0  0  0  0
  -28.6910  -13.0190   20.6460 C   0  0  0  0  0  2  0  0  0  0  0  0
  -29.9630  -13.3530   19.9930 N   0  0  0  0  0  0  0  0  0  0  0  0
  -31.8370  -14.6110   19.7510 O   0  0  0  0  0  0  0  0  0  0  0  0
  -30.5920  -16.5050   21.4300 C   0  0  0  0  0  0  0  0  0  0  0  0
  -30.0210  -15.5430   20.6860 N   0  0  0  0  0  0  0  0  0  0  0  0
  -31.4120  -16.2500   22.3210 O   0  0  0  0  0  0  0  0  0  0  0  0
  -29.0980  -15.7070   20.3220 H   0  0  0  0  0  0  0  0  0  0  0  0
  -25.2180  -13.8770   20.4770 C   0  0  0  0  0  0  0  0  0  0  0  0
  -24.1710  -13.0950   20.8770 C   0  0  0  0  0  0  0  0  0  0  0  0
  -24.6290  -11.7440   20.7900 C   0  0  0  0  0  0  0  0  0  0  0  0
  -26.2480  -13.0030   20.1690 N   0  0  0  0  0  0  0  0  0  0  0  0
  -25.9000  -11.7130   20.4110 N   0  0  0  0  0  0  0  0  0  0  0  0
  -23.9120  -10.4780   20.9830 C   0  0  0  0  0  0  0  0  0  0  0  0
  -24.3620   -9.5110   21.9070 C   0  0  0  0  0  3  0  0  0  0  0  0
  -23.6480   -8.3060   22.0900 C   0  0  0  0  0  3  0  0  0  0  0  0
  -22.4700   -8.0620   21.3460 C   0  0  0  0  0  0  0  0  0  0  0  0
  -22.0370   -9.0190   20.4110 C   0  0  0  0  0  3  0  0  0  0  0  0
  -22.7510  -10.2140   20.2280 C   0  0  0  0  0  3  0  0  0  0  0  0
  -21.7220   -6.9120   21.4380 O   0  0  0  0  0  0  0  0  0  0  0  0
  -21.6490   -6.1900   22.6020 C   0  0  0  0  0  0  0  0  0  0  0  0
  -21.1700   -6.7590   23.8020 C   0  0  0  0  0  3  0  0  0  0  0  0
  -21.0480   -5.9640   24.9580 C   0  0  0  0  0  3  0  0  0  0  0  0
  -21.3910   -4.5990   24.9160 C   0  0  0  0  0  0  0  0  0  0  0  0
  -21.8640   -4.0290   23.7210 C   0  0  0  0  0  3  0  0  0  0  0  0
  -21.9880   -4.8230   22.5670 C   0  0  0  0  0  0  0  0  0  0  0  0
  -22.4210   -4.2640   21.4120 F   0  0  0  0  0  0  0  0  0  0  0  0
  -21.2670   -3.8340   26.0240 F   0  0  0  0  0  0  0  0  0  0  0  0
  -22.7900  -13.5620   21.2360 C   0  0  0  0  0  0  0  0  0  0  0  0
  -22.1100  -12.8420   22.1190 N   0  0  0  0  0  0  0  0  0  0  0  0
  -22.3300  -14.6050   20.7710 O   0  0  0  0  0  0  0  0  0  0  0  0
  -22.5040  -12.0040   22.5240 H   0  0  0  0  0  0  0  0  0  0  0  0
  -21.1810  -13.1300   22.3950 H   0  0  0  0  0  0  0  0  0  0  0  0
  -25.3780  -15.2530   20.3280 N   0  0  0  0  0  0  0  0  0  0  0  0
  -24.6220  -15.9090   20.4900 H   0  0  0  0  0  0  0  0  0  0  0  0
  -26.2030  -15.6970   19.9450 H   0  0  0  0  0  0  0  0  0  0  0  0
  -29.5300  -24.4670   20.2280 C   0  0  0  0  0  0  0  0  0  0  0  0
  -29.4410  -23.1350   20.4000 N   0  0  0  0  0  0  0  0  0  0  0  0
  -30.6130  -25.0500   20.1120 O   0  0  0  0  0  0  0  0  0  0  0  0
  -28.5240  -22.7260   20.5200 H   0  0  0  0  0  0  0  0  0  0  0  0
  -28.2060  -25.2420   20.1180 C   0  0  0  0  0  2  0  0  0  0  0  0
  -28.3820  -26.6750   20.1790 O   0  0  0  0  0  0  0  0  0  0  0  0
  -24.5830  -31.8790   23.2340 C   0  0  0  0  0  0  0  0  0  0  0  0
  -27.2190  -27.4280   20.1470 C   0  0  0  0  0  0  0  0  0  0  0  0
  -23.3800  -30.4900   21.5820 C   0  0  0  0  0  3  0  0  0  0  0  0
  -24.8340  -28.9610   20.1530 C   0  0  0  0  0  0  0  0  0  0  0  0
  -25.9120  -30.8360   21.4010 C   0  0  0  0  0  2  0  0  0  0  0  0
  -25.9940  -29.4720   20.7460 C   0  0  0  0  0  0  0  0  0  0  0  0
  -27.1910  -28.7160   20.7340 C   0  0  0  0  0  3  0  0  0  0  0  0
  -26.0320  -26.9410   19.5420 C   0  0  0  0  0  3  0  0  0  0  0  0
  -24.8480  -27.6970   19.5470 C   0  0  0  0  0  3  0  0  0  0  0  0
  -23.5950  -29.8230   20.1990 C   0  0  0  0  0  2  0  0  0  0  0  0
  -24.6420  -31.0840   22.1280 N   0  0  0  0  0  0  0  0  0  0  0  0
  -23.5000  -32.1550   23.7700 O   0  0  0  0  0  0  0  0  0  0  0  0
  -22.7230  -29.4620   22.5320 C   0  0  0  0  0  0  0  0  0  0  0  0
  -21.4010  -29.2800   22.3940 N   0  0  0  0  0  0  0  0  0  0  0  0
  -23.4010  -28.8320   23.3480 O   0  0  0  0  0  0  0  0  0  0  0  0
  -20.9170  -29.8390   21.7040 H   0  0  0  0  0  0  0  0  0  0  0  0
  -18.0180  -28.0950   22.8690 C   0  0  0  0  0  0  0  0  0  0  0  0
  -20.5750  -28.3410   23.1540 C   0  0  0  0  0  3  0  0  0  0  0  0
  -20.6750  -26.9140   22.5680 C   0  0  0  0  0  2  0  0  0  0  0  0
  -19.5750  -26.6000   21.5490 C   0  0  0  0  0  2  0  0  0  0  0  0
  -18.1900  -26.7480   22.1870 C   0  0  0  0  0  2  0  0  0  0  0  0
  -19.1370  -28.8510   23.3070 C   0  0  0  0  0  0  0  0  0  0  0  0
  -18.9220  -30.1140   23.9010 C   0  0  0  0  0  3  0  0  0  0  0  0
  -17.6200  -30.6180   24.0680 C   0  0  0  0  0  3  0  0  0  0  0  0
  -16.5140  -29.8600   23.6470 C   0  0  0  0  0  3  0  0  0  0  0  0
  -16.7140  -28.6010   23.0530 C   0  0  0  0  0  3  0  0  0  0  0  0
  -25.8680  -32.5020   23.8600 C   0  0  0  0  0  3  0  0  0  0  0  0
  -26.3890  -31.7150   25.1260 C   0  0  1  0  0  0  0  0  0  0  0  0
  -25.3010  -31.4620   26.1950 C   0  0  0  0  0  1  0  0  0  0  0  0
  -26.9770  -30.3430   24.7170 C   0  0  0  0  0  1  0  0  0  0  0  0
  -27.5350  -32.5080   25.7990 C   0  0  0  0  0  1  0  0  0  0  0  0
  -25.5650  -33.8980   24.2050 N   0  0  0  0  0  0  0  0  0  0  0  0
  -25.8720  -34.9530   23.4410 C   0  0  0  0  0  0  0  0  0  0  0  0
  -26.5180  -34.8570   22.3940 O   0  0  0  0  0  0  0  0  0  0  0  0
  -24.9990  -34.0510   25.0270 H   0  0  0  0  0  0  0  0  0  0  0  0
  -24.1180  -36.7320   23.1370 C   0  0  0  0  0  1  0  0  0  0  0  0
  -25.3860  -36.3370   23.9120 C   0  0  0  0  0  3  0  0  0  0  0  0
  -27.5320  -37.2440   24.6870 C   0  0  0  0  0  1  0  0  0  0  0  0
  -26.4050  -37.4000   23.7720 N   0  0  0  0  0  0  0  0  0  0  0  0
  -25.9930  -38.3160   23.9280 H   0  0  0  0  0  0  0  0  0  0  0  0
  1 49  1  0
  1  7  1  0
  2  6  1  0
  4  2  2  0
  4  7  1  0
  5  3  1  0
  6 16  1  0
  6  3  2  0
  7  5  2  0
  8 17  1  0
  9 14  1  0
 10 11  1  0
 10  9  1  0
 12 11  1  0
 12 23  1  0
 12 13  1  0
 14  8  1  0
 14 13  1  0
 15  8  2  0
 16 18  2  0
 17 16  1  0
 19 17  1  0
 20 21  2  0
 21 40  1  0
 22 21  1  0
 22 25  1  0
 23 24  1  0
 23 20  1  0
 24 22  2  0
 25 26  1  0
 26 27  2  0
 28 31  1  0
 28 27  1  0
 29 28  2  0
 30 29  1  0
 30 25  2  0
 31 32  1  0
 32 33  1  0
 33 34  2  0
 35 34  1  0
 35 39  1  0
 36 35  2  0
 37 32  2  0
 37 36  1  0
 38 37  1  0
 40 41  1  0
 41 44  1  0
 41 43  1  0
 42 40  2  0
 45 20  1  0
 45 46  1  0
 47 45  1  0
 48 49  1  0
 49 51  1  0
 50 48  2  0
 52 53  1  0
 52 48  1  0
 54 65  2  0
 55 53  1  0
 55 60  1  0
 56 64  1  0
 56 66  1  0
 57 63  1  0
 57 59  1  0
 58 64  1  0
 59 58  1  0
 60 59  2  0
 61 62  1  0
 61 55  2  0
 62 57  2  0
 63 56  1  0
 64 54  1  0
 66 68  2  0
 67 66  1  0
 69 67  1  0
 70 79  2  0
 70 75  1  0
 71 67  1  0
 71 75  1  0
 72 71  1  0
 73 74  1  0
 73 72  1  0
 74 70  1  0
 75 76  2  0
 76 77  1  0
 78 77  2  0
 79 78  1  0
 80 54  1  0
 80 85  1  0
 80 81  1  0
 81 84  1  1
 81 82  1  0
 83 81  1  0
 85 88  1  0
 86 90  1  0
 86 85  1  0
 87 86  2  0
 90 89  1  0
 92 90  1  0
 92 93  1  0
 92 91  1  0
M  ISO  4   8 100  17 100  52 101  53 101
M  END
>  <TORSDO>  (73) 
F 19

>  <SCORE>  (73) 
-13.614

>  <name>  (73) 
72

>  <ligand_id>  (73) 
72

>  <original_smiles>  (73) 
[H]c1c([H])c([H])c2c(c1[H])C([H])([H])C([H])([H])C([H])([H])C2([H])N([H])C(=O)C1([H])N(C(=O)C([H])(N([H])C(=O)C([H])(N([H])C([H])([H])[H])C([H])([H])[H])C(C([H])([H])[H])(C([H])([H])[H])C([H])([H])[H])C([H])([H])c2c([H])c(OC([H])([H])C(=O)N([H])C([H])([H])c3c([H])c([H])c(C(=O)N([H])C(=O)N4C([H])([H])C([H])([H])C([H])([H])C([H])(n5nc(-c6c([H])c([H])c(Oc7c([H])c([H])c(F)c([H])c7F)c([H])c6[H])c(C(=O)N([H])[H])c5N([H])[H])C4([H])[H])c([H])c3[H])c([H])c([H])c2C1([H])[H]

>  <smiles>  (73) 
[H]c1c([H])c([H])c2c(c1[H])C([H])([H])C([H])([H])C([H])([H])C2([H])N([H])C(=O)C1([H])N(C(=O)C([H])(N([H])C(=O)C([H])(N([H])C([H])([H])[H])C([H])([H])[H])C(C([H])([H])[H])(C([H])([H])[H])C([H])([H])[H])C([H])([H])c2c([H])c(OC([H])([H])C(=O)N([H])C([H])([H])c3c([H])c([H])c(C(=O)N([H])C(=O)N4C([H])([H])C([H])([H])C([H])([H])C([H])(n5nc(-c6c([H])c([H])c(Oc7c([H])c([H])c(F)c([H])c7F)c([H])c6[H])c(C(=O)N([H])[H])c5N([H])[H])C4([H])[H])c([H])c3[H])c([H])c([H])c2C1([H])[H]

$$$$
73:0:0
     RDKit          3D

 94102  0  0  1  0  0  0  0  0999 V2000
  -31.2270  -19.3010   19.8600 C   0  0  0  0  0  3  0  0  0  0  0  0
  -31.1800  -17.8790   19.9600 C   0  0  0  0  0  3  0  0  0  0  0  0
  -28.8650  -19.4460   20.2800 C   0  0  0  0  0  3  0  0  0  0  0  0
  -30.0820  -20.1300   20.0260 C   0  0  0  0  0  0  0  0  0  0  0  0
  -29.9720  -17.1970   20.2460 C   0  0  0  0  0  0  0  0  0  0  0  0
  -28.8170  -18.0190   20.3970 C   0  0  0  0  0  0  0  0  0  0  0  0
  -30.5870  -14.6740   19.9990 C   0  0  0  0  0  0  0  0  0  0  0  0
  -30.2850  -12.4510   18.9310 C   0  0  0  0  0  2  0  0  0  0  0  0
  -29.2730  -12.6070   17.7740 C   0  0  0  0  0  2  0  0  0  0  0  0
  -27.8260  -12.4660   18.2860 C   0  0  0  0  0  2  0  0  0  0  0  0
  -27.5510  -13.3140   19.5570 C   0  0  0  0  0  3  0  0  0  0  0  0
  -28.6730  -13.1300   20.6050 C   0  0  0  0  0  2  0  0  0  0  0  0
  -29.9490  -13.4620   19.9530 N   0  0  0  0  0  0  0  0  0  0  0  0
  -31.7360  -14.8030   19.5670 O   0  0  0  0  0  0  0  0  0  0  0  0
  -29.8180  -15.7450   20.3770 N   0  0  0  0  0  0  0  0  0  0  0  0
  -28.9000  -15.4850   20.7010 H   0  0  0  0  0  0  0  0  0  0  0  0
  -25.2140  -13.9310   20.4270 C   0  0  0  0  0  0  0  0  0  0  0  0
  -24.1570  -13.1650   20.8360 C   0  0  0  0  0  0  0  0  0  0  0  0
  -24.5960  -11.8090   20.7520 C   0  0  0  0  0  0  0  0  0  0  0  0
  -26.2300  -13.0420   20.1160 N   0  0  0  0  0  0  0  0  0  0  0  0
  -25.8670  -11.7580   20.3720 N   0  0  0  0  0  0  0  0  0  0  0  0
  -23.8620  -10.5530   20.9580 C   0  0  0  0  0  0  0  0  0  0  0  0
  -24.3150   -9.5730   21.8690 C   0  0  0  0  0  3  0  0  0  0  0  0
  -23.5810   -8.3820   22.0620 C   0  0  0  0  0  3  0  0  0  0  0  0
  -22.3800   -8.1650   21.3460 C   0  0  0  0  0  0  0  0  0  0  0  0
  -21.9460   -9.1330   20.4250 C   0  0  0  0  0  3  0  0  0  0  0  0
  -22.6800  -10.3150   20.2290 C   0  0  0  0  0  3  0  0  0  0  0  0
  -21.6160   -7.0280   21.4510 O   0  0  0  0  0  0  0  0  0  0  0  0
  -21.5770   -6.2900   22.6070 C   0  0  0  0  0  0  0  0  0  0  0  0
  -21.1460   -6.8440   23.8320 C   0  0  0  0  0  3  0  0  0  0  0  0
  -21.0570   -6.0320   24.9800 C   0  0  0  0  0  3  0  0  0  0  0  0
  -21.3890   -4.6660   24.9040 C   0  0  0  0  0  0  0  0  0  0  0  0
  -21.8130   -4.1110   23.6840 C   0  0  0  0  0  3  0  0  0  0  0  0
  -21.9040   -4.9210   22.5380 C   0  0  0  0  0  0  0  0  0  0  0  0
  -22.2930   -4.3750   21.3610 F   0  0  0  0  0  0  0  0  0  0  0  0
  -21.2950   -3.8830   26.0040 F   0  0  0  0  0  0  0  0  0  0  0  0
  -22.7850  -13.6560   21.1990 C   0  0  0  0  0  0  0  0  0  0  0  0
  -22.1000  -12.9540   22.0950 N   0  0  0  0  0  0  0  0  0  0  0  0
  -22.3320  -14.6980   20.7260 O   0  0  0  0  0  0  0  0  0  0  0  0
  -22.4810  -12.1110   22.4980 H   0  0  0  0  0  0  0  0  0  0  0  0
  -21.1820  -13.2640   22.3820 H   0  0  0  0  0  0  0  0  0  0  0  0
  -25.3890  -15.3040   20.2830 N   0  0  0  0  0  0  0  0  0  0  0  0
  -24.6510  -15.9600   20.5150 H   0  0  0  0  0  0  0  0  0  0  0  0
  -26.2720  -15.7700   20.1010 H   0  0  0  0  0  0  0  0  0  0  0  0
  -27.6000  -17.4090   20.7010 N   0  0  0  0  0  0  0  0  0  0  0  0
  -26.8390  -18.0470   20.9060 H   0  0  0  0  0  0  0  0  0  0  0  0
  -27.6470  -16.6990   21.4210 H   0  0  0  0  0  0  0  0  0  0  0  0
  -30.2710  -21.6950   20.0540 C   0  0  0  0  0  2  0  0  0  0  0  0
  -29.3010  -24.0520   19.9870 C   0  0  0  0  0  0  0  0  0  0  0  0
  -29.1700  -22.6900   19.8290 N   0  0  0  0  0  0  0  0  0  0  0  0
  -30.3480  -24.5320   20.4280 O   0  0  0  0  0  0  0  0  0  0  0  0
  -28.2980  -22.3400   19.4520 H   0  0  0  0  0  0  0  0  0  0  0  0
  -28.1320  -25.0330   19.5880 C   0  0  0  0  0  2  0  0  0  0  0  0
  -28.3320  -26.4770   19.8810 O   0  0  0  0  0  0  0  0  0  0  0  0
  -24.5070  -31.7100   23.0850 C   0  0  0  0  0  0  0  0  0  0  0  0
  -27.1970  -27.3080   19.8650 C   0  0  0  0  0  0  0  0  0  0  0  0
  -23.3250  -30.3480   21.4000 C   0  0  0  0  0  3  0  0  0  0  0  0
  -24.7990  -28.8760   19.9200 C   0  0  0  0  0  0  0  0  0  0  0  0
  -25.8590  -30.7170   21.2260 C   0  0  0  0  0  2  0  0  0  0  0  0
  -25.9620  -29.3640   20.5300 C   0  0  0  0  0  0  0  0  0  0  0  0
  -27.1640  -28.5930   20.4930 C   0  0  0  0  0  3  0  0  0  0  0  0
  -26.0050  -26.8750   19.2360 C   0  0  0  0  0  3  0  0  0  0  0  0
  -24.8220  -27.6360   19.2660 C   0  0  0  0  0  3  0  0  0  0  0  0
  -23.5490  -29.7260   19.9970 C   0  0  0  0  0  2  0  0  0  0  0  0
  -24.5820  -30.9410   21.9610 N   0  0  0  0  0  0  0  0  0  0  0  0
  -23.4200  -31.9490   23.6300 O   0  0  0  0  0  0  0  0  0  0  0  0
  -22.6820  -29.2870   22.3250 C   0  0  0  0  0  0  0  0  0  0  0  0
  -21.3580  -29.0950   22.1970 N   0  0  0  0  0  0  0  0  0  0  0  0
  -23.3740  -28.6420   23.1170 O   0  0  0  0  0  0  0  0  0  0  0  0
  -20.8570  -29.6700   21.5340 H   0  0  0  0  0  0  0  0  0  0  0  0
  -17.9980  -27.8460   22.6800 C   0  0  0  0  0  0  0  0  0  0  0  0
  -20.5560  -28.1200   22.9380 C   0  0  0  0  0  3  0  0  0  0  0  0
  -20.6670  -26.7120   22.3070 C   0  0  0  0  0  2  0  0  0  0  0  0
  -19.5580  -26.4180   21.2900 C   0  0  0  0  0  2  0  0  0  0  0  0
  -18.1810  -26.5260   21.9500 C   0  0  0  0  0  2  0  0  0  0  0  0
  -19.1130  -28.6020   23.1280 C   0  0  0  0  0  0  0  0  0  0  0  0
  -18.8870  -29.8390   23.7690 C   0  0  0  0  0  3  0  0  0  0  0  0
  -17.5790  -30.3200   23.9670 C   0  0  0  0  0  3  0  0  0  0  0  0
  -16.4780  -29.5620   23.5330 C   0  0  0  0  0  3  0  0  0  0  0  0
  -16.6890  -28.3260   22.8950 C   0  0  0  0  0  3  0  0  0  0  0  0
  -25.7800  -32.3430   23.7270 C   0  0  0  0  0  3  0  0  0  0  0  0
  -26.3060  -31.5440   24.9820 C   0  0  1  0  0  0  0  0  0  0  0  0
  -25.2160  -31.2630   26.0410 C   0  0  0  0  0  1  0  0  0  0  0  0
  -26.9080  -30.1870   24.5530 C   0  0  0  0  0  1  0  0  0  0  0  0
  -27.4440  -32.3370   25.6670 C   0  0  0  0  0  1  0  0  0  0  0  0
  -25.4480  -33.7270   24.0970 N   0  0  0  0  0  0  0  0  0  0  0  0
  -25.7600  -34.8060   23.3670 C   0  0  0  0  0  0  0  0  0  0  0  0
  -26.4280  -34.7430   22.3310 O   0  0  0  0  0  0  0  0  0  0  0  0
  -24.8560  -33.8490   24.9050 H   0  0  0  0  0  0  0  0  0  0  0  0
  -24.0050  -36.5820   23.0670 C   0  0  0  0  0  1  0  0  0  0  0  0
  -25.2530  -36.1730   23.8650 C   0  0  0  0  0  3  0  0  0  0  0  0
  -27.3710  -37.0700   24.7270 C   0  0  0  0  0  1  0  0  0  0  0  0
  -26.2700  -37.2450   23.7830 N   0  0  0  0  0  0  0  0  0  0  0  0
  -25.8480  -38.1530   23.9520 H   0  0  0  0  0  0  0  0  0  0  0  0
  1  2  2  0
  1  4  1  0
  2  5  1  0
  3  6  1  0
  4 48  1  0
  4  3  2  0
  5 15  1  0
  5  6  2  0
  6 45  1  0
  7 15  1  0
  8 13  1  0
  9 10  1  0
  9  8  1  0
 11 10  1  0
 11 20  1  0
 11 12  1  0
 13  7  1  0
 13 12  1  0
 14  7  2  0
 15 16  1  0
 17 18  2  0
 18 37  1  0
 19 18  1  0
 19 22  1  0
 20 21  1  0
 20 17  1  0
 21 19  2  0
 22 23  1  0
 23 24  2  0
 25 28  1  0
 25 24  1  0
 26 25  2  0
 27 26  1  0
 27 22  2  0
 28 29  1  0
 29 30  1  0
 30 31  2  0
 32 31  1  0
 32 36  1  0
 33 32  2  0
 34 29  2  0
 34 33  1  0
 35 34  1  0
 37 38  1  0
 38 41  1  0
 38 40  1  0
 39 37  2  0
 42 17  1  0
 42 43  1  0
 44 42  1  0
 45 46  1  0
 45 47  1  0
 49 51  2  0
 50 49  1  0
 50 48  1  0
 52 50  1  0
 53 54  1  0
 53 49  1  0
 55 66  2  0
 56 54  1  0
 56 61  1  0
 57 65  1  0
 57 67  1  0
 58 64  1  0
 58 60  1  0
 59 65  1  0
 60 59  1  0
 61 60  2  0
 62 63  1  0
 62 56  2  0
 63 58  2  0
 64 57  1  0
 65 55  1  0
 67 69  2  0
 68 67  1  0
 70 68  1  0
 71 80  2  0
 71 76  1  0
 72 68  1  0
 72 76  1  0
 73 72  1  0
 74 75  1  0
 74 73  1  0
 75 71  1  0
 76 77  2  0
 77 78  1  0
 79 78  2  0
 80 79  1  0
 81 55  1  0
 81 86  1  0
 81 82  1  0
 82 85  1  1
 82 83  1  0
 84 82  1  0
 86 89  1  0
 87 91  1  0
 87 86  1  0
 88 87  2  0
 91 90  1  0
 93 91  1  0
 93 94  1  0
 93 92  1  0
M  ISO  4   7 100  15 100  53 101  54 101
M  END
>  <TORSDO>  (74) 
F 20

>  <SCORE>  (74) 
-13.702

>  <name>  (74) 
73

>  <ligand_id>  (74) 
73

>  <original_smiles>  (74) 
[H]c1c([H])c([H])c2c(c1[H])C([H])([H])C([H])([H])C([H])([H])C2([H])N([H])C(=O)C1([H])N(C(=O)C([H])(N([H])C(=O)C([H])(N([H])C([H])([H])[H])C([H])([H])[H])C(C([H])([H])[H])(C([H])([H])[H])C([H])([H])[H])C([H])([H])c2c([H])c(OC([H])([H])C(=O)N([H])C([H])([H])c3c([H])c([H])c(N([H])C(=O)N4C([H])([H])C([H])([H])C([H])([H])C([H])(n5nc(-c6c([H])c([H])c(Oc7c([H])c([H])c(F)c([H])c7F)c([H])c6[H])c(C(=O)N([H])[H])c5N([H])[H])C4([H])[H])c(N([H])[H])c3[H])c([H])c([H])c2C1([H])[H]

>  <smiles>  (74) 
[H]c1c([H])c([H])c2c(c1[H])C([H])([H])C([H])([H])C([H])([H])C2([H])N([H])C(=O)C1([H])N(C(=O)C([H])(N([H])C(=O)C([H])(N([H])C([H])([H])[H])C([H])([H])[H])C(C([H])([H])[H])(C([H])([H])[H])C([H])([H])[H])C([H])([H])c2c([H])c(OC([H])([H])C(=O)N([H])C([H])([H])c3c([H])c([H])c(N([H])C(=O)N4C([H])([H])C([H])([H])C([H])([H])C([H])(n5nc(-c6c([H])c([H])c(Oc7c([H])c([H])c(F)c([H])c7F)c([H])c6[H])c(C(=O)N([H])[H])c5N([H])[H])C4([H])[H])c(N([H])[H])c3[H])c([H])c([H])c2C1([H])[H]

$$$$
74:0:0
     RDKit          3D

104112  0  0  1  0  0  0  0  0999 V2000
  -26.8390  -18.2850   19.6080 C   0  0  0  0  0  2  0  0  0  0  0  0
  -28.0350  -17.3320   19.3210 C   0  0  0  0  0  2  0  0  0  0  0  0
  -27.1460  -19.2540   20.7530 C   0  0  0  0  0  2  0  0  0  0  0  0
  -29.5350  -19.1420   20.2640 C   0  0  0  0  0  2  0  0  0  0  0  0
  -29.4160  -18.0480   19.1240 C   0  0  2  0  0  0  0  0  0  0  0  0
  -28.3500  -20.0400   20.3950 N   0  0  2  0  0  4  0  0  0  0  0  0
  -28.1400  -20.4400   19.4970 H   0  0  0  0  0  0  0  0  0  0  0  0
  -29.5010  -18.6980   17.6690 C   0  0  0  0  0  2  0  0  0  0  0  0
  -27.9170  -20.5880   17.2150 C   0  0  0  0  0  1  0  0  0  0  0  0
  -28.2430  -18.8860   15.5250 C   0  0  0  0  0  1  0  0  0  0  0  0
  -28.2460  -19.1580   16.9860 N   0  0  1  0  0  4  0  0  0  0  0  0
  -27.4820  -18.5970   17.3440 H   0  0  0  0  0  0  0  0  0  0  0  0
  -28.5340  -21.2660   21.2240 C   0  0  0  0  0  2  0  0  0  0  0  0
  -29.0530  -22.4780   20.3960 C   0  0  0  0  0  2  0  0  0  0  0  0
  -29.2330  -24.9050   20.2110 C   0  0  0  0  0  0  0  0  0  0  0  0
  -28.2990  -23.9800   22.3160 C   0  0  0  0  0  1  0  0  0  0  0  0
  -28.9120  -23.8320   20.9860 N   0  0  0  0  0  0  0  0  0  0  0  0
  -29.8620  -24.7630   19.1540 O   0  0  0  0  0  0  0  0  0  0  0  0
  -28.7600  -26.3340   20.5790 C   0  0  0  0  0  2  0  0  0  0  0  0
  -28.2160  -26.9590   19.4120 O   0  0  0  0  0  0  0  0  0  0  0  0
  -24.5190  -31.7980   23.1550 C   0  0  0  0  0  0  0  0  0  0  0  0
  -27.0570  -27.6650   19.6020 C   0  0  0  0  0  0  0  0  0  0  0  0
  -23.2470  -30.5250   21.4550 C   0  0  0  0  0  3  0  0  0  0  0  0
  -24.6490  -29.1160   19.8550 C   0  0  0  0  0  0  0  0  0  0  0  0
  -25.7610  -30.9200   21.1830 C   0  0  0  0  0  2  0  0  0  0  0  0
  -25.8250  -29.6040   20.4370 C   0  0  0  0  0  0  0  0  0  0  0  0
  -27.0350  -28.8820   20.3150 C   0  0  0  0  0  3  0  0  0  0  0  0
  -25.8720  -27.1880   19.0100 C   0  0  0  0  0  3  0  0  0  0  0  0
  -24.6630  -27.9030   19.1440 C   0  0  0  0  0  3  0  0  0  0  0  0
  -23.4030  -29.9590   20.0180 C   0  0  0  0  0  2  0  0  0  0  0  0
  -24.5280  -31.0920   21.9870 N   0  0  0  0  0  0  0  0  0  0  0  0
  -23.4580  -32.0150   23.7600 O   0  0  0  0  0  0  0  0  0  0  0  0
  -22.6410  -29.4250   22.3590 C   0  0  0  0  0  0  0  0  0  0  0  0
  -21.3170  -29.2280   22.2620 N   0  0  0  0  0  0  0  0  0  0  0  0
  -23.3600  -28.7500   23.1000 O   0  0  0  0  0  0  0  0  0  0  0  0
  -20.7970  -29.8240   21.6340 H   0  0  0  0  0  0  0  0  0  0  0  0
  -17.9990  -27.8750   22.6990 C   0  0  0  0  0  0  0  0  0  0  0  0
  -20.5420  -28.2200   22.9890 C   0  0  0  0  0  3  0  0  0  0  0  0
  -20.6980  -26.8250   22.3350 C   0  0  0  0  0  2  0  0  0  0  0  0
  -19.6040  -26.5060   21.3100 C   0  0  0  0  0  2  0  0  0  0  0  0
  -18.2240  -26.5670   21.9650 C   0  0  0  0  0  2  0  0  0  0  0  0
  -19.0860  -28.6570   23.1720 C   0  0  0  0  0  0  0  0  0  0  0  0
  -18.8170  -29.8800   23.8220 C   0  0  0  0  0  3  0  0  0  0  0  0
  -17.4930  -30.3180   24.0090 C   0  0  0  0  0  3  0  0  0  0  0  0
  -16.4230  -29.5310   23.5570 C   0  0  0  0  0  3  0  0  0  0  0  0
  -16.6740  -28.3120   22.9040 C   0  0  0  0  0  3  0  0  0  0  0  0
  -25.8260  -32.3850   23.7690 C   0  0  0  0  0  3  0  0  0  0  0  0
  -26.3430  -31.5800   25.0240 C   0  0  1  0  0  0  0  0  0  0  0  0
  -25.2600  -31.3530   26.1050 C   0  0  0  0  0  1  0  0  0  0  0  0
  -26.8830  -30.1950   24.5990 C   0  0  0  0  0  1  0  0  0  0  0  0
  -27.5270  -32.3290   25.6770 C   0  0  0  0  0  1  0  0  0  0  0  0
  -25.5600  -33.7860   24.1250 N   0  0  0  0  0  0  0  0  0  0  0  0
  -25.8940  -34.8380   23.3670 C   0  0  0  0  0  0  0  0  0  0  0  0
  -26.5320  -34.7320   22.3160 O   0  0  0  0  0  0  0  0  0  0  0  0
  -24.9920  -33.9430   24.9440 H   0  0  0  0  0  0  0  0  0  0  0  0
  -24.1820  -36.6590   23.0930 C   0  0  0  0  0  1  0  0  0  0  0  0
  -25.4490  -36.2320   23.8510 C   0  0  0  0  0  3  0  0  0  0  0  0
  -27.6210  -37.0870   24.6120 C   0  0  0  0  0  1  0  0  0  0  0  0
  -26.4950  -37.2670   23.7010 N   0  0  0  0  0  0  0  0  0  0  0  0
  -26.1090  -38.1950   23.8500 H   0  0  0  0  0  0  0  0  0  0  0  0
  -30.6440  -16.9900   19.2720 C   0  0  0  0  0  3  0  0  0  0  0  0
  -31.1180  -14.6590   20.1710 C   0  0  0  0  0  0  0  0  0  0  0  0
  -30.7740  -12.4150   19.2580 C   0  0  0  0  0  2  0  0  0  0  0  0
  -29.8580  -12.5550   18.0210 C   0  0  0  0  0  2  0  0  0  0  0  0
  -28.3790  -12.4500   18.4430 C   0  0  0  0  0  2  0  0  0  0  0  0
  -28.0340  -13.3840   19.6350 C   0  0  0  0  0  3  0  0  0  0  0  0
  -29.0830  -13.2810   20.7700 C   0  0  0  0  0  2  0  0  0  0  0  0
  -30.4120  -13.4970   20.1900 N   0  0  0  0  0  0  0  0  0  0  0  0
  -32.2970  -14.6720   19.8380 O   0  0  0  0  0  0  0  0  0  0  0  0
  -30.3890  -15.8110   20.1750 N   0  0  0  0  0  0  0  0  0  0  0  0
  -29.4530  -15.7040   20.5300 H   0  0  0  0  0  0  0  0  0  0  0  0
  -25.6610  -14.0460   20.3740 C   0  0  0  0  0  0  0  0  0  0  0  0
  -24.5720  -13.3130   20.7380 C   0  0  0  0  0  0  0  0  0  0  0  0
  -24.9950  -11.9490   20.7000 C   0  0  0  0  0  0  0  0  0  0  0  0
  -26.6790  -13.1460   20.1280 N   0  0  0  0  0  0  0  0  0  0  0  0
  -26.2820  -11.8730   20.3830 N   0  0  0  0  0  0  0  0  0  0  0  0
  -24.2340  -10.7120   20.8790 C   0  0  0  0  0  0  0  0  0  0  0  0
  -24.5980   -9.7570   21.8540 C   0  0  0  0  0  3  0  0  0  0  0  0
  -23.8340   -8.5840   22.0250 C   0  0  0  0  0  3  0  0  0  0  0  0
  -22.6940   -8.3570   21.2210 C   0  0  0  0  0  0  0  0  0  0  0  0
  -22.3480   -9.3000   20.2320 C   0  0  0  0  0  3  0  0  0  0  0  0
  -23.1150  -10.4640   20.0580 C   0  0  0  0  0  3  0  0  0  0  0  0
  -21.9060   -7.2350   21.3030 O   0  0  0  0  0  0  0  0  0  0  0  0
  -21.7370   -6.5580   22.4850 C   0  0  0  0  0  0  0  0  0  0  0  0
  -21.1390   -7.1620   23.6120 C   0  0  0  0  0  3  0  0  0  0  0  0
  -20.9280   -6.4080   24.7870 C   0  0  0  0  0  3  0  0  0  0  0  0
  -21.3030   -5.0540   24.8300 C   0  0  0  0  0  0  0  0  0  0  0  0
  -21.8940   -4.4490   23.7070 C   0  0  0  0  0  3  0  0  0  0  0  0
  -22.1080   -5.2000   22.5370 C   0  0  0  0  0  0  0  0  0  0  0  0
  -22.6590   -4.6050   21.4510 F   0  0  0  0  0  0  0  0  0  0  0  0
  -21.0890   -4.3280   25.9530 F   0  0  0  0  0  0  0  0  0  0  0  0
  -23.1920  -13.8350   20.9930 C   0  0  0  0  0  0  0  0  0  0  0  0
  -22.4430  -13.1640   21.8600 N   0  0  0  0  0  0  0  0  0  0  0  0
  -22.7860  -14.8680   20.4570 O   0  0  0  0  0  0  0  0  0  0  0  0
  -22.7890  -12.3330   22.3100 H   0  0  0  0  0  0  0  0  0  0  0  0
  -21.5110  -13.4830   22.0840 H   0  0  0  0  0  0  0  0  0  0  0  0
  -25.8480  -15.4020   20.2000 N   0  0  0  0  0  0  0  0  0  0  0  0
  -25.1150  -16.0770   20.3810 H   0  0  0  0  0  0  0  0  0  0  0  0
  -26.6380  -15.7980   19.7210 H   0  0  0  0  0  0  0  0  0  0  0  0
  -32.0450  -17.6560   19.5680 C   0  0  0  0  0  2  0  0  0  0  0  0
  -32.6310  -18.4350   18.4560 N   0  0  0  0  0  4  0  0  0  0  0  0
  -32.1270  -19.2700   18.2220 H   0  0  0  0  0  0  0  0  0  0  0  0
  -32.7460  -17.8620   17.6360 H   0  0  0  0  0  0  0  0  0  0  0  0
  -33.5540  -18.7270   18.7300 H   0  0  0  0  0  0  0  0  0  0  0  0
  1  3  1  0
  2  1  1  0
  4  6  1  0
  5  8  1  6
  5 61  1  0
  5  2  1  0
  5  4  1  0
  6  3  1  0
  6 13  1  0
  6  7  1  6
 10 11  1  0
 11  9  1  0
 11 12  1  1
 11  8  1  0
 14 17  1  0
 14 13  1  0
 15 19  1  0
 15 17  1  0
 17 16  1  0
 18 15  2  0
 20 22  1  0
 20 19  1  0
 21 32  2  0
 22 27  1  0
 23 31  1  0
 23 33  1  0
 24 30  1  0
 24 26  1  0
 25 31  1  0
 26 25  1  0
 27 26  2  0
 28 29  1  0
 28 22  2  0
 29 24  2  0
 30 23  1  0
 31 21  1  0
 33 35  2  0
 34 33  1  0
 36 34  1  0
 37 46  2  0
 37 42  1  0
 38 34  1  0
 38 42  1  0
 39 38  1  0
 40 41  1  0
 40 39  1  0
 41 37  1  0
 42 43  2  0
 43 44  1  0
 45 44  2  0
 46 45  1  0
 47 21  1  0
 47 52  1  0
 47 48  1  0
 48 51  1  1
 48 49  1  0
 50 48  1  0
 52 55  1  0
 53 57  1  0
 53 52  1  0
 54 53  2  0
 57 56  1  0
 59 60  1  0
 59 57  1  0
 59 58  1  0
 61100  1  0
 61 70  1  0
 62 70  1  0
 62 68  1  0
 63 68  1  0
 64 65  1  0
 64 63  1  0
 66 65  1  0
 66 75  1  0
 66 67  1  0
 68 67  1  0
 69 62  2  0
 70 71  1  0
 72 73  2  0
 73 92  1  0
 74 73  1  0
 74 77  1  0
 75 72  1  0
 75 76  1  0
 76 74  2  0
 77 78  1  0
 78 79  2  0
 80 83  1  0
 80 79  1  0
 81 80  2  0
 82 81  1  0
 82 77  2  0
 83 84  1  0
 84 89  2  0
 84 85  1  0
 85 86  2  0
 86 87  1  0
 87 91  1  0
 88 87  2  0
 89 88  1  0
 90 89  1  0
 92 93  1  0
 93 96  1  0
 93 95  1  0
 94 92  2  0
 97 72  1  0
 97 98  1  0
 99 97  1  0
101104  1  0
101100  1  0
102101  1  0
103101  1  0
M  ISO  4  19 101  20 101  62 100  70 100
M  END
>  <TORSDO>  (75) 
F 25

>  <SCORE>  (75) 
-11.418

>  <name>  (75) 
74

>  <ligand_id>  (75) 
74

>  <original_smiles>  (75) 
[H]c1c([H])c([H])c2c(c1[H])C([H])([H])C([H])([H])C([H])([H])C2([H])N([H])C(=O)C1([H])N(C(=O)C([H])(N([H])C(=O)C([H])(N([H])C([H])([H])[H])C([H])([H])[H])C(C([H])([H])[H])(C([H])([H])[H])C([H])([H])[H])C([H])([H])c2c([H])c(OC([H])([H])C(=O)N(C([H])([H])[H])C([H])([H])C([H])([H])[N+]3([H])C([H])([H])C([H])([H])C([H])([H])C(C([H])(N([H])C(=O)N4C([H])([H])C([H])([H])C([H])([H])C([H])(n5nc(-c6c([H])c([H])c(Oc7c([H])c([H])c(F)c([H])c7F)c([H])c6[H])c(C(=O)N([H])[H])c5N([H])[H])C4([H])[H])C([H])([H])[N+]([H])([H])[H])(C([H])([H])[N+]([H])(C([H])([H])[H])C([H])([H])[H])C3([H])[H])c([H])c([H])c2C1([H])[H]

>  <smiles>  (75) 
[H]c1c([H])c([H])c2c(c1[H])C([H])([H])C([H])([H])C([H])([H])C2([H])N([H])C(=O)C1([H])N(C(=O)C([H])(N([H])C(=O)C([H])(N([H])C([H])([H])[H])C([H])([H])[H])C(C([H])([H])[H])(C([H])([H])[H])C([H])([H])[H])C([H])([H])c2c([H])c(OC([H])([H])C(=O)N(C([H])([H])[H])C([H])([H])C([H])([H])[N+]3([H])C([H])([H])C([H])([H])C([H])([H])C(C([H])(N([H])C(=O)N4C([H])([H])C([H])([H])C([H])([H])C([H])(n5nc(-c6c([H])c([H])c(Oc7c([H])c([H])c(F)c([H])c7F)c([H])c6[H])c(C(=O)N([H])[H])c5N([H])[H])C4([H])[H])C([H])([H])[N+]([H])([H])[H])(C([H])([H])[N+]([H])(C([H])([H])[H])C([H])([H])[H])C3([H])[H])c([H])c([H])c2C1([H])[H]

$$$$
75:0:0
     RDKit          3D

 98106  0  0  1  0  0  0  0  0999 V2000
  -30.2550  -20.4350   19.3880 C   0  0  0  0  0  3  0  0  0  0  0  0
  -28.2500  -16.6310   20.3600 C   0  0  0  0  0  3  0  0  0  0  0  0
  -27.5330  -17.7780   19.9810 C   0  0  0  0  0  3  0  0  0  0  0  0
  -30.3330  -17.8840   20.2090 C   0  0  0  0  0  3  0  0  0  0  0  0
  -29.6090  -19.0720   19.8100 C   0  0  0  0  0  0  0  0  0  0  0  0
  -29.6550  -16.6470   20.4680 C   0  0  0  0  0  0  0  0  0  0  0  0
  -28.2040  -18.9780   19.7000 C   0  0  0  0  0  0  0  0  0  0  0  0
  -27.4890  -20.0580   19.3010 F   0  0  0  0  0  0  0  0  0  0  0  0
  -30.8620  -14.4200   20.2240 C   0  0  0  0  0  0  0  0  0  0  0  0
  -30.6770  -12.0940   19.3760 C   0  0  0  0  0  2  0  0  0  0  0  0
  -29.7480  -12.0940   18.1430 C   0  0  0  0  0  2  0  0  0  0  0  0
  -28.2670  -11.9810   18.5590 C   0  0  0  0  0  2  0  0  0  0  0  0
  -27.8900  -12.9690   19.6950 C   0  0  0  0  0  3  0  0  0  0  0  0
  -28.9280  -12.9130   20.8400 C   0  0  0  0  0  2  0  0  0  0  0  0
  -30.2600  -13.1930   20.2670 N   0  0  0  0  0  0  0  0  0  0  0  0
  -31.9240  -14.6190   19.6260 O   0  0  0  0  0  0  0  0  0  0  0  0
  -30.2270  -15.3960   20.9140 N   0  0  0  0  0  0  0  0  0  0  0  0
  -29.6380  -14.9550   21.6040 H   0  0  0  0  0  0  0  0  0  0  0  0
  -25.5160  -13.6560   20.4070 C   0  0  0  0  0  0  0  0  0  0  0  0
  -24.4250  -12.9230   20.7920 C   0  0  0  0  0  0  0  0  0  0  0  0
  -24.8390  -11.5570   20.7680 C   0  0  0  0  0  0  0  0  0  0  0  0
  -26.5300  -12.7370   20.1790 N   0  0  0  0  0  0  0  0  0  0  0  0
  -26.1260  -11.4700   20.4500 N   0  0  0  0  0  0  0  0  0  0  0  0
  -24.0720  -10.3220   20.9740 C   0  0  0  0  0  0  0  0  0  0  0  0
  -24.4680   -9.3550   21.9250 C   0  0  0  0  0  3  0  0  0  0  0  0
  -23.7030   -8.1830   22.1160 C   0  0  0  0  0  3  0  0  0  0  0  0
  -22.5280   -7.9710   21.3570 C   0  0  0  0  0  0  0  0  0  0  0  0
  -22.1510   -8.9260   20.3960 C   0  0  0  0  0  3  0  0  0  0  0  0
  -22.9160  -10.0890   20.2020 C   0  0  0  0  0  3  0  0  0  0  0  0
  -21.7360   -6.8520   21.4580 O   0  0  0  0  0  0  0  0  0  0  0  0
  -21.6490   -6.1360   22.6250 C   0  0  0  0  0  0  0  0  0  0  0  0
  -21.1950   -6.7210   23.8280 C   0  0  0  0  0  3  0  0  0  0  0  0
  -21.0530   -5.9300   24.9860 C   0  0  0  0  0  3  0  0  0  0  0  0
  -21.3560   -4.5550   24.9420 C   0  0  0  0  0  0  0  0  0  0  0  0
  -21.8030   -3.9700   23.7450 C   0  0  0  0  0  3  0  0  0  0  0  0
  -21.9450   -4.7590   22.5890 C   0  0  0  0  0  0  0  0  0  0  0  0
  -22.3560   -4.1850   21.4320 F   0  0  0  0  0  0  0  0  0  0  0  0
  -21.2150   -3.7940   26.0520 F   0  0  0  0  0  0  0  0  0  0  0  0
  -23.0460  -13.4510   21.0750 C   0  0  0  0  0  0  0  0  0  0  0  0
  -22.3060  -12.7910   21.9580 N   0  0  0  0  0  0  0  0  0  0  0  0
  -22.6340  -14.4830   20.5460 O   0  0  0  0  0  0  0  0  0  0  0  0
  -22.6480  -11.9520   22.4020 H   0  0  0  0  0  0  0  0  0  0  0  0
  -21.3830  -13.1260   22.1900 H   0  0  0  0  0  0  0  0  0  0  0  0
  -25.7270  -15.0180   20.2160 N   0  0  0  0  0  0  0  0  0  0  0  0
  -24.9900  -15.7040   20.3290 H   0  0  0  0  0  0  0  0  0  0  0  0
  -26.6000  -15.4190   19.9010 H   0  0  0  0  0  0  0  0  0  0  0  0
  -31.6230  -20.2660   18.6740 C   0  0  0  0  0  2  0  0  0  0  0  0
  -31.5290  -19.5050   17.4110 N   0  0  0  0  0  4  0  0  0  0  0  0
  -31.1540  -18.5860   17.5610 H   0  0  0  0  0  0  0  0  0  0  0  0
  -32.4450  -19.4080   17.0090 H   0  0  0  0  0  0  0  0  0  0  0  0
  -30.9530  -19.9840   16.7400 H   0  0  0  0  0  0  0  0  0  0  0  0
  -30.3350  -21.5960   20.4750 C   0  0  0  0  0  2  0  0  0  0  0  0
  -28.5290  -22.3040   21.9980 C   0  0  0  0  0  1  0  0  0  0  0  0
  -29.1360  -22.5120   20.6560 N   0  0  1  0  0  4  0  0  0  0  0  0
  -28.4420  -22.1940   19.9910 H   0  0  0  0  0  0  0  0  0  0  0  0
  -29.4130  -23.9930   20.3910 C   0  0  0  0  0  3  0  0  0  0  0  0
  -28.1670  -24.9700   20.3710 C   0  0  0  0  0  3  0  0  0  0  0  0
  -28.4100  -26.4130   20.1730 O   0  0  0  0  0  0  0  0  0  0  0  0
  -24.6860  -31.7880   23.1900 C   0  0  0  0  0  0  0  0  0  0  0  0
  -27.2850  -27.2460   20.1330 C   0  0  0  0  0  0  0  0  0  0  0  0
  -23.4800  -30.4070   21.5350 C   0  0  0  0  0  3  0  0  0  0  0  0
  -24.9280  -28.8550   20.1160 C   0  0  0  0  0  0  0  0  0  0  0  0
  -26.0240  -30.7100   21.3750 C   0  0  0  0  0  2  0  0  0  0  0  0
  -26.0960  -29.3400   20.7190 C   0  0  0  0  0  0  0  0  0  0  0  0
  -27.2790  -28.5480   20.7150 C   0  0  0  0  0  3  0  0  0  0  0  0
  -26.0950  -26.8100   19.5050 C   0  0  0  0  0  3  0  0  0  0  0  0
  -24.9300  -27.5960   19.4990 C   0  0  0  0  0  3  0  0  0  0  0  0
  -23.6950  -29.7320   20.1560 C   0  0  0  0  0  2  0  0  0  0  0  0
  -24.7470  -30.9860   22.0890 N   0  0  0  0  0  0  0  0  0  0  0  0
  -23.6020  -32.0740   23.7180 O   0  0  0  0  0  0  0  0  0  0  0  0
  -22.8030  -29.3920   22.4860 C   0  0  0  0  0  0  0  0  0  0  0  0
  -21.4730  -29.2410   22.3600 N   0  0  0  0  0  0  0  0  0  0  0  0
  -23.4720  -28.7430   23.2940 O   0  0  0  0  0  0  0  0  0  0  0  0
  -20.9950  -29.8170   21.6820 H   0  0  0  0  0  0  0  0  0  0  0  0
  -18.0670  -28.1470   22.8930 C   0  0  0  0  0  0  0  0  0  0  0  0
  -20.6380  -28.3110   23.1210 C   0  0  0  0  0  3  0  0  0  0  0  0
  -20.6770  -26.8930   22.5080 C   0  0  0  0  0  2  0  0  0  0  0  0
  -19.5480  -26.6340   21.5070 C   0  0  0  0  0  2  0  0  0  0  0  0
  -18.1840  -26.8090   22.1800 C   0  0  0  0  0  2  0  0  0  0  0  0
  -19.2190  -28.8590   23.3200 C   0  0  0  0  0  0  0  0  0  0  0  0
  -19.0570  -30.1130   23.9460 C   0  0  0  0  0  3  0  0  0  0  0  0
  -17.7740  -30.6570   24.1480 C   0  0  0  0  0  3  0  0  0  0  0  0
  -16.6360  -29.9410   23.7370 C   0  0  0  0  0  3  0  0  0  0  0  0
  -16.7840  -28.6870   23.1180 C   0  0  0  0  0  3  0  0  0  0  0  0
  -25.9720  -32.4020   23.8260 C   0  0  0  0  0  3  0  0  0  0  0  0
  -26.4720  -31.6180   25.1020 C   0  0  1  0  0  0  0  0  0  0  0  0
  -25.3660  -31.3810   26.1570 C   0  0  0  0  0  1  0  0  0  0  0  0
  -27.0540  -30.2410   24.7090 C   0  0  0  0  0  1  0  0  0  0  0  0
  -27.6210  -32.4010   25.7790 C   0  0  0  0  0  1  0  0  0  0  0  0
  -25.6730  -33.8010   24.1650 N   0  0  0  0  0  0  0  0  0  0  0  0
  -26.0160  -34.8560   23.4140 C   0  0  0  0  0  0  0  0  0  0  0  0
  -26.6860  -34.7520   22.3840 O   0  0  0  0  0  0  0  0  0  0  0  0
  -25.0760  -33.9550   24.9640 H   0  0  0  0  0  0  0  0  0  0  0  0
  -24.2960  -36.6580   23.0780 C   0  0  0  0  0  1  0  0  0  0  0  0
  -25.5390  -36.2440   23.8820 C   0  0  0  0  0  3  0  0  0  0  0  0
  -27.6800  -37.1130   24.7110 C   0  0  0  0  0  1  0  0  0  0  0  0
  -26.5770  -37.2910   23.7690 N   0  0  0  0  0  0  0  0  0  0  0  0
  -26.1780  -38.2140   23.9170 H   0  0  0  0  0  0  0  0  0  0  0  0
  1 47  1  0
  1  5  1  0
  1 52  1  0
  2  6  1  0
  3  2  2  0
  4  6  2  0
  5  4  1  0
  6 17  1  0
  7  5  2  0
  7  3  1  0
  8  7  1  0
  9 15  1  0
  9 17  1  0
 10 15  1  0
 11 12  1  0
 11 10  1  0
 13 12  1  0
 13 22  1  0
 13 14  1  0
 15 14  1  0
 16  9  2  0
 17 18  1  0
 19 20  2  0
 20 39  1  0
 21 20  1  0
 21 24  1  0
 22 19  1  0
 22 23  1  0
 23 21  2  0
 24 25  1  0
 25 26  2  0
 27 30  1  0
 27 26  1  0
 28 27  2  0
 29 28  1  0
 29 24  2  0
 30 31  1  0
 31 32  1  0
 32 33  2  0
 34 33  1  0
 34 38  1  0
 35 34  2  0
 36 31  2  0
 36 35  1  0
 37 36  1  0
 39 40  1  0
 40 43  1  0
 40 42  1  0
 41 39  2  0
 44 45  1  0
 44 19  1  0
 46 44  1  0
 48 49  1  0
 48 47  1  0
 50 48  1  0
 51 48  1  0
 52 54  1  0
 54 53  1  0
 54 55  1  6
 56 54  1  0
 57 56  2  0
 58 57  1  0
 59 70  2  0
 60 58  1  0
 60 65  1  0
 61 69  1  0
 61 71  1  0
 62 68  1  0
 62 64  1  0
 63 69  1  0
 64 63  1  0
 65 64  2  0
 66 60  2  0
 67 66  1  0
 67 62  2  0
 68 61  1  0
 69 59  1  0
 71 73  2  0
 72 71  1  0
 74 72  1  0
 75 84  2  0
 75 80  1  0
 76 72  1  0
 76 80  1  0
 77 76  1  0
 78 79  1  0
 78 77  1  0
 79 75  1  0
 80 81  2  0
 81 82  1  0
 83 82  2  0
 84 83  1  0
 85 59  1  0
 85 90  1  0
 85 86  1  0
 86 89  1  1
 86 87  1  0
 88 86  1  0
 90 93  1  0
 91 95  1  0
 91 90  1  0
 92 91  2  0
 95 94  1  0
 97 95  1  0
 97 98  1  0
 97 96  1  0
M  ISO  4   9 100  17 100  57 101  58 101
M  END
>  <TORSDO>  (76) 
F 23

>  <SCORE>  (76) 
-13.112

>  <name>  (76) 
75

>  <ligand_id>  (76) 
75

>  <original_smiles>  (76) 
[H]c1c([H])c([H])c2c(c1[H])C([H])([H])C([H])([H])C([H])([H])C2([H])N([H])C(=O)C1([H])N(C(=O)C([H])(N([H])C(=O)C([H])(N([H])C([H])([H])[H])C([H])([H])[H])C(C([H])([H])[H])(C([H])([H])[H])C([H])([H])[H])C([H])([H])c2c([H])c(OC([H])([H])C([H])([H])[N+]([H])(C([H])([H])[H])C([H])([H])C([H])(c3c([H])c(N([H])C(=O)N4C([H])([H])C([H])([H])C([H])([H])C([H])(n5nc(-c6c([H])c([H])c(Oc7c([H])c([H])c(F)c([H])c7F)c([H])c6[H])c(C(=O)N([H])[H])c5N([H])[H])C4([H])[H])c([H])c([H])c3F)C([H])([H])[N+]([H])([H])[H])c([H])c([H])c2C1([H])[H]

>  <smiles>  (76) 
[H]c1c([H])c([H])c2c(c1[H])C([H])([H])C([H])([H])C([H])([H])C2([H])N([H])C(=O)C1([H])N(C(=O)C([H])(N([H])C(=O)C([H])(N([H])C([H])([H])[H])C([H])([H])[H])C(C([H])([H])[H])(C([H])([H])[H])C([H])([H])[H])C([H])([H])c2c([H])c(OC([H])([H])C([H])([H])[N+]([H])(C([H])([H])[H])C([H])([H])C([H])(c3c([H])c(N([H])C(=O)N4C([H])([H])C([H])([H])C([H])([H])C([H])(n5nc(-c6c([H])c([H])c(Oc7c([H])c([H])c(F)c([H])c7F)c([H])c6[H])c(C(=O)N([H])[H])c5N([H])[H])C4([H])[H])c([H])c([H])c3F)C([H])([H])[N+]([H])([H])[H])c([H])c([H])c2C1([H])[H]

$$$$
76:0:0
     RDKit          3D

 97106  0  0  1  0  0  0  0  0999 V2000
  -30.2790  -22.1190   20.1030 C   0  0  0  0  0  2  0  0  0  0  0  0
  -28.1320  -22.5880   20.7060 C   0  0  0  0  0  2  0  0  0  0  0  0
  -29.5750  -20.7420   20.0400 C   0  0  0  0  0  3  0  0  0  0  0  0
  -28.2370  -21.0440   20.7280 C   0  0  0  0  0  3  0  0  0  0  0  0
  -29.1930  -23.0700   19.8110 N   0  0  0  0  0  0  0  0  0  0  0  0
  -32.2340  -18.5340   21.7850 C   0  0  0  0  0  3  0  0  0  0  0  0
  -31.5370  -19.6590   21.3060 C   0  0  0  0  0  3  0  0  0  0  0  0
  -31.7440  -17.2370   21.5480 C   0  0  0  0  0  3  0  0  0  0  0  0
  -29.8420  -18.1880   20.3560 C   0  0  0  0  0  3  0  0  0  0  0  0
  -30.3340  -19.5070   20.5790 C   0  0  0  0  0  0  0  0  0  0  0  0
  -30.5470  -17.0440   20.8250 C   0  0  0  0  0  0  0  0  0  0  0  0
  -30.6820  -14.6740   20.0630 C   0  0  0  0  0  0  0  0  0  0  0  0
  -30.2830  -12.5200   18.9220 C   0  0  0  0  0  2  0  0  0  0  0  0
  -29.2820  -12.7270   17.7680 C   0  0  0  0  0  2  0  0  0  0  0  0
  -27.8330  -12.6000   18.2770 C   0  0  0  0  0  2  0  0  0  0  0  0
  -27.5680  -13.4440   19.5520 C   0  0  0  0  0  3  0  0  0  0  0  0
  -28.6800  -13.2290   20.6040 C   0  0  0  0  0  2  0  0  0  0  0  0
  -29.9720  -13.5160   19.9600 N   0  0  0  0  0  0  0  0  0  0  0  0
  -31.7910  -14.8140   19.5410 O   0  0  0  0  0  0  0  0  0  0  0  0
  -30.0290  -15.7240   20.6130 N   0  0  0  0  0  0  0  0  0  0  0  0
  -29.0600  -15.5670   20.8400 H   0  0  0  0  0  0  0  0  0  0  0  0
  -25.2270  -14.0750   20.4150 C   0  0  0  0  0  0  0  0  0  0  0  0
  -24.1670  -13.3130   20.8250 C   0  0  0  0  0  0  0  0  0  0  0  0
  -24.5990  -11.9540   20.7350 C   0  0  0  0  0  0  0  0  0  0  0  0
  -26.2410  -13.1820   20.1020 N   0  0  0  0  0  0  0  0  0  0  0  0
  -25.8690  -11.8990   20.3530 N   0  0  0  0  0  0  0  0  0  0  0  0
  -23.8600  -10.7010   20.9340 C   0  0  0  0  0  0  0  0  0  0  0  0
  -24.2860   -9.7340   21.8700 C   0  0  0  0  0  3  0  0  0  0  0  0
  -23.5480   -8.5450   22.0590 C   0  0  0  0  0  3  0  0  0  0  0  0
  -22.3700   -8.3150   21.3080 C   0  0  0  0  0  0  0  0  0  0  0  0
  -21.9640   -9.2720   20.3610 C   0  0  0  0  0  3  0  0  0  0  0  0
  -22.7030  -10.4510   20.1720 C   0  0  0  0  0  3  0  0  0  0  0  0
  -21.6040   -7.1790   21.4040 O   0  0  0  0  0  0  0  0  0  0  0  0
  -21.5170   -6.4660   22.5730 C   0  0  0  0  0  0  0  0  0  0  0  0
  -21.0210   -7.0420   23.7620 C   0  0  0  0  0  3  0  0  0  0  0  0
  -20.8840   -6.2540   24.9230 C   0  0  0  0  0  3  0  0  0  0  0  0
  -21.2330   -4.8910   24.8940 C   0  0  0  0  0  0  0  0  0  0  0  0
  -21.7230   -4.3140   23.7090 C   0  0  0  0  0  3  0  0  0  0  0  0
  -21.8610   -5.0990   22.5510 C   0  0  0  0  0  0  0  0  0  0  0  0
  -22.3130   -4.5330   21.4050 F   0  0  0  0  0  0  0  0  0  0  0  0
  -21.0950   -4.1310   26.0060 F   0  0  0  0  0  0  0  0  0  0  0  0
  -22.7980  -13.8090   21.1880 C   0  0  0  0  0  0  0  0  0  0  0  0
  -22.1050  -13.1000   22.0730 N   0  0  0  0  0  0  0  0  0  0  0  0
  -22.3540  -14.8580   20.7230 O   0  0  0  0  0  0  0  0  0  0  0  0
  -22.4780  -12.2510   22.4700 H   0  0  0  0  0  0  0  0  0  0  0  0
  -21.1880  -13.4130   22.3590 H   0  0  0  0  0  0  0  0  0  0  0  0
  -25.4090  -15.4470   20.2590 N   0  0  0  0  0  0  0  0  0  0  0  0
  -24.6540  -16.1070   20.4090 H   0  0  0  0  0  0  0  0  0  0  0  0
  -26.2330  -15.8710   19.8530 H   0  0  0  0  0  0  0  0  0  0  0  0
  -27.1030  -20.3880   20.0540 N   0  0  0  0  0  4  0  0  0  0  0  0
  -27.0500  -20.6760   19.0940 H   0  0  0  0  0  0  0  0  0  0  0  0
  -26.2420  -20.6330   20.5110 H   0  0  0  0  0  0  0  0  0  0  0  0
  -27.2000  -19.3900   20.0930 H   0  0  0  0  0  0  0  0  0  0  0  0
  -30.7390  -24.9270   19.2070 C   0  0  0  0  0  1  0  0  0  0  0  0
  -29.4900  -24.5150   20.0070 C   0  0  0  0  0  3  0  0  0  0  0  0
  -28.2790  -25.3920   19.5610 C   0  0  0  0  0  2  0  0  0  0  0  0
  -28.3870  -26.8130   19.8230 O   0  0  0  0  0  0  0  0  0  0  0  0
  -24.3910  -31.7560   23.0920 C   0  0  0  0  0  0  0  0  0  0  0  0
  -27.1940  -27.5240   19.8290 C   0  0  0  0  0  0  0  0  0  0  0  0
  -23.2300  -30.3530   21.4240 C   0  0  0  0  0  3  0  0  0  0  0  0
  -24.7320  -28.9410   19.9260 C   0  0  0  0  0  0  0  0  0  0  0  0
  -25.7370  -30.8330   21.2050 C   0  0  0  0  0  2  0  0  0  0  0  0
  -25.8790  -29.4900   20.5130 C   0  0  0  0  0  0  0  0  0  0  0  0
  -27.1120  -28.7930   20.4590 C   0  0  0  0  0  3  0  0  0  0  0  0
  -26.0200  -27.0050   19.2280 C   0  0  0  0  0  3  0  0  0  0  0  0
  -24.8000  -27.6980   19.2780 C   0  0  0  0  0  3  0  0  0  0  0  0
  -23.4500  -29.7350   20.0190 C   0  0  0  0  0  2  0  0  0  0  0  0
  -24.4720  -30.9940   21.9650 N   0  0  0  0  0  0  0  0  0  0  0  0
  -23.3050  -31.9580   23.6540 O   0  0  0  0  0  0  0  0  0  0  0  0
  -22.6440  -29.2670   22.3570 C   0  0  0  0  0  0  0  0  0  0  0  0
  -21.3270  -29.0300   22.2490 N   0  0  0  0  0  0  0  0  0  0  0  0
  -23.3720  -28.6450   23.1360 O   0  0  0  0  0  0  0  0  0  0  0  0
  -20.7980  -29.5880   21.5930 H   0  0  0  0  0  0  0  0  0  0  0  0
  -18.0130  -27.6940   22.7980 C   0  0  0  0  0  0  0  0  0  0  0  0
  -20.5690  -28.0300   23.0000 C   0  0  0  0  0  3  0  0  0  0  0  0
  -20.7000  -26.6310   22.3560 C   0  0  0  0  0  2  0  0  0  0  0  0
  -19.5760  -26.3150   21.3630 C   0  0  0  0  0  2  0  0  0  0  0  0
  -18.2120  -26.3840   22.0560 C   0  0  0  0  0  2  0  0  0  0  0  0
  -19.1190  -28.4750   23.2270 C   0  0  0  0  0  0  0  0  0  0  0  0
  -18.8780  -29.7020   23.8820 C   0  0  0  0  0  3  0  0  0  0  0  0
  -17.5630  -30.1510   24.1100 C   0  0  0  0  0  3  0  0  0  0  0  0
  -16.4730  -29.3670   23.6970 C   0  0  0  0  0  3  0  0  0  0  0  0
  -16.6990  -28.1410   23.0460 C   0  0  0  0  0  3  0  0  0  0  0  0
  -25.6530  -32.4310   23.7140 C   0  0  0  0  0  3  0  0  0  0  0  0
  -26.2000  -31.6730   24.9850 C   0  0  1  0  0  0  0  0  0  0  0  0
  -25.1150  -31.3800   26.0480 C   0  0  0  0  0  1  0  0  0  0  0  0
  -26.8430  -30.3260   24.5840 C   0  0  0  0  0  1  0  0  0  0  0  0
  -27.3130  -32.5120   25.6560 C   0  0  0  0  0  1  0  0  0  0  0  0
  -25.2950  -33.8160   24.0470 N   0  0  0  0  0  0  0  0  0  0  0  0
  -25.5890  -34.8810   23.2900 C   0  0  0  0  0  0  0  0  0  0  0  0
  -26.2620  -34.8040   22.2580 O   0  0  0  0  0  0  0  0  0  0  0  0
  -24.6930  -33.9480   24.8470 H   0  0  0  0  0  0  0  0  0  0  0  0
  -23.8010  -36.6130   22.9340 C   0  0  0  0  0  1  0  0  0  0  0  0
  -25.0520  -36.2490   23.7490 C   0  0  0  0  0  3  0  0  0  0  0  0
  -27.1450  -37.2100   24.6020 C   0  0  0  0  0  1  0  0  0  0  0  0
  -26.0470  -37.3400   23.6470 N   0  0  0  0  0  0  0  0  0  0  0  0
  -25.6070  -38.2440   23.7920 H   0  0  0  0  0  0  0  0  0  0  0  0
  2  4  1  0
  3  1  1  0
  3 10  1  0
  3  4  1  0
  4 50  1  0
  5 55  1  0
  5  1  1  0
  5  2  1  0
  7  6  2  0
  8  6  1  0
  9 10  2  0
  9 11  1  0
 10  7  1  0
 11  8  2  0
 12 20  1  0
 13 18  1  0
 14 15  1  0
 14 13  1  0
 16 15  1  0
 16 25  1  0
 16 17  1  0
 18 12  1  0
 18 17  1  0
 19 12  2  0
 20 11  1  0
 20 21  1  0
 22 23  2  0
 23 42  1  0
 24 23  1  0
 24 27  1  0
 25 26  1  0
 25 22  1  0
 26 24  2  0
 27 28  1  0
 28 29  2  0
 30 33  1  0
 30 29  1  0
 31 30  2  0
 32 31  1  0
 32 27  2  0
 33 34  1  0
 34 35  1  0
 35 36  2  0
 37 36  1  0
 37 41  1  0
 38 37  2  0
 39 34  2  0
 39 38  1  0
 40 39  1  0
 42 43  1  0
 43 46  1  0
 43 45  1  0
 44 42  2  0
 47 48  1  0
 47 22  1  0
 49 47  1  0
 50 53  1  0
 50 52  1  0
 51 50  1  0
 55 54  1  0
 56 57  1  0
 56 55  1  0
 57 59  1  0
 58 69  2  0
 59 64  1  0
 60 68  1  0
 60 70  1  0
 61 67  1  0
 61 63  1  0
 62 68  1  0
 63 62  1  0
 64 63  2  0
 65 66  1  0
 65 59  2  0
 66 61  2  0
 67 60  1  0
 68 58  1  0
 70 72  2  0
 71 70  1  0
 73 71  1  0
 74 83  2  0
 74 79  1  0
 75 71  1  0
 75 79  1  0
 76 75  1  0
 77 78  1  0
 77 76  1  0
 78 74  1  0
 79 80  2  0
 80 81  1  0
 82 81  2  0
 83 82  1  0
 84 58  1  0
 84 89  1  0
 84 85  1  0
 85 88  1  1
 85 86  1  0
 87 85  1  0
 89 92  1  0
 90 94  1  0
 90 89  1  0
 91 90  2  0
 94 93  1  0
 96 94  1  0
 96 97  1  0
 96 95  1  0
M  ISO  4  12 100  20 100  56 101  57 101
M  END
>  <TORSDO>  (77) 
F 20

>  <SCORE>  (77) 
-13.082

>  <name>  (77) 
76

>  <ligand_id>  (77) 
76

>  <original_smiles>  (77) 
[H]c1c([H])c([H])c2c(c1[H])C([H])([H])C([H])([H])C([H])([H])C2([H])N([H])C(=O)C1([H])N(C(=O)C([H])(N([H])C(=O)C([H])(N([H])C([H])([H])[H])C([H])([H])[H])C(C([H])([H])[H])(C([H])([H])[H])C([H])([H])[H])C([H])([H])c2c([H])c(OC([H])([H])C([H])(N3C([H])([H])C([H])(c4c([H])c([H])c([H])c(N([H])C(=O)N5C([H])([H])C([H])([H])C([H])([H])C([H])(n6nc(-c7c([H])c([H])c(Oc8c([H])c([H])c(F)c([H])c8F)c([H])c7[H])c(C(=O)N([H])[H])c6N([H])[H])C5([H])[H])c4[H])C([H])([N+]([H])([H])[H])C3([H])[H])C([H])([H])[H])c([H])c([H])c2C1([H])[H]

>  <smiles>  (77) 
[H]c1c([H])c([H])c2c(c1[H])C([H])([H])C([H])([H])C([H])([H])C2([H])N([H])C(=O)C1([H])N(C(=O)C([H])(N([H])C(=O)C([H])(N([H])C([H])([H])[H])C([H])([H])[H])C(C([H])([H])[H])(C([H])([H])[H])C([H])([H])[H])C([H])([H])c2c([H])c(OC([H])([H])C([H])(N3C([H])([H])C([H])(c4c([H])c([H])c([H])c(N([H])C(=O)N5C([H])([H])C([H])([H])C([H])([H])C([H])(n6nc(-c7c([H])c([H])c(Oc8c([H])c([H])c(F)c([H])c8F)c([H])c7[H])c(C(=O)N([H])[H])c6N([H])[H])C5([H])[H])c4[H])C([H])([N+]([H])([H])[H])C3([H])[H])C([H])([H])[H])c([H])c([H])c2C1([H])[H]

$$$$
77:0:0
     RDKit          3D

104113  0  0  1  0  0  0  0  0999 V2000
  -32.0340  -21.6310   21.4880 C   0  0  0  0  0  2  0  0  0  0  0  0
  -31.9180  -23.0170   22.1210 C   0  0  0  0  0  2  0  0  0  0  0  0
  -31.4740  -20.7280   22.5850 C   0  0  0  0  0  3  0  0  0  0  0  0
  -30.6520  -22.9440   23.0010 C   0  0  0  0  0  3  0  0  0  0  0  0
  -30.0090  -21.1060   24.5720 C   0  0  0  0  0  1  0  0  0  0  0  0
  -30.3620  -21.5010   23.1870 N   0  0  2  0  0  4  0  0  0  0  0  0
  -29.5410  -21.3750   22.6060 H   0  0  0  0  0  0  0  0  0  0  0  0
  -29.8390  -18.7720   22.4230 C   0  0  0  0  0  3  0  0  0  0  0  0
  -29.4740  -17.4760   22.0120 C   0  0  0  0  0  3  0  0  0  0  0  0
  -31.5990  -17.2500   20.8590 C   0  0  0  0  0  3  0  0  0  0  0  0
  -31.9870  -18.5430   21.2780 C   0  0  0  0  0  0  0  0  0  0  0  0
  -31.1040  -19.3170   22.0910 C   0  0  0  0  0  0  0  0  0  0  0  0
  -30.3490  -16.7080   21.2240 C   0  0  0  0  0  0  0  0  0  0  0  0
  -30.6040  -14.5040   20.0970 C   0  0  0  0  0  0  0  0  0  0  0  0
  -30.3250  -12.3520   18.9180 C   0  0  0  0  0  2  0  0  0  0  0  0
  -29.2940  -12.4970   17.7810 C   0  0  0  0  0  2  0  0  0  0  0  0
  -27.8600  -12.2920   18.3050 C   0  0  0  0  0  2  0  0  0  0  0  0
  -27.5640  -13.1280   19.5790 C   0  0  0  0  0  3  0  0  0  0  0  0
  -28.6920  -12.9440   20.6180 C   0  0  0  0  0  2  0  0  0  0  0  0
  -29.9670  -13.3090   19.9730 N   0  0  0  0  0  0  0  0  0  0  0  0
  -31.6320  -14.7890   19.4740 O   0  0  0  0  0  0  0  0  0  0  0  0
  -29.9690  -15.3840   20.8860 N   0  0  0  0  0  0  0  0  0  0  0  0
  -29.0680  -15.0780   21.2200 H   0  0  0  0  0  0  0  0  0  0  0  0
  -25.1990  -13.6440   20.4610 C   0  0  0  0  0  0  0  0  0  0  0  0
  -24.1850  -12.8290   20.8870 C   0  0  0  0  0  0  0  0  0  0  0  0
  -24.6860  -11.4940   20.7930 C   0  0  0  0  0  0  0  0  0  0  0  0
  -26.2540  -12.8030   20.1410 N   0  0  0  0  0  0  0  0  0  0  0  0
  -25.9510  -11.5040   20.3940 N   0  0  0  0  0  0  0  0  0  0  0  0
  -24.0170  -10.2040   21.0050 C   0  0  0  0  0  0  0  0  0  0  0  0
  -24.4640   -9.2930   21.9860 C   0  0  0  0  0  3  0  0  0  0  0  0
  -23.7930   -8.0650   22.1820 C   0  0  0  0  0  3  0  0  0  0  0  0
  -22.6630   -7.7420   21.3960 C   0  0  0  0  0  0  0  0  0  0  0  0
  -22.2360   -8.6420   20.4040 C   0  0  0  0  0  3  0  0  0  0  0  0
  -22.9080   -9.8610   20.2060 C   0  0  0  0  0  3  0  0  0  0  0  0
  -21.9640   -6.5630   21.4980 O   0  0  0  0  0  0  0  0  0  0  0  0
  -21.8050   -5.9230   22.7010 C   0  0  0  0  0  0  0  0  0  0  0  0
  -21.2090   -6.5610   23.8110 C   0  0  0  0  0  3  0  0  0  0  0  0
  -21.0010   -5.8450   25.0070 C   0  0  0  0  0  3  0  0  0  0  0  0
  -21.3790   -4.4920   25.0920 C   0  0  0  0  0  0  0  0  0  0  0  0
  -21.9680   -3.8530   23.9860 C   0  0  0  0  0  3  0  0  0  0  0  0
  -22.1770   -4.5660   22.7930 C   0  0  0  0  0  0  0  0  0  0  0  0
  -22.7250   -3.9410   21.7240 F   0  0  0  0  0  0  0  0  0  0  0  0
  -21.1730   -3.8000   26.2380 F   0  0  0  0  0  0  0  0  0  0  0  0
  -22.7950  -13.2510   21.2690 C   0  0  0  0  0  0  0  0  0  0  0  0
  -22.1630  -12.5280   22.1880 N   0  0  0  0  0  0  0  0  0  0  0  0
  -22.2780  -14.2590   20.7880 O   0  0  0  0  0  0  0  0  0  0  0  0
  -22.5950  -11.7130   22.5970 H   0  0  0  0  0  0  0  0  0  0  0  0
  -21.2360  -12.7940   22.4850 H   0  0  0  0  0  0  0  0  0  0  0  0
  -25.3060  -15.0230   20.3050 N   0  0  0  0  0  0  0  0  0  0  0  0
  -24.5270  -15.6480   20.4790 H   0  0  0  0  0  0  0  0  0  0  0  0
  -26.1120  -15.4960   19.9150 H   0  0  0  0  0  0  0  0  0  0  0  0
  -33.3430  -19.0330   20.8500 C   0  0  0  0  0  0  0  0  0  0  0  0
  -33.6010  -18.9330   19.5540 N   0  0  0  0  0  0  0  0  0  0  0  0
  -34.1570  -19.5000   21.6430 O   0  0  0  0  0  0  0  0  0  0  0  0
  -32.9020  -18.5570   18.9310 H   0  0  0  0  0  0  0  0  0  0  0  0
  -34.4910  -19.2310   19.1850 H   0  0  0  0  0  0  0  0  0  0  0  0
  -29.4520  -23.6330   22.3330 C   0  0  0  0  0  0  0  0  0  0  0  0
  -29.4880  -24.9720   22.2590 N   0  0  0  0  0  0  0  0  0  0  0  0
  -28.5220  -22.9540   21.8920 O   0  0  0  0  0  0  0  0  0  0  0  0
  -30.3140  -25.4190   22.6390 H   0  0  0  0  0  0  0  0  0  0  0  0
  -27.2330  -25.9690   22.5510 C   0  0  0  0  0  1  0  0  0  0  0  0
  -28.4990  -25.8850   21.6790 C   0  0  0  0  0  3  0  0  0  0  0  0
  -28.2030  -25.5890   20.1860 C   0  0  0  0  0  2  0  0  0  0  0  0
  -28.0710  -26.7990   19.4430 O   0  0  0  0  0  0  0  0  0  0  0  0
  -24.4690  -31.7130   23.0920 C   0  0  0  0  0  0  0  0  0  0  0  0
  -26.8920  -27.4860   19.5920 C   0  0  0  0  0  0  0  0  0  0  0  0
  -23.1540  -30.4300   21.4320 C   0  0  0  0  0  3  0  0  0  0  0  0
  -24.5080  -28.9730   19.8370 C   0  0  0  0  0  0  0  0  0  0  0  0
  -25.6640  -30.7920   21.1100 C   0  0  0  0  0  2  0  0  0  0  0  0
  -25.6990  -29.4640   20.3870 C   0  0  0  0  0  0  0  0  0  0  0  0
  -26.8950  -28.7280   20.2570 C   0  0  0  0  0  3  0  0  0  0  0  0
  -25.6880  -26.9950   19.0470 C   0  0  0  0  0  3  0  0  0  0  0  0
  -24.4950  -27.7360   19.1670 C   0  0  0  0  0  3  0  0  0  0  0  0
  -23.2780  -29.8350   20.0030 C   0  0  0  0  0  2  0  0  0  0  0  0
  -24.4500  -30.9880   21.9370 N   0  0  0  0  0  0  0  0  0  0  0  0
  -23.4230  -31.9570   23.7110 O   0  0  0  0  0  0  0  0  0  0  0  0
  -22.5460  -29.3550   22.3600 C   0  0  0  0  0  0  0  0  0  0  0  0
  -21.2250  -29.1500   22.2510 N   0  0  0  0  0  0  0  0  0  0  0  0
  -23.2610  -28.7090   23.1330 O   0  0  0  0  0  0  0  0  0  0  0  0
  -20.7090  -29.7250   21.5990 H   0  0  0  0  0  0  0  0  0  0  0  0
  -17.8960  -27.8250   22.7070 C   0  0  0  0  0  0  0  0  0  0  0  0
  -20.4430  -28.1620   22.9950 C   0  0  0  0  0  3  0  0  0  0  0  0
  -20.5960  -26.7530   22.3790 C   0  0  0  0  0  2  0  0  0  0  0  0
  -19.5080  -26.4200   21.3540 C   0  0  0  0  0  2  0  0  0  0  0  0
  -18.1210  -26.5010   21.9980 C   0  0  0  0  0  2  0  0  0  0  0  0
  -18.9870  -28.6120   23.1620 C   0  0  0  0  0  0  0  0  0  0  0  0
  -18.7230  -29.8510   23.7840 C   0  0  0  0  0  3  0  0  0  0  0  0
  -17.4020  -30.3030   23.9590 C   0  0  0  0  0  3  0  0  0  0  0  0
  -16.3250  -29.5120   23.5240 C   0  0  0  0  0  3  0  0  0  0  0  0
  -16.5730  -28.2740   22.9030 C   0  0  0  0  0  3  0  0  0  0  0  0
  -25.7970  -32.2870   23.6770 C   0  0  0  0  0  3  0  0  0  0  0  0
  -25.5360  -33.6730   24.0890 N   0  0  0  0  0  0  0  0  0  0  0  0
  -25.8850  -34.7540   23.3800 C   0  0  0  0  0  0  0  0  0  0  0  0
  -26.5310  -34.6880   22.3290 O   0  0  0  0  0  0  0  0  0  0  0  0
  -24.9620  -33.8010   24.9080 H   0  0  0  0  0  0  0  0  0  0  0  0
  -24.2100  -36.6140   23.1420 C   0  0  0  0  0  1  0  0  0  0  0  0
  -25.4450  -36.1280   23.9180 C   0  0  0  0  0  3  0  0  0  0  0  0
  -27.6140  -36.8960   24.7720 C   0  0  0  0  0  1  0  0  0  0  0  0
  -26.5080  -37.1540   23.8540 N   0  0  0  0  0  0  0  0  0  0  0  0
  -26.1340  -38.0770   24.0590 H   0  0  0  0  0  0  0  0  0  0  0  0
  -26.3630  -31.4430   24.8830 C   0  0  1  0  0  0  0  0  0  0  0  0
  -25.3130  -31.1470   25.9800 C   0  0  0  0  0  1  0  0  0  0  0  0
  -26.9210  -30.0890   24.3850 C   0  0  0  0  0  1  0  0  0  0  0  0
  -27.5430  -32.1940   25.5430 C   0  0  0  0  0  1  0  0  0  0  0  0
  1  2  1  0
  1  3  1  0
  2  4  1  0
  3 12  1  0
  3  6  1  0
  4 57  1  0
  4  6  1  0
  6  5  1  0
  6  7  1  6
  9  8  2  0
 10 13  2  0
 10 11  1  0
 11 12  2  0
 12  8  1  0
 13  9  1  0
 14 22  1  0
 15 20  1  0
 16 17  1  0
 16 15  1  0
 18 17  1  0
 18 27  1  0
 18 19  1  0
 20 14  1  0
 20 19  1  0
 21 14  2  0
 22 23  1  0
 22 13  1  0
 24 25  2  0
 25 44  1  0
 26 25  1  0
 26 29  1  0
 27 28  1  0
 27 24  1  0
 28 26  2  0
 29 30  1  0
 30 31  2  0
 32 35  1  0
 32 31  1  0
 33 32  2  0
 34 33  1  0
 34 29  2  0
 35 36  1  0
 36 41  2  0
 36 37  1  0
 37 38  2  0
 38 39  1  0
 39 43  1  0
 40 39  2  0
 41 40  1  0
 42 41  1  0
 44 45  1  0
 45 48  1  0
 45 47  1  0
 46 44  2  0
 49 24  1  0
 49 50  1  0
 51 49  1  0
 52 11  1  0
 52 54  2  0
 53 52  1  0
 55 53  1  0
 56 53  1  0
 58 57  1  0
 58 60  1  0
 59 57  2  0
 62 58  1  0
 62 61  1  0
 63 62  1  0
 64 66  1  0
 64 63  1  0
 65 76  2  0
 66 71  1  0
 67 75  1  0
 67 77  1  0
 68 74  1  0
 68 70  1  0
 69 75  1  0
 70 69  1  0
 71 70  2  0
 72 73  1  0
 72 66  2  0
 73 68  2  0
 74 67  1  0
 75 65  1  0
 77 79  2  0
 78 77  1  0
 80 78  1  0
 81 90  2  0
 81 86  1  0
 82 78  1  0
 82 86  1  0
 83 82  1  0
 84 85  1  0
 84 83  1  0
 85 81  1  0
 86 87  2  0
 87 88  1  0
 89 88  2  0
 90 89  1  0
 91 65  1  0
 91 92  1  0
 91101  1  0
 92 95  1  0
 93 97  1  0
 93 92  1  0
 94 93  2  0
 97 96  1  0
 99 97  1  0
 99100  1  0
 99 98  1  0
101104  1  1
101102  1  0
103101  1  0
M  ISO  4  14 100  22 100  63 101  64 101
M  END
>  <TORSDO>  (78) 
F 21

>  <SCORE>  (78) 
-10.280

>  <name>  (78) 
77

>  <ligand_id>  (78) 
77

>  <original_smiles>  (78) 
[H]c1c([H])c([H])c2c(c1[H])C([H])([H])C([H])([H])C([H])([H])C2([H])N([H])C(=O)C1([H])N(C(=O)C([H])(N([H])C(=O)C([H])(N([H])C([H])([H])[H])C([H])([H])[H])C(C([H])([H])[H])(C([H])([H])[H])C([H])([H])[H])C([H])([H])c2c([H])c(OC([H])([H])C([H])(N([H])C(=O)C3([H])C([H])([H])C([H])([H])C([H])(c4c([H])c([H])c(N([H])C(=O)N5C([H])([H])C([H])([H])C([H])([H])C([H])(n6nc(-c7c([H])c([H])c(Oc8c([H])c([H])c(F)c([H])c8F)c([H])c7[H])c(C(=O)N([H])[H])c6N([H])[H])C5([H])[H])c([H])c4C(=O)N([H])[H])[N+]3([H])C([H])([H])[H])C([H])([H])[H])c([H])c([H])c2C1([H])[H]

>  <smiles>  (78) 
[H]c1c([H])c([H])c2c(c1[H])C([H])([H])C([H])([H])C([H])([H])C2([H])N([H])C(=O)C1([H])N(C(=O)C([H])(N([H])C(=O)C([H])(N([H])C([H])([H])[H])C([H])([H])[H])C(C([H])([H])[H])(C([H])([H])[H])C([H])([H])[H])C([H])([H])c2c([H])c(OC([H])([H])C([H])(N([H])C(=O)C3([H])C([H])([H])C([H])([H])C([H])(c4c([H])c([H])c(N([H])C(=O)N5C([H])([H])C([H])([H])C([H])([H])C([H])(n6nc(-c7c([H])c([H])c(Oc8c([H])c([H])c(F)c([H])c8F)c([H])c7[H])c(C(=O)N([H])[H])c6N([H])[H])C5([H])[H])c([H])c4C(=O)N([H])[H])[N+]3([H])C([H])([H])[H])C([H])([H])[H])c([H])c([H])c2C1([H])[H]

$$$$
78:0:0
     RDKit          3D

 97105  0  0  1  0  0  0  0  0999 V2000
  -29.7250  -22.0670   18.9340 C   0  0  0  0  0  1  0  0  0  0  0  0
  -29.1990  -22.2090   20.3720 C   0  0  0  0  0  3  0  0  0  0  0  0
  -29.3220  -23.8030   20.8260 C   0  0  0  0  0  0  0  0  0  0  0  0
  -30.4360  -24.2000   21.1910 O   0  0  0  0  0  0  0  0  0  0  0  0
  -28.1150  -24.8860   20.9320 C   0  0  0  0  0  3  0  0  0  0  0  0
  -26.7310  -24.1570   20.8690 C   0  0  2  0  0  0  0  0  0  0  0  0
  -26.4560  -23.7600   19.6260 F   0  0  0  0  0  0  0  0  0  0  0  0
  -25.7180  -24.8690   21.3640 F   0  0  0  0  0  0  0  0  0  0  0  0
  -26.7350  -23.0760   21.6520 F   0  0  0  0  0  0  0  0  0  0  0  0
  -28.3390  -26.2870   20.3070 O   0  0  0  0  0  0  0  0  0  0  0  0
  -24.5870  -31.8390   23.2070 C   0  0  0  0  0  0  0  0  0  0  0  0
  -27.2820  -27.2400   20.2260 C   0  0  0  0  0  0  0  0  0  0  0  0
  -23.4340  -30.4350   21.5430 C   0  0  0  0  0  3  0  0  0  0  0  0
  -24.9340  -28.9120   20.1300 C   0  0  0  0  0  0  0  0  0  0  0  0
  -25.9790  -30.7580   21.4230 C   0  0  0  0  0  2  0  0  0  0  0  0
  -26.0880  -29.3780   20.7740 C   0  0  0  0  0  0  0  0  0  0  0  0
  -27.2670  -28.5520   20.8160 C   0  0  0  0  0  3  0  0  0  0  0  0
  -26.1420  -26.9050   19.4680 C   0  0  0  0  0  3  0  0  0  0  0  0
  -24.9670  -27.6810   19.4630 C   0  0  0  0  0  3  0  0  0  0  0  0
  -23.6900  -29.7810   20.1610 C   0  0  0  0  0  2  0  0  0  0  0  0
  -24.6850  -31.0270   22.1120 N   0  0  0  0  0  0  0  0  0  0  0  0
  -23.4900  -32.1090   23.7140 O   0  0  0  0  0  0  0  0  0  0  0  0
  -22.7610  -29.4040   22.4840 C   0  0  0  0  0  0  0  0  0  0  0  0
  -21.4370  -29.2170   22.3370 N   0  0  0  0  0  0  0  0  0  0  0  0
  -23.4320  -28.7770   23.3050 O   0  0  0  0  0  0  0  0  0  0  0  0
  -20.9570  -29.7760   21.6460 H   0  0  0  0  0  0  0  0  0  0  0  0
  -18.0540  -28.0220   22.8310 C   0  0  0  0  0  0  0  0  0  0  0  0
  -20.6130  -28.2720   23.0920 C   0  0  0  0  0  3  0  0  0  0  0  0
  -20.7120  -26.8490   22.4960 C   0  0  0  0  0  2  0  0  0  0  0  0
  -19.6050  -26.5410   21.4850 C   0  0  0  0  0  2  0  0  0  0  0  0
  -18.2220  -26.6820   22.1300 C   0  0  0  0  0  2  0  0  0  0  0  0
  -19.1750  -28.7750   23.2720 C   0  0  0  0  0  0  0  0  0  0  0  0
  -18.9570  -30.0280   23.8870 C   0  0  0  0  0  3  0  0  0  0  0  0
  -17.6490  -30.5240   24.0690 C   0  0  0  0  0  3  0  0  0  0  0  0
  -16.5440  -29.7680   23.6430 C   0  0  0  0  0  3  0  0  0  0  0  0
  -16.7480  -28.5190   23.0270 C   0  0  0  0  0  3  0  0  0  0  0  0
  -25.8510  -32.4840   23.8540 C   0  0  0  0  0  3  0  0  0  0  0  0
  -25.5220  -33.8780   24.1710 N   0  0  0  0  0  0  0  0  0  0  0  0
  -25.8510  -34.9340   23.4150 C   0  0  0  0  0  0  0  0  0  0  0  0
  -26.5350  -34.8330   22.3920 O   0  0  0  0  0  0  0  0  0  0  0  0
  -24.9160  -34.0240   24.9680 H   0  0  0  0  0  0  0  0  0  0  0  0
  -24.1170  -36.7130   23.0200 C   0  0  0  0  0  1  0  0  0  0  0  0
  -25.3430  -36.3180   23.8580 C   0  0  0  0  0  3  0  0  0  0  0  0
  -27.4490  -37.2280   24.7300 C   0  0  0  0  0  1  0  0  0  0  0  0
  -26.3700  -37.3780   23.7580 N   0  0  0  0  0  0  0  0  0  0  0  0
  -25.9580  -38.2980   23.8900 H   0  0  0  0  0  0  0  0  0  0  0  0
  -26.3370  -31.7230   25.1500 C   0  0  1  0  0  0  0  0  0  0  0  0
  -25.2100  -31.4910   26.1860 C   0  0  0  0  0  1  0  0  0  0  0  0
  -26.9430  -30.3450   24.7910 C   0  0  0  0  0  1  0  0  0  0  0  0
  -27.4640  -32.5330   25.8350 C   0  0  0  0  0  1  0  0  0  0  0  0
  -29.8580  -21.1700   21.2630 N   0  0  0  0  0  0  0  0  0  0  0  0
  -30.5200  -21.6780   21.8480 H   0  0  0  0  0  0  0  0  0  0  0  0
  -32.0930  -17.5010   20.7690 C   0  0  0  0  0  3  0  0  0  0  0  0
  -32.6900  -18.7730   20.8740 C   0  0  0  0  0  3  0  0  0  0  0  0
  -29.9020  -18.5720   20.7880 C   0  0  0  0  0  3  0  0  0  0  0  0
  -30.6850  -17.3320   20.6950 C   0  0  0  0  0  0  0  0  0  0  0  0
  -30.4980  -19.9010   20.9380 C   0  0  0  0  0  0  0  0  0  0  0  0
  -31.9130  -19.9400   20.9610 C   0  0  0  0  0  0  0  0  0  0  0  0
  -32.5480  -21.1250   21.1340 F   0  0  0  0  0  0  0  0  0  0  0  0
  -30.7040  -14.7740   20.1100 C   0  0  0  0  0  0  0  0  0  0  0  0
  -30.3250  -12.5630   18.9990 C   0  0  0  0  0  2  0  0  0  0  0  0
  -29.3220  -12.6870   17.8310 C   0  0  0  0  0  2  0  0  0  0  0  0
  -27.8790  -12.5160   18.3390 C   0  0  0  0  0  2  0  0  0  0  0  0
  -27.5870  -13.3540   19.6090 C   0  0  0  0  0  3  0  0  0  0  0  0
  -28.7120  -13.2480   20.6650 C   0  0  0  0  0  2  0  0  0  0  0  0
  -29.9810  -13.6030   20.0100 N   0  0  0  0  0  0  0  0  0  0  0  0
  -31.8300  -14.8020   19.6120 O   0  0  0  0  0  0  0  0  0  0  0  0
  -30.1230  -15.9460   20.5970 N   0  0  0  0  0  0  0  0  0  0  0  0
  -29.1650  -15.8460   20.8960 H   0  0  0  0  0  0  0  0  0  0  0  0
  -25.2270  -13.9060   20.4650 C   0  0  0  0  0  0  0  0  0  0  0  0
  -24.1830  -13.1190   20.8640 C   0  0  0  0  0  0  0  0  0  0  0  0
  -24.6520  -11.7740   20.7880 C   0  0  0  0  0  0  0  0  0  0  0  0
  -26.2680  -13.0420   20.1620 N   0  0  0  0  0  0  0  0  0  0  0  0
  -25.9280  -11.7500   20.4150 N   0  0  0  0  0  0  0  0  0  0  0  0
  -23.9400  -10.5030   20.9860 C   0  0  0  0  0  0  0  0  0  0  0  0
  -24.3930   -9.5430   21.9180 C   0  0  0  0  0  3  0  0  0  0  0  0
  -23.6800   -8.3400   22.1140 C   0  0  0  0  0  3  0  0  0  0  0  0
  -22.4980   -8.0880   21.3770 C   0  0  0  0  0  0  0  0  0  0  0  0
  -22.0570   -9.0400   20.4390 C   0  0  0  0  0  3  0  0  0  0  0  0
  -22.7710  -10.2350   20.2420 C   0  0  0  0  0  3  0  0  0  0  0  0
  -21.7570   -6.9330   21.4800 O   0  0  0  0  0  0  0  0  0  0  0  0
  -21.7080   -6.2070   22.6430 C   0  0  0  0  0  0  0  0  0  0  0  0
  -21.2320   -6.7650   23.8500 C   0  0  0  0  0  3  0  0  0  0  0  0
  -21.1390   -5.9650   25.0080 C   0  0  0  0  0  3  0  0  0  0  0  0
  -21.5030   -4.6060   24.9560 C   0  0  0  0  0  0  0  0  0  0  0  0
  -21.9740   -4.0460   23.7540 C   0  0  0  0  0  3  0  0  0  0  0  0
  -22.0720   -4.8450   22.5990 C   0  0  0  0  0  0  0  0  0  0  0  0
  -22.5060   -4.2960   21.4410 F   0  0  0  0  0  0  0  0  0  0  0  0
  -21.4080   -3.8370   26.0660 F   0  0  0  0  0  0  0  0  0  0  0  0
  -22.8000  -13.5860   21.2140 C   0  0  0  0  0  0  0  0  0  0  0  0
  -22.1130  -12.8720   22.0960 N   0  0  0  0  0  0  0  0  0  0  0  0
  -22.3380  -14.6240   20.7430 O   0  0  0  0  0  0  0  0  0  0  0  0
  -22.4940  -12.0310   22.5020 H   0  0  0  0  0  0  0  0  0  0  0  0
  -21.1930  -13.1780   22.3780 H   0  0  0  0  0  0  0  0  0  0  0  0
  -25.3750  -15.2820   20.3230 N   0  0  0  0  0  0  0  0  0  0  0  0
  -24.6180  -15.9260   20.5300 H   0  0  0  0  0  0  0  0  0  0  0  0
  -26.2120  -15.7430   19.9900 H   0  0  0  0  0  0  0  0  0  0  0  0
  2  1  1  0
  2  3  1  0
  2 51  1  0
  3  5  1  0
  3  4  2  0
  5 10  1  0
  6  5  1  0
  6  8  1  1
  6  9  1  0
  7  6  1  0
 11 22  2  0
 12 10  1  0
 12 17  1  0
 13 21  1  0
 13 23  1  0
 14 20  1  0
 14 16  1  0
 15 21  1  0
 16 17  2  0
 16 15  1  0
 18 12  2  0
 19 18  1  0
 19 14  2  0
 20 13  1  0
 21 11  1  0
 23 25  2  0
 24 23  1  0
 26 24  1  0
 27 36  2  0
 27 32  1  0
 28 24  1  0
 28 32  1  0
 29 28  1  0
 30 31  1  0
 30 29  1  0
 31 27  1  0
 32 33  2  0
 33 34  1  0
 35 34  2  0
 36 35  1  0
 37 11  1  0
 37 38  1  0
 37 47  1  0
 38 41  1  0
 39 43  1  0
 39 38  1  0
 40 39  2  0
 43 42  1  0
 45 43  1  0
 45 46  1  0
 45 44  1  0
 47 50  1  1
 47 48  1  0
 49 47  1  0
 51 52  1  0
 53 54  1  0
 54 58  2  0
 55 57  2  0
 56 53  2  0
 56 55  1  0
 57 58  1  0
 57 51  1  0
 58 59  1  0
 60 68  1  0
 61 66  1  0
 62 63  1  0
 62 61  1  0
 64 63  1  0
 64 73  1  0
 64 65  1  0
 66 60  1  0
 66 65  1  0
 67 60  2  0
 68 56  1  0
 68 69  1  0
 70 71  2  0
 71 90  1  0
 72 71  1  0
 72 75  1  0
 73 74  1  0
 73 70  1  0
 74 72  2  0
 75 76  1  0
 76 77  2  0
 78 81  1  0
 78 77  1  0
 79 78  2  0
 80 79  1  0
 80 75  2  0
 81 82  1  0
 82 83  1  0
 83 84  2  0
 85 84  1  0
 85 89  1  0
 86 85  2  0
 87 82  2  0
 87 86  1  0
 88 87  1  0
 90 91  1  0
 91 94  1  0
 91 93  1  0
 92 90  2  0
 95 70  1  0
 95 96  1  0
 97 95  1  0
M  ISO  4   5 101  10 101  60 100  68 100
M  END
>  <TORSDO>  (79) 
F 21

>  <SCORE>  (79) 
-14.037

>  <name>  (79) 
78

>  <ligand_id>  (79) 
78

>  <original_smiles>  (79) 
[H]c1c([H])c([H])c2c(c1[H])C([H])([H])C([H])([H])C([H])([H])C2([H])N([H])C(=O)C1([H])N(C(=O)C([H])(N([H])C(=O)C([H])(N([H])C([H])([H])[H])C([H])([H])[H])C(C([H])([H])[H])(C([H])([H])[H])C([H])([H])[H])C([H])([H])c2c([H])c(OC([H])(C(=O)C([H])(N([H])c3c([H])c(N([H])C(=O)N4C([H])([H])C([H])([H])C([H])([H])C([H])(n5nc(-c6c([H])c([H])c(Oc7c([H])c([H])c(F)c([H])c7F)c([H])c6[H])c(C(=O)N([H])[H])c5N([H])[H])C4([H])[H])c([H])c([H])c3F)C([H])([H])[H])C(F)(F)F)c([H])c([H])c2C1([H])[H]

>  <smiles>  (79) 
[H]c1c([H])c([H])c2c(c1[H])C([H])([H])C([H])([H])C([H])([H])C2([H])N([H])C(=O)C1([H])N(C(=O)C([H])(N([H])C(=O)C([H])(N([H])C([H])([H])[H])C([H])([H])[H])C(C([H])([H])[H])(C([H])([H])[H])C([H])([H])[H])C([H])([H])c2c([H])c(OC([H])(C(=O)C([H])(N([H])c3c([H])c(N([H])C(=O)N4C([H])([H])C([H])([H])C([H])([H])C([H])(n5nc(-c6c([H])c([H])c(Oc7c([H])c([H])c(F)c([H])c7F)c([H])c6[H])c(C(=O)N([H])[H])c5N([H])[H])C4([H])[H])c([H])c([H])c3F)C([H])([H])[H])C(F)(F)F)c([H])c([H])c2C1([H])[H]

$$$$
79:0:0
     RDKit          3D

 99107  0  0  1  0  0  0  0  0999 V2000
  -28.5630  -21.4950   20.0680 C   0  0  0  0  0  3  0  0  0  0  0  0
  -29.5280  -18.4950   20.0650 C   0  0  0  0  0  0  0  0  0  0  0  0
  -28.6680  -20.4820   21.2500 C   0  0  0  0  0  0  0  0  0  0  0  0
  -29.1640  -19.2240   21.1410 N   0  0  0  0  0  0  0  0  0  0  0  0
  -29.0960  -18.7330   18.9230 O   0  0  0  0  0  0  0  0  0  0  0  0
  -28.3270  -20.8840   22.3630 O   0  0  0  0  0  0  0  0  0  0  0  0
  -29.3530  -18.7850   22.0310 H   0  0  0  0  0  0  0  0  0  0  0  0
  -31.8130  -15.2300   19.4310 C   0  0  0  0  0  0  0  0  0  0  0  0
  -31.4120  -12.8940   18.7590 C   0  0  0  0  0  2  0  0  0  0  0  0
  -30.4000  -12.8640   17.5970 C   0  0  0  0  0  2  0  0  0  0  0  0
  -28.9560  -12.8380   18.1400 C   0  0  0  0  0  2  0  0  0  0  0  0
  -28.7020  -13.9150   19.2310 C   0  0  0  0  0  3  0  0  0  0  0  0
  -29.8280  -13.9220   20.2880 C   0  0  0  0  0  2  0  0  0  0  0  0
  -31.0920  -14.0850   19.5660 N   0  0  0  0  0  0  0  0  0  0  0  0
  -32.9750  -15.1960   19.0220 O   0  0  0  0  0  0  0  0  0  0  0  0
  -31.8090  -18.1830   19.7360 C   0  0  0  0  0  2  0  0  0  0  0  0
  -31.6610  -17.4600   18.4290 C   0  0  0  0  0  2  0  0  0  0  0  0
  -30.6030  -17.3610   20.3200 C   0  0  0  0  0  3  0  0  0  0  0  0
  -31.1080  -16.3910   19.2680 N   0  0  0  0  0  0  0  0  0  0  0  0
  -26.4940  -14.7380   20.2570 C   0  0  0  0  0  0  0  0  0  0  0  0
  -25.3830  -14.0630   20.6900 C   0  0  0  0  0  0  0  0  0  0  0  0
  -25.6610  -12.6740   20.4960 C   0  0  0  0  0  0  0  0  0  0  0  0
  -27.3860  -13.7620   19.8420 N   0  0  0  0  0  0  0  0  0  0  0  0
  -26.8960  -12.5110   20.0430 N   0  0  0  0  0  0  0  0  0  0  0  0
  -24.8010  -11.4930   20.6630 C   0  0  0  0  0  0  0  0  0  0  0  0
  -25.1730  -10.4230   21.5050 C   0  0  0  0  0  3  0  0  0  0  0  0
  -24.3230   -9.3070   21.6670 C   0  0  0  0  0  3  0  0  0  0  0  0
  -23.0830   -9.2560   20.9870 C   0  0  0  0  0  0  0  0  0  0  0  0
  -22.7270  -10.3130   20.1280 C   0  0  0  0  0  3  0  0  0  0  0  0
  -23.5780  -11.4190   19.9660 C   0  0  0  0  0  3  0  0  0  0  0  0
  -22.2060   -8.2020   21.0610 O   0  0  0  0  0  0  0  0  0  0  0  0
  -22.0360   -7.4840   22.2180 C   0  0  0  0  0  0  0  0  0  0  0  0
  -21.6230   -8.0970   23.4210 C   0  0  0  0  0  3  0  0  0  0  0  0
  -21.3940   -7.3120   24.5690 C   0  0  0  0  0  3  0  0  0  0  0  0
  -21.5710   -5.9170   24.5130 C   0  0  0  0  0  0  0  0  0  0  0  0
  -21.9780   -5.3030   23.3160 C   0  0  0  0  0  3  0  0  0  0  0  0
  -22.2040   -6.0850   22.1700 C   0  0  0  0  0  0  0  0  0  0  0  0
  -22.5770   -5.4890   21.0110 F   0  0  0  0  0  0  0  0  0  0  0  0
  -21.3410   -5.1610   25.6120 F   0  0  0  0  0  0  0  0  0  0  0  0
  -24.0920  -14.6730   21.1610 C   0  0  0  0  0  0  0  0  0  0  0  0
  -23.3940  -14.0120   22.0780 N   0  0  0  0  0  0  0  0  0  0  0  0
  -23.7210  -15.7710   20.7510 O   0  0  0  0  0  0  0  0  0  0  0  0
  -23.7160  -13.1240   22.4390 H   0  0  0  0  0  0  0  0  0  0  0  0
  -22.5270  -14.3970   22.4250 H   0  0  0  0  0  0  0  0  0  0  0  0
  -26.8110  -16.0880   20.1630 N   0  0  0  0  0  0  0  0  0  0  0  0
  -26.1190  -16.8030   20.3590 H   0  0  0  0  0  0  0  0  0  0  0  0
  -27.6470  -16.4680   19.7350 H   0  0  0  0  0  0  0  0  0  0  0  0
  -27.1690  -21.5140   19.3370 C   0  0  0  0  0  2  0  0  0  0  0  0
  -25.4640  -22.9850   20.5230 C   0  0  0  0  0  1  0  0  0  0  0  0
  -25.4480  -22.7440   18.0950 C   0  0  0  0  0  1  0  0  0  0  0  0
  -26.2960  -22.7380   19.3150 N   0  0  2  0  0  4  0  0  0  0  0  0
  -26.8590  -23.5680   19.2190 H   0  0  0  0  0  0  0  0  0  0  0  0
  -29.3280  -22.8560   20.3290 C   0  0  0  0  0  2  0  0  0  0  0  0
  -27.8620  -24.4540   21.5410 C   0  0  0  0  0  1  0  0  0  0  0  0
  -28.5340  -24.1290   20.2530 N   0  0  1  0  0  4  0  0  0  0  0  0
  -27.7960  -23.9350   19.5990 H   0  0  0  0  0  0  0  0  0  0  0  0
  -29.2160  -25.2820   19.5600 C   0  0  0  0  0  2  0  0  0  0  0  0
  -29.4130  -26.6180   20.3410 C   0  0  0  0  0  2  0  0  0  0  0  0
  -29.1410  -27.7620   19.5180 O   0  0  0  0  0  0  0  0  0  0  0  0
  -24.5720  -31.5580   23.4260 C   0  0  0  0  0  0  0  0  0  0  0  0
  -27.8550  -28.2400   19.6440 C   0  0  0  0  0  0  0  0  0  0  0  0
  -23.5700  -30.1500   21.6540 C   0  0  0  0  0  3  0  0  0  0  0  0
  -25.2090  -29.1640   19.9690 C   0  0  0  0  0  0  0  0  0  0  0  0
  -25.9420  -31.0790   21.4010 C   0  0  0  0  0  2  0  0  0  0  0  0
  -26.2690  -29.8520   20.5750 C   0  0  0  0  0  0  0  0  0  0  0  0
  -27.5970  -29.4020   20.4080 C   0  0  0  0  0  3  0  0  0  0  0  0
  -26.7800  -27.5640   19.0300 C   0  0  0  0  0  3  0  0  0  0  0  0
  -25.4600  -28.0180   19.1940 C   0  0  0  0  0  3  0  0  0  0  0  0
  -23.8190  -29.7110   20.1870 C   0  0  0  0  0  2  0  0  0  0  0  0
  -24.7120  -30.9430   22.2180 N   0  0  0  0  0  0  0  0  0  0  0  0
  -23.5030  -31.5130   24.0470 O   0  0  0  0  0  0  0  0  0  0  0  0
  -23.2220  -28.8970   22.4890 C   0  0  0  0  0  0  0  0  0  0  0  0
  -22.0310  -28.3270   22.2470 N   0  0  0  0  0  0  0  0  0  0  0  0
  -24.0230  -28.4420   23.3120 O   0  0  0  0  0  0  0  0  0  0  0  0
  -21.4340  -28.7570   21.5540 H   0  0  0  0  0  0  0  0  0  0  0  0
  -19.2870  -25.9850   22.2040 C   0  0  0  0  0  0  0  0  0  0  0  0
  -21.5110  -27.1160   22.8790 C   0  0  0  0  0  3  0  0  0  0  0  0
  -22.2070  -25.8530   22.3120 C   0  0  0  0  0  2  0  0  0  0  0  0
  -21.4510  -25.2280   21.1360 C   0  0  0  0  0  2  0  0  0  0  0  0
  -20.0360  -24.8280   21.5680 C   0  0  0  0  0  2  0  0  0  0  0  0
  -19.9800  -27.0680   22.8060 C   0  0  0  0  0  0  0  0  0  0  0  0
  -19.2340  -28.1360   23.3550 C   0  0  0  0  0  3  0  0  0  0  0  0
  -17.8280  -28.1270   23.3110 C   0  0  0  0  0  3  0  0  0  0  0  0
  -17.1500  -27.0430   22.7290 C   0  0  0  0  0  3  0  0  0  0  0  0
  -17.8760  -25.9770   22.1730 C   0  0  0  0  0  3  0  0  0  0  0  0
  -25.7390  -32.3650   24.0760 C   0  0  0  0  0  3  0  0  0  0  0  0
  -25.2680  -33.7420   24.2650 N   0  0  0  0  0  0  0  0  0  0  0  0
  -25.5810  -34.7680   23.4610 C   0  0  0  0  0  0  0  0  0  0  0  0
  -26.3610  -34.6620   22.5100 O   0  0  0  0  0  0  0  0  0  0  0  0
  -24.5860  -33.8930   24.9930 H   0  0  0  0  0  0  0  0  0  0  0  0
  -23.7390  -36.3450   22.7980 C   0  0  0  0  0  1  0  0  0  0  0  0
  -24.9220  -36.1250   23.7550 C   0  0  0  0  0  3  0  0  0  0  0  0
  -26.8720  -37.2730   24.7070 C   0  0  0  0  0  1  0  0  0  0  0  0
  -25.8560  -37.2680   23.6580 N   0  0  0  0  0  0  0  0  0  0  0  0
  -25.3530  -38.1500   23.7000 H   0  0  0  0  0  0  0  0  0  0  0  0
  -26.2370  -31.7530   25.4450 C   0  0  1  0  0  0  0  0  0  0  0  0
  -25.1060  -31.4920   26.4640 C   0  0  0  0  0  1  0  0  0  0  0  0
  -26.9690  -30.4120   25.2060 C   0  0  0  0  0  1  0  0  0  0  0  0
  -27.2610  -32.7050   26.1050 C   0  0  0  0  0  1  0  0  0  0  0  0
  1 48  1  0
  1 53  1  0
  1  3  1  0
  2  4  1  0
  3  6  2  0
  4  3  1  0
  4  7  1  0
  5  2  2  0
  8 14  1  0
  9 14  1  0
 10 11  1  0
 10  9  1  0
 12 11  1  0
 12 23  1  0
 12 13  1  0
 14 13  1  0
 15  8  2  0
 16 18  1  0
 17 19  1  0
 17 16  1  0
 18  2  1  0
 19  8  1  0
 19 18  1  0
 20 21  2  0
 21 40  1  0
 22 25  1  0
 22 21  1  0
 23 24  1  0
 23 20  1  0
 24 22  2  0
 25 26  1  0
 26 27  2  0
 28 31  1  0
 28 27  1  0
 29 28  2  0
 30 29  1  0
 30 25  2  0
 31 32  1  0
 32 33  1  0
 33 34  2  0
 35 34  1  0
 35 39  1  0
 36 35  2  0
 37 32  2  0
 37 36  1  0
 38 37  1  0
 40 41  1  0
 41 44  1  0
 41 43  1  0
 42 40  2  0
 45 20  1  0
 45 46  1  0
 47 45  1  0
 50 51  1  0
 51 48  1  0
 51 49  1  0
 51 52  1  6
 55 53  1  0
 55 54  1  0
 55 56  1  6
 57 55  1  0
 57 58  1  0
 59 61  1  0
 59 58  1  0
 60 71  2  0
 61 66  1  0
 62 70  1  0
 62 72  1  0
 63 69  1  0
 63 65  1  0
 64 70  1  0
 65 64  1  0
 66 65  2  0
 67 68  1  0
 67 61  2  0
 68 63  2  0
 69 62  1  0
 70 60  1  0
 72 74  2  0
 73 72  1  0
 75 73  1  0
 76 81  1  0
 77 73  1  0
 78 77  1  0
 79 80  1  0
 79 78  1  0
 80 76  1  0
 81 77  1  0
 81 82  2  0
 83 82  1  0
 84 83  2  0
 85 76  2  0
 85 84  1  0
 86 60  1  0
 86 87  1  0
 86 96  1  0
 87 90  1  0
 88 92  1  0
 88 87  1  0
 89 88  2  0
 92 91  1  0
 94 95  1  0
 94 92  1  0
 94 93  1  0
 96 99  1  1
 96 97  1  0
 98 96  1  0
M  ISO  4   8 100  19 100  58 101  59 101
M  END
>  <TORSDO>  (80) 
F 23

>  <SCORE>  (80) 
-7.742

>  <name>  (80) 
79

>  <ligand_id>  (80) 
79

>  <original_smiles>  (80) 
[H]c1c([H])c([H])c2c(c1[H])C([H])([H])C([H])([H])C([H])([H])C2([H])N([H])C(=O)C1([H])N(C(=O)C([H])(N([H])C(=O)C([H])(N([H])C([H])([H])[H])C([H])([H])[H])C(C([H])([H])[H])(C([H])([H])[H])C([H])([H])[H])C([H])([H])c2c([H])c(OC([H])([H])C([H])([H])[N+]([H])(C([H])([H])[H])C([H])([H])C([H])(C(=O)N([H])C(=O)C3([H])N(C(=O)N4C([H])([H])C([H])([H])C([H])([H])C([H])(n5nc(-c6c([H])c([H])c(Oc7c([H])c([H])c(F)c([H])c7F)c([H])c6[H])c(C(=O)N([H])[H])c5N([H])[H])C4([H])[H])C([H])([H])C3([H])[H])C([H])([H])[N+]([H])(C([H])([H])[H])C([H])([H])[H])c([H])c([H])c2C1([H])[H]

>  <smiles>  (80) 
[H]c1c([H])c([H])c2c(c1[H])C([H])([H])C([H])([H])C([H])([H])C2([H])N([H])C(=O)C1([H])N(C(=O)C([H])(N([H])C(=O)C([H])(N([H])C([H])([H])[H])C([H])([H])[H])C(C([H])([H])[H])(C([H])([H])[H])C([H])([H])[H])C([H])([H])c2c([H])c(OC([H])([H])C([H])([H])[N+]([H])(C([H])([H])[H])C([H])([H])C([H])(C(=O)N([H])C(=O)C3([H])N(C(=O)N4C([H])([H])C([H])([H])C([H])([H])C([H])(n5nc(-c6c([H])c([H])c(Oc7c([H])c([H])c(F)c([H])c7F)c([H])c6[H])c(C(=O)N([H])[H])c5N([H])[H])C4([H])[H])C([H])([H])C3([H])[H])C([H])([H])[N+]([H])(C([H])([H])[H])C([H])([H])[H])c([H])c([H])c2C1([H])[H]

$$$$
80:0:0
     RDKit          3D

 92100  0  0  1  0  0  0  0  0999 V2000
  -27.4520  -21.6760   21.0650 C   0  0  0  0  0  1  0  0  0  0  0  0
  -28.8460  -21.9060   20.4370 C   0  0  1  0  0  0  0  0  0  0  0  0
  -28.8070  -18.3580   18.6060 C   0  0  0  0  0  2  0  0  0  0  0  0
  -28.6480  -19.9380   18.6230 C   0  0  0  0  0  2  0  0  0  0  0  0
  -29.6550  -19.2090   20.6090 C   0  0  0  0  0  2  0  0  0  0  0  0
  -29.8650  -17.8960   19.6450 C   0  0  0  0  0  3  0  0  0  0  0  0
  -29.3730  -20.5170   19.7920 N   0  0  2  0  0  4  0  0  0  0  0  0
  -30.2840  -20.7460   19.4230 H   0  0  0  0  0  0  0  0  0  0  0  0
  -30.5840  -15.2050   19.9070 C   0  0  0  0  0  0  0  0  0  0  0  0
  -30.4910  -12.8110   19.0630 C   0  0  0  0  0  2  0  0  0  0  0  0
  -29.5070  -12.7100   17.8730 C   0  0  0  0  0  2  0  0  0  0  0  0
  -28.0700  -12.4820   18.3780 C   0  0  0  0  0  2  0  0  0  0  0  0
  -27.6960  -13.4380   19.5410 C   0  0  0  0  0  3  0  0  0  0  0  0
  -28.7980  -13.5000   20.6210 C   0  0  0  0  0  2  0  0  0  0  0  0
  -30.0330  -13.9220   19.9480 N   0  0  0  0  0  0  0  0  0  0  0  0
  -31.7550  -15.2980   19.5220 O   0  0  0  0  0  0  0  0  0  0  0  0
  -29.7690  -16.3630   20.0880 N   0  0  0  0  0  0  0  0  0  0  0  0
  -28.8550  -16.1150   20.4370 H   0  0  0  0  0  0  0  0  0  0  0  0
  -25.3670  -14.0030   20.4340 C   0  0  0  0  0  0  0  0  0  0  0  0
  -24.3250  -13.2220   20.8470 C   0  0  0  0  0  0  0  0  0  0  0  0
  -24.7820  -11.8710   20.7530 C   0  0  0  0  0  0  0  0  0  0  0  0
  -26.3900  -13.1290   20.1090 N   0  0  0  0  0  0  0  0  0  0  0  0
  -26.0510  -11.8390   20.3660 N   0  0  0  0  0  0  0  0  0  0  0  0
  -24.0640  -10.6060   20.9520 C   0  0  0  0  0  0  0  0  0  0  0  0
  -24.5160   -9.6330   21.8720 C   0  0  0  0  0  3  0  0  0  0  0  0
  -23.7940   -8.4340   22.0590 C   0  0  0  0  0  3  0  0  0  0  0  0
  -22.6070   -8.1990   21.3270 C   0  0  0  0  0  0  0  0  0  0  0  0
  -22.1730   -9.1590   20.3960 C   0  0  0  0  0  3  0  0  0  0  0  0
  -22.8950  -10.3490   20.2070 C   0  0  0  0  0  3  0  0  0  0  0  0
  -21.8550   -7.0530   21.4240 O   0  0  0  0  0  0  0  0  0  0  0  0
  -21.7940   -6.3290   22.5890 C   0  0  0  0  0  0  0  0  0  0  0  0
  -21.3310   -6.8980   23.7950 C   0  0  0  0  0  3  0  0  0  0  0  0
  -21.2180   -6.1020   24.9510 C   0  0  0  0  0  3  0  0  0  0  0  0
  -21.5570   -4.7360   24.9020 C   0  0  0  0  0  0  0  0  0  0  0  0
  -22.0130   -4.1660   23.7000 C   0  0  0  0  0  3  0  0  0  0  0  0
  -22.1280   -4.9610   22.5460 C   0  0  0  0  0  0  0  0  0  0  0  0
  -22.5470   -4.4010   21.3850 F   0  0  0  0  0  0  0  0  0  0  0  0
  -21.4420   -3.9670   26.0100 F   0  0  0  0  0  0  0  0  0  0  0  0
  -22.9470  -13.6940   21.2100 C   0  0  0  0  0  0  0  0  0  0  0  0
  -22.2670  -12.9790   22.0970 N   0  0  0  0  0  0  0  0  0  0  0  0
  -22.4880  -14.7360   20.7420 O   0  0  0  0  0  0  0  0  0  0  0  0
  -22.6510  -12.1350   22.4950 H   0  0  0  0  0  0  0  0  0  0  0  0
  -21.3460  -13.2810   22.3850 H   0  0  0  0  0  0  0  0  0  0  0  0
  -25.5270  -15.3770   20.2810 N   0  0  0  0  0  0  0  0  0  0  0  0
  -24.7670  -16.0300   20.4440 H   0  0  0  0  0  0  0  0  0  0  0  0
  -26.3430  -15.8180   19.8810 H   0  0  0  0  0  0  0  0  0  0  0  0
  -28.6850  -23.3650   19.5530 C   0  0  0  0  0  2  0  0  0  0  0  0
  -27.9580  -24.8050   20.1200 C   0  0  0  0  0  2  0  0  0  0  0  0
  -28.1560  -26.3060   19.7040 O   0  0  0  0  0  0  0  0  0  0  0  0
  -24.6120  -31.8820   23.0560 C   0  0  0  0  0  0  0  0  0  0  0  0
  -27.0920  -27.2860   19.7640 C   0  0  0  0  0  0  0  0  0  0  0  0
  -23.3580  -30.5410   21.4120 C   0  0  0  0  0  3  0  0  0  0  0  0
  -24.7570  -29.0240   19.8760 C   0  0  0  0  0  0  0  0  0  0  0  0
  -25.8990  -30.8270   21.1590 C   0  0  0  0  0  2  0  0  0  0  0  0
  -25.9590  -29.4560   20.4560 C   0  0  0  0  0  0  0  0  0  0  0  0
  -27.1280  -28.6050   20.3780 C   0  0  0  0  0  3  0  0  0  0  0  0
  -25.8650  -26.9620   19.1480 C   0  0  0  0  0  3  0  0  0  0  0  0
  -24.7230  -27.7920   19.2070 C   0  0  0  0  0  3  0  0  0  0  0  0
  -23.5300  -29.9150   20.0030 C   0  0  0  0  0  2  0  0  0  0  0  0
  -24.6450  -31.1030   21.9310 N   0  0  0  0  0  0  0  0  0  0  0  0
  -23.5450  -32.1400   23.6350 O   0  0  0  0  0  0  0  0  0  0  0  0
  -22.7180  -29.4950   22.3630 C   0  0  0  0  0  0  0  0  0  0  0  0
  -21.3900  -29.3070   22.2650 N   0  0  0  0  0  0  0  0  0  0  0  0
  -23.4210  -28.8570   23.1510 O   0  0  0  0  0  0  0  0  0  0  0  0
  -20.8770  -29.8760   21.6080 H   0  0  0  0  0  0  0  0  0  0  0  0
  -18.0510  -28.0000   22.7890 C   0  0  0  0  0  0  0  0  0  0  0  0
  -20.6050  -28.3320   23.0290 C   0  0  0  0  0  3  0  0  0  0  0  0
  -20.7400  -26.9130   22.4270 C   0  0  0  0  0  2  0  0  0  0  0  0
  -19.6340  -26.5780   21.4200 C   0  0  0  0  0  2  0  0  0  0  0  0
  -18.2570  -26.6700   22.0830 C   0  0  0  0  0  2  0  0  0  0  0  0
  -19.1530  -28.7870   23.2180 C   0  0  0  0  0  0  0  0  0  0  0  0
  -18.9040  -30.0300   23.8400 C   0  0  0  0  0  3  0  0  0  0  0  0
  -17.5880  -30.4890   24.0320 C   0  0  0  0  0  3  0  0  0  0  0  0
  -16.5010  -29.6990   23.6160 C   0  0  0  0  0  3  0  0  0  0  0  0
  -16.7340  -28.4550   23.0020 C   0  0  0  0  0  3  0  0  0  0  0  0
  -25.9110  -32.5010   23.6590 C   0  0  0  0  0  3  0  0  0  0  0  0
  -25.6050  -33.8850   24.0500 N   0  0  0  0  0  0  0  0  0  0  0  0
  -25.9260  -34.9720   23.3360 C   0  0  0  0  0  0  0  0  0  0  0  0
  -26.5770  -34.9130   22.2890 O   0  0  0  0  0  0  0  0  0  0  0  0
  -25.0200  -34.0030   24.8650 H   0  0  0  0  0  0  0  0  0  0  0  0
  -24.2020  -36.7910   23.0950 C   0  0  0  0  0  1  0  0  0  0  0  0
  -25.4540  -36.3410   23.8650 C   0  0  0  0  0  3  0  0  0  0  0  0
  -27.6050  -37.1840   24.7000 C   0  0  0  0  0  1  0  0  0  0  0  0
  -26.4890  -37.3940   23.7810 N   0  0  0  0  0  0  0  0  0  0  0  0
  -26.0910  -38.3080   23.9750 H   0  0  0  0  0  0  0  0  0  0  0  0
  -26.4680  -31.6910   24.8930 C   0  0  1  0  0  0  0  0  0  0  0  0
  -25.4120  -31.4240   25.9920 C   0  0  0  0  0  1  0  0  0  0  0  0
  -27.0340  -30.3230   24.4440 C   0  0  0  0  0  1  0  0  0  0  0  0
  -27.6460  -32.4630   25.5360 C   0  0  0  0  0  1  0  0  0  0  0  0
  -29.8550  -22.2570   21.5650 C   0  0  0  0  0  2  0  0  0  0  0  0
  -30.7310  -21.5570   23.6520 C   0  0  0  0  0  1  0  0  0  0  0  0
  -29.7700  -21.3190   22.6340 O   0  0  0  0  0  0  0  0  0  0  0  0
  2  1  1  1
  2 90  1  0
  3  4  1  0
  3  6  1  0
  4  7  1  0
  6 17  1  0
  6  5  1  0
  7  2  1  0
  7  5  1  0
  7  8  1  6
  9 15  1  0
  9 17  1  0
 10 15  1  0
 11 12  1  0
 11 10  1  0
 13 12  1  0
 13 22  1  0
 13 14  1  0
 15 14  1  0
 16  9  2  0
 17 18  1  0
 19 20  2  0
 20 39  1  0
 21 20  1  0
 21 24  1  0
 22 23  1  0
 22 19  1  0
 23 21  2  0
 24 25  1  0
 25 26  2  0
 27 30  1  0
 27 26  1  0
 28 27  2  0
 29 28  1  0
 29 24  2  0
 30 31  1  0
 31 32  1  0
 32 33  2  0
 34 33  1  0
 34 38  1  0
 35 34  2  0
 36 31  2  0
 36 35  1  0
 37 36  1  0
 39 40  1  0
 40 43  1  0
 40 42  1  0
 41 39  2  0
 44 19  1  0
 44 45  1  0
 46 44  1  0
 47 48  1  0
 47  2  1  0
 49 51  1  0
 49 48  1  0
 50 61  2  0
 51 56  1  0
 52 60  1  0
 52 62  1  0
 53 59  1  0
 53 55  1  0
 54 60  1  0
 55 54  1  0
 56 55  2  0
 57 58  1  0
 57 51  2  0
 58 53  2  0
 59 52  1  0
 60 50  1  0
 62 64  2  0
 63 62  1  0
 65 63  1  0
 66 75  2  0
 66 71  1  0
 67 63  1  0
 67 71  1  0
 68 67  1  0
 69 70  1  0
 69 68  1  0
 70 66  1  0
 71 72  2  0
 72 73  1  0
 74 73  2  0
 75 74  1  0
 76 50  1  0
 76 77  1  0
 76 86  1  0
 77 80  1  0
 78 82  1  0
 78 77  1  0
 79 78  2  0
 82 81  1  0
 84 82  1  0
 84 85  1  0
 84 83  1  0
 86 89  1  1
 86 87  1  0
 88 86  1  0
 90 92  1  0
 92 91  1  0
M  ISO  4   9 100  17 100  48 101  49 101
M  END
>  <TORSDO>  (81) 
F 21

>  <SCORE>  (81) 
-14.202

>  <name>  (81) 
80

>  <ligand_id>  (81) 
80

>  <original_smiles>  (81) 
[H]c1c([H])c([H])c2c(c1[H])C([H])([H])C([H])([H])C([H])([H])C2([H])N([H])C(=O)C1([H])N(C(=O)C([H])(N([H])C(=O)C([H])(N([H])C([H])([H])[H])C([H])([H])[H])C(C([H])([H])[H])(C([H])([H])[H])C([H])([H])[H])C([H])([H])c2c([H])c(OC([H])([H])C([H])([H])C(C([H])([H])[H])(C([H])([H])OC([H])([H])[H])[N+]3([H])C([H])([H])C([H])([H])C([H])(N([H])C(=O)N4C([H])([H])C([H])([H])C([H])([H])C([H])(n5nc(-c6c([H])c([H])c(Oc7c([H])c([H])c(F)c([H])c7F)c([H])c6[H])c(C(=O)N([H])[H])c5N([H])[H])C4([H])[H])C3([H])[H])c([H])c([H])c2C1([H])[H]

>  <smiles>  (81) 
[H]c1c([H])c([H])c2c(c1[H])C([H])([H])C([H])([H])C([H])([H])C2([H])N([H])C(=O)C1([H])N(C(=O)C([H])(N([H])C(=O)C([H])(N([H])C([H])([H])[H])C([H])([H])[H])C(C([H])([H])[H])(C([H])([H])[H])C([H])([H])[H])C([H])([H])c2c([H])c(OC([H])([H])C([H])([H])C(C([H])([H])[H])(C([H])([H])OC([H])([H])[H])[N+]3([H])C([H])([H])C([H])([H])C([H])(N([H])C(=O)N4C([H])([H])C([H])([H])C([H])([H])C([H])(n5nc(-c6c([H])c([H])c(Oc7c([H])c([H])c(F)c([H])c7F)c([H])c6[H])c(C(=O)N([H])[H])c5N([H])[H])C4([H])[H])C3([H])[H])c([H])c([H])c2C1([H])[H]

$$$$
81:0:0
     RDKit          3D

 93101  0  0  1  0  0  0  0  0999 V2000
  -30.7340  -19.9770   20.3400 C   0  0  0  0  0  3  0  0  0  0  0  0
  -30.8320  -18.5240   20.4060 C   0  0  0  0  0  3  0  0  0  0  0  0
  -28.3900  -19.8610   20.1850 C   0  0  0  0  0  3  0  0  0  0  0  0
  -29.5140  -20.7540   20.2230 C   0  0  0  0  0  0  0  0  0  0  0  0
  -29.7060  -17.6460   20.3370 C   0  0  0  0  0  0  0  0  0  0  0  0
  -28.4870  -18.4040   20.2120 C   0  0  0  0  0  0  0  0  0  0  0  0
  -30.4920  -14.9860   20.2580 C   0  0  0  0  0  0  0  0  0  0  0  0
  -30.3710  -12.6450   19.2910 C   0  0  0  0  0  2  0  0  0  0  0  0
  -29.4130  -12.6380   18.0770 C   0  0  0  0  0  2  0  0  0  0  0  0
  -27.9530  -12.4320   18.5260 C   0  0  0  0  0  2  0  0  0  0  0  0
  -27.5710  -13.3290   19.7330 C   0  0  0  0  0  3  0  0  0  0  0  0
  -28.6490  -13.3010   20.8370 C   0  0  0  0  0  2  0  0  0  0  0  0
  -29.9150  -13.7160   20.2180 N   0  0  0  0  0  0  0  0  0  0  0  0
  -31.6880  -15.0830   19.9630 O   0  0  0  0  0  0  0  0  0  0  0  0
  -29.6510  -16.1140   20.4230 N   0  0  0  0  0  0  0  0  0  0  0  0
  -28.7010  -15.8200   20.5880 H   0  0  0  0  0  0  0  0  0  0  0  0
  -25.1940  -13.8970   20.5040 C   0  0  0  0  0  0  0  0  0  0  0  0
  -24.1350  -13.1180   20.8760 C   0  0  0  0  0  0  0  0  0  0  0  0
  -24.6040  -11.7710   20.8380 C   0  0  0  0  0  0  0  0  0  0  0  0
  -26.2400  -13.0250   20.2480 N   0  0  0  0  0  0  0  0  0  0  0  0
  -25.8930  -11.7390   20.5140 N   0  0  0  0  0  0  0  0  0  0  0  0
  -23.8820  -10.5070   21.0330 C   0  0  0  0  0  0  0  0  0  0  0  0
  -24.3250   -9.5390   21.9610 C   0  0  0  0  0  3  0  0  0  0  0  0
  -23.6010   -8.3410   22.1460 C   0  0  0  0  0  3  0  0  0  0  0  0
  -22.4200   -8.1040   21.4030 C   0  0  0  0  0  0  0  0  0  0  0  0
  -21.9960   -9.0610   20.4650 C   0  0  0  0  0  3  0  0  0  0  0  0
  -22.7210  -10.2500   20.2780 C   0  0  0  0  0  3  0  0  0  0  0  0
  -21.6660   -6.9590   21.4970 O   0  0  0  0  0  0  0  0  0  0  0  0
  -21.6300   -6.2140   22.6480 C   0  0  0  0  0  0  0  0  0  0  0  0
  -21.2160   -6.7640   23.8810 C   0  0  0  0  0  3  0  0  0  0  0  0
  -21.1290   -5.9440   25.0240 C   0  0  0  0  0  3  0  0  0  0  0  0
  -21.4440   -4.5750   24.9360 C   0  0  0  0  0  0  0  0  0  0  0  0
  -21.8510   -4.0240   23.7070 C   0  0  0  0  0  3  0  0  0  0  0  0
  -21.9410   -4.8410   22.5670 C   0  0  0  0  0  0  0  0  0  0  0  0
  -22.3130   -4.3000   21.3820 F   0  0  0  0  0  0  0  0  0  0  0  0
  -21.3530   -3.7860   26.0320 F   0  0  0  0  0  0  0  0  0  0  0  0
  -22.7400  -13.5930   21.1640 C   0  0  0  0  0  0  0  0  0  0  0  0
  -22.0200  -12.8930   22.0330 N   0  0  0  0  0  0  0  0  0  0  0  0
  -22.2990  -14.6230   20.6550 O   0  0  0  0  0  0  0  0  0  0  0  0
  -22.3900  -12.0600   22.4660 H   0  0  0  0  0  0  0  0  0  0  0  0
  -21.0850  -13.1930   22.2660 H   0  0  0  0  0  0  0  0  0  0  0  0
  -25.3380  -15.2710   20.3470 N   0  0  0  0  0  0  0  0  0  0  0  0
  -24.5610  -15.8950   20.5360 H   0  0  0  0  0  0  0  0  0  0  0  0
  -26.2070  -15.7790   20.2250 H   0  0  0  0  0  0  0  0  0  0  0  0
  -28.5910  -23.3320   20.3890 C   0  0  0  0  0  0  0  0  0  0  0  0
  -30.7390  -22.7630   19.3610 C   0  0  0  0  0  1  0  0  0  0  0  0
  -29.4960  -22.2910   19.9910 N   0  0  0  0  0  0  0  0  0  0  0  0
  -27.8360  -23.1100   21.3400 O   0  0  0  0  0  0  0  0  0  0  0  0
  -28.3760  -24.8120   19.6340 C   0  0  0  0  0  2  0  0  0  0  0  0
  -28.2950  -26.2040   20.3390 O   0  0  0  0  0  0  0  0  0  0  0  0
  -24.6180  -31.8880   23.2430 C   0  0  0  0  0  0  0  0  0  0  0  0
  -27.2260  -27.1740   20.2150 C   0  0  0  0  0  0  0  0  0  0  0  0
  -23.4290  -30.4880   21.6010 C   0  0  0  0  0  3  0  0  0  0  0  0
  -24.8870  -28.9180   20.1800 C   0  0  0  0  0  0  0  0  0  0  0  0
  -25.9840  -30.7550   21.4500 C   0  0  0  0  0  2  0  0  0  0  0  0
  -26.0620  -29.3630   20.7970 C   0  0  0  0  0  0  0  0  0  0  0  0
  -27.2250  -28.5030   20.8050 C   0  0  0  0  0  3  0  0  0  0  0  0
  -26.0210  -26.8370   19.5520 C   0  0  0  0  0  3  0  0  0  0  0  0
  -24.8800  -27.6690   19.5450 C   0  0  0  0  0  3  0  0  0  0  0  0
  -23.6570  -29.8120   20.2230 C   0  0  0  0  0  2  0  0  0  0  0  0
  -24.6970  -31.0660   22.1520 N   0  0  0  0  0  0  0  0  0  0  0  0
  -23.5280  -32.1730   23.7630 O   0  0  0  0  0  0  0  0  0  0  0  0
  -22.7480  -29.4810   22.5620 C   0  0  0  0  0  0  0  0  0  0  0  0
  -21.4200  -29.3130   22.4330 N   0  0  0  0  0  0  0  0  0  0  0  0
  -23.4170  -28.8540   23.3860 O   0  0  0  0  0  0  0  0  0  0  0  0
  -20.9380  -29.8690   21.7400 H   0  0  0  0  0  0  0  0  0  0  0  0
  -18.0330  -28.1300   22.9410 C   0  0  0  0  0  0  0  0  0  0  0  0
  -20.5950  -28.3770   23.2020 C   0  0  0  0  0  3  0  0  0  0  0  0
  -20.6870  -26.9480   22.6220 C   0  0  0  0  0  2  0  0  0  0  0  0
  -19.5800  -26.6340   21.6100 C   0  0  0  0  0  2  0  0  0  0  0  0
  -18.2000  -26.7830   22.2590 C   0  0  0  0  0  2  0  0  0  0  0  0
  -19.1570  -28.8850   23.3700 C   0  0  0  0  0  0  0  0  0  0  0  0
  -18.9450  -30.1440   23.9720 C   0  0  0  0  0  3  0  0  0  0  0  0
  -17.6420  -30.6490   24.1470 C   0  0  0  0  0  3  0  0  0  0  0  0
  -16.5340  -29.8910   23.7320 C   0  0  0  0  0  3  0  0  0  0  0  0
  -16.7300  -28.6330   23.1350 C   0  0  0  0  0  3  0  0  0  0  0  0
  -25.8910  -32.5280   23.8760 C   0  0  0  0  0  3  0  0  0  0  0  0
  -26.3870  -31.7710   25.1700 C   0  0  1  0  0  0  0  0  0  0  0  0
  -25.2780  -31.5520   26.2260 C   0  0  0  0  0  1  0  0  0  0  0  0
  -26.9710  -30.3870   24.8080 C   0  0  0  0  0  1  0  0  0  0  0  0
  -27.5310  -32.5690   25.8370 C   0  0  0  0  0  1  0  0  0  0  0  0
  -25.5780  -33.9310   24.1920 N   0  0  0  0  0  0  0  0  0  0  0  0
  -25.9170  -34.9810   23.4330 C   0  0  0  0  0  0  0  0  0  0  0  0
  -26.5940  -34.8710   22.4080 O   0  0  0  0  0  0  0  0  0  0  0  0
  -24.9780  -34.0890   24.9880 H   0  0  0  0  0  0  0  0  0  0  0  0
  -24.1960  -36.7790   23.0630 C   0  0  0  0  0  1  0  0  0  0  0  0
  -25.4320  -36.3740   23.8830 C   0  0  0  0  0  3  0  0  0  0  0  0
  -27.5630  -37.2590   24.7220 C   0  0  0  0  0  1  0  0  0  0  0  0
  -26.4670  -37.4240   23.7710 N   0  0  0  0  0  0  0  0  0  0  0  0
  -26.0620  -38.3460   23.9090 H   0  0  0  0  0  0  0  0  0  0  0  0
  -27.3200  -17.6650   20.0380 N   0  0  0  0  0  0  0  0  0  0  0  0
  -26.4860  -18.2360   19.9360 H   0  0  0  0  0  0  0  0  0  0  0  0
  -27.3840  -17.0510   19.2340 H   0  0  0  0  0  0  0  0  0  0  0  0
  1  2  1  0
  3  6  2  0
  3  4  1  0
  4  1  2  0
  5  2  2  0
  5 15  1  0
  6  5  1  0
  7 15  1  0
  8 13  1  0
  9 10  1  0
  9  8  1  0
 11 10  1  0
 11 20  1  0
 11 12  1  0
 13  7  1  0
 13 12  1  0
 14  7  2  0
 15 16  1  0
 17 18  2  0
 18 37  1  0
 19 18  1  0
 19 22  1  0
 20 17  1  0
 20 21  1  0
 21 19  2  0
 22 23  1  0
 23 24  2  0
 25 28  1  0
 25 24  1  0
 26 25  2  0
 27 26  1  0
 27 22  2  0
 28 29  1  0
 29 30  1  0
 30 31  2  0
 32 31  1  0
 32 36  1  0
 33 32  2  0
 34 29  2  0
 34 33  1  0
 35 34  1  0
 37 38  1  0
 38 41  1  0
 38 40  1  0
 39 37  2  0
 42 17  1  0
 42 43  1  0
 44 42  1  0
 45 48  2  0
 46 47  1  0
 47  4  1  0
 47 45  1  0
 49 50  1  0
 49 45  1  0
 51 62  2  0
 52 50  1  0
 52 57  1  0
 53 61  1  0
 53 63  1  0
 54 60  1  0
 54 56  1  0
 55 61  1  0
 56 57  2  0
 56 55  1  0
 58 52  2  0
 59 58  1  0
 59 54  2  0
 60 53  1  0
 61 51  1  0
 63 65  2  0
 64 63  1  0
 66 64  1  0
 67 76  2  0
 67 72  1  0
 68 64  1  0
 68 72  1  0
 69 68  1  0
 70 71  1  0
 70 69  1  0
 71 67  1  0
 72 73  2  0
 73 74  1  0
 75 74  2  0
 76 75  1  0
 77 51  1  0
 77 82  1  0
 77 78  1  0
 78 81  1  1
 78 79  1  0
 80 78  1  0
 82 85  1  0
 83 87  1  0
 83 82  1  0
 84 83  2  0
 87 86  1  0
 89 87  1  0
 89 90  1  0
 89 88  1  0
 91  6  1  0
 92 91  1  0
 93 91  1  0
M  ISO  4   7 100  15 100  49 101  50 101
M  END
>  <TORSDO>  (82) 
F 19

>  <SCORE>  (82) 
-14.828

>  <name>  (82) 
81

>  <ligand_id>  (82) 
81

>  <original_smiles>  (82) 
[H]c1c([H])c([H])c2c(c1[H])C([H])([H])C([H])([H])C([H])([H])C2([H])N([H])C(=O)C1([H])N(C(=O)C([H])(N([H])C(=O)C([H])(N([H])C([H])([H])[H])C([H])([H])[H])C(C([H])([H])[H])(C([H])([H])[H])C([H])([H])[H])C([H])([H])c2c([H])c(OC([H])([H])C(=O)N(c3c([H])c([H])c(N([H])C(=O)N4C([H])([H])C([H])([H])C([H])([H])C([H])(n5nc(-c6c([H])c([H])c(Oc7c([H])c([H])c(F)c([H])c7F)c([H])c6[H])c(C(=O)N([H])[H])c5N([H])[H])C4([H])[H])c(N([H])[H])c3[H])C([H])([H])[H])c([H])c([H])c2C1([H])[H]

>  <smiles>  (82) 
[H]c1c([H])c([H])c2c(c1[H])C([H])([H])C([H])([H])C([H])([H])C2([H])N([H])C(=O)C1([H])N(C(=O)C([H])(N([H])C(=O)C([H])(N([H])C([H])([H])[H])C([H])([H])[H])C(C([H])([H])[H])(C([H])([H])[H])C([H])([H])[H])C([H])([H])c2c([H])c(OC([H])([H])C(=O)N(c3c([H])c([H])c(N([H])C(=O)N4C([H])([H])C([H])([H])C([H])([H])C([H])(n5nc(-c6c([H])c([H])c(Oc7c([H])c([H])c(F)c([H])c7F)c([H])c6[H])c(C(=O)N([H])[H])c5N([H])[H])C4([H])[H])c(N([H])[H])c3[H])C([H])([H])[H])c([H])c([H])c2C1([H])[H]

$$$$
82:0:0
     RDKit          3D

 99108  0  0  1  0  0  0  0  0999 V2000
  -28.4750  -19.9790   19.9040 C   0  0  0  0  0  0  0  0  0  0  0  0
  -29.6910  -19.4120   19.6880 N   0  0  0  0  0  0  0  0  0  0  0  0
  -27.5650  -19.3250   20.4150 O   0  0  0  0  0  0  0  0  0  0  0  0
  -30.3890  -20.0680   19.3730 H   0  0  0  0  0  0  0  0  0  0  0  0
  -29.9060  -22.1360   17.8770 C   0  0  0  0  0  2  0  0  0  0  0  0
  -28.4860  -21.5480   17.8870 C   0  0  0  0  0  2  0  0  0  0  0  0
  -30.1150  -22.7490   19.2780 C   0  0  0  0  0  2  0  0  0  0  0  0
  -28.1400  -21.4410   19.3750 C   0  0  0  0  0  3  0  0  0  0  0  0
  -28.8050  -22.6620   19.9680 N   0  0  2  0  0  4  0  0  0  0  0  0
  -28.9250  -22.5070   20.9610 H   0  0  0  0  0  0  0  0  0  0  0  0
  -28.0310  -23.9640   19.7550 C   0  0  0  0  0  2  0  0  0  0  0  0
  -28.4060  -25.1770   20.6880 C   0  0  0  0  0  2  0  0  0  0  0  0
  -28.4340  -26.5290   20.1250 O   0  0  0  0  0  0  0  0  0  0  0  0
  -24.6500  -31.8280   23.1690 C   0  0  0  0  0  0  0  0  0  0  0  0
  -27.2790  -27.3010   20.1450 C   0  0  0  0  0  0  0  0  0  0  0  0
  -23.4470  -30.4110   21.5400 C   0  0  0  0  0  3  0  0  0  0  0  0
  -24.8990  -28.8510   20.1340 C   0  0  0  0  0  0  0  0  0  0  0  0
  -25.9790  -30.7560   21.3410 C   0  0  0  0  0  2  0  0  0  0  0  0
  -26.0630  -29.3720   20.7150 C   0  0  0  0  0  0  0  0  0  0  0  0
  -27.2590  -28.6060   20.7100 C   0  0  0  0  0  3  0  0  0  0  0  0
  -26.1000  -26.8100   19.5540 C   0  0  0  0  0  3  0  0  0  0  0  0
  -24.9150  -27.5720   19.5490 C   0  0  0  0  0  3  0  0  0  0  0  0
  -23.6600  -29.7140   20.1690 C   0  0  0  0  0  2  0  0  0  0  0  0
  -24.7120  -31.0160   22.0750 N   0  0  0  0  0  0  0  0  0  0  0  0
  -23.5680  -32.1020   23.7080 O   0  0  0  0  0  0  0  0  0  0  0  0
  -22.8000  -29.3990   22.5130 C   0  0  0  0  0  0  0  0  0  0  0  0
  -21.4850  -29.1730   22.3590 N   0  0  0  0  0  0  0  0  0  0  0  0
  -23.4800  -28.8140   23.3600 O   0  0  0  0  0  0  0  0  0  0  0  0
  -20.9940  -29.6950   21.6460 H   0  0  0  0  0  0  0  0  0  0  0  0
  -18.1420  -27.8620   22.7940 C   0  0  0  0  0  0  0  0  0  0  0  0
  -20.6790  -28.2320   23.1360 C   0  0  0  0  0  3  0  0  0  0  0  0
  -20.8540  -26.7840   22.6150 C   0  0  0  0  0  2  0  0  0  0  0  0
  -19.8000  -26.3840   21.5780 C   0  0  0  0  0  2  0  0  0  0  0  0
  -18.3920  -26.4990   22.1720 C   0  0  0  0  0  2  0  0  0  0  0  0
  -19.2160  -28.6810   23.2340 C   0  0  0  0  0  0  0  0  0  0  0  0
  -18.9300  -29.9540   23.7730 C   0  0  0  0  0  3  0  0  0  0  0  0
  -17.6030  -30.4080   23.8770 C   0  0  0  0  0  3  0  0  0  0  0  0
  -16.5420  -29.5860   23.4540 C   0  0  0  0  0  3  0  0  0  0  0  0
  -16.8130  -28.3150   22.9160 C   0  0  0  0  0  3  0  0  0  0  0  0
  -25.9340  -32.4710   23.7800 C   0  0  0  0  0  3  0  0  0  0  0  0
  -25.6110  -33.8590   24.1360 N   0  0  0  0  0  0  0  0  0  0  0  0
  -25.9160  -34.9260   23.3850 C   0  0  0  0  0  0  0  0  0  0  0  0
  -26.5700  -34.8430   22.3410 O   0  0  0  0  0  0  0  0  0  0  0  0
  -25.0300  -33.9930   24.9500 H   0  0  0  0  0  0  0  0  0  0  0  0
  -24.1690  -36.7080   23.0610 C   0  0  0  0  0  1  0  0  0  0  0  0
  -25.4170  -36.3030   23.8650 C   0  0  0  0  0  3  0  0  0  0  0  0
  -27.5400  -37.2020   24.7110 C   0  0  0  0  0  1  0  0  0  0  0  0
  -26.4390  -37.3670   23.7660 N   0  0  0  0  0  0  0  0  0  0  0  0
  -26.0230  -38.2810   23.9170 H   0  0  0  0  0  0  0  0  0  0  0  0
  -26.4820  -31.6910   25.0390 C   0  0  1  0  0  0  0  0  0  0  0  0
  -25.4070  -31.4230   26.1170 C   0  0  0  0  0  1  0  0  0  0  0  0
  -27.0870  -30.3290   24.6240 C   0  0  0  0  0  1  0  0  0  0  0  0
  -27.6260  -32.4990   25.6980 C   0  0  0  0  0  1  0  0  0  0  0  0
  -31.0230  -18.1180   17.5300 C   0  0  0  0  0  2  0  0  0  0  0  0
  -31.5780  -18.0600   18.9560 C   0  0  0  0  0  2  0  0  0  0  0  0
  -29.7260  -17.5230   18.0900 C   0  0  0  0  0  2  0  0  0  0  0  0
  -30.1370  -17.9780   19.5160 C   0  0  2  0  0  0  0  0  0  0  0  0
  -29.8360  -16.9860   20.7180 C   0  0  0  0  0  0  0  0  0  0  0  0
  -30.6270  -14.5250   20.0180 C   0  0  0  0  0  0  0  0  0  0  0  0
  -30.3640  -12.3200   18.9070 C   0  0  0  0  0  2  0  0  0  0  0  0
  -29.3440  -12.4970   17.7600 C   0  0  0  0  0  2  0  0  0  0  0  0
  -27.8960  -12.3470   18.2790 C   0  0  0  0  0  2  0  0  0  0  0  0
  -27.6290  -13.1870   19.5580 C   0  0  0  0  0  3  0  0  0  0  0  0
  -28.7500  -12.9600   20.5970 C   0  0  0  0  0  2  0  0  0  0  0  0
  -30.0260  -13.3050   19.9470 N   0  0  0  0  0  0  0  0  0  0  0  0
  -31.7640  -14.7170   19.5800 O   0  0  0  0  0  0  0  0  0  0  0  0
  -29.7900  -15.5150   20.4400 N   0  0  0  0  0  4  0  0  0  0  0  0
  -28.8840  -15.1310   20.6660 H   0  0  0  0  0  0  0  0  0  0  0  0
  -25.3030  -13.8190   20.4600 C   0  0  0  0  0  0  0  0  0  0  0  0
  -24.2480  -13.0570   20.8790 C   0  0  0  0  0  0  0  0  0  0  0  0
  -24.6710  -11.6990   20.7680 C   0  0  0  0  0  0  0  0  0  0  0  0
  -26.3090  -12.9240   20.1230 N   0  0  0  0  0  0  0  0  0  0  0  0
  -25.9360  -11.6430   20.3660 N   0  0  0  0  0  0  0  0  0  0  0  0
  -23.9330  -10.4470   20.9680 C   0  0  0  0  0  0  0  0  0  0  0  0
  -24.3720   -9.4670   21.8860 C   0  0  0  0  0  3  0  0  0  0  0  0
  -23.6330   -8.2780   22.0710 C   0  0  0  0  0  3  0  0  0  0  0  0
  -22.4420   -8.0630   21.3390 C   0  0  0  0  0  0  0  0  0  0  0  0
  -22.0240   -9.0300   20.4070 C   0  0  0  0  0  3  0  0  0  0  0  0
  -22.7630  -10.2080   20.2200 C   0  0  0  0  0  3  0  0  0  0  0  0
  -21.6760   -6.9270   21.4330 O   0  0  0  0  0  0  0  0  0  0  0  0
  -21.5950   -6.2080   22.5980 C   0  0  0  0  0  0  0  0  0  0  0  0
  -21.1130   -6.7810   23.7950 C   0  0  0  0  0  3  0  0  0  0  0  0
  -20.9780   -5.9870   24.9510 C   0  0  0  0  0  3  0  0  0  0  0  0
  -21.3180   -4.6210   24.9120 C   0  0  0  0  0  0  0  0  0  0  0  0
  -21.7930   -4.0470   23.7190 C   0  0  0  0  0  3  0  0  0  0  0  0
  -21.9280   -4.8380   22.5650 C   0  0  0  0  0  0  0  0  0  0  0  0
  -22.3660   -4.2760   21.4120 F   0  0  0  0  0  0  0  0  0  0  0  0
  -21.1810   -3.8570   26.0200 F   0  0  0  0  0  0  0  0  0  0  0  0
  -22.8840  -13.5550   21.2650 C   0  0  0  0  0  0  0  0  0  0  0  0
  -22.2070  -12.8540   22.1640 N   0  0  0  0  0  0  0  0  0  0  0  0
  -22.4360  -14.6060   20.8040 O   0  0  0  0  0  0  0  0  0  0  0  0
  -22.5830  -12.0060   22.5650 H   0  0  0  0  0  0  0  0  0  0  0  0
  -21.2950  -13.1710   22.4610 H   0  0  0  0  0  0  0  0  0  0  0  0
  -25.4880  -15.1920   20.3150 N   0  0  0  0  0  0  0  0  0  0  0  0
  -24.7340  -15.8510   20.4760 H   0  0  0  0  0  0  0  0  0  0  0  0
  -26.3000  -15.6260   19.8970 H   0  0  0  0  0  0  0  0  0  0  0  0
  -32.0130  -16.8280   22.1550 C   0  0  0  0  0  1  0  0  0  0  0  0
  -30.3480  -18.6730   22.6030 C   0  0  0  0  0  1  0  0  0  0  0  0
  -30.5350  -17.2400   22.0840 C   0  0  0  0  0  3  0  0  0  0  0  0
  1  3  2  0
  2  1  1  0
  4  2  1  0
  5  6  1  0
  5  7  1  0
  6  8  1  0
  7  9  1  0
  8  1  1  0
  8  9  1  0
  9 10  1  1
 11  9  1  0
 11 12  1  0
 13 15  1  0
 13 12  1  0
 14 25  2  0
 15 20  1  0
 16 24  1  0
 16 26  1  0
 17 23  1  0
 17 19  1  0
 18 24  1  0
 19 18  1  0
 20 19  2  0
 21 15  2  0
 22 21  1  0
 22 17  2  0
 23 16  1  0
 24 14  1  0
 26 28  2  0
 27 26  1  0
 29 27  1  0
 30 39  2  0
 30 35  1  0
 31 27  1  0
 31 35  1  0
 32 31  1  0
 33 34  1  0
 33 32  1  0
 34 30  1  0
 35 36  2  0
 36 37  1  0
 38 37  2  0
 39 38  1  0
 40 14  1  0
 40 41  1  0
 40 50  1  0
 41 44  1  0
 42 46  1  0
 42 41  1  0
 43 42  2  0
 46 45  1  0
 48 46  1  0
 48 49  1  0
 48 47  1  0
 50 53  1  1
 50 51  1  0
 52 50  1  0
 54 56  1  0
 54 55  1  0
 55 57  1  0
 56 57  1  0
 57  2  1  1
 57 58  1  0
 58 99  1  0
 59 67  1  0
 60 65  1  0
 61 62  1  0
 61 60  1  0
 63 62  1  0
 63 72  1  0
 63 64  1  0
 65 59  1  0
 65 64  1  0
 66 59  2  0
 67 68  1  0
 67 58  2  3
 69 70  2  0
 70 89  1  0
 71 70  1  0
 71 74  1  0
 72 73  1  0
 72 69  1  0
 73 71  2  0
 74 75  1  0
 75 76  2  0
 77 80  1  0
 77 76  1  0
 78 77  2  0
 79 78  1  0
 79 74  2  0
 80 81  1  0
 81 82  1  0
 82 83  2  0
 84 83  1  0
 84 88  1  0
 85 84  2  0
 86 81  2  0
 86 85  1  0
 87 86  1  0
 89 90  1  0
 90 93  1  0
 90 92  1  0
 91 89  2  0
 94 69  1  0
 94 95  1  0
 96 94  1  0
 99 97  1  0
 99 98  1  0
M  ISO  4  12 101  13 101  59 100  67 100
M  END
>  <TORSDO>  (83) 
F 22

>  <SCORE>  (83) 
-11.350

>  <name>  (83) 
82

>  <ligand_id>  (83) 
82

>  <original_smiles>  (83) 
[H]c1c([H])c([H])c2c(c1[H])C([H])([H])C([H])([H])C([H])([H])C2([H])N([H])C(=O)C1([H])N(C(=O)C([H])(N([H])C(=O)C([H])(N([H])C([H])([H])[H])C([H])([H])[H])C(C([H])([H])[H])(C([H])([H])[H])C([H])([H])[H])C([H])([H])c2c([H])c(OC([H])([H])C([H])([H])[N+]3([H])C([H])([H])C([H])([H])C([H])([H])C3([H])C(=O)N([H])C3(C([H])(N([H])C(=O)N4C([H])([H])C([H])([H])C([H])([H])C([H])(n5nc(-c6c([H])c([H])c(Oc7c([H])c([H])c(F)c([H])c7F)c([H])c6[H])c(C(=O)N([H])[H])c5N([H])[H])C4([H])[H])C([H])(C([H])([H])[H])C([H])([H])[H])C([H])([H])C([H])([H])C3([H])[H])c([H])c([H])c2C1([H])[H]

>  <smiles>  (83) 
[H]c1c([H])c([H])c2c(c1[H])C([H])([H])C([H])([H])C([H])([H])C2([H])N([H])C(=O)C1([H])N(C(=O)C([H])(N([H])C(=O)C([H])(N([H])C([H])([H])[H])C([H])([H])[H])C(C([H])([H])[H])(C([H])([H])[H])C([H])([H])[H])C([H])([H])c2c([H])c(OC([H])([H])C([H])([H])[N+]3([H])C([H])([H])C([H])([H])C([H])([H])C3([H])C(=O)N([H])C3(C([H])(N([H])C(=O)N4C([H])([H])C([H])([H])C([H])([H])C([H])(n5nc(-c6c([H])c([H])c(Oc7c([H])c([H])c(F)c([H])c7F)c([H])c6[H])c(C(=O)N([H])[H])c5N([H])[H])C4([H])[H])C([H])(C([H])([H])[H])C([H])([H])[H])C([H])([H])C([H])([H])C3([H])[H])c([H])c([H])c2C1([H])[H]

$$$$
83:0:0
     RDKit          3D

 95103  0  0  1  0  0  0  0  0999 V2000
  -29.0660  -22.3940   20.8990 C   0  0  0  0  0  0  0  0  0  0  0  0
  -29.2230  -21.1520   20.2790 N   0  0  0  0  0  0  0  0  0  0  0  0
  -29.0280  -22.4540   22.1300 O   0  0  0  0  0  0  0  0  0  0  0  0
  -29.0060  -21.1190   19.2940 H   0  0  0  0  0  0  0  0  0  0  0  0
  -31.5150  -18.8100   22.2200 C   0  0  0  0  0  3  0  0  0  0  0  0
  -30.8330  -19.9600   21.7730 C   0  0  0  0  0  3  0  0  0  0  0  0
  -31.2070  -17.5280   21.7220 C   0  0  0  0  0  3  0  0  0  0  0  0
  -29.5040  -18.5470   20.3090 C   0  0  0  0  0  3  0  0  0  0  0  0
  -29.8110  -19.8860   20.8000 C   0  0  0  0  0  0  0  0  0  0  0  0
  -30.1950  -17.3410   20.7560 C   0  0  0  0  0  0  0  0  0  0  0  0
  -30.6280  -14.8300   20.1620 C   0  0  0  0  0  0  0  0  0  0  0  0
  -30.3960  -12.5880   19.0700 C   0  0  0  0  0  2  0  0  0  0  0  0
  -29.4070  -12.6590   17.8870 C   0  0  0  0  0  2  0  0  0  0  0  0
  -27.9570  -12.4580   18.3740 C   0  0  0  0  0  2  0  0  0  0  0  0
  -27.6160  -13.3330   19.6100 C   0  0  0  0  0  3  0  0  0  0  0  0
  -28.7170  -13.2500   20.6900 C   0  0  0  0  0  2  0  0  0  0  0  0
  -29.9860  -13.6170   20.0500 N   0  0  0  0  0  0  0  0  0  0  0  0
  -31.8140  -14.9320   19.8400 O   0  0  0  0  0  0  0  0  0  0  0  0
  -29.8430  -15.9570   20.3560 N   0  0  0  0  0  0  0  0  0  0  0  0
  -28.8550  -15.7750   20.2670 H   0  0  0  0  0  0  0  0  0  0  0  0
  -25.2520  -13.8940   20.4330 C   0  0  0  0  0  0  0  0  0  0  0  0
  -24.2050  -13.1050   20.8300 C   0  0  0  0  0  0  0  0  0  0  0  0
  -24.6810  -11.7600   20.7710 C   0  0  0  0  0  0  0  0  0  0  0  0
  -26.2940  -13.0270   20.1480 N   0  0  0  0  0  0  0  0  0  0  0  0
  -25.9600  -11.7380   20.4150 N   0  0  0  0  0  0  0  0  0  0  0  0
  -23.9740  -10.4880   20.9720 C   0  0  0  0  0  0  0  0  0  0  0  0
  -24.4210   -9.5350   21.9130 C   0  0  0  0  0  3  0  0  0  0  0  0
  -23.7140   -8.3280   22.1000 C   0  0  0  0  0  3  0  0  0  0  0  0
  -22.5460   -8.0660   21.3450 C   0  0  0  0  0  0  0  0  0  0  0  0
  -22.1170   -9.0100   20.3940 C   0  0  0  0  0  3  0  0  0  0  0  0
  -22.8250  -10.2080   20.2050 C   0  0  0  0  0  3  0  0  0  0  0  0
  -21.8080   -6.9100   21.4410 O   0  0  0  0  0  0  0  0  0  0  0  0
  -21.7460   -6.1910   22.6070 C   0  0  0  0  0  0  0  0  0  0  0  0
  -21.2510   -6.7540   23.8040 C   0  0  0  0  0  3  0  0  0  0  0  0
  -21.1410   -5.9590   24.9630 C   0  0  0  0  0  3  0  0  0  0  0  0
  -21.5130   -4.6030   24.9250 C   0  0  0  0  0  0  0  0  0  0  0  0
  -22.0010   -4.0390   23.7320 C   0  0  0  0  0  3  0  0  0  0  0  0
  -22.1140   -4.8310   22.5760 C   0  0  0  0  0  0  0  0  0  0  0  0
  -22.5640   -4.2780   21.4250 F   0  0  0  0  0  0  0  0  0  0  0  0
  -21.4000   -3.8360   26.0350 F   0  0  0  0  0  0  0  0  0  0  0  0
  -22.8130  -13.5680   21.1520 C   0  0  0  0  0  0  0  0  0  0  0  0
  -22.1150  -12.8500   22.0220 N   0  0  0  0  0  0  0  0  0  0  0  0
  -22.3540  -14.6020   20.6660 O   0  0  0  0  0  0  0  0  0  0  0  0
  -22.4960  -12.0130   22.4370 H   0  0  0  0  0  0  0  0  0  0  0  0
  -21.1820  -13.1460   22.2810 H   0  0  0  0  0  0  0  0  0  0  0  0
  -25.3950  -15.2680   20.2700 N   0  0  0  0  0  0  0  0  0  0  0  0
  -24.6230  -15.9090   20.4240 H   0  0  0  0  0  0  0  0  0  0  0  0
  -26.2200  -15.7300   19.9140 H   0  0  0  0  0  0  0  0  0  0  0  0
  -28.9140  -23.7850   20.0980 C   0  0  0  0  0  3  0  0  0  0  0  0
  -28.4880  -23.5540   18.7040 N   0  0  0  0  0  4  0  0  0  0  0  0
  -27.5390  -23.2240   18.6670 H   0  0  0  0  0  0  0  0  0  0  0  0
  -29.0910  -22.8840   18.2650 H   0  0  0  0  0  0  0  0  0  0  0  0
  -28.5500  -24.4090   18.1800 H   0  0  0  0  0  0  0  0  0  0  0  0
  -28.0990  -25.0330   20.7460 C   0  0  0  0  0  2  0  0  0  0  0  0
  -28.3200  -26.4570   20.2950 O   0  0  0  0  0  0  0  0  0  0  0  0
  -24.5840  -31.9460   23.2380 C   0  0  0  0  0  0  0  0  0  0  0  0
  -27.2170  -27.3390   20.2490 C   0  0  0  0  0  0  0  0  0  0  0  0
  -23.3920  -30.5340   21.5990 C   0  0  0  0  0  3  0  0  0  0  0  0
  -24.8580  -28.9750   20.1900 C   0  0  0  0  0  0  0  0  0  0  0  0
  -25.9340  -30.8510   21.4280 C   0  0  0  0  0  2  0  0  0  0  0  0
  -26.0240  -29.4650   20.7940 C   0  0  0  0  0  0  0  0  0  0  0  0
  -27.2090  -28.6610   20.8080 C   0  0  0  0  0  3  0  0  0  0  0  0
  -26.0340  -26.9160   19.6070 C   0  0  0  0  0  3  0  0  0  0  0  0
  -24.8680  -27.7090   19.5840 C   0  0  0  0  0  3  0  0  0  0  0  0
  -23.6180  -29.8500   20.2230 C   0  0  0  0  0  2  0  0  0  0  0  0
  -24.6560  -31.1290   22.1440 N   0  0  0  0  0  0  0  0  0  0  0  0
  -23.4970  -32.2250   23.7650 O   0  0  0  0  0  0  0  0  0  0  0  0
  -22.7260  -29.5230   22.5640 C   0  0  0  0  0  0  0  0  0  0  0  0
  -21.4010  -29.3450   22.4370 N   0  0  0  0  0  0  0  0  0  0  0  0
  -23.4040  -28.9000   23.3860 O   0  0  0  0  0  0  0  0  0  0  0  0
  -20.9130  -29.9050   21.7510 H   0  0  0  0  0  0  0  0  0  0  0  0
  -18.0210  -28.1520   22.9450 C   0  0  0  0  0  0  0  0  0  0  0  0
  -20.5810  -28.4070   23.2100 C   0  0  0  0  0  3  0  0  0  0  0  0
  -20.6800  -26.9740   22.6340 C   0  0  0  0  0  2  0  0  0  0  0  0
  -19.5750  -26.6570   21.6200 C   0  0  0  0  0  2  0  0  0  0  0  0
  -18.1920  -26.8070   22.2610 C   0  0  0  0  0  2  0  0  0  0  0  0
  -19.1430  -28.9100   23.3760 C   0  0  0  0  0  0  0  0  0  0  0  0
  -18.9280  -30.1710   23.9740 C   0  0  0  0  0  3  0  0  0  0  0  0
  -17.6240  -30.6740   24.1450 C   0  0  0  0  0  3  0  0  0  0  0  0
  -16.5160  -29.9120   23.7310 C   0  0  0  0  0  3  0  0  0  0  0  0
  -16.7160  -28.6530   23.1380 C   0  0  0  0  0  3  0  0  0  0  0  0
  -25.8620  -32.5880   23.8620 C   0  0  0  0  0  3  0  0  0  0  0  0
  -26.3680  -31.8310   25.1520 C   0  0  1  0  0  0  0  0  0  0  0  0
  -25.2640  -31.6030   26.2110 C   0  0  0  0  0  1  0  0  0  0  0  0
  -26.9610  -30.4510   24.7810 C   0  0  0  0  0  1  0  0  0  0  0  0
  -27.5080  -32.6360   25.8170 C   0  0  0  0  0  1  0  0  0  0  0  0
  -25.5460  -33.9880   24.1780 N   0  0  0  0  0  0  0  0  0  0  0  0
  -25.8850  -35.0380   23.4180 C   0  0  0  0  0  0  0  0  0  0  0  0
  -26.5660  -34.9280   22.3940 O   0  0  0  0  0  0  0  0  0  0  0  0
  -24.9460  -34.1460   24.9750 H   0  0  0  0  0  0  0  0  0  0  0  0
  -24.1750  -36.8400   23.0190 C   0  0  0  0  0  1  0  0  0  0  0  0
  -25.3920  -36.4300   23.8620 C   0  0  0  0  0  3  0  0  0  0  0  0
  -27.5060  -37.3090   24.7510 C   0  0  0  0  0  1  0  0  0  0  0  0
  -26.4320  -37.4780   23.7760 N   0  0  0  0  0  0  0  0  0  0  0  0
  -26.0290  -38.4010   23.9070 H   0  0  0  0  0  0  0  0  0  0  0  0
  1  3  2  0
  2  9  1  0
  2  1  1  0
  4  2  1  0
  6  5  1  0
  7  5  2  0
  8 10  2  0
  8  9  1  0
  9  6  2  0
 10  7  1  0
 11 19  1  0
 12 17  1  0
 13 14  1  0
 13 12  1  0
 15 14  1  0
 15 24  1  0
 15 16  1  0
 17 11  1  0
 17 16  1  0
 18 11  2  0
 19 10  1  0
 20 19  1  0
 21 22  2  0
 22 41  1  0
 23 22  1  0
 23 26  1  0
 24 25  1  0
 24 21  1  0
 25 23  2  0
 26 27  1  0
 27 28  2  0
 29 32  1  0
 29 28  1  0
 30 29  2  0
 31 30  1  0
 31 26  2  0
 32 33  1  0
 33 34  1  0
 34 35  2  0
 36 35  1  0
 36 40  1  0
 37 36  2  0
 38 33  2  0
 38 37  1  0
 39 38  1  0
 41 42  1  0
 42 45  1  0
 42 44  1  0
 43 41  2  0
 46 47  1  0
 46 21  1  0
 48 46  1  0
 49 54  1  0
 49  1  1  0
 50 49  1  0
 51 50  1  0
 52 50  1  0
 53 50  1  0
 55 54  1  0
 56 67  2  0
 57 55  1  0
 57 62  1  0
 58 66  1  0
 58 68  1  0
 59 65  1  0
 59 61  1  0
 60 66  1  0
 61 62  2  0
 61 60  1  0
 63 57  2  0
 64 63  1  0
 64 59  2  0
 65 58  1  0
 66 56  1  0
 68 70  2  0
 69 68  1  0
 71 69  1  0
 72 81  2  0
 72 77  1  0
 73 69  1  0
 73 77  1  0
 74 73  1  0
 75 76  1  0
 75 74  1  0
 76 72  1  0
 77 78  2  0
 78 79  1  0
 80 79  2  0
 81 80  1  0
 82 56  1  0
 82 87  1  0
 82 83  1  0
 83 86  1  1
 83 84  1  0
 85 83  1  0
 87 90  1  0
 88 92  1  0
 88 87  1  0
 89 88  2  0
 92 91  1  0
 94 92  1  0
 94 95  1  0
 94 93  1  0
M  ISO  4  11 100  19 100  54 101  55 101
M  END
>  <TORSDO>  (84) 
F 20

>  <SCORE>  (84) 
-14.248

>  <name>  (84) 
83

>  <ligand_id>  (84) 
83

>  <original_smiles>  (84) 
[H]c1c([H])c(N([H])C(=O)N2C([H])([H])C([H])([H])C([H])([H])C([H])(n3nc(-c4c([H])c([H])c(Oc5c([H])c([H])c(F)c([H])c5F)c([H])c4[H])c(C(=O)N([H])[H])c3N([H])[H])C2([H])[H])c([H])c(N([H])C(=O)C([H])(C([H])([H])Oc2c([H])c([H])c3c(c2[H])C([H])([H])N(C(=O)C([H])(N([H])C(=O)C([H])(N([H])C([H])([H])[H])C([H])([H])[H])C(C([H])([H])[H])(C([H])([H])[H])C([H])([H])[H])C([H])(C(=O)N([H])C2([H])c4c([H])c([H])c([H])c([H])c4C([H])([H])C([H])([H])C2([H])[H])C3([H])[H])[N+]([H])([H])[H])c1[H]

>  <smiles>  (84) 
[H]c1c([H])c(N([H])C(=O)N2C([H])([H])C([H])([H])C([H])([H])C([H])(n3nc(-c4c([H])c([H])c(Oc5c([H])c([H])c(F)c([H])c5F)c([H])c4[H])c(C(=O)N([H])[H])c3N([H])[H])C2([H])[H])c([H])c(N([H])C(=O)C([H])(C([H])([H])Oc2c([H])c([H])c3c(c2[H])C([H])([H])N(C(=O)C([H])(N([H])C(=O)C([H])(N([H])C([H])([H])[H])C([H])([H])[H])C(C([H])([H])[H])(C([H])([H])[H])C([H])([H])[H])C([H])(C(=O)N([H])C2([H])c4c([H])c([H])c([H])c([H])c4C([H])([H])C([H])([H])C2([H])[H])C3([H])[H])[N+]([H])([H])[H])c1[H]

$$$$
84:0:0
     RDKit          3D

 94101  0  0  1  0  0  0  0  0999 V2000
  -28.7390  -19.9460   18.5810 C   0  0  0  0  0  0  0  0  0  0  0  0
  -28.0130  -21.2300   18.6870 N   0  0  0  0  0  0  0  0  0  0  0  0
  -29.9510  -19.9970   18.7960 O   0  0  0  0  0  0  0  0  0  0  0  0
  -27.0230  -21.0880   18.5300 H   0  0  0  0  0  0  0  0  0  0  0  0
  -30.7390  -13.9870   21.8750 C   0  0  0  0  0  3  0  0  0  0  0  0
  -31.2350  -13.0680   19.9050 C   0  0  0  0  0  2  0  0  0  0  0  0
  -30.3230  -14.4490   18.8990 C   0  0  0  0  0  1  0  0  0  0  0  0
  -27.9940  -14.7860   19.7830 C   0  0  0  0  0  1  0  0  0  0  0  0
  -27.5230  -13.7320   21.2300 C   0  0  0  0  0  3  0  0  0  0  0  0
  -28.7420  -12.5820   21.9360 C   0  0  0  0  0  2  0  0  0  0  0  0
  -30.3840  -12.8530   21.3930 N   0  0  1  0  0  4  0  0  0  0  0  0
  -31.8220  -14.6170   21.8840 O   0  0  0  0  0  1  0  0  0  0  0  0
  -28.1740  -18.2810   18.0610 C   0  0  0  0  0  0  0  0  0  0  0  0
  -28.3950  -13.5700   17.7650 C   0  0  0  0  0  3  0  0  0  0  0  0
  -28.4510  -15.4870   17.4170 C   0  0  0  0  0  3  0  0  0  0  0  0
  -28.9230  -12.7690   19.4730 C   0  0  0  0  0  1  0  0  0  0  0  0
  -29.6560  -16.9900   19.6420 C   0  0  0  0  0  2  0  0  0  0  0  0
  -29.8060  -15.9880   21.0120 C   0  0  0  0  0  2  0  0  0  0  0  0
  -28.7250  -16.9280   18.3590 N   0  0  0  0  0  0  0  0  0  0  0  0
  -29.8060  -14.3390   21.0730 N   0  0  0  0  0  0  0  0  0  0  0  0
  -27.2310  -18.3290   17.2650 O   0  0  0  0  0  0  0  0  0  0  0  0
  -25.1040  -13.9610   21.1450 C   0  0  0  0  0  0  0  0  0  0  0  0
  -24.0910  -13.0770   21.2730 C   0  0  0  0  0  0  0  0  0  0  0  0
  -24.6670  -11.7720   21.1860 C   0  0  0  0  0  0  0  0  0  0  0  0
  -26.2270  -13.1910   21.0940 N   0  0  0  0  0  0  0  0  0  0  0  0
  -25.9860  -11.8550   21.0820 N   0  0  0  0  0  0  0  0  0  0  0  0
  -24.0180  -10.4600   21.2030 C   0  0  0  0  0  0  0  0  0  0  0  0
  -24.4570   -9.4230   22.0550 C   0  0  0  0  0  3  0  0  0  0  0  0
  -23.7730   -8.1880   22.0840 C   0  0  0  0  0  3  0  0  0  0  0  0
  -22.6400   -7.9890   21.2590 C   0  0  0  0  0  0  0  0  0  0  0  0
  -22.2230   -9.0170   20.3980 C   0  0  0  0  0  3  0  0  0  0  0  0
  -22.9070  -10.2430   20.3670 C   0  0  0  0  0  3  0  0  0  0  0  0
  -21.9240   -6.8200   21.1980 O   0  0  0  0  0  0  0  0  0  0  0  0
  -21.9080   -5.9290   22.2380 C   0  0  0  0  0  0  0  0  0  0  0  0
  -21.4860   -6.3020   23.5340 C   0  0  0  0  0  3  0  0  0  0  0  0
  -21.4170   -5.3340   24.5540 C   0  0  0  0  0  3  0  0  0  0  0  0
  -21.7600   -3.9960   24.2820 C   0  0  0  0  0  0  0  0  0  0  0  0
  -22.1790   -3.6240   22.9920 C   0  0  0  0  0  3  0  0  0  0  0  0
  -22.2470   -4.5890   21.9720 C   0  0  0  0  0  0  0  0  0  0  0  0
  -22.6290   -4.2220   20.7240 F   0  0  0  0  0  0  0  0  0  0  0  0
  -21.6880   -3.0630   25.2600 F   0  0  0  0  0  0  0  0  0  0  0  0
  -22.6650  -13.4620   21.4520 C   0  0  0  0  0  0  0  0  0  0  0  0
  -21.9200  -12.6780   22.2210 N   0  0  0  0  0  0  0  0  0  0  0  0
  -22.2300  -14.5100   20.9760 O   0  0  0  0  0  0  0  0  0  0  0  0
  -22.2970  -11.8380   22.6340 H   0  0  0  0  0  0  0  0  0  0  0  0
  -20.9550  -12.9190   22.4010 H   0  0  0  0  0  0  0  0  0  0  0  0
  -25.1710  -15.3510   21.1490 N   0  0  0  0  0  0  0  0  0  0  0  0
  -24.3440  -15.9360   21.1620 H   0  0  0  0  0  0  0  0  0  0  0  0
  -26.0320  -15.8730   21.0590 H   0  0  0  0  0  0  0  0  0  0  0  0
  -29.8620  -22.9480   19.2930 C   0  0  0  0  0  1  0  0  0  0  0  0
  -28.4250  -23.2760   17.2790 C   0  0  0  0  0  1  0  0  0  0  0  0
  -28.4190  -22.8490   18.7580 C   0  0  1  0  0  0  0  0  0  0  0  0
  -27.5950  -24.2200   19.5350 C   0  0  0  0  0  2  0  0  0  0  0  0
  -27.9760  -25.8120   19.7530 O   0  0  0  0  0  0  0  0  0  0  0  0
  -24.5250  -31.7520   23.1140 C   0  0  0  0  0  0  0  0  0  0  0  0
  -27.0140  -26.9270   19.8960 C   0  0  0  0  0  0  0  0  0  0  0  0
  -23.3270  -30.3670   21.4880 C   0  0  0  0  0  3  0  0  0  0  0  0
  -24.7480  -28.7990   20.0280 C   0  0  0  0  0  0  0  0  0  0  0  0
  -25.8990  -30.5740   21.3210 C   0  0  0  0  0  2  0  0  0  0  0  0
  -25.9540  -29.1790   20.6290 C   0  0  0  0  0  0  0  0  0  0  0  0
  -27.0950  -28.2570   20.5480 C   0  0  0  0  0  3  0  0  0  0  0  0
  -25.7740  -26.7080   19.2790 C   0  0  0  0  0  3  0  0  0  0  0  0
  -24.6760  -27.5800   19.3520 C   0  0  0  0  0  3  0  0  0  0  0  0
  -23.5410  -29.7200   20.1000 C   0  0  0  0  0  2  0  0  0  0  0  0
  -24.6080  -30.9230   22.0260 N   0  0  0  0  0  0  0  0  0  0  0  0
  -23.4360  -32.0330   23.6400 O   0  0  0  0  0  0  0  0  0  0  0  0
  -22.6520  -29.3450   22.4390 C   0  0  0  0  0  0  0  0  0  0  0  0
  -21.3240  -29.1690   22.3160 N   0  0  0  0  0  0  0  0  0  0  0  0
  -23.3290  -28.7190   23.2580 O   0  0  0  0  0  0  0  0  0  0  0  0
  -20.8320  -29.7280   21.6330 H   0  0  0  0  0  0  0  0  0  0  0  0
  -17.9580  -27.9100   22.8040 C   0  0  0  0  0  0  0  0  0  0  0  0
  -20.5110  -28.2210   23.0840 C   0  0  0  0  0  3  0  0  0  0  0  0
  -20.6400  -26.7870   22.5170 C   0  0  0  0  0  2  0  0  0  0  0  0
  -19.5500  -26.4410   21.4980 C   0  0  0  0  0  2  0  0  0  0  0  0
  -18.1620  -26.5630   22.1330 C   0  0  0  0  0  2  0  0  0  0  0  0
  -19.0590  -28.6950   23.2370 C   0  0  0  0  0  0  0  0  0  0  0  0
  -18.8120  -29.9540   23.8270 C   0  0  0  0  0  3  0  0  0  0  0  0
  -17.4960  -30.4280   23.9870 C   0  0  0  0  0  3  0  0  0  0  0  0
  -16.4090  -29.6410   23.5690 C   0  0  0  0  0  3  0  0  0  0  0  0
  -16.6410  -28.3840   22.9840 C   0  0  0  0  0  3  0  0  0  0  0  0
  -25.7920  -32.4020   23.7440 C   0  0  0  0  0  3  0  0  0  0  0  0
  -25.4630  -33.8000   24.0770 N   0  0  0  0  0  0  0  0  0  0  0  0
  -25.8140  -34.8670   23.3460 C   0  0  0  0  0  0  0  0  0  0  0  0
  -26.5130  -34.7790   22.3340 O   0  0  0  0  0  0  0  0  0  0  0  0
  -24.8440  -33.9410   24.8620 H   0  0  0  0  0  0  0  0  0  0  0  0
  -24.0910  -36.6680   22.9780 C   0  0  0  0  0  1  0  0  0  0  0  0
  -25.3140  -36.2510   23.8120 C   0  0  0  0  0  3  0  0  0  0  0  0
  -27.4300  -37.1260   24.6990 C   0  0  0  0  0  1  0  0  0  0  0  0
  -26.3470  -37.3080   23.7360 N   0  0  0  0  0  0  0  0  0  0  0  0
  -25.9370  -38.2240   23.8890 H   0  0  0  0  0  0  0  0  0  0  0  0
  -26.3000  -31.6440   25.0320 C   0  0  1  0  0  0  0  0  0  0  0  0
  -25.2000  -31.4120   26.0960 C   0  0  0  0  0  1  0  0  0  0  0  0
  -26.8880  -30.2630   24.6630 C   0  0  0  0  0  1  0  0  0  0  0  0
  -27.4450  -32.4460   25.6930 C   0  0  0  0  0  1  0  0  0  0  0  0
  1  2  1  0
  1  3  2  0
  2 52  1  0
  4  2  1  0
  5 12  1  0
 11  6  1  1
  7  6  1  0
  9  8  1  0
  9 10  1  0
 11  5  1  0
 11 10  1  0
 13 19  1  0
 13  1  1  0
 14 16  1  0
 15 14  2  0
 15 19  1  0
 17 18  1  0
 18 20  1  0
 19 17  1  0
 20 11  1  0
 20  5  1  0
 21 13  2  0
 22 47  1  0
 22 23  2  0
 23 42  1  0
 24 27  1  0
 24 23  1  0
 25 22  1  0
 25  9  1  0
 26 25  1  0
 26 24  2  0
 27 28  1  0
 28 29  2  0
 30 29  1  0
 31 30  2  0
 32 31  1  0
 32 27  2  0
 33 30  1  0
 33 34  1  0
 34 35  1  0
 35 36  2  0
 37 36  1  0
 37 41  1  0
 38 37  2  0
 39 34  2  0
 39 38  1  0
 40 39  1  0
 42 43  1  0
 43 46  1  0
 43 45  1  0
 44 42  2  0
 47 48  1  0
 49 47  1  0
 52 51  1  6
 52 50  1  0
 52 53  1  0
 53 54  1  0
 54 56  1  0
 55 66  2  0
 56 61  1  0
 57 65  1  0
 57 67  1  0
 58 64  1  0
 58 60  1  0
 59 65  1  0
 60 59  1  0
 61 60  2  0
 62 63  1  0
 62 56  2  0
 63 58  2  0
 64 57  1  0
 65 55  1  0
 67 69  2  0
 68 67  1  0
 70 68  1  0
 71 80  2  0
 71 76  1  0
 72 68  1  0
 72 76  1  0
 73 72  1  0
 74 75  1  0
 74 73  1  0
 75 71  1  0
 76 77  2  0
 77 78  1  0
 79 78  2  0
 80 79  1  0
 81 55  1  0
 81 82  1  0
 81 91  1  0
 82 85  1  0
 83 87  1  0
 83 82  1  0
 84 83  2  0
 87 86  1  0
 89 87  1  0
 89 90  1  0
 89 88  1  0
 91 94  1  1
 91 92  1  0
 93 91  1  0
M  ISO  4   5 100  20 100  53 101  54 101
M  END
>  <TORSDO>  (85) 
F 18

>  <SCORE>  (85) 
-8.743

>  <name>  (85) 
84

>  <ligand_id>  (85) 
84

>  <original_smiles>  (85) 
[H]c1c([H])c([H])c2c(c1[H])C([H])([H])C([H])([H])C([H])([H])C2([H])N([H])C(=O)C1([H])N(C(=O)C([H])(N([H])C(=O)C([H])(N([H])C([H])([H])[H])C([H])([H])[H])C(C([H])([H])[H])(C([H])([H])[H])C([H])([H])[H])C([H])([H])c2c([H])c(OC([H])([H])C(N([H])C(=O)C(=O)N3C([H])([H])C([H])([H])N(C(=O)N4C([H])([H])C([H])([H])C([H])([H])C([H])(n5nc(-c6c([H])c([H])c(Oc7c([H])c([H])c(F)c([H])c7F)c([H])c6[H])c(C(=O)N([H])[H])c5N([H])[H])C4([H])[H])C([H])([H])C([H])([H])C3([H])[H])(C([H])([H])[H])C([H])([H])[H])c([H])c([H])c2C1([H])[H]

>  <smiles>  (85) 
[H]c1c([H])c([H])c2c(c1[H])C([H])([H])C([H])([H])C([H])([H])C2([H])N([H])C(=O)C1([H])N(C(=O)C([H])(N([H])C(=O)C([H])(N([H])C([H])([H])[H])C([H])([H])[H])C(C([H])([H])[H])(C([H])([H])[H])C([H])([H])[H])C([H])([H])c2c([H])c(OC([H])([H])C(N([H])C(=O)C(=O)N3C([H])([H])C([H])([H])N(C(=O)N4C([H])([H])C([H])([H])C([H])([H])C([H])(n5nc(-c6c([H])c([H])c(Oc7c([H])c([H])c(F)c([H])c7F)c([H])c6[H])c(C(=O)N([H])[H])c5N([H])[H])C4([H])[H])C([H])([H])C([H])([H])C3([H])[H])(C([H])([H])[H])C([H])([H])[H])c([H])c([H])c2C1([H])[H]

$$$$
85:0:0
     RDKit          3D

100108  0  0  1  0  0  0  0  0999 V2000
  -29.5690  -18.0530   20.6680 C   0  0  0  0  0  3  0  0  0  0  0  0
  -29.9990  -16.8210   18.6180 C   0  0  0  0  0  3  0  0  0  0  0  0
  -29.4300  -19.2020   18.4940 C   0  0  0  0  0  0  0  0  0  0  0  0
  -29.8810  -16.8290   20.0270 C   0  0  0  0  0  0  0  0  0  0  0  0
  -29.3690  -19.2500   19.9220 C   0  0  0  0  0  0  0  0  0  0  0  0
  -29.7760  -17.9830   17.8630 C   0  0  0  0  0  0  0  0  0  0  0  0
  -29.8690  -17.8950   16.5120 F   0  0  0  0  0  0  0  0  0  0  0  0
  -30.7490  -14.5630   20.3830 C   0  0  0  0  0  0  0  0  0  0  0  0
  -30.4350  -12.4430   19.1960 C   0  0  0  0  0  2  0  0  0  0  0  0
  -29.4890  -12.7120   18.0060 C   0  0  0  0  0  2  0  0  0  0  0  0
  -28.0150  -12.5770   18.4370 C   0  0  0  0  0  2  0  0  0  0  0  0
  -27.6940  -13.3610   19.7390 C   0  0  0  0  0  3  0  0  0  0  0  0
  -28.7560  -13.0910   20.8310 C   0  0  0  0  0  2  0  0  0  0  0  0
  -30.0810  -13.3870   20.2650 N   0  0  0  0  0  0  0  0  0  0  0  0
  -31.8970  -14.7360   19.9580 O   0  0  0  0  0  0  0  0  0  0  0  0
  -30.0050  -15.6130   20.7780 N   0  0  0  0  0  0  0  0  0  0  0  0
  -29.2110  -15.3860   21.3580 H   0  0  0  0  0  0  0  0  0  0  0  0
  -25.2860  -13.9490   20.4310 C   0  0  0  0  0  0  0  0  0  0  0  0
  -24.2240  -13.1670   20.8000 C   0  0  0  0  0  0  0  0  0  0  0  0
  -24.6990  -11.8200   20.7860 C   0  0  0  0  0  0  0  0  0  0  0  0
  -26.3410  -13.0760   20.2140 N   0  0  0  0  0  0  0  0  0  0  0  0
  -25.9910  -11.7920   20.4830 N   0  0  0  0  0  0  0  0  0  0  0  0
  -23.9870  -10.5520   20.9840 C   0  0  0  0  0  0  0  0  0  0  0  0
  -24.4250   -9.6000   21.9310 C   0  0  0  0  0  3  0  0  0  0  0  0
  -23.7110   -8.3960   22.1180 C   0  0  0  0  0  3  0  0  0  0  0  0
  -22.5470   -8.1380   21.3570 C   0  0  0  0  0  0  0  0  0  0  0  0
  -22.1280   -9.0790   20.3990 C   0  0  0  0  0  3  0  0  0  0  0  0
  -22.8420  -10.2740   20.2110 C   0  0  0  0  0  3  0  0  0  0  0  0
  -21.8060   -6.9840   21.4510 O   0  0  0  0  0  0  0  0  0  0  0  0
  -21.7570   -6.2510   22.6100 C   0  0  0  0  0  0  0  0  0  0  0  0
  -21.3220   -6.8140   23.8290 C   0  0  0  0  0  3  0  0  0  0  0  0
  -21.2210   -6.0080   24.9810 C   0  0  0  0  0  3  0  0  0  0  0  0
  -21.5460   -4.6400   24.9150 C   0  0  0  0  0  0  0  0  0  0  0  0
  -21.9760   -4.0760   23.6990 C   0  0  0  0  0  3  0  0  0  0  0  0
  -22.0780   -4.8800   22.5500 C   0  0  0  0  0  0  0  0  0  0  0  0
  -22.4720   -4.3270   21.3780 F   0  0  0  0  0  0  0  0  0  0  0  0
  -21.4420   -3.8640   26.0180 F   0  0  0  0  0  0  0  0  0  0  0  0
  -22.8210  -13.6330   21.0650 C   0  0  0  0  0  0  0  0  0  0  0  0
  -22.0970  -12.9400   21.9360 N   0  0  0  0  0  0  0  0  0  0  0  0
  -22.3730  -14.6480   20.5320 O   0  0  0  0  0  0  0  0  0  0  0  0
  -22.4700  -12.1190   22.3890 H   0  0  0  0  0  0  0  0  0  0  0  0
  -21.1560  -13.2360   22.1550 H   0  0  0  0  0  0  0  0  0  0  0  0
  -25.4380  -15.3200   20.2440 N   0  0  0  0  0  0  0  0  0  0  0  0
  -24.6690  -15.9700   20.3560 H   0  0  0  0  0  0  0  0  0  0  0  0
  -26.2910  -15.7660   19.9350 H   0  0  0  0  0  0  0  0  0  0  0  0
  -29.1610  -20.4060   17.6220 C   0  0  0  0  0  0  0  0  0  0  0  0
  -27.9770  -20.9930   17.7760 N   0  0  0  0  0  0  0  0  0  0  0  0
  -29.9770  -20.8090   16.7940 O   0  0  0  0  0  0  0  0  0  0  0  0
  -27.3040  -20.6070   18.4230 H   0  0  0  0  0  0  0  0  0  0  0  0
  -27.7170  -21.7810   17.2000 H   0  0  0  0  0  0  0  0  0  0  0  0
  -29.1090  -20.4620   20.6000 N   0  0  0  0  0  0  0  0  0  0  0  0
  -28.8260  -21.2320   20.0000 H   0  0  0  0  0  0  0  0  0  0  0  0
  -30.0490  -20.8670   21.6420 C   0  0  0  0  0  2  0  0  0  0  0  0
  -30.4700  -22.3600   21.5350 C   0  0  0  0  0  2  0  0  0  0  0  0
  -29.4480  -24.5500   20.9420 C   0  0  0  0  0  0  0  0  0  0  0  0
  -28.3290  -23.0840   22.6080 C   0  0  0  0  0  1  0  0  0  0  0  0
  -29.3870  -23.3710   21.6280 N   0  0  0  0  0  0  0  0  0  0  0  0
  -30.3880  -24.8280   20.1890 O   0  0  0  0  0  0  0  0  0  0  0  0
  -28.3010  -25.5730   21.1070 C   0  0  0  0  0  2  0  0  0  0  0  0
  -28.4720  -26.7510   20.2930 O   0  0  0  0  0  0  0  0  0  0  0  0
  -24.6200  -31.9520   23.2570 C   0  0  0  0  0  0  0  0  0  0  0  0
  -27.3270  -27.5120   20.2410 C   0  0  0  0  0  0  0  0  0  0  0  0
  -23.4410  -30.5250   21.6150 C   0  0  0  0  0  3  0  0  0  0  0  0
  -24.9220  -28.9930   20.2130 C   0  0  0  0  0  0  0  0  0  0  0  0
  -25.9650  -30.9080   21.4370 C   0  0  0  0  0  2  0  0  0  0  0  0
  -26.0710  -29.5340   20.8080 C   0  0  0  0  0  0  0  0  0  0  0  0
  -27.2810  -28.8010   20.8180 C   0  0  0  0  0  3  0  0  0  0  0  0
  -26.1670  -26.9900   19.6310 C   0  0  0  0  0  3  0  0  0  0  0  0
  -24.9650  -27.7200   19.6210 C   0  0  0  0  0  3  0  0  0  0  0  0
  -23.6690  -29.8380   20.2430 C   0  0  0  0  0  2  0  0  0  0  0  0
  -24.6930  -31.1430   22.1620 N   0  0  0  0  0  0  0  0  0  0  0  0
  -23.5310  -32.2190   23.7840 O   0  0  0  0  0  0  0  0  0  0  0  0
  -22.7900  -29.5060   22.5780 C   0  0  0  0  0  0  0  0  0  0  0  0
  -21.4680  -29.3170   22.4440 N   0  0  0  0  0  0  0  0  0  0  0  0
  -23.4720  -28.8870   23.3990 O   0  0  0  0  0  0  0  0  0  0  0  0
  -20.9790  -29.8680   21.7520 H   0  0  0  0  0  0  0  0  0  0  0  0
  -18.0910  -28.1340   22.9480 C   0  0  0  0  0  0  0  0  0  0  0  0
  -20.6500  -28.3810   23.2150 C   0  0  0  0  0  3  0  0  0  0  0  0
  -20.7460  -26.9500   22.6370 C   0  0  0  0  0  2  0  0  0  0  0  0
  -19.6400  -26.6340   21.6240 C   0  0  0  0  0  2  0  0  0  0  0  0
  -18.2610  -26.7840   22.2720 C   0  0  0  0  0  2  0  0  0  0  0  0
  -19.2130  -28.8910   23.3780 C   0  0  0  0  0  0  0  0  0  0  0  0
  -19.0010  -30.1540   23.9700 C   0  0  0  0  0  3  0  0  0  0  0  0
  -17.6990  -30.6610   24.1380 C   0  0  0  0  0  3  0  0  0  0  0  0
  -16.5910  -29.9010   23.7250 C   0  0  0  0  0  3  0  0  0  0  0  0
  -16.7880  -28.6390   23.1370 C   0  0  0  0  0  3  0  0  0  0  0  0
  -25.8950  -32.5980   23.8830 C   0  0  0  0  0  3  0  0  0  0  0  0
  -25.5730  -33.9970   24.1930 N   0  0  0  0  0  0  0  0  0  0  0  0
  -25.9130  -35.0420   23.4260 C   0  0  0  0  0  0  0  0  0  0  0  0
  -26.5990  -34.9310   22.4070 O   0  0  0  0  0  0  0  0  0  0  0  0
  -24.9650  -34.1570   24.9820 H   0  0  0  0  0  0  0  0  0  0  0  0
  -24.1840  -36.8220   23.0170 C   0  0  0  0  0  1  0  0  0  0  0  0
  -25.4090  -36.4320   23.8590 C   0  0  0  0  0  3  0  0  0  0  0  0
  -27.5230  -37.3340   24.7250 C   0  0  0  0  0  1  0  0  0  0  0  0
  -26.4400  -37.4890   23.7570 N   0  0  0  0  0  0  0  0  0  0  0  0
  -26.0270  -38.4090   23.8880 H   0  0  0  0  0  0  0  0  0  0  0  0
  -26.4070  -31.8430   25.1700 C   0  0  1  0  0  0  0  0  0  0  0  0
  -25.3060  -31.6070   26.2310 C   0  0  0  0  0  1  0  0  0  0  0  0
  -27.0040  -30.4670   24.7930 C   0  0  0  0  0  1  0  0  0  0  0  0
  -27.5470  -32.6530   25.8330 C   0  0  0  0  0  1  0  0  0  0  0  0
  2  4  2  0
  3  5  1  0
  4  1  1  0
  4 16  1  0
  5 51  1  0
  5  1  2  0
  6  3  2  0
  6  2  1  0
  7  6  1  0
  8 16  1  0
  9 14  1  0
 10 11  1  0
 10  9  1  0
 12 11  1  0
 12 21  1  0
 12 13  1  0
 14  8  1  0
 14 13  1  0
 15  8  2  0
 16 17  1  0
 18 19  2  0
 19 38  1  0
 20 19  1  0
 20 23  1  0
 21 18  1  0
 21 22  1  0
 22 20  2  0
 23 24  1  0
 24 25  2  0
 26 29  1  0
 26 25  1  0
 27 26  2  0
 28 27  1  0
 28 23  2  0
 29 30  1  0
 30 31  1  0
 31 32  2  0
 33 32  1  0
 33 37  1  0
 34 33  2  0
 35 30  2  0
 35 34  1  0
 36 35  1  0
 38 39  1  0
 39 42  1  0
 39 41  1  0
 40 38  2  0
 43 44  1  0
 43 18  1  0
 45 43  1  0
 46 47  1  0
 46  3  1  0
 47 49  1  0
 48 46  2  0
 50 47  1  0
 51 53  1  0
 52 51  1  0
 54 57  1  0
 54 53  1  0
 55 59  1  0
 55 57  1  0
 57 56  1  0
 58 55  2  0
 60 59  1  0
 61 72  2  0
 62 60  1  0
 62 67  1  0
 63 71  1  0
 63 73  1  0
 64 70  1  0
 64 66  1  0
 65 71  1  0
 66 67  2  0
 66 65  1  0
 68 62  2  0
 69 68  1  0
 69 64  2  0
 70 63  1  0
 71 61  1  0
 73 75  2  0
 74 73  1  0
 76 74  1  0
 77 86  2  0
 77 82  1  0
 78 74  1  0
 78 82  1  0
 79 78  1  0
 80 81  1  0
 80 79  1  0
 81 77  1  0
 82 83  2  0
 83 84  1  0
 85 84  2  0
 86 85  1  0
 87 61  1  0
 87 88  1  0
 87 97  1  0
 88 91  1  0
 89 93  1  0
 89 88  1  0
 90 89  2  0
 93 92  1  0
 95 93  1  0
 95 96  1  0
 95 94  1  0
 97100  1  1
 97 98  1  0
 99 97  1  0
M  ISO  4   8 100  16 100  59 101  60 101
M  END
>  <TORSDO>  (86) 
F 22

>  <SCORE>  (86) 
-12.925

>  <name>  (86) 
85

>  <ligand_id>  (86) 
85

>  <original_smiles>  (86) 
[H]c1c([H])c([H])c2c(c1[H])C([H])([H])C([H])([H])C([H])([H])C2([H])N([H])C(=O)C1([H])N(C(=O)C([H])(N([H])C(=O)C([H])(N([H])C([H])([H])[H])C([H])([H])[H])C(C([H])([H])[H])(C([H])([H])[H])C([H])([H])[H])C([H])([H])c2c([H])c(OC([H])([H])C(=O)N(C([H])([H])[H])C([H])([H])C([H])([H])N([H])c3c([H])c(N([H])C(=O)N4C([H])([H])C([H])([H])C([H])([H])C([H])(n5nc(-c6c([H])c([H])c(Oc7c([H])c([H])c(F)c([H])c7F)c([H])c6[H])c(C(=O)N([H])[H])c5N([H])[H])C4([H])[H])c([H])c(F)c3C(=O)N([H])[H])c([H])c([H])c2C1([H])[H]

>  <smiles>  (86) 
[H]c1c([H])c([H])c2c(c1[H])C([H])([H])C([H])([H])C([H])([H])C2([H])N([H])C(=O)C1([H])N(C(=O)C([H])(N([H])C(=O)C([H])(N([H])C([H])([H])[H])C([H])([H])[H])C(C([H])([H])[H])(C([H])([H])[H])C([H])([H])[H])C([H])([H])c2c([H])c(OC([H])([H])C(=O)N(C([H])([H])[H])C([H])([H])C([H])([H])N([H])c3c([H])c(N([H])C(=O)N4C([H])([H])C([H])([H])C([H])([H])C([H])(n5nc(-c6c([H])c([H])c(Oc7c([H])c([H])c(F)c([H])c7F)c([H])c6[H])c(C(=O)N([H])[H])c5N([H])[H])C4([H])[H])c([H])c(F)c3C(=O)N([H])[H])c([H])c([H])c2C1([H])[H]

$$$$
86:0:0
     RDKit          3D

 91 99  0  0  1  0  0  0  0  0999 V2000
  -28.9840  -23.7800   20.5020 C   0  0  0  0  0  0  0  0  0  0  0  0
  -28.8150  -22.4500   20.1360 N   0  0  0  0  0  0  0  0  0  0  0  0
  -29.8260  -24.0920   21.3460 O   0  0  0  0  0  0  0  0  0  0  0  0
  -28.1170  -22.2950   19.4230 H   0  0  0  0  0  0  0  0  0  0  0  0
  -29.3300  -21.1870   20.8250 C   0  0  0  0  0  2  0  0  0  0  0  0
  -30.2880  -18.6400   18.0200 C   0  0  0  0  0  3  0  0  0  0  0  0
  -29.9690  -19.8340   18.7060 C   0  0  0  0  0  3  0  0  0  0  0  0
  -30.2570  -17.3820   18.6620 C   0  0  0  0  0  3  0  0  0  0  0  0
  -29.5350  -18.4960   20.6940 C   0  0  0  0  0  3  0  0  0  0  0  0
  -29.5810  -19.8090   20.0610 C   0  0  0  0  0  0  0  0  0  0  0  0
  -29.8920  -17.2550   20.0200 C   0  0  0  0  0  0  0  0  0  0  0  0
  -30.5650  -14.7620   20.3530 C   0  0  0  0  0  0  0  0  0  0  0  0
  -30.3720  -12.4750   19.3890 C   0  0  0  0  0  2  0  0  0  0  0  0
  -29.4400  -12.5590   18.1610 C   0  0  0  0  0  2  0  0  0  0  0  0
  -27.9670  -12.3990   18.5800 C   0  0  0  0  0  2  0  0  0  0  0  0
  -27.5930  -13.2850   19.8000 C   0  0  0  0  0  3  0  0  0  0  0  0
  -28.6470  -13.1810   20.9250 C   0  0  0  0  0  2  0  0  0  0  0  0
  -29.9500  -13.5280   20.3410 N   0  0  0  0  0  0  0  0  0  0  0  0
  -31.7420  -14.8560   19.9950 O   0  0  0  0  0  0  0  0  0  0  0  0
  -29.8040  -15.8940   20.6140 N   0  0  0  0  0  0  0  0  0  0  0  0
  -28.9470  -15.7120   21.1190 H   0  0  0  0  0  0  0  0  0  0  0  0
  -25.2010  -13.8860   20.5040 C   0  0  0  0  0  0  0  0  0  0  0  0
  -24.1320  -13.1180   20.8780 C   0  0  0  0  0  0  0  0  0  0  0  0
  -24.5910  -11.7650   20.8600 C   0  0  0  0  0  0  0  0  0  0  0  0
  -26.2450  -13.0020   20.2810 N   0  0  0  0  0  0  0  0  0  0  0  0
  -25.8840  -11.7230   20.5570 N   0  0  0  0  0  0  0  0  0  0  0  0
  -23.8590  -10.5060   21.0580 C   0  0  0  0  0  0  0  0  0  0  0  0
  -24.2970   -9.5330   21.9830 C   0  0  0  0  0  3  0  0  0  0  0  0
  -23.5650   -8.3400   22.1680 C   0  0  0  0  0  3  0  0  0  0  0  0
  -22.3810   -8.1120   21.4270 C   0  0  0  0  0  0  0  0  0  0  0  0
  -21.9620   -9.0740   20.4910 C   0  0  0  0  0  3  0  0  0  0  0  0
  -22.6950  -10.2570   20.3060 C   0  0  0  0  0  3  0  0  0  0  0  0
  -21.6230   -6.9700   21.5210 O   0  0  0  0  0  0  0  0  0  0  0  0
  -21.6000   -6.2120   22.6640 C   0  0  0  0  0  0  0  0  0  0  0  0
  -21.2220   -6.7550   23.9120 C   0  0  0  0  0  3  0  0  0  0  0  0
  -21.1440   -5.9230   25.0470 C   0  0  0  0  0  3  0  0  0  0  0  0
  -21.4350   -4.5510   24.9380 C   0  0  0  0  0  0  0  0  0  0  0  0
  -21.8060   -4.0070   23.6960 C   0  0  0  0  0  3  0  0  0  0  0  0
  -21.8850   -4.8340   22.5620 C   0  0  0  0  0  0  0  0  0  0  0  0
  -22.2210   -4.3010   21.3620 F   0  0  0  0  0  0  0  0  0  0  0  0
  -21.3510   -3.7520   26.0240 F   0  0  0  0  0  0  0  0  0  0  0  0
  -22.7340  -13.6030   21.1380 C   0  0  0  0  0  0  0  0  0  0  0  0
  -22.0000  -12.9200   22.0090 N   0  0  0  0  0  0  0  0  0  0  0  0
  -22.3030  -14.6240   20.6040 O   0  0  0  0  0  0  0  0  0  0  0  0
  -22.3620  -12.0970   22.4690 H   0  0  0  0  0  0  0  0  0  0  0  0
  -21.0640  -13.2300   22.2270 H   0  0  0  0  0  0  0  0  0  0  0  0
  -25.3710  -15.2550   20.3120 N   0  0  0  0  0  0  0  0  0  0  0  0
  -24.6120  -15.9180   20.4210 H   0  0  0  0  0  0  0  0  0  0  0  0
  -26.2140  -15.6740   19.9410 H   0  0  0  0  0  0  0  0  0  0  0  0
  -28.0410  -24.9250   19.8980 C   0  0  0  0  0  2  0  0  0  0  0  0
  -28.2910  -26.3760   20.2330 O   0  0  0  0  0  0  0  0  0  0  0  0
  -24.6360  -31.8890   23.2430 C   0  0  0  0  0  0  0  0  0  0  0  0
  -27.2030  -27.2850   20.1620 C   0  0  0  0  0  0  0  0  0  0  0  0
  -23.4160  -30.4960   21.6140 C   0  0  0  0  0  3  0  0  0  0  0  0
  -24.8510  -28.9440   20.1710 C   0  0  0  0  0  0  0  0  0  0  0  0
  -25.9590  -30.7940   21.4130 C   0  0  0  0  0  2  0  0  0  0  0  0
  -26.0290  -29.4120   20.7650 C   0  0  0  0  0  0  0  0  0  0  0  0
  -27.2060  -28.5940   20.7550 C   0  0  0  0  0  3  0  0  0  0  0  0
  -26.0020  -26.8990   19.5170 C   0  0  0  0  0  3  0  0  0  0  0  0
  -24.8430  -27.6960   19.5340 C   0  0  0  0  0  3  0  0  0  0  0  0
  -23.6180  -29.8240   20.2310 C   0  0  0  0  0  2  0  0  0  0  0  0
  -24.6890  -31.0780   22.1460 N   0  0  0  0  0  0  0  0  0  0  0  0
  -23.5570  -32.1690   23.7880 O   0  0  0  0  0  0  0  0  0  0  0  0
  -22.7540  -29.4810   22.5780 C   0  0  0  0  0  0  0  0  0  0  0  0
  -21.4280  -29.3060   22.4580 N   0  0  0  0  0  0  0  0  0  0  0  0
  -23.4350  -28.8570   23.3960 O   0  0  0  0  0  0  0  0  0  0  0  0
  -20.9370  -29.8620   21.7710 H   0  0  0  0  0  0  0  0  0  0  0  0
  -18.0550  -28.0950   22.9610 C   0  0  0  0  0  0  0  0  0  0  0  0
  -20.6110  -28.3710   23.2350 C   0  0  0  0  0  3  0  0  0  0  0  0
  -20.7210  -26.9350   22.6730 C   0  0  0  0  0  2  0  0  0  0  0  0
  -19.6230  -26.5960   21.6590 C   0  0  0  0  0  2  0  0  0  0  0  0
  -18.2390  -26.7410   22.2970 C   0  0  0  0  0  2  0  0  0  0  0  0
  -19.1680  -28.8670   23.3870 C   0  0  0  0  0  0  0  0  0  0  0  0
  -18.9410  -30.1330   23.9700 C   0  0  0  0  0  3  0  0  0  0  0  0
  -17.6320  -30.6270   24.1310 C   0  0  0  0  0  3  0  0  0  0  0  0
  -16.5340  -29.8530   23.7190 C   0  0  0  0  0  3  0  0  0  0  0  0
  -16.7450  -28.5900   23.1390 C   0  0  0  0  0  3  0  0  0  0  0  0
  -25.9240  -32.5190   23.8560 C   0  0  0  0  0  3  0  0  0  0  0  0
  -26.4470  -31.7440   25.1280 C   0  0  1  0  0  0  0  0  0  0  0  0
  -25.3630  -31.5160   26.2070 C   0  0  0  0  0  1  0  0  0  0  0  0
  -27.0140  -30.3620   24.7320 C   0  0  0  0  0  1  0  0  0  0  0  0
  -27.6110  -32.5310   25.7750 C   0  0  0  0  0  1  0  0  0  0  0  0
  -25.6190  -33.9160   24.1930 N   0  0  0  0  0  0  0  0  0  0  0  0
  -25.9440  -34.9720   23.4340 C   0  0  0  0  0  0  0  0  0  0  0  0
  -26.6000  -34.8690   22.3930 O   0  0  0  0  0  0  0  0  0  0  0  0
  -25.0330  -34.0690   25.0010 H   0  0  0  0  0  0  0  0  0  0  0  0
  -24.2120  -36.7680   23.1080 C   0  0  0  0  0  1  0  0  0  0  0  0
  -25.4650  -36.3600   23.8990 C   0  0  0  0  0  3  0  0  0  0  0  0
  -27.6190  -37.2380   24.6920 C   0  0  0  0  0  1  0  0  0  0  0  0
  -26.4970  -37.4140   23.7730 N   0  0  0  0  0  0  0  0  0  0  0  0
  -26.0950  -38.3330   23.9360 H   0  0  0  0  0  0  0  0  0  0  0  0
  1  3  2  0
  2  1  1  0
  2  5  1  0
  4  2  1  0
  6  8  2  0
  6  7  1  0
  7 10  2  0
  8 11  1  0
 10  9  1  0
 10  5  1  0
 11 20  1  0
 11  9  2  0
 12 20  1  0
 13 18  1  0
 14 15  1  0
 14 13  1  0
 16 15  1  0
 16 25  1  0
 16 17  1  0
 18 12  1  0
 18 17  1  0
 19 12  2  0
 20 21  1  0
 22 23  2  0
 23 42  1  0
 24 23  1  0
 24 27  1  0
 25 22  1  0
 25 26  1  0
 26 24  2  0
 27 28  1  0
 28 29  2  0
 30 33  1  0
 30 29  1  0
 31 30  2  0
 32 31  1  0
 32 27  2  0
 33 34  1  0
 34 35  1  0
 35 36  2  0
 37 36  1  0
 37 41  1  0
 38 37  2  0
 39 34  2  0
 39 38  1  0
 40 39  1  0
 42 43  1  0
 43 46  1  0
 43 45  1  0
 44 42  2  0
 47 48  1  0
 47 22  1  0
 49 47  1  0
 50 51  1  0
 50  1  1  0
 52 63  2  0
 53 51  1  0
 53 58  1  0
 54 62  1  0
 54 64  1  0
 55 61  1  0
 55 57  1  0
 56 62  1  0
 57 56  1  0
 58 57  2  0
 59 60  1  0
 59 53  2  0
 60 55  2  0
 61 54  1  0
 62 52  1  0
 64 66  2  0
 65 64  1  0
 67 65  1  0
 68 77  2  0
 68 73  1  0
 69 65  1  0
 69 73  1  0
 70 69  1  0
 71 72  1  0
 71 70  1  0
 72 68  1  0
 73 74  2  0
 74 75  1  0
 76 75  2  0
 77 76  1  0
 78 52  1  0
 78 83  1  0
 78 79  1  0
 79 82  1  1
 79 80  1  0
 81 79  1  0
 83 86  1  0
 84 88  1  0
 84 83  1  0
 85 84  2  0
 88 87  1  0
 90 88  1  0
 90 91  1  0
 90 89  1  0
M  ISO  4  12 100  20 100  50 101  51 101
M  END
>  <TORSDO>  (87) 
F 19

>  <SCORE>  (87) 
-14.199

>  <name>  (87) 
86

>  <ligand_id>  (87) 
86

>  <original_smiles>  (87) 
[H]c1c([H])c(N([H])C(=O)N2C([H])([H])C([H])([H])C([H])([H])C([H])(n3nc(-c4c([H])c([H])c(Oc5c([H])c([H])c(F)c([H])c5F)c([H])c4[H])c(C(=O)N([H])[H])c3N([H])[H])C2([H])[H])c([H])c(C([H])([H])N([H])C(=O)C([H])([H])Oc2c([H])c([H])c3c(c2[H])C([H])([H])N(C(=O)C([H])(N([H])C(=O)C([H])(N([H])C([H])([H])[H])C([H])([H])[H])C(C([H])([H])[H])(C([H])([H])[H])C([H])([H])[H])C([H])(C(=O)N([H])C2([H])c4c([H])c([H])c([H])c([H])c4C([H])([H])C([H])([H])C2([H])[H])C3([H])[H])c1[H]

>  <smiles>  (87) 
[H]c1c([H])c(N([H])C(=O)N2C([H])([H])C([H])([H])C([H])([H])C([H])(n3nc(-c4c([H])c([H])c(Oc5c([H])c([H])c(F)c([H])c5F)c([H])c4[H])c(C(=O)N([H])[H])c3N([H])[H])C2([H])[H])c([H])c(C([H])([H])N([H])C(=O)C([H])([H])Oc2c([H])c([H])c3c(c2[H])C([H])([H])N(C(=O)C([H])(N([H])C(=O)C([H])(N([H])C([H])([H])[H])C([H])([H])[H])C(C([H])([H])[H])(C([H])([H])[H])C([H])([H])[H])C([H])(C(=O)N([H])C2([H])c4c([H])c([H])c([H])c([H])c4C([H])([H])C([H])([H])C2([H])[H])C3([H])[H])c1[H]

$$$$
87:0:0
     RDKit          3D

 91 99  0  0  1  0  0  0  0  0999 V2000
  -29.0700  -23.3170   20.2440 C   0  0  0  0  0  0  0  0  0  0  0  0
  -27.5740  -21.5900   19.3740 C   0  0  0  0  0  1  0  0  0  0  0  0
  -28.7800  -21.8870   20.1460 N   0  0  0  0  0  0  0  0  0  0  0  0
  -30.2460  -23.6800   20.3640 O   0  0  0  0  0  0  0  0  0  0  0  0
  -31.1600  -19.4060   22.0720 C   0  0  0  0  0  3  0  0  0  0  0  0
  -31.0030  -18.1310   21.4850 C   0  0  0  0  0  3  0  0  0  0  0  0
  -29.3680  -19.1620   20.0290 C   0  0  0  0  0  3  0  0  0  0  0  0
  -30.4510  -20.5710   21.6790 C   0  0  0  0  0  0  0  0  0  0  0  0
  -30.0730  -17.8940   20.4610 C   0  0  0  0  0  0  0  0  0  0  0  0
  -29.5520  -20.5690   20.5650 C   0  0  0  0  0  0  0  0  0  0  0  0
  -30.6300  -21.7580   22.6150 C   0  0  0  0  0  1  0  0  0  0  0  0
  -30.6300  -15.1760   20.1430 C   0  0  0  0  0  0  0  0  0  0  0  0
  -30.5340  -12.7970   19.2140 C   0  0  0  0  0  2  0  0  0  0  0  0
  -29.5630  -12.6520   18.0200 C   0  0  0  0  0  2  0  0  0  0  0  0
  -28.1300  -12.3810   18.5160 C   0  0  0  0  0  2  0  0  0  0  0  0
  -27.7250  -13.3460   19.6600 C   0  0  0  0  0  3  0  0  0  0  0  0
  -28.8140  -13.4480   20.7460 C   0  0  0  0  0  2  0  0  0  0  0  0
  -30.0300  -13.9120   20.0660 N   0  0  0  0  0  0  0  0  0  0  0  0
  -31.8570  -15.1930   19.9860 O   0  0  0  0  0  0  0  0  0  0  0  0
  -29.8530  -16.3960   20.0780 N   0  0  0  0  0  0  0  0  0  0  0  0
  -28.8970  -16.2040   19.8130 H   0  0  0  0  0  0  0  0  0  0  0  0
  -25.3790  -13.9210   20.4970 C   0  0  0  0  0  0  0  0  0  0  0  0
  -24.3220  -13.1470   20.8910 C   0  0  0  0  0  0  0  0  0  0  0  0
  -24.7780  -11.7920   20.8190 C   0  0  0  0  0  0  0  0  0  0  0  0
  -26.4090  -13.0420   20.2090 N   0  0  0  0  0  0  0  0  0  0  0  0
  -26.0570  -11.7560   20.4680 N   0  0  0  0  0  0  0  0  0  0  0  0
  -24.0490  -10.5330   20.9950 C   0  0  0  0  0  0  0  0  0  0  0  0
  -24.4860   -9.5550   21.9140 C   0  0  0  0  0  3  0  0  0  0  0  0
  -23.7600   -8.3550   22.0830 C   0  0  0  0  0  3  0  0  0  0  0  0
  -22.5800   -8.1290   21.3350 C   0  0  0  0  0  0  0  0  0  0  0  0
  -22.1610   -9.0970   20.4030 C   0  0  0  0  0  3  0  0  0  0  0  0
  -22.8890  -10.2860   20.2330 C   0  0  0  0  0  3  0  0  0  0  0  0
  -21.8230   -6.9850   21.4160 O   0  0  0  0  0  0  0  0  0  0  0  0
  -21.7510   -6.2500   22.5740 C   0  0  0  0  0  0  0  0  0  0  0  0
  -21.2720   -6.8030   23.7800 C   0  0  0  0  0  3  0  0  0  0  0  0
  -21.1510   -5.9930   24.9280 C   0  0  0  0  0  3  0  0  0  0  0  0
  -21.4980   -4.6310   24.8670 C   0  0  0  0  0  0  0  0  0  0  0  0
  -21.9680   -4.0770   23.6640 C   0  0  0  0  0  3  0  0  0  0  0  0
  -22.0930   -4.8840   22.5190 C   0  0  0  0  0  0  0  0  0  0  0  0
  -22.5290   -4.3390   21.3590 F   0  0  0  0  0  0  0  0  0  0  0  0
  -21.3710   -3.8520   25.9660 F   0  0  0  0  0  0  0  0  0  0  0  0
  -22.9390  -13.6270   21.2140 C   0  0  0  0  0  0  0  0  0  0  0  0
  -22.2230  -12.9200   22.0790 N   0  0  0  0  0  0  0  0  0  0  0  0
  -22.5000  -14.6720   20.7310 O   0  0  0  0  0  0  0  0  0  0  0  0
  -22.5870  -12.0780   22.5010 H   0  0  0  0  0  0  0  0  0  0  0  0
  -21.2960  -13.2310   22.3280 H   0  0  0  0  0  0  0  0  0  0  0  0
  -25.5470  -15.2920   20.3230 N   0  0  0  0  0  0  0  0  0  0  0  0
  -24.7570  -15.9280   20.3340 H   0  0  0  0  0  0  0  0  0  0  0  0
  -26.3720  -15.7030   19.9070 H   0  0  0  0  0  0  0  0  0  0  0  0
  -27.9550  -24.5870   20.1390 C   0  0  0  0  0  2  0  0  0  0  0  0
  -28.2660  -26.1350   20.2950 O   0  0  0  0  0  0  0  0  0  0  0  0
  -24.6410  -31.9380   23.2220 C   0  0  0  0  0  0  0  0  0  0  0  0
  -27.2150  -27.1440   20.2300 C   0  0  0  0  0  0  0  0  0  0  0  0
  -23.4410  -30.5230   21.6050 C   0  0  0  0  0  3  0  0  0  0  0  0
  -24.8820  -28.9170   20.1980 C   0  0  0  0  0  0  0  0  0  0  0  0
  -25.9980  -30.7690   21.4350 C   0  0  0  0  0  2  0  0  0  0  0  0
  -26.0680  -29.3620   20.7970 C   0  0  0  0  0  0  0  0  0  0  0  0
  -27.2290  -28.4910   20.7990 C   0  0  0  0  0  3  0  0  0  0  0  0
  -26.0020  -26.8200   19.5820 C   0  0  0  0  0  3  0  0  0  0  0  0
  -24.8630  -27.6570   19.5780 C   0  0  0  0  0  3  0  0  0  0  0  0
  -23.6620  -29.8290   20.2350 C   0  0  0  0  0  2  0  0  0  0  0  0
  -24.7140  -31.1000   22.1420 N   0  0  0  0  0  0  0  0  0  0  0  0
  -23.5550  -32.2350   23.7460 O   0  0  0  0  0  0  0  0  0  0  0  0
  -22.7610  -29.5320   22.5850 C   0  0  0  0  0  0  0  0  0  0  0  0
  -21.4340  -29.3510   22.4560 N   0  0  0  0  0  0  0  0  0  0  0  0
  -23.4300  -28.9310   23.4290 O   0  0  0  0  0  0  0  0  0  0  0  0
  -20.9550  -29.8740   21.7350 H   0  0  0  0  0  0  0  0  0  0  0  0
  -18.0630  -28.1290   22.9750 C   0  0  0  0  0  0  0  0  0  0  0  0
  -20.6170  -28.4230   23.2440 C   0  0  0  0  0  3  0  0  0  0  0  0
  -20.7420  -26.9840   22.6960 C   0  0  0  0  0  2  0  0  0  0  0  0
  -19.6480  -26.6290   21.6850 C   0  0  0  0  0  2  0  0  0  0  0  0
  -18.2600  -26.7720   22.3190 C   0  0  0  0  0  2  0  0  0  0  0  0
  -19.1720  -28.9120   23.3950 C   0  0  0  0  0  0  0  0  0  0  0  0
  -18.9400  -30.1780   23.9720 C   0  0  0  0  0  3  0  0  0  0  0  0
  -17.6290  -30.6630   24.1360 C   0  0  0  0  0  3  0  0  0  0  0  0
  -16.5330  -29.8810   23.7310 C   0  0  0  0  0  3  0  0  0  0  0  0
  -16.7510  -28.6170   23.1540 C   0  0  0  0  0  3  0  0  0  0  0  0
  -25.9200  -32.5840   23.8370 C   0  0  0  0  0  3  0  0  0  0  0  0
  -25.6040  -33.9810   24.1750 N   0  0  0  0  0  0  0  0  0  0  0  0
  -25.9150  -35.0430   23.4190 C   0  0  0  0  0  0  0  0  0  0  0  0
  -26.5670  -34.9470   22.3750 O   0  0  0  0  0  0  0  0  0  0  0  0
  -25.0210  -34.1270   24.9860 H   0  0  0  0  0  0  0  0  0  0  0  0
  -24.1800  -36.8340   23.0860 C   0  0  0  0  0  1  0  0  0  0  0  0
  -25.4280  -36.4290   23.8890 C   0  0  0  0  0  3  0  0  0  0  0  0
  -27.5630  -37.3150   24.7180 C   0  0  0  0  0  1  0  0  0  0  0  0
  -26.4580  -37.4860   23.7760 N   0  0  0  0  0  0  0  0  0  0  0  0
  -26.0540  -38.4070   23.9230 H   0  0  0  0  0  0  0  0  0  0  0  0
  -26.4450  -31.8150   25.1120 C   0  0  1  0  0  0  0  0  0  0  0  0
  -25.3520  -31.5630   26.1780 C   0  0  0  0  0  1  0  0  0  0  0  0
  -27.0400  -30.4430   24.7240 C   0  0  0  0  0  1  0  0  0  0  0  0
  -27.6010  -32.6090   25.7630 C   0  0  0  0  0  1  0  0  0  0  0  0
  1  4  2  0
  2  3  1  0
  3  1  1  0
  3 10  1  0
  6  5  2  0
  7  9  2  0
  7 10  1  0
  8  5  1  0
  8 11  1  0
  9  6  1  0
 10  8  2  0
 13 18  1  0
 14 15  1  0
 14 13  1  0
 16 15  1  0
 16 25  1  0
 16 17  1  0
 18 12  1  0
 18 17  1  0
 19 12  2  0
 20 12  1  0
 20  9  1  0
 21 20  1  0
 22 23  2  0
 23 42  1  0
 24 23  1  0
 24 27  1  0
 25 26  1  0
 25 22  1  0
 26 24  2  0
 27 28  1  0
 28 29  2  0
 30 33  1  0
 30 29  1  0
 31 30  2  0
 32 31  1  0
 32 27  2  0
 33 34  1  0
 34 35  1  0
 35 36  2  0
 37 36  1  0
 37 41  1  0
 38 37  2  0
 39 34  2  0
 39 38  1  0
 40 39  1  0
 42 43  1  0
 43 46  1  0
 43 45  1  0
 44 42  2  0
 47 48  1  0
 47 22  1  0
 49 47  1  0
 50  1  1  0
 50 51  1  0
 52 63  2  0
 53 51  1  0
 53 58  1  0
 54 62  1  0
 54 64  1  0
 55 61  1  0
 55 57  1  0
 56 62  1  0
 57 58  2  0
 57 56  1  0
 59 53  2  0
 60 59  1  0
 60 55  2  0
 61 54  1  0
 62 52  1  0
 64 66  2  0
 65 64  1  0
 67 65  1  0
 68 77  2  0
 68 73  1  0
 69 65  1  0
 69 73  1  0
 70 69  1  0
 71 72  1  0
 71 70  1  0
 72 68  1  0
 73 74  2  0
 74 75  1  0
 76 75  2  0
 77 76  1  0
 78 52  1  0
 78 79  1  0
 78 88  1  0
 79 82  1  0
 80 84  1  0
 80 79  1  0
 81 80  2  0
 84 83  1  0
 86 84  1  0
 86 87  1  0
 86 85  1  0
 88 91  1  1
 88 89  1  0
 90 88  1  0
M  ISO  4  12 100  20 100  50 101  51 101
M  END
>  <TORSDO>  (88) 
F 18

>  <SCORE>  (88) 
-14.965

>  <name>  (88) 
87

>  <ligand_id>  (88) 
87

>  <original_smiles>  (88) 
[H]c1c([H])c([H])c2c(c1[H])C([H])([H])C([H])([H])C([H])([H])C2([H])N([H])C(=O)C1([H])N(C(=O)C([H])(N([H])C(=O)C([H])(N([H])C([H])([H])[H])C([H])([H])[H])C(C([H])([H])[H])(C([H])([H])[H])C([H])([H])[H])C([H])([H])c2c([H])c(OC([H])([H])C(=O)N(c3c([H])c(N([H])C(=O)N4C([H])([H])C([H])([H])C([H])([H])C([H])(n5nc(-c6c([H])c([H])c(Oc7c([H])c([H])c(F)c([H])c7F)c([H])c6[H])c(C(=O)N([H])[H])c5N([H])[H])C4([H])[H])c([H])c([H])c3C([H])([H])[H])C([H])([H])[H])c([H])c([H])c2C1([H])[H]

>  <smiles>  (88) 
[H]c1c([H])c([H])c2c(c1[H])C([H])([H])C([H])([H])C([H])([H])C2([H])N([H])C(=O)C1([H])N(C(=O)C([H])(N([H])C(=O)C([H])(N([H])C([H])([H])[H])C([H])([H])[H])C(C([H])([H])[H])(C([H])([H])[H])C([H])([H])[H])C([H])([H])c2c([H])c(OC([H])([H])C(=O)N(c3c([H])c(N([H])C(=O)N4C([H])([H])C([H])([H])C([H])([H])C([H])(n5nc(-c6c([H])c([H])c(Oc7c([H])c([H])c(F)c([H])c7F)c([H])c6[H])c(C(=O)N([H])[H])c5N([H])[H])C4([H])[H])c([H])c([H])c3C([H])([H])[H])C([H])([H])[H])c([H])c([H])c2C1([H])[H]

$$$$
88:0:0
     RDKit          3D

 99108  0  0  1  0  0  0  0  0999 V2000
  -29.7760  -21.7500   20.8500 C   0  0  0  0  0  0  0  0  0  0  0  0
  -31.6580  -20.6090   21.9850 C   0  0  0  0  0  1  0  0  0  0  0  0
  -30.6230  -20.6820   20.9440 N   0  0  0  0  0  0  0  0  0  0  0  0
  -29.0290  -21.9170   19.8810 O   0  0  0  0  0  0  0  0  0  0  0  0
  -29.8270  -19.4760   18.7730 C   0  0  0  0  0  2  0  0  0  0  0  0
  -30.8310  -19.6050   19.9310 C   0  0  0  0  0  3  0  0  0  0  0  0
  -30.3620  -18.1560   20.2580 C   0  0  0  0  0  3  0  0  0  0  0  0
  -30.1480  -18.0550   18.8030 N   0  0  0  0  0  4  0  0  0  0  0  0
  -30.9950  -17.8560   18.3000 H   0  0  0  0  0  0  0  0  0  0  0  0
  -29.3900  -17.4570   18.5220 H   0  0  0  0  0  0  0  0  0  0  0  0
  -31.3100  -17.0310   20.7770 C   0  0  0  0  0  3  0  0  0  0  0  0
  -31.3170  -14.6270   19.9840 C   0  0  0  0  0  0  0  0  0  0  0  0
  -30.9200  -12.3880   19.0260 C   0  0  0  0  0  2  0  0  0  0  0  0
  -29.9470  -12.4890   17.8330 C   0  0  0  0  0  2  0  0  0  0  0  0
  -28.4840  -12.4310   18.3130 C   0  0  0  0  0  2  0  0  0  0  0  0
  -28.1990  -13.3980   19.4940 C   0  0  0  0  0  3  0  0  0  0  0  0
  -29.2800  -13.2630   20.5920 C   0  0  0  0  0  2  0  0  0  0  0  0
  -30.5980  -13.4720   19.9680 N   0  0  0  0  0  0  0  0  0  0  0  0
  -32.3830  -14.7640   19.3790 O   0  0  0  0  0  0  0  0  0  0  0  0
  -30.7410  -15.6760   20.6030 N   0  0  0  0  0  0  0  0  0  0  0  0
  -29.8830  -15.4710   21.0930 H   0  0  0  0  0  0  0  0  0  0  0  0
  -25.8910  -14.1550   20.3510 C   0  0  0  0  0  0  0  0  0  0  0  0
  -24.7830  -13.4520   20.7350 C   0  0  0  0  0  0  0  0  0  0  0  0
  -25.1290  -12.0700   20.6130 C   0  0  0  0  0  0  0  0  0  0  0  0
  -26.8510  -13.2070   20.0270 N   0  0  0  0  0  0  0  0  0  0  0  0
  -26.3960  -11.9450   20.2380 N   0  0  0  0  0  0  0  0  0  0  0  0
  -24.3100  -10.8630   20.7800 C   0  0  0  0  0  0  0  0  0  0  0  0
  -24.6860   -9.8320   21.6690 C   0  0  0  0  0  3  0  0  0  0  0  0
  -23.8720   -8.6900   21.8250 C   0  0  0  0  0  3  0  0  0  0  0  0
  -22.6700   -8.5700   21.0900 C   0  0  0  0  0  0  0  0  0  0  0  0
  -22.3120   -9.5870   20.1900 C   0  0  0  0  0  3  0  0  0  0  0  0
  -23.1230  -10.7230   20.0320 C   0  0  0  0  0  3  0  0  0  0  0  0
  -21.8300   -7.4840   21.1580 O   0  0  0  0  0  0  0  0  0  0  0  0
  -21.7080   -6.7380   22.3040 C   0  0  0  0  0  0  0  0  0  0  0  0
  -21.3020   -7.3130   23.5260 C   0  0  0  0  0  3  0  0  0  0  0  0
  -21.1230   -6.4980   24.6620 C   0  0  0  0  0  3  0  0  0  0  0  0
  -21.3400   -5.1090   24.5760 C   0  0  0  0  0  0  0  0  0  0  0  0
  -21.7400   -4.5340   23.3570 C   0  0  0  0  0  3  0  0  0  0  0  0
  -21.9210   -5.3470   22.2230 C   0  0  0  0  0  0  0  0  0  0  0  0
  -22.2850   -4.7840   21.0450 F   0  0  0  0  0  0  0  0  0  0  0  0
  -21.1610   -4.3250   25.6640 F   0  0  0  0  0  0  0  0  0  0  0  0
  -23.4440  -14.0230   21.1050 C   0  0  0  0  0  0  0  0  0  0  0  0
  -22.7110  -13.3490   21.9830 N   0  0  0  0  0  0  0  0  0  0  0  0
  -23.0620  -15.1030   20.6530 O   0  0  0  0  0  0  0  0  0  0  0  0
  -23.0340  -12.4750   22.3690 H   0  0  0  0  0  0  0  0  0  0  0  0
  -21.8140  -13.7110   22.2740 H   0  0  0  0  0  0  0  0  0  0  0  0
  -26.1570  -15.5160   20.2310 N   0  0  0  0  0  0  0  0  0  0  0  0
  -25.4460  -16.2170   20.4040 H   0  0  0  0  0  0  0  0  0  0  0  0
  -27.0200  -15.9060   19.8750 H   0  0  0  0  0  0  0  0  0  0  0  0
  -30.5570  -17.3500   23.2520 C   0  0  0  0  0  1  0  0  0  0  0  0
  -31.7190  -17.1810   22.2610 C   0  0  0  0  0  2  0  0  0  0  0  0
  -29.9110  -25.1970   21.2090 C   0  0  0  0  0  0  0  0  0  0  0  0
  -28.5380  -22.6770   22.9380 C   0  0  0  0  0  2  0  0  0  0  0  0
  -28.2510  -24.1710   22.7500 C   0  0  0  0  0  2  0  0  0  0  0  0
  -29.7320  -22.8200   21.9810 C   0  0  0  0  0  3  0  0  0  0  0  0
  -29.1230  -24.1000   21.5860 N   0  0  0  0  0  0  0  0  0  0  0  0
  -31.0910  -25.0400   20.8800 O   0  0  0  0  0  0  0  0  0  0  0  0
  -29.3110  -26.6200   21.2800 C   0  0  0  0  0  2  0  0  0  0  0  0
  -28.6660  -26.9180   20.0400 O   0  0  0  0  0  0  0  0  0  0  0  0
  -24.6810  -31.9010   23.2830 C   0  0  0  0  0  0  0  0  0  0  0  0
  -27.5080  -27.6550   20.1050 C   0  0  0  0  0  0  0  0  0  0  0  0
  -23.5390  -30.5140   21.5790 C   0  0  0  0  0  3  0  0  0  0  0  0
  -25.0630  -29.0660   20.1280 C   0  0  0  0  0  0  0  0  0  0  0  0
  -26.0510  -30.9600   21.4270 C   0  0  0  0  0  2  0  0  0  0  0  0
  -26.1910  -29.6100   20.7570 C   0  0  0  0  0  0  0  0  0  0  0  0
  -27.4160  -28.9060   20.7590 C   0  0  0  0  0  3  0  0  0  0  0  0
  -26.3720  -27.1310   19.4590 C   0  0  0  0  0  3  0  0  0  0  0  0
  -25.1460  -27.8210   19.4780 C   0  0  0  0  0  3  0  0  0  0  0  0
  -23.7900  -29.8810   20.1820 C   0  0  0  0  0  2  0  0  0  0  0  0
  -24.7730  -31.1400   22.1540 N   0  0  0  0  0  0  0  0  0  0  0  0
  -23.5870  -32.1190   23.8200 O   0  0  0  0  0  0  0  0  0  0  0  0
  -22.9090  -29.4440   22.5000 C   0  0  0  0  0  0  0  0  0  0  0  0
  -21.6010  -29.2020   22.3330 N   0  0  0  0  0  0  0  0  0  0  0  0
  -23.6000  -28.8330   23.3220 O   0  0  0  0  0  0  0  0  0  0  0  0
  -21.1030  -29.7520   21.6460 H   0  0  0  0  0  0  0  0  0  0  0  0
  -18.2780  -27.8220   22.6910 C   0  0  0  0  0  0  0  0  0  0  0  0
  -20.8080  -28.2090   23.0580 C   0  0  0  0  0  3  0  0  0  0  0  0
  -21.0060  -26.7950   22.4640 C   0  0  0  0  0  2  0  0  0  0  0  0
  -19.9610  -26.4340   21.4040 C   0  0  0  0  0  2  0  0  0  0  0  0
  -18.5500  -26.4940   22.0000 C   0  0  0  0  0  2  0  0  0  0  0  0
  -19.3390  -28.6340   23.1720 C   0  0  0  0  0  0  0  0  0  0  0  0
  -19.0370  -29.8730   23.7750 C   0  0  0  0  0  3  0  0  0  0  0  0
  -17.7030  -30.3050   23.9030 C   0  0  0  0  0  3  0  0  0  0  0  0
  -16.6550  -29.4910   23.4370 C   0  0  0  0  0  3  0  0  0  0  0  0
  -16.9420  -28.2510   22.8390 C   0  0  0  0  0  3  0  0  0  0  0  0
  -25.9440  -32.5510   23.9350 C   0  0  0  0  0  3  0  0  0  0  0  0
  -25.6100  -33.9500   24.2430 N   0  0  0  0  0  0  0  0  0  0  0  0
  -25.9390  -34.9970   23.4750 C   0  0  0  0  0  0  0  0  0  0  0  0
  -26.6260  -34.8910   22.4540 O   0  0  0  0  0  0  0  0  0  0  0  0
  -25.0000  -34.1040   25.0330 H   0  0  0  0  0  0  0  0  0  0  0  0
  -24.1810  -36.7550   23.0780 C   0  0  0  0  0  1  0  0  0  0  0  0
  -25.4230  -36.3840   23.9060 C   0  0  0  0  0  3  0  0  0  0  0  0
  -27.5360  -37.3180   24.7360 C   0  0  0  0  0  1  0  0  0  0  0  0
  -26.4380  -37.4530   23.7830 N   0  0  0  0  0  0  0  0  0  0  0  0
  -26.0140  -38.3670   23.9150 H   0  0  0  0  0  0  0  0  0  0  0  0
  -26.4340  -31.7970   25.2320 C   0  0  1  0  0  0  0  0  0  0  0  0
  -25.3110  -31.5460   26.2670 C   0  0  0  0  0  1  0  0  0  0  0  0
  -27.0530  -30.4270   24.8650 C   0  0  0  0  0  1  0  0  0  0  0  0
  -27.5440  -32.6160   25.9300 C   0  0  0  0  0  1  0  0  0  0  0  0
  1  3  1  0
  3  2  1  0
  4  1  2  0
  5  8  1  0
  5  6  1  0
  6  7  1  0
  6  3  1  0
  7 11  1  0
  8  7  1  0
  9  8  1  0
 10  8  1  0
 11 51  1  0
 12 20  1  0
 13 18  1  0
 14 15  1  0
 14 13  1  0
 16 15  1  0
 16 25  1  0
 16 17  1  0
 18 12  1  0
 18 17  1  0
 19 12  2  0
 20 11  1  0
 20 21  1  0
 22 23  2  0
 23 42  1  0
 24 23  1  0
 24 27  1  0
 25 26  1  0
 25 22  1  0
 26 24  2  0
 27 28  1  0
 28 29  2  0
 30 33  1  0
 30 29  1  0
 31 30  2  0
 32 31  1  0
 32 27  2  0
 33 34  1  0
 34 35  1  0
 35 36  2  0
 37 36  1  0
 37 41  1  0
 38 37  2  0
 39 34  2  0
 39 38  1  0
 40 39  1  0
 42 43  1  0
 43 46  1  0
 43 45  1  0
 44 42  2  0
 47 22  1  0
 47 48  1  0
 49 47  1  0
 51 50  1  0
 52 58  1  0
 52 56  1  0
 54 53  1  0
 55  1  1  0
 55 53  1  0
 56 55  1  0
 56 54  1  0
 57 52  2  0
 59 61  1  0
 59 58  1  0
 60 71  2  0
 61 66  1  0
 62 70  1  0
 62 72  1  0
 63 69  1  0
 63 65  1  0
 64 70  1  0
 65 66  2  0
 65 64  1  0
 67 68  1  0
 67 61  2  0
 68 63  2  0
 69 62  1  0
 70 60  1  0
 72 74  2  0
 73 72  1  0
 75 73  1  0
 76 85  2  0
 76 81  1  0
 77 73  1  0
 77 81  1  0
 78 77  1  0
 79 80  1  0
 79 78  1  0
 80 76  1  0
 81 82  2  0
 82 83  1  0
 84 83  2  0
 85 84  1  0
 86 60  1  0
 86 87  1  0
 86 96  1  0
 87 90  1  0
 88 92  1  0
 88 87  1  0
 89 88  2  0
 92 91  1  0
 94 92  1  0
 94 95  1  0
 94 93  1  0
 96 99  1  1
 96 97  1  0
 98 96  1  0
M  ISO  4  12 100  20 100  58 101  59 101
M  END
>  <TORSDO>  (89) 
F 21

>  <SCORE>  (89) 
-11.308

>  <name>  (89) 
88

>  <ligand_id>  (89) 
88

>  <original_smiles>  (89) 
[H]c1c([H])c([H])c2c(c1[H])C([H])([H])C([H])([H])C([H])([H])C2([H])N([H])C(=O)C1([H])N(C(=O)C([H])(N([H])C(=O)C([H])(N([H])C([H])([H])[H])C([H])([H])[H])C(C([H])([H])[H])(C([H])([H])[H])C([H])([H])[H])C([H])([H])c2c([H])c(OC([H])([H])C(=O)N3C([H])([H])C([H])([H])C3([H])C(=O)N(C([H])([H])[H])C3([H])C([H])([H])[N+]([H])([H])C3([H])C([H])(N([H])C(=O)N3C([H])([H])C([H])([H])C([H])([H])C([H])(n4nc(-c5c([H])c([H])c(Oc6c([H])c([H])c(F)c([H])c6F)c([H])c5[H])c(C(=O)N([H])[H])c4N([H])[H])C3([H])[H])C([H])([H])C([H])([H])[H])c([H])c([H])c2C1([H])[H]

>  <smiles>  (89) 
[H]c1c([H])c([H])c2c(c1[H])C([H])([H])C([H])([H])C([H])([H])C2([H])N([H])C(=O)C1([H])N(C(=O)C([H])(N([H])C(=O)C([H])(N([H])C([H])([H])[H])C([H])([H])[H])C(C([H])([H])[H])(C([H])([H])[H])C([H])([H])[H])C([H])([H])c2c([H])c(OC([H])([H])C(=O)N3C([H])([H])C([H])([H])C3([H])C(=O)N(C([H])([H])[H])C3([H])C([H])([H])[N+]([H])([H])C3([H])C([H])(N([H])C(=O)N3C([H])([H])C([H])([H])C([H])([H])C([H])(n4nc(-c5c([H])c([H])c(Oc6c([H])c([H])c(F)c([H])c6F)c([H])c5[H])c(C(=O)N([H])[H])c4N([H])[H])C3([H])[H])C([H])([H])C([H])([H])[H])c([H])c([H])c2C1([H])[H]

$$$$
89:0:0
     RDKit          3D

 99107  0  0  1  0  0  0  0  0999 V2000
  -28.0830  -20.5590   20.1990 C   0  0  0  0  0  2  0  0  0  0  0  0
  -28.5660  -19.2070   19.6770 C   0  0  0  0  0  0  0  0  0  0  0  0
  -29.8850  -19.0720   19.5210 N   0  0  0  0  0  0  0  0  0  0  0  0
  -27.7680  -18.2900   19.4830 O   0  0  0  0  0  0  0  0  0  0  0  0
  -30.4510  -19.8980   19.6430 H   0  0  0  0  0  0  0  0  0  0  0  0
  -30.6020  -17.8130   19.4190 C   0  0  0  0  0  2  0  0  0  0  0  0
  -32.1260  -17.9600   19.7160 C   0  0  0  0  0  3  0  0  0  0  0  0
  -33.6160  -15.9950   19.2810 C   0  0  0  0  0  0  0  0  0  0  0  0
  -34.2400  -13.7770   18.4260 C   0  0  0  0  0  2  0  0  0  0  0  0
  -33.1930  -13.3260   17.3840 C   0  0  0  0  0  2  0  0  0  0  0  0
  -31.9970  -12.6350   18.0650 C   0  0  0  0  0  2  0  0  0  0  0  0
  -31.4220  -13.4680   19.2410 C   0  0  0  0  0  3  0  0  0  0  0  0
  -32.5660  -13.8950   20.1900 C   0  0  0  0  0  2  0  0  0  0  0  0
  -33.5640  -14.6430   19.3990 N   0  0  0  0  0  0  0  0  0  0  0  0
  -34.3930  -16.5960   18.5340 O   0  0  0  0  0  0  0  0  0  0  0  0
  -32.6450  -16.6190   19.9540 N   0  0  0  0  0  0  0  0  0  0  0  0
  -32.0910  -16.0210   20.5490 H   0  0  0  0  0  0  0  0  0  0  0  0
  -29.0770  -13.1260   20.2570 C   0  0  0  0  0  0  0  0  0  0  0  0
  -28.5030  -12.0510   20.8850 C   0  0  0  0  0  0  0  0  0  0  0  0
  -29.5060  -11.0350   20.9240 C   0  0  0  0  0  0  0  0  0  0  0  0
  -30.3760  -12.7400   19.9580 N   0  0  0  0  0  0  0  0  0  0  0  0
  -30.6410  -11.4890   20.4090 N   0  0  0  0  0  0  0  0  0  0  0  0
  -29.4370   -9.6370   21.3670 C   0  0  0  0  0  0  0  0  0  0  0  0
  -30.5880   -8.9390   21.7970 C   0  0  0  0  0  3  0  0  0  0  0  0
  -30.4890   -7.6010   22.2370 C   0  0  0  0  0  3  0  0  0  0  0  0
  -29.2340   -6.9490   22.2510 C   0  0  0  0  0  0  0  0  0  0  0  0
  -28.0980   -7.6420   21.7980 C   0  0  0  0  0  3  0  0  0  0  0  0
  -28.1980   -8.9700   21.3550 C   0  0  0  0  0  3  0  0  0  0  0  0
  -29.0460   -5.6430   22.6350 O   0  0  0  0  0  0  0  0  0  0  0  0
  -30.0660   -4.9000   23.1750 C   0  0  0  0  0  0  0  0  0  0  0  0
  -31.2170   -5.5010   23.7290 C   0  0  0  0  0  3  0  0  0  0  0  0
  -32.2070   -4.7000   24.3340 C   0  0  0  0  0  3  0  0  0  0  0  0
  -32.0460   -3.3030   24.3930 C   0  0  0  0  0  0  0  0  0  0  0  0
  -30.8990   -2.7040   23.8440 C   0  0  0  0  0  3  0  0  0  0  0  0
  -29.9110   -3.5000   23.2390 C   0  0  0  0  0  0  0  0  0  0  0  0
  -28.7960   -2.9190   22.7330 F   0  0  0  0  0  0  0  0  0  0  0  0
  -32.9930   -2.5350   24.9800 F   0  0  0  0  0  0  0  0  0  0  0  0
  -27.0730  -11.9320   21.3310 C   0  0  0  0  0  0  0  0  0  0  0  0
  -26.8040  -11.0820   22.3180 N   0  0  0  0  0  0  0  0  0  0  0  0
  -26.1890  -12.6300   20.8370 O   0  0  0  0  0  0  0  0  0  0  0  0
  -27.5300  -10.5210   22.7390 H   0  0  0  0  0  0  0  0  0  0  0  0
  -25.8560  -10.9870   22.6550 H   0  0  0  0  0  0  0  0  0  0  0  0
  -28.5960  -14.3800   19.8950 N   0  0  0  0  0  0  0  0  0  0  0  0
  -27.6190  -14.6280   20.0090 H   0  0  0  0  0  0  0  0  0  0  0  0
  -29.1070  -15.0510   19.3340 H   0  0  0  0  0  0  0  0  0  0  0  0
  -31.7170  -18.6680   22.2060 C   0  0  0  0  0  2  0  0  0  0  0  0
  -31.8490  -20.0230   22.9130 C   0  0  0  0  0  2  0  0  0  0  0  0
  -32.5770  -20.3620   20.7460 C   0  0  0  0  0  2  0  0  0  0  0  0
  -32.5340  -18.8400   20.9310 C   0  0  0  0  0  3  0  0  0  0  0  0
  -32.6840  -20.8280   22.0850 O   0  0  0  0  0  0  0  0  0  0  0  0
  -28.3310  -21.6900   19.1980 C   0  0  0  0  0  2  0  0  0  0  0  0
  -28.5920  -24.1870   19.3150 C   0  0  0  0  0  0  0  0  0  0  0  0
  -28.4980  -24.3660   17.9910 N   0  0  0  0  0  4  0  0  0  0  0  0
  -28.5170  -22.9740   19.8860 N   0  0  0  0  0  0  0  0  0  0  0  0
  -28.3650  -23.6200   17.3300 H   0  0  0  0  0  0  0  0  0  0  0  0
  -28.6010  -25.3070   17.6380 H   0  0  0  0  0  0  0  0  0  0  0  0
  -28.6720  -22.9370   20.8840 H   0  0  0  0  0  0  0  0  0  0  0  0
  -28.8010  -25.3800   20.1910 C   0  0  0  0  0  2  0  0  0  0  0  0
  -28.7070  -26.5970   19.4590 O   0  0  0  0  0  0  0  0  0  0  0  0
  -25.1720  -31.4090   23.2670 C   0  0  0  0  0  0  0  0  0  0  0  0
  -27.5300  -27.2760   19.6260 C   0  0  0  0  0  0  0  0  0  0  0  0
  -23.8250  -30.1630   21.6030 C   0  0  0  0  0  3  0  0  0  0  0  0
  -25.1480  -28.7430   19.9500 C   0  0  0  0  0  0  0  0  0  0  0  0
  -26.3250  -30.5350   21.2420 C   0  0  0  0  0  2  0  0  0  0  0  0
  -26.3480  -29.2240   20.4910 C   0  0  0  0  0  0  0  0  0  0  0  0
  -27.5430  -28.4990   20.3220 C   0  0  0  0  0  3  0  0  0  0  0  0
  -26.3180  -26.7900   19.0890 C   0  0  0  0  0  3  0  0  0  0  0  0
  -25.1270  -27.5260   19.2440 C   0  0  0  0  0  3  0  0  0  0  0  0
  -23.9200  -29.5990   20.1600 C   0  0  0  0  0  2  0  0  0  0  0  0
  -25.1300  -30.7110   22.0970 N   0  0  0  0  0  0  0  0  0  0  0  0
  -24.1390  -31.6440   23.9090 O   0  0  0  0  0  0  0  0  0  0  0  0
  -23.2340  -29.0700   22.5190 C   0  0  0  0  0  0  0  0  0  0  0  0
  -21.9500  -28.7420   22.3000 N   0  0  0  0  0  0  0  0  0  0  0  0
  -23.9280  -28.5190   23.3800 O   0  0  0  0  0  0  0  0  0  0  0  0
  -21.4460  -29.2470   21.5860 H   0  0  0  0  0  0  0  0  0  0  0  0
  -18.7880  -26.9930   22.4030 C   0  0  0  0  0  0  0  0  0  0  0  0
  -21.1950  -27.7080   23.0110 C   0  0  0  0  0  3  0  0  0  0  0  0
  -21.6250  -26.2930   22.5630 C   0  0  0  0  0  2  0  0  0  0  0  0
  -20.7550  -25.7320   21.4330 C   0  0  0  0  0  2  0  0  0  0  0  0
  -19.2890  -25.6630   21.8630 C   0  0  0  0  0  2  0  0  0  0  0  0
  -19.6880  -27.9600   22.9250 C   0  0  0  0  0  0  0  0  0  0  0  0
  -19.1800  -29.1960   23.3770 C   0  0  0  0  0  3  0  0  0  0  0  0
  -17.8010  -29.4710   23.3170 C   0  0  0  0  0  3  0  0  0  0  0  0
  -16.9130  -28.5030   22.8160 C   0  0  0  0  0  3  0  0  0  0  0  0
  -17.4070  -27.2660   22.3630 C   0  0  0  0  0  3  0  0  0  0  0  0
  -26.5090  -31.9700   23.8410 C   0  0  0  0  0  3  0  0  0  0  0  0
  -26.2370  -33.3140   24.3650 N   0  0  0  0  0  0  0  0  0  0  0  0
  -26.4970  -34.4530   23.7080 C   0  0  0  0  0  0  0  0  0  0  0  0
  -27.0640  -34.4800   22.6120 O   0  0  0  0  0  0  0  0  0  0  0  0
  -25.7170  -33.3670   25.2280 H   0  0  0  0  0  0  0  0  0  0  0  0
  -24.7350  -36.2480   23.7430 C   0  0  0  0  0  1  0  0  0  0  0  0
  -26.0550  -35.7700   24.3700 C   0  0  0  0  0  3  0  0  0  0  0  0
  -28.2620  -36.5860   25.0740 C   0  0  0  0  0  1  0  0  0  0  0  0
  -27.0680  -36.8450   24.2740 N   0  0  0  0  0  0  0  0  0  0  0  0
  -26.6770  -37.7360   24.5690 H   0  0  0  0  0  0  0  0  0  0  0  0
  -27.1440  -31.0500   24.9550 C   0  0  1  0  0  0  0  0  0  0  0  0
  -26.1440  -30.6190   26.0520 C   0  0  0  0  0  1  0  0  0  0  0  0
  -27.7330  -29.7670   24.3240 C   0  0  0  0  0  1  0  0  0  0  0  0
  -28.3190  -31.7890   25.6380 C   0  0  0  0  0  1  0  0  0  0  0  0
  2  1  1  0
  3  5  1  0
  3  2  1  0
  4  2  2  0
  6  3  1  0
  7  6  1  0
  7 16  1  0
  8 14  1  0
  8 16  1  0
  9 14  1  0
 10 11  1  0
 10  9  1  0
 12 11  1  0
 12 21  1  0
 12 13  1  0
 14 13  1  0
 15  8  2  0
 16 17  1  0
 18 19  2  0
 19 20  1  0
 19 38  1  0
 20 23  1  0
 21 18  1  0
 21 22  1  0
 22 20  2  0
 23 24  1  0
 24 25  2  0
 25 26  1  0
 26 29  1  0
 27 26  2  0
 28 23  2  0
 28 27  1  0
 29 30  1  0
 30 35  2  0
 30 31  1  0
 31 32  2  0
 32 33  1  0
 33 37  1  0
 34 33  2  0
 35 34  1  0
 36 35  1  0
 38 39  1  0
 39 42  1  0
 39 41  1  0
 40 38  2  0
 43 44  1  0
 43 18  1  0
 45 43  1  0
 46 47  1  0
 48 49  1  0
 48 50  1  0
 49  7  1  0
 49 46  1  0
 50 47  1  0
 51 54  1  0
 51  1  1  0
 52 54  1  0
 52 58  1  0
 53 52  2  0
 54 57  1  0
 55 53  1  0
 56 53  1  0
 59 61  1  0
 59 58  1  0
 60 71  2  0
 61 66  1  0
 62 70  1  0
 62 72  1  0
 63 69  1  0
 63 65  1  0
 64 70  1  0
 65 64  1  0
 66 65  2  0
 67 68  1  0
 67 61  2  0
 68 63  2  0
 69 62  1  0
 70 60  1  0
 72 74  2  0
 73 72  1  0
 75 73  1  0
 76 81  1  0
 77 73  1  0
 78 77  1  0
 79 80  1  0
 79 78  1  0
 80 76  1  0
 81 77  1  0
 81 82  2  0
 83 82  1  0
 84 83  2  0
 85 76  2  0
 85 84  1  0
 86 60  1  0
 86 87  1  0
 86 96  1  0
 87 90  1  0
 88 87  1  0
 88 92  1  0
 89 88  2  0
 92 91  1  0
 94 92  1  0
 94 95  1  0
 94 93  1  0
 96 99  1  1
 96 97  1  0
 98 96  1  0
M  ISO  4   8 100  16 100  58 101  59 101
M  END
>  <TORSDO>  (90) 
F 23

>  <SCORE>  (90) 
-8.202

>  <name>  (90) 
89

>  <ligand_id>  (90) 
89

>  <original_smiles>  (90) 
[H]c1c([H])c([H])c2c(c1[H])C([H])([H])C([H])([H])C([H])([H])C2([H])N([H])C(=O)C1([H])N(C(=O)C([H])(N([H])C(=O)C([H])(N([H])C([H])([H])[H])C([H])([H])[H])C(C([H])([H])[H])(C([H])([H])[H])C([H])([H])[H])C([H])([H])c2c([H])c(OC([H])([H])C(N([H])[H])=[N+]([H])C([H])([H])C([H])([H])C(=O)N([H])C([H])([H])C([H])(N([H])C(=O)N3C([H])([H])C([H])([H])C([H])([H])C([H])(n4nc(-c5c([H])c([H])c(Oc6c([H])c([H])c(F)c([H])c6F)c([H])c5[H])c(C(=O)N([H])[H])c4N([H])[H])C3([H])[H])C3([H])C([H])([H])OC([H])([H])C3([H])[H])c([H])c([H])c2C1([H])[H]

>  <smiles>  (90) 
[H]c1c([H])c([H])c2c(c1[H])C([H])([H])C([H])([H])C([H])([H])C2([H])N([H])C(=O)C1([H])N(C(=O)C([H])(N([H])C(=O)C([H])(N([H])C([H])([H])[H])C([H])([H])[H])C(C([H])([H])[H])(C([H])([H])[H])C([H])([H])[H])C([H])([H])c2c([H])c(OC([H])([H])C(N([H])[H])=[N+]([H])C([H])([H])C([H])([H])C(=O)N([H])C([H])([H])C([H])(N([H])C(=O)N3C([H])([H])C([H])([H])C([H])([H])C([H])(n4nc(-c5c([H])c([H])c(Oc6c([H])c([H])c(F)c([H])c6F)c([H])c5[H])c(C(=O)N([H])[H])c4N([H])[H])C3([H])[H])C3([H])C([H])([H])OC([H])([H])C3([H])[H])c([H])c([H])c2C1([H])[H]

$$$$
90:0:0
     RDKit          3D

 94103  0  0  1  0  0  0  0  0999 V2000
  -31.6740  -23.5130   18.8330 C   0  0  0  0  0  3  0  0  0  0  0  0
  -30.6330  -24.4230   19.1210 C   0  0  0  0  0  3  0  0  0  0  0  0
  -31.8460  -22.3520   19.6150 C   0  0  0  0  0  3  0  0  0  0  0  0
  -29.9330  -22.9990   20.9700 C   0  0  0  0  0  3  0  0  0  0  0  0
  -29.7520  -24.1760   20.1940 C   0  0  0  0  0  0  0  0  0  0  0  0
  -30.9680  -22.0720   20.6840 C   0  0  0  0  0  0  0  0  0  0  0  0
  -32.3300  -21.1230   22.3930 C   0  0  0  0  0  1  0  0  0  0  0  0
  -31.1570  -20.9610   21.5370 N   0  0  0  0  0  0  0  0  0  0  0  0
  -30.1500  -17.4190   22.1330 C   0  0  0  0  0  3  0  0  0  0  0  0
  -31.2950  -17.5180   19.9970 C   0  0  0  0  0  3  0  0  0  0  0  0
  -30.2840  -18.8150   22.2640 C   0  0  0  0  0  3  0  0  0  0  0  0
  -31.4170  -18.9240   20.1260 C   0  0  0  0  0  3  0  0  0  0  0  0
  -30.6760  -16.7430   21.0120 C   0  0  0  0  0  0  0  0  0  0  0  0
  -30.9300  -19.5910   21.2740 C   0  0  0  0  0  0  0  0  0  0  0  0
  -31.1060  -14.3880   20.2030 C   0  0  0  0  0  0  0  0  0  0  0  0
  -30.7060  -12.2860   18.9620 C   0  0  0  0  0  2  0  0  0  0  0  0
  -29.7230  -12.5600   17.8060 C   0  0  0  0  0  2  0  0  0  0  0  0
  -28.2650  -12.4470   18.2890 C   0  0  0  0  0  2  0  0  0  0  0  0
  -27.9990  -13.2440   19.5910 C   0  0  0  0  0  3  0  0  0  0  0  0
  -29.0830  -12.9470   20.6500 C   0  0  0  0  0  2  0  0  0  0  0  0
  -30.4040  -13.2320   20.0530 N   0  0  0  0  0  0  0  0  0  0  0  0
  -32.1920  -14.5860   19.6430 O   0  0  0  0  0  0  0  0  0  0  0  0
  -30.5040  -15.3220   20.9670 N   0  0  0  0  0  0  0  0  0  0  0  0
  -29.7260  -14.9670   21.5000 H   0  0  0  0  0  0  0  0  0  0  0  0
  -25.6420  -13.9040   20.3890 C   0  0  0  0  0  0  0  0  0  0  0  0
  -24.5620  -13.1560   20.7760 C   0  0  0  0  0  0  0  0  0  0  0  0
  -24.9820  -11.7920   20.7060 C   0  0  0  0  0  0  0  0  0  0  0  0
  -26.6530  -12.9980   20.1050 N   0  0  0  0  0  0  0  0  0  0  0  0
  -26.2590  -11.7210   20.3490 N   0  0  0  0  0  0  0  0  0  0  0  0
  -24.2270  -10.5470   20.9010 C   0  0  0  0  0  0  0  0  0  0  0  0
  -24.6100   -9.5920   21.8690 C   0  0  0  0  0  3  0  0  0  0  0  0
  -23.8590   -8.4110   22.0480 C   0  0  0  0  0  3  0  0  0  0  0  0
  -22.7070   -8.1760   21.2610 C   0  0  0  0  0  0  0  0  0  0  0  0
  -22.3400   -9.1200   20.2860 C   0  0  0  0  0  3  0  0  0  0  0  0
  -23.0930  -10.2910   20.1050 C   0  0  0  0  0  3  0  0  0  0  0  0
  -21.9320   -7.0460   21.3460 O   0  0  0  0  0  0  0  0  0  0  0  0
  -21.7580   -6.3800   22.5320 C   0  0  0  0  0  0  0  0  0  0  0  0
  -21.2030   -7.0110   23.6670 C   0  0  0  0  0  3  0  0  0  0  0  0
  -20.9790   -6.2710   24.8450 C   0  0  0  0  0  3  0  0  0  0  0  0
  -21.3020   -4.9020   24.8890 C   0  0  0  0  0  0  0  0  0  0  0  0
  -21.8490   -4.2690   23.7580 C   0  0  0  0  0  3  0  0  0  0  0  0
  -22.0740   -5.0090   22.5820 C   0  0  0  0  0  0  0  0  0  0  0  0
  -22.5830   -4.3900   21.4890 F   0  0  0  0  0  0  0  0  0  0  0  0
  -21.0770   -4.1900   26.0180 F   0  0  0  0  0  0  0  0  0  0  0  0
  -23.1890  -13.6700   21.1060 C   0  0  0  0  0  0  0  0  0  0  0  0
  -22.4770  -12.9920   21.9990 N   0  0  0  0  0  0  0  0  0  0  0  0
  -22.7600  -14.7100   20.6090 O   0  0  0  0  0  0  0  0  0  0  0  0
  -22.8360  -12.1540   22.4310 H   0  0  0  0  0  0  0  0  0  0  0  0
  -21.5610  -13.3260   22.2620 H   0  0  0  0  0  0  0  0  0  0  0  0
  -25.8480  -15.2710   20.2380 N   0  0  0  0  0  0  0  0  0  0  0  0
  -25.1230  -15.9570   20.4190 H   0  0  0  0  0  0  0  0  0  0  0  0
  -26.7220  -15.6870   19.9370 H   0  0  0  0  0  0  0  0  0  0  0  0
  -28.5090  -25.0500   20.3960 C   0  0  0  0  0  2  0  0  0  0  0  0
  -28.6870  -26.4850   20.5070 O   0  0  0  0  0  0  0  0  0  0  0  0
  -24.6870  -31.7500   23.2760 C   0  0  0  0  0  0  0  0  0  0  0  0
  -27.5190  -27.2410   20.4230 C   0  0  0  0  0  0  0  0  0  0  0  0
  -23.5770  -30.2970   21.6180 C   0  0  0  0  0  3  0  0  0  0  0  0
  -25.1090  -28.7520   20.2970 C   0  0  0  0  0  0  0  0  0  0  0  0
  -26.1080  -30.6810   21.5200 C   0  0  0  0  0  2  0  0  0  0  0  0
  -26.2430  -29.2940   20.9170 C   0  0  0  0  0  0  0  0  0  0  0  0
  -27.4500  -28.5510   20.9700 C   0  0  0  0  0  3  0  0  0  0  0  0
  -26.3510  -26.7300   19.7980 C   0  0  0  0  0  3  0  0  0  0  0  0
  -25.1600  -27.4700   19.7350 C   0  0  0  0  0  3  0  0  0  0  0  0
  -23.8550  -29.5950   20.2660 C   0  0  0  0  0  2  0  0  0  0  0  0
  -24.8080  -30.9250   22.1980 N   0  0  0  0  0  0  0  0  0  0  0  0
  -23.5780  -32.0190   23.7580 O   0  0  0  0  0  0  0  0  0  0  0  0
  -22.8950  -29.2850   22.5700 C   0  0  0  0  0  0  0  0  0  0  0  0
  -21.5850  -29.0610   22.3680 N   0  0  0  0  0  0  0  0  0  0  0  0
  -23.5430  -28.7050   23.4470 O   0  0  0  0  0  0  0  0  0  0  0  0
  -21.1270  -29.5790   21.6320 H   0  0  0  0  0  0  0  0  0  0  0  0
  -18.2280  -27.7600   22.6760 C   0  0  0  0  0  0  0  0  0  0  0  0
  -20.7470  -28.1260   23.1190 C   0  0  0  0  0  3  0  0  0  0  0  0
  -20.9420  -26.6770   22.6150 C   0  0  0  0  0  2  0  0  0  0  0  0
  -19.9260  -26.2700   21.5430 C   0  0  0  0  0  2  0  0  0  0  0  0
  -18.4980  -26.3900   22.0780 C   0  0  0  0  0  2  0  0  0  0  0  0
  -19.2840  -28.5810   23.1510 C   0  0  0  0  0  0  0  0  0  0  0  0
  -18.9780  -29.8590   23.6660 C   0  0  0  0  0  3  0  0  0  0  0  0
  -17.6470  -30.3170   23.7150 C   0  0  0  0  0  3  0  0  0  0  0  0
  -16.6040  -29.4940   23.2570 C   0  0  0  0  0  3  0  0  0  0  0  0
  -16.8950  -28.2180   22.7430 C   0  0  0  0  0  3  0  0  0  0  0  0
  -25.9320  -32.4130   23.9400 C   0  0  0  0  0  3  0  0  0  0  0  0
  -26.4140  -31.6630   25.2420 C   0  0  1  0  0  0  0  0  0  0  0  0
  -25.2840  -31.4120   26.2660 C   0  0  0  0  0  1  0  0  0  0  0  0
  -27.0390  -30.2940   24.8810 C   0  0  0  0  0  1  0  0  0  0  0  0
  -27.5220  -32.4860   25.9400 C   0  0  0  0  0  1  0  0  0  0  0  0
  -25.5780  -33.8070   24.2440 N   0  0  0  0  0  0  0  0  0  0  0  0
  -25.9180  -34.8590   23.4880 C   0  0  0  0  0  0  0  0  0  0  0  0
  -26.6320  -34.7610   22.4860 O   0  0  0  0  0  0  0  0  0  0  0  0
  -24.9410  -33.9530   25.0130 H   0  0  0  0  0  0  0  0  0  0  0  0
  -24.1680  -36.6090   23.0430 C   0  0  0  0  0  1  0  0  0  0  0  0
  -25.3820  -36.2400   23.9100 C   0  0  0  0  0  3  0  0  0  0  0  0
  -27.4580  -37.1790   24.8230 C   0  0  0  0  0  1  0  0  0  0  0  0
  -26.3950  -37.3150   23.8320 N   0  0  0  0  0  0  0  0  0  0  0  0
  -25.9630  -38.2270   23.9530 H   0  0  0  0  0  0  0  0  0  0  0  0
  1  2  2  0
  1  3  1  0
  2  5  1  0
  3  6  2  0
  5 53  1  0
  5  4  2  0
  6  4  1  0
  6  8  1  0
  8  7  1  0
  9 11  1  0
 10 12  2  0
 10 13  1  0
 12 14  1  0
 13  9  2  0
 14  8  1  0
 14 11  2  0
 15 23  1  0
 16 21  1  0
 17 18  1  0
 17 16  1  0
 19 18  1  0
 19 28  1  0
 19 20  1  0
 21 15  1  0
 21 20  1  0
 22 15  2  0
 23 13  1  0
 23 24  1  0
 25 26  2  0
 26 45  1  0
 27 26  1  0
 27 30  1  0
 28 29  1  0
 28 25  1  0
 29 27  2  0
 30 31  1  0
 31 32  2  0
 33 36  1  0
 33 32  1  0
 34 33  2  0
 35 34  1  0
 35 30  2  0
 36 37  1  0
 37 42  2  0
 37 38  1  0
 38 39  2  0
 39 40  1  0
 40 44  1  0
 41 40  2  0
 42 41  1  0
 43 42  1  0
 45 46  1  0
 46 49  1  0
 46 48  1  0
 47 45  2  0
 50 25  1  0
 50 51  1  0
 52 50  1  0
 53 54  1  0
 55 66  2  0
 56 54  1  0
 56 61  1  0
 57 65  1  0
 57 67  1  0
 58 60  1  0
 59 65  1  0
 60 61  2  0
 60 59  1  0
 62 56  2  0
 63 62  1  0
 63 58  2  0
 64 58  1  0
 64 57  1  0
 65 55  1  0
 67 69  2  0
 68 67  1  0
 70 68  1  0
 71 80  2  0
 71 76  1  0
 72 68  1  0
 72 76  1  0
 73 72  1  0
 74 75  1  0
 74 73  1  0
 75 71  1  0
 76 77  2  0
 77 78  1  0
 79 78  2  0
 80 79  1  0
 81 55  1  0
 81 86  1  0
 81 82  1  0
 82 85  1  1
 82 83  1  0
 84 82  1  0
 86 89  1  0
 87 91  1  0
 87 86  1  0
 88 87  2  0
 91 90  1  0
 93 91  1  0
 93 94  1  0
 93 92  1  0
M  ISO  4  15 100  23 100  53 101  54 101
M  END
>  <TORSDO>  (91) 
F 19

>  <SCORE>  (91) 
-13.317

>  <name>  (91) 
90

>  <ligand_id>  (91) 
90

>  <original_smiles>  (91) 
[H]c1c([H])c(N(c2c([H])c([H])c(N([H])C(=O)N3C([H])([H])C([H])([H])C([H])([H])C([H])(n4nc(-c5c([H])c([H])c(Oc6c([H])c([H])c(F)c([H])c6F)c([H])c5[H])c(C(=O)N([H])[H])c4N([H])[H])C3([H])[H])c([H])c2[H])C([H])([H])[H])c([H])c(C([H])([H])Oc2c([H])c([H])c3c(c2[H])C([H])([H])N(C(=O)C([H])(N([H])C(=O)C([H])(N([H])C([H])([H])[H])C([H])([H])[H])C(C([H])([H])[H])(C([H])([H])[H])C([H])([H])[H])C([H])(C(=O)N([H])C2([H])c4c([H])c([H])c([H])c([H])c4C([H])([H])C([H])([H])C2([H])[H])C3([H])[H])c1[H]

>  <smiles>  (91) 
[H]c1c([H])c(N(c2c([H])c([H])c(N([H])C(=O)N3C([H])([H])C([H])([H])C([H])([H])C([H])(n4nc(-c5c([H])c([H])c(Oc6c([H])c([H])c(F)c([H])c6F)c([H])c5[H])c(C(=O)N([H])[H])c4N([H])[H])C3([H])[H])c([H])c2[H])C([H])([H])[H])c([H])c(C([H])([H])Oc2c([H])c([H])c3c(c2[H])C([H])([H])N(C(=O)C([H])(N([H])C(=O)C([H])(N([H])C([H])([H])[H])C([H])([H])[H])C(C([H])([H])[H])(C([H])([H])[H])C([H])([H])[H])C([H])(C(=O)N([H])C2([H])c4c([H])c([H])c([H])c([H])c4C([H])([H])C([H])([H])C2([H])[H])C3([H])[H])c1[H]

$$$$
91:0:0
     RDKit          3D

102110  0  0  1  0  0  0  0  0999 V2000
  -30.2350  -21.0960   21.7770 C   0  0  0  0  0  2  0  0  0  0  0  0
  -32.4310  -19.8720   21.5540 C   0  0  0  0  0  1  0  0  0  0  0  0
  -31.0670  -20.1250   20.8620 C   0  0  1  0  0  0  0  0  0  0  0  0
  -28.2020  -17.6520   20.0310 C   0  0  0  0  0  3  0  0  0  0  0  0
  -28.9660  -18.8220   20.1550 C   0  0  0  0  0  3  0  0  0  0  0  0
  -28.7560  -16.4170   20.3880 C   0  0  0  0  0  3  0  0  0  0  0  0
  -30.8450  -17.5280   20.9990 C   0  0  0  0  0  3  0  0  0  0  0  0
  -30.2820  -18.7980   20.6910 C   0  0  0  0  0  0  0  0  0  0  0  0
  -30.0920  -16.3440   20.8220 C   0  0  0  0  0  0  0  0  0  0  0  0
  -31.0370  -14.2560   20.1000 C   0  0  0  0  0  0  0  0  0  0  0  0
  -30.6520  -12.0630   19.0250 C   0  0  0  0  0  2  0  0  0  0  0  0
  -29.6780  -12.1990   17.8380 C   0  0  0  0  0  2  0  0  0  0  0  0
  -28.2150  -12.1240   18.3090 C   0  0  0  0  0  2  0  0  0  0  0  0
  -27.9280  -13.0770   19.4970 C   0  0  0  0  0  3  0  0  0  0  0  0
  -28.9910  -12.8740   20.6010 C   0  0  0  0  0  2  0  0  0  0  0  0
  -30.3300  -13.0990   20.0170 N   0  0  0  0  0  0  0  0  0  0  0  0
  -32.0200  -14.5160   19.3960 O   0  0  0  0  0  0  0  0  0  0  0  0
  -30.6260  -15.0650   21.0840 N   0  0  0  0  0  0  0  0  0  0  0  0
  -30.0580  -14.5390   21.7310 H   0  0  0  0  0  0  0  0  0  0  0  0
  -25.5840  -13.8370   20.2650 C   0  0  0  0  0  0  0  0  0  0  0  0
  -24.4860  -13.1330   20.6770 C   0  0  0  0  0  0  0  0  0  0  0  0
  -24.8630  -11.7560   20.6370 C   0  0  0  0  0  0  0  0  0  0  0  0
  -26.5720  -12.8940   20.0120 N   0  0  0  0  0  0  0  0  0  0  0  0
  -26.1380  -11.6370   20.2870 N   0  0  0  0  0  0  0  0  0  0  0  0
  -24.0700  -10.5400   20.8550 C   0  0  0  0  0  0  0  0  0  0  0  0
  -24.4670   -9.5530   21.7840 C   0  0  0  0  0  3  0  0  0  0  0  0
  -23.6750   -8.4020   21.9880 C   0  0  0  0  0  3  0  0  0  0  0  0
  -22.4740   -8.2300   21.2600 C   0  0  0  0  0  0  0  0  0  0  0  0
  -22.0960   -9.2040   20.3170 C   0  0  0  0  0  3  0  0  0  0  0  0
  -22.8880  -10.3460   20.1120 C   0  0  0  0  0  3  0  0  0  0  0  0
  -21.6550   -7.1320   21.3720 O   0  0  0  0  0  0  0  0  0  0  0  0
  -21.5760   -6.4090   22.5350 C   0  0  0  0  0  0  0  0  0  0  0  0
  -21.2080   -7.0090   23.7600 C   0  0  0  0  0  3  0  0  0  0  0  0
  -21.0700   -6.2180   24.9180 C   0  0  0  0  0  3  0  0  0  0  0  0
  -21.2910   -4.8290   24.8520 C   0  0  0  0  0  0  0  0  0  0  0  0
  -21.6540   -4.2300   23.6340 C   0  0  0  0  0  3  0  0  0  0  0  0
  -21.7930   -5.0180   22.4790 C   0  0  0  0  0  0  0  0  0  0  0  0
  -22.1200   -4.4320   21.3010 F   0  0  0  0  0  0  0  0  0  0  0  0
  -21.1510   -4.0680   25.9630 F   0  0  0  0  0  0  0  0  0  0  0  0
  -23.1300  -13.6930   21.0000 C   0  0  0  0  0  0  0  0  0  0  0  0
  -22.4000  -13.0490   21.9030 N   0  0  0  0  0  0  0  0  0  0  0  0
  -22.7290  -14.7360   20.4850 O   0  0  0  0  0  0  0  0  0  0  0  0
  -22.7370  -12.2030   22.3390 H   0  0  0  0  0  0  0  0  0  0  0  0
  -21.4910  -13.4040   22.1610 H   0  0  0  0  0  0  0  0  0  0  0  0
  -25.8180  -15.1950   20.0670 N   0  0  0  0  0  0  0  0  0  0  0  0
  -25.0870  -15.8900   20.1770 H   0  0  0  0  0  0  0  0  0  0  0  0
  -26.6800  -15.5830   19.7020 H   0  0  0  0  0  0  0  0  0  0  0  0
  -31.2970  -20.7010   19.4370 C   0  0  0  0  0  2  0  0  0  0  0  0
  -32.1900  -21.8710   19.4180 N   0  0  0  0  0  4  0  0  0  0  0  0
  -31.8590  -22.5110   20.1270 H   0  0  0  0  0  0  0  0  0  0  0  0
  -32.1860  -22.3170   18.5180 H   0  0  0  0  0  0  0  0  0  0  0  0
  -33.1310  -21.6030   19.6410 H   0  0  0  0  0  0  0  0  0  0  0  0
  -31.2710  -22.8690   22.9910 C   0  0  0  0  0  1  0  0  0  0  0  0
  -30.6220  -22.5240   21.7230 N   0  0  0  0  0  0  0  0  0  0  0  0
  -29.3910  -23.3120   21.5040 C   0  0  0  0  0  2  0  0  0  0  0  0
  -29.5850  -24.7940   21.0930 C   0  0  0  0  0  3  0  0  0  0  0  0
  -29.9110  -25.6380   22.2630 N   0  0  0  0  0  4  0  0  0  0  0  0
  -29.1940  -25.5950   22.9670 H   0  0  0  0  0  0  0  0  0  0  0  0
  -29.9990  -26.5960   21.9670 H   0  0  0  0  0  0  0  0  0  0  0  0
  -30.7840  -25.3560   22.6710 H   0  0  0  0  0  0  0  0  0  0  0  0
  -28.3040  -25.3210   20.4070 C   0  0  0  0  0  2  0  0  0  0  0  0
  -28.4230  -26.7200   20.1500 O   0  0  0  0  0  0  0  0  0  0  0  0
  -24.5890  -31.8300   23.2240 C   0  0  0  0  0  0  0  0  0  0  0  0
  -27.2370  -27.4170   20.1310 C   0  0  0  0  0  0  0  0  0  0  0  0
  -23.3810  -30.4370   21.5750 C   0  0  0  0  0  3  0  0  0  0  0  0
  -24.8330  -28.9010   20.1470 C   0  0  0  0  0  0  0  0  0  0  0  0
  -25.9020  -30.8010   21.3760 C   0  0  0  0  0  2  0  0  0  0  0  0
  -25.9890  -29.4340   20.7300 C   0  0  0  0  0  0  0  0  0  0  0  0
  -27.1940  -28.7000   20.7140 C   0  0  0  0  0  3  0  0  0  0  0  0
  -26.0620  -26.8890   19.5450 C   0  0  0  0  0  3  0  0  0  0  0  0
  -24.8640  -27.6270   19.5520 C   0  0  0  0  0  3  0  0  0  0  0  0
  -23.5880  -29.7560   20.1950 C   0  0  0  0  0  2  0  0  0  0  0  0
  -24.6430  -31.0340   22.1190 N   0  0  0  0  0  0  0  0  0  0  0  0
  -23.5090  -32.1020   23.7650 O   0  0  0  0  0  0  0  0  0  0  0  0
  -22.7260  -29.4150   22.5320 C   0  0  0  0  0  0  0  0  0  0  0  0
  -21.4000  -29.2450   22.4050 N   0  0  0  0  0  0  0  0  0  0  0  0
  -23.4070  -28.7770   23.3390 O   0  0  0  0  0  0  0  0  0  0  0  0
  -20.9160  -29.8110   21.7230 H   0  0  0  0  0  0  0  0  0  0  0  0
  -18.0150  -28.0940   22.9110 C   0  0  0  0  0  0  0  0  0  0  0  0
  -20.5760  -28.3110   23.1700 C   0  0  0  0  0  3  0  0  0  0  0  0
  -20.6550  -26.8860   22.5760 C   0  0  0  0  0  2  0  0  0  0  0  0
  -19.5400  -26.5920   21.5660 C   0  0  0  0  0  2  0  0  0  0  0  0
  -18.1670  -26.7500   22.2210 C   0  0  0  0  0  2  0  0  0  0  0  0
  -19.1470  -28.8340   23.3430 C   0  0  0  0  0  0  0  0  0  0  0  0
  -18.9520  -30.0950   23.9480 C   0  0  0  0  0  3  0  0  0  0  0  0
  -17.6570  -30.6140   24.1270 C   0  0  0  0  0  3  0  0  0  0  0  0
  -16.5380  -29.8680   23.7130 C   0  0  0  0  0  3  0  0  0  0  0  0
  -16.7190  -28.6120   23.1100 C   0  0  0  0  0  3  0  0  0  0  0  0
  -25.8780  -32.4540   23.8470 C   0  0  0  0  0  3  0  0  0  0  0  0
  -26.3870  -31.6800   25.1230 C   0  0  1  0  0  0  0  0  0  0  0  0
  -25.2900  -31.4430   26.1860 C   0  0  0  0  0  1  0  0  0  0  0  0
  -26.9690  -30.3020   24.7300 C   0  0  0  0  0  1  0  0  0  0  0  0
  -27.5360  -32.4690   25.7920 C   0  0  0  0  0  1  0  0  0  0  0  0
  -25.5800  -33.8540   24.1710 N   0  0  0  0  0  0  0  0  0  0  0  0
  -25.9310  -34.9020   23.4150 C   0  0  0  0  0  0  0  0  0  0  0  0
  -26.6160  -34.7920   22.3930 O   0  0  0  0  0  0  0  0  0  0  0  0
  -24.9740  -34.0150   24.9630 H   0  0  0  0  0  0  0  0  0  0  0  0
  -24.2280  -36.7100   23.0300 C   0  0  0  0  0  1  0  0  0  0  0  0
  -25.4490  -36.2950   23.8640 C   0  0  0  0  0  3  0  0  0  0  0  0
  -27.5790  -37.1560   24.7300 C   0  0  0  0  0  1  0  0  0  0  0  0
  -26.4950  -37.3370   23.7670 N   0  0  0  0  0  0  0  0  0  0  0  0
  -26.0960  -38.2610   23.9110 H   0  0  0  0  0  0  0  0  0  0  0  0
  3  2  1  1
  3  1  1  0
  4  5  2  0
  4  6  1  0
  5  8  1  0
  6  9  2  0
  8  3  1  0
  8  7  2  0
  9  7  1  0
  9 18  1  0
 10 18  1  0
 11 16  1  0
 12 13  1  0
 12 11  1  0
 14 13  1  0
 14 23  1  0
 14 15  1  0
 16 10  1  0
 16 15  1  0
 17 10  2  0
 18 19  1  0
 20 21  2  0
 21 40  1  0
 22 21  1  0
 22 25  1  0
 23 20  1  0
 23 24  1  0
 24 22  2  0
 25 26  1  0
 26 27  2  0
 28 31  1  0
 28 27  1  0
 29 28  2  0
 30 29  1  0
 30 25  2  0
 31 32  1  0
 32 33  1  0
 33 34  2  0
 35 34  1  0
 35 39  1  0
 36 35  2  0
 37 32  2  0
 37 36  1  0
 38 37  1  0
 40 41  1  0
 41 44  1  0
 41 43  1  0
 42 40  2  0
 45 46  1  0
 45 20  1  0
 47 45  1  0
 48  3  1  0
 49 48  1  0
 49 52  1  0
 49 50  1  0
 51 49  1  0
 54  1  1  0
 54 53  1  0
 55 54  1  0
 56 61  1  0
 56 55  1  0
 56 57  1  0
 57 60  1  0
 57 58  1  0
 59 57  1  0
 62 61  1  0
 63 74  2  0
 64 62  1  0
 64 69  1  0
 65 73  1  0
 65 75  1  0
 66 72  1  0
 66 68  1  0
 67 73  1  0
 68 67  1  0
 69 68  2  0
 70 71  1  0
 70 64  2  0
 71 66  2  0
 72 65  1  0
 73 63  1  0
 75 77  2  0
 76 75  1  0
 78 76  1  0
 79 88  2  0
 79 84  1  0
 80 76  1  0
 80 84  1  0
 81 80  1  0
 82 83  1  0
 82 81  1  0
 83 79  1  0
 84 85  2  0
 85 86  1  0
 87 86  2  0
 88 87  1  0
 89 63  1  0
 89 94  1  0
 89 90  1  0
 90 93  1  1
 90 91  1  0
 92 90  1  0
 94 97  1  0
 95 99  1  0
 95 94  1  0
 96 95  2  0
 99 98  1  0
101 99  1  0
101102  1  0
101100  1  0
M  ISO  4  10 100  18 100  61 101  62 101
M  END
>  <TORSDO>  (92) 
F 25

>  <SCORE>  (92) 
-12.096

>  <name>  (92) 
91

>  <ligand_id>  (92) 
91

>  <original_smiles>  (92) 
[H]c1c([H])c([H])c2c(c1[H])C([H])([H])C([H])([H])C([H])([H])C2([H])N([H])C(=O)C1([H])N(C(=O)C([H])(N([H])C(=O)C([H])(N([H])C([H])([H])[H])C([H])([H])[H])C(C([H])([H])[H])(C([H])([H])[H])C([H])([H])[H])C([H])([H])c2c([H])c(OC([H])([H])C([H])(C([H])([H])N(C([H])([H])[H])C([H])([H])C(c3c([H])c([H])c([H])c(N([H])C(=O)N4C([H])([H])C([H])([H])C([H])([H])C([H])(n5nc(-c6c([H])c([H])c(Oc7c([H])c([H])c(F)c([H])c7F)c([H])c6[H])c(C(=O)N([H])[H])c5N([H])[H])C4([H])[H])c3[H])(C([H])([H])[H])C([H])([H])[N+]([H])([H])[H])[N+]([H])([H])[H])c([H])c([H])c2C1([H])[H]

>  <smiles>  (92) 
[H]c1c([H])c([H])c2c(c1[H])C([H])([H])C([H])([H])C([H])([H])C2([H])N([H])C(=O)C1([H])N(C(=O)C([H])(N([H])C(=O)C([H])(N([H])C([H])([H])[H])C([H])([H])[H])C(C([H])([H])[H])(C([H])([H])[H])C([H])([H])[H])C([H])([H])c2c([H])c(OC([H])([H])C([H])(C([H])([H])N(C([H])([H])[H])C([H])([H])C(c3c([H])c([H])c([H])c(N([H])C(=O)N4C([H])([H])C([H])([H])C([H])([H])C([H])(n5nc(-c6c([H])c([H])c(Oc7c([H])c([H])c(F)c([H])c7F)c([H])c6[H])c(C(=O)N([H])[H])c5N([H])[H])C4([H])[H])c3[H])(C([H])([H])[H])C([H])([H])[N+]([H])([H])[H])[N+]([H])([H])[H])c([H])c([H])c2C1([H])[H]

$$$$
92:0:0
     RDKit          3D

102111  0  0  1  0  0  0  0  0999 V2000
  -38.8870  -22.2040   19.6720 C   0  0  0  0  0  0  0  0  0  0  0  0
  -39.1970  -20.9010   19.9860 N   0  0  0  0  0  0  0  0  0  0  0  0
  -38.1750  -22.8960   20.4130 O   0  0  0  0  0  0  0  0  0  0  0  0
  -39.5300  -20.5090   22.4870 C   0  0  0  0  0  2  0  0  0  0  0  0
  -38.3220  -18.7740   21.0660 C   0  0  0  0  0  2  0  0  0  0  0  0
  -38.8760  -19.8830   23.7360 C   0  0  0  0  0  2  0  0  0  0  0  0
  -37.6970  -18.2050   22.3570 C   0  0  0  0  0  2  0  0  0  0  0  0
  -38.6620  -20.2740   21.2290 C   0  0  0  0  0  3  0  0  0  0  0  0
  -39.7430  -17.5560   23.6090 C   0  0  0  0  0  1  0  0  0  0  0  0
  -38.5580  -18.4430   23.5450 N   0  0  1  0  0  4  0  0  0  0  0  0
  -37.9990  -18.1780   24.3430 H   0  0  0  0  0  0  0  0  0  0  0  0
  -42.2750  -19.0140   18.9510 C   0  0  0  0  0  3  0  0  0  0  0  0
  -41.7820  -18.2320   17.8920 C   0  0  0  0  0  3  0  0  0  0  0  0
  -41.4290  -19.9020   19.6330 C   0  0  0  0  0  3  0  0  0  0  0  0
  -39.6000  -19.2670   18.1470 C   0  0  0  0  0  3  0  0  0  0  0  0
  -40.4220  -18.3110   17.4930 C   0  0  0  0  0  0  0  0  0  0  0  0
  -40.0880  -20.0670   19.2230 C   0  0  0  0  0  0  0  0  0  0  0  0
  -39.8090  -17.6440   15.1300 C   0  0  0  0  0  0  0  0  0  0  0  0
  -38.4970  -17.1290   13.1060 C   0  0  0  0  0  2  0  0  0  0  0  0
  -37.0470  -17.6080   13.3080 C   0  0  0  0  0  2  0  0  0  0  0  0
  -36.2070  -16.5110   13.9880 C   0  0  0  0  0  2  0  0  0  0  0  0
  -36.8990  -15.9170   15.2450 C   0  0  0  0  0  3  0  0  0  0  0  0
  -38.3770  -15.5650   14.9590 C   0  0  0  0  0  2  0  0  0  0  0  0
  -39.0360  -16.7690   14.4290 N   0  0  0  0  0  0  0  0  0  0  0  0
  -40.3540  -18.5990   14.5740 O   0  0  0  0  0  0  0  0  0  0  0  0
  -39.8390  -17.4750   16.4730 N   0  0  0  0  0  0  0  0  0  0  0  0
  -39.3680  -16.6440   16.7960 H   0  0  0  0  0  0  0  0  0  0  0  0
  -34.9720  -14.7420   16.4790 C   0  0  0  0  0  0  0  0  0  0  0  0
  -34.6740  -13.4190   16.6620 C   0  0  0  0  0  0  0  0  0  0  0  0
  -35.7250  -12.6860   16.0290 C   0  0  0  0  0  0  0  0  0  0  0  0
  -36.1600  -14.7700   15.7670 N   0  0  0  0  0  0  0  0  0  0  0  0
  -36.6390  -13.5180   15.5460 N   0  0  0  0  0  0  0  0  0  0  0  0
  -35.8840  -11.2440   15.8050 C   0  0  0  0  0  0  0  0  0  0  0  0
  -35.3890  -10.6170   14.6400 C   0  0  0  0  0  3  0  0  0  0  0  0
  -35.5700   -9.2320   14.4400 C   0  0  0  0  0  3  0  0  0  0  0  0
  -36.2550   -8.4580   15.4070 C   0  0  0  0  0  0  0  0  0  0  0  0
  -36.7250   -9.0820   16.5760 C   0  0  0  0  0  3  0  0  0  0  0  0
  -36.5390  -10.4600   16.7760 C   0  0  0  0  0  3  0  0  0  0  0  0
  -36.4550   -7.1030   15.3090 O   0  0  0  0  0  0  0  0  0  0  0  0
  -36.0950   -6.2470   16.3180 C   0  0  0  0  0  0  0  0  0  0  0  0
  -34.7480   -5.8890   16.5470 C   0  0  0  0  0  3  0  0  0  0  0  0
  -34.4300   -4.9520   17.5500 C   0  0  0  0  0  3  0  0  0  0  0  0
  -35.4530   -4.3660   18.3170 C   0  0  0  0  0  0  0  0  0  0  0  0
  -36.7950   -4.7160   18.0880 C   0  0  0  0  0  3  0  0  0  0  0  0
  -37.1150   -5.6520   17.0880 C   0  0  0  0  0  0  0  0  0  0  0  0
  -38.4110   -5.9700   16.8560 F   0  0  0  0  0  0  0  0  0  0  0  0
  -35.1480   -3.4600   19.2760 F   0  0  0  0  0  0  0  0  0  0  0  0
  -33.4360  -12.8610   17.3020 C   0  0  0  0  0  0  0  0  0  0  0  0
  -33.5980  -11.9870   18.2900 N   0  0  0  0  0  0  0  0  0  0  0  0
  -32.3150  -13.2360   16.9610 O   0  0  0  0  0  0  0  0  0  0  0  0
  -34.5190  -11.6930   18.5820 H   0  0  0  0  0  0  0  0  0  0  0  0
  -32.7890  -11.6040   18.7590 H   0  0  0  0  0  0  0  0  0  0  0  0
  -34.3250  -15.9210   16.8380 N   0  0  0  0  0  0  0  0  0  0  0  0
  -33.4230  -15.9240   17.3020 H   0  0  0  0  0  0  0  0  0  0  0  0
  -34.6390  -16.8490   16.5810 H   0  0  0  0  0  0  0  0  0  0  0  0
  -39.3870  -22.9000   18.3790 C   0  0  0  0  0  2  0  0  0  0  0  0
  -37.4930  -24.1860   17.2840 C   0  0  0  0  0  0  0  0  0  0  0  0
  -38.5500  -24.0810   18.1040 N   0  0  0  0  0  0  0  0  0  0  0  0
  -36.9970  -23.2070   16.7220 O   0  0  0  0  0  0  0  0  0  0  0  0
  -38.9200  -24.9350   18.5090 H   0  0  0  0  0  0  0  0  0  0  0  0
  -36.9340  -25.6080   17.0580 C   0  0  0  0  0  2  0  0  0  0  0  0
  -37.8530  -26.4520   16.3420 O   0  0  0  0  0  0  0  0  0  0  0  0
  -38.5680  -33.0720   13.8210 C   0  0  0  0  0  0  0  0  0  0  0  0
  -37.2420  -27.5560   15.7990 C   0  0  0  0  0  0  0  0  0  0  0  0
  -36.2600  -32.3490   14.3450 C   0  0  0  0  0  3  0  0  0  0  0  0
  -35.9540  -29.8550   14.7890 C   0  0  0  0  0  0  0  0  0  0  0  0
  -38.0330  -30.6450   13.6450 C   0  0  0  0  0  2  0  0  0  0  0  0
  -37.3050  -29.6240   14.4960 C   0  0  0  0  0  0  0  0  0  0  0  0
  -37.9550  -28.4720   14.9940 C   0  0  0  0  0  3  0  0  0  0  0  0
  -35.8830  -27.7930   16.0790 C   0  0  0  0  0  3  0  0  0  0  0  0
  -35.2360  -28.9400   15.5810 C   0  0  0  0  0  3  0  0  0  0  0  0
  -35.3330  -31.1110   14.2190 C   0  0  0  0  0  2  0  0  0  0  0  0
  -37.6750  -32.0500   13.9520 N   0  0  0  0  0  0  0  0  0  0  0  0
  -38.2210  -34.2500   13.9820 O   0  0  0  0  0  0  0  0  0  0  0  0
  -36.1300  -32.9210   15.7750 C   0  0  0  0  0  0  0  0  0  0  0  0
  -35.9240  -34.2450   15.8750 N   0  0  0  0  0  0  0  0  0  0  0  0
  -36.1850  -32.1790   16.7600 O   0  0  0  0  0  0  0  0  0  0  0  0
  -35.8980  -34.7840   15.0200 H   0  0  0  0  0  0  0  0  0  0  0  0
  -36.8560  -37.2660   17.6220 C   0  0  0  0  0  0  0  0  0  0  0  0
  -35.7320  -34.9930   17.1150 C   0  0  0  0  0  3  0  0  0  0  0  0
  -34.3970  -35.7740   17.0930 C   0  0  0  0  0  2  0  0  0  0  0  0
  -34.5470  -37.2120   16.5860 C   0  0  0  0  0  2  0  0  0  0  0  0
  -35.5300  -37.9920   17.4650 C   0  0  0  0  0  2  0  0  0  0  0  0
  -36.9540  -35.8610   17.4430 C   0  0  0  0  0  0  0  0  0  0  0  0
  -38.2160  -35.2410   17.5650 C   0  0  0  0  0  3  0  0  0  0  0  0
  -39.3640  -35.9980   17.8640 C   0  0  0  0  0  3  0  0  0  0  0  0
  -39.2580  -37.3870   18.0560 C   0  0  0  0  0  3  0  0  0  0  0  0
  -38.0070  -38.0170   17.9390 C   0  0  0  0  0  3  0  0  0  0  0  0
  -40.0610  -32.8130   13.4420 C   0  0  0  0  0  3  0  0  0  0  0  0
  -40.3410  -33.5670   12.2130 N   0  0  0  0  0  0  0  0  0  0  0  0
  -40.1990  -33.0790   10.9740 C   0  0  0  0  0  0  0  0  0  0  0  0
  -39.8820  -31.9090   10.7460 O   0  0  0  0  0  0  0  0  0  0  0  0
  -40.5530  -34.5470   12.3210 H   0  0  0  0  0  0  0  0  0  0  0  0
  -39.1440  -34.2480    9.0120 C   0  0  0  0  0  1  0  0  0  0  0  0
  -40.4480  -34.0440    9.7990 C   0  0  0  0  0  3  0  0  0  0  0  0
  -42.8610  -33.8190    9.4050 C   0  0  0  0  0  1  0  0  0  0  0  0
  -41.5160  -33.5910    8.8820 N   0  0  0  0  0  0  0  0  0  0  0  0
  -41.4430  -34.0600    7.9830 H   0  0  0  0  0  0  0  0  0  0  0  0
  -41.0710  -33.2110   14.5850 C   0  0  1  0  0  0  0  0  0  0  0  0
  -41.3780  -34.7250   14.6460 C   0  0  0  0  0  1  0  0  0  0  0  0
  -40.5250  -32.7830   15.9680 C   0  0  0  0  0  1  0  0  0  0  0  0
  -42.4090  -32.4610   14.3870 C   0  0  0  0  0  1  0  0  0  0  0  0
  1  2  1  0
  1  3  2  0
  2  8  1  0
  4  6  1  0
  5  8  1  0
  5  7  1  0
  7 10  1  0
  8  4  1  0
 10  9  1  0
 10  6  1  0
 10 11  1  1
 12 14  1  0
 13 12  2  0
 15 17  1  0
 16 13  1  0
 16 15  2  0
 17 14  2  0
 17  2  1  0
 18 26  1  0
 19 20  1  0
 19 24  1  0
 20 21  1  0
 22 21  1  0
 22 31  1  0
 23 22  1  0
 24 23  1  0
 24 18  1  0
 25 18  2  0
 26 27  1  0
 26 16  1  0
 28 29  2  0
 28 53  1  0
 29 48  1  0
 30 29  1  0
 31 28  1  0
 32 31  1  0
 32 30  2  0
 33 30  1  0
 33 38  1  0
 34 33  2  0
 35 34  1  0
 35 36  2  0
 36 37  1  0
 37 38  2  0
 39 36  1  0
 39 40  1  0
 40 41  2  0
 40 45  1  0
 41 42  1  0
 42 43  2  0
 43 47  1  0
 44 43  1  0
 45 44  2  0
 46 45  1  0
 48 49  1  0
 49 51  1  0
 49 52  1  0
 50 48  2  0
 53 54  1  0
 55 53  1  0
 56  1  1  0
 57 58  1  0
 58 56  1  0
 58 60  1  0
 59 57  2  0
 61 57  1  0
 62 61  1  0
 63 73  1  0
 63 74  2  0
 64 70  1  0
 64 62  1  0
 65 75  1  0
 66 71  1  0
 67 73  1  0
 67 68  1  0
 68 66  2  0
 68 69  1  0
 69 64  2  0
 71 70  2  0
 72 65  1  0
 72 66  1  0
 73 65  1  0
 75 76  1  0
 75 77  2  0
 78 76  1  0
 79 88  1  0
 80 76  1  0
 80 84  1  0
 81 80  1  0
 82 81  1  0
 82 83  1  0
 83 79  1  0
 84 85  1  0
 84 79  2  0
 85 86  2  0
 86 87  1  0
 88 87  2  0
 89 63  1  0
 89 99  1  0
 90 93  1  0
 90 89  1  0
 91 90  1  0
 92 91  2  0
 95 94  1  0
 95 91  1  0
 97 96  1  0
 97 95  1  0
 98 97  1  0
 99100  1  1
 99101  1  0
102 99  1  0
M  ISO  4  18 100  26 100  61 101  62 101
M  END
>  <TORSDO>  (93) 
F 21

>  <SCORE>  (93) 
-2.964

>  <name>  (93) 
92

>  <ligand_id>  (93) 
92

>  <original_smiles>  (93) 
[H]c1c([H])c(N([H])C(=O)N2C([H])([H])C([H])([H])C([H])([H])C([H])(n3nc(-c4c([H])c([H])c(Oc5c([H])c([H])c(F)c([H])c5F)c([H])c4[H])c(C(=O)N([H])[H])c3N([H])[H])C2([H])[H])c([H])c(N(C(=O)C([H])([H])N([H])C(=O)C([H])([H])Oc2c([H])c([H])c3c(c2[H])C([H])([H])N(C(=O)C([H])(N([H])C(=O)C([H])(N([H])C([H])([H])[H])C([H])([H])[H])C(C([H])([H])[H])(C([H])([H])[H])C([H])([H])[H])C([H])(C(=O)N([H])C2([H])c4c([H])c([H])c([H])c([H])c4C([H])([H])C([H])([H])C2([H])[H])C3([H])[H])C2([H])C([H])([H])C([H])([H])[N+]([H])(C([H])([H])[H])C([H])([H])C2([H])[H])c1[H]

>  <smiles>  (93) 
[H]c1c([H])c(N([H])C(=O)N2C([H])([H])C([H])([H])C([H])([H])C([H])(n3nc(-c4c([H])c([H])c(Oc5c([H])c([H])c(F)c([H])c5F)c([H])c4[H])c(C(=O)N([H])[H])c3N([H])[H])C2([H])[H])c([H])c(N(C(=O)C([H])([H])N([H])C(=O)C([H])([H])Oc2c([H])c([H])c3c(c2[H])C([H])([H])N(C(=O)C([H])(N([H])C(=O)C([H])(N([H])C([H])([H])[H])C([H])([H])[H])C(C([H])([H])[H])(C([H])([H])[H])C([H])([H])[H])C([H])(C(=O)N([H])C2([H])c4c([H])c([H])c([H])c([H])c4C([H])([H])C([H])([H])C2([H])[H])C3([H])[H])C2([H])C([H])([H])C([H])([H])[N+]([H])(C([H])([H])[H])C([H])([H])C2([H])[H])c1[H]

$$$$
93:0:0
     RDKit          3D

104113  0  0  1  0  0  0  0  0999 V2000
  -29.5810  -24.9730   19.6020 C   0  0  0  0  0  0  0  0  0  0  0  0
  -31.2530  -21.8330   19.4000 C   0  0  0  0  0  2  0  0  0  0  0  0
  -31.4290  -23.3560   19.3250 C   0  0  0  0  0  2  0  0  0  0  0  0
  -30.4730  -23.6510   21.5600 C   0  0  0  0  0  2  0  0  0  0  0  0
  -31.3540  -21.3380   20.8540 C   0  0  0  0  0  3  0  0  0  0  0  0
  -30.3530  -22.1140   21.7640 C   0  0  0  0  0  3  0  0  0  0  0  0
  -30.4040  -24.0300   20.1360 N   0  0  0  0  0  0  0  0  0  0  0  0
  -29.5210  -25.1680   18.3810 O   0  0  0  0  0  0  0  0  0  0  0  0
  -29.9590  -19.2420   20.5540 C   0  0  0  0  0  3  0  0  0  0  0  0
  -29.7610  -17.8480   20.5520 C   0  0  0  0  0  3  0  0  0  0  0  0
  -32.0650  -17.5310   21.2630 C   0  0  0  0  0  3  0  0  0  0  0  0
  -31.2060  -19.8060   20.9120 C   0  0  0  0  0  0  0  0  0  0  0  0
  -32.2710  -18.9300   21.2830 C   0  0  0  0  0  0  0  0  0  0  0  0
  -30.8220  -16.9860   20.8840 C   0  0  0  0  0  0  0  0  0  0  0  0
  -31.1360  -14.6930   20.0740 C   0  0  0  0  0  0  0  0  0  0  0  0
  -30.7630  -12.5190   18.9590 C   0  0  0  0  0  2  0  0  0  0  0  0
  -29.7690  -12.6810   17.7920 C   0  0  0  0  0  2  0  0  0  0  0  0
  -28.3130  -12.5730   18.2860 C   0  0  0  0  0  2  0  0  0  0  0  0
  -28.0370  -13.4750   19.5180 C   0  0  0  0  0  3  0  0  0  0  0  0
  -29.1250  -13.2620   20.5920 C   0  0  0  0  0  2  0  0  0  0  0  0
  -30.4400  -13.5300   19.9780 N   0  0  0  0  0  0  0  0  0  0  0  0
  -32.1710  -14.9210   19.4370 O   0  0  0  0  0  0  0  0  0  0  0  0
  -30.5990  -15.5920   20.9140 N   0  0  0  0  0  0  0  0  0  0  0  0
  -29.7470  -15.2850   21.3590 H   0  0  0  0  0  0  0  0  0  0  0  0
  -25.7180  -14.1720   20.3980 C   0  0  0  0  0  0  0  0  0  0  0  0
  -24.6290  -13.4380   20.7840 C   0  0  0  0  0  0  0  0  0  0  0  0
  -25.0070  -12.0680   20.6430 C   0  0  0  0  0  0  0  0  0  0  0  0
  -26.6960  -13.2500   20.0540 N   0  0  0  0  0  0  0  0  0  0  0  0
  -26.2720  -11.9760   20.2550 N   0  0  0  0  0  0  0  0  0  0  0  0
  -24.2200  -10.8370   20.8010 C   0  0  0  0  0  0  0  0  0  0  0  0
  -24.6090   -9.8220   21.7030 C   0  0  0  0  0  3  0  0  0  0  0  0
  -23.8270   -8.6570   21.8500 C   0  0  0  0  0  3  0  0  0  0  0  0
  -22.6400   -8.4990   21.0940 C   0  0  0  0  0  0  0  0  0  0  0  0
  -22.2690   -9.5020   20.1810 C   0  0  0  0  0  3  0  0  0  0  0  0
  -23.0530  -10.6590   20.0330 C   0  0  0  0  0  3  0  0  0  0  0  0
  -21.8310   -7.3900   21.1520 O   0  0  0  0  0  0  0  0  0  0  0  0
  -21.6960   -6.6590   22.3050 C   0  0  0  0  0  0  0  0  0  0  0  0
  -21.2080   -7.2320   23.5000 C   0  0  0  0  0  3  0  0  0  0  0  0
  -21.0180   -6.4270   24.6410 C   0  0  0  0  0  3  0  0  0  0  0  0
  -21.3050   -5.0510   24.5880 C   0  0  0  0  0  0  0  0  0  0  0  0
  -21.7860   -4.4770   23.3980 C   0  0  0  0  0  3  0  0  0  0  0  0
  -21.9780   -5.2770   22.2590 C   0  0  0  0  0  0  0  0  0  0  0  0
  -22.4210   -4.7160   21.1080 F   0  0  0  0  0  0  0  0  0  0  0  0
  -21.1160   -4.2760   25.6810 F   0  0  0  0  0  0  0  0  0  0  0  0
  -23.2800  -13.9730   21.1710 C   0  0  0  0  0  0  0  0  0  0  0  0
  -22.5680  -13.2690   22.0460 N   0  0  0  0  0  0  0  0  0  0  0  0
  -22.8690  -15.0480   20.7370 O   0  0  0  0  0  0  0  0  0  0  0  0
  -22.9110  -12.3950   22.4160 H   0  0  0  0  0  0  0  0  0  0  0  0
  -21.6650  -13.6070   22.3470 H   0  0  0  0  0  0  0  0  0  0  0  0
  -25.9550  -15.5390   20.2940 N   0  0  0  0  0  0  0  0  0  0  0  0
  -25.2380  -16.2310   20.4840 H   0  0  0  0  0  0  0  0  0  0  0  0
  -26.8170  -15.9450   19.9540 H   0  0  0  0  0  0  0  0  0  0  0  0
  -33.6480  -19.4300   21.7190 C   0  0  0  0  0  2  0  0  0  0  0  0
  -33.5980  -20.0430   23.0540 N   0  0  0  0  0  4  0  0  0  0  0  0
  -32.9600  -20.8320   23.0670 H   0  0  0  0  0  0  0  0  0  0  0  0
  -34.5110  -20.3620   23.3210 H   0  0  0  0  0  0  0  0  0  0  0  0
  -33.2840  -19.3730   23.7320 H   0  0  0  0  0  0  0  0  0  0  0  0
  -30.5710  -21.7900   23.2530 C   0  0  0  0  0  0  0  0  0  0  0  0
  -29.5020  -21.6510   24.0250 N   0  0  0  0  0  0  0  0  0  0  0  0
  -31.7060  -21.6530   23.7110 O   0  0  0  0  0  0  0  0  0  0  0  0
  -28.5720  -21.7600   23.6450 H   0  0  0  0  0  0  0  0  0  0  0  0
  -29.6080  -21.4330   25.0060 H   0  0  0  0  0  0  0  0  0  0  0  0
  -28.7240  -25.8690   20.5190 C   0  0  0  0  0  2  0  0  0  0  0  0
  -28.6560  -27.1850   19.9620 O   0  0  0  0  0  0  0  0  0  0  0  0
  -24.4620  -31.8920   23.2440 C   0  0  0  0  0  0  0  0  0  0  0  0
  -27.4300  -27.7970   20.0190 C   0  0  0  0  0  0  0  0  0  0  0  0
  -23.3720  -30.5110   21.5030 C   0  0  0  0  0  3  0  0  0  0  0  0
  -24.9450  -29.1300   20.0450 C   0  0  0  0  0  0  0  0  0  0  0  0
  -25.8720  -31.0320   21.3810 C   0  0  0  0  0  2  0  0  0  0  0  0
  -26.0530  -29.7010   20.6830 C   0  0  0  0  0  0  0  0  0  0  0  0
  -27.3000  -29.0420   20.6660 C   0  0  0  0  0  3  0  0  0  0  0  0
  -26.3090  -27.2260   19.3810 C   0  0  0  0  0  3  0  0  0  0  0  0
  -25.0650  -27.8880   19.3940 C   0  0  0  0  0  3  0  0  0  0  0  0
  -23.6500  -29.9080   20.0990 C   0  0  0  0  0  2  0  0  0  0  0  0
  -24.5840  -31.1570   22.1030 N   0  0  0  0  0  0  0  0  0  0  0  0
  -23.3570  -32.0740   23.7730 O   0  0  0  0  0  0  0  0  0  0  0  0
  -22.7620  -29.4070   22.3960 C   0  0  0  0  0  0  0  0  0  0  0  0
  -21.4510  -29.1660   22.2350 N   0  0  0  0  0  0  0  0  0  0  0  0
  -23.4660  -28.7720   23.1850 O   0  0  0  0  0  0  0  0  0  0  0  0
  -20.9430  -29.7340   21.5730 H   0  0  0  0  0  0  0  0  0  0  0  0
  -18.1350  -27.7800   22.5990 C   0  0  0  0  0  0  0  0  0  0  0  0
  -20.6710  -28.1460   22.9350 C   0  0  0  0  0  3  0  0  0  0  0  0
  -20.8540  -26.7570   22.2810 C   0  0  0  0  0  2  0  0  0  0  0  0
  -19.7870  -26.4400   21.2290 C   0  0  0  0  0  2  0  0  0  0  0  0
  -18.3900  -26.4820   21.8530 C   0  0  0  0  0  2  0  0  0  0  0  0
  -19.2070  -28.5700   23.0930 C   0  0  0  0  0  0  0  0  0  0  0  0
  -18.9170  -29.7870   23.7470 C   0  0  0  0  0  3  0  0  0  0  0  0
  -17.5880  -30.2170   23.9120 C   0  0  0  0  0  3  0  0  0  0  0  0
  -16.5290  -29.4230   23.4370 C   0  0  0  0  0  3  0  0  0  0  0  0
  -16.8030  -28.2070   22.7870 C   0  0  0  0  0  3  0  0  0  0  0  0
  -25.6990  -32.5590   23.9270 C   0  0  0  0  0  3  0  0  0  0  0  0
  -25.3260  -33.9390   24.2620 N   0  0  0  0  0  0  0  0  0  0  0  0
  -25.6470  -35.0130   23.5270 C   0  0  0  0  0  0  0  0  0  0  0  0
  -26.3590  -34.9480   22.5210 O   0  0  0  0  0  0  0  0  0  0  0  0
  -24.6950  -34.0610   25.0410 H   0  0  0  0  0  0  0  0  0  0  0  0
  -23.8550  -36.7320   23.1330 C   0  0  0  0  0  1  0  0  0  0  0  0
  -25.0870  -36.3750   23.9810 C   0  0  0  0  0  3  0  0  0  0  0  0
  -27.1610  -37.3360   24.8780 C   0  0  0  0  0  1  0  0  0  0  0  0
  -26.0750  -37.4740   23.9120 N   0  0  0  0  0  0  0  0  0  0  0  0
  -25.6230  -38.3710   24.0700 H   0  0  0  0  0  0  0  0  0  0  0  0
  -26.1940  -31.7850   25.2100 C   0  0  1  0  0  0  0  0  0  0  0  0
  -25.0630  -31.4490   26.2090 C   0  0  0  0  0  1  0  0  0  0  0  0
  -26.8830  -30.4580   24.8120 C   0  0  0  0  0  1  0  0  0  0  0  0
  -27.2540  -32.6280   25.9550 C   0  0  0  0  0  1  0  0  0  0  0  0
  1  7  1  0
  1 63  1  0
  2  5  1  0
  3  2  1  0
  3  7  1  0
  4  6  1  0
  5 12  1  0
  5  6  1  0
  6 58  1  0
  7  4  1  0
  8  1  2  0
  9 12  1  0
 10  9  2  0
 10 14  1  0
 11 13  1  0
 12 13  2  0
 13 53  1  0
 14 23  1  0
 14 11  2  0
 15 23  1  0
 16 21  1  0
 17 18  1  0
 17 16  1  0
 19 18  1  0
 19 28  1  0
 19 20  1  0
 21 15  1  0
 21 20  1  0
 22 15  2  0
 23 24  1  0
 25 26  2  0
 26 45  1  0
 27 26  1  0
 27 30  1  0
 28 29  1  0
 28 25  1  0
 29 27  2  0
 30 31  1  0
 31 32  2  0
 33 36  1  0
 33 32  1  0
 34 33  2  0
 35 34  1  0
 35 30  2  0
 36 37  1  0
 37 38  1  0
 38 39  2  0
 40 39  1  0
 40 44  1  0
 41 40  2  0
 42 37  2  0
 42 41  1  0
 43 42  1  0
 45 46  1  0
 46 49  1  0
 46 48  1  0
 47 45  2  0
 50 25  1  0
 50 51  1  0
 52 50  1  0
 53 54  1  0
 54 55  1  0
 54 56  1  0
 54 57  1  0
 58 60  2  0
 58 59  1  0
 59 62  1  0
 61 59  1  0
 64 66  1  0
 64 63  1  0
 65 76  2  0
 66 71  1  0
 67 75  1  0
 67 77  1  0
 68 74  1  0
 68 70  1  0
 69 75  1  0
 70 69  1  0
 71 70  2  0
 72 73  1  0
 72 66  2  0
 73 68  2  0
 74 67  1  0
 75 65  1  0
 77 79  2  0
 78 77  1  0
 80 78  1  0
 81 90  2  0
 81 86  1  0
 82 78  1  0
 82 86  1  0
 83 82  1  0
 84 85  1  0
 84 83  1  0
 85 81  1  0
 86 87  2  0
 87 88  1  0
 89 88  2  0
 90 89  1  0
 91 65  1  0
 91 92  1  0
 91101  1  0
 92 95  1  0
 93 97  1  0
 93 92  1  0
 94 93  2  0
 97 96  1  0
 99 97  1  0
 99100  1  0
 99 98  1  0
101104  1  1
101102  1  0
103101  1  0
M  ISO  4  15 100  23 100  63 101  64 101
M  END
>  <TORSDO>  (94) 
F 21

>  <SCORE>  (94) 
-13.539

>  <name>  (94) 
93

>  <ligand_id>  (94) 
93

>  <original_smiles>  (94) 
[H]c1c([H])c([H])c2c(c1[H])C([H])([H])C([H])([H])C([H])([H])C2([H])N([H])C(=O)C1([H])N(C(=O)C([H])(N([H])C(=O)C([H])(N([H])C([H])([H])[H])C([H])([H])[H])C(C([H])([H])[H])(C([H])([H])[H])C([H])([H])[H])C([H])([H])c2c([H])c(OC([H])([H])C(=O)N3C([H])([H])C([H])([H])C([H])(c4c([H])c([H])c(N([H])C(=O)N5C([H])([H])C([H])([H])C([H])([H])C([H])(n6nc(-c7c([H])c([H])c(Oc8c([H])c([H])c(F)c([H])c8F)c([H])c7[H])c(C(=O)N([H])[H])c6N([H])[H])C5([H])[H])c([H])c4C([H])([H])[N+]([H])([H])[H])C([H])(C(=O)N([H])[H])C3([H])[H])c([H])c([H])c2C1([H])[H]

>  <smiles>  (94) 
[H]c1c([H])c([H])c2c(c1[H])C([H])([H])C([H])([H])C([H])([H])C2([H])N([H])C(=O)C1([H])N(C(=O)C([H])(N([H])C(=O)C([H])(N([H])C([H])([H])[H])C([H])([H])[H])C(C([H])([H])[H])(C([H])([H])[H])C([H])([H])[H])C([H])([H])c2c([H])c(OC([H])([H])C(=O)N3C([H])([H])C([H])([H])C([H])(c4c([H])c([H])c(N([H])C(=O)N5C([H])([H])C([H])([H])C([H])([H])C([H])(n6nc(-c7c([H])c([H])c(Oc8c([H])c([H])c(F)c([H])c8F)c([H])c7[H])c(C(=O)N([H])[H])c6N([H])[H])C5([H])[H])c([H])c4C([H])([H])[N+]([H])([H])[H])C([H])(C(=O)N([H])[H])C3([H])[H])c([H])c([H])c2C1([H])[H]

$$$$
94:0:0
     RDKit          3D

105114  0  0  1  0  0  0  0  0999 V2000
  -29.8270  -21.9790   18.8040 C   0  0  0  0  0  0  0  0  0  0  0  0
  -30.4590  -22.0260   20.0090 N   0  0  0  0  0  0  0  0  0  0  0  0
  -30.2740  -21.3190   17.8620 O   0  0  0  0  0  0  0  0  0  0  0  0
  -27.3190  -21.9770   19.1410 C   0  0  0  0  0  2  0  0  0  0  0  0
  -26.0000  -22.7410   18.9420 C   0  0  0  0  0  2  0  0  0  0  0  0
  -26.8480  -23.7800   16.9380 C   0  0  0  0  0  2  0  0  0  0  0  0
  -28.5160  -22.7670   18.5670 C   0  0  0  0  0  3  0  0  0  0  0  0
  -28.2130  -23.0570   17.0650 C   0  0  0  0  0  3  0  0  0  0  0  0
  -24.4930  -23.6530   17.3380 C   0  0  0  0  0  1  0  0  0  0  0  0
  -25.7700  -22.9660   17.5130 N   0  0  0  0  0  0  0  0  0  0  0  0
  -29.2680  -23.8260   16.3700 N   0  0  0  0  0  4  0  0  0  0  0  0
  -29.4100  -24.7340   16.7770 H   0  0  0  0  0  0  0  0  0  0  0  0
  -29.0100  -23.9560   15.4070 H   0  0  0  0  0  0  0  0  0  0  0  0
  -30.1370  -23.3200   16.3740 H   0  0  0  0  0  0  0  0  0  0  0  0
  -31.6310  -21.1680   20.2740 C   0  0  0  0  0  2  0  0  0  0  0  0
  -30.4610  -19.1350   21.3220 C   0  0  0  0  0  3  0  0  0  0  0  0
  -31.9650  -18.7840   19.4500 C   0  0  0  0  0  3  0  0  0  0  0  0
  -30.2350  -17.7410   21.3960 C   0  0  0  0  0  3  0  0  0  0  0  0
  -31.7320  -17.3980   19.5170 C   0  0  0  0  0  3  0  0  0  0  0  0
  -31.3370  -19.6670   20.3520 C   0  0  0  0  0  0  0  0  0  0  0  0
  -30.8710  -16.8490   20.5030 C   0  0  0  0  0  0  0  0  0  0  0  0
  -31.2170  -14.3870   20.1000 C   0  0  0  0  0  0  0  0  0  0  0  0
  -30.7630  -12.2320   19.0020 C   0  0  0  0  0  2  0  0  0  0  0  0
  -29.7970  -12.4810   17.8250 C   0  0  0  0  0  2  0  0  0  0  0  0
  -28.3330  -12.4290   18.3010 C   0  0  0  0  0  2  0  0  0  0  0  0
  -28.0800  -13.2950   19.5660 C   0  0  0  0  0  3  0  0  0  0  0  0
  -29.1570  -13.0300   20.6430 C   0  0  0  0  0  2  0  0  0  0  0  0
  -30.4770  -13.2470   20.0290 N   0  0  0  0  0  0  0  0  0  0  0  0
  -32.3450  -14.4660   19.6090 O   0  0  0  0  0  0  0  0  0  0  0  0
  -30.5800  -15.4500   20.6300 N   0  0  0  0  0  0  0  0  0  0  0  0
  -29.7010  -15.2260   21.0700 H   0  0  0  0  0  0  0  0  0  0  0  0
  -25.7460  -14.0310   20.3620 C   0  0  0  0  0  0  0  0  0  0  0  0
  -24.6470  -13.3170   20.7600 C   0  0  0  0  0  0  0  0  0  0  0  0
  -25.0270  -11.9410   20.6970 C   0  0  0  0  0  0  0  0  0  0  0  0
  -26.7300  -13.0940   20.0870 N   0  0  0  0  0  0  0  0  0  0  0  0
  -26.3020  -11.8310   20.3440 N   0  0  0  0  0  0  0  0  0  0  0  0
  -24.2360  -10.7200   20.8960 C   0  0  0  0  0  0  0  0  0  0  0  0
  -24.6200   -9.7350   21.8330 C   0  0  0  0  0  3  0  0  0  0  0  0
  -23.8330   -8.5790   22.0200 C   0  0  0  0  0  3  0  0  0  0  0  0
  -22.6470   -8.3990   21.2700 C   0  0  0  0  0  0  0  0  0  0  0  0
  -22.2800   -9.3710   20.3230 C   0  0  0  0  0  3  0  0  0  0  0  0
  -23.0680  -10.5200   20.1340 C   0  0  0  0  0  3  0  0  0  0  0  0
  -21.8320   -7.2960   21.3670 O   0  0  0  0  0  0  0  0  0  0  0  0
  -21.7290   -6.5780   22.5310 C   0  0  0  0  0  0  0  0  0  0  0  0
  -21.3250   -7.1770   23.7430 C   0  0  0  0  0  3  0  0  0  0  0  0
  -21.1650   -6.3880   24.9000 C   0  0  0  0  0  3  0  0  0  0  0  0
  -21.3990   -5.0010   24.8450 C   0  0  0  0  0  0  0  0  0  0  0  0
  -21.7970   -4.4010   23.6370 C   0  0  0  0  0  3  0  0  0  0  0  0
  -21.9580   -5.1880   22.4820 C   0  0  0  0  0  0  0  0  0  0  0  0
  -22.3210   -4.6020   21.3150 F   0  0  0  0  0  0  0  0  0  0  0  0
  -21.2390   -4.2400   25.9530 F   0  0  0  0  0  0  0  0  0  0  0  0
  -23.2900  -13.8700   21.0860 C   0  0  0  0  0  0  0  0  0  0  0  0
  -22.5630  -13.2180   21.9870 N   0  0  0  0  0  0  0  0  0  0  0  0
  -22.8860  -14.9140   20.5760 O   0  0  0  0  0  0  0  0  0  0  0  0
  -22.9020  -12.3710   22.4180 H   0  0  0  0  0  0  0  0  0  0  0  0
  -21.6530  -13.5710   22.2490 H   0  0  0  0  0  0  0  0  0  0  0  0
  -25.9840  -15.3910   20.1940 N   0  0  0  0  0  0  0  0  0  0  0  0
  -25.2620  -16.0900   20.3310 H   0  0  0  0  0  0  0  0  0  0  0  0
  -26.8480  -15.7820   19.8350 H   0  0  0  0  0  0  0  0  0  0  0  0
  -30.0920  -22.9460   21.1060 C   0  0  0  0  0  2  0  0  0  0  0  0
  -30.5090  -24.4260   20.8470 C   0  0  0  0  0  3  0  0  0  0  0  0
  -31.7150  -24.6720   21.5500 O   0  0  0  0  0  0  0  0  0  0  0  0
  -31.5220  -24.6710   22.4820 H   0  0  0  0  0  0  0  0  0  0  0  0
  -29.4350  -25.4230   21.3450 C   0  0  0  0  0  2  0  0  0  0  0  0
  -29.5150  -26.6970   20.6850 O   0  0  0  0  0  0  0  0  0  0  0  0
  -25.0080  -31.5590   23.2710 C   0  0  0  0  0  0  0  0  0  0  0  0
  -28.2990  -27.3300   20.5500 C   0  0  0  0  0  0  0  0  0  0  0  0
  -24.0760  -30.0060   21.5880 C   0  0  0  0  0  3  0  0  0  0  0  0
  -25.7790  -28.5900   20.3250 C   0  0  0  0  0  0  0  0  0  0  0  0
  -26.5620  -30.6090   21.5710 C   0  0  0  0  0  2  0  0  0  0  0  0
  -26.8310  -29.2400   20.9830 C   0  0  0  0  0  0  0  0  0  0  0  0
  -28.0960  -28.6180   21.0930 C   0  0  0  0  0  3  0  0  0  0  0  0
  -27.2350  -26.6990   19.8670 C   0  0  0  0  0  3  0  0  0  0  0  0
  -25.9760  -27.3180   19.7610 C   0  0  0  0  0  3  0  0  0  0  0  0
  -24.4570  -29.3180   20.2500 C   0  0  0  0  0  2  0  0  0  0  0  0
  -25.2280  -30.7420   22.2020 N   0  0  0  0  0  0  0  0  0  0  0  0
  -23.8670  -31.7370   23.7180 O   0  0  0  0  0  0  0  0  0  0  0  0
  -23.4540  -28.9480   22.5270 C   0  0  0  0  0  0  0  0  0  0  0  0
  -22.1750  -28.6160   22.2910 N   0  0  0  0  0  0  0  0  0  0  0  0
  -24.1230  -28.4280   23.4230 O   0  0  0  0  0  0  0  0  0  0  0  0
  -21.6930  -29.0960   21.5420 H   0  0  0  0  0  0  0  0  0  0  0  0
  -18.9240  -27.0550   22.5140 C   0  0  0  0  0  0  0  0  0  0  0  0
  -21.3950  -27.6180   23.0230 C   0  0  0  0  0  3  0  0  0  0  0  0
  -21.7150  -26.1890   22.5290 C   0  0  0  0  0  2  0  0  0  0  0  0
  -20.7680  -25.7030   21.4280 C   0  0  0  0  0  2  0  0  0  0  0  0
  -19.3200  -25.7110   21.9250 C   0  0  0  0  0  2  0  0  0  0  0  0
  -19.9000  -27.9570   23.0140 C   0  0  0  0  0  0  0  0  0  0  0  0
  -19.4830  -29.2080   23.5170 C   0  0  0  0  0  3  0  0  0  0  0  0
  -18.1200  -29.5610   23.5270 C   0  0  0  0  0  3  0  0  0  0  0  0
  -17.1570  -28.6590   23.0460 C   0  0  0  0  0  3  0  0  0  0  0  0
  -17.5590  -27.4070   22.5460 C   0  0  0  0  0  3  0  0  0  0  0  0
  -26.1770  -32.3270   23.9660 C   0  0  0  0  0  3  0  0  0  0  0  0
  -25.7070  -33.6920   24.2370 N   0  0  0  0  0  0  0  0  0  0  0  0
  -25.9870  -34.7570   23.4750 C   0  0  0  0  0  0  0  0  0  0  0  0
  -26.7390  -34.7030   22.4970 O   0  0  0  0  0  0  0  0  0  0  0  0
  -25.0400  -33.7990   24.9880 H   0  0  0  0  0  0  0  0  0  0  0  0
  -24.1120  -36.3510   22.9560 C   0  0  0  0  0  1  0  0  0  0  0  0
  -25.3300  -36.0970   23.8590 C   0  0  0  0  0  3  0  0  0  0  0  0
  -27.3030  -37.2140   24.7990 C   0  0  0  0  0  1  0  0  0  0  0  0
  -26.2540  -37.2500   23.7840 N   0  0  0  0  0  0  0  0  0  0  0  0
  -25.7460  -38.1250   23.8850 H   0  0  0  0  0  0  0  0  0  0  0  0
  -26.6750  -31.6340   25.2930 C   0  0  1  0  0  0  0  0  0  0  0  0
  -25.5370  -31.3020   26.2870 C   0  0  0  0  0  1  0  0  0  0  0  0
  -27.4210  -30.3180   24.9740 C   0  0  0  0  0  1  0  0  0  0  0  0
  -27.6870  -32.5530   26.0170 C   0  0  0  0  0  1  0  0  0  0  0  0
  1  2  1  0
  2 15  1  0
  2 60  1  0
  3  1  2  0
  5  4  1  0
  6  8  1  0
  6 10  1  0
  7  1  1  0
  7  4  1  0
  8 11  1  0
  8  7  1  0
  9 10  1  0
 10  5  1  0
 11 14  1  0
 11 12  1  0
 13 11  1  0
 15 20  1  0
 16 18  1  0
 17 19  2  0
 17 20  1  0
 19 21  1  0
 20 16  2  0
 21 30  1  0
 21 18  2  0
 22 30  1  0
 23 28  1  0
 24 25  1  0
 24 23  1  0
 26 25  1  0
 26 35  1  0
 26 27  1  0
 28 22  1  0
 28 27  1  0
 29 22  2  0
 30 31  1  0
 32 33  2  0
 33 52  1  0
 34 33  1  0
 34 37  1  0
 35 36  1  0
 35 32  1  0
 36 34  2  0
 37 38  1  0
 38 39  2  0
 40 43  1  0
 40 39  1  0
 41 40  2  0
 42 41  1  0
 42 37  2  0
 43 44  1  0
 44 45  1  0
 45 46  2  0
 47 46  1  0
 47 51  1  0
 48 47  2  0
 49 44  2  0
 49 48  1  0
 50 49  1  0
 52 53  1  0
 53 56  1  0
 53 55  1  0
 54 52  2  0
 57 58  1  0
 57 32  1  0
 59 57  1  0
 61 60  1  0
 61 64  1  0
 61 62  1  0
 62 63  1  0
 65 64  1  0
 66 77  2  0
 67 65  1  0
 67 72  1  0
 68 76  1  0
 68 78  1  0
 69 71  1  0
 70 76  1  0
 71 72  2  0
 71 70  1  0
 73 67  2  0
 74 73  1  0
 74 69  2  0
 75 69  1  0
 75 68  1  0
 76 66  1  0
 78 80  2  0
 79 78  1  0
 81 79  1  0
 82 91  2  0
 82 87  1  0
 83 79  1  0
 84 83  1  0
 85 86  1  0
 85 84  1  0
 86 82  1  0
 87 83  1  0
 87 88  2  0
 88 89  1  0
 90 89  2  0
 91 90  1  0
 92 66  1  0
 92 93  1  0
 92102  1  0
 93 96  1  0
 94 98  1  0
 94 93  1  0
 95 94  2  0
 98 97  1  0
100 98  1  0
100101  1  0
100 99  1  0
102105  1  1
102103  1  0
104102  1  0
M  ISO  4  22 100  30 100  64 101  65 101
M  END
>  <TORSDO>  (95) 
F 24

>  <SCORE>  (95) 
-11.442

>  <name>  (95) 
94

>  <ligand_id>  (95) 
94

>  <original_smiles>  (95) 
[H]OC([H])(C([H])([H])Oc1c([H])c([H])c2c(c1[H])C([H])([H])N(C(=O)C([H])(N([H])C(=O)C([H])(N([H])C([H])([H])[H])C([H])([H])[H])C(C([H])([H])[H])(C([H])([H])[H])C([H])([H])[H])C([H])(C(=O)N([H])C1([H])c3c([H])c([H])c([H])c([H])c3C([H])([H])C([H])([H])C1([H])[H])C2([H])[H])C([H])([H])N(C(=O)C1([H])C([H])([H])C([H])([H])N(C([H])([H])[H])C([H])([H])C1([H])[N+]([H])([H])[H])C([H])([H])c1c([H])c([H])c(N([H])C(=O)N2C([H])([H])C([H])([H])C([H])([H])C([H])(n3nc(-c4c([H])c([H])c(Oc5c([H])c([H])c(F)c([H])c5F)c([H])c4[H])c(C(=O)N([H])[H])c3N([H])[H])C2([H])[H])c([H])c1[H]

>  <smiles>  (95) 
[H]OC([H])(C([H])([H])Oc1c([H])c([H])c2c(c1[H])C([H])([H])N(C(=O)C([H])(N([H])C(=O)C([H])(N([H])C([H])([H])[H])C([H])([H])[H])C(C([H])([H])[H])(C([H])([H])[H])C([H])([H])[H])C([H])(C(=O)N([H])C1([H])c3c([H])c([H])c([H])c([H])c3C([H])([H])C([H])([H])C1([H])[H])C2([H])[H])C([H])([H])N(C(=O)C1([H])C([H])([H])C([H])([H])N(C([H])([H])[H])C([H])([H])C1([H])[N+]([H])([H])[H])C([H])([H])c1c([H])c([H])c(N([H])C(=O)N2C([H])([H])C([H])([H])C([H])([H])C([H])(n3nc(-c4c([H])c([H])c(Oc5c([H])c([H])c(F)c([H])c5F)c([H])c4[H])c(C(=O)N([H])[H])c3N([H])[H])C2([H])[H])c([H])c1[H]

$$$$
95:0:0
     RDKit          3D

 99108  0  0  1  0  0  0  0  0999 V2000
  -30.4130  -21.0260   22.7810 C   0  0  0  0  0  2  0  0  0  0  0  0
  -28.6360  -20.9250   20.9630 C   0  0  0  0  0  2  0  0  0  0  0  0
  -31.1790  -22.0390   21.9040 C   0  0  0  0  0  2  0  0  0  0  0  0
  -29.4640  -21.9550   20.1620 C   0  0  0  0  0  2  0  0  0  0  0  0
  -29.4670  -20.1050   21.9810 C   0  0  0  0  0  3  0  0  0  0  0  0
  -30.2400  -22.8340   21.0740 N   0  0  2  0  0  4  0  0  0  0  0  0
  -29.5600  -23.2530   21.6930 H   0  0  0  0  0  0  0  0  0  0  0  0
  -30.1960  -18.8980   21.3610 C   0  0  0  0  0  0  0  0  0  0  0  0
  -30.5590  -17.9370   22.2240 N   0  0  0  0  0  0  0  0  0  0  0  0
  -30.3830  -18.8360   20.1460 O   0  0  0  0  0  0  0  0  0  0  0  0
  -30.3470  -18.1350   23.1940 H   0  0  0  0  0  0  0  0  0  0  0  0
  -32.6120  -16.5680   22.1060 C   0  0  0  0  0  2  0  0  0  0  0  0
  -32.6380  -15.5930   20.9270 C   0  0  0  0  0  2  0  0  0  0  0  0
  -31.0790  -16.5930   21.9740 C   0  0  0  0  0  3  0  0  0  0  0  0
  -31.2750  -16.1670   20.5030 C   0  0  0  0  0  3  0  0  0  0  0  0
  -30.3780  -14.4380   18.9600 C   0  0  0  0  0  0  0  0  0  0  0  0
  -29.7510  -12.3050   17.8900 C   0  0  0  0  0  2  0  0  0  0  0  0
  -28.5340  -12.4310   16.9580 C   0  0  0  0  0  2  0  0  0  0  0  0
  -27.2220  -12.2820   17.7480 C   0  0  0  0  0  2  0  0  0  0  0  0
  -27.1810  -13.1900   19.0040 C   0  0  0  0  0  3  0  0  0  0  0  0
  -28.4730  -13.0350   19.8340 C   0  0  0  0  0  2  0  0  0  0  0  0
  -29.6300  -13.3050   18.9590 N   0  0  0  0  0  0  0  0  0  0  0  0
  -31.1310  -14.7650   18.0360 O   0  0  0  0  0  0  0  0  0  0  0  0
  -30.3570  -15.1040   20.1170 N   0  0  0  0  0  0  0  0  0  0  0  0
  -29.7240  -14.7600   20.8230 H   0  0  0  0  0  0  0  0  0  0  0  0
  -25.0930  -13.8240   20.3750 C   0  0  0  0  0  0  0  0  0  0  0  0
  -24.1200  -13.0600   20.9650 C   0  0  0  0  0  0  0  0  0  0  0  0
  -24.4790  -11.7010   20.7120 C   0  0  0  0  0  0  0  0  0  0  0  0
  -25.9880  -12.9280   19.8080 N   0  0  0  0  0  0  0  0  0  0  0  0
  -25.6350  -11.6420   20.0620 N   0  0  0  0  0  0  0  0  0  0  0  0
  -23.7630  -10.4520   21.0010 C   0  0  0  0  0  0  0  0  0  0  0  0
  -24.3180   -9.4570   21.8360 C   0  0  0  0  0  3  0  0  0  0  0  0
  -23.6020   -8.2730   22.1130 C   0  0  0  0  0  3  0  0  0  0  0  0
  -22.3170   -8.0750   21.5550 C   0  0  0  0  0  0  0  0  0  0  0  0
  -21.7780   -9.0570   20.7060 C   0  0  0  0  0  3  0  0  0  0  0  0
  -22.4950  -10.2330   20.4280 C   0  0  0  0  0  3  0  0  0  0  0  0
  -21.5590   -6.9450   21.7480 O   0  0  0  0  0  0  0  0  0  0  0  0
  -21.6140   -6.2320   22.9180 C   0  0  0  0  0  0  0  0  0  0  0  0
  -21.3170   -6.8240   24.1660 C   0  0  0  0  0  3  0  0  0  0  0  0
  -21.3180   -6.0380   25.3360 C   0  0  0  0  0  3  0  0  0  0  0  0
  -21.6060   -4.6620   25.2620 C   0  0  0  0  0  0  0  0  0  0  0  0
  -21.8950   -4.0700   24.0190 C   0  0  0  0  0  3  0  0  0  0  0  0
  -21.8970   -4.8530   22.8510 C   0  0  0  0  0  0  0  0  0  0  0  0
  -22.1550   -4.2730   21.6550 F   0  0  0  0  0  0  0  0  0  0  0  0
  -21.5980   -3.9050   26.3840 F   0  0  0  0  0  0  0  0  0  0  0  0
  -22.8770  -13.5590   21.6430 C   0  0  0  0  0  0  0  0  0  0  0  0
  -22.4000  -12.8410   22.6530 N   0  0  0  0  0  0  0  0  0  0  0  0
  -22.3490  -14.6190   21.3090 O   0  0  0  0  0  0  0  0  0  0  0  0
  -22.8450  -11.9810   22.9370 H   0  0  0  0  0  0  0  0  0  0  0  0
  -21.5780  -13.1560   23.1500 H   0  0  0  0  0  0  0  0  0  0  0  0
  -25.2840  -15.1980   20.2580 N   0  0  0  0  0  0  0  0  0  0  0  0
  -24.6240  -15.8740   20.6240 H   0  0  0  0  0  0  0  0  0  0  0  0
  -26.0510  -15.6240   19.7530 H   0  0  0  0  0  0  0  0  0  0  0  0
  -30.8600  -24.0110   20.4060 C   0  0  0  0  0  2  0  0  0  0  0  0
  -30.0790  -25.3040   20.7450 C   0  0  0  0  0  3  0  0  0  0  0  0
  -28.6900  -24.9960   20.7270 O   0  0  0  0  0  0  0  0  0  0  0  0
  -28.3950  -24.9760   19.8220 H   0  0  0  0  0  0  0  0  0  0  0  0
  -30.3900  -26.4740   19.7770 C   0  0  0  0  0  2  0  0  0  0  0  0
  -29.9290  -27.7240   20.2980 O   0  0  0  0  0  0  0  0  0  0  0  0
  -24.7820  -31.5410   23.3570 C   0  0  0  0  0  0  0  0  0  0  0  0
  -28.5940  -28.0750   20.2430 C   0  0  0  0  0  0  0  0  0  0  0  0
  -24.0450  -30.0180   21.5540 C   0  0  0  0  0  3  0  0  0  0  0  0
  -25.9050  -28.9590   20.1690 C   0  0  0  0  0  0  0  0  0  0  0  0
  -26.4210  -30.9650   21.5720 C   0  0  0  0  0  2  0  0  0  0  0  0
  -26.8650  -29.6990   20.8700 C   0  0  0  0  0  0  0  0  0  0  0  0
  -28.2060  -29.2600   20.9070 C   0  0  0  0  0  3  0  0  0  0  0  0
  -27.6070  -27.3380   19.5440 C   0  0  0  0  0  3  0  0  0  0  0  0
  -26.2700  -27.7760   19.5080 C   0  0  0  0  0  3  0  0  0  0  0  0
  -24.4940  -29.5000   20.1620 C   0  0  0  0  0  2  0  0  0  0  0  0
  -25.0930  -30.8560   22.2220 N   0  0  0  0  0  0  0  0  0  0  0  0
  -23.6350  -31.5180   23.8260 O   0  0  0  0  0  0  0  0  0  0  0  0
  -23.5950  -28.8100   22.4030 C   0  0  0  0  0  0  0  0  0  0  0  0
  -22.3750  -28.3130   22.1390 N   0  0  0  0  0  0  0  0  0  0  0  0
  -24.3440  -28.3210   23.2550 O   0  0  0  0  0  0  0  0  0  0  0  0
  -21.8190  -28.7800   21.4360 H   0  0  0  0  0  0  0  0  0  0  0  0
  -19.3780  -26.3020   22.2590 C   0  0  0  0  0  0  0  0  0  0  0  0
  -21.7600  -27.1550   22.7850 C   0  0  0  0  0  3  0  0  0  0  0  0
  -22.2620  -25.8350   22.1570 C   0  0  0  0  0  2  0  0  0  0  0  0
  -21.3620  -25.3210   21.0290 C   0  0  0  0  0  2  0  0  0  0  0  0
  -19.9400  -25.0840   21.5440 C   0  0  0  0  0  2  0  0  0  0  0  0
  -20.2340  -27.2830   22.8250 C   0  0  0  0  0  0  0  0  0  0  0  0
  -19.6630  -28.4140   23.4470 C   0  0  0  0  0  3  0  0  0  0  0  0
  -18.2650  -28.5710   23.5120 C   0  0  0  0  0  3  0  0  0  0  0  0
  -17.4210  -27.5880   22.9650 C   0  0  0  0  0  3  0  0  0  0  0  0
  -17.9780  -26.4570   22.3440 C   0  0  0  0  0  3  0  0  0  0  0  0
  -25.8440  -32.4070   24.1080 C   0  0  0  0  0  3  0  0  0  0  0  0
  -25.2770  -33.7510   24.2800 N   0  0  0  0  0  0  0  0  0  0  0  0
  -25.5690  -34.8030   23.5030 C   0  0  0  0  0  0  0  0  0  0  0  0
  -26.4110  -34.7570   22.6010 O   0  0  0  0  0  0  0  0  0  0  0  0
  -24.5410  -33.8480   24.9640 H   0  0  0  0  0  0  0  0  0  0  0  0
  -23.6840  -36.2790   22.7300 C   0  0  0  0  0  1  0  0  0  0  0  0
  -24.8060  -36.1160   23.7670 C   0  0  0  0  0  3  0  0  0  0  0  0
  -26.6250  -37.3450   24.8650 C   0  0  0  0  0  1  0  0  0  0  0  0
  -25.6710  -37.3150   23.7590 N   0  0  0  0  0  0  0  0  0  0  0  0
  -25.1130  -38.1630   23.7990 H   0  0  0  0  0  0  0  0  0  0  0  0
  -26.2700  -31.8000   25.5010 C   0  0  1  0  0  0  0  0  0  0  0  0
  -25.0780  -31.3770   26.3890 C   0  0  0  0  0  1  0  0  0  0  0  0
  -27.1720  -30.5590   25.3040 C   0  0  0  0  0  1  0  0  0  0  0  0
  -27.1170  -32.8300   26.2870 C   0  0  0  0  0  1  0  0  0  0  0  0
  2  5  1  0
  3  1  1  0
  4  2  1  0
  4  6  1  0
  5  8  1  0
  5  1  1  0
  6  7  1  1
  6  3  1  0
  8  9  1  0
  9 11  1  0
 10  8  2  0
 13 12  1  0
 14 12  1  0
 14  9  1  0
 15 24  1  0
 15 13  1  0
 15 14  1  0
 16 24  1  0
 17 22  1  0
 18 19  1  0
 18 17  1  0
 20 19  1  0
 20 29  1  0
 20 21  1  0
 22 16  1  0
 22 21  1  0
 23 16  2  0
 24 25  1  0
 26 27  2  0
 27 46  1  0
 28 27  1  0
 28 31  1  0
 29 30  1  0
 29 26  1  0
 30 28  2  0
 31 32  1  0
 32 33  2  0
 34 37  1  0
 34 33  1  0
 35 34  2  0
 36 35  1  0
 36 31  2  0
 37 38  1  0
 38 39  1  0
 39 40  2  0
 41 40  1  0
 41 45  1  0
 42 41  2  0
 43 38  2  0
 43 42  1  0
 44 43  1  0
 46 47  1  0
 47 49  1  0
 47 50  1  0
 48 46  2  0
 51 26  1  0
 51 52  1  0
 53 51  1  0
 54 55  1  0
 54  6  1  0
 55 58  1  0
 56 55  1  0
 57 56  1  0
 58 59  1  0
 60 71  2  0
 61 59  1  0
 61 66  1  0
 62 70  1  0
 62 72  1  0
 63 65  1  0
 64 70  1  0
 65 66  2  0
 65 64  1  0
 67 61  2  0
 68 67  1  0
 68 63  2  0
 69 63  1  0
 69 62  1  0
 70 60  1  0
 72 74  2  0
 73 72  1  0
 75 73  1  0
 76 85  2  0
 76 81  1  0
 77 73  1  0
 77 81  1  0
 78 77  1  0
 79 80  1  0
 79 78  1  0
 80 76  1  0
 81 82  2  0
 82 83  1  0
 84 83  2  0
 85 84  1  0
 86 60  1  0
 86 87  1  0
 86 96  1  0
 87 90  1  0
 88 92  1  0
 88 87  1  0
 89 88  2  0
 92 91  1  0
 94 92  1  0
 94 95  1  0
 94 93  1  0
 96 99  1  1
 96 97  1  0
 98 96  1  0
M  ISO  4  16 100  24 100  58 101  59 101
M  END
>  <TORSDO>  (96) 
F 22

>  <SCORE>  (96) 
-4.243

>  <name>  (96) 
95

>  <ligand_id>  (96) 
95

>  <original_smiles>  (96) 
[H]OC([H])(C([H])([H])Oc1c([H])c([H])c2c(c1[H])C([H])([H])N(C(=O)C([H])(N([H])C(=O)C([H])(N([H])C([H])([H])[H])C([H])([H])[H])C(C([H])([H])[H])(C([H])([H])[H])C([H])([H])[H])C([H])(C(=O)N([H])C1([H])c3c([H])c([H])c([H])c([H])c3C([H])([H])C([H])([H])C1([H])[H])C2([H])[H])C([H])([H])[N+]1([H])C([H])([H])C([H])([H])C([H])(C(=O)N([H])C2([H])C([H])([H])C([H])([H])C2([H])N([H])C(=O)N2C([H])([H])C([H])([H])C([H])([H])C([H])(n3nc(-c4c([H])c([H])c(Oc5c([H])c([H])c(F)c([H])c5F)c([H])c4[H])c(C(=O)N([H])[H])c3N([H])[H])C2([H])[H])C([H])([H])C1([H])[H]

>  <smiles>  (96) 
[H]OC([H])(C([H])([H])Oc1c([H])c([H])c2c(c1[H])C([H])([H])N(C(=O)C([H])(N([H])C(=O)C([H])(N([H])C([H])([H])[H])C([H])([H])[H])C(C([H])([H])[H])(C([H])([H])[H])C([H])([H])[H])C([H])(C(=O)N([H])C1([H])c3c([H])c([H])c([H])c([H])c3C([H])([H])C([H])([H])C1([H])[H])C2([H])[H])C([H])([H])[N+]1([H])C([H])([H])C([H])([H])C([H])(C(=O)N([H])C2([H])C([H])([H])C([H])([H])C2([H])N([H])C(=O)N2C([H])([H])C([H])([H])C([H])([H])C([H])(n3nc(-c4c([H])c([H])c(Oc5c([H])c([H])c(F)c([H])c5F)c([H])c4[H])c(C(=O)N([H])[H])c3N([H])[H])C2([H])[H])C([H])([H])C1([H])[H]

$$$$
96:0:0
     RDKit          3D

 98107  0  0  1  0  0  0  0  0999 V2000
  -28.4830  -21.0260   19.4820 C   0  0  0  0  0  2  0  0  0  0  0  0
  -26.6490  -19.4630   18.6450 C   0  0  0  0  0  2  0  0  0  0  0  0
  -26.0500  -21.7380   19.4030 C   0  0  0  0  0  2  0  0  0  0  0  0
  -28.1380  -19.8670   18.5210 C   0  0  0  0  0  3  0  0  0  0  0  0
  -27.5130  -22.2100   19.2670 C   0  0  0  0  0  3  0  0  0  0  0  0
  -24.3170  -20.2470   18.4900 C   0  0  0  0  0  1  0  0  0  0  0  0
  -25.7460  -20.6310   18.4590 N   0  0  2  0  0  4  0  0  0  0  0  0
  -25.9140  -20.9860   17.5280 H   0  0  0  0  0  0  0  0  0  0  0  0
  -30.8590  -17.3590   17.5550 C   0  0  0  0  0  3  0  0  0  0  0  0
  -29.9110  -18.3930   17.5070 C   0  0  0  0  0  3  0  0  0  0  0  0
  -31.0430  -16.6280   18.7380 C   0  0  0  0  0  3  0  0  0  0  0  0
  -29.3200  -17.9610   19.8350 C   0  0  0  0  0  3  0  0  0  0  0  0
  -29.1370  -18.7120   18.6440 C   0  0  0  0  0  0  0  0  0  0  0  0
  -30.2670  -16.9070   19.8920 C   0  0  0  0  0  0  0  0  0  0  0  0
  -31.1680  -15.0460   21.2260 C   0  0  0  0  0  0  0  0  0  0  0  0
  -31.0730  -12.6640   20.6660 C   0  0  0  0  0  2  0  0  0  0  0  0
  -30.4200  -12.5600   19.2710 C   0  0  0  0  0  2  0  0  0  0  0  0
  -28.8850  -12.4980   19.3960 C   0  0  0  0  0  2  0  0  0  0  0  0
  -28.3100  -13.6160   20.3080 C   0  0  0  0  0  3  0  0  0  0  0  0
  -29.0930  -13.6890   21.6410 C   0  0  0  0  0  2  0  0  0  0  0  0
  -30.5200  -13.8580   21.3210 N   0  0  0  0  0  0  0  0  0  0  0  0
  -32.3880  -15.1430   21.0590 O   0  0  0  0  0  0  0  0  0  0  0  0
  -30.3560  -16.1100   21.0770 N   0  0  0  0  0  0  0  0  0  0  0  0
  -29.4900  -16.0340   21.5890 H   0  0  0  0  0  0  0  0  0  0  0  0
  -25.8700  -14.3940   20.5720 C   0  0  0  0  0  0  0  0  0  0  0  0
  -24.7040  -13.6980   20.7490 C   0  0  0  0  0  0  0  0  0  0  0  0
  -25.0730  -12.3190   20.8050 C   0  0  0  0  0  0  0  0  0  0  0  0
  -26.8780  -13.4420   20.5360 N   0  0  0  0  0  0  0  0  0  0  0  0
  -26.3910  -12.1910   20.7320 N   0  0  0  0  0  0  0  0  0  0  0  0
  -24.2430  -11.1090   20.8660 C   0  0  0  0  0  0  0  0  0  0  0  0
  -24.5370  -10.0570   21.7610 C   0  0  0  0  0  3  0  0  0  0  0  0
  -23.7150   -8.9110   21.8150 C   0  0  0  0  0  3  0  0  0  0  0  0
  -22.5840   -8.8090   20.9710 C   0  0  0  0  0  0  0  0  0  0  0  0
  -22.3080   -9.8500   20.0660 C   0  0  0  0  0  3  0  0  0  0  0  0
  -23.1300  -10.9870   20.0100 C   0  0  0  0  0  3  0  0  0  0  0  0
  -21.7440   -7.7230   20.9340 O   0  0  0  0  0  0  0  0  0  0  0  0
  -21.6510   -6.8500   21.9880 C   0  0  0  0  0  0  0  0  0  0  0  0
  -21.3190   -7.2870   23.2890 C   0  0  0  0  0  3  0  0  0  0  0  0
  -21.1640   -6.3490   24.3300 C   0  0  0  0  0  3  0  0  0  0  0  0
  -21.3340   -4.9750   24.0700 C   0  0  0  0  0  0  0  0  0  0  0  0
  -21.6610   -4.5380   22.7750 C   0  0  0  0  0  3  0  0  0  0  0  0
  -21.8160   -5.4740   21.7370 C   0  0  0  0  0  0  0  0  0  0  0  0
  -22.1100   -5.0460   20.4860 F   0  0  0  0  0  0  0  0  0  0  0  0
  -21.1800   -4.0720   25.0670 F   0  0  0  0  0  0  0  0  0  0  0  0
  -23.3150  -14.2670   20.7670 C   0  0  0  0  0  0  0  0  0  0  0  0
  -22.4110  -13.6520   21.5200 N   0  0  0  0  0  0  0  0  0  0  0  0
  -23.0350  -15.2950   20.1510 O   0  0  0  0  0  0  0  0  0  0  0  0
  -22.6440  -12.8190   22.0400 H   0  0  0  0  0  0  0  0  0  0  0  0
  -21.4710  -14.0190   21.5770 H   0  0  0  0  0  0  0  0  0  0  0  0
  -26.1550  -15.7470   20.4210 N   0  0  0  0  0  0  0  0  0  0  0  0
  -25.4180  -16.4390   20.3460 H   0  0  0  0  0  0  0  0  0  0  0  0
  -27.0730  -16.1130   20.2000 H   0  0  0  0  0  0  0  0  0  0  0  0
  -28.5210  -24.3950   19.9500 C   0  0  0  0  0  0  0  0  0  0  0  0
  -27.7670  -23.3160   20.1980 N   0  0  0  0  0  0  0  0  0  0  0  0
  -29.2230  -24.4950   18.9400 O   0  0  0  0  0  0  0  0  0  0  0  0
  -27.2440  -23.3240   21.0650 H   0  0  0  0  0  0  0  0  0  0  0  0
  -28.4470  -25.5430   20.9680 C   0  0  0  0  0  2  0  0  0  0  0  0
  -28.4700  -26.8230   20.3250 O   0  0  0  0  0  0  0  0  0  0  0  0
  -24.7150  -31.9870   23.4660 C   0  0  0  0  0  0  0  0  0  0  0  0
  -27.2930  -27.5300   20.3740 C   0  0  0  0  0  0  0  0  0  0  0  0
  -23.4790  -30.5920   21.8380 C   0  0  0  0  0  3  0  0  0  0  0  0
  -24.9050  -29.0300   20.4130 C   0  0  0  0  0  0  0  0  0  0  0  0
  -26.0010  -30.9300   21.6110 C   0  0  0  0  0  2  0  0  0  0  0  0
  -26.0720  -29.5560   20.9840 C   0  0  0  0  0  0  0  0  0  0  0  0
  -27.2710  -28.8130   20.9620 C   0  0  0  0  0  3  0  0  0  0  0  0
  -26.1140  -27.0100   19.8010 C   0  0  0  0  0  3  0  0  0  0  0  0
  -24.9180  -27.7540   19.8230 C   0  0  0  0  0  3  0  0  0  0  0  0
  -23.6670  -29.8980   20.4620 C   0  0  0  0  0  2  0  0  0  0  0  0
  -24.7510  -31.1850   22.3640 N   0  0  0  0  0  0  0  0  0  0  0  0
  -23.6430  -32.2720   24.0160 O   0  0  0  0  0  0  0  0  0  0  0  0
  -22.8280  -29.5820   22.8100 C   0  0  0  0  0  0  0  0  0  0  0  0
  -21.5240  -29.3290   22.6200 N   0  0  0  0  0  0  0  0  0  0  0  0
  -23.4950  -29.0260   23.6860 O   0  0  0  0  0  0  0  0  0  0  0  0
  -21.0490  -29.8230   21.8780 H   0  0  0  0  0  0  0  0  0  0  0  0
  -18.2110  -27.9270   22.9310 C   0  0  0  0  0  0  0  0  0  0  0  0
  -20.7110  -28.3870   23.3890 C   0  0  0  0  0  3  0  0  0  0  0  0
  -20.9590  -26.9330   22.9250 C   0  0  0  0  0  2  0  0  0  0  0  0
  -19.9720  -26.4630   21.8540 C   0  0  0  0  0  2  0  0  0  0  0  0
  -18.5330  -26.5530   22.3700 C   0  0  0  0  0  2  0  0  0  0  0  0
  -19.2350  -28.7950   23.3950 C   0  0  0  0  0  0  0  0  0  0  0  0
  -18.8820  -30.0750   23.8750 C   0  0  0  0  0  3  0  0  0  0  0  0
  -17.5390  -30.4880   23.9030 C   0  0  0  0  0  3  0  0  0  0  0  0
  -16.5280  -29.6190   23.4560 C   0  0  0  0  0  3  0  0  0  0  0  0
  -16.8640  -28.3410   22.9750 C   0  0  0  0  0  3  0  0  0  0  0  0
  -26.0140  -32.6040   24.0730 C   0  0  0  0  0  3  0  0  0  0  0  0
  -26.4820  -31.8910   25.4020 C   0  0  1  0  0  0  0  0  0  0  0  0
  -25.3560  -31.7190   26.4470 C   0  0  0  0  0  1  0  0  0  0  0  0
  -27.0550  -30.4890   25.0920 C   0  0  0  0  0  1  0  0  0  0  0  0
  -27.6240  -32.7030   26.0570 C   0  0  0  0  0  1  0  0  0  0  0  0
  -25.7560  -34.0300   24.3090 N   0  0  0  0  0  0  0  0  0  0  0  0
  -26.1600  -35.0180   23.5010 C   0  0  0  0  0  0  0  0  0  0  0  0
  -26.8600  -34.8250   22.5030 O   0  0  0  0  0  0  0  0  0  0  0  0
  -25.1380  -34.2570   25.0760 H   0  0  0  0  0  0  0  0  0  0  0  0
  -24.5190  -36.8510   22.9810 C   0  0  0  0  0  1  0  0  0  0  0  0
  -25.7180  -36.4500   23.8550 C   0  0  0  0  0  3  0  0  0  0  0  0
  -27.8660  -37.2950   24.6940 C   0  0  0  0  0  1  0  0  0  0  0  0
  -26.7960  -37.4530   23.7110 N   0  0  0  0  0  0  0  0  0  0  0  0
  -26.4260  -38.3950   23.7950 H   0  0  0  0  0  0  0  0  0  0  0  0
  4 13  1  0
  4  2  1  0
  4  1  1  0
  5  3  1  0
  5  1  1  0
  5 54  1  0
  7  6  1  0
  7  2  1  0
  7  3  1  0
  7  8  1  6
  9 11  1  0
 10  9  2  0
 10 13  1  0
 11 14  2  0
 12 14  1  0
 13 12  2  0
 14 23  1  0
 15 21  1  0
 16 21  1  0
 17 18  1  0
 17 16  1  0
 19 18  1  0
 19 28  1  0
 19 20  1  0
 21 20  1  0
 22 15  2  0
 23 15  1  0
 23 24  1  0
 25 26  2  0
 26 45  1  0
 26 27  1  0
 27 30  1  0
 28 25  1  0
 28 29  1  0
 29 27  2  0
 30 31  1  0
 31 32  2  0
 33 32  1  0
 34 33  2  0
 35 34  1  0
 35 30  2  0
 36 33  1  0
 36 37  1  0
 37 38  1  0
 38 39  2  0
 40 39  1  0
 40 44  1  0
 41 40  2  0
 42 37  2  0
 42 41  1  0
 43 42  1  0
 45 46  1  0
 46 49  1  0
 46 48  1  0
 47 45  2  0
 50 25  1  0
 51 50  1  0
 52 50  1  0
 53 54  1  0
 53 57  1  0
 54 56  1  0
 55 53  2  0
 58 60  1  0
 58 57  1  0
 59 70  2  0
 60 65  1  0
 61 69  1  0
 61 71  1  0
 62 68  1  0
 62 64  1  0
 63 69  1  0
 64 63  1  0
 65 64  2  0
 66 67  1  0
 66 60  2  0
 67 62  2  0
 68 61  1  0
 69 59  1  0
 71 73  2  0
 72 71  1  0
 74 72  1  0
 75 84  2  0
 75 80  1  0
 76 72  1  0
 76 80  1  0
 77 76  1  0
 78 79  1  0
 78 77  1  0
 79 75  1  0
 80 81  2  0
 81 82  1  0
 83 82  2  0
 84 83  1  0
 85 59  1  0
 85 90  1  0
 85 86  1  0
 86 89  1  1
 86 87  1  0
 88 86  1  0
 90 93  1  0
 91 95  1  0
 91 90  1  0
 92 91  2  0
 95 94  1  0
 97 98  1  0
 97 95  1  0
 97 96  1  0
M  ISO  4  15 100  23 100  57 101  58 101
M  END
>  <TORSDO>  (97) 
F 19

>  <SCORE>  (97) 
-11.164

>  <name>  (97) 
96

>  <ligand_id>  (97) 
96

>  <original_smiles>  (97) 
[H]c1c([H])c([H])c2c(c1[H])C([H])([H])C([H])([H])C([H])([H])C2([H])N([H])C(=O)C1([H])N(C(=O)C([H])(N([H])C(=O)C([H])(N([H])C([H])([H])[H])C([H])([H])[H])C(C([H])([H])[H])(C([H])([H])[H])C([H])([H])[H])C([H])([H])c2c([H])c(OC([H])([H])C(=O)N([H])C3([H])C([H])([H])C([H])(c4c([H])c([H])c([H])c(N([H])C(=O)N5C([H])([H])C([H])([H])C([H])([H])C([H])(n6nc(-c7c([H])c([H])c(Oc8c([H])c([H])c(F)c([H])c8F)c([H])c7[H])c(C(=O)N([H])[H])c6N([H])[H])C5([H])[H])c4[H])C([H])([H])[N+]([H])(C([H])([H])[H])C3([H])[H])c([H])c([H])c2C1([H])[H]

>  <smiles>  (97) 
[H]c1c([H])c([H])c2c(c1[H])C([H])([H])C([H])([H])C([H])([H])C2([H])N([H])C(=O)C1([H])N(C(=O)C([H])(N([H])C(=O)C([H])(N([H])C([H])([H])[H])C([H])([H])[H])C(C([H])([H])[H])(C([H])([H])[H])C([H])([H])[H])C([H])([H])c2c([H])c(OC([H])([H])C(=O)N([H])C3([H])C([H])([H])C([H])(c4c([H])c([H])c([H])c(N([H])C(=O)N5C([H])([H])C([H])([H])C([H])([H])C([H])(n6nc(-c7c([H])c([H])c(Oc8c([H])c([H])c(F)c([H])c8F)c([H])c7[H])c(C(=O)N([H])[H])c6N([H])[H])C5([H])[H])c4[H])C([H])([H])[N+]([H])(C([H])([H])[H])C3([H])[H])c([H])c([H])c2C1([H])[H]

$$$$
97:0:0
     RDKit          3D

 98107  0  0  1  0  0  0  0  0999 V2000
  -29.7500  -20.6050   20.4200 C   0  0  0  0  0  0  0  0  0  0  0  0
  -30.4830  -19.5990   19.8440 N   0  0  0  0  0  0  0  0  0  0  0  0
  -28.8210  -20.3570   21.1860 O   0  0  0  0  0  0  0  0  0  0  0  0
  -31.2950  -19.9520   19.3510 H   0  0  0  0  0  0  0  0  0  0  0  0
  -29.1750  -24.4320   21.1560 C   0  0  0  0  0  0  0  0  0  0  0  0
  -31.5110  -22.4700   20.4560 C   0  0  0  0  0  2  0  0  0  0  0  0
  -31.0070  -22.9160   21.8330 C   0  0  0  0  0  2  0  0  0  0  0  0
  -30.0540  -22.1310   20.1040 C   0  0  0  0  0  3  0  0  0  0  0  0
  -29.6970  -23.0900   21.1980 N   0  0  0  0  0  0  0  0  0  0  0  0
  -29.3630  -25.1360   22.1540 O   0  0  0  0  0  0  0  0  0  0  0  0
  -28.4170  -25.1130   19.9600 C   0  0  0  0  0  2  0  0  0  0  0  0
  -28.4030  -26.5920   20.0940 O   0  0  0  0  0  0  0  0  0  0  0  0
  -24.5900  -31.8580   23.1690 C   0  0  0  0  0  0  0  0  0  0  0  0
  -27.2270  -27.3530   20.0690 C   0  0  0  0  0  0  0  0  0  0  0  0
  -23.3810  -30.4650   21.5220 C   0  0  0  0  0  3  0  0  0  0  0  0
  -24.8310  -28.9220   20.0800 C   0  0  0  0  0  0  0  0  0  0  0  0
  -25.9110  -30.8030   21.3220 C   0  0  0  0  0  2  0  0  0  0  0  0
  -25.9960  -29.4300   20.6690 C   0  0  0  0  0  0  0  0  0  0  0  0
  -27.1890  -28.6560   20.6550 C   0  0  0  0  0  3  0  0  0  0  0  0
  -26.0380  -26.8860   19.4580 C   0  0  0  0  0  3  0  0  0  0  0  0
  -24.8540  -27.6540   19.4730 C   0  0  0  0  0  3  0  0  0  0  0  0
  -23.5890  -29.7890   20.1390 C   0  0  0  0  0  2  0  0  0  0  0  0
  -24.6470  -31.0590   22.0620 N   0  0  0  0  0  0  0  0  0  0  0  0
  -23.5130  -32.1300   23.7150 O   0  0  0  0  0  0  0  0  0  0  0  0
  -22.7280  -29.4450   22.4840 C   0  0  0  0  0  0  0  0  0  0  0  0
  -21.4050  -29.2510   22.3530 N   0  0  0  0  0  0  0  0  0  0  0  0
  -23.4100  -28.8290   23.3060 O   0  0  0  0  0  0  0  0  0  0  0  0
  -20.9130  -29.8020   21.6650 H   0  0  0  0  0  0  0  0  0  0  0  0
  -18.0430  -28.0080   22.8380 C   0  0  0  0  0  0  0  0  0  0  0  0
  -20.5970  -28.3000   23.1190 C   0  0  0  0  0  3  0  0  0  0  0  0
  -20.7200  -26.8720   22.5440 C   0  0  0  0  0  2  0  0  0  0  0  0
  -19.6270  -26.5360   21.5240 C   0  0  0  0  0  2  0  0  0  0  0  0
  -18.2390  -26.6610   22.1630 C   0  0  0  0  0  2  0  0  0  0  0  0
  -19.1500  -28.7840   23.2720 C   0  0  0  0  0  0  0  0  0  0  0  0
  -18.9140  -30.0410   23.8670 C   0  0  0  0  0  3  0  0  0  0  0  0
  -17.6030  -30.5280   24.0270 C   0  0  0  0  0  3  0  0  0  0  0  0
  -16.5100  -29.7520   23.6080 C   0  0  0  0  0  3  0  0  0  0  0  0
  -16.7310  -28.4920   23.0220 C   0  0  0  0  0  3  0  0  0  0  0  0
  -25.8790  -32.4880   23.7880 C   0  0  0  0  0  3  0  0  0  0  0  0
  -26.4000  -31.7170   25.0620 C   0  0  1  0  0  0  0  0  0  0  0  0
  -25.3090  -31.4780   26.1330 C   0  0  0  0  0  1  0  0  0  0  0  0
  -26.9840  -30.3400   24.6680 C   0  0  0  0  0  1  0  0  0  0  0  0
  -27.5510  -32.5120   25.7220 C   0  0  0  0  0  1  0  0  0  0  0  0
  -25.5750  -33.8870   24.1190 N   0  0  0  0  0  0  0  0  0  0  0  0
  -25.9120  -34.9390   23.3610 C   0  0  0  0  0  0  0  0  0  0  0  0
  -26.5790  -34.8350   22.3290 O   0  0  0  0  0  0  0  0  0  0  0  0
  -24.9770  -34.0440   24.9180 H   0  0  0  0  0  0  0  0  0  0  0  0
  -24.1880  -36.7390   23.0110 C   0  0  0  0  0  1  0  0  0  0  0  0
  -25.4290  -36.3300   23.8220 C   0  0  0  0  0  3  0  0  0  0  0  0
  -27.5630  -37.2110   24.6560 C   0  0  0  0  0  1  0  0  0  0  0  0
  -26.4640  -37.3800   23.7080 N   0  0  0  0  0  0  0  0  0  0  0  0
  -26.0610  -38.3020   23.8500 H   0  0  0  0  0  0  0  0  0  0  0  0
  -29.1090  -17.9200   18.5710 C   0  0  0  0  0  2  0  0  0  0  0  0
  -30.2570  -18.1210   19.5750 C   0  0  0  0  0  3  0  0  0  0  0  0
  -29.4770  -17.1840   20.5950 C   0  0  0  0  0  3  0  0  0  0  0  0
  -28.2110  -17.3980   19.7160 C   0  0  0  0  0  3  0  0  0  0  0  0
  -30.5000  -14.7200   20.0890 C   0  0  0  0  0  0  0  0  0  0  0  0
  -30.3270  -12.4520   19.0730 C   0  0  0  0  0  2  0  0  0  0  0  0
  -29.3040  -12.4790   17.9120 C   0  0  0  0  0  2  0  0  0  0  0  0
  -27.8550  -12.3160   18.4170 C   0  0  0  0  0  2  0  0  0  0  0  0
  -27.5360  -13.2120   19.6420 C   0  0  0  0  0  3  0  0  0  0  0  0
  -28.6550  -13.0950   20.7050 C   0  0  0  0  0  2  0  0  0  0  0  0
  -29.9300  -13.4720   20.0600 N   0  0  0  0  0  0  0  0  0  0  0  0
  -31.6060  -14.9560   19.5960 O   0  0  0  0  0  0  0  0  0  0  0  0
  -29.6520  -15.6850   20.5360 N   0  0  0  0  0  0  0  0  0  0  0  0
  -28.8390  -15.2200   20.9050 H   0  0  0  0  0  0  0  0  0  0  0  0
  -25.1790  -13.8060   20.4980 C   0  0  0  0  0  0  0  0  0  0  0  0
  -24.1340  -13.0310   20.9200 C   0  0  0  0  0  0  0  0  0  0  0  0
  -24.5850  -11.6800   20.8240 C   0  0  0  0  0  0  0  0  0  0  0  0
  -26.2110  -12.9280   20.1920 N   0  0  0  0  0  0  0  0  0  0  0  0
  -25.8570  -11.6420   20.4410 N   0  0  0  0  0  0  0  0  0  0  0  0
  -23.8590  -10.4180   21.0190 C   0  0  0  0  0  0  0  0  0  0  0  0
  -24.3180   -9.4390   21.9250 C   0  0  0  0  0  3  0  0  0  0  0  0
  -23.5960   -8.2400   22.1100 C   0  0  0  0  0  3  0  0  0  0  0  0
  -22.4010   -8.0140   21.3870 C   0  0  0  0  0  0  0  0  0  0  0  0
  -21.9590   -8.9830   20.4690 C   0  0  0  0  0  3  0  0  0  0  0  0
  -22.6820  -10.1730   20.2840 C   0  0  0  0  0  3  0  0  0  0  0  0
  -21.6460   -6.8700   21.4810 O   0  0  0  0  0  0  0  0  0  0  0  0
  -21.6090   -6.1270   22.6330 C   0  0  0  0  0  0  0  0  0  0  0  0
  -21.1650   -6.6700   23.8580 C   0  0  0  0  0  3  0  0  0  0  0  0
  -21.0840   -5.8540   25.0040 C   0  0  0  0  0  3  0  0  0  0  0  0
  -21.4300   -4.4920   24.9250 C   0  0  0  0  0  0  0  0  0  0  0  0
  -21.8670   -3.9460   23.7050 C   0  0  0  0  0  3  0  0  0  0  0  0
  -21.9540   -4.7610   22.5620 C   0  0  0  0  0  0  0  0  0  0  0  0
  -22.3560   -4.2260   21.3840 F   0  0  0  0  0  0  0  0  0  0  0  0
  -21.3430   -3.7050   26.0220 F   0  0  0  0  0  0  0  0  0  0  0  0
  -22.7590  -13.5090   21.2820 C   0  0  0  0  0  0  0  0  0  0  0  0
  -22.0870  -12.8070   22.1850 N   0  0  0  0  0  0  0  0  0  0  0  0
  -22.2930  -14.5410   20.7980 O   0  0  0  0  0  0  0  0  0  0  0  0
  -22.4950  -11.9820   22.6050 H   0  0  0  0  0  0  0  0  0  0  0  0
  -21.1590  -13.0920   22.4640 H   0  0  0  0  0  0  0  0  0  0  0  0
  -25.3150  -15.1760   20.3180 N   0  0  0  0  0  0  0  0  0  0  0  0
  -24.4540  -15.7110   20.3110 H   0  0  0  0  0  0  0  0  0  0  0  0
  -25.9620  -15.4930   19.6110 H   0  0  0  0  0  0  0  0  0  0  0  0
  -27.2020  -18.3540   20.2180 N   0  0  0  0  0  4  0  0  0  0  0  0
  -27.6500  -19.2310   20.4830 H   0  0  0  0  0  0  0  0  0  0  0  0
  -26.7250  -17.9960   21.0270 H   0  0  0  0  0  0  0  0  0  0  0  0
  -26.5000  -18.5540   19.5270 H   0  0  0  0  0  0  0  0  0  0  0  0
  1  3  2  0
  2  1  1  0
  4  2  1  0
  5  9  1  0
  5 10  2  0
  6  7  1  0
  8  1  1  0
  8  6  1  0
  8  9  1  0
  9  7  1  0
 11 12  1  0
 11  5  1  0
 13 24  2  0
 14 12  1  0
 14 19  1  0
 15 23  1  0
 15 25  1  0
 16 22  1  0
 16 18  1  0
 17 23  1  0
 18 17  1  0
 19 18  2  0
 20 21  1  0
 20 14  2  0
 21 16  2  0
 22 15  1  0
 23 13  1  0
 25 27  2  0
 26 25  1  0
 28 26  1  0
 29 38  2  0
 29 34  1  0
 30 26  1  0
 30 34  1  0
 31 30  1  0
 32 33  1  0
 32 31  1  0
 33 29  1  0
 34 35  2  0
 35 36  1  0
 37 36  2  0
 38 37  1  0
 39 13  1  0
 39 44  1  0
 39 40  1  0
 40 43  1  1
 40 41  1  0
 42 40  1  0
 44 47  1  0
 45 49  1  0
 45 44  1  0
 46 45  2  0
 49 48  1  0
 51 49  1  0
 51 52  1  0
 51 50  1  0
 53 54  1  0
 53 56  1  0
 54  2  1  0
 54 55  1  0
 55 65  1  0
 56 95  1  0
 56 55  1  0
 57 65  1  0
 58 63  1  0
 59 60  1  0
 59 58  1  0
 61 60  1  0
 61 70  1  0
 61 62  1  0
 63 57  1  0
 63 62  1  0
 64 57  2  0
 65 66  1  0
 67 68  2  0
 68 87  1  0
 69 68  1  0
 69 72  1  0
 70 71  1  0
 70 67  1  0
 71 69  2  0
 72 73  1  0
 73 74  2  0
 75 78  1  0
 75 74  1  0
 76 75  2  0
 77 76  1  0
 77 72  2  0
 78 79  1  0
 79 80  1  0
 80 81  2  0
 82 81  1  0
 82 86  1  0
 83 82  2  0
 84 79  2  0
 84 83  1  0
 85 84  1  0
 87 88  1  0
 88 91  1  0
 88 90  1  0
 89 87  2  0
 92 67  1  0
 93 92  1  0
 94 92  1  0
 95 96  1  0
 95 97  1  0
 98 95  1  0
M  ISO  4  11 101  12 101  57 100  65 100
M  END
>  <TORSDO>  (98) 
F 20

>  <SCORE>  (98) 
-14.398

>  <name>  (98) 
97

>  <ligand_id>  (98) 
97

>  <original_smiles>  (98) 
[H]c1c([H])c([H])c2c(c1[H])C([H])([H])C([H])([H])C([H])([H])C2([H])N([H])C(=O)C1([H])N(C(=O)C([H])(N([H])C(=O)C([H])(N([H])C([H])([H])[H])C([H])([H])[H])C(C([H])([H])[H])(C([H])([H])[H])C([H])([H])[H])C([H])([H])c2c([H])c(OC([H])([H])C(=O)N3C([H])([H])C([H])([H])C3([H])C(=O)N([H])C3([H])C([H])([H])C([H])([N+]([H])([H])[H])C3([H])N([H])C(=O)N3C([H])([H])C([H])([H])C([H])([H])C([H])(n4nc(-c5c([H])c([H])c(Oc6c([H])c([H])c(F)c([H])c6F)c([H])c5[H])c(C(=O)N([H])[H])c4N([H])[H])C3([H])[H])c([H])c([H])c2C1([H])[H]

>  <smiles>  (98) 
[H]c1c([H])c([H])c2c(c1[H])C([H])([H])C([H])([H])C([H])([H])C2([H])N([H])C(=O)C1([H])N(C(=O)C([H])(N([H])C(=O)C([H])(N([H])C([H])([H])[H])C([H])([H])[H])C(C([H])([H])[H])(C([H])([H])[H])C([H])([H])[H])C([H])([H])c2c([H])c(OC([H])([H])C(=O)N3C([H])([H])C([H])([H])C3([H])C(=O)N([H])C3([H])C([H])([H])C([H])([N+]([H])([H])[H])C3([H])N([H])C(=O)N3C([H])([H])C([H])([H])C([H])([H])C([H])(n4nc(-c5c([H])c([H])c(Oc6c([H])c([H])c(F)c([H])c6F)c([H])c5[H])c(C(=O)N([H])[H])c4N([H])[H])C3([H])[H])c([H])c([H])c2C1([H])[H]

$$$$
