0:0:0
     RDKit          3D

102111  0  0  1  0  0  0  0  0999 V2000
  -29.2150  -21.7190   20.4120 C   0  0  0  0  0  0  0  0  0  0  0  0
  -29.4580  -20.6800   21.2320 N   0  0  0  0  0  0  0  0  0  0  0  0
  -29.8370  -21.8900   19.3590 O   0  0  0  0  0  0  0  0  0  0  0  0
  -28.8470  -20.5550   22.0290 H   0  0  0  0  0  0  0  0  0  0  0  0
  -26.7590  -24.0430   20.0220 C   0  0  0  0  0  2  0  0  0  0  0  0
  -28.0970  -22.6950   20.8200 C   0  0  0  0  0  3  0  0  0  0  0  0
  -28.2600  -24.1390   20.3050 C   0  0  0  0  0  3  0  0  0  0  0  0
  -25.7860  -21.7980   20.4430 C   0  0  0  0  0  1  0  0  0  0  0  0
  -26.9290  -22.5910   19.9460 N   0  0  1  0  0  4  0  0  0  0  0  0
  -27.2160  -22.3050   19.0210 H   0  0  0  0  0  0  0  0  0  0  0  0
  -28.8020  -25.2460   21.2170 C   0  0  0  0  0  3  0  0  0  0  0  0
  -29.4070  -24.7030   22.2750 F   0  0  0  0  0  0  0  0  0  0  0  0
  -29.7970  -26.1980   20.5090 C   0  0  0  0  0  2  0  0  0  0  0  0
  -29.6190  -27.5550   20.9150 O   0  0  0  0  0  0  0  0  0  0  0  0
  -24.8900  -32.0090   23.7480 C   0  0  0  0  0  0  0  0  0  0  0  0
  -28.3730  -28.1250   20.7680 C   0  0  0  0  0  0  0  0  0  0  0  0
  -24.0670  -30.6390   21.8630 C   0  0  0  0  0  3  0  0  0  0  0  0
  -25.8470  -29.3760   20.5510 C   0  0  0  0  0  0  0  0  0  0  0  0
  -26.5430  -31.2540   22.0470 C   0  0  0  0  0  2  0  0  0  0  0  0
  -26.8520  -29.9590   21.3290 C   0  0  0  0  0  0  0  0  0  0  0  0
  -28.1170  -29.3420   21.4340 C   0  0  0  0  0  3  0  0  0  0  0  0
  -27.3410  -27.5470   19.9870 C   0  0  0  0  0  3  0  0  0  0  0  0
  -26.0850  -28.1690   19.8760 C   0  0  0  0  0  3  0  0  0  0  0  0
  -24.5210  -30.0990   20.4820 C   0  0  0  0  0  2  0  0  0  0  0  0
  -25.1750  -31.3110   22.6130 N   0  0  0  0  0  0  0  0  0  0  0  0
  -23.7250  -32.1320   24.1480 O   0  0  0  0  0  0  0  0  0  0  0  0
  -23.4090  -29.4820   22.6470 C   0  0  0  0  0  0  0  0  0  0  0  0
  -22.1270  -29.2140   22.3540 N   0  0  0  0  0  0  0  0  0  0  0  0
  -24.0540  -28.8310   23.4750 O   0  0  0  0  0  0  0  0  0  0  0  0
  -21.6660  -29.7960   21.6690 H   0  0  0  0  0  0  0  0  0  0  0  0
  -18.8030  -27.8090   22.4400 C   0  0  0  0  0  0  0  0  0  0  0  0
  -21.3160  -28.1480   22.9390 C   0  0  0  0  0  3  0  0  0  0  0  0
  -21.5400  -26.8080   22.2000 C   0  0  0  0  0  2  0  0  0  0  0  0
  -20.5310  -26.5670   21.0730 C   0  0  0  0  0  2  0  0  0  0  0  0
  -19.1010  -26.5640   21.6220 C   0  0  0  0  0  2  0  0  0  0  0  0
  -19.8430  -28.5620   23.0450 C   0  0  0  0  0  0  0  0  0  0  0  0
  -19.5130  -29.7320   23.7620 C   0  0  0  0  0  3  0  0  0  0  0  0
  -18.1750  -30.1510   23.8820 C   0  0  0  0  0  3  0  0  0  0  0  0
  -17.1470  -29.3930   23.2950 C   0  0  0  0  0  3  0  0  0  0  0  0
  -17.4610  -28.2230   22.5800 C   0  0  0  0  0  3  0  0  0  0  0  0
  -26.0090  -32.7060   24.5830 C   0  0  0  0  0  3  0  0  0  0  0  0
  -25.6060  -34.1030   24.7870 N   0  0  0  0  0  0  0  0  0  0  0  0
  -26.0320  -35.1330   24.0440 C   0  0  0  0  0  0  0  0  0  0  0  0
  -26.8720  -35.0100   23.1490 O   0  0  0  0  0  0  0  0  0  0  0  0
  -24.8770  -34.2700   25.4660 H   0  0  0  0  0  0  0  0  0  0  0  0
  -24.3190  -36.8230   23.3170 C   0  0  0  0  0  1  0  0  0  0  0  0
  -25.4260  -36.5200   24.3380 C   0  0  0  0  0  3  0  0  0  0  0  0
  -27.3730  -37.5290   25.4410 C   0  0  0  0  0  1  0  0  0  0  0  0
  -26.4260  -37.6100   24.3320 N   0  0  0  0  0  0  0  0  0  0  0  0
  -25.9690  -38.5170   24.3710 H   0  0  0  0  0  0  0  0  0  0  0  0
  -26.2880  -31.9960   25.9660 C   0  0  1  0  0  0  0  0  0  0  0  0
  -25.0080  -31.7090   26.7840 C   0  0  0  0  0  1  0  0  0  0  0  0
  -27.0220  -30.6520   25.7520 C   0  0  0  0  0  1  0  0  0  0  0  0
  -27.2220  -32.8770   26.8280 C   0  0  0  0  0  1  0  0  0  0  0  0
  -31.7850  -20.0970   20.6760 C   0  0  0  0  0  3  0  0  0  0  0  0
  -32.5170  -17.7830   20.7990 C   0  0  0  0  0  3  0  0  0  0  0  0
  -30.2040  -18.3470   21.3180 C   0  0  0  0  0  3  0  0  0  0  0  0
  -32.8090  -19.1400   20.5520 C   0  0  0  0  0  0  0  0  0  0  0  0
  -30.4830  -19.7100   21.0650 C   0  0  0  0  0  0  0  0  0  0  0  0
  -31.2030  -17.3620   21.1390 C   0  0  0  0  0  0  0  0  0  0  0  0
  -31.3790  -14.9380   20.6330 C   0  0  0  0  0  0  0  0  0  0  0  0
  -31.0400  -12.6990   19.6720 C   0  0  0  0  0  2  0  0  0  0  0  0
  -30.1940  -12.8030   18.3890 C   0  0  0  0  0  2  0  0  0  0  0  0
  -28.6960  -12.7280   18.7310 C   0  0  0  0  0  2  0  0  0  0  0  0
  -28.2920  -13.6980   19.8750 C   0  0  0  0  0  3  0  0  0  0  0  0
  -29.2700  -13.6040   21.0720 C   0  0  0  0  0  2  0  0  0  0  0  0
  -30.6420  -13.7970   20.5720 N   0  0  0  0  0  0  0  0  0  0  0  0
  -32.4770  -15.0260   20.0790 O   0  0  0  0  0  0  0  0  0  0  0  0
  -30.8360  -15.9830   21.2870 N   0  0  0  0  0  0  0  0  0  0  0  0
  -29.9420  -15.7950   21.7140 H   0  0  0  0  0  0  0  0  0  0  0  0
  -25.8950  -14.4060   20.4930 C   0  0  0  0  0  0  0  0  0  0  0  0
  -24.7760  -13.6790   20.8020 C   0  0  0  0  0  0  0  0  0  0  0  0
  -25.1730  -12.3070   20.7650 C   0  0  0  0  0  0  0  0  0  0  0  0
  -26.9060  -13.4790   20.2880 N   0  0  0  0  0  0  0  0  0  0  0  0
  -26.4710  -12.2110   20.5080 N   0  0  0  0  0  0  0  0  0  0  0  0
  -24.3780  -11.0790   20.9000 C   0  0  0  0  0  0  0  0  0  0  0  0
  -24.7100  -10.0840   21.8450 C   0  0  0  0  0  3  0  0  0  0  0  0
  -23.9210   -8.9200   21.9670 C   0  0  0  0  0  3  0  0  0  0  0  0
  -22.7830   -8.7430   21.1450 C   0  0  0  0  0  0  0  0  0  0  0  0
  -22.4710   -9.7260   20.1870 C   0  0  0  0  0  3  0  0  0  0  0  0
  -23.2620  -10.8820   20.0630 C   0  0  0  0  0  3  0  0  0  0  0  0
  -21.9720   -7.6360   21.1780 O   0  0  0  0  0  0  0  0  0  0  0  0
  -21.8190   -6.8880   22.3180 C   0  0  0  0  0  0  0  0  0  0  0  0
  -21.3300   -7.4500   23.5180 C   0  0  0  0  0  3  0  0  0  0  0  0
  -21.1250   -6.6300   24.6460 C   0  0  0  0  0  3  0  0  0  0  0  0
  -21.3960   -5.2510   24.5740 C   0  0  0  0  0  0  0  0  0  0  0  0
  -21.8770   -4.6900   23.3790 C   0  0  0  0  0  3  0  0  0  0  0  0
  -22.0840   -5.5060   22.2530 C   0  0  0  0  0  0  0  0  0  0  0  0
  -22.5280   -4.9570   21.0970 F   0  0  0  0  0  0  0  0  0  0  0  0
  -21.1910   -4.4610   25.6550 F   0  0  0  0  0  0  0  0  0  0  0  0
  -23.3920  -14.2190   21.0270 C   0  0  0  0  0  0  0  0  0  0  0  0
  -22.5950  -13.5500   21.8510 N   0  0  0  0  0  0  0  0  0  0  0  0
  -23.0240  -15.2720   20.5060 O   0  0  0  0  0  0  0  0  0  0  0  0
  -22.8970  -12.6980   22.3000 H   0  0  0  0  0  0  0  0  0  0  0  0
  -21.6630  -13.8940   22.0380 H   0  0  0  0  0  0  0  0  0  0  0  0
  -26.1310  -15.7700   20.3490 N   0  0  0  0  0  0  0  0  0  0  0  0
  -25.3870  -16.4540   20.4380 H   0  0  0  0  0  0  0  0  0  0  0  0
  -27.0120  -16.1750   20.0610 H   0  0  0  0  0  0  0  0  0  0  0  0
  -34.2030  -19.5780   20.1140 C   0  0  1  0  0  0  0  0  0  0  0  0
  -34.5480  -20.7070   20.7300 F   0  0  0  0  0  0  0  0  0  0  0  0
  -35.1240  -18.6540   20.3880 F   0  0  0  0  0  0  0  0  0  0  0  0
  -34.2050  -19.7960   18.8000 F   0  0  0  0  0  0  0  0  0  0  0  0
  1  2  1  0
  2  4  1  0
  3  1  2  0
  5  7  1  0
  6  1  1  0
  7  6  1  0
  7 11  1  0
  9  5  1  0
  9  8  1  0
  9  6  1  0
  9 10  1  6
 11 12  1  0
 13 14  1  0
 13 11  1  0
 15 26  2  0
 16 14  1  0
 16 21  1  0
 17 25  1  0
 17 27  1  0
 18 20  1  0
 19 25  1  0
 20 21  2  0
 20 19  1  0
 22 16  2  0
 23 22  1  0
 23 18  2  0
 24 18  1  0
 24 17  1  0
 25 15  1  0
 27 29  2  0
 28 27  1  0
 30 28  1  0
 31 40  2  0
 31 36  1  0
 32 28  1  0
 32 36  1  0
 33 32  1  0
 34 35  1  0
 34 33  1  0
 35 31  1  0
 36 37  2  0
 37 38  1  0
 39 38  2  0
 40 39  1  0
 41 15  1  0
 41 42  1  0
 41 51  1  0
 42 45  1  0
 43 47  1  0
 43 42  1  0
 44 43  2  0
 47 46  1  0
 49 47  1  0
 49 50  1  0
 49 48  1  0
 51 52  1  1
 51 54  1  0
 53 51  1  0
 55 59  1  0
 56 60  2  0
 58 55  2  0
 58 56  1  0
 59  2  1  0
 59 57  2  0
 60 69  1  0
 60 57  1  0
 61 69  1  0
 62 67  1  0
 63 64  1  0
 63 62  1  0
 65 64  1  0
 65 74  1  0
 65 66  1  0
 67 61  1  0
 67 66  1  0
 68 61  2  0
 69 70  1  0
 71 72  2  0
 72 91  1  0
 73 72  1  0
 73 76  1  0
 74 71  1  0
 74 75  1  0
 75 73  2  0
 76 77  1  0
 77 78  2  0
 79 82  1  0
 79 78  1  0
 80 79  2  0
 81 80  1  0
 81 76  2  0
 82 83  1  0
 83 84  1  0
 84 85  2  0
 86 85  1  0
 86 90  1  0
 87 86  2  0
 88 83  2  0
 88 87  1  0
 89 88  1  0
 91 92  1  0
 92 95  1  0
 92 94  1  0
 93 91  2  0
 96 97  1  0
 96 71  1  0
 98 96  1  0
 99101  1  6
 99 58  1  0
 99100  1  0
102 99  1  0
M  ISO  4  13 101  14 101  61 100  69 100
M  END
>  <TORSDO>  (1) 
F 21

>  <SCORE>  (1) 
-10.537

>  <name>  (1) 
0

>  <ligand_id>  (1) 
0

>  <original_smiles>  (1) 
[H]c1c([H])c([H])c2c(c1[H])C([H])([H])C([H])([H])C([H])([H])C2([H])N([H])C(=O)C1([H])N(C(=O)C([H])(N([H])C(=O)C([H])(N([H])C([H])([H])[H])C([H])([H])[H])C(C([H])([H])[H])(C([H])([H])[H])C([H])([H])[H])C([H])([H])c2c([H])c(OC([H])([H])C([H])(F)C3([H])C([H])([H])[N+]([H])(C([H])([H])[H])C3([H])C(=O)N([H])c3c([H])c(N([H])C(=O)N4C([H])([H])C([H])([H])C([H])([H])C([H])(n5nc(-c6c([H])c([H])c(Oc7c([H])c([H])c(F)c([H])c7F)c([H])c6[H])c(C(=O)N([H])[H])c5N([H])[H])C4([H])[H])c([H])c(C(F)(F)F)c3[H])c([H])c([H])c2C1([H])[H]

>  <smiles>  (1) 
[H]c1c([H])c([H])c2c(c1[H])C([H])([H])C([H])([H])C([H])([H])C2([H])N([H])C(=O)C1([H])N(C(=O)C([H])(N([H])C(=O)C([H])(N([H])C([H])([H])[H])C([H])([H])[H])C(C([H])([H])[H])(C([H])([H])[H])C([H])([H])[H])C([H])([H])c2c([H])c(OC([H])([H])C([H])(F)C3([H])C([H])([H])[N+]([H])(C([H])([H])[H])C3([H])C(=O)N([H])c3c([H])c(N([H])C(=O)N4C([H])([H])C([H])([H])C([H])([H])C([H])(n5nc(-c6c([H])c([H])c(Oc7c([H])c([H])c(F)c([H])c7F)c([H])c6[H])c(C(=O)N([H])[H])c5N([H])[H])C4([H])[H])c([H])c(C(F)(F)F)c3[H])c([H])c([H])c2C1([H])[H]

$$$$
1:0:0
     RDKit          3D

105114  0  0  1  0  0  0  0  0999 V2000
  -29.0200  -21.5450   21.9010 C   0  0  0  0  0  2  0  0  0  0  0  0
  -28.8490  -23.0550   21.6800 C   0  0  0  0  0  2  0  0  0  0  0  0
  -31.4590  -23.1010   21.3160 C   0  0  0  0  0  2  0  0  0  0  0  0
  -30.2030  -21.0420   21.0630 C   0  0  0  0  0  3  0  0  0  0  0  0
  -30.1750  -23.8760   21.7730 C   0  0  0  0  0  3  0  0  0  0  0  0
  -32.7180  -20.9820   21.3710 C   0  0  0  0  0  1  0  0  0  0  0  0
  -31.4240  -21.6580   21.6450 N   0  0  1  0  0  4  0  0  0  0  0  0
  -31.3100  -21.5920   22.6450 H   0  0  0  0  0  0  0  0  0  0  0  0
  -29.9870  -18.7000   22.0300 C   0  0  0  0  0  3  0  0  0  0  0  0
  -30.0150  -17.2980   21.9350 C   0  0  0  0  0  3  0  0  0  0  0  0
  -30.6150  -17.4800   19.5900 C   0  0  0  0  0  3  0  0  0  0  0  0
  -30.5640  -18.8880   19.6590 C   0  0  0  0  0  0  0  0  0  0  0  0
  -30.2600  -19.5150   20.9060 C   0  0  0  0  0  0  0  0  0  0  0  0
  -30.3340  -16.6750   20.7160 C   0  0  0  0  0  0  0  0  0  0  0  0
  -30.7450  -14.4270   19.7230 C   0  0  0  0  0  0  0  0  0  0  0  0
  -30.3620  -12.2610   18.6170 C   0  0  0  0  0  2  0  0  0  0  0  0
  -29.2750  -12.4050   17.5340 C   0  0  0  0  0  2  0  0  0  0  0  0
  -27.8710  -12.2270   18.1400 C   0  0  0  0  0  2  0  0  0  0  0  0
  -27.6540  -13.0960   19.4070 C   0  0  0  0  0  3  0  0  0  0  0  0
  -28.8350  -12.9260   20.3880 C   0  0  0  0  0  2  0  0  0  0  0  0
  -30.0880  -13.2420   19.6750 N   0  0  0  0  0  0  0  0  0  0  0  0
  -31.6900  -14.7030   18.9760 O   0  0  0  0  0  0  0  0  0  0  0  0
  -30.3090  -15.2570   20.6820 N   0  0  0  0  0  0  0  0  0  0  0  0
  -29.6840  -14.8200   21.3410 H   0  0  0  0  0  0  0  0  0  0  0  0
  -25.3700  -13.6540   20.4650 C   0  0  0  0  0  0  0  0  0  0  0  0
  -24.3630  -12.8560   20.9380 C   0  0  0  0  0  0  0  0  0  0  0  0
  -24.8160  -11.5110   20.7720 C   0  0  0  0  0  0  0  0  0  0  0  0
  -26.3760  -12.7940   20.0490 N   0  0  0  0  0  0  0  0  0  0  0  0
  -26.0500  -11.4980   20.2870 N   0  0  0  0  0  0  0  0  0  0  0  0
  -24.1240  -10.2340   20.9960 C   0  0  0  0  0  0  0  0  0  0  0  0
  -24.5800   -9.3060   21.9570 C   0  0  0  0  0  3  0  0  0  0  0  0
  -23.8880   -8.0940   22.1660 C   0  0  0  0  0  3  0  0  0  0  0  0
  -22.7270   -7.8000   21.4120 C   0  0  0  0  0  0  0  0  0  0  0  0
  -22.2920   -8.7180   20.4390 C   0  0  0  0  0  3  0  0  0  0  0  0
  -22.9840   -9.9220   20.2290 C   0  0  0  0  0  3  0  0  0  0  0  0
  -22.0060   -6.6370   21.5270 O   0  0  0  0  0  0  0  0  0  0  0  0
  -21.7900   -6.0420   22.7440 C   0  0  0  0  0  0  0  0  0  0  0  0
  -21.1180   -6.7100   23.7910 C   0  0  0  0  0  3  0  0  0  0  0  0
  -20.8570   -6.0370   25.0020 C   0  0  0  0  0  3  0  0  0  0  0  0
  -21.2550   -4.6970   25.1630 C   0  0  0  0  0  0  0  0  0  0  0  0
  -21.9190   -4.0280   24.1200 C   0  0  0  0  0  3  0  0  0  0  0  0
  -22.1830   -4.6990   22.9130 C   0  0  0  0  0  0  0  0  0  0  0  0
  -22.8040   -4.0440   21.9010 F   0  0  0  0  0  0  0  0  0  0  0  0
  -20.9980   -4.0460   26.3220 F   0  0  0  0  0  0  0  0  0  0  0  0
  -23.0170  -13.3070   21.4290 C   0  0  0  0  0  0  0  0  0  0  0  0
  -22.4230  -12.5660   22.3590 N   0  0  0  0  0  0  0  0  0  0  0  0
  -22.5040  -14.3480   21.0220 O   0  0  0  0  0  0  0  0  0  0  0  0
  -22.8520  -11.7210   22.7060 H   0  0  0  0  0  0  0  0  0  0  0  0
  -21.5250  -12.8470   22.7240 H   0  0  0  0  0  0  0  0  0  0  0  0
  -25.5090  -15.0350   20.3400 N   0  0  0  0  0  0  0  0  0  0  0  0
  -24.7700  -15.6790   20.5970 H   0  0  0  0  0  0  0  0  0  0  0  0
  -26.3200  -15.4980   19.9500 H   0  0  0  0  0  0  0  0  0  0  0  0
  -30.8430  -19.6500   18.3910 C   0  0  0  0  0  0  0  0  0  0  0  0
  -30.1830  -19.2390   17.3190 N   0  0  0  0  0  0  0  0  0  0  0  0
  -31.6060  -20.6120   18.3540 O   0  0  0  0  0  0  0  0  0  0  0  0
  -29.5440  -18.4600   17.3930 H   0  0  0  0  0  0  0  0  0  0  0  0
  -30.3080  -19.7010   16.4310 H   0  0  0  0  0  0  0  0  0  0  0  0
  -30.8480  -26.2200   21.8590 C   0  0  0  0  0  1  0  0  0  0  0  0
  -30.0390  -25.2160   21.1560 N   0  0  0  0  0  0  0  0  0  0  0  0
  -30.2590  -25.2370   19.6920 C   0  0  0  0  0  2  0  0  0  0  0  0
  -30.2330  -26.6120   18.9960 C   0  0  0  0  0  3  0  0  0  0  0  0
  -30.2770  -26.4380   17.5930 O   0  0  0  0  0  0  0  0  0  0  0  0
  -29.4180  -26.1180   17.3310 H   0  0  0  0  0  0  0  0  0  0  0  0
  -29.0300  -27.5050   19.3320 C   0  0  0  0  0  2  0  0  0  0  0  0
  -27.7770  -26.9020   19.0000 O   0  0  0  0  0  0  0  0  0  0  0  0
  -24.4480  -31.7260   23.0710 C   0  0  0  0  0  0  0  0  0  0  0  0
  -26.6480  -27.6490   19.2680 C   0  0  0  0  0  0  0  0  0  0  0  0
  -23.0230  -30.5310   21.4300 C   0  0  0  0  0  3  0  0  0  0  0  0
  -24.2720  -29.1290   19.7020 C   0  0  0  0  0  0  0  0  0  0  0  0
  -25.5100  -30.8860   20.9890 C   0  0  0  0  0  2  0  0  0  0  0  0
  -25.4890  -29.5900   20.2120 C   0  0  0  0  0  0  0  0  0  0  0  0
  -26.6690  -28.8600   20.0020 C   0  0  0  0  0  3  0  0  0  0  0  0
  -25.4090  -27.1860   18.7710 C   0  0  0  0  0  3  0  0  0  0  0  0
  -24.2230  -27.9200   18.9820 C   0  0  0  0  0  3  0  0  0  0  0  0
  -23.0610  -29.9910   19.9730 C   0  0  0  0  0  2  0  0  0  0  0  0
  -24.3510  -31.0560   21.8890 N   0  0  0  0  0  0  0  0  0  0  0  0
  -23.4430  -31.9550   23.7580 O   0  0  0  0  0  0  0  0  0  0  0  0
  -22.4570  -29.4240   22.3470 C   0  0  0  0  0  0  0  0  0  0  0  0
  -21.1340  -29.2130   22.2750 N   0  0  0  0  0  0  0  0  0  0  0  0
  -23.2010  -28.7620   23.0750 O   0  0  0  0  0  0  0  0  0  0  0  0
  -20.5920  -29.8040   21.6600 H   0  0  0  0  0  0  0  0  0  0  0  0
  -17.8390  -27.8240   22.7650 C   0  0  0  0  0  0  0  0  0  0  0  0
  -20.3840  -28.2000   23.0140 C   0  0  0  0  0  3  0  0  0  0  0  0
  -20.5500  -26.8040   22.3690 C   0  0  0  0  0  2  0  0  0  0  0  0
  -19.4510  -26.4730   21.3550 C   0  0  0  0  0  2  0  0  0  0  0  0
  -18.0730  -26.5190   22.0210 C   0  0  0  0  0  2  0  0  0  0  0  0
  -18.9240  -28.6200   23.2160 C   0  0  0  0  0  0  0  0  0  0  0  0
  -18.6520  -29.8420   23.8680 C   0  0  0  0  0  3  0  0  0  0  0  0
  -17.3260  -30.2700   24.0740 C   0  0  0  0  0  3  0  0  0  0  0  0
  -16.2560  -29.4680   23.6410 C   0  0  0  0  0  3  0  0  0  0  0  0
  -16.5130  -28.2480   22.9910 C   0  0  0  0  0  3  0  0  0  0  0  0
  -25.8160  -32.2600   23.6040 C   0  0  0  0  0  3  0  0  0  0  0  0
  -25.5930  -33.6260   24.0960 N   0  0  0  0  0  0  0  0  0  0  0  0
  -25.9220  -34.7380   23.4240 C   0  0  0  0  0  0  0  0  0  0  0  0
  -26.5130  -34.7160   22.3400 O   0  0  0  0  0  0  0  0  0  0  0  0
  -25.0620  -33.7210   24.9480 H   0  0  0  0  0  0  0  0  0  0  0  0
  -24.2680  -36.6300   23.3610 C   0  0  0  0  0  1  0  0  0  0  0  0
  -25.5290  -36.0870   24.0520 C   0  0  0  0  0  3  0  0  0  0  0  0
  -27.7440  -36.7830   24.8480 C   0  0  0  0  0  1  0  0  0  0  0  0
  -26.6040  -37.1010   23.9930 N   0  0  0  0  0  0  0  0  0  0  0  0
  -26.2520  -38.0150   24.2610 H   0  0  0  0  0  0  0  0  0  0  0  0
  -26.4450  -31.3550   24.7330 C   0  0  1  0  0  0  0  0  0  0  0  0
  -25.4580  -31.0070   25.8710 C   0  0  0  0  0  1  0  0  0  0  0  0
  -26.9720  -30.0290   24.1380 C   0  0  0  0  0  1  0  0  0  0  0  0
  -27.6610  -32.0730   25.3660 C   0  0  0  0  0  1  0  0  0  0  0  0
  2  5  1  0
  2  1  1  0
  3  7  1  0
  3  5  1  0
  4 13  1  0
  4  7  1  0
  4  1  1  0
  5 59  1  0
  6  7  1  0
  7  8  1  1
 10  9  1  0
 11 12  2  0
 11 14  1  0
 12 13  1  0
 13  9  2  0
 14 10  2  0
 15 23  1  0
 16 21  1  0
 17 18  1  0
 17 16  1  0
 19 18  1  0
 19 28  1  0
 19 20  1  0
 21 15  1  0
 21 20  1  0
 22 15  2  0
 23 14  1  0
 23 24  1  0
 25 26  2  0
 26 45  1  0
 27 26  1  0
 27 30  1  0
 28 29  1  0
 28 25  1  0
 29 27  2  0
 30 31  1  0
 31 32  2  0
 33 36  1  0
 33 32  1  0
 34 33  2  0
 35 34  1  0
 35 30  2  0
 36 37  1  0
 37 42  2  0
 37 38  1  0
 38 39  2  0
 39 40  1  0
 40 44  1  0
 41 40  2  0
 42 41  1  0
 43 42  1  0
 45 46  1  0
 46 48  1  0
 46 49  1  0
 47 45  2  0
 50 25  1  0
 50 51  1  0
 52 50  1  0
 53 12  1  0
 54 56  1  0
 54 53  1  0
 55 53  2  0
 57 54  1  0
 59 58  1  0
 60 59  1  0
 61 64  1  0
 61 60  1  0
 62 61  1  0
 63 62  1  0
 65 67  1  0
 65 64  1  0
 66 77  2  0
 67 72  1  0
 68 76  1  0
 68 78  1  0
 69 75  1  0
 69 71  1  0
 70 76  1  0
 71 70  1  0
 72 71  2  0
 73 74  1  0
 73 67  2  0
 74 69  2  0
 75 68  1  0
 76 66  1  0
 78 80  2  0
 79 78  1  0
 81 79  1  0
 82 91  2  0
 82 87  1  0
 83 79  1  0
 83 87  1  0
 84 83  1  0
 85 86  1  0
 85 84  1  0
 86 82  1  0
 87 88  2  0
 88 89  1  0
 90 89  2  0
 91 90  1  0
 92 66  1  0
 92 93  1  0
 92102  1  0
 93 96  1  0
 94 98  1  0
 94 93  1  0
 95 94  2  0
 98 97  1  0
100 98  1  0
100101  1  0
100 99  1  0
102105  1  1
102103  1  0
104102  1  0
M  ISO  4  15 100  23 100  64 101  65 101
M  END
>  <TORSDO>  (2) 
F 23

>  <SCORE>  (2) 
-11.183

>  <name>  (2) 
1

>  <ligand_id>  (2) 
1

>  <original_smiles>  (2) 
[H]OC([H])(C([H])([H])Oc1c([H])c([H])c2c(c1[H])C([H])([H])N(C(=O)C([H])(N([H])C(=O)C([H])(N([H])C([H])([H])[H])C([H])([H])[H])C(C([H])([H])[H])(C([H])([H])[H])C([H])([H])[H])C([H])(C(=O)N([H])C1([H])c3c([H])c([H])c([H])c([H])c3C([H])([H])C([H])([H])C1([H])[H])C2([H])[H])C([H])([H])N(C([H])([H])[H])C1([H])C([H])([H])C([H])([H])C([H])(c2c([H])c([H])c(N([H])C(=O)N3C([H])([H])C([H])([H])C([H])([H])C([H])(n4nc(-c5c([H])c([H])c(Oc6c([H])c([H])c(F)c([H])c6F)c([H])c5[H])c(C(=O)N([H])[H])c4N([H])[H])C3([H])[H])c([H])c2C(=O)N([H])[H])[N+]([H])(C([H])([H])[H])C1([H])[H]

>  <smiles>  (2) 
[H]OC([H])(C([H])([H])Oc1c([H])c([H])c2c(c1[H])C([H])([H])N(C(=O)C([H])(N([H])C(=O)C([H])(N([H])C([H])([H])[H])C([H])([H])[H])C(C([H])([H])[H])(C([H])([H])[H])C([H])([H])[H])C([H])(C(=O)N([H])C1([H])c3c([H])c([H])c([H])c([H])c3C([H])([H])C([H])([H])C1([H])[H])C2([H])[H])C([H])([H])N(C([H])([H])[H])C1([H])C([H])([H])C([H])([H])C([H])(c2c([H])c([H])c(N([H])C(=O)N3C([H])([H])C([H])([H])C([H])([H])C([H])(n4nc(-c5c([H])c([H])c(Oc6c([H])c([H])c(F)c([H])c6F)c([H])c5[H])c(C(=O)N([H])[H])c4N([H])[H])C3([H])[H])c([H])c2C(=O)N([H])[H])[N+]([H])(C([H])([H])[H])C1([H])[H]

$$$$
2:0:0
     RDKit          3D

 94102  0  0  1  0  0  0  0  0999 V2000
  -28.5580  -22.1860   20.7920 C   0  0  0  0  0  2  0  0  0  0  0  0
  -30.4870  -21.0070   21.9480 C   0  0  0  0  0  1  0  0  0  0  0  0
  -29.5560  -21.0300   20.8210 N   0  0  0  0  0  0  0  0  0  0  0  0
  -28.1670  -18.3190   18.5890 C   0  0  0  0  0  3  0  0  0  0  0  0
  -28.6860  -17.1210   19.1230 C   0  0  0  0  0  3  0  0  0  0  0  0
  -28.4580  -19.5700   19.1620 C   0  0  0  0  0  3  0  0  0  0  0  0
  -29.8120  -18.4310   20.8310 C   0  0  0  0  0  3  0  0  0  0  0  0
  -29.5260  -17.1230   20.2590 C   0  0  0  0  0  0  0  0  0  0  0  0
  -29.2870  -19.6920   20.3010 C   0  0  0  0  0  0  0  0  0  0  0  0
  -30.5770  -14.7500   20.3410 C   0  0  0  0  0  0  0  0  0  0  0  0
  -30.4190  -12.4920   19.3070 C   0  0  0  0  0  2  0  0  0  0  0  0
  -29.4760  -12.5860   18.0880 C   0  0  0  0  0  2  0  0  0  0  0  0
  -28.0170  -12.3660   18.5340 C   0  0  0  0  0  2  0  0  0  0  0  0
  -27.6290  -13.2520   19.7470 C   0  0  0  0  0  3  0  0  0  0  0  0
  -28.6800  -13.1440   20.8730 C   0  0  0  0  0  2  0  0  0  0  0  0
  -29.9870  -13.5110   20.2980 N   0  0  0  0  0  0  0  0  0  0  0  0
  -31.7090  -14.9160   19.8700 O   0  0  0  0  0  0  0  0  0  0  0  0
  -29.8540  -15.8120   20.8560 N   0  0  0  0  0  0  0  0  0  0  0  0
  -29.1150  -15.4660   21.4550 H   0  0  0  0  0  0  0  0  0  0  0  0
  -25.2340  -13.8560   20.4620 C   0  0  0  0  0  0  0  0  0  0  0  0
  -24.1660  -13.0860   20.8340 C   0  0  0  0  0  0  0  0  0  0  0  0
  -24.6320  -11.7330   20.8100 C   0  0  0  0  0  0  0  0  0  0  0  0
  -26.2770  -12.9740   20.2260 N   0  0  0  0  0  0  0  0  0  0  0  0
  -25.9200  -11.6920   20.4940 N   0  0  0  0  0  0  0  0  0  0  0  0
  -23.9080  -10.4700   21.0120 C   0  0  0  0  0  0  0  0  0  0  0  0
  -24.3520   -9.5040   21.9460 C   0  0  0  0  0  3  0  0  0  0  0  0
  -23.6280   -8.3040   22.1340 C   0  0  0  0  0  3  0  0  0  0  0  0
  -22.4510   -8.0610   21.3910 C   0  0  0  0  0  0  0  0  0  0  0  0
  -22.0240   -9.0130   20.4480 C   0  0  0  0  0  3  0  0  0  0  0  0
  -22.7470  -10.2050   20.2580 C   0  0  0  0  0  3  0  0  0  0  0  0
  -21.7020   -6.9110   21.4810 O   0  0  0  0  0  0  0  0  0  0  0  0
  -21.6690   -6.1670   22.6310 C   0  0  0  0  0  0  0  0  0  0  0  0
  -21.2590   -6.7190   23.8640 C   0  0  0  0  0  3  0  0  0  0  0  0
  -21.1760   -5.9010   25.0080 C   0  0  0  0  0  3  0  0  0  0  0  0
  -21.4910   -4.5310   24.9210 C   0  0  0  0  0  0  0  0  0  0  0  0
  -21.8950   -3.9810   23.6920 C   0  0  0  0  0  3  0  0  0  0  0  0
  -21.9830   -4.7960   22.5520 C   0  0  0  0  0  0  0  0  0  0  0  0
  -22.3540   -4.2560   21.3650 F   0  0  0  0  0  0  0  0  0  0  0  0
  -21.4030   -3.7440   26.0190 F   0  0  0  0  0  0  0  0  0  0  0  0
  -22.7650  -13.5610   21.0950 C   0  0  0  0  0  0  0  0  0  0  0  0
  -22.0280  -12.8810   21.9670 N   0  0  0  0  0  0  0  0  0  0  0  0
  -22.3240  -14.5760   20.5540 O   0  0  0  0  0  0  0  0  0  0  0  0
  -22.3920  -12.0730   22.4480 H   0  0  0  0  0  0  0  0  0  0  0  0
  -21.0830  -13.1800   22.1610 H   0  0  0  0  0  0  0  0  0  0  0  0
  -25.3970  -15.2250   20.2730 N   0  0  0  0  0  0  0  0  0  0  0  0
  -24.6100  -15.8620   20.2990 H   0  0  0  0  0  0  0  0  0  0  0  0
  -26.2370  -15.6580   19.9110 H   0  0  0  0  0  0  0  0  0  0  0  0
  -29.0670  -23.7130   20.5720 C   0  0  0  0  0  3  0  0  0  0  0  0
  -30.0210  -23.7330   19.4360 N   0  0  0  0  0  4  0  0  0  0  0  0
  -29.5790  -23.4820   18.5670 H   0  0  0  0  0  0  0  0  0  0  0  0
  -30.7500  -23.0580   19.6060 H   0  0  0  0  0  0  0  0  0  0  0  0
  -30.4570  -24.6340   19.3280 H   0  0  0  0  0  0  0  0  0  0  0  0
  -27.9340  -24.8780   20.4260 C   0  0  0  0  0  2  0  0  0  0  0  0
  -28.2530  -26.3530   20.2900 O   0  0  0  0  0  0  0  0  0  0  0  0
  -24.6000  -31.8810   23.2480 C   0  0  0  0  0  0  0  0  0  0  0  0
  -27.1710  -27.2650   20.2050 C   0  0  0  0  0  0  0  0  0  0  0  0
  -23.3900  -30.4880   21.6100 C   0  0  0  0  0  3  0  0  0  0  0  0
  -24.8360  -28.9440   20.1670 C   0  0  0  0  0  0  0  0  0  0  0  0
  -25.9390  -30.7870   21.4290 C   0  0  0  0  0  2  0  0  0  0  0  0
  -26.0080  -29.4060   20.7760 C   0  0  0  0  0  0  0  0  0  0  0  0
  -27.1800  -28.5820   20.7780 C   0  0  0  0  0  3  0  0  0  0  0  0
  -25.9810  -26.8840   19.5420 C   0  0  0  0  0  3  0  0  0  0  0  0
  -24.8330  -27.6970   19.5260 C   0  0  0  0  0  3  0  0  0  0  0  0
  -23.6010  -29.8240   20.2240 C   0  0  0  0  0  2  0  0  0  0  0  0
  -24.6630  -31.0700   22.1500 N   0  0  0  0  0  0  0  0  0  0  0  0
  -23.5180  -32.1590   23.7850 O   0  0  0  0  0  0  0  0  0  0  0  0
  -22.7240  -29.4720   22.5690 C   0  0  0  0  0  0  0  0  0  0  0  0
  -21.3960  -29.3000   22.4450 N   0  0  0  0  0  0  0  0  0  0  0  0
  -23.4040  -28.8440   23.3850 O   0  0  0  0  0  0  0  0  0  0  0  0
  -20.9070  -29.8560   21.7560 H   0  0  0  0  0  0  0  0  0  0  0  0
  -18.0170  -28.1090   22.9510 C   0  0  0  0  0  0  0  0  0  0  0  0
  -20.5770  -28.3680   23.2200 C   0  0  0  0  0  3  0  0  0  0  0  0
  -20.6780  -26.9330   22.6500 C   0  0  0  0  0  2  0  0  0  0  0  0
  -19.5780  -26.6090   21.6340 C   0  0  0  0  0  2  0  0  0  0  0  0
  -18.1930  -26.7590   22.2740 C   0  0  0  0  0  2  0  0  0  0  0  0
  -19.1370  -28.8710   23.3810 C   0  0  0  0  0  0  0  0  0  0  0  0
  -18.9190  -30.1340   23.9720 C   0  0  0  0  0  3  0  0  0  0  0  0
  -17.6140  -30.6350   24.1390 C   0  0  0  0  0  3  0  0  0  0  0  0
  -16.5100  -29.8710   23.7260 C   0  0  0  0  0  3  0  0  0  0  0  0
  -16.7120  -28.6100   23.1380 C   0  0  0  0  0  3  0  0  0  0  0  0
  -25.8830  -32.5140   23.8670 C   0  0  0  0  0  3  0  0  0  0  0  0
  -25.5740  -33.9120   24.2020 N   0  0  0  0  0  0  0  0  0  0  0  0
  -25.9020  -34.9690   23.4450 C   0  0  0  0  0  0  0  0  0  0  0  0
  -26.5630  -34.8690   22.4090 O   0  0  0  0  0  0  0  0  0  0  0  0
  -24.9830  -34.0630   25.0060 H   0  0  0  0  0  0  0  0  0  0  0  0
  -24.1710  -36.7660   23.1120 C   0  0  0  0  0  1  0  0  0  0  0  0
  -25.4180  -36.3570   23.9110 C   0  0  0  0  0  3  0  0  0  0  0  0
  -27.5620  -37.2380   24.7230 C   0  0  0  0  0  1  0  0  0  0  0  0
  -26.4510  -37.4090   23.7910 N   0  0  0  0  0  0  0  0  0  0  0  0
  -26.0460  -38.3290   23.9470 H   0  0  0  0  0  0  0  0  0  0  0  0
  -26.4020  -31.7390   25.1370 C   0  0  1  0  0  0  0  0  0  0  0  0
  -25.3160  -31.5050   26.2120 C   0  0  0  0  0  1  0  0  0  0  0  0
  -26.9770  -30.3580   24.7440 C   0  0  0  0  0  1  0  0  0  0  0  0
  -27.5560  -32.5330   25.7970 C   0  0  0  0  0  1  0  0  0  0  0  0
  1  3  1  0
  3  2  1  0
  4  5  2  0
  4  6  1  0
  5  8  1  0
  6  9  2  0
  8  7  2  0
  8 18  1  0
  9  3  1  0
  9  7  1  0
 10 18  1  0
 11 16  1  0
 12 13  1  0
 12 11  1  0
 14 13  1  0
 14 23  1  0
 14 15  1  0
 16 10  1  0
 16 15  1  0
 17 10  2  0
 18 19  1  0
 20 21  2  0
 21 40  1  0
 22 21  1  0
 22 25  1  0
 23 20  1  0
 23 24  1  0
 24 22  2  0
 25 26  1  0
 26 27  2  0
 28 31  1  0
 28 27  1  0
 29 28  2  0
 30 29  1  0
 30 25  2  0
 31 32  1  0
 32 33  1  0
 33 34  2  0
 35 34  1  0
 35 39  1  0
 36 35  2  0
 37 32  2  0
 37 36  1  0
 38 37  1  0
 40 41  1  0
 41 44  1  0
 41 43  1  0
 42 40  2  0
 45 46  1  0
 45 20  1  0
 47 45  1  0
 48 53  1  0
 48  1  1  0
 49 51  1  0
 49 48  1  0
 50 49  1  0
 52 49  1  0
 54 53  1  0
 55 66  2  0
 56 54  1  0
 56 61  1  0
 57 65  1  0
 57 67  1  0
 58 64  1  0
 58 60  1  0
 59 65  1  0
 60 61  2  0
 60 59  1  0
 62 56  2  0
 63 62  1  0
 63 58  2  0
 64 57  1  0
 65 55  1  0
 67 69  2  0
 68 67  1  0
 70 68  1  0
 71 80  2  0
 71 76  1  0
 72 68  1  0
 72 76  1  0
 73 72  1  0
 74 75  1  0
 74 73  1  0
 75 71  1  0
 76 77  2  0
 77 78  1  0
 79 78  2  0
 80 79  1  0
 81 55  1  0
 81 82  1  0
 81 91  1  0
 82 85  1  0
 83 87  1  0
 83 82  1  0
 84 83  2  0
 87 86  1  0
 89 87  1  0
 89 90  1  0
 89 88  1  0
 91 94  1  1
 91 92  1  0
 93 91  1  0
M  ISO  4  10 100  18 100  53 101  54 101
M  END
>  <TORSDO>  (3) 
F 21

>  <SCORE>  (3) 
-14.003

>  <name>  (3) 
2

>  <ligand_id>  (3) 
2

>  <original_smiles>  (3) 
[H]c1c([H])c(N([H])C(=O)N2C([H])([H])C([H])([H])C([H])([H])C([H])(n3nc(-c4c([H])c([H])c(Oc5c([H])c([H])c(F)c([H])c5F)c([H])c4[H])c(C(=O)N([H])[H])c3N([H])[H])C2([H])[H])c([H])c(N(C([H])([H])[H])C([H])([H])C([H])(C([H])([H])Oc2c([H])c([H])c3c(c2[H])C([H])([H])N(C(=O)C([H])(N([H])C(=O)C([H])(N([H])C([H])([H])[H])C([H])([H])[H])C(C([H])([H])[H])(C([H])([H])[H])C([H])([H])[H])C([H])(C(=O)N([H])C2([H])c4c([H])c([H])c([H])c([H])c4C([H])([H])C([H])([H])C2([H])[H])C3([H])[H])[N+]([H])([H])[H])c1[H]

>  <smiles>  (3) 
[H]c1c([H])c(N([H])C(=O)N2C([H])([H])C([H])([H])C([H])([H])C([H])(n3nc(-c4c([H])c([H])c(Oc5c([H])c([H])c(F)c([H])c5F)c([H])c4[H])c(C(=O)N([H])[H])c3N([H])[H])C2([H])[H])c([H])c(N(C([H])([H])[H])C([H])([H])C([H])(C([H])([H])Oc2c([H])c([H])c3c(c2[H])C([H])([H])N(C(=O)C([H])(N([H])C(=O)C([H])(N([H])C([H])([H])[H])C([H])([H])[H])C(C([H])([H])[H])(C([H])([H])[H])C([H])([H])[H])C([H])(C(=O)N([H])C2([H])c4c([H])c([H])c([H])c([H])c4C([H])([H])C([H])([H])C2([H])[H])C3([H])[H])[N+]([H])([H])[H])c1[H]

$$$$
3:0:0
     RDKit          3D

 94102  0  0  1  0  0  0  0  0999 V2000
  -30.6680  -18.4760   20.4520 C   0  0  0  0  0  3  0  0  0  0  0  0
  -30.3640  -19.9070   20.3670 C   0  0  0  0  0  3  0  0  0  0  0  0
  -28.5280  -18.0040   19.5970 C   0  0  0  0  0  3  0  0  0  0  0  0
  -28.2110  -19.4150   19.4940 C   0  0  0  0  0  0  0  0  0  0  0  0
  -29.7400  -17.4360   20.0920 C   0  0  0  0  0  0  0  0  0  0  0  0
  -29.1160  -20.4680   19.9080 C   0  0  0  0  0  0  0  0  0  0  0  0
  -30.7010  -14.8310   19.9940 C   0  0  0  0  0  0  0  0  0  0  0  0
  -30.5860  -12.4630   19.1020 C   0  0  0  0  0  2  0  0  0  0  0  0
  -29.5910  -12.4140   17.9170 C   0  0  0  0  0  2  0  0  0  0  0  0
  -28.1460  -12.2130   18.4150 C   0  0  0  0  0  2  0  0  0  0  0  0
  -27.7940  -13.1530   19.5980 C   0  0  0  0  0  3  0  0  0  0  0  0
  -28.9000  -13.1520   20.6760 C   0  0  0  0  0  2  0  0  0  0  0  0
  -30.1530  -13.5530   20.0150 N   0  0  0  0  0  0  0  0  0  0  0  0
  -31.8720  -14.9630   19.6210 O   0  0  0  0  0  0  0  0  0  0  0  0
  -29.8240  -15.9140   20.2200 N   0  0  0  0  0  0  0  0  0  0  0  0
  -28.9300  -15.5230   20.4740 H   0  0  0  0  0  0  0  0  0  0  0  0
  -25.4670  -13.7570   20.4860 C   0  0  0  0  0  0  0  0  0  0  0  0
  -24.4110  -12.9910   20.8980 C   0  0  0  0  0  0  0  0  0  0  0  0
  -24.8450  -11.6330   20.7970 C   0  0  0  0  0  0  0  0  0  0  0  0
  -26.4770  -12.8680   20.1580 N   0  0  0  0  0  0  0  0  0  0  0  0
  -26.1150  -11.5830   20.4090 N   0  0  0  0  0  0  0  0  0  0  0  0
  -24.1050  -10.3790   20.9870 C   0  0  0  0  0  0  0  0  0  0  0  0
  -24.5590   -9.3830   21.8790 C   0  0  0  0  0  3  0  0  0  0  0  0
  -23.8190   -8.1930   22.0600 C   0  0  0  0  0  3  0  0  0  0  0  0
  -22.6120   -7.9930   21.3500 C   0  0  0  0  0  0  0  0  0  0  0  0
  -22.1770   -8.9790   20.4460 C   0  0  0  0  0  3  0  0  0  0  0  0
  -22.9160  -10.1580   20.2640 C   0  0  0  0  0  3  0  0  0  0  0  0
  -21.8420   -6.8590   21.4440 O   0  0  0  0  0  0  0  0  0  0  0  0
  -21.7960   -6.1130   22.5940 C   0  0  0  0  0  0  0  0  0  0  0  0
  -21.4030   -6.6710   23.8310 C   0  0  0  0  0  3  0  0  0  0  0  0
  -21.3040   -5.8520   24.9730 C   0  0  0  0  0  3  0  0  0  0  0  0
  -21.5880   -4.4760   24.8800 C   0  0  0  0  0  0  0  0  0  0  0  0
  -21.9730   -3.9180   23.6490 C   0  0  0  0  0  3  0  0  0  0  0  0
  -22.0750   -4.7340   22.5090 C   0  0  0  0  0  0  0  0  0  0  0  0
  -22.4270   -4.1860   21.3210 F   0  0  0  0  0  0  0  0  0  0  0  0
  -21.4840   -3.6870   25.9760 F   0  0  0  0  0  0  0  0  0  0  0  0
  -23.0410  -13.4840   21.2630 C   0  0  0  0  0  0  0  0  0  0  0  0
  -22.3540  -12.7820   22.1580 N   0  0  0  0  0  0  0  0  0  0  0  0
  -22.5890  -14.5260   20.7880 O   0  0  0  0  0  0  0  0  0  0  0  0
  -22.7330  -11.9380   22.5630 H   0  0  0  0  0  0  0  0  0  0  0  0
  -21.4380  -13.0950   22.4450 H   0  0  0  0  0  0  0  0  0  0  0  0
  -25.6450  -15.1300   20.3360 N   0  0  0  0  0  0  0  0  0  0  0  0
  -24.8790  -15.7790   20.4760 H   0  0  0  0  0  0  0  0  0  0  0  0
  -26.4210  -15.5370   19.8360 H   0  0  0  0  0  0  0  0  0  0  0  0
  -26.8660  -19.7460   18.9040 C   0  0  0  0  0  0  0  0  0  0  0  0
  -25.8490  -18.9940   19.3130 N   0  0  0  0  0  0  0  0  0  0  0  0
  -26.7090  -20.6550   18.0890 O   0  0  0  0  0  0  0  0  0  0  0  0
  -25.9940  -18.2690   19.9980 H   0  0  0  0  0  0  0  0  0  0  0  0
  -24.9190  -19.1640   18.9570 H   0  0  0  0  0  0  0  0  0  0  0  0
  -27.9810  -22.0140   21.3590 C   0  0  0  0  0  1  0  0  0  0  0  0
  -28.6660  -21.8830   20.0730 N   0  0  0  0  0  0  0  0  0  0  0  0
  -29.0560  -23.2610   19.4670 C   0  0  0  0  0  3  0  0  0  0  0  0
  -27.9990  -24.5690   19.5510 C   0  0  0  0  0  3  0  0  0  0  0  0
  -28.2960  -26.0840   19.4020 O   0  0  0  0  0  0  0  0  0  0  0  0
  -24.8040  -31.4260   23.0780 C   0  0  0  0  0  0  0  0  0  0  0  0
  -27.2440  -27.0620   19.4900 C   0  0  0  0  0  0  0  0  0  0  0  0
  -23.5500  -30.2520   21.3100 C   0  0  0  0  0  3  0  0  0  0  0  0
  -24.9440  -28.8260   19.6940 C   0  0  0  0  0  0  0  0  0  0  0  0
  -26.1030  -30.4930   21.1330 C   0  0  0  0  0  2  0  0  0  0  0  0
  -26.1410  -29.1830   20.3300 C   0  0  0  0  0  0  0  0  0  0  0  0
  -27.2920  -28.3200   20.2110 C   0  0  0  0  0  3  0  0  0  0  0  0
  -26.0230  -26.8110   18.8230 C   0  0  0  0  0  3  0  0  0  0  0  0
  -24.8980  -27.6530   18.9270 C   0  0  0  0  0  3  0  0  0  0  0  0
  -23.7360  -29.7330   19.8600 C   0  0  0  0  0  2  0  0  0  0  0  0
  -24.8400  -30.7380   21.8970 N   0  0  0  0  0  0  0  0  0  0  0  0
  -23.7320  -31.6690   23.6540 O   0  0  0  0  0  0  0  0  0  0  0  0
  -22.8650  -29.1540   22.1620 C   0  0  0  0  0  0  0  0  0  0  0  0
  -21.5300  -29.0390   22.0550 N   0  0  0  0  0  0  0  0  0  0  0  0
  -23.5380  -28.4100   22.8820 O   0  0  0  0  0  0  0  0  0  0  0  0
  -21.0450  -29.6900   21.4540 H   0  0  0  0  0  0  0  0  0  0  0  0
  -18.1210  -27.9100   22.5320 C   0  0  0  0  0  0  0  0  0  0  0  0
  -20.6970  -28.0400   22.7310 C   0  0  0  0  0  3  0  0  0  0  0  0
  -20.7190  -26.6930   21.9720 C   0  0  0  0  0  2  0  0  0  0  0  0
  -19.5690  -26.5440   20.9690 C   0  0  0  0  0  2  0  0  0  0  0  0
  -18.2180  -26.6540   21.6820 C   0  0  0  0  0  2  0  0  0  0  0  0
  -19.2840  -28.5680   23.0120 C   0  0  0  0  0  0  0  0  0  0  0  0
  -19.1380  -29.7490   23.7720 C   0  0  0  0  0  3  0  0  0  0  0  0
  -17.8610  -30.2690   24.0550 C   0  0  0  0  0  3  0  0  0  0  0  0
  -16.7120  -29.6060   23.5900 C   0  0  0  0  0  3  0  0  0  0  0  0
  -16.8440  -28.4270   22.8340 C   0  0  0  0  0  3  0  0  0  0  0  0
  -26.1050  -31.9600   23.7510 C   0  0  0  0  0  3  0  0  0  0  0  0
  -26.6380  -31.0180   24.9010 C   0  0  1  0  0  0  0  0  0  0  0  0
  -25.5680  -30.6570   25.9580 C   0  0  0  0  0  1  0  0  0  0  0  0
  -27.1860  -29.6950   24.3170 C   0  0  0  0  0  1  0  0  0  0  0  0
  -27.8190  -31.6990   25.6300 C   0  0  0  0  0  1  0  0  0  0  0  0
  -25.8170  -33.3020   24.2810 N   0  0  0  0  0  0  0  0  0  0  0  0
  -26.1480  -34.4490   23.6740 C   0  0  0  0  0  0  0  0  0  0  0  0
  -26.7940  -34.4870   22.6240 O   0  0  0  0  0  0  0  0  0  0  0  0
  -25.2410  -33.3460   25.1090 H   0  0  0  0  0  0  0  0  0  0  0  0
  -24.4410  -36.2990   23.6160 C   0  0  0  0  0  1  0  0  0  0  0  0
  -25.6900  -35.7650   24.3360 C   0  0  0  0  0  3  0  0  0  0  0  0
  -27.8530  -36.4960   25.2430 C   0  0  0  0  0  1  0  0  0  0  0  0
  -26.7370  -36.8100   24.3540 N   0  0  0  0  0  0  0  0  0  0  0  0
  -26.3480  -37.7050   24.6380 H   0  0  0  0  0  0  0  0  0  0  0  0
  2  1  1  0
  3  5  1  0
  4  3  2  0
  4  6  1  0
  5 15  1  0
  5  1  2  0
  6 51  1  0
  6  2  2  0
  7 13  1  0
  7 15  1  0
  8 13  1  0
  9 10  1  0
  9  8  1  0
 11 10  1  0
 11 20  1  0
 11 12  1  0
 13 12  1  0
 14  7  2  0
 15 16  1  0
 17 18  2  0
 18 37  1  0
 19 18  1  0
 19 22  1  0
 20 21  1  0
 20 17  1  0
 21 19  2  0
 22 23  1  0
 23 24  2  0
 25 28  1  0
 25 24  1  0
 26 25  2  0
 27 26  1  0
 27 22  2  0
 28 29  1  0
 29 30  1  0
 30 31  2  0
 32 31  1  0
 32 36  1  0
 33 32  2  0
 34 29  2  0
 34 33  1  0
 35 34  1  0
 37 38  1  0
 38 41  1  0
 38 40  1  0
 39 37  2  0
 42 43  1  0
 42 17  1  0
 44 42  1  0
 45 46  1  0
 45  4  1  0
 46 48  1  0
 47 45  2  0
 49 46  1  0
 51 50  1  0
 52 53  2  0
 52 51  1  0
 54 56  1  0
 54 53  1  0
 55 66  2  0
 56 61  1  0
 57 65  1  0
 57 67  1  0
 58 64  1  0
 58 60  1  0
 59 65  1  0
 60 59  1  0
 61 60  2  0
 62 63  1  0
 62 56  2  0
 63 58  2  0
 64 57  1  0
 65 55  1  0
 67 69  2  0
 68 67  1  0
 70 68  1  0
 71 80  2  0
 71 76  1  0
 72 68  1  0
 72 76  1  0
 73 72  1  0
 74 75  1  0
 74 73  1  0
 75 71  1  0
 76 77  2  0
 77 78  1  0
 79 78  2  0
 80 79  1  0
 81 55  1  0
 81 86  1  0
 81 82  1  0
 82 85  1  1
 82 83  1  0
 84 82  1  0
 86 89  1  0
 87 86  1  0
 87 91  1  0
 88 87  2  0
 91 90  1  0
 91 93  1  0
 93 94  1  0
 93 92  1  0
M  ISO  4   7 100  15 100  53 101  54 101
M  END
>  <TORSDO>  (4) 
F 20

>  <SCORE>  (4) 
-12.694

>  <name>  (4) 
3

>  <ligand_id>  (4) 
3

>  <original_smiles>  (4) 
[H]c1c([H])c([H])c2c(c1[H])C([H])([H])C([H])([H])C([H])([H])C2([H])N([H])C(=O)C1([H])N(C(=O)C([H])(N([H])C(=O)C([H])(N([H])C([H])([H])[H])C([H])([H])[H])C(C([H])([H])[H])(C([H])([H])[H])C([H])([H])[H])C([H])([H])c2c([H])c(OC([H])([H])C([H])([H])N(c3c([H])c([H])c(N([H])C(=O)N4C([H])([H])C([H])([H])C([H])([H])C([H])(n5nc(-c6c([H])c([H])c(Oc7c([H])c([H])c(F)c([H])c7F)c([H])c6[H])c(C(=O)N([H])[H])c5N([H])[H])C4([H])[H])c([H])c3C(=O)N([H])[H])C([H])([H])[H])c([H])c([H])c2C1([H])[H]

>  <smiles>  (4) 
[H]c1c([H])c([H])c2c(c1[H])C([H])([H])C([H])([H])C([H])([H])C2([H])N([H])C(=O)C1([H])N(C(=O)C([H])(N([H])C(=O)C([H])(N([H])C([H])([H])[H])C([H])([H])[H])C(C([H])([H])[H])(C([H])([H])[H])C([H])([H])[H])C([H])([H])c2c([H])c(OC([H])([H])C([H])([H])N(c3c([H])c([H])c(N([H])C(=O)N4C([H])([H])C([H])([H])C([H])([H])C([H])(n5nc(-c6c([H])c([H])c(Oc7c([H])c([H])c(F)c([H])c7F)c([H])c6[H])c(C(=O)N([H])[H])c5N([H])[H])C4([H])[H])c([H])c3C(=O)N([H])[H])C([H])([H])[H])c([H])c([H])c2C1([H])[H]

$$$$
4:0:0
     RDKit          3D

 98106  0  0  1  0  0  0  0  0999 V2000
  -29.7660  -18.0760   20.7100 C   0  0  0  0  0  3  0  0  0  0  0  0
  -32.0450  -17.2810   20.5770 C   0  0  0  0  0  3  0  0  0  0  0  0
  -31.5590  -19.6140   20.0080 C   0  0  0  0  0  0  0  0  0  0  0  0
  -30.1910  -19.3950   20.3630 C   0  0  0  0  0  0  0  0  0  0  0  0
  -30.6700  -16.9820   20.7520 C   0  0  0  0  0  0  0  0  0  0  0  0
  -32.4780  -18.5560   20.1830 C   0  0  0  0  0  0  0  0  0  0  0  0
  -33.8010  -18.7430   19.9530 F   0  0  0  0  0  0  0  0  0  0  0  0
  -30.7570  -14.5010   20.4470 C   0  0  0  0  0  0  0  0  0  0  0  0
  -30.3430  -12.3440   19.3430 C   0  0  0  0  0  2  0  0  0  0  0  0
  -29.4290  -12.5680   18.1250 C   0  0  0  0  0  2  0  0  0  0  0  0
  -27.9540  -12.4500   18.5500 C   0  0  0  0  0  2  0  0  0  0  0  0
  -27.6190  -13.2970   19.8090 C   0  0  0  0  0  3  0  0  0  0  0  0
  -28.6760  -13.1210   20.9260 C   0  0  0  0  0  2  0  0  0  0  0  0
  -30.0030  -13.3710   20.3470 N   0  0  0  0  0  0  0  0  0  0  0  0
  -31.8860  -14.5360   19.9630 O   0  0  0  0  0  0  0  0  0  0  0  0
  -30.1840  -15.6290   20.9420 N   0  0  0  0  0  0  0  0  0  0  0  0
  -29.2370  -15.5260   21.2730 H   0  0  0  0  0  0  0  0  0  0  0  0
  -25.2180  -13.8940   20.5090 C   0  0  0  0  0  0  0  0  0  0  0  0
  -24.1490  -13.1210   20.8760 C   0  0  0  0  0  0  0  0  0  0  0  0
  -24.6140  -11.7700   20.8560 C   0  0  0  0  0  0  0  0  0  0  0  0
  -26.2670  -13.0160   20.2890 N   0  0  0  0  0  0  0  0  0  0  0  0
  -25.9070  -11.7330   20.5580 N   0  0  0  0  0  0  0  0  0  0  0  0
  -23.8890  -10.5070   21.0490 C   0  0  0  0  0  0  0  0  0  0  0  0
  -24.3260   -9.5380   21.9800 C   0  0  0  0  0  3  0  0  0  0  0  0
  -23.6000   -8.3410   22.1630 C   0  0  0  0  0  3  0  0  0  0  0  0
  -22.4230   -8.1040   21.4140 C   0  0  0  0  0  0  0  0  0  0  0  0
  -22.0040   -9.0610   20.4730 C   0  0  0  0  0  3  0  0  0  0  0  0
  -22.7310  -10.2490   20.2880 C   0  0  0  0  0  3  0  0  0  0  0  0
  -21.6700   -6.9580   21.5050 O   0  0  0  0  0  0  0  0  0  0  0  0
  -21.6360   -6.2070   22.6520 C   0  0  0  0  0  0  0  0  0  0  0  0
  -21.2330   -6.7560   23.8890 C   0  0  0  0  0  3  0  0  0  0  0  0
  -21.1450   -5.9320   25.0290 C   0  0  0  0  0  3  0  0  0  0  0  0
  -21.4510   -4.5620   24.9340 C   0  0  0  0  0  0  0  0  0  0  0  0
  -21.8470   -4.0130   23.7020 C   0  0  0  0  0  3  0  0  0  0  0  0
  -21.9370   -4.8330   22.5640 C   0  0  0  0  0  0  0  0  0  0  0  0
  -22.2980   -4.2950   21.3740 F   0  0  0  0  0  0  0  0  0  0  0  0
  -21.3590   -3.7680   26.0270 F   0  0  0  0  0  0  0  0  0  0  0  0
  -22.7500  -13.5960   21.1370 C   0  0  0  0  0  0  0  0  0  0  0  0
  -22.0190  -12.9050   22.0030 N   0  0  0  0  0  0  0  0  0  0  0  0
  -22.3120  -14.6170   20.6080 O   0  0  0  0  0  0  0  0  0  0  0  0
  -22.3830  -12.0790   22.4540 H   0  0  0  0  0  0  0  0  0  0  0  0
  -21.0790  -13.2080   22.2180 H   0  0  0  0  0  0  0  0  0  0  0  0
  -25.3810  -15.2650   20.3230 N   0  0  0  0  0  0  0  0  0  0  0  0
  -24.6130  -15.9200   20.4220 H   0  0  0  0  0  0  0  0  0  0  0  0
  -26.2310  -15.7020   19.9880 H   0  0  0  0  0  0  0  0  0  0  0  0
  -32.0620  -20.9300   19.4650 C   0  0  0  0  0  0  0  0  0  0  0  0
  -32.7100  -20.8920   18.3070 N   0  0  0  0  0  0  0  0  0  0  0  0
  -31.8410  -21.9970   20.0350 O   0  0  0  0  0  0  0  0  0  0  0  0
  -32.8980  -20.0080   17.8580 H   0  0  0  0  0  0  0  0  0  0  0  0
  -33.0560  -21.7440   17.8900 H   0  0  0  0  0  0  0  0  0  0  0  0
  -29.1390  -20.5220   20.2980 C   0  0  0  0  0  2  0  0  0  0  0  0
  -29.5930  -21.3580   22.6010 C   0  0  0  0  0  1  0  0  0  0  0  0
  -29.4090  -21.7050   21.1710 N   0  0  2  0  0  4  0  0  0  0  0  0
  -30.3120  -22.0410   20.8400 H   0  0  0  0  0  0  0  0  0  0  0  0
  -28.4480  -22.8320   20.9760 C   0  0  0  0  0  2  0  0  0  0  0  0
  -29.1080  -24.2240   20.7320 C   0  0  0  0  0  2  0  0  0  0  0  0
  -28.0780  -25.3620   20.9290 C   0  0  0  0  0  2  0  0  0  0  0  0
  -28.3740  -26.6410   20.3160 O   0  0  0  0  0  0  0  0  0  0  0  0
  -24.6040  -31.9310   23.2590 C   0  0  0  0  0  0  0  0  0  0  0  0
  -27.2570  -27.4520   20.2360 C   0  0  0  0  0  0  0  0  0  0  0  0
  -23.4110  -30.5170   21.6200 C   0  0  0  0  0  3  0  0  0  0  0  0
  -24.8750  -28.9800   20.2070 C   0  0  0  0  0  0  0  0  0  0  0  0
  -25.9410  -30.8700   21.4430 C   0  0  0  0  0  2  0  0  0  0  0  0
  -26.0310  -29.4970   20.8070 C   0  0  0  0  0  0  0  0  0  0  0  0
  -27.2280  -28.7390   20.8220 C   0  0  0  0  0  3  0  0  0  0  0  0
  -26.0930  -26.9760   19.5900 C   0  0  0  0  0  3  0  0  0  0  0  0
  -24.9020  -27.7190   19.5930 C   0  0  0  0  0  3  0  0  0  0  0  0
  -23.6290  -29.8360   20.2440 C   0  0  0  0  0  2  0  0  0  0  0  0
  -24.6700  -31.1210   22.1640 N   0  0  0  0  0  0  0  0  0  0  0  0
  -23.5190  -32.2070   23.7890 O   0  0  0  0  0  0  0  0  0  0  0  0
  -22.7540  -29.5000   22.5810 C   0  0  0  0  0  0  0  0  0  0  0  0
  -21.4290  -29.3200   22.4510 N   0  0  0  0  0  0  0  0  0  0  0  0
  -23.4330  -28.8770   23.4020 O   0  0  0  0  0  0  0  0  0  0  0  0
  -20.9430  -29.8740   21.7590 H   0  0  0  0  0  0  0  0  0  0  0  0
  -18.0480  -28.1460   22.9490 C   0  0  0  0  0  0  0  0  0  0  0  0
  -20.6070  -28.3890   23.2230 C   0  0  0  0  0  3  0  0  0  0  0  0
  -20.7010  -26.9550   22.6510 C   0  0  0  0  0  2  0  0  0  0  0  0
  -19.5980  -26.6370   21.6360 C   0  0  0  0  0  2  0  0  0  0  0  0
  -18.2160  -26.7930   22.2790 C   0  0  0  0  0  2  0  0  0  0  0  0
  -19.1710  -28.9020   23.3800 C   0  0  0  0  0  0  0  0  0  0  0  0
  -18.9600  -30.1690   23.9650 C   0  0  0  0  0  3  0  0  0  0  0  0
  -17.6580  -30.6790   24.1270 C   0  0  0  0  0  3  0  0  0  0  0  0
  -16.5490  -29.9190   23.7140 C   0  0  0  0  0  3  0  0  0  0  0  0
  -16.7450  -28.6550   23.1310 C   0  0  0  0  0  3  0  0  0  0  0  0
  -25.8850  -32.5670   23.8820 C   0  0  0  0  0  3  0  0  0  0  0  0
  -25.5730  -33.9660   24.1980 N   0  0  0  0  0  0  0  0  0  0  0  0
  -25.9120  -35.0120   23.4340 C   0  0  0  0  0  0  0  0  0  0  0  0
  -26.5920  -34.9000   22.4090 O   0  0  0  0  0  0  0  0  0  0  0  0
  -24.9720  -34.1280   24.9940 H   0  0  0  0  0  0  0  0  0  0  0  0
  -24.1890  -36.8020   23.0420 C   0  0  0  0  0  1  0  0  0  0  0  0
  -25.4190  -36.4040   23.8740 C   0  0  0  0  0  3  0  0  0  0  0  0
  -27.5460  -37.2890   24.7240 C   0  0  0  0  0  1  0  0  0  0  0  0
  -26.4530  -37.4560   23.7700 N   0  0  0  0  0  0  0  0  0  0  0  0
  -26.0450  -38.3770   23.9110 H   0  0  0  0  0  0  0  0  0  0  0  0
  -26.3960  -31.8040   25.1660 C   0  0  1  0  0  0  0  0  0  0  0  0
  -25.2990  -31.5750   26.2310 C   0  0  0  0  0  1  0  0  0  0  0  0
  -26.9800  -30.4230   24.7840 C   0  0  0  0  0  1  0  0  0  0  0  0
  -27.5440  -32.6030   25.8260 C   0  0  0  0  0  1  0  0  0  0  0  0
  1  5  1  0
  2  5  2  0
  3  6  2  0
  3  4  1  0
  4  1  2  0
  5 16  1  0
  6  2  1  0
  7  6  1  0
  8 16  1  0
  9 14  1  0
 10 11  1  0
 10  9  1  0
 12 11  1  0
 12 21  1  0
 12 13  1  0
 14  8  1  0
 14 13  1  0
 15  8  2  0
 16 17  1  0
 18 19  2  0
 19 38  1  0
 20 19  1  0
 20 23  1  0
 21 18  1  0
 21 22  1  0
 22 20  2  0
 23 24  1  0
 24 25  2  0
 26 29  1  0
 26 25  1  0
 27 26  2  0
 28 27  1  0
 28 23  2  0
 29 30  1  0
 30 31  1  0
 31 32  2  0
 33 32  1  0
 33 37  1  0
 34 33  2  0
 35 30  2  0
 35 34  1  0
 36 35  1  0
 38 39  1  0
 39 42  1  0
 39 41  1  0
 40 38  2  0
 43 44  1  0
 43 18  1  0
 45 43  1  0
 46  3  1  0
 46 48  2  0
 47 46  1  0
 49 47  1  0
 50 47  1  0
 51  4  1  0
 51 53  1  0
 53 52  1  0
 53 54  1  6
 55 53  1  0
 56 57  1  0
 56 55  1  0
 58 57  1  0
 59 70  2  0
 60 58  1  0
 60 65  1  0
 61 69  1  0
 61 71  1  0
 62 68  1  0
 62 64  1  0
 63 69  1  0
 64 65  2  0
 64 63  1  0
 66 67  1  0
 66 60  2  0
 67 62  2  0
 68 61  1  0
 69 59  1  0
 71 73  2  0
 72 71  1  0
 74 72  1  0
 75 84  2  0
 75 80  1  0
 76 72  1  0
 76 80  1  0
 77 76  1  0
 78 79  1  0
 78 77  1  0
 79 75  1  0
 80 81  2  0
 81 82  1  0
 83 82  2  0
 84 83  1  0
 85 59  1  0
 85 86  1  0
 85 95  1  0
 86 89  1  0
 87 91  1  0
 87 86  1  0
 88 87  2  0
 91 90  1  0
 93 91  1  0
 93 94  1  0
 93 92  1  0
 95 98  1  1
 95 96  1  0
 97 95  1  0
M  ISO  4   8 100  16 100  57 101  58 101
M  END
>  <TORSDO>  (5) 
F 22

>  <SCORE>  (5) 
-13.491

>  <name>  (5) 
4

>  <ligand_id>  (5) 
4

>  <original_smiles>  (5) 
[H]c1c([H])c([H])c2c(c1[H])C([H])([H])C([H])([H])C([H])([H])C2([H])N([H])C(=O)C1([H])N(C(=O)C([H])(N([H])C(=O)C([H])(N([H])C([H])([H])[H])C([H])([H])[H])C(C([H])([H])[H])(C([H])([H])[H])C([H])([H])[H])C([H])([H])c2c([H])c(OC([H])([H])C([H])([H])C([H])([H])[N+]([H])(C([H])([H])[H])C([H])([H])c3c([H])c(N([H])C(=O)N4C([H])([H])C([H])([H])C([H])([H])C([H])(n5nc(-c6c([H])c([H])c(Oc7c([H])c([H])c(F)c([H])c7F)c([H])c6[H])c(C(=O)N([H])[H])c5N([H])[H])C4([H])[H])c([H])c(F)c3C(=O)N([H])[H])c([H])c([H])c2C1([H])[H]

>  <smiles>  (5) 
[H]c1c([H])c([H])c2c(c1[H])C([H])([H])C([H])([H])C([H])([H])C2([H])N([H])C(=O)C1([H])N(C(=O)C([H])(N([H])C(=O)C([H])(N([H])C([H])([H])[H])C([H])([H])[H])C(C([H])([H])[H])(C([H])([H])[H])C([H])([H])[H])C([H])([H])c2c([H])c(OC([H])([H])C([H])([H])C([H])([H])[N+]([H])(C([H])([H])[H])C([H])([H])c3c([H])c(N([H])C(=O)N4C([H])([H])C([H])([H])C([H])([H])C([H])(n5nc(-c6c([H])c([H])c(Oc7c([H])c([H])c(F)c([H])c7F)c([H])c6[H])c(C(=O)N([H])[H])c5N([H])[H])C4([H])[H])c([H])c(F)c3C(=O)N([H])[H])c([H])c([H])c2C1([H])[H]

$$$$
5:0:0
     RDKit          3D

 93102  0  0  1  0  0  0  0  0999 V2000
  -29.1770  -24.3130   20.5090 C   0  0  0  0  0  0  0  0  0  0  0  0
  -29.8020  -22.0140   22.8380 C   0  0  0  0  0  2  0  0  0  0  0  0
  -28.8560  -23.2030   22.7030 C   0  0  0  0  0  2  0  0  0  0  0  0
  -30.1250  -22.0940   21.3340 C   0  0  0  0  0  3  0  0  0  0  0  0
  -29.0610  -23.1220   21.2610 N   0  0  0  0  0  0  0  0  0  0  0  0
  -29.9470  -24.3830   19.5470 O   0  0  0  0  0  0  0  0  0  0  0  0
  -29.8410  -20.7400   20.6100 C   0  0  0  0  0  0  0  0  0  0  0  0
  -31.8030  -19.6950   21.7250 C   0  0  0  0  0  1  0  0  0  0  0  0
  -30.5740  -19.6220   20.9220 N   0  0  0  0  0  0  0  0  0  0  0  0
  -28.9200  -20.7060   19.7880 O   0  0  0  0  0  0  0  0  0  0  0  0
  -30.8290  -14.6210   20.2360 C   0  0  0  0  0  0  0  0  0  0  0  0
  -30.4630  -12.4210   19.1650 C   0  0  0  0  0  2  0  0  0  0  0  0
  -29.5020  -12.5530   17.9660 C   0  0  0  0  0  2  0  0  0  0  0  0
  -28.0430  -12.3900   18.4280 C   0  0  0  0  0  2  0  0  0  0  0  0
  -27.7090  -13.2670   19.6620 C   0  0  0  0  0  3  0  0  0  0  0  0
  -28.7980  -13.1390   20.7590 C   0  0  0  0  0  2  0  0  0  0  0  0
  -30.0910  -13.4670   20.1420 N   0  0  0  0  0  0  0  0  0  0  0  0
  -31.9990  -14.6330   19.8470 O   0  0  0  0  0  0  0  0  0  0  0  0
  -28.8450  -17.7760   20.7510 C   0  0  0  0  0  2  0  0  0  0  0  0
  -28.8910  -16.2720   20.4560 C   0  0  0  0  0  2  0  0  0  0  0  0
  -31.0850  -17.0400   20.8320 C   0  0  0  0  0  2  0  0  0  0  0  0
  -30.2360  -18.2670   20.3750 C   0  0  0  0  0  3  0  0  0  0  0  0
  -30.2700  -15.8080   20.6560 N   0  0  0  0  0  0  0  0  0  0  0  0
  -25.3380  -13.9060   20.4220 C   0  0  0  0  0  0  0  0  0  0  0  0
  -24.2700  -13.1440   20.8090 C   0  0  0  0  0  0  0  0  0  0  0  0
  -24.7190  -11.7880   20.7710 C   0  0  0  0  0  0  0  0  0  0  0  0
  -26.3700  -13.0110   20.1750 N   0  0  0  0  0  0  0  0  0  0  0  0
  -26.0040  -11.7350   20.4450 N   0  0  0  0  0  0  0  0  0  0  0  0
  -23.9870  -10.5330   20.9690 C   0  0  0  0  0  0  0  0  0  0  0  0
  -24.4090   -9.5760   21.9170 C   0  0  0  0  0  3  0  0  0  0  0  0
  -23.6790   -8.3820   22.1000 C   0  0  0  0  0  3  0  0  0  0  0  0
  -22.5140   -8.1380   21.3360 C   0  0  0  0  0  0  0  0  0  0  0  0
  -22.1110   -9.0840   20.3760 C   0  0  0  0  0  3  0  0  0  0  0  0
  -22.8430  -10.2700   20.1920 C   0  0  0  0  0  3  0  0  0  0  0  0
  -21.7570   -6.9970   21.4300 O   0  0  0  0  0  0  0  0  0  0  0  0
  -21.6680   -6.2860   22.6000 C   0  0  0  0  0  0  0  0  0  0  0  0
  -21.1710   -6.8660   23.7880 C   0  0  0  0  0  3  0  0  0  0  0  0
  -21.0310   -6.0790   24.9490 C   0  0  0  0  0  3  0  0  0  0  0  0
  -21.3800   -4.7160   24.9230 C   0  0  0  0  0  0  0  0  0  0  0  0
  -21.8700   -4.1360   23.7400 C   0  0  0  0  0  3  0  0  0  0  0  0
  -22.0120   -4.9190   22.5810 C   0  0  0  0  0  0  0  0  0  0  0  0
  -22.4660   -4.3500   21.4370 F   0  0  0  0  0  0  0  0  0  0  0  0
  -21.2390   -3.9590   26.0370 F   0  0  0  0  0  0  0  0  0  0  0  0
  -22.8820  -13.6350   21.1000 C   0  0  0  0  0  0  0  0  0  0  0  0
  -22.1570  -12.9430   21.9720 N   0  0  0  0  0  0  0  0  0  0  0  0
  -22.4480  -14.6650   20.5890 O   0  0  0  0  0  0  0  0  0  0  0  0
  -22.5220  -12.1110   22.4110 H   0  0  0  0  0  0  0  0  0  0  0  0
  -21.2240  -13.2540   22.2040 H   0  0  0  0  0  0  0  0  0  0  0  0
  -25.5050  -15.2740   20.2340 N   0  0  0  0  0  0  0  0  0  0  0  0
  -24.7380  -15.9270   20.3510 H   0  0  0  0  0  0  0  0  0  0  0  0
  -26.3420  -15.7110   19.8710 H   0  0  0  0  0  0  0  0  0  0  0  0
  -28.3920  -25.5630   21.0060 C   0  0  0  0  0  2  0  0  0  0  0  0
  -28.4920  -26.7130   20.1330 O   0  0  0  0  0  0  0  0  0  0  0  0
  -24.5420  -31.8500   23.1500 C   0  0  0  0  0  0  0  0  0  0  0  0
  -27.3400  -27.4730   20.1040 C   0  0  0  0  0  0  0  0  0  0  0  0
  -23.4000  -30.4360   21.4730 C   0  0  0  0  0  3  0  0  0  0  0  0
  -24.9180  -28.9380   20.0680 C   0  0  0  0  0  0  0  0  0  0  0  0
  -25.9240  -30.8460   21.3310 C   0  0  0  0  0  2  0  0  0  0  0  0
  -26.0530  -29.4800   20.6850 C   0  0  0  0  0  0  0  0  0  0  0  0
  -27.2700  -28.7550   20.6980 C   0  0  0  0  0  3  0  0  0  0  0  0
  -26.1900  -26.9500   19.4750 C   0  0  0  0  0  3  0  0  0  0  0  0
  -24.9820  -27.6720   19.4580 C   0  0  0  0  0  3  0  0  0  0  0  0
  -23.6550  -29.7710   20.0940 C   0  0  0  0  0  2  0  0  0  0  0  0
  -24.6390  -31.0590   22.0440 N   0  0  0  0  0  0  0  0  0  0  0  0
  -23.4450  -32.0980   23.6690 O   0  0  0  0  0  0  0  0  0  0  0  0
  -22.7480  -29.3980   22.4130 C   0  0  0  0  0  0  0  0  0  0  0  0
  -21.4240  -29.2160   22.2810 N   0  0  0  0  0  0  0  0  0  0  0  0
  -23.4300  -28.7560   23.2170 O   0  0  0  0  0  0  0  0  0  0  0  0
  -20.9340  -29.7870   21.6060 H   0  0  0  0  0  0  0  0  0  0  0  0
  -18.0450  -28.0250   22.7660 C   0  0  0  0  0  0  0  0  0  0  0  0
  -20.6060  -28.2630   23.0310 C   0  0  0  0  0  3  0  0  0  0  0  0
  -20.6990  -26.8470   22.4170 C   0  0  0  0  0  2  0  0  0  0  0  0
  -19.5890  -26.5560   21.4010 C   0  0  0  0  0  2  0  0  0  0  0  0
  -18.2120  -26.6930   22.0550 C   0  0  0  0  0  2  0  0  0  0  0  0
  -19.1700  -28.7700   23.2100 C   0  0  0  0  0  0  0  0  0  0  0  0
  -18.9610  -30.0190   23.8340 C   0  0  0  0  0  3  0  0  0  0  0  0
  -17.6600  -30.5230   24.0180 C   0  0  0  0  0  3  0  0  0  0  0  0
  -16.5500  -29.7750   23.5910 C   0  0  0  0  0  3  0  0  0  0  0  0
  -16.7430  -28.5270   22.9710 C   0  0  0  0  0  3  0  0  0  0  0  0
  -25.8030  -32.5020   23.8020 C   0  0  0  0  0  3  0  0  0  0  0  0
  -25.4590  -33.8900   24.1400 N   0  0  0  0  0  0  0  0  0  0  0  0
  -25.7810  -34.9560   23.3930 C   0  0  0  0  0  0  0  0  0  0  0  0
  -26.4680  -34.8740   22.3710 O   0  0  0  0  0  0  0  0  0  0  0  0
  -24.8510  -34.0250   24.9330 H   0  0  0  0  0  0  0  0  0  0  0  0
  -24.0240  -36.7160   23.0200 C   0  0  0  0  0  1  0  0  0  0  0  0
  -25.2560  -36.3290   23.8530 C   0  0  0  0  0  3  0  0  0  0  0  0
  -27.3530  -37.2500   24.7390 C   0  0  0  0  0  1  0  0  0  0  0  0
  -26.2700  -37.4040   23.7720 N   0  0  0  0  0  0  0  0  0  0  0  0
  -25.8410  -38.3140   23.9170 H   0  0  0  0  0  0  0  0  0  0  0  0
  -26.3140  -31.7280   25.0790 C   0  0  1  0  0  0  0  0  0  0  0  0
  -25.2060  -31.4540   26.1240 C   0  0  0  0  0  1  0  0  0  0  0  0
  -26.9350  -30.3690   24.6800 C   0  0  0  0  0  1  0  0  0  0  0  0
  -27.4340  -32.5390   25.7710 C   0  0  0  0  0  1  0  0  0  0  0  0
  1 52  1  0
  1  5  1  0
  3  2  1  0
  4  7  1  0
  4  2  1  0
  5  4  1  0
  5  3  1  0
  6  1  2  0
  7  9  1  0
  9  8  1  0
 10  7  2  0
 11 23  1  0
 12 17  1  0
 13 14  1  0
 13 12  1  0
 15 14  1  0
 15 27  1  0
 15 16  1  0
 17 11  1  0
 17 16  1  0
 18 11  2  0
 20 23  1  0
 20 19  1  0
 22 19  1  0
 22 21  1  0
 22  9  1  0
 23 21  1  0
 24 25  2  0
 25 44  1  0
 26 25  1  0
 26 29  1  0
 27 24  1  0
 27 28  1  0
 28 26  2  0
 29 30  1  0
 30 31  2  0
 32 35  1  0
 32 31  1  0
 33 32  2  0
 34 33  1  0
 34 29  2  0
 35 36  1  0
 36 37  1  0
 37 38  2  0
 39 38  1  0
 39 43  1  0
 40 39  2  0
 41 36  2  0
 41 40  1  0
 42 41  1  0
 44 45  1  0
 45 48  1  0
 45 47  1  0
 46 44  2  0
 49 50  1  0
 49 24  1  0
 51 49  1  0
 53 52  1  0
 54 65  2  0
 55 53  1  0
 55 60  1  0
 56 64  1  0
 56 66  1  0
 57 63  1  0
 57 59  1  0
 58 64  1  0
 59 60  2  0
 59 58  1  0
 61 55  2  0
 62 61  1  0
 62 57  2  0
 63 56  1  0
 64 54  1  0
 66 68  2  0
 67 66  1  0
 69 67  1  0
 70 79  2  0
 70 75  1  0
 71 67  1  0
 71 75  1  0
 72 71  1  0
 73 74  1  0
 73 72  1  0
 74 70  1  0
 75 76  2  0
 76 77  1  0
 78 77  2  0
 79 78  1  0
 80 54  1  0
 80 81  1  0
 80 90  1  0
 81 84  1  0
 82 86  1  0
 82 81  1  0
 83 82  2  0
 86 85  1  0
 88 86  1  0
 88 89  1  0
 88 87  1  0
 90 93  1  1
 90 91  1  0
 92 90  1  0
M  ISO  4  11 100  23 100  52 101  53 101
M  END
>  <TORSDO>  (6) 
F 18

>  <SCORE>  (6) 
-14.919

>  <name>  (6) 
5

>  <ligand_id>  (6) 
5

>  <original_smiles>  (6) 
[H]c1c([H])c([H])c2c(c1[H])C([H])([H])C([H])([H])C([H])([H])C2([H])N([H])C(=O)C1([H])N(C(=O)C([H])(N([H])C(=O)C([H])(N([H])C([H])([H])[H])C([H])([H])[H])C(C([H])([H])[H])(C([H])([H])[H])C([H])([H])[H])C([H])([H])c2c([H])c(OC([H])([H])C(=O)N3C([H])([H])C([H])([H])C3([H])C(=O)N(C([H])([H])[H])C3([H])C([H])([H])N(C(=O)N4C([H])([H])C([H])([H])C([H])([H])C([H])(n5nc(-c6c([H])c([H])c(Oc7c([H])c([H])c(F)c([H])c7F)c([H])c6[H])c(C(=O)N([H])[H])c5N([H])[H])C4([H])[H])C([H])([H])C3([H])[H])c([H])c([H])c2C1([H])[H]

>  <smiles>  (6) 
[H]c1c([H])c([H])c2c(c1[H])C([H])([H])C([H])([H])C([H])([H])C2([H])N([H])C(=O)C1([H])N(C(=O)C([H])(N([H])C(=O)C([H])(N([H])C([H])([H])[H])C([H])([H])[H])C(C([H])([H])[H])(C([H])([H])[H])C([H])([H])[H])C([H])([H])c2c([H])c(OC([H])([H])C(=O)N3C([H])([H])C([H])([H])C3([H])C(=O)N(C([H])([H])[H])C3([H])C([H])([H])N(C(=O)N4C([H])([H])C([H])([H])C([H])([H])C([H])(n5nc(-c6c([H])c([H])c(Oc7c([H])c([H])c(F)c([H])c7F)c([H])c6[H])c(C(=O)N([H])[H])c5N([H])[H])C4([H])[H])C([H])([H])C3([H])[H])c([H])c([H])c2C1([H])[H]

$$$$
6:0:0
     RDKit          3D

 94103  0  0  1  0  0  0  0  0999 V2000
  -29.1640  -21.9760   20.1600 C   0  0  0  0  0  2  0  0  0  0  0  0
  -31.0980  -21.8670   21.7140 C   0  0  0  0  0  2  0  0  0  0  0  0
  -29.3990  -23.4980   19.9760 C   0  0  0  0  0  2  0  0  0  0  0  0
  -31.3390  -23.3760   21.5090 C   0  0  0  0  0  2  0  0  0  0  0  0
  -30.4850  -21.2440   20.4540 C   0  0  0  0  0  3  0  0  0  0  0  0
  -30.1040  -24.1250   21.1330 N   0  0  1  0  0  4  0  0  0  0  0  0
  -29.4840  -24.0640   21.9290 H   0  0  0  0  0  0  0  0  0  0  0  0
  -31.0980  -18.9170   19.6320 C   0  0  0  0  0  3  0  0  0  0  0  0
  -29.5680  -19.0780   21.5100 C   0  0  0  0  0  3  0  0  0  0  0  0
  -31.0330  -17.5100   19.6960 C   0  0  0  0  0  3  0  0  0  0  0  0
  -29.5060  -17.6670   21.5750 C   0  0  0  0  0  3  0  0  0  0  0  0
  -30.3680  -19.7180   20.5370 C   0  0  0  0  0  0  0  0  0  0  0  0
  -30.2410  -16.8610   20.6750 C   0  0  0  0  0  0  0  0  0  0  0  0
  -30.7500  -14.4650   20.1000 C   0  0  0  0  0  0  0  0  0  0  0  0
  -30.3810  -12.3400   18.9120 C   0  0  0  0  0  2  0  0  0  0  0  0
  -29.3720  -12.5870   17.7730 C   0  0  0  0  0  2  0  0  0  0  0  0
  -27.9250  -12.4350   18.2840 C   0  0  0  0  0  2  0  0  0  0  0  0
  -27.6650  -13.2340   19.5890 C   0  0  0  0  0  3  0  0  0  0  0  0
  -28.7810  -12.9740   20.6250 C   0  0  0  0  0  2  0  0  0  0  0  0
  -30.0750  -13.2900   19.9930 N   0  0  0  0  0  0  0  0  0  0  0  0
  -31.8390  -14.6530   19.5490 O   0  0  0  0  0  0  0  0  0  0  0  0
  -30.1020  -15.4380   20.7740 N   0  0  0  0  0  0  0  0  0  0  0  0
  -29.3030  -15.1150   21.2980 H   0  0  0  0  0  0  0  0  0  0  0  0
  -25.3130  -13.8170   20.4570 C   0  0  0  0  0  0  0  0  0  0  0  0
  -24.2670  -13.0320   20.8660 C   0  0  0  0  0  0  0  0  0  0  0  0
  -24.7250  -11.6820   20.7660 C   0  0  0  0  0  0  0  0  0  0  0  0
  -26.3410  -12.9440   20.1380 N   0  0  0  0  0  0  0  0  0  0  0  0
  -25.9930  -11.6540   20.3780 N   0  0  0  0  0  0  0  0  0  0  0  0
  -24.0110  -10.4140   20.9610 C   0  0  0  0  0  0  0  0  0  0  0  0
  -24.4570   -9.4520   21.8930 C   0  0  0  0  0  3  0  0  0  0  0  0
  -23.7440   -8.2470   22.0750 C   0  0  0  0  0  3  0  0  0  0  0  0
  -22.5700   -7.9980   21.3260 C   0  0  0  0  0  0  0  0  0  0  0  0
  -22.1430   -8.9490   20.3820 C   0  0  0  0  0  3  0  0  0  0  0  0
  -22.8580  -10.1440   20.1980 C   0  0  0  0  0  3  0  0  0  0  0  0
  -21.8270   -6.8450   21.4170 O   0  0  0  0  0  0  0  0  0  0  0  0
  -21.7270   -6.1450   22.5930 C   0  0  0  0  0  0  0  0  0  0  0  0
  -21.2180   -6.7350   23.7700 C   0  0  0  0  0  3  0  0  0  0  0  0
  -21.0680   -5.9590   24.9380 C   0  0  0  0  0  3  0  0  0  0  0  0
  -21.4150   -4.5950   24.9270 C   0  0  0  0  0  0  0  0  0  0  0  0
  -21.9160   -4.0040   23.7530 C   0  0  0  0  0  3  0  0  0  0  0  0
  -22.0690   -4.7770   22.5890 C   0  0  0  0  0  0  0  0  0  0  0  0
  -22.5320   -4.1990   21.4550 F   0  0  0  0  0  0  0  0  0  0  0  0
  -21.2640   -3.8470   26.0440 F   0  0  0  0  0  0  0  0  0  0  0  0
  -22.8900  -13.4990   21.2390 C   0  0  0  0  0  0  0  0  0  0  0  0
  -22.2180  -12.7770   22.1280 N   0  0  0  0  0  0  0  0  0  0  0  0
  -22.4200  -14.5380   20.7770 O   0  0  0  0  0  0  0  0  0  0  0  0
  -22.6120  -11.9360   22.5230 H   0  0  0  0  0  0  0  0  0  0  0  0
  -21.2960  -13.0690   22.4190 H   0  0  0  0  0  0  0  0  0  0  0  0
  -25.4690  -15.1920   20.3140 N   0  0  0  0  0  0  0  0  0  0  0  0
  -24.7110  -15.8440   20.4880 H   0  0  0  0  0  0  0  0  0  0  0  0
  -26.3030  -15.6410   19.9580 H   0  0  0  0  0  0  0  0  0  0  0  0
  -30.4090  -25.5760   20.9200 C   0  0  0  0  0  2  0  0  0  0  0  0
  -29.2210  -26.5450   21.1160 C   0  0  0  0  0  2  0  0  0  0  0  0
  -28.4430  -26.6450   19.9250 O   0  0  0  0  0  0  0  0  0  0  0  0
  -24.5860  -31.7560   23.1370 C   0  0  0  0  0  0  0  0  0  0  0  0
  -27.2990  -27.4090   19.9950 C   0  0  0  0  0  0  0  0  0  0  0  0
  -23.3970  -30.3620   21.4720 C   0  0  0  0  0  3  0  0  0  0  0  0
  -24.8740  -28.8650   20.0260 C   0  0  0  0  0  0  0  0  0  0  0  0
  -25.9120  -30.7630   21.2770 C   0  0  0  0  0  2  0  0  0  0  0  0
  -26.0190  -29.4000   20.6280 C   0  0  0  0  0  0  0  0  0  0  0  0
  -27.2330  -28.6790   20.6200 C   0  0  0  0  0  3  0  0  0  0  0  0
  -26.1410  -26.8930   19.3790 C   0  0  0  0  0  3  0  0  0  0  0  0
  -24.9280  -27.6070   19.4010 C   0  0  0  0  0  3  0  0  0  0  0  0
  -23.6150  -29.7030   20.0830 C   0  0  0  0  0  2  0  0  0  0  0  0
  -24.6500  -30.9750   22.0210 N   0  0  0  0  0  0  0  0  0  0  0  0
  -23.5030  -32.0050   23.6840 O   0  0  0  0  0  0  0  0  0  0  0  0
  -22.7610  -29.3190   22.4180 C   0  0  0  0  0  0  0  0  0  0  0  0
  -21.4370  -29.1290   22.2960 N   0  0  0  0  0  0  0  0  0  0  0  0
  -23.4550  -28.6830   23.2150 O   0  0  0  0  0  0  0  0  0  0  0  0
  -20.9380  -29.6950   21.6240 H   0  0  0  0  0  0  0  0  0  0  0  0
  -18.0740  -27.9070   22.7910 C   0  0  0  0  0  0  0  0  0  0  0  0
  -20.6320  -28.1710   23.0530 C   0  0  0  0  0  3  0  0  0  0  0  0
  -20.7380  -26.7530   22.4450 C   0  0  0  0  0  2  0  0  0  0  0  0
  -19.6320  -26.4470   21.4320 C   0  0  0  0  0  2  0  0  0  0  0  0
  -18.2540  -26.5720   22.0880 C   0  0  0  0  0  2  0  0  0  0  0  0
  -19.1910  -28.6640   23.2310 C   0  0  0  0  0  0  0  0  0  0  0  0
  -18.9720  -29.9150   23.8470 C   0  0  0  0  0  3  0  0  0  0  0  0
  -17.6660  -30.4080   24.0310 C   0  0  0  0  0  3  0  0  0  0  0  0
  -16.5620  -29.6460   23.6090 C   0  0  0  0  0  3  0  0  0  0  0  0
  -16.7670  -28.3970   22.9950 C   0  0  0  0  0  3  0  0  0  0  0  0
  -25.8660  -32.3920   23.7640 C   0  0  0  0  0  3  0  0  0  0  0  0
  -26.4090  -31.5940   25.0130 C   0  0  1  0  0  0  0  0  0  0  0  0
  -25.3310  -31.3070   26.0840 C   0  0  0  0  0  1  0  0  0  0  0  0
  -27.0130  -30.2390   24.5740 C   0  0  0  0  0  1  0  0  0  0  0  0
  -27.5520  -32.3900   25.6860 C   0  0  0  0  0  1  0  0  0  0  0  0
  -25.5380  -33.7750   24.1320 N   0  0  0  0  0  0  0  0  0  0  0  0
  -25.8370  -34.8500   23.3910 C   0  0  0  0  0  0  0  0  0  0  0  0
  -26.4910  -34.7820   22.3450 O   0  0  0  0  0  0  0  0  0  0  0  0
  -24.9530  -33.9010   24.9450 H   0  0  0  0  0  0  0  0  0  0  0  0
  -24.0640  -36.6110   23.1050 C   0  0  0  0  0  1  0  0  0  0  0  0
  -25.3280  -36.2170   23.8860 C   0  0  0  0  0  3  0  0  0  0  0  0
  -27.4610  -37.1290   24.6930 C   0  0  0  0  0  1  0  0  0  0  0  0
  -26.3360  -37.2950   23.7770 N   0  0  0  0  0  0  0  0  0  0  0  0
  -25.9130  -38.2010   23.9580 H   0  0  0  0  0  0  0  0  0  0  0  0
  1  5  1  0
  3  1  1  0
  3  6  1  0
  4  2  1  0
  5 12  1  0
  5  2  1  0
  6  4  1  0
  6  7  1  1
  8 10  2  0
  8 12  1  0
  9 11  1  0
 10 13  1  0
 12  9  2  0
 13 22  1  0
 13 11  2  0
 14 22  1  0
 15 20  1  0
 16 17  1  0
 16 15  1  0
 18 17  1  0
 18 27  1  0
 18 19  1  0
 20 14  1  0
 20 19  1  0
 21 14  2  0
 22 23  1  0
 24 25  2  0
 25 44  1  0
 26 25  1  0
 26 29  1  0
 27 28  1  0
 27 24  1  0
 28 26  2  0
 29 30  1  0
 30 31  2  0
 32 35  1  0
 32 31  1  0
 33 32  2  0
 34 33  1  0
 34 29  2  0
 35 36  1  0
 36 37  1  0
 37 38  2  0
 39 38  1  0
 39 43  1  0
 40 39  2  0
 41 36  2  0
 41 40  1  0
 42 41  1  0
 44 45  1  0
 45 48  1  0
 45 47  1  0
 46 44  2  0
 49 24  1  0
 49 50  1  0
 51 49  1  0
 52 53  1  0
 52  6  1  0
 54 56  1  0
 54 53  1  0
 55 66  2  0
 56 61  1  0
 57 65  1  0
 57 67  1  0
 58 64  1  0
 58 60  1  0
 59 65  1  0
 60 59  1  0
 61 60  2  0
 62 63  1  0
 62 56  2  0
 63 58  2  0
 64 57  1  0
 65 55  1  0
 67 69  2  0
 68 67  1  0
 70 68  1  0
 71 80  2  0
 71 76  1  0
 72 68  1  0
 72 76  1  0
 73 72  1  0
 74 75  1  0
 74 73  1  0
 75 71  1  0
 76 77  2  0
 77 78  1  0
 79 78  2  0
 80 79  1  0
 81 55  1  0
 81 86  1  0
 81 82  1  0
 82 85  1  1
 82 83  1  0
 84 82  1  0
 86 89  1  0
 87 91  1  0
 87 86  1  0
 88 87  2  0
 91 90  1  0
 93 91  1  0
 93 94  1  0
 93 92  1  0
M  ISO  4  14 100  22 100  53 101  54 101
M  END
>  <TORSDO>  (7) 
F 19

>  <SCORE>  (7) 
-13.133

>  <name>  (7) 
6

>  <ligand_id>  (7) 
6

>  <original_smiles>  (7) 
[H]c1c([H])c([H])c2c(c1[H])C([H])([H])C([H])([H])C([H])([H])C2([H])N([H])C(=O)C1([H])N(C(=O)C([H])(N([H])C(=O)C([H])(N([H])C([H])([H])[H])C([H])([H])[H])C(C([H])([H])[H])(C([H])([H])[H])C([H])([H])[H])C([H])([H])c2c([H])c(OC([H])([H])C([H])([H])[N+]3([H])C([H])([H])C([H])([H])C([H])(c4c([H])c([H])c(N([H])C(=O)N5C([H])([H])C([H])([H])C([H])([H])C([H])(n6nc(-c7c([H])c([H])c(Oc8c([H])c([H])c(F)c([H])c8F)c([H])c7[H])c(C(=O)N([H])[H])c6N([H])[H])C5([H])[H])c([H])c4[H])C([H])([H])C3([H])[H])c([H])c([H])c2C1([H])[H]

>  <smiles>  (7) 
[H]c1c([H])c([H])c2c(c1[H])C([H])([H])C([H])([H])C([H])([H])C2([H])N([H])C(=O)C1([H])N(C(=O)C([H])(N([H])C(=O)C([H])(N([H])C([H])([H])[H])C([H])([H])[H])C(C([H])([H])[H])(C([H])([H])[H])C([H])([H])[H])C([H])([H])c2c([H])c(OC([H])([H])C([H])([H])[N+]3([H])C([H])([H])C([H])([H])C([H])(c4c([H])c([H])c(N([H])C(=O)N5C([H])([H])C([H])([H])C([H])([H])C([H])(n6nc(-c7c([H])c([H])c(Oc8c([H])c([H])c(F)c([H])c8F)c([H])c7[H])c(C(=O)N([H])[H])c6N([H])[H])C5([H])[H])c([H])c4[H])C([H])([H])C3([H])[H])c([H])c([H])c2C1([H])[H]

$$$$
7:0:0
     RDKit          3D

101109  0  0  1  0  0  0  0  0999 V2000
  -29.4510  -22.8690   18.4580 C   0  0  0  0  0  2  0  0  0  0  0  0
  -29.1730  -21.6590   20.6080 C   0  0  0  0  0  1  0  0  0  0  0  0
  -29.7440  -21.6270   19.2360 N   0  0  1  0  0  4  0  0  0  0  0  0
  -30.7470  -21.5650   19.3400 H   0  0  0  0  0  0  0  0  0  0  0  0
  -29.3560  -20.3990   18.4920 C   0  0  0  0  0  2  0  0  0  0  0  0
  -28.5510  -18.3720   19.8000 C   0  0  0  0  0  3  0  0  0  0  0  0
  -31.1950  -17.4500   20.1120 C   0  0  0  0  0  3  0  0  0  0  0  0
  -29.6240  -19.1180   19.2660 C   0  0  0  0  0  0  0  0  0  0  0  0
  -30.1100  -16.6670   20.5750 C   0  0  0  0  0  0  0  0  0  0  0  0
  -28.7980  -17.1550   20.4570 C   0  0  0  0  0  0  0  0  0  0  0  0
  -30.9470  -18.6690   19.4500 C   0  0  0  0  0  0  0  0  0  0  0  0
  -27.7710  -16.4230   20.9440 F   0  0  0  0  0  0  0  0  0  0  0  0
  -31.9780  -19.4150   18.9880 F   0  0  0  0  0  0  0  0  0  0  0  0
  -30.8510  -14.3960   20.4180 C   0  0  0  0  0  0  0  0  0  0  0  0
  -30.4800  -12.2890   19.2220 C   0  0  0  0  0  2  0  0  0  0  0  0
  -29.5460  -12.5500   18.0250 C   0  0  0  0  0  2  0  0  0  0  0  0
  -28.0730  -12.4220   18.4530 C   0  0  0  0  0  2  0  0  0  0  0  0
  -27.7410  -13.2390   19.7310 C   0  0  0  0  0  3  0  0  0  0  0  0
  -28.7970  -12.9860   20.8350 C   0  0  0  0  0  2  0  0  0  0  0  0
  -30.1350  -13.2520   20.2770 N   0  0  0  0  0  0  0  0  0  0  0  0
  -31.9440  -14.5810   19.8760 O   0  0  0  0  0  0  0  0  0  0  0  0
  -30.2520  -15.3650   21.1130 N   0  0  0  0  0  0  0  0  0  0  0  0
  -29.4340  -15.0510   21.6100 H   0  0  0  0  0  0  0  0  0  0  0  0
  -25.3270  -13.8340   20.4110 C   0  0  0  0  0  0  0  0  0  0  0  0
  -24.2610  -13.0580   20.7770 C   0  0  0  0  0  0  0  0  0  0  0  0
  -24.7330  -11.7090   20.7600 C   0  0  0  0  0  0  0  0  0  0  0  0
  -26.3830  -12.9600   20.2000 N   0  0  0  0  0  0  0  0  0  0  0  0
  -26.0260  -11.6770   20.4630 N   0  0  0  0  0  0  0  0  0  0  0  0
  -24.0130  -10.4440   20.9590 C   0  0  0  0  0  0  0  0  0  0  0  0
  -24.4320   -9.5010   21.9230 C   0  0  0  0  0  3  0  0  0  0  0  0
  -23.7140   -8.3000   22.1090 C   0  0  0  0  0  3  0  0  0  0  0  0
  -22.5630   -8.0320   21.3300 C   0  0  0  0  0  0  0  0  0  0  0  0
  -22.1630   -8.9660   20.3590 C   0  0  0  0  0  3  0  0  0  0  0  0
  -22.8810  -10.1580   20.1710 C   0  0  0  0  0  3  0  0  0  0  0  0
  -21.8220   -6.8810   21.4210 O   0  0  0  0  0  0  0  0  0  0  0  0
  -21.7350   -6.1710   22.5920 C   0  0  0  0  0  0  0  0  0  0  0  0
  -21.2320   -6.7490   23.7770 C   0  0  0  0  0  3  0  0  0  0  0  0
  -21.0910   -5.9640   24.9400 C   0  0  0  0  0  3  0  0  0  0  0  0
  -21.4450   -4.6020   24.9170 C   0  0  0  0  0  0  0  0  0  0  0  0
  -21.9410   -4.0230   23.7350 C   0  0  0  0  0  3  0  0  0  0  0  0
  -22.0840   -4.8050   22.5760 C   0  0  0  0  0  0  0  0  0  0  0  0
  -22.5410   -4.2380   21.4340 F   0  0  0  0  0  0  0  0  0  0  0  0
  -21.3040   -3.8460   26.0290 F   0  0  0  0  0  0  0  0  0  0  0  0
  -22.8620  -13.5300   21.0460 C   0  0  0  0  0  0  0  0  0  0  0  0
  -22.1360  -12.8370   21.9170 N   0  0  0  0  0  0  0  0  0  0  0  0
  -22.4200  -14.5510   20.5210 O   0  0  0  0  0  0  0  0  0  0  0  0
  -22.5070  -12.0140   22.3690 H   0  0  0  0  0  0  0  0  0  0  0  0
  -21.1980  -13.1400   22.1370 H   0  0  0  0  0  0  0  0  0  0  0  0
  -25.4760  -15.2030   20.2270 N   0  0  0  0  0  0  0  0  0  0  0  0
  -24.7160  -15.8500   20.3930 H   0  0  0  0  0  0  0  0  0  0  0  0
  -26.3790  -15.6640   20.1680 H   0  0  0  0  0  0  0  0  0  0  0  0
  -30.2370  -24.6920   16.9220 C   0  0  0  0  0  1  0  0  0  0  0  0
  -31.7020  -22.7360   17.2730 C   0  0  0  0  0  1  0  0  0  0  0  0
  -30.7050  -23.6780   17.9900 C   0  0  2  0  0  0  0  0  0  0  0  0
  -31.4740  -24.4060   19.1450 C   0  0  0  0  0  2  0  0  0  0  0  0
  -31.0780  -25.2160   21.4390 C   0  0  0  0  0  1  0  0  0  0  0  0
  -30.6760  -25.3290   20.0120 N   0  0  1  0  0  4  0  0  0  0  0  0
  -29.7090  -25.0470   19.9670 H   0  0  0  0  0  0  0  0  0  0  0  0
  -30.6920  -26.7480   19.5520 C   0  0  0  0  0  2  0  0  0  0  0  0
  -29.5230  -27.5680   20.1230 C   0  0  0  0  0  2  0  0  0  0  0  0
  -28.2840  -26.9060   19.8420 O   0  0  0  0  0  0  0  0  0  0  0  0
  -24.5000  -31.9680   23.2190 C   0  0  0  0  0  0  0  0  0  0  0  0
  -27.1190  -27.6330   19.9880 C   0  0  0  0  0  0  0  0  0  0  0  0
  -23.2520  -30.5790   21.5920 C   0  0  0  0  0  3  0  0  0  0  0  0
  -24.6770  -29.0660   20.1110 C   0  0  0  0  0  0  0  0  0  0  0  0
  -25.7580  -30.9700   21.3200 C   0  0  0  0  0  2  0  0  0  0  0  0
  -25.8390  -29.6060   20.6740 C   0  0  0  0  0  0  0  0  0  0  0  0
  -27.0530  -28.8950   20.6270 C   0  0  0  0  0  3  0  0  0  0  0  0
  -25.9350  -27.0890   19.4460 C   0  0  0  0  0  3  0  0  0  0  0  0
  -24.7170  -27.7990   19.5010 C   0  0  0  0  0  3  0  0  0  0  0  0
  -23.4270  -29.9100   20.1990 C   0  0  0  0  0  2  0  0  0  0  0  0
  -24.5220  -31.1870   22.1030 N   0  0  0  0  0  0  0  0  0  0  0  0
  -23.4350  -32.2270   23.7960 O   0  0  0  0  0  0  0  0  0  0  0  0
  -22.6370  -29.5430   22.5580 C   0  0  0  0  0  0  0  0  0  0  0  0
  -21.3160  -29.3360   22.4480 N   0  0  0  0  0  0  0  0  0  0  0  0
  -23.3450  -28.9280   23.3610 O   0  0  0  0  0  0  0  0  0  0  0  0
  -20.8070  -29.8840   21.7690 H   0  0  0  0  0  0  0  0  0  0  0  0
  -17.9760  -28.0590   22.9590 C   0  0  0  0  0  0  0  0  0  0  0  0
  -20.5270  -28.3810   23.2240 C   0  0  0  0  0  3  0  0  0  0  0  0
  -20.6640  -26.9520   22.6520 C   0  0  0  0  0  2  0  0  0  0  0  0
  -19.5670  -26.5990   21.6420 C   0  0  0  0  0  2  0  0  0  0  0  0
  -18.1840  -26.7130   22.2870 C   0  0  0  0  0  2  0  0  0  0  0  0
  -19.0760  -28.8510   23.3840 C   0  0  0  0  0  0  0  0  0  0  0  0
  -18.8280  -30.1110   23.9690 C   0  0  0  0  0  3  0  0  0  0  0  0
  -17.5120  -30.5810   24.1360 C   0  0  0  0  0  3  0  0  0  0  0  0
  -16.4270  -29.7880   23.7270 C   0  0  0  0  0  3  0  0  0  0  0  0
  -16.6590  -28.5290   23.1440 C   0  0  0  0  0  3  0  0  0  0  0  0
  -25.8020  -32.5950   23.8090 C   0  0  0  0  0  3  0  0  0  0  0  0
  -25.5060  -33.9900   24.1530 N   0  0  0  0  0  0  0  0  0  0  0  0
  -25.8400  -35.0460   23.4010 C   0  0  0  0  0  0  0  0  0  0  0  0
  -26.5040  -34.9480   22.3640 O   0  0  0  0  0  0  0  0  0  0  0  0
  -24.9160  -34.1410   24.9580 H   0  0  0  0  0  0  0  0  0  0  0  0
  -24.1360  -36.8590   23.0480 C   0  0  0  0  0  1  0  0  0  0  0  0
  -25.3630  -36.4330   23.8700 C   0  0  0  0  0  3  0  0  0  0  0  0
  -27.5010  -37.2790   24.7330 C   0  0  0  0  0  1  0  0  0  0  0  0
  -26.4080  -37.4770   23.7840 N   0  0  0  0  0  0  0  0  0  0  0  0
  -26.0120  -38.3990   23.9420 H   0  0  0  0  0  0  0  0  0  0  0  0
  -26.3580  -31.8150   25.0630 C   0  0  1  0  0  0  0  0  0  0  0  0
  -25.2970  -31.5730   26.1630 C   0  0  0  0  0  1  0  0  0  0  0  0
  -26.9230  -30.4380   24.6400 C   0  0  0  0  0  1  0  0  0  0  0  0
  -27.5320  -32.5990   25.6910 C   0  0  0  0  0  1  0  0  0  0  0  0
  1  3  1  0
  3  4  1  1
  3  2  1  0
  5  3  1  0
  5  8  1  0
  6 10  1  0
  7  9  1  0
  8 11  1  0
  8  6  2  0
  9 22  1  0
 10  9  2  0
 10 12  1  0
 11  7  2  0
 13 11  1  0
 14 22  1  0
 15 20  1  0
 16 17  1  0
 16 15  1  0
 18 17  1  0
 18 27  1  0
 18 19  1  0
 20 14  1  0
 20 19  1  0
 21 14  2  0
 22 23  1  0
 24 25  2  0
 25 44  1  0
 26 25  1  0
 26 29  1  0
 27 24  1  0
 27 28  1  0
 28 26  2  0
 29 30  1  0
 30 31  2  0
 32 35  1  0
 32 31  1  0
 33 32  2  0
 34 33  1  0
 34 29  2  0
 35 36  1  0
 36 37  1  0
 37 38  2  0
 39 38  1  0
 39 43  1  0
 40 39  2  0
 41 36  2  0
 41 40  1  0
 42 41  1  0
 44 45  1  0
 45 48  1  0
 45 47  1  0
 46 44  2  0
 49 50  1  0
 49 24  1  0
 51 49  1  0
 54 52  1  6
 53 54  1  0
 54  1  1  0
 54 55  1  0
 55 57  1  0
 57 56  1  0
 57 58  1  1
 59 57  1  0
 59 60  1  0
 61 63  1  0
 61 60  1  0
 62 73  2  0
 63 68  1  0
 64 72  1  0
 64 74  1  0
 65 71  1  0
 65 67  1  0
 66 72  1  0
 67 66  1  0
 68 67  2  0
 69 70  1  0
 69 63  2  0
 70 65  2  0
 71 64  1  0
 72 62  1  0
 74 76  2  0
 75 74  1  0
 77 75  1  0
 78 87  2  0
 78 83  1  0
 79 75  1  0
 79 83  1  0
 80 79  1  0
 81 82  1  0
 81 80  1  0
 82 78  1  0
 83 84  2  0
 84 85  1  0
 86 85  2  0
 87 86  1  0
 88 62  1  0
 88 89  1  0
 88 98  1  0
 89 92  1  0
 90 94  1  0
 90 89  1  0
 91 90  2  0
 94 93  1  0
 96 94  1  0
 96 97  1  0
 96 95  1  0
 98101  1  1
 98 99  1  0
100 98  1  0
M  ISO  4  14 100  22 100  60 101  61 101
M  END
>  <TORSDO>  (8) 
F 24

>  <SCORE>  (8) 
-12.494

>  <name>  (8) 
7

>  <ligand_id>  (8) 
7

>  <original_smiles>  (8) 
[H]c1c([H])c([H])c2c(c1[H])C([H])([H])C([H])([H])C([H])([H])C2([H])N([H])C(=O)C1([H])N(C(=O)C([H])(N([H])C(=O)C([H])(N([H])C([H])([H])[H])C([H])([H])[H])C(C([H])([H])[H])(C([H])([H])[H])C([H])([H])[H])C([H])([H])c2c([H])c(OC([H])([H])C([H])([H])[N+]([H])(C([H])([H])[H])C([H])([H])C(C([H])([H])[H])(C([H])([H])[H])C([H])([H])[N+]([H])(C([H])([H])[H])C([H])([H])c3c([H])c(F)c(N([H])C(=O)N4C([H])([H])C([H])([H])C([H])([H])C([H])(n5nc(-c6c([H])c([H])c(Oc7c([H])c([H])c(F)c([H])c7F)c([H])c6[H])c(C(=O)N([H])[H])c5N([H])[H])C4([H])[H])c([H])c3F)c([H])c([H])c2C1([H])[H]

>  <smiles>  (8) 
[H]c1c([H])c([H])c2c(c1[H])C([H])([H])C([H])([H])C([H])([H])C2([H])N([H])C(=O)C1([H])N(C(=O)C([H])(N([H])C(=O)C([H])(N([H])C([H])([H])[H])C([H])([H])[H])C(C([H])([H])[H])(C([H])([H])[H])C([H])([H])[H])C([H])([H])c2c([H])c(OC([H])([H])C([H])([H])[N+]([H])(C([H])([H])[H])C([H])([H])C(C([H])([H])[H])(C([H])([H])[H])C([H])([H])[N+]([H])(C([H])([H])[H])C([H])([H])c3c([H])c(F)c(N([H])C(=O)N4C([H])([H])C([H])([H])C([H])([H])C([H])(n5nc(-c6c([H])c([H])c(Oc7c([H])c([H])c(F)c([H])c7F)c([H])c6[H])c(C(=O)N([H])[H])c5N([H])[H])C4([H])[H])c([H])c3F)c([H])c([H])c2C1([H])[H]

$$$$
8:0:0
     RDKit          3D

 99107  0  0  1  0  0  0  0  0999 V2000
  -27.2810  -20.6760   19.3350 C   0  0  0  0  0  2  0  0  0  0  0  0
  -25.7810  -18.7020   19.7780 C   0  0  0  0  0  1  0  0  0  0  0  0
  -27.1700  -19.2140   19.6270 N   0  0  1  0  0  4  0  0  0  0  0  0
  -27.6010  -19.0650   20.5270 H   0  0  0  0  0  0  0  0  0  0  0  0
  -27.9290  -18.3880   18.6540 C   0  0  0  0  0  2  0  0  0  0  0  0
  -29.1920  -17.1920   20.5020 C   0  0  0  0  0  3  0  0  0  0  0  0
  -30.2860  -16.4280   20.9510 C   0  0  0  0  0  3  0  0  0  0  0  0
  -31.4250  -16.8120   18.8300 C   0  0  0  0  0  3  0  0  0  0  0  0
  -29.2000  -17.7580   19.2090 C   0  0  0  0  0  0  0  0  0  0  0  0
  -31.3920  -16.2000   20.1060 C   0  0  0  0  0  0  0  0  0  0  0  0
  -30.3380  -17.5940   18.3880 C   0  0  0  0  0  0  0  0  0  0  0  0
  -30.3660  -18.1430   17.1520 F   0  0  0  0  0  0  0  0  0  0  0  0
  -32.8810  -14.2340   20.1320 C   0  0  0  0  0  0  0  0  0  0  0  0
  -32.4200  -11.8320   19.7900 C   0  0  0  0  0  2  0  0  0  0  0  0
  -31.5660  -11.5760   18.5350 C   0  0  0  0  0  2  0  0  0  0  0  0
  -30.0650  -11.6960   18.8630 C   0  0  0  0  0  2  0  0  0  0  0  0
  -29.7250  -12.9940   19.6450 C   0  0  0  0  0  3  0  0  0  0  0  0
  -30.6880  -13.1700   20.8400 C   0  0  0  0  0  2  0  0  0  0  0  0
  -32.0650  -13.1580   20.3210 N   0  0  0  0  0  0  0  0  0  0  0  0
  -33.9830  -14.1510   19.5870 O   0  0  0  0  0  0  0  0  0  0  0  0
  -32.4750  -15.4240   20.6030 N   0  0  0  0  0  0  0  0  0  0  0  0
  -33.2720  -16.0030   20.8260 H   0  0  0  0  0  0  0  0  0  0  0  0
  -27.4580  -14.0820   20.1950 C   0  0  0  0  0  0  0  0  0  0  0  0
  -26.2500  -13.5540   20.5530 C   0  0  0  0  0  0  0  0  0  0  0  0
  -26.4420  -12.1400   20.6000 C   0  0  0  0  0  0  0  0  0  0  0  0
  -28.3270  -13.0110   20.0670 N   0  0  0  0  0  0  0  0  0  0  0  0
  -27.7110  -11.8380   20.3590 N   0  0  0  0  0  0  0  0  0  0  0  0
  -25.4730  -11.0560   20.7990 C   0  0  0  0  0  0  0  0  0  0  0  0
  -25.6340  -10.1080   21.8320 C   0  0  0  0  0  3  0  0  0  0  0  0
  -24.6810   -9.0830   22.0150 C   0  0  0  0  0  3  0  0  0  0  0  0
  -23.5520   -9.0010   21.1620 C   0  0  0  0  0  0  0  0  0  0  0  0
  -23.4120   -9.9350   20.1210 C   0  0  0  0  0  3  0  0  0  0  0  0
  -24.3640  -10.9510   19.9370 C   0  0  0  0  0  3  0  0  0  0  0  0
  -22.5890   -8.0260   21.2490 O   0  0  0  0  0  0  0  0  0  0  0  0
  -22.2280   -7.4780   22.4530 C   0  0  0  0  0  0  0  0  0  0  0  0
  -21.6760   -8.2590   23.4930 C   0  0  0  0  0  3  0  0  0  0  0  0
  -21.2570   -7.6420   24.6890 C   0  0  0  0  0  3  0  0  0  0  0  0
  -21.3780   -6.2490   24.8430 C   0  0  0  0  0  0  0  0  0  0  0  0
  -21.9200   -5.4680   23.8060 C   0  0  0  0  0  3  0  0  0  0  0  0
  -22.3420   -6.0820   22.6130 C   0  0  0  0  0  0  0  0  0  0  0  0
  -22.8460   -5.3250   21.6100 F   0  0  0  0  0  0  0  0  0  0  0  0
  -20.9670   -5.6540   25.9880 F   0  0  0  0  0  0  0  0  0  0  0  0
  -24.9670  -14.3090   20.7420 C   0  0  0  0  0  0  0  0  0  0  0  0
  -24.1160  -13.8530   21.6540 N   0  0  0  0  0  0  0  0  0  0  0  0
  -24.7350  -15.3430   20.1170 O   0  0  0  0  0  0  0  0  0  0  0  0
  -24.3130  -13.0160   22.1830 H   0  0  0  0  0  0  0  0  0  0  0  0
  -23.2520  -14.3480   21.8260 H   0  0  0  0  0  0  0  0  0  0  0  0
  -27.8690  -15.3810   19.9320 N   0  0  0  0  0  0  0  0  0  0  0  0
  -27.1620  -16.0920   19.7920 H   0  0  0  0  0  0  0  0  0  0  0  0
  -28.7520  -15.5900   19.4880 H   0  0  0  0  0  0  0  0  0  0  0  0
  -26.4260  -21.5940   20.2400 C   0  0  0  0  0  2  0  0  0  0  0  0
  -24.9360  -23.5260   20.1940 C   0  0  0  0  0  1  0  0  0  0  0  0
  -26.1550  -22.9120   19.6610 N   0  0  0  0  0  0  0  0  0  0  0  0
  -27.3120  -23.8310   19.5390 C   0  0  0  0  0  2  0  0  0  0  0  0
  -27.5760  -24.8250   20.7100 C   0  0  0  0  0  3  0  0  0  0  0  0
  -28.0220  -24.0860   21.8320 O   0  0  0  0  0  0  0  0  0  0  0  0
  -27.2710  -23.5970   22.1490 H   0  0  0  0  0  0  0  0  0  0  0  0
  -28.6420  -25.9170   20.4050 C   0  0  0  0  0  2  0  0  0  0  0  0
  -28.3550  -26.7660   19.2870 O   0  0  0  0  0  0  0  0  0  0  0  0
  -24.6930  -31.6050   23.0250 C   0  0  0  0  0  0  0  0  0  0  0  0
  -27.2210  -27.5220   19.4260 C   0  0  0  0  0  0  0  0  0  0  0  0
  -23.4170  -30.3340   21.3280 C   0  0  0  0  0  3  0  0  0  0  0  0
  -24.8130  -28.9590   19.6980 C   0  0  0  0  0  0  0  0  0  0  0  0
  -25.9220  -30.7490   21.0390 C   0  0  0  0  0  2  0  0  0  0  0  0
  -25.9900  -29.4390   20.2890 C   0  0  0  0  0  0  0  0  0  0  0  0
  -27.1970  -28.7150   20.1740 C   0  0  0  0  0  3  0  0  0  0  0  0
  -26.0510  -27.0900   18.7800 C   0  0  0  0  0  3  0  0  0  0  0  0
  -24.8340  -27.7740   18.9430 C   0  0  0  0  0  3  0  0  0  0  0  0
  -23.5630  -29.7860   19.8830 C   0  0  0  0  0  2  0  0  0  0  0  0
  -24.6960  -30.9080   21.8540 N   0  0  0  0  0  0  0  0  0  0  0  0
  -23.6390  -31.8150   23.6410 O   0  0  0  0  0  0  0  0  0  0  0  0
  -22.8280  -29.2220   22.2270 C   0  0  0  0  0  0  0  0  0  0  0  0
  -21.5050  -29.0170   22.1330 N   0  0  0  0  0  0  0  0  0  0  0  0
  -23.5560  -28.5520   22.9650 O   0  0  0  0  0  0  0  0  0  0  0  0
  -20.9820  -29.6040   21.5000 H   0  0  0  0  0  0  0  0  0  0  0  0
  -18.1780  -27.7260   22.6790 C   0  0  0  0  0  0  0  0  0  0  0  0
  -20.7400  -28.0030   22.8580 C   0  0  0  0  0  3  0  0  0  0  0  0
  -20.8360  -26.6250   22.1630 C   0  0  0  0  0  2  0  0  0  0  0  0
  -19.6930  -26.3600   21.1780 C   0  0  0  0  0  2  0  0  0  0  0  0
  -18.3420  -26.4340   21.8940 C   0  0  0  0  0  2  0  0  0  0  0  0
  -19.3030  -28.4690   23.1210 C   0  0  0  0  0  0  0  0  0  0  0  0
  -19.0970  -29.6760   23.8260 C   0  0  0  0  0  3  0  0  0  0  0  0
  -17.7940  -30.1390   24.0910 C   0  0  0  0  0  3  0  0  0  0  0  0
  -16.6820  -29.3930   23.6630 C   0  0  0  0  0  3  0  0  0  0  0  0
  -16.8750  -28.1870   22.9670 C   0  0  0  0  0  3  0  0  0  0  0  0
  -26.0060  -32.1950   23.6280 C   0  0  0  0  0  3  0  0  0  0  0  0
  -26.6160  -31.3040   24.7790 C   0  0  1  0  0  0  0  0  0  0  0  0
  -25.5910  -30.9180   25.8720 C   0  0  0  0  0  1  0  0  0  0  0  0
  -27.2090  -29.9960   24.2010 C   0  0  0  0  0  1  0  0  0  0  0  0
  -27.7820  -32.0580   25.4590 C   0  0  0  0  0  1  0  0  0  0  0  0
  -25.7000  -33.5450   24.1170 N   0  0  0  0  0  0  0  0  0  0  0  0
  -25.9610  -34.6740   23.4450 C   0  0  0  0  0  0  0  0  0  0  0  0
  -26.5590  -34.6900   22.3650 O   0  0  0  0  0  0  0  0  0  0  0  0
  -25.1600  -33.6050   24.9680 H   0  0  0  0  0  0  0  0  0  0  0  0
  -24.1720  -36.4400   23.3980 C   0  0  0  0  0  1  0  0  0  0  0  0
  -25.4830  -35.9980   24.0700 C   0  0  0  0  0  3  0  0  0  0  0  0
  -27.6500  -36.8670   24.8250 C   0  0  0  0  0  1  0  0  0  0  0  0
  -26.4790  -37.0860   23.9800 N   0  0  0  0  0  0  0  0  0  0  0  0
  -26.0640  -37.9780   24.2380 H   0  0  0  0  0  0  0  0  0  0  0  0
  1  3  1  0
  1 51  1  0
  3  2  1  0
  3  4  1  1
  5  9  1  0
  5  3  1  0
  6  7  1  0
  8 10  1  0
  9  6  2  0
 10 21  1  0
 10  7  2  0
 11  8  2  0
 11  9  1  0
 12 11  1  0
 13 19  1  0
 13 21  1  0
 14 19  1  0
 15 16  1  0
 15 14  1  0
 17 16  1  0
 17 26  1  0
 17 18  1  0
 19 18  1  0
 20 13  2  0
 21 22  1  0
 23 24  2  0
 24 25  1  0
 24 43  1  0
 25 28  1  0
 26 23  1  0
 26 27  1  0
 27 25  2  0
 28 29  1  0
 29 30  2  0
 31 34  1  0
 31 30  1  0
 32 31  2  0
 33 32  1  0
 33 28  2  0
 34 35  1  0
 35 40  2  0
 35 36  1  0
 36 37  2  0
 37 38  1  0
 38 42  1  0
 39 38  2  0
 40 39  1  0
 41 40  1  0
 43 44  1  0
 44 47  1  0
 44 46  1  0
 45 43  2  0
 48 23  1  0
 49 48  1  0
 50 48  1  0
 53 52  1  0
 53 51  1  0
 54 53  1  0
 55 54  1  0
 55 56  1  0
 56 57  1  0
 58 55  1  0
 59 61  1  0
 59 58  1  0
 60 71  2  0
 61 66  1  0
 62 70  1  0
 62 72  1  0
 63 69  1  0
 63 65  1  0
 64 70  1  0
 65 64  1  0
 66 65  2  0
 67 68  1  0
 67 61  2  0
 68 63  2  0
 69 62  1  0
 70 60  1  0
 72 74  2  0
 73 72  1  0
 75 73  1  0
 76 85  2  0
 76 81  1  0
 77 73  1  0
 77 81  1  0
 78 77  1  0
 79 80  1  0
 79 78  1  0
 80 76  1  0
 81 82  2  0
 82 83  1  0
 84 83  2  0
 85 84  1  0
 86 60  1  0
 86 91  1  0
 86 87  1  0
 87 90  1  1
 87 88  1  0
 89 87  1  0
 91 94  1  0
 92 96  1  0
 92 91  1  0
 93 92  2  0
 96 95  1  0
 98 96  1  0
 98 99  1  0
 98 97  1  0
M  ISO  4  13 100  21 100  58 101  59 101
M  END
>  <TORSDO>  (9) 
F 25

>  <SCORE>  (9) 
-8.573

>  <name>  (9) 
8

>  <ligand_id>  (9) 
8

>  <original_smiles>  (9) 
[H]OC([H])(C([H])([H])Oc1c([H])c([H])c2c(c1[H])C([H])([H])N(C(=O)C([H])(N([H])C(=O)C([H])(N([H])C([H])([H])[H])C([H])([H])[H])C(C([H])([H])[H])(C([H])([H])[H])C([H])([H])[H])C([H])(C(=O)N([H])C1([H])c3c([H])c([H])c([H])c([H])c3C([H])([H])C([H])([H])C1([H])[H])C2([H])[H])C([H])([H])N(C([H])([H])[H])C([H])([H])C([H])([H])[N+]([H])(C([H])([H])[H])C([H])([H])c1c([H])c([H])c(N([H])C(=O)N2C([H])([H])C([H])([H])C([H])([H])C([H])(n3nc(-c4c([H])c([H])c(Oc5c([H])c([H])c(F)c([H])c5F)c([H])c4[H])c(C(=O)N([H])[H])c3N([H])[H])C2([H])[H])c([H])c1F

>  <smiles>  (9) 
[H]OC([H])(C([H])([H])Oc1c([H])c([H])c2c(c1[H])C([H])([H])N(C(=O)C([H])(N([H])C(=O)C([H])(N([H])C([H])([H])[H])C([H])([H])[H])C(C([H])([H])[H])(C([H])([H])[H])C([H])([H])[H])C([H])(C(=O)N([H])C1([H])c3c([H])c([H])c([H])c([H])c3C([H])([H])C([H])([H])C1([H])[H])C2([H])[H])C([H])([H])N(C([H])([H])[H])C([H])([H])C([H])([H])[N+]([H])(C([H])([H])[H])C([H])([H])c1c([H])c([H])c(N([H])C(=O)N2C([H])([H])C([H])([H])C([H])([H])C([H])(n3nc(-c4c([H])c([H])c(Oc5c([H])c([H])c(F)c([H])c5F)c([H])c4[H])c(C(=O)N([H])[H])c3N([H])[H])C2([H])[H])c([H])c1F

$$$$
9:0:0
     RDKit          3D

102106  0  0  1  0  0  0  0  0999 V2000
  -24.6200  -23.5710   20.3910 C   0  0  0  0  0  2  0  0  0  0  0  0
  -22.8500  -22.2420   18.2690 C   0  0  0  0  0  2  0  0  0  0  0  0
  -21.6260  -23.7830   19.6300 C   0  0  0  0  0  2  0  0  0  0  0  0
  -21.5160  -22.4390   17.2380 C   0  0  0  0  0  2  0  0  0  0  0  0
  -20.5620  -24.0550   18.3050 C   0  0  0  0  0  2  0  0  0  0  0  0
  -23.0730  -22.9720   19.6680 C   0  0  0  0  0  3  0  0  0  0  0  0
  -21.0030  -23.9120   16.7390 N   0  0  0  0  0  0  0  0  0  0  0  0
  -21.9240  -24.2100   17.0380 H   0  0  0  0  0  0  0  0  0  0  0  0
  -21.9670  -25.5530   15.0710 C   0  0  0  0  0 15  0  0  0  0  0  0
  -23.8490  -26.4940   15.3920 C   0  0  0  0  0  1  0  0  0  0  0  0
  -25.1870  -26.8330   16.6510 O   0  0  0  0  0  0  0  0  0  0  0  0
  -24.2600  -29.3370   21.3260 C   0  0  0  0  0  0  0  0  0  0  0  0
  -26.6400  -27.0250   16.7500 C   0  0  0  0  0  3  0  0  0  0  0  0
  -23.7560  -29.5230   18.9600 C   0  0  0  0  0  3  0  0  0  0  0  0
  -25.7220  -29.3290   17.2680 C   0  0  0  0  0  3  0  0  0  0  0  0
  -26.1690  -29.2580   19.7190 C   0  0  0  0  0  2  0  0  0  0  0  0
  -26.3970  -28.7160   18.3270 C   0  0  0  0  0  3  0  0  0  0  0  0
  -27.0830  -27.5330   18.0120 C   0  0  0  0  0  2  0  0  0  0  0  0
  -26.9220  -27.8650   15.7140 C   0  0  0  0  0  2  0  0  0  0  0  0
  -26.1540  -29.0240   15.9330 C   0  0  0  0  0  2  0  0  0  0  0  0
  -24.4630  -30.0800   17.6630 C   0  0  0  0  0  2  0  0  0  0  0  0
  -24.7360  -29.4050   20.0580 N   0  0  0  0  0  0  0  0  0  0  0  0
  -23.0480  -29.4500   21.5710 O   0  0  0  0  0  0  0  0  0  0  0  0
  -23.0540  -28.1350   18.8980 C   0  0  0  0  0  0  0  0  0  0  0  0
  -21.8070  -27.9970   19.2420 N   0  0  0  0  0  0  0  0  0  0  0  0
  -23.6430  -27.1050   18.6140 O   0  0  0  0  0  0  0  0  0  0  0  0
  -21.2990  -28.7850   19.6230 H   0  0  0  0  0  0  0  0  0  0  0  0
  -18.3680  -27.1780   20.3350 C   0  0  0  0  0  0  0  0  0  0  0  0
  -21.0000  -26.8460   18.7610 C   0  0  0  0  0  2  0  0  0  0  0  0
  -20.1240  -27.0670   16.7020 C   0  0  0  0  0 15  0  0  0  0  0  0
  -17.9110  -27.7230   16.9160 C   0  0  0  0  0 15  0  0  0  0  0  0
  -17.2710  -27.6440   18.9290 C   0  0  0  0  0  1  0  0  0  0  0  0
  -19.9150  -26.8880   20.2650 C   0  0  0  0  0  0  0  0  0  0  0  0
  -20.5710  -26.7680   21.5490 C   0  0  0  0  0  3  0  0  0  0  0  0
  -19.9200  -26.7190   22.8090 C   0  0  0  0  0  3  0  0  0  0  0  0
  -18.5200  -26.7500   22.8590 C   0  0  0  0  0  3  0  0  0  0  0  0
  -17.7860  -26.9740   21.6600 C   0  0  0  0  0  3  0  0  0  0  0  0
  -25.2240  -29.1340   22.5160 C   0  0  0  0  0  3  0  0  0  0  0  0
  -24.9690  -30.2500   23.4290 N   0  0  0  0  0  0  0  0  0  0  0  0
  -25.8560  -31.2140   23.7030 C   0  0  0  0  0  0  0  0  0  0  0  0
  -27.0140  -31.1990   23.2780 O   0  0  0  0  0  0  0  0  0  0  0  0
  -24.0230  -30.3530   23.7620 H   0  0  0  0  0  0  0  0  0  0  0  0
  -25.2390  -33.6530   23.7630 C   0  0  0  0  0  1  0  0  0  0  0  0
  -25.3850  -32.3730   24.6020 C   0  0  0  0  0  3  0  0  0  0  0  0
  -26.2760  -31.5470   26.7330 C   0  0  0  0  0  1  0  0  0  0  0  0
  -26.2880  -32.6230   25.7460 N   0  0  0  0  0  0  0  0  0  0  0  0
  -26.0440  -33.4900   26.2170 H   0  0  0  0  0  0  0  0  0  0  0  0
  -25.0370  -27.7470   23.2390 C   0  0  1  0  0  0  0  0  0  0  0  0
  -23.5880  -27.4620   23.7020 C   0  0  0  0  0  1  0  0  0  0  0  0
  -25.4650  -26.5790   22.3210 C   0  0  0  0  0  1  0  0  0  0  0  0
  -25.9630  -27.6940   24.4720 C   0  0  0  0  0  1  0  0  0  0  0  0
  -27.4070  -24.3180   20.4190 C   0  0  0  0  0  0  0  0  0  0  0  0
  -26.5420  -22.2030   19.3520 C   0  0  0  0  0  1  0  0  0  0  0  0
  -26.2540  -23.4430   20.0690 N   0  0  0  0  0  0  0  0  0  0  0  0
  -27.1720  -25.1760   21.2740 O   0  0  0  0  0  0  0  0  0  0  0  0
  -29.2010  -25.3690   18.7850 C   0  0  0  0  0  3  0  0  0  0  0  0
  -30.3120  -23.8870   20.3360 C   0  0  0  0  0  3  0  0  0  0  0  0
  -31.7100  -25.1850   18.8470 C   0  0  0  0  0  3  0  0  0  0  0  0
  -28.9690  -24.4380   19.8240 C   0  0  0  0  0  0  0  0  0  0  0  0
  -30.5000  -25.7320   18.3290 C   0  0  0  0  0  0  0  0  0  0  0  0
  -31.7430  -24.2000   19.8590 C   0  0  0  0  0  0  0  0  0  0  0  0
  -34.4890  -23.1610   19.7970 C   0  0  0  0  0  0  0  0  0  0  0  0
  -35.8850  -21.2280   18.7500 C   0  0  0  0  0  2  0  0  0  0  0  0
  -35.3750  -20.8700   17.3270 C   0  0  0  0  0  2  0  0  0  0  0  0
  -34.0980  -20.0150   17.4020 C   0  0  0  0  0  2  0  0  0  0  0  0
  -33.1060  -20.5710   18.4590 C   0  0  0  0  0  3  0  0  0  0  0  0
  -33.7940  -20.7730   19.8090 C   0  0  0  0  0  2  0  0  0  0  0  0
  -34.7530  -21.8140   19.5550 N   0  0  0  0  0  0  0  0  0  0  0  0
  -35.5050  -23.8760   19.6330 O   0  0  0  0  0  0  0  0  0  0  0  0
  -33.1790  -23.6400   20.3140 N   0  0  0  0  0  0  0  0  0  0  0  0
  -33.3630  -23.9390   21.2630 H   0  0  0  0  0  0  0  0  0  0  0  0
  -30.6230  -20.0640   18.3640 C   0  0  0  0  0  0  0  0  0  0  0  0
  -29.9090  -18.9510   18.6780 C   0  0  0  0  0  0  0  0  0  0  0  0
  -30.8580  -18.0000   19.1550 C   0  0  0  0  0  0  0  0  0  0  0  0
  -31.9390  -19.7530   18.6420 N   0  0  0  0  0  0  0  0  0  0  0  0
  -32.0720  -18.5250   19.1920 N   0  0  0  0  0  0  0  0  0  0  0  0
  -30.6890  -16.5950   19.5180 C   0  0  0  0  0  0  0  0  0  0  0  0
  -30.4730  -16.2030   20.8570 C   0  0  0  0  0  3  0  0  0  0  0  0
  -30.2950  -14.8420   21.1790 C   0  0  0  0  0  3  0  0  0  0  0  0
  -30.3290  -13.8630   20.1550 C   0  0  0  0  0  0  0  0  0  0  0  0
  -30.5700  -14.2600   18.8280 C   0  0  0  0  0  3  0  0  0  0  0  0
  -30.7520  -15.6140   18.5110 C   0  0  0  0  0  3  0  0  0  0  0  0
  -30.1850  -12.5160   20.3740 O   0  0  0  0  0  0  0  0  0  0  0  0
  -28.9960  -11.9810   20.7940 C   0  0  0  0  0  0  0  0  0  0  0  0
  -27.8360  -12.0180   19.9900 C   0  0  0  0  0  3  0  0  0  0  0  0
  -26.6520  -11.3960   20.4330 C   0  0  0  0  0  3  0  0  0  0  0  0
  -26.6290  -10.7250   21.6710 C   0  0  0  0  0  0  0  0  0  0  0  0
  -27.7860  -10.6820   22.4690 C   0  0  0  0  0  3  0  0  0  0  0  0
  -28.9660  -11.3060   22.0310 C   0  0  0  0  0  0  0  0  0  0  0  0
  -30.0840  -11.2440   22.7950 F   0  0  0  0  0  0  0  0  0  0  0  0
  -25.4960  -10.1180   22.0910 F   0  0  0  0  0  0  0  0  0  0  0  0
  -28.4430  -18.7520   18.4500 C   0  0  0  0  0  0  0  0  0  0  0  0
  -27.8070  -17.9340   19.2790 N   0  0  0  0  0  0  0  0  0  0  0  0
  -27.8460  -19.3560   17.5590 O   0  0  0  0  0  0  0  0  0  0  0  0
  -28.2980  -17.4640   20.0250 H   0  0  0  0  0  0  0  0  0  0  0  0
  -26.8160  -17.7740   19.1640 H   0  0  0  0  0  0  0  0  0  0  0  0
  -30.2480  -21.2920   17.8450 N   0  0  0  0  0  0  0  0  0  0  0  0
  -29.2920  -21.4620   17.5590 H   0  0  0  0  0  0  0  0  0  0  0  0
  -30.8700  -22.0580   17.6220 H   0  0  0  0  0  0  0  0  0  0  0  0
  -30.5860  -26.6860   17.3160 N   0  0  0  0  0  0  0  0  0  0  0  0
  -29.7690  -26.8730   16.7440 H   0  0  0  0  0  0  0  0  0  0  0  0
  -31.4480  -26.7740   16.7880 H   0  0  0  0  0  0  0  0  0  0  0  0
  2  6  1  0
  3  6  1  0
  4  2  1  0
  5  3  1  0
  6  1  1  0
  7  8  1  0
  7  4  1  0
  7  5  1  0
 10 11  1  0
 12 23  2  0
 13 11  1  0
 13 18  1  0
 14 24  1  0
 14 22  1  0
 15 20  1  0
 15 21  1  0
 15 17  1  0
 16 22  1  0
 17 18  1  0
 17 16  1  0
 19 20  1  0
 19 13  1  0
 21 14  1  0
 22 12  1  0
 24 25  1  0
 25 27  1  0
 26 24  2  0
 28 37  1  0
 29 25  1  0
 29 33  1  0
 32 28  1  0
 33 28  2  0
 33 34  1  0
 34 35  2  0
 35 36  1  0
 37 36  2  0
 38 12  1  0
 38 48  1  0
 38 39  1  0
 39 40  1  0
 39 42  1  0
 40 44  1  0
 41 40  2  0
 44 43  1  0
 44 46  1  0
 46 47  1  0
 46 45  1  0
 48 49  1  1
 48 51  1  0
 50 48  1  0
 52 55  2  0
 53 54  1  0
 54  1  1  0
 54 52  1  0
 56 59  1  0
 58 61  2  0
 59 57  2  0
 59 52  1  0
 60 56  2  0
 60 58  1  0
 61 70  1  0
 61 57  1  0
 62 70  1  0
 63 68  1  0
 64 65  1  0
 64 63  1  0
 66 65  1  0
 66 75  1  0
 66 67  1  0
 68 62  1  0
 68 67  1  0
 69 62  2  0
 70 71  1  0
 72 75  1  0
 72 73  2  0
 73 74  1  0
 74 76  2  0
 74 77  1  0
 75 76  1  0
 77 78  1  0
 78 79  2  0
 80 83  1  0
 80 79  1  0
 81 80  2  0
 82 81  1  0
 82 77  2  0
 83 84  1  0
 84 89  1  0
 85 86  1  0
 85 84  2  0
 86 87  2  0
 87 91  1  0
 87 88  1  0
 89 88  2  0
 89 90  1  0
 92 73  1  0
 92 93  1  0
 93 95  1  0
 94 92  2  0
 96 93  1  0
 97 72  1  0
 98 97  1  0
 99 97  1  0
100 60  1  0
101100  1  0
102100  1  0
M  ISO  4  10 101  11 101  62 100  70 100
M  END
>  <TORSDO>  (10) 
F 22

>  <SCORE>  (10) 
-4.682

>  <name>  (10) 
9

>  <ligand_id>  (10) 
9

>  <original_smiles>  (10) 
[H]c1c([H])c([H])c2c(c1[H])C([H])([H])C([H])([H])C([H])([H])C2([H])N([H])C(=O)C1([H])N(C(=O)C([H])(N([H])C(=O)C([H])(N([H])C([H])([H])[H])C([H])([H])[H])C(C([H])([H])[H])(C([H])([H])[H])C([H])([H])[H])C([H])([H])c2c([H])c(OC([H])([H])C([H])([H])[N+]3([H])C([H])([H])C([H])([H])C([H])(C([H])([H])N(C(=O)c4c([H])c(N([H])[H])c([H])c(N([H])C(=O)N5C([H])([H])C([H])([H])C([H])([H])C([H])(n6nc(-c7c([H])c([H])c(Oc8c([H])c([H])c(F)c([H])c8F)c([H])c7[H])c(C(=O)N([H])[H])c6N([H])[H])C5([H])[H])c4[H])C([H])([H])[H])C([H])([H])C3([H])[H])c([H])c([H])c2C1([H])[H]

>  <smiles>  (10) 
[H]c1c([H])c([H])c2c(c1[H])C([H])([H])C([H])([H])C([H])([H])C2([H])N([H])C(=O)C1([H])N(C(=O)C([H])(N([H])C(=O)C([H])(N([H])C([H])([H])[H])C([H])([H])[H])C(C([H])([H])[H])(C([H])([H])[H])C([H])([H])[H])C([H])([H])c2c([H])c(OC([H])([H])C([H])([H])[N+]3([H])C([H])([H])C([H])([H])C([H])(C([H])([H])N(C(=O)c4c([H])c(N([H])[H])c([H])c(N([H])C(=O)N5C([H])([H])C([H])([H])C([H])([H])C([H])(n6nc(-c7c([H])c([H])c(Oc8c([H])c([H])c(F)c([H])c8F)c([H])c7[H])c(C(=O)N([H])[H])c6N([H])[H])C5([H])[H])c4[H])C([H])([H])[H])C([H])([H])C3([H])[H])c([H])c([H])c2C1([H])[H]

$$$$
10:0:0
     RDKit          3D

109118  0  0  1  0  0  0  0  0999 V2000
  -31.0530  -20.8810   17.6570 C   0  0  0  0  0  3  0  0  0  0  0  0
  -31.1650  -19.5540   18.3050 C   0  0  0  0  0  3  0  0  0  0  0  0
  -30.7860  -20.5600   20.3180 C   0  0  0  0  0  3  0  0  0  0  0  0
  -30.8190  -22.1990   18.2580 C   0  0  0  0  0  0  0  0  0  0  0  0
  -30.7000  -21.9370   19.7150 C   0  0  0  0  0  0  0  0  0  0  0  0
  -31.0740  -19.2700   19.7160 C   0  0  0  0  0  0  0  0  0  0  0  0
  -31.7730  -16.8420   21.1370 C   0  0  0  0  0  0  0  0  0  0  0  0
  -32.0130  -14.2960   21.4480 C   0  0  0  0  0  2  0  0  0  0  0  0
  -31.5850  -13.5090   20.1850 C   0  0  0  0  0  2  0  0  0  0  0  0
  -30.0650  -13.2590   20.1870 C   0  0  0  0  0  2  0  0  0  0  0  0
  -29.2690  -14.5330   20.5610 C   0  0  0  0  0  3  0  0  0  0  0  0
  -29.8450  -15.2370   21.8100 C   0  0  0  0  0  2  0  0  0  0  0  0
  -31.2420  -15.5850   21.4950 N   0  0  0  0  0  0  0  0  0  0  0  0
  -32.9960  -16.9520   21.3080 O   0  0  0  0  0  0  0  0  0  0  0  0
  -30.9720  -17.8610   20.4600 N   0  0  0  0  0  0  0  0  0  0  0  0
  -30.0150  -17.5370   20.4620 H   0  0  0  0  0  0  0  0  0  0  0  0
  -26.7950  -15.1700   20.4690 C   0  0  0  0  0  0  0  0  0  0  0  0
  -25.6410  -14.4290   20.5790 C   0  0  0  0  0  0  0  0  0  0  0  0
  -26.0580  -13.0950   20.8550 C   0  0  0  0  0  0  0  0  0  0  0  0
  -27.8350  -14.2760   20.6650 N   0  0  0  0  0  0  0  0  0  0  0  0
  -27.3800  -13.0350   20.9680 N   0  0  0  0  0  0  0  0  0  0  0  0
  -25.2760  -11.8530   20.9610 C   0  0  0  0  0  0  0  0  0  0  0  0
  -25.4460  -10.9590   22.0410 C   0  0  0  0  0  3  0  0  0  0  0  0
  -24.6590   -9.7880   22.1360 C   0  0  0  0  0  3  0  0  0  0  0  0
  -23.6990   -9.4960   21.1380 C   0  0  0  0  0  0  0  0  0  0  0  0
  -23.5430  -10.3810   20.0570 C   0  0  0  0  0  3  0  0  0  0  0  0
  -24.3290  -11.5440   19.9660 C   0  0  0  0  0  3  0  0  0  0  0  0
  -22.9120   -8.3680   21.1320 O   0  0  0  0  0  0  0  0  0  0  0  0
  -22.5690   -7.7270   22.2950 C   0  0  0  0  0  0  0  0  0  0  0  0
  -21.8020   -8.3640   23.2930 C   0  0  0  0  0  3  0  0  0  0  0  0
  -21.4040   -7.6480   24.4400 C   0  0  0  0  0  3  0  0  0  0  0  0
  -21.7640   -6.2960   24.5870 C   0  0  0  0  0  0  0  0  0  0  0  0
  -22.5080   -5.6540   23.5840 C   0  0  0  0  0  3  0  0  0  0  0  0
  -22.9090   -6.3670   22.4400 C   0  0  0  0  0  0  0  0  0  0  0  0
  -23.6190   -5.7410   21.4700 F   0  0  0  0  0  0  0  0  0  0  0  0
  -21.3700   -5.6040   25.6820 F   0  0  0  0  0  0  0  0  0  0  0  0
  -24.2460  -14.9200   20.3360 C   0  0  0  0  0  0  0  0  0  0  0  0
  -23.2680  -14.3560   21.0460 N   0  0  0  0  0  0  0  0  0  0  0  0
  -24.0170  -15.8480   19.5680 O   0  0  0  0  0  0  0  0  0  0  0  0
  -23.4580  -13.6030   21.6890 H   0  0  0  0  0  0  0  0  0  0  0  0
  -22.3190  -14.6810   20.9360 H   0  0  0  0  0  0  0  0  0  0  0  0
  -27.0380  -16.5070   20.1870 N   0  0  0  0  0  0  0  0  0  0  0  0
  -26.2850  -17.1640   19.9920 H   0  0  0  0  0  0  0  0  0  0  0  0
  -27.9560  -16.9170   20.0820 H   0  0  0  0  0  0  0  0  0  0  0  0
  -30.7740  -22.9130   21.8510 C   0  0  0  0  0  2  0  0  0  0  0  0
  -30.3820  -22.9960   20.6190 N   0  0  0  0  0  2  0  0  0  0  0  0
  -28.6560  -25.2870   24.2760 C   0  0  0  0  0  2  0  0  0  0  0  0
  -29.9840  -22.5030   24.2570 C   0  0  0  0  0  2  0  0  0  0  0  0
  -28.6200  -23.3800   26.0950 C   0  0  0  0  0  2  0  0  0  0  0  0
  -30.1990  -23.5600   23.1390 C   0  0  0  0  0  3  0  0  0  0  0  0
  -27.8380  -24.4990   25.3440 C   0  0  0  0  0  3  0  0  0  0  0  0
  -28.9620  -24.4850   22.9640 C   0  0  0  0  0  3  0  0  0  0  0  0
  -30.6260  -22.1850   26.5430 C   0  0  0  0  0  1  0  0  0  0  0  0
  -29.9760  -23.1010   25.6040 N   0  0  0  0  0  0  0  0  0  0  0  0
  -27.9630  -26.3690   21.6800 C   0  0  0  0  0  1  0  0  0  0  0  0
  -30.3960  -25.9900   21.5200 C   0  0  0  0  0  1  0  0  0  0  0  0
  -29.0630  -25.3780   21.7630 N   0  0  1  0  0  4  0  0  0  0  0  0
  -28.9040  -24.7730   20.9720 H   0  0  0  0  0  0  0  0  0  0  0  0
  -27.7940  -25.6530   27.6090 C   0  0  0  0  0  1  0  0  0  0  0  0
  -26.6280  -26.6600   25.6800 C   0  0  0  0  0  1  0  0  0  0  0  0
  -27.1180  -25.4030   26.3050 N   0  0  1  0  0  4  0  0  0  0  0  0
  -26.2640  -24.9180   26.5510 H   0  0  0  0  0  0  0  0  0  0  0  0
  -31.0230  -23.6920   17.3610 C   0  0  0  0  0  3  0  0  0  0  0  0
  -31.7070  -23.1290   16.1600 N   0  0  0  0  0  4  0  0  0  0  0  0
  -31.0410  -22.6930   15.5320 H   0  0  0  0  0  0  0  0  0  0  0  0
  -32.3200  -22.4100   16.5050 H   0  0  0  0  0  0  0  0  0  0  0  0
  -32.2760  -23.7570   15.6190 H   0  0  0  0  0  0  0  0  0  0  0  0
  -29.9830  -25.0600   16.7900 C   0  0  0  0  0  2  0  0  0  0  0  0
  -29.7530  -26.5980   17.3790 O   0  0  0  0  0  0  0  0  0  0  0  0
  -25.0580  -30.1080   22.2550 C   0  0  0  0  0  0  0  0  0  0  0  0
  -28.5130  -27.3570   17.7360 C   0  0  0  0  0  0  0  0  0  0  0  0
  -24.1350  -29.2470   20.1370 C   0  0  0  0  0  3  0  0  0  0  0  0
  -25.8660  -28.5760   18.3220 C   0  0  0  0  0  0  0  0  0  0  0  0
  -26.6090  -29.9630   20.2430 C   0  0  0  0  0  2  0  0  0  0  0  0
  -26.9510  -28.9380   19.1150 C   0  0  0  0  0  0  0  0  0  0  0  0
  -28.2640  -28.3300   18.8250 C   0  0  0  0  0  3  0  0  0  0  0  0
  -27.3410  -27.1000   16.9980 C   0  0  0  0  0  3  0  0  0  0  0  0
  -26.0690  -27.6450   17.2840 C   0  0  0  0  0  3  0  0  0  0  0  0
  -24.4950  -29.1780   18.6220 C   0  0  0  0  0  2  0  0  0  0  0  0
  -25.2820  -29.7750   20.9470 N   0  0  0  0  0  0  0  0  0  0  0  0
  -23.9420  -29.9900   22.7790 O   0  0  0  0  0  0  0  0  0  0  0  0
  -23.6300  -27.8640   20.6340 C   0  0  0  0  0  0  0  0  0  0  0  0
  -22.3140  -27.5960   20.5200 N   0  0  0  0  0  0  0  0  0  0  0  0
  -24.4280  -27.0390   21.0770 O   0  0  0  0  0  0  0  0  0  0  0  0
  -21.7140  -28.3320   20.1760 H   0  0  0  0  0  0  0  0  0  0  0  0
  -19.1150  -25.9100   20.7920 C   0  0  0  0  0  0  0  0  0  0  0  0
  -21.6680  -26.3260   20.8580 C   0  0  0  0  0  3  0  0  0  0  0  0
  -21.7570  -25.3260   19.6910 C   0  0  0  0  0  2  0  0  0  0  0  0
  -20.5350  -25.3680   18.7720 C   0  0  0  0  0  2  0  0  0  0  0  0
  -19.2590  -25.0420   19.5550 C   0  0  0  0  0  2  0  0  0  0  0  0
  -20.2470  -26.5230   21.3970 C   0  0  0  0  0  0  0  0  0  0  0  0
  -20.0560  -27.3300   22.5380 C   0  0  0  0  0  3  0  0  0  0  0  0
  -18.7650  -27.5530   23.0610 C   0  0  0  0  0  3  0  0  0  0  0  0
  -17.6510  -26.9230   22.4740 C   0  0  0  0  0  3  0  0  0  0  0  0
  -17.8290  -26.1030   21.3460 C   0  0  0  0  0  3  0  0  0  0  0  0
  -26.1980  -30.6830   23.1580 C   0  0  0  0  0  3  0  0  0  0  0  0
  -26.6940  -29.6580   24.2490 C   0  0  1  0  0  0  0  0  0  0  0  0
  -25.5550  -29.0820   25.1260 C   0  0  0  0  0  1  0  0  0  0  0  0
  -27.4280  -28.4650   23.5900 C   0  0  0  0  0  1  0  0  0  0  0  0
  -27.7200  -30.3420   25.1850 C   0  0  0  0  0  1  0  0  0  0  0  0
  -25.7000  -31.9080   23.7970 N   0  0  0  0  0  0  0  0  0  0  0  0
  -26.0290  -33.1580   23.4410 C   0  0  0  0  0  0  0  0  0  0  0  0
  -26.8350  -33.3940   22.5370 O   0  0  0  0  0  0  0  0  0  0  0  0
  -24.9910  -31.7920   24.5050 H   0  0  0  0  0  0  0  0  0  0  0  0
  -24.2050  -34.8970   23.3290 C   0  0  0  0  0  1  0  0  0  0  0  0
  -25.3450  -34.3230   24.1830 C   0  0  0  0  0  3  0  0  0  0  0  0
  -27.2270  -35.0330   25.5920 C   0  0  0  0  0  1  0  0  0  0  0  0
  -26.2760  -35.4070   24.5540 N   0  0  0  0  0  0  0  0  0  0  0  0
  -25.7710  -36.2290   24.8700 H   0  0  0  0  0  0  0  0  0  0  0  0
  1  4  2  0
  1  2  1  0
  2  6  2  0
  4  5  1  0
  5  3  2  0
  5 46  1  0
  6  3  1  0
  6 15  1  0
  7 14  2  0
  7 13  1  0
  8 13  1  0
  9 10  1  0
  9  8  1  0
 11 10  1  0
 11 20  1  0
 11 12  1  0
 13 12  1  0
 15 16  1  0
 15  7  1  0
 17 18  2  0
 17 20  1  0
 18 19  1  0
 19 22  1  0
 19 21  2  0
 20 21  1  0
 22 23  1  0
 23 24  2  0
 25 24  1  0
 26 25  2  0
 27 26  1  0
 27 22  2  0
 28 25  1  0
 28 29  1  0
 29 34  2  0
 29 30  1  0
 30 31  2  0
 31 32  1  0
 32 36  1  0
 33 32  2  0
 34 33  1  0
 35 34  1  0
 37 18  1  0
 37 38  1  0
 38 40  1  0
 39 37  2  0
 41 38  1  0
 42 17  1  0
 43 42  1  0
 44 42  1  0
 46 45  1  0
 47 51  1  0
 48 54  1  0
 50 45  1  0
 50 48  1  0
 51 49  1  0
 51 61  1  0
 52 57  1  0
 52 50  1  0
 52 47  1  0
 54 49  1  0
 54 53  1  0
 55 57  1  0
 56 57  1  0
 57 58  1  6
 60 61  1  0
 61 62  1  1
 61 59  1  0
 63 68  1  0
 63  4  1  0
 64 66  1  0
 64 63  1  0
 65 64  1  0
 67 64  1  0
 68 69  1  0
 69 71  1  0
 70 81  2  0
 71 76  1  0
 72 82  1  0
 72 80  1  0
 73 79  1  0
 73 75  1  0
 74 80  1  0
 75 74  1  0
 76 75  2  0
 77 78  1  0
 77 71  2  0
 78 73  2  0
 79 72  1  0
 80 70  1  0
 82 84  2  0
 83 82  1  0
 85 83  1  0
 86 95  2  0
 86 91  1  0
 87 83  1  0
 87 91  1  0
 88 87  1  0
 89 90  1  0
 89 88  1  0
 90 86  1  0
 91 92  2  0
 92 93  1  0
 94 93  2  0
 95 94  1  0
 96 70  1  0
 96101  1  0
 96 97  1  0
 97 98  1  1
 97100  1  0
 99 97  1  0
101104  1  0
102101  1  0
102106  1  0
103102  2  0
106105  1  0
106108  1  0
108109  1  0
108107  1  0
M  ISO  4   7 100  15 100  68 101  69 101
M  END
>  <TORSDO>  (11) 
F 23

>  <SCORE>  (11) 
8.342

>  <name>  (11) 
10

>  <ligand_id>  (11) 
10

>  <original_smiles>  (11) 
[H]C(=Nc1c([H])c(N([H])C(=O)N2C([H])([H])C([H])([H])C([H])([H])C([H])(n3nc(-c4c([H])c([H])c(Oc5c([H])c([H])c(F)c([H])c5F)c([H])c4[H])c(C(=O)N([H])[H])c3N([H])[H])C2([H])[H])c([H])c([H])c1C([H])(C([H])([H])Oc1c([H])c([H])c2c(c1[H])C([H])([H])N(C(=O)C([H])(N([H])C(=O)C([H])(N([H])C([H])([H])[H])C([H])([H])[H])C(C([H])([H])[H])(C([H])([H])[H])C([H])([H])[H])C([H])(C(=O)N([H])C1([H])c3c([H])c([H])c([H])c([H])c3C([H])([H])C([H])([H])C1([H])[H])C2([H])[H])[N+]([H])([H])[H])C1([H])C([H])([H])N(C([H])([H])[H])C([H])([H])C([H])([N+]([H])(C([H])([H])[H])C([H])([H])[H])C([H])([H])C1([H])[N+]([H])(C([H])([H])[H])C([H])([H])[H]

>  <smiles>  (11) 
[H]C(=Nc1c([H])c(N([H])C(=O)N2C([H])([H])C([H])([H])C([H])([H])C([H])(n3nc(-c4c([H])c([H])c(Oc5c([H])c([H])c(F)c([H])c5F)c([H])c4[H])c(C(=O)N([H])[H])c3N([H])[H])C2([H])[H])c([H])c([H])c1C([H])(C([H])([H])Oc1c([H])c([H])c2c(c1[H])C([H])([H])N(C(=O)C([H])(N([H])C(=O)C([H])(N([H])C([H])([H])[H])C([H])([H])[H])C(C([H])([H])[H])(C([H])([H])[H])C([H])([H])[H])C([H])(C(=O)N([H])C1([H])c3c([H])c([H])c([H])c([H])c3C([H])([H])C([H])([H])C1([H])[H])C2([H])[H])[N+]([H])([H])[H])C1([H])C([H])([H])N(C([H])([H])[H])C([H])([H])C([H])([N+]([H])(C([H])([H])[H])C([H])([H])[H])C([H])([H])C1([H])[N+]([H])(C([H])([H])[H])C([H])([H])[H]

$$$$
11:0:0
     RDKit          3D

 97106  0  0  1  0  0  0  0  0999 V2000
  -29.3530  -24.7010   19.3720 C   0  0  0  0  0  0  0  0  0  0  0  0
  -31.3430  -23.3680   16.5470 C   0  0  0  0  0  2  0  0  0  0  0  0
  -31.1290  -22.1220   17.3830 C   0  0  0  0  0  2  0  0  0  0  0  0
  -30.3610  -24.3930   17.1110 C   0  0  0  0  0  2  0  0  0  0  0  0
  -30.6080  -22.6150   18.7500 C   0  0  0  0  0  3  0  0  0  0  0  0
  -30.0210  -23.9430   18.4660 N   0  0  0  0  0  0  0  0  0  0  0  0
  -29.1940  -24.3320   20.5410 O   0  0  0  0  0  0  0  0  0  0  0  0
  -29.6250  -21.5400   19.3000 C   0  0  0  0  0  0  0  0  0  0  0  0
  -31.3220  -20.6790   20.8070 C   0  0  0  0  0  1  0  0  0  0  0  0
  -30.1290  -20.4660   19.9740 N   0  0  0  0  0  0  0  0  0  0  0  0
  -28.4190  -21.6570   19.0490 O   0  0  0  0  0  0  0  0  0  0  0  0
  -28.7230  -17.4830   18.1380 C   0  0  0  0  0  3  0  0  0  0  0  0
  -29.0110  -16.4380   19.0220 C   0  0  0  0  0  3  0  0  0  0  0  0
  -29.0540  -18.8020   18.4780 C   0  0  0  0  0  3  0  0  0  0  0  0
  -29.9020  -18.0400   20.6320 C   0  0  0  0  0  3  0  0  0  0  0  0
  -29.5890  -16.7020   20.2820 C   0  0  0  0  0  0  0  0  0  0  0  0
  -29.6730  -19.1150   19.7180 C   0  0  0  0  0  0  0  0  0  0  0  0
  -30.6060  -14.5970   20.9200 C   0  0  0  0  0  0  0  0  0  0  0  0
  -30.4710  -12.3730   19.8920 C   0  0  0  0  0  2  0  0  0  0  0  0
  -29.6080  -12.4990   18.6180 C   0  0  0  0  0  2  0  0  0  0  0  0
  -28.1070  -12.3450   18.9510 C   0  0  0  0  0  2  0  0  0  0  0  0
  -27.6560  -13.2090   20.1610 C   0  0  0  0  0  3  0  0  0  0  0  0
  -28.6460  -13.0620   21.3410 C   0  0  0  0  0  2  0  0  0  0  0  0
  -29.9980  -13.3820   20.8490 N   0  0  0  0  0  0  0  0  0  0  0  0
  -31.7740  -14.7950   20.5710 O   0  0  0  0  0  0  0  0  0  0  0  0
  -29.7830  -15.6230   21.1950 N   0  0  0  0  0  0  0  0  0  0  0  0
  -28.9350  -15.3210   21.6510 H   0  0  0  0  0  0  0  0  0  0  0  0
  -25.2080  -13.7790   20.7000 C   0  0  0  0  0  0  0  0  0  0  0  0
  -24.1340  -12.9890   21.0080 C   0  0  0  0  0  0  0  0  0  0  0  0
  -24.6240  -11.6480   21.0280 C   0  0  0  0  0  0  0  0  0  0  0  0
  -26.2840  -12.9150   20.5540 N   0  0  0  0  0  0  0  0  0  0  0  0
  -25.9320  -11.6310   20.8080 N   0  0  0  0  0  0  0  0  0  0  0  0
  -23.9180  -10.3720   21.1890 C   0  0  0  0  0  0  0  0  0  0  0  0
  -24.3410   -9.4090   22.1320 C   0  0  0  0  0  3  0  0  0  0  0  0
  -23.6330   -8.1970   22.2810 C   0  0  0  0  0  3  0  0  0  0  0  0
  -22.4920   -7.9390   21.4850 C   0  0  0  0  0  0  0  0  0  0  0  0
  -22.0910   -8.8900   20.5310 C   0  0  0  0  0  3  0  0  0  0  0  0
  -22.7990  -10.0940   20.3800 C   0  0  0  0  0  3  0  0  0  0  0  0
  -21.7590   -6.7790   21.5430 O   0  0  0  0  0  0  0  0  0  0  0  0
  -21.7120   -6.0140   22.6800 C   0  0  0  0  0  0  0  0  0  0  0  0
  -21.2690   -6.5390   23.9140 C   0  0  0  0  0  3  0  0  0  0  0  0
  -21.1710   -5.6990   25.0410 C   0  0  0  0  0  3  0  0  0  0  0  0
  -21.5080   -4.3360   24.9350 C   0  0  0  0  0  0  0  0  0  0  0  0
  -21.9460   -3.8110   23.7070 C   0  0  0  0  0  3  0  0  0  0  0  0
  -22.0450   -4.6490   22.5820 C   0  0  0  0  0  0  0  0  0  0  0  0
  -22.4470   -4.1340   21.3930 F   0  0  0  0  0  0  0  0  0  0  0  0
  -21.4070   -3.5260   26.0150 F   0  0  0  0  0  0  0  0  0  0  0  0
  -22.7130  -13.4400   21.1820 C   0  0  0  0  0  0  0  0  0  0  0  0
  -21.9440  -12.7440   22.0130 N   0  0  0  0  0  0  0  0  0  0  0  0
  -22.2850  -14.4460   20.6170 O   0  0  0  0  0  0  0  0  0  0  0  0
  -22.2990  -11.9330   22.4990 H   0  0  0  0  0  0  0  0  0  0  0  0
  -20.9890  -13.0290   22.1700 H   0  0  0  0  0  0  0  0  0  0  0  0
  -25.3550  -15.1510   20.5130 N   0  0  0  0  0  0  0  0  0  0  0  0
  -24.5690  -15.7910   20.5650 H   0  0  0  0  0  0  0  0  0  0  0  0
  -26.2160  -15.6100   20.2450 H   0  0  0  0  0  0  0  0  0  0  0  0
  -28.8050  -26.0750   18.9360 C   0  0  0  0  0  2  0  0  0  0  0  0
  -28.4580  -26.8530   20.0880 O   0  0  0  0  0  0  0  0  0  0  0  0
  -24.6200  -31.9310   23.2340 C   0  0  0  0  0  0  0  0  0  0  0  0
  -27.2600  -27.5300   20.0950 C   0  0  0  0  0  0  0  0  0  0  0  0
  -23.4000  -30.5230   21.6050 C   0  0  0  0  0  3  0  0  0  0  0  0
  -24.8460  -28.9960   20.1600 C   0  0  0  0  0  0  0  0  0  0  0  0
  -25.9190  -30.9010   21.3760 C   0  0  0  0  0  2  0  0  0  0  0  0
  -26.0040  -29.5300   20.7370 C   0  0  0  0  0  0  0  0  0  0  0  0
  -27.2090  -28.7980   20.7130 C   0  0  0  0  0  3  0  0  0  0  0  0
  -26.0760  -26.9900   19.5430 C   0  0  0  0  0  3  0  0  0  0  0  0
  -24.8740  -27.7210   19.5690 C   0  0  0  0  0  3  0  0  0  0  0  0
  -23.5960  -29.8450   20.2220 C   0  0  0  0  0  2  0  0  0  0  0  0
  -24.6650  -31.1320   22.1300 N   0  0  0  0  0  0  0  0  0  0  0  0
  -23.5440  -32.1970   23.7870 O   0  0  0  0  0  0  0  0  0  0  0  0
  -22.7680  -29.4980   22.5730 C   0  0  0  0  0  0  0  0  0  0  0  0
  -21.4440  -29.3070   22.4600 N   0  0  0  0  0  0  0  0  0  0  0  0
  -23.4650  -28.8760   23.3790 O   0  0  0  0  0  0  0  0  0  0  0  0
  -20.9420  -29.8610   21.7810 H   0  0  0  0  0  0  0  0  0  0  0  0
  -18.0830  -28.0940   22.9890 C   0  0  0  0  0  0  0  0  0  0  0  0
  -20.6410  -28.3640   23.2390 C   0  0  0  0  0  3  0  0  0  0  0  0
  -20.7470  -26.9340   22.6640 C   0  0  0  0  0  2  0  0  0  0  0  0
  -19.6370  -26.6040   21.6580 C   0  0  0  0  0  2  0  0  0  0  0  0
  -18.2600  -26.7440   22.3140 C   0  0  0  0  0  2  0  0  0  0  0  0
  -19.2010  -28.8610   23.4090 C   0  0  0  0  0  0  0  0  0  0  0  0
  -18.9820  -30.1250   24.0000 C   0  0  0  0  0  3  0  0  0  0  0  0
  -17.6760  -30.6220   24.1750 C   0  0  0  0  0  3  0  0  0  0  0  0
  -16.5730  -29.8520   23.7700 C   0  0  0  0  0  3  0  0  0  0  0  0
  -16.7760  -28.5900   23.1840 C   0  0  0  0  0  3  0  0  0  0  0  0
  -25.9110  -32.5680   23.8370 C   0  0  0  0  0  3  0  0  0  0  0  0
  -26.4510  -31.7970   25.1030 C   0  0  1  0  0  0  0  0  0  0  0  0
  -25.3770  -31.5530   26.1880 C   0  0  0  0  0  1  0  0  0  0  0  0
  -27.0330  -30.4230   24.6970 C   0  0  0  0  0  1  0  0  0  0  0  0
  -27.6070  -32.5950   25.7490 C   0  0  0  0  0  1  0  0  0  0  0  0
  -25.5980  -33.9630   24.1710 N   0  0  0  0  0  0  0  0  0  0  0  0
  -25.9250  -35.0180   23.4110 C   0  0  0  0  0  0  0  0  0  0  0  0
  -26.5920  -34.9180   22.3780 O   0  0  0  0  0  0  0  0  0  0  0  0
  -25.0070  -34.1150   24.9740 H   0  0  0  0  0  0  0  0  0  0  0  0
  -24.1940  -36.8060   23.0570 C   0  0  0  0  0  1  0  0  0  0  0  0
  -25.4340  -36.4030   23.8720 C   0  0  0  0  0  3  0  0  0  0  0  0
  -27.5660  -37.2860   24.7100 C   0  0  0  0  0  1  0  0  0  0  0  0
  -26.4650  -37.4580   23.7660 N   0  0  0  0  0  0  0  0  0  0  0  0
  -26.0570  -38.3760   23.9200 H   0  0  0  0  0  0  0  0  0  0  0  0
  1  7  2  0
  2  4  1  0
  2  3  1  0
  3  5  1  0
  4  6  1  0
  5  8  1  0
  6  5  1  0
  6  1  1  0
  8 10  1  0
 10  9  1  0
 11  8  2  0
 12 14  2  0
 12 13  1  0
 13 16  2  0
 14 17  1  0
 16 15  1  0
 16 26  1  0
 17 10  1  0
 17 15  2  0
 18 26  1  0
 19 24  1  0
 20 21  1  0
 20 19  1  0
 22 21  1  0
 22 31  1  0
 22 23  1  0
 24 18  1  0
 24 23  1  0
 25 18  2  0
 26 27  1  0
 28 29  2  0
 29 30  1  0
 29 48  1  0
 30 33  1  0
 31 28  1  0
 31 32  1  0
 32 30  2  0
 33 34  1  0
 34 35  2  0
 36 39  1  0
 36 35  1  0
 37 36  2  0
 38 37  1  0
 38 33  2  0
 39 40  1  0
 40 41  1  0
 41 42  2  0
 43 42  1  0
 43 47  1  0
 44 43  2  0
 45 40  2  0
 45 44  1  0
 46 45  1  0
 48 49  1  0
 49 52  1  0
 49 51  1  0
 50 48  2  0
 53 54  1  0
 53 28  1  0
 55 53  1  0
 56  1  1  0
 56 57  1  0
 57 59  1  0
 58 69  2  0
 59 64  1  0
 60 68  1  0
 60 70  1  0
 61 67  1  0
 61 63  1  0
 62 68  1  0
 63 62  1  0
 64 63  2  0
 65 66  1  0
 65 59  2  0
 66 61  2  0
 67 60  1  0
 68 58  1  0
 70 72  2  0
 71 70  1  0
 73 71  1  0
 74 83  2  0
 74 79  1  0
 75 71  1  0
 75 79  1  0
 76 75  1  0
 77 78  1  0
 77 76  1  0
 78 74  1  0
 79 80  2  0
 80 81  1  0
 82 81  2  0
 83 82  1  0
 84 58  1  0
 84 89  1  0
 84 85  1  0
 85 88  1  1
 85 86  1  0
 87 85  1  0
 89 92  1  0
 90 94  1  0
 90 89  1  0
 91 90  2  0
 94 93  1  0
 96 94  1  0
 96 97  1  0
 96 95  1  0
M  ISO  4  18 100  26 100  56 101  57 101
M  END
>  <TORSDO>  (12) 
F 19

>  <SCORE>  (12) 
-14.110

>  <name>  (12) 
11

>  <ligand_id>  (12) 
11

>  <original_smiles>  (12) 
[H]c1c([H])c(N([H])C(=O)N2C([H])([H])C([H])([H])C([H])([H])C([H])(n3nc(-c4c([H])c([H])c(Oc5c([H])c([H])c(F)c([H])c5F)c([H])c4[H])c(C(=O)N([H])[H])c3N([H])[H])C2([H])[H])c([H])c(N(C(=O)C2([H])N(C(=O)C([H])([H])Oc3c([H])c([H])c4c(c3[H])C([H])([H])N(C(=O)C([H])(N([H])C(=O)C([H])(N([H])C([H])([H])[H])C([H])([H])[H])C(C([H])([H])[H])(C([H])([H])[H])C([H])([H])[H])C([H])(C(=O)N([H])C3([H])c5c([H])c([H])c([H])c([H])c5C([H])([H])C([H])([H])C3([H])[H])C4([H])[H])C([H])([H])C([H])([H])C2([H])[H])C([H])([H])[H])c1[H]

>  <smiles>  (12) 
[H]c1c([H])c(N([H])C(=O)N2C([H])([H])C([H])([H])C([H])([H])C([H])(n3nc(-c4c([H])c([H])c(Oc5c([H])c([H])c(F)c([H])c5F)c([H])c4[H])c(C(=O)N([H])[H])c3N([H])[H])C2([H])[H])c([H])c(N(C(=O)C2([H])N(C(=O)C([H])([H])Oc3c([H])c([H])c4c(c3[H])C([H])([H])N(C(=O)C([H])(N([H])C(=O)C([H])(N([H])C([H])([H])[H])C([H])([H])[H])C(C([H])([H])[H])(C([H])([H])[H])C([H])([H])[H])C([H])(C(=O)N([H])C3([H])c5c([H])c([H])c([H])c([H])c5C([H])([H])C([H])([H])C3([H])[H])C4([H])[H])C([H])([H])C([H])([H])C2([H])[H])C([H])([H])[H])c1[H]

$$$$
12:0:0
     RDKit          3D

103111  0  0  1  0  0  0  0  0999 V2000
  -35.7690  -21.1300   17.7040 C   0  0  0  0  0  3  0  0  0  0  0  0
  -36.5950  -22.2620   17.3770 C   0  0  0  0  0  3  0  0  0  0  0  0
  -34.2170  -22.6030   18.7900 C   0  0  0  0  0  3  0  0  0  0  0  0
  -34.5430  -21.2770   18.4140 C   0  0  0  0  0  0  0  0  0  0  0  0
  -36.2510  -23.5940   17.7620 C   0  0  0  0  0  0  0  0  0  0  0  0
  -35.0530  -23.7270   18.5190 C   0  0  0  0  0  0  0  0  0  0  0  0
  -33.1120  -19.6750   19.9610 C   0  0  0  0  0  0  0  0  0  0  0  0
  -32.6640  -17.4120   20.9120 C   0  0  0  0  0  2  0  0  0  0  0  0
  -33.9680  -16.5880   20.8040 C   0  0  0  0  0  2  0  0  0  0  0  0
  -34.1070  -15.9340   19.4110 C   0  0  0  0  0  2  0  0  0  0  0  0
  -33.8270  -16.9310   18.2550 C   0  0  0  0  0  3  0  0  0  0  0  0
  -32.5100  -17.6950   18.5170 C   0  0  0  0  0  2  0  0  0  0  0  0
  -32.6530  -18.3920   19.8080 N   0  0  0  0  0  0  0  0  0  0  0  0
  -33.1600  -20.2190   21.0710 O   0  0  0  0  0  0  0  0  0  0  0  0
  -33.5790  -20.2410   18.8010 N   0  0  0  0  0  0  0  0  0  0  0  0
  -33.2940  -19.6710   18.0200 H   0  0  0  0  0  0  0  0  0  0  0  0
  -32.9150  -16.3950   15.9110 C   0  0  0  0  0  0  0  0  0  0  0  0
  -33.4010  -15.6170   14.8950 C   0  0  0  0  0  0  0  0  0  0  0  0
  -34.6200  -15.0500   15.3810 C   0  0  0  0  0  0  0  0  0  0  0  0
  -33.8220  -16.2720   16.9530 N   0  0  0  0  0  0  0  0  0  0  0  0
  -34.8250  -15.4090   16.6420 N   0  0  0  0  0  0  0  0  0  0  0  0
  -35.6310  -14.2320   14.7020 C   0  0  0  0  0  0  0  0  0  0  0  0
  -35.2890  -13.3850   13.6240 C   0  0  0  0  0  3  0  0  0  0  0  0
  -36.2800  -12.6190   12.9740 C   0  0  0  0  0  3  0  0  0  0  0  0
  -37.6270  -12.6970   13.3960 C   0  0  0  0  0  0  0  0  0  0  0  0
  -37.9600  -13.5250   14.4810 C   0  0  0  0  0  3  0  0  0  0  0  0
  -36.9710  -14.2840   15.1310 C   0  0  0  0  0  3  0  0  0  0  0  0
  -38.6540  -11.9720   12.8390 O   0  0  0  0  0  0  0  0  0  0  0  0
  -39.8770  -12.5370   12.5800 C   0  0  0  0  0  0  0  0  0  0  0  0
  -40.7220  -12.9900   13.6150 C   0  0  0  0  0  3  0  0  0  0  0  0
  -41.9990  -13.5010   13.3090 C   0  0  0  0  0  3  0  0  0  0  0  0
  -42.4340  -13.5510   11.9720 C   0  0  0  0  0  0  0  0  0  0  0  0
  -41.5960  -13.0960   10.9400 C   0  0  0  0  0  3  0  0  0  0  0  0
  -40.3210  -12.5870   11.2440 C   0  0  0  0  0  0  0  0  0  0  0  0
  -39.5260  -12.1320   10.2470 F   0  0  0  0  0  0  0  0  0  0  0  0
  -43.6650  -14.0340   11.6780 F   0  0  0  0  0  0  0  0  0  0  0  0
  -32.8280  -15.4890   13.5130 C   0  0  0  0  0  0  0  0  0  0  0  0
  -33.0550  -14.3550   12.8580 N   0  0  0  0  0  0  0  0  0  0  0  0
  -32.1320  -16.3770   13.0230 O   0  0  0  0  0  0  0  0  0  0  0  0
  -33.6090  -13.6180   13.2690 H   0  0  0  0  0  0  0  0  0  0  0  0
  -32.6730  -14.2250   11.9340 H   0  0  0  0  0  0  0  0  0  0  0  0
  -31.7940  -17.2110   16.0310 N   0  0  0  0  0  0  0  0  0  0  0  0
  -31.2000  -17.4040   15.2340 H   0  0  0  0  0  0  0  0  0  0  0  0
  -31.6590  -17.8640   16.7930 H   0  0  0  0  0  0  0  0  0  0  0  0
  -37.4740  -25.3750   16.2630 C   0  0  0  0  0  0  0  0  0  0  0  0
  -36.9700  -24.8380   17.4270 N   0  0  0  0  0  0  0  0  0  0  0  0
  -37.5250  -24.6940   15.2380 O   0  0  0  0  0  0  0  0  0  0  0  0
  -37.0800  -25.3930   18.2640 H   0  0  0  0  0  0  0  0  0  0  0  0
  -37.9570  -26.9060   16.1710 C   0  0  0  0  0  3  0  0  0  0  0  0
  -39.4330  -27.0190   16.0480 N   0  0  0  0  0  4  0  0  0  0  0  0
  -39.7500  -26.6640   15.1610 H   0  0  0  0  0  0  0  0  0  0  0  0
  -39.8980  -26.5210   16.7860 H   0  0  0  0  0  0  0  0  0  0  0  0
  -39.7180  -27.9840   16.1090 H   0  0  0  0  0  0  0  0  0  0  0  0
  -37.2380  -27.8910   15.1210 C   0  0  0  0  0  2  0  0  0  0  0  0
  -37.5510  -29.3400   15.0000 O   0  0  0  0  0  0  0  0  0  0  0  0
  -34.6460  -29.9180    8.3870 C   0  0  0  0  0  0  0  0  0  0  0  0
  -37.0510  -30.1260   13.9560 C   0  0  0  0  0  0  0  0  0  0  0  0
  -35.4350  -32.0070    9.4440 C   0  0  0  0  0  3  0  0  0  0  0  0
  -36.0070  -31.8540   11.9310 C   0  0  0  0  0  0  0  0  0  0  0  0
  -34.6390  -30.0470   10.8910 C   0  0  0  0  0  2  0  0  0  0  0  0
  -35.6080  -30.5110   11.9700 C   0  0  0  0  0  0  0  0  0  0  0  0
  -36.1100  -29.6520   12.9900 C   0  0  0  0  0  3  0  0  0  0  0  0
  -37.4020  -31.4880   13.9020 C   0  0  0  0  0  3  0  0  0  0  0  0
  -36.8960  -32.3470   12.9030 C   0  0  0  0  0  3  0  0  0  0  0  0
  -35.4480  -32.7220   10.8210 C   0  0  0  0  0  2  0  0  0  0  0  0
  -34.9080  -30.6060    9.5370 N   0  0  0  0  0  0  0  0  0  0  0  0
  -34.8000  -30.4400    7.2740 O   0  0  0  0  0  0  0  0  0  0  0  0
  -36.8510  -32.0890    8.8270 C   0  0  0  0  0  0  0  0  0  0  0  0
  -37.0970  -33.1300    8.0130 N   0  0  0  0  0  0  0  0  0  0  0  0
  -37.7080  -31.2440    9.1060 O   0  0  0  0  0  0  0  0  0  0  0  0
  -36.3400  -33.7730    7.8250 H   0  0  0  0  0  0  0  0  0  0  0  0
  -38.7760  -35.4640    5.8220 C   0  0  0  0  0  0  0  0  0  0  0  0
  -38.3730  -33.4240    7.3610 C   0  0  0  0  0  3  0  0  0  0  0  0
  -39.3540  -34.1040    8.3430 C   0  0  0  0  0  2  0  0  0  0  0  0
  -39.3000  -35.6350    8.2900 C   0  0  0  0  0  2  0  0  0  0  0  0
  -39.6310  -36.1350    6.8810 C   0  0  0  0  0  2  0  0  0  0  0  0
  -38.1720  -34.1980    6.0530 C   0  0  0  0  0  0  0  0  0  0  0  0
  -37.3570  -33.6350    5.0470 C   0  0  0  0  0  3  0  0  0  0  0  0
  -37.1470  -34.3100    3.8310 C   0  0  0  0  0  3  0  0  0  0  0  0
  -37.7550  -35.5560    3.6020 C   0  0  0  0  0  3  0  0  0  0  0  0
  -38.5710  -36.1260    4.5940 C   0  0  0  0  0  3  0  0  0  0  0  0
  -34.1160  -28.4480    8.4180 C   0  0  0  0  0  3  0  0  0  0  0  0
  -32.6830  -28.2920    7.7770 C   0  0  1  0  0  0  0  0  0  0  0  0
  -31.6600  -29.3420    8.2720 C   0  0  0  0  0  1  0  0  0  0  0  0
  -32.7620  -28.3970    6.2360 C   0  0  0  0  0  1  0  0  0  0  0  0
  -32.1180  -26.8880    8.0970 C   0  0  0  0  0  1  0  0  0  0  0  0
  -34.1060  -28.0110    9.8210 N   0  0  0  0  0  0  0  0  0  0  0  0
  -34.2730  -26.7450   10.2260 C   0  0  0  0  0  0  0  0  0  0  0  0
  -34.3820  -25.8020    9.4370 O   0  0  0  0  0  0  0  0  0  0  0  0
  -34.0790  -28.7390   10.5210 H   0  0  0  0  0  0  0  0  0  0  0  0
  -35.0650  -27.6330   12.4380 C   0  0  0  0  0  1  0  0  0  0  0  0
  -34.3210  -26.4820   11.7440 C   0  0  0  0  0  3  0  0  0  0  0  0
  -34.6130  -24.1110   11.1760 C   0  0  0  0  0  1  0  0  0  0  0  0
  -34.9540  -25.1910   12.0990 N   0  0  0  0  0  0  0  0  0  0  0  0
  -34.6830  -24.9060   13.0370 H   0  0  0  0  0  0  0  0  0  0  0  0
  -33.2980  -25.2700   19.2010 C   0  0  0  0  0  1  0  0  0  0  0  0
  -34.7270  -24.9850   19.0700 N   0  0  0  0  0  0  0  0  0  0  0  0
  -35.6550  -25.4020   20.1340 C   0  0  0  0  0  2  0  0  0  0  0  0
  -36.6830  -24.3220   20.5800 C   0  0  0  0  0  2  0  0  0  0  0  0
  -38.6620  -25.6290   21.3570 C   0  0  0  0  0  1  0  0  0  0  0  0
  -36.7400  -25.3060   22.8380 C   0  0  0  0  0  1  0  0  0  0  0  0
  -37.5360  -24.7390   21.7240 N   0  0  1  0  0  4  0  0  0  0  0  0
  -37.9430  -23.8920   22.0920 H   0  0  0  0  0  0  0  0  0  0  0  0
  1  4  1  0
  2  1  2  0
  2  5  1  0
  4  3  2  0
  4 15  1  0
  5  6  2  0
  6  3  1  0
  6 97  1  0
  7 14  2  0
  9  8  1  0
 10  9  1  0
 11 20  1  0
 11 12  1  0
 11 10  1  0
 12 13  1  0
 13  7  1  0
 13  8  1  0
 15  7  1  0
 16 15  1  0
 17 42  1  0
 17 20  1  0
 18 19  1  0
 18 17  2  0
 19 21  2  0
 21 20  1  0
 22 27  1  0
 22 19  1  0
 23 22  2  0
 24 25  2  0
 24 23  1  0
 25 26  1  0
 26 27  2  0
 28 25  1  0
 29 28  1  0
 29 30  1  0
 31 30  2  0
 32 31  1  0
 33 34  1  0
 33 32  2  0
 34 29  2  0
 35 34  1  0
 36 32  1  0
 37 18  1  0
 38 40  1  0
 38 37  1  0
 39 37  2  0
 41 38  1  0
 42 44  1  0
 43 42  1  0
 45 46  1  0
 46  5  1  0
 46 48  1  0
 47 45  2  0
 49 54  1  0
 49 45  1  0
 50 53  1  0
 50 49  1  0
 50 52  1  0
 51 50  1  0
 55 54  1  0
 56 66  1  0
 57 55  1  0
 58 68  1  0
 58 66  1  0
 58 65  1  0
 59 61  2  0
 59 64  1  0
 60 61  1  0
 61 62  1  0
 62 57  2  0
 63 57  1  0
 64 63  2  0
 65 59  1  0
 66 60  1  0
 67 56  2  0
 68 70  2  0
 69 68  1  0
 71 69  1  0
 72 77  1  0
 72 76  1  0
 73 69  1  0
 73 74  1  0
 75 74  1  0
 76 75  1  0
 77 73  1  0
 78 77  2  0
 79 78  1  0
 80 79  2  0
 80 81  1  0
 81 72  2  0
 82 56  1  0
 82 87  1  0
 83 86  1  6
 83 84  1  0
 83 82  1  0
 85 83  1  0
 87 88  1  0
 87 90  1  0
 88 92  1  0
 89 88  2  0
 92 94  1  0
 92 91  1  0
 93 94  1  0
 94 95  1  0
 97 96  1  0
 97 98  1  0
 98 99  1  0
 99102  1  0
100102  1  0
102103  1  1
102101  1  0
M  ISO  4   7 100  15 100  54 101  55 101
M  END
>  <TORSDO>  (13) 
F 24

>  <SCORE>  (13) 
0.649

>  <name>  (13) 
12

>  <ligand_id>  (13) 
12

>  <original_smiles>  (13) 
[H]c1c([H])c([H])c2c(c1[H])C([H])([H])C([H])([H])C([H])([H])C2([H])N([H])C(=O)C1([H])N(C(=O)C([H])(N([H])C(=O)C([H])(N([H])C([H])([H])[H])C([H])([H])[H])C(C([H])([H])[H])(C([H])([H])[H])C([H])([H])[H])C([H])([H])c2c([H])c(OC([H])([H])C([H])(C(=O)N([H])c3c([H])c([H])c(N([H])C(=O)N4C([H])([H])C([H])([H])C([H])([H])C([H])(n5nc(-c6c([H])c([H])c(Oc7c([H])c([H])c(F)c([H])c7F)c([H])c6[H])c(C(=O)N([H])[H])c5N([H])[H])C4([H])[H])c([H])c3N(C([H])([H])[H])C([H])([H])C([H])([H])[N+]([H])(C([H])([H])[H])C([H])([H])[H])[N+]([H])([H])[H])c([H])c([H])c2C1([H])[H]

>  <smiles>  (13) 
[H]c1c([H])c([H])c2c(c1[H])C([H])([H])C([H])([H])C([H])([H])C2([H])N([H])C(=O)C1([H])N(C(=O)C([H])(N([H])C(=O)C([H])(N([H])C([H])([H])[H])C([H])([H])[H])C(C([H])([H])[H])(C([H])([H])[H])C([H])([H])[H])C([H])([H])c2c([H])c(OC([H])([H])C([H])(C(=O)N([H])c3c([H])c([H])c(N([H])C(=O)N4C([H])([H])C([H])([H])C([H])([H])C([H])(n5nc(-c6c([H])c([H])c(Oc7c([H])c([H])c(F)c([H])c7F)c([H])c6[H])c(C(=O)N([H])[H])c5N([H])[H])C4([H])[H])c([H])c3N(C([H])([H])[H])C([H])([H])C([H])([H])[N+]([H])(C([H])([H])[H])C([H])([H])[H])[N+]([H])([H])[H])c([H])c([H])c2C1([H])[H]

$$$$
13:0:0
     RDKit          3D

 94102  0  0  1  0  0  0  0  0999 V2000
  -30.2960  -18.6280   18.0090 C   0  0  0  0  0  3  0  0  0  0  0  0
  -29.8990  -19.8380   20.1070 C   0  0  0  0  0  0  0  0  0  0  0  0
  -30.1220  -17.2770   20.0570 C   0  0  0  0  0  0  0  0  0  0  0  0
  -30.1220  -19.8340   18.7140 C   0  0  0  0  0  0  0  0  0  0  0  0
  -30.2840  -17.3770   18.6540 C   0  0  0  0  0  0  0  0  0  0  0  0
  -29.9080  -18.5340   20.7620 C   0  0  0  0  0  0  0  0  0  0  0  0
  -30.1830  -21.0020   18.0290 F   0  0  0  0  0  0  0  0  0  0  0  0
  -30.3900  -16.2610   17.8900 F   0  0  0  0  0  0  0  0  0  0  0  0
  -29.7170  -18.4860   22.1030 F   0  0  0  0  0  0  0  0  0  0  0  0
  -30.8180  -14.8000   20.3790 C   0  0  0  0  0  0  0  0  0  0  0  0
  -30.6200  -12.5110   19.4130 C   0  0  0  0  0  2  0  0  0  0  0  0
  -29.6920  -12.5810   18.1810 C   0  0  0  0  0  2  0  0  0  0  0  0
  -28.2180  -12.4210   18.5990 C   0  0  0  0  0  2  0  0  0  0  0  0
  -27.8400  -13.3190   19.8070 C   0  0  0  0  0  3  0  0  0  0  0  0
  -28.8900  -13.2350   20.9380 C   0  0  0  0  0  2  0  0  0  0  0  0
  -30.1960  -13.5710   20.3570 N   0  0  0  0  0  0  0  0  0  0  0  0
  -31.9950  -14.8970   20.0210 O   0  0  0  0  0  0  0  0  0  0  0  0
  -30.0700  -15.9270   20.6770 N   0  0  0  0  0  0  0  0  0  0  0  0
  -29.2390  -15.7530   21.2210 H   0  0  0  0  0  0  0  0  0  0  0  0
  -25.4490  -13.9150   20.5230 C   0  0  0  0  0  0  0  0  0  0  0  0
  -24.3800  -13.1430   20.8880 C   0  0  0  0  0  0  0  0  0  0  0  0
  -24.8400  -11.7910   20.8550 C   0  0  0  0  0  0  0  0  0  0  0  0
  -26.4930  -13.0340   20.2900 N   0  0  0  0  0  0  0  0  0  0  0  0
  -26.1310  -11.7510   20.5530 N   0  0  0  0  0  0  0  0  0  0  0  0
  -24.1080  -10.5300   21.0390 C   0  0  0  0  0  0  0  0  0  0  0  0
  -24.5140   -9.5700   21.9910 C   0  0  0  0  0  3  0  0  0  0  0  0
  -23.7810   -8.3760   22.1620 C   0  0  0  0  0  3  0  0  0  0  0  0
  -22.6280   -8.1320   21.3800 C   0  0  0  0  0  0  0  0  0  0  0  0
  -22.2410   -9.0810   20.4160 C   0  0  0  0  0  3  0  0  0  0  0  0
  -22.9730  -10.2660   20.2440 C   0  0  0  0  0  3  0  0  0  0  0  0
  -21.8690   -6.9890   21.4590 O   0  0  0  0  0  0  0  0  0  0  0  0
  -21.7610   -6.2770   22.6260 C   0  0  0  0  0  0  0  0  0  0  0  0
  -21.2160   -6.8450   23.7980 C   0  0  0  0  0  3  0  0  0  0  0  0
  -21.0610   -6.0560   24.9560 C   0  0  0  0  0  3  0  0  0  0  0  0
  -21.4400   -4.7000   24.9410 C   0  0  0  0  0  0  0  0  0  0  0  0
  -21.9760   -4.1320   23.7730 C   0  0  0  0  0  3  0  0  0  0  0  0
  -22.1350   -4.9180   22.6190 C   0  0  0  0  0  0  0  0  0  0  0  0
  -22.6340   -4.3600   21.4900 F   0  0  0  0  0  0  0  0  0  0  0  0
  -21.2820   -3.9410   26.0500 F   0  0  0  0  0  0  0  0  0  0  0  0
  -22.9840  -13.6260   21.1520 C   0  0  0  0  0  0  0  0  0  0  0  0
  -22.2480  -12.9300   22.0130 N   0  0  0  0  0  0  0  0  0  0  0  0
  -22.5530  -14.6540   20.6320 O   0  0  0  0  0  0  0  0  0  0  0  0
  -22.6100  -12.0990   22.4580 H   0  0  0  0  0  0  0  0  0  0  0  0
  -21.3120  -13.2390   22.2340 H   0  0  0  0  0  0  0  0  0  0  0  0
  -25.6170  -15.2860   20.3470 N   0  0  0  0  0  0  0  0  0  0  0  0
  -24.8470  -15.9370   20.4550 H   0  0  0  0  0  0  0  0  0  0  0  0
  -26.4600  -15.7240   20.0010 H   0  0  0  0  0  0  0  0  0  0  0  0
  -29.7560  -21.2420   20.8620 C   0  0  0  0  0  2  0  0  0  0  0  0
  -29.2240  -23.7950   20.5170 C   0  0  0  0  0  0  0  0  0  0  0  0
  -27.6900  -22.0410   19.6830 C   0  0  0  0  0  1  0  0  0  0  0  0
  -28.9520  -22.4350   20.3160 N   0  0  0  0  0  0  0  0  0  0  0  0
  -30.2750  -24.1520   21.0590 O   0  0  0  0  0  0  0  0  0  0  0  0
  -28.1750  -24.9380   20.1010 C   0  0  0  0  0  2  0  0  0  0  0  0
  -28.4460  -26.3920   20.4140 O   0  0  0  0  0  0  0  0  0  0  0  0
  -24.6190  -31.8670   23.2890 C   0  0  0  0  0  0  0  0  0  0  0  0
  -27.3630  -27.3010   20.3010 C   0  0  0  0  0  0  0  0  0  0  0  0
  -23.4900  -30.4730   21.5970 C   0  0  0  0  0  3  0  0  0  0  0  0
  -25.0030  -28.9450   20.2120 C   0  0  0  0  0  0  0  0  0  0  0  0
  -26.0380  -30.7930   21.5190 C   0  0  0  0  0  2  0  0  0  0  0  0
  -26.1490  -29.4180   20.8620 C   0  0  0  0  0  0  0  0  0  0  0  0
  -27.3320  -28.6080   20.9000 C   0  0  0  0  0  3  0  0  0  0  0  0
  -26.1950  -26.9130   19.6030 C   0  0  0  0  0  3  0  0  0  0  0  0
  -25.0310  -27.7000   19.5710 C   0  0  0  0  0  3  0  0  0  0  0  0
  -23.7620  -29.8160   20.2210 C   0  0  0  0  0  2  0  0  0  0  0  0
  -24.7330  -31.0630   22.1910 N   0  0  0  0  0  0  0  0  0  0  0  0
  -23.5150  -32.1350   23.7820 O   0  0  0  0  0  0  0  0  0  0  0  0
  -22.7960  -29.4430   22.5240 C   0  0  0  0  0  0  0  0  0  0  0  0
  -21.4780  -29.2530   22.3430 N   0  0  0  0  0  0  0  0  0  0  0  0
  -23.4470  -28.8200   23.3670 O   0  0  0  0  0  0  0  0  0  0  0  0
  -21.0120  -29.8110   21.6410 H   0  0  0  0  0  0  0  0  0  0  0  0
  -18.0950  -28.0220   22.7060 C   0  0  0  0  0  0  0  0  0  0  0  0
  -20.6380  -28.3050   23.0770 C   0  0  0  0  0  3  0  0  0  0  0  0
  -20.7750  -26.8760   22.5010 C   0  0  0  0  0  2  0  0  0  0  0  0
  -19.7180  -26.5480   21.4420 C   0  0  0  0  0  2  0  0  0  0  0  0
  -18.3100  -26.6780   22.0320 C   0  0  0  0  0  2  0  0  0  0  0  0
  -19.1880  -28.7930   23.1830 C   0  0  0  0  0  0  0  0  0  0  0  0
  -18.9340  -30.0510   23.7710 C   0  0  0  0  0  3  0  0  0  0  0  0
  -17.6190  -30.5390   23.8870 C   0  0  0  0  0  3  0  0  0  0  0  0
  -16.5390  -29.7650   23.4280 C   0  0  0  0  0  3  0  0  0  0  0  0
  -16.7770  -28.5090   22.8420 C   0  0  0  0  0  3  0  0  0  0  0  0
  -25.8730  -32.5070   23.9620 C   0  0  0  0  0  3  0  0  0  0  0  0
  -26.3310  -31.7470   25.2680 C   0  0  1  0  0  0  0  0  0  0  0  0
  -25.1900  -31.5120   26.2850 C   0  0  0  0  0  1  0  0  0  0  0  0
  -26.9370  -30.3690   24.9160 C   0  0  0  0  0  1  0  0  0  0  0  0
  -27.4470  -32.5510   25.9770 C   0  0  0  0  0  1  0  0  0  0  0  0
  -25.5480  -33.9070   24.2680 N   0  0  0  0  0  0  0  0  0  0  0  0
  -25.8910  -34.9530   23.5040 C   0  0  0  0  0  0  0  0  0  0  0  0
  -26.5840  -34.8420   22.4880 O   0  0  0  0  0  0  0  0  0  0  0  0
  -24.9370  -34.0680   25.0550 H   0  0  0  0  0  0  0  0  0  0  0  0
  -24.1640  -36.7370   23.0890 C   0  0  0  0  0  1  0  0  0  0  0  0
  -25.3870  -36.3450   23.9350 C   0  0  0  0  0  3  0  0  0  0  0  0
  -27.4890  -37.2570   24.8180 C   0  0  0  0  0  1  0  0  0  0  0  0
  -26.4190  -37.4010   23.8350 N   0  0  0  0  0  0  0  0  0  0  0  0
  -26.0030  -38.3220   23.9510 H   0  0  0  0  0  0  0  0  0  0  0  0
  1  5  2  0
  1  4  1  0
  2  6  1  0
  2 48  1  0
  3 18  1  0
  3  6  2  0
  4  2  2  0
  5  3  1  0
  6  9  1  0
  7  4  1  0
  8  5  1  0
 10 18  1  0
 11 16  1  0
 12 13  1  0
 12 11  1  0
 14 13  1  0
 14 23  1  0
 14 15  1  0
 16 10  1  0
 16 15  1  0
 17 10  2  0
 18 19  1  0
 20 21  2  0
 21 40  1  0
 22 21  1  0
 22 25  1  0
 23 20  1  0
 23 24  1  0
 24 22  2  0
 25 26  1  0
 26 27  2  0
 28 31  1  0
 28 27  1  0
 29 28  2  0
 30 29  1  0
 30 25  2  0
 31 32  1  0
 32 33  1  0
 33 34  2  0
 35 34  1  0
 35 39  1  0
 36 35  2  0
 37 32  2  0
 37 36  1  0
 38 37  1  0
 40 41  1  0
 41 44  1  0
 41 43  1  0
 42 40  2  0
 45 46  1  0
 45 20  1  0
 47 45  1  0
 49 52  2  0
 50 51  1  0
 51 49  1  0
 51 48  1  0
 53 54  1  0
 53 49  1  0
 55 66  2  0
 56 54  1  0
 56 61  1  0
 57 65  1  0
 57 67  1  0
 58 64  1  0
 58 60  1  0
 59 65  1  0
 60 61  2  0
 60 59  1  0
 62 56  2  0
 63 62  1  0
 63 58  2  0
 64 57  1  0
 65 55  1  0
 67 69  2  0
 68 67  1  0
 70 68  1  0
 71 80  2  0
 71 76  1  0
 72 68  1  0
 72 76  1  0
 73 72  1  0
 74 75  1  0
 74 73  1  0
 75 71  1  0
 76 77  2  0
 77 78  1  0
 79 78  2  0
 80 79  1  0
 81 55  1  0
 81 86  1  0
 81 82  1  0
 82 85  1  1
 82 83  1  0
 84 82  1  0
 86 89  1  0
 87 91  1  0
 87 86  1  0
 88 87  2  0
 91 90  1  0
 93 91  1  0
 93 94  1  0
 93 92  1  0
M  ISO  4  10 100  18 100  53 101  54 101
M  END
>  <TORSDO>  (14) 
F 19

>  <SCORE>  (14) 
-13.730

>  <name>  (14) 
13

>  <ligand_id>  (14) 
13

>  <original_smiles>  (14) 
[H]c1c([H])c([H])c2c(c1[H])C([H])([H])C([H])([H])C([H])([H])C2([H])N([H])C(=O)C1([H])N(C(=O)C([H])(N([H])C(=O)C([H])(N([H])C([H])([H])[H])C([H])([H])[H])C(C([H])([H])[H])(C([H])([H])[H])C([H])([H])[H])C([H])([H])c2c([H])c(OC([H])([H])C(=O)N(C([H])([H])[H])C([H])([H])c3c(F)c([H])c(F)c(N([H])C(=O)N4C([H])([H])C([H])([H])C([H])([H])C([H])(n5nc(-c6c([H])c([H])c(Oc7c([H])c([H])c(F)c([H])c7F)c([H])c6[H])c(C(=O)N([H])[H])c5N([H])[H])C4([H])[H])c3F)c([H])c([H])c2C1([H])[H]

>  <smiles>  (14) 
[H]c1c([H])c([H])c2c(c1[H])C([H])([H])C([H])([H])C([H])([H])C2([H])N([H])C(=O)C1([H])N(C(=O)C([H])(N([H])C(=O)C([H])(N([H])C([H])([H])[H])C([H])([H])[H])C(C([H])([H])[H])(C([H])([H])[H])C([H])([H])[H])C([H])([H])c2c([H])c(OC([H])([H])C(=O)N(C([H])([H])[H])C([H])([H])c3c(F)c([H])c(F)c(N([H])C(=O)N4C([H])([H])C([H])([H])C([H])([H])C([H])(n5nc(-c6c([H])c([H])c(Oc7c([H])c([H])c(F)c([H])c7F)c([H])c6[H])c(C(=O)N([H])[H])c5N([H])[H])C4([H])[H])c3F)c([H])c([H])c2C1([H])[H]

$$$$
14:0:0
     RDKit          3D

 98106  0  0  1  0  0  0  0  0999 V2000
  -28.9800  -22.7130   20.5850 C   0  0  2  0  0  0  0  0  0  0  0  0
  -29.5140  -19.6550   20.5470 C   0  0  0  0  0  3  0  0  0  0  0  0
  -28.1460  -20.7500   18.8880 C   0  0  0  0  0  3  0  0  0  0  0  0
  -28.6330  -18.2770   18.7830 C   0  0  0  0  0  3  0  0  0  0  0  0
  -28.9010  -21.0080   20.0560 C   0  0  0  0  0  0  0  0  0  0  0  0
  -29.4230  -18.2180   19.9530 C   0  0  0  0  0  0  0  0  0  0  0  0
  -28.0210  -19.4660   18.2870 C   0  0  0  0  0  0  0  0  0  0  0  0
  -27.2570  -19.3580   17.1740 F   0  0  0  0  0  0  0  0  0  0  0  0
  -30.4760  -15.4390   20.0680 C   0  0  0  0  0  0  0  0  0  0  0  0
  -30.4640  -12.9740   19.2070 C   0  0  0  0  0  2  0  0  0  0  0  0
  -29.5190  -12.7940   17.9870 C   0  0  0  0  0  2  0  0  0  0  0  0
  -28.0770  -12.5080   18.4430 C   0  0  0  0  0  2  0  0  0  0  0  0
  -27.6560  -13.4410   19.6080 C   0  0  0  0  0  3  0  0  0  0  0  0
  -28.7340  -13.5770   20.7130 C   0  0  0  0  0  2  0  0  0  0  0  0
  -29.9490  -14.1080   20.0740 N   0  0  0  0  0  0  0  0  0  0  0  0
  -31.6570  -15.4690   19.6870 O   0  0  0  0  0  0  0  0  0  0  0  0
  -29.7400  -16.6870   20.4470 N   0  0  0  0  0  0  0  0  0  0  0  0
  -28.9480  -16.3570   20.9760 H   0  0  0  0  0  0  0  0  0  0  0  0
  -25.3030  -13.9670   20.4240 C   0  0  0  0  0  0  0  0  0  0  0  0
  -24.2590  -13.1770   20.8170 C   0  0  0  0  0  0  0  0  0  0  0  0
  -24.7360  -11.8310   20.7600 C   0  0  0  0  0  0  0  0  0  0  0  0
  -26.3470  -13.1040   20.1460 N   0  0  0  0  0  0  0  0  0  0  0  0
  -26.0210  -11.8130   20.4150 N   0  0  0  0  0  0  0  0  0  0  0  0
  -24.0190  -10.5600   20.9530 C   0  0  0  0  0  0  0  0  0  0  0  0
  -24.4680   -9.5920   21.8790 C   0  0  0  0  0  3  0  0  0  0  0  0
  -23.7500   -8.3900   22.0670 C   0  0  0  0  0  3  0  0  0  0  0  0
  -22.5670   -8.1500   21.3300 C   0  0  0  0  0  0  0  0  0  0  0  0
  -22.1390   -9.1030   20.3900 C   0  0  0  0  0  3  0  0  0  0  0  0
  -22.8570  -10.2950   20.2000 C   0  0  0  0  0  3  0  0  0  0  0  0
  -21.8150   -7.0030   21.4300 O   0  0  0  0  0  0  0  0  0  0  0  0
  -21.7730   -6.2670   22.5870 C   0  0  0  0  0  0  0  0  0  0  0  0
  -21.3120   -6.8140   23.8030 C   0  0  0  0  0  3  0  0  0  0  0  0
  -21.2230   -6.0020   24.9530 C   0  0  0  0  0  3  0  0  0  0  0  0
  -21.5800   -4.6420   24.8840 C   0  0  0  0  0  0  0  0  0  0  0  0
  -22.0320   -4.0920   23.6720 C   0  0  0  0  0  3  0  0  0  0  0  0
  -22.1280   -4.9040   22.5270 C   0  0  0  0  0  0  0  0  0  0  0  0
  -22.5420   -4.3630   21.3570 F   0  0  0  0  0  0  0  0  0  0  0  0
  -21.4910   -3.8600   25.9850 F   0  0  0  0  0  0  0  0  0  0  0  0
  -22.8640  -13.6420   21.1190 C   0  0  0  0  0  0  0  0  0  0  0  0
  -22.1550  -12.9360   21.9950 N   0  0  0  0  0  0  0  0  0  0  0  0
  -22.4120  -14.6690   20.6120 O   0  0  0  0  0  0  0  0  0  0  0  0
  -22.5300  -12.1070   22.4330 H   0  0  0  0  0  0  0  0  0  0  0  0
  -21.2200  -13.2320   22.2380 H   0  0  0  0  0  0  0  0  0  0  0  0
  -25.4540  -15.3380   20.2470 N   0  0  0  0  0  0  0  0  0  0  0  0
  -24.6910  -15.9930   20.3710 H   0  0  0  0  0  0  0  0  0  0  0  0
  -26.2810  -15.7680   19.8560 H   0  0  0  0  0  0  0  0  0  0  0  0
  -30.4910  -23.0540   20.3670 C   0  0  0  0  0  2  0  0  0  0  0  0
  -30.9160  -24.4370   20.6930 N   0  0  0  0  0  4  0  0  0  0  0  0
  -30.3310  -25.1130   20.2260 H   0  0  0  0  0  0  0  0  0  0  0  0
  -31.8590  -24.5720   20.3680 H   0  0  0  0  0  0  0  0  0  0  0  0
  -30.9150  -24.6300   21.6790 H   0  0  0  0  0  0  0  0  0  0  0  0
  -28.5840  -22.7180   22.0970 C   0  0  0  0  0  2  0  0  0  0  0  0
  -29.3080  -21.7730   22.9730 N   0  0  0  0  0  4  0  0  0  0  0  0
  -29.1030  -20.8290   22.6980 H   0  0  0  0  0  0  0  0  0  0  0  0
  -28.9960  -21.8840   23.9240 H   0  0  0  0  0  0  0  0  0  0  0  0
  -30.3010  -21.9120   22.9640 H   0  0  0  0  0  0  0  0  0  0  0  0
  -28.0860  -24.2260   20.0240 C   0  0  0  0  0  2  0  0  0  0  0  0
  -28.2190  -25.8710   20.3270 O   0  0  0  0  0  0  0  0  0  0  0  0
  -24.6340  -31.8840   23.2430 C   0  0  0  0  0  0  0  0  0  0  0  0
  -27.2060  -26.9800   20.2360 C   0  0  0  0  0  0  0  0  0  0  0  0
  -23.4480  -30.4880   21.6000 C   0  0  0  0  0  3  0  0  0  0  0  0
  -24.9050  -28.8790   20.1850 C   0  0  0  0  0  0  0  0  0  0  0  0
  -26.0160  -30.6870   21.4740 C   0  0  0  0  0  2  0  0  0  0  0  0
  -26.0900  -29.2780   20.8140 C   0  0  0  0  0  0  0  0  0  0  0  0
  -27.2270  -28.3490   20.8180 C   0  0  0  0  0  3  0  0  0  0  0  0
  -25.9900  -26.7440   19.5490 C   0  0  0  0  0  3  0  0  0  0  0  0
  -24.8830  -27.6360   19.5330 C   0  0  0  0  0  3  0  0  0  0  0  0
  -23.6850  -29.7940   20.2280 C   0  0  0  0  0  2  0  0  0  0  0  0
  -24.7190  -31.0480   22.1620 N   0  0  0  0  0  0  0  0  0  0  0  0
  -23.5420  -32.1810   23.7590 O   0  0  0  0  0  0  0  0  0  0  0  0
  -22.7480  -29.4980   22.5670 C   0  0  0  0  0  0  0  0  0  0  0  0
  -21.4200  -29.3270   22.4360 N   0  0  0  0  0  0  0  0  0  0  0  0
  -23.4090  -28.8720   23.3990 O   0  0  0  0  0  0  0  0  0  0  0  0
  -20.9390  -29.8770   21.7390 H   0  0  0  0  0  0  0  0  0  0  0  0
  -18.0410  -28.1100   22.9420 C   0  0  0  0  0  0  0  0  0  0  0  0
  -20.5980  -28.3880   23.2070 C   0  0  0  0  0  3  0  0  0  0  0  0
  -20.7040  -26.9550   22.6320 C   0  0  0  0  0  2  0  0  0  0  0  0
  -19.6070  -26.6320   21.6130 C   0  0  0  0  0  2  0  0  0  0  0  0
  -18.2240  -26.7670   22.2570 C   0  0  0  0  0  2  0  0  0  0  0  0
  -19.1530  -28.8810   23.3730 C   0  0  0  0  0  0  0  0  0  0  0  0
  -18.9270  -30.1380   23.9700 C   0  0  0  0  0  3  0  0  0  0  0  0
  -17.6160  -30.6240   24.1470 C   0  0  0  0  0  3  0  0  0  0  0  0
  -16.5180  -29.8500   23.7350 C   0  0  0  0  0  3  0  0  0  0  0  0
  -16.7290  -28.5990   23.1330 C   0  0  0  0  0  3  0  0  0  0  0  0
  -25.9000  -32.5320   23.8770 C   0  0  0  0  0  3  0  0  0  0  0  0
  -25.5860  -33.9370   24.2020 N   0  0  0  0  0  0  0  0  0  0  0  0
  -25.9110  -34.9940   23.4460 C   0  0  0  0  0  0  0  0  0  0  0  0
  -26.5750  -34.8890   22.4110 O   0  0  0  0  0  0  0  0  0  0  0  0
  -25.0000  -34.0870   25.0110 H   0  0  0  0  0  0  0  0  0  0  0  0
  -24.1920  -36.8020   23.1020 C   0  0  0  0  0  1  0  0  0  0  0  0
  -25.4330  -36.3880   23.9090 C   0  0  0  0  0  3  0  0  0  0  0  0
  -27.5670  -37.2800   24.7400 C   0  0  0  0  0  1  0  0  0  0  0  0
  -26.4680  -37.4410   23.7920 N   0  0  0  0  0  0  0  0  0  0  0  0
  -26.0630  -38.3630   23.9340 H   0  0  0  0  0  0  0  0  0  0  0  0
  -26.3980  -31.7820   25.1770 C   0  0  1  0  0  0  0  0  0  0  0  0
  -25.2890  -31.5600   26.2330 C   0  0  0  0  0  1  0  0  0  0  0  0
  -26.9890  -30.3960   24.8290 C   0  0  0  0  0  1  0  0  0  0  0  0
  -27.5350  -32.5910   25.8470 C   0  0  0  0  0  1  0  0  0  0  0  0
  1 52  1  1
  3  5  2  0
  4  6  1  0
  5  2  1  0
  5  1  1  0
  6 17  1  0
  6  2  2  0
  7  4  2  0
  7  3  1  0
  8  7  1  0
  9 15  1  0
  9 17  1  0
 10 15  1  0
 11 12  1  0
 11 10  1  0
 13 12  1  0
 13 22  1  0
 13 14  1  0
 15 14  1  0
 16  9  2  0
 17 18  1  0
 19 20  2  0
 20 39  1  0
 21 20  1  0
 21 24  1  0
 22 23  1  0
 22 19  1  0
 23 21  2  0
 24 25  1  0
 25 26  2  0
 27 30  1  0
 27 26  1  0
 28 27  2  0
 29 28  1  0
 29 24  2  0
 30 31  1  0
 31 32  1  0
 32 33  2  0
 34 33  1  0
 34 38  1  0
 35 34  2  0
 36 31  2  0
 36 35  1  0
 37 36  1  0
 39 40  1  0
 40 43  1  0
 40 42  1  0
 41 39  2  0
 44 45  1  0
 44 19  1  0
 46 44  1  0
 47  1  1  0
 47 48  1  0
 48 51  1  0
 49 48  1  0
 50 48  1  0
 52 53  1  0
 53 55  1  0
 54 53  1  0
 56 53  1  0
 57 58  1  0
 57  1  1  0
 59 70  2  0
 60 58  1  0
 60 65  1  0
 61 69  1  0
 61 71  1  0
 62 68  1  0
 62 64  1  0
 63 69  1  0
 64 65  2  0
 64 63  1  0
 66 60  2  0
 67 66  1  0
 67 62  2  0
 68 61  1  0
 69 59  1  0
 71 73  2  0
 72 71  1  0
 74 72  1  0
 75 84  2  0
 75 80  1  0
 76 72  1  0
 76 80  1  0
 77 76  1  0
 78 79  1  0
 78 77  1  0
 79 75  1  0
 80 81  2  0
 81 82  1  0
 83 82  2  0
 84 83  1  0
 85 59  1  0
 85 86  1  0
 85 95  1  0
 86 89  1  0
 87 91  1  0
 87 86  1  0
 88 87  2  0
 91 90  1  0
 93 91  1  0
 93 94  1  0
 93 92  1  0
 95 98  1  1
 95 96  1  0
 97 95  1  0
M  ISO  4   9 100  17 100  57 101  58 101
M  END
>  <TORSDO>  (15) 
F 22

>  <SCORE>  (15) 
-15.407

>  <name>  (15) 
14

>  <ligand_id>  (15) 
14

>  <original_smiles>  (15) 
[H]c1c([H])c([H])c2c(c1[H])C([H])([H])C([H])([H])C([H])([H])C2([H])N([H])C(=O)C1([H])N(C(=O)C([H])(N([H])C(=O)C([H])(N([H])C([H])([H])[H])C([H])([H])[H])C(C([H])([H])[H])(C([H])([H])[H])C([H])([H])[H])C([H])([H])c2c([H])c(OC([H])([H])C(c3c([H])c(F)c([H])c(N([H])C(=O)N4C([H])([H])C([H])([H])C([H])([H])C([H])(n5nc(-c6c([H])c([H])c(Oc7c([H])c([H])c(F)c([H])c7F)c([H])c6[H])c(C(=O)N([H])[H])c5N([H])[H])C4([H])[H])c3[H])(C([H])([H])[N+]([H])([H])[H])C([H])([H])[N+]([H])([H])[H])c([H])c([H])c2C1([H])[H]

>  <smiles>  (15) 
[H]c1c([H])c([H])c2c(c1[H])C([H])([H])C([H])([H])C([H])([H])C2([H])N([H])C(=O)C1([H])N(C(=O)C([H])(N([H])C(=O)C([H])(N([H])C([H])([H])[H])C([H])([H])[H])C(C([H])([H])[H])(C([H])([H])[H])C([H])([H])[H])C([H])([H])c2c([H])c(OC([H])([H])C(c3c([H])c(F)c([H])c(N([H])C(=O)N4C([H])([H])C([H])([H])C([H])([H])C([H])(n5nc(-c6c([H])c([H])c(Oc7c([H])c([H])c(F)c([H])c7F)c([H])c6[H])c(C(=O)N([H])[H])c5N([H])[H])C4([H])[H])c3[H])(C([H])([H])[N+]([H])([H])[H])C([H])([H])[N+]([H])([H])[H])c([H])c([H])c2C1([H])[H]

$$$$
15:0:0
     RDKit          3D

 90 98  0  0  1  0  0  0  0  0999 V2000
  -28.6210  -23.3480   20.1430 C   0  0  0  0  0  0  0  0  0  0  0  0
  -29.1240  -22.4120   22.3300 C   0  0  0  0  0  1  0  0  0  0  0  0
  -28.9530  -22.1710   20.8930 N   0  0  0  0  0  0  0  0  0  0  0  0
  -28.6630  -23.3090   18.9090 O   0  0  0  0  0  0  0  0  0  0  0  0
  -28.4690  -18.3430   19.8660 C   0  0  0  0  0  3  0  0  0  0  0  0
  -30.5730  -18.5120   20.9030 C   0  0  0  0  0  3  0  0  0  0  0  0
  -28.2950  -19.7880   19.9220 C   0  0  0  0  0  3  0  0  0  0  0  0
  -30.3840  -19.9580   20.9880 C   0  0  0  0  0  3  0  0  0  0  0  0
  -29.6030  -17.6030   20.3630 C   0  0  0  0  0  0  0  0  0  0  0  0
  -29.2300  -20.6950   20.5220 C   0  0  0  0  0  0  0  0  0  0  0  0
  -30.4830  -14.9600   20.3010 C   0  0  0  0  0  0  0  0  0  0  0  0
  -30.4040  -12.6120   19.3440 C   0  0  0  0  0  2  0  0  0  0  0  0
  -29.4470  -12.5710   18.1280 C   0  0  0  0  0  2  0  0  0  0  0  0
  -27.9880  -12.3540   18.5800 C   0  0  0  0  0  2  0  0  0  0  0  0
  -27.5950  -13.2730   19.7660 C   0  0  0  0  0  3  0  0  0  0  0  0
  -28.6660  -13.2590   20.8780 C   0  0  0  0  0  2  0  0  0  0  0  0
  -29.9290  -13.6840   20.2620 N   0  0  0  0  0  0  0  0  0  0  0  0
  -31.6830  -15.0780   20.0300 O   0  0  0  0  0  0  0  0  0  0  0  0
  -29.5980  -16.0660   20.4110 N   0  0  0  0  0  0  0  0  0  0  0  0
  -28.6590  -15.7050   20.4780 H   0  0  0  0  0  0  0  0  0  0  0  0
  -25.2210  -13.8540   20.5320 C   0  0  0  0  0  0  0  0  0  0  0  0
  -24.1610  -13.0780   20.9110 C   0  0  0  0  0  0  0  0  0  0  0  0
  -24.6250  -11.7280   20.8680 C   0  0  0  0  0  0  0  0  0  0  0  0
  -26.2620  -12.9760   20.2770 N   0  0  0  0  0  0  0  0  0  0  0  0
  -25.9130  -11.6930   20.5450 N   0  0  0  0  0  0  0  0  0  0  0  0
  -23.9010  -10.4650   21.0590 C   0  0  0  0  0  0  0  0  0  0  0  0
  -24.3480   -9.4870   21.9740 C   0  0  0  0  0  3  0  0  0  0  0  0
  -23.6230   -8.2900   22.1530 C   0  0  0  0  0  3  0  0  0  0  0  0
  -22.4360   -8.0620   21.4170 C   0  0  0  0  0  0  0  0  0  0  0  0
  -22.0070   -9.0290   20.4900 C   0  0  0  0  0  3  0  0  0  0  0  0
  -22.7340  -10.2170   20.3090 C   0  0  0  0  0  3  0  0  0  0  0  0
  -21.6790   -6.9190   21.5080 O   0  0  0  0  0  0  0  0  0  0  0  0
  -21.6570   -6.1590   22.6480 C   0  0  0  0  0  0  0  0  0  0  0  0
  -21.2690   -6.6970   23.8960 C   0  0  0  0  0  3  0  0  0  0  0  0
  -21.1940   -5.8640   25.0290 C   0  0  0  0  0  3  0  0  0  0  0  0
  -21.4960   -4.4930   24.9160 C   0  0  0  0  0  0  0  0  0  0  0  0
  -21.8780   -3.9550   23.6750 C   0  0  0  0  0  3  0  0  0  0  0  0
  -21.9550   -4.7860   22.5440 C   0  0  0  0  0  0  0  0  0  0  0  0
  -22.3020   -4.2570   21.3450 F   0  0  0  0  0  0  0  0  0  0  0  0
  -21.4170   -3.6890   26.0040 F   0  0  0  0  0  0  0  0  0  0  0  0
  -22.7680  -13.5550   21.1940 C   0  0  0  0  0  0  0  0  0  0  0  0
  -22.0470  -12.8570   22.0650 N   0  0  0  0  0  0  0  0  0  0  0  0
  -22.3260  -14.5810   20.6800 O   0  0  0  0  0  0  0  0  0  0  0  0
  -22.4170  -12.0260   22.5020 H   0  0  0  0  0  0  0  0  0  0  0  0
  -21.1120  -13.1590   22.2970 H   0  0  0  0  0  0  0  0  0  0  0  0
  -25.3800  -15.2260   20.3580 N   0  0  0  0  0  0  0  0  0  0  0  0
  -24.6030  -15.8660   20.4730 H   0  0  0  0  0  0  0  0  0  0  0  0
  -26.2030  -15.6700   19.9760 H   0  0  0  0  0  0  0  0  0  0  0  0
  -28.1220  -24.7930   20.8220 C   0  0  0  0  0  2  0  0  0  0  0  0
  -28.2960  -26.2010   20.1880 O   0  0  0  0  0  0  0  0  0  0  0  0
  -24.6420  -31.8690   23.2170 C   0  0  0  0  0  0  0  0  0  0  0  0
  -27.2270  -27.1630   20.2040 C   0  0  0  0  0  0  0  0  0  0  0  0
  -23.4400  -30.4640   21.5850 C   0  0  0  0  0  3  0  0  0  0  0  0
  -24.8890  -28.8840   20.1680 C   0  0  0  0  0  0  0  0  0  0  0  0
  -25.9910  -30.7410   21.4090 C   0  0  0  0  0  2  0  0  0  0  0  0
  -26.0680  -29.3450   20.7670 C   0  0  0  0  0  0  0  0  0  0  0  0
  -27.2410  -28.5020   20.7650 C   0  0  0  0  0  3  0  0  0  0  0  0
  -26.0200  -26.7930   19.5750 C   0  0  0  0  0  3  0  0  0  0  0  0
  -24.8750  -27.6200   19.5560 C   0  0  0  0  0  3  0  0  0  0  0  0
  -23.6580  -29.7790   20.2100 C   0  0  0  0  0  2  0  0  0  0  0  0
  -24.7110  -31.0470   22.1250 N   0  0  0  0  0  0  0  0  0  0  0  0
  -23.5570  -32.1520   23.7490 O   0  0  0  0  0  0  0  0  0  0  0  0
  -22.7680  -29.4600   22.5550 C   0  0  0  0  0  0  0  0  0  0  0  0
  -21.4390  -29.2880   22.4370 N   0  0  0  0  0  0  0  0  0  0  0  0
  -23.4450  -28.8340   23.3760 O   0  0  0  0  0  0  0  0  0  0  0  0
  -20.9490  -29.8420   21.7480 H   0  0  0  0  0  0  0  0  0  0  0  0
  -18.0610  -28.0900   22.9610 C   0  0  0  0  0  0  0  0  0  0  0  0
  -20.6220  -28.3530   23.2150 C   0  0  0  0  0  3  0  0  0  0  0  0
  -20.7210  -26.9200   22.6440 C   0  0  0  0  0  2  0  0  0  0  0  0
  -19.6130  -26.5930   21.6370 C   0  0  0  0  0  2  0  0  0  0  0  0
  -18.2340  -26.7410   22.2850 C   0  0  0  0  0  2  0  0  0  0  0  0
  -19.1820  -28.8550   23.3830 C   0  0  0  0  0  0  0  0  0  0  0  0
  -18.9640  -30.1180   23.9750 C   0  0  0  0  0  3  0  0  0  0  0  0
  -17.6600  -30.6180   24.1470 C   0  0  0  0  0  3  0  0  0  0  0  0
  -16.5530  -29.8510   23.7410 C   0  0  0  0  0  3  0  0  0  0  0  0
  -16.7550  -28.5880   23.1540 C   0  0  0  0  0  3  0  0  0  0  0  0
  -25.9210  -32.5090   23.8380 C   0  0  0  0  0  3  0  0  0  0  0  0
  -25.6060  -33.9070   24.1740 N   0  0  0  0  0  0  0  0  0  0  0  0
  -25.9270  -34.9650   23.4180 C   0  0  0  0  0  0  0  0  0  0  0  0
  -26.5880  -34.8680   22.3800 O   0  0  0  0  0  0  0  0  0  0  0  0
  -25.0230  -34.0580   24.9840 H   0  0  0  0  0  0  0  0  0  0  0  0
  -24.1880  -36.7520   23.0920 C   0  0  0  0  0  1  0  0  0  0  0  0
  -25.4410  -36.3500   23.8880 C   0  0  0  0  0  3  0  0  0  0  0  0
  -27.5820  -37.2390   24.6970 C   0  0  0  0  0  1  0  0  0  0  0  0
  -26.4680  -37.4080   23.7680 N   0  0  0  0  0  0  0  0  0  0  0  0
  -26.0590  -38.3260   23.9250 H   0  0  0  0  0  0  0  0  0  0  0  0
  -26.4410  -31.7420   25.1160 C   0  0  1  0  0  0  0  0  0  0  0  0
  -25.3520  -31.5070   26.1880 C   0  0  0  0  0  1  0  0  0  0  0  0
  -27.0240  -30.3640   24.7300 C   0  0  0  0  0  1  0  0  0  0  0  0
  -27.5920  -32.5400   25.7720 C   0  0  0  0  0  1  0  0  0  0  0  0
  1 49  1  0
  1  3  1  0
  3  2  1  0
  4  1  2  0
  5  7  2  0
  5  9  1  0
  6  8  1  0
  7 10  1  0
  9 19  1  0
  9  6  2  0
 10  3  1  0
 10  8  2  0
 11 19  1  0
 12 17  1  0
 13 14  1  0
 13 12  1  0
 15 14  1  0
 15 24  1  0
 15 16  1  0
 17 11  1  0
 17 16  1  0
 18 11  2  0
 19 20  1  0
 21 22  2  0
 22 41  1  0
 23 22  1  0
 23 26  1  0
 24 21  1  0
 24 25  1  0
 25 23  2  0
 26 27  1  0
 27 28  2  0
 29 32  1  0
 29 28  1  0
 30 29  2  0
 31 30  1  0
 31 26  2  0
 32 33  1  0
 33 34  1  0
 34 35  2  0
 36 35  1  0
 36 40  1  0
 37 36  2  0
 38 33  2  0
 38 37  1  0
 39 38  1  0
 41 42  1  0
 42 45  1  0
 42 44  1  0
 43 41  2  0
 46 47  1  0
 46 21  1  0
 48 46  1  0
 50 52  1  0
 50 49  1  0
 51 62  2  0
 52 57  1  0
 53 61  1  0
 53 63  1  0
 54 60  1  0
 54 56  1  0
 55 61  1  0
 56 55  1  0
 57 56  2  0
 58 52  2  0
 59 58  1  0
 59 54  2  0
 60 53  1  0
 61 51  1  0
 63 65  2  0
 64 63  1  0
 66 64  1  0
 67 76  2  0
 67 72  1  0
 68 64  1  0
 68 72  1  0
 69 68  1  0
 70 71  1  0
 70 69  1  0
 71 67  1  0
 72 73  2  0
 73 74  1  0
 75 74  2  0
 76 75  1  0
 77 51  1  0
 77 78  1  0
 77 87  1  0
 78 81  1  0
 79 83  1  0
 79 78  1  0
 80 79  2  0
 83 82  1  0
 85 83  1  0
 85 86  1  0
 85 84  1  0
 87 90  1  1
 87 88  1  0
 89 87  1  0
M  ISO  4  11 100  19 100  49 101  50 101
M  END
>  <TORSDO>  (16) 
F 18

>  <SCORE>  (16) 
-14.855

>  <name>  (16) 
15

>  <ligand_id>  (16) 
15

>  <original_smiles>  (16) 
[H]c1c([H])c([H])c2c(c1[H])C([H])([H])C([H])([H])C([H])([H])C2([H])N([H])C(=O)C1([H])N(C(=O)C([H])(N([H])C(=O)C([H])(N([H])C([H])([H])[H])C([H])([H])[H])C(C([H])([H])[H])(C([H])([H])[H])C([H])([H])[H])C([H])([H])c2c([H])c(OC([H])([H])C(=O)N(c3c([H])c([H])c(N([H])C(=O)N4C([H])([H])C([H])([H])C([H])([H])C([H])(n5nc(-c6c([H])c([H])c(Oc7c([H])c([H])c(F)c([H])c7F)c([H])c6[H])c(C(=O)N([H])[H])c5N([H])[H])C4([H])[H])c([H])c3[H])C([H])([H])[H])c([H])c([H])c2C1([H])[H]

>  <smiles>  (16) 
[H]c1c([H])c([H])c2c(c1[H])C([H])([H])C([H])([H])C([H])([H])C2([H])N([H])C(=O)C1([H])N(C(=O)C([H])(N([H])C(=O)C([H])(N([H])C([H])([H])[H])C([H])([H])[H])C(C([H])([H])[H])(C([H])([H])[H])C([H])([H])[H])C([H])([H])c2c([H])c(OC([H])([H])C(=O)N(c3c([H])c([H])c(N([H])C(=O)N4C([H])([H])C([H])([H])C([H])([H])C([H])(n5nc(-c6c([H])c([H])c(Oc7c([H])c([H])c(F)c([H])c7F)c([H])c6[H])c(C(=O)N([H])[H])c5N([H])[H])C4([H])[H])c([H])c3[H])C([H])([H])[H])c([H])c([H])c2C1([H])[H]

$$$$
16:0:0
     RDKit          3D

 91 99  0  0  1  0  0  0  0  0999 V2000
  -29.2610  -23.8450   20.3150 C   0  0  0  0  0  0  0  0  0  0  0  0
  -28.9810  -22.4770   18.3030 C   0  0  0  0  0  1  0  0  0  0  0  0
  -29.3750  -22.5750   19.7160 N   0  0  0  0  0  0  0  0  0  0  0  0
  -30.0130  -24.1850   21.2340 O   0  0  0  0  0  0  0  0  0  0  0  0
  -30.7960  -20.1010   22.3060 C   0  0  0  0  0  3  0  0  0  0  0  0
  -30.8130  -18.8580   21.6360 C   0  0  0  0  0  3  0  0  0  0  0  0
  -30.3490  -21.2850   21.6770 C   0  0  0  0  0  3  0  0  0  0  0  0
  -29.9200  -19.9920   19.6810 C   0  0  0  0  0  3  0  0  0  0  0  0
  -30.3780  -18.7600   20.3020 C   0  0  0  0  0  0  0  0  0  0  0  0
  -29.8940  -21.3000   20.3330 C   0  0  0  0  0  0  0  0  0  0  0  0
  -30.4770  -17.3720   19.5340 C   0  0  0  0  0  2  0  0  0  0  0  0
  -31.0030  -14.8640   19.9600 C   0  0  0  0  0  0  0  0  0  0  0  0
  -30.7430  -12.5510   19.0690 C   0  0  0  0  0  2  0  0  0  0  0  0
  -29.7670  -12.5980   17.8730 C   0  0  0  0  0  2  0  0  0  0  0  0
  -28.3110  -12.4540   18.3590 C   0  0  0  0  0  2  0  0  0  0  0  0
  -27.9860  -13.3840   19.5590 C   0  0  0  0  0  3  0  0  0  0  0  0
  -29.0850  -13.3350   20.6470 C   0  0  0  0  0  2  0  0  0  0  0  0
  -30.3660  -13.6440   19.9980 N   0  0  0  0  0  0  0  0  0  0  0  0
  -32.1480  -14.9430   19.5100 O   0  0  0  0  0  0  0  0  0  0  0  0
  -30.2650  -16.0110   20.1910 N   0  0  0  0  0  0  0  0  0  0  0  0
  -29.3580  -15.8620   20.6070 H   0  0  0  0  0  0  0  0  0  0  0  0
  -25.6540  -14.0120   20.4240 C   0  0  0  0  0  0  0  0  0  0  0  0
  -24.5870  -13.2540   20.8270 C   0  0  0  0  0  0  0  0  0  0  0  0
  -25.0110  -11.8930   20.7300 C   0  0  0  0  0  0  0  0  0  0  0  0
  -26.6610  -13.1140   20.1080 N   0  0  0  0  0  0  0  0  0  0  0  0
  -26.2830  -11.8330   20.3520 N   0  0  0  0  0  0  0  0  0  0  0  0
  -24.2600  -10.6440   20.9200 C   0  0  0  0  0  0  0  0  0  0  0  0
  -24.6560   -9.6800   21.8740 C   0  0  0  0  0  3  0  0  0  0  0  0
  -23.9070   -8.4980   22.0530 C   0  0  0  0  0  3  0  0  0  0  0  0
  -22.7460   -8.2690   21.2760 C   0  0  0  0  0  0  0  0  0  0  0  0
  -22.3670   -9.2210   20.3120 C   0  0  0  0  0  3  0  0  0  0  0  0
  -23.1190  -10.3950   20.1320 C   0  0  0  0  0  3  0  0  0  0  0  0
  -21.9720   -7.1380   21.3610 O   0  0  0  0  0  0  0  0  0  0  0  0
  -21.8010   -6.4690   22.5470 C   0  0  0  0  0  0  0  0  0  0  0  0
  -21.2410   -7.0970   23.6820 C   0  0  0  0  0  3  0  0  0  0  0  0
  -21.0190   -6.3550   24.8590 C   0  0  0  0  0  3  0  0  0  0  0  0
  -21.3480   -4.9870   24.9020 C   0  0  0  0  0  0  0  0  0  0  0  0
  -21.9010   -4.3590   23.7720 C   0  0  0  0  0  3  0  0  0  0  0  0
  -22.1230   -5.0990   22.5970 C   0  0  0  0  0  0  0  0  0  0  0  0
  -22.6370   -4.4840   21.5040 F   0  0  0  0  0  0  0  0  0  0  0  0
  -21.1290   -4.2710   26.0300 F   0  0  0  0  0  0  0  0  0  0  0  0
  -23.2200  -13.7570   21.1890 C   0  0  0  0  0  0  0  0  0  0  0  0
  -22.5340  -13.0690   22.0940 N   0  0  0  0  0  0  0  0  0  0  0  0
  -22.7740  -14.7980   20.7060 O   0  0  0  0  0  0  0  0  0  0  0  0
  -22.9090  -12.2270   22.5040 H   0  0  0  0  0  0  0  0  0  0  0  0
  -21.6220  -13.3920   22.3850 H   0  0  0  0  0  0  0  0  0  0  0  0
  -25.8440  -15.3830   20.2770 N   0  0  0  0  0  0  0  0  0  0  0  0
  -25.0990  -16.0520   20.4400 H   0  0  0  0  0  0  0  0  0  0  0  0
  -26.6800  -15.8080   19.8980 H   0  0  0  0  0  0  0  0  0  0  0  0
  -28.1490  -24.9220   19.8760 C   0  0  0  0  0  2  0  0  0  0  0  0
  -28.3650  -26.3900   20.1470 O   0  0  0  0  0  0  0  0  0  0  0  0
  -24.6350  -31.8910   23.0780 C   0  0  0  0  0  0  0  0  0  0  0  0
  -27.2670  -27.2820   20.0540 C   0  0  0  0  0  0  0  0  0  0  0  0
  -23.4400  -30.4650   21.4600 C   0  0  0  0  0  3  0  0  0  0  0  0
  -24.8960  -28.9160   20.0360 C   0  0  0  0  0  0  0  0  0  0  0  0
  -25.9820  -30.7860   21.2740 C   0  0  0  0  0  2  0  0  0  0  0  0
  -26.0680  -29.4010   20.6340 C   0  0  0  0  0  0  0  0  0  0  0  0
  -27.2520  -28.5940   20.6380 C   0  0  0  0  0  3  0  0  0  0  0  0
  -26.0770  -26.8830   19.3980 C   0  0  0  0  0  3  0  0  0  0  0  0
  -24.9070  -27.6640   19.4090 C   0  0  0  0  0  3  0  0  0  0  0  0
  -23.6540  -29.7820   20.0850 C   0  0  0  0  0  2  0  0  0  0  0  0
  -24.7050  -31.0680   21.9920 N   0  0  0  0  0  0  0  0  0  0  0  0
  -23.5510  -32.1660   23.6120 O   0  0  0  0  0  0  0  0  0  0  0  0
  -22.7870  -29.4530   22.4320 C   0  0  0  0  0  0  0  0  0  0  0  0
  -21.4660  -29.2480   22.3010 N   0  0  0  0  0  0  0  0  0  0  0  0
  -23.4710  -28.8550   23.2680 O   0  0  0  0  0  0  0  0  0  0  0  0
  -20.9730  -29.7770   21.5960 H   0  0  0  0  0  0  0  0  0  0  0  0
  -18.1170  -27.9690   22.7890 C   0  0  0  0  0  0  0  0  0  0  0  0
  -20.6610  -28.3110   23.0890 C   0  0  0  0  0  3  0  0  0  0  0  0
  -20.8130  -26.8660   22.5620 C   0  0  0  0  0  2  0  0  0  0  0  0
  -19.7380  -26.4790   21.5400 C   0  0  0  0  0  2  0  0  0  0  0  0
  -18.3430  -26.6040   22.1570 C   0  0  0  0  0  2  0  0  0  0  0  0
  -19.2050  -28.7760   23.2120 C   0  0  0  0  0  0  0  0  0  0  0  0
  -18.9400  -30.0480   23.7660 C   0  0  0  0  0  3  0  0  0  0  0  0
  -17.6180  -30.5140   23.8970 C   0  0  0  0  0  3  0  0  0  0  0  0
  -16.5440  -29.7050   23.4890 C   0  0  0  0  0  3  0  0  0  0  0  0
  -16.7930  -28.4340   22.9410 C   0  0  0  0  0  3  0  0  0  0  0  0
  -25.9130  -32.5440   23.6860 C   0  0  0  0  0  3  0  0  0  0  0  0
  -26.4850  -31.7530   24.9270 C   0  0  1  0  0  0  0  0  0  0  0  0
  -25.4260  -31.4420   26.0100 C   0  0  0  0  0  1  0  0  0  0  0  0
  -27.1080  -30.4090   24.4830 C   0  0  0  0  0  1  0  0  0  0  0  0
  -27.6240  -32.5670   25.5850 C   0  0  0  0  0  1  0  0  0  0  0  0
  -25.5690  -33.9210   24.0680 N   0  0  0  0  0  0  0  0  0  0  0  0
  -25.8920  -35.0130   23.3620 C   0  0  0  0  0  0  0  0  0  0  0  0
  -26.5810  -34.9670   22.3390 O   0  0  0  0  0  0  0  0  0  0  0  0
  -24.9570  -34.0280   24.8650 H   0  0  0  0  0  0  0  0  0  0  0  0
  -24.1480  -36.7980   23.0410 C   0  0  0  0  0  1  0  0  0  0  0  0
  -25.3700  -36.3730   23.8700 C   0  0  0  0  0  3  0  0  0  0  0  0
  -27.4640  -37.2460   24.8100 C   0  0  0  0  0  1  0  0  0  0  0  0
  -26.3910  -37.4430   23.8390 N   0  0  0  0  0  0  0  0  0  0  0  0
  -25.9690  -38.3500   24.0120 H   0  0  0  0  0  0  0  0  0  0  0  0
  1  4  2  0
  2  3  1  0
  3  1  1  0
  3 10  1  0
  6  5  2  0
  7  5  1  0
  8  9  2  0
  8 10  1  0
  9  6  1  0
 10  7  2  0
 11 20  1  0
 11  9  1  0
 12 18  1  0
 12 20  1  0
 13 18  1  0
 14 15  1  0
 14 13  1  0
 16 15  1  0
 16 25  1  0
 16 17  1  0
 18 17  1  0
 19 12  2  0
 20 21  1  0
 22 23  2  0
 23 42  1  0
 24 23  1  0
 24 27  1  0
 25 26  1  0
 25 22  1  0
 26 24  2  0
 27 28  1  0
 28 29  2  0
 30 33  1  0
 30 29  1  0
 31 30  2  0
 32 31  1  0
 32 27  2  0
 33 34  1  0
 34 39  2  0
 34 35  1  0
 35 36  2  0
 36 37  1  0
 37 41  1  0
 38 37  2  0
 39 38  1  0
 40 39  1  0
 42 43  1  0
 43 46  1  0
 43 45  1  0
 44 42  2  0
 47 22  1  0
 47 48  1  0
 49 47  1  0
 50 51  1  0
 50  1  1  0
 52 63  2  0
 53 51  1  0
 53 58  1  0
 54 62  1  0
 54 64  1  0
 55 61  1  0
 55 57  1  0
 56 62  1  0
 57 58  2  0
 57 56  1  0
 59 60  1  0
 59 53  2  0
 60 55  2  0
 61 54  1  0
 62 52  1  0
 64 66  2  0
 65 64  1  0
 67 65  1  0
 68 77  2  0
 68 73  1  0
 69 65  1  0
 69 73  1  0
 70 69  1  0
 71 72  1  0
 71 70  1  0
 72 68  1  0
 73 74  2  0
 74 75  1  0
 76 75  2  0
 77 76  1  0
 78 52  1  0
 78 83  1  0
 78 79  1  0
 79 82  1  1
 79 80  1  0
 81 79  1  0
 83 86  1  0
 84 88  1  0
 84 83  1  0
 85 84  2  0
 88 87  1  0
 90 88  1  0
 90 91  1  0
 90 89  1  0
M  ISO  4  12 100  20 100  50 101  51 101
M  END
>  <TORSDO>  (17) 
F 19

>  <SCORE>  (17) 
-13.914

>  <name>  (17) 
16

>  <ligand_id>  (17) 
16

>  <original_smiles>  (17) 
[H]c1c([H])c(N(C(=O)C([H])([H])Oc2c([H])c([H])c3c(c2[H])C([H])([H])N(C(=O)C([H])(N([H])C(=O)C([H])(N([H])C([H])([H])[H])C([H])([H])[H])C(C([H])([H])[H])(C([H])([H])[H])C([H])([H])[H])C([H])(C(=O)N([H])C2([H])c4c([H])c([H])c([H])c([H])c4C([H])([H])C([H])([H])C2([H])[H])C3([H])[H])C([H])([H])[H])c([H])c(C([H])([H])N([H])C(=O)N2C([H])([H])C([H])([H])C([H])([H])C([H])(n3nc(-c4c([H])c([H])c(Oc5c([H])c([H])c(F)c([H])c5F)c([H])c4[H])c(C(=O)N([H])[H])c3N([H])[H])C2([H])[H])c1[H]

>  <smiles>  (17) 
[H]c1c([H])c(N(C(=O)C([H])([H])Oc2c([H])c([H])c3c(c2[H])C([H])([H])N(C(=O)C([H])(N([H])C(=O)C([H])(N([H])C([H])([H])[H])C([H])([H])[H])C(C([H])([H])[H])(C([H])([H])[H])C([H])([H])[H])C([H])(C(=O)N([H])C2([H])c4c([H])c([H])c([H])c([H])c4C([H])([H])C([H])([H])C2([H])[H])C3([H])[H])C([H])([H])[H])c([H])c(C([H])([H])N([H])C(=O)N2C([H])([H])C([H])([H])C([H])([H])C([H])(n3nc(-c4c([H])c([H])c(Oc5c([H])c([H])c(F)c([H])c5F)c([H])c4[H])c(C(=O)N([H])[H])c3N([H])[H])C2([H])[H])c1[H]

$$$$
17:0:0
     RDKit          3D

 95103  0  0  1  0  0  0  0  0999 V2000
  -29.1660  -20.9680   20.9500 C   0  0  0  0  0  2  0  0  0  0  0  0
  -30.6630  -14.8780   20.3360 C   0  0  0  0  0  0  0  0  0  0  0  0
  -30.3910  -12.5740   19.3690 C   0  0  0  0  0  2  0  0  0  0  0  0
  -29.4550  -12.5700   18.1430 C   0  0  0  0  0  2  0  0  0  0  0  0
  -28.0000  -12.3630   18.5950 C   0  0  0  0  0  2  0  0  0  0  0  0
  -27.6100  -13.2900   19.7730 C   0  0  0  0  0  3  0  0  0  0  0  0
  -28.6780  -13.3320   20.8900 C   0  0  0  0  0  2  0  0  0  0  0  0
  -29.9550  -13.6860   20.2610 N   0  0  0  0  0  0  0  0  0  0  0  0
  -31.8650  -14.8270   20.0570 O   0  0  0  0  0  0  0  0  0  0  0  0
  -28.6610  -18.3790   19.9850 C   0  0  0  0  0  2  0  0  0  0  0  0
  -30.4310  -18.6570   21.5020 C   0  0  0  0  0  2  0  0  0  0  0  0
  -29.1300  -16.8560   19.6940 C   0  0  0  0  0  2  0  0  0  0  0  0
  -31.0010  -17.2100   21.1550 C   0  0  0  0  0  2  0  0  0  0  0  0
  -29.7200  -19.4980   20.3730 C   0  0  2  0  0  0  0  0  0  0  0  0
  -30.0860  -16.1470   20.6160 N   0  0  0  0  0  0  0  0  0  0  0  0
  -25.2390  -13.8700   20.5380 C   0  0  0  0  0  0  0  0  0  0  0  0
  -24.1770  -13.0920   20.9090 C   0  0  0  0  0  0  0  0  0  0  0  0
  -24.6450  -11.7420   20.8720 C   0  0  0  0  0  0  0  0  0  0  0  0
  -26.2810  -12.9940   20.2880 N   0  0  0  0  0  0  0  0  0  0  0  0
  -25.9340  -11.7100   20.5580 N   0  0  0  0  0  0  0  0  0  0  0  0
  -23.9240  -10.4780   21.0600 C   0  0  0  0  0  0  0  0  0  0  0  0
  -24.3590   -9.5110   21.9920 C   0  0  0  0  0  3  0  0  0  0  0  0
  -23.6370   -8.3110   22.1690 C   0  0  0  0  0  3  0  0  0  0  0  0
  -22.4650   -8.0700   21.4140 C   0  0  0  0  0  0  0  0  0  0  0  0
  -22.0480   -9.0260   20.4710 C   0  0  0  0  0  3  0  0  0  0  0  0
  -22.7720  -10.2170   20.2910 C   0  0  0  0  0  3  0  0  0  0  0  0
  -21.7130   -6.9230   21.5010 O   0  0  0  0  0  0  0  0  0  0  0  0
  -21.6600   -6.1850   22.6550 C   0  0  0  0  0  0  0  0  0  0  0  0
  -21.2110   -6.7380   23.8740 C   0  0  0  0  0  3  0  0  0  0  0  0
  -21.1060   -5.9240   25.0200 C   0  0  0  0  0  3  0  0  0  0  0  0
  -21.4380   -4.5590   24.9480 C   0  0  0  0  0  0  0  0  0  0  0  0
  -21.8790   -4.0050   23.7330 C   0  0  0  0  0  3  0  0  0  0  0  0
  -21.9870   -4.8150   22.5890 C   0  0  0  0  0  0  0  0  0  0  0  0
  -22.3930   -4.2710   21.4160 F   0  0  0  0  0  0  0  0  0  0  0  0
  -21.3290   -3.7740   26.0460 F   0  0  0  0  0  0  0  0  0  0  0  0
  -22.7800  -13.5650   21.1850 C   0  0  0  0  0  0  0  0  0  0  0  0
  -22.0550  -12.8610   22.0470 N   0  0  0  0  0  0  0  0  0  0  0  0
  -22.3400  -14.5930   20.6710 O   0  0  0  0  0  0  0  0  0  0  0  0
  -22.4240  -12.0290   22.4810 H   0  0  0  0  0  0  0  0  0  0  0  0
  -21.1180  -13.1600   22.2760 H   0  0  0  0  0  0  0  0  0  0  0  0
  -25.3990  -15.2410   20.3670 N   0  0  0  0  0  0  0  0  0  0  0  0
  -24.6360  -15.8960   20.5020 H   0  0  0  0  0  0  0  0  0  0  0  0
  -26.2570  -15.6880   20.0700 H   0  0  0  0  0  0  0  0  0  0  0  0
  -30.7140  -19.7590   19.2170 C   0  0  0  0  0  0  0  0  0  0  0  0
  -31.7580  -20.5400   19.4690 N   0  0  0  0  0  0  0  0  0  0  0  0
  -30.5600  -19.2670   18.1010 O   0  0  0  0  0  0  0  0  0  0  0  0
  -31.8880  -20.9450   20.3840 H   0  0  0  0  0  0  0  0  0  0  0  0
  -32.4310  -20.7400   18.7430 H   0  0  0  0  0  0  0  0  0  0  0  0
  -28.8760  -23.5860   20.5460 C   0  0  0  0  0  0  0  0  0  0  0  0
  -28.7150  -22.2310   20.1500 N   0  0  0  0  0  0  0  0  0  0  0  0
  -29.6940  -23.8680   21.4270 O   0  0  0  0  0  0  0  0  0  0  0  0
  -28.3700  -22.0920   17.6680 C   0  0  0  0  0  1  0  0  0  0  0  0
  -27.7680  -21.9070   19.0730 C   0  0  0  0  0  2  0  0  0  0  0  0
  -27.9740  -24.8160   19.9670 C   0  0  0  0  0  2  0  0  0  0  0  0
  -28.2420  -26.2810   20.3340 O   0  0  0  0  0  0  0  0  0  0  0  0
  -24.6020  -31.9150   23.2510 C   0  0  0  0  0  0  0  0  0  0  0  0
  -27.1820  -27.2370   20.2370 C   0  0  0  0  0  0  0  0  0  0  0  0
  -23.3990  -30.5120   21.6190 C   0  0  0  0  0  3  0  0  0  0  0  0
  -24.8470  -28.9440   20.1970 C   0  0  0  0  0  0  0  0  0  0  0  0
  -25.9490  -30.7910   21.4490 C   0  0  0  0  0  2  0  0  0  0  0  0
  -26.0210  -29.4010   20.8090 C   0  0  0  0  0  0  0  0  0  0  0  0
  -27.1880  -28.5580   20.8210 C   0  0  0  0  0  3  0  0  0  0  0  0
  -25.9850  -26.8790   19.5720 C   0  0  0  0  0  3  0  0  0  0  0  0
  -24.8370  -27.6940   19.5660 C   0  0  0  0  0  3  0  0  0  0  0  0
  -23.6170  -29.8330   20.2420 C   0  0  0  0  0  2  0  0  0  0  0  0
  -24.6690  -31.0930   22.1620 N   0  0  0  0  0  0  0  0  0  0  0  0
  -23.5160  -32.2020   23.7790 O   0  0  0  0  0  0  0  0  0  0  0  0
  -22.7240  -29.5070   22.5840 C   0  0  0  0  0  0  0  0  0  0  0  0
  -21.3960  -29.3360   22.4550 N   0  0  0  0  0  0  0  0  0  0  0  0
  -23.3960  -28.8840   23.4100 O   0  0  0  0  0  0  0  0  0  0  0  0
  -20.9120  -29.8900   21.7640 H   0  0  0  0  0  0  0  0  0  0  0  0
  -18.0110  -28.1580   22.9670 C   0  0  0  0  0  0  0  0  0  0  0  0
  -20.5720  -28.4060   23.2310 C   0  0  0  0  0  3  0  0  0  0  0  0
  -20.6650  -26.9720   22.6620 C   0  0  0  0  0  2  0  0  0  0  0  0
  -19.5590  -26.6520   21.6490 C   0  0  0  0  0  2  0  0  0  0  0  0
  -18.1790  -26.8060   22.2950 C   0  0  0  0  0  2  0  0  0  0  0  0
  -19.1340  -28.9160   23.3920 C   0  0  0  0  0  0  0  0  0  0  0  0
  -18.9220  -30.1820   23.9810 C   0  0  0  0  0  3  0  0  0  0  0  0
  -17.6190  -30.6890   24.1490 C   0  0  0  0  0  3  0  0  0  0  0  0
  -16.5100  -29.9280   23.7380 C   0  0  0  0  0  3  0  0  0  0  0  0
  -16.7070  -28.6640   23.1530 C   0  0  0  0  0  3  0  0  0  0  0  0
  -25.8820  -32.5490   23.8750 C   0  0  0  0  0  3  0  0  0  0  0  0
  -26.3900  -31.7860   25.1590 C   0  0  1  0  0  0  0  0  0  0  0  0
  -25.2910  -31.5580   26.2240 C   0  0  0  0  0  1  0  0  0  0  0  0
  -26.9700  -30.4040   24.7800 C   0  0  0  0  0  1  0  0  0  0  0  0
  -27.5410  -32.5800   25.8200 C   0  0  0  0  0  1  0  0  0  0  0  0
  -25.5760  -33.9520   24.1980 N   0  0  0  0  0  0  0  0  0  0  0  0
  -25.9050  -35.0010   23.4320 C   0  0  0  0  0  0  0  0  0  0  0  0
  -26.5670  -34.8910   22.3970 O   0  0  0  0  0  0  0  0  0  0  0  0
  -24.9920  -34.1120   25.0050 H   0  0  0  0  0  0  0  0  0  0  0  0
  -24.1800  -36.7980   23.0790 C   0  0  0  0  0  1  0  0  0  0  0  0
  -25.4240  -36.3920   23.8870 C   0  0  0  0  0  3  0  0  0  0  0  0
  -27.5630  -37.2770   24.7060 C   0  0  0  0  0  1  0  0  0  0  0  0
  -26.4590  -37.4420   23.7650 N   0  0  0  0  0  0  0  0  0  0  0  0
  -26.0560  -38.3640   23.9060 H   0  0  0  0  0  0  0  0  0  0  0  0
  2 15  1  0
  3  8  1  0
  4  5  1  0
  4  3  1  0
  6  5  1  0
  6 19  1  0
  6  7  1  0
  8  2  1  0
  8  7  1  0
  9  2  2  0
 10 14  1  0
 12 10  1  0
 12 15  1  0
 13 11  1  0
 14  1  1  1
 14 11  1  0
 15 13  1  0
 16 17  2  0
 17 36  1  0
 18 17  1  0
 18 21  1  0
 19 16  1  0
 19 20  1  0
 20 18  2  0
 21 22  1  0
 22 23  2  0
 24 27  1  0
 24 23  1  0
 25 24  2  0
 26 25  1  0
 26 21  2  0
 27 28  1  0
 28 29  1  0
 29 30  2  0
 31 30  1  0
 31 35  1  0
 32 31  2  0
 33 28  2  0
 33 32  1  0
 34 33  1  0
 36 37  1  0
 37 40  1  0
 37 39  1  0
 38 36  2  0
 41 42  1  0
 41 16  1  0
 43 41  1  0
 44 45  1  0
 44 14  1  0
 45 47  1  0
 46 44  2  0
 48 45  1  0
 49 51  2  0
 50 49  1  0
 50  1  1  0
 52 53  1  0
 53 50  1  0
 54 55  1  0
 54 49  1  0
 56 67  2  0
 57 55  1  0
 57 62  1  0
 58 66  1  0
 58 68  1  0
 59 65  1  0
 59 61  1  0
 60 66  1  0
 61 62  2  0
 61 60  1  0
 63 57  2  0
 64 63  1  0
 64 59  2  0
 65 58  1  0
 66 56  1  0
 68 70  2  0
 69 68  1  0
 71 69  1  0
 72 81  2  0
 72 77  1  0
 73 69  1  0
 73 77  1  0
 74 73  1  0
 75 76  1  0
 75 74  1  0
 76 72  1  0
 77 78  2  0
 78 79  1  0
 80 79  2  0
 81 80  1  0
 82 56  1  0
 82 87  1  0
 82 83  1  0
 83 86  1  1
 83 84  1  0
 85 83  1  0
 87 90  1  0
 88 92  1  0
 88 87  1  0
 89 88  2  0
 92 91  1  0
 94 92  1  0
 94 95  1  0
 94 93  1  0
M  ISO  4   2 100  15 100  54 101  55 101
M  END
>  <TORSDO>  (18) 
F 20

>  <SCORE>  (18) 
-14.185

>  <name>  (18) 
17

>  <ligand_id>  (18) 
17

>  <original_smiles>  (18) 
[H]c1c([H])c([H])c2c(c1[H])C([H])([H])C([H])([H])C([H])([H])C2([H])N([H])C(=O)C1([H])N(C(=O)C([H])(N([H])C(=O)C([H])(N([H])C([H])([H])[H])C([H])([H])[H])C(C([H])([H])[H])(C([H])([H])[H])C([H])([H])[H])C([H])([H])c2c([H])c(OC([H])([H])C(=O)N(C([H])([H])C([H])([H])[H])C([H])([H])C3(C(=O)N([H])[H])C([H])([H])C([H])([H])N(C(=O)N4C([H])([H])C([H])([H])C([H])([H])C([H])(n5nc(-c6c([H])c([H])c(Oc7c([H])c([H])c(F)c([H])c7F)c([H])c6[H])c(C(=O)N([H])[H])c5N([H])[H])C4([H])[H])C([H])([H])C3([H])[H])c([H])c([H])c2C1([H])[H]

>  <smiles>  (18) 
[H]c1c([H])c([H])c2c(c1[H])C([H])([H])C([H])([H])C([H])([H])C2([H])N([H])C(=O)C1([H])N(C(=O)C([H])(N([H])C(=O)C([H])(N([H])C([H])([H])[H])C([H])([H])[H])C(C([H])([H])[H])(C([H])([H])[H])C([H])([H])[H])C([H])([H])c2c([H])c(OC([H])([H])C(=O)N(C([H])([H])C([H])([H])[H])C([H])([H])C3(C(=O)N([H])[H])C([H])([H])C([H])([H])N(C(=O)N4C([H])([H])C([H])([H])C([H])([H])C([H])(n5nc(-c6c([H])c([H])c(Oc7c([H])c([H])c(F)c([H])c7F)c([H])c6[H])c(C(=O)N([H])[H])c5N([H])[H])C4([H])[H])C([H])([H])C3([H])[H])c([H])c([H])c2C1([H])[H]

$$$$
18:0:0
     RDKit          3D

 95103  0  0  1  0  0  0  0  0999 V2000
  -29.9540  -20.9180   19.5720 C   0  0  0  0  0  2  0  0  0  0  0  0
  -31.4590  -20.0020   21.4090 C   0  0  0  0  0  1  0  0  0  0  0  0
  -30.4970  -19.7880   20.3360 N   0  0  0  0  0  0  0  0  0  0  0  0
  -28.5310  -16.0290   20.4870 C   0  0  0  0  0  3  0  0  0  0  0  0
  -27.7820  -17.2010   20.3110 C   0  0  0  0  0  3  0  0  0  0  0  0
  -30.5870  -17.3480   20.5380 C   0  0  0  0  0  3  0  0  0  0  0  0
  -29.9350  -16.0900   20.6040 C   0  0  0  0  0  0  0  0  0  0  0  0
  -29.8350  -18.5410   20.3570 C   0  0  0  0  0  0  0  0  0  0  0  0
  -28.4220  -18.4480   20.2620 C   0  0  0  0  0  0  0  0  0  0  0  0
  -27.6510  -19.5560   20.1750 F   0  0  0  0  0  0  0  0  0  0  0  0
  -30.9920  -14.0020   19.8940 C   0  0  0  0  0  0  0  0  0  0  0  0
  -30.7070  -11.6870   19.0720 C   0  0  0  0  0  2  0  0  0  0  0  0
  -29.6940  -11.6370   17.9110 C   0  0  0  0  0  2  0  0  0  0  0  0
  -28.2460  -11.5510   18.4290 C   0  0  0  0  0  2  0  0  0  0  0  0
  -27.9420  -12.6110   19.5190 C   0  0  0  0  0  3  0  0  0  0  0  0
  -29.0400  -12.5810   20.6040 C   0  0  0  0  0  2  0  0  0  0  0  0
  -30.3520  -12.8050   19.9580 N   0  0  0  0  0  0  0  0  0  0  0  0
  -31.9250  -14.2490   19.1210 O   0  0  0  0  0  0  0  0  0  0  0  0
  -30.6000  -14.8600   20.8420 N   0  0  0  0  0  0  0  0  0  0  0  0
  -30.1710  -14.3400   21.5930 H   0  0  0  0  0  0  0  0  0  0  0  0
  -25.6240  -13.3590   20.3760 C   0  0  0  0  0  0  0  0  0  0  0  0
  -24.5470  -12.6480   20.8320 C   0  0  0  0  0  0  0  0  0  0  0  0
  -24.9330  -11.2730   20.7810 C   0  0  0  0  0  0  0  0  0  0  0  0
  -26.6060  -12.4220   20.0870 N   0  0  0  0  0  0  0  0  0  0  0  0
  -26.1920  -11.1630   20.3790 N   0  0  0  0  0  0  0  0  0  0  0  0
  -24.1580  -10.0520   21.0350 C   0  0  0  0  0  0  0  0  0  0  0  0
  -24.5730   -9.1000   21.9920 C   0  0  0  0  0  3  0  0  0  0  0  0
  -23.8020   -7.9410   22.2320 C   0  0  0  0  0  3  0  0  0  0  0  0
  -22.6010   -7.7280   21.5160 C   0  0  0  0  0  0  0  0  0  0  0  0
  -22.2050   -8.6670   20.5470 C   0  0  0  0  0  3  0  0  0  0  0  0
  -22.9760   -9.8170   20.3060 C   0  0  0  0  0  3  0  0  0  0  0  0
  -21.8020   -6.6200   21.6630 O   0  0  0  0  0  0  0  0  0  0  0  0
  -21.6960   -5.9650   22.8640 C   0  0  0  0  0  0  0  0  0  0  0  0
  -21.2610   -6.6200   24.0370 C   0  0  0  0  0  3  0  0  0  0  0  0
  -21.1020   -5.8900   25.2320 C   0  0  0  0  0  3  0  0  0  0  0  0
  -21.3660   -4.5090   25.2550 C   0  0  0  0  0  0  0  0  0  0  0  0
  -21.7950   -3.8540   24.0870 C   0  0  0  0  0  3  0  0  0  0  0  0
  -21.9560   -4.5800   22.8940 C   0  0  0  0  0  0  0  0  0  0  0  0
  -22.3470   -3.9400   21.7660 F   0  0  0  0  0  0  0  0  0  0  0  0
  -21.2060   -3.8070   26.4020 F   0  0  0  0  0  0  0  0  0  0  0  0
  -23.2000  -13.1970   21.2050 C   0  0  0  0  0  0  0  0  0  0  0  0
  -22.5110  -12.5490   22.1390 N   0  0  0  0  0  0  0  0  0  0  0  0
  -22.7700  -14.2340   20.7040 O   0  0  0  0  0  0  0  0  0  0  0  0
  -22.8780  -11.7130   22.5690 H   0  0  0  0  0  0  0  0  0  0  0  0
  -21.6040  -12.8910   22.4260 H   0  0  0  0  0  0  0  0  0  0  0  0
  -25.8470  -14.7170   20.1710 N   0  0  0  0  0  0  0  0  0  0  0  0
  -25.1190  -15.4080   20.3140 H   0  0  0  0  0  0  0  0  0  0  0  0
  -26.6950  -15.1080   19.7840 H   0  0  0  0  0  0  0  0  0  0  0  0
  -29.2990  -22.0340   20.4240 C   0  0  0  0  0  2  0  0  0  0  0  0
  -28.6950  -24.4220   20.1520 C   0  0  0  0  0  0  0  0  0  0  0  0
  -29.3840  -23.3370   19.7740 N   0  0  0  0  0  0  0  0  0  0  0  0
  -27.8990  -24.3970   21.0940 O   0  0  0  0  0  0  0  0  0  0  0  0
  -30.0210  -23.4350   18.9950 H   0  0  0  0  0  0  0  0  0  0  0  0
  -28.9540  -25.7200   19.3680 C   0  0  0  0  0  2  0  0  0  0  0  0
  -28.7200  -26.8710   20.1880 O   0  0  0  0  0  0  0  0  0  0  0  0
  -24.6730  -31.8220   23.2730 C   0  0  0  0  0  0  0  0  0  0  0  0
  -27.4980  -27.5150   20.1620 C   0  0  0  0  0  0  0  0  0  0  0  0
  -23.5460  -30.4520   21.5480 C   0  0  0  0  0  3  0  0  0  0  0  0
  -25.0700  -28.9680   20.1460 C   0  0  0  0  0  0  0  0  0  0  0  0
  -26.0710  -30.8480   21.4570 C   0  0  0  0  0  2  0  0  0  0  0  0
  -26.1960  -29.4970   20.7850 C   0  0  0  0  0  0  0  0  0  0  0  0
  -27.4100  -28.7750   20.7940 C   0  0  0  0  0  3  0  0  0  0  0  0
  -26.3440  -26.9860   19.5390 C   0  0  0  0  0  3  0  0  0  0  0  0
  -25.1360  -27.7070   19.5270 C   0  0  0  0  0  3  0  0  0  0  0  0
  -23.8170  -29.8090   20.1610 C   0  0  0  0  0  2  0  0  0  0  0  0
  -24.7790  -31.0540   22.1510 N   0  0  0  0  0  0  0  0  0  0  0  0
  -23.5690  -32.0670   23.7780 O   0  0  0  0  0  0  0  0  0  0  0  0
  -22.8740  -29.3970   22.4560 C   0  0  0  0  0  0  0  0  0  0  0  0
  -21.5550  -29.2140   22.2810 N   0  0  0  0  0  0  0  0  0  0  0  0
  -23.5350  -28.7510   23.2730 O   0  0  0  0  0  0  0  0  0  0  0  0
  -21.0860  -29.7880   21.5940 H   0  0  0  0  0  0  0  0  0  0  0  0
  -18.1670  -28.0210   22.6570 C   0  0  0  0  0  0  0  0  0  0  0  0
  -20.7190  -28.2500   22.9950 C   0  0  0  0  0  3  0  0  0  0  0  0
  -20.8270  -26.8450   22.3600 C   0  0  0  0  0  2  0  0  0  0  0  0
  -19.7450  -26.5700   21.3110 C   0  0  0  0  0  2  0  0  0  0  0  0
  -18.3500  -26.6990   21.9300 C   0  0  0  0  0  2  0  0  0  0  0  0
  -19.2800  -28.7560   23.1430 C   0  0  0  0  0  0  0  0  0  0  0  0
  -19.0560  -29.9970   23.7790 C   0  0  0  0  0  3  0  0  0  0  0  0
  -17.7510  -30.5000   23.9340 C   0  0  0  0  0  3  0  0  0  0  0  0
  -16.6510  -29.7590   23.4650 C   0  0  0  0  0  3  0  0  0  0  0  0
  -16.8600  -28.5210   22.8320 C   0  0  0  0  0  3  0  0  0  0  0  0
  -25.9280  -32.4480   23.9580 C   0  0  0  0  0  3  0  0  0  0  0  0
  -25.5910  -33.8310   24.3160 N   0  0  0  0  0  0  0  0  0  0  0  0
  -25.9290  -34.9080   23.5940 C   0  0  0  0  0  0  0  0  0  0  0  0
  -26.6300  -34.8420   22.5800 O   0  0  0  0  0  0  0  0  0  0  0  0
  -24.9710  -33.9560   25.1030 H   0  0  0  0  0  0  0  0  0  0  0  0
  -24.1850  -36.6830   23.2290 C   0  0  0  0  0  1  0  0  0  0  0  0
  -25.4040  -36.2750   24.0710 C   0  0  0  0  0  3  0  0  0  0  0  0
  -27.4980  -37.1660   24.9940 C   0  0  0  0  0  1  0  0  0  0  0  0
  -26.4230  -37.3470   24.0220 N   0  0  0  0  0  0  0  0  0  0  0  0
  -25.9990  -38.2570   24.1810 H   0  0  0  0  0  0  0  0  0  0  0  0
  -26.4090  -31.6450   25.2280 C   0  0  1  0  0  0  0  0  0  0  0  0
  -25.2790  -31.3510   26.2400 C   0  0  0  0  0  1  0  0  0  0  0  0
  -27.0370  -30.2940   24.8150 C   0  0  0  0  0  1  0  0  0  0  0  0
  -27.5120  -32.4400   25.9650 C   0  0  0  0  0  1  0  0  0  0  0  0
  1  3  1  0
  1 49  1  0
  3  8  1  0
  3  2  1  0
  4  7  1  0
  5  4  2  0
  6  7  2  0
  7 19  1  0
  8  6  1  0
  9  5  1  0
  9  8  2  0
 10  9  1  0
 11 17  1  0
 11 19  1  0
 12 17  1  0
 13 14  1  0
 13 12  1  0
 15 14  1  0
 15 24  1  0
 15 16  1  0
 17 16  1  0
 18 11  2  0
 19 20  1  0
 21 22  2  0
 22 41  1  0
 23 22  1  0
 23 26  1  0
 24 21  1  0
 24 25  1  0
 25 23  2  0
 26 27  1  0
 27 28  2  0
 29 32  1  0
 29 28  1  0
 30 29  2  0
 31 30  1  0
 31 26  2  0
 32 33  1  0
 33 38  2  0
 33 34  1  0
 34 35  2  0
 35 36  1  0
 36 40  1  0
 37 36  2  0
 38 37  1  0
 39 38  1  0
 41 42  1  0
 42 45  1  0
 42 44  1  0
 43 41  2  0
 46 47  1  0
 46 21  1  0
 48 46  1  0
 50 52  2  0
 51 50  1  0
 51 49  1  0
 53 51  1  0
 54 50  1  0
 54 55  1  0
 56 67  2  0
 57 55  1  0
 57 62  1  0
 58 66  1  0
 58 68  1  0
 59 65  1  0
 59 61  1  0
 60 66  1  0
 61 62  2  0
 61 60  1  0
 63 57  2  0
 64 63  1  0
 64 59  2  0
 65 58  1  0
 66 56  1  0
 68 70  2  0
 69 68  1  0
 71 69  1  0
 72 81  2  0
 72 77  1  0
 73 69  1  0
 73 77  1  0
 74 73  1  0
 75 76  1  0
 75 74  1  0
 76 72  1  0
 77 78  2  0
 78 79  1  0
 80 79  2  0
 81 80  1  0
 82 56  1  0
 82 83  1  0
 82 92  1  0
 83 86  1  0
 84 88  1  0
 84 83  1  0
 85 84  2  0
 88 87  1  0
 90 88  1  0
 90 91  1  0
 90 89  1  0
 92 95  1  1
 92 93  1  0
 94 92  1  0
M  ISO  4  11 100  19 100  54 101  55 101
M  END
>  <TORSDO>  (19) 
F 21

>  <SCORE>  (19) 
-12.993

>  <name>  (19) 
18

>  <ligand_id>  (19) 
18

>  <original_smiles>  (19) 
[H]c1c([H])c([H])c2c(c1[H])C([H])([H])C([H])([H])C([H])([H])C2([H])N([H])C(=O)C1([H])N(C(=O)C([H])(N([H])C(=O)C([H])(N([H])C([H])([H])[H])C([H])([H])[H])C(C([H])([H])[H])(C([H])([H])[H])C([H])([H])[H])C([H])([H])c2c([H])c(OC([H])([H])C(=O)N([H])C([H])([H])C([H])([H])N(c3c([H])c(N([H])C(=O)N4C([H])([H])C([H])([H])C([H])([H])C([H])(n5nc(-c6c([H])c([H])c(Oc7c([H])c([H])c(F)c([H])c7F)c([H])c6[H])c(C(=O)N([H])[H])c5N([H])[H])C4([H])[H])c([H])c([H])c3F)C([H])([H])[H])c([H])c([H])c2C1([H])[H]

>  <smiles>  (19) 
[H]c1c([H])c([H])c2c(c1[H])C([H])([H])C([H])([H])C([H])([H])C2([H])N([H])C(=O)C1([H])N(C(=O)C([H])(N([H])C(=O)C([H])(N([H])C([H])([H])[H])C([H])([H])[H])C(C([H])([H])[H])(C([H])([H])[H])C([H])([H])[H])C([H])([H])c2c([H])c(OC([H])([H])C(=O)N([H])C([H])([H])C([H])([H])N(c3c([H])c(N([H])C(=O)N4C([H])([H])C([H])([H])C([H])([H])C([H])(n5nc(-c6c([H])c([H])c(Oc7c([H])c([H])c(F)c([H])c7F)c([H])c6[H])c(C(=O)N([H])[H])c5N([H])[H])C4([H])[H])c([H])c([H])c3F)C([H])([H])[H])c([H])c([H])c2C1([H])[H]

$$$$
19:0:0
     RDKit          3D

 97105  0  0  1  0  0  0  0  0999 V2000
  -29.8980  -20.5690   23.4760 C   0  0  0  0  0  1  0  0  0  0  0  0
  -30.0670  -20.5890   22.0250 N   0  0  0  0  0  0  0  0  0  0  0  0
  -32.2750  -17.2840   20.5330 C   0  0  0  0  0  3  0  0  0  0  0  0
  -30.8840  -17.1260   20.7340 C   0  0  0  0  0  0  0  0  0  0  0  0
  -30.7590  -19.4720   21.5020 C   0  0  0  0  0  0  0  0  0  0  0  0
  -32.9010  -18.5140   20.7990 C   0  0  0  0  0  0  0  0  0  0  0  0
  -30.1310  -18.2210   21.2340 C   0  0  0  0  0  0  0  0  0  0  0  0
  -32.1500  -19.6010   21.2810 C   0  0  0  0  0  0  0  0  0  0  0  0
  -34.2340  -18.6470   20.5970 F   0  0  0  0  0  0  0  0  0  0  0  0
  -28.8040  -18.0620   21.4680 F   0  0  0  0  0  0  0  0  0  0  0  0
  -32.7740  -20.7770   21.5370 F   0  0  0  0  0  0  0  0  0  0  0  0
  -30.7850  -14.8580   19.7590 C   0  0  0  0  0  0  0  0  0  0  0  0
  -30.5350  -12.5490   18.9220 C   0  0  0  0  0  2  0  0  0  0  0  0
  -29.5320  -12.4780   17.7570 C   0  0  0  0  0  2  0  0  0  0  0  0
  -28.0970  -12.3040   18.2880 C   0  0  0  0  0  2  0  0  0  0  0  0
  -27.7470  -13.3200   19.4070 C   0  0  0  0  0  3  0  0  0  0  0  0
  -28.8600  -13.3800   20.4770 C   0  0  0  0  0  2  0  0  0  0  0  0
  -30.1370  -13.6630   19.8000 N   0  0  0  0  0  0  0  0  0  0  0  0
  -31.7910  -15.0410   19.0680 O   0  0  0  0  0  0  0  0  0  0  0  0
  -30.2550  -15.8640   20.4820 N   0  0  0  0  0  0  0  0  0  0  0  0
  -29.3310  -15.7240   20.8600 H   0  0  0  0  0  0  0  0  0  0  0  0
  -25.4330  -13.9080   20.3670 C   0  0  0  0  0  0  0  0  0  0  0  0
  -24.3960  -13.1270   20.7990 C   0  0  0  0  0  0  0  0  0  0  0  0
  -24.8350  -11.7750   20.6580 C   0  0  0  0  0  0  0  0  0  0  0  0
  -26.4410  -13.0310   19.9960 N   0  0  0  0  0  0  0  0  0  0  0  0
  -26.0890  -11.7400   20.2250 N   0  0  0  0  0  0  0  0  0  0  0  0
  -24.1140  -10.5100   20.8540 C   0  0  0  0  0  0  0  0  0  0  0  0
  -24.5540   -9.5460   21.7890 C   0  0  0  0  0  3  0  0  0  0  0  0
  -23.8350   -8.3460   21.9740 C   0  0  0  0  0  3  0  0  0  0  0  0
  -22.6590   -8.1000   21.2240 C   0  0  0  0  0  0  0  0  0  0  0  0
  -22.2390   -9.0520   20.2770 C   0  0  0  0  0  3  0  0  0  0  0  0
  -22.9600  -10.2440   20.0910 C   0  0  0  0  0  3  0  0  0  0  0  0
  -21.9100   -6.9530   21.3180 O   0  0  0  0  0  0  0  0  0  0  0  0
  -21.7800   -6.2730   22.5030 C   0  0  0  0  0  0  0  0  0  0  0  0
  -21.2650   -6.8890   23.6640 C   0  0  0  0  0  3  0  0  0  0  0  0
  -21.0850   -6.1340   24.8410 C   0  0  0  0  0  3  0  0  0  0  0  0
  -21.4090   -4.7650   24.8560 C   0  0  0  0  0  0  0  0  0  0  0  0
  -21.9160   -4.1480   23.6990 C   0  0  0  0  0  3  0  0  0  0  0  0
  -22.0980   -4.8990   22.5250 C   0  0  0  0  0  0  0  0  0  0  0  0
  -22.5680   -4.2960   21.4070 F   0  0  0  0  0  0  0  0  0  0  0  0
  -21.2280   -4.0370   25.9830 F   0  0  0  0  0  0  0  0  0  0  0  0
  -23.0370  -13.5980   21.2290 C   0  0  0  0  0  0  0  0  0  0  0  0
  -22.4000  -12.8810   22.1490 N   0  0  0  0  0  0  0  0  0  0  0  0
  -22.5520  -14.6390   20.7870 O   0  0  0  0  0  0  0  0  0  0  0  0
  -22.8050  -12.0380   22.5290 H   0  0  0  0  0  0  0  0  0  0  0  0
  -21.4920  -13.1780   22.4790 H   0  0  0  0  0  0  0  0  0  0  0  0
  -25.5990  -15.2840   20.2410 N   0  0  0  0  0  0  0  0  0  0  0  0
  -24.8580  -15.9450   20.4490 H   0  0  0  0  0  0  0  0  0  0  0  0
  -26.4300  -15.7290   19.8700 H   0  0  0  0  0  0  0  0  0  0  0  0
  -29.0970  -21.2930   21.1880 C   0  0  0  0  0  2  0  0  0  0  0  0
  -29.4660  -22.7950   20.9910 C   0  0  0  0  0  2  0  0  0  0  0  0
  -28.7630  -24.8950   19.8960 C   0  0  0  0  0  0  0  0  0  0  0  0
  -27.8290  -22.7340   19.0860 C   0  0  0  0  0  1  0  0  0  0  0  0
  -28.6790  -23.5380   19.9770 N   0  0  0  0  0  0  0  0  0  0  0  0
  -29.5960  -25.5360   20.5500 O   0  0  0  0  0  0  0  0  0  0  0  0
  -27.7510  -25.6710   19.0170 C   0  0  0  0  0  2  0  0  0  0  0  0
  -27.8490  -27.0950   19.2190 O   0  0  0  0  0  0  0  0  0  0  0  0
  -24.7140  -31.9950   23.2930 C   0  0  0  0  0  0  0  0  0  0  0  0
  -26.6940  -27.8260   19.4270 C   0  0  0  0  0  0  0  0  0  0  0  0
  -23.2160  -30.7800   21.7440 C   0  0  0  0  0  3  0  0  0  0  0  0
  -24.3740  -29.3700   19.9630 C   0  0  0  0  0  0  0  0  0  0  0  0
  -25.6880  -31.1140   21.1760 C   0  0  0  0  0  2  0  0  0  0  0  0
  -25.6270  -29.8110   20.4070 C   0  0  0  0  0  0  0  0  0  0  0  0
  -26.7850  -29.0450   20.1400 C   0  0  0  0  0  3  0  0  0  0  0  0
  -25.4190  -27.4160   18.9620 C   0  0  0  0  0  3  0  0  0  0  0  0
  -24.2650  -28.1720   19.2410 C   0  0  0  0  0  3  0  0  0  0  0  0
  -23.1790  -30.2380   20.2920 C   0  0  0  0  0  2  0  0  0  0  0  0
  -24.5670  -31.3050   22.1260 N   0  0  0  0  0  0  0  0  0  0  0  0
  -23.7430  -32.2310   24.0240 O   0  0  0  0  0  0  0  0  0  0  0  0
  -22.6960  -29.6800   22.6960 C   0  0  0  0  0  0  0  0  0  0  0  0
  -21.4100  -29.3210   22.5490 N   0  0  0  0  0  0  0  0  0  0  0  0
  -23.4470  -29.1500   23.5210 O   0  0  0  0  0  0  0  0  0  0  0  0
  -20.8580  -29.8090   21.8570 H   0  0  0  0  0  0  0  0  0  0  0  0
  -18.3060  -27.4930   22.8090 C   0  0  0  0  0  0  0  0  0  0  0  0
  -20.7150  -28.2840   23.3100 C   0  0  0  0  0  3  0  0  0  0  0  0
  -21.1620  -26.8730   22.8630 C   0  0  0  0  0  2  0  0  0  0  0  0
  -20.2670  -26.2720   21.7740 C   0  0  0  0  0  2  0  0  0  0  0  0
  -18.8190  -26.1700   22.2650 C   0  0  0  0  0  2  0  0  0  0  0  0
  -19.1960  -28.4910   23.2840 C   0  0  0  0  0  0  0  0  0  0  0  0
  -18.6680  -29.7170   23.7450 C   0  0  0  0  0  3  0  0  0  0  0  0
  -17.2810  -29.9510   23.7420 C   0  0  0  0  0  3  0  0  0  0  0  0
  -16.4020  -28.9530   23.2860 C   0  0  0  0  0  3  0  0  0  0  0  0
  -16.9140  -27.7260   22.8250 C   0  0  0  0  0  3  0  0  0  0  0  0
  -26.1030  -32.5410   23.7500 C   0  0  0  0  0  3  0  0  0  0  0  0
  -25.9130  -33.9330   24.1780 N   0  0  0  0  0  0  0  0  0  0  0  0
  -26.2030  -35.0040   23.4280 C   0  0  0  0  0  0  0  0  0  0  0  0
  -26.7320  -34.9200   22.3160 O   0  0  0  0  0  0  0  0  0  0  0  0
  -25.4370  -34.0760   25.0560 H   0  0  0  0  0  0  0  0  0  0  0  0
  -24.5370  -36.8870   23.3690 C   0  0  0  0  0  1  0  0  0  0  0  0
  -25.8460  -36.3880   24.0020 C   0  0  0  0  0  3  0  0  0  0  0  0
  -28.1110  -37.1260   24.5960 C   0  0  0  0  0  1  0  0  0  0  0  0
  -26.9100  -37.3980   23.8100 N   0  0  0  0  0  0  0  0  0  0  0  0
  -26.5740  -38.3240   24.0580 H   0  0  0  0  0  0  0  0  0  0  0  0
  -26.7600  -31.6870   24.9020 C   0  0  1  0  0  0  0  0  0  0  0  0
  -25.8040  -31.3910   26.0810 C   0  0  0  0  0  1  0  0  0  0  0  0
  -27.2670  -30.3330   24.3540 C   0  0  0  0  0  1  0  0  0  0  0  0
  -27.9960  -32.4290   25.4650 C   0  0  0  0  0  1  0  0  0  0  0  0
  2  1  1  0
  3  4  2  0
  3  6  1  0
  4  7  1  0
  5  2  1  0
  6  8  2  0
  7 10  1  0
  7  5  2  0
  8  5  1  0
  8 11  1  0
  9  6  1  0
 12 18  1  0
 12 20  1  0
 13 18  1  0
 14 15  1  0
 14 13  1  0
 16 15  1  0
 16 25  1  0
 16 17  1  0
 18 17  1  0
 19 12  2  0
 20  4  1  0
 20 21  1  0
 22 23  2  0
 23 42  1  0
 24 23  1  0
 24 27  1  0
 25 26  1  0
 25 22  1  0
 26 24  2  0
 27 28  1  0
 28 29  2  0
 30 33  1  0
 30 29  1  0
 31 30  2  0
 32 31  1  0
 32 27  2  0
 33 34  1  0
 34 39  2  0
 34 35  1  0
 35 36  2  0
 36 37  1  0
 37 41  1  0
 38 37  2  0
 39 38  1  0
 40 39  1  0
 42 43  1  0
 43 46  1  0
 43 45  1  0
 44 42  2  0
 47 22  1  0
 47 48  1  0
 49 47  1  0
 50  2  1  0
 51 50  1  0
 52 54  1  0
 52 55  2  0
 53 54  1  0
 54 51  1  0
 56 57  1  0
 56 52  1  0
 57 59  1  0
 58 69  2  0
 59 64  1  0
 60 68  1  0
 60 70  1  0
 61 67  1  0
 61 63  1  0
 62 68  1  0
 63 62  1  0
 64 63  2  0
 65 66  1  0
 65 59  2  0
 66 61  2  0
 67 60  1  0
 68 58  1  0
 70 72  2  0
 71 70  1  0
 73 71  1  0
 74 83  2  0
 74 79  1  0
 75 71  1  0
 76 75  1  0
 77 78  1  0
 77 76  1  0
 78 74  1  0
 79 75  1  0
 79 80  2  0
 81 80  1  0
 82 81  2  0
 83 82  1  0
 84 58  1  0
 84 85  1  0
 84 94  1  0
 85 88  1  0
 86 90  1  0
 86 85  1  0
 87 86  2  0
 90 89  1  0
 92 90  1  0
 92 93  1  0
 92 91  1  0
 94 97  1  1
 94 95  1  0
 96 94  1  0
M  ISO  4  12 100  20 100  56 101  57 101
M  END
>  <TORSDO>  (20) 
F 21

>  <SCORE>  (20) 
-11.960

>  <name>  (20) 
19

>  <ligand_id>  (20) 
19

>  <original_smiles>  (20) 
[H]c1c([H])c([H])c2c(c1[H])C([H])([H])C([H])([H])C([H])([H])C2([H])N([H])C(=O)C1([H])N(C(=O)C([H])(N([H])C(=O)C([H])(N([H])C([H])([H])[H])C([H])([H])[H])C(C([H])([H])[H])(C([H])([H])[H])C([H])([H])[H])C([H])([H])c2c([H])c(OC([H])([H])C(=O)N(C([H])([H])[H])C([H])([H])C([H])([H])N(c3c(F)c(F)c([H])c(N([H])C(=O)N4C([H])([H])C([H])([H])C([H])([H])C([H])(n5nc(-c6c([H])c([H])c(Oc7c([H])c([H])c(F)c([H])c7F)c([H])c6[H])c(C(=O)N([H])[H])c5N([H])[H])C4([H])[H])c3F)C([H])([H])[H])c([H])c([H])c2C1([H])[H]

>  <smiles>  (20) 
[H]c1c([H])c([H])c2c(c1[H])C([H])([H])C([H])([H])C([H])([H])C2([H])N([H])C(=O)C1([H])N(C(=O)C([H])(N([H])C(=O)C([H])(N([H])C([H])([H])[H])C([H])([H])[H])C(C([H])([H])[H])(C([H])([H])[H])C([H])([H])[H])C([H])([H])c2c([H])c(OC([H])([H])C(=O)N(C([H])([H])[H])C([H])([H])C([H])([H])N(c3c(F)c(F)c([H])c(N([H])C(=O)N4C([H])([H])C([H])([H])C([H])([H])C([H])(n5nc(-c6c([H])c([H])c(Oc7c([H])c([H])c(F)c([H])c7F)c([H])c6[H])c(C(=O)N([H])[H])c5N([H])[H])C4([H])[H])c3F)C([H])([H])[H])c([H])c([H])c2C1([H])[H]

$$$$
20:0:0
     RDKit          3D

 94103  0  0  1  0  0  0  0  0999 V2000
  -29.0810  -24.0050   20.3170 C   0  0  0  0  0  0  0  0  0  0  0  0
  -27.7800  -20.8600   20.6130 C   0  0  0  0  0  2  0  0  0  0  0  0
  -27.2970  -22.3040   20.7480 C   0  0  0  0  0  2  0  0  0  0  0  0
  -29.2180  -21.3890   20.4650 C   0  0  0  0  0  3  0  0  0  0  0  0
  -28.5610  -22.6880   20.1370 N   0  0  0  0  0  0  0  0  0  0  0  0
  -30.2940  -24.2060   20.4140 O   0  0  0  0  0  0  0  0  0  0  0  0
  -30.0330  -20.7240   19.3090 C   0  0  0  0  0  0  0  0  0  0  0  0
  -31.5620  -19.0980   18.3660 C   0  0  0  0  0  1  0  0  0  0  0  0
  -30.5180  -19.4310   19.3490 N   0  0  0  0  0  0  0  0  0  0  0  0
  -30.3040  -21.4580   18.3490 O   0  0  0  0  0  0  0  0  0  0  0  0
  -30.9890  -14.7220   19.6700 C   0  0  0  0  0  0  0  0  0  0  0  0
  -30.5690  -12.5820   18.4860 C   0  0  0  0  0  2  0  0  0  0  0  0
  -29.4880  -12.8080   17.4100 C   0  0  0  0  0  2  0  0  0  0  0  0
  -28.0800  -12.6360   18.0150 C   0  0  0  0  0  2  0  0  0  0  0  0
  -27.8940  -13.4130   19.3460 C   0  0  0  0  0  3  0  0  0  0  0  0
  -29.0820  -13.1840   20.3040 C   0  0  0  0  0  2  0  0  0  0  0  0
  -30.3100  -13.5380   19.5790 N   0  0  0  0  0  0  0  0  0  0  0  0
  -32.0620  -14.8940   19.0840 O   0  0  0  0  0  0  0  0  0  0  0  0
  -31.1800  -17.8790   21.2380 C   0  0  0  0  0  2  0  0  0  0  0  0
  -29.7990  -16.9070   19.5140 C   0  0  0  0  0  2  0  0  0  0  0  0
  -30.1100  -18.2770   20.2240 C   0  0  0  0  0  3  0  0  0  0  0  0
  -30.9830  -16.3680   21.4970 C   0  0  0  0  0  3  0  0  0  0  0  0
  -30.0960  -16.1130   22.7290 C   0  0  0  0  0  1  0  0  0  0  0  0
  -30.3670  -15.7710   20.2970 N   0  0  0  0  0  0  0  0  0  0  0  0
  -25.6370  -13.9580   20.4480 C   0  0  0  0  0  0  0  0  0  0  0  0
  -24.6110  -13.1610   20.8770 C   0  0  0  0  0  0  0  0  0  0  0  0
  -25.0280  -11.8160   20.6390 C   0  0  0  0  0  0  0  0  0  0  0  0
  -26.6180  -13.0970   19.9810 N   0  0  0  0  0  0  0  0  0  0  0  0
  -26.2630  -11.7970   20.1550 N   0  0  0  0  0  0  0  0  0  0  0  0
  -24.3020  -10.5480   20.7940 C   0  0  0  0  0  0  0  0  0  0  0  0
  -24.7910   -9.5080   21.6160 C   0  0  0  0  0  3  0  0  0  0  0  0
  -24.0620   -8.3090   21.7660 C   0  0  0  0  0  3  0  0  0  0  0  0
  -22.8320   -8.1380   21.0890 C   0  0  0  0  0  0  0  0  0  0  0  0
  -22.3600   -9.1660   20.2540 C   0  0  0  0  0  3  0  0  0  0  0  0
  -23.0880  -10.3570   20.1030 C   0  0  0  0  0  3  0  0  0  0  0  0
  -22.0720   -6.9940   21.1500 O   0  0  0  0  0  0  0  0  0  0  0  0
  -22.0390   -6.2100   22.2740 C   0  0  0  0  0  0  0  0  0  0  0  0
  -21.6570   -6.7280   23.5310 C   0  0  0  0  0  3  0  0  0  0  0  0
  -21.5720   -5.8730   24.6480 C   0  0  0  0  0  3  0  0  0  0  0  0
  -21.8550   -4.5010   24.5080 C   0  0  0  0  0  0  0  0  0  0  0  0
  -22.2280   -3.9830   23.2560 C   0  0  0  0  0  3  0  0  0  0  0  0
  -22.3160   -4.8350   22.1410 C   0  0  0  0  0  0  0  0  0  0  0  0
  -22.6560   -4.3260   20.9320 F   0  0  0  0  0  0  0  0  0  0  0  0
  -21.7670   -3.6780   25.5790 F   0  0  0  0  0  0  0  0  0  0  0  0
  -23.2770  -13.6230   21.3900 C   0  0  0  0  0  0  0  0  0  0  0  0
  -22.6730  -12.8640   22.2970 N   0  0  0  0  0  0  0  0  0  0  0  0
  -22.7850  -14.6890   21.0230 O   0  0  0  0  0  0  0  0  0  0  0  0
  -23.0870  -11.9990   22.6130 H   0  0  0  0  0  0  0  0  0  0  0  0
  -21.7870  -13.1560   22.6830 H   0  0  0  0  0  0  0  0  0  0  0  0
  -25.8140  -15.3390   20.3980 N   0  0  0  0  0  0  0  0  0  0  0  0
  -25.0950  -15.9880   20.7000 H   0  0  0  0  0  0  0  0  0  0  0  0
  -26.6350  -15.8000   20.0270 H   0  0  0  0  0  0  0  0  0  0  0  0
  -28.0400  -25.1620   20.5260 C   0  0  0  0  0  2  0  0  0  0  0  0
  -28.4310  -26.5540   20.2080 O   0  0  0  0  0  0  0  0  0  0  0  0
  -24.7220  -31.9180   23.2620 C   0  0  0  0  0  0  0  0  0  0  0  0
  -27.3390  -27.4270   20.1490 C   0  0  0  0  0  0  0  0  0  0  0  0
  -23.5130  -30.5150   21.6310 C   0  0  0  0  0  3  0  0  0  0  0  0
  -24.9630  -29.0040   20.1760 C   0  0  0  0  0  0  0  0  0  0  0  0
  -26.0470  -30.8680   21.4200 C   0  0  0  0  0  2  0  0  0  0  0  0
  -26.1340  -29.4970   20.7680 C   0  0  0  0  0  0  0  0  0  0  0  0
  -27.3260  -28.7160   20.7560 C   0  0  0  0  0  3  0  0  0  0  0  0
  -26.1570  -27.0090   19.4910 C   0  0  0  0  0  3  0  0  0  0  0  0
  -24.9770  -27.7630   19.5280 C   0  0  0  0  0  3  0  0  0  0  0  0
  -23.7170  -29.8580   20.2430 C   0  0  0  0  0  2  0  0  0  0  0  0
  -24.7800  -31.1170   22.1610 N   0  0  0  0  0  0  0  0  0  0  0  0
  -23.6410  -32.1800   23.8090 O   0  0  0  0  0  0  0  0  0  0  0  0
  -22.8770  -29.4810   22.5910 C   0  0  0  0  0  0  0  0  0  0  0  0
  -21.5520  -29.2870   22.4770 N   0  0  0  0  0  0  0  0  0  0  0  0
  -23.5730  -28.8610   23.3980 O   0  0  0  0  0  0  0  0  0  0  0  0
  -21.0480  -29.8440   21.8010 H   0  0  0  0  0  0  0  0  0  0  0  0
  -18.2000  -28.0260   22.9870 C   0  0  0  0  0  0  0  0  0  0  0  0
  -20.7530  -28.3370   23.2540 C   0  0  0  0  0  3  0  0  0  0  0  0
  -20.8820  -26.9030   22.6900 C   0  0  0  0  0  2  0  0  0  0  0  0
  -19.7860  -26.5510   21.6790 C   0  0  0  0  0  2  0  0  0  0  0  0
  -18.4020  -26.6740   22.3220 C   0  0  0  0  0  2  0  0  0  0  0  0
  -19.3030  -28.8130   23.4120 C   0  0  0  0  0  0  0  0  0  0  0  0
  -19.0600  -30.0750   23.9950 C   0  0  0  0  0  3  0  0  0  0  0  0
  -17.7460  -30.5520   24.1550 C   0  0  0  0  0  3  0  0  0  0  0  0
  -16.6570  -29.7640   23.7470 C   0  0  0  0  0  3  0  0  0  0  0  0
  -16.8840  -28.5020   23.1690 C   0  0  0  0  0  3  0  0  0  0  0  0
  -26.0060  -32.5620   23.8700 C   0  0  0  0  0  3  0  0  0  0  0  0
  -25.6840  -33.9550   24.2090 N   0  0  0  0  0  0  0  0  0  0  0  0
  -26.0000  -35.0150   23.4540 C   0  0  0  0  0  0  0  0  0  0  0  0
  -26.6640  -34.9240   22.4180 O   0  0  0  0  0  0  0  0  0  0  0  0
  -25.0960  -34.0990   25.0170 H   0  0  0  0  0  0  0  0  0  0  0  0
  -24.2540  -36.7950   23.1160 C   0  0  0  0  0  1  0  0  0  0  0  0
  -25.5000  -36.3960   23.9210 C   0  0  0  0  0  3  0  0  0  0  0  0
  -27.6330  -37.2920   24.7470 C   0  0  0  0  0  1  0  0  0  0  0  0
  -26.5230  -37.4590   23.8130 N   0  0  0  0  0  0  0  0  0  0  0  0
  -26.1100  -38.3740   23.9710 H   0  0  0  0  0  0  0  0  0  0  0  0
  -26.5470  -31.7900   25.1350 C   0  0  1  0  0  0  0  0  0  0  0  0
  -25.4690  -31.5320   26.2150 C   0  0  0  0  0  1  0  0  0  0  0  0
  -27.1440  -30.4230   24.7280 C   0  0  0  0  0  1  0  0  0  0  0  0
  -27.6970  -32.5950   25.7860 C   0  0  0  0  0  1  0  0  0  0  0  0
  1  6  2  0
  1 53  1  0
  2  3  1  0
  4  7  1  0
  4  2  1  0
  5  1  1  0
  5  4  1  0
  5  3  1  0
  7  9  1  0
  8  9  1  0
 10  7  2  0
 11 24  1  0
 12 17  1  0
 13 14  1  0
 13 12  1  0
 15 14  1  0
 15 28  1  0
 15 16  1  0
 17 11  1  0
 17 16  1  0
 18 11  2  0
 19 22  1  0
 20 21  1  0
 20 24  1  0
 21  9  1  0
 21 19  1  0
 22 23  1  0
 24 22  1  0
 25 26  2  0
 26 45  1  0
 27 30  1  0
 27 26  1  0
 28 29  1  0
 28 25  1  0
 29 27  2  0
 30 31  1  0
 31 32  2  0
 33 36  1  0
 33 32  1  0
 34 33  2  0
 35 34  1  0
 35 30  2  0
 36 37  1  0
 37 38  1  0
 38 39  2  0
 40 39  1  0
 40 44  1  0
 41 40  2  0
 42 37  2  0
 42 41  1  0
 43 42  1  0
 45 46  1  0
 46 48  1  0
 46 49  1  0
 47 45  2  0
 50 25  1  0
 50 51  1  0
 52 50  1  0
 54 53  1  0
 55 66  2  0
 56 54  1  0
 56 61  1  0
 57 65  1  0
 57 67  1  0
 58 64  1  0
 58 60  1  0
 59 65  1  0
 60 59  1  0
 61 60  2  0
 62 63  1  0
 62 56  2  0
 63 58  2  0
 64 57  1  0
 65 55  1  0
 67 69  2  0
 68 67  1  0
 70 68  1  0
 71 80  2  0
 71 76  1  0
 72 68  1  0
 72 76  1  0
 73 72  1  0
 74 75  1  0
 74 73  1  0
 75 71  1  0
 76 77  2  0
 77 78  1  0
 79 78  2  0
 80 79  1  0
 81 55  1  0
 81 82  1  0
 81 91  1  0
 82 85  1  0
 83 87  1  0
 83 82  1  0
 84 83  2  0
 87 86  1  0
 89 87  1  0
 89 90  1  0
 89 88  1  0
 91 94  1  1
 91 92  1  0
 93 91  1  0
M  ISO  4  11 100  24 100  53 101  54 101
M  END
>  <TORSDO>  (21) 
F 18

>  <SCORE>  (21) 
-12.168

>  <name>  (21) 
20

>  <ligand_id>  (21) 
20

>  <original_smiles>  (21) 
[H]c1c([H])c([H])c2c(c1[H])C([H])([H])C([H])([H])C([H])([H])C2([H])N([H])C(=O)C1([H])N(C(=O)C([H])(N([H])C(=O)C([H])(N([H])C([H])([H])[H])C([H])([H])[H])C(C([H])([H])[H])(C([H])([H])[H])C([H])([H])[H])C([H])([H])c2c([H])c(OC([H])([H])C(=O)N3C([H])([H])C([H])([H])C3([H])C(=O)N(C([H])([H])[H])C3([H])C([H])([H])N(C(=O)N4C([H])([H])C([H])([H])C([H])([H])C([H])(n5nc(-c6c([H])c([H])c(Oc7c([H])c([H])c(F)c([H])c7F)c([H])c6[H])c(C(=O)N([H])[H])c5N([H])[H])C4([H])[H])C([H])(C([H])([H])[H])C3([H])[H])c([H])c([H])c2C1([H])[H]

>  <smiles>  (21) 
[H]c1c([H])c([H])c2c(c1[H])C([H])([H])C([H])([H])C([H])([H])C2([H])N([H])C(=O)C1([H])N(C(=O)C([H])(N([H])C(=O)C([H])(N([H])C([H])([H])[H])C([H])([H])[H])C(C([H])([H])[H])(C([H])([H])[H])C([H])([H])[H])C([H])([H])c2c([H])c(OC([H])([H])C(=O)N3C([H])([H])C([H])([H])C3([H])C(=O)N(C([H])([H])[H])C3([H])C([H])([H])N(C(=O)N4C([H])([H])C([H])([H])C([H])([H])C([H])(n5nc(-c6c([H])c([H])c(Oc7c([H])c([H])c(F)c([H])c7F)c([H])c6[H])c(C(=O)N([H])[H])c5N([H])[H])C4([H])[H])C([H])(C([H])([H])[H])C3([H])[H])c([H])c([H])c2C1([H])[H]

$$$$
21:0:0
     RDKit          3D

 98107  0  0  1  0  0  0  0  0999 V2000
  -27.3500  -22.4930   19.9400 C   0  0  0  0  0  2  0  0  0  0  0  0
  -29.4000  -21.7730   18.6810 C   0  0  0  0  0  2  0  0  0  0  0  0
  -27.1290  -21.0380   20.3820 C   0  0  0  0  0  2  0  0  0  0  0  0
  -29.1210  -20.3090   19.1260 C   0  0  0  0  0  3  0  0  0  0  0  0
  -28.0920  -22.5800   18.5850 C   0  0  0  0  0  3  0  0  0  0  0  0
  -28.1600  -18.9070   20.9730 C   0  0  0  0  0  1  0  0  0  0  0  0
  -28.4030  -20.2710   20.4380 N   0  0  2  0  0  4  0  0  0  0  0  0
  -29.0030  -20.7230   21.1140 H   0  0  0  0  0  0  0  0  0  0  0  0
  -32.7550  -19.0910   18.5860 C   0  0  0  0  0  3  0  0  0  0  0  0
  -31.6310  -19.9380   18.6720 C   0  0  0  0  0  3  0  0  0  0  0  0
  -32.6450  -17.7250   18.9090 C   0  0  0  0  0  3  0  0  0  0  0  0
  -30.2780  -18.0530   19.4060 C   0  0  0  0  0  3  0  0  0  0  0  0
  -30.3750  -19.4250   19.0720 C   0  0  0  0  0  0  0  0  0  0  0  0
  -31.4010  -17.2040   19.3240 C   0  0  0  0  0  0  0  0  0  0  0  0
  -31.8910  -14.7860   19.2620 C   0  0  0  0  0  0  0  0  0  0  0  0
  -31.6670  -12.3490   18.9190 C   0  0  0  0  0  2  0  0  0  0  0  0
  -30.6770  -12.0620   17.7730 C   0  0  0  0  0  2  0  0  0  0  0  0
  -29.2240  -12.0330   18.2880 C   0  0  0  0  0  2  0  0  0  0  0  0
  -28.8780  -13.2640   19.1660 C   0  0  0  0  0  3  0  0  0  0  0  0
  -29.9690  -13.4770   20.2400 C   0  0  0  0  0  2  0  0  0  0  0  0
  -31.2730  -13.6130   19.5570 N   0  0  0  0  0  0  0  0  0  0  0  0
  -32.9210  -14.8630   18.5790 O   0  0  0  0  0  0  0  0  0  0  0  0
  -31.2690  -15.8640   19.7600 N   0  0  0  0  0  0  0  0  0  0  0  0
  -30.4290  -15.6440   20.2740 H   0  0  0  0  0  0  0  0  0  0  0  0
  -26.6480  -14.1330   20.1210 C   0  0  0  0  0  0  0  0  0  0  0  0
  -25.5330  -13.4800   20.5760 C   0  0  0  0  0  0  0  0  0  0  0  0
  -25.8180  -12.0850   20.4610 C   0  0  0  0  0  0  0  0  0  0  0  0
  -27.5490  -13.1400   19.7640 N   0  0  0  0  0  0  0  0  0  0  0  0
  -27.0570  -11.9020   20.0220 N   0  0  0  0  0  0  0  0  0  0  0  0
  -24.9650  -10.9120   20.6890 C   0  0  0  0  0  0  0  0  0  0  0  0
  -25.2330   -9.9930   21.7280 C   0  0  0  0  0  3  0  0  0  0  0  0
  -24.3880   -8.8820   21.9380 C   0  0  0  0  0  3  0  0  0  0  0  0
  -23.2590   -8.6820   21.1070 C   0  0  0  0  0  0  0  0  0  0  0  0
  -23.0090   -9.5880   20.0600 C   0  0  0  0  0  3  0  0  0  0  0  0
  -23.8550  -10.6900   19.8500 C   0  0  0  0  0  3  0  0  0  0  0  0
  -22.3990   -7.6180   21.2200 O   0  0  0  0  0  0  0  0  0  0  0  0
  -22.0360   -7.1110   22.4420 C   0  0  0  0  0  0  0  0  0  0  0  0
  -21.3920   -7.9060   23.4180 C   0  0  0  0  0  3  0  0  0  0  0  0
  -20.9740   -7.3270   24.6320 C   0  0  0  0  0  3  0  0  0  0  0  0
  -21.1910   -5.9560   24.8710 C   0  0  0  0  0  0  0  0  0  0  0  0
  -21.8290   -5.1640   23.9020 C   0  0  0  0  0  3  0  0  0  0  0  0
  -22.2480   -5.7400   22.6890 C   0  0  0  0  0  0  0  0  0  0  0  0
  -22.8420   -4.9680   21.7480 F   0  0  0  0  0  0  0  0  0  0  0  0
  -20.7820   -5.3970   26.0350 F   0  0  0  0  0  0  0  0  0  0  0  0
  -24.2370  -14.1120   21.0020 C   0  0  0  0  0  0  0  0  0  0  0  0
  -23.5390  -13.5000   21.9510 N   0  0  0  0  0  0  0  0  0  0  0  0
  -23.8580  -15.1810   20.5280 O   0  0  0  0  0  0  0  0  0  0  0  0
  -23.8580  -12.6340   22.3620 H   0  0  0  0  0  0  0  0  0  0  0  0
  -22.6670  -13.8980   22.2710 H   0  0  0  0  0  0  0  0  0  0  0  0
  -26.9600  -15.4800   19.9620 N   0  0  0  0  0  0  0  0  0  0  0  0
  -26.2850  -16.2120   20.1590 H   0  0  0  0  0  0  0  0  0  0  0  0
  -27.7800  -15.8130   19.4720 H   0  0  0  0  0  0  0  0  0  0  0  0
  -27.2430  -24.3900   17.1390 C   0  0  0  0  0  1  0  0  0  0  0  0
  -28.3130  -23.9820   18.0910 N   0  0  1  0  0  4  0  0  0  0  0  0
  -29.1490  -23.9480   17.5210 H   0  0  0  0  0  0  0  0  0  0  0  0
  -28.5620  -24.9890   19.1760 C   0  0  0  0  0  2  0  0  0  0  0  0
  -29.0230  -26.3920   18.7190 C   0  0  0  0  0  2  0  0  0  0  0  0
  -28.7360  -27.3640   19.7290 O   0  0  0  0  0  0  0  0  0  0  0  0
  -24.5350  -31.8600   23.2880 C   0  0  0  0  0  0  0  0  0  0  0  0
  -27.4660  -27.9070   19.8190 C   0  0  0  0  0  0  0  0  0  0  0  0
  -23.4010  -30.4580   21.5950 C   0  0  0  0  0  3  0  0  0  0  0  0
  -24.9330  -29.1530   20.0350 C   0  0  0  0  0  0  0  0  0  0  0  0
  -25.8720  -31.0620   21.3440 C   0  0  0  0  0  2  0  0  0  0  0  0
  -26.0570  -29.7460   20.6190 C   0  0  0  0  0  0  0  0  0  0  0  0
  -27.3200  -29.1240   20.5220 C   0  0  0  0  0  3  0  0  0  0  0  0
  -26.3160  -27.3220   19.2350 C   0  0  0  0  0  3  0  0  0  0  0  0
  -25.0550  -27.9340   19.3500 C   0  0  0  0  0  3  0  0  0  0  0  0
  -23.6180  -29.8860   20.1700 C   0  0  0  0  0  2  0  0  0  0  0  0
  -24.6210  -31.1390   22.1350 N   0  0  0  0  0  0  0  0  0  0  0  0
  -23.4550  -31.9960   23.8780 O   0  0  0  0  0  0  0  0  0  0  0  0
  -22.8790  -29.3230   22.5050 C   0  0  0  0  0  0  0  0  0  0  0  0
  -21.6230  -28.9050   22.2820 N   0  0  0  0  0  0  0  0  0  0  0  0
  -23.6050  -28.8200   23.3680 O   0  0  0  0  0  0  0  0  0  0  0  0
  -21.0860  -29.3740   21.5660 H   0  0  0  0  0  0  0  0  0  0  0  0
  -18.5580  -27.0010   22.4150 C   0  0  0  0  0  0  0  0  0  0  0  0
  -20.9370  -27.8270   22.9930 C   0  0  0  0  0  3  0  0  0  0  0  0
  -21.4280  -26.4440   22.5080 C   0  0  0  0  0  2  0  0  0  0  0  0
  -20.5690  -25.8620   21.3810 C   0  0  0  0  0  2  0  0  0  0  0  0
  -19.1150  -25.7100   21.8370 C   0  0  0  0  0  2  0  0  0  0  0  0
  -19.4150  -28.0010   22.9440 C   0  0  0  0  0  0  0  0  0  0  0  0
  -18.8510  -29.1980   23.4370 C   0  0  0  0  0  3  0  0  0  0  0  0
  -17.4580  -29.4010   23.4100 C   0  0  0  0  0  3  0  0  0  0  0  0
  -16.6130  -28.4000   22.9020 C   0  0  0  0  0  3  0  0  0  0  0  0
  -17.1620  -27.2020   22.4090 C   0  0  0  0  0  3  0  0  0  0  0  0
  -25.7820  -32.5660   23.9070 C   0  0  0  0  0  3  0  0  0  0  0  0
  -26.3340  -31.8390   25.1930 C   0  0  1  0  0  0  0  0  0  0  0  0
  -25.2460  -31.5260   26.2450 C   0  0  0  0  0  1  0  0  0  0  0  0
  -27.0210  -30.5060   24.8130 C   0  0  0  0  0  1  0  0  0  0  0  0
  -27.4150  -32.7170   25.8690 C   0  0  0  0  0  1  0  0  0  0  0  0
  -25.3990  -33.9500   24.2170 N   0  0  0  0  0  0  0  0  0  0  0  0
  -25.6870  -35.0090   23.4480 C   0  0  0  0  0  0  0  0  0  0  0  0
  -26.3750  -34.9280   22.4270 O   0  0  0  0  0  0  0  0  0  0  0  0
  -24.7880  -34.0880   25.0100 H   0  0  0  0  0  0  0  0  0  0  0  0
  -23.8840  -36.7120   23.0330 C   0  0  0  0  0  1  0  0  0  0  0  0
  -25.1220  -36.3750   23.8790 C   0  0  0  0  0  3  0  0  0  0  0  0
  -27.1870  -37.3710   24.7600 C   0  0  0  0  0  1  0  0  0  0  0  0
  -26.1050  -37.4770   23.7830 N   0  0  0  0  0  0  0  0  0  0  0  0
  -25.6510  -38.3770   23.9120 H   0  0  0  0  0  0  0  0  0  0  0  0
  1  3  1  0
  2  4  1  0
  3  7  1  0
  4 13  1  0
  4  7  1  0
  5 54  1  0
  5  2  1  0
  5  1  1  0
  7  6  1  0
  7  8  1  1
  9 10  2  0
  9 11  1  0
 10 13  1  0
 11 14  2  0
 13 12  2  0
 14 12  1  0
 14 23  1  0
 15 21  1  0
 15 23  1  0
 16 21  1  0
 17 18  1  0
 17 16  1  0
 19 18  1  0
 19 28  1  0
 19 20  1  0
 21 20  1  0
 22 15  2  0
 23 24  1  0
 25 26  2  0
 26 45  1  0
 27 26  1  0
 27 30  1  0
 28 29  1  0
 28 25  1  0
 29 27  2  0
 30 31  1  0
 31 32  2  0
 33 36  1  0
 33 32  1  0
 34 33  2  0
 35 34  1  0
 35 30  2  0
 36 37  1  0
 37 42  2  0
 37 38  1  0
 38 39  2  0
 39 40  1  0
 40 44  1  0
 41 40  2  0
 42 41  1  0
 43 42  1  0
 45 46  1  0
 46 49  1  0
 46 48  1  0
 47 45  2  0
 50 25  1  0
 50 51  1  0
 52 50  1  0
 53 54  1  0
 54 56  1  0
 54 55  1  6
 57 56  1  0
 57 58  1  0
 58 60  1  0
 59 70  2  0
 60 65  1  0
 61 69  1  0
 61 71  1  0
 62 68  1  0
 62 64  1  0
 63 69  1  0
 64 63  1  0
 65 64  2  0
 66 67  1  0
 66 60  2  0
 67 62  2  0
 68 61  1  0
 69 59  1  0
 71 73  2  0
 72 71  1  0
 74 72  1  0
 75 80  1  0
 76 72  1  0
 77 76  1  0
 78 79  1  0
 78 77  1  0
 79 75  1  0
 80 76  1  0
 80 81  2  0
 82 81  1  0
 83 82  2  0
 84 75  2  0
 84 83  1  0
 85 59  1  0
 85 90  1  0
 85 86  1  0
 86 89  1  1
 86 87  1  0
 88 86  1  0
 90 93  1  0
 91 95  1  0
 91 90  1  0
 92 91  2  0
 95 94  1  0
 97 95  1  0
 97 98  1  0
 97 96  1  0
M  ISO  4  15 100  23 100  57 101  58 101
M  END
>  <TORSDO>  (22) 
F 20

>  <SCORE>  (22) 
-10.308

>  <name>  (22) 
21

>  <ligand_id>  (22) 
21

>  <original_smiles>  (22) 
[H]c1c([H])c([H])c2c(c1[H])C([H])([H])C([H])([H])C([H])([H])C2([H])N([H])C(=O)C1([H])N(C(=O)C([H])(N([H])C(=O)C([H])(N([H])C([H])([H])[H])C([H])([H])[H])C(C([H])([H])[H])(C([H])([H])[H])C([H])([H])[H])C([H])([H])c2c([H])c(OC([H])([H])C([H])([H])[N+]([H])(C([H])([H])[H])C3([H])C([H])([H])C([H])([H])[N+]([H])(C([H])([H])[H])C([H])(c4c([H])c([H])c([H])c(N([H])C(=O)N5C([H])([H])C([H])([H])C([H])([H])C([H])(n6nc(-c7c([H])c([H])c(Oc8c([H])c([H])c(F)c([H])c8F)c([H])c7[H])c(C(=O)N([H])[H])c6N([H])[H])C5([H])[H])c4[H])C3([H])[H])c([H])c([H])c2C1([H])[H]

>  <smiles>  (22) 
[H]c1c([H])c([H])c2c(c1[H])C([H])([H])C([H])([H])C([H])([H])C2([H])N([H])C(=O)C1([H])N(C(=O)C([H])(N([H])C(=O)C([H])(N([H])C([H])([H])[H])C([H])([H])[H])C(C([H])([H])[H])(C([H])([H])[H])C([H])([H])[H])C([H])([H])c2c([H])c(OC([H])([H])C([H])([H])[N+]([H])(C([H])([H])[H])C3([H])C([H])([H])C([H])([H])[N+]([H])(C([H])([H])[H])C([H])(c4c([H])c([H])c([H])c(N([H])C(=O)N5C([H])([H])C([H])([H])C([H])([H])C([H])(n6nc(-c7c([H])c([H])c(Oc8c([H])c([H])c(F)c([H])c8F)c([H])c7[H])c(C(=O)N([H])[H])c6N([H])[H])C5([H])[H])c4[H])C3([H])[H])c([H])c([H])c2C1([H])[H]

$$$$
22:0:0
     RDKit          3D

 94102  0  0  1  0  0  0  0  0999 V2000
  -27.4610  -22.0800   19.2290 C   0  0  0  0  0  1  0  0  0  0  0  0
  -28.8670  -22.3150   19.8240 C   0  0  0  0  0  3  0  0  0  0  0  0
  -29.2170  -21.0280   20.7140 C   0  0  0  0  0  0  0  0  0  0  0  0
  -29.8300  -17.8830   18.6750 C   0  0  0  0  0  2  0  0  0  0  0  0
  -29.7050  -19.4270   18.7880 C   0  0  0  0  0  2  0  0  0  0  0  0
  -29.6390  -18.4810   20.9700 C   0  0  0  0  0  2  0  0  0  0  0  0
  -30.2650  -17.3520   20.0480 C   0  0  0  0  0  3  0  0  0  0  0  0
  -29.4850  -19.7640   20.1950 N   0  0  0  0  0  0  0  0  0  0  0  0
  -29.2010  -21.1890   21.9360 O   0  0  0  0  0  0  0  0  0  0  0  0
  -30.6440  -14.7620   19.9910 C   0  0  0  0  0  0  0  0  0  0  0  0
  -30.3690  -12.4960   18.9930 C   0  0  0  0  0  2  0  0  0  0  0  0
  -29.3690  -12.5810   17.8170 C   0  0  0  0  0  2  0  0  0  0  0  0
  -27.9220  -12.4170   18.3230 C   0  0  0  0  0  2  0  0  0  0  0  0
  -27.6170  -13.3090   19.5570 C   0  0  0  0  0  3  0  0  0  0  0  0
  -28.7320  -13.2120   20.6220 C   0  0  0  0  0  2  0  0  0  0  0  0
  -30.0010  -13.5480   19.9660 N   0  0  0  0  0  0  0  0  0  0  0  0
  -31.7960  -14.8630   19.5640 O   0  0  0  0  0  0  0  0  0  0  0  0
  -29.9040  -15.8910   20.2880 N   0  0  0  0  0  0  0  0  0  0  0  0
  -28.9650  -15.7120   20.6120 H   0  0  0  0  0  0  0  0  0  0  0  0
  -25.2840  -13.9170   20.4370 C   0  0  0  0  0  0  0  0  0  0  0  0
  -24.2300  -13.1490   20.8480 C   0  0  0  0  0  0  0  0  0  0  0  0
  -24.6690  -11.7920   20.7570 C   0  0  0  0  0  0  0  0  0  0  0  0
  -26.2990  -13.0290   20.1170 N   0  0  0  0  0  0  0  0  0  0  0  0
  -25.9390  -11.7450   20.3720 N   0  0  0  0  0  0  0  0  0  0  0  0
  -23.9360  -10.5350   20.9550 C   0  0  0  0  0  0  0  0  0  0  0  0
  -24.3870   -9.5520   21.8640 C   0  0  0  0  0  3  0  0  0  0  0  0
  -23.6540   -8.3610   22.0530 C   0  0  0  0  0  3  0  0  0  0  0  0
  -22.4550   -8.1440   21.3330 C   0  0  0  0  0  0  0  0  0  0  0  0
  -22.0220   -9.1150   20.4130 C   0  0  0  0  0  3  0  0  0  0  0  0
  -22.7560  -10.2980   20.2220 C   0  0  0  0  0  3  0  0  0  0  0  0
  -21.6910   -7.0050   21.4320 O   0  0  0  0  0  0  0  0  0  0  0  0
  -21.6430   -6.2690   22.5890 C   0  0  0  0  0  0  0  0  0  0  0  0
  -21.1990   -6.8240   23.8080 C   0  0  0  0  0  3  0  0  0  0  0  0
  -21.1000   -6.0130   24.9570 C   0  0  0  0  0  3  0  0  0  0  0  0
  -21.4340   -4.6480   24.8870 C   0  0  0  0  0  0  0  0  0  0  0  0
  -21.8710   -4.0920   23.6700 C   0  0  0  0  0  3  0  0  0  0  0  0
  -21.9730   -4.9000   22.5250 C   0  0  0  0  0  0  0  0  0  0  0  0
  -22.3730   -4.3550   21.3510 F   0  0  0  0  0  0  0  0  0  0  0  0
  -21.3320   -3.8670   25.9860 F   0  0  0  0  0  0  0  0  0  0  0  0
  -22.8570  -13.6370   21.2110 C   0  0  0  0  0  0  0  0  0  0  0  0
  -22.1690  -12.9290   22.1000 N   0  0  0  0  0  0  0  0  0  0  0  0
  -22.4070  -14.6810   20.7420 O   0  0  0  0  0  0  0  0  0  0  0  0
  -22.5480  -12.0850   22.5030 H   0  0  0  0  0  0  0  0  0  0  0  0
  -21.2500  -13.2390   22.3830 H   0  0  0  0  0  0  0  0  0  0  0  0
  -25.4600  -15.2900   20.2840 N   0  0  0  0  0  0  0  0  0  0  0  0
  -24.7130  -15.9520   20.4600 H   0  0  0  0  0  0  0  0  0  0  0  0
  -26.2870  -15.7230   19.8960 H   0  0  0  0  0  0  0  0  0  0  0  0
  -28.9280  -23.8070   20.5010 C   0  0  0  0  0  3  0  0  0  0  0  0
  -30.3080  -24.1640   20.9000 N   0  0  0  0  0  4  0  0  0  0  0  0
  -30.9330  -24.1850   20.1130 H   0  0  0  0  0  0  0  0  0  0  0  0
  -30.6670  -23.5220   21.5850 H   0  0  0  0  0  0  0  0  0  0  0  0
  -30.3100  -25.0820   21.3140 H   0  0  0  0  0  0  0  0  0  0  0  0
  -28.2820  -25.0490   19.6970 C   0  0  0  0  0  2  0  0  0  0  0  0
  -28.3380  -26.4620   20.2080 O   0  0  0  0  0  0  0  0  0  0  0  0
  -24.5990  -31.8930   23.2130 C   0  0  0  0  0  0  0  0  0  0  0  0
  -27.2250  -27.3330   20.1210 C   0  0  0  0  0  0  0  0  0  0  0  0
  -23.4040  -30.5020   21.5630 C   0  0  0  0  0  3  0  0  0  0  0  0
  -24.8620  -28.9740   20.1210 C   0  0  0  0  0  0  0  0  0  0  0  0
  -25.9460  -30.8190   21.3930 C   0  0  0  0  0  2  0  0  0  0  0  0
  -26.0290  -29.4440   20.7330 C   0  0  0  0  0  0  0  0  0  0  0  0
  -27.2090  -28.6330   20.7320 C   0  0  0  0  0  3  0  0  0  0  0  0
  -26.0360  -26.9490   19.4530 C   0  0  0  0  0  3  0  0  0  0  0  0
  -24.8710  -27.7330   19.4720 C   0  0  0  0  0  3  0  0  0  0  0  0
  -23.6230  -29.8440   20.1760 C   0  0  0  0  0  2  0  0  0  0  0  0
  -24.6690  -31.0890   22.1120 N   0  0  0  0  0  0  0  0  0  0  0  0
  -23.5140  -32.1630   23.7480 O   0  0  0  0  0  0  0  0  0  0  0  0
  -22.7440  -29.4730   22.5120 C   0  0  0  0  0  0  0  0  0  0  0  0
  -21.4170  -29.2970   22.3890 N   0  0  0  0  0  0  0  0  0  0  0  0
  -23.4250  -28.8380   23.3210 O   0  0  0  0  0  0  0  0  0  0  0  0
  -20.9260  -29.8620   21.7100 H   0  0  0  0  0  0  0  0  0  0  0  0
  -18.0390  -28.1070   22.8980 C   0  0  0  0  0  0  0  0  0  0  0  0
  -20.6010  -28.3520   23.1530 C   0  0  0  0  0  3  0  0  0  0  0  0
  -20.6920  -26.9280   22.5570 C   0  0  0  0  0  2  0  0  0  0  0  0
  -19.5810  -26.6230   21.5470 C   0  0  0  0  0  2  0  0  0  0  0  0
  -18.2050  -26.7670   22.2030 C   0  0  0  0  0  2  0  0  0  0  0  0
  -19.1640  -28.8590   23.3300 C   0  0  0  0  0  0  0  0  0  0  0  0
  -18.9550  -30.1140   23.9410 C   0  0  0  0  0  3  0  0  0  0  0  0
  -17.6530  -30.6190   24.1240 C   0  0  0  0  0  3  0  0  0  0  0  0
  -16.5430  -29.8630   23.7090 C   0  0  0  0  0  3  0  0  0  0  0  0
  -16.7360  -28.6090   23.1020 C   0  0  0  0  0  3  0  0  0  0  0  0
  -25.8780  -32.5270   23.8400 C   0  0  0  0  0  3  0  0  0  0  0  0
  -26.3950  -31.7510   25.1140 C   0  0  1  0  0  0  0  0  0  0  0  0
  -25.3000  -31.5010   26.1770 C   0  0  0  0  0  1  0  0  0  0  0  0
  -26.9870  -30.3770   24.7180 C   0  0  0  0  0  1  0  0  0  0  0  0
  -27.5390  -32.5480   25.7840 C   0  0  0  0  0  1  0  0  0  0  0  0
  -25.5610  -33.9220   24.1800 N   0  0  0  0  0  0  0  0  0  0  0  0
  -25.8750  -34.9800   23.4210 C   0  0  0  0  0  0  0  0  0  0  0  0
  -26.5310  -34.8860   22.3790 O   0  0  0  0  0  0  0  0  0  0  0  0
  -24.9760  -34.0680   24.9900 H   0  0  0  0  0  0  0  0  0  0  0  0
  -24.1260  -36.7610   23.1000 C   0  0  0  0  0  1  0  0  0  0  0  0
  -25.3840  -36.3630   23.8910 C   0  0  0  0  0  3  0  0  0  0  0  0
  -27.5210  -37.2670   24.6940 C   0  0  0  0  0  1  0  0  0  0  0  0
  -26.4050  -37.4250   23.7660 N   0  0  0  0  0  0  0  0  0  0  0  0
  -25.9930  -38.3420   23.9210 H   0  0  0  0  0  0  0  0  0  0  0  0
  2  1  1  0
  2 48  1  0
  2  3  1  0
  3  9  2  0
  4  5  1  0
  4  7  1  0
  5  8  1  0
  7 18  1  0
  7  6  1  0
  8  3  1  0
  8  6  1  0
 10 18  1  0
 11 16  1  0
 12 13  1  0
 12 11  1  0
 14 13  1  0
 14 23  1  0
 14 15  1  0
 16 10  1  0
 16 15  1  0
 17 10  2  0
 18 19  1  0
 20 21  2  0
 21 40  1  0
 22 21  1  0
 22 25  1  0
 23 24  1  0
 23 20  1  0
 24 22  2  0
 25 26  1  0
 26 27  2  0
 28 31  1  0
 28 27  1  0
 29 28  2  0
 30 29  1  0
 30 25  2  0
 31 32  1  0
 32 33  1  0
 33 34  2  0
 35 34  1  0
 35 39  1  0
 36 35  2  0
 37 32  2  0
 37 36  1  0
 38 37  1  0
 40 41  1  0
 41 44  1  0
 41 43  1  0
 42 40  2  0
 45 20  1  0
 45 46  1  0
 47 45  1  0
 48 53  1  0
 48 49  1  0
 49 52  1  0
 49 51  1  0
 50 49  1  0
 53 54  1  0
 55 66  2  0
 56 54  1  0
 56 61  1  0
 57 65  1  0
 57 67  1  0
 58 64  1  0
 58 60  1  0
 59 65  1  0
 60 59  1  0
 61 60  2  0
 62 63  1  0
 62 56  2  0
 63 58  2  0
 64 57  1  0
 65 55  1  0
 67 69  2  0
 68 67  1  0
 70 68  1  0
 71 80  2  0
 71 76  1  0
 72 68  1  0
 72 76  1  0
 73 72  1  0
 74 75  1  0
 74 73  1  0
 75 71  1  0
 76 77  2  0
 77 78  1  0
 79 78  2  0
 80 79  1  0
 81 55  1  0
 81 86  1  0
 81 82  1  0
 82 85  1  1
 82 83  1  0
 84 82  1  0
 86 89  1  0
 87 91  1  0
 87 86  1  0
 88 87  2  0
 91 90  1  0
 93 91  1  0
 93 94  1  0
 93 92  1  0
M  ISO  4  10 100  18 100  53 101  54 101
M  END
>  <TORSDO>  (23) 
F 20

>  <SCORE>  (23) 
-14.075

>  <name>  (23) 
22

>  <ligand_id>  (23) 
22

>  <original_smiles>  (23) 
[H]c1c([H])c([H])c2c(c1[H])C([H])([H])C([H])([H])C([H])([H])C2([H])N([H])C(=O)C1([H])N(C(=O)C([H])(N([H])C(=O)C([H])(N([H])C([H])([H])[H])C([H])([H])[H])C(C([H])([H])[H])(C([H])([H])[H])C([H])([H])[H])C([H])([H])c2c([H])c(OC([H])([H])C([H])(C([H])(C(=O)N3C([H])([H])C([H])([H])C([H])(N([H])C(=O)N4C([H])([H])C([H])([H])C([H])([H])C([H])(n5nc(-c6c([H])c([H])c(Oc7c([H])c([H])c(F)c([H])c7F)c([H])c6[H])c(C(=O)N([H])[H])c5N([H])[H])C4([H])[H])C3([H])[H])C([H])([H])[H])[N+]([H])([H])[H])c([H])c([H])c2C1([H])[H]

>  <smiles>  (23) 
[H]c1c([H])c([H])c2c(c1[H])C([H])([H])C([H])([H])C([H])([H])C2([H])N([H])C(=O)C1([H])N(C(=O)C([H])(N([H])C(=O)C([H])(N([H])C([H])([H])[H])C([H])([H])[H])C(C([H])([H])[H])(C([H])([H])[H])C([H])([H])[H])C([H])([H])c2c([H])c(OC([H])([H])C([H])(C([H])(C(=O)N3C([H])([H])C([H])([H])C([H])(N([H])C(=O)N4C([H])([H])C([H])([H])C([H])([H])C([H])(n5nc(-c6c([H])c([H])c(Oc7c([H])c([H])c(F)c([H])c7F)c([H])c6[H])c(C(=O)N([H])[H])c5N([H])[H])C4([H])[H])C3([H])[H])C([H])([H])[H])[N+]([H])([H])[H])c([H])c([H])c2C1([H])[H]

$$$$
23:0:0
     RDKit          3D

 99107  0  0  1  0  0  0  0  0999 V2000
  -29.4510  -22.6110   20.8570 C   0  0  0  0  0  0  0  0  0  0  0  0
  -28.4070  -19.7620   18.6960 C   0  0  0  0  0  2  0  0  0  0  0  0
  -28.0190  -20.9310   19.6180 C   0  0  0  0  0  2  0  0  0  0  0  0
  -29.8160  -20.0670   21.1110 C   0  0  0  0  0  2  0  0  0  0  0  0
  -29.2950  -18.5410   20.8390 C   0  0  0  0  0  3  0  0  0  0  0  0
  -28.5970  -18.4110   19.4370 C   0  0  0  0  0  3  0  0  0  0  0  0
  -29.1260  -21.2960   20.5010 N   0  0  0  0  0  0  0  0  0  0  0  0
  -30.1260  -22.7680   21.8780 O   0  0  0  0  0  0  0  0  0  0  0  0
  -30.9050  -14.9110   21.0040 C   0  0  0  0  0  0  0  0  0  0  0  0
  -30.8110  -12.6410   19.9800 C   0  0  0  0  0  2  0  0  0  0  0  0
  -29.9590  -12.7160   18.6950 C   0  0  0  0  0  2  0  0  0  0  0  0
  -28.4670  -12.5120   19.0240 C   0  0  0  0  0  2  0  0  0  0  0  0
  -27.9940  -13.3780   20.2230 C   0  0  0  0  0  3  0  0  0  0  0  0
  -28.9780  -13.3030   21.4110 C   0  0  0  0  0  2  0  0  0  0  0  0
  -30.3030  -13.6780   20.9040 N   0  0  0  0  0  0  0  0  0  0  0  0
  -32.1170  -15.0000   20.7820 O   0  0  0  0  0  0  0  0  0  0  0  0
  -30.4000  -17.3790   21.0120 C   0  0  0  0  0  0  0  0  0  0  0  0
  -30.0790  -16.0270   21.1040 N   0  0  0  0  0  0  0  0  0  0  0  0
  -31.5750  -17.7550   21.0330 O   0  0  0  0  0  0  0  0  0  0  0  0
  -29.1060  -15.8020   21.2100 H   0  0  0  0  0  0  0  0  0  0  0  0
  -25.5630  -13.9140   20.8200 C   0  0  0  0  0  0  0  0  0  0  0  0
  -24.4820  -13.1160   21.0780 C   0  0  0  0  0  0  0  0  0  0  0  0
  -24.9670  -11.7720   21.0390 C   0  0  0  0  0  0  0  0  0  0  0  0
  -26.6290  -13.0550   20.6230 N   0  0  0  0  0  0  0  0  0  0  0  0
  -26.2760  -11.7600   20.8200 N   0  0  0  0  0  0  0  0  0  0  0  0
  -24.2500  -10.4970   21.1480 C   0  0  0  0  0  0  0  0  0  0  0  0
  -24.6570   -9.4950   22.0570 C   0  0  0  0  0  3  0  0  0  0  0  0
  -23.9400   -8.2840   22.1550 C   0  0  0  0  0  3  0  0  0  0  0  0
  -22.8020   -8.0650   21.3420 C   0  0  0  0  0  0  0  0  0  0  0  0
  -22.4150   -9.0560   20.4230 C   0  0  0  0  0  3  0  0  0  0  0  0
  -23.1340  -10.2590   20.3230 C   0  0  0  0  0  3  0  0  0  0  0  0
  -22.0600   -6.9080   21.3490 O   0  0  0  0  0  0  0  0  0  0  0  0
  -21.9450   -6.1330   22.4740 C   0  0  0  0  0  0  0  0  0  0  0  0
  -21.3880   -6.6350   23.6720 C   0  0  0  0  0  3  0  0  0  0  0  0
  -21.2260   -5.7840   24.7830 C   0  0  0  0  0  3  0  0  0  0  0  0
  -21.6080   -4.4330   24.6980 C   0  0  0  0  0  0  0  0  0  0  0  0
  -22.1580   -3.9300   23.5050 C   0  0  0  0  0  3  0  0  0  0  0  0
  -22.3230   -4.7780   22.3950 C   0  0  0  0  0  0  0  0  0  0  0  0
  -22.8330   -4.2840   21.2420 F   0  0  0  0  0  0  0  0  0  0  0  0
  -21.4460   -3.6120   25.7620 F   0  0  0  0  0  0  0  0  0  0  0  0
  -23.0650  -13.5690   21.2760 C   0  0  0  0  0  0  0  0  0  0  0  0
  -22.2950  -12.8420   22.0770 N   0  0  0  0  0  0  0  0  0  0  0  0
  -22.6530  -14.6070   20.7610 O   0  0  0  0  0  0  0  0  0  0  0  0
  -22.6440  -12.0030   22.5160 H   0  0  0  0  0  0  0  0  0  0  0  0
  -21.3420  -13.1250   22.2510 H   0  0  0  0  0  0  0  0  0  0  0  0
  -25.7370  -15.2930   20.7370 N   0  0  0  0  0  0  0  0  0  0  0  0
  -24.8310  -15.7320   20.8650 H   0  0  0  0  0  0  0  0  0  0  0  0
  -26.3200  -15.5670   21.5180 H   0  0  0  0  0  0  0  0  0  0  0  0
  -26.0910  -18.2940   19.7870 C   0  0  0  0  0  1  0  0  0  0  0  0
  -27.1870  -16.7260   18.2500 C   0  0  0  0  0  1  0  0  0  0  0  0
  -27.3470  -17.5720   19.4580 N   0  0  1  0  0  4  0  0  0  0  0  0
  -27.4360  -16.8960   20.1990 H   0  0  0  0  0  0  0  0  0  0  0  0
  -29.1840  -23.9700   20.0260 C   0  0  0  0  0  3  0  0  0  0  0  0
  -28.9350  -23.8010   18.5780 N   0  0  0  0  0  4  0  0  0  0  0  0
  -28.0310  -23.4020   18.3960 H   0  0  0  0  0  0  0  0  0  0  0  0
  -29.6420  -23.2170   18.1670 H   0  0  0  0  0  0  0  0  0  0  0  0
  -28.9800  -24.6960   18.1220 H   0  0  0  0  0  0  0  0  0  0  0  0
  -28.2600  -25.1330   20.6380 C   0  0  0  0  0  2  0  0  0  0  0  0
  -28.4340  -26.5430   20.1520 O   0  0  0  0  0  0  0  0  0  0  0  0
  -24.6820  -31.8620   23.3420 C   0  0  0  0  0  0  0  0  0  0  0  0
  -27.3220  -27.4050   20.1530 C   0  0  0  0  0  0  0  0  0  0  0  0
  -23.4980  -30.5310   21.6320 C   0  0  0  0  0  3  0  0  0  0  0  0
  -24.9650  -29.0330   20.1670 C   0  0  0  0  0  0  0  0  0  0  0  0
  -26.0410  -30.8500   21.4930 C   0  0  0  0  0  2  0  0  0  0  0  0
  -26.1280  -29.4950   20.7970 C   0  0  0  0  0  0  0  0  0  0  0  0
  -27.3130  -28.6950   20.7760 C   0  0  0  0  0  3  0  0  0  0  0  0
  -26.1400  -27.0060   19.4910 C   0  0  0  0  0  3  0  0  0  0  0  0
  -24.9750  -27.7960   19.5030 C   0  0  0  0  0  3  0  0  0  0  0  0
  -23.7300  -29.9090   20.2310 C   0  0  0  0  0  2  0  0  0  0  0  0
  -24.7590  -31.0960   22.2140 N   0  0  0  0  0  0  0  0  0  0  0  0
  -23.5920  -32.1210   23.8720 O   0  0  0  0  0  0  0  0  0  0  0  0
  -22.8200  -29.4800   22.5430 C   0  0  0  0  0  0  0  0  0  0  0  0
  -21.4950  -29.3110   22.3930 N   0  0  0  0  0  0  0  0  0  0  0  0
  -23.4870  -28.8190   23.3450 O   0  0  0  0  0  0  0  0  0  0  0  0
  -21.0170  -29.8960   21.7220 H   0  0  0  0  0  0  0  0  0  0  0  0
  -18.1050  -28.1270   22.8250 C   0  0  0  0  0  0  0  0  0  0  0  0
  -20.6650  -28.3470   23.1160 C   0  0  0  0  0  3  0  0  0  0  0  0
  -20.7540  -26.9430   22.4730 C   0  0  0  0  0  2  0  0  0  0  0  0
  -19.6530  -26.6800   21.4410 C   0  0  0  0  0  2  0  0  0  0  0  0
  -18.2700  -26.8100   22.0860 C   0  0  0  0  0  2  0  0  0  0  0  0
  -19.2300  -28.8560   23.2950 C   0  0  0  0  0  0  0  0  0  0  0  0
  -19.0210  -30.0910   23.9460 C   0  0  0  0  0  3  0  0  0  0  0  0
  -17.7210  -30.5970   24.1310 C   0  0  0  0  0  3  0  0  0  0  0  0
  -16.6100  -29.8640   23.6770 C   0  0  0  0  0  3  0  0  0  0  0  0
  -16.8030  -28.6310   23.0300 C   0  0  0  0  0  3  0  0  0  0  0  0
  -25.9570  -32.4670   24.0040 C   0  0  0  0  0  3  0  0  0  0  0  0
  -26.4250  -31.6750   25.2880 C   0  0  1  0  0  0  0  0  0  0  0  0
  -25.3010  -31.4570   26.3270 C   0  0  0  0  0  1  0  0  0  0  0  0
  -26.9850  -30.2870   24.9000 C   0  0  0  0  0  1  0  0  0  0  0  0
  -27.5770  -32.4380   25.9830 C   0  0  0  0  0  1  0  0  0  0  0  0
  -25.6610  -33.8670   24.3410 N   0  0  0  0  0  0  0  0  0  0  0  0
  -26.0510  -34.9240   23.6140 C   0  0  0  0  0  0  0  0  0  0  0  0
  -26.7650  -34.8200   22.6130 O   0  0  0  0  0  0  0  0  0  0  0  0
  -25.0310  -34.0230   25.1140 H   0  0  0  0  0  0  0  0  0  0  0  0
  -24.3910  -36.7680   23.1980 C   0  0  0  0  0  1  0  0  0  0  0  0
  -25.5730  -36.3160   24.0700 C   0  0  0  0  0  3  0  0  0  0  0  0
  -27.6720  -37.1350   25.0460 C   0  0  0  0  0  1  0  0  0  0  0  0
  -26.6360  -37.3430   24.0370 N   0  0  0  0  0  0  0  0  0  0  0  0
  -26.2440  -38.2720   24.1710 H   0  0  0  0  0  0  0  0  0  0  0  0
  1  8  2  0
  2  6  1  0
  2  3  1  0
  3  7  1  0
  5 17  1  0
  5  4  1  0
  6 51  1  0
  6  5  1  0
  7  1  1  0
  7  4  1  0
  9 18  1  0
 10 15  1  0
 11 12  1  0
 11 10  1  0
 13 12  1  0
 13 24  1  0
 13 14  1  0
 15  9  1  0
 15 14  1  0
 16  9  2  0
 17 19  2  0
 17 18  1  0
 18 20  1  0
 21 22  2  0
 22 41  1  0
 23 22  1  0
 23 26  1  0
 24 25  1  0
 24 21  1  0
 25 23  2  0
 26 27  1  0
 27 28  2  0
 29 32  1  0
 29 28  1  0
 30 29  2  0
 31 30  1  0
 31 26  2  0
 32 33  1  0
 33 34  1  0
 34 35  2  0
 36 35  1  0
 36 40  1  0
 37 36  2  0
 38 33  2  0
 38 37  1  0
 39 38  1  0
 41 42  1  0
 42 45  1  0
 42 44  1  0
 43 41  2  0
 46 21  1  0
 46 47  1  0
 46 48  1  0
 50 51  1  0
 51 49  1  0
 51 52  1  1
 53 58  1  0
 53  1  1  0
 54 53  1  0
 55 54  1  0
 56 54  1  0
 57 54  1  0
 59 61  1  0
 59 58  1  0
 60 71  2  0
 61 66  1  0
 62 70  1  0
 62 72  1  0
 63 69  1  0
 63 65  1  0
 64 70  1  0
 65 64  1  0
 66 65  2  0
 67 68  1  0
 67 61  2  0
 68 63  2  0
 69 62  1  0
 70 60  1  0
 72 74  2  0
 73 72  1  0
 75 73  1  0
 76 85  2  0
 76 81  1  0
 77 73  1  0
 77 81  1  0
 78 77  1  0
 79 80  1  0
 79 78  1  0
 80 76  1  0
 81 82  2  0
 82 83  1  0
 84 83  2  0
 85 84  1  0
 86 60  1  0
 86 91  1  0
 86 87  1  0
 87 90  1  1
 87 88  1  0
 89 87  1  0
 91 94  1  0
 92 96  1  0
 92 91  1  0
 93 92  2  0
 96 95  1  0
 98 96  1  0
 98 99  1  0
 98 97  1  0
M  ISO  4   9 100  18 100  58 101  59 101
M  END
>  <TORSDO>  (24) 
F 20

>  <SCORE>  (24) 
-12.347

>  <name>  (24) 
23

>  <ligand_id>  (24) 
23

>  <original_smiles>  (24) 
[H]c1c([H])c([H])c2c(c1[H])C([H])([H])C([H])([H])C([H])([H])C2([H])N([H])C(=O)C1([H])N(C(=O)C([H])(N([H])C(=O)C([H])(N([H])C([H])([H])[H])C([H])([H])[H])C(C([H])([H])[H])(C([H])([H])[H])C([H])([H])[H])C([H])([H])c2c([H])c(OC([H])([H])C([H])(C(=O)N3C([H])([H])C([H])([H])C([H])([N+]([H])(C([H])([H])[H])C([H])([H])[H])C([H])(C(=O)N([H])C(=O)N4C([H])([H])C([H])([H])C([H])([H])C([H])(n5nc(-c6c([H])c([H])c(Oc7c([H])c([H])c(F)c([H])c7F)c([H])c6[H])c(C(=O)N([H])[H])c5N([H])[H])C4([H])[H])C3([H])[H])[N+]([H])([H])[H])c([H])c([H])c2C1([H])[H]

>  <smiles>  (24) 
[H]c1c([H])c([H])c2c(c1[H])C([H])([H])C([H])([H])C([H])([H])C2([H])N([H])C(=O)C1([H])N(C(=O)C([H])(N([H])C(=O)C([H])(N([H])C([H])([H])[H])C([H])([H])[H])C(C([H])([H])[H])(C([H])([H])[H])C([H])([H])[H])C([H])([H])c2c([H])c(OC([H])([H])C([H])(C(=O)N3C([H])([H])C([H])([H])C([H])([N+]([H])(C([H])([H])[H])C([H])([H])[H])C([H])(C(=O)N([H])C(=O)N4C([H])([H])C([H])([H])C([H])([H])C([H])(n5nc(-c6c([H])c([H])c(Oc7c([H])c([H])c(F)c([H])c7F)c([H])c6[H])c(C(=O)N([H])[H])c5N([H])[H])C4([H])[H])C3([H])[H])[N+]([H])([H])[H])c([H])c([H])c2C1([H])[H]

$$$$
24:0:0
     RDKit          3D

 96104  0  0  1  0  0  0  0  0999 V2000
  -27.9050  -22.5770   20.6740 C   0  0  0  0  0  3  0  0  0  0  0  0
  -27.7560  -22.7130   21.9960 F   0  0  0  0  0  0  0  0  0  0  0  0
  -29.1690  -21.6990   20.4000 C   0  0  0  0  0  0  0  0  0  0  0  0
  -28.9600  -20.4090   20.0110 N   0  0  0  0  0  0  0  0  0  0  0  0
  -30.2900  -22.1180   20.6960 O   0  0  0  0  0  0  0  0  0  0  0  0
  -28.0510  -20.2600   19.5910 H   0  0  0  0  0  0  0  0  0  0  0  0
  -29.4740  -19.2020   20.7180 C   0  0  0  0  0  2  0  0  0  0  0  0
  -29.5810  -17.8350   19.9240 C   0  0  0  0  0  2  0  0  0  0  0  0
  -30.6740  -14.5640   19.4980 C   0  0  0  0  0  0  0  0  0  0  0  0
  -30.2670  -12.3540   18.4340 C   0  0  0  0  0  2  0  0  0  0  0  0
  -29.1420  -12.4430   17.3850 C   0  0  0  0  0  2  0  0  0  0  0  0
  -27.7670  -12.2480   18.0470 C   0  0  0  0  0  2  0  0  0  0  0  0
  -27.5850  -13.1200   19.3180 C   0  0  0  0  0  3  0  0  0  0  0  0
  -28.8090  -13.0140   20.2570 C   0  0  0  0  0  2  0  0  0  0  0  0
  -30.0100  -13.3620   19.4830 N   0  0  0  0  0  0  0  0  0  0  0  0
  -31.6090  -14.7890   18.7240 O   0  0  0  0  0  0  0  0  0  0  0  0
  -30.9530  -16.5300   22.6000 C   0  0  0  0  0  2  0  0  0  0  0  0
  -29.4720  -16.6400   22.2740 C   0  0  0  0  0  2  0  0  0  0  0  0
  -31.4810  -15.5420   21.5590 C   0  0  0  0  0  2  0  0  0  0  0  0
  -29.4050  -16.4750   20.7430 C   0  0  0  0  0  3  0  0  0  0  0  0
  -30.4450  -15.4170   20.5340 N   0  0  0  0  0  0  0  0  0  0  0  0
  -25.3600  -13.6560   20.4910 C   0  0  0  0  0  0  0  0  0  0  0  0
  -24.3630  -12.8530   20.9770 C   0  0  0  0  0  0  0  0  0  0  0  0
  -24.7940  -11.5080   20.7520 C   0  0  0  0  0  0  0  0  0  0  0  0
  -26.3360  -12.7980   20.0060 N   0  0  0  0  0  0  0  0  0  0  0  0
  -26.0080  -11.4980   20.2180 N   0  0  0  0  0  0  0  0  0  0  0  0
  -24.0940  -10.2340   20.9630 C   0  0  0  0  0  0  0  0  0  0  0  0
  -24.5450   -9.2920   21.9120 C   0  0  0  0  0  3  0  0  0  0  0  0
  -23.8450   -8.0830   22.1110 C   0  0  0  0  0  3  0  0  0  0  0  0
  -22.6790   -7.8080   21.3600 C   0  0  0  0  0  0  0  0  0  0  0  0
  -22.2460   -8.7390   20.4000 C   0  0  0  0  0  3  0  0  0  0  0  0
  -22.9470   -9.9380   20.1990 C   0  0  0  0  0  3  0  0  0  0  0  0
  -21.9490   -6.6490   21.4650 O   0  0  0  0  0  0  0  0  0  0  0  0
  -21.7850   -6.0120   22.6690 C   0  0  0  0  0  0  0  0  0  0  0  0
  -21.2020   -6.6560   23.7820 C   0  0  0  0  0  3  0  0  0  0  0  0
  -20.9850   -5.9400   24.9760 C   0  0  0  0  0  3  0  0  0  0  0  0
  -21.3460   -4.5820   25.0580 C   0  0  0  0  0  0  0  0  0  0  0  0
  -21.9220   -3.9380   23.9490 C   0  0  0  0  0  3  0  0  0  0  0  0
  -22.1380   -4.6500   22.7570 C   0  0  0  0  0  0  0  0  0  0  0  0
  -22.6740   -4.0180   21.6850 F   0  0  0  0  0  0  0  0  0  0  0  0
  -21.1310   -3.8910   26.2020 F   0  0  0  0  0  0  0  0  0  0  0  0
  -23.0440  -13.3070   21.5310 C   0  0  0  0  0  0  0  0  0  0  0  0
  -22.4940  -12.5710   22.4890 N   0  0  0  0  0  0  0  0  0  0  0  0
  -22.5140  -14.3500   21.1480 O   0  0  0  0  0  0  0  0  0  0  0  0
  -22.9360  -11.7240   22.8150 H   0  0  0  0  0  0  0  0  0  0  0  0
  -21.6190  -12.8600   22.9010 H   0  0  0  0  0  0  0  0  0  0  0  0
  -25.5100  -15.0380   20.4040 N   0  0  0  0  0  0  0  0  0  0  0  0
  -24.7930  -15.6760   20.7310 H   0  0  0  0  0  0  0  0  0  0  0  0
  -26.2930  -15.5090   19.9690 H   0  0  0  0  0  0  0  0  0  0  0  0
  -27.6090  -23.9810   20.0000 C   0  0  0  0  0  3  0  0  0  0  0  0
  -26.1320  -24.0680   19.9840 N   0  0  0  0  0  4  0  0  0  0  0  0
  -25.7600  -23.8070   20.8850 H   0  0  0  0  0  0  0  0  0  0  0  0
  -25.7300  -23.4630   19.2870 H   0  0  0  0  0  0  0  0  0  0  0  0
  -25.8370  -25.0100   19.7900 H   0  0  0  0  0  0  0  0  0  0  0  0
  -28.2010  -25.2940   20.6640 C   0  0  0  0  0  2  0  0  0  0  0  0
  -28.2350  -26.5510   19.8900 O   0  0  0  0  0  0  0  0  0  0  0  0
  -24.5560  -31.7990   23.1760 C   0  0  0  0  0  0  0  0  0  0  0  0
  -27.1240  -27.3860   19.9290 C   0  0  0  0  0  0  0  0  0  0  0  0
  -23.3280  -30.4600   21.5010 C   0  0  0  0  0  3  0  0  0  0  0  0
  -24.7620  -28.9680   20.0060 C   0  0  0  0  0  0  0  0  0  0  0  0
  -25.8610  -30.7850   21.3080 C   0  0  0  0  0  2  0  0  0  0  0  0
  -25.9280  -29.4270   20.6310 C   0  0  0  0  0  0  0  0  0  0  0  0
  -27.1110  -28.6360   20.6080 C   0  0  0  0  0  3  0  0  0  0  0  0
  -25.9730  -27.0260   19.2030 C   0  0  0  0  0  3  0  0  0  0  0  0
  -24.7820  -27.7680   19.2820 C   0  0  0  0  0  3  0  0  0  0  0  0
  -23.5270  -29.8370   20.0940 C   0  0  0  0  0  2  0  0  0  0  0  0
  -24.6000  -31.0300   22.0510 N   0  0  0  0  0  0  0  0  0  0  0  0
  -23.4810  -32.0580   23.7320 O   0  0  0  0  0  0  0  0  0  0  0  0
  -22.6830  -29.4060   22.4290 C   0  0  0  0  0  0  0  0  0  0  0  0
  -21.3620  -29.2070   22.2870 N   0  0  0  0  0  0  0  0  0  0  0  0
  -23.3690  -28.7730   23.2360 O   0  0  0  0  0  0  0  0  0  0  0  0
  -20.8660  -29.7750   21.6140 H   0  0  0  0  0  0  0  0  0  0  0  0
  -18.0070  -27.9340   22.7180 C   0  0  0  0  0  0  0  0  0  0  0  0
  -20.5550  -28.2380   23.0300 C   0  0  0  0  0  3  0  0  0  0  0  0
  -20.6940  -26.8190   22.4340 C   0  0  0  0  0  2  0  0  0  0  0  0
  -19.6110  -26.4890   21.3990 C   0  0  0  0  0  2  0  0  0  0  0  0
  -18.2190  -26.6000   22.0250 C   0  0  0  0  0  2  0  0  0  0  0  0
  -19.1030  -28.7120   23.1770 C   0  0  0  0  0  0  0  0  0  0  0  0
  -18.8490  -29.9610   23.7840 C   0  0  0  0  0  3  0  0  0  0  0  0
  -17.5320  -30.4330   23.9380 C   0  0  0  0  0  3  0  0  0  0  0  0
  -16.4500  -29.6530   23.4930 C   0  0  0  0  0  3  0  0  0  0  0  0
  -16.6880  -28.4050   22.8890 C   0  0  0  0  0  3  0  0  0  0  0  0
  -25.8530  -32.4050   23.7990 C   0  0  0  0  0  3  0  0  0  0  0  0
  -25.5580  -33.7970   24.1640 N   0  0  0  0  0  0  0  0  0  0  0  0
  -25.8800  -34.8620   23.4190 C   0  0  0  0  0  0  0  0  0  0  0  0
  -26.5280  -34.7770   22.3710 O   0  0  0  0  0  0  0  0  0  0  0  0
  -24.9890  -33.9400   24.9850 H   0  0  0  0  0  0  0  0  0  0  0  0
  -24.1480  -36.6640   23.1390 C   0  0  0  0  0  1  0  0  0  0  0  0
  -25.4080  -36.2430   23.9130 C   0  0  0  0  0  3  0  0  0  0  0  0
  -27.5600  -37.1120   24.7140 C   0  0  0  0  0  1  0  0  0  0  0  0
  -26.4410  -37.2960   23.7940 N   0  0  0  0  0  0  0  0  0  0  0  0
  -26.0390  -38.2140   23.9650 H   0  0  0  0  0  0  0  0  0  0  0  0
  -26.3770  -31.5990   25.0500 C   0  0  1  0  0  0  0  0  0  0  0  0
  -25.2880  -31.3330   26.1170 C   0  0  0  0  0  1  0  0  0  0  0  0
  -26.9560  -30.2320   24.6180 C   0  0  0  0  0  1  0  0  0  0  0  0
  -27.5320  -32.3730   25.7280 C   0  0  0  0  0  1  0  0  0  0  0  0
  1  2  1  0
  3  1  1  0
  3  5  2  0
  4  3  1  0
  4  7  1  0
  6  4  1  0
  8  7  1  0
  9 21  1  0
 10 15  1  0
 11 12  1  0
 11 10  1  0
 13 12  1  0
 13 25  1  0
 13 14  1  0
 15  9  1  0
 15 14  1  0
 16  9  2  0
 18 17  1  0
 19 17  1  0
 20  8  1  0
 20 18  1  0
 21 20  1  0
 21 19  1  0
 22 23  2  0
 23 42  1  0
 24 27  1  0
 24 23  1  0
 25 26  1  0
 25 22  1  0
 26 24  2  0
 27 28  1  0
 28 29  2  0
 30 33  1  0
 30 29  1  0
 31 30  2  0
 32 31  1  0
 32 27  2  0
 33 34  1  0
 34 39  2  0
 34 35  1  0
 35 36  2  0
 36 37  1  0
 37 41  1  0
 38 37  2  0
 39 38  1  0
 40 39  1  0
 42 43  1  0
 43 45  1  0
 43 46  1  0
 44 42  2  0
 47 22  1  0
 47 48  1  0
 49 47  1  0
 50 55  1  0
 50  1  1  0
 51 50  1  0
 51 52  1  0
 53 51  1  0
 54 51  1  0
 56 58  1  0
 56 55  1  0
 57 68  2  0
 58 63  1  0
 59 67  1  0
 59 69  1  0
 60 66  1  0
 60 62  1  0
 61 67  1  0
 62 61  1  0
 63 62  2  0
 64 65  1  0
 64 58  2  0
 65 60  2  0
 66 59  1  0
 67 57  1  0
 69 71  2  0
 70 69  1  0
 72 70  1  0
 73 82  2  0
 73 78  1  0
 74 70  1  0
 74 78  1  0
 75 74  1  0
 76 77  1  0
 76 75  1  0
 77 73  1  0
 78 79  2  0
 79 80  1  0
 81 80  2  0
 82 81  1  0
 83 57  1  0
 83 84  1  0
 83 93  1  0
 84 87  1  0
 85 89  1  0
 85 84  1  0
 86 85  2  0
 89 88  1  0
 91 89  1  0
 91 92  1  0
 91 90  1  0
 93 96  1  1
 93 94  1  0
 95 93  1  0
M  ISO  4   9 100  21 100  55 101  56 101
M  END
>  <TORSDO>  (25) 
F 22

>  <SCORE>  (25) 
-11.115

>  <name>  (25) 
24

>  <ligand_id>  (25) 
24

>  <original_smiles>  (25) 
[H]c1c([H])c([H])c2c(c1[H])C([H])([H])C([H])([H])C([H])([H])C2([H])N([H])C(=O)C1([H])N(C(=O)C([H])(N([H])C(=O)C([H])(N([H])C([H])([H])[H])C([H])([H])[H])C(C([H])([H])[H])(C([H])([H])[H])C([H])([H])[H])C([H])([H])c2c([H])c(OC([H])([H])C([H])(C([H])(F)C(=O)N([H])C([H])([H])C([H])([H])C3([H])N(C(=O)N4C([H])([H])C([H])([H])C([H])([H])C([H])(n5nc(-c6c([H])c([H])c(Oc7c([H])c([H])c(F)c([H])c7F)c([H])c6[H])c(C(=O)N([H])[H])c5N([H])[H])C4([H])[H])C([H])([H])C([H])([H])C3([H])[H])[N+]([H])([H])[H])c([H])c([H])c2C1([H])[H]

>  <smiles>  (25) 
[H]c1c([H])c([H])c2c(c1[H])C([H])([H])C([H])([H])C([H])([H])C2([H])N([H])C(=O)C1([H])N(C(=O)C([H])(N([H])C(=O)C([H])(N([H])C([H])([H])[H])C([H])([H])[H])C(C([H])([H])[H])(C([H])([H])[H])C([H])([H])[H])C([H])([H])c2c([H])c(OC([H])([H])C([H])(C([H])(F)C(=O)N([H])C([H])([H])C([H])([H])C3([H])N(C(=O)N4C([H])([H])C([H])([H])C([H])([H])C([H])(n5nc(-c6c([H])c([H])c(Oc7c([H])c([H])c(F)c([H])c7F)c([H])c6[H])c(C(=O)N([H])[H])c5N([H])[H])C4([H])[H])C([H])([H])C([H])([H])C3([H])[H])[N+]([H])([H])[H])c([H])c([H])c2C1([H])[H]

$$$$
25:0:0
     RDKit          3D

 97106  0  0  1  0  0  0  0  0999 V2000
  -30.2190  -20.7550   21.1940 C   0  0  0  0  0  2  0  0  0  0  0  0
  -29.2300  -19.5660   19.1090 C   0  0  0  0  0  3  0  0  0  0  0  0
  -30.2020  -18.2260   20.9030 C   0  0  0  0  0  3  0  0  0  0  0  0
  -29.2170  -17.1270   18.9660 C   0  0  0  0  0  3  0  0  0  0  0  0
  -29.8850  -19.5030   20.3630 C   0  0  0  0  0  0  0  0  0  0  0  0
  -28.8910  -18.3850   18.4070 C   0  0  0  0  0  0  0  0  0  0  0  0
  -29.8660  -17.0330   20.2190 C   0  0  0  0  0  0  0  0  0  0  0  0
  -30.7750  -14.7450   20.3560 C   0  0  0  0  0  0  0  0  0  0  0  0
  -30.4920  -12.6100   19.1770 C   0  0  0  0  0  2  0  0  0  0  0  0
  -29.5540  -12.8730   17.9810 C   0  0  0  0  0  2  0  0  0  0  0  0
  -28.0750  -12.7350   18.3950 C   0  0  0  0  0  2  0  0  0  0  0  0
  -27.7400  -13.5100   19.7000 C   0  0  0  0  0  3  0  0  0  0  0  0
  -28.7980  -13.2340   20.7970 C   0  0  0  0  0  2  0  0  0  0  0  0
  -30.1230  -13.5560   20.2400 N   0  0  0  0  0  0  0  0  0  0  0  0
  -31.9120  -14.9350   19.9190 O   0  0  0  0  0  0  0  0  0  0  0  0
  -30.0380  -15.7590   20.8520 N   0  0  0  0  0  0  0  0  0  0  0  0
  -29.2350  -15.4420   21.3700 H   0  0  0  0  0  0  0  0  0  0  0  0
  -25.3310  -14.1050   20.3670 C   0  0  0  0  0  0  0  0  0  0  0  0
  -24.2670  -13.3300   20.7430 C   0  0  0  0  0  0  0  0  0  0  0  0
  -24.7400  -11.9820   20.7360 C   0  0  0  0  0  0  0  0  0  0  0  0
  -26.3850  -13.2290   20.1640 N   0  0  0  0  0  0  0  0  0  0  0  0
  -26.0330  -11.9480   20.4420 N   0  0  0  0  0  0  0  0  0  0  0  0
  -24.0260  -10.7150   20.9370 C   0  0  0  0  0  0  0  0  0  0  0  0
  -24.4280   -9.7840   21.9200 C   0  0  0  0  0  3  0  0  0  0  0  0
  -23.7090   -8.5840   22.1060 C   0  0  0  0  0  3  0  0  0  0  0  0
  -22.5770   -8.3040   21.3030 C   0  0  0  0  0  0  0  0  0  0  0  0
  -22.1980   -9.2200   20.3080 C   0  0  0  0  0  3  0  0  0  0  0  0
  -22.9180  -10.4120   20.1210 C   0  0  0  0  0  3  0  0  0  0  0  0
  -21.8410   -7.1480   21.3910 O   0  0  0  0  0  0  0  0  0  0  0  0
  -21.7110   -6.4600   22.5710 C   0  0  0  0  0  0  0  0  0  0  0  0
  -21.1730   -7.0660   23.7260 C   0  0  0  0  0  3  0  0  0  0  0  0
  -20.9990   -6.3100   24.9040 C   0  0  0  0  0  3  0  0  0  0  0  0
  -21.3450   -4.9460   24.9210 C   0  0  0  0  0  0  0  0  0  0  0  0
  -21.8710   -4.3360   23.7670 C   0  0  0  0  0  3  0  0  0  0  0  0
  -22.0510   -5.0910   22.5950 C   0  0  0  0  0  0  0  0  0  0  0  0
  -22.5410   -4.4970   21.4790 F   0  0  0  0  0  0  0  0  0  0  0  0
  -21.1660   -4.2130   26.0460 F   0  0  0  0  0  0  0  0  0  0  0  0
  -22.8640  -13.8040   20.9940 C   0  0  0  0  0  0  0  0  0  0  0  0
  -22.1300  -13.1200   21.8650 N   0  0  0  0  0  0  0  0  0  0  0  0
  -22.4220  -14.8180   20.4550 O   0  0  0  0  0  0  0  0  0  0  0  0
  -22.4920  -12.3080   22.3400 H   0  0  0  0  0  0  0  0  0  0  0  0
  -21.1900  -13.4290   22.0640 H   0  0  0  0  0  0  0  0  0  0  0  0
  -25.4890  -15.4720   20.1590 N   0  0  0  0  0  0  0  0  0  0  0  0
  -24.7210  -16.1270   20.2550 H   0  0  0  0  0  0  0  0  0  0  0  0
  -26.3020  -15.8770   19.7160 H   0  0  0  0  0  0  0  0  0  0  0  0
  -28.1200  -18.4770   17.0910 C   0  0  1  0  0  0  0  0  0  0  0  0
  -28.6640  -19.3920   16.2860 F   0  0  0  0  0  0  0  0  0  0  0  0
  -28.1010  -17.3150   16.4380 F   0  0  0  0  0  0  0  0  0  0  0  0
  -26.8600  -18.8330   17.3420 F   0  0  0  0  0  0  0  0  0  0  0  0
  -29.1450  -23.0040   21.0390 C   0  0  0  0  0  0  0  0  0  0  0  0
  -31.1050  -22.4550   19.6140 C   0  0  0  0  0  1  0  0  0  0  0  0
  -30.0630  -22.1040   20.5860 N   0  0  0  0  0  0  0  0  0  0  0  0
  -28.1580  -22.6390   21.6880 O   0  0  0  0  0  0  0  0  0  0  0  0
  -29.2980  -25.2980   22.1360 C   0  0  0  0  0  2  0  0  0  0  0  0
  -29.4260  -24.4900   20.8550 C   0  0  0  0  0  3  0  0  0  0  0  0
  -28.3060  -25.5210   21.0290 C   0  0  0  0  0  3  0  0  0  0  0  0
  -28.5010  -26.8630   20.5300 O   0  0  0  0  0  0  0  0  0  0  0  0
  -24.5670  -32.0620   23.4290 C   0  0  0  0  0  0  0  0  0  0  0  0
  -27.3510  -27.6230   20.4710 C   0  0  0  0  0  0  0  0  0  0  0  0
  -23.4400  -30.6560   21.7380 C   0  0  0  0  0  3  0  0  0  0  0  0
  -24.9600  -29.1310   20.3700 C   0  0  0  0  0  0  0  0  0  0  0  0
  -25.9710  -31.0280   21.6460 C   0  0  0  0  0  2  0  0  0  0  0  0
  -26.0910  -29.6580   21.0070 C   0  0  0  0  0  0  0  0  0  0  0  0
  -27.2940  -28.9120   21.0510 C   0  0  0  0  0  3  0  0  0  0  0  0
  -26.2050  -27.1160   19.8220 C   0  0  0  0  0  3  0  0  0  0  0  0
  -25.0140  -27.8620   19.7710 C   0  0  0  0  0  3  0  0  0  0  0  0
  -23.7100  -29.9840   20.3640 C   0  0  0  0  0  2  0  0  0  0  0  0
  -24.6760  -31.2640   22.3300 N   0  0  0  0  0  0  0  0  0  0  0  0
  -23.4630  -32.3240   23.9270 O   0  0  0  0  0  0  0  0  0  0  0  0
  -22.7560  -29.6270   22.6670 C   0  0  0  0  0  0  0  0  0  0  0  0
  -21.4350  -29.4490   22.4940 N   0  0  0  0  0  0  0  0  0  0  0  0
  -23.4110  -28.9940   23.4990 O   0  0  0  0  0  0  0  0  0  0  0  0
  -20.9730  -30.0120   21.7950 H   0  0  0  0  0  0  0  0  0  0  0  0
  -18.0320  -28.3060   22.9130 C   0  0  0  0  0  0  0  0  0  0  0  0
  -20.5890  -28.5100   23.2300 C   0  0  0  0  0  3  0  0  0  0  0  0
  -20.6750  -27.0900   22.6220 C   0  0  0  0  0  2  0  0  0  0  0  0
  -19.5820  -26.8120   21.5850 C   0  0  0  0  0  2  0  0  0  0  0  0
  -18.1940  -26.9690   22.2100 C   0  0  0  0  0  2  0  0  0  0  0  0
  -19.1570  -29.0370   23.3790 C   0  0  0  0  0  0  0  0  0  0  0  0
  -18.9510  -30.2900   23.9940 C   0  0  0  0  0  3  0  0  0  0  0  0
  -17.6520  -30.8120   24.1520 C   0  0  0  0  0  3  0  0  0  0  0  0
  -16.5420  -30.0760   23.7020 C   0  0  0  0  0  3  0  0  0  0  0  0
  -16.7330  -28.8250   23.0900 C   0  0  0  0  0  3  0  0  0  0  0  0
  -25.8220  -32.7020   24.1000 C   0  0  0  0  0  3  0  0  0  0  0  0
  -26.2500  -31.9750   25.4340 C   0  0  1  0  0  0  0  0  0  0  0  0
  -25.0840  -31.7500   26.4230 C   0  0  0  0  0  1  0  0  0  0  0  0
  -26.8780  -30.5970   25.1210 C   0  0  0  0  0  1  0  0  0  0  0  0
  -27.3370  -32.8060   26.1570 C   0  0  0  0  0  1  0  0  0  0  0  0
  -25.5120  -34.1150   24.3580 N   0  0  0  0  0  0  0  0  0  0  0  0
  -25.8980  -35.1320   23.5750 C   0  0  0  0  0  0  0  0  0  0  0  0
  -26.6200  -34.9810   22.5880 O   0  0  0  0  0  0  0  0  0  0  0  0
  -24.8800  -34.3070   25.1210 H   0  0  0  0  0  0  0  0  0  0  0  0
  -24.2070  -36.9210   23.0620 C   0  0  0  0  0  1  0  0  0  0  0  0
  -25.4030  -36.5420   23.9490 C   0  0  0  0  0  3  0  0  0  0  0  0
  -27.5040  -37.4460   24.8450 C   0  0  0  0  0  1  0  0  0  0  0  0
  -26.4500  -37.5820   23.8420 N   0  0  0  0  0  0  0  0  0  0  0  0
  -26.0460  -38.5090   23.9340 H   0  0  0  0  0  0  0  0  0  0  0  0
  2  5  1  0
  4  7  2  0
  5  3  2  0
  5  1  1  0
  6  4  1  0
  6  2  2  0
  7 16  1  0
  7  3  1  0
  8 16  1  0
  9 14  1  0
 10 11  1  0
 10  9  1  0
 12 11  1  0
 12 21  1  0
 12 13  1  0
 14  8  1  0
 14 13  1  0
 15  8  2  0
 16 17  1  0
 18 19  2  0
 19 38  1  0
 20 19  1  0
 20 23  1  0
 21 18  1  0
 21 22  1  0
 22 20  2  0
 23 24  1  0
 24 25  2  0
 26 29  1  0
 26 25  1  0
 27 26  2  0
 28 27  1  0
 28 23  2  0
 29 30  1  0
 30 35  2  0
 30 31  1  0
 31 32  2  0
 32 33  1  0
 33 37  1  0
 34 33  2  0
 35 34  1  0
 36 35  1  0
 38 39  1  0
 39 42  1  0
 39 41  1  0
 40 38  2  0
 43 44  1  0
 43 18  1  0
 45 43  1  0
 46 49  1  1
 46  6  1  0
 47 46  1  0
 48 46  1  0
 50 53  2  0
 51 52  1  0
 52 50  1  0
 52  1  1  0
 55 56  1  0
 55 50  1  0
 55 54  1  0
 56 57  1  0
 56 54  1  0
 58 69  2  0
 59 57  1  0
 59 64  1  0
 60 68  1  0
 60 70  1  0
 61 63  1  0
 62 68  1  0
 63 64  2  0
 63 62  1  0
 65 59  2  0
 66 65  1  0
 66 61  2  0
 67 61  1  0
 67 60  1  0
 68 58  1  0
 70 72  2  0
 71 70  1  0
 73 71  1  0
 74 83  2  0
 74 79  1  0
 75 71  1  0
 75 79  1  0
 76 75  1  0
 77 78  1  0
 77 76  1  0
 78 74  1  0
 79 80  2  0
 80 81  1  0
 82 81  2  0
 83 82  1  0
 84 58  1  0
 84 89  1  0
 84 85  1  0
 85 88  1  1
 85 86  1  0
 87 85  1  0
 89 92  1  0
 90 94  1  0
 90 89  1  0
 91 90  2  0
 94 93  1  0
 96 97  1  0
 96 94  1  0
 96 95  1  0
M  ISO  4   8 100  16 100  56 101  57 101
M  END
>  <TORSDO>  (26) 
F 20

>  <SCORE>  (26) 
-12.711

>  <name>  (26) 
25

>  <ligand_id>  (26) 
25

>  <original_smiles>  (26) 
[H]c1c([H])c([H])c2c(c1[H])C([H])([H])C([H])([H])C([H])([H])C2([H])N([H])C(=O)C1([H])N(C(=O)C([H])(N([H])C(=O)C([H])(N([H])C([H])([H])[H])C([H])([H])[H])C(C([H])([H])[H])(C([H])([H])[H])C([H])([H])[H])C([H])([H])c2c([H])c(OC3([H])C([H])([H])C3([H])C(=O)N(C([H])([H])[H])C([H])([H])c3c([H])c(N([H])C(=O)N4C([H])([H])C([H])([H])C([H])([H])C([H])(n5nc(-c6c([H])c([H])c(Oc7c([H])c([H])c(F)c([H])c7F)c([H])c6[H])c(C(=O)N([H])[H])c5N([H])[H])C4([H])[H])c([H])c(C(F)(F)F)c3[H])c([H])c([H])c2C1([H])[H]

>  <smiles>  (26) 
[H]c1c([H])c([H])c2c(c1[H])C([H])([H])C([H])([H])C([H])([H])C2([H])N([H])C(=O)C1([H])N(C(=O)C([H])(N([H])C(=O)C([H])(N([H])C([H])([H])[H])C([H])([H])[H])C(C([H])([H])[H])(C([H])([H])[H])C([H])([H])[H])C([H])([H])c2c([H])c(OC3([H])C([H])([H])C3([H])C(=O)N(C([H])([H])[H])C([H])([H])c3c([H])c(N([H])C(=O)N4C([H])([H])C([H])([H])C([H])([H])C([H])(n5nc(-c6c([H])c([H])c(Oc7c([H])c([H])c(F)c([H])c7F)c([H])c6[H])c(C(=O)N([H])[H])c5N([H])[H])C4([H])[H])c([H])c(C(F)(F)F)c3[H])c([H])c([H])c2C1([H])[H]

$$$$
26:0:0
     RDKit          3D

 95103  0  0  1  0  0  0  0  0999 V2000
  -28.3800  -19.0370   18.4970 C   0  0  0  0  0  3  0  0  0  0  0  0
  -28.3500  -20.3670   18.9570 C   0  0  0  0  0  3  0  0  0  0  0  0
  -29.4180  -19.5480   20.9730 C   0  0  0  0  0  3  0  0  0  0  0  0
  -28.9110  -17.9360   19.2200 C   0  0  0  0  0  0  0  0  0  0  0  0
  -28.9060  -20.7490   20.1890 C   0  0  0  0  0  0  0  0  0  0  0  0
  -29.4310  -18.0860   20.5490 C   0  0  0  0  0  0  0  0  0  0  0  0
  -30.5560  -15.6060   21.3570 C   0  0  0  0  0  0  0  0  0  0  0  0
  -30.8090  -13.1230   20.7850 C   0  0  0  0  0  2  0  0  0  0  0  0
  -30.1380  -12.7900   19.4300 C   0  0  0  0  0  2  0  0  0  0  0  0
  -28.6370  -12.5040   19.6120 C   0  0  0  0  0  2  0  0  0  0  0  0
  -27.9510  -13.5170   20.5630 C   0  0  0  0  0  3  0  0  0  0  0  0
  -28.7690  -13.7880   21.8430 C   0  0  0  0  0  2  0  0  0  0  0  0
  -30.0870  -14.2770   21.4170 N   0  0  0  0  0  0  0  0  0  0  0  0
  -31.7810  -15.7210   21.2240 O   0  0  0  0  0  0  0  0  0  0  0  0
  -29.6850  -16.7690   21.3920 N   0  0  0  0  0  0  0  0  0  0  0  0
  -28.8400  -16.5050   21.8770 H   0  0  0  0  0  0  0  0  0  0  0  0
  -25.4590  -13.9740   20.8940 C   0  0  0  0  0  0  0  0  0  0  0  0
  -24.3900  -13.1500   21.1090 C   0  0  0  0  0  0  0  0  0  0  0  0
  -24.9220  -11.8270   21.1950 C   0  0  0  0  0  0  0  0  0  0  0  0
  -26.5700  -13.1510   20.8510 N   0  0  0  0  0  0  0  0  0  0  0  0
  -26.2470  -11.8560   21.0990 N   0  0  0  0  0  0  0  0  0  0  0  0
  -24.2400  -10.5300   21.3030 C   0  0  0  0  0  0  0  0  0  0  0  0
  -24.5670   -9.6040   22.3180 C   0  0  0  0  0  3  0  0  0  0  0  0
  -23.8820   -8.3740   22.4130 C   0  0  0  0  0  3  0  0  0  0  0  0
  -22.8550   -8.0600   21.4910 C   0  0  0  0  0  0  0  0  0  0  0  0
  -22.5490   -8.9750   20.4680 C   0  0  0  0  0  3  0  0  0  0  0  0
  -23.2370  -10.1970   20.3710 C   0  0  0  0  0  3  0  0  0  0  0  0
  -22.1530   -6.8780   21.4900 O   0  0  0  0  0  0  0  0  0  0  0  0
  -21.9550   -6.1590   22.6410 C   0  0  0  0  0  0  0  0  0  0  0  0
  -21.3110   -6.7160   23.7670 C   0  0  0  0  0  3  0  0  0  0  0  0
  -21.0650   -5.9200   24.9040 C   0  0  0  0  0  3  0  0  0  0  0  0
  -21.4530   -4.5680   24.9140 C   0  0  0  0  0  0  0  0  0  0  0  0
  -22.0900   -4.0090   23.7920 C   0  0  0  0  0  3  0  0  0  0  0  0
  -22.3370   -4.8030   22.6580 C   0  0  0  0  0  0  0  0  0  0  0  0
  -22.9320   -4.2540   21.5710 F   0  0  0  0  0  0  0  0  0  0  0  0
  -21.2100   -3.8000   26.0030 F   0  0  0  0  0  0  0  0  0  0  0  0
  -22.9450  -13.5550   21.1340 C   0  0  0  0  0  0  0  0  0  0  0  0
  -22.1220  -12.8450   21.8970 N   0  0  0  0  0  0  0  0  0  0  0  0
  -22.5470  -14.5390   20.5120 O   0  0  0  0  0  0  0  0  0  0  0  0
  -22.4530  -12.0490   22.4230 H   0  0  0  0  0  0  0  0  0  0  0  0
  -21.1470  -13.0990   21.9560 H   0  0  0  0  0  0  0  0  0  0  0  0
  -25.5810  -15.3480   20.7060 N   0  0  0  0  0  0  0  0  0  0  0  0
  -24.7760  -15.9650   20.6830 H   0  0  0  0  0  0  0  0  0  0  0  0
  -26.4520  -15.8240   20.5120 H   0  0  0  0  0  0  0  0  0  0  0  0
  -28.9060  -16.6260   18.4850 C   0  0  0  0  0  0  0  0  0  0  0  0
  -27.7110  -16.1540   18.1480 N   0  0  0  0  0  0  0  0  0  0  0  0
  -29.9470  -16.0540   18.1770 O   0  0  0  0  0  0  0  0  0  0  0  0
  -26.8770  -16.6690   18.3870 H   0  0  0  0  0  0  0  0  0  0  0  0
  -27.6330  -15.3000   17.6150 H   0  0  0  0  0  0  0  0  0  0  0  0
  -28.0520  -23.3870   20.1670 C   0  0  0  0  0  0  0  0  0  0  0  0
  -30.3380  -22.7700   20.7810 C   0  0  0  0  0  1  0  0  0  0  0  0
  -29.0110  -22.3090   20.3830 N   0  0  0  0  0  0  0  0  0  0  0  0
  -26.8790  -23.1590   20.4780 O   0  0  0  0  0  0  0  0  0  0  0  0
  -28.2930  -24.9080   19.4440 C   0  0  0  0  0  2  0  0  0  0  0  0
  -28.1840  -26.3750   20.0510 O   0  0  0  0  0  0  0  0  0  0  0  0
  -24.7060  -31.9970   23.3510 C   0  0  0  0  0  0  0  0  0  0  0  0
  -27.1440  -27.3940   19.9690 C   0  0  0  0  0  0  0  0  0  0  0  0
  -23.4410  -30.6970   21.6790 C   0  0  0  0  0  3  0  0  0  0  0  0
  -24.8290  -29.1880   20.1070 C   0  0  0  0  0  0  0  0  0  0  0  0
  -25.9890  -30.9440   21.4430 C   0  0  0  0  0  2  0  0  0  0  0  0
  -26.0290  -29.5840   20.7080 C   0  0  0  0  0  0  0  0  0  0  0  0
  -27.1770  -28.7000   20.6290 C   0  0  0  0  0  3  0  0  0  0  0  0
  -25.9220  -27.1200   19.3180 C   0  0  0  0  0  3  0  0  0  0  0  0
  -24.7930  -27.9750   19.3960 C   0  0  0  0  0  3  0  0  0  0  0  0
  -23.6100  -30.0920   20.2570 C   0  0  0  0  0  2  0  0  0  0  0  0
  -24.7340  -31.2340   22.2120 N   0  0  0  0  0  0  0  0  0  0  0  0
  -23.6400  -32.2570   23.9320 O   0  0  0  0  0  0  0  0  0  0  0  0
  -22.7860  -29.6480   22.6120 C   0  0  0  0  0  0  0  0  0  0  0  0
  -21.4610  -29.4530   22.4890 N   0  0  0  0  0  0  0  0  0  0  0  0
  -23.4750  -29.0100   23.4130 O   0  0  0  0  0  0  0  0  0  0  0  0
  -20.9580  -30.0200   21.8210 H   0  0  0  0  0  0  0  0  0  0  0  0
  -18.1260  -28.1000   22.9160 C   0  0  0  0  0  0  0  0  0  0  0  0
  -20.6670  -28.4710   23.2330 C   0  0  0  0  0  3  0  0  0  0  0  0
  -20.8400  -27.0530   22.6400 C   0  0  0  0  0  2  0  0  0  0  0  0
  -19.7720  -26.6990   21.6010 C   0  0  0  0  0  2  0  0  0  0  0  0
  -18.3740  -26.7720   22.2210 C   0  0  0  0  0  2  0  0  0  0  0  0
  -19.2020  -28.9060   23.3770 C   0  0  0  0  0  0  0  0  0  0  0  0
  -18.9150  -30.1450   23.9870 C   0  0  0  0  0  3  0  0  0  0  0  0
  -17.5870  -30.5820   24.1420 C   0  0  0  0  0  3  0  0  0  0  0  0
  -16.5250  -29.7760   23.6960 C   0  0  0  0  0  3  0  0  0  0  0  0
  -16.7950  -28.5360   23.0890 C   0  0  0  0  0  3  0  0  0  0  0  0
  -26.0080  -32.5950   23.9670 C   0  0  0  0  0  3  0  0  0  0  0  0
  -26.5910  -31.7230   25.1470 C   0  0  1  0  0  0  0  0  0  0  0  0
  -25.5540  -31.3870   26.2450 C   0  0  0  0  0  1  0  0  0  0  0  0
  -27.1620  -30.3880   24.6180 C   0  0  0  0  0  1  0  0  0  0  0  0
  -27.7700  -32.4710   25.8160 C   0  0  0  0  0  1  0  0  0  0  0  0
  -25.6990  -33.9540   24.4410 N   0  0  0  0  0  0  0  0  0  0  0  0
  -26.0180  -35.0830   23.7940 C   0  0  0  0  0  0  0  0  0  0  0  0
  -26.6680  -35.0880   22.7450 O   0  0  0  0  0  0  0  0  0  0  0  0
  -25.1190  -34.0220   25.2640 H   0  0  0  0  0  0  0  0  0  0  0  0
  -24.2920  -36.9110   23.6620 C   0  0  0  0  0  1  0  0  0  0  0  0
  -25.5440  -36.4170   24.4060 C   0  0  0  0  0  3  0  0  0  0  0  0
  -27.6950  -37.2040   25.2900 C   0  0  0  0  0  1  0  0  0  0  0  0
  -26.5780  -37.4750   24.3900 N   0  0  0  0  0  0  0  0  0  0  0  0
  -26.1780  -38.3740   24.6420 H   0  0  0  0  0  0  0  0  0  0  0  0
  1  2  2  0
  1  4  1  0
  2  5  1  0
  4  6  2  0
  5 52  1  0
  5  3  2  0
  6  3  1  0
  6 15  1  0
  7 15  1  0
  7 13  1  0
  8 13  1  0
  9 10  1  0
  9  8  1  0
 11 10  1  0
 11 20  1  0
 11 12  1  0
 13 12  1  0
 14  7  2  0
 15 16  1  0
 17 18  2  0
 18 37  1  0
 18 19  1  0
 19 22  1  0
 20 17  1  0
 20 21  1  0
 21 19  2  0
 22 23  1  0
 23 24  2  0
 25 24  1  0
 26 25  2  0
 27 26  1  0
 27 22  2  0
 28 25  1  0
 28 29  1  0
 29 34  2  0
 29 30  1  0
 30 31  2  0
 31 32  1  0
 32 36  1  0
 33 32  2  0
 34 33  1  0
 35 34  1  0
 37 38  1  0
 38 41  1  0
 38 40  1  0
 39 37  2  0
 42 17  1  0
 43 42  1  0
 44 42  1  0
 45  4  1  0
 46 48  1  0
 46 45  1  0
 47 45  2  0
 49 46  1  0
 50 52  1  0
 50 53  2  0
 52 51  1  0
 54 55  1  0
 54 50  1  0
 56 67  2  0
 57 55  1  0
 57 62  1  0
 58 66  1  0
 58 68  1  0
 59 65  1  0
 59 61  1  0
 60 66  1  0
 61 60  1  0
 62 61  2  0
 63 64  1  0
 63 57  2  0
 64 59  2  0
 65 58  1  0
 66 56  1  0
 68 70  2  0
 69 68  1  0
 71 69  1  0
 72 81  2  0
 72 77  1  0
 73 69  1  0
 73 77  1  0
 74 73  1  0
 75 76  1  0
 75 74  1  0
 76 72  1  0
 77 78  2  0
 78 79  1  0
 80 79  2  0
 81 80  1  0
 82 56  1  0
 82 87  1  0
 82 83  1  0
 83 86  1  1
 83 84  1  0
 85 83  1  0
 87 90  1  0
 88 92  1  0
 88 87  1  0
 89 88  2  0
 92 91  1  0
 94 92  1  0
 94 95  1  0
 94 93  1  0
M  ISO  4   7 100  15 100  54 101  55 101
M  END
>  <TORSDO>  (27) 
F 19

>  <SCORE>  (27) 
-12.129

>  <name>  (27) 
26

>  <ligand_id>  (27) 
26

>  <original_smiles>  (27) 
[H]c1c([H])c([H])c2c(c1[H])C([H])([H])C([H])([H])C([H])([H])C2([H])N([H])C(=O)C1([H])N(C(=O)C([H])(N([H])C(=O)C([H])(N([H])C([H])([H])[H])C([H])([H])[H])C(C([H])([H])[H])(C([H])([H])[H])C([H])([H])[H])C([H])([H])c2c([H])c(OC([H])([H])C(=O)N(c3c([H])c([H])c(C(=O)N([H])[H])c(N([H])C(=O)N4C([H])([H])C([H])([H])C([H])([H])C([H])(n5nc(-c6c([H])c([H])c(Oc7c([H])c([H])c(F)c([H])c7F)c([H])c6[H])c(C(=O)N([H])[H])c5N([H])[H])C4([H])[H])c3[H])C([H])([H])[H])c([H])c([H])c2C1([H])[H]

>  <smiles>  (27) 
[H]c1c([H])c([H])c2c(c1[H])C([H])([H])C([H])([H])C([H])([H])C2([H])N([H])C(=O)C1([H])N(C(=O)C([H])(N([H])C(=O)C([H])(N([H])C([H])([H])[H])C([H])([H])[H])C(C([H])([H])[H])(C([H])([H])[H])C([H])([H])[H])C([H])([H])c2c([H])c(OC([H])([H])C(=O)N(c3c([H])c([H])c(C(=O)N([H])[H])c(N([H])C(=O)N4C([H])([H])C([H])([H])C([H])([H])C([H])(n5nc(-c6c([H])c([H])c(Oc7c([H])c([H])c(F)c([H])c7F)c([H])c6[H])c(C(=O)N([H])[H])c5N([H])[H])C4([H])[H])c3[H])C([H])([H])[H])c([H])c([H])c2C1([H])[H]

$$$$
27:0:0
     RDKit          3D

110119  0  0  1  0  0  0  0  0999 V2000
  -28.3100  -17.2150   21.0310 C   0  0  0  0  0  1  0  0  0  0  0  0
  -29.0260  -18.3240   20.3990 N   0  0  0  0  0  0  0  0  0  0  0  0
  -33.2780  -18.2710   20.4890 C   0  0  0  0  0  3  0  0  0  0  0  0
  -32.5550  -17.2100   19.9370 C   0  0  0  0  0  3  0  0  0  0  0  0
  -31.1900  -19.3140   21.2450 C   0  0  0  0  0  0  0  0  0  0  0  0
  -32.6140  -19.3160   21.1560 C   0  0  0  0  0  0  0  0  0  0  0  0
  -31.1410  -17.2090   19.9650 C   0  0  0  0  0  0  0  0  0  0  0  0
  -30.4380  -18.2930   20.5630 C   0  0  0  0  0  0  0  0  0  0  0  0
  -30.9500  -15.0060   18.8870 C   0  0  0  0  0  0  0  0  0  0  0  0
  -30.9280  -12.5430   18.7480 C   0  0  0  0  0  2  0  0  0  0  0  0
  -29.9310  -12.0200   17.7010 C   0  0  0  0  0  2  0  0  0  0  0  0
  -28.5260  -11.8790   18.3160 C   0  0  0  0  0  2  0  0  0  0  0  0
  -28.0770  -13.1500   19.0800 C   0  0  0  0  0  3  0  0  0  0  0  0
  -29.1800  -13.6250   20.0490 C   0  0  0  0  0  2  0  0  0  0  0  0
  -30.4160  -13.8180   19.2720 N   0  0  0  0  0  0  0  0  0  0  0  0
  -31.8800  -15.1000   18.0810 O   0  0  0  0  0  0  0  0  0  0  0  0
  -30.4200  -16.0920   19.4620 N   0  0  0  0  0  0  0  0  0  0  0  0
  -29.4790  -16.0050   19.8120 H   0  0  0  0  0  0  0  0  0  0  0  0
  -25.8670  -13.8580   20.1950 C   0  0  0  0  0  0  0  0  0  0  0  0
  -24.8320  -13.1280   20.7190 C   0  0  0  0  0  0  0  0  0  0  0  0
  -25.2050  -11.7560   20.5730 C   0  0  0  0  0  0  0  0  0  0  0  0
  -26.8080  -12.9330   19.7690 N   0  0  0  0  0  0  0  0  0  0  0  0
  -26.4210  -11.6610   20.0510 N   0  0  0  0  0  0  0  0  0  0  0  0
  -24.4500  -10.5270   20.8460 C   0  0  0  0  0  0  0  0  0  0  0  0
  -24.6910   -9.7550   22.0040 C   0  0  0  0  0  3  0  0  0  0  0  0
  -23.9390   -8.5860   22.2540 C   0  0  0  0  0  3  0  0  0  0  0  0
  -22.9330   -8.1810   21.3440 C   0  0  0  0  0  0  0  0  0  0  0  0
  -22.7130   -8.9410   20.1810 C   0  0  0  0  0  3  0  0  0  0  0  0
  -23.4670  -10.1000   19.9310 C   0  0  0  0  0  3  0  0  0  0  0  0
  -22.1740   -7.0460   21.4910 O   0  0  0  0  0  0  0  0  0  0  0  0
  -21.6180   -6.7040   22.6980 C   0  0  0  0  0  0  0  0  0  0  0  0
  -20.6510   -7.5160   23.3310 C   0  0  0  0  0  3  0  0  0  0  0  0
  -20.0560   -7.0910   24.5350 C   0  0  0  0  0  3  0  0  0  0  0  0
  -20.4180   -5.8550   25.1030 C   0  0  0  0  0  0  0  0  0  0  0  0
  -21.3760   -5.0430   24.4730 C   0  0  0  0  0  3  0  0  0  0  0  0
  -21.9730   -5.4650   23.2710 C   0  0  0  0  0  0  0  0  0  0  0  0
  -22.8790   -4.6700   22.6560 F   0  0  0  0  0  0  0  0  0  0  0  0
  -19.8400   -5.4450   26.2560 F   0  0  0  0  0  0  0  0  0  0  0  0
  -23.5300  -13.6650   21.2370 C   0  0  0  0  0  0  0  0  0  0  0  0
  -22.9520  -13.0080   22.2370 N   0  0  0  0  0  0  0  0  0  0  0  0
  -23.0410  -14.7010   20.7890 O   0  0  0  0  0  0  0  0  0  0  0  0
  -23.3680  -12.1690   22.6150 H   0  0  0  0  0  0  0  0  0  0  0  0
  -22.0880  -13.3480   22.6320 H   0  0  0  0  0  0  0  0  0  0  0  0
  -26.0790  -15.2220   20.0250 N   0  0  0  0  0  0  0  0  0  0  0  0
  -25.3690  -15.9100   20.2450 H   0  0  0  0  0  0  0  0  0  0  0  0
  -26.8540  -15.6040   19.5010 H   0  0  0  0  0  0  0  0  0  0  0  0
  -30.5300  -20.3950   22.0630 C   0  0  0  0  0  0  0  0  0  0  0  0
  -30.0210  -20.0320   23.2320 N   0  0  0  0  0  0  0  0  0  0  0  0
  -30.5250  -21.5650   21.6780 O   0  0  0  0  0  0  0  0  0  0  0  0
  -30.0750  -19.0700   23.5280 H   0  0  0  0  0  0  0  0  0  0  0  0
  -29.5950  -20.7160   23.8360 H   0  0  0  0  0  0  0  0  0  0  0  0
  -33.4870  -20.4150   21.7700 C   0  0  0  0  0  2  0  0  0  0  0  0
  -33.6820  -21.5230   20.8260 N   0  0  0  0  0  4  0  0  0  0  0  0
  -34.1300  -21.1980   19.9890 H   0  0  0  0  0  0  0  0  0  0  0  0
  -34.2540  -22.2320   21.2460 H   0  0  0  0  0  0  0  0  0  0  0  0
  -32.7890  -21.9260   20.5960 H   0  0  0  0  0  0  0  0  0  0  0  0
  -28.4240  -19.6690   20.3190 C   0  0  0  0  0  2  0  0  0  0  0  0
  -28.2510  -21.4910   18.5610 C   0  0  0  0  0  2  0  0  0  0  0  0
  -25.8950  -21.5130   18.9270 C   0  0  0  0  0  2  0  0  0  0  0  0
  -26.9840  -22.2220   18.1150 C   0  0  0  0  0  3  0  0  0  0  0  0
  -27.8020  -20.0640   18.9610 C   0  0  0  0  0  3  0  0  0  0  0  0
  -25.6810  -19.2270   17.9920 C   0  0  0  0  0  1  0  0  0  0  0  0
  -26.3180  -20.0940   19.0090 N   0  0  2  0  0  4  0  0  0  0  0  0
  -26.0300  -19.7350   19.9070 H   0  0  0  0  0  0  0  0  0  0  0  0
  -26.4730  -24.6430   17.6210 C   0  0  0  0  0  0  0  0  0  0  0  0
  -27.0340  -23.6720   18.3590 N   0  0  0  0  0  0  0  0  0  0  0  0
  -25.7880  -24.4060   16.6220 O   0  0  0  0  0  0  0  0  0  0  0  0
  -27.5780  -23.9810   19.1550 H   0  0  0  0  0  0  0  0  0  0  0  0
  -26.7420  -26.0910   18.0840 C   0  0  0  0  0  2  0  0  0  0  0  0
  -25.9550  -27.0490   17.3650 O   0  0  0  0  0  0  0  0  0  0  0  0
  -25.3880  -30.4310   23.6110 C   0  0  0  0  0  0  0  0  0  0  0  0
  -25.2360  -27.9120   18.1540 C   0  0  0  0  0  0  0  0  0  0  0  0
  -23.4110  -30.5500   22.1290 C   0  0  0  0  0  3  0  0  0  0  0  0
  -23.7610  -29.7250   19.7410 C   0  0  0  0  0  0  0  0  0  0  0  0
  -25.7560  -30.2670   21.1520 C   0  0  0  0  0  2  0  0  0  0  0  0
  -25.1210  -29.5110   20.0020 C   0  0  0  0  0  0  0  0  0  0  0  0
  -25.8640  -28.6100   19.2070 C   0  0  0  0  0  3  0  0  0  0  0  0
  -23.8660  -28.1330   17.9020 C   0  0  0  0  0  3  0  0  0  0  0  0
  -23.1280  -29.0360   18.6920 C   0  0  0  0  0  3  0  0  0  0  0  0
  -23.0390  -30.7110   20.6300 C   0  0  0  0  0  2  0  0  0  0  0  0
  -24.8850  -30.3900   22.3440 N   0  0  0  0  0  0  0  0  0  0  0  0
  -24.6520  -30.6390   24.5860 O   0  0  0  0  0  0  0  0  0  0  0  0
  -22.5770  -29.3890   22.7180 C   0  0  0  0  0  0  0  0  0  0  0  0
  -21.2420  -29.5450   22.7090 N   0  0  0  0  0  0  0  0  0  0  0  0
  -23.1260  -28.3670   23.1400 O   0  0  0  0  0  0  0  0  0  0  0  0
  -20.8710  -30.4150   22.3540 H   0  0  0  0  0  0  0  0  0  0  0  0
  -17.7180  -28.7500   22.7300 C   0  0  0  0  0  0  0  0  0  0  0  0
  -20.2580  -28.5670   23.1750 C   0  0  0  0  0  3  0  0  0  0  0  0
  -20.2300  -27.3270   22.2540 C   0  0  0  0  0  2  0  0  0  0  0  0
  -19.1810  -27.4230   21.1430 C   0  0  0  0  0  2  0  0  0  0  0  0
  -17.7810  -27.6000   21.7380 C   0  0  0  0  0  2  0  0  0  0  0  0
  -18.8860  -29.2150   23.3910 C   0  0  0  0  0  0  0  0  0  0  0  0
  -18.7820  -30.3130   24.2710 C   0  0  0  0  0  3  0  0  0  0  0  0
  -17.5420  -30.9370   24.5020 C   0  0  0  0  0  3  0  0  0  0  0  0
  -16.3870  -30.4620   23.8570 C   0  0  0  0  0  3  0  0  0  0  0  0
  -16.4760  -29.3700   22.9750 C   0  0  0  0  0  3  0  0  0  0  0  0
  -26.9110  -30.2430   23.8940 C   0  0  0  0  0  3  0  0  0  0  0  0
  -27.3240  -28.7340   24.0990 C   0  0  1  0  0  0  0  0  0  0  0  0
  -26.4600  -27.9880   25.1420 C   0  0  0  0  0  1  0  0  0  0  0  0
  -27.2350  -27.9600   22.7630 C   0  0  0  0  0  1  0  0  0  0  0  0
  -28.7980  -28.6530   24.5620 C   0  0  0  0  0  1  0  0  0  0  0  0
  -27.2420  -31.0360   25.0850 N   0  0  0  0  0  0  0  0  0  0  0  0
  -28.0030  -32.1370   25.0780 C   0  0  0  0  0  0  0  0  0  0  0  0
  -28.5670  -32.5560   24.0630 O   0  0  0  0  0  0  0  0  0  0  0  0
  -26.7810  -30.7770   25.9450 H   0  0  0  0  0  0  0  0  0  0  0  0
  -27.3130  -34.1750   26.3770 C   0  0  0  0  0  1  0  0  0  0  0  0
  -28.1640  -32.8960   26.4090 C   0  0  0  0  0  3  0  0  0  0  0  0
  -30.3880  -32.0780   27.0460 C   0  0  0  0  0  1  0  0  0  0  0  0
  -29.5670  -33.2410   26.7250 N   0  0  0  0  0  0  0  0  0  0  0  0
  -29.6120  -33.8900   27.5050 H   0  0  0  0  0  0  0  0  0  0  0  0
  2  8  1  0
  2  1  1  0
  3  6  1  0
  4  7  1  0
  4  3  2  0
  5 47  1  0
  6  5  2  0
  6 52  1  0
  7  8  2  0
  8  5  1  0
  9 15  1  0
  9 17  1  0
 10 15  1  0
 11 12  1  0
 11 10  1  0
 13 12  1  0
 13 22  1  0
 13 14  1  0
 15 14  1  0
 16  9  2  0
 17 18  1  0
 17  7  1  0
 19 20  2  0
 20 39  1  0
 21 20  1  0
 21 24  1  0
 22 23  1  0
 22 19  1  0
 23 21  2  0
 24 25  1  0
 25 26  2  0
 27 30  1  0
 27 26  1  0
 28 27  2  0
 29 28  1  0
 29 24  2  0
 30 31  1  0
 31 36  2  0
 31 32  1  0
 32 33  2  0
 33 34  1  0
 34 38  1  0
 35 34  2  0
 36 35  1  0
 37 36  1  0
 39 40  1  0
 40 42  1  0
 40 43  1  0
 41 39  2  0
 44 19  1  0
 44 45  1  0
 46 44  1  0
 47 48  1  0
 48 50  1  0
 48 51  1  0
 49 47  2  0
 53 55  1  0
 53 52  1  0
 54 53  1  0
 56 53  1  0
 57  2  1  0
 58 61  1  0
 59 63  1  0
 60 66  1  0
 60 58  1  0
 60 59  1  0
 61 63  1  0
 61 57  1  0
 62 63  1  0
 63 64  1  1
 65 69  1  0
 65 66  1  0
 66 68  1  0
 67 65  2  0
 70 69  1  0
 70 72  1  0
 71 82  2  0
 72 77  1  0
 73 81  1  0
 73 83  1  0
 74 76  1  0
 74 80  1  0
 75 81  1  0
 76 75  1  0
 77 76  2  0
 78 72  2  0
 78 79  1  0
 79 74  2  0
 80 73  1  0
 81 71  1  0
 83 85  2  0
 84 83  1  0
 86 84  1  0
 87 96  2  0
 87 92  1  0
 88 84  1  0
 88 92  1  0
 89 88  1  0
 90 91  1  0
 90 89  1  0
 91 87  1  0
 92 93  2  0
 93 94  1  0
 95 94  2  0
 96 95  1  0
 97 71  1  0
 97 98  1  0
 97102  1  0
 98101  1  1
 98 99  1  0
100 98  1  0
102105  1  0
103102  1  0
103107  1  0
104103  2  0
107106  1  0
107109  1  0
109108  1  0
109110  1  0
M  ISO  4   9 100  17 100  69 101  70 101
M  END
>  <TORSDO>  (28) 
F 24

>  <SCORE>  (28) 
-8.108

>  <name>  (28) 
27

>  <ligand_id>  (28) 
27

>  <original_smiles>  (28) 
[H]c1c([H])c([H])c2c(c1[H])C([H])([H])C([H])([H])C([H])([H])C2([H])N([H])C(=O)C1([H])N(C(=O)C([H])(N([H])C(=O)C([H])(N([H])C([H])([H])[H])C([H])([H])[H])C(C([H])([H])[H])(C([H])([H])[H])C([H])([H])[H])C([H])([H])c2c([H])c(OC([H])([H])C(=O)N([H])C3([H])C([H])([H])C([H])(C([H])([H])N(c4c(C(=O)N([H])[H])c(C([H])([H])[N+]([H])([H])[H])c([H])c([H])c4N([H])C(=O)N4C([H])([H])C([H])([H])C([H])([H])C([H])(n5nc(-c6c([H])c([H])c(Oc7c([H])c([H])c(F)c([H])c7F)c([H])c6[H])c(C(=O)N([H])[H])c5N([H])[H])C4([H])[H])C([H])([H])[H])[N+]([H])(C([H])([H])[H])C3([H])[H])c([H])c([H])c2C1([H])[H]

>  <smiles>  (28) 
[H]c1c([H])c([H])c2c(c1[H])C([H])([H])C([H])([H])C([H])([H])C2([H])N([H])C(=O)C1([H])N(C(=O)C([H])(N([H])C(=O)C([H])(N([H])C([H])([H])[H])C([H])([H])[H])C(C([H])([H])[H])(C([H])([H])[H])C([H])([H])[H])C([H])([H])c2c([H])c(OC([H])([H])C(=O)N([H])C3([H])C([H])([H])C([H])(C([H])([H])N(c4c(C(=O)N([H])[H])c(C([H])([H])[N+]([H])([H])[H])c([H])c([H])c4N([H])C(=O)N4C([H])([H])C([H])([H])C([H])([H])C([H])(n5nc(-c6c([H])c([H])c(Oc7c([H])c([H])c(F)c([H])c7F)c([H])c6[H])c(C(=O)N([H])[H])c5N([H])[H])C4([H])[H])C([H])([H])[H])[N+]([H])(C([H])([H])[H])C3([H])[H])c([H])c([H])c2C1([H])[H]

$$$$
28:0:0
     RDKit          3D

102109  0  0  1  0  0  0  0  0999 V2000
  -30.3770  -16.0300   21.2080 C   0  0  0  0  0  1  0  0  0  0  0  0
  -28.2860  -17.1450   21.8390 C   0  0  0  0  0  1  0  0  0  0  0  0
  -28.8830  -16.0770   20.8980 C   0  0  2  0  0  0  0  0  0  0  0  0
  -26.8050  -14.5460   20.6320 C   0  0  0  0  0  1  0  0  0  0  0  0
  -28.1130  -14.6860   21.3570 N   0  0  1  0  0  4  0  0  0  0  0  0
  -27.6990  -15.2110   22.1180 H   0  0  0  0  0  0  0  0  0  0  0  0
  -28.4030  -13.4950   22.4980 C   0  0  0  0  0  2  0  0  0  0  0  0
  -26.8940   -7.9370   22.8500 C   0  0  0  0  0  3  0  0  0  0  0  0
  -27.2080   -8.3010   21.2040 C   0  0  0  0  0  2  0  0  0  0  0  0
  -27.0430   -9.1620   24.0290 C   0  0  0  0  0  3  0  0  0  0  0  0
  -27.9860  -11.8190   22.7390 C   0  0  0  0  0  0  0  0  0  0  0  0
  -28.2680  -11.1830   21.4170 C   0  0  0  0  0  2  0  0  0  0  0  0
  -27.4980  -10.7970   23.9650 C   0  0  0  0  0  0  0  0  0  0  0  0
  -31.4940  -11.2730   21.1150 C   0  0  0  0  0  0  0  0  0  0  0  0
  -32.6870   -9.1940   19.9870 C   0  0  0  0  0  2  0  0  0  0  0  0
  -31.9790   -8.8020   18.5950 C   0  0  0  0  0  2  0  0  0  0  0  0
  -30.4290   -8.7850   18.5090 C   0  0  0  0  0  2  0  0  0  0  0  0
  -30.1100   -9.8550   19.4190 C   0  0  0  0  0  3  0  0  0  0  0  0
  -30.7910   -9.2810   20.8530 C   0  0  0  0  0  2  0  0  0  0  0  0
  -31.8390   -9.9740   20.9290 N   0  0  0  0  0  0  0  0  0  0  0  0
  -32.6060  -11.8570   21.0020 O   0  0  0  0  0  0  0  0  0  0  0  0
  -29.9640  -11.7230   21.2300 N   0  0  0  0  0  0  0  0  0  0  0  0
  -29.9800  -12.7230   21.1190 H   0  0  0  0  0  0  0  0  0  0  0  0
  -27.4910  -11.2660   19.3010 C   0  0  0  0  0  3  0  0  0  0  0  0
  -26.2060  -11.2130   20.2790 C   0  0  0  0  0  3  0  0  0  0  0  0
  -26.3150  -10.0620   21.5000 C   0  0  0  0  0  2  0  0  0  0  0  0
  -28.7820  -10.0700   19.5280 N   0  0  0  0  0  0  0  0  0  0  0  0
  -28.5380   -9.0960   20.9380 N   0  0  0  0  0  2  0  0  0  0  0  0
  -24.8690   -9.2110   21.4910 C   0  0  0  0  0  0  0  0  0  0  0  0
  -24.4320   -8.5440   22.6610 C   0  0  0  0  0  3  0  0  0  0  0  0
  -23.7260   -7.3260   22.6800 C   0  0  0  0  0  3  0  0  0  0  0  0
  -23.0600   -6.8620   21.5380 C   0  0  0  0  0  0  0  0  0  0  0  0
  -23.3470   -7.5130   20.3220 C   0  0  0  0  0  3  0  0  0  0  0  0
  -24.2670   -8.6060   20.2960 C   0  0  0  0  0  3  0  0  0  0  0  0
  -22.0950   -5.8720   21.6180 O   0  0  0  0  0  0  0  0  0  0  0  0
  -21.2500   -5.8040   22.7140 C   0  0  0  0  0  0  0  0  0  0  0  0
  -20.5660   -6.9420   23.2130 C   0  0  0  0  0  3  0  0  0  0  0  0
  -19.7320   -6.8390   24.3460 C   0  0  0  0  0  3  0  0  0  0  0  0
  -19.5500   -5.5940   24.9720 C   0  0  0  0  0  0  0  0  0  0  0  0
  -20.1980   -4.4530   24.4670 C   0  0  0  0  0  3  0  0  0  0  0  0
  -21.0450   -4.5590   23.3450 C   0  0  0  0  0  0  0  0  0  0  0  0
  -21.6620   -3.4530   22.8640 F   0  0  0  0  0  0  0  0  0  0  0  0
  -18.7390   -5.4860   26.0510 F   0  0  0  0  0  0  0  0  0  0  0  0
  -24.9710  -12.0980   20.2120 C   0  0  0  0  0  0  0  0  0  0  0  0
  -23.9420  -11.8380   21.0210 N   0  0  0  0  0  0  0  0  0  0  0  0
  -24.8890  -13.0300   19.4250 O   0  0  0  0  0  0  0  0  0  0  0  0
  -23.9470  -11.0410   21.6410 H   0  0  0  0  0  0  0  0  0  0  0  0
  -23.1160  -12.4180   20.9730 H   0  0  0  0  0  0  0  0  0  0  0  0
  -27.9370  -12.5440   18.9480 N   0  0  0  0  0  0  0  0  0  0  0  0
  -27.2940  -13.3180   18.8290 H   0  0  0  0  0  0  0  0  0  0  0  0
  -28.8330  -12.7030   18.5060 H   0  0  0  0  0  0  0  0  0  0  0  0
  -28.3330  -10.4560   26.1850 C   0  0  0  0  0  1  0  0  0  0  0  0
  -27.9010  -12.7480   25.4220 C   0  0  0  0  0  1  0  0  0  0  0  0
  -27.5920  -11.3330   25.2740 N   0  0  0  0  0  0  0  0  0  0  0  0
  -28.8200  -16.8610   19.3330 C   0  0  0  0  0  2  0  0  0  0  0  0
  -29.6490  -18.3170   18.8380 C   0  0  0  0  0  2  0  0  0  0  0  0
  -29.6720  -20.9730   17.8510 C   0  0  0  0  0  0  0  0  0  0  0  0
  -29.0960  -19.6690   18.1310 N   0  0  0  0  0  0  0  0  0  0  0  0
  -30.8690  -21.1240   18.1090 O   0  0  0  0  0  0  0  0  0  0  0  0
  -28.1240  -19.6030   17.8500 H   0  0  0  0  0  0  0  0  0  0  0  0
  -28.8920  -22.3310   17.1960 C   0  0  0  0  0  2  0  0  0  0  0  0
  -29.3900  -23.8550   17.2070 O   0  0  0  0  0  0  0  0  0  0  0  0
  -25.3770  -27.8500   21.8060 C   0  0  0  0  0  0  0  0  0  0  0  0
  -28.4050  -24.9070   17.3690 C   0  0  0  0  0  0  0  0  0  0  0  0
  -24.3550  -27.1250   19.6820 C   0  0  0  0  0  3  0  0  0  0  0  0
  -25.9810  -26.4340   17.8170 C   0  0  0  0  0  0  0  0  0  0  0  0
  -26.8640  -27.6830   19.7750 C   0  0  0  0  0  2  0  0  0  0  0  0
  -27.0950  -26.6740   18.6340 C   0  0  0  0  0  0  0  0  0  0  0  0
  -28.3160  -25.9320   18.4020 C   0  0  0  0  0  3  0  0  0  0  0  0
  -27.3080  -24.8710   16.4860 C   0  0  0  0  0  3  0  0  0  0  0  0
  -26.1140  -25.5780   16.7150 C   0  0  0  0  0  3  0  0  0  0  0  0
  -24.6640  -27.1100   18.1600 C   0  0  0  0  0  2  0  0  0  0  0  0
  -25.5480  -27.5580   20.4800 N   0  0  0  0  0  0  0  0  0  0  0  0
  -24.2660  -27.7720   22.3510 O   0  0  0  0  0  0  0  0  0  0  0  0
  -23.8090  -25.7390   20.1170 C   0  0  0  0  0  0  0  0  0  0  0  0
  -22.5050  -25.4910   19.8950 N   0  0  0  0  0  0  0  0  0  0  0  0
  -24.5590  -24.9060   20.6320 O   0  0  0  0  0  0  0  0  0  0  0  0
  -21.9460  -26.2270   19.4880 H   0  0  0  0  0  0  0  0  0  0  0  0
  -19.2690  -23.8620   19.8650 C   0  0  0  0  0  0  0  0  0  0  0  0
  -21.8080  -24.2340   20.1880 C   0  0  0  0  0  3  0  0  0  0  0  0
  -21.9950  -23.2090   19.0450 C   0  0  0  0  0  2  0  0  0  0  0  0
  -20.8700  -23.2520   18.0040 C   0  0  0  0  0  2  0  0  0  0  0  0
  -19.5200  -22.9650   18.6630 C   0  0  0  0  0  2  0  0  0  0  0  0
  -20.3420  -24.4680   20.5720 C   0  0  0  0  0  0  0  0  0  0  0  0
  -20.0500  -25.3160   21.6620 C   0  0  0  0  0  3  0  0  0  0  0  0
  -18.7180  -25.5620   22.0470 C   0  0  0  0  0  3  0  0  0  0  0  0
  -17.6620  -24.9470   21.3520 C   0  0  0  0  0  3  0  0  0  0  0  0
  -17.9380  -24.0960   20.2690 C   0  0  0  0  0  3  0  0  0  0  0  0
  -26.5690  -28.3190   22.6970 C   0  0  0  0  0  3  0  0  0  0  0  0
  -27.2000  -27.1520   23.5550 C   0  0  1  0  0  0  0  0  0  0  0  0
  -26.1620  -26.3570   24.3800 C   0  0  0  0  0  1  0  0  0  0  0  0
  -27.9550  -26.1480   22.6530 C   0  0  0  0  0  1  0  0  0  0  0  0
  -28.2420  -27.7320   24.5390 C   0  0  0  0  0  1  0  0  0  0  0  0
  -26.0770  -29.3930   23.5730 N   0  0  0  0  0  0  0  0  0  0  0  0
  -26.3040  -30.6990   23.3870 C   0  0  0  0  0  0  0  0  0  0  0  0
  -27.0190  -31.1290   22.4780 O   0  0  0  0  0  0  0  0  0  0  0  0
  -25.4410  -29.1160   24.3060 H   0  0  0  0  0  0  0  0  0  0  0  0
  -24.4030  -32.3190   23.7030 C   0  0  0  0  0  1  0  0  0  0  0  0
  -25.6360  -31.6860   24.3660 C   0  0  0  0  0  3  0  0  0  0  0  0
  -27.6000  -32.2650   25.7200 C   0  0  0  0  0  1  0  0  0  0  0  0
  -26.5420  -32.7520   24.8420 N   0  0  0  0  0  0  0  0  0  0  0  0
  -26.0210  -33.4680   25.3410 H   0  0  0  0  0  0  0  0  0  0  0  0
  3  1  1  1
  3  5  1  0
  3  2  1  0
  4  5  1  0
  5  6  1  1
  5  7  1  0
  7 11  1  0
  8 10  2  0
  9  8  1  0
 11 13  2  0
 12 11  1  0
 13 10  1  0
 13 54  1  0
 14 22  1  0
 15 20  1  0
 16 15  1  0
 17 16  1  0
 18 17  1  0
 18 27  1  0
 18 19  1  0
 19 20  1  0
 20 14  1  0
 21 14  2  0
 22 12  1  0
 23 22  1  0
 24 49  1  0
 24 27  1  0
 24 25  1  0
 25 26  1  0
 27 28  1  0
 28  9  1  0
 29 26  1  0
 29 30  1  0
 30 31  2  0
 32 35  1  0
 32 31  1  0
 33 32  2  0
 34 33  1  0
 34 29  2  0
 35 36  1  0
 36 37  2  0
 36 41  1  0
 37 38  1  0
 38 39  2  0
 39 43  1  0
 40 39  1  0
 41 40  2  0
 42 41  1  0
 44 25  1  0
 44 45  1  0
 45 47  1  0
 46 44  2  0
 48 45  1  0
 50 49  1  0
 51 49  1  0
 54 53  1  0
 54 52  1  0
 55  3  1  0
 56 55  1  0
 57 59  2  0
 57 58  1  0
 58 56  1  0
 60 58  1  0
 61 62  1  0
 61 57  1  0
 62 64  1  0
 63 74  2  0
 64 69  1  0
 65 75  1  0
 65 73  1  0
 66 72  1  0
 66 68  1  0
 67 73  1  0
 68 67  1  0
 69 68  2  0
 70 71  1  0
 70 64  2  0
 71 66  2  0
 72 65  1  0
 73 63  1  0
 75 77  2  0
 76 75  1  0
 78 76  1  0
 79 88  2  0
 79 84  1  0
 80 76  1  0
 80 84  1  0
 81 80  1  0
 82 83  1  0
 82 81  1  0
 83 79  1  0
 84 85  2  0
 85 86  1  0
 87 86  2  0
 88 87  1  0
 89 63  1  0
 89 90  1  0
 89 94  1  0
 90 91  1  1
 90 93  1  0
 92 90  1  0
 94 97  1  0
 95 94  1  0
 95 99  1  0
 96 95  2  0
 99 98  1  0
 99101  1  0
101102  1  0
101100  1  0
M  ISO  4  14 100  22 100  61 101  62 101
M  END
>  <TORSDO>  (29) 
F 24

>  <SCORE>  (29) 
16.455

>  <name>  (29) 
28

>  <ligand_id>  (29) 
28

>  <original_smiles>  (29) 
[H]c1c([H])c(N([H])C(=O)N2C([H])([H])C([H])([H])C([H])([H])C([H])(n3nc(-c4c([H])c([H])c(Oc5c([H])c([H])c(F)c([H])c5F)c([H])c4[H])c(C(=O)N([H])[H])c3N([H])[H])C2([H])[H])c(C([H])([H])[N+]([H])(C([H])([H])[H])C(C([H])([H])[H])(C([H])([H])[H])C([H])([H])C([H])([H])N([H])C(=O)C([H])([H])Oc2c([H])c([H])c3c(c2[H])C([H])([H])N(C(=O)C([H])(N([H])C(=O)C([H])(N([H])C([H])([H])[H])C([H])([H])[H])C(C([H])([H])[H])(C([H])([H])[H])C([H])([H])[H])C([H])(C(=O)N([H])C2([H])c4c([H])c([H])c([H])c([H])c4C([H])([H])C([H])([H])C2([H])[H])C3([H])[H])c(N(C([H])([H])[H])C([H])([H])[H])c1[H]

>  <smiles>  (29) 
[H]c1c([H])c(N([H])C(=O)N2C([H])([H])C([H])([H])C([H])([H])C([H])(n3nc(-c4c([H])c([H])c(Oc5c([H])c([H])c(F)c([H])c5F)c([H])c4[H])c(C(=O)N([H])[H])c3N([H])[H])C2([H])[H])c(C([H])([H])[N+]([H])(C([H])([H])[H])C(C([H])([H])[H])(C([H])([H])[H])C([H])([H])C([H])([H])N([H])C(=O)C([H])([H])Oc2c([H])c([H])c3c(c2[H])C([H])([H])N(C(=O)C([H])(N([H])C(=O)C([H])(N([H])C([H])([H])[H])C([H])([H])[H])C(C([H])([H])[H])(C([H])([H])[H])C([H])([H])[H])C([H])(C(=O)N([H])C2([H])c4c([H])c([H])c([H])c([H])c4C([H])([H])C([H])([H])C2([H])[H])C3([H])[H])c(N(C([H])([H])[H])C([H])([H])[H])c1[H]

$$$$
29:0:0
     RDKit          3D

 93101  0  0  1  0  0  0  0  0999 V2000
  -30.1100  -21.1270   19.7030 C   0  0  0  0  0  2  0  0  0  0  0  0
  -30.5150  -18.4470   19.7930 C   0  0  0  0  0  3  0  0  0  0  0  0
  -30.9400  -17.3110   21.8970 C   0  0  0  0  0  3  0  0  0  0  0  0
  -30.3470  -19.7360   20.4580 C   0  0  0  0  0  0  0  0  0  0  0  0
  -30.8120  -17.2070   20.4980 C   0  0  0  0  0  0  0  0  0  0  0  0
  -30.7840  -18.5460   22.5650 C   0  0  0  0  0  0  0  0  0  0  0  0
  -30.4850  -19.7330   21.8630 C   0  0  0  0  0  0  0  0  0  0  0  0
  -30.9140  -18.5880   23.9120 F   0  0  0  0  0  0  0  0  0  0  0  0
  -30.3360  -20.8860   22.5600 F   0  0  0  0  0  0  0  0  0  0  0  0
  -31.5170  -14.6990   20.0010 C   0  0  0  0  0  0  0  0  0  0  0  0
  -31.1840  -12.4100   19.0360 C   0  0  0  0  0  2  0  0  0  0  0  0
  -30.2220  -12.5200   17.8320 C   0  0  0  0  0  2  0  0  0  0  0  0
  -28.7490  -12.4650   18.2950 C   0  0  0  0  0  2  0  0  0  0  0  0
  -28.4640  -13.4050   19.4960 C   0  0  0  0  0  3  0  0  0  0  0  0
  -29.5380  -13.2440   20.5930 C   0  0  0  0  0  2  0  0  0  0  0  0
  -30.8390  -13.5030   19.9640 N   0  0  0  0  0  0  0  0  0  0  0  0
  -32.7250  -14.7430   19.7430 O   0  0  0  0  0  0  0  0  0  0  0  0
  -30.7160  -15.8310   19.9620 N   0  0  0  0  0  0  0  0  0  0  0  0
  -29.7550  -15.5310   19.9020 H   0  0  0  0  0  0  0  0  0  0  0  0
  -26.1650  -14.2050   20.3120 C   0  0  0  0  0  0  0  0  0  0  0  0
  -25.0400  -13.5270   20.6950 C   0  0  0  0  0  0  0  0  0  0  0  0
  -25.3680  -12.1410   20.6160 C   0  0  0  0  0  0  0  0  0  0  0  0
  -27.1110  -13.2350   20.0210 N   0  0  0  0  0  0  0  0  0  0  0  0
  -26.6400  -11.9870   20.2650 N   0  0  0  0  0  0  0  0  0  0  0  0
  -24.5290  -10.9490   20.7920 C   0  0  0  0  0  0  0  0  0  0  0  0
  -24.8530   -9.9540   21.7390 C   0  0  0  0  0  3  0  0  0  0  0  0
  -24.0200   -8.8260   21.9050 C   0  0  0  0  0  3  0  0  0  0  0  0
  -22.8480   -8.6890   21.1230 C   0  0  0  0  0  0  0  0  0  0  0  0
  -22.5440   -9.6710   20.1650 C   0  0  0  0  0  3  0  0  0  0  0  0
  -23.3760  -10.7910   19.9970 C   0  0  0  0  0  3  0  0  0  0  0  0
  -21.9950   -7.6150   21.1990 O   0  0  0  0  0  0  0  0  0  0  0  0
  -21.8010   -6.9300   22.3710 C   0  0  0  0  0  0  0  0  0  0  0  0
  -21.3350   -7.5710   23.5410 C   0  0  0  0  0  3  0  0  0  0  0  0
  -21.0810   -6.8150   24.7030 C   0  0  0  0  0  3  0  0  0  0  0  0
  -21.2830   -5.4230   24.6970 C   0  0  0  0  0  0  0  0  0  0  0  0
  -21.7400   -4.7820   23.5320 C   0  0  0  0  0  3  0  0  0  0  0  0
  -21.9950   -5.5340   22.3720 C   0  0  0  0  0  0  0  0  0  0  0  0
  -22.4170   -4.9090   21.2460 F   0  0  0  0  0  0  0  0  0  0  0  0
  -21.0320   -4.6960   25.8120 F   0  0  0  0  0  0  0  0  0  0  0  0
  -23.7020  -14.1300   21.0160 C   0  0  0  0  0  0  0  0  0  0  0  0
  -22.9440  -13.4990   21.9050 N   0  0  0  0  0  0  0  0  0  0  0  0
  -23.3450  -15.1930   20.5140 O   0  0  0  0  0  0  0  0  0  0  0  0
  -23.2460  -12.6360   22.3330 H   0  0  0  0  0  0  0  0  0  0  0  0
  -22.0460  -13.8860   22.1580 H   0  0  0  0  0  0  0  0  0  0  0  0
  -26.4550  -15.5570   20.1600 N   0  0  0  0  0  0  0  0  0  0  0  0
  -25.7480  -16.2720   20.2860 H   0  0  0  0  0  0  0  0  0  0  0  0
  -27.3050  -15.9220   19.7510 H   0  0  0  0  0  0  0  0  0  0  0  0
  -29.4730  -23.6130   20.2800 C   0  0  0  0  0  0  0  0  0  0  0  0
  -27.7820  -21.8080   20.3330 C   0  0  0  0  0  1  0  0  0  0  0  0
  -29.1790  -22.2430   20.2010 N   0  0  0  0  0  0  0  0  0  0  0  0
  -30.6250  -24.0260   20.1110 O   0  0  0  0  0  0  0  0  0  0  0  0
  -28.3170  -24.7010   20.5110 C   0  0  0  0  0  2  0  0  0  0  0  0
  -28.6230  -26.1760   20.6370 O   0  0  0  0  0  0  0  0  0  0  0  0
  -24.6800  -31.7420   23.2230 C   0  0  0  0  0  0  0  0  0  0  0  0
  -27.5220  -27.0630   20.4990 C   0  0  0  0  0  0  0  0  0  0  0  0
  -23.5890  -30.2400   21.6020 C   0  0  0  0  0  3  0  0  0  0  0  0
  -25.1380  -28.6670   20.3150 C   0  0  0  0  0  0  0  0  0  0  0  0
  -26.1360  -30.5970   21.5270 C   0  0  0  0  0  2  0  0  0  0  0  0
  -26.2750  -29.1910   20.9410 C   0  0  0  0  0  0  0  0  0  0  0  0
  -27.4730  -28.4030   21.0180 C   0  0  0  0  0  3  0  0  0  0  0  0
  -26.3500  -26.6150   19.8390 C   0  0  0  0  0  3  0  0  0  0  0  0
  -25.1810  -27.3870   19.7550 C   0  0  0  0  0  3  0  0  0  0  0  0
  -23.8840  -29.5160   20.2650 C   0  0  0  0  0  2  0  0  0  0  0  0
  -24.8180  -30.8810   22.1730 N   0  0  0  0  0  0  0  0  0  0  0  0
  -23.5650  -32.0190   23.6890 O   0  0  0  0  0  0  0  0  0  0  0  0
  -22.9040  -29.2500   22.5750 C   0  0  0  0  0  0  0  0  0  0  0  0
  -21.5890  -29.0370   22.4010 N   0  0  0  0  0  0  0  0  0  0  0  0
  -23.5600  -28.6760   23.4480 O   0  0  0  0  0  0  0  0  0  0  0  0
  -21.1190  -29.5530   21.6710 H   0  0  0  0  0  0  0  0  0  0  0  0
  -18.2160  -27.7870   22.8140 C   0  0  0  0  0  0  0  0  0  0  0  0
  -20.7540  -28.1170   23.1780 C   0  0  0  0  0  3  0  0  0  0  0  0
  -20.9110  -26.6640   22.6760 C   0  0  0  0  0  2  0  0  0  0  0  0
  -19.8600  -26.2700   21.6320 C   0  0  0  0  0  2  0  0  0  0  0  0
  -18.4490  -26.4130   22.2100 C   0  0  0  0  0  2  0  0  0  0  0  0
  -19.3000  -28.5940   23.2540 C   0  0  0  0  0  0  0  0  0  0  0  0
  -19.0290  -29.8770   23.7770 C   0  0  0  0  0  3  0  0  0  0  0  0
  -17.7080  -30.3540   23.8680 C   0  0  0  0  0  3  0  0  0  0  0  0
  -16.6380  -29.5460   23.4420 C   0  0  0  0  0  3  0  0  0  0  0  0
  -16.8930  -28.2650   22.9220 C   0  0  0  0  0  3  0  0  0  0  0  0
  -25.9160  -32.4390   23.8720 C   0  0  0  0  0  3  0  0  0  0  0  0
  -26.4230  -31.7080   25.1750 C   0  0  1  0  0  0  0  0  0  0  0  0
  -25.3030  -31.4230   26.2020 C   0  0  0  0  0  1  0  0  0  0  0  0
  -27.0960  -30.3610   24.8240 C   0  0  0  0  0  1  0  0  0  0  0  0
  -27.5030  -32.5710   25.8700 C   0  0  0  0  0  1  0  0  0  0  0  0
  -25.5350  -33.8270   24.1760 N   0  0  0  0  0  0  0  0  0  0  0  0
  -25.8830  -34.8900   23.4380 C   0  0  0  0  0  0  0  0  0  0  0  0
  -26.6250  -34.8080   22.4560 O   0  0  0  0  0  0  0  0  0  0  0  0
  -24.8870  -33.9630   24.9370 H   0  0  0  0  0  0  0  0  0  0  0  0
  -24.1300  -36.6270   22.9530 C   0  0  0  0  0  1  0  0  0  0  0  0
  -25.3200  -36.2620   23.8570 C   0  0  0  0  0  3  0  0  0  0  0  0
  -27.3600  -37.2090   24.8400 C   0  0  0  0  0  1  0  0  0  0  0  0
  -26.3250  -37.3470   23.8190 N   0  0  0  0  0  0  0  0  0  0  0  0
  -25.8820  -38.2540   23.9380 H   0  0  0  0  0  0  0  0  0  0  0  0
  1 50  1  0
  1  4  1  0
  2  4  2  0
  2  5  1  0
  3  6  1  0
  4  7  1  0
  5  3  2  0
  6  8  1  0
  7  9  1  0
  7  6  2  0
 11 16  1  0
 12 13  1  0
 12 11  1  0
 14 13  1  0
 14 23  1  0
 14 15  1  0
 16 10  1  0
 16 15  1  0
 17 10  2  0
 18 10  1  0
 18  5  1  0
 19 18  1  0
 20 21  2  0
 21 40  1  0
 22 21  1  0
 22 25  1  0
 23 24  1  0
 23 20  1  0
 24 22  2  0
 25 26  1  0
 26 27  2  0
 28 31  1  0
 28 27  1  0
 29 28  2  0
 30 29  1  0
 30 25  2  0
 31 32  1  0
 32 37  2  0
 32 33  1  0
 33 34  2  0
 35 34  1  0
 35 39  1  0
 36 35  2  0
 37 36  1  0
 38 37  1  0
 40 41  1  0
 41 44  1  0
 41 43  1  0
 42 40  2  0
 45 46  1  0
 45 20  1  0
 47 45  1  0
 48 52  1  0
 50 48  1  0
 50 49  1  0
 51 48  2  0
 52 53  1  0
 54 65  2  0
 55 53  1  0
 55 60  1  0
 56 64  1  0
 56 66  1  0
 57 59  1  0
 58 64  1  0
 59 60  2  0
 59 58  1  0
 61 55  2  0
 62 61  1  0
 62 57  2  0
 63 57  1  0
 63 56  1  0
 64 54  1  0
 66 68  2  0
 67 66  1  0
 69 67  1  0
 70 79  2  0
 70 75  1  0
 71 67  1  0
 71 75  1  0
 72 71  1  0
 73 74  1  0
 73 72  1  0
 74 70  1  0
 75 76  2  0
 76 77  1  0
 78 77  2  0
 79 78  1  0
 80 54  1  0
 80 85  1  0
 80 81  1  0
 81 84  1  1
 81 82  1  0
 83 81  1  0
 85 88  1  0
 86 90  1  0
 86 85  1  0
 87 86  2  0
 90 89  1  0
 92 90  1  0
 92 93  1  0
 92 91  1  0
M  ISO  4  10 100  18 100  52 101  53 101
M  END
>  <TORSDO>  (30) 
F 19

>  <SCORE>  (30) 
-13.125

>  <name>  (30) 
29

>  <ligand_id>  (30) 
29

>  <original_smiles>  (30) 
[H]c1c([H])c([H])c2c(c1[H])C([H])([H])C([H])([H])C([H])([H])C2([H])N([H])C(=O)C1([H])N(C(=O)C([H])(N([H])C(=O)C([H])(N([H])C([H])([H])[H])C([H])([H])[H])C(C([H])([H])[H])(C([H])([H])[H])C([H])([H])[H])C([H])([H])c2c([H])c(OC([H])([H])C(=O)N(C([H])([H])[H])C([H])([H])c3c([H])c(N([H])C(=O)N4C([H])([H])C([H])([H])C([H])([H])C([H])(n5nc(-c6c([H])c([H])c(Oc7c([H])c([H])c(F)c([H])c7F)c([H])c6[H])c(C(=O)N([H])[H])c5N([H])[H])C4([H])[H])c([H])c(F)c3F)c([H])c([H])c2C1([H])[H]

>  <smiles>  (30) 
[H]c1c([H])c([H])c2c(c1[H])C([H])([H])C([H])([H])C([H])([H])C2([H])N([H])C(=O)C1([H])N(C(=O)C([H])(N([H])C(=O)C([H])(N([H])C([H])([H])[H])C([H])([H])[H])C(C([H])([H])[H])(C([H])([H])[H])C([H])([H])[H])C([H])([H])c2c([H])c(OC([H])([H])C(=O)N(C([H])([H])[H])C([H])([H])c3c([H])c(N([H])C(=O)N4C([H])([H])C([H])([H])C([H])([H])C([H])(n5nc(-c6c([H])c([H])c(Oc7c([H])c([H])c(F)c([H])c7F)c([H])c6[H])c(C(=O)N([H])[H])c5N([H])[H])C4([H])[H])c([H])c(F)c3F)c([H])c([H])c2C1([H])[H]

$$$$
30:0:0
     RDKit          3D

 99108  0  0  1  0  0  0  0  0999 V2000
  -29.4560  -20.6010   22.2380 C   0  0  0  0  0  2  0  0  0  0  0  0
  -28.6720  -21.8950   21.9350 C   0  0  0  0  0  2  0  0  0  0  0  0
  -30.5050  -20.5310   21.1280 C   0  0  0  0  0  3  0  0  0  0  0  0
  -29.1460  -22.3790   20.5430 C   0  0  0  0  0  3  0  0  0  0  0  0
  -30.8160  -21.5350   18.8700 C   0  0  0  0  0  1  0  0  0  0  0  0
  -29.8760  -21.2100   19.9710 N   0  0  1  0  0  4  0  0  0  0  0  0
  -29.1880  -20.5700   19.6080 H   0  0  0  0  0  0  0  0  0  0  0  0
  -33.2370  -17.9580   20.3530 C   0  0  0  0  0  3  0  0  0  0  0  0
  -32.5540  -19.1560   20.6030 C   0  0  0  0  0  3  0  0  0  0  0  0
  -32.5310  -16.7440   20.3220 C   0  0  0  0  0  3  0  0  0  0  0  0
  -30.4470  -17.9310   20.7950 C   0  0  0  0  0  3  0  0  0  0  0  0
  -31.1590  -19.1640   20.8410 C   0  0  0  0  0  0  0  0  0  0  0  0
  -31.1280  -16.7190   20.5010 C   0  0  0  0  0  0  0  0  0  0  0  0
  -30.7970  -14.4890   19.5310 C   0  0  0  0  0  0  0  0  0  0  0  0
  -30.4040  -12.2180   18.6560 C   0  0  0  0  0  2  0  0  0  0  0  0
  -29.3480  -12.2160   17.5360 C   0  0  0  0  0  2  0  0  0  0  0  0
  -27.9390  -12.0700   18.1360 C   0  0  0  0  0  2  0  0  0  0  0  0
  -27.6800  -13.0720   19.2930 C   0  0  0  0  0  3  0  0  0  0  0  0
  -28.8450  -13.0720   20.3110 C   0  0  0  0  0  2  0  0  0  0  0  0
  -30.0990  -13.3210   19.5840 N   0  0  0  0  0  0  0  0  0  0  0  0
  -31.7370  -14.6480   18.7490 O   0  0  0  0  0  0  0  0  0  0  0  0
  -30.4230  -15.4830   20.3620 N   0  0  0  0  0  0  0  0  0  0  0  0
  -29.5760  -15.3520   20.8940 H   0  0  0  0  0  0  0  0  0  0  0  0
  -25.4250  -13.7020   20.3660 C   0  0  0  0  0  0  0  0  0  0  0  0
  -24.3910  -12.9390   20.8370 C   0  0  0  0  0  0  0  0  0  0  0  0
  -24.7920  -11.5780   20.6650 C   0  0  0  0  0  0  0  0  0  0  0  0
  -26.3960  -12.8080   19.9420 N   0  0  0  0  0  0  0  0  0  0  0  0
  -26.0240  -11.5220   20.1740 N   0  0  0  0  0  0  0  0  0  0  0  0
  -24.0530  -10.3290   20.8820 C   0  0  0  0  0  0  0  0  0  0  0  0
  -24.4910   -9.3650   21.8180 C   0  0  0  0  0  3  0  0  0  0  0  0
  -23.7520   -8.1800   22.0230 C   0  0  0  0  0  3  0  0  0  0  0  0
  -22.5610   -7.9510   21.2950 C   0  0  0  0  0  0  0  0  0  0  0  0
  -22.1420   -8.9040   20.3500 C   0  0  0  0  0  3  0  0  0  0  0  0
  -22.8810  -10.0790   20.1420 C   0  0  0  0  0  3  0  0  0  0  0  0
  -21.7910   -6.8180   21.4110 O   0  0  0  0  0  0  0  0  0  0  0  0
  -21.6660   -6.1510   22.6030 C   0  0  0  0  0  0  0  0  0  0  0  0
  -21.1390   -6.7750   23.7550 C   0  0  0  0  0  3  0  0  0  0  0  0
  -20.9640   -6.0340   24.9420 C   0  0  0  0  0  3  0  0  0  0  0  0
  -21.3070   -4.6670   24.9760 C   0  0  0  0  0  0  0  0  0  0  0  0
  -21.8290   -4.0440   23.8280 C   0  0  0  0  0  3  0  0  0  0  0  0
  -22.0070   -4.7840   22.6450 C   0  0  0  0  0  0  0  0  0  0  0  0
  -22.4880   -4.1720   21.5370 F   0  0  0  0  0  0  0  0  0  0  0  0
  -21.1330   -3.9530   26.1110 F   0  0  0  0  0  0  0  0  0  0  0  0
  -23.0640  -13.4390   21.3310 C   0  0  0  0  0  0  0  0  0  0  0  0
  -22.4570  -12.7340   22.2790 N   0  0  0  0  0  0  0  0  0  0  0  0
  -22.5810  -14.4890   20.9100 O   0  0  0  0  0  0  0  0  0  0  0  0
  -22.8660  -11.8830   22.6380 H   0  0  0  0  0  0  0  0  0  0  0  0
  -21.5720  -13.0480   22.6490 H   0  0  0  0  0  0  0  0  0  0  0  0
  -25.6170  -15.0750   20.2420 N   0  0  0  0  0  0  0  0  0  0  0  0
  -24.8970  -15.7460   20.4840 H   0  0  0  0  0  0  0  0  0  0  0  0
  -26.4350  -15.5020   19.8250 H   0  0  0  0  0  0  0  0  0  0  0  0
  -28.0130  -22.9280   19.6140 C   0  0  0  0  0  2  0  0  0  0  0  0
  -28.1070  -24.4300   19.1710 C   0  0  0  0  0  3  0  0  0  0  0  0
  -27.5190  -24.6080   17.8190 N   0  0  0  0  0  4  0  0  0  0  0  0
  -26.5690  -24.2800   17.7630 H   0  0  0  0  0  0  0  0  0  0  0  0
  -28.0620  -24.1460   17.1060 H   0  0  0  0  0  0  0  0  0  0  0  0
  -27.5090  -25.5940   17.6050 H   0  0  0  0  0  0  0  0  0  0  0  0
  -27.4550  -25.4690   20.1220 C   0  0  0  0  0  2  0  0  0  0  0  0
  -27.4740  -26.7670   19.4870 O   0  0  0  0  0  0  0  0  0  0  0  0
  -24.7230  -31.9210   23.5500 C   0  0  0  0  0  0  0  0  0  0  0  0
  -26.3970  -27.5980   19.7200 C   0  0  0  0  0  0  0  0  0  0  0  0
  -23.1520  -30.8400   21.9760 C   0  0  0  0  0  3  0  0  0  0  0  0
  -24.2130  -29.3320   20.2090 C   0  0  0  0  0  0  0  0  0  0  0  0
  -25.6540  -30.9610   21.4450 C   0  0  0  0  0  2  0  0  0  0  0  0
  -25.4930  -29.6710   20.6690 C   0  0  0  0  0  0  0  0  0  0  0  0
  -26.5880  -28.8100   20.4220 C   0  0  0  0  0  3  0  0  0  0  0  0
  -25.1040  -27.2800   19.2500 C   0  0  0  0  0  3  0  0  0  0  0  0
  -24.0110  -28.1340   19.5040 C   0  0  0  0  0  3  0  0  0  0  0  0
  -23.0960  -30.3030   20.5210 C   0  0  0  0  0  2  0  0  0  0  0  0
  -24.5390  -31.2470   22.3790 N   0  0  0  0  0  0  0  0  0  0  0  0
  -23.7630  -32.2410   24.2630 O   0  0  0  0  0  0  0  0  0  0  0  0
  -22.5240  -29.7880   22.9160 C   0  0  0  0  0  0  0  0  0  0  0  0
  -21.2190  -29.5260   22.7340 N   0  0  0  0  0  0  0  0  0  0  0  0
  -23.2110  -29.2100   23.7610 O   0  0  0  0  0  0  0  0  0  0  0  0
  -20.7280  -30.0490   22.0210 H   0  0  0  0  0  0  0  0  0  0  0  0
  -17.9840  -27.9170   22.8950 C   0  0  0  0  0  0  0  0  0  0  0  0
  -20.4250  -28.5440   23.4740 C   0  0  0  0  0  3  0  0  0  0  0  0
  -20.7890  -27.1020   23.0510 C   0  0  0  0  0  2  0  0  0  0  0  0
  -19.8920  -26.5570   21.9380 C   0  0  0  0  0  2  0  0  0  0  0  0
  -18.4240  -26.5560   22.3780 C   0  0  0  0  0  2  0  0  0  0  0  0
  -18.9260  -28.8550   23.3940 C   0  0  0  0  0  0  0  0  0  0  0  0
  -18.4720  -30.1180   23.8300 C   0  0  0  0  0  3  0  0  0  0  0  0
  -17.1060  -30.4520   23.7750 C   0  0  0  0  0  3  0  0  0  0  0  0
  -16.1760  -29.5130   23.2970 C   0  0  0  0  0  3  0  0  0  0  0  0
  -16.6130  -28.2470   22.8650 C   0  0  0  0  0  3  0  0  0  0  0  0
  -26.1450  -32.3440   24.0320 C   0  0  0  0  0  3  0  0  0  0  0  0
  -26.0700  -33.7510   24.4460 N   0  0  0  0  0  0  0  0  0  0  0  0
  -26.4910  -34.7850   23.7050 C   0  0  0  0  0  0  0  0  0  0  0  0
  -27.0590  -34.6470   22.6190 O   0  0  0  0  0  0  0  0  0  0  0  0
  -25.5630  -33.9440   25.2980 H   0  0  0  0  0  0  0  0  0  0  0  0
  -25.0320  -36.8290   23.5640 C   0  0  0  0  0  1  0  0  0  0  0  0
  -26.2460  -36.2000   24.2620 C   0  0  0  0  0  3  0  0  0  0  0  0
  -28.5380  -36.7070   24.9830 C   0  0  0  0  0  1  0  0  0  0  0  0
  -27.4150  -37.0950   24.1300 N   0  0  0  0  0  0  0  0  0  0  0  0
  -27.1620  -38.0530   24.3550 H   0  0  0  0  0  0  0  0  0  0  0  0
  -26.7010  -31.4460   25.2030 C   0  0  1  0  0  0  0  0  0  0  0  0
  -25.6930  -31.2380   26.3590 C   0  0  0  0  0  1  0  0  0  0  0  0
  -27.1050  -30.0500   24.6720 C   0  0  0  0  0  1  0  0  0  0  0  0
  -27.9820  -32.0870   25.7930 C   0  0  0  0  0  1  0  0  0  0  0  0
  2  1  1  0
  3 12  1  0
  3  1  1  0
  4 52  1  0
  4  2  1  0
  5  6  1  0
  6  4  1  0
  6  3  1  0
  6  7  1  6
  8  9  1  0
  9 12  2  0
 10  8  2  0
 10 13  1  0
 11 12  1  0
 13 11  2  0
 14 20  1  0
 14 22  1  0
 15 20  1  0
 16 17  1  0
 16 15  1  0
 18 17  1  0
 18 27  1  0
 18 19  1  0
 20 19  1  0
 21 14  2  0
 22 13  1  0
 22 23  1  0
 24 25  2  0
 25 44  1  0
 26 25  1  0
 26 29  1  0
 27 28  1  0
 27 24  1  0
 28 26  2  0
 29 30  1  0
 30 31  2  0
 32 35  1  0
 32 31  1  0
 33 32  2  0
 34 33  1  0
 34 29  2  0
 35 36  1  0
 36 41  2  0
 36 37  1  0
 37 38  2  0
 38 39  1  0
 39 43  1  0
 40 39  2  0
 41 40  1  0
 42 41  1  0
 44 45  1  0
 45 47  1  0
 45 48  1  0
 46 44  2  0
 49 24  1  0
 49 50  1  0
 51 49  1  0
 53 52  1  0
 53 58  1  0
 54 53  1  0
 55 54  1  0
 56 54  1  0
 57 54  1  0
 59 61  1  0
 59 58  1  0
 60 71  2  0
 61 66  1  0
 62 70  1  0
 62 72  1  0
 63 69  1  0
 63 65  1  0
 64 70  1  0
 65 64  1  0
 66 65  2  0
 67 68  1  0
 67 61  2  0
 68 63  2  0
 69 62  1  0
 70 60  1  0
 72 74  2  0
 73 72  1  0
 75 73  1  0
 76 81  1  0
 77 73  1  0
 78 77  1  0
 79 80  1  0
 79 78  1  0
 80 76  1  0
 81 77  1  0
 81 82  2  0
 83 82  1  0
 84 83  2  0
 85 76  2  0
 85 84  1  0
 86 60  1  0
 86 87  1  0
 86 96  1  0
 87 90  1  0
 88 92  1  0
 88 87  1  0
 89 88  2  0
 92 91  1  0
 94 92  1  0
 94 95  1  0
 94 93  1  0
 96 99  1  1
 96 97  1  0
 98 96  1  0
M  ISO  4  14 100  22 100  58 101  59 101
M  END
>  <TORSDO>  (31) 
F 21

>  <SCORE>  (31) 
-11.760

>  <name>  (31) 
30

>  <ligand_id>  (31) 
30

>  <original_smiles>  (31) 
[H]c1c([H])c([H])c2c(c1[H])C([H])([H])C([H])([H])C([H])([H])C2([H])N([H])C(=O)C1([H])N(C(=O)C([H])(N([H])C(=O)C([H])(N([H])C([H])([H])[H])C([H])([H])[H])C(C([H])([H])[H])(C([H])([H])[H])C([H])([H])[H])C([H])([H])c2c([H])c(OC([H])([H])C([H])(C([H])([H])C3([H])C([H])([H])C([H])([H])C([H])(c4c([H])c([H])c([H])c(N([H])C(=O)N5C([H])([H])C([H])([H])C([H])([H])C([H])(n6nc(-c7c([H])c([H])c(Oc8c([H])c([H])c(F)c([H])c8F)c([H])c7[H])c(C(=O)N([H])[H])c6N([H])[H])C5([H])[H])c4[H])[N+]3([H])C([H])([H])[H])[N+]([H])([H])[H])c([H])c([H])c2C1([H])[H]

>  <smiles>  (31) 
[H]c1c([H])c([H])c2c(c1[H])C([H])([H])C([H])([H])C([H])([H])C2([H])N([H])C(=O)C1([H])N(C(=O)C([H])(N([H])C(=O)C([H])(N([H])C([H])([H])[H])C([H])([H])[H])C(C([H])([H])[H])(C([H])([H])[H])C([H])([H])[H])C([H])([H])c2c([H])c(OC([H])([H])C([H])(C([H])([H])C3([H])C([H])([H])C([H])([H])C([H])(c4c([H])c([H])c([H])c(N([H])C(=O)N5C([H])([H])C([H])([H])C([H])([H])C([H])(n6nc(-c7c([H])c([H])c(Oc8c([H])c([H])c(F)c([H])c8F)c([H])c7[H])c(C(=O)N([H])[H])c6N([H])[H])C5([H])[H])c4[H])[N+]3([H])C([H])([H])[H])[N+]([H])([H])[H])c([H])c([H])c2C1([H])[H]

$$$$
31:0:0
     RDKit          3D

 99108  0  0  1  0  0  0  0  0999 V2000
  -31.0150  -21.9520   20.4430 C   0  0  0  0  0  2  0  0  0  0  0  0
  -28.5280  -21.9670   20.1650 C   0  0  0  0  0  2  0  0  0  0  0  0
  -31.1690  -22.4980   19.0080 C   0  0  0  0  0  2  0  0  0  0  0  0
  -28.7000  -22.5160   18.7300 C   0  0  0  0  0  2  0  0  0  0  0  0
  -29.7390  -21.0960   20.5410 C   0  0  0  0  0  3  0  0  0  0  0  0
  -29.9770  -23.2660   18.5550 N   0  0  1  0  0  4  0  0  0  0  0  0
  -30.0920  -23.3900   17.5550 H   0  0  0  0  0  0  0  0  0  0  0  0
  -29.4880  -21.2200   23.0690 C   0  0  0  0  0  1  0  0  0  0  0  0
  -29.5990  -20.4320   21.8420 N   0  0  0  0  0  0  0  0  0  0  0  0
  -32.1600  -17.8350   22.7200 C   0  0  0  0  0  3  0  0  0  0  0  0
  -31.6860  -16.7360   21.9800 C   0  0  0  0  0  3  0  0  0  0  0  0
  -31.4640  -19.0590   22.7040 C   0  0  0  0  0  3  0  0  0  0  0  0
  -29.8080  -18.0890   21.2080 C   0  0  0  0  0  3  0  0  0  0  0  0
  -30.5010  -16.8610   21.2260 C   0  0  0  0  0  0  0  0  0  0  0  0
  -30.2870  -19.2040   21.9320 C   0  0  0  0  0  0  0  0  0  0  0  0
  -30.5500  -14.8860   19.7510 C   0  0  0  0  0  0  0  0  0  0  0  0
  -30.1460  -12.8360   18.4440 C   0  0  0  0  0  2  0  0  0  0  0  0
  -29.0320  -13.0640   17.4030 C   0  0  0  0  0  2  0  0  0  0  0  0
  -27.6370  -12.8500   18.0250 C   0  0  0  0  0  2  0  0  0  0  0  0
  -27.4540  -13.5860   19.3780 C   0  0  0  0  0  3  0  0  0  0  0  0
  -28.6580  -13.3180   20.3050 C   0  0  0  0  0  2  0  0  0  0  0  0
  -29.8780  -13.7210   19.5820 N   0  0  0  0  0  0  0  0  0  0  0  0
  -31.5680  -15.1930   19.1250 O   0  0  0  0  0  0  0  0  0  0  0  0
  -29.9290  -15.7560   20.5540 N   0  0  0  0  0  0  0  0  0  0  0  0
  -28.9770  -15.5280   20.7930 H   0  0  0  0  0  0  0  0  0  0  0  0
  -25.1410  -14.0480   20.4120 C   0  0  0  0  0  0  0  0  0  0  0  0
  -24.1610  -13.2090   20.8710 C   0  0  0  0  0  0  0  0  0  0  0  0
  -24.6710  -11.8830   20.7120 C   0  0  0  0  0  0  0  0  0  0  0  0
  -26.1860  -13.2290   20.0110 N   0  0  0  0  0  0  0  0  0  0  0  0
  -25.9130  -11.9200   20.2450 N   0  0  0  0  0  0  0  0  0  0  0  0
  -24.0320  -10.5800   20.9270 C   0  0  0  0  0  0  0  0  0  0  0  0
  -24.4770   -9.6980   21.9360 C   0  0  0  0  0  3  0  0  0  0  0  0
  -23.8340   -8.4570   22.1350 C   0  0  0  0  0  3  0  0  0  0  0  0
  -22.7350   -8.0880   21.3240 C   0  0  0  0  0  0  0  0  0  0  0  0
  -22.3120   -8.9620   20.3060 C   0  0  0  0  0  3  0  0  0  0  0  0
  -22.9540  -10.1940   20.1070 C   0  0  0  0  0  3  0  0  0  0  0  0
  -22.0660   -6.8920   21.4240 O   0  0  0  0  0  0  0  0  0  0  0  0
  -21.8600   -6.2820   22.6360 C   0  0  0  0  0  0  0  0  0  0  0  0
  -21.1100   -6.9000   23.6610 C   0  0  0  0  0  3  0  0  0  0  0  0
  -20.8660   -6.2130   24.8660 C   0  0  0  0  0  3  0  0  0  0  0  0
  -21.3590   -4.9060   25.0460 C   0  0  0  0  0  0  0  0  0  0  0  0
  -22.0990   -4.2870   24.0240 C   0  0  0  0  0  3  0  0  0  0  0  0
  -22.3480   -4.9730   22.8210 C   0  0  0  0  0  0  0  0  0  0  0  0
  -23.0420   -4.3640   21.8290 F   0  0  0  0  0  0  0  0  0  0  0  0
  -21.1150   -4.2420   26.2000 F   0  0  0  0  0  0  0  0  0  0  0  0
  -22.7890  -13.6020   21.3370 C   0  0  0  0  0  0  0  0  0  0  0  0
  -22.2350  -12.8670   22.2940 N   0  0  0  0  0  0  0  0  0  0  0  0
  -22.2190  -14.5940   20.8860 O   0  0  0  0  0  0  0  0  0  0  0  0
  -22.7160  -12.0680   22.6840 H   0  0  0  0  0  0  0  0  0  0  0  0
  -21.3150  -13.1020   22.6410 H   0  0  0  0  0  0  0  0  0  0  0  0
  -25.2280  -15.4320   20.2790 N   0  0  0  0  0  0  0  0  0  0  0  0
  -24.4660  -16.0540   20.5230 H   0  0  0  0  0  0  0  0  0  0  0  0
  -26.0010  -15.9150   19.8420 H   0  0  0  0  0  0  0  0  0  0  0  0
  -29.9420  -24.6790   19.0090 C   0  0  0  0  0  2  0  0  0  0  0  0
  -29.1940  -25.5490   17.9760 C   0  0  0  0  0  3  0  0  0  0  0  0
  -29.8510  -25.4220   16.7230 O   0  0  0  0  0  0  0  0  0  0  0  0
  -30.5270  -26.0950   16.6740 H   0  0  0  0  0  0  0  0  0  0  0  0
  -29.1460  -27.0400   18.3670 C   0  0  0  0  0  2  0  0  0  0  0  0
  -28.6070  -27.2190   19.6730 O   0  0  0  0  0  0  0  0  0  0  0  0
  -24.5160  -31.7830   23.2490 C   0  0  0  0  0  0  0  0  0  0  0  0
  -27.3880  -27.8450   19.7420 C   0  0  0  0  0  0  0  0  0  0  0  0
  -23.3790  -30.5050   21.4600 C   0  0  0  0  0  3  0  0  0  0  0  0
  -24.9130  -29.1860   19.9000 C   0  0  0  0  0  0  0  0  0  0  0  0
  -25.8810  -31.0010   21.3240 C   0  0  0  0  0  2  0  0  0  0  0  0
  -26.0330  -29.7050   20.5570 C   0  0  0  0  0  0  0  0  0  0  0  0
  -27.2680  -29.0310   20.4930 C   0  0  0  0  0  3  0  0  0  0  0  0
  -26.2520  -27.3200   19.0910 C   0  0  0  0  0  3  0  0  0  0  0  0
  -25.0140  -27.9860   19.1720 C   0  0  0  0  0  3  0  0  0  0  0  0
  -23.6260  -29.9700   20.0210 C   0  0  0  0  0  2  0  0  0  0  0  0
  -24.6080  -31.1060   22.0710 N   0  0  0  0  0  0  0  0  0  0  0  0
  -23.4230  -31.9500   23.8080 O   0  0  0  0  0  0  0  0  0  0  0  0
  -22.7700  -29.3650   22.3070 C   0  0  0  0  0  0  0  0  0  0  0  0
  -21.4490  -29.1590   22.1740 N   0  0  0  0  0  0  0  0  0  0  0  0
  -23.4830  -28.6700   23.0350 O   0  0  0  0  0  0  0  0  0  0  0  0
  -20.9330  -29.7780   21.5650 H   0  0  0  0  0  0  0  0  0  0  0  0
  -18.1090  -27.8670   22.6220 C   0  0  0  0  0  0  0  0  0  0  0  0
  -20.6710  -28.1180   22.8420 C   0  0  0  0  0  3  0  0  0  0  0  0
  -20.7650  -26.7760   22.0800 C   0  0  0  0  0  2  0  0  0  0  0  0
  -19.6340  -26.5780   21.0660 C   0  0  0  0  0  2  0  0  0  0  0  0
  -18.2740  -26.6200   21.7670 C   0  0  0  0  0  2  0  0  0  0  0  0
  -19.2350  -28.5780   23.1130 C   0  0  0  0  0  0  0  0  0  0  0  0
  -19.0280  -29.7530   23.8690 C   0  0  0  0  0  3  0  0  0  0  0  0
  -17.7270  -30.2160   24.1380 C   0  0  0  0  0  3  0  0  0  0  0  0
  -16.6150  -29.4970   23.6660 C   0  0  0  0  0  3  0  0  0  0  0  0
  -16.8080  -28.3250   22.9130 C   0  0  0  0  0  3  0  0  0  0  0  0
  -25.7740  -32.3990   23.9410 C   0  0  0  0  0  3  0  0  0  0  0  0
  -25.4710  -33.8030   24.2370 N   0  0  0  0  0  0  0  0  0  0  0  0
  -25.8930  -34.8440   23.5040 C   0  0  0  0  0  0  0  0  0  0  0  0
  -26.6420  -34.7210   22.5310 O   0  0  0  0  0  0  0  0  0  0  0  0
  -24.8060  -33.9790   24.9760 H   0  0  0  0  0  0  0  0  0  0  0  0
  -24.2580  -36.6820   22.9760 C   0  0  0  0  0  1  0  0  0  0  0  0
  -25.3960  -36.2460   23.9130 C   0  0  0  0  0  3  0  0  0  0  0  0
  -27.4510  -37.0720   24.9710 C   0  0  0  0  0  1  0  0  0  0  0  0
  -26.4630  -37.2700   23.9120 N   0  0  0  0  0  0  0  0  0  0  0  0
  -26.0700  -38.2010   24.0180 H   0  0  0  0  0  0  0  0  0  0  0  0
  -26.2090  -31.6310   25.2490 C   0  0  1  0  0  0  0  0  0  0  0  0
  -25.0460  -31.3960   26.2430 C   0  0  0  0  0  1  0  0  0  0  0  0
  -26.8110  -30.2500   24.8980 C   0  0  0  0  0  1  0  0  0  0  0  0
  -27.3150  -32.4260   25.9820 C   0  0  0  0  0  1  0  0  0  0  0  0
  1  5  1  0
  2  5  1  0
  3  1  1  0
  4  2  1  0
  5  9  1  0
  6  4  1  0
  6  3  1  0
  6 54  1  0
  6  7  1  6
  9 15  1  0
  9  8  1  0
 11 10  2  0
 12 10  1  0
 13 14  2  0
 13 15  1  0
 14 11  1  0
 15 12  2  0
 16 24  1  0
 17 22  1  0
 18 19  1  0
 18 17  1  0
 20 19  1  0
 20 29  1  0
 20 21  1  0
 22 16  1  0
 22 21  1  0
 23 16  2  0
 24 25  1  0
 24 14  1  0
 26 27  2  0
 27 46  1  0
 28 27  1  0
 28 31  1  0
 29 30  1  0
 29 26  1  0
 30 28  2  0
 31 32  1  0
 32 33  2  0
 34 37  1  0
 34 33  1  0
 35 34  2  0
 36 35  1  0
 36 31  2  0
 37 38  1  0
 38 43  2  0
 38 39  1  0
 39 40  2  0
 40 41  1  0
 41 45  1  0
 42 41  2  0
 43 42  1  0
 44 43  1  0
 46 47  1  0
 47 50  1  0
 47 49  1  0
 48 46  2  0
 51 26  1  0
 51 52  1  0
 53 51  1  0
 55 58  1  0
 55 54  1  0
 56 55  1  0
 57 56  1  0
 58 59  1  0
 59 61  1  0
 60 71  2  0
 61 66  1  0
 62 70  1  0
 62 72  1  0
 63 69  1  0
 63 65  1  0
 64 70  1  0
 65 64  1  0
 66 65  2  0
 67 68  1  0
 67 61  2  0
 68 63  2  0
 69 62  1  0
 70 60  1  0
 72 74  2  0
 73 72  1  0
 75 73  1  0
 76 85  2  0
 76 81  1  0
 77 73  1  0
 77 81  1  0
 78 77  1  0
 79 80  1  0
 79 78  1  0
 80 76  1  0
 81 82  2  0
 82 83  1  0
 84 83  2  0
 85 84  1  0
 86 60  1  0
 86 87  1  0
 86 96  1  0
 87 90  1  0
 88 92  1  0
 88 87  1  0
 89 88  2  0
 92 91  1  0
 94 92  1  0
 94 95  1  0
 94 93  1  0
 96 99  1  1
 96 97  1  0
 98 96  1  0
M  ISO  4  16 100  24 100  58 101  59 101
M  END
>  <TORSDO>  (32) 
F 22

>  <SCORE>  (32) 
-9.027

>  <name>  (32) 
31

>  <ligand_id>  (32) 
31

>  <original_smiles>  (32) 
[H]OC([H])(C([H])([H])Oc1c([H])c([H])c2c(c1[H])C([H])([H])N(C(=O)C([H])(N([H])C(=O)C([H])(N([H])C([H])([H])[H])C([H])([H])[H])C(C([H])([H])[H])(C([H])([H])[H])C([H])([H])[H])C([H])(C(=O)N([H])C1([H])c3c([H])c([H])c([H])c([H])c3C([H])([H])C([H])([H])C1([H])[H])C2([H])[H])C([H])([H])[N+]1([H])C([H])([H])C([H])([H])C([H])(N(c2c([H])c([H])c([H])c(N([H])C(=O)N3C([H])([H])C([H])([H])C([H])([H])C([H])(n4nc(-c5c([H])c([H])c(Oc6c([H])c([H])c(F)c([H])c6F)c([H])c5[H])c(C(=O)N([H])[H])c4N([H])[H])C3([H])[H])c2[H])C([H])([H])[H])C([H])([H])C1([H])[H]

>  <smiles>  (32) 
[H]OC([H])(C([H])([H])Oc1c([H])c([H])c2c(c1[H])C([H])([H])N(C(=O)C([H])(N([H])C(=O)C([H])(N([H])C([H])([H])[H])C([H])([H])[H])C(C([H])([H])[H])(C([H])([H])[H])C([H])([H])[H])C([H])(C(=O)N([H])C1([H])c3c([H])c([H])c([H])c([H])c3C([H])([H])C([H])([H])C1([H])[H])C2([H])[H])C([H])([H])[N+]1([H])C([H])([H])C([H])([H])C([H])(N(c2c([H])c([H])c([H])c(N([H])C(=O)N3C([H])([H])C([H])([H])C([H])([H])C([H])(n4nc(-c5c([H])c([H])c(Oc6c([H])c([H])c(F)c([H])c6F)c([H])c5[H])c(C(=O)N([H])[H])c4N([H])[H])C3([H])[H])c2[H])C([H])([H])[H])C([H])([H])C1([H])[H]

$$$$
32:0:0
     RDKit          3D

104114  0  0  1  0  0  0  0  0999 V2000
  -29.4970  -20.1380   20.9010 C   0  0  0  0  0  0  0  0  0  0  0  0
  -30.2320  -19.2690   20.1420 N   0  0  0  0  0  0  0  0  0  0  0  0
  -28.3280  -19.8930   21.2180 O   0  0  0  0  0  0  0  0  0  0  0  0
  -31.2650  -14.7740   20.2510 C   0  0  0  0  0  0  0  0  0  0  0  0
  -31.0280  -12.4650   19.4230 C   0  0  0  0  0  2  0  0  0  0  0  0
  -30.1240  -12.5120   18.1740 C   0  0  0  0  0  2  0  0  0  0  0  0
  -28.6350  -12.4260   18.5710 C   0  0  0  0  0  2  0  0  0  0  0  0
  -28.2600  -13.4170   19.7070 C   0  0  0  0  0  3  0  0  0  0  0  0
  -29.2840  -13.3530   20.8630 C   0  0  0  0  0  2  0  0  0  0  0  0
  -30.6190  -13.5790   20.2910 N   0  0  0  0  0  0  0  0  0  0  0  0
  -32.4440  -14.8870   19.9080 O   0  0  0  0  0  0  0  0  0  0  0  0
  -30.4940  -16.8650   19.1670 C   0  0  0  0  0  2  0  0  0  0  0  0
  -30.4580  -16.9470   21.2280 C   0  0  0  0  0  2  0  0  0  0  0  0
  -29.8180  -17.8280   20.1460 C   0  0  0  0  0  3  0  0  0  0  0  0
  -30.4360  -15.8490   20.2420 N   0  0  0  0  0  0  0  0  0  0  0  0
  -25.9100  -14.1460   20.4540 C   0  0  0  0  0  0  0  0  0  0  0  0
  -24.7950  -13.4270   20.7950 C   0  0  0  0  0  0  0  0  0  0  0  0
  -25.1710  -12.0510   20.7070 C   0  0  0  0  0  0  0  0  0  0  0  0
  -26.8970  -13.2090   20.1820 N   0  0  0  0  0  0  0  0  0  0  0  0
  -26.4550  -11.9420   20.3940 N   0  0  0  0  0  0  0  0  0  0  0  0
  -24.3670  -10.8310   20.8470 C   0  0  0  0  0  0  0  0  0  0  0  0
  -24.7030   -9.8310   21.7880 C   0  0  0  0  0  3  0  0  0  0  0  0
  -23.9040   -8.6740   21.9170 C   0  0  0  0  0  3  0  0  0  0  0  0
  -22.7570   -8.5090   21.1060 C   0  0  0  0  0  0  0  0  0  0  0  0
  -22.4400   -9.4970   20.1570 C   0  0  0  0  0  3  0  0  0  0  0  0
  -23.2380  -10.6450   20.0250 C   0  0  0  0  0  3  0  0  0  0  0  0
  -21.9350   -7.4080   21.1450 O   0  0  0  0  0  0  0  0  0  0  0  0
  -21.7590   -6.6830   22.2960 C   0  0  0  0  0  0  0  0  0  0  0  0
  -21.2280   -7.2640   23.4690 C   0  0  0  0  0  3  0  0  0  0  0  0
  -20.9970   -6.4650   24.6070 C   0  0  0  0  0  3  0  0  0  0  0  0
  -21.2880   -5.0880   24.5720 C   0  0  0  0  0  0  0  0  0  0  0  0
  -21.8110   -4.5070   23.4030 C   0  0  0  0  0  3  0  0  0  0  0  0
  -22.0430   -5.3020   22.2680 C   0  0  0  0  0  0  0  0  0  0  0  0
  -22.5280   -4.7350   21.1360 F   0  0  0  0  0  0  0  0  0  0  0  0
  -21.0590   -4.3180   25.6630 F   0  0  0  0  0  0  0  0  0  0  0  0
  -23.4310  -13.9800   21.0890 C   0  0  0  0  0  0  0  0  0  0  0  0
  -22.6630  -13.3020   21.9340 N   0  0  0  0  0  0  0  0  0  0  0  0
  -23.0570  -15.0480   20.6070 O   0  0  0  0  0  0  0  0  0  0  0  0
  -22.9780  -12.4360   22.3480 H   0  0  0  0  0  0  0  0  0  0  0  0
  -21.7470  -13.6530   22.1700 H   0  0  0  0  0  0  0  0  0  0  0  0
  -26.1620  -15.5080   20.3290 N   0  0  0  0  0  0  0  0  0  0  0  0
  -25.4430  -16.2110   20.4610 H   0  0  0  0  0  0  0  0  0  0  0  0
  -27.0450  -15.8970   20.0230 H   0  0  0  0  0  0  0  0  0  0  0  0
  -32.5980  -19.3620   19.3730 C   0  0  0  0  0  3  0  0  0  0  0  0
  -33.5720  -19.8700   18.4920 C   0  0  0  0  0  3  0  0  0  0  0  0
  -30.9030  -20.7080   18.2530 C   0  0  0  0  0  3  0  0  0  0  0  0
  -31.8840  -21.2500   17.3950 C   0  0  0  0  0  0  0  0  0  0  0  0
  -31.2480  -19.7660   19.2580 C   0  0  0  0  0  0  0  0  0  0  0  0
  -33.2190  -20.8100   17.5070 C   0  0  0  0  0  0  0  0  0  0  0  0
  -34.1640  -21.3250   16.6850 F   0  0  0  0  0  0  0  0  0  0  0  0
  -31.5160  -22.3130   16.3650 C   0  0  0  0  0  2  0  0  0  0  0  0
  -31.9250  -24.5850   15.5060 C   0  0  0  0  0  1  0  0  0  0  0  0
  -31.9870  -24.2050   17.9260 C   0  0  0  0  0  1  0  0  0  0  0  0
  -32.2080  -23.6110   16.5860 N   0  0  1  0  0  4  0  0  0  0  0  0
  -33.1950  -23.3950   16.5280 H   0  0  0  0  0  0  0  0  0  0  0  0
  -30.6080  -21.3800   22.8260 C   0  0  0  0  0  2  0  0  0  0  0  0
  -29.2970  -22.0400   23.2410 C   0  0  0  0  0  2  0  0  0  0  0  0
  -30.1140  -21.4890   21.3830 C   0  0  0  0  0  3  0  0  0  0  0  0
  -29.1180  -22.4930   21.8500 N   0  0  2  0  0  4  0  0  0  0  0  0
  -28.1900  -22.2630   21.5210 H   0  0  0  0  0  0  0  0  0  0  0  0
  -29.4550  -23.9450   21.6650 C   0  0  0  0  0  2  0  0  0  0  0  0
  -28.6320  -24.7100   20.5920 C   0  0  0  0  0  2  0  0  0  0  0  0
  -28.9340  -26.2370   20.6020 C   0  0  0  0  0  2  0  0  0  0  0  0
  -28.4540  -26.9230   19.4410 O   0  0  0  0  0  0  0  0  0  0  0  0
  -24.6860  -31.7380   23.1460 C   0  0  0  0  0  0  0  0  0  0  0  0
  -27.2820  -27.6250   19.6080 C   0  0  0  0  0  0  0  0  0  0  0  0
  -23.4330  -30.4220   21.4670 C   0  0  0  0  0  3  0  0  0  0  0  0
  -24.8510  -29.0410   19.8580 C   0  0  0  0  0  0  0  0  0  0  0  0
  -25.9310  -30.8810   21.1630 C   0  0  0  0  0  2  0  0  0  0  0  0
  -26.0220  -29.5600   20.4250 C   0  0  0  0  0  0  0  0  0  0  0  0
  -27.2440  -28.8560   20.3030 C   0  0  0  0  0  3  0  0  0  0  0  0
  -26.1000  -27.1230   19.0310 C   0  0  0  0  0  3  0  0  0  0  0  0
  -24.8840  -27.8200   19.1600 C   0  0  0  0  0  3  0  0  0  0  0  0
  -23.5880  -29.8520   20.0310 C   0  0  0  0  0  2  0  0  0  0  0  0
  -24.7040  -31.0250   21.9840 N   0  0  0  0  0  0  0  0  0  0  0  0
  -23.6280  -31.9320   23.7620 O   0  0  0  0  0  0  0  0  0  0  0  0
  -22.8680  -29.3100   22.3820 C   0  0  0  0  0  0  0  0  0  0  0  0
  -21.5570  -29.0500   22.2690 N   0  0  0  0  0  0  0  0  0  0  0  0
  -23.6070  -28.6860   23.1490 O   0  0  0  0  0  0  0  0  0  0  0  0
  -21.0190  -29.6100   21.6240 H   0  0  0  0  0  0  0  0  0  0  0  0
  -18.2960  -27.5480   22.6760 C   0  0  0  0  0  0  0  0  0  0  0  0
  -20.8160  -28.0200   22.9990 C   0  0  0  0  0  3  0  0  0  0  0  0
  -21.0520  -26.6220   22.3820 C   0  0  0  0  0  2  0  0  0  0  0  0
  -19.9960  -26.2360   21.3420 C   0  0  0  0  0  2  0  0  0  0  0  0
  -18.5990  -26.2410   21.9670 C   0  0  0  0  0  2  0  0  0  0  0  0
  -19.3360  -28.3920   23.1470 C   0  0  0  0  0  0  0  0  0  0  0  0
  -18.9970  -29.6140   23.7670 C   0  0  0  0  0  3  0  0  0  0  0  0
  -17.6500  -29.9930   23.9250 C   0  0  0  0  0  3  0  0  0  0  0  0
  -16.6250  -29.1450   23.4700 C   0  0  0  0  0  3  0  0  0  0  0  0
  -16.9490  -27.9260   22.8510 C   0  0  0  0  0  3  0  0  0  0  0  0
  -25.9860  -32.3630   23.7420 C   0  0  0  0  0  3  0  0  0  0  0  0
  -25.6700  -33.7420   24.1400 N   0  0  0  0  0  0  0  0  0  0  0  0
  -25.9900  -34.8310   23.4280 C   0  0  0  0  0  0  0  0  0  0  0  0
  -26.6540  -34.7800   22.3890 O   0  0  0  0  0  0  0  0  0  0  0  0
  -25.0780  -33.8550   24.9500 H   0  0  0  0  0  0  0  0  0  0  0  0
  -24.2550  -36.6290   23.1580 C   0  0  0  0  0  1  0  0  0  0  0  0
  -25.4960  -36.1920   23.9520 C   0  0  0  0  0  3  0  0  0  0  0  0
  -27.6200  -37.0480   24.8370 C   0  0  0  0  0  1  0  0  0  0  0  0
  -26.5260  -37.2520   23.8920 N   0  0  0  0  0  0  0  0  0  0  0  0
  -26.1140  -38.1630   24.0770 H   0  0  0  0  0  0  0  0  0  0  0  0
  -26.5640  -31.5480   24.9630 C   0  0  1  0  0  0  0  0  0  0  0  0
  -25.5260  -31.2680   26.0740 C   0  0  0  0  0  1  0  0  0  0  0  0
  -27.1270  -30.1870   24.4880 C   0  0  0  0  0  1  0  0  0  0  0  0
  -27.7480  -32.3170   25.5940 C   0  0  0  0  0  1  0  0  0  0  0  0
  1  3  2  0
  2  1  1  0
  4 10  1  0
  5 10  1  0
  6  7  1  0
  6  5  1  0
  8  7  1  0
  8 19  1  0
  8  9  1  0
 10  9  1  0
 11  4  2  0
 12 14  1  0
 12 15  1  0
 14  2  1  0
 14 13  1  0
 15  4  1  0
 15 13  1  0
 16 17  2  0
 17 36  1  0
 18 17  1  0
 18 21  1  0
 19 20  1  0
 19 16  1  0
 20 18  2  0
 21 22  1  0
 22 23  2  0
 24 27  1  0
 24 23  1  0
 25 24  2  0
 26 25  1  0
 26 21  2  0
 27 28  1  0
 28 29  1  0
 29 30  2  0
 31 30  1  0
 31 35  1  0
 32 31  2  0
 33 28  2  0
 33 32  1  0
 34 33  1  0
 36 37  1  0
 37 40  1  0
 37 39  1  0
 38 36  2  0
 41 16  1  0
 41 42  1  0
 43 41  1  0
 45 44  2  0
 46 48  2  0
 47 49  2  0
 47 46  1  0
 48 44  1  0
 48  2  1  0
 49 45  1  0
 50 49  1  0
 51 54  1  0
 51 47  1  0
 52 54  1  0
 54 53  1  0
 54 55  1  1
 56 57  1  0
 58  1  1  0
 58 59  1  0
 58 56  1  0
 59 57  1  0
 59 60  1  6
 61 59  1  0
 62 63  1  0
 62 61  1  0
 64 66  1  0
 64 63  1  0
 65 76  2  0
 66 71  1  0
 67 75  1  0
 67 77  1  0
 68 74  1  0
 68 70  1  0
 69 75  1  0
 70 69  1  0
 71 70  2  0
 72 73  1  0
 72 66  2  0
 73 68  2  0
 74 67  1  0
 75 65  1  0
 77 79  2  0
 78 77  1  0
 80 78  1  0
 81 90  2  0
 81 86  1  0
 82 78  1  0
 82 86  1  0
 83 82  1  0
 84 85  1  0
 84 83  1  0
 85 81  1  0
 86 87  2  0
 87 88  1  0
 89 88  2  0
 90 89  1  0
 91 65  1  0
 91 92  1  0
 91101  1  0
 92 95  1  0
 93 97  1  0
 93 92  1  0
 94 93  2  0
 97 96  1  0
 99 97  1  0
 99100  1  0
 99 98  1  0
101104  1  1
101102  1  0
103101  1  0
M  ISO  4   4 100  15 100  63 101  64 101
M  END
>  <TORSDO>  (33) 
F 23

>  <SCORE>  (33) 
-11.896

>  <name>  (33) 
32

>  <ligand_id>  (33) 
32

>  <original_smiles>  (33) 
[H]c1c([H])c([H])c2c(c1[H])C([H])([H])C([H])([H])C([H])([H])C2([H])N([H])C(=O)C1([H])N(C(=O)C([H])(N([H])C(=O)C([H])(N([H])C([H])([H])[H])C([H])([H])[H])C(C([H])([H])[H])(C([H])([H])[H])C([H])([H])[H])C([H])([H])c2c([H])c(OC([H])([H])C([H])([H])C([H])([H])[N+]3([H])C([H])([H])C([H])([H])C3([H])C(=O)N(c3c([H])c([H])c(F)c(C([H])([H])[N+]([H])(C([H])([H])[H])C([H])([H])[H])c3[H])C3([H])C([H])([H])N(C(=O)N4C([H])([H])C([H])([H])C([H])([H])C([H])(n5nc(-c6c([H])c([H])c(Oc7c([H])c([H])c(F)c([H])c7F)c([H])c6[H])c(C(=O)N([H])[H])c5N([H])[H])C4([H])[H])C3([H])[H])c([H])c([H])c2C1([H])[H]

>  <smiles>  (33) 
[H]c1c([H])c([H])c2c(c1[H])C([H])([H])C([H])([H])C([H])([H])C2([H])N([H])C(=O)C1([H])N(C(=O)C([H])(N([H])C(=O)C([H])(N([H])C([H])([H])[H])C([H])([H])[H])C(C([H])([H])[H])(C([H])([H])[H])C([H])([H])[H])C([H])([H])c2c([H])c(OC([H])([H])C([H])([H])C([H])([H])[N+]3([H])C([H])([H])C([H])([H])C3([H])C(=O)N(c3c([H])c([H])c(F)c(C([H])([H])[N+]([H])(C([H])([H])[H])C([H])([H])[H])c3[H])C3([H])C([H])([H])N(C(=O)N4C([H])([H])C([H])([H])C([H])([H])C([H])(n5nc(-c6c([H])c([H])c(Oc7c([H])c([H])c(F)c([H])c7F)c([H])c6[H])c(C(=O)N([H])[H])c5N([H])[H])C4([H])[H])C3([H])[H])c([H])c([H])c2C1([H])[H]

$$$$
33:0:0
     RDKit          3D

100108  0  0  1  0  0  0  0  0999 V2000
  -29.1420  -20.7300   19.8570 C   0  0  0  0  0  2  0  0  0  0  0  0
  -32.4670  -18.7360   20.1460 C   0  0  0  0  0  3  0  0  0  0  0  0
  -32.0100  -17.4540   20.5060 C   0  0  0  0  0  3  0  0  0  0  0  0
  -29.7330  -18.2380   20.3150 C   0  0  0  0  0  3  0  0  0  0  0  0
  -31.5710  -19.7750   19.8210 C   0  0  0  0  0  0  0  0  0  0  0  0
  -30.1760  -19.5710   20.0160 C   0  0  0  0  0  0  0  0  0  0  0  0
  -30.6310  -17.1400   20.5070 C   0  0  0  0  0  0  0  0  0  0  0  0
  -30.7750  -14.6210   20.3000 C   0  0  0  0  0  0  0  0  0  0  0  0
  -30.3970  -12.4540   19.1940 C   0  0  0  0  0  2  0  0  0  0  0  0
  -29.4540  -12.6440   17.9900 C   0  0  0  0  0  2  0  0  0  0  0  0
  -27.9830  -12.5010   18.4230 C   0  0  0  0  0  2  0  0  0  0  0  0
  -27.6460  -13.3330   19.6910 C   0  0  0  0  0  3  0  0  0  0  0  0
  -28.7200  -13.1950   20.7970 C   0  0  0  0  0  2  0  0  0  0  0  0
  -30.0360  -13.4730   20.2010 N   0  0  0  0  0  0  0  0  0  0  0  0
  -31.9270  -14.6530   19.8740 O   0  0  0  0  0  0  0  0  0  0  0  0
  -30.1520  -15.7740   20.6900 N   0  0  0  0  0  0  0  0  0  0  0  0
  -29.1890  -15.6670   20.9620 H   0  0  0  0  0  0  0  0  0  0  0  0
  -25.2550  -13.9000   20.4370 C   0  0  0  0  0  0  0  0  0  0  0  0
  -24.1980  -13.1190   20.8170 C   0  0  0  0  0  0  0  0  0  0  0  0
  -24.6680  -11.7700   20.7710 C   0  0  0  0  0  0  0  0  0  0  0  0
  -26.3050  -13.0310   20.1900 N   0  0  0  0  0  0  0  0  0  0  0  0
  -25.9580  -11.7450   20.4520 N   0  0  0  0  0  0  0  0  0  0  0  0
  -23.9500  -10.4990   20.9670 C   0  0  0  0  0  0  0  0  0  0  0  0
  -24.3910   -9.5420   21.9090 C   0  0  0  0  0  3  0  0  0  0  0  0
  -23.6750   -8.3370   22.0890 C   0  0  0  0  0  3  0  0  0  0  0  0
  -22.5070   -8.0830   21.3300 C   0  0  0  0  0  0  0  0  0  0  0  0
  -22.0860   -9.0340   20.3840 C   0  0  0  0  0  3  0  0  0  0  0  0
  -22.8000  -10.2310   20.2000 C   0  0  0  0  0  3  0  0  0  0  0  0
  -21.7580   -6.9340   21.4220 O   0  0  0  0  0  0  0  0  0  0  0  0
  -21.7050   -6.1990   22.5790 C   0  0  0  0  0  0  0  0  0  0  0  0
  -21.2440   -6.7500   23.7950 C   0  0  0  0  0  3  0  0  0  0  0  0
  -21.1440   -5.9410   24.9430 C   0  0  0  0  0  3  0  0  0  0  0  0
  -21.4920   -4.5780   24.8750 C   0  0  0  0  0  0  0  0  0  0  0  0
  -21.9400   -4.0230   23.6620 C   0  0  0  0  0  3  0  0  0  0  0  0
  -22.0440   -4.8310   22.5180 C   0  0  0  0  0  0  0  0  0  0  0  0
  -22.4610   -4.2890   21.3510 F   0  0  0  0  0  0  0  0  0  0  0  0
  -21.3860   -3.7980   25.9740 F   0  0  0  0  0  0  0  0  0  0  0  0
  -22.7980  -13.5880   21.0970 C   0  0  0  0  0  0  0  0  0  0  0  0
  -22.0750  -12.8820   21.9590 N   0  0  0  0  0  0  0  0  0  0  0  0
  -22.3490  -14.6110   20.5830 O   0  0  0  0  0  0  0  0  0  0  0  0
  -22.4440  -12.0530   22.4060 H   0  0  0  0  0  0  0  0  0  0  0  0
  -21.1350  -13.1750   22.1730 H   0  0  0  0  0  0  0  0  0  0  0  0
  -25.4040  -15.2730   20.2600 N   0  0  0  0  0  0  0  0  0  0  0  0
  -24.6180  -15.9100   20.3330 H   0  0  0  0  0  0  0  0  0  0  0  0
  -26.2550  -15.7230   19.9490 H   0  0  0  0  0  0  0  0  0  0  0  0
  -32.1560  -21.0740   19.2640 C   0  0  0  0  0  2  0  0  0  0  0  0
  -32.6050  -22.4990   17.3120 C   0  0  0  0  0  1  0  0  0  0  0  0
  -33.0250  -20.0920   17.1380 C   0  0  0  0  0  1  0  0  0  0  0  0
  -32.2040  -21.1490   17.7760 N   0  0  1  0  0  4  0  0  0  0  0  0
  -31.2660  -21.0040   17.4320 H   0  0  0  0  0  0  0  0  0  0  0  0
  -29.3290  -21.3220   22.2540 C   0  0  0  0  0  1  0  0  0  0  0  0
  -29.0770  -21.8050   20.8960 N   0  0  0  0  0  0  0  0  0  0  0  0
  -29.5100  -23.2250   20.7280 C   0  0  0  0  0  2  0  0  0  0  0  0
  -28.4260  -24.2750   20.3010 C   0  0  0  0  0  3  0  0  0  0  0  0
  -28.3010  -24.2980   18.8310 N   0  0  0  0  0  4  0  0  0  0  0  0
  -29.1940  -24.1570   18.3920 H   0  0  0  0  0  0  0  0  0  0  0  0
  -27.9680  -25.2030   18.5390 H   0  0  0  0  0  0  0  0  0  0  0  0
  -27.6560  -23.6000   18.5030 H   0  0  0  0  0  0  0  0  0  0  0  0
  -28.7910  -25.7100   20.8180 C   0  0  0  0  0  2  0  0  0  0  0  0
  -28.4140  -26.7950   19.9440 O   0  0  0  0  0  0  0  0  0  0  0  0
  -24.6010  -31.9140   23.2220 C   0  0  0  0  0  0  0  0  0  0  0  0
  -27.2240  -27.4650   20.1270 C   0  0  0  0  0  0  0  0  0  0  0  0
  -23.3860  -30.5140   21.5840 C   0  0  0  0  0  3  0  0  0  0  0  0
  -24.8270  -28.9740   20.1580 C   0  0  0  0  0  0  0  0  0  0  0  0
  -25.9080  -30.8780   21.3630 C   0  0  0  0  0  2  0  0  0  0  0  0
  -25.9910  -29.5000   20.7370 C   0  0  0  0  0  0  0  0  0  0  0  0
  -27.1920  -28.7520   20.7190 C   0  0  0  0  0  3  0  0  0  0  0  0
  -26.0370  -26.9440   19.5680 C   0  0  0  0  0  3  0  0  0  0  0  0
  -24.8450  -27.6920   19.5790 C   0  0  0  0  0  3  0  0  0  0  0  0
  -23.5910  -29.8410   20.2010 C   0  0  0  0  0  2  0  0  0  0  0  0
  -24.6520  -31.1190   22.1150 N   0  0  0  0  0  0  0  0  0  0  0  0
  -23.5250  -32.1800   23.7720 O   0  0  0  0  0  0  0  0  0  0  0  0
  -22.7460  -29.4880   22.5460 C   0  0  0  0  0  0  0  0  0  0  0  0
  -21.4210  -29.2980   22.4280 N   0  0  0  0  0  0  0  0  0  0  0  0
  -23.4380  -28.8650   23.3580 O   0  0  0  0  0  0  0  0  0  0  0  0
  -20.9240  -29.8510   21.7420 H   0  0  0  0  0  0  0  0  0  0  0  0
  -18.0590  -28.0680   22.9330 C   0  0  0  0  0  0  0  0  0  0  0  0
  -20.6160  -28.3530   23.2020 C   0  0  0  0  0  3  0  0  0  0  0  0
  -20.7320  -26.9230   22.6260 C   0  0  0  0  0  2  0  0  0  0  0  0
  -19.6300  -26.5860   21.6160 C   0  0  0  0  0  2  0  0  0  0  0  0
  -18.2470  -26.7200   22.2600 C   0  0  0  0  0  2  0  0  0  0  0  0
  -19.1710  -28.8400   23.3620 C   0  0  0  0  0  0  0  0  0  0  0  0
  -18.9400  -30.1020   23.9560 C   0  0  0  0  0  3  0  0  0  0  0  0
  -17.6310  -30.5920   24.1210 C   0  0  0  0  0  3  0  0  0  0  0  0
  -16.5340  -29.8180   23.7060 C   0  0  0  0  0  3  0  0  0  0  0  0
  -16.7480  -28.5570   23.1210 C   0  0  0  0  0  3  0  0  0  0  0  0
  -25.8930  -32.5450   23.8320 C   0  0  0  0  0  3  0  0  0  0  0  0
  -26.4180  -31.7750   25.1050 C   0  0  1  0  0  0  0  0  0  0  0  0
  -25.3310  -31.5390   26.1800 C   0  0  0  0  0  1  0  0  0  0  0  0
  -27.0030  -30.4000   24.7050 C   0  0  0  0  0  1  0  0  0  0  0  0
  -27.5740  -32.5690   25.7590 C   0  0  0  0  0  1  0  0  0  0  0  0
  -25.5890  -33.9420   24.1650 N   0  0  0  0  0  0  0  0  0  0  0  0
  -25.9170  -34.9940   23.4010 C   0  0  0  0  0  0  0  0  0  0  0  0
  -26.5770  -34.8880   22.3630 O   0  0  0  0  0  0  0  0  0  0  0  0
  -25.0060  -34.1000   24.9740 H   0  0  0  0  0  0  0  0  0  0  0  0
  -24.1960  -36.7910   23.0370 C   0  0  0  0  0  1  0  0  0  0  0  0
  -25.4300  -36.3820   23.8580 C   0  0  0  0  0  3  0  0  0  0  0  0
  -27.5590  -37.2570   24.7090 C   0  0  0  0  0  1  0  0  0  0  0  0
  -26.4670  -37.4330   23.7540 N   0  0  0  0  0  0  0  0  0  0  0  0
  -26.0620  -38.3530   23.9040 H   0  0  0  0  0  0  0  0  0  0  0  0
  1  6  1  0
  1 52  1  0
  2  3  1  0
  3  7  2  0
  4  7  1  0
  5  6  1  0
  5  2  2  0
  6  4  2  0
  7 16  1  0
  8 16  1  0
  9 14  1  0
 10 11  1  0
 10  9  1  0
 12 11  1  0
 12 21  1  0
 12 13  1  0
 14  8  1  0
 14 13  1  0
 15  8  2  0
 16 17  1  0
 18 19  2  0
 19 38  1  0
 20 19  1  0
 20 23  1  0
 21 18  1  0
 21 22  1  0
 22 20  2  0
 23 24  1  0
 24 25  2  0
 26 29  1  0
 26 25  1  0
 27 26  2  0
 28 27  1  0
 28 23  2  0
 29 30  1  0
 30 31  1  0
 31 32  2  0
 33 32  1  0
 33 37  1  0
 34 33  2  0
 35 30  2  0
 35 34  1  0
 36 35  1  0
 38 39  1  0
 39 42  1  0
 39 41  1  0
 40 38  2  0
 43 44  1  0
 43 18  1  0
 45 43  1  0
 46  5  1  0
 47 49  1  0
 48 49  1  0
 49 46  1  0
 49 50  1  6
 52 51  1  0
 53 52  1  0
 54 53  1  0
 54 59  1  0
 55 54  1  0
 56 55  1  0
 57 55  1  0
 58 55  1  0
 60 62  1  0
 60 59  1  0
 61 72  2  0
 62 67  1  0
 63 71  1  0
 63 73  1  0
 64 70  1  0
 64 66  1  0
 65 71  1  0
 66 65  1  0
 67 66  2  0
 68 69  1  0
 68 62  2  0
 69 64  2  0
 70 63  1  0
 71 61  1  0
 73 75  2  0
 74 73  1  0
 76 74  1  0
 77 86  2  0
 77 82  1  0
 78 74  1  0
 78 82  1  0
 79 78  1  0
 80 81  1  0
 80 79  1  0
 81 77  1  0
 82 83  2  0
 83 84  1  0
 85 84  2  0
 86 85  1  0
 87 61  1  0
 87 92  1  0
 87 88  1  0
 88 91  1  1
 88 89  1  0
 90 88  1  0
 92 95  1  0
 93 97  1  0
 93 92  1  0
 94 93  2  0
 97 96  1  0
 99 97  1  0
 99100  1  0
 99 98  1  0
M  ISO  4   8 100  16 100  59 101  60 101
M  END
>  <TORSDO>  (34) 
F 24

>  <SCORE>  (34) 
-12.821

>  <name>  (34) 
33

>  <ligand_id>  (34) 
33

>  <original_smiles>  (34) 
[H]c1c([H])c([H])c2c(c1[H])C([H])([H])C([H])([H])C([H])([H])C2([H])N([H])C(=O)C1([H])N(C(=O)C([H])(N([H])C(=O)C([H])(N([H])C([H])([H])[H])C([H])([H])[H])C(C([H])([H])[H])(C([H])([H])[H])C([H])([H])[H])C([H])([H])c2c([H])c(OC([H])([H])C([H])(C([H])([H])N(C([H])([H])[H])C([H])([H])c3c([H])c(N([H])C(=O)N4C([H])([H])C([H])([H])C([H])([H])C([H])(n5nc(-c6c([H])c([H])c(Oc7c([H])c([H])c(F)c([H])c7F)c([H])c6[H])c(C(=O)N([H])[H])c5N([H])[H])C4([H])[H])c([H])c([H])c3C([H])([H])[N+]([H])(C([H])([H])[H])C([H])([H])[H])[N+]([H])([H])[H])c([H])c([H])c2C1([H])[H]

>  <smiles>  (34) 
[H]c1c([H])c([H])c2c(c1[H])C([H])([H])C([H])([H])C([H])([H])C2([H])N([H])C(=O)C1([H])N(C(=O)C([H])(N([H])C(=O)C([H])(N([H])C([H])([H])[H])C([H])([H])[H])C(C([H])([H])[H])(C([H])([H])[H])C([H])([H])[H])C([H])([H])c2c([H])c(OC([H])([H])C([H])(C([H])([H])N(C([H])([H])[H])C([H])([H])c3c([H])c(N([H])C(=O)N4C([H])([H])C([H])([H])C([H])([H])C([H])(n5nc(-c6c([H])c([H])c(Oc7c([H])c([H])c(F)c([H])c7F)c([H])c6[H])c(C(=O)N([H])[H])c5N([H])[H])C4([H])[H])c([H])c([H])c3C([H])([H])[N+]([H])(C([H])([H])[H])C([H])([H])[H])[N+]([H])([H])[H])c([H])c([H])c2C1([H])[H]

$$$$
34:0:0
     RDKit          3D

 98106  0  0  1  0  0  0  0  0999 V2000
  -29.0400  -17.1960   19.7920 C   0  0  0  0  0  3  0  0  0  0  0  0
  -31.0350  -18.3640   19.0910 C   0  0  0  0  0  3  0  0  0  0  0  0
  -28.9660  -19.6550   19.2530 C   0  0  0  0  0  0  0  0  0  0  0  0
  -30.4210  -17.0710   19.5600 C   0  0  0  0  0  0  0  0  0  0  0  0
  -28.3260  -18.4020   19.5730 C   0  0  0  0  0  0  0  0  0  0  0  0
  -30.3840  -19.7220   18.9680 C   0  0  0  0  0  0  0  0  0  0  0  0
  -31.5420  -14.6450   20.4110 C   0  0  0  0  0  0  0  0  0  0  0  0
  -31.4930  -12.1020   20.3240 C   0  0  0  0  0  2  0  0  0  0  0  0
  -30.7350  -11.5620   19.0900 C   0  0  0  0  0  2  0  0  0  0  0  0
  -29.2150  -11.5190   19.3500 C   0  0  0  0  0  2  0  0  0  0  0  0
  -28.6860  -12.8140   20.0160 C   0  0  0  0  0  3  0  0  0  0  0  0
  -29.5620  -13.2490   21.2060 C   0  0  0  0  0  2  0  0  0  0  0  0
  -30.9080  -13.4310   20.6580 N   0  0  0  0  0  0  0  0  0  0  0  0
  -32.7730  -14.6350   20.5300 O   0  0  0  0  0  0  0  0  0  0  0  0
  -30.9420  -15.6130   19.5300 N   0  0  0  0  0  0  0  0  0  0  0  0
  -30.7260  -15.1550   18.6530 H   0  0  0  0  0  0  0  0  0  0  0  0
  -26.3290  -13.7230   20.3920 C   0  0  0  0  0  0  0  0  0  0  0  0
  -25.1450  -13.1180   20.6950 C   0  0  0  0  0  0  0  0  0  0  0  0
  -25.4450  -11.7340   20.8720 C   0  0  0  0  0  0  0  0  0  0  0  0
  -27.2800  -12.7220   20.3800 N   0  0  0  0  0  0  0  0  0  0  0  0
  -26.7510  -11.5220   20.7430 N   0  0  0  0  0  0  0  0  0  0  0  0
  -24.5580  -10.5860   21.0900 C   0  0  0  0  0  0  0  0  0  0  0  0
  -24.8480   -9.5940   22.0540 C   0  0  0  0  0  3  0  0  0  0  0  0
  -23.9640   -8.5120   22.2580 C   0  0  0  0  0  3  0  0  0  0  0  0
  -22.7740   -8.4140   21.4970 C   0  0  0  0  0  0  0  0  0  0  0  0
  -22.5030   -9.3890   20.5240 C   0  0  0  0  0  3  0  0  0  0  0  0
  -23.3850  -10.4620   20.3190 C   0  0  0  0  0  3  0  0  0  0  0  0
  -21.8740   -7.3830   21.6070 O   0  0  0  0  0  0  0  0  0  0  0  0
  -21.7820   -6.6290   22.7490 C   0  0  0  0  0  0  0  0  0  0  0  0
  -21.5260   -7.2130   24.0090 C   0  0  0  0  0  3  0  0  0  0  0  0
  -21.3710   -6.3920   25.1450 C   0  0  0  0  0  3  0  0  0  0  0  0
  -21.4640   -4.9910   25.0220 C   0  0  0  0  0  0  0  0  0  0  0  0
  -21.7140   -4.4110   23.7660 C   0  0  0  0  0  3  0  0  0  0  0  0
  -21.8700   -5.2280   22.6330 C   0  0  0  0  0  0  0  0  0  0  0  0
  -22.0910   -4.6630   21.4220 F   0  0  0  0  0  0  0  0  0  0  0  0
  -21.3060   -4.2020   26.1090 F   0  0  0  0  0  0  0  0  0  0  0  0
  -23.7940  -13.7710   20.7220 C   0  0  0  0  0  0  0  0  0  0  0  0
  -22.9040  -13.3000   21.5830 N   0  0  0  0  0  0  0  0  0  0  0  0
  -23.5390  -14.7420   20.0060 O   0  0  0  0  0  0  0  0  0  0  0  0
  -23.1240  -12.5180   22.1830 H   0  0  0  0  0  0  0  0  0  0  0  0
  -21.9920  -13.7310   21.6440 H   0  0  0  0  0  0  0  0  0  0  0  0
  -26.6810  -15.0360   20.0970 N   0  0  0  0  0  0  0  0  0  0  0  0
  -25.9900  -15.7710   20.0570 H   0  0  0  0  0  0  0  0  0  0  0  0
  -27.6270  -15.3640   19.9400 H   0  0  0  0  0  0  0  0  0  0  0  0
  -28.0780  -20.8870   19.2460 C   0  0  0  0  0  0  0  0  0  0  0  0
  -27.5960  -21.3360   18.0830 N   0  0  0  0  0  0  0  0  0  0  0  0
  -27.7230  -21.4080   20.3070 O   0  0  0  0  0  0  0  0  0  0  0  0
  -27.8120  -20.8640   17.2180 H   0  0  0  0  0  0  0  0  0  0  0  0
  -26.9350  -22.1000   18.0770 H   0  0  0  0  0  0  0  0  0  0  0  0
  -26.2300  -18.1920   20.8620 C   0  0  0  0  0  1  0  0  0  0  0  0
  -26.2130  -18.1200   18.3050 C   0  0  0  0  0  1  0  0  0  0  0  0
  -26.9180  -18.2690   19.5800 N   0  0  0  0  0  0  0  0  0  0  0  0
  -31.4480  -20.8190   17.0300 C   0  0  0  0  0  1  0  0  0  0  0  0
  -30.9930  -20.9980   18.4030 N   0  0  0  0  0  0  0  0  0  0  0  0
  -31.9790  -22.3120   20.3490 C   0  0  0  0  0  1  0  0  0  0  0  0
  -31.3410  -22.4480   18.9620 C   0  0  0  0  0  3  0  0  0  0  0  0
  -30.3450  -23.8640   18.8180 C   0  0  0  0  0  2  0  0  0  0  0  0
  -30.6450  -25.4040   19.1140 O   0  0  0  0  0  0  0  0  0  0  0  0
  -26.9620  -29.5500   24.0530 C   0  0  0  0  0  0  0  0  0  0  0  0
  -29.6050  -26.3740   19.4350 C   0  0  0  0  0  0  0  0  0  0  0  0
  -25.7920  -28.8890   21.9920 C   0  0  0  0  0  3  0  0  0  0  0  0
  -27.2680  -28.0180   20.0680 C   0  0  0  0  0  0  0  0  0  0  0  0
  -28.3390  -29.2350   21.9510 C   0  0  0  0  0  2  0  0  0  0  0  0
  -28.4420  -28.1960   20.8070 C   0  0  0  0  0  0  0  0  0  0  0  0
  -29.6140  -27.4010   20.4750 C   0  0  0  0  0  3  0  0  0  0  0  0
  -28.3970  -26.3230   18.7040 C   0  0  0  0  0  3  0  0  0  0  0  0
  -27.2640  -27.1120   18.9990 C   0  0  0  0  0  3  0  0  0  0  0  0
  -26.0310  -28.8140   20.4580 C   0  0  0  0  0  2  0  0  0  0  0  0
  -27.0540  -29.2260   22.7260 N   0  0  0  0  0  0  0  0  0  0  0  0
  -25.8660  -29.5820   24.6410 O   0  0  0  0  0  0  0  0  0  0  0  0
  -25.1360  -27.5710   22.4740 C   0  0  0  0  0  0  0  0  0  0  0  0
  -23.8560  -27.3610   22.1170 N   0  0  0  0  0  0  0  0  0  0  0  0
  -25.7810  -26.7660   23.1520 O   0  0  0  0  0  0  0  0  0  0  0  0
  -23.3960  -28.0810   21.5690 H   0  0  0  0  0  0  0  0  0  0  0  0
  -20.6810  -25.6770   21.5690 C   0  0  0  0  0  0  0  0  0  0  0  0
  -23.0660  -26.1710   22.4410 C   0  0  0  0  0  3  0  0  0  0  0  0
  -23.5070  -24.9710   21.5710 C   0  0  0  0  0  2  0  0  0  0  0  0
  -22.6690  -24.7940   20.3020 C   0  0  0  0  0  2  0  0  0  0  0  0
  -21.2030  -24.5720   20.6650 C   0  0  0  0  0  2  0  0  0  0  0  0
  -21.5540  -26.4270   22.4030 C   0  0  0  0  0  0  0  0  0  0  0  0
  -21.0160  -27.4450   23.2160 C   0  0  0  0  0  3  0  0  0  0  0  0
  -19.6330  -27.7020   23.2360 C   0  0  0  0  0  3  0  0  0  0  0  0
  -18.7710  -26.9490   22.4170 C   0  0  0  0  0  3  0  0  0  0  0  0
  -19.2970  -25.9490   21.5880 C   0  0  0  0  0  3  0  0  0  0  0  0
  -28.2200  -29.9250   24.8910 C   0  0  0  0  0  3  0  0  0  0  0  0
  -27.9340  -31.1880   25.5990 N   0  0  0  0  0  0  0  0  0  0  0  0
  -28.5260  -32.3590   25.3410 C   0  0  0  0  0  0  0  0  0  0  0  0
  -29.4320  -32.4730   24.5110 O   0  0  0  0  0  0  0  0  0  0  0  0
  -27.1650  -31.1800   26.2500 H   0  0  0  0  0  0  0  0  0  0  0  0
  -27.2110  -34.5000   25.2040 C   0  0  0  0  0  1  0  0  0  0  0  0
  -28.0440  -33.5960   26.1260 C   0  0  0  0  0  3  0  0  0  0  0  0
  -29.8220  -33.6820   27.8200 C   0  0  0  0  0  1  0  0  0  0  0  0
  -29.1460  -34.3810   26.7270 N   0  0  0  0  0  0  0  0  0  0  0  0
  -28.8030  -35.2700   27.0830 H   0  0  0  0  0  0  0  0  0  0  0  0
  -28.6360  -28.8040   25.9230 C   0  0  1  0  0  0  0  0  0  0  0  0
  -27.4760  -28.3460   26.8360 C   0  0  0  0  0  1  0  0  0  0  0  0
  -29.1690  -27.5560   25.1820 C   0  0  0  0  0  1  0  0  0  0  0  0
  -29.7840  -29.3130   26.8230 C   0  0  0  0  0  1  0  0  0  0  0  0
  2  4  1  0
  3  5  2  0
  4  1  2  0
  5 52  1  0
  5  1  1  0
  6  2  2  0
  6  3  1  0
  7 14  2  0
  7 13  1  0
  8 13  1  0
  9 10  1  0
  9  8  1  0
 11 10  1  0
 11 20  1  0
 11 12  1  0
 13 12  1  0
 15  4  1  0
 15  7  1  0
 16 15  1  0
 17 18  2  0
 18 37  1  0
 18 19  1  0
 19 22  1  0
 20 17  1  0
 20 21  1  0
 21 19  2  0
 22 23  1  0
 23 24  2  0
 25 28  1  0
 25 24  1  0
 26 25  2  0
 27 26  1  0
 27 22  2  0
 28 29  1  0
 29 30  1  0
 30 31  2  0
 32 31  1  0
 32 36  1  0
 33 32  2  0
 34 29  2  0
 34 33  1  0
 35 34  1  0
 37 38  1  0
 38 41  1  0
 38 40  1  0
 39 37  2  0
 42 17  1  0
 43 42  1  0
 44 42  1  0
 45  3  1  0
 45 47  2  0
 46 45  1  0
 48 46  1  0
 49 46  1  0
 51 52  1  0
 52 50  1  0
 53 54  1  0
 54 56  1  0
 54  6  1  0
 56 55  1  0
 57 56  1  0
 57 58  1  0
 58 60  1  0
 59 70  2  0
 60 65  1  0
 61 71  1  0
 61 69  1  0
 62 68  1  0
 62 64  1  0
 63 69  1  0
 64 63  1  0
 65 64  2  0
 66 67  1  0
 66 60  2  0
 67 62  2  0
 68 61  1  0
 69 59  1  0
 71 73  2  0
 72 71  1  0
 74 72  1  0
 75 84  2  0
 75 80  1  0
 76 72  1  0
 77 76  1  0
 78 79  1  0
 78 77  1  0
 79 75  1  0
 80 76  1  0
 80 81  2  0
 81 82  1  0
 83 82  2  0
 84 83  1  0
 85 59  1  0
 85 86  1  0
 85 95  1  0
 86 89  1  0
 87 86  1  0
 87 91  1  0
 88 87  2  0
 91 90  1  0
 91 93  1  0
 93 94  1  0
 93 92  1  0
 95 98  1  1
 95 96  1  0
 97 95  1  0
M  ISO  4   7 100  15 100  57 101  58 101
M  END
>  <TORSDO>  (35) 
F 21

>  <SCORE>  (35) 
-7.945

>  <name>  (35) 
34

>  <ligand_id>  (35) 
34

>  <original_smiles>  (35) 
[H]c1c([H])c([H])c2c(c1[H])C([H])([H])C([H])([H])C([H])([H])C2([H])N([H])C(=O)C1([H])N(C(=O)C([H])(N([H])C(=O)C([H])(N([H])C([H])([H])[H])C([H])([H])[H])C(C([H])([H])[H])(C([H])([H])[H])C([H])([H])[H])C([H])([H])c2c([H])c(OC([H])([H])C([H])(N(c3c([H])c(N([H])C(=O)N4C([H])([H])C([H])([H])C([H])([H])C([H])(n5nc(-c6c([H])c([H])c(Oc7c([H])c([H])c(F)c([H])c7F)c([H])c6[H])c(C(=O)N([H])[H])c5N([H])[H])C4([H])[H])c([H])c(N(C([H])([H])[H])C([H])([H])[H])c3C(=O)N([H])[H])C([H])([H])[H])C([H])([H])[H])c([H])c([H])c2C1([H])[H]

>  <smiles>  (35) 
[H]c1c([H])c([H])c2c(c1[H])C([H])([H])C([H])([H])C([H])([H])C2([H])N([H])C(=O)C1([H])N(C(=O)C([H])(N([H])C(=O)C([H])(N([H])C([H])([H])[H])C([H])([H])[H])C(C([H])([H])[H])(C([H])([H])[H])C([H])([H])[H])C([H])([H])c2c([H])c(OC([H])([H])C([H])(N(c3c([H])c(N([H])C(=O)N4C([H])([H])C([H])([H])C([H])([H])C([H])(n5nc(-c6c([H])c([H])c(Oc7c([H])c([H])c(F)c([H])c7F)c([H])c6[H])c(C(=O)N([H])[H])c5N([H])[H])C4([H])[H])c([H])c(N(C([H])([H])[H])C([H])([H])[H])c3C(=O)N([H])[H])C([H])([H])[H])C([H])([H])[H])c([H])c([H])c2C1([H])[H]

$$$$
35:0:0
     RDKit          3D

 94103  0  0  1  0  0  0  0  0999 V2000
  -28.7890  -24.6590   19.0490 C   0  0  0  0  0  0  0  0  0  0  0  0
  -30.0580  -21.2850   18.0440 C   0  0  0  0  0  2  0  0  0  0  0  0
  -29.2470  -21.0440   20.3350 C   0  0  0  0  0  2  0  0  0  0  0  0
  -29.3490  -22.6230   17.8540 C   0  0  0  0  0  2  0  0  0  0  0  0
  -28.6570  -22.4850   20.2910 C   0  0  0  0  0  2  0  0  0  0  0  0
  -29.2580  -20.3430   18.9630 C   0  0  0  0  0  3  0  0  0  0  0  0
  -29.0000  -23.3140   19.1060 N   0  0  0  0  0  0  0  0  0  0  0  0
  -28.9480  -25.3040   18.0050 O   0  0  0  0  0  0  0  0  0  0  0  0
  -30.8440  -17.1390   17.5710 C   0  0  0  0  0  3  0  0  0  0  0  0
  -30.2510  -18.4010   17.6770 C   0  0  0  0  0  3  0  0  0  0  0  0
  -30.9270  -16.3150   18.6980 C   0  0  0  0  0  3  0  0  0  0  0  0
  -29.8090  -18.0140   20.0440 C   0  0  0  0  0  3  0  0  0  0  0  0
  -29.7900  -18.8940   18.9210 C   0  0  0  0  0  0  0  0  0  0  0  0
  -30.3590  -16.7060   19.9360 C   0  0  0  0  0  0  0  0  0  0  0  0
  -31.0350  -14.6490   21.0920 C   0  0  0  0  0  0  0  0  0  0  0  0
  -30.8280  -12.4310   20.0860 C   0  0  0  0  0  2  0  0  0  0  0  0
  -30.0240  -12.5620   18.7750 C   0  0  0  0  0  2  0  0  0  0  0  0
  -28.5120  -12.4690   19.0480 C   0  0  0  0  0  2  0  0  0  0  0  0
  -28.0460  -13.3750   20.2190 C   0  0  0  0  0  3  0  0  0  0  0  0
  -28.9750  -13.2360   21.4480 C   0  0  0  0  0  2  0  0  0  0  0  0
  -30.3550  -13.4760   21.0050 N   0  0  0  0  0  0  0  0  0  0  0  0
  -32.2530  -14.7370   20.9300 O   0  0  0  0  0  0  0  0  0  0  0  0
  -30.2750  -15.7620   21.0180 N   0  0  0  0  0  0  0  0  0  0  0  0
  -29.3620  -15.6850   21.4410 H   0  0  0  0  0  0  0  0  0  0  0  0
  -25.5880  -14.0130   20.6450 C   0  0  0  0  0  0  0  0  0  0  0  0
  -24.4810  -13.2540   20.9120 C   0  0  0  0  0  0  0  0  0  0  0  0
  -24.9350  -11.9010   20.9690 C   0  0  0  0  0  0  0  0  0  0  0  0
  -26.6480  -13.1230   20.5580 N   0  0  0  0  0  0  0  0  0  0  0  0
  -26.2510  -11.8500   20.8170 N   0  0  0  0  0  0  0  0  0  0  0  0
  -24.1860  -10.6440   21.1040 C   0  0  0  0  0  0  0  0  0  0  0  0
  -24.5320   -9.6810   22.0760 C   0  0  0  0  0  3  0  0  0  0  0  0
  -23.7840   -8.4900   22.2000 C   0  0  0  0  0  3  0  0  0  0  0  0
  -22.6780   -8.2540   21.3500 C   0  0  0  0  0  0  0  0  0  0  0  0
  -22.3520   -9.2060   20.3690 C   0  0  0  0  0  3  0  0  0  0  0  0
  -23.0990  -10.3880   20.2450 C   0  0  0  0  0  3  0  0  0  0  0  0
  -21.9100   -7.1150   21.3830 O   0  0  0  0  0  0  0  0  0  0  0  0
  -21.7720   -6.3720   22.5290 C   0  0  0  0  0  0  0  0  0  0  0  0
  -21.2710   -6.9300   23.7250 C   0  0  0  0  0  3  0  0  0  0  0  0
  -21.0830   -6.1140   24.8590 C   0  0  0  0  0  3  0  0  0  0  0  0
  -21.3840   -4.7400   24.7960 C   0  0  0  0  0  0  0  0  0  0  0  0
  -21.8750   -4.1810   23.6030 C   0  0  0  0  0  3  0  0  0  0  0  0
  -22.0660   -4.9950   22.4720 C   0  0  0  0  0  0  0  0  0  0  0  0
  -22.5180   -4.4470   21.3190 F   0  0  0  0  0  0  0  0  0  0  0  0
  -21.1960   -3.9520   25.8810 F   0  0  0  0  0  0  0  0  0  0  0  0
  -23.0640  -13.7410   21.0060 C   0  0  0  0  0  0  0  0  0  0  0  0
  -22.2390  -13.0750   21.8070 N   0  0  0  0  0  0  0  0  0  0  0  0
  -22.6930  -14.7460   20.4020 O   0  0  0  0  0  0  0  0  0  0  0  0
  -22.5480  -12.2590   22.3140 H   0  0  0  0  0  0  0  0  0  0  0  0
  -21.2840  -13.3890   21.9160 H   0  0  0  0  0  0  0  0  0  0  0  0
  -25.7790  -15.3760   20.4450 N   0  0  0  0  0  0  0  0  0  0  0  0
  -25.0070  -16.0340   20.4450 H   0  0  0  0  0  0  0  0  0  0  0  0
  -26.6580  -15.8000   20.1750 H   0  0  0  0  0  0  0  0  0  0  0  0
  -28.3360  -25.4280   20.3050 C   0  0  0  0  0  2  0  0  0  0  0  0
  -28.3520  -26.8470   20.0750 O   0  0  0  0  0  0  0  0  0  0  0  0
  -24.5590  -31.9440   23.2200 C   0  0  0  0  0  0  0  0  0  0  0  0
  -27.1540  -27.5270   20.0840 C   0  0  0  0  0  0  0  0  0  0  0  0
  -23.3200  -30.5420   21.6010 C   0  0  0  0  0  3  0  0  0  0  0  0
  -24.7470  -29.0080   20.1450 C   0  0  0  0  0  0  0  0  0  0  0  0
  -25.8350  -30.9160   21.3440 C   0  0  0  0  0  2  0  0  0  0  0  0
  -25.9130  -29.5460   20.7020 C   0  0  0  0  0  0  0  0  0  0  0  0
  -27.1180  -28.8130   20.6650 C   0  0  0  0  0  3  0  0  0  0  0  0
  -25.9710  -26.9980   19.5190 C   0  0  0  0  0  3  0  0  0  0  0  0
  -24.7710  -27.7340   19.5490 C   0  0  0  0  0  3  0  0  0  0  0  0
  -23.5000  -29.8610   20.2170 C   0  0  0  0  0  2  0  0  0  0  0  0
  -24.5910  -31.1470   22.1140 N   0  0  0  0  0  0  0  0  0  0  0  0
  -23.4900  -32.2100   23.7870 O   0  0  0  0  0  0  0  0  0  0  0  0
  -22.6950  -29.5170   22.5730 C   0  0  0  0  0  0  0  0  0  0  0  0
  -21.3710  -29.3180   22.4620 N   0  0  0  0  0  0  0  0  0  0  0  0
  -23.3940  -28.9030   23.3820 O   0  0  0  0  0  0  0  0  0  0  0  0
  -20.8670  -29.8660   21.7770 H   0  0  0  0  0  0  0  0  0  0  0  0
  -18.0220  -28.0670   22.9740 C   0  0  0  0  0  0  0  0  0  0  0  0
  -20.5730  -28.3730   23.2430 C   0  0  0  0  0  3  0  0  0  0  0  0
  -20.7020  -26.9390   22.6800 C   0  0  0  0  0  2  0  0  0  0  0  0
  -19.6060  -26.5860   21.6700 C   0  0  0  0  0  2  0  0  0  0  0  0
  -18.2220  -26.7140   22.3140 C   0  0  0  0  0  2  0  0  0  0  0  0
  -19.1260  -28.8530   23.3960 C   0  0  0  0  0  0  0  0  0  0  0  0
  -18.8860  -30.1200   23.9720 C   0  0  0  0  0  3  0  0  0  0  0  0
  -17.5720  -30.6010   24.1320 C   0  0  0  0  0  3  0  0  0  0  0  0
  -16.4820  -29.8110   23.7280 C   0  0  0  0  0  3  0  0  0  0  0  0
  -16.7070  -28.5470   23.1550 C   0  0  0  0  0  3  0  0  0  0  0  0
  -25.8570  -32.5750   23.8140 C   0  0  0  0  0  3  0  0  0  0  0  0
  -25.5540  -33.9700   24.1550 N   0  0  0  0  0  0  0  0  0  0  0  0
  -25.8900  -35.0260   23.4030 C   0  0  0  0  0  0  0  0  0  0  0  0
  -26.5630  -34.9290   22.3720 O   0  0  0  0  0  0  0  0  0  0  0  0
  -24.9590  -34.1220   24.9580 H   0  0  0  0  0  0  0  0  0  0  0  0
  -24.1750  -36.8300   23.0520 C   0  0  0  0  0  1  0  0  0  0  0  0
  -25.4070  -36.4130   23.8700 C   0  0  0  0  0  3  0  0  0  0  0  0
  -27.5430  -37.2760   24.7190 C   0  0  0  0  0  1  0  0  0  0  0  0
  -26.4440  -37.4630   23.7730 N   0  0  0  0  0  0  0  0  0  0  0  0
  -26.0420  -38.3820   23.9330 H   0  0  0  0  0  0  0  0  0  0  0  0
  -26.4080  -31.7990   25.0740 C   0  0  1  0  0  0  0  0  0  0  0  0
  -25.3420  -31.5530   26.1680 C   0  0  0  0  0  1  0  0  0  0  0  0
  -26.9830  -30.4250   24.6580 C   0  0  0  0  0  1  0  0  0  0  0  0
  -27.5720  -32.5920   25.7110 C   0  0  0  0  0  1  0  0  0  0  0  0
  1  7  1  0
  1 53  1  0
  2  6  1  0
  4  2  1  0
  4  7  1  0
  5  3  1  0
  6 13  1  0
  6  3  1  0
  7  5  1  0
  8  1  2  0
  9 10  2  0
  9 11  1  0
 10 13  1  0
 11 14  2  0
 13 12  2  0
 14 12  1  0
 14 23  1  0
 16 21  1  0
 17 18  1  0
 17 16  1  0
 19 18  1  0
 19 28  1  0
 19 20  1  0
 21 15  1  0
 21 20  1  0
 22 15  2  0
 23 15  1  0
 23 24  1  0
 25 26  2  0
 26 27  1  0
 26 45  1  0
 27 30  1  0
 28 25  1  0
 28 29  1  0
 29 27  2  0
 30 31  1  0
 31 32  2  0
 33 36  1  0
 33 32  1  0
 34 33  2  0
 35 34  1  0
 35 30  2  0
 36 37  1  0
 37 38  1  0
 38 39  2  0
 40 39  1  0
 40 44  1  0
 41 40  2  0
 42 37  2  0
 42 41  1  0
 43 42  1  0
 45 46  1  0
 46 49  1  0
 46 48  1  0
 47 45  2  0
 50 25  1  0
 51 50  1  0
 52 50  1  0
 54 56  1  0
 54 53  1  0
 55 66  2  0
 56 61  1  0
 57 65  1  0
 57 67  1  0
 58 64  1  0
 58 60  1  0
 59 65  1  0
 60 59  1  0
 61 60  2  0
 62 63  1  0
 62 56  2  0
 63 58  2  0
 64 57  1  0
 65 55  1  0
 67 69  2  0
 68 67  1  0
 70 68  1  0
 71 80  2  0
 71 76  1  0
 72 68  1  0
 72 76  1  0
 73 72  1  0
 74 75  1  0
 74 73  1  0
 75 71  1  0
 76 77  2  0
 77 78  1  0
 79 78  2  0
 80 79  1  0
 81 55  1  0
 81 82  1  0
 81 91  1  0
 82 85  1  0
 83 87  1  0
 83 82  1  0
 84 83  2  0
 87 86  1  0
 89 87  1  0
 89 90  1  0
 89 88  1  0
 91 94  1  1
 91 92  1  0
 93 91  1  0
M  ISO  4  15 100  23 100  53 101  54 101
M  END
>  <TORSDO>  (36) 
F 18

>  <SCORE>  (36) 
-14.048

>  <name>  (36) 
35

>  <ligand_id>  (36) 
35

>  <original_smiles>  (36) 
[H]c1c([H])c([H])c2c(c1[H])C([H])([H])C([H])([H])C([H])([H])C2([H])N([H])C(=O)C1([H])N(C(=O)C([H])(N([H])C(=O)C([H])(N([H])C([H])([H])[H])C([H])([H])[H])C(C([H])([H])[H])(C([H])([H])[H])C([H])([H])[H])C([H])([H])c2c([H])c(OC([H])([H])C(=O)N3C([H])([H])C([H])([H])C([H])(c4c([H])c([H])c([H])c(N([H])C(=O)N5C([H])([H])C([H])([H])C([H])([H])C([H])(n6nc(-c7c([H])c([H])c(Oc8c([H])c([H])c(F)c([H])c8F)c([H])c7[H])c(C(=O)N([H])[H])c6N([H])[H])C5([H])[H])c4[H])C([H])([H])C3([H])[H])c([H])c([H])c2C1([H])[H]

>  <smiles>  (36) 
[H]c1c([H])c([H])c2c(c1[H])C([H])([H])C([H])([H])C([H])([H])C2([H])N([H])C(=O)C1([H])N(C(=O)C([H])(N([H])C(=O)C([H])(N([H])C([H])([H])[H])C([H])([H])[H])C(C([H])([H])[H])(C([H])([H])[H])C([H])([H])[H])C([H])([H])c2c([H])c(OC([H])([H])C(=O)N3C([H])([H])C([H])([H])C([H])(c4c([H])c([H])c([H])c(N([H])C(=O)N5C([H])([H])C([H])([H])C([H])([H])C([H])(n6nc(-c7c([H])c([H])c(Oc8c([H])c([H])c(F)c([H])c8F)c([H])c7[H])c(C(=O)N([H])[H])c6N([H])[H])C5([H])[H])c4[H])C([H])([H])C3([H])[H])c([H])c([H])c2C1([H])[H]

$$$$
36:0:0
     RDKit          3D

 99108  0  0  1  0  0  0  0  0999 V2000
  -29.6440  -23.7240   19.6990 C   0  0  0  0  0  2  0  0  0  0  0  0
  -30.6230  -24.4270   21.7570 C   0  0  0  0  0  2  0  0  0  0  0  0
  -30.8710  -22.8110   19.9610 C   0  0  0  0  0  3  0  0  0  0  0  0
  -29.8900  -25.0140   20.5260 C   0  0  1  0  0  0  0  0  0  0  0  0
  -30.8420  -25.9860   19.7880 C   0  0  0  0  0  1  0  0  0  0  0  0
  -32.7760  -23.1730   21.5280 C   0  0  0  0  0  1  0  0  0  0  0  0
  -31.3080  -23.1760   21.3320 N   0  0  1  0  0  4  0  0  0  0  0  0
  -30.9280  -22.4310   21.9010 H   0  0  0  0  0  0  0  0  0  0  0  0
  -30.5820  -21.2860   19.9360 C   0  0  0  0  0  0  0  0  0  0  0  0
  -31.1780  -20.5080   18.9960 N   0  0  0  0  0  0  0  0  0  0  0  0
  -29.8400  -20.8340   20.8120 O   0  0  0  0  0  0  0  0  0  0  0  0
  -31.6690  -21.0070   18.2640 H   0  0  0  0  0  0  0  0  0  0  0  0
  -31.4440  -18.5180   17.5950 C   0  0  0  0  0  3  0  0  0  0  0  0
  -31.0730  -16.2770   18.4650 C   0  0  0  0  0  3  0  0  0  0  0  0
  -30.9080  -18.1850   19.9640 C   0  0  0  0  0  3  0  0  0  0  0  0
  -31.3810  -17.1230   17.3890 C   0  0  0  0  0  0  0  0  0  0  0  0
  -31.1520  -19.0730   18.8700 C   0  0  0  0  0  0  0  0  0  0  0  0
  -30.9130  -16.7760   19.7730 C   0  0  0  0  0  0  0  0  0  0  0  0
  -31.6400  -16.5010   16.0280 C   0  0  0  0  0  1  0  0  0  0  0  0
  -31.4650  -14.6730   20.8500 C   0  0  0  0  0  0  0  0  0  0  0  0
  -31.1660  -12.4050   19.9500 C   0  0  0  0  0  2  0  0  0  0  0  0
  -30.4000  -12.4970   18.6150 C   0  0  0  0  0  2  0  0  0  0  0  0
  -28.8740  -12.5650   18.8490 C   0  0  0  0  0  2  0  0  0  0  0  0
  -28.4370  -13.5070   20.0100 C   0  0  0  0  0  3  0  0  0  0  0  0
  -29.3490  -13.3480   21.2470 C   0  0  0  0  0  2  0  0  0  0  0  0
  -30.7360  -13.5250   20.8000 N   0  0  0  0  0  0  0  0  0  0  0  0
  -32.6780  -14.7050   20.6340 O   0  0  0  0  0  0  0  0  0  0  0  0
  -30.7560  -15.8260   20.8410 N   0  0  0  0  0  0  0  0  0  0  0  0
  -29.8220  -15.7540   21.2200 H   0  0  0  0  0  0  0  0  0  0  0  0
  -26.0230  -14.2840   20.4630 C   0  0  0  0  0  0  0  0  0  0  0  0
  -24.8720  -13.5910   20.7270 C   0  0  0  0  0  0  0  0  0  0  0  0
  -25.2430  -12.2110   20.7650 C   0  0  0  0  0  0  0  0  0  0  0  0
  -27.0270  -13.3300   20.3490 N   0  0  0  0  0  0  0  0  0  0  0  0
  -26.5530  -12.0810   20.5910 N   0  0  0  0  0  0  0  0  0  0  0  0
  -24.4180  -11.0050   20.8900 C   0  0  0  0  0  0  0  0  0  0  0  0
  -24.7290   -9.9910   21.8240 C   0  0  0  0  0  3  0  0  0  0  0  0
  -23.9150   -8.8440   21.9350 C   0  0  0  0  0  3  0  0  0  0  0  0
  -22.7690   -8.7030   21.1170 C   0  0  0  0  0  0  0  0  0  0  0  0
  -22.4750   -9.7050   20.1750 C   0  0  0  0  0  3  0  0  0  0  0  0
  -23.2910  -10.8430   20.0620 C   0  0  0  0  0  3  0  0  0  0  0  0
  -21.9290   -7.6150   21.1440 O   0  0  0  0  0  0  0  0  0  0  0  0
  -21.7940   -6.8420   22.2690 C   0  0  0  0  0  0  0  0  0  0  0  0
  -21.3920   -7.3890   23.5080 C   0  0  0  0  0  3  0  0  0  0  0  0
  -21.1960   -6.5430   24.6190 C   0  0  0  0  0  3  0  0  0  0  0  0
  -21.3880   -5.1530   24.4910 C   0  0  0  0  0  0  0  0  0  0  0  0
  -21.7820   -4.6080   23.2550 C   0  0  0  0  0  3  0  0  0  0  0  0
  -21.9770   -5.4500   22.1480 C   0  0  0  0  0  0  0  0  0  0  0  0
  -22.3350   -4.9180   20.9550 F   0  0  0  0  0  0  0  0  0  0  0  0
  -21.1950   -4.3380   25.5540 F   0  0  0  0  0  0  0  0  0  0  0  0
  -23.4890  -14.1630   20.8430 C   0  0  0  0  0  0  0  0  0  0  0  0
  -22.6350  -13.5400   21.6480 N   0  0  0  0  0  0  0  0  0  0  0  0
  -23.1710  -15.1960   20.2560 O   0  0  0  0  0  0  0  0  0  0  0  0
  -22.9030  -12.7050   22.1480 H   0  0  0  0  0  0  0  0  0  0  0  0
  -21.7050  -13.9170   21.7720 H   0  0  0  0  0  0  0  0  0  0  0  0
  -26.2930  -15.6360   20.2830 N   0  0  0  0  0  0  0  0  0  0  0  0
  -25.5630  -16.3410   20.2880 H   0  0  0  0  0  0  0  0  0  0  0  0
  -27.1920  -16.0010   20.0010 H   0  0  0  0  0  0  0  0  0  0  0  0
  -28.5820  -25.7900   20.9210 C   0  0  0  0  0  2  0  0  0  0  0  0
  -28.1400  -26.6570   19.8690 O   0  0  0  0  0  0  0  0  0  0  0  0
  -24.4900  -31.8570   23.2300 C   0  0  0  0  0  0  0  0  0  0  0  0
  -26.9790  -27.3740   20.0610 C   0  0  0  0  0  0  0  0  0  0  0  0
  -23.2080  -30.4800   21.6250 C   0  0  0  0  0  3  0  0  0  0  0  0
  -24.5960  -28.9050   20.1660 C   0  0  0  0  0  0  0  0  0  0  0  0
  -25.7340  -30.7900   21.3530 C   0  0  0  0  0  2  0  0  0  0  0  0
  -25.7810  -29.4130   20.7170 C   0  0  0  0  0  0  0  0  0  0  0  0
  -26.9750  -28.6540   20.6680 C   0  0  0  0  0  3  0  0  0  0  0  0
  -25.7780  -26.8780   19.5190 C   0  0  0  0  0  3  0  0  0  0  0  0
  -24.5860  -27.6320   19.5720 C   0  0  0  0  0  3  0  0  0  0  0  0
  -23.3690  -29.7910   20.2430 C   0  0  0  0  0  2  0  0  0  0  0  0
  -24.4980  -31.0570   22.1260 N   0  0  0  0  0  0  0  0  0  0  0  0
  -23.4320  -32.1490   23.8060 O   0  0  0  0  0  0  0  0  0  0  0  0
  -22.5700  -29.4700   22.6060 C   0  0  0  0  0  0  0  0  0  0  0  0
  -21.2460  -29.2780   22.4890 N   0  0  0  0  0  0  0  0  0  0  0  0
  -23.2620  -28.8610   23.4260 O   0  0  0  0  0  0  0  0  0  0  0  0
  -20.7460  -29.8240   21.8000 H   0  0  0  0  0  0  0  0  0  0  0  0
  -17.8950  -28.0150   22.9730 C   0  0  0  0  0  0  0  0  0  0  0  0
  -20.4400  -28.3450   23.2770 C   0  0  0  0  0  3  0  0  0  0  0  0
  -20.5870  -26.8980   22.7530 C   0  0  0  0  0  2  0  0  0  0  0  0
  -19.5100  -26.5150   21.7320 C   0  0  0  0  0  2  0  0  0  0  0  0
  -18.1160  -26.6480   22.3490 C   0  0  0  0  0  2  0  0  0  0  0  0
  -18.9870  -28.8180   23.3940 C   0  0  0  0  0  0  0  0  0  0  0  0
  -18.7300  -30.0950   23.9370 C   0  0  0  0  0  3  0  0  0  0  0  0
  -17.4120  -30.5690   24.0660 C   0  0  0  0  0  3  0  0  0  0  0  0
  -16.3330  -29.7650   23.6610 C   0  0  0  0  0  3  0  0  0  0  0  0
  -16.5740  -28.4910   23.1200 C   0  0  0  0  0  3  0  0  0  0  0  0
  -25.8080  -32.4630   23.8080 C   0  0  0  0  0  3  0  0  0  0  0  0
  -26.3610  -31.6730   25.0580 C   0  0  1  0  0  0  0  0  0  0  0  0
  -25.3090  -31.4430   26.1650 C   0  0  0  0  0  1  0  0  0  0  0  0
  -26.9100  -30.2900   24.6340 C   0  0  0  0  0  1  0  0  0  0  0  0
  -27.5450  -32.4460   25.6850 C   0  0  0  0  0  1  0  0  0  0  0  0
  -25.5310  -33.8620   24.1580 N   0  0  0  0  0  0  0  0  0  0  0  0
  -25.8720  -34.9170   23.4060 C   0  0  0  0  0  0  0  0  0  0  0  0
  -26.5250  -34.8130   22.3630 O   0  0  0  0  0  0  0  0  0  0  0  0
  -24.9490  -34.0200   24.9680 H   0  0  0  0  0  0  0  0  0  0  0  0
  -24.1740  -36.7480   23.1020 C   0  0  0  0  0  1  0  0  0  0  0  0
  -25.4190  -36.3080   23.8880 C   0  0  0  0  0  3  0  0  0  0  0  0
  -27.5850  -37.1410   24.6910 C   0  0  0  0  0  1  0  0  0  0  0  0
  -26.4690  -37.3440   23.7720 N   0  0  0  0  0  0  0  0  0  0  0  0
  -26.0830  -38.2680   23.9420 H   0  0  0  0  0  0  0  0  0  0  0  0
  1  3  1  0
  1  4  1  0
  3  9  1  0
  3  7  1  0
  4  5  1  6
  4 58  1  0
  4  2  1  0
  7  6  1  0
  7  2  1  0
  7  8  1  1
  9 11  2  0
 10  9  1  0
 12 10  1  0
 13 17  1  0
 14 18  2  0
 16 13  2  0
 16 14  1  0
 17 10  1  0
 17 15  2  0
 18 15  1  0
 18 28  1  0
 19 16  1  0
 21 26  1  0
 22 23  1  0
 22 21  1  0
 24 23  1  0
 24 33  1  0
 24 25  1  0
 26 20  1  0
 26 25  1  0
 27 20  2  0
 28 20  1  0
 28 29  1  0
 30 31  2  0
 31 32  1  0
 31 50  1  0
 32 35  1  0
 33 30  1  0
 33 34  1  0
 34 32  2  0
 35 36  1  0
 36 37  2  0
 38 41  1  0
 38 37  1  0
 39 38  2  0
 40 39  1  0
 40 35  2  0
 41 42  1  0
 42 43  1  0
 43 44  2  0
 45 44  1  0
 45 49  1  0
 46 45  2  0
 47 42  2  0
 47 46  1  0
 48 47  1  0
 50 51  1  0
 51 54  1  0
 51 53  1  0
 52 50  2  0
 55 56  1  0
 55 30  1  0
 57 55  1  0
 59 61  1  0
 59 58  1  0
 60 71  2  0
 61 66  1  0
 62 70  1  0
 62 72  1  0
 63 69  1  0
 63 65  1  0
 64 70  1  0
 65 64  1  0
 66 65  2  0
 67 68  1  0
 67 61  2  0
 68 63  2  0
 69 62  1  0
 70 60  1  0
 72 74  2  0
 73 72  1  0
 75 73  1  0
 76 85  2  0
 76 81  1  0
 77 73  1  0
 77 81  1  0
 78 77  1  0
 79 80  1  0
 79 78  1  0
 80 76  1  0
 81 82  2  0
 82 83  1  0
 84 83  2  0
 85 84  1  0
 86 60  1  0
 86 91  1  0
 86 87  1  0
 87 90  1  1
 87 88  1  0
 89 87  1  0
 91 94  1  0
 92 96  1  0
 92 91  1  0
 93 92  2  0
 96 95  1  0
 98 96  1  0
 98 99  1  0
 98 97  1  0
M  ISO  4  20 100  28 100  58 101  59 101
M  END
>  <TORSDO>  (37) 
F 19

>  <SCORE>  (37) 
-11.495

>  <name>  (37) 
36

>  <ligand_id>  (37) 
36

>  <original_smiles>  (37) 
[H]c1c([H])c([H])c2c(c1[H])C([H])([H])C([H])([H])C([H])([H])C2([H])N([H])C(=O)C1([H])N(C(=O)C([H])(N([H])C(=O)C([H])(N([H])C([H])([H])[H])C([H])([H])[H])C(C([H])([H])[H])(C([H])([H])[H])C([H])([H])[H])C([H])([H])c2c([H])c(OC([H])([H])C3(C([H])([H])[H])C([H])([H])C([H])(C(=O)N([H])c4c([H])c(N([H])C(=O)N5C([H])([H])C([H])([H])C([H])([H])C([H])(n6nc(-c7c([H])c([H])c(Oc8c([H])c([H])c(F)c([H])c8F)c([H])c7[H])c(C(=O)N([H])[H])c6N([H])[H])C5([H])[H])c([H])c(C([H])([H])[H])c4[H])[N+]([H])(C([H])([H])[H])C3([H])[H])c([H])c([H])c2C1([H])[H]

>  <smiles>  (37) 
[H]c1c([H])c([H])c2c(c1[H])C([H])([H])C([H])([H])C([H])([H])C2([H])N([H])C(=O)C1([H])N(C(=O)C([H])(N([H])C(=O)C([H])(N([H])C([H])([H])[H])C([H])([H])[H])C(C([H])([H])[H])(C([H])([H])[H])C([H])([H])[H])C([H])([H])c2c([H])c(OC([H])([H])C3(C([H])([H])[H])C([H])([H])C([H])(C(=O)N([H])c4c([H])c(N([H])C(=O)N5C([H])([H])C([H])([H])C([H])([H])C([H])(n6nc(-c7c([H])c([H])c(Oc8c([H])c([H])c(F)c([H])c8F)c([H])c7[H])c(C(=O)N([H])[H])c6N([H])[H])C5([H])[H])c([H])c(C([H])([H])[H])c4[H])[N+]([H])(C([H])([H])[H])C3([H])[H])c([H])c([H])c2C1([H])[H]

$$$$
37:0:0
     RDKit          3D

 98106  0  0  1  0  0  0  0  0999 V2000
  -29.1880  -22.7240   20.7460 C   0  0  0  0  0  0  0  0  0  0  0  0
  -28.9180  -21.4900   20.1990 N   0  0  0  0  0  0  0  0  0  0  0  0
  -30.0010  -22.8460   21.6640 O   0  0  0  0  0  0  0  0  0  0  0  0
  -28.1450  -21.5100   19.5520 H   0  0  0  0  0  0  0  0  0  0  0  0
  -30.9760  -18.1840   20.4340 C   0  0  0  0  0  3  0  0  0  0  0  0
  -28.6400  -17.7430   20.7370 C   0  0  0  0  0  3  0  0  0  0  0  0
  -29.9460  -17.2050   20.5960 C   0  0  0  0  0  0  0  0  0  0  0  0
  -29.3610  -20.1110   20.4820 C   0  0  0  0  0  0  0  0  0  0  0  0
  -30.6930  -19.6010   20.3860 C   0  0  0  0  0  0  0  0  0  0  0  0
  -28.3540  -19.1350   20.6750 C   0  0  0  0  0  0  0  0  0  0  0  0
  -31.7170  -20.4620   20.1800 F   0  0  0  0  0  0  0  0  0  0  0  0
  -27.0640  -19.5420   20.7740 F   0  0  0  0  0  0  0  0  0  0  0  0
  -30.8460  -14.7590   20.0320 C   0  0  0  0  0  0  0  0  0  0  0  0
  -30.6430  -12.5150   18.9390 C   0  0  0  0  0  2  0  0  0  0  0  0
  -29.6320  -12.6120   17.7710 C   0  0  0  0  0  2  0  0  0  0  0  0
  -28.1830  -12.4450   18.2650 C   0  0  0  0  0  2  0  0  0  0  0  0
  -27.8780  -13.3060   19.5170 C   0  0  0  0  0  3  0  0  0  0  0  0
  -28.9830  -13.1390   20.5820 C   0  0  0  0  0  2  0  0  0  0  0  0
  -30.2650  -13.5150   19.9600 N   0  0  0  0  0  0  0  0  0  0  0  0
  -31.9550  -14.9770   19.5310 O   0  0  0  0  0  0  0  0  0  0  0  0
  -30.0580  -15.7300   20.6090 N   0  0  0  0  0  0  0  0  0  0  0  0
  -29.2570  -15.2910   21.0360 H   0  0  0  0  0  0  0  0  0  0  0  0
  -25.5290  -13.9190   20.3510 C   0  0  0  0  0  0  0  0  0  0  0  0
  -24.4740  -13.1500   20.7640 C   0  0  0  0  0  0  0  0  0  0  0  0
  -24.9180  -11.7950   20.6850 C   0  0  0  0  0  0  0  0  0  0  0  0
  -26.5500  -13.0300   20.0560 N   0  0  0  0  0  0  0  0  0  0  0  0
  -26.1900  -11.7480   20.3100 N   0  0  0  0  0  0  0  0  0  0  0  0
  -24.1880  -10.5370   20.8850 C   0  0  0  0  0  0  0  0  0  0  0  0
  -24.5880   -9.5960   21.8590 C   0  0  0  0  0  3  0  0  0  0  0  0
  -23.8590   -8.4020   22.0420 C   0  0  0  0  0  3  0  0  0  0  0  0
  -22.7150   -8.1390   21.2520 C   0  0  0  0  0  0  0  0  0  0  0  0
  -22.3340   -9.0680   20.2680 C   0  0  0  0  0  3  0  0  0  0  0  0
  -23.0640  -10.2550   20.0830 C   0  0  0  0  0  3  0  0  0  0  0  0
  -21.9590   -6.9960   21.3450 O   0  0  0  0  0  0  0  0  0  0  0  0
  -21.7690   -6.3560   22.5440 C   0  0  0  0  0  0  0  0  0  0  0  0
  -21.1890   -7.0080   23.6540 C   0  0  0  0  0  3  0  0  0  0  0  0
  -20.9480   -6.2920   24.8440 C   0  0  0  0  0  3  0  0  0  0  0  0
  -21.2770   -4.9260   24.9230 C   0  0  0  0  0  0  0  0  0  0  0  0
  -21.8480   -4.2740   23.8170 C   0  0  0  0  0  3  0  0  0  0  0  0
  -22.0910   -4.9860   22.6300 C   0  0  0  0  0  0  0  0  0  0  0  0
  -22.6240   -4.3490   21.5580 F   0  0  0  0  0  0  0  0  0  0  0  0
  -21.0390   -4.2350   26.0620 F   0  0  0  0  0  0  0  0  0  0  0  0
  -23.0990  -13.6380   21.1160 C   0  0  0  0  0  0  0  0  0  0  0  0
  -22.4180  -12.9480   22.0250 N   0  0  0  0  0  0  0  0  0  0  0  0
  -22.6370  -14.6640   20.6180 O   0  0  0  0  0  0  0  0  0  0  0  0
  -22.8030  -12.1150   22.4440 H   0  0  0  0  0  0  0  0  0  0  0  0
  -21.5000  -13.2580   22.3090 H   0  0  0  0  0  0  0  0  0  0  0  0
  -25.7040  -15.2870   20.1760 N   0  0  0  0  0  0  0  0  0  0  0  0
  -24.9310  -15.9380   20.2540 H   0  0  0  0  0  0  0  0  0  0  0  0
  -26.4910  -15.6740   19.6710 H   0  0  0  0  0  0  0  0  0  0  0  0
  -28.4040  -24.0180   20.2070 C   0  0  0  0  0  3  0  0  0  0  0  0
  -26.8800  -23.9550   20.5470 C   0  0  0  0  0  2  0  0  0  0  0  0
  -26.5240  -24.1900   21.9700 N   0  0  0  0  0  4  0  0  0  0  0  0
  -26.8050  -23.4300   22.5630 H   0  0  0  0  0  0  0  0  0  0  0  0
  -25.5240  -24.2710   22.0540 H   0  0  0  0  0  0  0  0  0  0  0  0
  -26.9200  -25.0400   22.3270 H   0  0  0  0  0  0  0  0  0  0  0  0
  -28.9540  -25.4930   20.5480 C   0  0  0  0  0  2  0  0  0  0  0  0
  -28.6660  -26.6820   19.7120 O   0  0  0  0  0  0  0  0  0  0  0  0
  -24.6330  -31.6770   23.0520 C   0  0  0  0  0  0  0  0  0  0  0  0
  -27.4850  -27.4190   19.8240 C   0  0  0  0  0  0  0  0  0  0  0  0
  -23.5090  -30.3210   21.3160 C   0  0  0  0  0  3  0  0  0  0  0  0
  -25.0450  -28.9090   19.8380 C   0  0  0  0  0  0  0  0  0  0  0  0
  -26.0260  -30.7690   21.1780 C   0  0  0  0  0  2  0  0  0  0  0  0
  -26.1810  -29.4250   20.4790 C   0  0  0  0  0  0  0  0  0  0  0  0
  -27.4040  -28.6920   20.4620 C   0  0  0  0  0  3  0  0  0  0  0  0
  -26.3310  -26.9480   19.1620 C   0  0  0  0  0  3  0  0  0  0  0  0
  -25.1210  -27.6740   19.1730 C   0  0  0  0  0  3  0  0  0  0  0  0
  -23.7700  -29.7250   19.9050 C   0  0  0  0  0  2  0  0  0  0  0  0
  -24.7390  -30.9410   21.9060 N   0  0  0  0  0  0  0  0  0  0  0  0
  -23.5340  -31.8720   23.5900 O   0  0  0  0  0  0  0  0  0  0  0  0
  -22.8910  -29.2190   22.2110 C   0  0  0  0  0  0  0  0  0  0  0  0
  -21.5660  -29.0180   22.0930 N   0  0  0  0  0  0  0  0  0  0  0  0
  -23.6000  -28.5530   22.9690 O   0  0  0  0  0  0  0  0  0  0  0  0
  -21.0580  -29.6090   21.4500 H   0  0  0  0  0  0  0  0  0  0  0  0
  -18.2130  -27.7730   22.6130 C   0  0  0  0  0  0  0  0  0  0  0  0
  -20.7800  -28.0070   22.7990 C   0  0  0  0  0  3  0  0  0  0  0  0
  -20.8560  -26.6400   22.0830 C   0  0  0  0  0  2  0  0  0  0  0  0
  -19.7120  -26.4170   21.0900 C   0  0  0  0  0  2  0  0  0  0  0  0
  -18.3590  -26.4950   21.8030 C   0  0  0  0  0  2  0  0  0  0  0  0
  -19.3510  -28.4900   23.0660 C   0  0  0  0  0  0  0  0  0  0  0  0
  -19.1630  -29.6890   23.7860 C   0  0  0  0  0  3  0  0  0  0  0  0
  -17.8680  -30.1700   24.0600 C   0  0  0  0  0  3  0  0  0  0  0  0
  -16.7440  -29.4470   23.6230 C   0  0  0  0  0  3  0  0  0  0  0  0
  -16.9180  -28.2500   22.9050 C   0  0  0  0  0  3  0  0  0  0  0  0
  -25.8800  -32.3270   23.7260 C   0  0  0  0  0  3  0  0  0  0  0  0
  -25.5210  -33.7030   24.0910 N   0  0  0  0  0  0  0  0  0  0  0  0
  -25.8360  -34.7880   23.3720 C   0  0  0  0  0  0  0  0  0  0  0  0
  -26.5300  -34.7370   22.3540 O   0  0  0  0  0  0  0  0  0  0  0  0
  -24.9000  -33.8120   24.8800 H   0  0  0  0  0  0  0  0  0  0  0  0
  -24.0520  -36.5300   23.0490 C   0  0  0  0  0  1  0  0  0  0  0  0
  -25.2970  -36.1450   23.8630 C   0  0  0  0  0  3  0  0  0  0  0  0
  -27.3900  -37.0850   24.7410 C   0  0  0  0  0  1  0  0  0  0  0  0
  -26.2930  -37.2360   23.7880 N   0  0  0  0  0  0  0  0  0  0  0  0
  -25.8550  -38.1390   23.9500 H   0  0  0  0  0  0  0  0  0  0  0  0
  -26.3890  -31.5300   24.9890 C   0  0  1  0  0  0  0  0  0  0  0  0
  -25.2770  -31.2270   26.0230 C   0  0  0  0  0  1  0  0  0  0  0  0
  -27.0260  -30.1870   24.5670 C   0  0  0  0  0  1  0  0  0  0  0  0
  -27.4990  -32.3380   25.7040 C   0  0  0  0  0  1  0  0  0  0  0  0
  1  3  2  0
  2  8  1  0
  2  1  1  0
  4  2  1  0
  5  7  1  0
  7 21  1  0
  7  6  2  0
  8 10  2  0
  9  5  2  0
  9  8  1  0
 10  6  1  0
 10 12  1  0
 11  9  1  0
 13 21  1  0
 14 19  1  0
 15 16  1  0
 15 14  1  0
 17 16  1  0
 17 26  1  0
 17 18  1  0
 19 13  1  0
 19 18  1  0
 20 13  2  0
 21 22  1  0
 23 24  2  0
 24 43  1  0
 25 24  1  0
 25 28  1  0
 26 27  1  0
 26 23  1  0
 27 25  2  0
 28 29  1  0
 29 30  2  0
 31 34  1  0
 31 30  1  0
 32 31  2  0
 33 32  1  0
 33 28  2  0
 34 35  1  0
 35 40  2  0
 35 36  1  0
 36 37  2  0
 37 38  1  0
 38 42  1  0
 39 38  2  0
 40 39  1  0
 41 40  1  0
 43 44  1  0
 44 47  1  0
 44 46  1  0
 45 43  2  0
 48 49  1  0
 48 23  1  0
 50 48  1  0
 51 52  1  0
 51 57  1  0
 51  1  1  0
 52 53  1  0
 53 55  1  0
 53 56  1  0
 53 54  1  0
 58 60  1  0
 58 57  1  0
 59 70  2  0
 60 65  1  0
 61 69  1  0
 61 71  1  0
 62 68  1  0
 62 64  1  0
 63 69  1  0
 64 63  1  0
 65 64  2  0
 66 67  1  0
 66 60  2  0
 67 62  2  0
 68 61  1  0
 69 59  1  0
 71 73  2  0
 72 71  1  0
 74 72  1  0
 75 84  2  0
 75 80  1  0
 76 72  1  0
 76 80  1  0
 77 76  1  0
 78 79  1  0
 78 77  1  0
 79 75  1  0
 80 81  2  0
 81 82  1  0
 83 82  2  0
 84 83  1  0
 85 59  1  0
 85 86  1  0
 85 95  1  0
 86 89  1  0
 87 91  1  0
 87 86  1  0
 88 87  2  0
 91 90  1  0
 93 91  1  0
 93 94  1  0
 93 92  1  0
 95 98  1  1
 95 96  1  0
 97 95  1  0
M  ISO  4  13 100  21 100  57 101  58 101
M  END
>  <TORSDO>  (38) 
F 21

>  <SCORE>  (38) 
-12.800

>  <name>  (38) 
37

>  <ligand_id>  (38) 
37

>  <original_smiles>  (38) 
[H]c1c([H])c([H])c2c(c1[H])C([H])([H])C([H])([H])C([H])([H])C2([H])N([H])C(=O)C1([H])N(C(=O)C([H])(N([H])C(=O)C([H])(N([H])C([H])([H])[H])C([H])([H])[H])C(C([H])([H])[H])(C([H])([H])[H])C([H])([H])[H])C([H])([H])c2c([H])c(OC([H])([H])C([H])(C(=O)N([H])c3c(F)c([H])c(N([H])C(=O)N4C([H])([H])C([H])([H])C([H])([H])C([H])(n5nc(-c6c([H])c([H])c(Oc7c([H])c([H])c(F)c([H])c7F)c([H])c6[H])c(C(=O)N([H])[H])c5N([H])[H])C4([H])[H])c([H])c3F)C([H])([H])[N+]([H])([H])[H])c([H])c([H])c2C1([H])[H]

>  <smiles>  (38) 
[H]c1c([H])c([H])c2c(c1[H])C([H])([H])C([H])([H])C([H])([H])C2([H])N([H])C(=O)C1([H])N(C(=O)C([H])(N([H])C(=O)C([H])(N([H])C([H])([H])[H])C([H])([H])[H])C(C([H])([H])[H])(C([H])([H])[H])C([H])([H])[H])C([H])([H])c2c([H])c(OC([H])([H])C([H])(C(=O)N([H])c3c(F)c([H])c(N([H])C(=O)N4C([H])([H])C([H])([H])C([H])([H])C([H])(n5nc(-c6c([H])c([H])c(Oc7c([H])c([H])c(F)c([H])c7F)c([H])c6[H])c(C(=O)N([H])[H])c5N([H])[H])C4([H])[H])c([H])c3F)C([H])([H])[N+]([H])([H])[H])c([H])c([H])c2C1([H])[H]

$$$$
38:0:0
     RDKit          3D

111119  0  0  1  0  0  0  0  0999 V2000
  -30.5310  -18.0500   20.2330 C   0  0  0  0  0  0  0  0  0  0  0  0
  -30.8950  -15.1760   20.4020 C   0  0  0  0  0  0  0  0  0  0  0  0
  -30.7960  -12.6690   20.0060 C   0  0  0  0  0  2  0  0  0  0  0  0
  -30.0150  -12.3430   18.7170 C   0  0  0  0  0  2  0  0  0  0  0  0
  -28.5290  -12.1510   19.0530 C   0  0  0  0  0  2  0  0  0  0  0  0
  -27.9880  -13.2840   19.9670 C   0  0  0  0  0  3  0  0  0  0  0  0
  -28.9310  -13.6370   21.1400 C   0  0  0  0  0  2  0  0  0  0  0  0
  -30.2460  -13.9460   20.5630 N   0  0  0  0  0  0  0  0  0  0  0  0
  -32.0940  -15.0590   20.1760 O   0  0  0  0  0  0  0  0  0  0  0  0
  -30.2250  -16.4520   20.3160 N   0  0  0  0  0  4  0  0  0  0  0  0
  -29.2330  -16.2970   20.4200 H   0  0  0  0  0  0  0  0  0  0  0  0
  -25.5980  -13.9250   20.6010 C   0  0  0  0  0  0  0  0  0  0  0  0
  -24.5000  -13.1790   20.9320 C   0  0  0  0  0  0  0  0  0  0  0  0
  -24.9310  -11.8160   20.9380 C   0  0  0  0  0  0  0  0  0  0  0  0
  -26.6280  -13.0170   20.4160 N   0  0  0  0  0  0  0  0  0  0  0  0
  -26.2350  -11.7460   20.6910 N   0  0  0  0  0  0  0  0  0  0  0  0
  -24.1660  -10.5730   21.1080 C   0  0  0  0  0  0  0  0  0  0  0  0
  -24.5270   -9.6090   22.0740 C   0  0  0  0  0  3  0  0  0  0  0  0
  -23.7580   -8.4350   22.2330 C   0  0  0  0  0  3  0  0  0  0  0  0
  -22.6160   -8.2200   21.4270 C   0  0  0  0  0  0  0  0  0  0  0  0
  -22.2770   -9.1690   20.4480 C   0  0  0  0  0  3  0  0  0  0  0  0
  -23.0450  -10.3340   20.2850 C   0  0  0  0  0  3  0  0  0  0  0  0
  -21.8260   -7.0960   21.4930 O   0  0  0  0  0  0  0  0  0  0  0  0
  -21.6880   -6.3790   22.6540 C   0  0  0  0  0  0  0  0  0  0  0  0
  -21.1920   -6.9650   23.8390 C   0  0  0  0  0  3  0  0  0  0  0  0
  -21.0020   -6.1760   24.9920 C   0  0  0  0  0  3  0  0  0  0  0  0
  -21.2980   -4.7990   24.9590 C   0  0  0  0  0  0  0  0  0  0  0  0
  -21.7880   -4.2120   23.7790 C   0  0  0  0  0  3  0  0  0  0  0  0
  -21.9780   -4.9990   22.6300 C   0  0  0  0  0  0  0  0  0  0  0  0
  -22.4290   -4.4240   21.4890 F   0  0  0  0  0  0  0  0  0  0  0  0
  -21.1090   -4.0390   26.0620 F   0  0  0  0  0  0  0  0  0  0  0  0
  -23.1050  -13.6930   21.1300 C   0  0  0  0  0  0  0  0  0  0  0  0
  -22.3240  -13.0310   21.9780 N   0  0  0  0  0  0  0  0  0  0  0  0
  -22.7140  -14.7140   20.5670 O   0  0  0  0  0  0  0  0  0  0  0  0
  -22.6550  -12.2080   22.4600 H   0  0  0  0  0  0  0  0  0  0  0  0
  -21.3810  -13.3460   22.1500 H   0  0  0  0  0  0  0  0  0  0  0  0
  -25.8070  -15.2890   20.4150 N   0  0  0  0  0  0  0  0  0  0  0  0
  -25.0530  -15.9640   20.4780 H   0  0  0  0  0  0  0  0  0  0  0  0
  -26.6760  -15.6940   20.0980 H   0  0  0  0  0  0  0  0  0  0  0  0
  -32.7490  -17.7260   18.8110 C   0  0  0  0  0  2  0  0  0  0  0  0
  -33.6020  -19.9140   18.6980 C   0  0  0  0  0  2  0  0  0  0  0  0
  -33.9380  -18.4930   18.2900 C   0  0  0  0  0  3  0  0  0  0  0  0
  -32.0670  -18.4780   19.9490 C   0  0  0  0  0  3  0  0  0  0  0  0
  -32.4070  -19.8800   19.5660 N   0  0  0  0  0  0  0  0  0  0  0  0
  -35.3090  -18.0030   18.8150 C   0  0  0  0  0  2  0  0  0  0  0  0
  -35.7300  -16.7340   18.1940 N   0  0  0  0  0  4  0  0  0  0  0  0
  -35.0320  -16.0220   18.3200 H   0  0  0  0  0  0  0  0  0  0  0  0
  -36.5860  -16.4180   18.6160 H   0  0  0  0  0  0  0  0  0  0  0  0
  -35.8950  -16.8550   17.2120 H   0  0  0  0  0  0  0  0  0  0  0  0
  -32.4780  -20.9420   20.5950 C   0  0  0  0  0  3  0  0  0  0  0  0
  -33.6530  -20.8160   21.6210 C   0  0  0  0  0  2  0  0  0  0  0  0
  -33.1940  -20.6210   23.0080 N   0  0  0  0  0  4  0  0  0  0  0  0
  -32.6480  -21.4010   23.3290 H   0  0  0  0  0  0  0  0  0  0  0  0
  -33.9910  -20.5440   23.6180 H   0  0  0  0  0  0  0  0  0  0  0  0
  -32.6510  -19.7830   23.0970 H   0  0  0  0  0  0  0  0  0  0  0  0
  -32.3370  -22.3590   19.9380 C   0  0  0  0  0  2  0  0  0  0  0  0
  -33.5100  -22.8550   19.1840 N   0  0  0  0  0  4  0  0  0  0  0  0
  -34.2910  -23.0660   19.7810 H   0  0  0  0  0  0  0  0  0  0  0  0
  -33.2600  -23.7030   18.7050 H   0  0  0  0  0  0  0  0  0  0  0  0
  -33.7840  -22.1870   18.4870 H   0  0  0  0  0  0  0  0  0  0  0  0
  -29.4150  -19.2200   19.6860 C   0  0  0  0  0  2  0  0  0  0  0  0
  -28.5260  -20.5000   21.6900 C   0  0  0  0  0  1  0  0  0  0  0  0
  -29.0490  -20.6150   20.3340 N   0  0  0  0  0  0  0  0  0  0  0  0
  -29.1950  -22.1140   19.8770 C   0  0  0  0  0  2  0  0  0  0  0  0
  -28.0230  -23.3310   19.8720 C   0  0  0  0  0  3  0  0  0  0  0  0
  -27.3340  -23.3530   18.5680 N   0  0  0  0  0  4  0  0  0  0  0  0
  -27.8940  -23.8110   17.8700 H   0  0  0  0  0  0  0  0  0  0  0  0
  -26.4630  -23.8490   18.6420 H   0  0  0  0  0  0  0  0  0  0  0  0
  -27.1370  -22.4170   18.2590 H   0  0  0  0  0  0  0  0  0  0  0  0
  -28.1520  -24.9120   20.4780 C   0  0  0  0  0  2  0  0  0  0  0  0
  -28.1860  -26.3180   19.8130 O   0  0  0  0  0  0  0  0  0  0  0  0
  -24.6590  -31.9240   23.1120 C   0  0  0  0  0  0  0  0  0  0  0  0
  -27.1090  -27.2650   19.9140 C   0  0  0  0  0  0  0  0  0  0  0  0
  -23.3850  -30.5420   21.5200 C   0  0  0  0  0  3  0  0  0  0  0  0
  -24.7660  -28.9790   20.0180 C   0  0  0  0  0  0  0  0  0  0  0  0
  -25.9240  -30.8220   21.2260 C   0  0  0  0  0  2  0  0  0  0  0  0
  -25.9720  -29.4350   20.5660 C   0  0  0  0  0  0  0  0  0  0  0  0
  -27.1470  -28.5970   20.4900 C   0  0  0  0  0  3  0  0  0  0  0  0
  -25.8730  -26.8970   19.3500 C   0  0  0  0  0  3  0  0  0  0  0  0
  -24.7260  -27.7210   19.3950 C   0  0  0  0  0  3  0  0  0  0  0  0
  -23.5370  -29.8710   20.1290 C   0  0  0  0  0  2  0  0  0  0  0  0
  -24.6800  -31.1170   22.0080 N   0  0  0  0  0  0  0  0  0  0  0  0
  -23.5990  -32.1980   23.6960 O   0  0  0  0  0  0  0  0  0  0  0  0
  -22.7620  -29.5220   22.5070 C   0  0  0  0  0  0  0  0  0  0  0  0
  -21.4390  -29.3020   22.4040 N   0  0  0  0  0  0  0  0  0  0  0  0
  -23.4690  -28.9310   23.3240 O   0  0  0  0  0  0  0  0  0  0  0  0
  -20.9250  -29.8380   21.7210 H   0  0  0  0  0  0  0  0  0  0  0  0
  -18.1230  -27.9460   22.9420 C   0  0  0  0  0  0  0  0  0  0  0  0
  -20.6660  -28.3440   23.1980 C   0  0  0  0  0  3  0  0  0  0  0  0
  -20.8380  -26.9050   22.6610 C   0  0  0  0  0  2  0  0  0  0  0  0
  -19.7540  -26.5000   21.6580 C   0  0  0  0  0  2  0  0  0  0  0  0
  -18.3660  -26.5900   22.2990 C   0  0  0  0  0  2  0  0  0  0  0  0
  -19.2020  -28.7750   23.3490 C   0  0  0  0  0  0  0  0  0  0  0  0
  -18.9190  -30.0380   23.9150 C   0  0  0  0  0  3  0  0  0  0  0  0
  -17.5910  -30.4740   24.0740 C   0  0  0  0  0  3  0  0  0  0  0  0
  -16.5280  -29.6450   23.6800 C   0  0  0  0  0  3  0  0  0  0  0  0
  -16.7920  -28.3830   23.1180 C   0  0  0  0  0  3  0  0  0  0  0  0
  -25.9640  -32.5600   23.6850 C   0  0  0  0  0  3  0  0  0  0  0  0
  -26.5610  -31.7570   24.9070 C   0  0  1  0  0  0  0  0  0  0  0  0
  -25.5330  -31.4530   26.0220 C   0  0  0  0  0  1  0  0  0  0  0  0
  -27.1570  -30.4090   24.4400 C   0  0  0  0  0  1  0  0  0  0  0  0
  -27.7250  -32.5570   25.5360 C   0  0  0  0  0  1  0  0  0  0  0  0
  -25.6450  -33.9410   24.0880 N   0  0  0  0  0  0  0  0  0  0  0  0
  -25.9200  -35.0320   23.3610 C   0  0  0  0  0  0  0  0  0  0  0  0
  -26.5360  -34.9840   22.2940 O   0  0  0  0  0  0  0  0  0  0  0  0
  -25.0880  -34.0500   24.9220 H   0  0  0  0  0  0  0  0  0  0  0  0
  -24.1560  -36.8220   23.1750 C   0  0  0  0  0  1  0  0  0  0  0  0
  -25.4390  -36.3940   23.9050 C   0  0  0  0  0  3  0  0  0  0  0  0
  -27.6010  -37.2730   24.6710 C   0  0  0  0  0  1  0  0  0  0  0  0
  -26.4520  -37.4640   23.7900 N   0  0  0  0  0  0  0  0  0  0  0  0
  -26.0420  -38.3730   23.9910 H   0  0  0  0  0  0  0  0  0  0  0  0
  1 10  2  0
  2  8  1  0
  3  8  1  0
  4  5  1  0
  4  3  1  0
  6  5  1  0
  6 15  1  0
  6  7  1  0
  8  7  1  0
  9  2  2  0
 10  2  1  0
 10 11  1  0
 12 13  2  0
 13 14  1  0
 13 32  1  0
 14 17  1  0
 15 12  1  0
 15 16  1  0
 16 14  2  0
 17 18  1  0
 18 19  2  0
 20 23  1  0
 20 19  1  0
 21 20  2  0
 22 21  1  0
 22 17  2  0
 23 24  1  0
 24 25  1  0
 25 26  2  0
 27 26  1  0
 27 31  1  0
 28 27  2  0
 29 24  2  0
 29 28  1  0
 30 29  1  0
 32 33  1  0
 33 36  1  0
 33 35  1  0
 34 32  2  0
 37 38  1  0
 37 12  1  0
 39 37  1  0
 40 43  1  0
 41 44  1  0
 42 41  1  0
 42 40  1  0
 42 45  1  0
 43  1  1  0
 44 43  1  0
 44 50  1  0
 46 47  1  0
 46 48  1  0
 46 45  1  0
 49 46  1  0
 50 51  1  0
 51 52  1  0
 52 55  1  0
 52 53  1  0
 52 54  1  0
 56 50  1  0
 57 58  1  0
 57 56  1  0
 59 57  1  0
 60 57  1  0
 61  1  1  0
 61 63  1  0
 63 62  1  0
 64 63  1  0
 65 64  1  0
 65 70  1  0
 66 68  1  0
 66 65  1  0
 67 66  1  0
 69 66  1  0
 71 73  1  0
 71 70  1  0
 72 83  2  0
 73 78  1  0
 74 82  1  0
 74 84  1  0
 75 81  1  0
 75 77  1  0
 76 82  1  0
 77 76  1  0
 78 77  2  0
 79 80  1  0
 79 73  2  0
 80 75  2  0
 81 74  1  0
 82 72  1  0
 84 86  2  0
 85 84  1  0
 87 85  1  0
 88 97  2  0
 88 93  1  0
 89 85  1  0
 89 93  1  0
 90 89  1  0
 91 92  1  0
 91 90  1  0
 92 88  1  0
 93 94  2  0
 94 95  1  0
 96 95  2  0
 97 96  1  0
 98 72  1  0
 98103  1  0
 98 99  1  0
 99102  1  1
 99100  1  0
101 99  1  0
103106  1  0
104108  1  0
104103  1  0
105104  2  0
108107  1  0
110108  1  0
110111  1  0
110109  1  0
M  ISO  4   2 100  10 100  70 101  71 101
M  END
>  <TORSDO>  (39) 
F 30

>  <SCORE>  (39) 
-11.540

>  <name>  (39) 
38

>  <ligand_id>  (39) 
38

>  <original_smiles>  (39) 
[H]c1c([H])c([H])c2c(c1[H])C([H])([H])C([H])([H])C([H])([H])C2([H])N([H])C(=O)C1([H])N(C(=O)C([H])(N([H])C(=O)C([H])(N([H])C([H])([H])[H])C([H])([H])[H])C(C([H])([H])[H])(C([H])([H])[H])C([H])([H])[H])C([H])([H])c2c([H])c(OC([H])([H])C([H])(C([H])([H])N(C([H])([H])[H])C([H])([H])C([H])(N([H])C(=O)N3C([H])([H])C([H])([H])C([H])([H])C([H])(n4nc(-c5c([H])c([H])c(Oc6c([H])c([H])c(F)c([H])c6F)c([H])c5[H])c(C(=O)N([H])[H])c4N([H])[H])C3([H])[H])C3([H])N(C([H])(C([H])([H])[N+]([H])([H])[H])C([H])([H])[N+]([H])([H])[H])C([H])([H])C([H])(C([H])([H])[N+]([H])([H])[H])C3([H])[H])[N+]([H])([H])[H])c([H])c([H])c2C1([H])[H]

>  <smiles>  (39) 
[H]c1c([H])c([H])c2c(c1[H])C([H])([H])C([H])([H])C([H])([H])C2([H])N([H])C(=O)C1([H])N(C(=O)C([H])(N([H])C(=O)C([H])(N([H])C([H])([H])[H])C([H])([H])[H])C(C([H])([H])[H])(C([H])([H])[H])C([H])([H])[H])C([H])([H])c2c([H])c(OC([H])([H])C([H])(C([H])([H])N(C([H])([H])[H])C([H])([H])C([H])(N([H])C(=O)N3C([H])([H])C([H])([H])C([H])([H])C([H])(n4nc(-c5c([H])c([H])c(Oc6c([H])c([H])c(F)c([H])c6F)c([H])c5[H])c(C(=O)N([H])[H])c4N([H])[H])C3([H])[H])C3([H])N(C([H])(C([H])([H])[N+]([H])([H])[H])C([H])([H])[N+]([H])([H])[H])C([H])([H])C([H])(C([H])([H])[N+]([H])([H])[H])C3([H])[H])[N+]([H])([H])[H])c([H])c([H])c2C1([H])[H]

$$$$
39:0:0
     RDKit          3D

 98106  0  0  1  0  0  0  0  0999 V2000
  -26.7280  -19.6090   19.8960 C   0  0  0  0  0  2  0  0  0  0  0  0
  -27.4080  -17.5760   21.0250 C   0  0  0  0  0  1  0  0  0  0  0  0
  -27.7070  -18.5170   19.9480 N   0  0  0  0  0  0  0  0  0  0  0  0
  -31.8320  -19.5270   19.7240 C   0  0  0  0  0  3  0  0  0  0  0  0
  -31.4290  -18.1860   19.5790 C   0  0  0  0  0  3  0  0  0  0  0  0
  -30.8900  -20.5130   20.0400 C   0  0  0  0  0  3  0  0  0  0  0  0
  -30.0670  -17.8190   19.7050 C   0  0  0  0  0  0  0  0  0  0  0  0
  -29.0870  -18.8370   19.9360 C   0  0  0  0  0  0  0  0  0  0  0  0
  -29.5310  -20.1770   20.1540 C   0  0  0  0  0  0  0  0  0  0  0  0
  -28.6670  -21.1800   20.4450 F   0  0  0  0  0  0  0  0  0  0  0  0
  -29.7000  -16.3250   19.6450 C   0  0  0  0  0  2  0  0  0  0  0  0
  -31.4200  -14.4420   19.4500 C   0  0  0  0  0  0  0  0  0  0  0  0
  -31.0990  -12.0500   18.9950 C   0  0  0  0  0  2  0  0  0  0  0  0
  -30.1310  -11.9190   17.7990 C   0  0  0  0  0  2  0  0  0  0  0  0
  -28.6650  -11.9030   18.2820 C   0  0  0  0  0  2  0  0  0  0  0  0
  -28.3530  -13.0430   19.2910 C   0  0  0  0  0  3  0  0  0  0  0  0
  -29.4490  -13.1440   20.3760 C   0  0  0  0  0  2  0  0  0  0  0  0
  -30.7320  -13.2920   19.6900 N   0  0  0  0  0  0  0  0  0  0  0  0
  -32.5980  -14.4500   19.1030 O   0  0  0  0  0  0  0  0  0  0  0  0
  -30.6980  -15.4770   18.9840 N   0  0  0  0  0  0  0  0  0  0  0  0
  -31.2250  -15.9990   18.2990 H   0  0  0  0  0  0  0  0  0  0  0  0
  -26.1030  -13.8930   20.1920 C   0  0  0  0  0  0  0  0  0  0  0  0
  -24.9860  -13.2360   20.6260 C   0  0  0  0  0  0  0  0  0  0  0  0
  -25.2940  -11.8430   20.5450 C   0  0  0  0  0  0  0  0  0  0  0  0
  -27.0240  -12.9100   19.8730 N   0  0  0  0  0  0  0  0  0  0  0  0
  -26.5480  -11.6680   20.1460 N   0  0  0  0  0  0  0  0  0  0  0  0
  -24.4480  -10.6650   20.7690 C   0  0  0  0  0  0  0  0  0  0  0  0
  -24.8060   -9.6700   21.7040 C   0  0  0  0  0  3  0  0  0  0  0  0
  -23.9680   -8.5570   21.9200 C   0  0  0  0  0  3  0  0  0  0  0  0
  -22.7580   -8.4290   21.1980 C   0  0  0  0  0  0  0  0  0  0  0  0
  -22.4150   -9.4120   20.2540 C   0  0  0  0  0  3  0  0  0  0  0  0
  -23.2530  -10.5180   20.0350 C   0  0  0  0  0  3  0  0  0  0  0  0
  -21.8950   -7.3680   21.3210 O   0  0  0  0  0  0  0  0  0  0  0  0
  -21.7640   -6.6790   22.4980 C   0  0  0  0  0  0  0  0  0  0  0  0
  -21.3620   -7.3160   23.6920 C   0  0  0  0  0  3  0  0  0  0  0  0
  -21.1670   -6.5580   24.8630 C   0  0  0  0  0  3  0  0  0  0  0  0
  -21.3670   -5.1640   24.8400 C   0  0  0  0  0  0  0  0  0  0  0  0
  -21.7670   -4.5280   23.6520 C   0  0  0  0  0  3  0  0  0  0  0  0
  -21.9580   -5.2830   22.4820 C   0  0  0  0  0  0  0  0  0  0  0  0
  -22.3180   -4.6620   21.3320 F   0  0  0  0  0  0  0  0  0  0  0  0
  -21.1750   -4.4320   25.9630 F   0  0  0  0  0  0  0  0  0  0  0  0
  -23.6740  -13.8570   21.0110 C   0  0  0  0  0  0  0  0  0  0  0  0
  -22.9490  -13.2310   21.9320 N   0  0  0  0  0  0  0  0  0  0  0  0
  -23.3060  -14.9280   20.5320 O   0  0  0  0  0  0  0  0  0  0  0  0
  -23.2630  -12.3630   22.3430 H   0  0  0  0  0  0  0  0  0  0  0  0
  -22.0730  -13.6300   22.2360 H   0  0  0  0  0  0  0  0  0  0  0  0
  -26.4040  -15.2390   20.0220 N   0  0  0  0  0  0  0  0  0  0  0  0
  -25.7370  -15.9720   20.2250 H   0  0  0  0  0  0  0  0  0  0  0  0
  -27.3070  -15.6020   19.7500 H   0  0  0  0  0  0  0  0  0  0  0  0
  -26.9280  -20.6970   18.8030 C   0  0  0  0  0  2  0  0  0  0  0  0
  -25.1500  -22.2650   19.4820 C   0  0  0  0  0  1  0  0  0  0  0  0
  -26.6170  -22.0490   19.3480 N   0  0  2  0  0  4  0  0  0  0  0  0
  -27.0030  -22.0580   20.2850 H   0  0  0  0  0  0  0  0  0  0  0  0
  -27.3040  -23.1660   18.6330 C   0  0  0  0  0  2  0  0  0  0  0  0
  -27.7850  -24.2960   19.5860 C   0  0  0  0  0  3  0  0  0  0  0  0
  -26.8090  -24.5740   20.4560 F   0  0  0  0  0  0  0  0  0  0  0  0
  -28.2370  -25.5860   18.8420 C   0  0  0  0  0  2  0  0  0  0  0  0
  -28.2310  -26.7890   19.6350 O   0  0  0  0  0  0  0  0  0  0  0  0
  -24.6680  -31.7450   23.3060 C   0  0  0  0  0  0  0  0  0  0  0  0
  -27.0730  -27.5420   19.7210 C   0  0  0  0  0  0  0  0  0  0  0  0
  -23.3700  -30.5330   21.5890 C   0  0  0  0  0  3  0  0  0  0  0  0
  -24.7290  -29.1170   19.9680 C   0  0  0  0  0  0  0  0  0  0  0  0
  -25.9010  -30.8450   21.3390 C   0  0  0  0  0  2  0  0  0  0  0  0
  -25.9210  -29.5460   20.5610 C   0  0  0  0  0  0  0  0  0  0  0  0
  -27.0940  -28.7650   20.4380 C   0  0  0  0  0  3  0  0  0  0  0  0
  -25.8560  -27.1420   19.1240 C   0  0  0  0  0  3  0  0  0  0  0  0
  -24.6910  -27.9150   19.2510 C   0  0  0  0  0  3  0  0  0  0  0  0
  -23.5110  -29.9920   20.1430 C   0  0  0  0  0  2  0  0  0  0  0  0
  -24.6660  -31.0530   22.1330 N   0  0  0  0  0  0  0  0  0  0  0  0
  -23.6130  -31.9940   23.9100 O   0  0  0  0  0  0  0  0  0  0  0  0
  -22.7350  -29.4350   22.4710 C   0  0  0  0  0  0  0  0  0  0  0  0
  -21.4120  -29.2440   22.3250 N   0  0  0  0  0  0  0  0  0  0  0  0
  -23.4240  -28.7650   23.2450 O   0  0  0  0  0  0  0  0  0  0  0  0
  -20.9150  -29.8550   21.6930 H   0  0  0  0  0  0  0  0  0  0  0  0
  -18.0720  -27.8950   22.6200 C   0  0  0  0  0  0  0  0  0  0  0  0
  -20.6060  -28.2390   23.0150 C   0  0  0  0  0  3  0  0  0  0  0  0
  -20.7910  -26.8410   22.3810 C   0  0  0  0  0  2  0  0  0  0  0  0
  -19.7420  -26.5120   21.3140 C   0  0  0  0  0  2  0  0  0  0  0  0
  -18.3310  -26.5790   21.9100 C   0  0  0  0  0  2  0  0  0  0  0  0
  -19.1400  -28.6820   23.1210 C   0  0  0  0  0  0  0  0  0  0  0  0
  -18.8480  -29.9200   23.7330 C   0  0  0  0  0  3  0  0  0  0  0  0
  -17.5230  -30.3750   23.8520 C   0  0  0  0  0  3  0  0  0  0  0  0
  -16.4670  -29.5760   23.3790 C   0  0  0  0  0  3  0  0  0  0  0  0
  -16.7410  -28.3380   22.7660 C   0  0  0  0  0  3  0  0  0  0  0  0
  -25.9950  -32.2840   23.9290 C   0  0  0  0  0  3  0  0  0  0  0  0
  -25.7570  -33.6710   24.3490 N   0  0  0  0  0  0  0  0  0  0  0  0
  -26.1170  -34.7510   23.6460 C   0  0  0  0  0  0  0  0  0  0  0  0
  -26.7580  -34.6810   22.5950 O   0  0  0  0  0  0  0  0  0  0  0  0
  -25.1850  -33.8060   25.1700 H   0  0  0  0  0  0  0  0  0  0  0  0
  -24.4510  -36.6220   23.4320 C   0  0  0  0  0  1  0  0  0  0  0  0
  -25.6930  -36.1270   24.1910 C   0  0  0  0  0  3  0  0  0  0  0  0
  -27.8740  -36.8790   25.0290 C   0  0  0  0  0  1  0  0  0  0  0  0
  -26.7620  -37.1450   24.1180 N   0  0  0  0  0  0  0  0  0  0  0  0
  -26.3940  -38.0680   24.3260 H   0  0  0  0  0  0  0  0  0  0  0  0
  -26.5140  -31.4160   25.1400 C   0  0  1  0  0  0  0  0  0  0  0  0
  -25.4370  -31.1500   26.2150 C   0  0  0  0  0  1  0  0  0  0  0  0
  -27.0340  -30.0420   24.6530 C   0  0  0  0  0  1  0  0  0  0  0  0
  -27.7080  -32.1220   25.8220 C   0  0  0  0  0  1  0  0  0  0  0  0
  1  3  1  0
  3  2  1  0
  4  6  1  0
  5  7  1  0
  5  4  2  0
  6  9  2  0
  7  8  2  0
  8  3  1  0
  8  9  1  0
  9 10  1  0
 11  7  1  0
 12 18  1  0
 13 18  1  0
 14 15  1  0
 14 13  1  0
 16 15  1  0
 16 25  1  0
 16 17  1  0
 18 17  1  0
 19 12  2  0
 20 12  1  0
 20 11  1  0
 21 20  1  0
 22 23  2  0
 23 42  1  0
 24 23  1  0
 24 27  1  0
 25 26  1  0
 25 22  1  0
 26 24  2  0
 27 28  1  0
 28 29  2  0
 30 33  1  0
 30 29  1  0
 31 30  2  0
 32 31  1  0
 32 27  2  0
 33 34  1  0
 34 35  1  0
 35 36  2  0
 37 36  1  0
 37 41  1  0
 38 37  2  0
 39 34  2  0
 39 38  1  0
 40 39  1  0
 42 43  1  0
 43 46  1  0
 43 45  1  0
 44 42  2  0
 47 22  1  0
 47 48  1  0
 49 47  1  0
 50 52  1  0
 50  1  1  0
 52 51  1  0
 52 53  1  1
 54 52  1  0
 54 55  1  0
 55 56  1  0
 57 55  1  0
 57 58  1  0
 58 60  1  0
 59 70  2  0
 60 65  1  0
 61 69  1  0
 61 71  1  0
 62 68  1  0
 62 64  1  0
 63 69  1  0
 64 63  1  0
 65 64  2  0
 66 67  1  0
 66 60  2  0
 67 62  2  0
 68 61  1  0
 69 59  1  0
 71 73  2  0
 72 71  1  0
 74 72  1  0
 75 84  2  0
 75 80  1  0
 76 72  1  0
 76 80  1  0
 77 76  1  0
 78 79  1  0
 78 77  1  0
 79 75  1  0
 80 81  2  0
 81 82  1  0
 83 82  2  0
 84 83  1  0
 85 59  1  0
 85 86  1  0
 85 95  1  0
 86 89  1  0
 87 91  1  0
 87 86  1  0
 88 87  2  0
 91 90  1  0
 93 91  1  0
 93 94  1  0
 93 92  1  0
 95 98  1  1
 95 96  1  0
 97 95  1  0
M  ISO  4  12 100  20 100  57 101  58 101
M  END
>  <TORSDO>  (40) 
F 24

>  <SCORE>  (40) 
-10.485

>  <name>  (40) 
39

>  <ligand_id>  (40) 
39

>  <original_smiles>  (40) 
[H]c1c([H])c(F)c(N(C([H])([H])[H])C([H])([H])C([H])([H])[N+]([H])(C([H])([H])[H])C([H])([H])C([H])(F)C([H])([H])Oc2c([H])c([H])c3c(c2[H])C([H])([H])N(C(=O)C([H])(N([H])C(=O)C([H])(N([H])C([H])([H])[H])C([H])([H])[H])C(C([H])([H])[H])(C([H])([H])[H])C([H])([H])[H])C([H])(C(=O)N([H])C2([H])c4c([H])c([H])c([H])c([H])c4C([H])([H])C([H])([H])C2([H])[H])C3([H])[H])c(C([H])([H])N([H])C(=O)N2C([H])([H])C([H])([H])C([H])([H])C([H])(n3nc(-c4c([H])c([H])c(Oc5c([H])c([H])c(F)c([H])c5F)c([H])c4[H])c(C(=O)N([H])[H])c3N([H])[H])C2([H])[H])c1[H]

>  <smiles>  (40) 
[H]c1c([H])c(F)c(N(C([H])([H])[H])C([H])([H])C([H])([H])[N+]([H])(C([H])([H])[H])C([H])([H])C([H])(F)C([H])([H])Oc2c([H])c([H])c3c(c2[H])C([H])([H])N(C(=O)C([H])(N([H])C(=O)C([H])(N([H])C([H])([H])[H])C([H])([H])[H])C(C([H])([H])[H])(C([H])([H])[H])C([H])([H])[H])C([H])(C(=O)N([H])C2([H])c4c([H])c([H])c([H])c([H])c4C([H])([H])C([H])([H])C2([H])[H])C3([H])[H])c(C([H])([H])N([H])C(=O)N2C([H])([H])C([H])([H])C([H])([H])C([H])(n3nc(-c4c([H])c([H])c(Oc5c([H])c([H])c(F)c([H])c5F)c([H])c4[H])c(C(=O)N([H])[H])c3N([H])[H])C2([H])[H])c1[H]

$$$$
40:0:0
     RDKit          3D

100109  0  0  1  0  0  0  0  0999 V2000
  -27.6790  -18.4100   20.7690 C   0  0  0  0  0  2  0  0  0  0  0  0
  -27.6510  -17.4130   18.6520 C   0  0  0  0  0  2  0  0  0  0  0  0
  -27.8260  -19.8880   20.0440 C   0  0  0  0  0  2  0  0  0  0  0  0
  -27.7890  -18.8900   17.9340 C   0  0  0  0  0  2  0  0  0  0  0  0
  -26.9270  -17.1400   20.0990 C   0  0  0  0  0  3  0  0  0  0  0  0
  -28.4950  -20.0330   18.6670 N   0  0  1  0  0  4  0  0  0  0  0  0
  -29.4530  -19.7430   18.8060 H   0  0  0  0  0  0  0  0  0  0  0  0
  -26.3070  -12.7540   19.3370 C   0  0  0  0  0  3  0  0  0  0  0  0
  -28.1660  -12.3960   19.2150 C   0  0  0  0  0  3  0  0  0  0  0  0
  -28.7610  -15.1340   20.9300 C   0  0  0  0  0  0  0  0  0  0  0  0
  -25.7200  -14.3620   20.1640 C   0  0  0  0  0  0  0  0  0  0  0  0
  -26.9670  -15.5890   20.8890 C   0  0  0  0  0  0  0  0  0  0  0  0
  -29.4340  -13.6600   20.0290 C   0  0  0  0  0  0  0  0  0  0  0  0
  -32.0580  -13.0360   20.0920 C   0  0  0  0  0  0  0  0  0  0  0  0
  -32.3120  -10.6810   20.7420 C   0  0  0  0  0  2  0  0  0  0  0  0
  -31.1180   -9.9080   20.1070 C   0  0  0  0  0  2  0  0  0  0  0  0
  -29.8140  -10.0610   20.9860 C   0  0  0  0  0  2  0  0  0  0  0  0
  -29.6750  -11.5160   21.4710 C   0  0  0  0  0  3  0  0  0  0  0  0
  -30.9130  -12.1660   22.0780 C   0  0  0  0  0  2  0  0  0  0  0  0
  -31.9120  -12.0740   21.0250 N   0  0  0  0  0  0  0  0  0  0  0  0
  -33.1300  -13.1260   19.4640 O   0  0  0  0  0  0  0  0  0  0  0  0
  -30.8980  -13.7170   19.7170 N   0  0  0  0  0  0  0  0  0  0  0  0
  -31.1120  -14.4220   19.0270 H   0  0  0  0  0  0  0  0  0  0  0  0
  -27.8660  -13.5990   22.1160 C   0  0  0  0  0  3  0  0  0  0  0  0
  -26.4990  -12.9430   22.2970 C   0  0  0  0  0  0  0  0  0  0  0  0
  -26.4280  -11.4800   22.0410 C   0  0  0  0  0  0  0  0  0  0  0  0
  -28.3740  -12.1530   21.8590 N   0  0  0  0  0  0  0  0  0  0  0  0
  -27.6060  -11.0610   21.8790 N   0  0  0  0  0  0  0  0  0  0  0  0
  -25.3710  -10.3680   21.8910 C   0  0  0  0  0  0  0  0  0  0  0  0
  -25.3610   -9.1940   22.7080 C   0  0  0  0  0  3  0  0  0  0  0  0
  -24.3810   -8.1670   22.5750 C   0  0  0  0  0  3  0  0  0  0  0  0
  -23.3620   -8.2690   21.5980 C   0  0  0  0  0  0  0  0  0  0  0  0
  -23.3930   -9.3910   20.7440 C   0  0  0  0  0  3  0  0  0  0  0  0
  -24.3720  -10.4070   20.8820 C   0  0  0  0  0  3  0  0  0  0  0  0
  -22.3780   -7.3210   21.3790 O   0  0  0  0  0  0  0  0  0  0  0  0
  -21.6840   -6.7060   22.4010 C   0  0  0  0  0  0  0  0  0  0  0  0
  -20.9230   -7.4410   23.3370 C   0  0  0  0  0  3  0  0  0  0  0  0
  -20.1800   -6.7720   24.3320 C   0  0  0  0  0  3  0  0  0  0  0  0
  -20.1850   -5.3650   24.3940 C   0  0  0  0  0  0  0  0  0  0  0  0
  -20.9250   -4.6270   23.4540 C   0  0  0  0  0  3  0  0  0  0  0  0
  -21.6660   -5.2940   22.4590 C   0  0  0  0  0  0  0  0  0  0  0  0
  -22.3540   -4.5670   21.5460 F   0  0  0  0  0  0  0  0  0  0  0  0
  -19.4740   -4.7230   25.3510 F   0  0  0  0  0  0  0  0  0  0  0  0
  -25.0770  -13.4690   22.5220 C   0  0  0  0  0  0  0  0  0  0  0  0
  -24.3230  -12.9250   23.4750 N   0  0  0  0  0  0  0  0  0  0  0  0
  -24.5140  -14.2690   21.8030 O   0  0  0  0  0  0  0  0  0  0  0  0
  -24.6930  -12.2290   24.1050 H   0  0  0  0  0  0  0  0  0  0  0  0
  -23.3670  -13.2290   23.5890 H   0  0  0  0  0  0  0  0  0  0  0  0
  -29.1080  -15.8530   21.6400 N   0  0  0  0  0  0  0  0  0  0  0  0
  -28.4760  -16.6120   21.4410 H   0  0  0  0  0  0  0  0  0  0  0  0
  -29.8830  -15.8010   20.9950 H   0  0  0  0  0  0  0  0  0  0  0  0
  -24.3620  -14.8780   19.7510 C   0  0  0  0  0  0  0  0  0  0  0  0
  -23.6040  -14.0240   19.0760 N   0  0  0  0  0  0  0  0  0  0  0  0
  -23.9930  -16.0240   20.0050 O   0  0  0  0  0  0  0  0  0  0  0  0
  -23.9460  -13.0910   18.9030 H   0  0  0  0  0  0  0  0  0  0  0  0
  -22.6810  -14.2850   18.7630 H   0  0  0  0  0  0  0  0  0  0  0  0
  -27.3800  -21.8000   17.0930 C   0  0  0  0  0  1  0  0  0  0  0  0
  -28.5860  -21.5420   18.0090 C   0  0  0  0  0  3  0  0  0  0  0  0
  -29.9570  -22.3040   17.2710 C   0  0  0  0  0  2  0  0  0  0  0  0
  -30.4600  -23.8340   17.1600 O   0  0  0  0  0  0  0  0  0  0  0  0
  -25.3960  -27.5560   20.8700 C   0  0  0  0  0  0  0  0  0  0  0  0
  -29.6300  -25.0050   17.2400 C   0  0  0  0  0  0  0  0  0  0  0  0
  -25.2860  -27.4800   18.4160 C   0  0  0  0  0  3  0  0  0  0  0  0
  -27.4500  -26.8810   17.1870 C   0  0  0  0  0  0  0  0  0  0  0  0
  -27.5770  -27.4850   19.5930 C   0  0  0  0  0  2  0  0  0  0  0  0
  -28.1480  -26.7080   18.3900 C   0  0  0  0  0  0  0  0  0  0  0  0
  -29.2630  -25.7870   18.4180 C   0  0  0  0  0  3  0  0  0  0  0  0
  -28.9910  -25.3780   16.0500 C   0  0  0  0  0  3  0  0  0  0  0  0
  -27.9040  -26.2590   16.0200 C   0  0  0  0  0  3  0  0  0  0  0  0
  -26.1880  -27.7210   17.1810 C   0  0  0  0  0  2  0  0  0  0  0  0
  -26.0790  -27.4930   19.6870 N   0  0  0  0  0  0  0  0  0  0  0  0
  -24.1570  -27.6070   20.9030 O   0  0  0  0  0  0  0  0  0  0  0  0
  -24.4740  -26.1740   18.2210 C   0  0  0  0  0  0  0  0  0  0  0  0
  -23.3430  -26.2560   17.4970 N   0  0  0  0  0  0  0  0  0  0  0  0
  -24.8720  -25.1110   18.7040 O   0  0  0  0  0  0  0  0  0  0  0  0
  -23.0690  -27.1640   17.1460 H   0  0  0  0  0  0  0  0  0  0  0  0
  -20.1980  -25.3960   15.9210 C   0  0  0  0  0  0  0  0  0  0  0  0
  -22.4500  -25.1410   17.1670 C   0  0  0  0  0  3  0  0  0  0  0  0
  -22.9410  -24.3900   15.9070 C   0  0  0  0  0  2  0  0  0  0  0  0
  -22.3050  -24.9030   14.6120 C   0  0  0  0  0  2  0  0  0  0  0  0
  -20.7810  -24.7650   14.6680 C   0  0  0  0  0  2  0  0  0  0  0  0
  -20.9840  -25.5860   17.0880 C   0  0  0  0  0  0  0  0  0  0  0  0
  -20.3990  -26.2070   18.2130 C   0  0  0  0  0  3  0  0  0  0  0  0
  -19.0570  -26.6320   18.1860 C   0  0  0  0  0  3  0  0  0  0  0  0
  -18.2800  -26.4290   17.0320 C   0  0  0  0  0  3  0  0  0  0  0  0
  -18.8490  -25.8080   15.9050 C   0  0  0  0  0  3  0  0  0  0  0  0
  -26.1410  -27.5870   22.2380 C   0  0  0  0  0  3  0  0  0  0  0  0
  -26.4900  -26.1480   22.7840 C   0  0  1  0  0  0  0  0  0  0  0  0
  -25.2860  -25.1770   22.7940 C   0  0  0  0  0  1  0  0  0  0  0  0
  -27.6110  -25.4940   21.9410 C   0  0  0  0  0  1  0  0  0  0  0  0
  -27.0300  -26.2540   24.2290 C   0  0  0  0  0  1  0  0  0  0  0  0
  -25.2840  -28.3040   23.1950 N   0  0  0  0  0  0  0  0  0  0  0  0
  -25.5350  -29.5280   23.6760 C   0  0  0  0  0  0  0  0  0  0  0  0
  -26.5610  -30.1550   23.4040 O   0  0  0  0  0  0  0  0  0  0  0  0
  -24.3960  -27.8770   23.4180 H   0  0  0  0  0  0  0  0  0  0  0  0
  -23.7060  -31.2510   23.8500 C   0  0  0  0  0  1  0  0  0  0  0  0
  -24.4800  -30.1590   24.6060 C   0  0  0  0  0  3  0  0  0  0  0  0
  -25.4960  -29.7140   26.7980 C   0  0  0  0  0  1  0  0  0  0  0  0
  -25.0520  -30.7290   25.8460 N   0  0  0  0  0  0  0  0  0  0  0  0
  -24.3760  -31.3280   26.3130 H   0  0  0  0  0  0  0  0  0  0  0  0
  2  5  1  0
  3  1  1  0
  4  2  1  0
  4  6  1  0
  5  1  1  0
  5 12  1  0
  6  7  1  1
  6  3  1  0
  8 11  1  0
  9  8  2  0
  9 13  1  0
 10 49  1  0
 11 12  2  0
 12 10  1  0
 13 10  2  0
 14 20  1  0
 15 20  1  0
 16 15  1  0
 16 17  1  0
 18 17  1  0
 18 27  1  0
 18 19  1  0
 20 19  1  0
 21 14  2  0
 22 13  1  0
 22 14  1  0
 23 22  1  0
 24 25  2  0
 25 44  1  0
 26 25  1  0
 27 28  1  0
 27 24  1  0
 28 26  2  0
 29 26  1  0
 29 30  1  0
 31 30  2  0
 32 31  1  0
 33 34  1  0
 33 32  2  0
 34 29  2  0
 35 32  1  0
 35 36  1  0
 36 41  2  0
 36 37  1  0
 37 38  2  0
 38 39  1  0
 39 43  1  0
 40 39  2  0
 41 40  1  0
 42 41  1  0
 44 45  1  0
 45 48  1  0
 45 47  1  0
 46 44  2  0
 50 49  1  0
 51 49  1  0
 52 54  2  0
 52 11  1  0
 53 52  1  0
 55 53  1  0
 56 53  1  0
 58 57  1  0
 58  6  1  0
 59 58  1  0
 60 62  1  0
 60 59  1  0
 61 72  2  0
 62 67  1  0
 63 73  1  0
 63 71  1  0
 64 66  1  0
 65 71  1  0
 66 67  2  0
 66 65  1  0
 68 62  2  0
 69 68  1  0
 69 64  2  0
 70 64  1  0
 70 63  1  0
 71 61  1  0
 73 75  2  0
 74 73  1  0
 76 74  1  0
 77 82  1  0
 78 74  1  0
 79 78  1  0
 80 81  1  0
 80 79  1  0
 81 77  1  0
 82 78  1  0
 82 83  2  0
 84 83  1  0
 85 84  2  0
 86 77  2  0
 86 85  1  0
 87 61  1  0
 87 88  1  0
 87 92  1  0
 88 89  1  1
 88 91  1  0
 90 88  1  0
 92 95  1  0
 92 93  1  0
 93 97  1  0
 94 93  2  0
 97 96  1  0
 97 99  1  0
 99100  1  0
 99 98  1  0
M  ISO  4  14 100  22 100  59 101  60 101
M  END
>  <TORSDO>  (41) 
F 20

>  <SCORE>  (41) 
0.018

>  <name>  (41) 
40

>  <ligand_id>  (41) 
40

>  <original_smiles>  (41) 
[H]c1c([H])c([H])c2c(c1[H])C([H])([H])C([H])([H])C([H])([H])C2([H])N([H])C(=O)C1([H])N(C(=O)C([H])(N([H])C(=O)C([H])(N([H])C([H])([H])[H])C([H])([H])[H])C(C([H])([H])[H])(C([H])([H])[H])C([H])([H])[H])C([H])([H])c2c([H])c(OC([H])([H])C([H])(C([H])([H])[H])[N+]3([H])C([H])([H])C([H])([H])C([H])(c4c([H])c(N([H])C(=O)N5C([H])([H])C([H])([H])C([H])([H])C([H])(n6nc(-c7c([H])c([H])c(Oc8c([H])c([H])c(F)c([H])c8F)c([H])c7[H])c(C(=O)N([H])[H])c6N([H])[H])C5([H])[H])c([H])c([H])c4C(=O)N([H])[H])C([H])([H])C3([H])[H])c([H])c([H])c2C1([H])[H]

>  <smiles>  (41) 
[H]c1c([H])c([H])c2c(c1[H])C([H])([H])C([H])([H])C([H])([H])C2([H])N([H])C(=O)C1([H])N(C(=O)C([H])(N([H])C(=O)C([H])(N([H])C([H])([H])[H])C([H])([H])[H])C(C([H])([H])[H])(C([H])([H])[H])C([H])([H])[H])C([H])([H])c2c([H])c(OC([H])([H])C([H])(C([H])([H])[H])[N+]3([H])C([H])([H])C([H])([H])C([H])(c4c([H])c(N([H])C(=O)N5C([H])([H])C([H])([H])C([H])([H])C([H])(n6nc(-c7c([H])c([H])c(Oc8c([H])c([H])c(F)c([H])c8F)c([H])c7[H])c(C(=O)N([H])[H])c6N([H])[H])C5([H])[H])c([H])c([H])c4C(=O)N([H])[H])C([H])([H])C3([H])[H])c([H])c([H])c2C1([H])[H]

$$$$
41:0:0
     RDKit          3D

 93101  0  0  1  0  0  0  0  0999 V2000
  -28.6420  -23.5840   19.8020 C   0  0  0  0  0  3  0  0  0  0  0  0
  -29.3380  -23.8900   18.5380 N   0  0  0  0  0  4  0  0  0  0  0  0
  -30.2740  -24.2180   18.7010 H   0  0  0  0  0  0  0  0  0  0  0  0
  -28.8420  -24.6060   18.0360 H   0  0  0  0  0  0  0  0  0  0  0  0
  -29.3780  -23.0730   17.9570 H   0  0  0  0  0  0  0  0  0  0  0  0
  -29.3690  -22.2820   20.5200 C   0  0  0  0  0  2  0  0  0  0  0  0
  -29.9450  -18.5090   18.9590 C   0  0  0  0  0  0  0  0  0  0  0  0
  -29.9520  -20.1070   19.1090 C   0  0  0  0  0  2  0  0  0  0  0  0
  -29.3130  -18.3400   21.2390 C   0  0  0  0  0  2  0  0  0  0  0  0
  -29.4710  -19.9200   21.3940 C   0  0  0  0  0  2  0  0  0  0  0  0
  -30.2690  -17.6160   20.2160 C   0  0  0  0  0  3  0  0  0  0  0  0
  -29.1640  -20.7750   20.2060 N   0  0  0  0  0  0  0  0  0  0  0  0
  -29.6740  -18.0070   17.8660 O   0  0  0  0  0  0  0  0  0  0  0  0
  -30.8080  -14.9620   19.8940 C   0  0  0  0  0  0  0  0  0  0  0  0
  -30.6290  -12.6360   18.9490 C   0  0  0  0  0  2  0  0  0  0  0  0
  -29.6280  -12.6370   17.7710 C   0  0  0  0  0  2  0  0  0  0  0  0
  -28.1790  -12.4580   18.2740 C   0  0  0  0  0  2  0  0  0  0  0  0
  -27.8520  -13.3680   19.4880 C   0  0  0  0  0  3  0  0  0  0  0  0
  -28.9670  -13.3290   20.5530 C   0  0  0  0  0  2  0  0  0  0  0  0
  -30.2160  -13.7120   19.8830 N   0  0  0  0  0  0  0  0  0  0  0  0
  -31.9860  -15.0720   19.5460 O   0  0  0  0  0  0  0  0  0  0  0  0
  -30.0020  -16.0820   20.1250 N   0  0  0  0  0  0  0  0  0  0  0  0
  -29.0390  -15.8390   20.2880 H   0  0  0  0  0  0  0  0  0  0  0  0
  -25.5250  -13.9630   20.3850 C   0  0  0  0  0  0  0  0  0  0  0  0
  -24.4720  -13.1920   20.7970 C   0  0  0  0  0  0  0  0  0  0  0  0
  -24.9120  -11.8360   20.6950 C   0  0  0  0  0  0  0  0  0  0  0  0
  -26.5390  -13.0780   20.0550 N   0  0  0  0  0  0  0  0  0  0  0  0
  -26.1820  -11.7920   20.3060 N   0  0  0  0  0  0  0  0  0  0  0  0
  -24.1780  -10.5780   20.8880 C   0  0  0  0  0  0  0  0  0  0  0  0
  -24.5800   -9.6300   21.8550 C   0  0  0  0  0  3  0  0  0  0  0  0
  -23.8470   -8.4380   22.0350 C   0  0  0  0  0  3  0  0  0  0  0  0
  -22.6980   -8.1850   21.2490 C   0  0  0  0  0  0  0  0  0  0  0  0
  -22.3150   -9.1220   20.2730 C   0  0  0  0  0  3  0  0  0  0  0  0
  -23.0490  -10.3070   20.0910 C   0  0  0  0  0  3  0  0  0  0  0  0
  -21.9370   -7.0450   21.3390 O   0  0  0  0  0  0  0  0  0  0  0  0
  -21.7590   -6.3890   22.5310 C   0  0  0  0  0  0  0  0  0  0  0  0
  -21.1600   -7.0180   23.6440 C   0  0  0  0  0  3  0  0  0  0  0  0
  -20.9320   -6.2870   24.8280 C   0  0  0  0  0  3  0  0  0  0  0  0
  -21.2930   -4.9280   24.8960 C   0  0  0  0  0  0  0  0  0  0  0  0
  -21.8830   -4.2990   23.7860 C   0  0  0  0  0  3  0  0  0  0  0  0
  -22.1120   -5.0260   22.6060 C   0  0  0  0  0  0  0  0  0  0  0  0
  -22.6620   -4.4090   21.5330 F   0  0  0  0  0  0  0  0  0  0  0  0
  -21.0670   -4.2240   26.0290 F   0  0  0  0  0  0  0  0  0  0  0  0
  -23.1000  -13.6790   21.1640 C   0  0  0  0  0  0  0  0  0  0  0  0
  -22.4120  -12.9700   22.0510 N   0  0  0  0  0  0  0  0  0  0  0  0
  -22.6490  -14.7270   20.7000 O   0  0  0  0  0  0  0  0  0  0  0  0
  -22.7890  -12.1240   22.4520 H   0  0  0  0  0  0  0  0  0  0  0  0
  -21.4940  -13.2800   22.3370 H   0  0  0  0  0  0  0  0  0  0  0  0
  -25.6950  -15.3370   20.2380 N   0  0  0  0  0  0  0  0  0  0  0  0
  -24.9370  -15.9880   20.4110 H   0  0  0  0  0  0  0  0  0  0  0  0
  -26.5020  -15.7770   19.8170 H   0  0  0  0  0  0  0  0  0  0  0  0
  -28.4180  -24.9940   20.6470 C   0  0  0  0  0  2  0  0  0  0  0  0
  -28.4830  -26.4210   20.1060 O   0  0  0  0  0  0  0  0  0  0  0  0
  -24.7130  -31.8850   23.2190 C   0  0  0  0  0  0  0  0  0  0  0  0
  -27.3660  -27.2990   20.1470 C   0  0  0  0  0  0  0  0  0  0  0  0
  -23.5250  -30.4740   21.5800 C   0  0  0  0  0  3  0  0  0  0  0  0
  -24.9910  -28.9360   20.1440 C   0  0  0  0  0  0  0  0  0  0  0  0
  -26.0650  -30.8110   21.3880 C   0  0  0  0  0  2  0  0  0  0  0  0
  -26.1630  -29.4260   20.7360 C   0  0  0  0  0  0  0  0  0  0  0  0
  -27.3550  -28.6250   20.7160 C   0  0  0  0  0  3  0  0  0  0  0  0
  -26.1670  -26.8770   19.5350 C   0  0  0  0  0  3  0  0  0  0  0  0
  -25.0010  -27.6720   19.5300 C   0  0  0  0  0  3  0  0  0  0  0  0
  -23.7460  -29.8030   20.1980 C   0  0  0  0  0  2  0  0  0  0  0  0
  -24.7870  -31.0770   22.1170 N   0  0  0  0  0  0  0  0  0  0  0  0
  -23.6280  -32.1450   23.7590 O   0  0  0  0  0  0  0  0  0  0  0  0
  -22.8780  -29.4480   22.5420 C   0  0  0  0  0  0  0  0  0  0  0  0
  -21.5540  -29.2480   22.4210 N   0  0  0  0  0  0  0  0  0  0  0  0
  -23.5700  -28.8330   23.3580 O   0  0  0  0  0  0  0  0  0  0  0  0
  -21.0530  -29.7970   21.7360 H   0  0  0  0  0  0  0  0  0  0  0  0
  -18.2020  -27.9740   22.9230 C   0  0  0  0  0  0  0  0  0  0  0  0
  -20.7550  -28.2920   23.1920 C   0  0  0  0  0  3  0  0  0  0  0  0
  -20.8890  -26.8630   22.6150 C   0  0  0  0  0  2  0  0  0  0  0  0
  -19.7930  -26.5170   21.6010 C   0  0  0  0  0  2  0  0  0  0  0  0
  -18.4090  -26.6300   22.2460 C   0  0  0  0  0  2  0  0  0  0  0  0
  -19.3040  -28.7610   23.3540 C   0  0  0  0  0  0  0  0  0  0  0  0
  -19.0570  -30.0180   23.9480 C   0  0  0  0  0  3  0  0  0  0  0  0
  -17.7400  -30.4880   24.1150 C   0  0  0  0  0  3  0  0  0  0  0  0
  -16.6530  -29.6980   23.7030 C   0  0  0  0  0  3  0  0  0  0  0  0
  -16.8860  -28.4420   23.1130 C   0  0  0  0  0  3  0  0  0  0  0  0
  -25.9870  -32.5380   23.8380 C   0  0  0  0  0  3  0  0  0  0  0  0
  -26.5160  -31.7770   25.1170 C   0  0  1  0  0  0  0  0  0  0  0  0
  -25.4260  -31.5220   26.1860 C   0  0  0  0  0  1  0  0  0  0  0  0
  -27.1210  -30.4080   24.7290 C   0  0  0  0  0  1  0  0  0  0  0  0
  -27.6550  -32.5890   25.7770 C   0  0  0  0  0  1  0  0  0  0  0  0
  -25.6570  -33.9330   24.1720 N   0  0  0  0  0  0  0  0  0  0  0  0
  -25.9760  -34.9930   23.4170 C   0  0  0  0  0  0  0  0  0  0  0  0
  -26.6460  -34.9000   22.3850 O   0  0  0  0  0  0  0  0  0  0  0  0
  -25.0580  -34.0760   24.9720 H   0  0  0  0  0  0  0  0  0  0  0  0
  -24.2300  -36.7700   23.0680 C   0  0  0  0  0  1  0  0  0  0  0  0
  -25.4740  -36.3750   23.8800 C   0  0  0  0  0  3  0  0  0  0  0  0
  -27.5930  -37.2830   24.7260 C   0  0  0  0  0  1  0  0  0  0  0  0
  -26.4950  -37.4390   23.7750 N   0  0  0  0  0  0  0  0  0  0  0  0
  -26.0780  -38.3540   23.9200 H   0  0  0  0  0  0  0  0  0  0  0  0
  1  6  1  0
  1 52  1  0
  2  3  1  0
  2  1  1  0
  4  2  1  0
  5  2  1  0
  7  8  1  0
  7 11  1  0
  8 12  1  0
  9 10  1  0
 11 22  1  0
 11  9  1  0
 12  6  1  0
 12 10  1  0
 13  7  2  0
 14 22  1  0
 15 20  1  0
 16 17  1  0
 16 15  1  0
 18 17  1  0
 18 27  1  0
 18 19  1  0
 20 14  1  0
 20 19  1  0
 21 14  2  0
 22 23  1  0
 24 25  2  0
 25 44  1  0
 26 25  1  0
 26 29  1  0
 27 28  1  0
 27 24  1  0
 28 26  2  0
 29 30  1  0
 30 31  2  0
 32 35  1  0
 32 31  1  0
 33 32  2  0
 34 33  1  0
 34 29  2  0
 35 36  1  0
 36 41  2  0
 36 37  1  0
 37 38  2  0
 38 39  1  0
 39 43  1  0
 40 39  2  0
 41 40  1  0
 42 41  1  0
 44 45  1  0
 45 48  1  0
 45 47  1  0
 46 44  2  0
 49 24  1  0
 49 50  1  0
 51 49  1  0
 53 55  1  0
 53 52  1  0
 54 65  2  0
 55 60  1  0
 56 64  1  0
 56 66  1  0
 57 63  1  0
 57 59  1  0
 58 64  1  0
 59 58  1  0
 60 59  2  0
 61 55  2  0
 62 61  1  0
 62 57  2  0
 63 56  1  0
 64 54  1  0
 66 68  2  0
 67 66  1  0
 69 67  1  0
 70 79  2  0
 70 75  1  0
 71 67  1  0
 71 75  1  0
 72 71  1  0
 73 74  1  0
 73 72  1  0
 74 70  1  0
 75 76  2  0
 76 77  1  0
 78 77  2  0
 79 78  1  0
 80 54  1  0
 80 85  1  0
 80 81  1  0
 81 84  1  1
 81 82  1  0
 83 81  1  0
 85 88  1  0
 86 90  1  0
 86 85  1  0
 87 86  2  0
 90 89  1  0
 92 90  1  0
 92 93  1  0
 92 91  1  0
M  ISO  4  14 100  22 100  52 101  53 101
M  END
>  <TORSDO>  (42) 
F 20

>  <SCORE>  (42) 
-13.110

>  <name>  (42) 
41

>  <ligand_id>  (42) 
41

>  <original_smiles>  (42) 
[H]c1c([H])c([H])c2c(c1[H])C([H])([H])C([H])([H])C([H])([H])C2([H])N([H])C(=O)C1([H])N(C(=O)C([H])(N([H])C(=O)C([H])(N([H])C([H])([H])[H])C([H])([H])[H])C(C([H])([H])[H])(C([H])([H])[H])C([H])([H])[H])C([H])([H])c2c([H])c(OC([H])([H])C([H])(C([H])([H])N3C([H])([H])C(=O)C([H])(N([H])C(=O)N4C([H])([H])C([H])([H])C([H])([H])C([H])(n5nc(-c6c([H])c([H])c(Oc7c([H])c([H])c(F)c([H])c7F)c([H])c6[H])c(C(=O)N([H])[H])c5N([H])[H])C4([H])[H])C([H])([H])C3([H])[H])[N+]([H])([H])[H])c([H])c([H])c2C1([H])[H]

>  <smiles>  (42) 
[H]c1c([H])c([H])c2c(c1[H])C([H])([H])C([H])([H])C([H])([H])C2([H])N([H])C(=O)C1([H])N(C(=O)C([H])(N([H])C(=O)C([H])(N([H])C([H])([H])[H])C([H])([H])[H])C(C([H])([H])[H])(C([H])([H])[H])C([H])([H])[H])C([H])([H])c2c([H])c(OC([H])([H])C([H])(C([H])([H])N3C([H])([H])C(=O)C([H])(N([H])C(=O)N4C([H])([H])C([H])([H])C([H])([H])C([H])(n5nc(-c6c([H])c([H])c(Oc7c([H])c([H])c(F)c([H])c7F)c([H])c6[H])c(C(=O)N([H])[H])c5N([H])[H])C4([H])[H])C([H])([H])C3([H])[H])[N+]([H])([H])[H])c([H])c([H])c2C1([H])[H]

$$$$
42:0:0
     RDKit          3D

 99108  0  0  1  0  0  0  0  0999 V2000
  -27.4020  -21.5690   21.3040 C   0  0  0  0  0  3  0  0  0  0  0  0
  -28.1010  -20.3710   21.0520 C   0  0  0  0  0  3  0  0  0  0  0  0
  -29.4750  -21.5430   19.4210 C   0  0  0  0  0  3  0  0  0  0  0  0
  -27.7470  -22.7690   20.6440 C   0  0  0  0  0  0  0  0  0  0  0  0
  -29.1540  -20.3480   20.1130 C   0  0  0  0  0  0  0  0  0  0  0  0
  -28.7940  -22.7610   19.6780 C   0  0  0  0  0  0  0  0  0  0  0  0
  -31.4140  -15.0160   19.7400 C   0  0  0  0  0  0  0  0  0  0  0  0
  -31.1440  -12.6680   19.0430 C   0  0  0  0  0  2  0  0  0  0  0  0
  -30.1800  -12.6110   17.8400 C   0  0  0  0  0  2  0  0  0  0  0  0
  -28.7200  -12.5160   18.3250 C   0  0  0  0  0  2  0  0  0  0  0  0
  -28.3730  -13.5740   19.4050 C   0  0  0  0  0  3  0  0  0  0  0  0
  -29.4540  -13.6260   20.5080 C   0  0  0  0  0  2  0  0  0  0  0  0
  -30.7540  -13.8310   19.8560 N   0  0  0  0  0  0  0  0  0  0  0  0
  -32.5560  -15.0880   19.2730 O   0  0  0  0  0  0  0  0  0  0  0  0
  -30.3900  -18.3610   21.1820 C   0  0  0  0  0  2  0  0  0  0  0  0
  -29.2510  -18.0160   19.0140 C   0  0  0  0  0  2  0  0  0  0  0  0
  -31.2950  -17.1340   20.8940 C   0  0  0  0  0  2  0  0  0  0  0  0
  -30.1900  -16.8160   18.7370 C   0  0  0  0  0  2  0  0  0  0  0  0
  -29.9610  -19.0630   19.8830 C   0  0  0  0  0  3  0  0  0  0  0  0
  -30.6980  -16.1520   19.9610 N   0  0  0  0  0  0  0  0  0  0  0  0
  -26.0690  -14.3010   20.2870 C   0  0  0  0  0  0  0  0  0  0  0  0
  -24.9770  -13.5840   20.6950 C   0  0  0  0  0  0  0  0  0  0  0  0
  -25.3490  -12.2080   20.5940 C   0  0  0  0  0  0  0  0  0  0  0  0
  -27.0370  -13.3650   19.9600 N   0  0  0  0  0  0  0  0  0  0  0  0
  -26.6120  -12.1000   20.2020 N   0  0  0  0  0  0  0  0  0  0  0  0
  -24.5580  -10.9870   20.7880 C   0  0  0  0  0  0  0  0  0  0  0  0
  -24.9620   -9.9810   21.6940 C   0  0  0  0  0  3  0  0  0  0  0  0
  -24.1750   -8.8230   21.8760 C   0  0  0  0  0  3  0  0  0  0  0  0
  -22.9700   -8.6650   21.1500 C   0  0  0  0  0  0  0  0  0  0  0  0
  -22.5840   -9.6570   20.2320 C   0  0  0  0  0  3  0  0  0  0  0  0
  -23.3730  -10.8050   20.0480 C   0  0  0  0  0  3  0  0  0  0  0  0
  -22.1560   -7.5610   21.2440 O   0  0  0  0  0  0  0  0  0  0  0  0
  -21.9580   -6.9120   22.4350 C   0  0  0  0  0  0  0  0  0  0  0  0
  -21.3940   -7.5630   23.5540 C   0  0  0  0  0  3  0  0  0  0  0  0
  -21.1440   -6.8390   24.7370 C   0  0  0  0  0  3  0  0  0  0  0  0
  -21.4480   -5.4650   24.8010 C   0  0  0  0  0  0  0  0  0  0  0  0
  -22.0070   -4.8150   23.6860 C   0  0  0  0  0  3  0  0  0  0  0  0
  -22.2590   -5.5370   22.5060 C   0  0  0  0  0  0  0  0  0  0  0  0
  -22.7780   -4.9010   21.4280 F   0  0  0  0  0  0  0  0  0  0  0  0
  -21.2000   -4.7680   25.9330 F   0  0  0  0  0  0  0  0  0  0  0  0
  -23.6310  -14.1390   21.0680 C   0  0  0  0  0  0  0  0  0  0  0  0
  -22.9410  -13.4960   22.0050 N   0  0  0  0  0  0  0  0  0  0  0  0
  -23.2040  -15.1770   20.5640 O   0  0  0  0  0  0  0  0  0  0  0  0
  -23.3010  -12.6590   22.4360 H   0  0  0  0  0  0  0  0  0  0  0  0
  -22.0400  -13.8500   22.2970 H   0  0  0  0  0  0  0  0  0  0  0  0
  -26.3140  -15.6630   20.1480 N   0  0  0  0  0  0  0  0  0  0  0  0
  -25.6010  -16.3640   20.3230 H   0  0  0  0  0  0  0  0  0  0  0  0
  -27.1740  -16.0490   19.7880 H   0  0  0  0  0  0  0  0  0  0  0  0
  -26.9880  -24.0120   21.0060 C   0  0  0  0  0  0  0  0  0  0  0  0
  -25.7240  -24.0460   20.6100 N   0  0  0  0  0  0  0  0  0  0  0  0
  -27.5140  -24.9310   21.6370 O   0  0  0  0  0  0  0  0  0  0  0  0
  -25.3460  -23.2660   20.0940 H   0  0  0  0  0  0  0  0  0  0  0  0
  -25.1490  -24.8520   20.8000 H   0  0  0  0  0  0  0  0  0  0  0  0
  -29.2330  -23.9360   19.0310 N   0  0  0  0  0  0  0  0  0  0  0  0
  -29.6730  -24.5790   19.6850 H   0  0  0  0  0  0  0  0  0  0  0  0
  -28.5900  -24.4500   16.7160 C   0  0  0  0  0  1  0  0  0  0  0  0
  -28.2640  -24.6650   18.2010 C   0  0  0  0  0  3  0  0  0  0  0  0
  -28.2490  -26.1770   18.5790 C   0  0  0  0  0  2  0  0  0  0  0  0
  -27.5060  -26.9990   17.6690 O   0  0  0  0  0  0  0  0  0  0  0  0
  -24.8470  -30.7940   23.0990 C   0  0  0  0  0  0  0  0  0  0  0  0
  -26.4420  -27.6790   18.2120 C   0  0  0  0  0  0  0  0  0  0  0  0
  -23.2200  -30.0470   21.3900 C   0  0  0  0  0  3  0  0  0  0  0  0
  -24.2270  -29.0870   19.2490 C   0  0  0  0  0  0  0  0  0  0  0  0
  -25.6700  -30.4490   20.7730 C   0  0  0  0  0  2  0  0  0  0  0  0
  -25.5170  -29.3770   19.7120 C   0  0  0  0  0  0  0  0  0  0  0  0
  -26.6310  -28.6800   19.1930 C   0  0  0  0  0  3  0  0  0  0  0  0
  -25.1420  -27.4000   17.7510 C   0  0  0  0  0  3  0  0  0  0  0  0
  -24.0320  -28.0980   18.2670 C   0  0  0  0  0  3  0  0  0  0  0  0
  -23.0880  -29.8810   19.8510 C   0  0  0  0  0  2  0  0  0  0  0  0
  -24.6100  -30.4240   21.8090 N   0  0  0  0  0  0  0  0  0  0  0  0
  -23.9250  -30.8650   23.9240 O   0  0  0  0  0  0  0  0  0  0  0  0
  -22.7030  -28.7590   22.0710 C   0  0  0  0  0  0  0  0  0  0  0  0
  -21.3820  -28.5290   21.9910 N   0  0  0  0  0  0  0  0  0  0  0  0
  -23.4830  -27.9840   22.6300 O   0  0  0  0  0  0  0  0  0  0  0  0
  -20.8090  -29.2180   21.5230 H   0  0  0  0  0  0  0  0  0  0  0  0
  -18.2160  -26.7900   21.9910 C   0  0  0  0  0  0  0  0  0  0  0  0
  -20.6800  -27.3630   22.5230 C   0  0  0  0  0  3  0  0  0  0  0  0
  -21.0410  -26.0860   21.7310 C   0  0  0  0  0  2  0  0  0  0  0  0
  -20.0680  -25.7910   20.5850 C   0  0  0  0  0  2  0  0  0  0  0  0
  -18.6440  -25.6200   21.1210 C   0  0  0  0  0  2  0  0  0  0  0  0
  -19.1730  -27.6170   22.6370 C   0  0  0  0  0  0  0  0  0  0  0  0
  -18.7230  -28.7130   23.4060 C   0  0  0  0  0  3  0  0  0  0  0  0
  -17.3480  -28.9830   23.5370 C   0  0  0  0  0  3  0  0  0  0  0  0
  -16.4050  -28.1510   22.9090 C   0  0  0  0  0  3  0  0  0  0  0  0
  -16.8390  -27.0550   22.1410 C   0  0  0  0  0  3  0  0  0  0  0  0
  -26.2790  -31.1660   23.5950 C   0  0  0  0  0  3  0  0  0  0  0  0
  -26.8920  -30.1020   24.5870 C   0  0  1  0  0  0  0  0  0  0  0  0
  -25.9630  -29.7520   25.7720 C   0  0  0  0  0  1  0  0  0  0  0  0
  -27.2220  -28.7890   23.8400 C   0  0  0  0  0  1  0  0  0  0  0  0
  -28.2280  -30.6300   25.1600 C   0  0  0  0  0  1  0  0  0  0  0  0
  -26.1960  -32.4860   24.2340 N   0  0  0  0  0  0  0  0  0  0  0  0
  -26.6960  -33.6140   23.7150 C   0  0  0  0  0  0  0  0  0  0  0  0
  -27.3470  -33.6400   22.6660 O   0  0  0  0  0  0  0  0  0  0  0  0
  -25.6290  -32.5500   25.0680 H   0  0  0  0  0  0  0  0  0  0  0  0
  -25.4070  -35.7730   23.7140 C   0  0  0  0  0  1  0  0  0  0  0  0
  -26.4340  -34.9250   24.4810 C   0  0  0  0  0  3  0  0  0  0  0  0
  -28.5680  -35.1050   25.6830 C   0  0  0  0  0  1  0  0  0  0  0  0
  -27.6590  -35.7210   24.7190 N   0  0  0  0  0  0  0  0  0  0  0  0
  -27.4250  -36.6520   25.0540 H   0  0  0  0  0  0  0  0  0  0  0  0
  2  1  1  0
  3  6  2  0
  3  5  1  0
  4 49  1  0
  4  1  2  0
  5  2  2  0
  6  4  1  0
  7 13  1  0
  7 20  1  0
  8 13  1  0
  9 10  1  0
  9  8  1  0
 11 10  1  0
 11 24  1  0
 11 12  1  0
 13 12  1  0
 14  7  2  0
 16 19  1  0
 17 15  1  0
 18 16  1  0
 18 20  1  0
 19  5  1  0
 19 15  1  0
 20 17  1  0
 21 22  2  0
 22 41  1  0
 23 22  1  0
 23 26  1  0
 24 25  1  0
 24 21  1  0
 25 23  2  0
 26 27  1  0
 27 28  2  0
 29 32  1  0
 29 28  1  0
 30 29  2  0
 31 30  1  0
 31 26  2  0
 32 33  1  0
 33 38  2  0
 33 34  1  0
 34 35  2  0
 35 36  1  0
 36 40  1  0
 37 36  2  0
 38 37  1  0
 39 38  1  0
 41 42  1  0
 42 45  1  0
 42 44  1  0
 43 41  2  0
 46 21  1  0
 46 47  1  0
 48 46  1  0
 49 51  2  0
 50 53  1  0
 50 49  1  0
 52 50  1  0
 54  6  1  0
 54 55  1  0
 57 56  1  0
 57 58  1  0
 57 54  1  0
 59 61  1  0
 59 58  1  0
 60 71  2  0
 61 66  1  0
 62 70  1  0
 62 72  1  0
 63 65  1  0
 63 69  1  0
 64 70  1  0
 65 64  1  0
 66 65  2  0
 67 61  2  0
 67 68  1  0
 68 63  2  0
 69 62  1  0
 70 60  1  0
 72 74  2  0
 73 72  1  0
 75 73  1  0
 76 85  2  0
 76 81  1  0
 77 73  1  0
 77 81  1  0
 78 77  1  0
 79 80  1  0
 79 78  1  0
 80 76  1  0
 81 82  2  0
 82 83  1  0
 84 83  2  0
 85 84  1  0
 86 60  1  0
 86 91  1  0
 86 87  1  0
 87 90  1  1
 87 88  1  0
 89 87  1  0
 91 94  1  0
 92 91  1  0
 92 96  1  0
 93 92  2  0
 96 95  1  0
 96 98  1  0
 98 99  1  0
 98 97  1  0
M  ISO  4   7 100  20 100  58 101  59 101
M  END
>  <TORSDO>  (43) 
F 20

>  <SCORE>  (43) 
-10.070

>  <name>  (43) 
42

>  <ligand_id>  (43) 
42

>  <original_smiles>  (43) 
[H]c1c([H])c([H])c2c(c1[H])C([H])([H])C([H])([H])C([H])([H])C2([H])N([H])C(=O)C1([H])N(C(=O)C([H])(N([H])C(=O)C([H])(N([H])C([H])([H])[H])C([H])([H])[H])C(C([H])([H])[H])(C([H])([H])[H])C([H])([H])[H])C([H])([H])c2c([H])c(OC([H])([H])C([H])(N([H])c3c([H])c(C4([H])C([H])([H])C([H])([H])N(C(=O)N5C([H])([H])C([H])([H])C([H])([H])C([H])(n6nc(-c7c([H])c([H])c(Oc8c([H])c([H])c(F)c([H])c8F)c([H])c7[H])c(C(=O)N([H])[H])c6N([H])[H])C5([H])[H])C([H])([H])C4([H])[H])c([H])c([H])c3C(=O)N([H])[H])C([H])([H])[H])c([H])c([H])c2C1([H])[H]

>  <smiles>  (43) 
[H]c1c([H])c([H])c2c(c1[H])C([H])([H])C([H])([H])C([H])([H])C2([H])N([H])C(=O)C1([H])N(C(=O)C([H])(N([H])C(=O)C([H])(N([H])C([H])([H])[H])C([H])([H])[H])C(C([H])([H])[H])(C([H])([H])[H])C([H])([H])[H])C([H])([H])c2c([H])c(OC([H])([H])C([H])(N([H])c3c([H])c(C4([H])C([H])([H])C([H])([H])N(C(=O)N5C([H])([H])C([H])([H])C([H])([H])C([H])(n6nc(-c7c([H])c([H])c(Oc8c([H])c([H])c(F)c([H])c8F)c([H])c7[H])c(C(=O)N([H])[H])c6N([H])[H])C5([H])[H])C([H])([H])C4([H])[H])c([H])c([H])c3C(=O)N([H])[H])C([H])([H])[H])c([H])c([H])c2C1([H])[H]

$$$$
43:0:0
     RDKit          3D

110118  0  0  1  0  0  0  0  0999 V2000
  -31.9220  -18.0650   18.0480 C   0  0  0  0  0  3  0  0  0  0  0  0
  -32.6490  -19.0930   20.1490 C   0  0  0  0  0  0  0  0  0  0  0  0
  -30.3280  -19.1320   19.4600 C   0  0  0  0  0  0  0  0  0  0  0  0
  -30.6520  -17.9050   18.6430 C   0  0  0  0  0  0  0  0  0  0  0  0
  -31.2730  -19.2510   20.5050 C   0  0  0  0  0  0  0  0  0  0  0  0
  -32.9440  -18.6480   18.8300 C   0  0  0  0  0  0  0  0  0  0  0  0
  -34.2190  -18.6150   18.3680 F   0  0  0  0  0  0  0  0  0  0  0  0
  -31.1680  -15.1860   18.9060 C   0  0  0  0  0  0  0  0  0  0  0  0
  -31.0000  -12.7200   18.3170 C   0  0  0  0  0  2  0  0  0  0  0  0
  -29.9160  -12.4980   17.2370 C   0  0  0  0  0  2  0  0  0  0  0  0
  -28.5310  -12.3220   17.8890 C   0  0  0  0  0  2  0  0  0  0  0  0
  -28.2570  -13.3830   18.9870 C   0  0  0  0  0  3  0  0  0  0  0  0
  -29.4520  -13.5660   19.9430 C   0  0  0  0  0  2  0  0  0  0  0  0
  -30.6060  -13.9220   19.1100 N   0  0  0  0  0  0  0  0  0  0  0  0
  -32.3310  -15.1820   18.4820 O   0  0  0  0  0  0  0  0  0  0  0  0
  -30.3890  -16.4010   18.9820 N   0  0  0  0  0  0  0  0  0  0  0  0
  -29.4570  -16.2200   19.3260 H   0  0  0  0  0  0  0  0  0  0  0  0
  -26.1150  -14.0540   20.2090 C   0  0  0  0  0  0  0  0  0  0  0  0
  -25.0700  -13.3280   20.7050 C   0  0  0  0  0  0  0  0  0  0  0  0
  -25.3980  -11.9550   20.4770 C   0  0  0  0  0  0  0  0  0  0  0  0
  -27.0120  -13.1310   19.7030 N   0  0  0  0  0  0  0  0  0  0  0  0
  -26.6030  -11.8560   19.9300 N   0  0  0  0  0  0  0  0  0  0  0  0
  -24.6060  -10.7370   20.6920 C   0  0  0  0  0  0  0  0  0  0  0  0
  -25.0510   -9.7070   21.5500 C   0  0  0  0  0  3  0  0  0  0  0  0
  -24.2600   -8.5560   21.7560 C   0  0  0  0  0  3  0  0  0  0  0  0
  -23.0110   -8.4260   21.1050 C   0  0  0  0  0  0  0  0  0  0  0  0
  -22.5840   -9.4430   20.2340 C   0  0  0  0  0  3  0  0  0  0  0  0
  -23.3730  -10.5860   20.0260 C   0  0  0  0  0  3  0  0  0  0  0  0
  -22.1880   -7.3330   21.2260 O   0  0  0  0  0  0  0  0  0  0  0  0
  -21.9650   -6.7290   22.4390 C   0  0  0  0  0  0  0  0  0  0  0  0
  -21.3460   -7.4120   23.5080 C   0  0  0  0  0  3  0  0  0  0  0  0
  -21.0740   -6.7340   24.7140 C   0  0  0  0  0  3  0  0  0  0  0  0
  -21.4100   -5.3730   24.8470 C   0  0  0  0  0  0  0  0  0  0  0  0
  -22.0200   -4.6900   23.7810 C   0  0  0  0  0  3  0  0  0  0  0  0
  -22.2940   -5.3670   22.5790 C   0  0  0  0  0  0  0  0  0  0  0  0
  -22.8640   -4.6980   21.5470 F   0  0  0  0  0  0  0  0  0  0  0  0
  -21.1410   -4.7190   26.0010 F   0  0  0  0  0  0  0  0  0  0  0  0
  -23.7910  -13.8790   21.2630 C   0  0  0  0  0  0  0  0  0  0  0  0
  -23.2070  -13.2020   22.2470 N   0  0  0  0  0  0  0  0  0  0  0  0
  -23.3270  -14.9450   20.8600 O   0  0  0  0  0  0  0  0  0  0  0  0
  -23.5990  -12.3400   22.5960 H   0  0  0  0  0  0  0  0  0  0  0  0
  -22.3540  -13.5540   22.6560 H   0  0  0  0  0  0  0  0  0  0  0  0
  -26.3630  -15.4210   20.1140 N   0  0  0  0  0  0  0  0  0  0  0  0
  -25.6680  -16.1070   20.3870 H   0  0  0  0  0  0  0  0  0  0  0  0
  -27.1270  -15.8230   19.5890 H   0  0  0  0  0  0  0  0  0  0  0  0
  -33.7750  -19.4220   21.1020 C   0  0  0  0  0  0  0  0  0  0  0  0
  -34.8200  -18.5980   21.1110 N   0  0  0  0  0  0  0  0  0  0  0  0
  -33.7290  -20.3960   21.8530 O   0  0  0  0  0  0  0  0  0  0  0  0
  -34.8610  -17.8170   20.4720 H   0  0  0  0  0  0  0  0  0  0  0  0
  -35.5940  -18.7710   21.7360 H   0  0  0  0  0  0  0  0  0  0  0  0
  -29.8090  -18.4160   22.2480 C   0  0  0  0  0  1  0  0  0  0  0  0
  -30.8420  -19.3730   21.8410 N   0  0  0  0  0  0  0  0  0  0  0  0
  -30.7870  -20.7130   22.3920 C   0  0  0  0  0  2  0  0  0  0  0  0
  -31.0700  -20.7630   23.9000 C   0  0  0  0  0  2  0  0  0  0  0  0
  -29.6850  -22.5490   24.8870 C   0  0  0  0  0  1  0  0  0  0  0  0
  -32.1180  -22.5160   25.3010 C   0  0  0  0  0  1  0  0  0  0  0  0
  -31.0180  -22.1640   24.3740 N   0  0  1  0  0  4  0  0  0  0  0  0
  -31.1440  -22.7250   23.5320 H   0  0  0  0  0  0  0  0  0  0  0  0
  -29.3750  -20.5030   19.1880 C   0  0  0  0  0  2  0  0  0  0  0  0
  -29.8050  -22.0670   19.1790 N   0  0  0  0  0  4  0  0  0  0  0  0
  -30.1180  -22.2070   18.2300 H   0  0  0  0  0  0  0  0  0  0  0  0
  -30.6420  -22.1390   19.7340 H   0  0  0  0  0  0  0  0  0  0  0  0
  -27.4440  -23.1430   19.1480 C   0  0  0  0  0  1  0  0  0  0  0  0
  -28.9240  -23.3880   19.5440 C   0  0  1  0  0  0  0  0  0  0  0  0
  -29.0410  -23.6620   21.0700 C   0  0  0  0  0  2  0  0  0  0  0  0
  -27.9810  -23.0650   21.8620 N   0  0  0  0  0  0  0  0  0  0  0  0
  -27.6420  -23.8100   22.4660 H   0  0  0  0  0  0  0  0  0  0  0  0
  -27.1890  -22.9330   21.2380 H   0  0  0  0  0  0  0  0  0  0  0  0
  -29.2770  -24.9410   18.9060 C   0  0  0  0  0  2  0  0  0  0  0  0
  -29.1290  -26.3920   19.5120 O   0  0  0  0  0  0  0  0  0  0  0  0
  -24.9150  -30.9970   23.4200 C   0  0  0  0  0  0  0  0  0  0  0  0
  -28.0140  -27.3110   19.5380 C   0  0  0  0  0  0  0  0  0  0  0  0
  -23.9530  -30.0620   21.3490 C   0  0  0  0  0  3  0  0  0  0  0  0
  -25.6110  -28.9500   19.7180 C   0  0  0  0  0  0  0  0  0  0  0  0
  -26.4940  -30.4150   21.5360 C   0  0  0  0  0  2  0  0  0  0  0  0
  -26.6980  -29.2460   20.5490 C   0  0  0  0  0  0  0  0  0  0  0  0
  -27.8970  -28.4450   20.4470 C   0  0  0  0  0  3  0  0  0  0  0  0
  -26.9020  -27.1230   18.6910 C   0  0  0  0  0  3  0  0  0  0  0  0
  -25.7260  -27.9060   18.7820 C   0  0  0  0  0  3  0  0  0  0  0  0
  -24.3420  -29.7780   19.8710 C   0  0  0  0  0  2  0  0  0  0  0  0
  -25.1340  -30.5010   22.1620 N   0  0  0  0  0  0  0  0  0  0  0  0
  -23.7690  -31.1040   23.8830 O   0  0  0  0  0  0  0  0  0  0  0  0
  -23.2360  -28.8210   21.9360 C   0  0  0  0  0  0  0  0  0  0  0  0
  -21.9100  -28.7230   21.7310 N   0  0  0  0  0  0  0  0  0  0  0  0
  -23.8760  -27.9590   22.5460 O   0  0  0  0  0  0  0  0  0  0  0  0
  -21.4510  -29.4750   21.2350 H   0  0  0  0  0  0  0  0  0  0  0  0
  -18.4890  -27.5320   21.8300 C   0  0  0  0  0  0  0  0  0  0  0  0
  -21.0560  -27.6100   22.1490 C   0  0  0  0  0  3  0  0  0  0  0  0
  -21.1120  -26.4500   21.1280 C   0  0  0  0  0  2  0  0  0  0  0  0
  -20.0020  -26.5200   20.0730 C   0  0  0  0  0  2  0  0  0  0  0  0
  -18.6250  -26.4840   20.7380 C   0  0  0  0  0  2  0  0  0  0  0  0
  -19.6320  -28.0730   22.4800 C   0  0  0  0  0  0  0  0  0  0  0  0
  -19.4490  -29.0690   23.4630 C   0  0  0  0  0  3  0  0  0  0  0  0
  -18.1590  -29.5240   23.8000 C   0  0  0  0  0  3  0  0  0  0  0  0
  -17.0320  -28.9750   23.1630 C   0  0  0  0  0  3  0  0  0  0  0  0
  -17.1990  -27.9790   22.1840 C   0  0  0  0  0  3  0  0  0  0  0  0
  -26.0910  -31.4730   24.3290 C   0  0  0  0  0  3  0  0  0  0  0  0
  -25.8410  -32.8780   24.6890 N   0  0  0  0  0  0  0  0  0  0  0  0
  -26.4440  -33.9320   24.1240 C   0  0  0  0  0  0  0  0  0  0  0  0
  -27.3290  -33.8170   23.2730 O   0  0  0  0  0  0  0  0  0  0  0  0
  -25.0950  -33.0490   25.3480 H   0  0  0  0  0  0  0  0  0  0  0  0
  -25.0300  -35.9270   23.5310 C   0  0  0  0  0  1  0  0  0  0  0  0
  -25.9940  -35.3370   24.5730 C   0  0  0  0  0  3  0  0  0  0  0  0
  -27.9460  -35.9140   25.9460 C   0  0  0  0  0  1  0  0  0  0  0  0
  -27.1170  -36.2720   24.7980 N   0  0  0  0  0  0  0  0  0  0  0  0
  -26.7740  -37.2190   24.9380 H   0  0  0  0  0  0  0  0  0  0  0  0
  -26.2630  -30.5970   25.6320 C   0  0  1  0  0  0  0  0  0  0  0  0
  -24.9570  -30.4240   26.4430 C   0  0  0  0  0  1  0  0  0  0  0  0
  -26.7880  -29.1860   25.2810 C   0  0  0  0  0  1  0  0  0  0  0  0
  -27.3170  -31.2420   26.5620 C   0  0  0  0  0  1  0  0  0  0  0  0
  1  4  2  0
  1  6  1  0
  2  5  1  0
  2 46  1  0
  3  5  2  0
  4 16  1  0
  4  3  1  0
  5 52  1  0
  6  2  2  0
  7  6  1  0
  8 16  1  0
  8 14  1  0
  9 14  1  0
 10 11  1  0
 10  9  1  0
 12 11  1  0
 12 21  1  0
 12 13  1  0
 14 13  1  0
 15  8  2  0
 16 17  1  0
 18 19  2  0
 19 38  1  0
 20 23  1  0
 20 19  1  0
 21 22  1  0
 21 18  1  0
 22 20  2  0
 23 24  1  0
 24 25  2  0
 26 29  1  0
 26 25  1  0
 27 26  2  0
 28 27  1  0
 28 23  2  0
 29 30  1  0
 30 35  2  0
 30 31  1  0
 31 32  2  0
 32 33  1  0
 33 37  1  0
 34 33  2  0
 35 34  1  0
 36 35  1  0
 38 39  1  0
 39 41  1  0
 39 42  1  0
 40 38  2  0
 43 18  1  0
 43 44  1  0
 45 43  1  0
 46 47  1  0
 46 48  2  0
 47 50  1  0
 49 47  1  0
 52 51  1  0
 52 53  1  0
 53 54  1  0
 54 57  1  0
 57 55  1  0
 57 56  1  0
 57 58  1  6
 59  3  1  0
 60 59  1  0
 60 64  1  0
 60 62  1  0
 61 60  1  0
 64 63  1  1
 64 65  1  0
 65 66  1  0
 66 67  1  0
 68 66  1  0
 69 70  1  0
 69 64  1  0
 70 72  1  0
 71 82  2  0
 72 77  1  0
 73 83  1  0
 73 81  1  0
 74 80  1  0
 74 76  1  0
 75 81  1  0
 76 75  1  0
 77 76  2  0
 78 79  1  0
 78 72  2  0
 79 74  2  0
 80 73  1  0
 81 71  1  0
 83 85  2  0
 84 83  1  0
 86 84  1  0
 87 96  2  0
 87 92  1  0
 88 84  1  0
 88 92  1  0
 89 88  1  0
 90 91  1  0
 90 89  1  0
 91 87  1  0
 92 93  2  0
 93 94  1  0
 95 94  2  0
 96 95  1  0
 97 71  1  0
 97 98  1  0
 97107  1  0
 98101  1  0
 99103  1  0
 99 98  1  0
100 99  2  0
103102  1  0
103105  1  0
105106  1  0
105104  1  0
107108  1  1
107110  1  0
109107  1  0
M  ISO  4   8 100  16 100  69 101  70 101
M  END
>  <TORSDO>  (44) 
F 27

>  <SCORE>  (44) 
-7.142

>  <name>  (44) 
43

>  <ligand_id>  (44) 
43

>  <original_smiles>  (44) 
[H]c1c([H])c([H])c2c(c1[H])C([H])([H])C([H])([H])C([H])([H])C2([H])N([H])C(=O)C1([H])N(C(=O)C([H])(N([H])C(=O)C([H])(N([H])C([H])([H])[H])C([H])([H])[H])C(C([H])([H])[H])(C([H])([H])[H])C([H])([H])[H])C([H])([H])c2c([H])c(OC([H])([H])C(C([H])([H])[H])(C([H])([H])N([H])[H])[N+]([H])([H])C([H])([H])c3c(N([H])C(=O)N4C([H])([H])C([H])([H])C([H])([H])C([H])(n5nc(-c6c([H])c([H])c(Oc7c([H])c([H])c(F)c([H])c7F)c([H])c6[H])c(C(=O)N([H])[H])c5N([H])[H])C4([H])[H])c([H])c(F)c(C(=O)N([H])[H])c3N(C([H])([H])[H])C([H])([H])C([H])([H])[N+]([H])(C([H])([H])[H])C([H])([H])[H])c([H])c([H])c2C1([H])[H]

>  <smiles>  (44) 
[H]c1c([H])c([H])c2c(c1[H])C([H])([H])C([H])([H])C([H])([H])C2([H])N([H])C(=O)C1([H])N(C(=O)C([H])(N([H])C(=O)C([H])(N([H])C([H])([H])[H])C([H])([H])[H])C(C([H])([H])[H])(C([H])([H])[H])C([H])([H])[H])C([H])([H])c2c([H])c(OC([H])([H])C(C([H])([H])[H])(C([H])([H])N([H])[H])[N+]([H])([H])C([H])([H])c3c(N([H])C(=O)N4C([H])([H])C([H])([H])C([H])([H])C([H])(n5nc(-c6c([H])c([H])c(Oc7c([H])c([H])c(F)c([H])c7F)c([H])c6[H])c(C(=O)N([H])[H])c5N([H])[H])C4([H])[H])c([H])c(F)c(C(=O)N([H])[H])c3N(C([H])([H])[H])C([H])([H])C([H])([H])[N+]([H])(C([H])([H])[H])C([H])([H])[H])c([H])c([H])c2C1([H])[H]

$$$$
44:0:0
     RDKit          3D

 97106  0  0  1  0  0  0  0  0999 V2000
  -30.2880  -22.1110   20.0700 C   0  0  0  0  0  2  0  0  0  0  0  0
  -28.1270  -21.7890   21.3050 C   0  0  0  0  0  2  0  0  0  0  0  0
  -29.5400  -22.9940   19.0380 C   0  0  0  0  0  2  0  0  0  0  0  0
  -27.4050  -22.5880   20.2070 C   0  0  0  0  0  2  0  0  0  0  0  0
  -29.3590  -21.0670   20.7280 C   0  0  0  0  0  3  0  0  0  0  0  0
  -28.2910  -23.6070   19.5820 N   0  0  1  0  0  4  0  0  0  0  0  0
  -27.7750  -23.9250   18.7720 H   0  0  0  0  0  0  0  0  0  0  0  0
  -30.4300  -20.8100   23.0350 C   0  0  0  0  0  1  0  0  0  0  0  0
  -30.0370  -20.2470   21.7430 N   0  0  0  0  0  0  0  0  0  0  0  0
  -30.3400  -17.8970   21.1240 C   0  0  0  0  0  3  0  0  0  0  0  0
  -32.5540  -17.0710   20.5020 C   0  0  0  0  0  3  0  0  0  0  0  0
  -32.2370  -19.4290   21.0260 C   0  0  0  0  0  3  0  0  0  0  0  0
  -31.1780  -16.8280   20.7240 C   0  0  0  0  0  0  0  0  0  0  0  0
  -30.8650  -19.2020   21.2840 C   0  0  0  0  0  0  0  0  0  0  0  0
  -33.0760  -18.3690   20.6390 C   0  0  0  0  0  0  0  0  0  0  0  0
  -34.3910  -18.5950   20.4040 F   0  0  0  0  0  0  0  0  0  0  0  0
  -31.1440  -14.5220   19.8470 C   0  0  0  0  0  0  0  0  0  0  0  0
  -30.8050  -12.2410   18.9770 C   0  0  0  0  0  2  0  0  0  0  0  0
  -29.8100  -12.2430   17.8010 C   0  0  0  0  0  2  0  0  0  0  0  0
  -28.3630  -12.1350   18.3160 C   0  0  0  0  0  2  0  0  0  0  0  0
  -28.0530  -13.1560   19.4420 C   0  0  0  0  0  3  0  0  0  0  0  0
  -29.1520  -13.1240   20.5280 C   0  0  0  0  0  2  0  0  0  0  0  0
  -30.4540  -13.3520   19.8740 N   0  0  0  0  0  0  0  0  0  0  0  0
  -32.1580  -14.6830   19.1590 O   0  0  0  0  0  0  0  0  0  0  0  0
  -30.6330  -15.5180   20.5910 N   0  0  0  0  0  0  0  0  0  0  0  0
  -29.7450  -15.3320   21.0310 H   0  0  0  0  0  0  0  0  0  0  0  0
  -25.7480  -13.8540   20.3560 C   0  0  0  0  0  0  0  0  0  0  0  0
  -24.6730  -13.1180   20.7770 C   0  0  0  0  0  0  0  0  0  0  0  0
  -25.0590  -11.7480   20.6570 C   0  0  0  0  0  0  0  0  0  0  0  0
  -26.7250  -12.9310   20.0110 N   0  0  0  0  0  0  0  0  0  0  0  0
  -26.3160  -11.6580   20.2460 N   0  0  0  0  0  0  0  0  0  0  0  0
  -24.2850  -10.5160   20.8510 C   0  0  0  0  0  0  0  0  0  0  0  0
  -24.6520   -9.5590   21.8230 C   0  0  0  0  0  3  0  0  0  0  0  0
  -23.8820   -8.3900   22.0040 C   0  0  0  0  0  3  0  0  0  0  0  0
  -22.7290   -8.1700   21.2130 C   0  0  0  0  0  0  0  0  0  0  0  0
  -22.3810   -9.1160   20.2320 C   0  0  0  0  0  3  0  0  0  0  0  0
  -23.1520  -10.2760   20.0500 C   0  0  0  0  0  3  0  0  0  0  0  0
  -21.9350   -7.0530   21.3020 O   0  0  0  0  0  0  0  0  0  0  0  0
  -21.7200   -6.4160   22.4980 C   0  0  0  0  0  0  0  0  0  0  0  0
  -21.1320   -7.0760   23.6000 C   0  0  0  0  0  3  0  0  0  0  0  0
  -20.8660   -6.3650   24.7870 C   0  0  0  0  0  3  0  0  0  0  0  0
  -21.1760   -4.9950   24.8720 C   0  0  0  0  0  0  0  0  0  0  0  0
  -21.7560   -4.3340   23.7740 C   0  0  0  0  0  3  0  0  0  0  0  0
  -22.0240   -5.0430   22.5890 C   0  0  0  0  0  0  0  0  0  0  0  0
  -22.5630   -4.3960   21.5280 F   0  0  0  0  0  0  0  0  0  0  0  0
  -20.9130   -4.3090   26.0090 F   0  0  0  0  0  0  0  0  0  0  0  0
  -23.3270  -13.6500   21.1770 C   0  0  0  0  0  0  0  0  0  0  0  0
  -22.6400  -12.9610   22.0810 N   0  0  0  0  0  0  0  0  0  0  0  0
  -22.8980  -14.7090   20.7250 O   0  0  0  0  0  0  0  0  0  0  0  0
  -23.0000  -12.1020   22.4670 H   0  0  0  0  0  0  0  0  0  0  0  0
  -21.7390  -13.2980   22.3910 H   0  0  0  0  0  0  0  0  0  0  0  0
  -25.9740  -15.2190   20.2180 N   0  0  0  0  0  0  0  0  0  0  0  0
  -25.2560  -15.9100   20.4090 H   0  0  0  0  0  0  0  0  0  0  0  0
  -26.8210  -15.6230   19.8370 H   0  0  0  0  0  0  0  0  0  0  0  0
  -28.4920  -24.8280   20.4230 C   0  0  0  0  0  2  0  0  0  0  0  0
  -28.8500  -26.0850   19.5940 C   0  0  0  0  0  2  0  0  0  0  0  0
  -28.6470  -27.2970   20.3330 O   0  0  0  0  0  0  0  0  0  0  0  0
  -24.6960  -32.2410   23.5570 C   0  0  0  0  0  0  0  0  0  0  0  0
  -27.4200  -27.9340   20.3460 C   0  0  0  0  0  0  0  0  0  0  0  0
  -23.5070  -30.8570   21.8860 C   0  0  0  0  0  3  0  0  0  0  0  0
  -24.9820  -29.3790   20.4160 C   0  0  0  0  0  0  0  0  0  0  0  0
  -26.0190  -31.2730   21.6770 C   0  0  0  0  0  2  0  0  0  0  0  0
  -26.1290  -29.9150   21.0110 C   0  0  0  0  0  0  0  0  0  0  0  0
  -27.3440  -29.1950   20.9790 C   0  0  0  0  0  3  0  0  0  0  0  0
  -26.2460  -27.4000   19.7640 C   0  0  0  0  0  3  0  0  0  0  0  0
  -25.0330  -28.1180   19.7960 C   0  0  0  0  0  3  0  0  0  0  0  0
  -23.7220  -30.2130   20.4890 C   0  0  0  0  0  2  0  0  0  0  0  0
  -24.7610  -31.4680   22.4360 N   0  0  0  0  0  0  0  0  0  0  0  0
  -23.6140  -32.4800   24.1100 O   0  0  0  0  0  0  0  0  0  0  0  0
  -22.8830  -29.8000   22.8230 C   0  0  0  0  0  0  0  0  0  0  0  0
  -21.5880  -29.5080   22.6170 N   0  0  0  0  0  0  0  0  0  0  0  0
  -23.5640  -29.2420   23.6880 O   0  0  0  0  0  0  0  0  0  0  0  0
  -21.0980  -30.0140   21.8930 H   0  0  0  0  0  0  0  0  0  0  0  0
  -18.3230  -27.9800   22.8570 C   0  0  0  0  0  0  0  0  0  0  0  0
  -20.8040  -28.5150   23.3490 C   0  0  0  0  0  3  0  0  0  0  0  0
  -21.1050  -27.0850   22.8460 C   0  0  0  0  0  2  0  0  0  0  0  0
  -20.1440  -26.6140   21.7500 C   0  0  0  0  0  2  0  0  0  0  0  0
  -18.6990  -26.6350   22.2600 C   0  0  0  0  0  2  0  0  0  0  0  0
  -19.3110  -28.8690   23.3530 C   0  0  0  0  0  0  0  0  0  0  0  0
  -18.9130  -30.1220   23.8650 C   0  0  0  0  0  3  0  0  0  0  0  0
  -17.5540  -30.4920   23.8870 C   0  0  0  0  0  3  0  0  0  0  0  0
  -16.5780  -29.6000   23.4070 C   0  0  0  0  0  3  0  0  0  0  0  0
  -16.9610  -28.3470   22.8980 C   0  0  0  0  0  3  0  0  0  0  0  0
  -25.9750  -32.8790   24.1860 C   0  0  0  0  0  3  0  0  0  0  0  0
  -26.4760  -32.1210   25.4780 C   0  0  1  0  0  0  0  0  0  0  0  0
  -25.3540  -31.8420   26.5080 C   0  0  0  0  0  1  0  0  0  0  0  0
  -27.1170  -30.7660   25.0960 C   0  0  0  0  0  1  0  0  0  0  0  0
  -27.5750  -32.9500   26.1850 C   0  0  0  0  0  1  0  0  0  0  0  0
  -25.6650  -34.2800   24.4930 N   0  0  0  0  0  0  0  0  0  0  0  0
  -26.0120  -35.3200   23.7220 C   0  0  0  0  0  0  0  0  0  0  0  0
  -26.6990  -35.1990   22.7040 O   0  0  0  0  0  0  0  0  0  0  0  0
  -25.0540  -34.4480   25.2790 H   0  0  0  0  0  0  0  0  0  0  0  0
  -24.2960  -37.1120   23.3090 C   0  0  0  0  0  1  0  0  0  0  0  0
  -25.5210  -36.7160   24.1490 C   0  0  0  0  0  3  0  0  0  0  0  0
  -27.6460  -37.6060   25.0000 C   0  0  0  0  0  1  0  0  0  0  0  0
  -26.5590  -37.7640   24.0370 N   0  0  0  0  0  0  0  0  0  0  0  0
  -26.1550  -38.6860   24.1690 H   0  0  0  0  0  0  0  0  0  0  0  0
  1  5  1  0
  3  6  1  0
  3  1  1  0
  4  2  1  0
  5  2  1  0
  5  9  1  0
  6  4  1  0
  6 55  1  0
  6  7  1  6
  9  8  1  0
 10 14  1  0
 11 15  2  0
 11 13  1  0
 12 14  2  0
 13 10  2  0
 14  9  1  0
 15 12  1  0
 16 15  1  0
 17 23  1  0
 17 25  1  0
 18 23  1  0
 19 20  1  0
 19 18  1  0
 21 20  1  0
 21 30  1  0
 21 22  1  0
 23 22  1  0
 24 17  2  0
 25 13  1  0
 25 26  1  0
 27 28  2  0
 28 47  1  0
 29 28  1  0
 29 32  1  0
 30 31  1  0
 30 27  1  0
 31 29  2  0
 32 33  1  0
 33 34  2  0
 35 38  1  0
 35 34  1  0
 36 35  2  0
 37 36  1  0
 37 32  2  0
 38 39  1  0
 39 44  2  0
 39 40  1  0
 40 41  2  0
 41 42  1  0
 42 46  1  0
 43 42  2  0
 44 43  1  0
 45 44  1  0
 47 48  1  0
 48 51  1  0
 48 50  1  0
 49 47  2  0
 52 27  1  0
 52 53  1  0
 54 52  1  0
 56 57  1  0
 56 55  1  0
 57 59  1  0
 58 69  2  0
 59 64  1  0
 60 68  1  0
 60 70  1  0
 61 67  1  0
 61 63  1  0
 62 68  1  0
 63 62  1  0
 64 63  2  0
 65 66  1  0
 65 59  2  0
 66 61  2  0
 67 60  1  0
 68 58  1  0
 70 72  2  0
 71 70  1  0
 73 71  1  0
 74 83  2  0
 74 79  1  0
 75 71  1  0
 75 79  1  0
 76 75  1  0
 77 78  1  0
 77 76  1  0
 78 74  1  0
 79 80  2  0
 80 81  1  0
 82 81  2  0
 83 82  1  0
 84 58  1  0
 84 89  1  0
 84 85  1  0
 85 88  1  1
 85 86  1  0
 87 85  1  0
 89 92  1  0
 90 94  1  0
 90 89  1  0
 91 90  2  0
 94 93  1  0
 96 94  1  0
 96 97  1  0
 96 95  1  0
M  ISO  4  17 100  25 100  56 101  57 101
M  END
>  <TORSDO>  (45) 
F 20

>  <SCORE>  (45) 
-12.829

>  <name>  (45) 
44

>  <ligand_id>  (45) 
44

>  <original_smiles>  (45) 
[H]c1c([H])c([H])c2c(c1[H])C([H])([H])C([H])([H])C([H])([H])C2([H])N([H])C(=O)C1([H])N(C(=O)C([H])(N([H])C(=O)C([H])(N([H])C([H])([H])[H])C([H])([H])[H])C(C([H])([H])[H])(C([H])([H])[H])C([H])([H])[H])C([H])([H])c2c([H])c(OC([H])([H])C([H])([H])[N+]3([H])C([H])([H])C([H])([H])C([H])(N(c4c([H])c(F)c([H])c(N([H])C(=O)N5C([H])([H])C([H])([H])C([H])([H])C([H])(n6nc(-c7c([H])c([H])c(Oc8c([H])c([H])c(F)c([H])c8F)c([H])c7[H])c(C(=O)N([H])[H])c6N([H])[H])C5([H])[H])c4[H])C([H])([H])[H])C([H])([H])C3([H])[H])c([H])c([H])c2C1([H])[H]

>  <smiles>  (45) 
[H]c1c([H])c([H])c2c(c1[H])C([H])([H])C([H])([H])C([H])([H])C2([H])N([H])C(=O)C1([H])N(C(=O)C([H])(N([H])C(=O)C([H])(N([H])C([H])([H])[H])C([H])([H])[H])C(C([H])([H])[H])(C([H])([H])[H])C([H])([H])[H])C([H])([H])c2c([H])c(OC([H])([H])C([H])([H])[N+]3([H])C([H])([H])C([H])([H])C([H])(N(c4c([H])c(F)c([H])c(N([H])C(=O)N5C([H])([H])C([H])([H])C([H])([H])C([H])(n6nc(-c7c([H])c([H])c(Oc8c([H])c([H])c(F)c([H])c8F)c([H])c7[H])c(C(=O)N([H])[H])c6N([H])[H])C5([H])[H])c4[H])C([H])([H])[H])C([H])([H])C3([H])[H])c([H])c([H])c2C1([H])[H]

$$$$
45:0:0
     RDKit          3D

 95103  0  0  1  0  0  0  0  0999 V2000
  -29.9140  -23.0090   20.0280 C   0  0  0  0  0  2  0  0  0  0  0  0
  -28.5950  -21.7540   18.3980 C   0  0  0  0  0  1  0  0  0  0  0  0
  -28.7810  -22.0940   19.8060 N   0  0  0  0  0  0  0  0  0  0  0  0
  -28.5570  -20.9620   20.7380 C   0  0  0  0  0  2  0  0  0  0  0  0
  -29.0210  -18.7190   19.4850 C   0  0  0  0  0  3  0  0  0  0  0  0
  -29.9370  -19.0410   21.7020 C   0  0  0  0  0  3  0  0  0  0  0  0
  -29.3930  -17.3500   19.5250 C   0  0  0  0  0  3  0  0  0  0  0  0
  -30.2890  -17.6700   21.7530 C   0  0  0  0  0  3  0  0  0  0  0  0
  -29.2550  -19.5840   20.5870 C   0  0  0  0  0  0  0  0  0  0  0  0
  -29.9930  -16.7970   20.6810 C   0  0  0  0  0  0  0  0  0  0  0  0
  -30.6980  -14.4580   20.0910 C   0  0  0  0  0  0  0  0  0  0  0  0
  -30.3460  -12.3050   18.9210 C   0  0  0  0  0  2  0  0  0  0  0  0
  -29.3390  -12.5400   17.7750 C   0  0  0  0  0  2  0  0  0  0  0  0
  -27.8890  -12.4090   18.2810 C   0  0  0  0  0  2  0  0  0  0  0  0
  -27.6320  -13.2070   19.5890 C   0  0  0  0  0  3  0  0  0  0  0  0
  -28.7470  -12.9460   20.6280 C   0  0  0  0  0  2  0  0  0  0  0  0
  -30.0430  -13.2640   20.0010 N   0  0  0  0  0  0  0  0  0  0  0  0
  -31.7450  -14.6930   19.4820 O   0  0  0  0  0  0  0  0  0  0  0  0
  -30.1090  -15.3820   20.8810 N   0  0  0  0  0  0  0  0  0  0  0  0
  -29.4370  -14.9980   21.5250 H   0  0  0  0  0  0  0  0  0  0  0  0
  -25.2830  -13.8080   20.4490 C   0  0  0  0  0  0  0  0  0  0  0  0
  -24.2300  -13.0340   20.8590 C   0  0  0  0  0  0  0  0  0  0  0  0
  -24.6750  -11.6800   20.7620 C   0  0  0  0  0  0  0  0  0  0  0  0
  -26.3040  -12.9260   20.1330 N   0  0  0  0  0  0  0  0  0  0  0  0
  -25.9440  -11.6400   20.3750 N   0  0  0  0  0  0  0  0  0  0  0  0
  -23.9490  -10.4200   20.9590 C   0  0  0  0  0  0  0  0  0  0  0  0
  -24.3940   -9.4460   21.8820 C   0  0  0  0  0  3  0  0  0  0  0  0
  -23.6650   -8.2510   22.0670 C   0  0  0  0  0  3  0  0  0  0  0  0
  -22.4780   -8.0210   21.3300 C   0  0  0  0  0  0  0  0  0  0  0  0
  -22.0540   -8.9820   20.3980 C   0  0  0  0  0  3  0  0  0  0  0  0
  -22.7820  -10.1700   20.2100 C   0  0  0  0  0  3  0  0  0  0  0  0
  -21.7220   -6.8780   21.4270 O   0  0  0  0  0  0  0  0  0  0  0  0
  -21.6500   -6.1570   22.5920 C   0  0  0  0  0  0  0  0  0  0  0  0
  -21.1970   -6.7350   23.7970 C   0  0  0  0  0  3  0  0  0  0  0  0
  -21.0700   -5.9400   24.9540 C   0  0  0  0  0  3  0  0  0  0  0  0
  -21.3890   -4.5690   24.9070 C   0  0  0  0  0  0  0  0  0  0  0  0
  -21.8350   -3.9920   23.7050 C   0  0  0  0  0  3  0  0  0  0  0  0
  -21.9620   -4.7840   22.5510 C   0  0  0  0  0  0  0  0  0  0  0  0
  -22.3740   -4.2180   21.3910 F   0  0  0  0  0  0  0  0  0  0  0  0
  -21.2600   -3.8040   26.0150 F   0  0  0  0  0  0  0  0  0  0  0  0
  -22.8580  -13.5170   21.2300 C   0  0  0  0  0  0  0  0  0  0  0  0
  -22.1820  -12.8100   22.1290 N   0  0  0  0  0  0  0  0  0  0  0  0
  -22.3960  -14.5560   20.7600 O   0  0  0  0  0  0  0  0  0  0  0  0
  -22.5730  -11.9720   22.5340 H   0  0  0  0  0  0  0  0  0  0  0  0
  -21.2640  -13.1160   22.4200 H   0  0  0  0  0  0  0  0  0  0  0  0
  -25.4460  -15.1810   20.3040 N   0  0  0  0  0  0  0  0  0  0  0  0
  -24.6850  -15.8310   20.4700 H   0  0  0  0  0  0  0  0  0  0  0  0
  -26.2840  -15.6310   19.9570 H   0  0  0  0  0  0  0  0  0  0  0  0
  -29.5270  -24.4220   20.6030 C   0  0  0  0  0  3  0  0  0  0  0  0
  -29.2150  -24.3190   22.0440 N   0  0  0  0  0  4  0  0  0  0  0  0
  -28.4160  -23.7250   22.1880 H   0  0  0  0  0  0  0  0  0  0  0  0
  -29.0120  -25.2270   22.4230 H   0  0  0  0  0  0  0  0  0  0  0  0
  -29.9940  -23.9420   22.5540 H   0  0  0  0  0  0  0  0  0  0  0  0
  -28.4150  -25.2270   19.8510 C   0  0  0  0  0  2  0  0  0  0  0  0
  -28.4420  -26.6480   20.1690 O   0  0  0  0  0  0  0  0  0  0  0  0
  -24.5850  -31.8590   23.1620 C   0  0  0  0  0  0  0  0  0  0  0  0
  -27.2700  -27.3960   20.0990 C   0  0  0  0  0  0  0  0  0  0  0  0
  -23.4000  -30.4640   21.4980 C   0  0  0  0  0  3  0  0  0  0  0  0
  -24.8750  -28.9310   20.0830 C   0  0  0  0  0  0  0  0  0  0  0  0
  -25.9330  -30.8130   21.3390 C   0  0  0  0  0  2  0  0  0  0  0  0
  -26.0270  -29.4440   20.6910 C   0  0  0  0  0  0  0  0  0  0  0  0
  -27.2240  -28.6850   20.6930 C   0  0  0  0  0  3  0  0  0  0  0  0
  -26.0980  -26.9160   19.4670 C   0  0  0  0  0  3  0  0  0  0  0  0
  -24.9100  -27.6680   19.4690 C   0  0  0  0  0  3  0  0  0  0  0  0
  -23.6310  -29.7910   20.1190 C   0  0  0  0  0  2  0  0  0  0  0  0
  -24.6570  -31.0600   22.0580 N   0  0  0  0  0  0  0  0  0  0  0  0
  -23.4950  -32.1310   23.6880 O   0  0  0  0  0  0  0  0  0  0  0  0
  -22.7340  -29.4410   22.4450 C   0  0  0  0  0  0  0  0  0  0  0  0
  -21.4100  -29.2620   22.2980 N   0  0  0  0  0  0  0  0  0  0  0  0
  -23.4060  -28.8120   23.2660 O   0  0  0  0  0  0  0  0  0  0  0  0
  -20.9310  -29.8220   21.6070 H   0  0  0  0  0  0  0  0  0  0  0  0
  -18.0280  -28.0680   22.7380 C   0  0  0  0  0  0  0  0  0  0  0  0
  -20.5810  -28.3210   23.0520 C   0  0  0  0  0  3  0  0  0  0  0  0
  -20.6910  -26.8940   22.4690 C   0  0  0  0  0  2  0  0  0  0  0  0
  -19.6040  -26.5790   21.4360 C   0  0  0  0  0  2  0  0  0  0  0  0
  -18.2130  -26.7200   22.0580 C   0  0  0  0  0  2  0  0  0  0  0  0
  -19.1400  -28.8260   23.1890 C   0  0  0  0  0  0  0  0  0  0  0  0
  -18.9130  -30.0880   23.7800 C   0  0  0  0  0  3  0  0  0  0  0  0
  -17.6060  -30.5880   23.9290 C   0  0  0  0  0  3  0  0  0  0  0  0
  -16.5080  -29.8260   23.4960 C   0  0  0  0  0  3  0  0  0  0  0  0
  -16.7200  -28.5680   22.9040 C   0  0  0  0  0  3  0  0  0  0  0  0
  -25.8620  -32.4840   23.8020 C   0  0  0  0  0  3  0  0  0  0  0  0
  -25.5470  -33.8770   24.1490 N   0  0  0  0  0  0  0  0  0  0  0  0
  -25.8830  -34.9380   23.4040 C   0  0  0  0  0  0  0  0  0  0  0  0
  -26.5620  -34.8490   22.3770 O   0  0  0  0  0  0  0  0  0  0  0  0
  -24.9420  -34.0210   24.9440 H   0  0  0  0  0  0  0  0  0  0  0  0
  -24.1530  -36.7320   23.0520 C   0  0  0  0  0  1  0  0  0  0  0  0
  -25.3870  -36.3200   23.8710 C   0  0  0  0  0  3  0  0  0  0  0  0
  -27.5080  -37.2020   24.7360 C   0  0  0  0  0  1  0  0  0  0  0  0
  -26.4160  -37.3770   23.7820 N   0  0  0  0  0  0  0  0  0  0  0  0
  -26.0040  -38.2940   23.9370 H   0  0  0  0  0  0  0  0  0  0  0  0
  -26.3720  -31.6940   25.0700 C   0  0  1  0  0  0  0  0  0  0  0  0
  -25.2750  -31.4350   26.1290 C   0  0  0  0  0  1  0  0  0  0  0  0
  -26.9630  -30.3240   24.6610 C   0  0  0  0  0  1  0  0  0  0  0  0
  -27.5150  -32.4820   25.7520 C   0  0  0  0  0  1  0  0  0  0  0  0
  1 49  1  0
  2  3  1  0
  3  1  1  0
  3  4  1  0
  5  7  2  0
  5  9  1  0
  6  8  1  0
  7 10  1  0
  9  4  1  0
  9  6  2  0
 10 19  1  0
 10  8  2  0
 11 19  1  0
 12 17  1  0
 13 14  1  0
 13 12  1  0
 15 14  1  0
 15 24  1  0
 15 16  1  0
 17 11  1  0
 17 16  1  0
 18 11  2  0
 19 20  1  0
 21 22  2  0
 22 41  1  0
 23 22  1  0
 23 26  1  0
 24 25  1  0
 24 21  1  0
 25 23  2  0
 26 27  1  0
 27 28  2  0
 29 32  1  0
 29 28  1  0
 30 29  2  0
 31 30  1  0
 31 26  2  0
 32 33  1  0
 33 34  1  0
 34 35  2  0
 36 35  1  0
 36 40  1  0
 37 36  2  0
 38 33  2  0
 38 37  1  0
 39 38  1  0
 41 42  1  0
 42 45  1  0
 42 44  1  0
 43 41  2  0
 46 21  1  0
 46 47  1  0
 48 46  1  0
 49 54  1  0
 49 50  1  0
 50 51  1  0
 50 52  1  0
 50 53  1  0
 54 55  1  0
 56 67  2  0
 57 55  1  0
 57 62  1  0
 58 66  1  0
 58 68  1  0
 59 65  1  0
 59 61  1  0
 60 66  1  0
 61 62  2  0
 61 60  1  0
 63 64  1  0
 63 57  2  0
 64 59  2  0
 65 58  1  0
 66 56  1  0
 68 70  2  0
 69 68  1  0
 71 69  1  0
 72 81  2  0
 72 77  1  0
 73 69  1  0
 73 77  1  0
 74 73  1  0
 75 76  1  0
 75 74  1  0
 76 72  1  0
 77 78  2  0
 78 79  1  0
 80 79  2  0
 81 80  1  0
 82 56  1  0
 82 83  1  0
 82 92  1  0
 83 86  1  0
 84 88  1  0
 84 83  1  0
 85 84  2  0
 88 87  1  0
 90 88  1  0
 90 91  1  0
 90 89  1  0
 92 95  1  1
 92 93  1  0
 94 92  1  0
M  ISO  4  11 100  19 100  54 101  55 101
M  END
>  <TORSDO>  (46) 
F 22

>  <SCORE>  (46) 
-12.986

>  <name>  (46) 
45

>  <ligand_id>  (46) 
45

>  <original_smiles>  (46) 
[H]c1c([H])c([H])c2c(c1[H])C([H])([H])C([H])([H])C([H])([H])C2([H])N([H])C(=O)C1([H])N(C(=O)C([H])(N([H])C(=O)C([H])(N([H])C([H])([H])[H])C([H])([H])[H])C(C([H])([H])[H])(C([H])([H])[H])C([H])([H])[H])C([H])([H])c2c([H])c(OC([H])([H])C([H])(C([H])([H])N(C([H])([H])[H])C([H])([H])c3c([H])c([H])c(N([H])C(=O)N4C([H])([H])C([H])([H])C([H])([H])C([H])(n5nc(-c6c([H])c([H])c(Oc7c([H])c([H])c(F)c([H])c7F)c([H])c6[H])c(C(=O)N([H])[H])c5N([H])[H])C4([H])[H])c([H])c3[H])[N+]([H])([H])[H])c([H])c([H])c2C1([H])[H]

>  <smiles>  (46) 
[H]c1c([H])c([H])c2c(c1[H])C([H])([H])C([H])([H])C([H])([H])C2([H])N([H])C(=O)C1([H])N(C(=O)C([H])(N([H])C(=O)C([H])(N([H])C([H])([H])[H])C([H])([H])[H])C(C([H])([H])[H])(C([H])([H])[H])C([H])([H])[H])C([H])([H])c2c([H])c(OC([H])([H])C([H])(C([H])([H])N(C([H])([H])[H])C([H])([H])c3c([H])c([H])c(N([H])C(=O)N4C([H])([H])C([H])([H])C([H])([H])C([H])(n5nc(-c6c([H])c([H])c(Oc7c([H])c([H])c(F)c([H])c7F)c([H])c6[H])c(C(=O)N([H])[H])c5N([H])[H])C4([H])[H])c([H])c3[H])[N+]([H])([H])[H])c([H])c([H])c2C1([H])[H]

$$$$
46:0:0
     RDKit          3D

 94103  0  0  1  0  0  0  0  0999 V2000
  -28.0460  -21.0500   21.5330 C   0  0  0  0  0  2  0  0  0  0  0  0
  -28.8050  -20.4920   20.3450 C   0  0  0  0  0  3  0  0  0  0  0  0
  -28.9310  -21.9800   20.7240 C   0  0  0  0  0  3  0  0  0  0  0  0
  -32.0920  -18.7220   21.2820 C   0  0  0  0  0  3  0  0  0  0  0  0
  -31.1470  -19.7350   21.0330 C   0  0  0  0  0  3  0  0  0  0  0  0
  -31.7440  -17.3670   21.1240 C   0  0  0  0  0  3  0  0  0  0  0  0
  -29.4870  -18.0420   20.4940 C   0  0  0  0  0  3  0  0  0  0  0  0
  -29.8320  -19.4130   20.6300 C   0  0  0  0  0  0  0  0  0  0  0  0
  -30.4360  -17.0130   20.7220 C   0  0  0  0  0  0  0  0  0  0  0  0
  -30.7390  -14.6320   20.0450 C   0  0  0  0  0  0  0  0  0  0  0  0
  -30.4000  -12.4570   18.9270 C   0  0  0  0  0  2  0  0  0  0  0  0
  -29.3920  -12.6290   17.7750 C   0  0  0  0  0  2  0  0  0  0  0  0
  -27.9440  -12.4770   18.2870 C   0  0  0  0  0  2  0  0  0  0  0  0
  -27.6670  -13.3310   19.5520 C   0  0  0  0  0  3  0  0  0  0  0  0
  -28.7830  -13.1400   20.6040 C   0  0  0  0  0  2  0  0  0  0  0  0
  -30.0700  -13.4500   19.9580 N   0  0  0  0  0  0  0  0  0  0  0  0
  -31.8420  -14.8110   19.5170 O   0  0  0  0  0  0  0  0  0  0  0  0
  -30.0410  -15.6470   20.5950 N   0  0  0  0  0  0  0  0  0  0  0  0
  -29.0870  -15.4300   20.8390 H   0  0  0  0  0  0  0  0  0  0  0  0
  -25.3250  -13.9350   20.4340 C   0  0  0  0  0  0  0  0  0  0  0  0
  -24.2750  -13.1580   20.8460 C   0  0  0  0  0  0  0  0  0  0  0  0
  -24.7200  -11.8040   20.7410 C   0  0  0  0  0  0  0  0  0  0  0  0
  -26.3440  -13.0520   20.1080 N   0  0  0  0  0  0  0  0  0  0  0  0
  -25.9870  -11.7640   20.3470 N   0  0  0  0  0  0  0  0  0  0  0  0
  -23.9950  -10.5420   20.9370 C   0  0  0  0  0  0  0  0  0  0  0  0
  -24.4240   -9.5820   21.8800 C   0  0  0  0  0  3  0  0  0  0  0  0
  -23.7000   -8.3840   22.0590 C   0  0  0  0  0  3  0  0  0  0  0  0
  -22.5350   -8.1360   21.2950 C   0  0  0  0  0  0  0  0  0  0  0  0
  -22.1250   -9.0840   20.3430 C   0  0  0  0  0  3  0  0  0  0  0  0
  -22.8480  -10.2750   20.1600 C   0  0  0  0  0  3  0  0  0  0  0  0
  -21.7830   -6.9900   21.3860 O   0  0  0  0  0  0  0  0  0  0  0  0
  -21.6720   -6.2930   22.5620 C   0  0  0  0  0  0  0  0  0  0  0  0
  -21.1420   -6.8830   23.7300 C   0  0  0  0  0  3  0  0  0  0  0  0
  -20.9810   -6.1110   24.8990 C   0  0  0  0  0  3  0  0  0  0  0  0
  -21.3400   -4.7500   24.8970 C   0  0  0  0  0  0  0  0  0  0  0  0
  -21.8630   -4.1580   23.7330 C   0  0  0  0  0  3  0  0  0  0  0  0
  -22.0260   -4.9280   22.5690 C   0  0  0  0  0  0  0  0  0  0  0  0
  -22.5120   -4.3500   21.4430 F   0  0  0  0  0  0  0  0  0  0  0  0
  -21.1780   -4.0050   26.0160 F   0  0  0  0  0  0  0  0  0  0  0  0
  -22.9030  -13.6370   21.2240 C   0  0  0  0  0  0  0  0  0  0  0  0
  -22.2190  -12.9120   22.1020 N   0  0  0  0  0  0  0  0  0  0  0  0
  -22.4490  -14.6910   20.7800 O   0  0  0  0  0  0  0  0  0  0  0  0
  -22.5960  -12.0550   22.4830 H   0  0  0  0  0  0  0  0  0  0  0  0
  -21.3020  -13.2170   22.3970 H   0  0  0  0  0  0  0  0  0  0  0  0
  -25.4920  -15.3090   20.2900 N   0  0  0  0  0  0  0  0  0  0  0  0
  -24.7410  -15.9680   20.4630 H   0  0  0  0  0  0  0  0  0  0  0  0
  -26.3180  -15.7470   19.9010 H   0  0  0  0  0  0  0  0  0  0  0  0
  -26.8850  -22.6560   19.3210 C   0  0  0  0  0  1  0  0  0  0  0  0
  -28.2190  -23.0170   19.8840 N   0  0  1  0  0  4  0  0  0  0  0  0
  -28.8110  -23.0820   19.0660 H   0  0  0  0  0  0  0  0  0  0  0  0
  -27.1610  -24.6200   21.5390 C   0  0  0  0  0  1  0  0  0  0  0  0
  -28.2660  -24.4020   20.4790 C   0  0  0  0  0  3  0  0  0  0  0  0
  -28.3360  -25.5220   19.3900 C   0  0  0  0  0  2  0  0  0  0  0  0
  -28.2660  -26.8660   19.9050 O   0  0  0  0  0  0  0  0  0  0  0  0
  -24.5570  -31.9620   23.1980 C   0  0  0  0  0  0  0  0  0  0  0  0
  -27.0690  -27.5640   19.9350 C   0  0  0  0  0  0  0  0  0  0  0  0
  -23.2860  -30.5970   21.5770 C   0  0  0  0  0  3  0  0  0  0  0  0
  -24.6780  -29.0850   20.0670 C   0  0  0  0  0  0  0  0  0  0  0  0
  -25.8030  -30.9510   21.2870 C   0  0  0  0  0  2  0  0  0  0  0  0
  -25.8580  -29.5920   20.6210 C   0  0  0  0  0  0  0  0  0  0  0  0
  -27.0520  -28.8380   20.5540 C   0  0  0  0  0  3  0  0  0  0  0  0
  -25.8600  -27.0730   19.3810 C   0  0  0  0  0  3  0  0  0  0  0  0
  -24.6730  -27.8260   19.4450 C   0  0  0  0  0  3  0  0  0  0  0  0
  -23.4390  -29.9460   20.1770 C   0  0  0  0  0  2  0  0  0  0  0  0
  -24.5700  -31.1840   22.0790 N   0  0  0  0  0  0  0  0  0  0  0  0
  -23.4980  -32.2270   23.7820 O   0  0  0  0  0  0  0  0  0  0  0  0
  -22.6690  -29.5580   22.5380 C   0  0  0  0  0  0  0  0  0  0  0  0
  -21.3460  -29.3500   22.4250 N   0  0  0  0  0  0  0  0  0  0  0  0
  -23.3730  -28.9420   23.3430 O   0  0  0  0  0  0  0  0  0  0  0  0
  -20.8370  -29.8990   21.7460 H   0  0  0  0  0  0  0  0  0  0  0  0
  -18.0080  -28.0680   22.9330 C   0  0  0  0  0  0  0  0  0  0  0  0
  -20.5580  -28.3940   23.2000 C   0  0  0  0  0  3  0  0  0  0  0  0
  -20.6980  -26.9640   22.6270 C   0  0  0  0  0  2  0  0  0  0  0  0
  -19.6030  -26.6070   21.6190 C   0  0  0  0  0  2  0  0  0  0  0  0
  -18.2200  -26.7200   22.2650 C   0  0  0  0  0  2  0  0  0  0  0  0
  -19.1060  -28.8600   23.3590 C   0  0  0  0  0  0  0  0  0  0  0  0
  -18.8560  -30.1200   23.9450 C   0  0  0  0  0  3  0  0  0  0  0  0
  -17.5390  -30.5870   24.1120 C   0  0  0  0  0  3  0  0  0  0  0  0
  -16.4550  -29.7920   23.7040 C   0  0  0  0  0  3  0  0  0  0  0  0
  -16.6900  -28.5350   23.1190 C   0  0  0  0  0  3  0  0  0  0  0  0
  -25.8680  -32.5770   23.7800 C   0  0  0  0  0  3  0  0  0  0  0  0
  -26.4310  -31.7790   25.0200 C   0  0  1  0  0  0  0  0  0  0  0  0
  -25.3740  -31.5160   26.1190 C   0  0  0  0  0  1  0  0  0  0  0  0
  -26.9990  -30.4120   24.5750 C   0  0  0  0  0  1  0  0  0  0  0  0
  -27.6060  -32.5600   25.6560 C   0  0  0  0  0  1  0  0  0  0  0  0
  -25.5800  -33.9690   24.1440 N   0  0  0  0  0  0  0  0  0  0  0  0
  -25.8960  -35.0330   23.3930 C   0  0  0  0  0  0  0  0  0  0  0  0
  -26.5360  -34.9420   22.3420 O   0  0  0  0  0  0  0  0  0  0  0  0
  -25.0080  -34.1140   24.9630 H   0  0  0  0  0  0  0  0  0  0  0  0
  -24.1790  -36.8450   23.1070 C   0  0  0  0  0  1  0  0  0  0  0  0
  -25.4310  -36.4150   23.8870 C   0  0  0  0  0  3  0  0  0  0  0  0
  -27.5860  -37.2660   24.7010 C   0  0  0  0  0  1  0  0  0  0  0  0
  -26.4720  -37.4600   23.7750 N   0  0  0  0  0  0  0  0  0  0  0  0
  -26.0780  -38.3820   23.9420 H   0  0  0  0  0  0  0  0  0  0  0  0
  2  8  1  0
  2  3  1  0
  2  1  1  0
  3 49  1  0
  3  1  1  0
  5  4  2  0
  6  4  1  0
  7  8  2  0
  7  9  1  0
  8  5  1  0
  9  6  2  0
 10 18  1  0
 11 16  1  0
 12 13  1  0
 12 11  1  0
 14 13  1  0
 14 23  1  0
 14 15  1  0
 16 10  1  0
 16 15  1  0
 17 10  2  0
 18  9  1  0
 18 19  1  0
 20 21  2  0
 21 40  1  0
 22 21  1  0
 22 25  1  0
 23 24  1  0
 23 20  1  0
 24 22  2  0
 25 26  1  0
 26 27  2  0
 28 31  1  0
 28 27  1  0
 29 28  2  0
 30 29  1  0
 30 25  2  0
 31 32  1  0
 32 37  2  0
 32 33  1  0
 33 34  2  0
 35 34  1  0
 35 39  1  0
 36 35  2  0
 37 36  1  0
 38 37  1  0
 40 41  1  0
 41 44  1  0
 41 43  1  0
 42 40  2  0
 45 20  1  0
 45 46  1  0
 47 45  1  0
 48 49  1  0
 49 52  1  0
 49 50  1  6
 52 51  1  0
 53 54  1  0
 53 52  1  0
 54 56  1  0
 55 66  2  0
 56 61  1  0
 57 65  1  0
 57 67  1  0
 58 64  1  0
 58 60  1  0
 59 65  1  0
 60 59  1  0
 61 60  2  0
 62 63  1  0
 62 56  2  0
 63 58  2  0
 64 57  1  0
 65 55  1  0
 67 69  2  0
 68 67  1  0
 70 68  1  0
 71 80  2  0
 71 76  1  0
 72 68  1  0
 72 76  1  0
 73 72  1  0
 74 75  1  0
 74 73  1  0
 75 71  1  0
 76 77  2  0
 77 78  1  0
 79 78  2  0
 80 79  1  0
 81 55  1  0
 81 86  1  0
 81 82  1  0
 82 85  1  1
 82 83  1  0
 84 82  1  0
 86 89  1  0
 87 91  1  0
 87 86  1  0
 88 87  2  0
 91 90  1  0
 93 91  1  0
 93 94  1  0
 93 92  1  0
M  ISO  4  10 100  18 100  53 101  54 101
M  END
>  <TORSDO>  (47) 
F 20

>  <SCORE>  (47) 
-13.536

>  <name>  (47) 
46

>  <ligand_id>  (47) 
46

>  <original_smiles>  (47) 
[H]c1c([H])c([H])c2c(c1[H])C([H])([H])C([H])([H])C([H])([H])C2([H])N([H])C(=O)C1([H])N(C(=O)C([H])(N([H])C(=O)C([H])(N([H])C([H])([H])[H])C([H])([H])[H])C(C([H])([H])[H])(C([H])([H])[H])C([H])([H])[H])C([H])([H])c2c([H])c(OC([H])([H])C([H])(C([H])([H])[H])[N+]([H])(C([H])([H])[H])C3([H])C([H])([H])C3([H])c3c([H])c([H])c([H])c(N([H])C(=O)N4C([H])([H])C([H])([H])C([H])([H])C([H])(n5nc(-c6c([H])c([H])c(Oc7c([H])c([H])c(F)c([H])c7F)c([H])c6[H])c(C(=O)N([H])[H])c5N([H])[H])C4([H])[H])c3[H])c([H])c([H])c2C1([H])[H]

>  <smiles>  (47) 
[H]c1c([H])c([H])c2c(c1[H])C([H])([H])C([H])([H])C([H])([H])C2([H])N([H])C(=O)C1([H])N(C(=O)C([H])(N([H])C(=O)C([H])(N([H])C([H])([H])[H])C([H])([H])[H])C(C([H])([H])[H])(C([H])([H])[H])C([H])([H])[H])C([H])([H])c2c([H])c(OC([H])([H])C([H])(C([H])([H])[H])[N+]([H])(C([H])([H])[H])C3([H])C([H])([H])C3([H])c3c([H])c([H])c([H])c(N([H])C(=O)N4C([H])([H])C([H])([H])C([H])([H])C([H])(n5nc(-c6c([H])c([H])c(Oc7c([H])c([H])c(F)c([H])c7F)c([H])c6[H])c(C(=O)N([H])[H])c5N([H])[H])C4([H])[H])c3[H])c([H])c([H])c2C1([H])[H]

$$$$
47:0:0
     RDKit          3D

100109  0  0  1  0  0  0  0  0999 V2000
  -30.3660  -19.2180   16.9310 C   0  0  0  0  0  2  0  0  0  0  0  0
  -29.7910  -19.4910   18.3260 C   0  0  0  0  0  3  0  0  0  0  0  0
  -30.8630  -20.6730   16.9040 C   0  0  0  0  0  3  0  0  0  0  0  0
  -29.7140  -20.9730   17.8920 C   0  0  0  0  0  3  0  0  0  0  0  0
  -28.4340  -18.8390   18.6780 C   0  0  0  0  0  0  0  0  0  0  0  0
  -27.1570  -17.6940   20.4190 C   0  0  0  0  0  1  0  0  0  0  0  0
  -28.3860  -17.8830   19.6380 N   0  0  0  0  0  0  0  0  0  0  0  0
  -27.4040  -19.2960   18.1760 O   0  0  0  0  0  0  0  0  0  0  0  0
  -30.8300  -14.0540   20.3210 C   0  0  0  0  0  0  0  0  0  0  0  0
  -30.6870  -11.6660   19.7720 C   0  0  0  0  0  2  0  0  0  0  0  0
  -29.8050  -11.5240   18.5130 C   0  0  0  0  0  2  0  0  0  0  0  0
  -28.3090  -11.4430   18.8880 C   0  0  0  0  0  2  0  0  0  0  0  0
  -27.8770  -12.5480   19.8900 C   0  0  0  0  0  3  0  0  0  0  0  0
  -28.8800  -12.6410   21.0660 C   0  0  0  0  0  2  0  0  0  0  0  0
  -30.2200  -12.8550   20.4960 N   0  0  0  0  0  0  0  0  0  0  0  0
  -31.9950  -14.1690   19.9340 O   0  0  0  0  0  0  0  0  0  0  0  0
  -29.1280  -15.8440   20.9620 C   0  0  0  0  0  2  0  0  0  0  0  0
  -30.1270  -16.1270   19.1050 C   0  0  0  0  0  2  0  0  0  0  0  0
  -29.5230  -17.0820   20.1390 C   0  0  0  0  0  3  0  0  0  0  0  0
  -29.9610  -15.0480   20.0650 N   0  0  0  0  0  0  0  0  0  0  0  0
  -25.5100  -13.2820   20.5870 C   0  0  0  0  0  0  0  0  0  0  0  0
  -24.4010  -12.5630   20.9440 C   0  0  0  0  0  0  0  0  0  0  0  0
  -24.7890  -11.1890   20.9020 C   0  0  0  0  0  0  0  0  0  0  0  0
  -26.5090  -12.3460   20.3580 N   0  0  0  0  0  0  0  0  0  0  0  0
  -26.0770  -11.0830   20.6010 N   0  0  0  0  0  0  0  0  0  0  0  0
  -23.9970   -9.9650   21.0770 C   0  0  0  0  0  0  0  0  0  0  0  0
  -24.1370   -9.1550   22.2250 C   0  0  0  0  0  3  0  0  0  0  0  0
  -23.3550   -7.9900   22.3780 C   0  0  0  0  0  3  0  0  0  0  0  0
  -22.4170   -7.6290   21.3810 C   0  0  0  0  0  0  0  0  0  0  0  0
  -22.2980   -8.4270   20.2290 C   0  0  0  0  0  3  0  0  0  0  0  0
  -23.0820   -9.5840   20.0750 C   0  0  0  0  0  3  0  0  0  0  0  0
  -21.6300   -6.5050   21.4340 O   0  0  0  0  0  0  0  0  0  0  0  0
  -21.0250   -6.1030   22.5980 C   0  0  0  0  0  0  0  0  0  0  0  0
  -20.0300   -6.8820   23.2270 C   0  0  0  0  0  3  0  0  0  0  0  0
  -19.3860   -6.3990   24.3840 C   0  0  0  0  0  3  0  0  0  0  0  0
  -19.7270   -5.1380   24.9050 C   0  0  0  0  0  0  0  0  0  0  0  0
  -20.7140   -4.3580   24.2770 C   0  0  0  0  0  3  0  0  0  0  0  0
  -21.3590   -4.8400   23.1240 C   0  0  0  0  0  0  0  0  0  0  0  0
  -22.2950   -4.0770   22.5090 F   0  0  0  0  0  0  0  0  0  0  0  0
  -19.1040   -4.6690   26.0110 F   0  0  0  0  0  0  0  0  0  0  0  0
  -23.0300  -13.1110   21.2170 C   0  0  0  0  0  0  0  0  0  0  0  0
  -22.2590  -12.4410   22.0670 N   0  0  0  0  0  0  0  0  0  0  0  0
  -22.6490  -14.1660   20.7110 O   0  0  0  0  0  0  0  0  0  0  0  0
  -22.5760  -11.5870   22.5040 H   0  0  0  0  0  0  0  0  0  0  0  0
  -21.3360  -12.7870   22.2850 H   0  0  0  0  0  0  0  0  0  0  0  0
  -25.7460  -14.6420   20.4180 N   0  0  0  0  0  0  0  0  0  0  0  0
  -25.0080  -15.3310   20.5110 H   0  0  0  0  0  0  0  0  0  0  0  0
  -26.6150  -15.0340   20.0780 H   0  0  0  0  0  0  0  0  0  0  0  0
  -30.9540  -21.4110   15.5560 C   0  0  0  0  0  2  0  0  0  0  0  0
  -33.4420  -21.6110   15.5330 C   0  0  0  0  0  1  0  0  0  0  0  0
  -32.3530  -19.8140   14.2450 C   0  0  0  0  0  1  0  0  0  0  0  0
  -32.2220  -21.1760   14.8130 N   0  0  1  0  0  4  0  0  0  0  0  0
  -32.1640  -21.7850   14.0090 H   0  0  0  0  0  0  0  0  0  0  0  0
  -29.8360  -22.0270   18.9920 C   0  0  0  0  0  2  0  0  0  0  0  0
  -29.5660  -23.3850   18.4780 N   0  0  0  0  0  4  0  0  0  0  0  0
  -28.8990  -23.3140   17.7270 H   0  0  0  0  0  0  0  0  0  0  0  0
  -30.4200  -23.7660   18.0980 H   0  0  0  0  0  0  0  0  0  0  0  0
  -29.0170  -24.3050   19.4970 C   0  0  0  0  0  2  0  0  0  0  0  0
  -28.6240  -25.6590   18.9040 C   0  0  0  0  0  2  0  0  0  0  0  0
  -28.2420  -26.4710   20.0070 O   0  0  0  0  0  0  0  0  0  0  0  0
  -24.4970  -31.5930   23.1270 C   0  0  0  0  0  0  0  0  0  0  0  0
  -27.0470  -27.1490   19.9920 C   0  0  0  0  0  0  0  0  0  0  0  0
  -23.2650  -30.2650   21.4380 C   0  0  0  0  0  3  0  0  0  0  0  0
  -24.6860  -28.6960   20.0170 C   0  0  0  0  0  0  0  0  0  0  0  0
  -25.8020  -30.5400   21.2900 C   0  0  0  0  0  2  0  0  0  0  0  0
  -25.8460  -29.1790   20.6300 C   0  0  0  0  0  0  0  0  0  0  0  0
  -27.0220  -28.4070   20.6260 C   0  0  0  0  0  3  0  0  0  0  0  0
  -25.8570  -26.6530   19.4070 C   0  0  0  0  0  3  0  0  0  0  0  0
  -24.6810  -27.4270   19.4130 C   0  0  0  0  0  3  0  0  0  0  0  0
  -23.4720  -29.5950   20.0520 C   0  0  0  0  0  2  0  0  0  0  0  0
  -24.5380  -30.8120   22.0100 N   0  0  0  0  0  0  0  0  0  0  0  0
  -23.4180  -31.8960   23.6540 O   0  0  0  0  0  0  0  0  0  0  0  0
  -22.5610  -29.2540   22.3690 C   0  0  0  0  0  0  0  0  0  0  0  0
  -21.2290  -29.1500   22.2370 N   0  0  0  0  0  0  0  0  0  0  0  0
  -23.2100  -28.5660   23.1620 O   0  0  0  0  0  0  0  0  0  0  0  0
  -20.7710  -29.7560   21.5720 H   0  0  0  0  0  0  0  0  0  0  0  0
  -17.7850  -28.2030   22.7680 C   0  0  0  0  0  0  0  0  0  0  0  0
  -20.3610  -28.2370   22.9790 C   0  0  0  0  0  3  0  0  0  0  0  0
  -20.3320  -26.8380   22.3220 C   0  0  0  0  0  2  0  0  0  0  0  0
  -19.1820  -26.6640   21.3230 C   0  0  0  0  0  2  0  0  0  0  0  0
  -17.8340  -26.8840   22.0160 C   0  0  0  0  0  2  0  0  0  0  0  0
  -18.9730  -28.8470   23.2060 C   0  0  0  0  0  0  0  0  0  0  0  0
  -18.8760  -30.0890   23.8700 C   0  0  0  0  0  3  0  0  0  0  0  0
  -17.6210  -30.6850   24.1000 C   0  0  0  0  0  3  0  0  0  0  0  0
  -16.4470  -30.0370   23.6780 C   0  0  0  0  0  3  0  0  0  0  0  0
  -16.5310  -28.7980   23.0180 C   0  0  0  0  0  3  0  0  0  0  0  0
  -25.7970  -32.1600   23.7800 C   0  0  0  0  0  3  0  0  0  0  0  0
  -25.5470  -33.5690   24.1080 N   0  0  0  0  0  0  0  0  0  0  0  0
  -25.9360  -34.6060   23.3540 C   0  0  0  0  0  0  0  0  0  0  0  0
  -26.6160  -34.4730   22.3320 O   0  0  0  0  0  0  0  0  0  0  0  0
  -24.9490  -33.7490   24.9010 H   0  0  0  0  0  0  0  0  0  0  0  0
  -24.2930  -36.4700   22.9740 C   0  0  0  0  0  1  0  0  0  0  0  0
  -25.5020  -36.0120   23.8050 C   0  0  0  0  0  3  0  0  0  0  0  0
  -27.6450  -36.8210   24.6900 C   0  0  0  0  0  1  0  0  0  0  0  0
  -26.5800  -37.0200   23.7100 N   0  0  0  0  0  0  0  0  0  0  0  0
  -26.2080  -37.9590   23.8320 H   0  0  0  0  0  0  0  0  0  0  0  0
  -26.2520  -31.3590   25.0620 C   0  0  1  0  0  0  0  0  0  0  0  0
  -25.1250  -31.1560   26.0990 C   0  0  0  0  0  1  0  0  0  0  0  0
  -26.7920  -29.9640   24.6700 C   0  0  0  0  0  1  0  0  0  0  0  0
  -27.4130  -32.1040   25.7600 C   0  0  0  0  0  1  0  0  0  0  0  0
  1  2  1  0
  2  5  1  0
  3 49  1  0
  3  1  1  0
  3  4  1  0
  4  2  1  0
  4 54  1  0
  5  7  1  0
  7  6  1  0
  8  5  2  0
  9 15  1  0
 10 15  1  0
 11 12  1  0
 11 10  1  0
 13 12  1  0
 13 24  1  0
 13 14  1  0
 15 14  1  0
 16  9  2  0
 18 20  1  0
 18 19  1  0
 19  7  1  0
 19 17  1  0
 20  9  1  0
 20 17  1  0
 21 22  2  0
 22 41  1  0
 23 22  1  0
 23 26  1  0
 24 21  1  0
 24 25  1  0
 25 23  2  0
 26 27  1  0
 27 28  2  0
 29 32  1  0
 29 28  1  0
 30 29  2  0
 31 30  1  0
 31 26  2  0
 32 33  1  0
 33 38  2  0
 33 34  1  0
 34 35  2  0
 35 36  1  0
 36 40  1  0
 37 36  2  0
 38 37  1  0
 39 38  1  0
 41 42  1  0
 42 45  1  0
 42 44  1  0
 43 41  2  0
 46 47  1  0
 46 21  1  0
 48 46  1  0
 51 52  1  0
 52 50  1  0
 52 49  1  0
 52 53  1  6
 55 54  1  0
 55 58  1  0
 56 55  1  0
 57 55  1  0
 59 58  1  0
 59 60  1  0
 61 72  2  0
 62 60  1  0
 62 67  1  0
 63 71  1  0
 63 73  1  0
 64 70  1  0
 64 66  1  0
 65 71  1  0
 66 65  1  0
 67 66  2  0
 68 69  1  0
 68 62  2  0
 69 64  2  0
 70 63  1  0
 71 61  1  0
 73 75  2  0
 74 73  1  0
 76 74  1  0
 77 86  2  0
 77 82  1  0
 78 74  1  0
 78 82  1  0
 79 78  1  0
 80 81  1  0
 80 79  1  0
 81 77  1  0
 82 83  2  0
 83 84  1  0
 85 84  2  0
 86 85  1  0
 87 61  1  0
 87 88  1  0
 87 97  1  0
 88 91  1  0
 89 93  1  0
 89 88  1  0
 90 89  2  0
 93 92  1  0
 95 93  1  0
 95 96  1  0
 95 94  1  0
 97100  1  1
 97 98  1  0
 99 97  1  0
M  ISO  4   9 100  20 100  59 101  60 101
M  END
>  <TORSDO>  (48) 
F 23

>  <SCORE>  (48) 
-10.870

>  <name>  (48) 
47

>  <ligand_id>  (48) 
47

>  <original_smiles>  (48) 
[H]c1c([H])c([H])c2c(c1[H])C([H])([H])C([H])([H])C([H])([H])C2([H])N([H])C(=O)C1([H])N(C(=O)C([H])(N([H])C(=O)C([H])(N([H])C([H])([H])[H])C([H])([H])[H])C(C([H])([H])[H])(C([H])([H])[H])C([H])([H])[H])C([H])([H])c2c([H])c(OC([H])([H])C([H])([H])[N+]([H])([H])C([H])([H])C3([H])C([H])(C(=O)N(C([H])([H])[H])C4([H])C([H])([H])N(C(=O)N5C([H])([H])C([H])([H])C([H])([H])C([H])(n6nc(-c7c([H])c([H])c(Oc8c([H])c([H])c(F)c([H])c8F)c([H])c7[H])c(C(=O)N([H])[H])c6N([H])[H])C5([H])[H])C4([H])[H])C([H])([H])C3([H])C([H])([H])[N+]([H])(C([H])([H])[H])C([H])([H])[H])c([H])c([H])c2C1([H])[H]

>  <smiles>  (48) 
[H]c1c([H])c([H])c2c(c1[H])C([H])([H])C([H])([H])C([H])([H])C2([H])N([H])C(=O)C1([H])N(C(=O)C([H])(N([H])C(=O)C([H])(N([H])C([H])([H])[H])C([H])([H])[H])C(C([H])([H])[H])(C([H])([H])[H])C([H])([H])[H])C([H])([H])c2c([H])c(OC([H])([H])C([H])([H])[N+]([H])([H])C([H])([H])C3([H])C([H])(C(=O)N(C([H])([H])[H])C4([H])C([H])([H])N(C(=O)N5C([H])([H])C([H])([H])C([H])([H])C([H])(n6nc(-c7c([H])c([H])c(Oc8c([H])c([H])c(F)c([H])c8F)c([H])c7[H])c(C(=O)N([H])[H])c6N([H])[H])C5([H])[H])C4([H])[H])C([H])([H])C3([H])C([H])([H])[N+]([H])(C([H])([H])[H])C([H])([H])[H])c([H])c([H])c2C1([H])[H]

$$$$
48:0:0
     RDKit          3D

 98106  0  0  1  0  0  0  0  0999 V2000
  -28.7520  -20.4240   19.3450 C   0  0  0  0  0  3  0  0  0  0  0  0
  -31.6010  -18.1550   18.0960 C   0  0  0  0  0  3  0  0  0  0  0  0
  -30.7890  -19.2740   18.3220 C   0  0  0  0  0  3  0  0  0  0  0  0
  -31.3350  -16.9520   18.7660 C   0  0  0  0  0  3  0  0  0  0  0  0
  -29.4660  -17.9930   19.9280 C   0  0  0  0  0  3  0  0  0  0  0  0
  -29.7090  -19.2120   19.2330 C   0  0  0  0  0  0  0  0  0  0  0  0
  -30.2760  -16.8460   19.7080 C   0  0  0  0  0  0  0  0  0  0  0  0
  -30.6980  -14.4720   20.3600 C   0  0  0  0  0  0  0  0  0  0  0  0
  -30.3480  -12.2930   19.3170 C   0  0  0  0  0  2  0  0  0  0  0  0
  -29.4210  -12.5090   18.1030 C   0  0  0  0  0  2  0  0  0  0  0  0
  -27.9450  -12.3890   18.5320 C   0  0  0  0  0  2  0  0  0  0  0  0
  -27.6070  -13.2440   19.7860 C   0  0  0  0  0  3  0  0  0  0  0  0
  -28.6670  -13.0700   20.8970 C   0  0  0  0  0  2  0  0  0  0  0  0
  -29.9910  -13.3160   20.3090 N   0  0  0  0  0  0  0  0  0  0  0  0
  -31.9100  -14.5050   20.1510 O   0  0  0  0  0  0  0  0  0  0  0  0
  -29.9650  -15.6070   20.3780 N   0  0  0  0  0  0  0  0  0  0  0  0
  -29.0150  -15.4990   20.6990 H   0  0  0  0  0  0  0  0  0  0  0  0
  -25.2140  -13.8480   20.5070 C   0  0  0  0  0  0  0  0  0  0  0  0
  -24.1480  -13.0760   20.8820 C   0  0  0  0  0  0  0  0  0  0  0  0
  -24.6100  -11.7240   20.8570 C   0  0  0  0  0  0  0  0  0  0  0  0
  -26.2580  -12.9670   20.2750 N   0  0  0  0  0  0  0  0  0  0  0  0
  -25.8990  -11.6850   20.5460 N   0  0  0  0  0  0  0  0  0  0  0  0
  -23.8840  -10.4620   21.0500 C   0  0  0  0  0  0  0  0  0  0  0  0
  -24.3250   -9.4930   21.9770 C   0  0  0  0  0  3  0  0  0  0  0  0
  -23.6000   -8.2950   22.1610 C   0  0  0  0  0  3  0  0  0  0  0  0
  -22.4210   -8.0590   21.4150 C   0  0  0  0  0  0  0  0  0  0  0  0
  -21.9990   -9.0170   20.4760 C   0  0  0  0  0  3  0  0  0  0  0  0
  -22.7240  -10.2060   20.2910 C   0  0  0  0  0  3  0  0  0  0  0  0
  -21.6650   -6.9150   21.5070 O   0  0  0  0  0  0  0  0  0  0  0  0
  -21.6370   -6.1610   22.6530 C   0  0  0  0  0  0  0  0  0  0  0  0
  -21.2440   -6.7070   23.8950 C   0  0  0  0  0  3  0  0  0  0  0  0
  -21.1650   -5.8790   25.0330 C   0  0  0  0  0  3  0  0  0  0  0  0
  -21.4650   -4.5090   24.9300 C   0  0  0  0  0  0  0  0  0  0  0  0
  -21.8490   -3.9620   23.6930 C   0  0  0  0  0  3  0  0  0  0  0  0
  -21.9320   -4.7870   22.5580 C   0  0  0  0  0  0  0  0  0  0  0  0
  -22.2830   -4.2490   21.3640 F   0  0  0  0  0  0  0  0  0  0  0  0
  -21.3790   -3.7120   26.0210 F   0  0  0  0  0  0  0  0  0  0  0  0
  -22.7500  -13.5530   21.1500 C   0  0  0  0  0  0  0  0  0  0  0  0
  -22.0210  -12.8610   22.0200 N   0  0  0  0  0  0  0  0  0  0  0  0
  -22.3100  -14.5750   20.6220 O   0  0  0  0  0  0  0  0  0  0  0  0
  -22.3900  -12.0370   22.4710 H   0  0  0  0  0  0  0  0  0  0  0  0
  -21.0820  -13.1630   22.2390 H   0  0  0  0  0  0  0  0  0  0  0  0
  -25.3770  -15.2180   20.3220 N   0  0  0  0  0  0  0  0  0  0  0  0
  -24.6080  -15.8710   20.4310 H   0  0  0  0  0  0  0  0  0  0  0  0
  -26.2190  -15.6550   19.9690 H   0  0  0  0  0  0  0  0  0  0  0  0
  -29.3970  -21.7660   19.9100 C   0  0  0  0  0  2  0  0  0  0  0  0
  -29.9650  -22.9670   19.0510 C   0  0  0  0  0  2  0  0  0  0  0  0
  -29.5150  -25.3290   18.4490 C   0  0  0  0  0  0  0  0  0  0  0  0
  -29.4090  -24.3090   19.3210 N   0  0  0  0  0  0  0  0  0  0  0  0
  -29.9930  -25.1690   17.3230 O   0  0  0  0  0  0  0  0  0  0  0  0
  -29.0370  -24.5210   20.2390 H   0  0  0  0  0  0  0  0  0  0  0  0
  -29.0590  -26.7370   18.8590 C   0  0  0  0  0  2  0  0  0  0  0  0
  -28.4280  -26.7450   20.1390 O   0  0  0  0  0  0  0  0  0  0  0  0
  -24.5940  -31.8850   23.2340 C   0  0  0  0  0  0  0  0  0  0  0  0
  -27.2600  -27.4630   20.1660 C   0  0  0  0  0  0  0  0  0  0  0  0
  -23.3920  -30.4710   21.5960 C   0  0  0  0  0  3  0  0  0  0  0  0
  -24.8540  -28.9330   20.1800 C   0  0  0  0  0  0  0  0  0  0  0  0
  -25.9130  -30.8440   21.3960 C   0  0  0  0  0  2  0  0  0  0  0  0
  -26.0060  -29.4700   20.7690 C   0  0  0  0  0  0  0  0  0  0  0  0
  -27.2120  -28.7360   20.7700 C   0  0  0  0  0  3  0  0  0  0  0  0
  -26.0940  -26.9260   19.5830 C   0  0  0  0  0  3  0  0  0  0  0  0
  -24.8900  -27.6550   19.5890 C   0  0  0  0  0  3  0  0  0  0  0  0
  -23.6040  -29.7840   20.2200 C   0  0  0  0  0  2  0  0  0  0  0  0
  -24.6510  -31.0830   22.1340 N   0  0  0  0  0  0  0  0  0  0  0  0
  -23.5130  -32.1570   23.7730 O   0  0  0  0  0  0  0  0  0  0  0  0
  -22.7470  -29.4510   22.5620 C   0  0  0  0  0  0  0  0  0  0  0  0
  -21.4220  -29.2680   22.4400 N   0  0  0  0  0  0  0  0  0  0  0  0
  -23.4350  -28.8270   23.3750 O   0  0  0  0  0  0  0  0  0  0  0  0
  -20.9300  -29.8240   21.7550 H   0  0  0  0  0  0  0  0  0  0  0  0
  -18.0500  -28.0830   22.9550 C   0  0  0  0  0  0  0  0  0  0  0  0
  -20.6080  -28.3330   23.2160 C   0  0  0  0  0  3  0  0  0  0  0  0
  -20.7040  -26.9020   22.6380 C   0  0  0  0  0  2  0  0  0  0  0  0
  -19.5970  -26.5820   21.6290 C   0  0  0  0  0  2  0  0  0  0  0  0
  -18.2190  -26.7330   22.2790 C   0  0  0  0  0  2  0  0  0  0  0  0
  -19.1730  -28.8410   23.3790 C   0  0  0  0  0  0  0  0  0  0  0  0
  -18.9610  -30.1070   23.9710 C   0  0  0  0  0  3  0  0  0  0  0  0
  -17.6590  -30.6130   24.1410 C   0  0  0  0  0  3  0  0  0  0  0  0
  -16.5500  -29.8510   23.7330 C   0  0  0  0  0  3  0  0  0  0  0  0
  -16.7460  -28.5880   23.1460 C   0  0  0  0  0  3  0  0  0  0  0  0
  -25.8800  -32.5210   23.8500 C   0  0  0  0  0  3  0  0  0  0  0  0
  -26.4070  -31.7530   25.1220 C   0  0  1  0  0  0  0  0  0  0  0  0
  -25.3200  -31.5120   26.1960 C   0  0  0  0  0  1  0  0  0  0  0  0
  -26.9940  -30.3790   24.7260 C   0  0  0  0  0  1  0  0  0  0  0  0
  -27.5570  -32.5530   25.7790 C   0  0  0  0  0  1  0  0  0  0  0  0
  -25.5680  -33.9190   24.1770 N   0  0  0  0  0  0  0  0  0  0  0  0
  -25.8980  -34.9690   23.4130 C   0  0  0  0  0  0  0  0  0  0  0  0
  -26.5670  -34.8660   22.3810 O   0  0  0  0  0  0  0  0  0  0  0  0
  -24.9740  -34.0750   24.9780 H   0  0  0  0  0  0  0  0  0  0  0  0
  -24.1620  -36.7530   23.0510 C   0  0  0  0  0  1  0  0  0  0  0  0
  -25.4040  -36.3570   23.8660 C   0  0  0  0  0  3  0  0  0  0  0  0
  -27.5350  -37.2500   24.6960 C   0  0  0  0  0  1  0  0  0  0  0  0
  -26.4330  -37.4130   23.7510 N   0  0  0  0  0  0  0  0  0  0  0  0
  -26.0230  -38.3320   23.8990 H   0  0  0  0  0  0  0  0  0  0  0  0
  -27.9950  -20.5420   17.9830 C   0  0  0  0  0  2  0  0  0  0  0  0
  -26.8220  -21.4370   17.9920 N   0  0  0  0  0  4  0  0  0  0  0  0
  -26.1480  -21.1360   18.6730 H   0  0  0  0  0  0  0  0  0  0  0  0
  -26.3790  -21.4120   17.0900 H   0  0  0  0  0  0  0  0  0  0  0  0
  -27.0830  -22.3870   18.1830 H   0  0  0  0  0  0  0  0  0  0  0  0
  1 94  1  0
  1 46  1  0
  2  3  2  0
  2  4  1  0
  3  6  1  0
  4  7  2  0
  6  1  1  0
  6  5  2  0
  7  5  1  0
  7 16  1  0
  8 16  1  0
  9 14  1  0
 10 11  1  0
 10  9  1  0
 12 11  1  0
 12 21  1  0
 12 13  1  0
 14  8  1  0
 14 13  1  0
 15  8  2  0
 16 17  1  0
 18 19  2  0
 19 38  1  0
 20 19  1  0
 20 23  1  0
 21 18  1  0
 21 22  1  0
 22 20  2  0
 23 24  1  0
 24 25  2  0
 26 29  1  0
 26 25  1  0
 27 26  2  0
 28 27  1  0
 28 23  2  0
 29 30  1  0
 30 31  1  0
 31 32  2  0
 33 32  1  0
 33 37  1  0
 34 33  2  0
 35 30  2  0
 35 34  1  0
 36 35  1  0
 38 39  1  0
 39 42  1  0
 39 41  1  0
 40 38  2  0
 43 44  1  0
 43 18  1  0
 45 43  1  0
 47 49  1  0
 47 46  1  0
 48 52  1  0
 48 49  1  0
 49 51  1  0
 50 48  2  0
 52 53  1  0
 53 55  1  0
 54 65  2  0
 55 60  1  0
 56 64  1  0
 56 66  1  0
 57 63  1  0
 57 59  1  0
 58 64  1  0
 59 60  2  0
 59 58  1  0
 61 62  1  0
 61 55  2  0
 62 57  2  0
 63 56  1  0
 64 54  1  0
 66 68  2  0
 67 66  1  0
 69 67  1  0
 70 79  2  0
 70 75  1  0
 71 67  1  0
 71 75  1  0
 72 71  1  0
 73 74  1  0
 73 72  1  0
 74 70  1  0
 75 76  2  0
 76 77  1  0
 78 77  2  0
 79 78  1  0
 80 54  1  0
 80 85  1  0
 80 81  1  0
 81 84  1  1
 81 82  1  0
 83 81  1  0
 85 88  1  0
 86 90  1  0
 86 85  1  0
 87 86  2  0
 90 89  1  0
 92 90  1  0
 92 93  1  0
 92 91  1  0
 94 95  1  0
 95 98  1  0
 95 96  1  0
 97 95  1  0
M  ISO  4   8 100  16 100  52 101  53 101
M  END
>  <TORSDO>  (49) 
F 23

>  <SCORE>  (49) 
-13.068

>  <name>  (49) 
48

>  <ligand_id>  (49) 
48

>  <original_smiles>  (49) 
[H]c1c([H])c([H])c2c(c1[H])C([H])([H])C([H])([H])C([H])([H])C2([H])N([H])C(=O)C1([H])N(C(=O)C([H])(N([H])C(=O)C([H])(N([H])C([H])([H])[H])C([H])([H])[H])C(C([H])([H])[H])(C([H])([H])[H])C([H])([H])[H])C([H])([H])c2c([H])c(OC([H])([H])C(=O)N([H])C([H])([H])C([H])([H])C([H])(c3c([H])c([H])c([H])c(N([H])C(=O)N4C([H])([H])C([H])([H])C([H])([H])C([H])(n5nc(-c6c([H])c([H])c(Oc7c([H])c([H])c(F)c([H])c7F)c([H])c6[H])c(C(=O)N([H])[H])c5N([H])[H])C4([H])[H])c3[H])C([H])([H])[N+]([H])([H])[H])c([H])c([H])c2C1([H])[H]

>  <smiles>  (49) 
[H]c1c([H])c([H])c2c(c1[H])C([H])([H])C([H])([H])C([H])([H])C2([H])N([H])C(=O)C1([H])N(C(=O)C([H])(N([H])C(=O)C([H])(N([H])C([H])([H])[H])C([H])([H])[H])C(C([H])([H])[H])(C([H])([H])[H])C([H])([H])[H])C([H])([H])c2c([H])c(OC([H])([H])C(=O)N([H])C([H])([H])C([H])([H])C([H])(c3c([H])c([H])c([H])c(N([H])C(=O)N4C([H])([H])C([H])([H])C([H])([H])C([H])(n5nc(-c6c([H])c([H])c(Oc7c([H])c([H])c(F)c([H])c7F)c([H])c6[H])c(C(=O)N([H])[H])c5N([H])[H])C4([H])[H])c3[H])C([H])([H])[N+]([H])([H])[H])c([H])c([H])c2C1([H])[H]

$$$$
49:0:0
     RDKit          3D

 93101  0  0  1  0  0  0  0  0999 V2000
  -30.5960  -23.5910   19.9880 C   0  0  0  0  0  1  0  0  0  0  0  0
  -29.2290  -23.0950   20.5280 C   0  0  1  0  0  0  0  0  0  0  0  0
  -30.4760  -20.5460   20.0920 C   0  0  0  0  0  3  0  0  0  0  0  0
  -30.6270  -19.0680   20.0870 C   0  0  0  0  0  3  0  0  0  0  0  0
  -28.3440  -18.8960   20.2840 C   0  0  0  0  0  3  0  0  0  0  0  0
  -29.2580  -21.3610   20.2210 C   0  0  0  0  0  0  0  0  0  0  0  0
  -29.5640  -18.0900   20.2030 C   0  0  0  0  0  0  0  0  0  0  0  0
  -28.1890  -20.3770   20.3000 C   0  0  0  0  0  0  0  0  0  0  0  0
  -26.9340  -20.8610   20.4570 F   0  0  0  0  0  0  0  0  0  0  0  0
  -30.4130  -15.2840   20.0530 C   0  0  0  0  0  0  0  0  0  0  0  0
  -30.3550  -12.8670   19.1380 C   0  0  0  0  0  2  0  0  0  0  0  0
  -29.3800  -12.7080   17.9420 C   0  0  0  0  0  2  0  0  0  0  0  0
  -27.9460  -12.4480   18.4350 C   0  0  0  0  0  2  0  0  0  0  0  0
  -27.5500  -13.4010   19.5900 C   0  0  0  0  0  3  0  0  0  0  0  0
  -28.6390  -13.4910   20.6810 C   0  0  0  0  0  2  0  0  0  0  0  0
  -29.8610  -13.9790   20.0210 N   0  0  0  0  0  0  0  0  0  0  0  0
  -31.6140  -15.3330   19.7520 O   0  0  0  0  0  0  0  0  0  0  0  0
  -29.5820  -16.4800   20.2460 N   0  0  0  0  0  0  0  0  0  0  0  0
  -28.6600  -16.1390   20.4740 H   0  0  0  0  0  0  0  0  0  0  0  0
  -25.2070  -13.9770   20.4260 C   0  0  0  0  0  0  0  0  0  0  0  0
  -24.1510  -13.2060   20.8230 C   0  0  0  0  0  0  0  0  0  0  0  0
  -24.6040  -11.8520   20.7600 C   0  0  0  0  0  0  0  0  0  0  0  0
  -26.2340  -13.0960   20.1370 N   0  0  0  0  0  0  0  0  0  0  0  0
  -25.8840  -11.8100   20.4050 N   0  0  0  0  0  0  0  0  0  0  0  0
  -23.8730  -10.5940   20.9570 C   0  0  0  0  0  0  0  0  0  0  0  0
  -24.3070   -9.6250   21.8890 C   0  0  0  0  0  3  0  0  0  0  0  0
  -23.5730   -8.4330   22.0750 C   0  0  0  0  0  3  0  0  0  0  0  0
  -22.3940   -8.2000   21.3290 C   0  0  0  0  0  0  0  0  0  0  0  0
  -21.9790   -9.1580   20.3870 C   0  0  0  0  0  3  0  0  0  0  0  0
  -22.7130  -10.3410   20.1980 C   0  0  0  0  0  3  0  0  0  0  0  0
  -21.6310   -7.0610   21.4260 O   0  0  0  0  0  0  0  0  0  0  0  0
  -21.5600   -6.3400   22.5900 C   0  0  0  0  0  0  0  0  0  0  0  0
  -21.0960   -6.9110   23.7940 C   0  0  0  0  0  3  0  0  0  0  0  0
  -20.9740   -6.1150   24.9510 C   0  0  0  0  0  3  0  0  0  0  0  0
  -21.3050   -4.7480   24.9030 C   0  0  0  0  0  0  0  0  0  0  0  0
  -21.7620   -4.1750   23.7040 C   0  0  0  0  0  3  0  0  0  0  0  0
  -21.8860   -4.9690   22.5500 C   0  0  0  0  0  0  0  0  0  0  0  0
  -22.3080   -4.4070   21.3900 F   0  0  0  0  0  0  0  0  0  0  0  0
  -21.1800   -3.9810   26.0120 F   0  0  0  0  0  0  0  0  0  0  0  0
  -22.7670  -13.6910   21.1420 C   0  0  0  0  0  0  0  0  0  0  0  0
  -22.0620  -12.9940   22.0250 N   0  0  0  0  0  0  0  0  0  0  0  0
  -22.3230  -14.7250   20.6440 O   0  0  0  0  0  0  0  0  0  0  0  0
  -22.4350  -12.1550   22.4450 H   0  0  0  0  0  0  0  0  0  0  0  0
  -21.1370  -13.3030   22.2850 H   0  0  0  0  0  0  0  0  0  0  0  0
  -25.3740  -15.3490   20.2560 N   0  0  0  0  0  0  0  0  0  0  0  0
  -24.6050  -15.9980   20.3820 H   0  0  0  0  0  0  0  0  0  0  0  0
  -26.1800  -15.7750   19.8210 H   0  0  0  0  0  0  0  0  0  0  0  0
  -29.9840  -22.1910   22.8150 C   0  0  0  0  0  1  0  0  0  0  0  0
  -29.5180  -24.5750   22.6040 C   0  0  0  0  0  1  0  0  0  0  0  0
  -29.2220  -23.2220   22.0480 N   0  0  1  0  0  4  0  0  0  0  0  0
  -28.2630  -23.0550   22.3200 H   0  0  0  0  0  0  0  0  0  0  0  0
  -28.1710  -24.4120   19.9520 C   0  0  0  0  0  2  0  0  0  0  0  0
  -28.3040  -26.0310   20.1590 O   0  0  0  0  0  0  0  0  0  0  0  0
  -24.6400  -31.8430   23.1650 C   0  0  0  0  0  0  0  0  0  0  0  0
  -27.2520  -27.0700   20.0930 C   0  0  0  0  0  0  0  0  0  0  0  0
  -23.4570  -30.4590   21.5070 C   0  0  0  0  0  3  0  0  0  0  0  0
  -24.9210  -28.8880   20.0680 C   0  0  0  0  0  0  0  0  0  0  0  0
  -26.0170  -30.7090   21.3570 C   0  0  0  0  0  2  0  0  0  0  0  0
  -26.1020  -29.3130   20.6880 C   0  0  0  0  0  0  0  0  0  0  0  0
  -27.2620  -28.4250   20.6740 C   0  0  0  0  0  3  0  0  0  0  0  0
  -26.0400  -26.7800   19.4280 C   0  0  0  0  0  3  0  0  0  0  0  0
  -24.9110  -27.6400   19.4190 C   0  0  0  0  0  3  0  0  0  0  0  0
  -23.6910  -29.7910   20.1240 C   0  0  0  0  0  2  0  0  0  0  0  0
  -24.7250  -31.0280   22.0650 N   0  0  0  0  0  0  0  0  0  0  0  0
  -23.5500  -32.1170   23.6920 O   0  0  0  0  0  0  0  0  0  0  0  0
  -22.7740  -29.4450   22.4610 C   0  0  0  0  0  0  0  0  0  0  0  0
  -21.4420  -29.2850   22.3450 N   0  0  0  0  0  0  0  0  0  0  0  0
  -23.4470  -28.8040   23.2690 O   0  0  0  0  0  0  0  0  0  0  0  0
  -20.9520  -29.8540   21.6690 H   0  0  0  0  0  0  0  0  0  0  0  0
  -18.0600  -28.0890   22.8770 C   0  0  0  0  0  0  0  0  0  0  0  0
  -20.6260  -28.3340   23.1070 C   0  0  0  0  0  3  0  0  0  0  0  0
  -20.7090  -26.9160   22.4960 C   0  0  0  0  0  2  0  0  0  0  0  0
  -19.5890  -26.6240   21.4930 C   0  0  0  0  0  2  0  0  0  0  0  0
  -18.2190  -26.7580   22.1620 C   0  0  0  0  0  2  0  0  0  0  0  0
  -19.1900  -28.8360   23.3070 C   0  0  0  0  0  0  0  0  0  0  0  0
  -18.9860  -30.0800   23.9420 C   0  0  0  0  0  3  0  0  0  0  0  0
  -17.6870  -30.5790   24.1490 C   0  0  0  0  0  3  0  0  0  0  0  0
  -16.5720  -29.8310   23.7340 C   0  0  0  0  0  3  0  0  0  0  0  0
  -16.7600  -28.5880   23.1030 C   0  0  0  0  0  3  0  0  0  0  0  0
  -25.9080  -32.4860   23.8060 C   0  0  0  0  0  3  0  0  0  0  0  0
  -26.4090  -31.7190   25.0920 C   0  0  1  0  0  0  0  0  0  0  0  0
  -25.3020  -31.4830   26.1470 C   0  0  0  0  0  1  0  0  0  0  0  0
  -27.0010  -30.3420   24.7150 C   0  0  0  0  0  1  0  0  0  0  0  0
  -27.5520  -32.5160   25.7660 C   0  0  0  0  0  1  0  0  0  0  0  0
  -25.5840  -33.8830   24.1430 N   0  0  0  0  0  0  0  0  0  0  0  0
  -25.8970  -34.9470   23.3910 C   0  0  0  0  0  0  0  0  0  0  0  0
  -26.5500  -34.8550   22.3470 O   0  0  0  0  0  0  0  0  0  0  0  0
  -25.0030  -34.0270   24.9560 H   0  0  0  0  0  0  0  0  0  0  0  0
  -24.1420  -36.7280   23.0980 C   0  0  0  0  0  1  0  0  0  0  0  0
  -25.4110  -36.3310   23.8680 C   0  0  0  0  0  3  0  0  0  0  0  0
  -27.5570  -37.2450   24.6380 C   0  0  0  0  0  1  0  0  0  0  0  0
  -26.4280  -37.3950   23.7240 N   0  0  0  0  0  0  0  0  0  0  0  0
  -26.0160  -38.3120   23.8780 H   0  0  0  0  0  0  0  0  0  0  0  0
  2  1  1  6
  2 50  1  0
  3  6  1  0
  4  3  2  0
  4  7  1  0
  5  8  1  0
  6  8  2  0
  6  2  1  0
  7 18  1  0
  7  5  2  0
  8  9  1  0
 10 18  1  0
 11 16  1  0
 12 13  1  0
 12 11  1  0
 14 13  1  0
 14 23  1  0
 14 15  1  0
 16 10  1  0
 16 15  1  0
 17 10  2  0
 18 19  1  0
 20 21  2  0
 21 40  1  0
 22 21  1  0
 22 25  1  0
 23 24  1  0
 23 20  1  0
 24 22  2  0
 25 26  1  0
 26 27  2  0
 28 31  1  0
 28 27  1  0
 29 28  2  0
 30 29  1  0
 30 25  2  0
 31 32  1  0
 32 33  1  0
 33 34  2  0
 35 34  1  0
 35 39  1  0
 36 35  2  0
 37 32  2  0
 37 36  1  0
 38 37  1  0
 40 41  1  0
 41 44  1  0
 41 43  1  0
 42 40  2  0
 45 46  1  0
 45 20  1  0
 47 45  1  0
 50 51  1  1
 50 49  1  0
 50 48  1  0
 52 53  1  0
 52  2  1  0
 54 65  2  0
 55 53  1  0
 55 60  1  0
 56 64  1  0
 56 66  1  0
 57 63  1  0
 57 59  1  0
 58 64  1  0
 59 58  1  0
 60 59  2  0
 61 55  2  0
 62 61  1  0
 62 57  2  0
 63 56  1  0
 64 54  1  0
 66 68  2  0
 67 66  1  0
 69 67  1  0
 70 79  2  0
 70 75  1  0
 71 67  1  0
 71 75  1  0
 72 71  1  0
 73 74  1  0
 73 72  1  0
 74 70  1  0
 75 76  2  0
 76 77  1  0
 78 77  2  0
 79 78  1  0
 80 54  1  0
 80 85  1  0
 80 81  1  0
 81 84  1  1
 81 82  1  0
 83 81  1  0
 85 88  1  0
 86 90  1  0
 86 85  1  0
 87 86  2  0
 90 89  1  0
 92 90  1  0
 92 93  1  0
 92 91  1  0
M  ISO  4  10 100  18 100  52 101  53 101
M  END
>  <TORSDO>  (50) 
F 19

>  <SCORE>  (50) 
-15.187

>  <name>  (50) 
49

>  <ligand_id>  (50) 
49

>  <original_smiles>  (50) 
[H]c1c([H])c([H])c2c(c1[H])C([H])([H])C([H])([H])C([H])([H])C2([H])N([H])C(=O)C1([H])N(C(=O)C([H])(N([H])C(=O)C([H])(N([H])C([H])([H])[H])C([H])([H])[H])C(C([H])([H])[H])(C([H])([H])[H])C([H])([H])[H])C([H])([H])c2c([H])c(OC([H])([H])C(c3c([H])c([H])c(N([H])C(=O)N4C([H])([H])C([H])([H])C([H])([H])C([H])(n5nc(-c6c([H])c([H])c(Oc7c([H])c([H])c(F)c([H])c7F)c([H])c6[H])c(C(=O)N([H])[H])c5N([H])[H])C4([H])[H])c([H])c3F)(C([H])([H])[H])[N+]([H])(C([H])([H])[H])C([H])([H])[H])c([H])c([H])c2C1([H])[H]

>  <smiles>  (50) 
[H]c1c([H])c([H])c2c(c1[H])C([H])([H])C([H])([H])C([H])([H])C2([H])N([H])C(=O)C1([H])N(C(=O)C([H])(N([H])C(=O)C([H])(N([H])C([H])([H])[H])C([H])([H])[H])C(C([H])([H])[H])(C([H])([H])[H])C([H])([H])[H])C([H])([H])c2c([H])c(OC([H])([H])C(c3c([H])c([H])c(N([H])C(=O)N4C([H])([H])C([H])([H])C([H])([H])C([H])(n5nc(-c6c([H])c([H])c(Oc7c([H])c([H])c(F)c([H])c7F)c([H])c6[H])c(C(=O)N([H])[H])c5N([H])[H])C4([H])[H])c([H])c3F)(C([H])([H])[H])[N+]([H])(C([H])([H])[H])C([H])([H])[H])c([H])c([H])c2C1([H])[H]

$$$$
50:0:0
     RDKit          3D

 90 98  0  0  1  0  0  0  0  0999 V2000
  -27.9030  -20.9770   20.4020 C   0  0  0  0  0  3  0  0  0  0  0  0
  -30.2920  -19.9380   19.7360 C   0  0  0  0  0  3  0  0  0  0  0  0
  -28.7070  -22.1830   20.0760 C   0  0  0  0  0  0  0  0  0  0  0  0
  -29.9710  -21.4550   19.7240 C   0  0  0  0  0  0  0  0  0  0  0  0
  -29.4500  -18.7420   20.0610 C   0  0  0  0  0  0  0  0  0  0  0  0
  -28.2120  -19.4860   20.4000 C   0  0  0  0  0  0  0  0  0  0  0  0
  -27.1710  -18.6930   20.7470 F   0  0  0  0  0  0  0  0  0  0  0  0
  -30.4120  -15.7250   19.8420 C   0  0  0  0  0  0  0  0  0  0  0  0
  -30.4780  -13.2050   18.9600 C   0  0  0  0  0  2  0  0  0  0  0  0
  -29.5000  -12.8500   17.8030 C   0  0  0  0  0  2  0  0  0  0  0  0
  -28.1080  -12.4880   18.3440 C   0  0  0  0  0  2  0  0  0  0  0  0
  -27.6770  -13.4520   19.4720 C   0  0  0  0  0  3  0  0  0  0  0  0
  -28.7840  -13.7170   20.5190 C   0  0  0  0  0  2  0  0  0  0  0  0
  -29.9150  -14.3520   19.8030 N   0  0  0  0  0  0  0  0  0  0  0  0
  -31.6210  -15.7120   19.5390 O   0  0  0  0  0  0  0  0  0  0  0  0
  -29.5930  -17.0240   20.0560 N   0  0  0  0  0  0  0  0  0  0  0  0
  -28.6860  -16.6710   20.3240 H   0  0  0  0  0  0  0  0  0  0  0  0
  -25.3770  -13.9490   20.4320 C   0  0  0  0  0  0  0  0  0  0  0  0
  -24.3490  -13.1510   20.8450 C   0  0  0  0  0  0  0  0  0  0  0  0
  -24.8160  -11.8060   20.7220 C   0  0  0  0  0  0  0  0  0  0  0  0
  -26.4010  -13.0920   20.0730 N   0  0  0  0  0  0  0  0  0  0  0  0
  -26.0820  -11.7920   20.3140 N   0  0  0  0  0  0  0  0  0  0  0  0
  -24.1040  -10.5340   20.9120 C   0  0  0  0  0  0  0  0  0  0  0  0
  -24.5360   -9.5760   21.8550 C   0  0  0  0  0  3  0  0  0  0  0  0
  -23.8190   -8.3740   22.0350 C   0  0  0  0  0  3  0  0  0  0  0  0
  -22.6550   -8.1190   21.2710 C   0  0  0  0  0  0  0  0  0  0  0  0
  -22.2420   -9.0650   20.3160 C   0  0  0  0  0  3  0  0  0  0  0  0
  -22.9590  -10.2590   20.1350 C   0  0  0  0  0  3  0  0  0  0  0  0
  -21.9110   -6.9680   21.3590 O   0  0  0  0  0  0  0  0  0  0  0  0
  -21.7660   -6.2930   22.5450 C   0  0  0  0  0  0  0  0  0  0  0  0
  -21.1700   -6.8920   23.6750 C   0  0  0  0  0  3  0  0  0  0  0  0
  -20.9780   -6.1410   24.8520 C   0  0  0  0  0  3  0  0  0  0  0  0
  -21.3710   -4.7900   24.8970 C   0  0  0  0  0  0  0  0  0  0  0  0
  -21.9600   -4.1900   23.7710 C   0  0  0  0  0  3  0  0  0  0  0  0
  -22.1530   -4.9390   22.5970 C   0  0  0  0  0  0  0  0  0  0  0  0
  -22.7010   -4.3480   21.5070 F   0  0  0  0  0  0  0  0  0  0  0  0
  -21.1800   -4.0660   26.0260 F   0  0  0  0  0  0  0  0  0  0  0  0
  -22.9740  -13.6120   21.2320 C   0  0  0  0  0  0  0  0  0  0  0  0
  -22.3140  -12.8860   22.1250 N   0  0  0  0  0  0  0  0  0  0  0  0
  -22.4990  -14.6520   20.7770 O   0  0  0  0  0  0  0  0  0  0  0  0
  -22.7130  -12.0450   22.5130 H   0  0  0  0  0  0  0  0  0  0  0  0
  -21.3950  -13.1760   22.4270 H   0  0  0  0  0  0  0  0  0  0  0  0
  -25.5200  -15.3270   20.2980 N   0  0  0  0  0  0  0  0  0  0  0  0
  -24.7600  -15.9660   20.5000 H   0  0  0  0  0  0  0  0  0  0  0  0
  -26.3260  -15.7870   19.8970 H   0  0  0  0  0  0  0  0  0  0  0  0
  -31.3210  -22.1370   17.8740 C   0  0  0  0  0  1  0  0  0  0  0  0
  -32.1290  -22.3550   20.2110 C   0  0  0  0  0  1  0  0  0  0  0  0
  -31.0020  -22.3000   19.2880 N   0  0  0  0  0  0  0  0  0  0  0  0
  -28.0340  -23.9210   19.8730 C   0  0  0  0  0  2  0  0  0  0  0  0
  -28.2780  -25.6100   20.2600 O   0  0  0  0  0  0  0  0  0  0  0  0
  -24.7350  -31.8300   23.2420 C   0  0  0  0  0  0  0  0  0  0  0  0
  -27.3210  -26.8300   20.1890 C   0  0  0  0  0  0  0  0  0  0  0  0
  -23.5730  -30.4620   21.5630 C   0  0  0  0  0  3  0  0  0  0  0  0
  -25.0450  -28.8480   20.1380 C   0  0  0  0  0  0  0  0  0  0  0  0
  -26.1520  -30.6170   21.4790 C   0  0  0  0  0  2  0  0  0  0  0  0
  -26.2300  -29.1990   20.7960 C   0  0  0  0  0  0  0  0  0  0  0  0
  -27.3520  -28.2170   20.7930 C   0  0  0  0  0  3  0  0  0  0  0  0
  -26.1040  -26.6910   19.4740 C   0  0  0  0  0  3  0  0  0  0  0  0
  -25.0210  -27.6200   19.4550 C   0  0  0  0  0  3  0  0  0  0  0  0
  -23.8330  -29.7930   20.1830 C   0  0  0  0  0  2  0  0  0  0  0  0
  -24.8430  -31.0010   22.1480 N   0  0  0  0  0  0  0  0  0  0  0  0
  -23.6350  -32.1190   23.7440 O   0  0  0  0  0  0  0  0  0  0  0  0
  -22.8470  -29.4630   22.5060 C   0  0  0  0  0  0  0  0  0  0  0  0
  -21.5160  -29.3120   22.3630 N   0  0  0  0  0  0  0  0  0  0  0  0
  -23.4930  -28.8240   23.3390 O   0  0  0  0  0  0  0  0  0  0  0  0
  -21.0450  -29.8790   21.6720 H   0  0  0  0  0  0  0  0  0  0  0  0
  -18.1150  -28.1260   22.8510 C   0  0  0  0  0  0  0  0  0  0  0  0
  -20.6800  -28.3610   23.1080 C   0  0  0  0  0  3  0  0  0  0  0  0
  -20.7620  -26.9460   22.4880 C   0  0  0  0  0  2  0  0  0  0  0  0
  -19.6540  -26.6680   21.4690 C   0  0  0  0  0  2  0  0  0  0  0  0
  -18.2760  -26.8020   22.1240 C   0  0  0  0  0  2  0  0  0  0  0  0
  -19.2430  -28.8670   23.2980 C   0  0  0  0  0  0  0  0  0  0  0  0
  -19.0350  -30.1040   23.9430 C   0  0  0  0  0  3  0  0  0  0  0  0
  -17.7340  -30.6050   24.1420 C   0  0  0  0  0  3  0  0  0  0  0  0
  -16.6220  -29.8630   23.7060 C   0  0  0  0  0  3  0  0  0  0  0  0
  -16.8140  -28.6250   23.0670 C   0  0  0  0  0  3  0  0  0  0  0  0
  -25.9880  -32.4720   23.9120 C   0  0  0  0  0  3  0  0  0  0  0  0
  -25.6770  -33.8820   24.2190 N   0  0  0  0  0  0  0  0  0  0  0  0
  -26.0120  -34.9310   23.4550 C   0  0  0  0  0  0  0  0  0  0  0  0
  -26.6750  -34.8120   22.4210 O   0  0  0  0  0  0  0  0  0  0  0  0
  -25.0860  -34.0470   25.0200 H   0  0  0  0  0  0  0  0  0  0  0  0
  -24.2770  -36.7300   23.1310 C   0  0  0  0  0  1  0  0  0  0  0  0
  -25.5440  -36.3310   23.9050 C   0  0  0  0  0  3  0  0  0  0  0  0
  -27.6970  -37.2430   24.6620 C   0  0  0  0  0  1  0  0  0  0  0  0
  -26.5740  -37.3820   23.7390 N   0  0  0  0  0  0  0  0  0  0  0  0
  -26.1700  -38.3050   23.8680 H   0  0  0  0  0  0  0  0  0  0  0  0
  -26.4330  -31.7260   25.2320 C   0  0  1  0  0  0  0  0  0  0  0  0
  -25.2880  -31.5260   26.2540 C   0  0  0  0  0  1  0  0  0  0  0  0
  -27.0170  -30.3310   24.9110 C   0  0  0  0  0  1  0  0  0  0  0  0
  -27.5630  -32.5220   25.9280 C   0  0  0  0  0  1  0  0  0  0  0  0
  2  5  1  0
  3  1  2  0
  4  2  2  0
  4  3  1  0
  5  6  2  0
  6  1  1  0
  6  7  1  0
  8 16  1  0
  9 14  1  0
 10 11  1  0
 10  9  1  0
 12 11  1  0
 12 21  1  0
 12 13  1  0
 14  8  1  0
 14 13  1  0
 15  8  2  0
 16  5  1  0
 16 17  1  0
 18 19  2  0
 19 38  1  0
 20 19  1  0
 20 23  1  0
 21 22  1  0
 21 18  1  0
 22 20  2  0
 23 24  1  0
 24 25  2  0
 26 29  1  0
 26 25  1  0
 27 26  2  0
 28 27  1  0
 28 23  2  0
 29 30  1  0
 30 35  2  0
 30 31  1  0
 31 32  2  0
 32 33  1  0
 33 37  1  0
 34 33  2  0
 35 34  1  0
 36 35  1  0
 38 39  1  0
 39 42  1  0
 39 41  1  0
 40 38  2  0
 43 18  1  0
 43 44  1  0
 45 43  1  0
 46 48  1  0
 48  4  1  0
 48 47  1  0
 49  3  1  0
 49 50  1  0
 51 62  2  0
 52 50  1  0
 52 57  1  0
 53 61  1  0
 53 63  1  0
 54 60  1  0
 54 56  1  0
 55 61  1  0
 56 55  1  0
 57 56  2  0
 58 52  2  0
 59 58  1  0
 59 54  2  0
 60 53  1  0
 61 51  1  0
 63 65  2  0
 64 63  1  0
 66 64  1  0
 67 76  2  0
 67 72  1  0
 68 64  1  0
 68 72  1  0
 69 68  1  0
 70 71  1  0
 70 69  1  0
 71 67  1  0
 72 73  2  0
 73 74  1  0
 75 74  2  0
 76 75  1  0
 77 51  1  0
 77 78  1  0
 77 87  1  0
 78 81  1  0
 79 83  1  0
 79 78  1  0
 80 79  2  0
 83 82  1  0
 85 86  1  0
 85 83  1  0
 85 84  1  0
 87 90  1  1
 87 88  1  0
 89 87  1  0
M  ISO  4   8 100  16 100  49 101  50 101
M  END
>  <TORSDO>  (51) 
F 18

>  <SCORE>  (51) 
-15.758

>  <name>  (51) 
50

>  <ligand_id>  (51) 
50

>  <original_smiles>  (51) 
[H]c1c([H])c([H])c2c(c1[H])C([H])([H])C([H])([H])C([H])([H])C2([H])N([H])C(=O)C1([H])N(C(=O)C([H])(N([H])C(=O)C([H])(N([H])C([H])([H])[H])C([H])([H])[H])C(C([H])([H])[H])(C([H])([H])[H])C([H])([H])[H])C([H])([H])c2c([H])c(OC([H])([H])c3c([H])c(F)c(N([H])C(=O)N4C([H])([H])C([H])([H])C([H])([H])C([H])(n5nc(-c6c([H])c([H])c(Oc7c([H])c([H])c(F)c([H])c7F)c([H])c6[H])c(C(=O)N([H])[H])c5N([H])[H])C4([H])[H])c([H])c3N(C([H])([H])[H])C([H])([H])[H])c([H])c([H])c2C1([H])[H]

>  <smiles>  (51) 
[H]c1c([H])c([H])c2c(c1[H])C([H])([H])C([H])([H])C([H])([H])C2([H])N([H])C(=O)C1([H])N(C(=O)C([H])(N([H])C(=O)C([H])(N([H])C([H])([H])[H])C([H])([H])[H])C(C([H])([H])[H])(C([H])([H])[H])C([H])([H])[H])C([H])([H])c2c([H])c(OC([H])([H])c3c([H])c(F)c(N([H])C(=O)N4C([H])([H])C([H])([H])C([H])([H])C([H])(n5nc(-c6c([H])c([H])c(Oc7c([H])c([H])c(F)c([H])c7F)c([H])c6[H])c(C(=O)N([H])[H])c5N([H])[H])C4([H])[H])c([H])c3N(C([H])([H])[H])C([H])([H])[H])c([H])c([H])c2C1([H])[H]

$$$$
51:0:0
     RDKit          3D

 94103  0  0  1  0  0  0  0  0999 V2000
  -29.2250  -21.7320   19.7390 C   0  0  0  0  0  3  0  0  0  0  0  0
  -28.8850  -24.1810   20.0960 C   0  0  0  0  0  0  0  0  0  0  0  0
  -28.6520  -22.9000   20.4500 N   0  0  0  0  0  0  0  0  0  0  0  0
  -29.6020  -24.4620   19.1300 O   0  0  0  0  0  0  0  0  0  0  0  0
  -28.0190  -22.7260   21.2250 H   0  0  0  0  0  0  0  0  0  0  0  0
  -28.2680  -25.3220   20.9470 C   0  0  0  0  0  2  0  0  0  0  0  0
  -28.4710  -26.6160   20.3270 O   0  0  0  0  0  0  0  0  0  0  0  0
  -24.5280  -31.8410   23.1990 C   0  0  0  0  0  0  0  0  0  0  0  0
  -27.3270  -27.3800   20.2650 C   0  0  0  0  0  0  0  0  0  0  0  0
  -23.3970  -30.3600   21.5730 C   0  0  0  0  0  3  0  0  0  0  0  0
  -24.9110  -28.8280   20.2150 C   0  0  0  0  0  0  0  0  0  0  0  0
  -25.9150  -30.7730   21.4110 C   0  0  0  0  0  2  0  0  0  0  0  0
  -26.0410  -29.3920   20.8090 C   0  0  0  0  0  0  0  0  0  0  0  0
  -27.2660  -28.6770   20.8230 C   0  0  0  0  0  3  0  0  0  0  0  0
  -26.1750  -26.8330   19.6680 C   0  0  0  0  0  3  0  0  0  0  0  0
  -24.9670  -27.5540   19.6370 C   0  0  0  0  0  3  0  0  0  0  0  0
  -23.6550  -29.6580   20.2160 C   0  0  0  0  0  2  0  0  0  0  0  0
  -24.6320  -31.0090   22.1150 N   0  0  0  0  0  0  0  0  0  0  0  0
  -23.4320  -32.1030   23.7000 O   0  0  0  0  0  0  0  0  0  0  0  0
  -22.7380  -29.3510   22.5450 C   0  0  0  0  0  0  0  0  0  0  0  0
  -21.4210  -29.1430   22.3920 N   0  0  0  0  0  0  0  0  0  0  0  0
  -23.4120  -28.7630   23.3960 O   0  0  0  0  0  0  0  0  0  0  0  0
  -20.9340  -29.6830   21.6870 H   0  0  0  0  0  0  0  0  0  0  0  0
  -18.0630  -27.8750   22.8260 C   0  0  0  0  0  0  0  0  0  0  0  0
  -20.6020  -28.2140   23.1700 C   0  0  0  0  0  3  0  0  0  0  0  0
  -20.7600  -26.7700   22.6400 C   0  0  0  0  0  2  0  0  0  0  0  0
  -19.7010  -26.3860   21.6000 C   0  0  0  0  0  2  0  0  0  0  0  0
  -18.2950  -26.5140   22.1970 C   0  0  0  0  0  2  0  0  0  0  0  0
  -19.1460  -28.6870   23.2630 C   0  0  0  0  0  0  0  0  0  0  0  0
  -18.8690  -29.9540   23.8100 C   0  0  0  0  0  3  0  0  0  0  0  0
  -17.5450  -30.4270   23.9240 C   0  0  0  0  0  3  0  0  0  0  0  0
  -16.4770  -29.6150   23.4990 C   0  0  0  0  0  3  0  0  0  0  0  0
  -16.7370  -28.3450   22.9610 C   0  0  0  0  0  3  0  0  0  0  0  0
  -25.7850  -32.5190   23.8360 C   0  0  0  0  0  3  0  0  0  0  0  0
  -25.4190  -33.9110   24.1460 N   0  0  0  0  0  0  0  0  0  0  0  0
  -25.7210  -34.9650   23.3860 C   0  0  0  0  0  0  0  0  0  0  0  0
  -26.3950  -34.8740   22.3480 O   0  0  0  0  0  0  0  0  0  0  0  0
  -24.8340  -34.0610   24.9570 H   0  0  0  0  0  0  0  0  0  0  0  0
  -23.9330  -36.6990   23.0140 C   0  0  0  0  0  1  0  0  0  0  0  0
  -25.1880  -36.3400   23.8270 C   0  0  0  0  0  3  0  0  0  0  0  0
  -27.2910  -37.3070   24.6470 C   0  0  0  0  0  1  0  0  0  0  0  0
  -26.1820  -37.4260   23.7000 N   0  0  0  0  0  0  0  0  0  0  0  0
  -25.7510  -38.3350   23.8430 H   0  0  0  0  0  0  0  0  0  0  0  0
  -26.3150  -31.7730   25.1230 C   0  0  1  0  0  0  0  0  0  0  0  0
  -25.2130  -31.4860   26.1720 C   0  0  0  0  0  1  0  0  0  0  0  0
  -26.9490  -30.4180   24.7300 C   0  0  0  0  0  1  0  0  0  0  0  0
  -27.4270  -32.6130   25.7900 C   0  0  0  0  0  1  0  0  0  0  0  0
  -29.2370  -20.3940   20.5270 C   0  0  0  0  0  3  0  0  0  0  0  0
  -29.7850  -17.9670   20.9020 C   0  0  0  0  0  0  0  0  0  0  0  0
  -29.6570  -19.0220   20.0000 N   0  0  0  0  0  0  0  0  0  0  0  0
  -29.2420  -17.9950   22.0150 O   0  0  0  0  0  0  0  0  0  0  0  0
  -30.6240  -14.4240   19.6880 C   0  0  0  0  0  0  0  0  0  0  0  0
  -30.0460  -12.3410   18.4510 C   0  0  0  0  0  2  0  0  0  0  0  0
  -28.9540  -12.6200   17.3960 C   0  0  0  0  0  2  0  0  0  0  0  0
  -27.5570  -12.4490   18.0250 C   0  0  0  0  0  2  0  0  0  0  0  0
  -27.4280  -13.2160   19.3680 C   0  0  0  0  0  3  0  0  0  0  0  0
  -28.6380  -12.9550   20.3070 C   0  0  0  0  0  2  0  0  0  0  0  0
  -29.8640  -13.2850   19.5690 N   0  0  0  0  0  0  0  0  0  0  0  0
  -31.5720  -14.6580   18.9410 O   0  0  0  0  0  0  0  0  0  0  0  0
  -31.5770  -16.3550   21.8360 C   0  0  0  0  0  2  0  0  0  0  0  0
  -30.5760  -15.1960   22.0190 C   0  0  0  0  0  2  0  0  0  0  0  0
  -30.7680  -16.7730   20.6050 C   0  0  0  0  0  3  0  0  0  0  0  0
  -30.2280  -15.3700   20.5910 N   0  0  0  0  0  0  0  0  0  0  0  0
  -25.1720  -13.8270   20.4420 C   0  0  0  0  0  0  0  0  0  0  0  0
  -24.1400  -13.0540   20.9040 C   0  0  0  0  0  0  0  0  0  0  0  0
  -24.5470  -11.6990   20.7270 C   0  0  0  0  0  0  0  0  0  0  0  0
  -26.1550  -12.9380   20.0240 N   0  0  0  0  0  0  0  0  0  0  0  0
  -25.7880  -11.6540   20.2550 N   0  0  0  0  0  0  0  0  0  0  0  0
  -23.8140  -10.4440   20.9540 C   0  0  0  0  0  0  0  0  0  0  0  0
  -24.3040   -9.4660   21.8450 C   0  0  0  0  0  3  0  0  0  0  0  0
  -23.5890   -8.2650   22.0520 C   0  0  0  0  0  3  0  0  0  0  0  0
  -22.3710   -8.0380   21.3720 C   0  0  0  0  0  0  0  0  0  0  0  0
  -21.8950   -9.0060   20.4760 C   0  0  0  0  0  3  0  0  0  0  0  0
  -22.6020  -10.2060   20.2680 C   0  0  0  0  0  3  0  0  0  0  0  0
  -21.6020   -6.9100   21.4990 O   0  0  0  0  0  0  0  0  0  0  0  0
  -21.5760   -6.1920   22.6650 C   0  0  0  0  0  0  0  0  0  0  0  0
  -21.1580   -6.7720   23.8800 C   0  0  0  0  0  3  0  0  0  0  0  0
  -21.0860   -5.9840   25.0480 C   0  0  0  0  0  3  0  0  0  0  0  0
  -21.3960   -4.6090   24.9930 C   0  0  0  0  0  0  0  0  0  0  0  0
  -21.7740   -4.0240   23.7700 C   0  0  0  0  0  3  0  0  0  0  0  0
  -21.8650   -4.8140   22.6120 C   0  0  0  0  0  0  0  0  0  0  0  0
  -22.2340   -4.2420   21.4410 F   0  0  0  0  0  0  0  0  0  0  0  0
  -21.3100   -3.8520   26.1100 F   0  0  0  0  0  0  0  0  0  0  0  0
  -22.8150  -13.5460   21.3930 C   0  0  0  0  0  0  0  0  0  0  0  0
  -22.2130  -12.8150   22.3250 N   0  0  0  0  0  0  0  0  0  0  0  0
  -22.3300  -14.6040   20.9900 O   0  0  0  0  0  0  0  0  0  0  0  0
  -22.6260  -11.9630   22.6780 H   0  0  0  0  0  0  0  0  0  0  0  0
  -21.3270  -13.1090   22.7010 H   0  0  0  0  0  0  0  0  0  0  0  0
  -25.3380  -15.2010   20.3300 N   0  0  0  0  0  0  0  0  0  0  0  0
  -24.6160  -15.8710   20.5810 H   0  0  0  0  0  0  0  0  0  0  0  0
  -26.1690  -15.6300   19.9430 H   0  0  0  0  0  0  0  0  0  0  0  0
  -28.8220  -19.1400   17.5920 C   0  0  0  0  0  2  0  0  0  0  0  0
  -30.2210  -19.6850   17.4860 C   0  0  0  0  0  2  0  0  0  0  0  0
  -29.8720  -18.7070   18.5880 C   0  0  0  0  0  3  0  0  0  0  0  0
  1  3  1  0
  1 48  2  0
  2  3  1  0
  2  6  1  0
  3  5  1  0
  4  2  2  0
  7  6  1  0
  8 19  2  0
  9  7  1  0
  9 14  1  0
 10 18  1  0
 10 20  1  0
 11 17  1  0
 11 13  1  0
 12 18  1  0
 13 14  2  0
 13 12  1  0
 15  9  2  0
 16 15  1  0
 16 11  2  0
 17 10  1  0
 18  8  1  0
 20 22  2  0
 21 20  1  0
 23 21  1  0
 24 33  2  0
 24 29  1  0
 25 21  1  0
 25 29  1  0
 26 25  1  0
 27 28  1  0
 27 26  1  0
 28 24  1  0
 29 30  2  0
 30 31  1  0
 32 31  2  0
 33 32  1  0
 34  8  1  0
 34 35  1  0
 34 44  1  0
 35 38  1  0
 36 40  1  0
 36 35  1  0
 37 36  2  0
 40 39  1  0
 42 40  1  0
 42 43  1  0
 42 41  1  0
 44 47  1  1
 44 45  1  0
 46 44  1  0
 49 51  2  0
 50 48  1  0
 50 49  1  0
 52 63  1  0
 53 58  1  0
 54 55  1  0
 54 53  1  0
 56 55  1  0
 56 67  1  0
 56 57  1  0
 58 52  1  0
 58 57  1  0
 59 52  2  0
 60 61  1  0
 62 49  1  0
 62 60  1  0
 63 62  1  0
 63 61  1  0
 64 65  2  0
 65 84  1  0
 66 65  1  0
 66 69  1  0
 67 68  1  0
 67 64  1  0
 68 66  2  0
 69 70  1  0
 70 71  2  0
 72 75  1  0
 72 71  1  0
 73 72  2  0
 74 73  1  0
 74 69  2  0
 75 76  1  0
 76 77  1  0
 77 78  2  0
 79 78  1  0
 79 83  1  0
 80 79  2  0
 81 76  2  0
 81 80  1  0
 82 81  1  0
 84 85  1  0
 85 87  1  0
 85 88  1  0
 86 84  2  0
 89 64  1  0
 89 90  1  0
 91 89  1  0
 92 94  1  0
 93 92  1  0
 93 94  1  0
 94 50  1  0
M  ISO  4   6 101   7 101  52 100  63 100
M  END
>  <TORSDO>  (52) 
F 21

>  <SCORE>  (52) 
-11.468

>  <name>  (52) 
51

>  <ligand_id>  (52) 
51

>  <original_smiles>  (52) 
[H]c1c([H])c([H])c2c(c1[H])C([H])([H])C([H])([H])C([H])([H])C2([H])N([H])C(=O)C1([H])N(C(=O)C([H])(N([H])C(=O)C([H])(N([H])C([H])([H])[H])C([H])([H])[H])C(C([H])([H])[H])(C([H])([H])[H])C([H])([H])[H])C([H])([H])c2c([H])c(OC([H])([H])C(=O)N([H])C([H])([H])C([H])([H])N(C(=O)C3([H])N(C(=O)N4C([H])([H])C([H])([H])C([H])([H])C([H])(n5nc(-c6c([H])c([H])c(Oc7c([H])c([H])c(F)c([H])c7F)c([H])c6[H])c(C(=O)N([H])[H])c5N([H])[H])C4([H])[H])C([H])([H])C3([H])[H])C3([H])C([H])([H])C3([H])[H])c([H])c([H])c2C1([H])[H]

>  <smiles>  (52) 
[H]c1c([H])c([H])c2c(c1[H])C([H])([H])C([H])([H])C([H])([H])C2([H])N([H])C(=O)C1([H])N(C(=O)C([H])(N([H])C(=O)C([H])(N([H])C([H])([H])[H])C([H])([H])[H])C(C([H])([H])[H])(C([H])([H])[H])C([H])([H])[H])C([H])([H])c2c([H])c(OC([H])([H])C(=O)N([H])C([H])([H])C([H])([H])N(C(=O)C3([H])N(C(=O)N4C([H])([H])C([H])([H])C([H])([H])C([H])(n5nc(-c6c([H])c([H])c(Oc7c([H])c([H])c(F)c([H])c7F)c([H])c6[H])c(C(=O)N([H])[H])c5N([H])[H])C4([H])[H])C([H])([H])C3([H])[H])C3([H])C([H])([H])C3([H])[H])c([H])c([H])c2C1([H])[H]

$$$$
52:0:0
     RDKit          3D

102111  0  0  1  0  0  0  0  0999 V2000
  -28.7570  -19.2460   20.4890 C   0  0  0  0  0  0  0  0  0  0  0  0
  -29.1250  -21.3630   19.3750 C   0  0  0  0  0  2  0  0  0  0  0  0
  -29.0510  -21.2320   21.8340 C   0  0  0  0  0  2  0  0  0  0  0  0
  -29.9740  -22.6430   19.4920 C   0  0  0  0  0  2  0  0  0  0  0  0
  -29.8950  -22.5240   21.9320 C   0  0  0  0  0  3  0  0  0  0  0  0
  -29.5990  -23.2040   23.2870 C   0  0  0  0  0  1  0  0  0  0  0  0
  -29.2300  -20.5090   20.5690 N   0  0  0  0  0  0  0  0  0  0  0  0
  -29.3750  -18.4480   19.5910 N   0  0  0  0  0  0  0  0  0  0  0  0
  -29.6670  -23.4000   20.7380 N   0  0  1  0  0  4  0  0  0  0  0  0
  -27.7810  -18.8680   21.1440 O   0  0  0  0  0  0  0  0  0  0  0  0
  -28.6780  -23.5960   20.7200 H   0  0  0  0  0  0  0  0  0  0  0  0
  -27.5090  -17.8210   17.9810 C   0  0  0  0  0  2  0  0  0  0  0  0
  -28.7790  -17.2310   17.4210 C   0  0  0  0  0  2  0  0  0  0  0  0
  -28.6330  -17.4280   18.9160 C   0  0  0  0  0  3  0  0  0  0  0  0
  -30.8310  -18.1920   19.6450 C   0  0  0  0  0  2  0  0  0  0  0  0
  -30.8610  -17.6380   22.1750 C   0  0  0  0  0  1  0  0  0  0  0  0
  -32.8800  -17.2640   20.7970 C   0  0  0  0  0  1  0  0  0  0  0  0
  -31.3350  -17.2220   20.7700 C   0  0  2  0  0  0  0  0  0  0  0  0
  -31.3190  -14.8940   19.7160 C   0  0  0  0  0  0  0  0  0  0  0  0
  -30.9450  -12.6300   18.8040 C   0  0  0  0  0  2  0  0  0  0  0  0
  -29.9260  -12.6470   17.6500 C   0  0  0  0  0  2  0  0  0  0  0  0
  -28.4880  -12.5260   18.1910 C   0  0  0  0  0  2  0  0  0  0  0  0
  -28.2020  -13.5210   19.3440 C   0  0  0  0  0  3  0  0  0  0  0  0
  -29.3280  -13.4900   20.4030 C   0  0  0  0  0  2  0  0  0  0  0  0
  -30.6200  -13.7270   19.7300 N   0  0  0  0  0  0  0  0  0  0  0  0
  -32.2930  -15.0820   18.9850 O   0  0  0  0  0  0  0  0  0  0  0  0
  -30.8690  -15.8410   20.5590 N   0  0  0  0  0  0  0  0  0  0  0  0
  -30.0920  -15.5470   21.1300 H   0  0  0  0  0  0  0  0  0  0  0  0
  -25.9190  -14.2110   20.3180 C   0  0  0  0  0  0  0  0  0  0  0  0
  -24.8530  -13.4710   20.7540 C   0  0  0  0  0  0  0  0  0  0  0  0
  -25.2380  -12.1030   20.6130 C   0  0  0  0  0  0  0  0  0  0  0  0
  -26.8900  -13.2930   19.9420 N   0  0  0  0  0  0  0  0  0  0  0  0
  -26.4880  -12.0190   20.1770 N   0  0  0  0  0  0  0  0  0  0  0  0
  -24.4720  -10.8680   20.8120 C   0  0  0  0  0  0  0  0  0  0  0  0
  -24.8490   -9.9150   21.7830 C   0  0  0  0  0  3  0  0  0  0  0  0
  -24.0860   -8.7410   21.9680 C   0  0  0  0  0  3  0  0  0  0  0  0
  -22.9330   -8.5140   21.1810 C   0  0  0  0  0  0  0  0  0  0  0  0
  -22.5750   -9.4550   20.2000 C   0  0  0  0  0  3  0  0  0  0  0  0
  -23.3390  -10.6190   20.0130 C   0  0  0  0  0  3  0  0  0  0  0  0
  -22.1460   -7.3910   21.2720 O   0  0  0  0  0  0  0  0  0  0  0  0
  -21.9180   -6.7690   22.4730 C   0  0  0  0  0  0  0  0  0  0  0  0
  -21.2930   -7.4350   23.5510 C   0  0  0  0  0  3  0  0  0  0  0  0
  -21.0150   -6.7370   24.7430 C   0  0  0  0  0  3  0  0  0  0  0  0
  -21.3500   -5.3750   24.8570 C   0  0  0  0  0  0  0  0  0  0  0  0
  -21.9660   -4.7090   23.7830 C   0  0  0  0  0  3  0  0  0  0  0  0
  -22.2460   -5.4040   22.5940 C   0  0  0  0  0  0  0  0  0  0  0  0
  -22.8210   -4.7530   21.5540 F   0  0  0  0  0  0  0  0  0  0  0  0
  -21.0750   -4.7020   25.9980 F   0  0  0  0  0  0  0  0  0  0  0  0
  -23.5150  -13.9970   21.1870 C   0  0  0  0  0  0  0  0  0  0  0  0
  -22.8420  -13.2930   22.0920 N   0  0  0  0  0  0  0  0  0  0  0  0
  -23.0790  -15.0650   20.7610 O   0  0  0  0  0  0  0  0  0  0  0  0
  -23.2090  -12.4260   22.4590 H   0  0  0  0  0  0  0  0  0  0  0  0
  -21.9470  -13.6240   22.4210 H   0  0  0  0  0  0  0  0  0  0  0  0
  -26.1340  -15.5790   20.1910 N   0  0  0  0  0  0  0  0  0  0  0  0
  -25.4150  -16.2570   20.4180 H   0  0  0  0  0  0  0  0  0  0  0  0
  -26.9760  -16.0050   19.8310 H   0  0  0  0  0  0  0  0  0  0  0  0
  -30.3670  -24.7230   20.7760 C   0  0  0  0  0  2  0  0  0  0  0  0
  -29.8240  -25.7700   19.7590 C   0  0  0  0  0  3  0  0  0  0  0  0
  -30.7880  -26.8060   19.6280 O   0  0  0  0  0  0  0  0  0  0  0  0
  -31.5440  -26.4570   19.1650 H   0  0  0  0  0  0  0  0  0  0  0  0
  -28.4960  -26.4350   20.1910 C   0  0  0  0  0  2  0  0  0  0  0  0
  -27.9560  -27.1490   19.0800 O   0  0  0  0  0  0  0  0  0  0  0  0
  -24.5530  -31.8930   23.1770 C   0  0  0  0  0  0  0  0  0  0  0  0
  -26.8150  -27.8590   19.3490 C   0  0  0  0  0  0  0  0  0  0  0  0
  -23.1650  -30.6970   21.5130 C   0  0  0  0  0  3  0  0  0  0  0  0
  -24.4470  -29.3320   19.7820 C   0  0  0  0  0  0  0  0  0  0  0  0
  -25.6580  -31.0780   21.0990 C   0  0  0  0  0  2  0  0  0  0  0  0
  -25.6620  -29.7880   20.3080 C   0  0  0  0  0  0  0  0  0  0  0  0
  -26.8500  -29.0560   20.0970 C   0  0  0  0  0  3  0  0  0  0  0  0
  -25.5890  -27.4110   18.8170 C   0  0  0  0  0  3  0  0  0  0  0  0
  -24.4020  -28.1390   19.0370 C   0  0  0  0  0  3  0  0  0  0  0  0
  -23.2240  -30.1810   20.0500 C   0  0  0  0  0  2  0  0  0  0  0  0
  -24.4840  -31.2310   21.9870 N   0  0  0  0  0  0  0  0  0  0  0  0
  -23.5370  -32.1010   23.8550 O   0  0  0  0  0  0  0  0  0  0  0  0
  -22.6020  -29.5730   22.4100 C   0  0  0  0  0  0  0  0  0  0  0  0
  -21.2760  -29.3660   22.3490 N   0  0  0  0  0  0  0  0  0  0  0  0
  -23.3520  -28.8920   23.1150 O   0  0  0  0  0  0  0  0  0  0  0  0
  -20.7290  -29.9750   21.7550 H   0  0  0  0  0  0  0  0  0  0  0  0
  -17.9900  -27.9370   22.8110 C   0  0  0  0  0  0  0  0  0  0  0  0
  -20.5310  -28.3360   23.0730 C   0  0  0  0  0  3  0  0  0  0  0  0
  -20.7140  -26.9490   22.4170 C   0  0  0  0  0  2  0  0  0  0  0  0
  -19.6210  -26.6170   21.3970 C   0  0  0  0  0  2  0  0  0  0  0  0
  -18.2390  -26.6410   22.0590 C   0  0  0  0  0  2  0  0  0  0  0  0
  -19.0660  -28.7410   23.2740 C   0  0  0  0  0  0  0  0  0  0  0  0
  -18.7760  -29.9550   23.9340 C   0  0  0  0  0  3  0  0  0  0  0  0
  -17.4450  -30.3640   24.1390 C   0  0  0  0  0  3  0  0  0  0  0  0
  -16.3850  -29.5560   23.6930 C   0  0  0  0  0  3  0  0  0  0  0  0
  -16.6580  -28.3450   23.0340 C   0  0  0  0  0  3  0  0  0  0  0  0
  -25.9060  -32.4420   23.7310 C   0  0  0  0  0  3  0  0  0  0  0  0
  -25.6710  -33.8170   24.1900 N   0  0  0  0  0  0  0  0  0  0  0  0
  -26.0050  -34.9140   23.4980 C   0  0  0  0  0  0  0  0  0  0  0  0
  -26.6160  -34.8720   22.4270 O   0  0  0  0  0  0  0  0  0  0  0  0
  -25.1260  -33.9270   25.0320 H   0  0  0  0  0  0  0  0  0  0  0  0
  -24.3360  -36.7890   23.3770 C   0  0  0  0  0  1  0  0  0  0  0  0
  -25.5970  -36.2770   24.0910 C   0  0  0  0  0  3  0  0  0  0  0  0
  -27.8000  -37.0150   24.8850 C   0  0  0  0  0  1  0  0  0  0  0  0
  -26.6650  -37.2970   24.0100 N   0  0  0  0  0  0  0  0  0  0  0  0
  -26.3040  -38.2180   24.2440 H   0  0  0  0  0  0  0  0  0  0  0  0
  -26.5060  -31.5590   24.8920 C   0  0  1  0  0  0  0  0  0  0  0  0
  -25.5050  -31.2720   26.0360 C   0  0  0  0  0  1  0  0  0  0  0  0
  -26.9990  -30.2000   24.3390 C   0  0  0  0  0  1  0  0  0  0  0  0
  -27.7400  -32.2630   25.5010 C   0  0  0  0  0  1  0  0  0  0  0  0
  1  7  1  0
  1 10  2  0
  2  4  1  0
  2  7  1  0
  3  5  1  0
  4  9  1  0
  5  6  1  0
  7  3  1  0
  8 15  1  0
  8  1  1  0
  9 57  1  0
  9  5  1  0
  9 11  1  6
 12 14  1  0
 13 12  1  0
 13 14  1  0
 14  8  1  0
 15 18  1  0
 18 17  1  1
 18 16  1  0
 19 25  1  0
 19 27  1  0
 20 25  1  0
 21 22  1  0
 21 20  1  0
 23 22  1  0
 23 32  1  0
 23 24  1  0
 25 24  1  0
 26 19  2  0
 27 18  1  0
 27 28  1  0
 29 30  2  0
 30 49  1  0
 31 30  1  0
 31 34  1  0
 32 33  1  0
 32 29  1  0
 33 31  2  0
 34 35  1  0
 35 36  2  0
 37 40  1  0
 37 36  1  0
 38 37  2  0
 39 38  1  0
 39 34  2  0
 40 41  1  0
 41 46  2  0
 41 42  1  0
 42 43  2  0
 43 44  1  0
 44 48  1  0
 45 44  2  0
 46 45  1  0
 47 46  1  0
 49 50  1  0
 50 53  1  0
 50 52  1  0
 51 49  2  0
 54 29  1  0
 54 55  1  0
 56 54  1  0
 58 61  1  0
 58 57  1  0
 59 58  1  0
 60 59  1  0
 62 64  1  0
 62 61  1  0
 63 74  2  0
 64 69  1  0
 65 73  1  0
 65 75  1  0
 66 72  1  0
 66 68  1  0
 67 73  1  0
 68 67  1  0
 69 68  2  0
 70 71  1  0
 70 64  2  0
 71 66  2  0
 72 65  1  0
 73 63  1  0
 75 77  2  0
 76 75  1  0
 78 76  1  0
 79 88  2  0
 79 84  1  0
 80 76  1  0
 80 84  1  0
 81 80  1  0
 82 83  1  0
 82 81  1  0
 83 79  1  0
 84 85  2  0
 85 86  1  0
 87 86  2  0
 88 87  1  0
 89 63  1  0
 89 90  1  0
 89 99  1  0
 90 93  1  0
 91 95  1  0
 91 90  1  0
 92 91  2  0
 95 94  1  0
 97 95  1  0
 97 98  1  0
 97 96  1  0
 99102  1  1
 99100  1  0
101 99  1  0
M  ISO  4  19 100  27 100  61 101  62 101
M  END
>  <TORSDO>  (53) 
F 23

>  <SCORE>  (53) 
-9.864

>  <name>  (53) 
52

>  <ligand_id>  (53) 
52

>  <original_smiles>  (53) 
[H]OC([H])(C([H])([H])Oc1c([H])c([H])c2c(c1[H])C([H])([H])N(C(=O)C([H])(N([H])C(=O)C([H])(N([H])C([H])([H])[H])C([H])([H])[H])C(C([H])([H])[H])(C([H])([H])[H])C([H])([H])[H])C([H])(C(=O)N([H])C1([H])c3c([H])c([H])c([H])c([H])c3C([H])([H])C([H])([H])C1([H])[H])C2([H])[H])C([H])([H])[N+]1([H])C([H])([H])C([H])([H])N(C(=O)N(C([H])([H])C(N([H])C(=O)N2C([H])([H])C([H])([H])C([H])([H])C([H])(n3nc(-c4c([H])c([H])c(Oc5c([H])c([H])c(F)c([H])c5F)c([H])c4[H])c(C(=O)N([H])[H])c3N([H])[H])C2([H])[H])(C([H])([H])[H])C([H])([H])[H])C2([H])C([H])([H])C2([H])[H])C([H])([H])C1([H])C([H])([H])[H]

>  <smiles>  (53) 
[H]OC([H])(C([H])([H])Oc1c([H])c([H])c2c(c1[H])C([H])([H])N(C(=O)C([H])(N([H])C(=O)C([H])(N([H])C([H])([H])[H])C([H])([H])[H])C(C([H])([H])[H])(C([H])([H])[H])C([H])([H])[H])C([H])(C(=O)N([H])C1([H])c3c([H])c([H])c([H])c([H])c3C([H])([H])C([H])([H])C1([H])[H])C2([H])[H])C([H])([H])[N+]1([H])C([H])([H])C([H])([H])N(C(=O)N(C([H])([H])C(N([H])C(=O)N2C([H])([H])C([H])([H])C([H])([H])C([H])(n3nc(-c4c([H])c([H])c(Oc5c([H])c([H])c(F)c([H])c5F)c([H])c4[H])c(C(=O)N([H])[H])c3N([H])[H])C2([H])[H])(C([H])([H])[H])C([H])([H])[H])C2([H])C([H])([H])C2([H])[H])C([H])([H])C1([H])C([H])([H])[H]

$$$$
53:0:0
     RDKit          3D

 92100  0  0  1  0  0  0  0  0999 V2000
  -28.9910  -23.3410   20.4100 C   0  0  0  0  0  0  0  0  0  0  0  0
  -28.7490  -21.9140   20.2270 N   0  0  0  0  0  0  0  0  0  0  0  0
  -30.0980  -23.6960   20.8300 O   0  0  0  0  0  0  0  0  0  0  0  0
  -27.8260  -21.7670   19.8410 H   0  0  0  0  0  0  0  0  0  0  0  0
  -31.6530  -19.5610   21.3290 C   0  0  0  0  0  3  0  0  0  0  0  0
  -30.8380  -20.6820   21.0470 C   0  0  0  0  0  3  0  0  0  0  0  0
  -31.2680  -18.2250   21.0700 C   0  0  0  0  0  3  0  0  0  0  0  0
  -29.1780  -19.1250   20.2320 C   0  0  0  0  0  3  0  0  0  0  0  0
  -29.5480  -20.5770   20.4750 C   0  0  0  0  0  0  0  0  0  0  0  0
  -30.0150  -17.8900   20.5130 C   0  0  0  0  0  0  0  0  0  0  0  0
  -30.4810  -15.1320   20.3140 C   0  0  0  0  0  0  0  0  0  0  0  0
  -30.3980  -12.7470   19.3870 C   0  0  0  0  0  2  0  0  0  0  0  0
  -29.4620  -12.6310   18.1610 C   0  0  0  0  0  2  0  0  0  0  0  0
  -28.0070  -12.3890   18.6060 C   0  0  0  0  0  2  0  0  0  0  0  0
  -27.5830  -13.3240   19.7670 C   0  0  0  0  0  3  0  0  0  0  0  0
  -28.6440  -13.4010   20.8830 C   0  0  0  0  0  2  0  0  0  0  0  0
  -29.8890  -13.8600   20.2480 N   0  0  0  0  0  0  0  0  0  0  0  0
  -31.7000  -15.1530   20.1010 O   0  0  0  0  0  0  0  0  0  0  0  0
  -29.7060  -16.3580   20.3600 N   0  0  0  0  0  0  0  0  0  0  0  0
  -28.7190  -16.1590   20.2970 H   0  0  0  0  0  0  0  0  0  0  0  0
  -25.2030  -13.8710   20.5230 C   0  0  0  0  0  0  0  0  0  0  0  0
  -24.1470  -13.0860   20.8940 C   0  0  0  0  0  0  0  0  0  0  0  0
  -24.6260  -11.7400   20.8610 C   0  0  0  0  0  0  0  0  0  0  0  0
  -26.2540  -13.0050   20.2760 N   0  0  0  0  0  0  0  0  0  0  0  0
  -25.9180  -11.7180   20.5470 N   0  0  0  0  0  0  0  0  0  0  0  0
  -23.9100  -10.4710   21.0470 C   0  0  0  0  0  0  0  0  0  0  0  0
  -24.3520   -9.5040   21.9770 C   0  0  0  0  0  3  0  0  0  0  0  0
  -23.6360   -8.3020   22.1540 C   0  0  0  0  0  3  0  0  0  0  0  0
  -22.4620   -8.0560   21.4010 C   0  0  0  0  0  0  0  0  0  0  0  0
  -22.0400   -9.0120   20.4590 C   0  0  0  0  0  3  0  0  0  0  0  0
  -22.7580  -10.2060   20.2800 C   0  0  0  0  0  3  0  0  0  0  0  0
  -21.7150   -6.9060   21.4880 O   0  0  0  0  0  0  0  0  0  0  0  0
  -21.6770   -6.1590   22.6380 C   0  0  0  0  0  0  0  0  0  0  0  0
  -21.2340   -6.7000   23.8650 C   0  0  0  0  0  3  0  0  0  0  0  0
  -21.1450   -5.8780   25.0060 C   0  0  0  0  0  3  0  0  0  0  0  0
  -21.4870   -4.5150   24.9210 C   0  0  0  0  0  0  0  0  0  0  0  0
  -21.9220   -3.9730   23.6990 C   0  0  0  0  0  3  0  0  0  0  0  0
  -22.0140   -4.7920   22.5600 C   0  0  0  0  0  0  0  0  0  0  0  0
  -22.4130   -4.2600   21.3800 F   0  0  0  0  0  0  0  0  0  0  0  0
  -21.3940   -3.7230   26.0140 F   0  0  0  0  0  0  0  0  0  0  0  0
  -22.7460  -13.5500   21.1640 C   0  0  0  0  0  0  0  0  0  0  0  0
  -22.0260  -12.8520   22.0340 N   0  0  0  0  0  0  0  0  0  0  0  0
  -22.3000  -14.5700   20.6380 O   0  0  0  0  0  0  0  0  0  0  0  0
  -22.4020  -12.0310   22.4840 H   0  0  0  0  0  0  0  0  0  0  0  0
  -21.0850  -13.1450   22.2570 H   0  0  0  0  0  0  0  0  0  0  0  0
  -25.3500  -15.2450   20.3460 N   0  0  0  0  0  0  0  0  0  0  0  0
  -24.5720  -15.8860   20.4570 H   0  0  0  0  0  0  0  0  0  0  0  0
  -26.1840  -15.6960   19.9910 H   0  0  0  0  0  0  0  0  0  0  0  0
  -27.8980  -24.6060   20.0950 C   0  0  2  0  0  0  0  0  0  0  0  0
  -26.8140  -24.2990   20.8500 F   0  0  0  0  0  0  0  0  0  0  0  0
  -27.5400  -24.4150   18.8000 F   0  0  0  0  0  0  0  0  0  0  0  0
  -28.1940  -26.0470   20.2860 O   0  0  0  0  0  0  0  0  0  0  0  0
  -24.6410  -31.8950   23.2750 C   0  0  0  0  0  0  0  0  0  0  0  0
  -27.1770  -27.1060   20.2200 C   0  0  0  0  0  0  0  0  0  0  0  0
  -23.4340  -30.5150   21.6340 C   0  0  0  0  0  3  0  0  0  0  0  0
  -24.8700  -28.9350   20.1980 C   0  0  0  0  0  0  0  0  0  0  0  0
  -25.9980  -30.7410   21.4750 C   0  0  0  0  0  2  0  0  0  0  0  0
  -26.0620  -29.3470   20.8120 C   0  0  0  0  0  0  0  0  0  0  0  0
  -27.2120  -28.4520   20.8030 C   0  0  0  0  0  3  0  0  0  0  0  0
  -25.9550  -26.8300   19.5610 C   0  0  0  0  0  3  0  0  0  0  0  0
  -24.8370  -27.6900   19.5560 C   0  0  0  0  0  3  0  0  0  0  0  0
  -23.6540  -29.8480   20.2520 C   0  0  0  0  0  2  0  0  0  0  0  0
  -24.7130  -31.0720   22.1820 N   0  0  0  0  0  0  0  0  0  0  0  0
  -23.5540  -32.1850   23.8020 O   0  0  0  0  0  0  0  0  0  0  0  0
  -22.7450  -29.5080   22.5910 C   0  0  0  0  0  0  0  0  0  0  0  0
  -21.4150  -29.3430   22.4620 N   0  0  0  0  0  0  0  0  0  0  0  0
  -23.4100  -28.8770   23.4180 O   0  0  0  0  0  0  0  0  0  0  0  0
  -20.9330  -29.9030   21.7730 H   0  0  0  0  0  0  0  0  0  0  0  0
  -18.0290  -28.1460   22.9530 C   0  0  0  0  0  0  0  0  0  0  0  0
  -20.5880  -28.4070   23.2300 C   0  0  0  0  0  3  0  0  0  0  0  0
  -20.6890  -26.9750   22.6580 C   0  0  0  0  0  2  0  0  0  0  0  0
  -19.5910  -26.6510   21.6400 C   0  0  0  0  0  2  0  0  0  0  0  0
  -18.2070  -26.7970   22.2770 C   0  0  0  0  0  2  0  0  0  0  0  0
  -19.1460  -28.9090   23.3870 C   0  0  0  0  0  0  0  0  0  0  0  0
  -18.9210  -30.1690   23.9810 C   0  0  0  0  0  3  0  0  0  0  0  0
  -17.6150  -30.6670   24.1460 C   0  0  0  0  0  3  0  0  0  0  0  0
  -16.5130  -29.9010   23.7280 C   0  0  0  0  0  3  0  0  0  0  0  0
  -16.7210  -28.6430   23.1370 C   0  0  0  0  0  3  0  0  0  0  0  0
  -25.9180  -32.5260   23.9070 C   0  0  0  0  0  3  0  0  0  0  0  0
  -25.6130  -33.9280   24.2360 N   0  0  0  0  0  0  0  0  0  0  0  0
  -25.9310  -34.9800   23.4700 C   0  0  0  0  0  0  0  0  0  0  0  0
  -26.5780  -34.8720   22.4250 O   0  0  0  0  0  0  0  0  0  0  0  0
  -25.0360  -34.0860   25.0480 H   0  0  0  0  0  0  0  0  0  0  0  0
  -24.1910  -36.7730   23.1710 C   0  0  0  0  0  1  0  0  0  0  0  0
  -25.4620  -36.3710   23.9370 C   0  0  0  0  0  3  0  0  0  0  0  0
  -27.6220  -37.2690   24.6830 C   0  0  0  0  0  1  0  0  0  0  0  0
  -26.4890  -37.4240   23.7760 N   0  0  0  0  0  0  0  0  0  0  0  0
  -26.0860  -38.3460   23.9260 H   0  0  0  0  0  0  0  0  0  0  0  0
  -26.4140  -31.7580   25.1960 C   0  0  1  0  0  0  0  0  0  0  0  0
  -25.3080  -31.5410   26.2560 C   0  0  0  0  0  1  0  0  0  0  0  0
  -26.9860  -30.3700   24.8260 C   0  0  0  0  0  1  0  0  0  0  0  0
  -27.5670  -32.5460   25.8630 C   0  0  0  0  0  1  0  0  0  0  0  0
  1  3  2  0
  2  1  1  0
  2  9  1  0
  4  2  1  0
  6  5  2  0
  7  5  1  0
  8  9  2  0
  8 10  1  0
  9  6  1  0
 10  7  2  0
 11 19  1  0
 12 17  1  0
 13 14  1  0
 13 12  1  0
 15 14  1  0
 15 24  1  0
 15 16  1  0
 17 11  1  0
 17 16  1  0
 18 11  2  0
 19 10  1  0
 20 19  1  0
 21 22  2  0
 22 41  1  0
 23 22  1  0
 23 26  1  0
 24 21  1  0
 24 25  1  0
 25 23  2  0
 26 27  1  0
 27 28  2  0
 29 32  1  0
 29 28  1  0
 30 29  2  0
 31 30  1  0
 31 26  2  0
 32 33  1  0
 33 34  1  0
 34 35  2  0
 36 35  1  0
 36 40  1  0
 37 36  2  0
 38 33  2  0
 38 37  1  0
 39 38  1  0
 41 42  1  0
 42 45  1  0
 42 44  1  0
 43 41  2  0
 46 47  1  0
 46 21  1  0
 48 46  1  0
 49 52  1  0
 49  1  1  0
 49 50  1  1
 51 49  1  0
 53 64  2  0
 54 52  1  0
 54 59  1  0
 55 63  1  0
 55 65  1  0
 56 62  1  0
 56 58  1  0
 57 63  1  0
 58 57  1  0
 59 58  2  0
 60 54  2  0
 61 60  1  0
 61 56  2  0
 62 55  1  0
 63 53  1  0
 65 67  2  0
 66 65  1  0
 68 66  1  0
 69 78  2  0
 69 74  1  0
 70 66  1  0
 70 74  1  0
 71 70  1  0
 72 73  1  0
 72 71  1  0
 73 69  1  0
 74 75  2  0
 75 76  1  0
 77 76  2  0
 78 77  1  0
 79 53  1  0
 79 80  1  0
 79 89  1  0
 80 83  1  0
 81 85  1  0
 81 80  1  0
 82 81  2  0
 85 84  1  0
 87 88  1  0
 87 85  1  0
 87 86  1  0
 89 92  1  1
 89 90  1  0
 91 89  1  0
M  ISO  4  11 100  19 100  49 101  52 101
M  END
>  <TORSDO>  (54) 
F 18

>  <SCORE>  (54) 
-15.293

>  <name>  (54) 
53

>  <ligand_id>  (54) 
53

>  <original_smiles>  (54) 
[H]c1c([H])c(N([H])C(=O)N2C([H])([H])C([H])([H])C([H])([H])C([H])(n3nc(-c4c([H])c([H])c(Oc5c([H])c([H])c(F)c([H])c5F)c([H])c4[H])c(C(=O)N([H])[H])c3N([H])[H])C2([H])[H])c([H])c(N([H])C(=O)C(F)(F)Oc2c([H])c([H])c3c(c2[H])C([H])([H])N(C(=O)C([H])(N([H])C(=O)C([H])(N([H])C([H])([H])[H])C([H])([H])[H])C(C([H])([H])[H])(C([H])([H])[H])C([H])([H])[H])C([H])(C(=O)N([H])C2([H])c4c([H])c([H])c([H])c([H])c4C([H])([H])C([H])([H])C2([H])[H])C3([H])[H])c1[H]

>  <smiles>  (54) 
[H]c1c([H])c(N([H])C(=O)N2C([H])([H])C([H])([H])C([H])([H])C([H])(n3nc(-c4c([H])c([H])c(Oc5c([H])c([H])c(F)c([H])c5F)c([H])c4[H])c(C(=O)N([H])[H])c3N([H])[H])C2([H])[H])c([H])c(N([H])C(=O)C(F)(F)Oc2c([H])c([H])c3c(c2[H])C([H])([H])N(C(=O)C([H])(N([H])C(=O)C([H])(N([H])C([H])([H])[H])C([H])([H])[H])C(C([H])([H])[H])(C([H])([H])[H])C([H])([H])[H])C([H])(C(=O)N([H])C2([H])c4c([H])c([H])c([H])c([H])c4C([H])([H])C([H])([H])C2([H])[H])C3([H])[H])c1[H]

$$$$
54:0:0
     RDKit          3D

100109  0  0  1  0  0  0  0  0999 V2000
  -30.8220  -23.6490   22.0260 C   0  0  0  0  0  0  0  0  0  0  0  0
  -29.1990  -21.2100   22.0550 C   0  0  0  0  0  2  0  0  0  0  0  0
  -29.4600  -23.5790   21.2940 C   0  0  0  0  0  3  0  0  0  0  0  0
  -30.7620  -21.1860   22.0180 C   0  0  0  0  0  3  0  0  0  0  0  0
  -32.5700  -22.4660   23.2830 C   0  0  0  0  0  1  0  0  0  0  0  0
  -31.3390  -22.4780   22.4760 N   0  0  0  0  0  0  0  0  0  0  0  0
  -28.5990  -22.5650   21.9500 N   0  0  0  0  0  4  0  0  0  0  0  0
  -31.3760  -24.7370   22.2140 O   0  0  0  0  0  0  0  0  0  0  0  0
  -28.4180  -22.8810   22.8890 H   0  0  0  0  0  0  0  0  0  0  0  0
  -27.7110  -22.4870   21.4810 H   0  0  0  0  0  0  0  0  0  0  0  0
  -28.1930  -25.5730   22.4300 C   0  0  0  0  0  1  0  0  0  0  0  0
  -28.7600  -24.9680   21.1240 C   0  0  0  0  0  3  0  0  0  0  0  0
  -27.7060  -25.0080   19.9950 C   0  0  0  0  0  2  0  0  0  0  0  0
  -27.7100  -26.3320   19.4700 O   0  0  0  0  0  0  0  0  0  0  0  0
  -24.4690  -31.4920   23.1100 C   0  0  0  0  0  0  0  0  0  0  0  0
  -26.5710  -27.0770   19.6370 C   0  0  0  0  0  0  0  0  0  0  0  0
  -23.0510  -30.2670   21.4930 C   0  0  0  0  0  3  0  0  0  0  0  0
  -24.2860  -28.7050   19.9010 C   0  0  0  0  0  0  0  0  0  0  0  0
  -25.5720  -30.4700   21.1260 C   0  0  0  0  0  2  0  0  0  0  0  0
  -25.5140  -29.1320   20.4210 C   0  0  0  0  0  0  0  0  0  0  0  0
  -26.6610  -28.3260   20.2810 C   0  0  0  0  0  3  0  0  0  0  0  0
  -25.3320  -26.6460   19.1230 C   0  0  0  0  0  3  0  0  0  0  0  0
  -24.1860  -27.4590   19.2510 C   0  0  0  0  0  3  0  0  0  0  0  0
  -23.1110  -29.6400   20.0740 C   0  0  0  0  0  2  0  0  0  0  0  0
  -24.3880  -30.7540   21.9680 N   0  0  0  0  0  0  0  0  0  0  0  0
  -23.4520  -31.8070   23.7430 O   0  0  0  0  0  0  0  0  0  0  0  0
  -22.3980  -29.2450   22.4500 C   0  0  0  0  0  0  0  0  0  0  0  0
  -21.0700  -29.0840   22.3350 N   0  0  0  0  0  0  0  0  0  0  0  0
  -23.0800  -28.5990   23.2490 O   0  0  0  0  0  0  0  0  0  0  0  0
  -20.5830  -29.6590   21.6610 H   0  0  0  0  0  0  0  0  0  0  0  0
  -17.6990  -27.8550   22.7560 C   0  0  0  0  0  0  0  0  0  0  0  0
  -20.2440  -28.1500   23.0980 C   0  0  0  0  0  3  0  0  0  0  0  0
  -20.3820  -26.7100   22.5520 C   0  0  0  0  0  2  0  0  0  0  0  0
  -19.3140  -26.3540   21.5130 C   0  0  0  0  0  2  0  0  0  0  0  0
  -17.9110  -26.4940   22.1150 C   0  0  0  0  0  2  0  0  0  0  0  0
  -18.7950  -28.6390   23.2020 C   0  0  0  0  0  0  0  0  0  0  0  0
  -18.5450  -29.9120   23.7610 C   0  0  0  0  0  3  0  0  0  0  0  0
  -17.2310  -30.4000   23.8770 C   0  0  0  0  0  3  0  0  0  0  0  0
  -16.1480  -29.6130   23.4490 C   0  0  0  0  0  3  0  0  0  0  0  0
  -16.3820  -28.3430   22.8940 C   0  0  0  0  0  3  0  0  0  0  0  0
  -25.8400  -31.9960   23.6630 C   0  0  0  0  0  3  0  0  0  0  0  0
  -26.3910  -31.1150   24.8510 C   0  0  1  0  0  0  0  0  0  0  0  0
  -25.3570  -30.8710   25.9750 C   0  0  0  0  0  1  0  0  0  0  0  0
  -26.8620  -29.7360   24.3350 C   0  0  0  0  0  1  0  0  0  0  0  0
  -27.6270  -31.7990   25.4810 C   0  0  0  0  0  1  0  0  0  0  0  0
  -25.6590  -33.3890   24.0880 N   0  0  0  0  0  0  0  0  0  0  0  0
  -26.0490  -34.4560   23.3770 C   0  0  0  0  0  0  0  0  0  0  0  0
  -26.6670  -34.3620   22.3130 O   0  0  0  0  0  0  0  0  0  0  0  0
  -25.1060  -33.5410   24.9190 H   0  0  0  0  0  0  0  0  0  0  0  0
  -24.4710  -36.4050   23.1860 C   0  0  0  0  0  1  0  0  0  0  0  0
  -25.6930  -35.8480   23.9330 C   0  0  0  0  0  3  0  0  0  0  0  0
  -27.9110  -36.5020   24.7600 C   0  0  0  0  0  1  0  0  0  0  0  0
  -26.8090  -36.8160   23.8540 N   0  0  0  0  0  0  0  0  0  0  0  0
  -26.4860  -37.7570   24.0610 H   0  0  0  0  0  0  0  0  0  0  0  0
  -31.3600  -19.9190   22.7170 C   0  0  0  0  0  2  0  0  0  0  0  0
  -30.6770  -17.2420   20.0850 C   0  0  0  0  0  2  0  0  0  0  0  0
  -30.3200  -16.2450   22.4560 C   0  0  0  0  0  2  0  0  0  0  0  0
  -31.4420  -18.3840   20.7660 C   0  0  0  0  0  2  0  0  0  0  0  0
  -31.1190  -17.4480   22.9880 C   0  0  0  0  0  2  0  0  0  0  0  0
  -30.5940  -15.9530   20.9530 C   0  0  0  0  0  3  0  0  0  0  0  0
  -30.8950  -18.6360   22.1230 N   0  0  1  0  0  4  0  0  0  0  0  0
  -29.8950  -18.7040   22.0300 H   0  0  0  0  0  0  0  0  0  0  0  0
  -30.0760  -14.0130   19.5360 C   0  0  0  0  0  0  0  0  0  0  0  0
  -29.6630  -11.8690   18.3860 C   0  0  0  0  0  2  0  0  0  0  0  0
  -28.5410  -12.0220   17.3400 C   0  0  0  0  0  2  0  0  0  0  0  0
  -27.1580  -11.7980   17.9870 C   0  0  0  0  0  2  0  0  0  0  0  0
  -26.9730  -12.6180   19.2880 C   0  0  0  0  0  3  0  0  0  0  0  0
  -28.1970  -12.4390   20.2230 C   0  0  0  0  0  2  0  0  0  0  0  0
  -29.4000  -12.8280   19.4740 N   0  0  0  0  0  0  0  0  0  0  0  0
  -31.0900  -14.2080   18.8600 O   0  0  0  0  0  0  0  0  0  0  0  0
  -28.2740  -15.5420   20.2050 C   0  0  0  0  0  1  0  0  0  0  0  0
  -29.6270  -14.9800   20.3880 N   0  0  0  0  0  0  0  0  0  0  0  0
  -24.6910  -13.1410   20.3600 C   0  0  0  0  0  0  0  0  0  0  0  0
  -23.7180  -12.3240   20.8710 C   0  0  0  0  0  0  0  0  0  0  0  0
  -24.2180  -10.9920   20.7440 C   0  0  0  0  0  0  0  0  0  0  0  0
  -25.7200  -12.2990   19.9610 N   0  0  0  0  0  0  0  0  0  0  0  0
  -25.4460  -11.0030   20.2470 N   0  0  0  0  0  0  0  0  0  0  0  0
  -23.5750   -9.7000   21.0130 C   0  0  0  0  0  0  0  0  0  0  0  0
  -24.0880   -8.8100   21.9830 C   0  0  0  0  0  3  0  0  0  0  0  0
  -23.4430   -7.5810   22.2350 C   0  0  0  0  0  3  0  0  0  0  0  0
  -22.2740   -7.2330   21.5190 C   0  0  0  0  0  0  0  0  0  0  0  0
  -21.7830   -8.1120   20.5380 C   0  0  0  0  0  3  0  0  0  0  0  0
  -22.4280   -9.3330   20.2840 C   0  0  0  0  0  3  0  0  0  0  0  0
  -21.5950   -6.0490   21.6800 O   0  0  0  0  0  0  0  0  0  0  0  0
  -21.5310   -5.4170   22.8950 C   0  0  0  0  0  0  0  0  0  0  0  0
  -20.9670   -6.0380   24.0300 C   0  0  0  0  0  3  0  0  0  0  0  0
  -20.8580   -5.3270   25.2410 C   0  0  0  0  0  3  0  0  0  0  0  0
  -21.3010   -3.9940   25.3180 C   0  0  0  0  0  0  0  0  0  0  0  0
  -21.8590   -3.3710   24.1870 C   0  0  0  0  0  3  0  0  0  0  0  0
  -21.9700   -4.0800   22.9790 C   0  0  0  0  0  0  0  0  0  0  0  0
  -22.4880   -3.4690   21.8860 F   0  0  0  0  0  0  0  0  0  0  0  0
  -21.1910   -3.3070   26.4790 F   0  0  0  0  0  0  0  0  0  0  0  0
  -22.3610  -12.7440   21.3580 C   0  0  0  0  0  0  0  0  0  0  0  0
  -21.8020  -12.0160   22.3200 N   0  0  0  0  0  0  0  0  0  0  0  0
  -21.8080  -13.7520   20.9200 O   0  0  0  0  0  0  0  0  0  0  0  0
  -22.2660  -11.2020   22.6940 H   0  0  0  0  0  0  0  0  0  0  0  0
  -20.8990  -12.2790   22.6860 H   0  0  0  0  0  0  0  0  0  0  0  0
  -24.7760  -14.5180   20.1840 N   0  0  0  0  0  0  0  0  0  0  0  0
  -24.0130  -15.1400   20.4240 H   0  0  0  0  0  0  0  0  0  0  0  0
  -25.5470  -14.9940   19.7330 H   0  0  0  0  0  0  0  0  0  0  0  0
  1  8  2  0
  1  6  1  0
  3 12  1  0
  3  7  1  0
  3  1  1  0
  4  2  1  0
  4  6  1  0
  4 55  1  0
  6  5  1  0
  7  2  1  0
  7  9  1  0
 10  7  1  0
 12 11  1  0
 13 12  1  0
 14 16  1  0
 14 13  1  0
 15 26  2  0
 16 21  1  0
 17 25  1  0
 17 27  1  0
 18 24  1  0
 18 20  1  0
 19 25  1  0
 20 19  1  0
 21 20  2  0
 22 23  1  0
 22 16  2  0
 23 18  2  0
 24 17  1  0
 25 15  1  0
 27 29  2  0
 28 27  1  0
 30 28  1  0
 31 40  2  0
 31 36  1  0
 32 28  1  0
 32 36  1  0
 33 32  1  0
 34 35  1  0
 34 33  1  0
 35 31  1  0
 36 37  2  0
 37 38  1  0
 39 38  2  0
 40 39  1  0
 41 15  1  0
 41 46  1  0
 41 42  1  0
 42 45  1  1
 42 43  1  0
 44 42  1  0
 46 49  1  0
 47 51  1  0
 47 46  1  0
 48 47  2  0
 51 50  1  0
 53 51  1  0
 53 54  1  0
 53 52  1  0
 56 58  1  0
 56 60  1  0
 57 59  1  0
 58 61  1  0
 60 72  1  0
 60 57  1  0
 61 55  1  0
 61 59  1  0
 61 62  1  6
 63 72  1  0
 64 69  1  0
 65 66  1  0
 65 64  1  0
 67 66  1  0
 67 76  1  0
 67 68  1  0
 69 63  1  0
 69 68  1  0
 70 63  2  0
 71 72  1  0
 73 74  2  0
 74 93  1  0
 75 74  1  0
 75 78  1  0
 76 77  1  0
 76 73  1  0
 77 75  2  0
 78 79  1  0
 79 80  2  0
 81 84  1  0
 81 80  1  0
 82 81  2  0
 83 82  1  0
 83 78  2  0
 84 85  1  0
 85 90  2  0
 85 86  1  0
 86 87  2  0
 87 88  1  0
 88 92  1  0
 89 88  2  0
 90 89  1  0
 91 90  1  0
 93 94  1  0
 94 97  1  0
 94 96  1  0
 95 93  2  0
 98 73  1  0
 98 99  1  0
100 98  1  0
M  ISO  4  13 101  14 101  63 100  72 100
M  END
>  <TORSDO>  (55) 
F 20

>  <SCORE>  (55) 
-6.181

>  <name>  (55) 
54

>  <ligand_id>  (55) 
54

>  <original_smiles>  (55) 
[H]c1c([H])c([H])c2c(c1[H])C([H])([H])C([H])([H])C([H])([H])C2([H])N([H])C(=O)C1([H])N(C(=O)C([H])(N([H])C(=O)C([H])(N([H])C([H])([H])[H])C([H])([H])[H])C(C([H])([H])[H])(C([H])([H])[H])C([H])([H])[H])C([H])([H])c2c([H])c(OC([H])([H])C([H])(C([H])([H])[H])C3([H])C(=O)N(C([H])([H])[H])C([H])(C([H])([H])[N+]4([H])C([H])([H])C([H])([H])C([H])(N(C(=O)N5C([H])([H])C([H])([H])C([H])([H])C([H])(n6nc(-c7c([H])c([H])c(Oc8c([H])c([H])c(F)c([H])c8F)c([H])c7[H])c(C(=O)N([H])[H])c6N([H])[H])C5([H])[H])C([H])([H])[H])C([H])([H])C4([H])[H])C([H])([H])[N+]3([H])[H])c([H])c([H])c2C1([H])[H]

>  <smiles>  (55) 
[H]c1c([H])c([H])c2c(c1[H])C([H])([H])C([H])([H])C([H])([H])C2([H])N([H])C(=O)C1([H])N(C(=O)C([H])(N([H])C(=O)C([H])(N([H])C([H])([H])[H])C([H])([H])[H])C(C([H])([H])[H])(C([H])([H])[H])C([H])([H])[H])C([H])([H])c2c([H])c(OC([H])([H])C([H])(C([H])([H])[H])C3([H])C(=O)N(C([H])([H])[H])C([H])(C([H])([H])[N+]4([H])C([H])([H])C([H])([H])C([H])(N(C(=O)N5C([H])([H])C([H])([H])C([H])([H])C([H])(n6nc(-c7c([H])c([H])c(Oc8c([H])c([H])c(F)c([H])c8F)c([H])c7[H])c(C(=O)N([H])[H])c6N([H])[H])C5([H])[H])C([H])([H])[H])C([H])([H])C4([H])[H])C([H])([H])[N+]3([H])[H])c([H])c([H])c2C1([H])[H]

$$$$
55:0:0
     RDKit          3D

 97105  0  0  1  0  0  0  0  0999 V2000
  -30.1810  -23.8040   20.8420 C   0  0  0  0  0  0  0  0  0  0  0  0
  -30.6260  -23.4250   21.9290 O   0  0  0  0  0  0  0  0  0  0  0  0
  -29.9900  -25.2620   20.4540 C   0  0  0  0  0  3  0  0  0  0  0  0
  -30.4930  -26.0910   21.5720 N   0  0  0  0  0  4  0  0  0  0  0  0
  -30.0550  -25.8250   22.4390 H   0  0  0  0  0  0  0  0  0  0  0  0
  -30.3020  -27.0610   21.3900 H   0  0  0  0  0  0  0  0  0  0  0  0
  -31.4830  -25.9650   21.6830 H   0  0  0  0  0  0  0  0  0  0  0  0
  -28.5090  -25.5450   20.1600 C   0  0  0  0  0  2  0  0  0  0  0  0
  -28.4420  -26.9470   20.0520 O   0  0  0  0  0  0  0  0  0  0  0  0
  -24.5300  -31.8770   23.2310 C   0  0  0  0  0  0  0  0  0  0  0  0
  -27.2110  -27.5340   20.1110 C   0  0  0  0  0  0  0  0  0  0  0  0
  -23.3210  -30.4690   21.5890 C   0  0  0  0  0  3  0  0  0  0  0  0
  -24.7810  -28.9410   20.1680 C   0  0  0  0  0  0  0  0  0  0  0  0
  -25.8360  -30.8670   21.3790 C   0  0  0  0  0  2  0  0  0  0  0  0
  -25.9310  -29.5030   20.7350 C   0  0  0  0  0  0  0  0  0  0  0  0
  -27.1490  -28.8050   20.7060 C   0  0  0  0  0  3  0  0  0  0  0  0
  -26.0490  -26.9530   19.5570 C   0  0  0  0  0  3  0  0  0  0  0  0
  -24.8280  -27.6590   19.5860 C   0  0  0  0  0  3  0  0  0  0  0  0
  -23.5250  -29.7850   20.2140 C   0  0  0  0  0  2  0  0  0  0  0  0
  -24.5800  -31.0810   22.1250 N   0  0  0  0  0  0  0  0  0  0  0  0
  -23.4510  -32.1460   23.7770 O   0  0  0  0  0  0  0  0  0  0  0  0
  -22.6860  -29.4420   22.5460 C   0  0  0  0  0  0  0  0  0  0  0  0
  -21.3650  -29.2460   22.4210 N   0  0  0  0  0  0  0  0  0  0  0  0
  -23.3800  -28.8120   23.3530 O   0  0  0  0  0  0  0  0  0  0  0  0
  -20.8650  -29.7930   21.7320 H   0  0  0  0  0  0  0  0  0  0  0  0
  -18.0060  -28.0480   22.9200 C   0  0  0  0  0  0  0  0  0  0  0  0
  -20.5600  -28.3060   23.1930 C   0  0  0  0  0  3  0  0  0  0  0  0
  -20.6700  -26.8790   22.6120 C   0  0  0  0  0  2  0  0  0  0  0  0
  -19.5690  -26.5600   21.5950 C   0  0  0  0  0  2  0  0  0  0  0  0
  -18.1870  -26.7010   22.2400 C   0  0  0  0  0  2  0  0  0  0  0  0
  -19.1230  -28.8100   23.3540 C   0  0  0  0  0  0  0  0  0  0  0  0
  -18.9040  -30.0750   23.9420 C   0  0  0  0  0  3  0  0  0  0  0  0
  -17.6000  -30.5760   24.1100 C   0  0  0  0  0  3  0  0  0  0  0  0
  -16.4970  -29.8070   23.6980 C   0  0  0  0  0  3  0  0  0  0  0  0
  -16.7000  -28.5490   23.1030 C   0  0  0  0  0  3  0  0  0  0  0  0
  -25.8210  -32.5040   23.8480 C   0  0  0  0  0  3  0  0  0  0  0  0
  -25.5180  -33.9030   24.1700 N   0  0  0  0  0  0  0  0  0  0  0  0
  -25.8620  -34.9470   23.4060 C   0  0  0  0  0  0  0  0  0  0  0  0
  -26.5380  -34.8390   22.3780 O   0  0  0  0  0  0  0  0  0  0  0  0
  -24.9240  -34.0670   24.9690 H   0  0  0  0  0  0  0  0  0  0  0  0
  -24.1440  -36.7400   23.0300 C   0  0  0  0  0  1  0  0  0  0  0  0
  -25.3730  -36.3360   23.8570 C   0  0  0  0  0  3  0  0  0  0  0  0
  -27.4950  -37.2190   24.7180 C   0  0  0  0  0  1  0  0  0  0  0  0
  -26.4110  -37.3860   23.7540 N   0  0  0  0  0  0  0  0  0  0  0  0
  -26.0040  -38.3060   23.9020 H   0  0  0  0  0  0  0  0  0  0  0  0
  -26.3420  -31.7380   25.1250 C   0  0  1  0  0  0  0  0  0  0  0  0
  -25.2480  -31.5060   26.1920 C   0  0  0  0  0  1  0  0  0  0  0  0
  -26.9250  -30.3620   24.7300 C   0  0  0  0  0  1  0  0  0  0  0  0
  -27.4940  -32.5340   25.7830 C   0  0  0  0  0  1  0  0  0  0  0  0
  -29.7740  -23.0050   19.8440 O   0  0  0  0  0  0  0  0  0  0  0  0
  -29.6790  -21.6160   20.0820 C   0  0  0  0  0  2  0  0  0  0  0  0
  -29.8220  -20.8260   18.7780 C   0  0  0  0  0  2  0  0  0  0  0  0
  -28.9390  -17.1290   18.5280 C   0  0  0  0  0  2  0  0  0  0  0  0
  -31.4170  -17.4820   19.2340 C   0  0  0  0  0  2  0  0  0  0  0  0
  -29.1870  -18.5470   18.0050 C   0  0  0  0  0  2  0  0  0  0  0  0
  -30.9620  -18.8450   19.7650 C   0  0  0  0  0  2  0  0  0  0  0  0
  -30.2540  -16.4750   19.0230 C   0  0  0  0  0  3  0  0  0  0  0  0
  -29.7420  -19.3830   19.0930 N   0  0  1  0  0  4  0  0  0  0  0  0
  -29.0220  -19.3190   19.7990 H   0  0  0  0  0  0  0  0  0  0  0  0
  -30.8330  -14.4220   20.1950 C   0  0  0  0  0  0  0  0  0  0  0  0
  -30.4340  -12.3190   18.9980 C   0  0  0  0  0  2  0  0  0  0  0  0
  -29.4530  -12.5930   17.8380 C   0  0  0  0  0  2  0  0  0  0  0  0
  -27.9910  -12.4920   18.3240 C   0  0  0  0  0  2  0  0  0  0  0  0
  -27.7250  -13.2950   19.6270 C   0  0  0  0  0  3  0  0  0  0  0  0
  -28.8160  -12.9890   20.6780 C   0  0  0  0  0  2  0  0  0  0  0  0
  -30.1180  -13.2790   20.0650 N   0  0  0  0  0  0  0  0  0  0  0  0
  -32.0070  -14.5000   19.8250 O   0  0  0  0  0  0  0  0  0  0  0  0
  -29.3660  -16.0600   21.3420 C   0  0  0  0  0  1  0  0  0  0  0  0
  -30.0720  -15.5480   20.1590 N   0  0  0  0  0  0  0  0  0  0  0  0
  -25.3680  -13.9510   20.4250 C   0  0  0  0  0  0  0  0  0  0  0  0
  -24.2940  -13.1970   20.8190 C   0  0  0  0  0  0  0  0  0  0  0  0
  -24.7240  -11.8370   20.7550 C   0  0  0  0  0  0  0  0  0  0  0  0
  -26.3830  -13.0480   20.1490 N   0  0  0  0  0  0  0  0  0  0  0  0
  -26.0010  -11.7720   20.4040 N   0  0  0  0  0  0  0  0  0  0  0  0
  -23.9810  -10.5870   20.9540 C   0  0  0  0  0  0  0  0  0  0  0  0
  -24.4320   -9.5990   21.8570 C   0  0  0  0  0  3  0  0  0  0  0  0
  -23.6950   -8.4120   22.0440 C   0  0  0  0  0  3  0  0  0  0  0  0
  -22.4920   -8.2040   21.3290 C   0  0  0  0  0  0  0  0  0  0  0  0
  -22.0580   -9.1810   20.4160 C   0  0  0  0  0  3  0  0  0  0  0  0
  -22.7950  -10.3610   20.2270 C   0  0  0  0  0  3  0  0  0  0  0  0
  -21.7230   -7.0710   21.4280 O   0  0  0  0  0  0  0  0  0  0  0  0
  -21.7010   -6.3090   22.5670 C   0  0  0  0  0  0  0  0  0  0  0  0
  -21.3380   -6.8520   23.8190 C   0  0  0  0  0  3  0  0  0  0  0  0
  -21.2630   -6.0170   24.9520 C   0  0  0  0  0  3  0  0  0  0  0  0
  -21.5420   -4.6410   24.8330 C   0  0  0  0  0  0  0  0  0  0  0  0
  -21.9020   -4.1000   23.5860 C   0  0  0  0  0  3  0  0  0  0  0  0
  -21.9770   -4.9330   22.4560 C   0  0  0  0  0  0  0  0  0  0  0  0
  -22.3030   -4.4030   21.2520 F   0  0  0  0  0  0  0  0  0  0  0  0
  -21.4650   -3.8370   25.9190 F   0  0  0  0  0  0  0  0  0  0  0  0
  -22.9180  -13.7020   21.1420 C   0  0  0  0  0  0  0  0  0  0  0  0
  -22.2050  -13.0100   22.0250 N   0  0  0  0  0  0  0  0  0  0  0  0
  -22.4870  -14.7420   20.6500 O   0  0  0  0  0  0  0  0  0  0  0  0
  -22.5720  -12.1740   22.4540 H   0  0  0  0  0  0  0  0  0  0  0  0
  -21.2780  -13.3230   22.2700 H   0  0  0  0  0  0  0  0  0  0  0  0
  -25.5690  -15.3160   20.2590 N   0  0  0  0  0  0  0  0  0  0  0  0
  -24.8320  -16.0050   20.3650 H   0  0  0  0  0  0  0  0  0  0  0  0
  -26.4320  -15.7050   19.9030 H   0  0  0  0  0  0  0  0  0  0  0  0
  1  2  2  0
  3  8  1  0
  3  1  1  0
  3  4  1  0
  4  7  1  0
  4  5  1  0
  6  4  1  0
  9 11  1  0
  9  8  1  0
 10 21  2  0
 11 16  1  0
 12 20  1  0
 12 22  1  0
 13 19  1  0
 13 15  1  0
 14 20  1  0
 15 14  1  0
 16 15  2  0
 17 18  1  0
 17 11  2  0
 18 13  2  0
 19 12  1  0
 20 10  1  0
 22 24  2  0
 23 22  1  0
 25 23  1  0
 26 35  2  0
 26 31  1  0
 27 23  1  0
 27 31  1  0
 28 27  1  0
 29 30  1  0
 29 28  1  0
 30 26  1  0
 31 32  2  0
 32 33  1  0
 34 33  2  0
 35 34  1  0
 36 10  1  0
 36 37  1  0
 36 46  1  0
 37 40  1  0
 38 42  1  0
 38 37  1  0
 39 38  2  0
 42 41  1  0
 44 42  1  0
 44 45  1  0
 44 43  1  0
 46 49  1  1
 46 47  1  0
 48 46  1  0
 50 51  1  0
 50  1  1  0
 52 58  1  0
 52 51  1  0
 53 57  1  0
 54 56  1  0
 55 53  1  0
 55 58  1  0
 57 54  1  0
 57 69  1  0
 58 56  1  0
 58 59  1  1
 61 66  1  0
 62 63  1  0
 62 61  1  0
 64 63  1  0
 64 73  1  0
 64 65  1  0
 66 60  1  0
 66 65  1  0
 67 60  2  0
 69 60  1  0
 69 68  1  0
 70 71  2  0
 71 90  1  0
 72 71  1  0
 72 75  1  0
 73 74  1  0
 73 70  1  0
 74 72  2  0
 75 76  1  0
 76 77  2  0
 78 81  1  0
 78 77  1  0
 79 78  2  0
 80 79  1  0
 80 75  2  0
 81 82  1  0
 82 83  1  0
 83 84  2  0
 85 84  1  0
 85 89  1  0
 86 85  2  0
 87 82  2  0
 87 86  1  0
 88 87  1  0
 90 91  1  0
 91 94  1  0
 91 93  1  0
 92 90  2  0
 95 96  1  0
 95 70  1  0
 97 95  1  0
M  ISO  4   8 101   9 101  60 100  69 100
M  END
>  <TORSDO>  (56) 
F 23

>  <SCORE>  (56) 
-12.860

>  <name>  (56) 
55

>  <ligand_id>  (56) 
55

>  <original_smiles>  (56) 
[H]c1c([H])c([H])c2c(c1[H])C([H])([H])C([H])([H])C([H])([H])C2([H])N([H])C(=O)C1([H])N(C(=O)C([H])(N([H])C(=O)C([H])(N([H])C([H])([H])[H])C([H])([H])[H])C(C([H])([H])[H])(C([H])([H])[H])C([H])([H])[H])C([H])([H])c2c([H])c(OC([H])([H])C([H])(C(=O)OC([H])([H])C([H])([H])[N+]3([H])C([H])([H])C([H])([H])C([H])(N(C(=O)N4C([H])([H])C([H])([H])C([H])([H])C([H])(n5nc(-c6c([H])c([H])c(Oc7c([H])c([H])c(F)c([H])c7F)c([H])c6[H])c(C(=O)N([H])[H])c5N([H])[H])C4([H])[H])C([H])([H])[H])C([H])([H])C3([H])[H])[N+]([H])([H])[H])c([H])c([H])c2C1([H])[H]

>  <smiles>  (56) 
[H]c1c([H])c([H])c2c(c1[H])C([H])([H])C([H])([H])C([H])([H])C2([H])N([H])C(=O)C1([H])N(C(=O)C([H])(N([H])C(=O)C([H])(N([H])C([H])([H])[H])C([H])([H])[H])C(C([H])([H])[H])(C([H])([H])[H])C([H])([H])[H])C([H])([H])c2c([H])c(OC([H])([H])C([H])(C(=O)OC([H])([H])C([H])([H])[N+]3([H])C([H])([H])C([H])([H])C([H])(N(C(=O)N4C([H])([H])C([H])([H])C([H])([H])C([H])(n5nc(-c6c([H])c([H])c(Oc7c([H])c([H])c(F)c([H])c7F)c([H])c6[H])c(C(=O)N([H])[H])c5N([H])[H])C4([H])[H])C([H])([H])[H])C([H])([H])C3([H])[H])[N+]([H])([H])[H])c([H])c([H])c2C1([H])[H]

$$$$
56:0:0
     RDKit          3D

 95103  0  0  1  0  0  0  0  0999 V2000
  -28.4300  -23.4660   19.9040 C   0  0  0  0  0  3  0  0  0  0  0  0
  -30.5330  -22.4490   20.9990 C   0  0  0  0  0  1  0  0  0  0  0  0
  -29.1810  -22.1740   20.5130 N   0  0  0  0  0  0  0  0  0  0  0  0
  -29.7250  -19.4710   20.7760 C   0  0  0  0  0  3  0  0  0  0  0  0
  -28.7920  -17.9320   19.1610 C   0  0  0  0  0  3  0  0  0  0  0  0
  -28.4130  -20.3830   18.9600 C   0  0  0  0  0  3  0  0  0  0  0  0
  -29.5990  -18.0410   20.3160 C   0  0  0  0  0  0  0  0  0  0  0  0
  -29.1180  -20.7040   20.1380 C   0  0  0  0  0  0  0  0  0  0  0  0
  -28.2270  -19.0560   18.5130 C   0  0  0  0  0  0  0  0  0  0  0  0
  -27.4520  -18.8480   17.4210 F   0  0  0  0  0  0  0  0  0  0  0  0
  -30.7420  -15.5090   20.6260 C   0  0  0  0  0  0  0  0  0  0  0  0
  -30.7740  -13.0930   19.8250 C   0  0  0  0  0  2  0  0  0  0  0  0
  -29.9520  -12.9970   18.5180 C   0  0  0  0  0  2  0  0  0  0  0  0
  -28.4590  -12.7630   18.8190 C   0  0  0  0  0  2  0  0  0  0  0  0
  -27.9370  -13.6970   19.9450 C   0  0  0  0  0  3  0  0  0  0  0  0
  -28.9020  -13.7760   21.1500 C   0  0  0  0  0  2  0  0  0  0  0  0
  -30.2090  -14.2140   20.6440 N   0  0  0  0  0  0  0  0  0  0  0  0
  -31.9200  -15.6010   20.2650 O   0  0  0  0  0  0  0  0  0  0  0  0
  -29.9910  -16.6860   20.9850 N   0  0  0  0  0  0  0  0  0  0  0  0
  -29.3520  -16.4450   21.7310 H   0  0  0  0  0  0  0  0  0  0  0  0
  -25.4960  -14.2320   20.5000 C   0  0  0  0  0  0  0  0  0  0  0  0
  -24.4210  -13.4440   20.8130 C   0  0  0  0  0  0  0  0  0  0  0  0
  -24.9080  -12.1010   20.8360 C   0  0  0  0  0  0  0  0  0  0  0  0
  -26.5690  -13.3700   20.3480 N   0  0  0  0  0  0  0  0  0  0  0  0
  -26.2210  -12.0810   20.6100 N   0  0  0  0  0  0  0  0  0  0  0  0
  -24.1860  -10.8310   20.9940 C   0  0  0  0  0  0  0  0  0  0  0  0
  -24.5640   -9.8850   21.9730 C   0  0  0  0  0  3  0  0  0  0  0  0
  -23.8380   -8.6830   22.1270 C   0  0  0  0  0  3  0  0  0  0  0  0
  -22.7210   -8.4180   21.3000 C   0  0  0  0  0  0  0  0  0  0  0  0
  -22.3590   -9.3560   20.3160 C   0  0  0  0  0  3  0  0  0  0  0  0
  -23.0860  -10.5470   20.1620 C   0  0  0  0  0  3  0  0  0  0  0  0
  -21.9700   -7.2680   21.3570 O   0  0  0  0  0  0  0  0  0  0  0  0
  -21.8500   -6.5410   22.5150 C   0  0  0  0  0  0  0  0  0  0  0  0
  -21.3310   -7.1070   23.6990 C   0  0  0  0  0  3  0  0  0  0  0  0
  -21.1600   -6.3090   24.8490 C   0  0  0  0  0  3  0  0  0  0  0  0
  -21.4980   -4.9420   24.8110 C   0  0  0  0  0  0  0  0  0  0  0  0
  -22.0060   -4.3730   23.6320 C   0  0  0  0  0  3  0  0  0  0  0  0
  -22.1800   -5.1690   22.4850 C   0  0  0  0  0  0  0  0  0  0  0  0
  -22.6510   -4.6110   21.3450 F   0  0  0  0  0  0  0  0  0  0  0  0
  -21.3280   -4.1720   25.9120 F   0  0  0  0  0  0  0  0  0  0  0  0
  -23.0020  -13.9050   20.9780 C   0  0  0  0  0  0  0  0  0  0  0  0
  -22.2200  -13.2270   21.8110 N   0  0  0  0  0  0  0  0  0  0  0  0
  -22.5860  -14.9090   20.4010 O   0  0  0  0  0  0  0  0  0  0  0  0
  -22.5590  -12.4230   22.3180 H   0  0  0  0  0  0  0  0  0  0  0  0
  -21.2650  -13.5220   21.9450 H   0  0  0  0  0  0  0  0  0  0  0  0
  -25.6430  -15.6030   20.3100 N   0  0  0  0  0  0  0  0  0  0  0  0
  -24.8460  -16.2320   20.3580 H   0  0  0  0  0  0  0  0  0  0  0  0
  -26.5010  -16.0610   20.0360 H   0  0  0  0  0  0  0  0  0  0  0  0
  -26.8750  -23.2960   19.9820 C   0  0  0  0  0  2  0  0  0  0  0  0
  -24.7150  -23.7580   21.0960 C   0  0  0  0  0  1  0  0  0  0  0  0
  -26.7690  -23.9550   22.4050 C   0  0  0  0  0  1  0  0  0  0  0  0
  -26.1660  -24.0630   21.0570 N   0  0  1  0  0  4  0  0  0  0  0  0
  -26.2230  -25.0400   20.8080 H   0  0  0  0  0  0  0  0  0  0  0  0
  -28.7490  -25.1200   20.3240 C   0  0  0  0  0  2  0  0  0  0  0  0
  -28.4770  -26.5430   19.6750 O   0  0  0  0  0  0  0  0  0  0  0  0
  -24.6780  -31.9640   23.1050 C   0  0  0  0  0  0  0  0  0  0  0  0
  -27.3550  -27.4500   19.8210 C   0  0  0  0  0  0  0  0  0  0  0  0
  -23.4990  -30.6120   21.4160 C   0  0  0  0  0  3  0  0  0  0  0  0
  -24.9740  -29.1410   19.9000 C   0  0  0  0  0  0  0  0  0  0  0  0
  -26.0380  -30.9630   21.2190 C   0  0  0  0  0  2  0  0  0  0  0  0
  -26.1490  -29.5940   20.5100 C   0  0  0  0  0  0  0  0  0  0  0  0
  -27.3420  -28.7710   20.4460 C   0  0  0  0  0  3  0  0  0  0  0  0
  -26.1460  -27.1040   19.1850 C   0  0  0  0  0  3  0  0  0  0  0  0
  -24.9860  -27.9100   19.2180 C   0  0  0  0  0  3  0  0  0  0  0  0
  -23.7230  -30.0020   20.0050 C   0  0  0  0  0  2  0  0  0  0  0  0
  -24.7600  -31.2010   21.9690 N   0  0  0  0  0  0  0  0  0  0  0  0
  -23.5940  -32.1810   23.6660 O   0  0  0  0  0  0  0  0  0  0  0  0
  -22.8630  -29.5410   22.3400 C   0  0  0  0  0  0  0  0  0  0  0  0
  -21.5410  -29.3260   22.2220 N   0  0  0  0  0  0  0  0  0  0  0  0
  -23.5660  -28.9050   23.1310 O   0  0  0  0  0  0  0  0  0  0  0  0
  -21.0210  -29.9020   21.5740 H   0  0  0  0  0  0  0  0  0  0  0  0
  -18.2170  -27.9600   22.6980 C   0  0  0  0  0  0  0  0  0  0  0  0
  -20.7650  -28.3170   22.9530 C   0  0  0  0  0  3  0  0  0  0  0  0
  -20.9200  -26.9200   22.3100 C   0  0  0  0  0  2  0  0  0  0  0  0
  -19.8230  -26.5990   21.2910 C   0  0  0  0  0  2  0  0  0  0  0  0
  -18.4430  -26.6540   21.9540 C   0  0  0  0  0  2  0  0  0  0  0  0
  -19.3090  -28.7470   23.1530 C   0  0  0  0  0  0  0  0  0  0  0  0
  -19.0430  -29.9670   23.8120 C   0  0  0  0  0  3  0  0  0  0  0  0
  -17.7210  -30.4040   24.0160 C   0  0  0  0  0  3  0  0  0  0  0  0
  -16.6440  -29.6130   23.5790 C   0  0  0  0  0  3  0  0  0  0  0  0
  -16.8930  -28.3940   22.9250 C   0  0  0  0  0  3  0  0  0  0  0  0
  -25.9430  -32.6120   23.7460 C   0  0  0  0  0  3  0  0  0  0  0  0
  -25.5900  -33.9840   24.1530 N   0  0  0  0  0  0  0  0  0  0  0  0
  -25.8880  -35.0900   23.4560 C   0  0  0  0  0  0  0  0  0  0  0  0
  -26.5500  -35.0640   22.4150 O   0  0  0  0  0  0  0  0  0  0  0  0
  -24.9990  -34.0730   24.9640 H   0  0  0  0  0  0  0  0  0  0  0  0
  -24.1040  -36.8540   23.2280 C   0  0  0  0  0  1  0  0  0  0  0  0
  -25.3680  -36.4380   23.9980 C   0  0  0  0  0  3  0  0  0  0  0  0
  -27.4890  -37.3450   24.8420 C   0  0  0  0  0  1  0  0  0  0  0  0
  -26.3660  -37.5290   23.9270 N   0  0  0  0  0  0  0  0  0  0  0  0
  -25.9340  -38.4260   24.1330 H   0  0  0  0  0  0  0  0  0  0  0  0
  -26.4950  -31.8010   24.9820 C   0  0  1  0  0  0  0  0  0  0  0  0
  -25.4240  -31.4900   26.0560 C   0  0  0  0  0  1  0  0  0  0  0  0
  -27.1060  -30.4560   24.5260 C   0  0  0  0  0  1  0  0  0  0  0  0
  -27.6320  -32.5940   25.6680 C   0  0  0  0  0  1  0  0  0  0  0  0
  1 49  1  0
  1 54  1  0
  1  3  1  0
  3  2  1  0
  5  7  2  0
  6  8  1  0
  7  4  1  0
  7 19  1  0
  8  3  1  0
  8  4  2  0
  9  6  2  0
  9  5  1  0
 10  9  1  0
 11 17  1  0
 11 19  1  0
 12 17  1  0
 13 14  1  0
 13 12  1  0
 15 14  1  0
 15 24  1  0
 15 16  1  0
 17 16  1  0
 18 11  2  0
 19 20  1  0
 21 22  2  0
 22 23  1  0
 22 41  1  0
 23 26  1  0
 24 21  1  0
 24 25  1  0
 25 23  2  0
 26 27  1  0
 27 28  2  0
 29 32  1  0
 29 28  1  0
 30 29  2  0
 31 30  1  0
 31 26  2  0
 32 33  1  0
 33 34  1  0
 34 35  2  0
 36 35  1  0
 36 40  1  0
 37 36  2  0
 38 33  2  0
 38 37  1  0
 39 38  1  0
 41 42  1  0
 42 45  1  0
 42 44  1  0
 43 41  2  0
 46 47  1  0
 46 21  1  0
 48 46  1  0
 49 52  1  0
 52 50  1  0
 52 51  1  0
 52 53  1  6
 55 57  1  0
 55 54  1  0
 56 67  2  0
 57 62  1  0
 58 66  1  0
 58 68  1  0
 59 65  1  0
 59 61  1  0
 60 66  1  0
 61 60  1  0
 62 61  2  0
 63 64  1  0
 63 57  2  0
 64 59  2  0
 65 58  1  0
 66 56  1  0
 68 70  2  0
 69 68  1  0
 71 69  1  0
 72 81  2  0
 72 77  1  0
 73 69  1  0
 73 77  1  0
 74 73  1  0
 75 76  1  0
 75 74  1  0
 76 72  1  0
 77 78  2  0
 78 79  1  0
 80 79  2  0
 81 80  1  0
 82 56  1  0
 82 83  1  0
 82 92  1  0
 83 86  1  0
 84 88  1  0
 84 83  1  0
 85 84  2  0
 88 87  1  0
 90 88  1  0
 90 91  1  0
 90 89  1  0
 92 95  1  1
 92 93  1  0
 94 92  1  0
M  ISO  4  11 100  19 100  54 101  55 101
M  END
>  <TORSDO>  (57) 
F 21

>  <SCORE>  (57) 
-13.525

>  <name>  (57) 
56

>  <ligand_id>  (57) 
56

>  <original_smiles>  (57) 
[H]c1c([H])c([H])c2c(c1[H])C([H])([H])C([H])([H])C([H])([H])C2([H])N([H])C(=O)C1([H])N(C(=O)C([H])(N([H])C(=O)C([H])(N([H])C([H])([H])[H])C([H])([H])[H])C(C([H])([H])[H])(C([H])([H])[H])C([H])([H])[H])C([H])([H])c2c([H])c(OC([H])([H])C([H])(N(c3c([H])c(F)c([H])c(N([H])C(=O)N4C([H])([H])C([H])([H])C([H])([H])C([H])(n5nc(-c6c([H])c([H])c(Oc7c([H])c([H])c(F)c([H])c7F)c([H])c6[H])c(C(=O)N([H])[H])c5N([H])[H])C4([H])[H])c3[H])C([H])([H])[H])C([H])([H])[N+]([H])(C([H])([H])[H])C([H])([H])[H])c([H])c([H])c2C1([H])[H]

>  <smiles>  (57) 
[H]c1c([H])c([H])c2c(c1[H])C([H])([H])C([H])([H])C([H])([H])C2([H])N([H])C(=O)C1([H])N(C(=O)C([H])(N([H])C(=O)C([H])(N([H])C([H])([H])[H])C([H])([H])[H])C(C([H])([H])[H])(C([H])([H])[H])C([H])([H])[H])C([H])([H])c2c([H])c(OC([H])([H])C([H])(N(c3c([H])c(F)c([H])c(N([H])C(=O)N4C([H])([H])C([H])([H])C([H])([H])C([H])(n5nc(-c6c([H])c([H])c(Oc7c([H])c([H])c(F)c([H])c7F)c([H])c6[H])c(C(=O)N([H])[H])c5N([H])[H])C4([H])[H])c3[H])C([H])([H])[H])C([H])([H])[N+]([H])(C([H])([H])[H])C([H])([H])[H])c([H])c([H])c2C1([H])[H]

$$$$
57:0:0
     RDKit          3D

 98106  0  0  1  0  0  0  0  0999 V2000
  -28.3290  -20.9180   21.8460 C   0  0  0  0  0  2  0  0  0  0  0  0
  -30.1990  -21.1600   20.1580 C   0  0  0  0  0  2  0  0  0  0  0  0
  -28.8070  -22.2340   22.4900 C   0  0  0  0  0  2  0  0  0  0  0  0
  -30.6150  -22.4700   20.8690 C   0  0  0  0  0  2  0  0  0  0  0  0
  -29.4600  -20.1710   21.0950 C   0  0  0  0  0  3  0  0  0  0  0  0
  -29.4370  -23.1360   21.4890 N   0  0  2  0  0  4  0  0  0  0  0  0
  -28.7590  -23.2710   20.7540 H   0  0  0  0  0  0  0  0  0  0  0  0
  -29.6830  -24.5030   22.0400 C   0  0  0  0  0  2  0  0  0  0  0  0
  -30.1890  -25.5430   20.9940 C   0  0  0  0  0  3  0  0  0  0  0  0
  -31.5830  -25.7590   21.1760 O   0  0  0  0  0  0  0  0  0  0  0  0
  -31.7030  -26.2650   21.9750 H   0  0  0  0  0  0  0  0  0  0  0  0
  -29.4460  -26.9100   21.0140 C   0  0  0  0  0  2  0  0  0  0  0  0
  -28.6300  -26.9830   19.8460 O   0  0  0  0  0  0  0  0  0  0  0  0
  -24.6920  -31.9290   23.1770 C   0  0  0  0  0  0  0  0  0  0  0  0
  -27.4740  -27.7210   19.9270 C   0  0  0  0  0  0  0  0  0  0  0  0
  -23.5250  -30.5570   21.4780 C   0  0  0  0  0  3  0  0  0  0  0  0
  -25.0270  -29.1240   19.9940 C   0  0  0  0  0  0  0  0  0  0  0  0
  -26.0320  -31.0110   21.2900 C   0  0  0  0  0  2  0  0  0  0  0  0
  -26.1620  -29.6660   20.6080 C   0  0  0  0  0  0  0  0  0  0  0  0
  -27.3900  -28.9690   20.5840 C   0  0  0  0  0  3  0  0  0  0  0  0
  -26.3300  -27.1960   19.2940 C   0  0  0  0  0  3  0  0  0  0  0  0
  -25.1020  -27.8820   19.3360 C   0  0  0  0  0  3  0  0  0  0  0  0
  -23.7530  -29.9350   20.0720 C   0  0  0  0  0  2  0  0  0  0  0  0
  -24.7670  -31.1780   22.0410 N   0  0  0  0  0  0  0  0  0  0  0  0
  -23.6050  -32.1440   23.7310 O   0  0  0  0  0  0  0  0  0  0  0  0
  -22.9100  -29.4780   22.3990 C   0  0  0  0  0  0  0  0  0  0  0  0
  -21.5870  -29.2770   22.2820 N   0  0  0  0  0  0  0  0  0  0  0  0
  -23.6180  -28.8260   23.1700 O   0  0  0  0  0  0  0  0  0  0  0  0
  -21.0770  -29.8590   21.6320 H   0  0  0  0  0  0  0  0  0  0  0  0
  -18.2370  -28.0300   22.8000 C   0  0  0  0  0  0  0  0  0  0  0  0
  -20.7980  -28.2890   23.0170 C   0  0  0  0  0  3  0  0  0  0  0  0
  -20.8930  -26.8970   22.3520 C   0  0  0  0  0  2  0  0  0  0  0  0
  -19.7660  -26.6280   21.3510 C   0  0  0  0  0  2  0  0  0  0  0  0
  -18.4010  -26.7260   22.0410 C   0  0  0  0  0  2  0  0  0  0  0  0
  -19.3630  -28.7730   23.2450 C   0  0  0  0  0  0  0  0  0  0  0  0
  -19.1550  -29.9980   23.9150 C   0  0  0  0  0  3  0  0  0  0  0  0
  -17.8530  -30.4800   24.1460 C   0  0  0  0  0  3  0  0  0  0  0  0
  -16.7410  -29.7330   23.7180 C   0  0  0  0  0  3  0  0  0  0  0  0
  -16.9340  -28.5100   23.0520 C   0  0  0  0  0  3  0  0  0  0  0  0
  -25.9620  -32.5700   23.8180 C   0  0  0  0  0  3  0  0  0  0  0  0
  -25.6280  -33.9550   24.1710 N   0  0  0  0  0  0  0  0  0  0  0  0
  -25.9440  -35.0270   23.4300 C   0  0  0  0  0  0  0  0  0  0  0  0
  -26.6210  -34.9530   22.4010 O   0  0  0  0  0  0  0  0  0  0  0  0
  -25.0260  -34.0870   24.9720 H   0  0  0  0  0  0  0  0  0  0  0  0
  -24.1830  -36.7890   23.0930 C   0  0  0  0  0  1  0  0  0  0  0  0
  -25.4260  -36.3980   23.9070 C   0  0  0  0  0  3  0  0  0  0  0  0
  -27.5350  -37.3120   24.7730 C   0  0  0  0  0  1  0  0  0  0  0  0
  -26.4400  -37.4710   23.8180 N   0  0  0  0  0  0  0  0  0  0  0  0
  -26.0150  -38.3820   23.9720 H   0  0  0  0  0  0  0  0  0  0  0  0
  -26.4890  -31.7830   25.0800 C   0  0  1  0  0  0  0  0  0  0  0  0
  -25.3960  -31.4970   26.1360 C   0  0  0  0  0  1  0  0  0  0  0  0
  -27.1030  -30.4260   24.6580 C   0  0  0  0  0  1  0  0  0  0  0  0
  -27.6190  -32.5860   25.7660 C   0  0  0  0  0  1  0  0  0  0  0  0
  -28.9250  -18.8810   20.3920 C   0  0  0  0  0  3  0  0  0  0  0  0
  -28.0310  -19.2200   19.2610 N   0  0  0  0  0  4  0  0  0  0  0  0
  -27.3300  -19.8820   19.5400 H   0  0  0  0  0  0  0  0  0  0  0  0
  -27.5470  -18.3990   18.9440 H   0  0  0  0  0  0  0  0  0  0  0  0
  -28.5370  -19.5990   18.4810 H   0  0  0  0  0  0  0  0  0  0  0  0
  -30.0240  -17.8810   19.9320 C   0  0  0  0  0  2  0  0  0  0  0  0
  -30.7820  -17.1340   21.0610 C   0  0  0  0  0  2  0  0  0  0  0  0
  -31.1400  -14.7470   20.3350 C   0  0  0  0  0  0  0  0  0  0  0  0
  -30.8440  -12.5510   19.2390 C   0  0  0  0  0  2  0  0  0  0  0  0
  -29.9000  -12.6950   18.0270 C   0  0  0  0  0  2  0  0  0  0  0  0
  -28.4210  -12.5990   18.4520 C   0  0  0  0  0  2  0  0  0  0  0  0
  -28.0890  -13.4860   19.6810 C   0  0  0  0  0  3  0  0  0  0  0  0
  -29.1380  -13.2890   20.7990 C   0  0  0  0  0  2  0  0  0  0  0  0
  -30.4700  -13.5680   20.2330 N   0  0  0  0  0  0  0  0  0  0  0  0
  -32.2050  -14.9760   19.7540 O   0  0  0  0  0  0  0  0  0  0  0  0
  -30.5000  -15.6920   21.0420 N   0  0  0  0  0  0  0  0  0  0  0  0
  -29.6640  -15.3870   21.5170 H   0  0  0  0  0  0  0  0  0  0  0  0
  -25.7120  -14.1580   20.4160 C   0  0  0  0  0  0  0  0  0  0  0  0
  -24.6210  -13.4120   20.7800 C   0  0  0  0  0  0  0  0  0  0  0  0
  -25.0380  -12.0480   20.7180 C   0  0  0  0  0  0  0  0  0  0  0  0
  -26.7280  -13.2470   20.1610 N   0  0  0  0  0  0  0  0  0  0  0  0
  -26.3240  -11.9730   20.3950 N   0  0  0  0  0  0  0  0  0  0  0  0
  -24.2750  -10.8060   20.8910 C   0  0  0  0  0  0  0  0  0  0  0  0
  -24.6410   -9.8440   21.8580 C   0  0  0  0  0  3  0  0  0  0  0  0
  -23.8840   -8.6640   22.0180 C   0  0  0  0  0  3  0  0  0  0  0  0
  -22.7440   -8.4390   21.2110 C   0  0  0  0  0  0  0  0  0  0  0  0
  -22.3950   -9.3890   20.2340 C   0  0  0  0  0  3  0  0  0  0  0  0
  -23.1530  -10.5600   20.0720 C   0  0  0  0  0  3  0  0  0  0  0  0
  -21.9610   -7.3130   21.2820 O   0  0  0  0  0  0  0  0  0  0  0  0
  -21.7870   -6.6280   22.4570 C   0  0  0  0  0  0  0  0  0  0  0  0
  -21.2270   -7.2400   23.6000 C   0  0  0  0  0  3  0  0  0  0  0  0
  -21.0030   -6.4810   24.7670 C   0  0  0  0  0  3  0  0  0  0  0  0
  -21.3280   -5.1100   24.7880 C   0  0  0  0  0  0  0  0  0  0  0  0
  -21.8800   -4.4970   23.6490 C   0  0  0  0  0  3  0  0  0  0  0  0
  -22.1060   -5.2540   22.4860 C   0  0  0  0  0  0  0  0  0  0  0  0
  -22.6180   -4.6550   21.3830 F   0  0  0  0  0  0  0  0  0  0  0  0
  -21.1050   -4.3790   25.9040 F   0  0  0  0  0  0  0  0  0  0  0  0
  -23.2430  -13.9280   21.0800 C   0  0  0  0  0  0  0  0  0  0  0  0
  -22.5050  -13.2420   21.9460 N   0  0  0  0  0  0  0  0  0  0  0  0
  -22.8290  -14.9740   20.5800 O   0  0  0  0  0  0  0  0  0  0  0  0
  -22.8490  -12.3940   22.3730 H   0  0  0  0  0  0  0  0  0  0  0  0
  -21.5800  -13.5690   22.1870 H   0  0  0  0  0  0  0  0  0  0  0  0
  -25.9280  -15.5220   20.2650 N   0  0  0  0  0  0  0  0  0  0  0  0
  -25.2000  -16.2120   20.4140 H   0  0  0  0  0  0  0  0  0  0  0  0
  -26.7910  -15.9040   19.9030 H   0  0  0  0  0  0  0  0  0  0  0  0
  1  3  1  0
  2  4  1  0
  2  5  1  0
  4  6  1  0
  5 54  1  0
  5  1  1  0
  6  8  1  0
  6  3  1  0
  6  7  1  6
  9 12  1  0
  9 10  1  0
  9  8  1  0
 10 11  1  0
 13 15  1  0
 13 12  1  0
 14 25  2  0
 15 20  1  0
 16 24  1  0
 16 26  1  0
 17 23  1  0
 17 19  1  0
 18 24  1  0
 19 18  1  0
 20 19  2  0
 21 22  1  0
 21 15  2  0
 22 17  2  0
 23 16  1  0
 24 14  1  0
 26 28  2  0
 27 26  1  0
 29 27  1  0
 30 39  2  0
 30 35  1  0
 31 27  1  0
 31 35  1  0
 32 31  1  0
 33 34  1  0
 33 32  1  0
 34 30  1  0
 35 36  2  0
 36 37  1  0
 38 37  2  0
 39 38  1  0
 40 14  1  0
 40 41  1  0
 40 50  1  0
 41 44  1  0
 42 46  1  0
 42 41  1  0
 43 42  2  0
 46 45  1  0
 48 46  1  0
 48 49  1  0
 48 47  1  0
 50 53  1  1
 50 51  1  0
 52 50  1  0
 54 59  1  0
 55 56  1  0
 55 54  1  0
 57 55  1  0
 58 55  1  0
 59 60  1  0
 61 69  1  0
 62 67  1  0
 63 64  1  0
 63 62  1  0
 65 64  1  0
 65 74  1  0
 65 66  1  0
 67 61  1  0
 67 66  1  0
 68 61  2  0
 69 60  1  0
 69 70  1  0
 71 72  2  0
 72 91  1  0
 73 72  1  0
 73 76  1  0
 74 75  1  0
 74 71  1  0
 75 73  2  0
 76 77  1  0
 77 78  2  0
 79 82  1  0
 79 78  1  0
 80 79  2  0
 81 80  1  0
 81 76  2  0
 82 83  1  0
 83 88  2  0
 83 84  1  0
 84 85  2  0
 85 86  1  0
 86 90  1  0
 87 86  2  0
 88 87  1  0
 89 88  1  0
 91 92  1  0
 92 95  1  0
 92 94  1  0
 93 91  2  0
 96 97  1  0
 96 71  1  0
 98 96  1  0
M  ISO  4  12 101  13 101  61 100  69 100
M  END
>  <TORSDO>  (58) 
F 24

>  <SCORE>  (58) 
-11.944

>  <name>  (58) 
57

>  <ligand_id>  (58) 
57

>  <original_smiles>  (58) 
[H]OC([H])(C([H])([H])Oc1c([H])c([H])c2c(c1[H])C([H])([H])N(C(=O)C([H])(N([H])C(=O)C([H])(N([H])C([H])([H])[H])C([H])([H])[H])C(C([H])([H])[H])(C([H])([H])[H])C([H])([H])[H])C([H])(C(=O)N([H])C1([H])c3c([H])c([H])c([H])c([H])c3C([H])([H])C([H])([H])C1([H])[H])C2([H])[H])C([H])([H])[N+]1([H])C([H])([H])C([H])([H])C([H])(C([H])(C([H])([H])C([H])([H])N([H])C(=O)N2C([H])([H])C([H])([H])C([H])([H])C([H])(n3nc(-c4c([H])c([H])c(Oc5c([H])c([H])c(F)c([H])c5F)c([H])c4[H])c(C(=O)N([H])[H])c3N([H])[H])C2([H])[H])[N+]([H])([H])[H])C([H])([H])C1([H])[H]

>  <smiles>  (58) 
[H]OC([H])(C([H])([H])Oc1c([H])c([H])c2c(c1[H])C([H])([H])N(C(=O)C([H])(N([H])C(=O)C([H])(N([H])C([H])([H])[H])C([H])([H])[H])C(C([H])([H])[H])(C([H])([H])[H])C([H])([H])[H])C([H])(C(=O)N([H])C1([H])c3c([H])c([H])c([H])c([H])c3C([H])([H])C([H])([H])C1([H])[H])C2([H])[H])C([H])([H])[N+]1([H])C([H])([H])C([H])([H])C([H])(C([H])(C([H])([H])C([H])([H])N([H])C(=O)N2C([H])([H])C([H])([H])C([H])([H])C([H])(n3nc(-c4c([H])c([H])c(Oc5c([H])c([H])c(F)c([H])c5F)c([H])c4[H])c(C(=O)N([H])[H])c3N([H])[H])C2([H])[H])[N+]([H])([H])[H])C([H])([H])C1([H])[H]

$$$$
58:0:0
     RDKit          3D

 99107  0  0  1  0  0  0  0  0999 V2000
  -30.1100  -18.8680   21.3130 C   0  0  0  0  0  3  0  0  0  0  0  0
  -29.5640  -17.4420   19.4380 C   0  0  0  0  0  3  0  0  0  0  0  0
  -28.8150  -19.8060   19.4580 C   0  0  0  0  0  0  0  0  0  0  0  0
  -29.5520  -20.0500   20.6700 C   0  0  0  0  0  0  0  0  0  0  0  0
  -30.0860  -17.5400   20.7390 C   0  0  0  0  0  0  0  0  0  0  0  0
  -28.9140  -18.5280   18.8080 C   0  0  0  0  0  0  0  0  0  0  0  0
  -31.1260  -15.1920   21.0040 C   0  0  0  0  0  0  0  0  0  0  0  0
  -30.9470  -12.9780   19.8820 C   0  0  0  0  0  2  0  0  0  0  0  0
  -30.1300  -13.1890   18.5880 C   0  0  0  0  0  2  0  0  0  0  0  0
  -28.6240  -13.0460   18.8760 C   0  0  0  0  0  2  0  0  0  0  0  0
  -28.1740  -13.8510   20.1240 C   0  0  0  0  0  3  0  0  0  0  0  0
  -29.1310  -13.6520   21.3230 C   0  0  0  0  0  2  0  0  0  0  0  0
  -30.4880  -13.9810   20.8700 N   0  0  0  0  0  0  0  0  0  0  0  0
  -32.2970  -15.3250   20.6480 O   0  0  0  0  0  0  0  0  0  0  0  0
  -30.3950  -16.2790   21.4440 N   0  0  0  0  0  0  0  0  0  0  0  0
  -29.6470  -15.9910   22.0590 H   0  0  0  0  0  0  0  0  0  0  0  0
  -25.7440  -14.4710   20.6620 C   0  0  0  0  0  0  0  0  0  0  0  0
  -24.6330  -13.7110   20.9070 C   0  0  0  0  0  0  0  0  0  0  0  0
  -25.0680  -12.3500   20.8580 C   0  0  0  0  0  0  0  0  0  0  0  0
  -26.7850  -13.5770   20.4790 N   0  0  0  0  0  0  0  0  0  0  0  0
  -26.3800  -12.2940   20.6590 N   0  0  0  0  0  0  0  0  0  0  0  0
  -24.3060  -11.0970   20.9370 C   0  0  0  0  0  0  0  0  0  0  0  0
  -24.6310  -10.0920   21.8740 C   0  0  0  0  0  3  0  0  0  0  0  0
  -23.8670   -8.9070   21.9490 C   0  0  0  0  0  3  0  0  0  0  0  0
  -22.7680   -8.7160   21.0800 C   0  0  0  0  0  0  0  0  0  0  0  0
  -22.4590   -9.7120   20.1350 C   0  0  0  0  0  3  0  0  0  0  0  0
  -23.2230  -10.8870   20.0600 C   0  0  0  0  0  3  0  0  0  0  0  0
  -21.9890   -7.5850   21.0550 O   0  0  0  0  0  0  0  0  0  0  0  0
  -21.8210   -6.8020   22.1700 C   0  0  0  0  0  0  0  0  0  0  0  0
  -21.2570   -7.3140   23.3570 C   0  0  0  0  0  3  0  0  0  0  0  0
  -21.0360   -6.4600   24.4560 C   0  0  0  0  0  3  0  0  0  0  0  0
  -21.3720   -5.0960   24.3680 C   0  0  0  0  0  0  0  0  0  0  0  0
  -21.9290   -4.5850   23.1830 C   0  0  0  0  0  3  0  0  0  0  0  0
  -22.1520   -5.4360   22.0870 C   0  0  0  0  0  0  0  0  0  0  0  0
  -22.6720   -4.9330   20.9410 F   0  0  0  0  0  0  0  0  0  0  0  0
  -21.1520   -4.2760   25.4210 F   0  0  0  0  0  0  0  0  0  0  0  0
  -23.2300  -14.2100   21.0770 C   0  0  0  0  0  0  0  0  0  0  0  0
  -22.4230  -13.5020   21.8590 N   0  0  0  0  0  0  0  0  0  0  0  0
  -22.8550  -15.2610   20.5590 O   0  0  0  0  0  0  0  0  0  0  0  0
  -22.7420  -12.6530   22.3000 H   0  0  0  0  0  0  0  0  0  0  0  0
  -21.4770  -13.8180   22.0210 H   0  0  0  0  0  0  0  0  0  0  0  0
  -25.9560  -15.8430   20.5600 N   0  0  0  0  0  0  0  0  0  0  0  0
  -25.2150  -16.5260   20.6830 H   0  0  0  0  0  0  0  0  0  0  0  0
  -26.8430  -16.2600   20.3090 H   0  0  0  0  0  0  0  0  0  0  0  0
  -27.9170  -20.8710   18.8630 C   0  0  0  0  0  0  0  0  0  0  0  0
  -26.9680  -21.3610   19.6540 N   0  0  0  0  0  0  0  0  0  0  0  0
  -28.0500  -21.2710   17.7050 O   0  0  0  0  0  0  0  0  0  0  0  0
  -26.7600  -20.8980   20.5290 H   0  0  0  0  0  0  0  0  0  0  0  0
  -26.2980  -22.0130   19.2710 H   0  0  0  0  0  0  0  0  0  0  0  0
  -27.7350  -17.0180   17.2160 C   0  0  0  0  0  1  0  0  0  0  0  0
  -28.3410  -18.3050   17.5390 N   0  0  0  0  0  0  0  0  0  0  0  0
  -27.9480  -19.1280   17.0820 H   0  0  0  0  0  0  0  0  0  0  0  0
  -29.7050  -21.5060   21.3530 C   0  0  0  0  0  2  0  0  0  0  0  0
  -31.2800  -22.7790   19.8610 C   0  0  0  0  0  1  0  0  0  0  0  0
  -29.9680  -22.8100   20.5610 N   0  0  2  0  0  4  0  0  0  0  0  0
  -29.2590  -22.7750   19.8400 H   0  0  0  0  0  0  0  0  0  0  0  0
  -29.7710  -24.1780   21.2660 C   0  0  0  0  0  3  0  0  0  0  0  0
  -29.1190  -25.3910   20.4130 C   0  0  0  0  0  3  0  0  0  0  0  0
  -29.1830  -26.8490   20.8050 O   0  0  0  0  0  0  0  0  0  0  0  0
  -24.8560  -32.0470   23.4660 C   0  0  0  0  0  0  0  0  0  0  0  0
  -28.0380  -27.6690   20.6330 C   0  0  0  0  0  0  0  0  0  0  0  0
  -23.8930  -30.5440   21.7650 C   0  0  0  0  0  3  0  0  0  0  0  0
  -25.5650  -29.1240   20.4450 C   0  0  0  0  0  0  0  0  0  0  0  0
  -26.4110  -31.0620   21.7610 C   0  0  0  0  0  2  0  0  0  0  0  0
  -26.6490  -29.6910   21.1280 C   0  0  0  0  0  0  0  0  0  0  0  0
  -27.8840  -28.9740   21.2190 C   0  0  0  0  0  3  0  0  0  0  0  0
  -26.9360  -27.1900   19.8910 C   0  0  0  0  0  3  0  0  0  0  0  0
  -25.7160  -27.8830   19.8140 C   0  0  0  0  0  3  0  0  0  0  0  0
  -24.2610  -29.8940   20.4060 C   0  0  0  0  0  2  0  0  0  0  0  0
  -25.0670  -31.2380   22.3870 N   0  0  0  0  0  0  0  0  0  0  0  0
  -23.7160  -32.2310   23.9230 O   0  0  0  0  0  0  0  0  0  0  0  0
  -23.2570  -29.4740   22.6870 C   0  0  0  0  0  0  0  0  0  0  0  0
  -21.9790  -29.1410   22.4380 N   0  0  0  0  0  0  0  0  0  0  0  0
  -23.9180  -28.9460   23.5840 O   0  0  0  0  0  0  0  0  0  0  0  0
  -21.5020  -29.6230   21.6890 H   0  0  0  0  0  0  0  0  0  0  0  0
  -18.6960  -27.6400   22.7150 C   0  0  0  0  0  0  0  0  0  0  0  0
  -21.1970  -28.1320   23.1570 C   0  0  0  0  0  3  0  0  0  0  0  0
  -21.4690  -26.7170   22.6000 C   0  0  0  0  0  2  0  0  0  0  0  0
  -20.4730  -26.2960   21.5130 C   0  0  0  0  0  2  0  0  0  0  0  0
  -19.0420  -26.3120   22.0590 C   0  0  0  0  0  2  0  0  0  0  0  0
  -19.7090  -28.5010   23.2150 C   0  0  0  0  0  0  0  0  0  0  0  0
  -19.3350  -29.7390   23.7830 C   0  0  0  0  0  3  0  0  0  0  0  0
  -17.9800  -30.1150   23.8610 C   0  0  0  0  0  3  0  0  0  0  0  0
  -16.9820  -29.2530   23.3760 C   0  0  0  0  0  3  0  0  0  0  0  0
  -17.3400  -28.0170   22.8070 C   0  0  0  0  0  3  0  0  0  0  0  0
  -26.0310  -32.7930   24.1670 C   0  0  0  0  0  3  0  0  0  0  0  0
  -25.6030  -34.1810   24.3980 N   0  0  0  0  0  0  0  0  0  0  0  0
  -25.9070  -35.2140   23.6000 C   0  0  0  0  0  0  0  0  0  0  0  0
  -26.6470  -35.1060   22.6190 O   0  0  0  0  0  0  0  0  0  0  0  0
  -24.9460  -34.3320   25.1480 H   0  0  0  0  0  0  0  0  0  0  0  0
  -24.0770  -36.8490   23.0470 C   0  0  0  0  0  1  0  0  0  0  0  0
  -25.2950  -36.5860   23.9470 C   0  0  0  0  0  3  0  0  0  0  0  0
  -27.3090  -37.6740   24.8340 C   0  0  0  0  0  1  0  0  0  0  0  0
  -26.2540  -37.7070   23.8260 N   0  0  0  0  0  0  0  0  0  0  0  0
  -25.7750  -38.6010   23.9010 H   0  0  0  0  0  0  0  0  0  0  0  0
  -26.4700  -32.1190   25.5240 C   0  0  1  0  0  0  0  0  0  0  0  0
  -25.2860  -31.7410   26.4460 C   0  0  0  0  0  1  0  0  0  0  0  0
  -27.2880  -30.8340   25.2570 C   0  0  0  0  0  1  0  0  0  0  0  0
  -27.4030  -33.0760   26.3040 C   0  0  0  0  0  1  0  0  0  0  0  0
  2  5  2  0
  3  4  1  0
  4  1  2  0
  4 53  1  0
  5  1  1  0
  5 15  1  0
  6  2  1  0
  6  3  2  0
  7 15  1  0
  8 13  1  0
  9 10  1  0
  9  8  1  0
 11 10  1  0
 11 20  1  0
 11 12  1  0
 13  7  1  0
 13 12  1  0
 14  7  2  0
 15 16  1  0
 17 18  2  0
 18 37  1  0
 19 18  1  0
 19 22  1  0
 20 21  1  0
 20 17  1  0
 21 19  2  0
 22 23  1  0
 23 24  2  0
 25 24  1  0
 26 25  2  0
 27 26  1  0
 27 22  2  0
 28 25  1  0
 28 29  1  0
 29 30  1  0
 30 31  2  0
 32 31  1  0
 32 36  1  0
 33 32  2  0
 34 29  2  0
 34 33  1  0
 35 34  1  0
 37 38  1  0
 38 41  1  0
 38 40  1  0
 39 37  2  0
 42 17  1  0
 42 43  1  0
 44 42  1  0
 45  3  1  0
 45 46  1  0
 46 48  1  0
 47 45  2  0
 49 46  1  0
 50 51  1  0
 51  6  1  0
 52 51  1  0
 54 55  1  0
 55 57  1  0
 55 53  1  0
 55 56  1  6
 58 59  1  0
 58 57  2  0
 60 71  2  0
 61 59  1  0
 61 66  1  0
 62 70  1  0
 62 72  1  0
 63 65  1  0
 64 70  1  0
 65 66  2  0
 65 64  1  0
 67 61  2  0
 68 67  1  0
 68 63  2  0
 69 63  1  0
 69 62  1  0
 70 60  1  0
 72 74  2  0
 73 72  1  0
 75 73  1  0
 76 85  2  0
 76 81  1  0
 77 73  1  0
 77 81  1  0
 78 77  1  0
 79 80  1  0
 79 78  1  0
 80 76  1  0
 81 82  2  0
 82 83  1  0
 84 83  2  0
 85 84  1  0
 86 60  1  0
 86 87  1  0
 86 96  1  0
 87 90  1  0
 88 92  1  0
 88 87  1  0
 89 88  2  0
 92 91  1  0
 94 95  1  0
 94 92  1  0
 94 93  1  0
 96 99  1  1
 96 97  1  0
 98 96  1  0
M  ISO  4   7 100  15 100  58 101  59 101
M  END
>  <TORSDO>  (59) 
F 22

>  <SCORE>  (59) 
-9.918

>  <name>  (59) 
58

>  <ligand_id>  (59) 
58

>  <original_smiles>  (59) 
[H]c1c([H])c([H])c2c(c1[H])C([H])([H])C([H])([H])C([H])([H])C2([H])N([H])C(=O)C1([H])N(C(=O)C([H])(N([H])C(=O)C([H])(N([H])C([H])([H])[H])C([H])([H])[H])C(C([H])([H])[H])(C([H])([H])[H])C([H])([H])[H])C([H])([H])c2c([H])c(OC([H])([H])C([H])([H])[N+]([H])(C([H])([H])[H])C([H])([H])c3c([H])c(N([H])C(=O)N4C([H])([H])C([H])([H])C([H])([H])C([H])(n5nc(-c6c([H])c([H])c(Oc7c([H])c([H])c(F)c([H])c7F)c([H])c6[H])c(C(=O)N([H])[H])c5N([H])[H])C4([H])[H])c([H])c(N([H])C([H])([H])[H])c3C(=O)N([H])[H])c([H])c([H])c2C1([H])[H]

>  <smiles>  (59) 
[H]c1c([H])c([H])c2c(c1[H])C([H])([H])C([H])([H])C([H])([H])C2([H])N([H])C(=O)C1([H])N(C(=O)C([H])(N([H])C(=O)C([H])(N([H])C([H])([H])[H])C([H])([H])[H])C(C([H])([H])[H])(C([H])([H])[H])C([H])([H])[H])C([H])([H])c2c([H])c(OC([H])([H])C([H])([H])[N+]([H])(C([H])([H])[H])C([H])([H])c3c([H])c(N([H])C(=O)N4C([H])([H])C([H])([H])C([H])([H])C([H])(n5nc(-c6c([H])c([H])c(Oc7c([H])c([H])c(F)c([H])c7F)c([H])c6[H])c(C(=O)N([H])[H])c5N([H])[H])C4([H])[H])c([H])c(N([H])C([H])([H])[H])c3C(=O)N([H])[H])c([H])c([H])c2C1([H])[H]

$$$$
59:0:0
     RDKit          3D

 99107  0  0  1  0  0  0  0  0999 V2000
  -29.9660  -17.2760   18.8030 C   0  0  0  0  0  3  0  0  0  0  0  0
  -29.7620  -18.4640   18.0770 C   0  0  0  0  0  3  0  0  0  0  0  0
  -29.3500  -18.4650   20.8200 C   0  0  0  0  0  3  0  0  0  0  0  0
  -29.1900  -19.7380   20.1100 C   0  0  0  0  0  0  0  0  0  0  0  0
  -29.7460  -17.2070   20.1910 C   0  0  0  0  0  0  0  0  0  0  0  0
  -29.3530  -19.6720   18.6910 C   0  0  0  0  0  0  0  0  0  0  0  0
  -30.5850  -14.7540   20.4760 C   0  0  0  0  0  0  0  0  0  0  0  0
  -30.4340  -12.4580   19.5080 C   0  0  0  0  0  2  0  0  0  0  0  0
  -29.5220  -12.5000   18.2630 C   0  0  0  0  0  2  0  0  0  0  0  0
  -28.0480  -12.3170   18.6720 C   0  0  0  0  0  2  0  0  0  0  0  0
  -27.6430  -13.2280   19.8610 C   0  0  0  0  0  3  0  0  0  0  0  0
  -28.6720  -13.1720   21.0110 C   0  0  0  0  0  2  0  0  0  0  0  0
  -29.9850  -13.5140   20.4500 N   0  0  0  0  0  0  0  0  0  0  0  0
  -31.7430  -14.8780   20.0680 O   0  0  0  0  0  0  0  0  0  0  0  0
  -29.8350  -15.8690   20.8440 N   0  0  0  0  0  0  0  0  0  0  0  0
  -29.0840  -15.6620   21.4880 H   0  0  0  0  0  0  0  0  0  0  0  0
  -25.2510  -13.8200   20.5700 C   0  0  0  0  0  0  0  0  0  0  0  0
  -24.1790  -13.0450   20.9220 C   0  0  0  0  0  0  0  0  0  0  0  0
  -24.6380  -11.6920   20.8780 C   0  0  0  0  0  0  0  0  0  0  0  0
  -26.2910  -12.9400   20.3290 N   0  0  0  0  0  0  0  0  0  0  0  0
  -25.9290  -11.6540   20.5740 N   0  0  0  0  0  0  0  0  0  0  0  0
  -23.9060  -10.4300   21.0430 C   0  0  0  0  0  0  0  0  0  0  0  0
  -24.3620   -9.4190   21.9180 C   0  0  0  0  0  3  0  0  0  0  0  0
  -23.6280   -8.2230   22.0740 C   0  0  0  0  0  3  0  0  0  0  0  0
  -22.4260   -8.0280   21.3550 C   0  0  0  0  0  0  0  0  0  0  0  0
  -21.9890   -9.0270   20.4660 C   0  0  0  0  0  3  0  0  0  0  0  0
  -22.7230  -10.2140   20.3060 C   0  0  0  0  0  3  0  0  0  0  0  0
  -21.6620   -6.8880   21.4250 O   0  0  0  0  0  0  0  0  0  0  0  0
  -21.6860   -6.0740   22.5290 C   0  0  0  0  0  0  0  0  0  0  0  0
  -21.4030   -6.5650   23.8230 C   0  0  0  0  0  3  0  0  0  0  0  0
  -21.3650   -5.6800   24.9190 C   0  0  0  0  0  3  0  0  0  0  0  0
  -21.6040   -4.3060   24.7230 C   0  0  0  0  0  0  0  0  0  0  0  0
  -21.8820   -3.8140   23.4360 C   0  0  0  0  0  3  0  0  0  0  0  0
  -21.9200   -4.6970   22.3410 C   0  0  0  0  0  0  0  0  0  0  0  0
  -22.1660   -4.2150   21.0990 F   0  0  0  0  0  0  0  0  0  0  0  0
  -21.5610   -3.4540   25.7740 F   0  0  0  0  0  0  0  0  0  0  0  0
  -22.7830  -13.5230   21.1890 C   0  0  0  0  0  0  0  0  0  0  0  0
  -22.0480  -12.8250   22.0480 N   0  0  0  0  0  0  0  0  0  0  0  0
  -22.3520  -14.5540   20.6710 O   0  0  0  0  0  0  0  0  0  0  0  0
  -22.4100  -11.9920   22.4910 H   0  0  0  0  0  0  0  0  0  0  0  0
  -21.1080  -13.1250   22.2650 H   0  0  0  0  0  0  0  0  0  0  0  0
  -25.4230  -15.1930   20.4140 N   0  0  0  0  0  0  0  0  0  0  0  0
  -24.6530  -15.8460   20.5200 H   0  0  0  0  0  0  0  0  0  0  0  0
  -26.2660  -15.6290   20.0600 H   0  0  0  0  0  0  0  0  0  0  0  0
  -28.8650  -21.0880   20.8470 C   0  0  0  0  0  0  0  0  0  0  0  0
  -28.9660  -22.3100   20.2070 N   0  0  0  0  0  0  0  0  0  0  0  0
  -28.5520  -21.0500   22.0410 O   0  0  0  0  0  0  0  0  0  0  0  0
  -29.1900  -22.1900   19.2230 H   0  0  0  0  0  0  0  0  0  0  0  0
  -28.9520  -23.7530   20.7190 C   0  0  0  0  0  3  0  0  0  0  0  0
  -28.1350  -24.8910   19.9140 C   0  0  0  0  0  3  0  0  0  0  0  0
  -28.3040  -26.3590   20.2170 O   0  0  0  0  0  0  0  0  0  0  0  0
  -24.6330  -31.8560   23.2000 C   0  0  0  0  0  0  0  0  0  0  0  0
  -27.2150  -27.2590   20.1250 C   0  0  0  0  0  0  0  0  0  0  0  0
  -23.4280  -30.4820   21.5400 C   0  0  0  0  0  3  0  0  0  0  0  0
  -24.8740  -28.9300   20.1030 C   0  0  0  0  0  0  0  0  0  0  0  0
  -25.9740  -30.7660   21.3810 C   0  0  0  0  0  2  0  0  0  0  0  0
  -26.0430  -29.3880   20.7220 C   0  0  0  0  0  0  0  0  0  0  0  0
  -27.2130  -28.5620   20.7280 C   0  0  0  0  0  3  0  0  0  0  0  0
  -26.0310  -26.8850   19.4480 C   0  0  0  0  0  3  0  0  0  0  0  0
  -24.8730  -27.6870   19.4540 C   0  0  0  0  0  3  0  0  0  0  0  0
  -23.6450  -29.8170   20.1550 C   0  0  0  0  0  2  0  0  0  0  0  0
  -24.6980  -31.0520   22.0970 N   0  0  0  0  0  0  0  0  0  0  0  0
  -23.5480  -32.1380   23.7300 O   0  0  0  0  0  0  0  0  0  0  0  0
  -22.7500  -29.4620   22.4880 C   0  0  0  0  0  0  0  0  0  0  0  0
  -21.4200  -29.3060   22.3630 N   0  0  0  0  0  0  0  0  0  0  0  0
  -23.4200  -28.8150   23.2990 O   0  0  0  0  0  0  0  0  0  0  0  0
  -20.9370  -29.8840   21.6880 H   0  0  0  0  0  0  0  0  0  0  0  0
  -18.0300  -28.1370   22.8460 C   0  0  0  0  0  0  0  0  0  0  0  0
  -20.5900  -28.3700   23.1240 C   0  0  0  0  0  3  0  0  0  0  0  0
  -20.6770  -26.9410   22.5390 C   0  0  0  0  0  2  0  0  0  0  0  0
  -19.5770  -26.6360   21.5180 C   0  0  0  0  0  2  0  0  0  0  0  0
  -18.1940  -26.7920   22.1590 C   0  0  0  0  0  2  0  0  0  0  0  0
  -19.1550  -28.8840   23.2860 C   0  0  0  0  0  0  0  0  0  0  0  0
  -18.9480  -30.1430   23.8900 C   0  0  0  0  0  3  0  0  0  0  0  0
  -17.6480  -30.6570   24.0560 C   0  0  0  0  0  3  0  0  0  0  0  0
  -16.5370  -29.9060   23.6320 C   0  0  0  0  0  3  0  0  0  0  0  0
  -16.7290  -28.6480   23.0340 C   0  0  0  0  0  3  0  0  0  0  0  0
  -25.9150  -32.4770   23.8350 C   0  0  0  0  0  3  0  0  0  0  0  0
  -25.5960  -33.8570   24.2280 N   0  0  0  0  0  0  0  0  0  0  0  0
  -25.9050  -34.9450   23.5100 C   0  0  0  0  0  0  0  0  0  0  0  0
  -26.5610  -34.8920   22.4670 O   0  0  0  0  0  0  0  0  0  0  0  0
  -25.0130  -33.9700   25.0440 H   0  0  0  0  0  0  0  0  0  0  0  0
  -24.1480  -36.7300   23.2640 C   0  0  0  0  0  1  0  0  0  0  0  0
  -25.4100  -36.3080   24.0330 C   0  0  0  0  0  3  0  0  0  0  0  0
  -27.5580  -37.1790   24.8440 C   0  0  0  0  0  1  0  0  0  0  0  0
  -26.4270  -37.3790   23.9420 N   0  0  0  0  0  0  0  0  0  0  0  0
  -26.0150  -38.2850   24.1450 H   0  0  0  0  0  0  0  0  0  0  0  0
  -26.4510  -31.6600   25.0750 C   0  0  1  0  0  0  0  0  0  0  0  0
  -25.3730  -31.3780   26.1490 C   0  0  0  0  0  1  0  0  0  0  0  0
  -27.0340  -30.3020   24.6250 C   0  0  0  0  0  1  0  0  0  0  0  0
  -27.6080  -32.4320   25.7510 C   0  0  0  0  0  1  0  0  0  0  0  0
  -30.2490  -21.3550   17.1370 C   0  0  0  0  0  1  0  0  0  0  0  0
  -29.1100  -20.7580   17.8260 N   0  0  0  0  0  0  0  0  0  0  0  0
  -27.7290  -21.1780   17.5770 C   0  0  0  0  0  2  0  0  0  0  0  0
  -27.2060  -20.8020   16.1710 C   0  0  0  0  0  2  0  0  0  0  0  0
  -25.8280  -22.8060   15.7090 C   0  0  0  0  0  1  0  0  0  0  0  0
  -25.1230  -20.6100   14.8510 C   0  0  0  0  0  1  0  0  0  0  0  0
  -25.8420  -21.3380   15.9240 N   0  0  1  0  0  4  0  0  0  0  0  0
  -25.3060  -21.1580   16.7590 H   0  0  0  0  0  0  0  0  0  0  0  0
  1  5  1  0
  2  6  1  0
  2  1  2  0
  4  3  1  0
  4 45  1  0
  5  3  2  0
  5 15  1  0
  6  4  2  0
  7 15  1  0
  8 13  1  0
  9 10  1  0
  9  8  1  0
 11 10  1  0
 11 20  1  0
 11 12  1  0
 13  7  1  0
 13 12  1  0
 14  7  2  0
 15 16  1  0
 17 18  2  0
 18 37  1  0
 19 18  1  0
 19 22  1  0
 20 17  1  0
 20 21  1  0
 21 19  2  0
 22 23  1  0
 23 24  2  0
 25 28  1  0
 25 24  1  0
 26 25  2  0
 27 26  1  0
 27 22  2  0
 28 29  1  0
 29 30  1  0
 30 31  2  0
 32 31  1  0
 32 36  1  0
 33 32  2  0
 34 29  2  0
 34 33  1  0
 35 34  1  0
 37 38  1  0
 38 41  1  0
 38 40  1  0
 39 37  2  0
 42 43  1  0
 42 17  1  0
 44 42  1  0
 45 47  2  0
 46 49  1  0
 46 45  1  0
 48 46  1  0
 50 51  1  0
 50 49  2  0
 52 63  2  0
 53 51  1  0
 53 58  1  0
 54 62  1  0
 54 64  1  0
 55 61  1  0
 55 57  1  0
 56 62  1  0
 57 58  2  0
 57 56  1  0
 59 60  1  0
 59 53  2  0
 60 55  2  0
 61 54  1  0
 62 52  1  0
 64 66  2  0
 65 64  1  0
 67 65  1  0
 68 77  2  0
 68 73  1  0
 69 65  1  0
 69 73  1  0
 70 69  1  0
 71 72  1  0
 71 70  1  0
 72 68  1  0
 73 74  2  0
 74 75  1  0
 76 75  2  0
 77 76  1  0
 78 52  1  0
 78 79  1  0
 78 88  1  0
 79 82  1  0
 80 84  1  0
 80 79  1  0
 81 80  2  0
 84 83  1  0
 86 84  1  0
 86 87  1  0
 86 85  1  0
 88 91  1  1
 88 89  1  0
 90 88  1  0
 92 93  1  0
 93  6  1  0
 94 93  1  0
 95 94  1  0
 96 98  1  0
 97 98  1  0
 98 95  1  0
 98 99  1  1
M  ISO  4   7 100  15 100  50 101  51 101
M  END
>  <TORSDO>  (60) 
F 23

>  <SCORE>  (60) 
-2.390

>  <name>  (60) 
59

>  <ligand_id>  (60) 
59

>  <original_smiles>  (60) 
[H]c1c([H])c([H])c2c(c1[H])C([H])([H])C([H])([H])C([H])([H])C2([H])N([H])C(=O)C1([H])N(C(=O)C([H])(N([H])C(=O)C([H])(N([H])C([H])([H])[H])C([H])([H])[H])C(C([H])([H])[H])(C([H])([H])[H])C([H])([H])[H])C([H])([H])c2c([H])c(OC([H])([H])C([H])([H])N([H])C(=O)c3c([H])c(N([H])C(=O)N4C([H])([H])C([H])([H])C([H])([H])C([H])(n5nc(-c6c([H])c([H])c(Oc7c([H])c([H])c(F)c([H])c7F)c([H])c6[H])c(C(=O)N([H])[H])c5N([H])[H])C4([H])[H])c([H])c([H])c3N(C([H])([H])[H])C([H])([H])C([H])([H])[N+]([H])(C([H])([H])[H])C([H])([H])[H])c([H])c([H])c2C1([H])[H]

>  <smiles>  (60) 
[H]c1c([H])c([H])c2c(c1[H])C([H])([H])C([H])([H])C([H])([H])C2([H])N([H])C(=O)C1([H])N(C(=O)C([H])(N([H])C(=O)C([H])(N([H])C([H])([H])[H])C([H])([H])[H])C(C([H])([H])[H])(C([H])([H])[H])C([H])([H])[H])C([H])([H])c2c([H])c(OC([H])([H])C([H])([H])N([H])C(=O)c3c([H])c(N([H])C(=O)N4C([H])([H])C([H])([H])C([H])([H])C([H])(n5nc(-c6c([H])c([H])c(Oc7c([H])c([H])c(F)c([H])c7F)c([H])c6[H])c(C(=O)N([H])[H])c5N([H])[H])C4([H])[H])c([H])c([H])c3N(C([H])([H])[H])C([H])([H])C([H])([H])[N+]([H])(C([H])([H])[H])C([H])([H])[H])c([H])c([H])c2C1([H])[H]

$$$$
60:0:0
     RDKit          3D

 95103  0  0  1  0  0  0  0  0999 V2000
  -30.2530  -18.3000   21.4000 C   0  0  0  0  0  3  0  0  0  0  0  0
  -29.7790  -20.7270   21.2490 C   0  0  0  0  0  3  0  0  0  0  0  0
  -29.2490  -19.2710   19.4110 C   0  0  0  0  0  3  0  0  0  0  0  0
  -30.2690  -19.5950   21.9610 C   0  0  0  0  0  0  0  0  0  0  0  0
  -29.7500  -18.0390   20.1180 C   0  0  0  0  0  0  0  0  0  0  0  0
  -29.2610  -20.6880   19.9290 C   0  0  0  0  0  0  0  0  0  0  0  0
  -30.5380  -15.4000   19.9360 C   0  0  0  0  0  0  0  0  0  0  0  0
  -30.5500  -12.9740   19.1650 C   0  0  0  0  0  2  0  0  0  0  0  0
  -29.5920  -12.7450   17.9750 C   0  0  0  0  0  2  0  0  0  0  0  0
  -28.1480  -12.5040   18.4650 C   0  0  0  0  0  2  0  0  0  0  0  0
  -27.7150  -13.5090   19.5630 C   0  0  0  0  0  3  0  0  0  0  0  0
  -28.7900  -13.6790   20.6510 C   0  0  0  0  0  2  0  0  0  0  0  0
  -30.0070  -14.1120   19.9580 N   0  0  0  0  0  0  0  0  0  0  0  0
  -31.7590  -15.4920   19.7690 O   0  0  0  0  0  0  0  0  0  0  0  0
  -29.6780  -16.5380   19.7540 N   0  0  0  0  0  0  0  0  0  0  0  0
  -28.7710  -16.2570   19.4160 H   0  0  0  0  0  0  0  0  0  0  0  0
  -25.3740  -14.0670   20.4280 C   0  0  0  0  0  0  0  0  0  0  0  0
  -24.3290  -13.2830   20.8250 C   0  0  0  0  0  0  0  0  0  0  0  0
  -24.7960  -11.9350   20.7520 C   0  0  0  0  0  0  0  0  0  0  0  0
  -26.4070  -13.1970   20.1220 N   0  0  0  0  0  0  0  0  0  0  0  0
  -26.0730  -11.9090   20.3900 N   0  0  0  0  0  0  0  0  0  0  0  0
  -24.0840  -10.6660   20.9460 C   0  0  0  0  0  0  0  0  0  0  0  0
  -24.5170   -9.7100   21.8920 C   0  0  0  0  0  3  0  0  0  0  0  0
  -23.7990   -8.5070   22.0710 C   0  0  0  0  0  3  0  0  0  0  0  0
  -22.6340   -8.2540   21.3070 C   0  0  0  0  0  0  0  0  0  0  0  0
  -22.2230   -9.1990   20.3500 C   0  0  0  0  0  3  0  0  0  0  0  0
  -22.9430  -10.3920   20.1670 C   0  0  0  0  0  3  0  0  0  0  0  0
  -21.8880   -7.1040   21.3980 O   0  0  0  0  0  0  0  0  0  0  0  0
  -21.8020   -6.3930   22.5680 C   0  0  0  0  0  0  0  0  0  0  0  0
  -21.2350   -6.9460   23.7370 C   0  0  0  0  0  3  0  0  0  0  0  0
  -21.1020   -6.1560   24.8960 C   0  0  0  0  0  3  0  0  0  0  0  0
  -21.5260   -4.8130   24.8890 C   0  0  0  0  0  0  0  0  0  0  0  0
  -22.0880   -4.2620   23.7230 C   0  0  0  0  0  3  0  0  0  0  0  0
  -22.2220   -5.0470   22.5660 C   0  0  0  0  0  0  0  0  0  0  0  0
  -22.7430   -4.5020   21.4410 F   0  0  0  0  0  0  0  0  0  0  0  0
  -21.3930   -4.0530   26.0000 F   0  0  0  0  0  0  0  0  0  0  0  0
  -22.9400  -13.7500   21.1520 C   0  0  0  0  0  0  0  0  0  0  0  0
  -22.2410  -13.0340   22.0230 N   0  0  0  0  0  0  0  0  0  0  0  0
  -22.4850  -14.7880   20.6720 O   0  0  0  0  0  0  0  0  0  0  0  0
  -22.6250  -12.1980   22.4410 H   0  0  0  0  0  0  0  0  0  0  0  0
  -21.3090  -13.3280   22.2820 H   0  0  0  0  0  0  0  0  0  0  0  0
  -25.5260  -15.4440   20.2740 N   0  0  0  0  0  0  0  0  0  0  0  0
  -24.7680  -16.0930   20.4540 H   0  0  0  0  0  0  0  0  0  0  0  0
  -26.3570  -15.9040   19.9260 H   0  0  0  0  0  0  0  0  0  0  0  0
  -30.7390  -19.7650   23.3800 C   0  0  0  0  0  0  0  0  0  0  0  0
  -31.5500  -18.8250   23.8530 N   0  0  0  0  0  0  0  0  0  0  0  0
  -30.4150  -20.7390   24.0560 O   0  0  0  0  0  0  0  0  0  0  0  0
  -31.8240  -18.0470   23.2730 H   0  0  0  0  0  0  0  0  0  0  0  0
  -31.8970  -18.8770   24.7990 H   0  0  0  0  0  0  0  0  0  0  0  0
  -28.7490  -21.9650   19.2870 N   0  0  0  0  0  0  0  0  0  0  0  0
  -28.2380  -21.7900   18.4230 H   0  0  0  0  0  0  0  0  0  0  0  0
  -29.5080  -23.8670   20.8890 C   0  0  0  0  0  1  0  0  0  0  0  0
  -29.0270  -23.5320   19.4730 C   0  0  0  0  0  3  0  0  0  0  0  0
  -27.9370  -24.8050   19.0930 C   0  0  0  0  0  2  0  0  0  0  0  0
  -28.1590  -26.3710   19.2330 O   0  0  0  0  0  0  0  0  0  0  0  0
  -24.5090  -31.6880   22.9020 C   0  0  0  0  0  0  0  0  0  0  0  0
  -27.0810  -27.3440   19.3130 C   0  0  0  0  0  0  0  0  0  0  0  0
  -23.2790  -30.3990   21.2030 C   0  0  0  0  0  3  0  0  0  0  0  0
  -24.7050  -29.0250   19.5600 C   0  0  0  0  0  0  0  0  0  0  0  0
  -25.8110  -30.7720   20.9400 C   0  0  0  0  0  2  0  0  0  0  0  0
  -25.9000  -29.4480   20.1520 C   0  0  0  0  0  0  0  0  0  0  0  0
  -27.0880  -28.6290   20.0070 C   0  0  0  0  0  3  0  0  0  0  0  0
  -25.8540  -27.0390   18.6890 C   0  0  0  0  0  3  0  0  0  0  0  0
  -24.6960  -27.8410   18.8080 C   0  0  0  0  0  3  0  0  0  0  0  0
  -23.4530  -29.8710   19.7550 C   0  0  0  0  0  2  0  0  0  0  0  0
  -24.5560  -30.9710   21.7370 N   0  0  0  0  0  0  0  0  0  0  0  0
  -23.4410  -31.8780   23.5070 O   0  0  0  0  0  0  0  0  0  0  0  0
  -22.6900  -29.2780   22.0970 C   0  0  0  0  0  0  0  0  0  0  0  0
  -21.3620  -29.0680   22.0240 N   0  0  0  0  0  0  0  0  0  0  0  0
  -23.4270  -28.6030   22.8210 O   0  0  0  0  0  0  0  0  0  0  0  0
  -20.8180  -29.6640   21.4150 H   0  0  0  0  0  0  0  0  0  0  0  0
  -18.0580  -27.7050   22.6030 C   0  0  0  0  0  0  0  0  0  0  0  0
  -20.6200  -28.0310   22.7440 C   0  0  0  0  0  3  0  0  0  0  0  0
  -20.7280  -26.6670   22.0220 C   0  0  0  0  0  2  0  0  0  0  0  0
  -19.5760  -26.4090   21.0470 C   0  0  0  0  0  2  0  0  0  0  0  0
  -18.2330  -26.4380   21.7820 C   0  0  0  0  0  2  0  0  0  0  0  0
  -19.1760  -28.4610   23.0410 C   0  0  0  0  0  0  0  0  0  0  0  0
  -18.9540  -29.6480   23.7750 C   0  0  0  0  0  3  0  0  0  0  0  0
  -17.6480  -30.0770   24.0720 C   0  0  0  0  0  3  0  0  0  0  0  0
  -16.5440  -29.3160   23.6480 C   0  0  0  0  0  3  0  0  0  0  0  0
  -16.7510  -28.1330   22.9180 C   0  0  0  0  0  3  0  0  0  0  0  0
  -25.7930  -32.3190   23.5230 C   0  0  0  0  0  3  0  0  0  0  0  0
  -26.3800  -31.4750   24.7220 C   0  0  1  0  0  0  0  0  0  0  0  0
  -25.3360  -31.1320   25.8090 C   0  0  0  0  0  1  0  0  0  0  0  0
  -26.9840  -30.1440   24.2140 C   0  0  0  0  0  1  0  0  0  0  0  0
  -27.5320  -32.2550   25.3980 C   0  0  0  0  0  1  0  0  0  0  0  0
  -25.4520  -33.6770   23.9750 N   0  0  0  0  0  0  0  0  0  0  0  0
  -25.7500  -34.8020   23.3140 C   0  0  0  0  0  0  0  0  0  0  0  0
  -26.4100  -34.8080   22.2720 O   0  0  0  0  0  0  0  0  0  0  0  0
  -24.8650  -33.7440   24.7930 H   0  0  0  0  0  0  0  0  0  0  0  0
  -23.9940  -36.5950   23.1270 C   0  0  0  0  0  1  0  0  0  0  0  0
  -25.2380  -36.1310   23.9020 C   0  0  0  0  0  3  0  0  0  0  0  0
  -27.3390  -36.9810   24.8470 C   0  0  0  0  0  1  0  0  0  0  0  0
  -26.2510  -37.2080   23.8990 N   0  0  0  0  0  0  0  0  0  0  0  0
  -25.8250  -38.1040   24.1210 H   0  0  0  0  0  0  0  0  0  0  0  0
  1  4  1  0
  2  4  2  0
  3  6  2  0
  3  5  1  0
  4 45  1  0
  5  1  2  0
  6  2  1  0
  7 13  1  0
  8 13  1  0
  9 10  1  0
  9  8  1  0
 11 10  1  0
 11 20  1  0
 11 12  1  0
 13 12  1  0
 14  7  2  0
 15  7  1  0
 15  5  1  0
 16 15  1  0
 17 18  2  0
 18 37  1  0
 19 18  1  0
 19 22  1  0
 20 21  1  0
 20 17  1  0
 21 19  2  0
 22 23  1  0
 23 24  2  0
 25 28  1  0
 25 24  1  0
 26 25  2  0
 27 26  1  0
 27 22  2  0
 28 29  1  0
 29 30  1  0
 30 31  2  0
 32 31  1  0
 32 36  1  0
 33 32  2  0
 34 29  2  0
 34 33  1  0
 35 34  1  0
 37 38  1  0
 38 41  1  0
 38 40  1  0
 39 37  2  0
 42 17  1  0
 42 43  1  0
 44 42  1  0
 45 46  1  0
 45 47  2  0
 46 49  1  0
 48 46  1  0
 50 53  1  0
 50  6  1  0
 51 50  1  0
 53 52  1  0
 54 55  1  0
 54 53  1  0
 55 57  1  0
 56 67  2  0
 57 62  1  0
 58 66  1  0
 58 68  1  0
 59 65  1  0
 59 61  1  0
 60 66  1  0
 61 60  1  0
 62 61  2  0
 63 64  1  0
 63 57  2  0
 64 59  2  0
 65 58  1  0
 66 56  1  0
 68 70  2  0
 69 68  1  0
 71 69  1  0
 72 81  2  0
 72 77  1  0
 73 69  1  0
 73 77  1  0
 74 73  1  0
 75 76  1  0
 75 74  1  0
 76 72  1  0
 77 78  2  0
 78 79  1  0
 80 79  2  0
 81 80  1  0
 82 56  1  0
 82 87  1  0
 82 83  1  0
 83 86  1  1
 83 84  1  0
 85 83  1  0
 87 90  1  0
 88 92  1  0
 88 87  1  0
 89 88  2  0
 92 91  1  0
 94 92  1  0
 94 95  1  0
 94 93  1  0
M  ISO  4   7 100  15 100  54 101  55 101
M  END
>  <TORSDO>  (61) 
F 20

>  <SCORE>  (61) 
-12.845

>  <name>  (61) 
60

>  <ligand_id>  (61) 
60

>  <original_smiles>  (61) 
[H]c1c([H])c([H])c2c(c1[H])C([H])([H])C([H])([H])C([H])([H])C2([H])N([H])C(=O)C1([H])N(C(=O)C([H])(N([H])C(=O)C([H])(N([H])C([H])([H])[H])C([H])([H])[H])C(C([H])([H])[H])(C([H])([H])[H])C([H])([H])[H])C([H])([H])c2c([H])c(OC([H])([H])C([H])(N([H])c3c([H])c(C(=O)N([H])[H])c([H])c(N([H])C(=O)N4C([H])([H])C([H])([H])C([H])([H])C([H])(n5nc(-c6c([H])c([H])c(Oc7c([H])c([H])c(F)c([H])c7F)c([H])c6[H])c(C(=O)N([H])[H])c5N([H])[H])C4([H])[H])c3[H])C([H])([H])[H])c([H])c([H])c2C1([H])[H]

>  <smiles>  (61) 
[H]c1c([H])c([H])c2c(c1[H])C([H])([H])C([H])([H])C([H])([H])C2([H])N([H])C(=O)C1([H])N(C(=O)C([H])(N([H])C(=O)C([H])(N([H])C([H])([H])[H])C([H])([H])[H])C(C([H])([H])[H])(C([H])([H])[H])C([H])([H])[H])C([H])([H])c2c([H])c(OC([H])([H])C([H])(N([H])c3c([H])c(C(=O)N([H])[H])c([H])c(N([H])C(=O)N4C([H])([H])C([H])([H])C([H])([H])C([H])(n5nc(-c6c([H])c([H])c(Oc7c([H])c([H])c(F)c([H])c7F)c([H])c6[H])c(C(=O)N([H])[H])c5N([H])[H])C4([H])[H])c3[H])C([H])([H])[H])c([H])c([H])c2C1([H])[H]

$$$$
61:0:0
     RDKit          3D

 98106  0  0  1  0  0  0  0  0999 V2000
  -29.0770  -20.8250   20.1830 C   0  0  0  0  0  0  0  0  0  0  0  0
  -30.5370  -19.9260   18.3890 C   0  0  0  0  0  1  0  0  0  0  0  0
  -29.8790  -19.8180   19.7000 N   0  0  0  0  0  0  0  0  0  0  0  0
  -28.7230  -20.8120   21.3650 O   0  0  0  0  0  0  0  0  0  0  0  0
  -27.5440  -21.4790   18.1750 C   0  0  0  0  0  1  0  0  0  0  0  0
  -28.4730  -21.9920   19.3020 C   0  0  0  0  0  3  0  0  0  0  0  0
  -29.6190  -23.3170   17.4510 C   0  0  0  0  0  1  0  0  0  0  0  0
  -29.3750  -23.1450   18.9110 N   0  0  1  0  0  4  0  0  0  0  0  0
  -30.2710  -22.8580   19.2790 H   0  0  0  0  0  0  0  0  0  0  0  0
  -29.1290  -24.4850   19.5780 C   0  0  0  0  0  2  0  0  0  0  0  0
  -27.9430  -25.3700   19.0510 C   0  0  0  0  0  2  0  0  0  0  0  0
  -28.0650  -26.7820   19.3930 O   0  0  0  0  0  0  0  0  0  0  0  0
  -24.7930  -31.7380   23.3690 C   0  0  0  0  0  0  0  0  0  0  0  0
  -26.9310  -27.5830   19.5330 C   0  0  0  0  0  0  0  0  0  0  0  0
  -23.3830  -30.6160   21.6770 C   0  0  0  0  0  3  0  0  0  0  0  0
  -24.6320  -29.2170   19.9420 C   0  0  0  0  0  0  0  0  0  0  0  0
  -25.9050  -30.8750   21.3090 C   0  0  0  0  0  2  0  0  0  0  0  0
  -25.8620  -29.5950   20.4900 C   0  0  0  0  0  0  0  0  0  0  0  0
  -27.0100  -28.7860   20.2850 C   0  0  0  0  0  3  0  0  0  0  0  0
  -25.6790  -27.2450   18.9640 C   0  0  0  0  0  3  0  0  0  0  0  0
  -24.5380  -28.0440   19.1740 C   0  0  0  0  0  3  0  0  0  0  0  0
  -23.4440  -30.1150   20.2090 C   0  0  0  0  0  2  0  0  0  0  0  0
  -24.7170  -31.0840   22.1750 N   0  0  0  0  0  0  0  0  0  0  0  0
  -23.7760  -31.9860   24.0330 O   0  0  0  0  0  0  0  0  0  0  0  0
  -22.7560  -29.5080   22.5560 C   0  0  0  0  0  0  0  0  0  0  0  0
  -21.4280  -29.3380   22.4540 N   0  0  0  0  0  0  0  0  0  0  0  0
  -23.4630  -28.8080   23.2860 O   0  0  0  0  0  0  0  0  0  0  0  0
  -20.9190  -29.9570   21.8390 H   0  0  0  0  0  0  0  0  0  0  0  0
  -18.0840  -28.0190   22.8430 C   0  0  0  0  0  0  0  0  0  0  0  0
  -20.6320  -28.3310   23.1560 C   0  0  0  0  0  3  0  0  0  0  0  0
  -20.7790  -26.9430   22.4900 C   0  0  0  0  0  2  0  0  0  0  0  0
  -19.6950  -26.6560   21.4470 C   0  0  0  0  0  2  0  0  0  0  0  0
  -18.3050  -26.7210   22.0840 C   0  0  0  0  0  2  0  0  0  0  0  0
  -19.1770  -28.7830   23.3300 C   0  0  0  0  0  0  0  0  0  0  0  0
  -18.9160  -30.0000   23.9960 C   0  0  0  0  0  3  0  0  0  0  0  0
  -17.5960  -30.4540   24.1800 C   0  0  0  0  0  3  0  0  0  0  0  0
  -16.5170  -29.6840   23.7080 C   0  0  0  0  0  3  0  0  0  0  0  0
  -16.7630  -28.4690   23.0440 C   0  0  0  0  0  3  0  0  0  0  0  0
  -26.1580  -32.2290   23.9470 C   0  0  0  0  0  3  0  0  0  0  0  0
  -25.9550  -33.5830   24.4790 N   0  0  0  0  0  0  0  0  0  0  0  0
  -26.3100  -34.7090   23.8470 C   0  0  0  0  0  0  0  0  0  0  0  0
  -26.9190  -34.7100   22.7730 O   0  0  0  0  0  0  0  0  0  0  0  0
  -25.4210  -33.6600   25.3320 H   0  0  0  0  0  0  0  0  0  0  0  0
  -24.6860  -36.6260   23.8270 C   0  0  0  0  0  1  0  0  0  0  0  0
  -25.9350  -36.0450   24.5120 C   0  0  0  0  0  3  0  0  0  0  0  0
  -28.1550  -36.6840   25.3420 C   0  0  0  0  0  1  0  0  0  0  0  0
  -27.0250  -37.0440   24.4900 N   0  0  0  0  0  0  0  0  0  0  0  0
  -26.6850  -37.9560   24.7800 H   0  0  0  0  0  0  0  0  0  0  0  0
  -26.7390  -31.2740   25.0610 C   0  0  1  0  0  0  0  0  0  0  0  0
  -25.7300  -30.9460   26.1840 C   0  0  0  0  0  1  0  0  0  0  0  0
  -27.2140  -29.9370   24.4450 C   0  0  0  0  0  1  0  0  0  0  0  0
  -27.9830  -31.9260   25.7130 C   0  0  0  0  0  1  0  0  0  0  0  0
  -30.1280  -18.5570   20.5010 C   0  0  0  0  0  3  0  0  0  0  0  0
  -32.7650  -19.2540   23.8970 C   0  0  0  0  0  3  0  0  0  0  0  0
  -31.6260  -18.4390   24.0450 C   0  0  0  0  0  3  0  0  0  0  0  0
  -33.0660  -19.8210   22.6450 C   0  0  0  0  0  3  0  0  0  0  0  0
  -30.7820  -18.2030   22.9430 C   0  0  0  0  0  3  0  0  0  0  0  0
  -32.2210  -19.5860   21.5430 C   0  0  0  0  0  3  0  0  0  0  0  0
  -31.0670  -18.7850   21.6870 C   0  0  0  0  0  0  0  0  0  0  0  0
  -30.5850  -17.2940   19.6800 C   0  0  0  0  0  2  0  0  0  0  0  0
  -30.9840  -14.8490   20.0260 C   0  0  0  0  0  0  0  0  0  0  0  0
  -30.7680  -12.5610   19.1480 C   0  0  0  0  0  2  0  0  0  0  0  0
  -29.8470  -12.6020   17.9110 C   0  0  0  0  0  2  0  0  0  0  0  0
  -28.3710  -12.4560   18.3380 C   0  0  0  0  0  2  0  0  0  0  0  0
  -27.9800  -13.4070   19.5010 C   0  0  0  0  0  3  0  0  0  0  0  0
  -29.0260  -13.3670   20.6390 C   0  0  0  0  0  2  0  0  0  0  0  0
  -30.3430  -13.6460   20.0500 N   0  0  0  0  0  0  0  0  0  0  0  0
  -32.1400  -14.9640   19.6140 O   0  0  0  0  0  0  0  0  0  0  0  0
  -30.2230  -15.9520   20.2190 N   0  0  0  0  0  0  0  0  0  0  0  0
  -29.2780  -15.8160   20.5460 H   0  0  0  0  0  0  0  0  0  0  0  0
  -25.5840  -14.0130   20.2210 C   0  0  0  0  0  0  0  0  0  0  0  0
  -24.5200  -13.2420   20.6060 C   0  0  0  0  0  0  0  0  0  0  0  0
  -24.9840  -11.8910   20.5890 C   0  0  0  0  0  0  0  0  0  0  0  0
  -26.6300  -13.1330   19.9910 N   0  0  0  0  0  0  0  0  0  0  0  0
  -26.2730  -11.8520   20.2710 N   0  0  0  0  0  0  0  0  0  0  0  0
  -24.2610  -10.6300   20.7990 C   0  0  0  0  0  0  0  0  0  0  0  0
  -24.6380   -9.7210   21.8130 C   0  0  0  0  0  3  0  0  0  0  0  0
  -23.9180   -8.5230   22.0040 C   0  0  0  0  0  3  0  0  0  0  0  0
  -22.8050   -8.2250   21.1830 C   0  0  0  0  0  0  0  0  0  0  0  0
  -22.4480   -9.1210   20.1580 C   0  0  0  0  0  3  0  0  0  0  0  0
  -23.1700  -10.3110   19.9660 C   0  0  0  0  0  3  0  0  0  0  0  0
  -22.0610   -7.0730   21.2800 O   0  0  0  0  0  0  0  0  0  0  0  0
  -21.8510   -6.4530   22.4850 C   0  0  0  0  0  0  0  0  0  0  0  0
  -21.2410   -7.1190   23.5700 C   0  0  0  0  0  3  0  0  0  0  0  0
  -20.9810   -6.4230   24.7680 C   0  0  0  0  0  3  0  0  0  0  0  0
  -21.3200   -5.0620   24.8790 C   0  0  0  0  0  0  0  0  0  0  0  0
  -21.9220   -4.3950   23.7970 C   0  0  0  0  0  3  0  0  0  0  0  0
  -22.1840   -5.0880   22.6040 C   0  0  0  0  0  0  0  0  0  0  0  0
  -22.7470   -4.4370   21.5580 F   0  0  0  0  0  0  0  0  0  0  0  0
  -21.0630   -4.3900   26.0250 F   0  0  0  0  0  0  0  0  0  0  0  0
  -23.1230  -13.7210   20.8790 C   0  0  0  0  0  0  0  0  0  0  0  0
  -22.4030  -13.0490   21.7710 N   0  0  0  0  0  0  0  0  0  0  0  0
  -22.6750  -14.7280   20.3330 O   0  0  0  0  0  0  0  0  0  0  0  0
  -22.7730  -12.2370   22.2420 H   0  0  0  0  0  0  0  0  0  0  0  0
  -21.4660  -13.3550   21.9910 H   0  0  0  0  0  0  0  0  0  0  0  0
  -25.7440  -15.3810   20.0240 N   0  0  0  0  0  0  0  0  0  0  0  0
  -24.9720  -16.0300   20.1220 H   0  0  0  0  0  0  0  0  0  0  0  0
  -26.5780  -15.8120   19.6470 H   0  0  0  0  0  0  0  0  0  0  0  0
  1  4  2  0
  2  3  1  0
  3  1  1  0
  3 53  1  0
  6  5  1  0
  6  1  1  0
  7  8  1  0
  8  9  1  1
  8  6  1  0
  8 10  1  0
 11 12  1  0
 11 10  1  0
 12 14  1  0
 13 24  2  0
 14 19  1  0
 15 23  1  0
 15 25  1  0
 16 22  1  0
 16 18  1  0
 17 23  1  0
 18 17  1  0
 19 18  2  0
 20 21  1  0
 20 14  2  0
 21 16  2  0
 22 15  1  0
 23 13  1  0
 25 27  2  0
 26 25  1  0
 28 26  1  0
 29 38  2  0
 29 34  1  0
 30 26  1  0
 30 34  1  0
 31 30  1  0
 32 33  1  0
 32 31  1  0
 33 29  1  0
 34 35  2  0
 35 36  1  0
 37 36  2  0
 38 37  1  0
 39 13  1  0
 39 40  1  0
 39 49  1  0
 40 43  1  0
 41 40  1  0
 41 45  1  0
 42 41  2  0
 45 44  1  0
 47 45  1  0
 47 48  1  0
 47 46  1  0
 49 52  1  1
 49 50  1  0
 51 49  1  0
 53 60  1  0
 53 59  1  0
 54 55  1  0
 56 54  2  0
 57 55  2  0
 58 59  2  0
 58 56  1  0
 59 57  1  0
 60 69  1  0
 61 67  1  0
 61 69  1  0
 62 67  1  0
 63 64  1  0
 63 62  1  0
 65 64  1  0
 65 74  1  0
 65 66  1  0
 67 66  1  0
 68 61  2  0
 69 70  1  0
 71 72  2  0
 72 91  1  0
 73 72  1  0
 73 76  1  0
 74 71  1  0
 74 75  1  0
 75 73  2  0
 76 77  1  0
 77 78  2  0
 79 82  1  0
 79 78  1  0
 80 79  2  0
 81 80  1  0
 81 76  2  0
 82 83  1  0
 83 88  2  0
 83 84  1  0
 84 85  2  0
 85 86  1  0
 86 90  1  0
 87 86  2  0
 88 87  1  0
 89 88  1  0
 91 92  1  0
 92 95  1  0
 92 94  1  0
 93 91  2  0
 96 97  1  0
 96 71  1  0
 98 96  1  0
M  ISO  4  11 101  12 101  61 100  69 100
M  END
>  <TORSDO>  (62) 
F 23

>  <SCORE>  (62) 
-8.402

>  <name>  (62) 
61

>  <ligand_id>  (62) 
61

>  <original_smiles>  (62) 
[H]c1c([H])c([H])c(C([H])(N(C(=O)C([H])(C([H])([H])[H])[N+]([H])(C([H])([H])[H])C([H])([H])C([H])([H])Oc2c([H])c([H])c3c(c2[H])C([H])([H])N(C(=O)C([H])(N([H])C(=O)C([H])(N([H])C([H])([H])[H])C([H])([H])[H])C(C([H])([H])[H])(C([H])([H])[H])C([H])([H])[H])C([H])(C(=O)N([H])C2([H])c4c([H])c([H])c([H])c([H])c4C([H])([H])C([H])([H])C2([H])[H])C3([H])[H])C([H])([H])[H])C([H])([H])N([H])C(=O)N2C([H])([H])C([H])([H])C([H])([H])C([H])(n3nc(-c4c([H])c([H])c(Oc5c([H])c([H])c(F)c([H])c5F)c([H])c4[H])c(C(=O)N([H])[H])c3N([H])[H])C2([H])[H])c([H])c1[H]

>  <smiles>  (62) 
[H]c1c([H])c([H])c(C([H])(N(C(=O)C([H])(C([H])([H])[H])[N+]([H])(C([H])([H])[H])C([H])([H])C([H])([H])Oc2c([H])c([H])c3c(c2[H])C([H])([H])N(C(=O)C([H])(N([H])C(=O)C([H])(N([H])C([H])([H])[H])C([H])([H])[H])C(C([H])([H])[H])(C([H])([H])[H])C([H])([H])[H])C([H])(C(=O)N([H])C2([H])c4c([H])c([H])c([H])c([H])c4C([H])([H])C([H])([H])C2([H])[H])C3([H])[H])C([H])([H])[H])C([H])([H])N([H])C(=O)N2C([H])([H])C([H])([H])C([H])([H])C([H])(n3nc(-c4c([H])c([H])c(Oc5c([H])c([H])c(F)c([H])c5F)c([H])c4[H])c(C(=O)N([H])[H])c3N([H])[H])C2([H])[H])c([H])c1[H]

$$$$
62:0:0
     RDKit          3D

100109  0  0  1  0  0  0  0  0999 V2000
  -26.8670  -23.3540   20.9220 C   0  0  0  0  0  3  0  0  0  0  0  0
  -26.4420  -20.5290   18.3110 C   0  0  0  0  0  3  0  0  0  0  0  0
  -26.1880  -21.7020   19.0530 C   0  0  0  0  0  3  0  0  0  0  0  0
  -27.5810  -19.7410   18.5970 C   0  0  0  0  0  3  0  0  0  0  0  0
  -28.1880  -21.2820   20.3790 C   0  0  0  0  0  3  0  0  0  0  0  0
  -27.0550  -22.0770   20.1070 C   0  0  0  0  0  0  0  0  0  0  0  0
  -28.4650  -20.1250   19.6310 C   0  0  0  0  0  0  0  0  0  0  0  0
  -30.7560  -19.7520   19.0320 C   0  0  0  0  0  1  0  0  0  0  0  0
  -29.6430  -19.4180   19.9180 N   0  0  0  0  0  0  0  0  0  0  0  0
  -31.0260  -15.1460   20.6920 C   0  0  0  0  0  0  0  0  0  0  0  0
  -30.8380  -12.9470   19.6350 C   0  0  0  0  0  2  0  0  0  0  0  0
  -29.9740  -13.1420   18.3700 C   0  0  0  0  0  2  0  0  0  0  0  0
  -28.4750  -13.0030   18.7050 C   0  0  0  0  0  2  0  0  0  0  0  0
  -28.0490  -13.8480   19.9400 C   0  0  0  0  0  3  0  0  0  0  0  0
  -29.0380  -13.6600   21.1140 C   0  0  0  0  0  2  0  0  0  0  0  0
  -30.3910  -13.9470   20.6110 N   0  0  0  0  0  0  0  0  0  0  0  0
  -32.2220  -15.3050   20.4360 O   0  0  0  0  0  0  0  0  0  0  0  0
  -29.8180  -16.9340   19.5470 C   0  0  0  0  0  2  0  0  0  0  0  0
  -30.5680  -17.5060   21.3480 C   0  0  0  0  0  2  0  0  0  0  0  0
  -29.4540  -18.0780   20.4750 C   0  0  0  0  0  3  0  0  0  0  0  0
  -30.1890  -16.2010   20.7750 N   0  0  0  0  0  0  0  0  0  0  0  0
  -25.6220  -14.5200   20.4660 C   0  0  0  0  0  0  0  0  0  0  0  0
  -24.5140  -13.7740   20.7470 C   0  0  0  0  0  0  0  0  0  0  0  0
  -24.9480  -12.4100   20.7420 C   0  0  0  0  0  0  0  0  0  0  0  0
  -26.6630  -13.6120   20.3180 N   0  0  0  0  0  0  0  0  0  0  0  0
  -26.2550  -12.3400   20.5330 N   0  0  0  0  0  0  0  0  0  0  0  0
  -24.1900  -11.1620   20.8620 C   0  0  0  0  0  0  0  0  0  0  0  0
  -24.5460  -10.1770   21.8090 C   0  0  0  0  0  3  0  0  0  0  0  0
  -23.7930   -8.9890   21.9200 C   0  0  0  0  0  3  0  0  0  0  0  0
  -22.6720   -8.7790   21.0830 C   0  0  0  0  0  0  0  0  0  0  0  0
  -22.3390   -9.7530   20.1250 C   0  0  0  0  0  3  0  0  0  0  0  0
  -23.0920  -10.9320   20.0130 C   0  0  0  0  0  3  0  0  0  0  0  0
  -21.8960   -7.6480   21.1040 O   0  0  0  0  0  0  0  0  0  0  0  0
  -21.7500   -6.9020   22.2460 C   0  0  0  0  0  0  0  0  0  0  0  0
  -21.2310   -7.4530   23.4390 C   0  0  0  0  0  3  0  0  0  0  0  0
  -21.0340   -6.6310   24.5660 C   0  0  0  0  0  3  0  0  0  0  0  0
  -21.3440   -5.2590   24.5000 C   0  0  0  0  0  0  0  0  0  0  0  0
  -21.8570   -4.7070   23.3120 C   0  0  0  0  0  3  0  0  0  0  0  0
  -22.0550   -5.5270   22.1880 C   0  0  0  0  0  0  0  0  0  0  0  0
  -22.5290   -4.9860   21.0390 F   0  0  0  0  0  0  0  0  0  0  0  0
  -21.1430   -4.4670   25.5790 F   0  0  0  0  0  0  0  0  0  0  0  0
  -23.1080  -14.2750   20.9150 C   0  0  0  0  0  0  0  0  0  0  0  0
  -22.3090  -13.5910   21.7260 N   0  0  0  0  0  0  0  0  0  0  0  0
  -22.7240  -15.3110   20.3670 O   0  0  0  0  0  0  0  0  0  0  0  0
  -22.6220  -12.7480   22.1840 H   0  0  0  0  0  0  0  0  0  0  0  0
  -21.3640  -13.9140   21.8830 H   0  0  0  0  0  0  0  0  0  0  0  0
  -25.8290  -15.8890   20.3080 N   0  0  0  0  0  0  0  0  0  0  0  0
  -25.0680  -16.5610   20.3330 H   0  0  0  0  0  0  0  0  0  0  0  0
  -26.7160  -16.3040   20.0610 H   0  0  0  0  0  0  0  0  0  0  0  0
  -28.6610  -25.0460   20.6060 C   0  0  0  0  0  0  0  0  0  0  0  0
  -27.5070  -24.4710   20.2350 N   0  0  0  0  0  0  0  0  0  0  0  0
  -29.2370  -24.7710   21.6630 O   0  0  0  0  0  0  0  0  0  0  0  0
  -27.0960  -24.7640   19.3610 H   0  0  0  0  0  0  0  0  0  0  0  0
  -29.2840  -26.0690   19.6450 C   0  0  0  0  0  2  0  0  0  0  0  0
  -29.0920  -27.3900   20.1440 O   0  0  0  0  0  0  0  0  0  0  0  0
  -24.8220  -32.0480   23.3480 C   0  0  0  0  0  0  0  0  0  0  0  0
  -27.8370  -27.9570   20.1400 C   0  0  0  0  0  0  0  0  0  0  0  0
  -23.7540  -30.6550   21.6080 C   0  0  0  0  0  3  0  0  0  0  0  0
  -25.3390  -29.2810   20.1620 C   0  0  0  0  0  0  0  0  0  0  0  0
  -26.2540  -31.1790   21.5070 C   0  0  0  0  0  2  0  0  0  0  0  0
  -26.4410  -29.8480   20.8140 C   0  0  0  0  0  0  0  0  0  0  0  0
  -27.6840  -29.1880   20.8100 C   0  0  0  0  0  3  0  0  0  0  0  0
  -26.7160  -27.3960   19.4800 C   0  0  0  0  0  3  0  0  0  0  0  0
  -25.4730  -28.0560   19.4900 C   0  0  0  0  0  3  0  0  0  0  0  0
  -24.0420  -30.0560   20.2070 C   0  0  0  0  0  2  0  0  0  0  0  0
  -24.9600  -31.3050   22.2150 N   0  0  0  0  0  0  0  0  0  0  0  0
  -23.7110  -32.2280   23.8660 O   0  0  0  0  0  0  0  0  0  0  0  0
  -23.1470  -29.5490   22.4980 C   0  0  0  0  0  0  0  0  0  0  0  0
  -21.8410  -29.2990   22.3290 N   0  0  0  0  0  0  0  0  0  0  0  0
  -23.8500  -28.9190   23.2920 O   0  0  0  0  0  0  0  0  0  0  0  0
  -21.3330  -29.8540   21.6540 H   0  0  0  0  0  0  0  0  0  0  0  0
  -18.5150  -27.9580   22.7420 C   0  0  0  0  0  0  0  0  0  0  0  0
  -21.0620  -28.2830   23.0360 C   0  0  0  0  0  3  0  0  0  0  0  0
  -21.2150  -26.9020   22.3570 C   0  0  0  0  0  2  0  0  0  0  0  0
  -20.1220  -26.6120   21.3230 C   0  0  0  0  0  2  0  0  0  0  0  0
  -18.7360  -26.6660   21.9740 C   0  0  0  0  0  2  0  0  0  0  0  0
  -19.6060  -28.7240   23.2270 C   0  0  0  0  0  0  0  0  0  0  0  0
  -19.3440  -29.9370   23.9010 C   0  0  0  0  0  3  0  0  0  0  0  0
  -18.0220  -30.3760   24.1080 C   0  0  0  0  0  3  0  0  0  0  0  0
  -16.9450  -29.6030   23.6390 C   0  0  0  0  0  3  0  0  0  0  0  0
  -17.1920  -28.3990   22.9560 C   0  0  0  0  0  3  0  0  0  0  0  0
  -26.0480  -32.7240   24.0380 C   0  0  0  0  0  3  0  0  0  0  0  0
  -25.6720  -34.1100   24.3430 N   0  0  0  0  0  0  0  0  0  0  0  0
  -25.9940  -35.1640   23.5820 C   0  0  0  0  0  0  0  0  0  0  0  0
  -26.7110  -35.0730   22.5820 O   0  0  0  0  0  0  0  0  0  0  0  0
  -25.0400  -34.2550   25.1170 H   0  0  0  0  0  0  0  0  0  0  0  0
  -24.2050  -36.8710   23.1430 C   0  0  0  0  0  1  0  0  0  0  0  0
  -25.4350  -36.5370   24.0000 C   0  0  0  0  0  3  0  0  0  0  0  0
  -27.4990  -37.5250   24.8910 C   0  0  0  0  0  1  0  0  0  0  0  0
  -26.4250  -37.6300   23.9040 N   0  0  0  0  0  0  0  0  0  0  0  0
  -25.9780  -38.5350   24.0170 H   0  0  0  0  0  0  0  0  0  0  0  0
  -26.5180  -31.9730   25.3440 C   0  0  1  0  0  0  0  0  0  0  0  0
  -25.3680  -31.6710   26.3340 C   0  0  0  0  0  1  0  0  0  0  0  0
  -27.1910  -30.6290   24.9830 C   0  0  0  0  0  1  0  0  0  0  0  0
  -27.5940  -32.8130   26.0750 C   0  0  0  0  0  1  0  0  0  0  0  0
  -25.4080  -23.6840   21.3000 C   0  0  0  0  0  2  0  0  0  0  0  0
  -24.8950  -22.7710   22.3370 N   0  0  0  0  0  4  0  0  0  0  0  0
  -24.9570  -21.8200   22.0200 H   0  0  0  0  0  0  0  0  0  0  0  0
  -23.9360  -22.9760   22.5550 H   0  0  0  0  0  0  0  0  0  0  0  0
  -25.4400  -22.8630   23.1760 H   0  0  0  0  0  0  0  0  0  0  0  0
  1 96  1  0
  2  4  2  0
  2  3  1  0
  3  6  2  0
  4  7  1  0
  6  5  1  0
  6  1  1  0
  7  9  1  0
  7  5  2  0
  8  9  1  0
 10 21  1  0
 11 16  1  0
 12 13  1  0
 12 11  1  0
 14 13  1  0
 14 25  1  0
 14 15  1  0
 16 10  1  0
 16 15  1  0
 17 10  2  0
 18 20  1  0
 18 21  1  0
 20  9  1  0
 20 19  1  0
 21 19  1  0
 22 23  2  0
 23 42  1  0
 24 23  1  0
 24 27  1  0
 25 22  1  0
 25 26  1  0
 26 24  2  0
 27 28  1  0
 28 29  2  0
 30 33  1  0
 30 29  1  0
 31 30  2  0
 32 31  1  0
 32 27  2  0
 33 34  1  0
 34 35  1  0
 35 36  2  0
 37 36  1  0
 37 41  1  0
 38 37  2  0
 39 34  2  0
 39 38  1  0
 40 39  1  0
 42 43  1  0
 43 46  1  0
 43 45  1  0
 44 42  2  0
 47 48  1  0
 47 22  1  0
 49 47  1  0
 50 52  2  0
 51 50  1  0
 51  1  1  0
 53 51  1  0
 54 55  1  0
 54 50  1  0
 56 67  2  0
 57 55  1  0
 57 62  1  0
 58 66  1  0
 58 68  1  0
 59 65  1  0
 59 61  1  0
 60 66  1  0
 61 60  1  0
 62 61  2  0
 63 64  1  0
 63 57  2  0
 64 59  2  0
 65 58  1  0
 66 56  1  0
 68 70  2  0
 69 68  1  0
 71 69  1  0
 72 81  2  0
 72 77  1  0
 73 69  1  0
 73 77  1  0
 74 73  1  0
 75 76  1  0
 75 74  1  0
 76 72  1  0
 77 78  2  0
 78 79  1  0
 80 79  2  0
 81 80  1  0
 82 56  1  0
 82 83  1  0
 82 92  1  0
 83 86  1  0
 84 88  1  0
 84 83  1  0
 85 84  2  0
 88 87  1  0
 90 88  1  0
 90 91  1  0
 90 89  1  0
 92 95  1  1
 92 93  1  0
 94 92  1  0
 96 97  1  0
 97 99  1  0
 97100  1  0
 98 97  1  0
M  ISO  4  10 100  21 100  54 101  55 101
M  END
>  <TORSDO>  (63) 
F 22

>  <SCORE>  (63) 
-11.704

>  <name>  (63) 
62

>  <ligand_id>  (63) 
62

>  <original_smiles>  (63) 
[H]c1c([H])c([H])c2c(c1[H])C([H])([H])C([H])([H])C([H])([H])C2([H])N([H])C(=O)C1([H])N(C(=O)C([H])(N([H])C(=O)C([H])(N([H])C([H])([H])[H])C([H])([H])[H])C(C([H])([H])[H])(C([H])([H])[H])C([H])([H])[H])C([H])([H])c2c([H])c(OC([H])([H])C(=O)N([H])C([H])(c3c([H])c([H])c([H])c(N(C([H])([H])[H])C4([H])C([H])([H])N(C(=O)N5C([H])([H])C([H])([H])C([H])([H])C([H])(n6nc(-c7c([H])c([H])c(Oc8c([H])c([H])c(F)c([H])c8F)c([H])c7[H])c(C(=O)N([H])[H])c6N([H])[H])C5([H])[H])C4([H])[H])c3[H])C([H])([H])[N+]([H])([H])[H])c([H])c([H])c2C1([H])[H]

>  <smiles>  (63) 
[H]c1c([H])c([H])c2c(c1[H])C([H])([H])C([H])([H])C([H])([H])C2([H])N([H])C(=O)C1([H])N(C(=O)C([H])(N([H])C(=O)C([H])(N([H])C([H])([H])[H])C([H])([H])[H])C(C([H])([H])[H])(C([H])([H])[H])C([H])([H])[H])C([H])([H])c2c([H])c(OC([H])([H])C(=O)N([H])C([H])(c3c([H])c([H])c([H])c(N(C([H])([H])[H])C4([H])C([H])([H])N(C(=O)N5C([H])([H])C([H])([H])C([H])([H])C([H])(n6nc(-c7c([H])c([H])c(Oc8c([H])c([H])c(F)c([H])c8F)c([H])c7[H])c(C(=O)N([H])[H])c6N([H])[H])C5([H])[H])C4([H])[H])c3[H])C([H])([H])[N+]([H])([H])[H])c([H])c([H])c2C1([H])[H]

$$$$
63:0:0
     RDKit          3D

110116  0  0  1  0  0  0  0  0999 V2000
  -31.9530  -20.9940   20.2040 C   0  0  0  0  0  2  0  0  0  0  0  0
  -30.6070  -23.0520   20.1720 C   0  0  0  0  0  2  0  0  0  0  0  0
  -32.1900  -22.9890   21.9570 C   0  0  0  0  0  2  0  0  0  0  0  0
  -30.5220  -21.5200   19.9680 C   0  0  0  0  0  3  0  0  0  0  0  0
  -32.5180  -21.4910   21.5880 C   0  0  0  0  0  3  0  0  0  0  0  0
  -30.8130  -23.4010   21.5700 N   0  0  1  0  0  4  0  0  0  0  0  0
  -30.1970  -22.8170   22.1180 H   0  0  0  0  0  0  0  0  0  0  0  0
  -27.5940  -21.7270   17.2440 C   0  0  0  0  0  3  0  0  0  0  0  0
  -28.0010  -20.2860   17.9310 C   0  0  0  0  0  3  0  0  0  0  0  0
  -29.3320  -22.4940   17.8350 C   0  0  0  0  0  3  0  0  0  0  0  0
  -29.7020  -21.1190   18.7040 C   0  0  0  0  0  0  0  0  0  0  0  0
  -28.1570  -23.2020   17.0150 C   0  0  0  0  0  3  0  0  0  0  0  0
  -29.1420  -19.6010   18.8140 C   0  0  0  0  0  3  0  0  0  0  0  0
  -30.1510  -16.3600   20.4450 C   0  0  0  0  0  0  0  0  0  0  0  0
  -30.6940  -13.5550   20.8130 C   0  0  0  0  0  2  0  0  0  0  0  0
  -30.2250  -12.3700   19.8840 C   0  0  0  0  0  2  0  0  0  0  0  0
  -28.7970  -11.9180   20.2060 C   0  0  0  0  0  2  0  0  0  0  0  0
  -27.9500  -13.1490   20.5590 C   0  0  0  0  0  3  0  0  0  0  0  0
  -28.6250  -14.1800   21.5180 C   0  0  0  0  0  2  0  0  0  0  0  0
  -29.7780  -14.8630   20.7860 N   0  0  0  0  0  0  0  0  0  0  0  0
  -31.3650  -16.2670   20.8120 O   0  0  0  0  0  0  0  0  0  0  0  0
  -29.3970  -17.7670   19.6510 N   0  0  0  0  0  2  0  0  0  0  0  0
  -28.4900  -17.3360   19.5070 H   0  0  0  0  0  0  0  0  0  0  0  0
  -25.5350  -13.7730   20.8980 C   0  0  0  0  0  0  0  0  0  0  0  0
  -24.3860  -13.0610   21.0720 C   0  0  0  0  0  0  0  0  0  0  0  0
  -24.7770  -11.6880   21.1510 C   0  0  0  0  0  0  0  0  0  0  0  0
  -26.5590  -12.8490   20.8720 N   0  0  0  0  0  0  0  0  0  0  0  0
  -26.1030  -11.5810   21.0830 N   0  0  0  0  0  0  0  0  0  0  0  0
  -23.9410  -10.4760   21.2230 C   0  0  0  0  0  0  0  0  0  0  0  0
  -24.1760   -9.4650   22.1800 C   0  0  0  0  0  3  0  0  0  0  0  0
  -23.3380   -8.3310   22.2470 C   0  0  0  0  0  3  0  0  0  0  0  0
  -22.2480   -8.1970   21.3550 C   0  0  0  0  0  0  0  0  0  0  0  0
  -22.0310   -9.1940   20.3910 C   0  0  0  0  0  3  0  0  0  0  0  0
  -22.8670  -10.3230   20.3200 C   0  0  0  0  0  3  0  0  0  0  0  0
  -21.3960   -7.1170   21.3290 O   0  0  0  0  0  0  0  0  0  0  0  0
  -21.2090   -6.3200   22.4300 C   0  0  0  0  0  0  0  0  0  0  0  0
  -20.7630   -6.8450   23.6620 C   0  0  0  0  0  3  0  0  0  0  0  0
  -20.5200   -5.9810   24.7490 C   0  0  0  0  0  3  0  0  0  0  0  0
  -20.7090   -4.5940   24.6040 C   0  0  0  0  0  0  0  0  0  0  0  0
  -21.1440   -4.0690   23.3750 C   0  0  0  0  0  3  0  0  0  0  0  0
  -21.3930   -4.9290   22.2910 C   0  0  0  0  0  0  0  0  0  0  0  0
  -21.7940   -4.4140   21.1030 F   0  0  0  0  0  0  0  0  0  0  0  0
  -20.4670   -3.7630   25.6460 F   0  0  0  0  0  0  0  0  0  0  0  0
  -22.9970  -13.6270   21.0500 C   0  0  0  0  0  0  0  0  0  0  0  0
  -22.0780  -13.0270   21.7950 N   0  0  0  0  0  0  0  0  0  0  0  0
  -22.7370  -14.6450   20.4120 O   0  0  0  0  0  0  0  0  0  0  0  0
  -22.2990  -12.2050   22.3390 H   0  0  0  0  0  0  0  0  0  0  0  0
  -21.1350  -13.3920   21.8150 H   0  0  0  0  0  0  0  0  0  0  0  0
  -25.7950  -15.1260   20.7150 N   0  0  0  0  0  0  0  0  0  0  0  0
  -25.0400  -15.8010   20.6400 H   0  0  0  0  0  0  0  0  0  0  0  0
  -26.7010  -15.5210   20.5120 H   0  0  0  0  0  0  0  0  0  0  0  0
  -27.5980  -25.2110   16.1380 C   0  0  0  0  0  2  0  0  0  0  0  0
  -27.1900  -24.8460   14.8960 F   0  0  0  0  0  0  0  0  0  0  0  0
  -26.1080  -26.9240   17.5550 F   0  0  0  0  0 15  0  0  0  0  0  0
  -28.8410  -25.5860   15.7490 F   0  0  0  0  0  0  0  0  0  0  0  0
  -34.0480  -21.2600   21.6880 C   0  0  0  0  0  2  0  0  0  0  0  0
  -34.4320  -19.8440   21.5440 N   0  0  0  0  0  4  0  0  0  0  0  0
  -33.7050  -19.2330   21.8690 H   0  0  0  0  0  0  0  0  0  0  0  0
  -35.2670  -19.6640   22.0730 H   0  0  0  0  0  0  0  0  0  0  0  0
  -34.6310  -19.6300   20.5810 H   0  0  0  0  0  0  0  0  0  0  0  0
  -30.4430  -24.8310   21.8900 C   0  0  0  0  0  2  0  0  0  0  0  0
  -28.5640  -26.0210   23.0420 C   0  0  0  0  0  1  0  0  0  0  0  0
  -28.9470  -25.3880   21.6650 C   0  0  2  0  0  0  0  0  0  0  0  0
  -27.8090  -24.3350   21.3620 C   0  0  0  0  0  2  0  0  0  0  0  0
  -27.3160  -21.8860   21.4010 C   0  0  0  0  0  1  0  0  0  0  0  0
  -27.8960  -23.0500   22.1110 N   0  0  0  0  0  4  0  0  0  0  0  0
  -28.8380  -22.8050   22.3530 H   0  0  0  0  0  0  0  0  0  0  0  0
  -27.3870  -23.1490   22.9750 H   0  0  0  0  0  0  0  0  0  0  0  0
  -28.8840  -26.6350   20.6700 C   0  0  0  0  0  2  0  0  0  0  0  0
  -28.0090  -26.6490   19.5020 O   0  0  0  0  0  0  0  0  0  0  0  0
  -24.4860  -31.8250   23.2120 C   0  0  0  0  0  0  0  0  0  0  0  0
  -26.8200  -27.1690   19.8130 C   0  0  0  0  0  0  0  0  0  0  0  0
  -22.9740  -30.6790   21.5750 C   0  0  0  0  0  3  0  0  0  0  0  0
  -23.9100  -29.1420   19.4080 C   0  0  0  0  0  0  0  0  0  0  0  0
  -25.3700  -31.1010   20.7450 C   0  0  0  0  0  2  0  0  0  0  0  0
  -25.3800  -29.8800   19.5770 C   0  0  0  0  0  0  0  0  0  0  0  0
  -26.7870  -28.9280   19.5660 C   0  0  0  0  0  3  0  0  0  0  0  0
  -25.1160  -26.2450   19.8630 C   0  0  0  0  0  3  0  0  0  0  0  0
  -23.6880  -27.4050   19.4800 C   0  0  0  0  0  3  0  0  0  0  0  0
  -22.8350  -30.1250   20.0610 C   0  0  0  0  0  2  0  0  0  0  0  0
  -24.3390  -31.2170   21.9280 N   0  0  0  0  0  0  0  0  0  0  0  0
  -23.5230  -31.9800   23.9920 O   0  0  0  0  0  0  0  0  0  0  0  0
  -22.4090  -29.6510   22.6010 C   0  0  0  0  0  0  0  0  0  0  0  0
  -21.0920  -29.3610   22.5710 N   0  0  0  0  0  0  0  0  0  0  0  0
  -23.1780  -29.0910   23.3840 O   0  0  0  0  0  0  0  0  0  0  0  0
  -20.5040  -29.8750   21.9290 H   0  0  0  0  0  0  0  0  0  0  0  0
  -18.0490  -27.3840   22.8830 C   0  0  0  0  0  0  0  0  0  0  0  0
  -20.4540  -28.2560   23.2990 C   0  0  0  0  0  3  0  0  0  0  0  0
  -20.9210  -26.8960   22.7260 C   0  0  0  0  0  2  0  0  0  0  0  0
  -19.9930  -26.3570   21.6320 C   0  0  0  0  0  2  0  0  0  0  0  0
  -18.5810  -26.1440   22.1830 C   0  0  0  0  0  2  0  0  0  0  0  0
  -18.9250  -28.3830   23.3910 C   0  0  0  0  0  0  0  0  0  0  0  0
  -18.3720  -29.5260   24.0090 C   0  0  0  0  0  3  0  0  0  0  0  0
  -16.9770  -29.6800   24.1240 C   0  0  0  0  0  3  0  0  0  0  0  0
  -16.1160  -28.6840   23.6310 C   0  0  0  0  0  3  0  0  0  0  0  0
  -16.6520  -27.5390   23.0140 C   0  0  0  0  0  3  0  0  0  0  0  0
  -25.8360  -32.3900   23.8150 C   0  0  0  0  0  3  0  0  0  0  0  0
  -26.4520  -31.4830   24.9660 C   0  0  1  0  0  0  0  0  0  0  0  0
  -25.4940  -31.2210   26.1580 C   0  0  0  0  0  1  0  0  0  0  0  0
  -26.8640  -30.1180   24.3760 C   0  0  0  0  0  1  0  0  0  0  0  0
  -27.7350  -32.1280   25.5430 C   0  0  0  0  0  1  0  0  0  0  0  0
  -25.6250  -33.7510   24.3860 N   0  0  0  0  0  0  0  0  0  0  0  0
  -26.0150  -34.9090   23.8280 C   0  0  0  0  0  0  0  0  0  0  0  0
  -26.6070  -34.9440   22.7490 O   0  0  0  0  0  0  0  0  0  0  0  0
  -25.0930  -33.7940   25.2410 H   0  0  0  0  0  0  0  0  0  0  0  0
  -24.4360  -36.8770   23.9710 C   0  0  0  0  0  1  0  0  0  0  0  0
  -25.7020  -36.2370   24.5650 C   0  0  0  0  0  3  0  0  0  0  0  0
  -27.9720  -36.8430   25.3020 C   0  0  0  0  0  1  0  0  0  0  0  0
  -26.8060  -37.2270   24.5150 N   0  0  0  0  0  0  0  0  0  0  0  0
  -26.4900  -38.1360   24.8410 H   0  0  0  0  0  0  0  0  0  0  0  0
  1  5  1  0
  2  6  1  0
  4 11  1  0
  4  2  1  0
  4  1  1  0
  5 56  1  0
  5  3  1  0
  6 61  1  0
  6  3  1  0
  6  7  1  1
  8  9  1  0
  9 13  2  0
 10 11  2  0
 11 13  1  0
 12  8  2  0
 12 10  1  0
 14 20  1  0
 14 21  2  0
 16 17  1  0
 16 15  1  0
 18 17  1  0
 18 27  1  0
 18 19  1  0
 20 15  1  0
 20 19  1  0
 22 14  1  0
 23 22  1  0
 24 25  2  0
 25 26  1  0
 26 29  1  0
 27 24  1  0
 27 28  1  0
 28 26  2  0
 29 30  1  0
 30 31  2  0
 32 31  1  0
 33 32  2  0
 34 33  1  0
 34 29  2  0
 35 32  1  0
 35 36  1  0
 36 37  1  0
 37 38  2  0
 39 38  1  0
 39 43  1  0
 40 39  2  0
 41 36  2  0
 41 40  1  0
 42 41  1  0
 44 25  1  0
 44 45  1  0
 45 48  1  0
 45 47  1  0
 46 44  2  0
 49 24  1  0
 50 49  1  0
 51 49  1  0
 53 52  1  0
 55 52  1  0
 57 56  1  0
 57 58  1  0
 57 59  1  0
 60 57  1  0
 63 61  1  0
 63 62  1  1
 64 63  1  0
 64 66  1  0
 65 66  1  0
 66 67  1  0
 66 68  1  0
 69 63  1  0
 70 72  1  0
 70 69  1  0
 71 82  2  0
 72 78  1  0
 73 81  1  0
 73 83  1  0
 74 79  1  0
 74 76  2  0
 74 80  1  0
 75 81  1  0
 76 75  1  0
 77 76  1  0
 77 72  2  0
 79 78  2  0
 80 73  1  0
 81 71  1  0
 83 85  2  0
 84 83  1  0
 86 84  1  0
 87 96  2  0
 87 92  1  0
 88 84  1  0
 88 92  1  0
 89 88  1  0
 90 91  1  0
 90 89  1  0
 91 87  1  0
 92 93  2  0
 93 94  1  0
 95 94  2  0
 96 95  1  0
 97 71  1  0
 97102  1  0
 97 98  1  0
 98101  1  1
 98 99  1  0
100 98  1  0
102105  1  0
103102  1  0
103107  1  0
104103  2  0
107106  1  0
109107  1  0
109110  1  0
109108  1  0
M  ISO  4  14 100  22 100  69 101  70 101
M  END
>  <TORSDO>  (64) 
F 25

>  <SCORE>  (64) 
-7.720

>  <name>  (64) 
63

>  <ligand_id>  (64) 
63

>  <original_smiles>  (64) 
[H]c1c([H])c([H])c2c(c1[H])C([H])([H])C([H])([H])C([H])([H])C2([H])N([H])C(=O)C1([H])N(C(=O)C([H])(N([H])C(=O)C([H])(N([H])C([H])([H])[H])C([H])([H])[H])C(C([H])([H])[H])(C([H])([H])[H])C([H])([H])[H])C([H])([H])c2c([H])c(OC([H])([H])C(C([H])([H])[H])(C([H])([H])[N+]([H])([H])C([H])([H])[H])C([H])([H])[N+]3([H])C([H])([H])C([H])(c4c([H])c(C(F)(F)F)c([H])c([H])c4N([H])C(=O)N4C([H])([H])C([H])([H])C([H])([H])C([H])(n5nc(-c6c([H])c([H])c(Oc7c([H])c([H])c(F)c([H])c7F)c([H])c6[H])c(C(=O)N([H])[H])c5N([H])[H])C4([H])[H])C([H])([H])C([H])(C([H])([H])[N+]([H])([H])[H])C3([H])[H])c([H])c([H])c2C1([H])[H]

>  <smiles>  (64) 
[H]c1c([H])c([H])c2c(c1[H])C([H])([H])C([H])([H])C([H])([H])C2([H])N([H])C(=O)C1([H])N(C(=O)C([H])(N([H])C(=O)C([H])(N([H])C([H])([H])[H])C([H])([H])[H])C(C([H])([H])[H])(C([H])([H])[H])C([H])([H])[H])C([H])([H])c2c([H])c(OC([H])([H])C(C([H])([H])[H])(C([H])([H])[N+]([H])([H])C([H])([H])[H])C([H])([H])[N+]3([H])C([H])([H])C([H])(c4c([H])c(C(F)(F)F)c([H])c([H])c4N([H])C(=O)N4C([H])([H])C([H])([H])C([H])([H])C([H])(n5nc(-c6c([H])c([H])c(Oc7c([H])c([H])c(F)c([H])c7F)c([H])c6[H])c(C(=O)N([H])[H])c5N([H])[H])C4([H])[H])C([H])([H])C([H])(C([H])([H])[N+]([H])([H])[H])C3([H])[H])c([H])c([H])c2C1([H])[H]

$$$$
64:0:0
     RDKit          3D

 98107  0  0  1  0  0  0  0  0999 V2000
  -29.8100  -21.6600   18.9220 C   0  0  0  0  0  2  0  0  0  0  0  0
  -30.0440  -22.1000   21.3230 C   0  0  0  0  0  2  0  0  0  0  0  0
  -30.3090  -23.0830   18.5980 C   0  0  0  0  0  2  0  0  0  0  0  0
  -30.4890  -21.1630   20.2020 C   0  0  0  0  0  3  0  0  0  0  0  0
  -30.5320  -23.5490   21.0670 C   0  0  0  0  0  3  0  0  0  0  0  0
  -30.0190  -24.4520   22.2110 C   0  0  0  0  0  1  0  0  0  0  0  0
  -30.1610  -24.0820   19.7090 N   0  0  1  0  0  4  0  0  0  0  0  0
  -29.1830  -24.3260   19.7620 H   0  0  0  0  0  0  0  0  0  0  0  0
  -31.3930  -18.9110   20.9290 C   0  0  0  0  0  3  0  0  0  0  0  0
  -29.0250  -19.0470   20.3940 C   0  0  0  0  0  3  0  0  0  0  0  0
  -31.2670  -17.5270   21.1630 C   0  0  0  0  0  3  0  0  0  0  0  0
  -28.8980  -17.6620   20.6320 C   0  0  0  0  0  3  0  0  0  0  0  0
  -30.2840  -19.6790   20.5140 C   0  0  0  0  0  0  0  0  0  0  0  0
  -30.0240  -16.8810   20.9780 C   0  0  0  0  0  0  0  0  0  0  0  0
  -30.5780  -14.5050   20.5450 C   0  0  0  0  0  0  0  0  0  0  0  0
  -30.3060  -12.3620   19.3570 C   0  0  0  0  0  2  0  0  0  0  0  0
  -29.3560  -12.5830   18.1620 C   0  0  0  0  0  2  0  0  0  0  0  0
  -27.8860  -12.4200   18.5960 C   0  0  0  0  0  2  0  0  0  0  0  0
  -27.5440  -13.2340   19.8730 C   0  0  0  0  0  3  0  0  0  0  0  0
  -28.6040  -12.9930   20.9710 C   0  0  0  0  0  2  0  0  0  0  0  0
  -29.9260  -13.3180   20.4090 N   0  0  0  0  0  0  0  0  0  0  0  0
  -31.6910  -14.7140   20.0540 O   0  0  0  0  0  0  0  0  0  0  0  0
  -29.8600  -15.4750   21.1440 N   0  0  0  0  0  0  0  0  0  0  0  0
  -28.9570  -15.1670   21.4710 H   0  0  0  0  0  0  0  0  0  0  0  0
  -25.1380  -13.8090   20.5930 C   0  0  0  0  0  0  0  0  0  0  0  0
  -24.0800  -13.0200   20.9580 C   0  0  0  0  0  0  0  0  0  0  0  0
  -24.5580  -11.6740   20.9150 C   0  0  0  0  0  0  0  0  0  0  0  0
  -26.1940  -12.9420   20.3500 N   0  0  0  0  0  0  0  0  0  0  0  0
  -25.8470  -11.6530   20.5990 N   0  0  0  0  0  0  0  0  0  0  0  0
  -23.8490  -10.4000   21.0970 C   0  0  0  0  0  0  0  0  0  0  0  0
  -24.2960   -9.4320   22.0210 C   0  0  0  0  0  3  0  0  0  0  0  0
  -23.5880   -8.2230   22.1930 C   0  0  0  0  0  3  0  0  0  0  0  0
  -22.4160   -7.9740   21.4380 C   0  0  0  0  0  0  0  0  0  0  0  0
  -21.9880   -8.9320   20.5010 C   0  0  0  0  0  3  0  0  0  0  0  0
  -22.6990  -10.1310   20.3280 C   0  0  0  0  0  3  0  0  0  0  0  0
  -21.6800   -6.8170   21.5160 O   0  0  0  0  0  0  0  0  0  0  0  0
  -21.6450   -6.0640   22.6600 C   0  0  0  0  0  0  0  0  0  0  0  0
  -21.1670   -6.5860   23.8810 C   0  0  0  0  0  3  0  0  0  0  0  0
  -21.0810   -5.7560   25.0180 C   0  0  0  0  0  3  0  0  0  0  0  0
  -21.4650   -4.4040   24.9330 C   0  0  0  0  0  0  0  0  0  0  0  0
  -21.9390   -3.8810   23.7170 C   0  0  0  0  0  3  0  0  0  0  0  0
  -22.0250   -4.7090   22.5840 C   0  0  0  0  0  0  0  0  0  0  0  0
  -22.4610   -4.1960   21.4090 F   0  0  0  0  0  0  0  0  0  0  0  0
  -21.3770   -3.6040   26.0210 F   0  0  0  0  0  0  0  0  0  0  0  0
  -22.6780  -13.4780   21.2390 C   0  0  0  0  0  0  0  0  0  0  0  0
  -21.9610  -12.7640   22.1000 N   0  0  0  0  0  0  0  0  0  0  0  0
  -22.2260  -14.5040   20.7310 O   0  0  0  0  0  0  0  0  0  0  0  0
  -22.3420  -11.9360   22.5350 H   0  0  0  0  0  0  0  0  0  0  0  0
  -21.0210  -13.0510   22.3310 H   0  0  0  0  0  0  0  0  0  0  0  0
  -25.2860  -15.1820   20.4280 N   0  0  0  0  0  0  0  0  0  0  0  0
  -24.5060  -15.8220   20.5320 H   0  0  0  0  0  0  0  0  0  0  0  0
  -26.1120  -15.6250   20.0500 H   0  0  0  0  0  0  0  0  0  0  0  0
  -30.9120  -25.3360   19.3790 C   0  0  0  0  0  2  0  0  0  0  0  0
  -30.1060  -26.3840   18.5640 C   0  0  0  0  0  3  0  0  0  0  0  0
  -31.0060  -27.1140   17.7390 O   0  0  0  0  0  0  0  0  0  0  0  0
  -31.3480  -26.5270   17.0690 H   0  0  0  0  0  0  0  0  0  0  0  0
  -29.3430  -27.4070   19.4410 C   0  0  0  0  0  2  0  0  0  0  0  0
  -28.2140  -26.7720   20.0330 O   0  0  0  0  0  0  0  0  0  0  0  0
  -24.5030  -31.9490   23.2990 C   0  0  0  0  0  0  0  0  0  0  0  0
  -27.0760  -27.5370   20.1240 C   0  0  0  0  0  0  0  0  0  0  0  0
  -23.2540  -30.5570   21.6790 C   0  0  0  0  0  3  0  0  0  0  0  0
  -24.6740  -29.0180   20.2210 C   0  0  0  0  0  0  0  0  0  0  0  0
  -25.7740  -30.9180   21.4180 C   0  0  0  0  0  2  0  0  0  0  0  0
  -25.8470  -29.5500   20.7740 C   0  0  0  0  0  0  0  0  0  0  0  0
  -27.0540  -28.8180   20.7230 C   0  0  0  0  0  3  0  0  0  0  0  0
  -25.8840  -27.0030   19.5990 C   0  0  0  0  0  3  0  0  0  0  0  0
  -24.6840  -27.7400   19.6360 C   0  0  0  0  0  3  0  0  0  0  0  0
  -23.4300  -29.8750   20.2940 C   0  0  0  0  0  2  0  0  0  0  0  0
  -24.5320  -31.1540   22.1920 N   0  0  0  0  0  0  0  0  0  0  0  0
  -23.4370  -32.2230   23.8660 O   0  0  0  0  0  0  0  0  0  0  0  0
  -22.6240  -29.5350   22.6510 C   0  0  0  0  0  0  0  0  0  0  0  0
  -21.3050  -29.3130   22.5130 N   0  0  0  0  0  0  0  0  0  0  0  0
  -23.3140  -28.9430   23.4840 O   0  0  0  0  0  0  0  0  0  0  0  0
  -20.8070  -29.8430   21.8110 H   0  0  0  0  0  0  0  0  0  0  0  0
  -17.9740  -27.9900   22.9520 C   0  0  0  0  0  0  0  0  0  0  0  0
  -20.5080  -28.3650   23.2900 C   0  0  0  0  0  3  0  0  0  0  0  0
  -20.6880  -26.9230   22.7640 C   0  0  0  0  0  2  0  0  0  0  0  0
  -19.6310  -26.5220   21.7280 C   0  0  0  0  0  2  0  0  0  0  0  0
  -18.2260  -26.6290   22.3270 C   0  0  0  0  0  2  0  0  0  0  0  0
  -19.0450  -28.8120   23.3890 C   0  0  0  0  0  0  0  0  0  0  0  0
  -18.7570  -30.0830   23.9320 C   0  0  0  0  0  3  0  0  0  0  0  0
  -17.4280  -30.5340   24.0410 C   0  0  0  0  0  3  0  0  0  0  0  0
  -16.3700  -29.7120   23.6200 C   0  0  0  0  0  3  0  0  0  0  0  0
  -16.6420  -28.4410   23.0820 C   0  0  0  0  0  3  0  0  0  0  0  0
  -25.8080  -32.5720   23.8900 C   0  0  0  0  0  3  0  0  0  0  0  0
  -25.5210  -33.9790   24.2020 N   0  0  0  0  0  0  0  0  0  0  0  0
  -25.8750  -35.0160   23.4320 C   0  0  0  0  0  0  0  0  0  0  0  0
  -26.5500  -34.8870   22.4050 O   0  0  0  0  0  0  0  0  0  0  0  0
  -24.9180  -34.1540   24.9930 H   0  0  0  0  0  0  0  0  0  0  0  0
  -24.2000  -36.8470   23.0190 C   0  0  0  0  0  1  0  0  0  0  0  0
  -25.4080  -36.4180   23.8670 C   0  0  0  0  0  3  0  0  0  0  0  0
  -27.5380  -37.2570   24.7550 C   0  0  0  0  0  1  0  0  0  0  0  0
  -26.4680  -37.4450   23.7780 N   0  0  0  0  0  0  0  0  0  0  0  0
  -26.0790  -38.3760   23.9090 H   0  0  0  0  0  0  0  0  0  0  0  0
  -26.3350  -31.8130   25.1690 C   0  0  1  0  0  0  0  0  0  0  0  0
  -25.2550  -31.5940   26.2530 C   0  0  0  0  0  1  0  0  0  0  0  0
  -26.9040  -30.4270   24.7830 C   0  0  0  0  0  1  0  0  0  0  0  0
  -27.4990  -32.6070   25.8070 C   0  0  0  0  0  1  0  0  0  0  0  0
  1  4  1  0
  3  1  1  0
  3  7  1  0
  4 13  1  0
  4  2  1  0
  5  2  1  0
  5  6  1  0
  7  8  1  1
  7  5  1  0
  9 11  1  0
 10 13  1  0
 10 12  2  0
 12 14  1  0
 13  9  2  0
 14 23  1  0
 14 11  2  0
 15 23  1  0
 16 21  1  0
 17 18  1  0
 17 16  1  0
 19 18  1  0
 19 28  1  0
 19 20  1  0
 21 15  1  0
 21 20  1  0
 22 15  2  0
 23 24  1  0
 25 26  2  0
 26 45  1  0
 27 26  1  0
 27 30  1  0
 28 25  1  0
 28 29  1  0
 29 27  2  0
 30 31  1  0
 31 32  2  0
 33 36  1  0
 33 32  1  0
 34 33  2  0
 35 34  1  0
 35 30  2  0
 36 37  1  0
 37 38  1  0
 38 39  2  0
 40 39  1  0
 40 44  1  0
 41 40  2  0
 42 37  2  0
 42 41  1  0
 43 42  1  0
 45 46  1  0
 46 49  1  0
 46 48  1  0
 47 45  2  0
 50 51  1  0
 50 25  1  0
 52 50  1  0
 53  7  1  0
 54 53  1  0
 54 57  1  0
 55 54  1  0
 56 55  1  0
 57 58  1  0
 58 60  1  0
 59 70  2  0
 60 65  1  0
 61 69  1  0
 61 71  1  0
 62 68  1  0
 62 64  1  0
 63 69  1  0
 64 63  1  0
 65 64  2  0
 66 67  1  0
 66 60  2  0
 67 62  2  0
 68 61  1  0
 69 59  1  0
 71 73  2  0
 72 71  1  0
 74 72  1  0
 75 84  2  0
 75 80  1  0
 76 72  1  0
 76 80  1  0
 77 76  1  0
 78 79  1  0
 78 77  1  0
 79 75  1  0
 80 81  2  0
 81 82  1  0
 83 82  2  0
 84 83  1  0
 85 59  1  0
 85 86  1  0
 85 95  1  0
 86 89  1  0
 87 91  1  0
 87 86  1  0
 88 87  2  0
 91 90  1  0
 93 91  1  0
 93 94  1  0
 93 92  1  0
 95 98  1  1
 95 96  1  0
 97 95  1  0
M  ISO  4  15 100  23 100  57 101  58 101
M  END
>  <TORSDO>  (65) 
F 21

>  <SCORE>  (65) 
-14.002

>  <name>  (65) 
64

>  <ligand_id>  (65) 
64

>  <original_smiles>  (65) 
[H]OC([H])(C([H])([H])Oc1c([H])c([H])c2c(c1[H])C([H])([H])N(C(=O)C([H])(N([H])C(=O)C([H])(N([H])C([H])([H])[H])C([H])([H])[H])C(C([H])([H])[H])(C([H])([H])[H])C([H])([H])[H])C([H])(C(=O)N([H])C1([H])c3c([H])c([H])c([H])c([H])c3C([H])([H])C([H])([H])C1([H])[H])C2([H])[H])C([H])([H])[N+]1([H])C([H])([H])C([H])([H])C([H])(c2c([H])c([H])c(N([H])C(=O)N3C([H])([H])C([H])([H])C([H])([H])C([H])(n4nc(-c5c([H])c([H])c(Oc6c([H])c([H])c(F)c([H])c6F)c([H])c5[H])c(C(=O)N([H])[H])c4N([H])[H])C3([H])[H])c([H])c2[H])C([H])([H])C1([H])C([H])([H])[H]

>  <smiles>  (65) 
[H]OC([H])(C([H])([H])Oc1c([H])c([H])c2c(c1[H])C([H])([H])N(C(=O)C([H])(N([H])C(=O)C([H])(N([H])C([H])([H])[H])C([H])([H])[H])C(C([H])([H])[H])(C([H])([H])[H])C([H])([H])[H])C([H])(C(=O)N([H])C1([H])c3c([H])c([H])c([H])c([H])c3C([H])([H])C([H])([H])C1([H])[H])C2([H])[H])C([H])([H])[N+]1([H])C([H])([H])C([H])([H])C([H])(c2c([H])c([H])c(N([H])C(=O)N3C([H])([H])C([H])([H])C([H])([H])C([H])(n4nc(-c5c([H])c([H])c(Oc6c([H])c([H])c(F)c([H])c6F)c([H])c5[H])c(C(=O)N([H])[H])c4N([H])[H])C3([H])[H])c([H])c2[H])C([H])([H])C1([H])C([H])([H])[H]

$$$$
65:0:0
     RDKit          3D

 99108  0  0  1  0  0  0  0  0999 V2000
  -31.5190  -21.6760   19.6740 C   0  0  0  0  0  2  0  0  0  0  0  0
  -30.8800  -22.8770   18.9340 C   0  0  0  0  0  2  0  0  0  0  0  0
  -29.1440  -21.7130   20.1020 C   0  0  0  0  0  2  0  0  0  0  0  0
  -30.3280  -20.7350   19.8650 C   0  0  0  0  0  3  0  0  0  0  0  0
  -29.4570  -22.9860   19.3760 N   0  0  1  0  0  4  0  0  0  0  0  0
  -28.8830  -22.9620   18.5450 H   0  0  0  0  0  0  0  0  0  0  0  0
  -30.9550  -18.2700   22.8670 C   0  0  0  0  0  3  0  0  0  0  0  0
  -30.7300  -17.0250   22.2540 C   0  0  0  0  0  3  0  0  0  0  0  0
  -30.2760  -18.1840   20.1700 C   0  0  0  0  0  3  0  0  0  0  0  0
  -30.8780  -19.4990   22.1660 C   0  0  0  0  0  0  0  0  0  0  0  0
  -30.5000  -19.4710   20.7740 C   0  0  0  0  0  0  0  0  0  0  0  0
  -30.3940  -16.9590   20.8940 C   0  0  0  0  0  0  0  0  0  0  0  0
  -30.7820  -14.5630   20.2170 C   0  0  0  0  0  0  0  0  0  0  0  0
  -30.4490  -12.3600   19.1370 C   0  0  0  0  0  2  0  0  0  0  0  0
  -29.4800  -12.5140   17.9460 C   0  0  0  0  0  2  0  0  0  0  0  0
  -28.0160  -12.3940   18.4130 C   0  0  0  0  0  2  0  0  0  0  0  0
  -27.7010  -13.2730   19.6520 C   0  0  0  0  0  3  0  0  0  0  0  0
  -28.7850  -13.1160   20.7400 C   0  0  0  0  0  2  0  0  0  0  0  0
  -30.0890  -13.3940   20.1180 N   0  0  0  0  0  0  0  0  0  0  0  0
  -31.9720  -14.6560   19.9020 O   0  0  0  0  0  0  0  0  0  0  0  0
  -30.0230  -15.6810   20.3490 N   0  0  0  0  0  0  0  0  0  0  0  0
  -29.0310  -15.5280   20.2550 H   0  0  0  0  0  0  0  0  0  0  0  0
  -25.3470  -13.9160   20.4590 C   0  0  0  0  0  0  0  0  0  0  0  0
  -24.2760  -13.1610   20.8530 C   0  0  0  0  0  0  0  0  0  0  0  0
  -24.7110  -11.8020   20.7970 C   0  0  0  0  0  0  0  0  0  0  0  0
  -26.3640  -13.0170   20.1820 N   0  0  0  0  0  0  0  0  0  0  0  0
  -25.9890  -11.7400   20.4500 N   0  0  0  0  0  0  0  0  0  0  0  0
  -23.9650  -10.5510   20.9950 C   0  0  0  0  0  0  0  0  0  0  0  0
  -24.3940   -9.5740   21.9220 C   0  0  0  0  0  3  0  0  0  0  0  0
  -23.6480   -8.3900   22.1090 C   0  0  0  0  0  3  0  0  0  0  0  0
  -22.4600   -8.1750   21.3690 C   0  0  0  0  0  0  0  0  0  0  0  0
  -22.0530   -9.1390   20.4300 C   0  0  0  0  0  3  0  0  0  0  0  0
  -22.8000  -10.3150   20.2420 C   0  0  0  0  0  3  0  0  0  0  0  0
  -21.6860   -7.0440   21.4660 O   0  0  0  0  0  0  0  0  0  0  0  0
  -21.6230   -6.3110   22.6240 C   0  0  0  0  0  0  0  0  0  0  0  0
  -21.1810   -6.8750   23.8410 C   0  0  0  0  0  3  0  0  0  0  0  0
  -21.0670   -6.0680   24.9900 C   0  0  0  0  0  3  0  0  0  0  0  0
  -21.3860   -4.6970   24.9230 C   0  0  0  0  0  0  0  0  0  0  0  0
  -21.8240   -4.1350   23.7120 C   0  0  0  0  0  3  0  0  0  0  0  0
  -21.9400   -4.9390   22.5640 C   0  0  0  0  0  0  0  0  0  0  0  0
  -22.3400   -4.3870   21.3930 F   0  0  0  0  0  0  0  0  0  0  0  0
  -21.2680   -3.9190   26.0240 F   0  0  0  0  0  0  0  0  0  0  0  0
  -22.8960  -13.6630   21.1680 C   0  0  0  0  0  0  0  0  0  0  0  0
  -22.1720  -12.9670   22.0380 N   0  0  0  0  0  0  0  0  0  0  0  0
  -22.4670  -14.7040   20.6730 O   0  0  0  0  0  0  0  0  0  0  0  0
  -22.5320  -12.1230   22.4620 H   0  0  0  0  0  0  0  0  0  0  0  0
  -21.2450  -13.2850   22.2850 H   0  0  0  0  0  0  0  0  0  0  0  0
  -25.5330  -15.2880   20.2910 N   0  0  0  0  0  0  0  0  0  0  0  0
  -24.7820  -15.9540   20.4400 H   0  0  0  0  0  0  0  0  0  0  0  0
  -26.3760  -15.7200   19.9400 H   0  0  0  0  0  0  0  0  0  0  0  0
  -31.1770  -20.7490   22.9810 C   0  0  0  0  0  0  0  0  0  0  0  0
  -32.1080  -20.6440   23.9230 N   0  0  0  0  0  0  0  0  0  0  0  0
  -30.6310  -21.8320   22.8270 O   0  0  0  0  0  0  0  0  0  0  0  0
  -32.5800  -19.7710   24.0910 H   0  0  0  0  0  0  0  0  0  0  0  0
  -32.3020  -21.4400   24.5110 H   0  0  0  0  0  0  0  0  0  0  0  0
  -29.1260  -24.2530   20.1280 C   0  0  0  0  0  2  0  0  0  0  0  0
  -29.7560  -25.9500   18.2650 C   0  0  0  0  0  1  0  0  0  0  0  0
  -28.6810  -25.4840   19.2630 C   0  0  0  0  0  3  0  0  0  0  0  0
  -28.4050  -26.6310   20.1230 O   0  0  0  0  0  0  0  0  0  0  0  0
  -24.5700  -31.8690   23.1730 C   0  0  0  0  0  0  0  0  0  0  0  0
  -27.2000  -27.3310   20.1160 C   0  0  0  0  0  0  0  0  0  0  0  0
  -23.3520  -30.4320   21.5730 C   0  0  0  0  0  3  0  0  0  0  0  0
  -24.7900  -28.8590   20.1660 C   0  0  0  0  0  0  0  0  0  0  0  0
  -25.8810  -30.7760   21.3400 C   0  0  0  0  0  2  0  0  0  0  0  0
  -25.9590  -29.3860   20.7260 C   0  0  0  0  0  0  0  0  0  0  0  0
  -27.1570  -28.6270   20.7010 C   0  0  0  0  0  3  0  0  0  0  0  0
  -25.9900  -26.8140   19.5920 C   0  0  0  0  0  3  0  0  0  0  0  0
  -24.8010  -27.5690   19.6100 C   0  0  0  0  0  3  0  0  0  0  0  0
  -23.5470  -29.7200   20.2100 C   0  0  0  0  0  2  0  0  0  0  0  0
  -24.6230  -31.0390   22.0880 N   0  0  0  0  0  0  0  0  0  0  0  0
  -23.4920  -32.1490   23.7130 O   0  0  0  0  0  0  0  0  0  0  0  0
  -22.7050  -29.4350   22.5600 C   0  0  0  0  0  0  0  0  0  0  0  0
  -21.3810  -29.2480   22.4500 N   0  0  0  0  0  0  0  0  0  0  0  0
  -23.3960  -28.8220   23.3800 O   0  0  0  0  0  0  0  0  0  0  0  0
  -20.8790  -29.7950   21.7650 H   0  0  0  0  0  0  0  0  0  0  0  0
  -18.0110  -28.0610   22.9930 C   0  0  0  0  0  0  0  0  0  0  0  0
  -20.5700  -28.3270   23.2480 C   0  0  0  0  0  3  0  0  0  0  0  0
  -20.6750  -26.8830   22.7070 C   0  0  0  0  0  2  0  0  0  0  0  0
  -19.5710  -26.5350   21.7050 C   0  0  0  0  0  2  0  0  0  0  0  0
  -18.1900  -26.6940   22.3520 C   0  0  0  0  0  2  0  0  0  0  0  0
  -19.1310  -28.8310   23.4000 C   0  0  0  0  0  0  0  0  0  0  0  0
  -18.9130  -30.1090   23.9590 C   0  0  0  0  0  3  0  0  0  0  0  0
  -17.6100  -30.6120   24.1240 C   0  0  0  0  0  3  0  0  0  0  0  0
  -16.5040  -29.8360   23.7340 C   0  0  0  0  0  3  0  0  0  0  0  0
  -16.7050  -28.5630   23.1710 C   0  0  0  0  0  3  0  0  0  0  0  0
  -25.8610  -32.5140   23.7670 C   0  0  0  0  0  3  0  0  0  0  0  0
  -26.4330  -31.7310   25.0140 C   0  0  1  0  0  0  0  0  0  0  0  0
  -25.3780  -31.4480   26.1090 C   0  0  0  0  0  1  0  0  0  0  0  0
  -27.0310  -30.3760   24.5670 C   0  0  0  0  0  1  0  0  0  0  0  0
  -27.5820  -32.5380   25.6600 C   0  0  0  0  0  1  0  0  0  0  0  0
  -25.5380  -33.9010   24.1310 N   0  0  0  0  0  0  0  0  0  0  0  0
  -25.8360  -34.9730   23.3830 C   0  0  0  0  0  0  0  0  0  0  0  0
  -26.4800  -34.8970   22.3340 O   0  0  0  0  0  0  0  0  0  0  0  0
  -24.9710  -34.0360   24.9550 H   0  0  0  0  0  0  0  0  0  0  0  0
  -24.0810  -36.7460   23.0950 C   0  0  0  0  0  1  0  0  0  0  0  0
  -25.3380  -36.3450   23.8790 C   0  0  0  0  0  3  0  0  0  0  0  0
  -27.4680  -37.2410   24.7020 C   0  0  0  0  0  1  0  0  0  0  0  0
  -26.3540  -37.4120   23.7730 N   0  0  0  0  0  0  0  0  0  0  0  0
  -25.9400  -38.3240   23.9500 H   0  0  0  0  0  0  0  0  0  0  0  0
  1  4  1  0
  2  5  1  0
  2  1  1  0
  4  3  1  0
  4 11  1  0
  5  3  1  0
  5 56  1  0
  5  6  1  6
  8  7  1  0
  9 11  2  0
  9 12  1  0
 10  7  2  0
 10 51  1  0
 11 10  1  0
 12  8  2  0
 13 21  1  0
 14 19  1  0
 15 16  1  0
 15 14  1  0
 17 16  1  0
 17 26  1  0
 17 18  1  0
 19 13  1  0
 19 18  1  0
 20 13  2  0
 21 12  1  0
 22 21  1  0
 23 24  2  0
 24 43  1  0
 25 24  1  0
 25 28  1  0
 26 27  1  0
 26 23  1  0
 27 25  2  0
 28 29  1  0
 29 30  2  0
 31 34  1  0
 31 30  1  0
 32 31  2  0
 33 32  1  0
 33 28  2  0
 34 35  1  0
 35 36  1  0
 36 37  2  0
 38 37  1  0
 38 42  1  0
 39 38  2  0
 40 35  2  0
 40 39  1  0
 41 40  1  0
 43 44  1  0
 44 47  1  0
 44 46  1  0
 45 43  2  0
 48 49  1  0
 48 23  1  0
 50 48  1  0
 51 52  1  0
 52 54  1  0
 52 55  1  0
 53 51  2  0
 58 57  1  0
 58 59  1  0
 58 56  1  0
 60 71  2  0
 61 59  1  0
 61 66  1  0
 62 70  1  0
 62 72  1  0
 63 69  1  0
 63 65  1  0
 64 70  1  0
 65 64  1  0
 66 65  2  0
 67 68  1  0
 67 61  2  0
 68 63  2  0
 69 62  1  0
 70 60  1  0
 72 74  2  0
 73 72  1  0
 75 73  1  0
 76 85  2  0
 76 81  1  0
 77 73  1  0
 77 81  1  0
 78 77  1  0
 79 80  1  0
 79 78  1  0
 80 76  1  0
 81 82  2  0
 82 83  1  0
 84 83  2  0
 85 84  1  0
 86 60  1  0
 86 91  1  0
 86 87  1  0
 87 90  1  1
 87 88  1  0
 89 87  1  0
 91 94  1  0
 92 96  1  0
 92 91  1  0
 93 92  2  0
 96 95  1  0
 98 96  1  0
 98 99  1  0
 98 97  1  0
M  ISO  4  13 100  21 100  58 101  59 101
M  END
>  <TORSDO>  (66) 
F 20

>  <SCORE>  (66) 
-14.170

>  <name>  (66) 
65

>  <ligand_id>  (66) 
65

>  <original_smiles>  (66) 
[H]c1c([H])c([H])c2c(c1[H])C([H])([H])C([H])([H])C([H])([H])C2([H])N([H])C(=O)C1([H])N(C(=O)C([H])(N([H])C(=O)C([H])(N([H])C([H])([H])[H])C([H])([H])[H])C(C([H])([H])[H])(C([H])([H])[H])C([H])([H])[H])C([H])([H])c2c([H])c(OC([H])(C([H])([H])[H])C([H])([H])[N+]3([H])C([H])([H])C([H])([H])C([H])(c4c([H])c(N([H])C(=O)N5C([H])([H])C([H])([H])C([H])([H])C([H])(n6nc(-c7c([H])c([H])c(Oc8c([H])c([H])c(F)c([H])c8F)c([H])c7[H])c(C(=O)N([H])[H])c6N([H])[H])C5([H])[H])c([H])c([H])c4C(=O)N([H])[H])C3([H])[H])c([H])c([H])c2C1([H])[H]

>  <smiles>  (66) 
[H]c1c([H])c([H])c2c(c1[H])C([H])([H])C([H])([H])C([H])([H])C2([H])N([H])C(=O)C1([H])N(C(=O)C([H])(N([H])C(=O)C([H])(N([H])C([H])([H])[H])C([H])([H])[H])C(C([H])([H])[H])(C([H])([H])[H])C([H])([H])[H])C([H])([H])c2c([H])c(OC([H])(C([H])([H])[H])C([H])([H])[N+]3([H])C([H])([H])C([H])([H])C([H])(c4c([H])c(N([H])C(=O)N5C([H])([H])C([H])([H])C([H])([H])C([H])(n6nc(-c7c([H])c([H])c(Oc8c([H])c([H])c(F)c([H])c8F)c([H])c7[H])c(C(=O)N([H])[H])c6N([H])[H])C5([H])[H])c([H])c([H])c4C(=O)N([H])[H])C3([H])[H])c([H])c([H])c2C1([H])[H]

$$$$
66:0:0
     RDKit          3D

 93101  0  0  1  0  0  0  0  0999 V2000
  -28.8910  -22.7410   20.7040 C   0  0  0  0  0  3  0  0  0  0  0  0
  -28.8720  -20.8690   18.7560 C   0  0  0  0  0  3  0  0  0  0  0  0
  -29.0380  -19.6150   18.1060 C   0  0  0  0  0  3  0  0  0  0  0  0
  -29.3740  -19.6720   20.7860 C   0  0  0  0  0  3  0  0  0  0  0  0
  -29.0300  -21.0560   20.1440 C   0  0  0  0  0  0  0  0  0  0  0  0
  -29.3780  -18.3820   18.7380 C   0  0  0  0  0  0  0  0  0  0  0  0
  -29.5790  -18.2660   20.1430 C   0  0  0  0  0  0  0  0  0  0  0  0
  -29.4580  -17.1530   17.8410 C   0  0  0  0  0  1  0  0  0  0  0  0
  -30.5200  -15.4730   20.4590 C   0  0  0  0  0  0  0  0  0  0  0  0
  -30.6020  -12.9920   19.6580 C   0  0  0  0  0  2  0  0  0  0  0  0
  -29.7490  -12.7500   18.3820 C   0  0  0  0  0  2  0  0  0  0  0  0
  -28.2870  -12.4500   18.7610 C   0  0  0  0  0  2  0  0  0  0  0  0
  -27.7680  -13.4120   19.8580 C   0  0  0  0  0  3  0  0  0  0  0  0
  -28.7590  -13.6010   21.0280 C   0  0  0  0  0  2  0  0  0  0  0  0
  -30.0070  -14.1360   20.4570 N   0  0  0  0  0  0  0  0  0  0  0  0
  -31.7270  -15.4940   20.1620 O   0  0  0  0  0  0  0  0  0  0  0  0
  -29.7580  -16.7380   20.7160 N   0  0  0  0  0  0  0  0  0  0  0  0
  -28.9640  -16.5000   21.2970 H   0  0  0  0  0  0  0  0  0  0  0  0
  -25.3620  -13.9250   20.5210 C   0  0  0  0  0  0  0  0  0  0  0  0
  -24.3020  -13.1350   20.8650 C   0  0  0  0  0  0  0  0  0  0  0  0
  -24.7940  -11.7930   20.8590 C   0  0  0  0  0  0  0  0  0  0  0  0
  -26.4290  -13.0670   20.3190 N   0  0  0  0  0  0  0  0  0  0  0  0
  -26.0980  -11.7770   20.5930 N   0  0  0  0  0  0  0  0  0  0  0  0
  -24.0800  -10.5190   21.0390 C   0  0  0  0  0  0  0  0  0  0  0  0
  -24.4900   -9.5710   22.0030 C   0  0  0  0  0  3  0  0  0  0  0  0
  -23.7770   -8.3640   22.1700 C   0  0  0  0  0  3  0  0  0  0  0  0
  -22.6380   -8.0970   21.3730 C   0  0  0  0  0  0  0  0  0  0  0  0
  -22.2490   -9.0330   20.3990 C   0  0  0  0  0  3  0  0  0  0  0  0
  -22.9620  -10.2310   20.2300 C   0  0  0  0  0  3  0  0  0  0  0  0
  -21.8970   -6.9430   21.4490 O   0  0  0  0  0  0  0  0  0  0  0  0
  -21.8020   -6.2200   22.6130 C   0  0  0  0  0  0  0  0  0  0  0  0
  -21.2820   -6.7840   23.7980 C   0  0  0  0  0  3  0  0  0  0  0  0
  -21.1360   -5.9840   24.9500 C   0  0  0  0  0  3  0  0  0  0  0  0
  -21.5020   -4.6270   24.9180 C   0  0  0  0  0  0  0  0  0  0  0  0
  -22.0120   -4.0630   23.7360 C   0  0  0  0  0  3  0  0  0  0  0  0
  -22.1600   -4.8570   22.5850 C   0  0  0  0  0  0  0  0  0  0  0  0
  -22.6340   -4.3030   21.4420 F   0  0  0  0  0  0  0  0  0  0  0  0
  -21.3540   -3.8590   26.0230 F   0  0  0  0  0  0  0  0  0  0  0  0
  -22.8880  -13.5880   21.0770 C   0  0  0  0  0  0  0  0  0  0  0  0
  -22.1340  -12.8870   21.9160 N   0  0  0  0  0  0  0  0  0  0  0  0
  -22.4570  -14.6030   20.5300 O   0  0  0  0  0  0  0  0  0  0  0  0
  -22.4900  -12.0710   22.3910 H   0  0  0  0  0  0  0  0  0  0  0  0
  -21.1820  -13.1790   22.0900 H   0  0  0  0  0  0  0  0  0  0  0  0
  -25.5070  -15.2960   20.3300 N   0  0  0  0  0  0  0  0  0  0  0  0
  -24.7250  -15.9380   20.3920 H   0  0  0  0  0  0  0  0  0  0  0  0
  -26.3510  -15.7330   19.9860 H   0  0  0  0  0  0  0  0  0  0  0  0
  -28.5090  -22.7430   22.2030 C   0  0  0  0  0  2  0  0  0  0  0  0
  -29.5800  -22.2700   23.1000 N   0  0  0  0  0  4  0  0  0  0  0  0
  -29.9600  -21.3950   22.7950 H   0  0  0  0  0  0  0  0  0  0  0  0
  -29.2190  -22.1560   24.0300 H   0  0  0  0  0  0  0  0  0  0  0  0
  -30.3230  -22.9460   23.1490 H   0  0  0  0  0  0  0  0  0  0  0  0
  -28.1070  -24.2580   20.0410 C   0  0  0  0  0  2  0  0  0  0  0  0
  -28.2310  -25.9020   20.3320 O   0  0  0  0  0  0  0  0  0  0  0  0
  -24.5970  -31.9170   23.1620 C   0  0  0  0  0  0  0  0  0  0  0  0
  -27.2210  -27.0080   20.2110 C   0  0  0  0  0  0  0  0  0  0  0  0
  -23.4320  -30.5030   21.5180 C   0  0  0  0  0  3  0  0  0  0  0  0
  -24.9090  -28.8930   20.1210 C   0  0  0  0  0  0  0  0  0  0  0  0
  -26.0010  -30.7200   21.4040 C   0  0  0  0  0  2  0  0  0  0  0  0
  -26.0880  -29.3050   20.7560 C   0  0  0  0  0  0  0  0  0  0  0  0
  -27.2340  -28.3830   20.7770 C   0  0  0  0  0  3  0  0  0  0  0  0
  -26.0170  -26.7620   19.5120 C   0  0  0  0  0  3  0  0  0  0  0  0
  -24.9050  -27.6440   19.4770 C   0  0  0  0  0  3  0  0  0  0  0  0
  -23.6830  -29.8080   20.1510 C   0  0  0  0  0  2  0  0  0  0  0  0
  -24.6970  -31.0760   22.0810 N   0  0  0  0  0  0  0  0  0  0  0  0
  -23.4990  -32.2060   23.6660 O   0  0  0  0  0  0  0  0  0  0  0  0
  -22.7280  -29.5150   22.4830 C   0  0  0  0  0  0  0  0  0  0  0  0
  -21.3940  -29.3670   22.3570 N   0  0  0  0  0  0  0  0  0  0  0  0
  -23.3890  -28.8790   23.3070 O   0  0  0  0  0  0  0  0  0  0  0  0
  -20.9180  -29.9270   21.6640 H   0  0  0  0  0  0  0  0  0  0  0  0
  -17.9930  -28.2230   22.8980 C   0  0  0  0  0  0  0  0  0  0  0  0
  -20.5610  -28.4340   23.1250 C   0  0  0  0  0  3  0  0  0  0  0  0
  -20.6250  -27.0090   22.5260 C   0  0  0  0  0  2  0  0  0  0  0  0
  -19.5030  -26.7280   21.5220 C   0  0  0  0  0  2  0  0  0  0  0  0
  -18.1350  -26.8850   22.1910 C   0  0  0  0  0  2  0  0  0  0  0  0
  -19.1320  -28.9590   23.3220 C   0  0  0  0  0  0  0  0  0  0  0  0
  -18.9440  -30.2100   23.9450 C   0  0  0  0  0  3  0  0  0  0  0  0
  -17.6510  -30.7270   24.1520 C   0  0  0  0  0  3  0  0  0  0  0  0
  -16.5260  -29.9880   23.7440 C   0  0  0  0  0  3  0  0  0  0  0  0
  -16.6990  -28.7390   23.1220 C   0  0  0  0  0  3  0  0  0  0  0  0
  -25.8540  -32.5730   23.8100 C   0  0  0  0  0  3  0  0  0  0  0  0
  -26.3430  -31.8170   25.1080 C   0  0  1  0  0  0  0  0  0  0  0  0
  -25.2270  -31.5830   26.1550 C   0  0  0  0  0  1  0  0  0  0  0  0
  -26.9440  -30.4370   24.7560 C   0  0  0  0  0  1  0  0  0  0  0  0
  -27.4760  -32.6230   25.7870 C   0  0  0  0  0  1  0  0  0  0  0  0
  -25.5220  -33.9730   24.1360 N   0  0  0  0  0  0  0  0  0  0  0  0
  -25.8740  -35.0350   23.4010 C   0  0  0  0  0  0  0  0  0  0  0  0
  -26.5730  -34.9410   22.3890 O   0  0  0  0  0  0  0  0  0  0  0  0
  -24.9000  -34.1170   24.9180 H   0  0  0  0  0  0  0  0  0  0  0  0
  -24.1730  -36.8480   23.0020 C   0  0  0  0  0  1  0  0  0  0  0  0
  -25.3770  -36.4230   23.8570 C   0  0  0  0  0  3  0  0  0  0  0  0
  -27.4780  -37.2910   24.7900 C   0  0  0  0  0  1  0  0  0  0  0  0
  -26.4190  -37.4720   23.8000 N   0  0  0  0  0  0  0  0  0  0  0  0
  -26.0110  -38.3920   23.9350 H   0  0  0  0  0  0  0  0  0  0  0  0
  1 52  1  0
  1 47  1  0
  2  5  1  0
  3  6  1  0
  3  2  2  0
  5  1  1  0
  5  4  2  0
  6  7  2  0
  7 17  1  0
  7  4  1  0
  8  6  1  0
  9 17  1  0
 10 15  1  0
 11 12  1  0
 11 10  1  0
 13 12  1  0
 13 22  1  0
 13 14  1  0
 15  9  1  0
 15 14  1  0
 16  9  2  0
 17 18  1  0
 19 20  2  0
 20 39  1  0
 21 20  1  0
 21 24  1  0
 22 19  1  0
 22 23  1  0
 23 21  2  0
 24 25  1  0
 25 26  2  0
 27 30  1  0
 27 26  1  0
 28 27  2  0
 29 28  1  0
 29 24  2  0
 30 31  1  0
 31 32  1  0
 32 33  2  0
 34 33  1  0
 34 38  1  0
 35 34  2  0
 36 31  2  0
 36 35  1  0
 37 36  1  0
 39 40  1  0
 40 43  1  0
 40 42  1  0
 41 39  2  0
 44 45  1  0
 44 19  1  0
 46 44  1  0
 47 48  1  0
 48 51  1  0
 48 50  1  0
 49 48  1  0
 52 53  1  0
 54 65  2  0
 55 53  1  0
 55 60  1  0
 56 64  1  0
 56 66  1  0
 57 63  1  0
 57 59  1  0
 58 64  1  0
 59 60  2  0
 59 58  1  0
 61 55  2  0
 62 61  1  0
 62 57  2  0
 63 56  1  0
 64 54  1  0
 66 68  2  0
 67 66  1  0
 69 67  1  0
 70 79  2  0
 70 75  1  0
 71 67  1  0
 71 75  1  0
 72 71  1  0
 73 74  1  0
 73 72  1  0
 74 70  1  0
 75 76  2  0
 76 77  1  0
 78 77  2  0
 79 78  1  0
 80 54  1  0
 80 85  1  0
 80 81  1  0
 81 84  1  1
 81 82  1  0
 83 81  1  0
 85 88  1  0
 86 90  1  0
 86 85  1  0
 87 86  2  0
 90 89  1  0
 92 90  1  0
 92 93  1  0
 92 91  1  0
M  ISO  4   9 100  17 100  52 101  53 101
M  END
>  <TORSDO>  (67) 
F 20

>  <SCORE>  (67) 
-15.254

>  <name>  (67) 
66

>  <ligand_id>  (67) 
66

>  <original_smiles>  (67) 
[H]c1c([H])c([H])c2c(c1[H])C([H])([H])C([H])([H])C([H])([H])C2([H])N([H])C(=O)C1([H])N(C(=O)C([H])(N([H])C(=O)C([H])(N([H])C([H])([H])[H])C([H])([H])[H])C(C([H])([H])[H])(C([H])([H])[H])C([H])([H])[H])C([H])([H])c2c([H])c(OC([H])([H])C([H])(c3c([H])c([H])c(C([H])([H])[H])c(N([H])C(=O)N4C([H])([H])C([H])([H])C([H])([H])C([H])(n5nc(-c6c([H])c([H])c(Oc7c([H])c([H])c(F)c([H])c7F)c([H])c6[H])c(C(=O)N([H])[H])c5N([H])[H])C4([H])[H])c3[H])C([H])([H])[N+]([H])([H])[H])c([H])c([H])c2C1([H])[H]

>  <smiles>  (67) 
[H]c1c([H])c([H])c2c(c1[H])C([H])([H])C([H])([H])C([H])([H])C2([H])N([H])C(=O)C1([H])N(C(=O)C([H])(N([H])C(=O)C([H])(N([H])C([H])([H])[H])C([H])([H])[H])C(C([H])([H])[H])(C([H])([H])[H])C([H])([H])[H])C([H])([H])c2c([H])c(OC([H])([H])C([H])(c3c([H])c([H])c(C([H])([H])[H])c(N([H])C(=O)N4C([H])([H])C([H])([H])C([H])([H])C([H])(n5nc(-c6c([H])c([H])c(Oc7c([H])c([H])c(F)c([H])c7F)c([H])c6[H])c(C(=O)N([H])[H])c5N([H])[H])C4([H])[H])c3[H])C([H])([H])[N+]([H])([H])[H])c([H])c([H])c2C1([H])[H]

$$$$
67:0:0
     RDKit          3D

 92100  0  0  1  0  0  0  0  0999 V2000
  -28.0310  -19.6610   20.3380 C   0  0  0  0  0  3  0  0  0  0  0  0
  -30.6020  -18.6690   20.1060 C   0  0  0  0  0  3  0  0  0  0  0  0
  -29.0090  -20.6930   20.1740 C   0  0  0  0  0  0  0  0  0  0  0  0
  -29.5950  -17.6490   20.2740 C   0  0  0  0  0  0  0  0  0  0  0  0
  -30.3300  -20.1130   20.0570 C   0  0  0  0  0  0  0  0  0  0  0  0
  -28.3020  -18.2440   20.3950 C   0  0  0  0  0  0  0  0  0  0  0  0
  -31.3790  -20.9460   19.8590 F   0  0  0  0  0  0  0  0  0  0  0  0
  -27.2520  -17.4060   20.5590 F   0  0  0  0  0  0  0  0  0  0  0  0
  -30.5220  -15.0280   20.0650 C   0  0  0  0  0  0  0  0  0  0  0  0
  -30.3930  -12.7010   19.0680 C   0  0  0  0  0  2  0  0  0  0  0  0
  -29.3880  -12.6940   17.8910 C   0  0  0  0  0  2  0  0  0  0  0  0
  -27.9500  -12.4730   18.3950 C   0  0  0  0  0  2  0  0  0  0  0  0
  -27.6050  -13.3660   19.6160 C   0  0  0  0  0  3  0  0  0  0  0  0
  -28.7190  -13.3210   20.6850 C   0  0  0  0  0  2  0  0  0  0  0  0
  -29.9650  -13.7520   20.0330 N   0  0  0  0  0  0  0  0  0  0  0  0
  -31.6930  -15.1620   19.6930 O   0  0  0  0  0  0  0  0  0  0  0  0
  -29.6680  -16.1170   20.3540 N   0  0  0  0  0  0  0  0  0  0  0  0
  -28.7700  -15.7510   20.6340 H   0  0  0  0  0  0  0  0  0  0  0  0
  -25.2610  -13.9300   20.4820 C   0  0  0  0  0  0  0  0  0  0  0  0
  -24.2130  -13.1460   20.8800 C   0  0  0  0  0  0  0  0  0  0  0  0
  -24.6750  -11.7970   20.7910 C   0  0  0  0  0  0  0  0  0  0  0  0
  -26.2910  -13.0580   20.1690 N   0  0  0  0  0  0  0  0  0  0  0  0
  -25.9500  -11.7680   20.4200 N   0  0  0  0  0  0  0  0  0  0  0  0
  -23.9550  -10.5310   20.9830 C   0  0  0  0  0  0  0  0  0  0  0  0
  -24.3980   -9.5610   21.9080 C   0  0  0  0  0  3  0  0  0  0  0  0
  -23.6750   -8.3610   22.0870 C   0  0  0  0  0  3  0  0  0  0  0  0
  -22.4960   -8.1240   21.3420 C   0  0  0  0  0  0  0  0  0  0  0  0
  -22.0730   -9.0840   20.4050 C   0  0  0  0  0  3  0  0  0  0  0  0
  -22.7950  -10.2750   20.2240 C   0  0  0  0  0  3  0  0  0  0  0  0
  -21.7460   -6.9780   21.4310 O   0  0  0  0  0  0  0  0  0  0  0  0
  -21.6630   -6.2600   22.5970 C   0  0  0  0  0  0  0  0  0  0  0  0
  -21.1410   -6.8230   23.7830 C   0  0  0  0  0  3  0  0  0  0  0  0
  -21.0100   -6.0300   24.9390 C   0  0  0  0  0  3  0  0  0  0  0  0
  -21.3900   -4.6750   24.9120 C   0  0  0  0  0  0  0  0  0  0  0  0
  -21.9050   -4.1120   23.7320 C   0  0  0  0  0  3  0  0  0  0  0  0
  -22.0390   -4.9020   22.5770 C   0  0  0  0  0  0  0  0  0  0  0  0
  -22.5160   -4.3490   21.4360 F   0  0  0  0  0  0  0  0  0  0  0  0
  -21.2570   -3.9110   26.0210 F   0  0  0  0  0  0  0  0  0  0  0  0
  -22.8320  -13.6190   21.2320 C   0  0  0  0  0  0  0  0  0  0  0  0
  -22.1490  -12.9060   22.1200 N   0  0  0  0  0  0  0  0  0  0  0  0
  -22.3710  -14.6560   20.7570 O   0  0  0  0  0  0  0  0  0  0  0  0
  -22.5340  -12.0670   22.5260 H   0  0  0  0  0  0  0  0  0  0  0  0
  -21.2250  -13.2060   22.3990 H   0  0  0  0  0  0  0  0  0  0  0  0
  -25.4080  -15.3040   20.3420 N   0  0  0  0  0  0  0  0  0  0  0  0
  -24.6510  -15.9410   20.5610 H   0  0  0  0  0  0  0  0  0  0  0  0
  -26.2620  -15.7950   20.1060 H   0  0  0  0  0  0  0  0  0  0  0  0
  -28.9570  -23.4760   20.2650 C   0  0  0  0  0  0  0  0  0  0  0  0
  -28.5250  -22.1460   20.0350 N   0  0  0  0  0  0  0  0  0  0  0  0
  -30.0770  -23.7000   20.7280 O   0  0  0  0  0  0  0  0  0  0  0  0
  -27.5650  -22.1770   19.7210 H   0  0  0  0  0  0  0  0  0  0  0  0
  -27.9750  -24.7670   19.9230 C   0  0  0  0  0  2  0  0  0  0  0  0
  -28.2780  -26.2520   20.2720 O   0  0  0  0  0  0  0  0  0  0  0  0
  -24.6370  -31.9150   23.2880 C   0  0  0  0  0  0  0  0  0  0  0  0
  -27.2220  -27.2360   20.2100 C   0  0  0  0  0  0  0  0  0  0  0  0
  -23.4360  -30.5280   21.6430 C   0  0  0  0  0  3  0  0  0  0  0  0
  -24.8850  -28.9700   20.2030 C   0  0  0  0  0  0  0  0  0  0  0  0
  -25.9900  -30.8020   21.4740 C   0  0  0  0  0  2  0  0  0  0  0  0
  -26.0660  -29.4150   20.8130 C   0  0  0  0  0  0  0  0  0  0  0  0
  -27.2330  -28.5640   20.8010 C   0  0  0  0  0  3  0  0  0  0  0  0
  -26.0140  -26.8980   19.5590 C   0  0  0  0  0  3  0  0  0  0  0  0
  -24.8720  -27.7250   19.5590 C   0  0  0  0  0  3  0  0  0  0  0  0
  -23.6540  -29.8600   20.2600 C   0  0  0  0  0  2  0  0  0  0  0  0
  -24.7080  -31.1010   22.1900 N   0  0  0  0  0  0  0  0  0  0  0  0
  -23.5510  -32.1940   23.8190 O   0  0  0  0  0  0  0  0  0  0  0  0
  -22.7620  -29.5130   22.6010 C   0  0  0  0  0  0  0  0  0  0  0  0
  -21.4370  -29.3280   22.4640 N   0  0  0  0  0  0  0  0  0  0  0  0
  -23.4350  -28.8940   23.4290 O   0  0  0  0  0  0  0  0  0  0  0  0
  -20.9510  -29.8790   21.7700 H   0  0  0  0  0  0  0  0  0  0  0  0
  -18.0610  -28.1060   22.9520 C   0  0  0  0  0  0  0  0  0  0  0  0
  -20.6180  -28.3840   23.2300 C   0  0  0  0  0  3  0  0  0  0  0  0
  -20.7310  -26.9530   22.6510 C   0  0  0  0  0  2  0  0  0  0  0  0
  -19.6340  -26.6260   21.6330 C   0  0  0  0  0  2  0  0  0  0  0  0
  -18.2490  -26.7600   22.2720 C   0  0  0  0  0  2  0  0  0  0  0  0
  -19.1730  -28.8750   23.3870 C   0  0  0  0  0  0  0  0  0  0  0  0
  -18.9420  -30.1330   23.9850 C   0  0  0  0  0  3  0  0  0  0  0  0
  -17.6330  -30.6230   24.1500 C   0  0  0  0  0  3  0  0  0  0  0  0
  -16.5360  -29.8520   23.7300 C   0  0  0  0  0  3  0  0  0  0  0  0
  -16.7500  -28.5950   23.1370 C   0  0  0  0  0  3  0  0  0  0  0  0
  -25.9160  -32.5500   23.9150 C   0  0  0  0  0  3  0  0  0  0  0  0
  -25.6080  -33.9510   24.2390 N   0  0  0  0  0  0  0  0  0  0  0  0
  -25.9220  -35.0000   23.4660 C   0  0  0  0  0  0  0  0  0  0  0  0
  -26.5680  -34.8890   22.4210 O   0  0  0  0  0  0  0  0  0  0  0  0
  -25.0340  -34.1110   25.0530 H   0  0  0  0  0  0  0  0  0  0  0  0
  -24.1770  -36.7850   23.1520 C   0  0  0  0  0  1  0  0  0  0  0  0
  -25.4460  -36.3930   23.9260 C   0  0  0  0  0  3  0  0  0  0  0  0
  -27.5970  -37.3030   24.6860 C   0  0  0  0  0  1  0  0  0  0  0  0
  -26.4710  -37.4480   23.7670 N   0  0  0  0  0  0  0  0  0  0  0  0
  -26.0640  -38.3690   23.9050 H   0  0  0  0  0  0  0  0  0  0  0  0
  -26.4170  -31.7860   25.2030 C   0  0  1  0  0  0  0  0  0  0  0  0
  -25.3120  -31.5570   26.2600 C   0  0  0  0  0  1  0  0  0  0  0  0
  -27.0030  -30.4050   24.8300 C   0  0  0  0  0  1  0  0  0  0  0  0
  -27.5610  -32.5830   25.8720 C   0  0  0  0  0  1  0  0  0  0  0  0
  1  6  1  0
  2  4  1  0
  3  1  2  0
  4 17  1  0
  4  6  2  0
  5  2  2  0
  5  3  1  0
  6  8  1  0
  7  5  1  0
  9 17  1  0
 10 15  1  0
 11 12  1  0
 11 10  1  0
 13 12  1  0
 13 22  1  0
 13 14  1  0
 15  9  1  0
 15 14  1  0
 16  9  2  0
 17 18  1  0
 19 20  2  0
 20 39  1  0
 21 20  1  0
 21 24  1  0
 22 23  1  0
 22 19  1  0
 23 21  2  0
 24 25  1  0
 25 26  2  0
 27 30  1  0
 27 26  1  0
 28 27  2  0
 29 28  1  0
 29 24  2  0
 30 31  1  0
 31 32  1  0
 32 33  2  0
 34 33  1  0
 34 38  1  0
 35 34  2  0
 36 31  2  0
 36 35  1  0
 37 36  1  0
 39 40  1  0
 40 43  1  0
 40 42  1  0
 41 39  2  0
 44 19  1  0
 44 45  1  0
 46 44  1  0
 47 49  2  0
 48  3  1  0
 48 47  1  0
 50 48  1  0
 51 47  1  0
 51 52  1  0
 53 64  2  0
 54 52  1  0
 54 59  1  0
 55 63  1  0
 55 65  1  0
 56 62  1  0
 56 58  1  0
 57 63  1  0
 58 57  1  0
 59 58  2  0
 60 54  2  0
 61 60  1  0
 61 56  2  0
 62 55  1  0
 63 53  1  0
 65 67  2  0
 66 65  1  0
 68 66  1  0
 69 78  2  0
 69 74  1  0
 70 66  1  0
 70 74  1  0
 71 70  1  0
 72 73  1  0
 72 71  1  0
 73 69  1  0
 74 75  2  0
 75 76  1  0
 77 76  2  0
 78 77  1  0
 79 53  1  0
 79 80  1  0
 79 89  1  0
 80 83  1  0
 81 85  1  0
 81 80  1  0
 82 81  2  0
 85 84  1  0
 87 88  1  0
 87 85  1  0
 87 86  1  0
 89 92  1  1
 89 90  1  0
 91 89  1  0
M  ISO  4   9 100  17 100  51 101  52 101
M  END
>  <TORSDO>  (68) 
F 18

>  <SCORE>  (68) 
-14.810

>  <name>  (68) 
67

>  <ligand_id>  (68) 
67

>  <original_smiles>  (68) 
[H]c1c([H])c([H])c2c(c1[H])C([H])([H])C([H])([H])C([H])([H])C2([H])N([H])C(=O)C1([H])N(C(=O)C([H])(N([H])C(=O)C([H])(N([H])C([H])([H])[H])C([H])([H])[H])C(C([H])([H])[H])(C([H])([H])[H])C([H])([H])[H])C([H])([H])c2c([H])c(OC([H])([H])C(=O)N([H])c3c([H])c(F)c(N([H])C(=O)N4C([H])([H])C([H])([H])C([H])([H])C([H])(n5nc(-c6c([H])c([H])c(Oc7c([H])c([H])c(F)c([H])c7F)c([H])c6[H])c(C(=O)N([H])[H])c5N([H])[H])C4([H])[H])c([H])c3F)c([H])c([H])c2C1([H])[H]

>  <smiles>  (68) 
[H]c1c([H])c([H])c2c(c1[H])C([H])([H])C([H])([H])C([H])([H])C2([H])N([H])C(=O)C1([H])N(C(=O)C([H])(N([H])C(=O)C([H])(N([H])C([H])([H])[H])C([H])([H])[H])C(C([H])([H])[H])(C([H])([H])[H])C([H])([H])[H])C([H])([H])c2c([H])c(OC([H])([H])C(=O)N([H])c3c([H])c(F)c(N([H])C(=O)N4C([H])([H])C([H])([H])C([H])([H])C([H])(n5nc(-c6c([H])c([H])c(Oc7c([H])c([H])c(F)c([H])c7F)c([H])c6[H])c(C(=O)N([H])[H])c5N([H])[H])C4([H])[H])c([H])c3F)c([H])c([H])c2C1([H])[H]

$$$$
68:0:0
     RDKit          3D

 92100  0  0  1  0  0  0  0  0999 V2000
  -28.7380  -21.9330   21.4230 C   0  0  0  0  0  2  0  0  0  0  0  0
  -28.4430  -24.3420   20.7440 C   0  0  0  0  0  0  0  0  0  0  0  0
  -30.5840  -23.5970   21.7330 C   0  0  0  0  0  1  0  0  0  0  0  0
  -29.2310  -23.3340   21.2290 N   0  0  0  0  0  0  0  0  0  0  0  0
  -27.3760  -24.0920   20.1700 O   0  0  0  0  0  0  0  0  0  0  0  0
  -28.8160  -25.8460   20.9980 C   0  0  0  0  0  2  0  0  0  0  0  0
  -28.4820  -26.7360   19.9080 O   0  0  0  0  0  0  0  0  0  0  0  0
  -24.6210  -31.8140   23.2170 C   0  0  0  0  0  0  0  0  0  0  0  0
  -27.3220  -27.4790   20.0170 C   0  0  0  0  0  0  0  0  0  0  0  0
  -23.4400  -30.4540   21.5230 C   0  0  0  0  0  3  0  0  0  0  0  0
  -24.9190  -28.9760   20.0610 C   0  0  0  0  0  0  0  0  0  0  0  0
  -25.9650  -30.8400   21.3530 C   0  0  0  0  0  2  0  0  0  0  0  0
  -26.0700  -29.4850   20.6790 C   0  0  0  0  0  0  0  0  0  0  0  0
  -27.2760  -28.7410   20.6600 C   0  0  0  0  0  3  0  0  0  0  0  0
  -26.1580  -26.9910   19.3910 C   0  0  0  0  0  3  0  0  0  0  0  0
  -24.9570  -27.7260   19.4190 C   0  0  0  0  0  3  0  0  0  0  0  0
  -23.6700  -29.8280   20.1220 C   0  0  0  0  0  2  0  0  0  0  0  0
  -24.6940  -31.0500   22.0910 N   0  0  0  0  0  0  0  0  0  0  0  0
  -23.5340  -32.0550   23.7600 O   0  0  0  0  0  0  0  0  0  0  0  0
  -22.7970  -29.3930   22.4440 C   0  0  0  0  0  0  0  0  0  0  0  0
  -21.4760  -29.1970   22.3010 N   0  0  0  0  0  0  0  0  0  0  0  0
  -23.4830  -28.7530   23.2450 O   0  0  0  0  0  0  0  0  0  0  0  0
  -20.9840  -29.7670   21.6280 H   0  0  0  0  0  0  0  0  0  0  0  0
  -18.1190  -27.9250   22.7240 C   0  0  0  0  0  0  0  0  0  0  0  0
  -20.6680  -28.2220   23.0340 C   0  0  0  0  0  3  0  0  0  0  0  0
  -20.8060  -26.8100   22.4160 C   0  0  0  0  0  2  0  0  0  0  0  0
  -19.7210  -26.4970   21.3820 C   0  0  0  0  0  2  0  0  0  0  0  0
  -18.3300  -26.5990   22.0130 C   0  0  0  0  0  2  0  0  0  0  0  0
  -19.2190  -28.6940   23.1900 C   0  0  0  0  0  0  0  0  0  0  0  0
  -18.9720  -29.9360   23.8140 C   0  0  0  0  0  3  0  0  0  0  0  0
  -17.6560  -30.4070   23.9820 C   0  0  0  0  0  3  0  0  0  0  0  0
  -16.5710  -29.6350   23.5340 C   0  0  0  0  0  3  0  0  0  0  0  0
  -16.8030  -28.3970   22.9070 C   0  0  0  0  0  3  0  0  0  0  0  0
  -25.8960  -32.4390   23.8650 C   0  0  0  0  0  3  0  0  0  0  0  0
  -26.4220  -31.6280   25.1130 C   0  0  1  0  0  0  0  0  0  0  0  0
  -25.3320  -31.3360   26.1710 C   0  0  0  0  0  1  0  0  0  0  0  0
  -27.0220  -30.2730   24.6700 C   0  0  0  0  0  1  0  0  0  0  0  0
  -27.5580  -32.4140   25.8090 C   0  0  0  0  0  1  0  0  0  0  0  0
  -25.5680  -33.8210   24.2410 N   0  0  0  0  0  0  0  0  0  0  0  0
  -25.8860  -34.9020   23.5180 C   0  0  0  0  0  0  0  0  0  0  0  0
  -26.5580  -34.8430   22.4840 O   0  0  0  0  0  0  0  0  0  0  0  0
  -24.9680  -33.9410   25.0440 H   0  0  0  0  0  0  0  0  0  0  0  0
  -24.1310  -36.6830   23.2230 C   0  0  0  0  0  1  0  0  0  0  0  0
  -25.3790  -36.2680   24.0190 C   0  0  0  0  0  3  0  0  0  0  0  0
  -27.5010  -37.1600   24.8750 C   0  0  0  0  0  1  0  0  0  0  0  0
  -26.3940  -37.3410   23.9390 N   0  0  0  0  0  0  0  0  0  0  0  0
  -25.9740  -38.2490   24.1190 H   0  0  0  0  0  0  0  0  0  0  0  0
  -29.3480  -20.7880   20.5510 C   0  0  0  0  0  0  0  0  0  0  0  0
  -28.3980  -19.0980   22.0990 C   0  0  0  0  0  1  0  0  0  0  0  0
  -29.1800  -19.4690   20.9120 N   0  0  0  0  0  0  0  0  0  0  0  0
  -29.9740  -21.1060   19.5340 O   0  0  0  0  0  0  0  0  0  0  0  0
  -30.6520  -14.7110   19.9210 C   0  0  0  0  0  0  0  0  0  0  0  0
  -30.3340  -12.4880   18.8940 C   0  0  0  0  0  2  0  0  0  0  0  0
  -29.3160  -12.6400   17.7470 C   0  0  0  0  0  2  0  0  0  0  0  0
  -27.8730  -12.4910   18.2720 C   0  0  0  0  0  2  0  0  0  0  0  0
  -27.5980  -13.3300   19.5490 C   0  0  0  0  0  3  0  0  0  0  0  0
  -28.7390  -13.1960   20.5820 C   0  0  0  0  0  2  0  0  0  0  0  0
  -29.9990  -13.5100   19.8970 N   0  0  0  0  0  0  0  0  0  0  0  0
  -31.8330  -14.8130   19.5820 O   0  0  0  0  0  0  0  0  0  0  0  0
  -28.8460  -17.8230   19.0370 C   0  0  0  0  0  2  0  0  0  0  0  0
  -29.3970  -16.4250   18.7300 C   0  0  0  0  0  2  0  0  0  0  0  0
  -30.1860  -17.0010   20.8650 C   0  0  0  0  0  2  0  0  0  0  0  0
  -29.7740  -18.3320   20.1290 C   0  0  0  0  0  3  0  0  0  0  0  0
  -29.8680  -15.8330   19.9960 N   0  0  0  0  0  0  0  0  0  0  0  0
  -25.2740  -13.9220   20.4570 C   0  0  0  0  0  0  0  0  0  0  0  0
  -24.2280  -13.1440   20.8760 C   0  0  0  0  0  0  0  0  0  0  0  0
  -24.6780  -11.7910   20.7720 C   0  0  0  0  0  0  0  0  0  0  0  0
  -26.2920  -13.0410   20.1260 N   0  0  0  0  0  0  0  0  0  0  0  0
  -25.9450  -11.7530   20.3750 N   0  0  0  0  0  0  0  0  0  0  0  0
  -23.9580  -10.5280   20.9720 C   0  0  0  0  0  0  0  0  0  0  0  0
  -24.4150   -9.5560   21.8880 C   0  0  0  0  0  3  0  0  0  0  0  0
  -23.6980   -8.3560   22.0760 C   0  0  0  0  0  3  0  0  0  0  0  0
  -22.5070   -8.1200   21.3490 C   0  0  0  0  0  0  0  0  0  0  0  0
  -22.0690   -9.0810   20.4210 C   0  0  0  0  0  3  0  0  0  0  0  0
  -22.7870  -10.2720   20.2300 C   0  0  0  0  0  3  0  0  0  0  0  0
  -21.7560   -6.9740   21.4490 O   0  0  0  0  0  0  0  0  0  0  0  0
  -21.6850   -6.2610   22.6200 C   0  0  0  0  0  0  0  0  0  0  0  0
  -21.2270   -6.8440   23.8220 C   0  0  0  0  0  3  0  0  0  0  0  0
  -21.1040   -6.0560   24.9840 C   0  0  0  0  0  3  0  0  0  0  0  0
  -21.4270   -4.6860   24.9450 C   0  0  0  0  0  0  0  0  0  0  0  0
  -21.8790   -4.1040   23.7480 C   0  0  0  0  0  3  0  0  0  0  0  0
  -22.0050   -4.8890   22.5890 C   0  0  0  0  0  0  0  0  0  0  0  0
  -22.4190   -4.3160   21.4320 F   0  0  0  0  0  0  0  0  0  0  0  0
  -21.3020   -3.9270   26.0590 F   0  0  0  0  0  0  0  0  0  0  0  0
  -22.8560  -13.6200   21.2560 C   0  0  0  0  0  0  0  0  0  0  0  0
  -22.1800  -12.9060   22.1490 N   0  0  0  0  0  0  0  0  0  0  0  0
  -22.3910  -14.6620   20.7940 O   0  0  0  0  0  0  0  0  0  0  0  0
  -22.5690  -12.0670   22.5520 H   0  0  0  0  0  0  0  0  0  0  0  0
  -21.2590  -13.2090   22.4330 H   0  0  0  0  0  0  0  0  0  0  0  0
  -25.4380  -15.2970   20.3090 N   0  0  0  0  0  0  0  0  0  0  0  0
  -24.6930  -15.9560   20.5000 H   0  0  0  0  0  0  0  0  0  0  0  0
  -26.2840  -15.7410   19.9730 H   0  0  0  0  0  0  0  0  0  0  0  0
  2  6  1  0
  2  4  1  0
  4  1  1  0
  4  3  1  0
  5  2  2  0
  7  9  1  0
  7  6  1  0
  8 19  2  0
  9 14  1  0
 10 18  1  0
 10 20  1  0
 11 17  1  0
 11 13  1  0
 12 18  1  0
 13 12  1  0
 14 13  2  0
 15 16  1  0
 15  9  2  0
 16 11  2  0
 17 10  1  0
 18  8  1  0
 20 22  2  0
 21 20  1  0
 23 21  1  0
 24 33  2  0
 24 29  1  0
 25 21  1  0
 25 29  1  0
 26 25  1  0
 27 28  1  0
 27 26  1  0
 28 24  1  0
 29 30  2  0
 30 31  1  0
 32 31  2  0
 33 32  1  0
 34  8  1  0
 34 39  1  0
 34 35  1  0
 35 38  1  1
 35 36  1  0
 37 35  1  0
 39 42  1  0
 40 44  1  0
 40 39  1  0
 41 40  2  0
 44 43  1  0
 46 44  1  0
 46 47  1  0
 46 45  1  0
 48 50  1  0
 48  1  1  0
 50 49  1  0
 51 48  2  0
 52 64  1  0
 53 58  1  0
 54 55  1  0
 54 53  1  0
 56 55  1  0
 56 68  1  0
 56 57  1  0
 58 52  1  0
 58 57  1  0
 59 52  2  0
 60 63  1  0
 61 60  1  0
 61 64  1  0
 63 62  1  0
 63 50  1  0
 64 62  1  0
 65 66  2  0
 66 85  1  0
 67 66  1  0
 67 70  1  0
 68 69  1  0
 68 65  1  0
 69 67  2  0
 70 71  1  0
 71 72  2  0
 73 76  1  0
 73 72  1  0
 74 73  2  0
 75 74  1  0
 75 70  2  0
 76 77  1  0
 77 78  1  0
 78 79  2  0
 80 79  1  0
 80 84  1  0
 81 80  2  0
 82 77  2  0
 82 81  1  0
 83 82  1  0
 85 86  1  0
 86 89  1  0
 86 88  1  0
 87 85  2  0
 90 65  1  0
 90 91  1  0
 92 90  1  0
M  ISO  4   6 101   7 101  52 100  64 100
M  END
>  <TORSDO>  (69) 
F 19

>  <SCORE>  (69) 
-10.972

>  <name>  (69) 
68

>  <ligand_id>  (69) 
68

>  <original_smiles>  (69) 
[H]c1c([H])c([H])c2c(c1[H])C([H])([H])C([H])([H])C([H])([H])C2([H])N([H])C(=O)C1([H])N(C(=O)C([H])(N([H])C(=O)C([H])(N([H])C([H])([H])[H])C([H])([H])[H])C(C([H])([H])[H])(C([H])([H])[H])C([H])([H])[H])C([H])([H])c2c([H])c(OC([H])([H])C(=O)N(C([H])([H])[H])C([H])([H])C(=O)N(C([H])([H])[H])C3([H])C([H])([H])N(C(=O)N4C([H])([H])C([H])([H])C([H])([H])C([H])(n5nc(-c6c([H])c([H])c(Oc7c([H])c([H])c(F)c([H])c7F)c([H])c6[H])c(C(=O)N([H])[H])c5N([H])[H])C4([H])[H])C([H])([H])C3([H])[H])c([H])c([H])c2C1([H])[H]

>  <smiles>  (69) 
[H]c1c([H])c([H])c2c(c1[H])C([H])([H])C([H])([H])C([H])([H])C2([H])N([H])C(=O)C1([H])N(C(=O)C([H])(N([H])C(=O)C([H])(N([H])C([H])([H])[H])C([H])([H])[H])C(C([H])([H])[H])(C([H])([H])[H])C([H])([H])[H])C([H])([H])c2c([H])c(OC([H])([H])C(=O)N(C([H])([H])[H])C([H])([H])C(=O)N(C([H])([H])[H])C3([H])C([H])([H])N(C(=O)N4C([H])([H])C([H])([H])C([H])([H])C([H])(n5nc(-c6c([H])c([H])c(Oc7c([H])c([H])c(F)c([H])c7F)c([H])c6[H])c(C(=O)N([H])[H])c5N([H])[H])C4([H])[H])C([H])([H])C3([H])[H])c([H])c([H])c2C1([H])[H]

$$$$
69:0:0
     RDKit          3D

103112  0  0  1  0  0  0  0  0999 V2000
  -28.7500  -21.8870   23.3870 C   0  0  0  0  0  2  0  0  0  0  0  0
  -28.6470  -22.3450   20.8270 C   0  0  0  0  0  2  0  0  0  0  0  0
  -27.7720  -24.1020   22.4530 C   0  0  0  0  0  2  0  0  0  0  0  0
  -29.3780  -23.5690   20.2340 C   0  0  0  0  0  2  0  0  0  0  0  0
  -29.0170  -24.9930   22.2530 C   0  0  0  0  0  2  0  0  0  0  0  0
  -28.0240  -22.5980   22.2200 C   0  0  0  0  0  3  0  0  0  0  0  0
  -29.9940  -24.4390   21.2780 N   0  0  2  0  0  4  0  0  0  0  0  0
  -30.5300  -23.7900   21.8430 H   0  0  0  0  0  0  0  0  0  0  0  0
  -30.9680  -25.4620   20.7680 C   0  0  0  0  0  2  0  0  0  0  0  0
  -31.3800  -26.5490   18.4770 C   0  0  0  0  0  1  0  0  0  0  0  0
  -30.4140  -26.4020   19.6580 C   0  0  0  0  0  3  0  0  0  0  0  0
  -30.1030  -27.7270   20.1390 O   0  0  0  0  0  0  0  0  0  0  0  0
  -24.9680  -31.4140   23.4000 C   0  0  0  0  0  0  0  0  0  0  0  0
  -28.7890  -28.1650   20.0640 C   0  0  0  0  0  0  0  0  0  0  0  0
  -24.2360  -29.9740   21.5340 C   0  0  0  0  0  3  0  0  0  0  0  0
  -26.0930  -29.0450   20.0610 C   0  0  0  0  0  0  0  0  0  0  0  0
  -26.6020  -30.9600   21.5780 C   0  0  0  0  0  2  0  0  0  0  0  0
  -27.0570  -29.7460   20.7940 C   0  0  0  0  0  0  0  0  0  0  0  0
  -28.4040  -29.3130   20.7980 C   0  0  0  0  0  3  0  0  0  0  0  0
  -27.7960  -27.5030   19.2960 C   0  0  0  0  0  3  0  0  0  0  0  0
  -26.4580  -27.9200   19.3110 C   0  0  0  0  0  3  0  0  0  0  0  0
  -24.6720  -29.5550   20.1070 C   0  0  0  0  0  2  0  0  0  0  0  0
  -25.2810  -30.7940   22.2290 N   0  0  0  0  0  0  0  0  0  0  0  0
  -23.8280  -31.3410   23.8790 O   0  0  0  0  0  0  0  0  0  0  0  0
  -23.8280  -28.7070   22.3200 C   0  0  0  0  0  0  0  0  0  0  0  0
  -22.6230  -28.1860   22.0330 N   0  0  0  0  0  0  0  0  0  0  0  0
  -24.5930  -28.2030   23.1470 O   0  0  0  0  0  0  0  0  0  0  0  0
  -22.0570  -28.6620   21.3450 H   0  0  0  0  0  0  0  0  0  0  0  0
  -19.6990  -26.0640   22.0440 C   0  0  0  0  0  0  0  0  0  0  0  0
  -22.0440  -26.9820   22.6260 C   0  0  0  0  0  3  0  0  0  0  0  0
  -22.6000  -25.7070   21.9530 C   0  0  0  0  0  2  0  0  0  0  0  0
  -21.7280  -25.2070   20.7960 C   0  0  0  0  0  2  0  0  0  0  0  0
  -20.3110  -24.8970   21.2860 C   0  0  0  0  0  2  0  0  0  0  0  0
  -20.5130  -27.0510   22.6590 C   0  0  0  0  0  0  0  0  0  0  0  0
  -19.8940  -28.1350   23.3200 C   0  0  0  0  0  3  0  0  0  0  0  0
  -18.4920  -28.2400   23.3730 C   0  0  0  0  0  3  0  0  0  0  0  0
  -17.6910  -27.2500   22.7780 C   0  0  0  0  0  3  0  0  0  0  0  0
  -18.2940  -26.1640   22.1180 C   0  0  0  0  0  3  0  0  0  0  0  0
  -26.0190  -32.2650   24.1770 C   0  0  0  0  0  3  0  0  0  0  0  0
  -26.4780  -31.5980   25.5300 C   0  0  1  0  0  0  0  0  0  0  0  0
  -25.3040  -31.1550   26.4340 C   0  0  0  0  0  1  0  0  0  0  0  0
  -27.3570  -30.3540   25.2580 C   0  0  0  0  0  1  0  0  0  0  0  0
  -27.3570  -32.5890   26.3310 C   0  0  0  0  0  1  0  0  0  0  0  0
  -25.4230  -33.5840   24.4260 N   0  0  0  0  0  0  0  0  0  0  0  0
  -25.6650  -34.6790   23.6950 C   0  0  0  0  0  0  0  0  0  0  0  0
  -26.4840  -34.6990   22.7710 O   0  0  0  0  0  0  0  0  0  0  0  0
  -24.7030  -33.6300   25.1330 H   0  0  0  0  0  0  0  0  0  0  0  0
  -23.7060  -36.1220   23.0600 C   0  0  0  0  0  1  0  0  0  0  0  0
  -24.8760  -35.9560   24.0440 C   0  0  0  0  0  3  0  0  0  0  0  0
  -26.6850  -37.2110   25.1270 C   0  0  0  0  0  1  0  0  0  0  0  0
  -25.7070  -37.1790   24.0430 N   0  0  0  0  0  0  0  0  0  0  0  0
  -25.1250  -38.0100   24.1180 H   0  0  0  0  0  0  0  0  0  0  0  0
  -30.9620  -22.2080   24.4680 C   0  0  0  0  0  1  0  0  0  0  0  0
  -30.2140  -21.8710   23.2610 N   0  0  0  0  0  0  0  0  0  0  0  0
  -31.4070  -18.3340   22.9020 C   0  0  0  0  0  3  0  0  0  0  0  0
  -30.8650  -19.4980   23.4790 C   0  0  0  0  0  3  0  0  0  0  0  0
  -31.1150  -20.6600   21.3610 C   0  0  0  0  0  3  0  0  0  0  0  0
  -31.8230  -18.3270   21.5540 C   0  0  0  0  0  0  0  0  0  0  0  0
  -31.6500  -19.4970   20.7620 C   0  0  0  0  0  0  0  0  0  0  0  0
  -30.7200  -20.6750   22.7120 C   0  0  0  0  0  0  0  0  0  0  0  0
  -32.0480  -19.5460   19.2870 C   0  0  1  0  0  0  0  0  0  0  0  0
  -31.6540  -20.6840   18.7100 F   0  0  0  0  0  0  0  0  0  0  0  0
  -33.3730  -19.4670   19.1650 F   0  0  0  0  0  0  0  0  0  0  0  0
  -31.4820  -18.5450   18.6140 F   0  0  0  0  0  0  0  0  0  0  0  0
  -32.5260  -17.0790   21.0320 C   0  0  0  0  0  2  0  0  0  0  0  0
  -31.9320  -15.0200   19.8000 C   0  0  0  0  0  0  0  0  0  0  0  0
  -31.4680  -12.7560   18.9470 C   0  0  0  0  0  2  0  0  0  0  0  0
  -30.4830  -12.7700   17.7660 C   0  0  0  0  0  2  0  0  0  0  0  0
  -29.0330  -12.7210   18.2760 C   0  0  0  0  0  2  0  0  0  0  0  0
  -28.7540  -13.7760   19.3790 C   0  0  0  0  0  3  0  0  0  0  0  0
  -29.8480  -13.7520   20.4700 C   0  0  0  0  0  2  0  0  0  0  0  0
  -31.1640  -13.8990   19.8230 N   0  0  0  0  0  0  0  0  0  0  0  0
  -32.9040  -15.1440   19.0540 O   0  0  0  0  0  0  0  0  0  0  0  0
  -31.6410  -15.9560   20.7140 N   0  0  0  0  0  0  0  0  0  0  0  0
  -30.8440  -15.7970   21.3100 H   0  0  0  0  0  0  0  0  0  0  0  0
  -26.4920  -14.5640   20.3240 C   0  0  0  0  0  0  0  0  0  0  0  0
  -25.3780  -13.8770   20.7260 C   0  0  0  0  0  0  0  0  0  0  0  0
  -25.6880  -12.4920   20.5620 C   0  0  0  0  0  0  0  0  0  0  0  0
  -27.4180  -13.6040   19.9480 N   0  0  0  0  0  0  0  0  0  0  0  0
  -26.9400  -12.3470   20.1450 N   0  0  0  0  0  0  0  0  0  0  0  0
  -24.8470  -11.2990   20.7230 C   0  0  0  0  0  0  0  0  0  0  0  0
  -25.1900  -10.2710   21.6300 C   0  0  0  0  0  3  0  0  0  0  0  0
  -24.3550   -9.1430   21.7810 C   0  0  0  0  0  3  0  0  0  0  0  0
  -23.1640   -9.0330   21.0230 C   0  0  0  0  0  0  0  0  0  0  0  0
  -22.8410  -10.0480   20.1060 C   0  0  0  0  0  3  0  0  0  0  0  0
  -23.6740  -11.1690   19.9530 C   0  0  0  0  0  3  0  0  0  0  0  0
  -22.3070   -7.9610   21.0850 O   0  0  0  0  0  0  0  0  0  0  0  0
  -22.0780   -7.2900   22.2590 C   0  0  0  0  0  0  0  0  0  0  0  0
  -21.5890   -7.9450   23.4090 C   0  0  0  0  0  3  0  0  0  0  0  0
  -21.3010   -7.2030   24.5730 C   0  0  0  0  0  3  0  0  0  0  0  0
  -21.4930   -5.8090   24.5850 C   0  0  0  0  0  0  0  0  0  0  0  0
  -21.9740   -5.1540   23.4380 C   0  0  0  0  0  3  0  0  0  0  0  0
  -22.2630   -5.8920   22.2780 C   0  0  0  0  0  0  0  0  0  0  0  0
  -22.7070   -5.2530   21.1690 F   0  0  0  0  0  0  0  0  0  0  0  0
  -21.2090   -5.0960   25.7010 F   0  0  0  0  0  0  0  0  0  0  0  0
  -24.0640  -14.4700   21.1490 C   0  0  0  0  0  0  0  0  0  0  0  0
  -23.3480  -13.7990   22.0430 N   0  0  0  0  0  0  0  0  0  0  0  0
  -23.6890  -15.5610   20.7210 O   0  0  0  0  0  0  0  0  0  0  0  0
  -23.6670  -12.9140   22.4100 H   0  0  0  0  0  0  0  0  0  0  0  0
  -22.4680  -14.1740   22.3660 H   0  0  0  0  0  0  0  0  0  0  0  0
  -26.7870  -15.9220   20.2290 N   0  0  0  0  0  0  0  0  0  0  0  0
  -26.1050  -16.6390   20.4460 H   0  0  0  0  0  0  0  0  0  0  0  0
  -27.6600  -16.2950   19.8790 H   0  0  0  0  0  0  0  0  0  0  0  0
  2  6  1  0
  4  2  1  0
  4  7  1  0
  5  3  1  0
  6  3  1  0
  6  1  1  0
  7  8  1  1
  7  5  1  0
  9  7  1  0
 11 10  1  0
 11 12  1  0
 11  9  1  0
 13 24  2  0
 14 12  1  0
 14 19  1  0
 15 23  1  0
 15 25  1  0
 16 22  1  0
 16 18  1  0
 17 23  1  0
 18 19  2  0
 18 17  1  0
 20 21  1  0
 20 14  2  0
 21 16  2  0
 22 15  1  0
 23 13  1  0
 25 27  2  0
 26 25  1  0
 28 26  1  0
 29 38  2  0
 29 34  1  0
 30 26  1  0
 30 34  1  0
 31 30  1  0
 32 33  1  0
 32 31  1  0
 33 29  1  0
 34 35  2  0
 35 36  1  0
 37 36  2  0
 38 37  1  0
 39 13  1  0
 39 44  1  0
 39 40  1  0
 40 43  1  1
 40 41  1  0
 42 40  1  0
 44 47  1  0
 45 49  1  0
 45 44  1  0
 46 45  2  0
 49 48  1  0
 51 49  1  0
 51 52  1  0
 51 50  1  0
 54  1  1  0
 54 53  1  0
 55 56  1  0
 57 60  1  0
 58 55  2  0
 59 57  2  0
 59 58  1  0
 60 54  1  0
 60 56  2  0
 61 59  1  0
 61 62  1  6
 63 61  1  0
 64 61  1  0
 65 58  1  0
 66 72  1  0
 66 74  1  0
 67 72  1  0
 68 69  1  0
 68 67  1  0
 70 69  1  0
 70 79  1  0
 70 71  1  0
 72 71  1  0
 73 66  2  0
 74 65  1  0
 74 75  1  0
 76 77  2  0
 77 96  1  0
 78 81  1  0
 78 77  1  0
 79 80  1  0
 79 76  1  0
 80 78  2  0
 81 82  1  0
 82 83  2  0
 84 87  1  0
 84 83  1  0
 85 84  2  0
 86 85  1  0
 86 81  2  0
 87 88  1  0
 88 93  2  0
 88 89  1  0
 89 90  2  0
 90 91  1  0
 91 95  1  0
 92 91  2  0
 93 92  1  0
 94 93  1  0
 96 97  1  0
 97100  1  0
 97 99  1  0
 98 96  2  0
101 76  1  0
101102  1  0
103101  1  0
M  ISO  4  11 101  12 101  66 100  74 100
M  END
>  <TORSDO>  (70) 
F 23

>  <SCORE>  (70) 
-5.976

>  <name>  (70) 
69

>  <ligand_id>  (70) 
69

>  <original_smiles>  (70) 
[H]c1c([H])c([H])c2c(c1[H])C([H])([H])C([H])([H])C([H])([H])C2([H])N([H])C(=O)C1([H])N(C(=O)C([H])(N([H])C(=O)C([H])(N([H])C([H])([H])[H])C([H])([H])[H])C(C([H])([H])[H])(C([H])([H])[H])C([H])([H])[H])C([H])([H])c2c([H])c(OC([H])(C([H])([H])[H])C([H])([H])[N+]3([H])C([H])([H])C([H])([H])C([H])(C([H])([H])N(c4c([H])c([H])c(C([H])([H])N([H])C(=O)N5C([H])([H])C([H])([H])C([H])([H])C([H])(n6nc(-c7c([H])c([H])c(Oc8c([H])c([H])c(F)c([H])c8F)c([H])c7[H])c(C(=O)N([H])[H])c6N([H])[H])C5([H])[H])c(C(F)(F)F)c4[H])C([H])([H])[H])C([H])([H])C3([H])[H])c([H])c([H])c2C1([H])[H]

>  <smiles>  (70) 
[H]c1c([H])c([H])c2c(c1[H])C([H])([H])C([H])([H])C([H])([H])C2([H])N([H])C(=O)C1([H])N(C(=O)C([H])(N([H])C(=O)C([H])(N([H])C([H])([H])[H])C([H])([H])[H])C(C([H])([H])[H])(C([H])([H])[H])C([H])([H])[H])C([H])([H])c2c([H])c(OC([H])(C([H])([H])[H])C([H])([H])[N+]3([H])C([H])([H])C([H])([H])C([H])(C([H])([H])N(c4c([H])c([H])c(C([H])([H])N([H])C(=O)N5C([H])([H])C([H])([H])C([H])([H])C([H])(n6nc(-c7c([H])c([H])c(Oc8c([H])c([H])c(F)c([H])c8F)c([H])c7[H])c(C(=O)N([H])[H])c6N([H])[H])C5([H])[H])c(C(F)(F)F)c4[H])C([H])([H])[H])C([H])([H])C3([H])[H])c([H])c([H])c2C1([H])[H]

$$$$
70:0:0
     RDKit          3D

 95104  0  0  1  0  0  0  0  0999 V2000
  -30.6450  -19.1310   19.5960 C   0  0  0  0  0  3  0  0  0  0  0  0
  -30.7850  -17.7280   19.7410 C   0  0  0  0  0  3  0  0  0  0  0  0
  -30.2190  -17.9280   22.0870 C   0  0  0  0  0  3  0  0  0  0  0  0
  -30.2910  -19.9540   20.6940 C   0  0  0  0  0  0  0  0  0  0  0  0
  -30.0920  -19.3300   21.9510 C   0  0  0  0  0  0  0  0  0  0  0  0
  -30.5640  -17.1030   20.9940 C   0  0  0  0  0  0  0  0  0  0  0  0
  -30.1100  -21.4820   20.5140 C   0  0  0  0  0  2  0  0  0  0  0  0
  -29.7540  -20.1440   23.1880 C   0  0  0  0  0  2  0  0  0  0  0  0
  -29.3170  -21.5830   22.8870 C   0  0  0  0  0  2  0  0  0  0  0  0
  -30.2300  -22.2760   21.8510 C   0  0  0  0  0  3  0  0  0  0  0  0
  -31.2960  -14.7090   20.6090 C   0  0  0  0  0  0  0  0  0  0  0  0
  -31.0880  -12.4670   19.5840 C   0  0  0  0  0  2  0  0  0  0  0  0
  -30.2040  -12.5870   18.3240 C   0  0  0  0  0  2  0  0  0  0  0  0
  -28.7090  -12.4750   18.6830 C   0  0  0  0  0  2  0  0  0  0  0  0
  -28.3100  -13.3910   19.8720 C   0  0  0  0  0  3  0  0  0  0  0  0
  -29.3040  -13.2200   21.0440 C   0  0  0  0  0  2  0  0  0  0  0  0
  -30.6610  -13.5040   20.5390 N   0  0  0  0  0  0  0  0  0  0  0  0
  -32.4140  -14.9020   20.1230 O   0  0  0  0  0  0  0  0  0  0  0  0
  -30.5870  -15.6850   21.2170 N   0  0  0  0  0  0  0  0  0  0  0  0
  -29.8190  -15.3330   21.7680 H   0  0  0  0  0  0  0  0  0  0  0  0
  -25.8960  -14.0630   20.4620 C   0  0  0  0  0  0  0  0  0  0  0  0
  -24.7950  -13.3200   20.7940 C   0  0  0  0  0  0  0  0  0  0  0  0
  -25.2250  -11.9580   20.8010 C   0  0  0  0  0  0  0  0  0  0  0  0
  -26.9300  -13.1550   20.2910 N   0  0  0  0  0  0  0  0  0  0  0  0
  -26.5260  -11.8850   20.5500 N   0  0  0  0  0  0  0  0  0  0  0  0
  -24.4630  -10.7150   20.9760 C   0  0  0  0  0  0  0  0  0  0  0  0
  -24.8330   -9.7510   21.9400 C   0  0  0  0  0  3  0  0  0  0  0  0
  -24.0740   -8.5720   22.1020 C   0  0  0  0  0  3  0  0  0  0  0  0
  -22.9300   -8.3490   21.2990 C   0  0  0  0  0  0  0  0  0  0  0  0
  -22.5790   -9.3010   20.3250 C   0  0  0  0  0  3  0  0  0  0  0  0
  -23.3380  -10.4710   20.1620 C   0  0  0  0  0  3  0  0  0  0  0  0
  -22.1480   -7.2220   21.3690 O   0  0  0  0  0  0  0  0  0  0  0  0
  -22.0250   -6.5020   22.5290 C   0  0  0  0  0  0  0  0  0  0  0  0
  -21.5560   -7.0880   23.7250 C   0  0  0  0  0  3  0  0  0  0  0  0
  -21.3800   -6.2940   24.8760 C   0  0  0  0  0  3  0  0  0  0  0  0
  -21.6620   -4.9150   24.8320 C   0  0  0  0  0  0  0  0  0  0  0  0
  -22.1240   -4.3290   23.6410 C   0  0  0  0  0  3  0  0  0  0  0  0
  -22.3020   -5.1200   22.4920 C   0  0  0  0  0  0  0  0  0  0  0  0
  -22.7270   -4.5450   21.3410 F   0  0  0  0  0  0  0  0  0  0  0  0
  -21.4850   -4.1520   25.9350 F   0  0  0  0  0  0  0  0  0  0  0  0
  -23.3980  -13.8320   21.0020 C   0  0  0  0  0  0  0  0  0  0  0  0
  -22.6220  -13.1690   21.8530 N   0  0  0  0  0  0  0  0  0  0  0  0
  -23.0030  -14.8550   20.4450 O   0  0  0  0  0  0  0  0  0  0  0  0
  -22.9520  -12.3410   22.3260 H   0  0  0  0  0  0  0  0  0  0  0  0
  -21.6830  -13.4950   22.0340 H   0  0  0  0  0  0  0  0  0  0  0  0
  -26.1010  -15.4270   20.2750 N   0  0  0  0  0  0  0  0  0  0  0  0
  -25.3490  -16.1030   20.3450 H   0  0  0  0  0  0  0  0  0  0  0  0
  -26.9810  -15.8410   19.9950 H   0  0  0  0  0  0  0  0  0  0  0  0
  -30.6870  -24.4010   23.0130 C   0  0  0  0  0  1  0  0  0  0  0  0
  -29.9660  -23.7680   21.8690 N   0  0  1  0  0  4  0  0  0  0  0  0
  -28.9910  -23.8060   22.1350 H   0  0  0  0  0  0  0  0  0  0  0  0
  -31.4550  -24.8780   20.1230 C   0  0  0  0  0  1  0  0  0  0  0  0
  -30.0130  -24.6010   20.6050 C   0  0  0  0  0  3  0  0  0  0  0  0
  -29.2260  -25.9530   20.7910 C   0  0  0  0  0  2  0  0  0  0  0  0
  -29.0800  -26.8090   19.6380 O   0  0  0  0  0  0  0  0  0  0  0  0
  -24.7750  -31.4560   22.9440 C   0  0  0  0  0  0  0  0  0  0  0  0
  -27.8800  -27.4890   19.6430 C   0  0  0  0  0  0  0  0  0  0  0  0
  -23.7270  -30.0250   21.2200 C   0  0  0  0  0  3  0  0  0  0  0  0
  -25.3400  -28.7350   19.7180 C   0  0  0  0  0  0  0  0  0  0  0  0
  -26.1990  -30.6630   21.0550 C   0  0  0  0  0  2  0  0  0  0  0  0
  -26.4360  -29.3450   20.3430 C   0  0  0  0  0  0  0  0  0  0  0  0
  -27.7100  -28.7290   20.3060 C   0  0  0  0  0  3  0  0  0  0  0  0
  -26.7690  -26.8990   19.0050 C   0  0  0  0  0  3  0  0  0  0  0  0
  -25.5020  -27.5110   19.0450 C   0  0  0  0  0  3  0  0  0  0  0  0
  -24.0090  -29.4490   19.8060 C   0  0  0  0  0  2  0  0  0  0  0  0
  -24.9170  -30.7280   21.7990 N   0  0  0  0  0  0  0  0  0  0  0  0
  -23.6720  -31.5800   23.4920 O   0  0  0  0  0  0  0  0  0  0  0  0
  -23.1890  -28.8900   22.1210 C   0  0  0  0  0  0  0  0  0  0  0  0
  -21.8980  -28.5550   21.9600 N   0  0  0  0  0  0  0  0  0  0  0  0
  -23.9320  -28.3130   22.9190 O   0  0  0  0  0  0  0  0  0  0  0  0
  -21.3530  -29.0810   21.2920 H   0  0  0  0  0  0  0  0  0  0  0  0
  -18.7000  -26.9060   22.2950 C   0  0  0  0  0  0  0  0  0  0  0  0
  -21.1900  -27.4900   22.6690 C   0  0  0  0  0  3  0  0  0  0  0  0
  -21.5020  -26.1060   22.0530 C   0  0  0  0  0  2  0  0  0  0  0  0
  -20.4870  -25.6780   20.9880 C   0  0  0  0  0  2  0  0  0  0  0  0
  -19.0780  -25.6170   21.5840 C   0  0  0  0  0  2  0  0  0  0  0  0
  -19.6920  -27.7920   22.7910 C   0  0  0  0  0  0  0  0  0  0  0  0
  -19.2880  -28.9950   23.4120 C   0  0  0  0  0  3  0  0  0  0  0  0
  -17.9230  -29.3130   23.5430 C   0  0  0  0  0  3  0  0  0  0  0  0
  -16.9450  -28.4240   23.0640 C   0  0  0  0  0  3  0  0  0  0  0  0
  -17.3340  -27.2230   22.4470 C   0  0  0  0  0  3  0  0  0  0  0  0
  -25.9860  -32.1870   23.6040 C   0  0  0  0  0  3  0  0  0  0  0  0
  -26.5910  -31.4030   24.8340 C   0  0  1  0  0  0  0  0  0  0  0  0
  -25.5360  -30.9940   25.8870 C   0  0  0  0  0  1  0  0  0  0  0  0
  -27.3100  -30.1190   24.3600 C   0  0  0  0  0  1  0  0  0  0  0  0
  -27.6570  -32.2740   25.5380 C   0  0  0  0  0  1  0  0  0  0  0  0
  -25.5290  -33.5220   24.0110 N   0  0  0  0  0  0  0  0  0  0  0  0
  -25.7540  -34.6470   23.3190 C   0  0  0  0  0  0  0  0  0  0  0  0
  -26.4380  -34.6760   22.2920 O   0  0  0  0  0  0  0  0  0  0  0  0
  -24.9150  -33.5650   24.8120 H   0  0  0  0  0  0  0  0  0  0  0  0
  -23.8430  -36.2580   23.0520 C   0  0  0  0  0  1  0  0  0  0  0  0
  -25.1190  -35.9460   23.8500 C   0  0  0  0  0  3  0  0  0  0  0  0
  -27.1470  -37.0060   24.7400 C   0  0  0  0  0  1  0  0  0  0  0  0
  -26.0320  -37.1090   23.8040 N   0  0  0  0  0  0  0  0  0  0  0  0
  -25.5290  -37.9700   24.0040 H   0  0  0  0  0  0  0  0  0  0  0  0
  1  2  2  0
  1  4  1  0
  2  6  1  0
  4  5  2  0
  5  3  1  0
  5  8  1  0
  6 19  1  0
  6  3  2  0
  7  4  1  0
  7 10  1  0
  9  8  1  0
 10 50  1  0
 10  9  1  0
 11 19  1  0
 12 17  1  0
 13 14  1  0
 13 12  1  0
 15 14  1  0
 15 24  1  0
 15 16  1  0
 17 11  1  0
 17 16  1  0
 18 11  2  0
 19 20  1  0
 21 22  2  0
 22 23  1  0
 22 41  1  0
 23 26  1  0
 24 21  1  0
 24 25  1  0
 25 23  2  0
 26 27  1  0
 27 28  2  0
 29 32  1  0
 29 28  1  0
 30 29  2  0
 31 30  1  0
 31 26  2  0
 32 33  1  0
 33 34  1  0
 34 35  2  0
 36 35  1  0
 36 40  1  0
 37 36  2  0
 38 33  2  0
 38 37  1  0
 39 38  1  0
 41 42  1  0
 42 45  1  0
 42 44  1  0
 43 41  2  0
 46 47  1  0
 46 21  1  0
 48 46  1  0
 50 51  1  1
 50 49  1  0
 53 52  1  0
 53 54  1  0
 53 50  1  0
 55 57  1  0
 55 54  1  0
 56 67  2  0
 57 62  1  0
 58 66  1  0
 58 68  1  0
 59 65  1  0
 59 61  1  0
 60 66  1  0
 61 60  1  0
 62 61  2  0
 63 64  1  0
 63 57  2  0
 64 59  2  0
 65 58  1  0
 66 56  1  0
 68 70  2  0
 69 68  1  0
 71 69  1  0
 72 81  2  0
 72 77  1  0
 73 69  1  0
 73 77  1  0
 74 73  1  0
 75 76  1  0
 75 74  1  0
 76 72  1  0
 77 78  2  0
 78 79  1  0
 80 79  2  0
 81 80  1  0
 82 56  1  0
 82 87  1  0
 82 83  1  0
 83 86  1  1
 83 84  1  0
 85 83  1  0
 87 90  1  0
 88 92  1  0
 88 87  1  0
 89 88  2  0
 92 91  1  0
 94 92  1  0
 94 95  1  0
 94 93  1  0
M  ISO  4  11 100  19 100  54 101  55 101
M  END
>  <TORSDO>  (71) 
F 19

>  <SCORE>  (71) 
-9.198

>  <name>  (71) 
70

>  <ligand_id>  (71) 
70

>  <original_smiles>  (71) 
[H]c1c([H])c([H])c2c(c1[H])C([H])([H])C([H])([H])C([H])([H])C2([H])N([H])C(=O)C1([H])N(C(=O)C([H])(N([H])C(=O)C([H])(N([H])C([H])([H])[H])C([H])([H])[H])C(C([H])([H])[H])(C([H])([H])[H])C([H])([H])[H])C([H])([H])c2c([H])c(OC([H])([H])C([H])(C([H])([H])[H])[N+]([H])(C([H])([H])[H])C3([H])C([H])([H])c4c([H])c([H])c(N([H])C(=O)N5C([H])([H])C([H])([H])C([H])([H])C([H])(n6nc(-c7c([H])c([H])c(Oc8c([H])c([H])c(F)c([H])c8F)c([H])c7[H])c(C(=O)N([H])[H])c6N([H])[H])C5([H])[H])c([H])c4C([H])([H])C3([H])[H])c([H])c([H])c2C1([H])[H]

>  <smiles>  (71) 
[H]c1c([H])c([H])c2c(c1[H])C([H])([H])C([H])([H])C([H])([H])C2([H])N([H])C(=O)C1([H])N(C(=O)C([H])(N([H])C(=O)C([H])(N([H])C([H])([H])[H])C([H])([H])[H])C(C([H])([H])[H])(C([H])([H])[H])C([H])([H])[H])C([H])([H])c2c([H])c(OC([H])([H])C([H])(C([H])([H])[H])[N+]([H])(C([H])([H])[H])C3([H])C([H])([H])c4c([H])c([H])c(N([H])C(=O)N5C([H])([H])C([H])([H])C([H])([H])C([H])(n6nc(-c7c([H])c([H])c(Oc8c([H])c([H])c(F)c([H])c8F)c([H])c7[H])c(C(=O)N([H])[H])c6N([H])[H])C5([H])[H])c([H])c4C([H])([H])C3([H])[H])c([H])c([H])c2C1([H])[H]

$$$$
71:0:0
     RDKit          3D

103112  0  0  1  0  0  0  0  0999 V2000
  -28.0010  -18.9980   22.2840 C   0  0  0  0  0  0  0  0  0  0  0  0
  -28.8270  -18.5520   19.9840 C   0  0  0  0  0  1  0  0  0  0  0  0
  -28.3570  -18.1200   21.3090 N   0  0  0  0  0  0  0  0  0  0  0  0
  -27.4610  -18.6030   23.3210 O   0  0  0  0  0  0  0  0  0  0  0  0
  -27.1180  -21.3120   21.5420 C   0  0  0  0  0  2  0  0  0  0  0  0
  -28.7110  -21.1470   23.4990 C   0  0  0  0  0  2  0  0  0  0  0  0
  -26.9390  -22.7320   22.1320 C   0  0  0  0  0  2  0  0  0  0  0  0
  -29.0720  -22.6500   23.3790 C   0  0  0  0  0  2  0  0  0  0  0  0
  -28.3090  -20.5150   22.1440 C   0  0  0  0  0  3  0  0  0  0  0  0
  -28.2520  -23.3810   22.3740 N   0  0  2  0  0  4  0  0  0  0  0  0
  -28.7640  -23.2890   21.5080 H   0  0  0  0  0  0  0  0  0  0  0  0
  -28.1710  -24.8490   22.6340 C   0  0  0  0  0  2  0  0  0  0  0  0
  -28.9610  -25.2630   20.2440 C   0  0  0  0  0  1  0  0  0  0  0  0
  -27.9770  -25.6860   21.3440 C   0  0  0  0  0  3  0  0  0  0  0  0
  -28.2480  -27.0700   21.6210 O   0  0  0  0  0  0  0  0  0  0  0  0
  -27.9800  -31.8250   26.8970 C   0  0  0  0  0  0  0  0  0  0  0  0
  -27.4300  -27.7770   22.4800 C   0  0  0  0  0  0  0  0  0  0  0  0
  -25.8480  -30.6900   26.3710 C   0  0  0  0  0  3  0  0  0  0  0  0
  -25.8220  -29.3220   24.2230 C   0  0  0  0  0  0  0  0  0  0  0  0
  -27.6290  -31.0160   24.5650 C   0  0  0  0  0  2  0  0  0  0  0  0
  -27.1220  -29.7410   23.9190 C   0  0  0  0  0  0  0  0  0  0  0  0
  -27.9230  -28.9790   23.0400 C   0  0  0  0  0  3  0  0  0  0  0  0
  -26.1140  -27.3720   22.8030 C   0  0  0  0  0  3  0  0  0  0  0  0
  -25.3130  -28.1380   23.6680 C   0  0  0  0  0  3  0  0  0  0  0  0
  -25.0180  -30.1930   25.1580 C   0  0  0  0  0  2  0  0  0  0  0  0
  -27.2080  -31.1820   25.9770 N   0  0  0  0  0  0  0  0  0  0  0  0
  -27.5630  -32.0440   28.0430 O   0  0  0  0  0  0  0  0  0  0  0  0
  -25.8850  -29.5660   27.4300 C   0  0  0  0  0  0  0  0  0  0  0  0
  -24.8130  -29.4640   28.2320 N   0  0  0  0  0  0  0  0  0  0  0  0
  -26.8480  -28.7960   27.4980 O   0  0  0  0  0  0  0  0  0  0  0  0
  -24.0700  -30.1400   28.1210 H   0  0  0  0  0  0  0  0  0  0  0  0
  -22.5270  -28.3500   30.7950 C   0  0  0  0  0  0  0  0  0  0  0  0
  -24.6100  -28.4540   29.2670 C   0  0  0  0  0  3  0  0  0  0  0  0
  -24.1030  -27.1260   28.6570 C   0  0  0  0  0  2  0  0  0  0  0  0
  -22.5760  -27.0130   28.6430 C   0  0  0  0  0  2  0  0  0  0  0  0
  -22.0140  -27.1200   30.0640 C   0  0  0  0  0  2  0  0  0  0  0  0
  -23.7350  -28.9880   30.4060 C   0  0  0  0  0  0  0  0  0  0  0  0
  -24.1430  -30.1560   31.0880 C   0  0  0  0  0  3  0  0  0  0  0  0
  -23.3760  -30.6780   32.1450 C   0  0  0  0  0  3  0  0  0  0  0  0
  -22.1890  -30.0310   32.5370 C   0  0  0  0  0  3  0  0  0  0  0  0
  -21.7700  -28.8700   31.8650 C   0  0  0  0  0  3  0  0  0  0  0  0
  -29.4130  -32.3350   26.5480 C   0  0  0  0  0  3  0  0  0  0  0  0
  -29.5710  -33.6670   27.1420 N   0  0  0  0  0  0  0  0  0  0  0  0
  -29.4210  -34.8200   26.4770 C   0  0  0  0  0  0  0  0  0  0  0  0
  -29.2040  -34.8710   25.2630 O   0  0  0  0  0  0  0  0  0  0  0  0
  -29.7130  -33.7030   28.1410 H   0  0  0  0  0  0  0  0  0  0  0  0
  -28.1120  -36.6610   27.5850 C   0  0  0  0  0  1  0  0  0  0  0  0
  -29.5230  -36.1280   27.2860 C   0  0  0  0  0  3  0  0  0  0  0  0
  -31.7410  -36.8530   26.5220 C   0  0  0  0  0  1  0  0  0  0  0  0
  -30.3190  -37.1780   26.6130 N   0  0  0  0  0  0  0  0  0  0  0  0
  -30.2280  -38.0660   27.0990 H   0  0  0  0  0  0  0  0  0  0  0  0
  -30.5520  -31.3630   27.0460 C   0  0  1  0  0  0  0  0  0  0  0  0
  -30.4300  -30.9720   28.5370 C   0  0  0  0  0  1  0  0  0  0  0  0
  -30.5540  -30.0570   26.2180 C   0  0  0  0  0  1  0  0  0  0  0  0
  -31.9360  -32.0230   26.8320 C   0  0  0  0  0  1  0  0  0  0  0  0
  -28.1120  -16.6700   21.4940 C   0  0  0  0  0  2  0  0  0  0  0  0
  -29.2220  -15.9430   22.3300 C   0  0  0  0  0  3  0  0  0  0  0  0
  -30.2640  -15.0060   18.9310 C   0  0  0  0  0  0  0  0  0  0  0  0
  -29.4450  -13.2470   17.4070 C   0  0  0  0  0  2  0  0  0  0  0  0
  -28.2540  -13.6960   16.5400 C   0  0  0  0  0  2  0  0  0  0  0  0
  -26.9380  -13.3590   17.2560 C   0  0  0  0  0  2  0  0  0  0  0  0
  -26.9210  -13.9080   18.6970 C   0  0  0  0  0  3  0  0  0  0  0  0
  -28.2050  -13.5330   19.4610 C   0  0  0  0  0  2  0  0  0  0  0  0
  -29.4130  -13.9500   18.7140 N   0  0  0  0  0  0  0  0  0  0  0  0
  -30.8990  -15.4720   17.9790 O   0  0  0  0  0  0  0  0  0  0  0  0
  -32.5580  -15.6930   22.3070 C   0  0  0  0  0  2  0  0  0  0  0  0
  -32.7990  -16.2070   20.8910 C   0  0  0  0  0  2  0  0  0  0  0  0
  -31.4760  -14.6020   22.2960 C   0  0  0  0  0  2  0  0  0  0  0  0
  -31.4610  -16.6670   20.2990 C   0  0  0  0  0  2  0  0  0  0  0  0
  -30.1790  -14.9860   21.5250 C   0  0  0  0  0  3  0  0  0  0  0  0
  -30.5230  -15.5170   20.1820 N   0  0  0  0  0  0  0  0  0  0  0  0
  -24.8280  -14.2130   20.1680 C   0  0  0  0  0  0  0  0  0  0  0  0
  -23.8760  -13.3300   20.5980 C   0  0  0  0  0  0  0  0  0  0  0  0
  -24.2670  -12.0520   20.0900 C   0  0  0  0  0  0  0  0  0  0  0  0
  -25.7360  -13.4680   19.4320 N   0  0  0  0  0  0  0  0  0  0  0  0
  -25.4210  -12.1470   19.4440 N   0  0  0  0  0  0  0  0  0  0  0  0
  -23.5770  -10.7580   20.1280 C   0  0  0  0  0  0  0  0  0  0  0  0
  -24.2330   -9.5830   20.5570 C   0  0  0  0  0  3  0  0  0  0  0  0
  -23.5450   -8.3520   20.5950 C   0  0  0  0  0  3  0  0  0  0  0  0
  -22.1850   -8.2860   20.2080 C   0  0  0  0  0  0  0  0  0  0  0  0
  -21.5430   -9.4540   19.7590 C   0  0  0  0  0  3  0  0  0  0  0  0
  -22.2320  -10.6780   19.7170 C   0  0  0  0  0  3  0  0  0  0  0  0
  -21.4410   -7.1320   20.1920 O   0  0  0  0  0  0  0  0  0  0  0  0
  -21.7530   -6.0640   20.9970 C   0  0  0  0  0  0  0  0  0  0  0  0
  -21.8630   -6.1940   22.3990 C   0  0  0  0  0  3  0  0  0  0  0  0
  -22.1150   -5.0570   23.1930 C   0  0  0  0  0  3  0  0  0  0  0  0
  -22.2490   -3.7910   22.5900 C   0  0  0  0  0  0  0  0  0  0  0  0
  -22.1370   -3.6610   21.1940 C   0  0  0  0  0  3  0  0  0  0  0  0
  -21.8870   -4.7940   20.4010 C   0  0  0  0  0  0  0  0  0  0  0  0
  -21.7550   -4.6600   19.0590 F   0  0  0  0  0  0  0  0  0  0  0  0
  -22.4860   -2.6980   23.3510 F   0  0  0  0  0  0  0  0  0  0  0  0
  -22.6200  -13.6620   21.3480 C   0  0  0  0  0  0  0  0  0  0  0  0
  -22.1290  -12.7370   22.1640 N   0  0  0  0  0  0  0  0  0  0  0  0
  -22.0920  -14.7700   21.2480 O   0  0  0  0  0  0  0  0  0  0  0  0
  -22.5710  -11.8330   22.2580 H   0  0  0  0  0  0  0  0  0  0  0  0
  -21.2950  -12.9310   22.7000 H   0  0  0  0  0  0  0  0  0  0  0  0
  -24.9860  -15.5880   20.3190 N   0  0  0  0  0  0  0  0  0  0  0  0
  -24.2610  -16.1480   20.7560 H   0  0  0  0  0  0  0  0  0  0  0  0
  -25.6260  -16.1360   19.7600 H   0  0  0  0  0  0  0  0  0  0  0  0
  -28.6260  -15.2070   23.4660 N   0  0  0  0  0  4  0  0  0  0  0  0
  -28.0470  -14.4430   23.1640 H   0  0  0  0  0  0  0  0  0  0  0  0
  -28.0630  -15.8290   24.0230 H   0  0  0  0  0  0  0  0  0  0  0  0
  -29.3440  -14.8360   24.0620 H   0  0  0  0  0  0  0  0  0  0  0  0
  1  4  2  0
  2  3  1  0
  3 56  1  0
  3  1  1  0
  5  7  1  0
  5  9  1  0
  7 10  1  0
  8  6  1  0
  9  1  1  0
  9  6  1  0
 10 12  1  0
 10  8  1  0
 10 11  1  6
 14 13  1  0
 14 15  1  0
 14 12  1  0
 15 17  1  0
 16 27  2  0
 17 23  2  0
 17 22  1  0
 18 28  1  0
 19 25  1  0
 20 26  1  0
 21 19  1  0
 21 20  1  0
 22 21  2  0
 23 24  1  0
 24 19  2  0
 25 18  1  0
 26 18  1  0
 26 16  1  0
 28 30  2  0
 28 29  1  0
 31 29  1  0
 32 41  1  0
 33 29  1  0
 33 37  1  0
 34 33  1  0
 35 34  1  0
 35 36  1  0
 36 32  1  0
 37 32  2  0
 37 38  1  0
 38 39  2  0
 39 40  1  0
 41 40  2  0
 42 16  1  0
 42 52  1  0
 42 43  1  0
 43 46  1  0
 44 43  1  0
 44 48  1  0
 45 44  2  0
 48 47  1  0
 49 50  1  0
 50 51  1  0
 50 48  1  0
 52 53  1  1
 54 52  1  0
 55 52  1  0
 57 56  1  0
 57100  1  0
 58 71  1  0
 59 64  1  0
 60 61  1  0
 60 59  1  0
 62 61  1  0
 62 75  1  0
 62 63  1  0
 64 58  1  0
 64 63  1  0
 65 58  2  0
 67 66  1  0
 68 66  1  0
 69 67  1  0
 70 68  1  0
 70 57  1  0
 71 69  1  0
 71 70  1  0
 72 97  1  0
 72 73  2  0
 73 92  1  0
 74 77  1  0
 74 73  1  0
 75 76  1  0
 75 72  1  0
 76 74  2  0
 77 78  1  0
 78 79  2  0
 80 79  1  0
 81 80  2  0
 82 81  1  0
 82 77  2  0
 83 80  1  0
 83 84  1  0
 84 85  1  0
 85 86  2  0
 87 86  1  0
 87 91  1  0
 88 87  2  0
 89 84  2  0
 89 88  1  0
 90 89  1  0
 92 93  1  0
 93 95  1  0
 93 96  1  0
 94 92  2  0
 97 98  1  0
 99 97  1  0
100102  1  0
100103  1  0
101100  1  0
M  ISO  4  14 101  15 101  58 100  71 100
M  END
>  <TORSDO>  (72) 
F 22

>  <SCORE>  (72) 
35.341

>  <name>  (72) 
71

>  <ligand_id>  (72) 
71

>  <original_smiles>  (72) 
[H]c1c([H])c([H])c2c(c1[H])C([H])([H])C([H])([H])C([H])([H])C2([H])N([H])C(=O)C1([H])N(C(=O)C([H])(N([H])C(=O)C([H])(N([H])C([H])([H])[H])C([H])([H])[H])C(C([H])([H])[H])(C([H])([H])[H])C([H])([H])[H])C([H])([H])c2c([H])c(OC([H])(C([H])([H])[H])C([H])([H])[N+]3([H])C([H])([H])C([H])([H])C([H])(C(=O)N(C([H])([H])[H])C([H])([H])C([H])(C4([H])N(C(=O)N5C([H])([H])C([H])([H])C([H])([H])C([H])(n6nc(-c7c([H])c([H])c(Oc8c([H])c([H])c(F)c([H])c8F)c([H])c7[H])c(C(=O)N([H])[H])c6N([H])[H])C5([H])[H])C([H])([H])C([H])([H])C([H])([H])C4([H])[H])[N+]([H])([H])[H])C([H])([H])C3([H])[H])c([H])c([H])c2C1([H])[H]

>  <smiles>  (72) 
[H]c1c([H])c([H])c2c(c1[H])C([H])([H])C([H])([H])C([H])([H])C2([H])N([H])C(=O)C1([H])N(C(=O)C([H])(N([H])C(=O)C([H])(N([H])C([H])([H])[H])C([H])([H])[H])C(C([H])([H])[H])(C([H])([H])[H])C([H])([H])[H])C([H])([H])c2c([H])c(OC([H])(C([H])([H])[H])C([H])([H])[N+]3([H])C([H])([H])C([H])([H])C([H])(C(=O)N(C([H])([H])[H])C([H])([H])C([H])(C4([H])N(C(=O)N5C([H])([H])C([H])([H])C([H])([H])C([H])(n6nc(-c7c([H])c([H])c(Oc8c([H])c([H])c(F)c([H])c8F)c([H])c7[H])c(C(=O)N([H])[H])c6N([H])[H])C5([H])[H])C([H])([H])C([H])([H])C([H])([H])C4([H])[H])[N+]([H])([H])[H])C([H])([H])C3([H])[H])c([H])c([H])c2C1([H])[H]

$$$$
72:0:0
     RDKit          3D

 93101  0  0  1  0  0  0  0  0999 V2000
  -31.1490  -21.9390   21.5320 C   0  0  0  0  0  1  0  0  0  0  0  0
  -30.1390  -21.5490   20.5470 N   0  0  0  0  0  0  0  0  0  0  0  0
  -28.7980  -17.9730   20.7620 C   0  0  0  0  0  3  0  0  0  0  0  0
  -28.8360  -19.4010   20.7340 C   0  0  0  0  0  3  0  0  0  0  0  0
  -31.1190  -17.8750   20.1510 C   0  0  0  0  0  3  0  0  0  0  0  0
  -29.9370  -17.1660   20.4890 C   0  0  0  0  0  0  0  0  0  0  0  0
  -30.0270  -20.1130   20.4440 C   0  0  0  0  0  0  0  0  0  0  0  0
  -31.1610  -19.3000   20.1270 C   0  0  0  0  0  0  0  0  0  0  0  0
  -32.3370  -19.8950   19.8020 F   0  0  0  0  0  0  0  0  0  0  0  0
  -30.6000  -14.6700   20.1570 C   0  0  0  0  0  0  0  0  0  0  0  0
  -30.3370  -12.4660   19.0420 C   0  0  0  0  0  2  0  0  0  0  0  0
  -29.3450  -12.6400   17.8690 C   0  0  0  0  0  2  0  0  0  0  0  0
  -27.8890  -12.4780   18.3500 C   0  0  0  0  0  2  0  0  0  0  0  0
  -27.5860  -13.3030   19.6300 C   0  0  0  0  0  3  0  0  0  0  0  0
  -28.6870  -13.1030   20.6960 C   0  0  0  0  0  2  0  0  0  0  0  0
  -29.9760  -13.4530   20.0780 N   0  0  0  0  0  0  0  0  0  0  0  0
  -31.7440  -14.8320   19.7240 O   0  0  0  0  0  0  0  0  0  0  0  0
  -29.8130  -15.7090   20.5770 N   0  0  0  0  0  0  0  0  0  0  0  0
  -28.9210  -15.3890   20.9220 H   0  0  0  0  0  0  0  0  0  0  0  0
  -25.2200  -13.8940   20.4410 C   0  0  0  0  0  0  0  0  0  0  0  0
  -24.1660  -13.1160   20.8410 C   0  0  0  0  0  0  0  0  0  0  0  0
  -24.6260  -11.7650   20.7740 C   0  0  0  0  0  0  0  0  0  0  0  0
  -26.2550  -13.0150   20.1580 N   0  0  0  0  0  0  0  0  0  0  0  0
  -25.9050  -11.7290   20.4170 N   0  0  0  0  0  0  0  0  0  0  0  0
  -23.9070  -10.5000   20.9720 C   0  0  0  0  0  0  0  0  0  0  0  0
  -24.3530   -9.5340   21.9010 C   0  0  0  0  0  3  0  0  0  0  0  0
  -23.6340   -8.3340   22.0890 C   0  0  0  0  0  3  0  0  0  0  0  0
  -22.4540   -8.0920   21.3460 C   0  0  0  0  0  0  0  0  0  0  0  0
  -22.0260   -9.0460   20.4070 C   0  0  0  0  0  3  0  0  0  0  0  0
  -22.7460  -10.2370   20.2180 C   0  0  0  0  0  3  0  0  0  0  0  0
  -21.7040   -6.9440   21.4430 O   0  0  0  0  0  0  0  0  0  0  0  0
  -21.6440   -6.2200   22.6060 C   0  0  0  0  0  0  0  0  0  0  0  0
  -21.1950   -6.7900   23.8170 C   0  0  0  0  0  3  0  0  0  0  0  0
  -21.0830   -5.9910   24.9730 C   0  0  0  0  0  3  0  0  0  0  0  0
  -21.4100   -4.6230   24.9180 C   0  0  0  0  0  0  0  0  0  0  0  0
  -21.8510   -4.0520   23.7110 C   0  0  0  0  0  3  0  0  0  0  0  0
  -21.9640   -4.8480   22.5570 C   0  0  0  0  0  0  0  0  0  0  0  0
  -22.3700   -4.2890   21.3920 F   0  0  0  0  0  0  0  0  0  0  0  0
  -21.2940   -3.8530   26.0250 F   0  0  0  0  0  0  0  0  0  0  0  0
  -22.7800  -13.5890   21.1690 C   0  0  0  0  0  0  0  0  0  0  0  0
  -22.0810  -12.8790   22.0470 N   0  0  0  0  0  0  0  0  0  0  0  0
  -22.3260  -14.6250   20.6820 O   0  0  0  0  0  0  0  0  0  0  0  0
  -22.4610  -12.0410   22.4630 H   0  0  0  0  0  0  0  0  0  0  0  0
  -21.1520  -13.1770   22.3080 H   0  0  0  0  0  0  0  0  0  0  0  0
  -25.3780  -15.2660   20.2740 N   0  0  0  0  0  0  0  0  0  0  0  0
  -24.6080  -15.9130   20.4070 H   0  0  0  0  0  0  0  0  0  0  0  0
  -26.1960  -15.7060   19.8720 H   0  0  0  0  0  0  0  0  0  0  0  0
  -28.9960  -22.5090   20.3670 C   0  0  0  0  0  2  0  0  0  0  0  0
  -29.3410  -24.0810   20.3400 C   0  0  1  0  0  0  0  0  0  0  0  0
  -29.7870  -24.4460   21.5430 F   0  0  0  0  0  0  0  0  0  0  0  0
  -30.3110  -24.2800   19.4460 F   0  0  0  0  0  0  0  0  0  0  0  0
  -28.1610  -25.0840   19.9920 C   0  0  0  0  0  2  0  0  0  0  0  0
  -28.3670  -26.5400   20.1630 O   0  0  0  0  0  0  0  0  0  0  0  0
  -24.6300  -31.8760   23.2580 C   0  0  0  0  0  0  0  0  0  0  0  0
  -27.2350  -27.3700   20.1320 C   0  0  0  0  0  0  0  0  0  0  0  0
  -23.4180  -30.4970   21.6080 C   0  0  0  0  0  3  0  0  0  0  0  0
  -24.8620  -28.9670   20.1570 C   0  0  0  0  0  0  0  0  0  0  0  0
  -25.9560  -30.8230   21.4130 C   0  0  0  0  0  2  0  0  0  0  0  0
  -26.0330  -29.4540   20.7510 C   0  0  0  0  0  0  0  0  0  0  0  0
  -27.2230  -28.6680   20.7280 C   0  0  0  0  0  3  0  0  0  0  0  0
  -26.0370  -26.9330   19.5190 C   0  0  0  0  0  3  0  0  0  0  0  0
  -24.8650  -27.7110   19.5330 C   0  0  0  0  0  3  0  0  0  0  0  0
  -23.6240  -29.8370   20.2200 C   0  0  0  0  0  2  0  0  0  0  0  0
  -24.6870  -31.0810   22.1500 N   0  0  0  0  0  0  0  0  0  0  0  0
  -23.5500  -32.1480   23.8010 O   0  0  0  0  0  0  0  0  0  0  0  0
  -22.7620  -29.4680   22.5590 C   0  0  0  0  0  0  0  0  0  0  0  0
  -21.4360  -29.2890   22.4320 N   0  0  0  0  0  0  0  0  0  0  0  0
  -23.4430  -28.8350   23.3700 O   0  0  0  0  0  0  0  0  0  0  0  0
  -20.9460  -29.8540   21.7520 H   0  0  0  0  0  0  0  0  0  0  0  0
  -18.0590  -28.0890   22.9260 C   0  0  0  0  0  0  0  0  0  0  0  0
  -20.6180  -28.3450   23.1940 C   0  0  0  0  0  3  0  0  0  0  0  0
  -20.7190  -26.9190   22.6030 C   0  0  0  0  0  2  0  0  0  0  0  0
  -19.6150  -26.6060   21.5890 C   0  0  0  0  0  2  0  0  0  0  0  0
  -18.2340  -26.7460   22.2370 C   0  0  0  0  0  2  0  0  0  0  0  0
  -19.1800  -28.8460   23.3610 C   0  0  0  0  0  0  0  0  0  0  0  0
  -18.9620  -30.1040   23.9660 C   0  0  0  0  0  3  0  0  0  0  0  0
  -17.6580  -30.6040   24.1390 C   0  0  0  0  0  3  0  0  0  0  0  0
  -16.5520  -29.8430   23.7200 C   0  0  0  0  0  3  0  0  0  0  0  0
  -16.7540  -28.5870   23.1190 C   0  0  0  0  0  3  0  0  0  0  0  0
  -25.9180  -32.5010   23.8820 C   0  0  0  0  0  3  0  0  0  0  0  0
  -26.4310  -31.7220   25.1560 C   0  0  1  0  0  0  0  0  0  0  0  0
  -25.3360  -31.4830   26.2220 C   0  0  0  0  0  1  0  0  0  0  0  0
  -27.0080  -30.3430   24.7570 C   0  0  0  0  0  1  0  0  0  0  0  0
  -27.5840  -32.5080   25.8210 C   0  0  0  0  0  1  0  0  0  0  0  0
  -25.6150  -33.8990   24.2180 N   0  0  0  0  0  0  0  0  0  0  0  0
  -25.9250  -34.9510   23.4490 C   0  0  0  0  0  0  0  0  0  0  0  0
  -26.5690  -34.8460   22.4010 O   0  0  0  0  0  0  0  0  0  0  0  0
  -25.0410  -34.0530   25.0340 H   0  0  0  0  0  0  0  0  0  0  0  0
  -24.1720  -36.7290   23.1550 C   0  0  0  0  0  1  0  0  0  0  0  0
  -25.4480  -36.3390   23.9170 C   0  0  0  0  0  3  0  0  0  0  0  0
  -27.6090  -37.2440   24.6540 C   0  0  0  0  0  1  0  0  0  0  0  0
  -26.4680  -37.3990   23.7540 N   0  0  0  0  0  0  0  0  0  0  0  0
  -26.0610  -38.3160   23.9130 H   0  0  0  0  0  0  0  0  0  0  0  0
  2  1  1  0
  4  3  1  0
  5  6  1  0
  6 18  1  0
  6  3  2  0
  7  2  1  0
  7  4  2  0
  8  5  2  0
  8  7  1  0
  9  8  1  0
 10 18  1  0
 11 16  1  0
 12 13  1  0
 12 11  1  0
 14 13  1  0
 14 23  1  0
 14 15  1  0
 16 10  1  0
 16 15  1  0
 17 10  2  0
 18 19  1  0
 20 21  2  0
 21 40  1  0
 22 21  1  0
 22 25  1  0
 23 24  1  0
 23 20  1  0
 24 22  2  0
 25 26  1  0
 26 27  2  0
 28 31  1  0
 28 27  1  0
 29 28  2  0
 30 29  1  0
 30 25  2  0
 31 32  1  0
 32 33  1  0
 33 34  2  0
 35 34  1  0
 35 39  1  0
 36 35  2  0
 37 32  2  0
 37 36  1  0
 38 37  1  0
 40 41  1  0
 41 44  1  0
 41 43  1  0
 42 40  2  0
 45 46  1  0
 45 20  1  0
 47 45  1  0
 48  2  1  0
 49 48  1  0
 49 50  1  1
 51 49  1  0
 52 53  1  0
 52 49  1  0
 54 65  2  0
 55 53  1  0
 55 60  1  0
 56 64  1  0
 56 66  1  0
 57 63  1  0
 57 59  1  0
 58 64  1  0
 59 58  1  0
 60 59  2  0
 61 62  1  0
 61 55  2  0
 62 57  2  0
 63 56  1  0
 64 54  1  0
 66 68  2  0
 67 66  1  0
 69 67  1  0
 70 79  2  0
 70 75  1  0
 71 67  1  0
 71 75  1  0
 72 71  1  0
 73 74  1  0
 73 72  1  0
 74 70  1  0
 75 76  2  0
 76 77  1  0
 78 77  2  0
 79 78  1  0
 80 54  1  0
 80 85  1  0
 80 81  1  0
 81 84  1  1
 81 82  1  0
 83 81  1  0
 85 88  1  0
 86 90  1  0
 86 85  1  0
 87 86  2  0
 90 89  1  0
 92 93  1  0
 92 90  1  0
 92 91  1  0
M  ISO  4  10 100  18 100  52 101  53 101
M  END
>  <TORSDO>  (73) 
F 20

>  <SCORE>  (73) 
-13.919

>  <name>  (73) 
72

>  <ligand_id>  (73) 
72

>  <original_smiles>  (73) 
[H]c1c([H])c([H])c2c(c1[H])C([H])([H])C([H])([H])C([H])([H])C2([H])N([H])C(=O)C1([H])N(C(=O)C([H])(N([H])C(=O)C([H])(N([H])C([H])([H])[H])C([H])([H])[H])C(C([H])([H])[H])(C([H])([H])[H])C([H])([H])[H])C([H])([H])c2c([H])c(OC([H])([H])C(F)(F)C([H])([H])N(c3c([H])c([H])c(N([H])C(=O)N4C([H])([H])C([H])([H])C([H])([H])C([H])(n5nc(-c6c([H])c([H])c(Oc7c([H])c([H])c(F)c([H])c7F)c([H])c6[H])c(C(=O)N([H])[H])c5N([H])[H])C4([H])[H])c([H])c3F)C([H])([H])[H])c([H])c([H])c2C1([H])[H]

>  <smiles>  (73) 
[H]c1c([H])c([H])c2c(c1[H])C([H])([H])C([H])([H])C([H])([H])C2([H])N([H])C(=O)C1([H])N(C(=O)C([H])(N([H])C(=O)C([H])(N([H])C([H])([H])[H])C([H])([H])[H])C(C([H])([H])[H])(C([H])([H])[H])C([H])([H])[H])C([H])([H])c2c([H])c(OC([H])([H])C(F)(F)C([H])([H])N(c3c([H])c([H])c(N([H])C(=O)N4C([H])([H])C([H])([H])C([H])([H])C([H])(n5nc(-c6c([H])c([H])c(Oc7c([H])c([H])c(F)c([H])c7F)c([H])c6[H])c(C(=O)N([H])[H])c5N([H])[H])C4([H])[H])c([H])c3F)C([H])([H])[H])c([H])c([H])c2C1([H])[H]

$$$$
73:0:0
     RDKit          3D

 97105  0  0  1  0  0  0  0  0999 V2000
  -28.1700  -20.2900   20.0670 C   0  0  0  0  0  3  0  0  0  0  0  0
  -28.3360  -18.8170   20.1090 C   0  0  0  0  0  3  0  0  0  0  0  0
  -30.5460  -19.0460   20.6960 C   0  0  0  0  0  3  0  0  0  0  0  0
  -29.1760  -21.3010   20.3420 C   0  0  0  0  0  0  0  0  0  0  0  0
  -30.3890  -20.5320   20.6820 C   0  0  0  0  0  0  0  0  0  0  0  0
  -29.5380  -18.0450   20.4010 C   0  0  0  0  0  0  0  0  0  0  0  0
  -30.4210  -15.2510   20.3220 C   0  0  0  0  0  0  0  0  0  0  0  0
  -30.4080  -12.8360   19.3980 C   0  0  0  0  0  2  0  0  0  0  0  0
  -29.4720  -12.6780   18.1720 C   0  0  0  0  0  2  0  0  0  0  0  0
  -28.0230  -12.4120   18.6160 C   0  0  0  0  0  2  0  0  0  0  0  0
  -27.5850  -13.3510   19.7670 C   0  0  0  0  0  3  0  0  0  0  0  0
  -28.6430  -13.4460   20.8880 C   0  0  0  0  0  2  0  0  0  0  0  0
  -29.8790  -13.9440   20.2630 N   0  0  0  0  0  0  0  0  0  0  0  0
  -31.6360  -15.3090   20.0850 O   0  0  0  0  0  0  0  0  0  0  0  0
  -29.5670  -16.4380   20.4320 N   0  0  0  0  0  0  0  0  0  0  0  0
  -28.6240  -16.0900   20.5100 H   0  0  0  0  0  0  0  0  0  0  0  0
  -25.2110  -13.9020   20.5310 C   0  0  0  0  0  0  0  0  0  0  0  0
  -24.1540  -13.1190   20.8980 C   0  0  0  0  0  0  0  0  0  0  0  0
  -24.6250  -11.7700   20.8550 C   0  0  0  0  0  0  0  0  0  0  0  0
  -26.2570  -13.0320   20.2770 N   0  0  0  0  0  0  0  0  0  0  0  0
  -25.9160  -11.7440   20.5400 N   0  0  0  0  0  0  0  0  0  0  0  0
  -23.9040  -10.5040   21.0360 C   0  0  0  0  0  0  0  0  0  0  0  0
  -24.3260   -9.5390   21.9760 C   0  0  0  0  0  3  0  0  0  0  0  0
  -23.6030   -8.3390   22.1460 C   0  0  0  0  0  3  0  0  0  0  0  0
  -22.4420   -8.0960   21.3740 C   0  0  0  0  0  0  0  0  0  0  0  0
  -22.0380   -9.0480   20.4230 C   0  0  0  0  0  3  0  0  0  0  0  0
  -22.7630  -10.2390   20.2510 C   0  0  0  0  0  3  0  0  0  0  0  0
  -21.6910   -6.9470   21.4540 O   0  0  0  0  0  0  0  0  0  0  0  0
  -21.6110   -6.2170   22.6120 C   0  0  0  0  0  0  0  0  0  0  0  0
  -21.1170   -6.7750   23.8110 C   0  0  0  0  0  3  0  0  0  0  0  0
  -20.9850   -5.9710   24.9600 C   0  0  0  0  0  3  0  0  0  0  0  0
  -21.3380   -4.6100   24.9120 C   0  0  0  0  0  0  0  0  0  0  0  0
  -21.8240   -4.0500   23.7170 C   0  0  0  0  0  3  0  0  0  0  0  0
  -21.9570   -4.8510   22.5700 C   0  0  0  0  0  0  0  0  0  0  0  0
  -22.4070   -4.3030   21.4150 F   0  0  0  0  0  0  0  0  0  0  0  0
  -21.2040   -3.8340   26.0130 F   0  0  0  0  0  0  0  0  0  0  0  0
  -22.7550  -13.5880   21.1710 C   0  0  0  0  0  0  0  0  0  0  0  0
  -22.0270  -12.8810   22.0280 N   0  0  0  0  0  0  0  0  0  0  0  0
  -22.3150  -14.6180   20.6610 O   0  0  0  0  0  0  0  0  0  0  0  0
  -22.3940  -12.0480   22.4640 H   0  0  0  0  0  0  0  0  0  0  0  0
  -21.0890  -13.1800   22.2560 H   0  0  0  0  0  0  0  0  0  0  0  0
  -25.3650  -15.2750   20.3590 N   0  0  0  0  0  0  0  0  0  0  0  0
  -24.5830  -15.9140   20.4640 H   0  0  0  0  0  0  0  0  0  0  0  0
  -26.1780  -15.7130   19.9520 H   0  0  0  0  0  0  0  0  0  0  0  0
  -31.6520  -21.2940   21.0760 C   0  0  0  0  0  2  0  0  0  0  0  0
  -32.5880  -21.5840   19.8820 C   0  0  0  0  0  2  0  0  0  0  0  0
  -34.8210  -21.4820   20.9580 C   0  0  0  0  0  1  0  0  0  0  0  0
  -34.4170  -23.0560   19.1270 C   0  0  0  0  0  1  0  0  0  0  0  0
  -33.8170  -22.3270   20.2680 N   0  0  1  0  0  4  0  0  0  0  0  0
  -33.5390  -23.0400   20.9250 H   0  0  0  0  0  0  0  0  0  0  0  0
  -29.0870  -23.0210   20.0370 C   0  0  0  0  0  3  0  0  0  0  0  0
  -29.1670  -23.1170   18.5680 N   0  0  0  0  0  4  0  0  0  0  0  0
  -28.2800  -22.8900   18.1520 H   0  0  0  0  0  0  0  0  0  0  0  0
  -29.8490  -22.4800   18.2000 H   0  0  0  0  0  0  0  0  0  0  0  0
  -29.4120  -24.0510   18.2890 H   0  0  0  0  0  0  0  0  0  0  0  0
  -28.0650  -24.3830   20.5250 C   0  0  0  0  0  2  0  0  0  0  0  0
  -28.2570  -25.9940   20.3300 O   0  0  0  0  0  0  0  0  0  0  0  0
  -24.6080  -31.9060   23.2170 C   0  0  0  0  0  0  0  0  0  0  0  0
  -27.2080  -27.0360   20.2920 C   0  0  0  0  0  0  0  0  0  0  0  0
  -23.4270  -30.4780   21.5970 C   0  0  0  0  0  3  0  0  0  0  0  0
  -24.8890  -28.8650   20.2080 C   0  0  0  0  0  0  0  0  0  0  0  0
  -25.9890  -30.7160   21.4500 C   0  0  0  0  0  2  0  0  0  0  0  0
  -26.0710  -29.3000   20.8200 C   0  0  0  0  0  0  0  0  0  0  0  0
  -27.2280  -28.4080   20.8330 C   0  0  0  0  0  3  0  0  0  0  0  0
  -25.9940  -26.7370   19.6350 C   0  0  0  0  0  3  0  0  0  0  0  0
  -24.8720  -27.6020   19.5950 C   0  0  0  0  0  3  0  0  0  0  0  0
  -23.6640  -29.7750   20.2320 C   0  0  0  0  0  2  0  0  0  0  0  0
  -24.6960  -31.0600   22.1420 N   0  0  0  0  0  0  0  0  0  0  0  0
  -23.5170  -32.1970   23.7320 O   0  0  0  0  0  0  0  0  0  0  0  0
  -22.7380  -29.4920   22.5740 C   0  0  0  0  0  0  0  0  0  0  0  0
  -21.4100  -29.3160   22.4460 N   0  0  0  0  0  0  0  0  0  0  0  0
  -23.4050  -28.8830   23.4160 O   0  0  0  0  0  0  0  0  0  0  0  0
  -20.9260  -29.8560   21.7430 H   0  0  0  0  0  0  0  0  0  0  0  0
  -18.0280  -28.1170   22.9740 C   0  0  0  0  0  0  0  0  0  0  0  0
  -20.5880  -28.3870   23.2290 C   0  0  0  0  0  3  0  0  0  0  0  0
  -20.6880  -26.9490   22.6680 C   0  0  0  0  0  2  0  0  0  0  0  0
  -19.5840  -26.6160   21.6610 C   0  0  0  0  0  2  0  0  0  0  0  0
  -18.2040  -26.7640   22.3070 C   0  0  0  0  0  2  0  0  0  0  0  0
  -19.1470  -28.8860   23.3930 C   0  0  0  0  0  0  0  0  0  0  0  0
  -18.9260  -30.1520   23.9790 C   0  0  0  0  0  3  0  0  0  0  0  0
  -17.6200  -30.6480   24.1500 C   0  0  0  0  0  3  0  0  0  0  0  0
  -16.5160  -29.8780   23.7460 C   0  0  0  0  0  3  0  0  0  0  0  0
  -16.7210  -28.6140   23.1640 C   0  0  0  0  0  3  0  0  0  0  0  0
  -25.8760  -32.5630   23.8440 C   0  0  0  0  0  3  0  0  0  0  0  0
  -25.5490  -33.9640   24.1610 N   0  0  0  0  0  0  0  0  0  0  0  0
  -25.8870  -35.0200   23.4080 C   0  0  0  0  0  0  0  0  0  0  0  0
  -26.5680  -34.9170   22.3850 O   0  0  0  0  0  0  0  0  0  0  0  0
  -24.9430  -34.1170   24.9530 H   0  0  0  0  0  0  0  0  0  0  0  0
  -24.1710  -36.8220   23.0220 C   0  0  0  0  0  1  0  0  0  0  0  0
  -25.3910  -36.4090   23.8590 C   0  0  0  0  0  3  0  0  0  0  0  0
  -27.5040  -37.2950   24.7460 C   0  0  0  0  0  1  0  0  0  0  0  0
  -26.4290  -37.4610   23.7730 N   0  0  0  0  0  0  0  0  0  0  0  0
  -26.0190  -38.3830   23.9060 H   0  0  0  0  0  0  0  0  0  0  0  0
  -26.3840  -31.8160   25.1390 C   0  0  1  0  0  0  0  0  0  0  0  0
  -25.2820  -31.5890   26.2010 C   0  0  0  0  0  1  0  0  0  0  0  0
  -26.9790  -30.4350   24.7830 C   0  0  0  0  0  1  0  0  0  0  0  0
  -27.5230  -32.6280   25.7970 C   0  0  0  0  0  1  0  0  0  0  0  0
  1  2  2  0
  1  4  1  0
  2  6  1  0
  4  5  2  0
  5  3  1  0
  5 45  1  0
  6 15  1  0
  6  3  2  0
  7 15  1  0
  8 13  1  0
  9 10  1  0
  9  8  1  0
 11 10  1  0
 11 20  1  0
 11 12  1  0
 13  7  1  0
 13 12  1  0
 14  7  2  0
 15 16  1  0
 17 18  2  0
 18 37  1  0
 19 18  1  0
 19 22  1  0
 20 17  1  0
 20 21  1  0
 21 19  2  0
 22 23  1  0
 23 24  2  0
 25 28  1  0
 25 24  1  0
 26 25  2  0
 27 26  1  0
 27 22  2  0
 28 29  1  0
 29 30  1  0
 30 31  2  0
 32 31  1  0
 32 36  1  0
 33 32  2  0
 34 29  2  0
 34 33  1  0
 35 34  1  0
 37 38  1  0
 38 41  1  0
 38 40  1  0
 39 37  2  0
 42 43  1  0
 42 17  1  0
 44 42  1  0
 46 49  1  0
 46 45  1  0
 48 49  1  0
 49 50  1  1
 49 47  1  0
 51  4  1  0
 51 56  1  0
 52 51  1  0
 53 52  1  0
 54 52  1  0
 55 52  1  0
 57 56  1  0
 58 69  2  0
 59 57  1  0
 59 64  1  0
 60 68  1  0
 60 70  1  0
 61 67  1  0
 61 63  1  0
 62 68  1  0
 63 64  2  0
 63 62  1  0
 65 59  2  0
 66 65  1  0
 66 61  2  0
 67 60  1  0
 68 58  1  0
 70 72  2  0
 71 70  1  0
 73 71  1  0
 74 83  2  0
 74 79  1  0
 75 71  1  0
 75 79  1  0
 76 75  1  0
 77 78  1  0
 77 76  1  0
 78 74  1  0
 79 80  2  0
 80 81  1  0
 82 81  2  0
 83 82  1  0
 84 58  1  0
 84 85  1  0
 84 94  1  0
 85 88  1  0
 86 90  1  0
 86 85  1  0
 87 86  2  0
 90 89  1  0
 92 90  1  0
 92 93  1  0
 92 91  1  0
 94 97  1  1
 94 95  1  0
 96 94  1  0
M  ISO  4   7 100  15 100  56 101  57 101
M  END
>  <TORSDO>  (74) 
F 22

>  <SCORE>  (74) 
-14.782

>  <name>  (74) 
73

>  <ligand_id>  (74) 
73

>  <original_smiles>  (74) 
[H]c1c([H])c([H])c2c(c1[H])C([H])([H])C([H])([H])C([H])([H])C2([H])N([H])C(=O)C1([H])N(C(=O)C([H])(N([H])C(=O)C([H])(N([H])C([H])([H])[H])C([H])([H])[H])C(C([H])([H])[H])(C([H])([H])[H])C([H])([H])[H])C([H])([H])c2c([H])c(OC([H])([H])C([H])(c3c([H])c([H])c(N([H])C(=O)N4C([H])([H])C([H])([H])C([H])([H])C([H])(n5nc(-c6c([H])c([H])c(Oc7c([H])c([H])c(F)c([H])c7F)c([H])c6[H])c(C(=O)N([H])[H])c5N([H])[H])C4([H])[H])c([H])c3C([H])([H])C([H])([H])[N+]([H])(C([H])([H])[H])C([H])([H])[H])[N+]([H])([H])[H])c([H])c([H])c2C1([H])[H]

>  <smiles>  (74) 
[H]c1c([H])c([H])c2c(c1[H])C([H])([H])C([H])([H])C([H])([H])C2([H])N([H])C(=O)C1([H])N(C(=O)C([H])(N([H])C(=O)C([H])(N([H])C([H])([H])[H])C([H])([H])[H])C(C([H])([H])[H])(C([H])([H])[H])C([H])([H])[H])C([H])([H])c2c([H])c(OC([H])([H])C([H])(c3c([H])c([H])c(N([H])C(=O)N4C([H])([H])C([H])([H])C([H])([H])C([H])(n5nc(-c6c([H])c([H])c(Oc7c([H])c([H])c(F)c([H])c7F)c([H])c6[H])c(C(=O)N([H])[H])c5N([H])[H])C4([H])[H])c([H])c3C([H])([H])C([H])([H])[N+]([H])(C([H])([H])[H])C([H])([H])[H])[N+]([H])([H])[H])c([H])c([H])c2C1([H])[H]

$$$$
74:0:0
     RDKit          3D

 94102  0  0  1  0  0  0  0  0999 V2000
  -29.0400  -23.4900   20.1020 C   0  0  0  0  0  3  0  0  0  0  0  0
  -28.7410  -22.0370   20.8030 C   0  0  0  0  0  0  0  0  0  0  0  0
  -28.0620  -22.1090   21.8290 O   0  0  0  0  0  0  0  0  0  0  0  0
  -30.0320  -19.7760   21.3310 C   0  0  0  0  0  3  0  0  0  0  0  0
  -28.7440  -19.7430   19.3510 C   0  0  0  0  0  3  0  0  0  0  0  0
  -30.2690  -18.3490   21.2210 C   0  0  0  0  0  3  0  0  0  0  0  0
  -28.9680  -18.3110   19.2480 C   0  0  0  0  0  3  0  0  0  0  0  0
  -29.2520  -20.5630   20.4150 C   0  0  0  0  0  0  0  0  0  0  0  0
  -29.7310  -17.5290   20.1800 C   0  0  0  0  0  0  0  0  0  0  0  0
  -30.5150  -14.9230   19.9630 C   0  0  0  0  0  0  0  0  0  0  0  0
  -30.3420  -12.6160   18.9510 C   0  0  0  0  0  2  0  0  0  0  0  0
  -29.3230  -12.6480   17.7890 C   0  0  0  0  0  2  0  0  0  0  0  0
  -27.8850  -12.4420   18.3060 C   0  0  0  0  0  2  0  0  0  0  0  0
  -27.5710  -13.3200   19.5450 C   0  0  0  0  0  3  0  0  0  0  0  0
  -28.6990  -13.2490   20.5970 C   0  0  0  0  0  2  0  0  0  0  0  0
  -29.9420  -13.6610   19.9280 N   0  0  0  0  0  0  0  0  0  0  0  0
  -31.6850  -15.0560   19.5850 O   0  0  0  0  0  0  0  0  0  0  0  0
  -29.6710  -16.0150   20.2340 N   0  0  0  0  0  0  0  0  0  0  0  0
  -28.7440  -15.6790   20.4430 H   0  0  0  0  0  0  0  0  0  0  0  0
  -25.2430  -13.8950   20.4510 C   0  0  0  0  0  0  0  0  0  0  0  0
  -24.1990  -13.1160   20.8670 C   0  0  0  0  0  0  0  0  0  0  0  0
  -24.6500  -11.7630   20.7640 C   0  0  0  0  0  0  0  0  0  0  0  0
  -26.2620  -13.0190   20.1170 N   0  0  0  0  0  0  0  0  0  0  0  0
  -25.9180  -11.7290   20.3690 N   0  0  0  0  0  0  0  0  0  0  0  0
  -23.9290  -10.4990   20.9640 C   0  0  0  0  0  0  0  0  0  0  0  0
  -24.3870   -9.5230   21.8740 C   0  0  0  0  0  3  0  0  0  0  0  0
  -23.6650   -8.3250   22.0610 C   0  0  0  0  0  3  0  0  0  0  0  0
  -22.4700   -8.0940   21.3390 C   0  0  0  0  0  0  0  0  0  0  0  0
  -22.0310   -9.0610   20.4170 C   0  0  0  0  0  3  0  0  0  0  0  0
  -22.7530  -10.2500   20.2270 C   0  0  0  0  0  3  0  0  0  0  0  0
  -21.7160   -6.9500   21.4370 O   0  0  0  0  0  0  0  0  0  0  0  0
  -21.6700   -6.2170   22.5950 C   0  0  0  0  0  0  0  0  0  0  0  0
  -21.2200   -6.7750   23.8120 C   0  0  0  0  0  3  0  0  0  0  0  0
  -21.1220   -5.9670   24.9630 C   0  0  0  0  0  3  0  0  0  0  0  0
  -21.4610   -4.6020   24.8980 C   0  0  0  0  0  0  0  0  0  0  0  0
  -21.9020   -4.0440   23.6850 C   0  0  0  0  0  3  0  0  0  0  0  0
  -22.0030   -4.8490   22.5370 C   0  0  0  0  0  0  0  0  0  0  0  0
  -22.4080   -4.3000   21.3670 F   0  0  0  0  0  0  0  0  0  0  0  0
  -21.3590   -3.8240   26.0010 F   0  0  0  0  0  0  0  0  0  0  0  0
  -22.8250  -13.5920   21.2410 C   0  0  0  0  0  0  0  0  0  0  0  0
  -22.1470  -12.8710   22.1270 N   0  0  0  0  0  0  0  0  0  0  0  0
  -22.3640  -14.6370   20.7840 O   0  0  0  0  0  0  0  0  0  0  0  0
  -22.5310  -12.0260   22.5210 H   0  0  0  0  0  0  0  0  0  0  0  0
  -21.2270  -13.1720   22.4180 H   0  0  0  0  0  0  0  0  0  0  0  0
  -25.4010  -15.2700   20.3040 N   0  0  0  0  0  0  0  0  0  0  0  0
  -24.6400  -15.9170   20.4830 H   0  0  0  0  0  0  0  0  0  0  0  0
  -26.2090  -15.7210   19.8960 H   0  0  0  0  0  0  0  0  0  0  0  0
  -29.1360  -23.3770   18.5600 C   0  0  0  0  0  2  0  0  0  0  0  0
  -30.2440  -22.3560   16.6160 C   0  0  0  0  0  1  0  0  0  0  0  0
  -31.6030  -23.5300   18.2790 C   0  0  0  0  0  1  0  0  0  0  0  0
  -30.3770  -22.7280   18.0430 N   0  0  1  0  0  4  0  0  0  0  0  0
  -30.5110  -21.8520   18.5270 H   0  0  0  0  0  0  0  0  0  0  0  0
  -28.0690  -24.7910   20.4980 C   0  0  0  0  0  2  0  0  0  0  0  0
  -28.3440  -26.2930   20.2660 O   0  0  0  0  0  0  0  0  0  0  0  0
  -24.6260  -31.8880   23.2410 C   0  0  0  0  0  0  0  0  0  0  0  0
  -27.2640  -27.2340   20.2230 C   0  0  0  0  0  0  0  0  0  0  0  0
  -23.4460  -30.4820   21.5960 C   0  0  0  0  0  3  0  0  0  0  0  0
  -24.9160  -28.9270   20.1790 C   0  0  0  0  0  0  0  0  0  0  0  0
  -25.9940  -30.7820   21.4410 C   0  0  0  0  0  2  0  0  0  0  0  0
  -26.0850  -29.3920   20.7930 C   0  0  0  0  0  0  0  0  0  0  0  0
  -27.2620  -28.5610   20.8000 C   0  0  0  0  0  3  0  0  0  0  0  0
  -26.0730  -26.8660   19.5600 C   0  0  0  0  0  3  0  0  0  0  0  0
  -24.9200  -27.6760   19.5470 C   0  0  0  0  0  3  0  0  0  0  0  0
  -23.6780  -29.8070   20.2180 C   0  0  0  0  0  2  0  0  0  0  0  0
  -24.7080  -31.0710   22.1480 N   0  0  0  0  0  0  0  0  0  0  0  0
  -23.5360  -32.1620   23.7640 O   0  0  0  0  0  0  0  0  0  0  0  0
  -22.7730  -29.4660   22.5530 C   0  0  0  0  0  0  0  0  0  0  0  0
  -21.4450  -29.2930   22.4270 N   0  0  0  0  0  0  0  0  0  0  0  0
  -23.4480  -28.8360   23.3710 O   0  0  0  0  0  0  0  0  0  0  0  0
  -20.9570  -29.8530   21.7420 H   0  0  0  0  0  0  0  0  0  0  0  0
  -18.0670  -28.0900   22.9270 C   0  0  0  0  0  0  0  0  0  0  0  0
  -20.6260  -28.3520   23.1950 C   0  0  0  0  0  3  0  0  0  0  0  0
  -20.7280  -26.9220   22.6170 C   0  0  0  0  0  2  0  0  0  0  0  0
  -19.6260  -26.6010   21.6010 C   0  0  0  0  0  2  0  0  0  0  0  0
  -18.2440  -26.7430   22.2460 C   0  0  0  0  0  2  0  0  0  0  0  0
  -19.1850  -28.8530   23.3590 C   0  0  0  0  0  0  0  0  0  0  0  0
  -18.9630  -30.1130   23.9550 C   0  0  0  0  0  3  0  0  0  0  0  0
  -17.6560  -30.6090   24.1260 C   0  0  0  0  0  3  0  0  0  0  0  0
  -16.5540  -29.8430   23.7110 C   0  0  0  0  0  3  0  0  0  0  0  0
  -16.7600  -28.5860   23.1160 C   0  0  0  0  0  3  0  0  0  0  0  0
  -25.8970  -32.5330   23.8730 C   0  0  0  0  0  3  0  0  0  0  0  0
  -25.5770  -33.9340   24.1900 N   0  0  0  0  0  0  0  0  0  0  0  0
  -25.9130  -34.9850   23.4310 C   0  0  0  0  0  0  0  0  0  0  0  0
  -26.5930  -34.8770   22.4060 O   0  0  0  0  0  0  0  0  0  0  0  0
  -24.9740  -34.0910   24.9860 H   0  0  0  0  0  0  0  0  0  0  0  0
  -24.1900  -36.7780   23.0480 C   0  0  0  0  0  1  0  0  0  0  0  0
  -25.4200  -36.3750   23.8780 C   0  0  0  0  0  3  0  0  0  0  0  0
  -27.5410  -37.2660   24.7360 C   0  0  0  0  0  1  0  0  0  0  0  0
  -26.4540  -37.4290   23.7740 N   0  0  0  0  0  0  0  0  0  0  0  0
  -26.0460  -38.3480   23.9110 H   0  0  0  0  0  0  0  0  0  0  0  0
  -26.3990  -31.7770   25.1640 C   0  0  1  0  0  0  0  0  0  0  0  0
  -25.2920  -31.5460   26.2200 C   0  0  0  0  0  1  0  0  0  0  0  0
  -26.9920  -30.3970   24.7970 C   0  0  0  0  0  1  0  0  0  0  0  0
  -27.5380  -32.5810   25.8330 C   0  0  0  0  0  1  0  0  0  0  0  0
  1 48  1  0
  1 53  1  0
  1  2  1  0
  2  3  2  0
  5  8  1  0
  6  4  1  0
  7  5  2  0
  7  9  1  0
  8  2  1  0
  8  4  2  0
  9 18  1  0
  9  6  2  0
 10 18  1  0
 11 16  1  0
 12 13  1  0
 12 11  1  0
 14 13  1  0
 14 23  1  0
 14 15  1  0
 16 10  1  0
 16 15  1  0
 17 10  2  0
 18 19  1  0
 20 21  2  0
 21 40  1  0
 22 21  1  0
 22 25  1  0
 23 24  1  0
 23 20  1  0
 24 22  2  0
 25 26  1  0
 26 27  2  0
 28 31  1  0
 28 27  1  0
 29 28  2  0
 30 29  1  0
 30 25  2  0
 31 32  1  0
 32 33  1  0
 33 34  2  0
 35 34  1  0
 35 39  1  0
 36 35  2  0
 37 32  2  0
 37 36  1  0
 38 37  1  0
 40 41  1  0
 41 44  1  0
 41 43  1  0
 42 40  2  0
 45 20  1  0
 45 46  1  0
 47 45  1  0
 49 51  1  0
 51 50  1  0
 51 52  1  1
 51 48  1  0
 54 53  1  0
 55 66  2  0
 56 54  1  0
 56 61  1  0
 57 65  1  0
 57 67  1  0
 58 64  1  0
 58 60  1  0
 59 65  1  0
 60 61  2  0
 60 59  1  0
 62 56  2  0
 63 62  1  0
 63 58  2  0
 64 57  1  0
 65 55  1  0
 67 69  2  0
 68 67  1  0
 70 68  1  0
 71 80  2  0
 71 76  1  0
 72 68  1  0
 72 76  1  0
 73 72  1  0
 74 75  1  0
 74 73  1  0
 75 71  1  0
 76 77  2  0
 77 78  1  0
 79 78  2  0
 80 79  1  0
 81 55  1  0
 81 82  1  0
 81 91  1  0
 82 85  1  0
 83 87  1  0
 83 82  1  0
 84 83  2  0
 87 86  1  0
 89 87  1  0
 89 90  1  0
 89 88  1  0
 91 94  1  1
 91 92  1  0
 93 91  1  0
M  ISO  4  10 100  18 100  53 101  54 101
M  END
>  <TORSDO>  (75) 
F 21

>  <SCORE>  (75) 
-13.533

>  <name>  (75) 
74

>  <ligand_id>  (75) 
74

>  <original_smiles>  (75) 
[H]c1c([H])c([H])c2c(c1[H])C([H])([H])C([H])([H])C([H])([H])C2([H])N([H])C(=O)C1([H])N(C(=O)C([H])(N([H])C(=O)C([H])(N([H])C([H])([H])[H])C([H])([H])[H])C(C([H])([H])[H])(C([H])([H])[H])C([H])([H])[H])C([H])([H])c2c([H])c(OC([H])([H])C([H])(C(=O)c3c([H])c([H])c(N([H])C(=O)N4C([H])([H])C([H])([H])C([H])([H])C([H])(n5nc(-c6c([H])c([H])c(Oc7c([H])c([H])c(F)c([H])c7F)c([H])c6[H])c(C(=O)N([H])[H])c5N([H])[H])C4([H])[H])c([H])c3[H])C([H])([H])[N+]([H])(C([H])([H])[H])C([H])([H])[H])c([H])c([H])c2C1([H])[H]

>  <smiles>  (75) 
[H]c1c([H])c([H])c2c(c1[H])C([H])([H])C([H])([H])C([H])([H])C2([H])N([H])C(=O)C1([H])N(C(=O)C([H])(N([H])C(=O)C([H])(N([H])C([H])([H])[H])C([H])([H])[H])C(C([H])([H])[H])(C([H])([H])[H])C([H])([H])[H])C([H])([H])c2c([H])c(OC([H])([H])C([H])(C(=O)c3c([H])c([H])c(N([H])C(=O)N4C([H])([H])C([H])([H])C([H])([H])C([H])(n5nc(-c6c([H])c([H])c(Oc7c([H])c([H])c(F)c([H])c7F)c([H])c6[H])c(C(=O)N([H])[H])c5N([H])[H])C4([H])[H])c([H])c3[H])C([H])([H])[N+]([H])(C([H])([H])[H])C([H])([H])[H])c([H])c([H])c2C1([H])[H]

$$$$
75:0:0
     RDKit          3D

 96104  0  0  1  0  0  0  0  0999 V2000
  -31.3840  -19.9690   21.0340 C   0  0  0  0  0  3  0  0  0  0  0  0
  -31.0140  -18.6180   20.8130 C   0  0  0  0  0  3  0  0  0  0  0  0
  -28.8890  -19.5100   20.1160 C   0  0  0  0  0  3  0  0  0  0  0  0
  -30.5670  -21.1210   20.8160 C   0  0  0  0  0  0  0  0  0  0  0  0
  -29.2260  -21.0240   20.3220 C   0  0  0  0  0  0  0  0  0  0  0  0
  -29.7470  -18.2260   20.3440 C   0  0  0  0  0  0  0  0  0  0  0  0
  -30.3050  -15.3400   20.1150 C   0  0  0  0  0  0  0  0  0  0  0  0
  -30.3020  -12.9040   19.1710 C   0  0  0  0  0  2  0  0  0  0  0  0
  -29.3430  -12.6770   17.9750 C   0  0  0  0  0  2  0  0  0  0  0  0
  -27.9240  -12.3520   18.4710 C   0  0  0  0  0  2  0  0  0  0  0  0
  -27.4870  -13.2940   19.6200 C   0  0  0  0  0  3  0  0  0  0  0  0
  -28.5690  -13.4650   20.7050 C   0  0  0  0  0  2  0  0  0  0  0  0
  -29.7550  -14.0220   20.0300 N   0  0  0  0  0  0  0  0  0  0  0  0
  -31.5260  -15.3420   19.8880 O   0  0  0  0  0  0  0  0  0  0  0  0
  -29.5140  -16.6130   20.2050 N   0  0  0  0  0  0  0  0  0  0  0  0
  -28.5310  -16.3830   20.2050 H   0  0  0  0  0  0  0  0  0  0  0  0
  -25.1370  -13.7980   20.4630 C   0  0  0  0  0  0  0  0  0  0  0  0
  -24.1010  -12.9970   20.8510 C   0  0  0  0  0  0  0  0  0  0  0  0
  -24.5900  -11.6560   20.7900 C   0  0  0  0  0  0  0  0  0  0  0  0
  -26.1860  -12.9440   20.1720 N   0  0  0  0  0  0  0  0  0  0  0  0
  -25.8730  -11.6500   20.4390 N   0  0  0  0  0  0  0  0  0  0  0  0
  -23.8910  -10.3800   20.9880 C   0  0  0  0  0  0  0  0  0  0  0  0
  -24.3510   -9.4210   21.9150 C   0  0  0  0  0  3  0  0  0  0  0  0
  -23.6480   -8.2120   22.1040 C   0  0  0  0  0  3  0  0  0  0  0  0
  -22.4700   -7.9530   21.3640 C   0  0  0  0  0  0  0  0  0  0  0  0
  -22.0280   -8.9020   20.4260 C   0  0  0  0  0  3  0  0  0  0  0  0
  -22.7310  -10.1020   20.2350 C   0  0  0  0  0  3  0  0  0  0  0  0
  -21.7380   -6.7940   21.4600 O   0  0  0  0  0  0  0  0  0  0  0  0
  -21.7020   -6.0590   22.6170 C   0  0  0  0  0  0  0  0  0  0  0  0
  -21.2410   -6.6080   23.8340 C   0  0  0  0  0  3  0  0  0  0  0  0
  -21.1550   -5.7980   24.9840 C   0  0  0  0  0  3  0  0  0  0  0  0
  -21.5200   -4.4400   24.9190 C   0  0  0  0  0  0  0  0  0  0  0  0
  -21.9720   -3.8900   23.7070 C   0  0  0  0  0  3  0  0  0  0  0  0
  -22.0590   -4.6970   22.5590 C   0  0  0  0  0  0  0  0  0  0  0  0
  -22.4770   -4.1560   21.3890 F   0  0  0  0  0  0  0  0  0  0  0  0
  -21.4280   -3.6600   26.0220 F   0  0  0  0  0  0  0  0  0  0  0  0
  -22.7040  -13.4480   21.1620 C   0  0  0  0  0  0  0  0  0  0  0  0
  -22.0130  -12.7350   22.0430 N   0  0  0  0  0  0  0  0  0  0  0  0
  -22.2360  -14.4710   20.6630 O   0  0  0  0  0  0  0  0  0  0  0  0
  -22.4050  -11.9080   22.4690 H   0  0  0  0  0  0  0  0  0  0  0  0
  -21.0770  -13.0190   22.2960 H   0  0  0  0  0  0  0  0  0  0  0  0
  -25.2670  -15.1740   20.3020 N   0  0  0  0  0  0  0  0  0  0  0  0
  -24.4900  -15.8080   20.4550 H   0  0  0  0  0  0  0  0  0  0  0  0
  -26.1020  -15.6440   19.9770 H   0  0  0  0  0  0  0  0  0  0  0  0
  -31.2570  -22.4610   21.0970 C   0  0  0  0  0  2  0  0  0  0  0  0
  -31.4680  -22.6860   22.5360 N   0  0  0  0  0  4  0  0  0  0  0  0
  -30.6110  -22.6060   23.0490 H   0  0  0  0  0  0  0  0  0  0  0  0
  -31.8510  -23.6020   22.6870 H   0  0  0  0  0  0  0  0  0  0  0  0
  -32.1230  -22.0190   22.9000 H   0  0  0  0  0  0  0  0  0  0  0  0
  -28.3690  -22.5240   19.8840 C   0  0  0  0  0  3  0  0  0  0  0  0
  -28.5790  -22.7050   18.4370 N   0  0  0  0  0  4  0  0  0  0  0  0
  -28.4610  -21.8290   17.9590 H   0  0  0  0  0  0  0  0  0  0  0  0
  -29.4980  -23.0550   18.2370 H   0  0  0  0  0  0  0  0  0  0  0  0
  -27.9080  -23.3540   18.0670 H   0  0  0  0  0  0  0  0  0  0  0  0
  -28.1040  -24.1960   20.5950 C   0  0  0  0  0  2  0  0  0  0  0  0
  -28.1600  -25.8100   20.1580 O   0  0  0  0  0  0  0  0  0  0  0  0
  -24.5620  -31.8140   23.1580 C   0  0  0  0  0  0  0  0  0  0  0  0
  -27.1230  -26.8940   20.1870 C   0  0  0  0  0  0  0  0  0  0  0  0
  -23.3750  -30.4160   21.5160 C   0  0  0  0  0  3  0  0  0  0  0  0
  -24.8290  -28.7960   20.1130 C   0  0  0  0  0  0  0  0  0  0  0  0
  -25.9440  -30.6170   21.3840 C   0  0  0  0  0  2  0  0  0  0  0  0
  -26.0170  -29.1980   20.7380 C   0  0  0  0  0  0  0  0  0  0  0  0
  -27.1590  -28.2720   20.7410 C   0  0  0  0  0  3  0  0  0  0  0  0
  -25.8990  -26.6460   19.5220 C   0  0  0  0  0  3  0  0  0  0  0  0
  -24.7980  -27.5410   19.4810 C   0  0  0  0  0  3  0  0  0  0  0  0
  -23.6140  -29.7260   20.1450 C   0  0  0  0  0  2  0  0  0  0  0  0
  -24.6490  -30.9770   22.0740 N   0  0  0  0  0  0  0  0  0  0  0  0
  -23.4700  -32.1090   23.6710 O   0  0  0  0  0  0  0  0  0  0  0  0
  -22.6720  -29.4250   22.4820 C   0  0  0  0  0  0  0  0  0  0  0  0
  -21.3410  -29.2720   22.3570 N   0  0  0  0  0  0  0  0  0  0  0  0
  -23.3310  -28.7930   23.3120 O   0  0  0  0  0  0  0  0  0  0  0  0
  -20.8610  -29.8370   21.6690 H   0  0  0  0  0  0  0  0  0  0  0  0
  -17.9460  -28.0890   22.8660 C   0  0  0  0  0  0  0  0  0  0  0  0
  -20.5090  -28.3360   23.1230 C   0  0  0  0  0  3  0  0  0  0  0  0
  -20.5960  -26.9040   22.5420 C   0  0  0  0  0  2  0  0  0  0  0  0
  -19.4900  -26.5970   21.5280 C   0  0  0  0  0  2  0  0  0  0  0  0
  -18.1120  -26.7440   22.1770 C   0  0  0  0  0  2  0  0  0  0  0  0
  -19.0710  -28.8430   23.2950 C   0  0  0  0  0  0  0  0  0  0  0  0
  -18.8600  -30.0990   23.9040 C   0  0  0  0  0  3  0  0  0  0  0  0
  -17.5590  -30.6030   24.0830 C   0  0  0  0  0  3  0  0  0  0  0  0
  -16.4480  -29.8470   23.6680 C   0  0  0  0  0  3  0  0  0  0  0  0
  -16.6430  -28.5910   23.0660 C   0  0  0  0  0  3  0  0  0  0  0  0
  -25.8300  -32.4570   23.7990 C   0  0  0  0  0  3  0  0  0  0  0  0
  -25.5130  -33.8590   24.1290 N   0  0  0  0  0  0  0  0  0  0  0  0
  -25.8550  -34.9200   23.3870 C   0  0  0  0  0  0  0  0  0  0  0  0
  -26.5360  -34.8230   22.3620 O   0  0  0  0  0  0  0  0  0  0  0  0
  -24.9120  -34.0070   24.9260 H   0  0  0  0  0  0  0  0  0  0  0  0
  -24.1460  -36.7350   23.0300 C   0  0  0  0  0  1  0  0  0  0  0  0
  -25.3710  -36.3080   23.8530 C   0  0  0  0  0  3  0  0  0  0  0  0
  -27.4970  -37.1750   24.7280 C   0  0  0  0  0  1  0  0  0  0  0  0
  -26.4110  -37.3580   23.7690 N   0  0  0  0  0  0  0  0  0  0  0  0
  -26.0060  -38.2780   23.9250 H   0  0  0  0  0  0  0  0  0  0  0  0
  -26.3220  -31.6960   25.0920 C   0  0  1  0  0  0  0  0  0  0  0  0
  -25.2120  -31.4790   26.1480 C   0  0  0  0  0  1  0  0  0  0  0  0
  -26.8990  -30.3080   24.7300 C   0  0  0  0  0  1  0  0  0  0  0  0
  -27.4700  -32.4880   25.7610 C   0  0  0  0  0  1  0  0  0  0  0  0
  2  1  2  0
  3  5  1  0
  3  6  2  0
  4  1  1  0
  4 45  1  0
  5  4  2  0
  6  2  1  0
  7 15  1  0
  8 13  1  0
  9 10  1  0
  9  8  1  0
 11 10  1  0
 11 20  1  0
 11 12  1  0
 13  7  1  0
 13 12  1  0
 14  7  2  0
 15 16  1  0
 15  6  1  0
 17 18  2  0
 18 37  1  0
 19 18  1  0
 19 22  1  0
 20 21  1  0
 20 17  1  0
 21 19  2  0
 22 23  1  0
 23 24  2  0
 25 28  1  0
 25 24  1  0
 26 25  2  0
 27 26  1  0
 27 22  2  0
 28 29  1  0
 29 30  1  0
 30 31  2  0
 32 31  1  0
 32 36  1  0
 33 32  2  0
 34 29  2  0
 34 33  1  0
 35 34  1  0
 37 38  1  0
 38 41  1  0
 38 40  1  0
 39 37  2  0
 42 43  1  0
 42 17  1  0
 44 42  1  0
 45 46  1  0
 46 48  1  0
 46 49  1  0
 46 47  1  0
 50  5  1  0
 50 55  1  0
 51 50  1  0
 52 51  1  0
 53 51  1  0
 54 51  1  0
 56 58  1  0
 56 55  1  0
 57 68  2  0
 58 63  1  0
 59 67  1  0
 59 69  1  0
 60 66  1  0
 60 62  1  0
 61 67  1  0
 62 63  2  0
 62 61  1  0
 64 58  2  0
 65 64  1  0
 65 60  2  0
 66 59  1  0
 67 57  1  0
 69 71  2  0
 70 69  1  0
 72 70  1  0
 73 82  2  0
 73 78  1  0
 74 70  1  0
 74 78  1  0
 75 74  1  0
 76 77  1  0
 76 75  1  0
 77 73  1  0
 78 79  2  0
 79 80  1  0
 81 80  2  0
 82 81  1  0
 83 57  1  0
 83 84  1  0
 83 93  1  0
 84 87  1  0
 85 89  1  0
 85 84  1  0
 86 85  2  0
 89 88  1  0
 91 89  1  0
 91 92  1  0
 91 90  1  0
 93 96  1  1
 93 94  1  0
 95 93  1  0
M  ISO  4   7 100  15 100  55 101  56 101
M  END
>  <TORSDO>  (76) 
F 21

>  <SCORE>  (76) 
-15.370

>  <name>  (76) 
75

>  <ligand_id>  (76) 
75

>  <original_smiles>  (76) 
[H]c1c([H])c([H])c2c(c1[H])C([H])([H])C([H])([H])C([H])([H])C2([H])N([H])C(=O)C1([H])N(C(=O)C([H])(N([H])C(=O)C([H])(N([H])C([H])([H])[H])C([H])([H])[H])C(C([H])([H])[H])(C([H])([H])[H])C([H])([H])[H])C([H])([H])c2c([H])c(OC([H])([H])C([H])(c3c([H])c(N([H])C(=O)N4C([H])([H])C([H])([H])C([H])([H])C([H])(n5nc(-c6c([H])c([H])c(Oc7c([H])c([H])c(F)c([H])c7F)c([H])c6[H])c(C(=O)N([H])[H])c5N([H])[H])C4([H])[H])c([H])c([H])c3C([H])([H])[N+]([H])([H])[H])[N+]([H])([H])[H])c([H])c([H])c2C1([H])[H]

>  <smiles>  (76) 
[H]c1c([H])c([H])c2c(c1[H])C([H])([H])C([H])([H])C([H])([H])C2([H])N([H])C(=O)C1([H])N(C(=O)C([H])(N([H])C(=O)C([H])(N([H])C([H])([H])[H])C([H])([H])[H])C(C([H])([H])[H])(C([H])([H])[H])C([H])([H])[H])C([H])([H])c2c([H])c(OC([H])([H])C([H])(c3c([H])c(N([H])C(=O)N4C([H])([H])C([H])([H])C([H])([H])C([H])(n5nc(-c6c([H])c([H])c(Oc7c([H])c([H])c(F)c([H])c7F)c([H])c6[H])c(C(=O)N([H])[H])c5N([H])[H])C4([H])[H])c([H])c([H])c3C([H])([H])[N+]([H])([H])[H])[N+]([H])([H])[H])c([H])c([H])c2C1([H])[H]

$$$$
76:0:0
     RDKit          3D

 97105  0  0  1  0  0  0  0  0999 V2000
  -30.0160  -18.7690   18.2930 C   0  0  0  0  0  3  0  0  0  0  0  0
  -29.9320  -20.0260   18.9090 C   0  0  0  0  0  3  0  0  0  0  0  0
  -29.8430  -18.8920   21.0610 C   0  0  0  0  0  3  0  0  0  0  0  0
  -30.0260  -17.5600   19.0230 C   0  0  0  0  0  0  0  0  0  0  0  0
  -29.8200  -20.1390   20.3060 C   0  0  0  0  0  0  0  0  0  0  0  0
  -29.9750  -17.5700   20.4580 C   0  0  0  0  0  0  0  0  0  0  0  0
  -30.7600  -15.2160   21.2960 C   0  0  0  0  0  0  0  0  0  0  0  0
  -30.8290  -12.8220   20.6080 C   0  0  0  0  0  2  0  0  0  0  0  0
  -30.1010  -12.6640   19.2540 C   0  0  0  0  0  2  0  0  0  0  0  0
  -28.5830  -12.4890   19.4550 C   0  0  0  0  0  2  0  0  0  0  0  0
  -27.9820  -13.4930   20.4760 C   0  0  0  0  0  3  0  0  0  0  0  0
  -28.8470  -13.6030   21.7520 C   0  0  0  0  0  2  0  0  0  0  0  0
  -30.2090  -13.9560   21.3310 N   0  0  0  0  0  0  0  0  0  0  0  0
  -31.9780  -15.3550   21.1530 O   0  0  0  0  0  0  0  0  0  0  0  0
  -29.9060  -16.3090   21.2520 N   0  0  0  0  0  0  0  0  0  0  0  0
  -28.9930  -16.1120   21.6360 H   0  0  0  0  0  0  0  0  0  0  0  0
  -25.5020  -14.0300   20.8650 C   0  0  0  0  0  0  0  0  0  0  0  0
  -24.4150  -13.2310   21.0980 C   0  0  0  0  0  0  0  0  0  0  0  0
  -24.9120  -11.8920   21.1510 C   0  0  0  0  0  0  0  0  0  0  0  0
  -26.5910  -13.1760   20.7860 N   0  0  0  0  0  0  0  0  0  0  0  0
  -26.2330  -11.8870   21.0240 N   0  0  0  0  0  0  0  0  0  0  0  0
  -24.1990  -10.6120   21.2580 C   0  0  0  0  0  0  0  0  0  0  0  0
  -24.5320   -9.6600   22.2470 C   0  0  0  0  0  3  0  0  0  0  0  0
  -23.8190   -8.4460   22.3420 C   0  0  0  0  0  3  0  0  0  0  0  0
  -22.7570   -8.1750   21.4470 C   0  0  0  0  0  0  0  0  0  0  0  0
  -22.4430   -9.1170   20.4510 C   0  0  0  0  0  3  0  0  0  0  0  0
  -23.1580  -10.3210   20.3530 C   0  0  0  0  0  3  0  0  0  0  0  0
  -22.0260   -7.0120   21.4480 O   0  0  0  0  0  0  0  0  0  0  0  0
  -21.8480   -6.2750   22.5910 C   0  0  0  0  0  0  0  0  0  0  0  0
  -21.2470   -6.8220   23.7450 C   0  0  0  0  0  3  0  0  0  0  0  0
  -21.0190   -6.0090   24.8730 C   0  0  0  0  0  3  0  0  0  0  0  0
  -21.3840   -4.6500   24.8480 C   0  0  0  0  0  0  0  0  0  0  0  0
  -21.9800   -4.1030   23.6990 C   0  0  0  0  0  3  0  0  0  0  0  0
  -22.2080   -4.9130   22.5730 C   0  0  0  0  0  0  0  0  0  0  0  0
  -22.7630   -4.3740   21.4590 F   0  0  0  0  0  0  0  0  0  0  0  0
  -21.1580   -3.8660   25.9280 F   0  0  0  0  0  0  0  0  0  0  0  0
  -22.9820  -13.6730   21.1690 C   0  0  0  0  0  0  0  0  0  0  0  0
  -22.1610  -12.9710   21.9410 N   0  0  0  0  0  0  0  0  0  0  0  0
  -22.5940  -14.6780   20.5740 O   0  0  0  0  0  0  0  0  0  0  0  0
  -22.4870  -12.1590   22.4450 H   0  0  0  0  0  0  0  0  0  0  0  0
  -21.1960  -13.2510   22.0310 H   0  0  0  0  0  0  0  0  0  0  0  0
  -25.6530  -15.4020   20.6890 N   0  0  0  0  0  0  0  0  0  0  0  0
  -24.8590  -16.0310   20.6750 H   0  0  0  0  0  0  0  0  0  0  0  0
  -26.5260  -15.8620   20.4670 H   0  0  0  0  0  0  0  0  0  0  0  0
  -30.0210  -16.3150   18.1870 C   0  0  0  0  0  0  0  0  0  0  0  0
  -28.8180  -15.8920   17.8250 N   0  0  0  0  0  0  0  0  0  0  0  0
  -31.0570  -15.7750   17.8090 O   0  0  0  0  0  0  0  0  0  0  0  0
  -27.9980  -16.4020   18.1210 H   0  0  0  0  0  0  0  0  0  0  0  0
  -28.7160  -15.0930   17.2170 H   0  0  0  0  0  0  0  0  0  0  0  0
  -29.7850  -21.6090   20.9120 C   0  0  0  0  0  2  0  0  0  0  0  0
  -29.0670  -22.7320   20.1470 N   0  0  0  0  0  4  0  0  0  0  0  0
  -28.0790  -22.5560   20.2540 H   0  0  0  0  0  0  0  0  0  0  0  0
  -29.2700  -22.5920   19.1710 H   0  0  0  0  0  0  0  0  0  0  0  0
  -29.4560  -24.4640   21.9740 C   0  0  0  0  0  1  0  0  0  0  0  0
  -29.3510  -24.2210   20.4560 C   0  0  0  0  0  3  0  0  0  0  0  0
  -28.3290  -25.2970   19.8120 C   0  0  0  0  0  2  0  0  0  0  0  0
  -28.5200  -26.7790   19.9700 O   0  0  0  0  0  0  0  0  0  0  0  0
  -24.6400  -31.9450   23.2480 C   0  0  0  0  0  0  0  0  0  0  0  0
  -27.3890  -27.6280   19.9390 C   0  0  0  0  0  0  0  0  0  0  0  0
  -23.4810  -30.6020   21.5320 C   0  0  0  0  0  3  0  0  0  0  0  0
  -24.9780  -29.1870   20.0150 C   0  0  0  0  0  0  0  0  0  0  0  0
  -26.0100  -31.0060   21.3680 C   0  0  0  0  0  2  0  0  0  0  0  0
  -26.1340  -29.6690   20.6410 C   0  0  0  0  0  0  0  0  0  0  0  0
  -27.3400  -28.9030   20.5950 C   0  0  0  0  0  3  0  0  0  0  0  0
  -26.2100  -27.2190   19.2730 C   0  0  0  0  0  3  0  0  0  0  0  0
  -25.0210  -27.9710   19.3180 C   0  0  0  0  0  3  0  0  0  0  0  0
  -23.7130  -30.0160   20.1150 C   0  0  0  0  0  2  0  0  0  0  0  0
  -24.7280  -31.2000   22.1060 N   0  0  0  0  0  0  0  0  0  0  0  0
  -23.5490  -32.1550   23.7960 O   0  0  0  0  0  0  0  0  0  0  0  0
  -22.8540  -29.5100   22.4330 C   0  0  0  0  0  0  0  0  0  0  0  0
  -21.5380  -29.2800   22.2810 N   0  0  0  0  0  0  0  0  0  0  0  0
  -23.5510  -28.8750   23.2290 O   0  0  0  0  0  0  0  0  0  0  0  0
  -21.0330  -29.8460   21.6130 H   0  0  0  0  0  0  0  0  0  0  0  0
  -18.2200  -27.8830   22.6500 C   0  0  0  0  0  0  0  0  0  0  0  0
  -20.7540  -28.2720   22.9950 C   0  0  0  0  0  3  0  0  0  0  0  0
  -20.9480  -26.8700   22.3700 C   0  0  0  0  0  2  0  0  0  0  0  0
  -19.8900  -26.5260   21.3170 C   0  0  0  0  0  2  0  0  0  0  0  0
  -18.4870  -26.5720   21.9300 C   0  0  0  0  0  2  0  0  0  0  0  0
  -19.2840  -28.6880   23.1360 C   0  0  0  0  0  0  0  0  0  0  0  0
  -18.9820  -29.9140   23.7680 C   0  0  0  0  0  3  0  0  0  0  0  0
  -17.6470  -30.3360   23.9180 C   0  0  0  0  0  3  0  0  0  0  0  0
  -16.5970  -29.5280   23.4480 C   0  0  0  0  0  3  0  0  0  0  0  0
  -16.8850  -28.3030   22.8190 C   0  0  0  0  0  3  0  0  0  0  0  0
  -25.9020  -32.5840   23.9040 C   0  0  0  0  0  3  0  0  0  0  0  0
  -25.5460  -33.9510   24.3110 N   0  0  0  0  0  0  0  0  0  0  0  0
  -25.8730  -35.0580   23.6310 C   0  0  0  0  0  0  0  0  0  0  0  0
  -26.5760  -35.0360   22.6170 O   0  0  0  0  0  0  0  0  0  0  0  0
  -24.9240  -34.0400   25.1010 H   0  0  0  0  0  0  0  0  0  0  0  0
  -24.1240  -36.8380   23.3270 C   0  0  0  0  0  1  0  0  0  0  0  0
  -25.3390  -36.4030   24.1610 C   0  0  0  0  0  3  0  0  0  0  0  0
  -27.4200  -37.2670   25.1370 C   0  0  0  0  0  1  0  0  0  0  0  0
  -26.3530  -37.4800   24.1630 N   0  0  0  0  0  0  0  0  0  0  0  0
  -25.9220  -38.3800   24.3560 H   0  0  0  0  0  0  0  0  0  0  0  0
  -26.4430  -31.7620   25.1370 C   0  0  1  0  0  0  0  0  0  0  0  0
  -25.3580  -31.4360   26.1910 C   0  0  0  0  0  1  0  0  0  0  0  0
  -27.0660  -30.4250   24.6740 C   0  0  0  0  0  1  0  0  0  0  0  0
  -27.5710  -32.5550   25.8390 C   0  0  0  0  0  1  0  0  0  0  0  0
  1  2  2  0
  1  4  1  0
  2  5  1  0
  4  6  2  0
  5 50  1  0
  5  3  2  0
  6  3  1  0
  6 15  1  0
  7 13  1  0
  8 13  1  0
  9 10  1  0
  9  8  1  0
 11 10  1  0
 11 20  1  0
 11 12  1  0
 13 12  1  0
 14  7  2  0
 15  7  1  0
 15 16  1  0
 17 18  2  0
 18 19  1  0
 18 37  1  0
 19 22  1  0
 20 17  1  0
 20 21  1  0
 21 19  2  0
 22 23  1  0
 23 24  2  0
 25 28  1  0
 25 24  1  0
 26 25  2  0
 27 26  1  0
 27 22  2  0
 28 29  1  0
 29 30  1  0
 30 31  2  0
 32 31  1  0
 32 36  1  0
 33 32  2  0
 34 29  2  0
 34 33  1  0
 35 34  1  0
 37 38  1  0
 38 41  1  0
 38 40  1  0
 39 37  2  0
 42 17  1  0
 43 42  1  0
 44 42  1  0
 45  4  1  0
 46 48  1  0
 46 45  1  0
 47 45  2  0
 49 46  1  0
 51 52  1  0
 51 55  1  0
 51 50  1  0
 53 51  1  0
 55 54  1  0
 56 57  1  0
 56 55  1  0
 58 69  2  0
 59 57  1  0
 59 64  1  0
 60 68  1  0
 60 70  1  0
 61 67  1  0
 61 63  1  0
 62 68  1  0
 63 62  1  0
 64 63  2  0
 65 66  1  0
 65 59  2  0
 66 61  2  0
 67 60  1  0
 68 58  1  0
 70 72  2  0
 71 70  1  0
 73 71  1  0
 74 83  2  0
 74 79  1  0
 75 71  1  0
 75 79  1  0
 76 75  1  0
 77 78  1  0
 77 76  1  0
 78 74  1  0
 79 80  2  0
 80 81  1  0
 82 81  2  0
 83 82  1  0
 84 58  1  0
 84 85  1  0
 84 94  1  0
 85 88  1  0
 86 90  1  0
 86 85  1  0
 87 86  2  0
 90 89  1  0
 90 92  1  0
 92 93  1  0
 92 91  1  0
 94 97  1  1
 94 95  1  0
 96 94  1  0
M  ISO  4   7 100  15 100  56 101  57 101
M  END
>  <TORSDO>  (77) 
F 21

>  <SCORE>  (77) 
-10.513

>  <name>  (77) 
76

>  <ligand_id>  (77) 
76

>  <original_smiles>  (77) 
[H]c1c([H])c([H])c2c(c1[H])C([H])([H])C([H])([H])C([H])([H])C2([H])N([H])C(=O)C1([H])N(C(=O)C([H])(N([H])C(=O)C([H])(N([H])C([H])([H])[H])C([H])([H])[H])C(C([H])([H])[H])(C([H])([H])[H])C([H])([H])[H])C([H])([H])c2c([H])c(OC([H])([H])C([H])(C([H])([H])[H])[N+]([H])([H])C([H])([H])c3c([H])c([H])c(C(=O)N([H])[H])c(N([H])C(=O)N4C([H])([H])C([H])([H])C([H])([H])C([H])(n5nc(-c6c([H])c([H])c(Oc7c([H])c([H])c(F)c([H])c7F)c([H])c6[H])c(C(=O)N([H])[H])c5N([H])[H])C4([H])[H])c3[H])c([H])c([H])c2C1([H])[H]

>  <smiles>  (77) 
[H]c1c([H])c([H])c2c(c1[H])C([H])([H])C([H])([H])C([H])([H])C2([H])N([H])C(=O)C1([H])N(C(=O)C([H])(N([H])C(=O)C([H])(N([H])C([H])([H])[H])C([H])([H])[H])C(C([H])([H])[H])(C([H])([H])[H])C([H])([H])[H])C([H])([H])c2c([H])c(OC([H])([H])C([H])(C([H])([H])[H])[N+]([H])([H])C([H])([H])c3c([H])c([H])c(C(=O)N([H])[H])c(N([H])C(=O)N4C([H])([H])C([H])([H])C([H])([H])C([H])(n5nc(-c6c([H])c([H])c(Oc7c([H])c([H])c(F)c([H])c7F)c([H])c6[H])c(C(=O)N([H])[H])c5N([H])[H])C4([H])[H])c3[H])c([H])c([H])c2C1([H])[H]

$$$$
77:0:0
     RDKit          3D

 95104  0  0  1  0  0  0  0  0999 V2000
  -28.4060  -20.6820   20.5500 C   0  0  0  0  0  3  0  0  0  0  0  0
  -29.7040  -20.5830   20.9240 C   0  0  0  0  0  0  0  0  0  0  0  0
  -29.4620  -24.7490   19.6450 C   0  0  0  0  0  0  0  0  0  0  0  0
  -27.6560  -21.9090   20.0530 C   0  0  0  0  0  2  0  0  0  0  0  0
  -30.6680  -21.7780   20.8530 C   0  0  0  0  0  2  0  0  0  0  0  0
  -28.3390  -22.6370   18.8860 C   0  0  0  0  0  2  0  0  0  0  0  0
  -30.6800  -22.5790   19.5340 C   0  0  0  0  0  2  0  0  0  0  0  0
  -29.4840  -23.4130   19.3750 N   0  0  0  0  0  0  0  0  0  0  0  0
  -30.4510  -25.3510   20.0810 O   0  0  0  0  0  0  0  0  0  0  0  0
  -31.6740  -18.0360   22.9600 C   0  0  0  0  0  3  0  0  0  0  0  0
  -31.1760  -19.2550   22.4610 C   0  0  0  0  0  3  0  0  0  0  0  0
  -31.2110  -16.8160   22.4390 C   0  0  0  0  0  3  0  0  0  0  0  0
  -29.7380  -18.0340   20.9180 C   0  0  0  0  0  3  0  0  0  0  0  0
  -30.2150  -19.2730   21.4240 C   0  0  0  0  0  0  0  0  0  0  0  0
  -30.2390  -16.8070   21.4180 C   0  0  0  0  0  0  0  0  0  0  0  0
  -30.3580  -14.6720   20.1900 C   0  0  0  0  0  0  0  0  0  0  0  0
  -30.0200  -12.6120   18.8720 C   0  0  0  0  0  2  0  0  0  0  0  0
  -28.9710  -12.8590   17.7700 C   0  0  0  0  0  2  0  0  0  0  0  0
  -27.5450  -12.6270   18.3070 C   0  0  0  0  0  2  0  0  0  0  0  0
  -27.2850  -13.3640   19.6480 C   0  0  0  0  0  3  0  0  0  0  0  0
  -28.4340  -13.1030   20.6480 C   0  0  0  0  0  2  0  0  0  0  0  0
  -29.6950  -13.5000   19.9990 N   0  0  0  0  0  0  0  0  0  0  0  0
  -31.4130  -14.9520   19.6130 O   0  0  0  0  0  0  0  0  0  0  0  0
  -29.7130  -15.5740   20.9500 N   0  0  0  0  0  0  0  0  0  0  0  0
  -28.7740  -15.3350   21.2330 H   0  0  0  0  0  0  0  0  0  0  0  0
  -24.9200  -13.8260   20.5570 C   0  0  0  0  0  0  0  0  0  0  0  0
  -23.9180  -12.9870   20.9680 C   0  0  0  0  0  0  0  0  0  0  0  0
  -24.4370  -11.6620   20.8410 C   0  0  0  0  0  0  0  0  0  0  0  0
  -25.9840  -13.0070   20.2120 N   0  0  0  0  0  0  0  0  0  0  0  0
  -25.7010  -11.6980   20.4380 N   0  0  0  0  0  0  0  0  0  0  0  0
  -23.7860  -10.3590   21.0250 C   0  0  0  0  0  0  0  0  0  0  0  0
  -24.2800   -9.4100   21.9470 C   0  0  0  0  0  3  0  0  0  0  0  0
  -23.6270   -8.1700   22.1190 C   0  0  0  0  0  3  0  0  0  0  0  0
  -22.4640   -7.8720   21.3700 C   0  0  0  0  0  0  0  0  0  0  0  0
  -21.9880   -8.8110   20.4380 C   0  0  0  0  0  3  0  0  0  0  0  0
  -22.6440  -10.0410   20.2630 C   0  0  0  0  0  3  0  0  0  0  0  0
  -21.7780   -6.6850   21.4520 O   0  0  0  0  0  0  0  0  0  0  0  0
  -21.7360   -5.9550   22.6140 C   0  0  0  0  0  0  0  0  0  0  0  0
  -21.1940   -6.4840   23.8050 C   0  0  0  0  0  3  0  0  0  0  0  0
  -21.1080   -5.6770   24.9580 C   0  0  0  0  0  3  0  0  0  0  0  0
  -21.5530   -4.3430   24.9190 C   0  0  0  0  0  0  0  0  0  0  0  0
  -22.0880   -3.8130   23.7310 C   0  0  0  0  0  3  0  0  0  0  0  0
  -22.1760   -4.6170   22.5810 C   0  0  0  0  0  0  0  0  0  0  0  0
  -22.6730   -4.0960   21.4330 F   0  0  0  0  0  0  0  0  0  0  0  0
  -21.4630   -3.5650   26.0230 F   0  0  0  0  0  0  0  0  0  0  0  0
  -22.5260  -13.3830   21.3650 C   0  0  0  0  0  0  0  0  0  0  0  0
  -21.8970  -12.6150   22.2490 N   0  0  0  0  0  0  0  0  0  0  0  0
  -22.0040  -14.4080   20.9280 O   0  0  0  0  0  0  0  0  0  0  0  0
  -22.3330  -11.7860   22.6230 H   0  0  0  0  0  0  0  0  0  0  0  0
  -20.9660  -12.8600   22.5550 H   0  0  0  0  0  0  0  0  0  0  0  0
  -25.0100  -15.2090   20.4310 N   0  0  0  0  0  0  0  0  0  0  0  0
  -24.2240  -15.8220   20.6230 H   0  0  0  0  0  0  0  0  0  0  0  0
  -25.8130  -15.6990   20.0600 H   0  0  0  0  0  0  0  0  0  0  0  0
  -28.1640  -25.5370   19.3800 C   0  0  0  0  0  2  0  0  0  0  0  0
  -28.2410  -26.8980   19.8320 O   0  0  0  0  0  0  0  0  0  0  0  0
  -24.5390  -31.9700   23.1970 C   0  0  0  0  0  0  0  0  0  0  0  0
  -27.0550  -27.6090   19.8900 C   0  0  0  0  0  0  0  0  0  0  0  0
  -23.2650  -30.6060   21.5770 C   0  0  0  0  0  3  0  0  0  0  0  0
  -24.6560  -29.1100   20.0540 C   0  0  0  0  0  0  0  0  0  0  0  0
  -25.7820  -30.9730   21.2800 C   0  0  0  0  0  2  0  0  0  0  0  0
  -25.8390  -29.6200   20.6020 C   0  0  0  0  0  0  0  0  0  0  0  0
  -27.0390  -28.8750   20.5190 C   0  0  0  0  0  3  0  0  0  0  0  0
  -25.8440  -27.1160   19.3430 C   0  0  0  0  0  3  0  0  0  0  0  0
  -24.6530  -27.8560   19.4240 C   0  0  0  0  0  3  0  0  0  0  0  0
  -23.4140  -29.9630   20.1740 C   0  0  0  0  0  2  0  0  0  0  0  0
  -24.5490  -31.1960   22.0750 N   0  0  0  0  0  0  0  0  0  0  0  0
  -23.4820  -32.2270   23.7890 O   0  0  0  0  0  0  0  0  0  0  0  0
  -22.6580  -29.5580   22.5370 C   0  0  0  0  0  0  0  0  0  0  0  0
  -21.3400  -29.3300   22.4200 N   0  0  0  0  0  0  0  0  0  0  0  0
  -23.3690  -28.9540   23.3440 O   0  0  0  0  0  0  0  0  0  0  0  0
  -20.8260  -29.8700   21.7380 H   0  0  0  0  0  0  0  0  0  0  0  0
  -18.0200  -27.9910   22.9050 C   0  0  0  0  0  0  0  0  0  0  0  0
  -20.5610  -28.3630   23.1930 C   0  0  0  0  0  3  0  0  0  0  0  0
  -20.7310  -26.9340   22.6290 C   0  0  0  0  0  2  0  0  0  0  0  0
  -19.6520  -26.5550   21.6100 C   0  0  0  0  0  2  0  0  0  0  0  0
  -18.2600  -26.6450   22.2420 C   0  0  0  0  0  2  0  0  0  0  0  0
  -19.1010  -28.8040   23.3370 C   0  0  0  0  0  0  0  0  0  0  0  0
  -18.8230  -30.0630   23.9140 C   0  0  0  0  0  3  0  0  0  0  0  0
  -17.4960  -30.5100   24.0640 C   0  0  0  0  0  3  0  0  0  0  0  0
  -16.4300  -29.6930   23.6510 C   0  0  0  0  0  3  0  0  0  0  0  0
  -16.6920  -28.4350   23.0770 C   0  0  0  0  0  3  0  0  0  0  0  0
  -25.8500  -32.5880   23.7750 C   0  0  0  0  0  3  0  0  0  0  0  0
  -25.5630  -33.9850   24.1240 N   0  0  0  0  0  0  0  0  0  0  0  0
  -25.8450  -35.0370   23.3430 C   0  0  0  0  0  0  0  0  0  0  0  0
  -26.4480  -34.9330   22.2710 O   0  0  0  0  0  0  0  0  0  0  0  0
  -25.0200  -34.1400   24.9600 H   0  0  0  0  0  0  0  0  0  0  0  0
  -24.0800  -36.8130   23.1170 C   0  0  0  0  0  1  0  0  0  0  0  0
  -25.3850  -36.4250   23.8280 C   0  0  0  0  0  3  0  0  0  0  0  0
  -27.5680  -37.3370   24.4850 C   0  0  0  0  0  1  0  0  0  0  0  0
  -26.3970  -37.4840   23.6260 N   0  0  0  0  0  0  0  0  0  0  0  0
  -25.9950  -38.4030   23.7910 H   0  0  0  0  0  0  0  0  0  0  0  0
  -26.4090  -31.8040   25.0250 C   0  0  1  0  0  0  0  0  0  0  0  0
  -25.3510  -31.5500   26.1230 C   0  0  0  0  0  1  0  0  0  0  0  0
  -26.9840  -30.4320   24.5980 C   0  0  0  0  0  1  0  0  0  0  0  0
  -27.5780  -32.5940   25.6600 C   0  0  0  0  0  1  0  0  0  0  0  0
  1  2  2  0
  2 14  1  0
  3  9  2  0
  4  1  1  0
  5  2  1  0
  6  8  1  0
  6  4  1  0
  7  5  1  0
  8  7  1  0
  8  3  1  0
 11 10  1  0
 12 10  2  0
 13 15  2  0
 13 14  1  0
 14 11  2  0
 15 12  1  0
 16 24  1  0
 17 22  1  0
 18 19  1  0
 18 17  1  0
 20 19  1  0
 20 29  1  0
 20 21  1  0
 22 16  1  0
 22 21  1  0
 23 16  2  0
 24 25  1  0
 24 15  1  0
 26 27  2  0
 27 46  1  0
 28 27  1  0
 28 31  1  0
 29 30  1  0
 29 26  1  0
 30 28  2  0
 31 32  1  0
 32 33  2  0
 34 37  1  0
 34 33  1  0
 35 34  2  0
 36 35  1  0
 36 31  2  0
 37 38  1  0
 38 39  1  0
 39 40  2  0
 41 40  1  0
 41 45  1  0
 42 41  2  0
 43 38  2  0
 43 42  1  0
 44 43  1  0
 46 47  1  0
 47 50  1  0
 47 49  1  0
 48 46  2  0
 51 26  1  0
 51 52  1  0
 53 51  1  0
 54  3  1  0
 54 55  1  0
 55 57  1  0
 56 67  2  0
 57 62  1  0
 58 66  1  0
 58 68  1  0
 59 65  1  0
 59 61  1  0
 60 66  1  0
 61 60  1  0
 62 61  2  0
 63 64  1  0
 63 57  2  0
 64 59  2  0
 65 58  1  0
 66 56  1  0
 68 70  2  0
 69 68  1  0
 71 69  1  0
 72 81  2  0
 72 77  1  0
 73 69  1  0
 73 77  1  0
 74 73  1  0
 75 76  1  0
 75 74  1  0
 76 72  1  0
 77 78  2  0
 78 79  1  0
 80 79  2  0
 81 80  1  0
 82 56  1  0
 82 83  1  0
 82 92  1  0
 83 86  1  0
 84 88  1  0
 84 83  1  0
 85 84  2  0
 88 87  1  0
 90 91  1  0
 90 88  1  0
 90 89  1  0
 92 95  1  1
 92 93  1  0
 94 92  1  0
M  ISO  4  16 100  24 100  54 101  55 101
M  END
>  <TORSDO>  (78) 
F 18

>  <SCORE>  (78) 
-13.440

>  <name>  (78) 
77

>  <ligand_id>  (78) 
77

>  <original_smiles>  (78) 
[H]C1=C(c2c([H])c([H])c([H])c(N([H])C(=O)N3C([H])([H])C([H])([H])C([H])([H])C([H])(n4nc(-c5c([H])c([H])c(Oc6c([H])c([H])c(F)c([H])c6F)c([H])c5[H])c(C(=O)N([H])[H])c4N([H])[H])C3([H])[H])c2[H])C([H])([H])C([H])([H])N(C(=O)C([H])([H])Oc2c([H])c([H])c3c(c2[H])C([H])([H])N(C(=O)C([H])(N([H])C(=O)C([H])(N([H])C([H])([H])[H])C([H])([H])[H])C(C([H])([H])[H])(C([H])([H])[H])C([H])([H])[H])C([H])(C(=O)N([H])C2([H])c4c([H])c([H])c([H])c([H])c4C([H])([H])C([H])([H])C2([H])[H])C3([H])[H])C([H])([H])C1([H])[H]

>  <smiles>  (78) 
[H]C1=C(c2c([H])c([H])c([H])c(N([H])C(=O)N3C([H])([H])C([H])([H])C([H])([H])C([H])(n4nc(-c5c([H])c([H])c(Oc6c([H])c([H])c(F)c([H])c6F)c([H])c5[H])c(C(=O)N([H])[H])c4N([H])[H])C3([H])[H])c2[H])C([H])([H])C([H])([H])N(C(=O)C([H])([H])Oc2c([H])c([H])c3c(c2[H])C([H])([H])N(C(=O)C([H])(N([H])C(=O)C([H])(N([H])C([H])([H])[H])C([H])([H])[H])C(C([H])([H])[H])(C([H])([H])[H])C([H])([H])[H])C([H])(C(=O)N([H])C2([H])c4c([H])c([H])c([H])c([H])c4C([H])([H])C([H])([H])C2([H])[H])C3([H])[H])C([H])([H])C1([H])[H]

$$$$
78:0:0
     RDKit          3D

 93101  0  0  1  0  0  0  0  0999 V2000
  -28.9940  -20.8730   22.0860 C   0  0  0  0  0  1  0  0  0  0  0  0
  -29.3260  -20.9790   20.6690 N   0  0  0  0  0  0  0  0  0  0  0  0
  -29.6720  -18.4330   20.6150 C   0  0  0  0  0  3  0  0  0  0  0  0
  -31.2390  -17.5140   19.0010 C   0  0  0  0  0  3  0  0  0  0  0  0
  -30.8640  -19.9250   19.1050 C   0  0  0  0  0  3  0  0  0  0  0  0
  -30.3340  -17.2740   20.0660 C   0  0  0  0  0  0  0  0  0  0  0  0
  -29.9210  -19.7790   20.1440 C   0  0  0  0  0  0  0  0  0  0  0  0
  -31.5060  -18.8140   18.5370 C   0  0  0  0  0  0  0  0  0  0  0  0
  -32.3930  -18.9960   17.5290 F   0  0  0  0  0  0  0  0  0  0  0  0
  -30.7910  -14.7640   20.2720 C   0  0  0  0  0  0  0  0  0  0  0  0
  -30.5080  -12.5430   19.2260 C   0  0  0  0  0  2  0  0  0  0  0  0
  -29.5720  -12.6970   18.0090 C   0  0  0  0  0  2  0  0  0  0  0  0
  -28.1010  -12.5480   18.4400 C   0  0  0  0  0  2  0  0  0  0  0  0
  -27.7500  -13.4090   19.6840 C   0  0  0  0  0  3  0  0  0  0  0  0
  -28.8110  -13.2680   20.7980 C   0  0  0  0  0  2  0  0  0  0  0  0
  -30.1200  -13.5720   20.2110 N   0  0  0  0  0  0  0  0  0  0  0  0
  -31.9780  -14.8290   19.9450 O   0  0  0  0  0  0  0  0  0  0  0  0
  -30.0620  -15.9010   20.5160 N   0  0  0  0  0  0  0  0  0  0  0  0
  -29.1560  -15.7430   20.9330 H   0  0  0  0  0  0  0  0  0  0  0  0
  -25.3550  -13.9990   20.4010 C   0  0  0  0  0  0  0  0  0  0  0  0
  -24.2920  -13.2230   20.7740 C   0  0  0  0  0  0  0  0  0  0  0  0
  -24.7600  -11.8730   20.7530 C   0  0  0  0  0  0  0  0  0  0  0  0
  -26.4030  -13.1220   20.1730 N   0  0  0  0  0  0  0  0  0  0  0  0
  -26.0520  -11.8390   20.4470 N   0  0  0  0  0  0  0  0  0  0  0  0
  -24.0390  -10.6090   20.9490 C   0  0  0  0  0  0  0  0  0  0  0  0
  -24.4650   -9.6540   21.9000 C   0  0  0  0  0  3  0  0  0  0  0  0
  -23.7430   -8.4550   22.0830 C   0  0  0  0  0  3  0  0  0  0  0  0
  -22.5820   -8.2010   21.3160 C   0  0  0  0  0  0  0  0  0  0  0  0
  -22.1750   -9.1430   20.3550 C   0  0  0  0  0  3  0  0  0  0  0  0
  -22.8970  -10.3340   20.1700 C   0  0  0  0  0  3  0  0  0  0  0  0
  -21.8330   -7.0530   21.4080 O   0  0  0  0  0  0  0  0  0  0  0  0
  -21.7650   -6.3290   22.5710 C   0  0  0  0  0  0  0  0  0  0  0  0
  -21.2900   -6.8930   23.7740 C   0  0  0  0  0  3  0  0  0  0  0  0
  -21.1730   -6.0930   24.9280 C   0  0  0  0  0  3  0  0  0  0  0  0
  -21.5210   -4.7310   24.8800 C   0  0  0  0  0  0  0  0  0  0  0  0
  -21.9890   -4.1660   23.6810 C   0  0  0  0  0  3  0  0  0  0  0  0
  -22.1080   -4.9620   22.5290 C   0  0  0  0  0  0  0  0  0  0  0  0
  -22.5410   -4.4070   21.3710 F   0  0  0  0  0  0  0  0  0  0  0  0
  -21.4010   -3.9600   25.9860 F   0  0  0  0  0  0  0  0  0  0  0  0
  -22.8920  -13.6950   21.0410 C   0  0  0  0  0  0  0  0  0  0  0  0
  -22.1640  -12.9980   21.9060 N   0  0  0  0  0  0  0  0  0  0  0  0
  -22.4510  -14.7170   20.5170 O   0  0  0  0  0  0  0  0  0  0  0  0
  -22.5330  -12.1710   22.3520 H   0  0  0  0  0  0  0  0  0  0  0  0
  -21.2250  -13.2960   22.1290 H   0  0  0  0  0  0  0  0  0  0  0  0
  -25.5150  -15.3690   20.2130 N   0  0  0  0  0  0  0  0  0  0  0  0
  -24.7440  -16.0200   20.3140 H   0  0  0  0  0  0  0  0  0  0  0  0
  -26.3560  -15.8060   19.8600 H   0  0  0  0  0  0  0  0  0  0  0  0
  -27.1220  -22.1840   20.0390 O   0  0  0  0  0  0  0  0  0  0  0  0
  -29.0240  -22.2170   18.3760 O   0  0  0  0  0  0  0  0  0  0  0  0
  -28.5600  -22.3400   19.7660 S   0  0  2  0  0  0  0  0  0  0  0  0
  -29.1010  -24.0370   20.4240 C   0  0  0  0  0  2  0  0  0  0  0  0
  -28.1460  -25.1900   19.9190 C   0  0  0  0  0  2  0  0  0  0  0  0
  -28.3710  -26.6160   20.2450 O   0  0  0  0  0  0  0  0  0  0  0  0
  -24.6090  -31.9640   23.2680 C   0  0  0  0  0  0  0  0  0  0  0  0
  -27.2540  -27.4640   20.1740 C   0  0  0  0  0  0  0  0  0  0  0  0
  -23.4160  -30.5690   21.6180 C   0  0  0  0  0  3  0  0  0  0  0  0
  -24.8780  -29.0530   20.1760 C   0  0  0  0  0  0  0  0  0  0  0  0
  -25.9540  -30.9130   21.4390 C   0  0  0  0  0  2  0  0  0  0  0  0
  -26.0420  -29.5430   20.7800 C   0  0  0  0  0  0  0  0  0  0  0  0
  -27.2330  -28.7590   20.7760 C   0  0  0  0  0  3  0  0  0  0  0  0
  -26.0670  -27.0400   19.5250 C   0  0  0  0  0  3  0  0  0  0  0  0
  -24.8920  -27.8050   19.5410 C   0  0  0  0  0  3  0  0  0  0  0  0
  -23.6340  -29.9130   20.2310 C   0  0  0  0  0  2  0  0  0  0  0  0
  -24.6780  -31.1650   22.1640 N   0  0  0  0  0  0  0  0  0  0  0  0
  -23.5240  -32.2300   23.8030 O   0  0  0  0  0  0  0  0  0  0  0  0
  -22.7650  -29.5370   22.5680 C   0  0  0  0  0  0  0  0  0  0  0  0
  -21.4410  -29.3450   22.4370 N   0  0  0  0  0  0  0  0  0  0  0  0
  -23.4490  -28.9120   23.3840 O   0  0  0  0  0  0  0  0  0  0  0  0
  -20.9490  -29.9030   21.7520 H   0  0  0  0  0  0  0  0  0  0  0  0
  -18.0700  -28.1290   22.9310 C   0  0  0  0  0  0  0  0  0  0  0  0
  -20.6280  -28.3970   23.1990 C   0  0  0  0  0  3  0  0  0  0  0  0
  -20.7360  -26.9720   22.6120 C   0  0  0  0  0  2  0  0  0  0  0  0
  -19.6340  -26.6520   21.5960 C   0  0  0  0  0  2  0  0  0  0  0  0
  -18.2520  -26.7870   22.2430 C   0  0  0  0  0  2  0  0  0  0  0  0
  -19.1870  -28.8930   23.3650 C   0  0  0  0  0  0  0  0  0  0  0  0
  -18.9630  -30.1500   23.9680 C   0  0  0  0  0  3  0  0  0  0  0  0
  -17.6560  -30.6450   24.1390 C   0  0  0  0  0  3  0  0  0  0  0  0
  -16.5550  -29.8780   23.7210 C   0  0  0  0  0  3  0  0  0  0  0  0
  -16.7630  -28.6220   23.1220 C   0  0  0  0  0  3  0  0  0  0  0  0
  -25.8880  -32.6020   23.8930 C   0  0  0  0  0  3  0  0  0  0  0  0
  -26.3980  -31.8390   25.1760 C   0  0  1  0  0  0  0  0  0  0  0  0
  -25.2980  -31.6010   26.2370 C   0  0  0  0  0  1  0  0  0  0  0  0
  -26.9900  -30.4620   24.7960 C   0  0  0  0  0  1  0  0  0  0  0  0
  -27.5400  -32.6410   25.8440 C   0  0  0  0  0  1  0  0  0  0  0  0
  -25.5740  -34.0010   24.2140 N   0  0  0  0  0  0  0  0  0  0  0  0
  -25.9020  -35.0510   23.4480 C   0  0  0  0  0  0  0  0  0  0  0  0
  -26.5730  -34.9430   22.4180 O   0  0  0  0  0  0  0  0  0  0  0  0
  -24.9810  -34.1600   25.0150 H   0  0  0  0  0  0  0  0  0  0  0  0
  -24.1730  -36.8390   23.0750 C   0  0  0  0  0  1  0  0  0  0  0  0
  -25.4090  -36.4400   23.8960 C   0  0  0  0  0  3  0  0  0  0  0  0
  -27.5330  -37.3350   24.7430 C   0  0  0  0  0  1  0  0  0  0  0  0
  -26.4420  -37.4940   23.7870 N   0  0  0  0  0  0  0  0  0  0  0  0
  -26.0320  -38.4150   23.9230 H   0  0  0  0  0  0  0  0  0  0  0  0
  2  1  1  0
  4  6  1  0
  5  7  2  0
  6 18  1  0
  6  3  2  0
  7  3  1  0
  7  2  1  0
  8  4  2  0
  8  5  1  0
  9  8  1  0
 10 18  1  0
 11 16  1  0
 12 13  1  0
 12 11  1  0
 14 13  1  0
 14 23  1  0
 14 15  1  0
 16 10  1  0
 16 15  1  0
 17 10  2  0
 18 19  1  0
 20 21  2  0
 21 40  1  0
 22 21  1  0
 22 25  1  0
 23 20  1  0
 23 24  1  0
 24 22  2  0
 25 26  1  0
 26 27  2  0
 28 31  1  0
 28 27  1  0
 29 28  2  0
 30 29  1  0
 30 25  2  0
 31 32  1  0
 32 33  1  0
 33 34  2  0
 35 34  1  0
 35 39  1  0
 36 35  2  0
 37 32  2  0
 37 36  1  0
 38 37  1  0
 40 41  1  0
 41 44  1  0
 41 43  1  0
 42 40  2  0
 45 46  1  0
 45 20  1  0
 47 45  1  0
 49 50  2  0
 50 48  2  0
 50 51  1  1
 50  2  1  0
 52 53  1  0
 52 51  1  0
 54 65  2  0
 55 53  1  0
 55 60  1  0
 56 64  1  0
 56 66  1  0
 57 63  1  0
 57 59  1  0
 58 64  1  0
 59 58  1  0
 60 59  2  0
 61 62  1  0
 61 55  2  0
 62 57  2  0
 63 56  1  0
 64 54  1  0
 66 68  2  0
 67 66  1  0
 69 67  1  0
 70 79  2  0
 70 75  1  0
 71 67  1  0
 71 75  1  0
 72 71  1  0
 73 74  1  0
 73 72  1  0
 74 70  1  0
 75 76  2  0
 76 77  1  0
 78 77  2  0
 79 78  1  0
 80 54  1  0
 80 85  1  0
 80 81  1  0
 81 84  1  1
 81 82  1  0
 83 81  1  0
 85 88  1  0
 86 90  1  0
 86 85  1  0
 87 86  2  0
 90 89  1  0
 92 90  1  0
 92 93  1  0
 92 91  1  0
M  ISO  4  10 100  18 100  52 101  53 101
M  END
>  <TORSDO>  (79) 
F 20

>  <SCORE>  (79) 
-13.506

>  <name>  (79) 
78

>  <ligand_id>  (79) 
78

>  <original_smiles>  (79) 
[H]c1c([H])c([H])c2c(c1[H])C([H])([H])C([H])([H])C([H])([H])C2([H])N([H])C(=O)C1([H])N(C(=O)C([H])(N([H])C(=O)C([H])(N([H])C([H])([H])[H])C([H])([H])[H])C(C([H])([H])[H])(C([H])([H])[H])C([H])([H])[H])C([H])([H])c2c([H])c(OC([H])([H])C([H])([H])S(=O)(=O)N(c3c([H])c(F)c([H])c(N([H])C(=O)N4C([H])([H])C([H])([H])C([H])([H])C([H])(n5nc(-c6c([H])c([H])c(Oc7c([H])c([H])c(F)c([H])c7F)c([H])c6[H])c(C(=O)N([H])[H])c5N([H])[H])C4([H])[H])c3[H])C([H])([H])[H])c([H])c([H])c2C1([H])[H]

>  <smiles>  (79) 
[H]c1c([H])c([H])c2c(c1[H])C([H])([H])C([H])([H])C([H])([H])C2([H])N([H])C(=O)C1([H])N(C(=O)C([H])(N([H])C(=O)C([H])(N([H])C([H])([H])[H])C([H])([H])[H])C(C([H])([H])[H])(C([H])([H])[H])C([H])([H])[H])C([H])([H])c2c([H])c(OC([H])([H])C([H])([H])S(=O)(=O)N(c3c([H])c(F)c([H])c(N([H])C(=O)N4C([H])([H])C([H])([H])C([H])([H])C([H])(n5nc(-c6c([H])c([H])c(Oc7c([H])c([H])c(F)c([H])c7F)c([H])c6[H])c(C(=O)N([H])[H])c5N([H])[H])C4([H])[H])c3[H])C([H])([H])[H])c([H])c([H])c2C1([H])[H]

$$$$
79:0:0
     RDKit          3D

111120  0  0  1  0  0  0  0  0999 V2000
  -30.7680  -16.8750   18.4410 C   0  0  0  0  0  2  0  0  0  0  0  0
  -29.3770  -18.7320   18.7200 C   0  0  0  0  0  2  0  0  0  0  0  0
  -30.7500  -17.0970   19.9780 C   0  0  0  0  0  3  0  0  0  0  0  0
  -29.7730  -18.3460   20.1750 C   0  0  0  0  0  3  0  0  0  0  0  0
  -30.3700  -18.1270   17.8000 N   0  0  1  0  0  4  0  0  0  0  0  0
  -29.8870  -17.8810   16.9490 H   0  0  0  0  0  0  0  0  0  0  0  0
  -31.1660  -14.6390   20.5620 C   0  0  0  0  0  0  0  0  0  0  0  0
  -30.9070  -12.3860   19.5900 C   0  0  0  0  0  2  0  0  0  0  0  0
  -30.0470  -12.5360   18.3170 C   0  0  0  0  0  2  0  0  0  0  0  0
  -28.5470  -12.4590   18.6680 C   0  0  0  0  0  2  0  0  0  0  0  0
  -28.1600  -13.3830   19.8530 C   0  0  0  0  0  3  0  0  0  0  0  0
  -29.1380  -13.2170   21.0340 C   0  0  0  0  0  2  0  0  0  0  0  0
  -30.4950  -13.4540   20.5210 N   0  0  0  0  0  0  0  0  0  0  0  0
  -32.3670  -14.7120   20.2910 O   0  0  0  0  0  0  0  0  0  0  0  0
  -30.3870  -15.7690   20.5810 N   0  0  0  0  0  0  0  0  0  0  0  0
  -29.4090  -15.6160   20.7700 H   0  0  0  0  0  0  0  0  0  0  0  0
  -25.7820  -14.1330   20.4670 C   0  0  0  0  0  0  0  0  0  0  0  0
  -24.6590  -13.4270   20.8000 C   0  0  0  0  0  0  0  0  0  0  0  0
  -25.0450  -12.0520   20.8040 C   0  0  0  0  0  0  0  0  0  0  0  0
  -26.7790  -13.1900   20.2740 N   0  0  0  0  0  0  0  0  0  0  0  0
  -26.3420  -11.9360   20.5450 N   0  0  0  0  0  0  0  0  0  0  0  0
  -24.2450  -10.8340   20.9840 C   0  0  0  0  0  0  0  0  0  0  0  0
  -24.5920   -9.8550   21.9410 C   0  0  0  0  0  3  0  0  0  0  0  0
  -23.7960   -8.7010   22.1060 C   0  0  0  0  0  3  0  0  0  0  0  0
  -22.6380   -8.5170   21.3120 C   0  0  0  0  0  0  0  0  0  0  0  0
  -22.3070   -9.4870   20.3480 C   0  0  0  0  0  3  0  0  0  0  0  0
  -23.1030  -10.6330   20.1830 C   0  0  0  0  0  3  0  0  0  0  0  0
  -21.8200   -7.4170   21.3820 O   0  0  0  0  0  0  0  0  0  0  0  0
  -21.7200   -6.6680   22.5270 C   0  0  0  0  0  0  0  0  0  0  0  0
  -21.3010   -7.2340   23.7500 C   0  0  0  0  0  3  0  0  0  0  0  0
  -21.1440   -6.4150   24.8870 C   0  0  0  0  0  3  0  0  0  0  0  0
  -21.3940   -5.0320   24.7990 C   0  0  0  0  0  0  0  0  0  0  0  0
  -21.8070   -4.4670   23.5800 C   0  0  0  0  0  3  0  0  0  0  0  0
  -21.9670   -5.2840   22.4460 C   0  0  0  0  0  0  0  0  0  0  0  0
  -22.3440   -4.7320   21.2670 F   0  0  0  0  0  0  0  0  0  0  0  0
  -21.2360   -4.2430   25.8880 F   0  0  0  0  0  0  0  0  0  0  0  0
  -23.2780  -13.9870   21.0010 C   0  0  0  0  0  0  0  0  0  0  0  0
  -22.4850  -13.3670   21.8660 N   0  0  0  0  0  0  0  0  0  0  0  0
  -22.9150  -15.0100   20.4220 O   0  0  0  0  0  0  0  0  0  0  0  0
  -22.7850  -12.5360   22.3560 H   0  0  0  0  0  0  0  0  0  0  0  0
  -21.5570  -13.7300   22.0410 H   0  0  0  0  0  0  0  0  0  0  0  0
  -26.0270  -15.4910   20.2850 N   0  0  0  0  0  0  0  0  0  0  0  0
  -25.2940  -16.1790   20.4210 H   0  0  0  0  0  0  0  0  0  0  0  0
  -26.8800  -15.8900   19.9230 H   0  0  0  0  0  0  0  0  0  0  0  0
  -30.9110  -19.2710   22.2400 C   0  0  0  0  0  1  0  0  0  0  0  0
  -30.1670  -19.5610   21.0030 N   0  0  0  0  0  0  0  0  0  0  0  0
  -30.5890  -20.8490   20.3620 C   0  0  0  0  0  3  0  0  0  0  0  0
  -30.0240  -22.1910   20.9900 C   0  0  0  0  0  3  0  0  0  0  0  0
  -32.1020  -23.4590   20.9120 C   0  0  0  0  0  1  0  0  0  0  0  0
  -30.6680  -23.4760   20.5830 N   0  0  0  0  0  0  0  0  0  0  0  0
  -30.0160  -24.6910   21.1680 C   0  0  0  0  0  2  0  0  0  0  0  0
  -28.8020  -25.3150   20.4190 C   0  0  0  0  0  2  0  0  0  0  0  0
  -28.7590  -26.7450   20.6470 O   0  0  0  0  0  0  0  0  0  0  0  0
  -24.6410  -31.9140   23.3260 C   0  0  0  0  0  0  0  0  0  0  0  0
  -27.5630  -27.4390   20.5280 C   0  0  0  0  0  0  0  0  0  0  0  0
  -23.5720  -30.4380   21.6580 C   0  0  0  0  0  3  0  0  0  0  0  0
  -25.1420  -28.9050   20.3580 C   0  0  0  0  0  0  0  0  0  0  0  0
  -26.1020  -30.8430   21.6220 C   0  0  0  0  0  2  0  0  0  0  0  0
  -26.2510  -29.4660   21.0030 C   0  0  0  0  0  0  0  0  0  0  0  0
  -27.4630  -28.7370   21.0790 C   0  0  0  0  0  3  0  0  0  0  0  0
  -26.4340  -26.9010   19.8670 C   0  0  0  0  0  3  0  0  0  0  0  0
  -25.2270  -27.6220   19.7900 C   0  0  0  0  0  3  0  0  0  0  0  0
  -23.8800  -29.7380   20.3070 C   0  0  0  0  0  2  0  0  0  0  0  0
  -24.7830  -31.0860   22.2530 N   0  0  0  0  0  0  0  0  0  0  0  0
  -23.5220  -32.1700   23.7930 O   0  0  0  0  0  0  0  0  0  0  0  0
  -22.8930  -29.4230   22.6060 C   0  0  0  0  0  0  0  0  0  0  0  0
  -21.5710  -29.2460   22.4470 N   0  0  0  0  0  0  0  0  0  0  0  0
  -23.5560  -28.7980   23.4380 O   0  0  0  0  0  0  0  0  0  0  0  0
  -21.1020  -29.8060   21.7480 H   0  0  0  0  0  0  0  0  0  0  0  0
  -18.1690  -28.1210   22.9310 C   0  0  0  0  0  0  0  0  0  0  0  0
  -20.7320  -28.3170   23.2010 C   0  0  0  0  0  3  0  0  0  0  0  0
  -20.8010  -26.8960   22.6000 C   0  0  0  0  0  2  0  0  0  0  0  0
  -19.6920  -26.6170   21.5810 C   0  0  0  0  0  2  0  0  0  0  0  0
  -18.3150  -26.7820   22.2310 C   0  0  0  0  0  2  0  0  0  0  0  0
  -19.3060  -28.8510   23.3710 C   0  0  0  0  0  0  0  0  0  0  0  0
  -19.1180  -30.1090   23.9860 C   0  0  0  0  0  3  0  0  0  0  0  0
  -17.8260  -30.6390   24.1600 C   0  0  0  0  0  3  0  0  0  0  0  0
  -16.7030  -29.9050   23.7380 C   0  0  0  0  0  3  0  0  0  0  0  0
  -16.8760  -28.6460   23.1340 C   0  0  0  0  0  3  0  0  0  0  0  0
  -25.8690  -32.5990   24.0040 C   0  0  0  0  0  3  0  0  0  0  0  0
  -25.5030  -33.9970   24.2720 N   0  0  0  0  0  0  0  0  0  0  0  0
  -25.8390  -35.0340   23.4940 C   0  0  0  0  0  0  0  0  0  0  0  0
  -26.5590  -34.9190   22.4990 O   0  0  0  0  0  0  0  0  0  0  0  0
  -24.8740  -34.1610   25.0440 H   0  0  0  0  0  0  0  0  0  0  0  0
  -24.0750  -36.7590   23.0090 C   0  0  0  0  0  1  0  0  0  0  0  0
  -25.2910  -36.4200   23.8840 C   0  0  0  0  0  3  0  0  0  0  0  0
  -27.3560  -37.4100   24.7790 C   0  0  0  0  0  1  0  0  0  0  0  0
  -26.2960  -37.5010   23.7770 N   0  0  0  0  0  0  0  0  0  0  0  0
  -25.8530  -38.4130   23.8580 H   0  0  0  0  0  0  0  0  0  0  0  0
  -26.3370  -31.8810   25.3330 C   0  0  1  0  0  0  0  0  0  0  0  0
  -25.1930  -31.6340   26.3430 C   0  0  0  0  0  1  0  0  0  0  0  0
  -26.9970  -30.5160   25.0290 C   0  0  0  0  0  1  0  0  0  0  0  0
  -27.4130  -32.7410   26.0380 C   0  0  0  0  0  1  0  0  0  0  0  0
  -31.5230  -18.9490   17.3510 C   0  0  0  0  0  2  0  0  0  0  0  0
  -29.4960  -21.5630   15.4180 C   0  0  0  0  0  3  0  0  0  0  0  0
  -29.9060  -20.3280   15.9420 C   0  0  0  0  0  3  0  0  0  0  0  0
  -31.5960  -22.5970   16.1570 C   0  0  0  0  0  0  0  0  0  0  0  0
  -30.3070  -22.7080   15.5580 C   0  0  0  0  0  0  0  0  0  0  0  0
  -31.1240  -20.2360   16.6490 C   0  0  0  0  0  0  0  0  0  0  0  0
  -31.9830  -21.3550   16.7160 C   0  0  0  0  0  0  0  0  0  0  0  0
  -33.1860  -21.2260   17.3320 F   0  0  0  0  0  0  0  0  0  0  0  0
  -32.5630  -23.7490   16.1730 C   0  0  0  0  0  0  0  0  0  0  0  0
  -32.9120  -24.2290   17.3590 N   0  0  0  0  0  0  0  0  0  0  0  0
  -32.9670  -24.2590   15.1290 O   0  0  0  0  0  0  0  0  0  0  0  0
  -32.5580  -23.8220   18.2240 H   0  0  0  0  0  0  0  0  0  0  0  0
  -33.5720  -24.9890   17.4060 H   0  0  0  0  0  0  0  0  0  0  0  0
  -29.7310  -24.0460   15.0980 C   0  0  0  0  0  2  0  0  0  0  0  0
  -29.2080  -26.3310   15.8350 C   0  0  0  0  0  1  0  0  0  0  0  0
  -28.1980  -24.4500   17.0280 C   0  0  0  0  0  1  0  0  0  0  0  0
  -29.3670  -24.9210   16.2450 N   0  0  1  0  0  4  0  0  0  0  0  0
  -30.1590  -24.8970   16.8640 H   0  0  0  0  0  0  0  0  0  0  0  0
  1  3  1  0
  2  4  1  0
  3  4  1  0
  3 15  1  0
  4 46  1  0
  5  1  1  0
  5  2  1  0
  5  6  1  6
  7 15  1  0
  8 13  1  0
  9 10  1  0
  9  8  1  0
 11 10  1  0
 11 20  1  0
 11 12  1  0
 13  7  1  0
 13 12  1  0
 14  7  2  0
 15 16  1  0
 17 18  2  0
 18 19  1  0
 18 37  1  0
 19 22  1  0
 20 17  1  0
 20 21  1  0
 21 19  2  0
 22 23  1  0
 23 24  2  0
 25 28  1  0
 25 24  1  0
 26 25  2  0
 27 26  1  0
 27 22  2  0
 28 29  1  0
 29 30  1  0
 30 31  2  0
 32 31  1  0
 32 36  1  0
 33 32  2  0
 34 29  2  0
 34 33  1  0
 35 34  1  0
 37 38  1  0
 38 41  1  0
 38 40  1  0
 39 37  2  0
 42 43  1  0
 42 17  1  0
 44 42  1  0
 46 45  1  0
 47 48  2  0
 47 46  1  0
 50 49  1  0
 50 48  1  0
 50 51  1  0
 52 53  1  0
 52 51  1  0
 54 65  2  0
 55 53  1  0
 55 60  1  0
 56 64  1  0
 56 66  1  0
 57 59  1  0
 58 64  1  0
 59 60  2  0
 59 58  1  0
 61 55  2  0
 62 61  1  0
 62 57  2  0
 63 57  1  0
 63 56  1  0
 64 54  1  0
 66 68  2  0
 67 66  1  0
 69 67  1  0
 70 79  2  0
 70 75  1  0
 71 67  1  0
 71 75  1  0
 72 71  1  0
 73 74  1  0
 73 72  1  0
 74 70  1  0
 75 76  2  0
 76 77  1  0
 78 77  2  0
 79 78  1  0
 80 54  1  0
 80 81  1  0
 80 90  1  0
 81 84  1  0
 82 86  1  0
 82 81  1  0
 83 82  2  0
 86 85  1  0
 88 89  1  0
 88 86  1  0
 88 87  1  0
 90 93  1  1
 90 91  1  0
 92 90  1  0
 94  5  1  0
 95 98  2  0
 95 96  1  0
 96 99  2  0
 97102  1  0
 97100  2  0
 98 97  1  0
 99100  1  0
 99 94  1  0
100101  1  0
102103  1  0
103106  1  0
103105  1  0
104102  2  0
107 98  1  0
107110  1  0
108110  1  0
110111  1  1
110109  1  0
M  ISO  4   7 100  15 100  52 101  53 101
M  END
>  <TORSDO>  (80) 
F 27

>  <SCORE>  (80) 
-10.987

>  <name>  (80) 
79

>  <ligand_id>  (80) 
79

>  <original_smiles>  (80) 
[H]c1c([H])c([H])c2c(c1[H])C([H])([H])C([H])([H])C([H])([H])C2([H])N([H])C(=O)C1([H])N(C(=O)C([H])(N([H])C(=O)C([H])(N([H])C([H])([H])[H])C([H])([H])[H])C(C([H])([H])[H])(C([H])([H])[H])C([H])([H])[H])C([H])([H])c2c([H])c(OC([H])([H])C([H])([H])N(C([H])([H])[H])C([H])([H])C([H])([H])N(C([H])([H])[H])C3([H])C([H])(N([H])C(=O)N4C([H])([H])C([H])([H])C([H])([H])C([H])(n5nc(-c6c([H])c([H])c(Oc7c([H])c([H])c(F)c([H])c7F)c([H])c6[H])c(C(=O)N([H])[H])c5N([H])[H])C4([H])[H])C([H])([H])[N+]([H])(C([H])([H])c4c([H])c([H])c(C([H])([H])[N+]([H])(C([H])([H])[H])C([H])([H])[H])c(C(=O)N([H])[H])c4F)C3([H])[H])c([H])c([H])c2C1([H])[H]

>  <smiles>  (80) 
[H]c1c([H])c([H])c2c(c1[H])C([H])([H])C([H])([H])C([H])([H])C2([H])N([H])C(=O)C1([H])N(C(=O)C([H])(N([H])C(=O)C([H])(N([H])C([H])([H])[H])C([H])([H])[H])C(C([H])([H])[H])(C([H])([H])[H])C([H])([H])[H])C([H])([H])c2c([H])c(OC([H])([H])C([H])([H])N(C([H])([H])[H])C([H])([H])C([H])([H])N(C([H])([H])[H])C3([H])C([H])(N([H])C(=O)N4C([H])([H])C([H])([H])C([H])([H])C([H])(n5nc(-c6c([H])c([H])c(Oc7c([H])c([H])c(F)c([H])c7F)c([H])c6[H])c(C(=O)N([H])[H])c5N([H])[H])C4([H])[H])C([H])([H])[N+]([H])(C([H])([H])c4c([H])c([H])c(C([H])([H])[N+]([H])(C([H])([H])[H])C([H])([H])[H])c(C(=O)N([H])[H])c4F)C3([H])[H])c([H])c([H])c2C1([H])[H]

$$$$
80:0:0
     RDKit          3D

 94102  0  0  1  0  0  0  0  0999 V2000
  -28.1860  -21.6620   21.3740 C   0  0  0  0  0  2  0  0  0  0  0  0
  -30.9380  -19.0650   21.7120 C   0  0  0  0  0  3  0  0  0  0  0  0
  -30.2360  -20.2740   21.7480 C   0  0  0  0  0  3  0  0  0  0  0  0
  -29.1650  -18.0670   20.3840 C   0  0  0  0  0  3  0  0  0  0  0  0
  -30.4000  -17.9460   21.0670 C   0  0  0  0  0  0  0  0  0  0  0  0
  -28.9760  -20.3960   21.1400 C   0  0  0  0  0  0  0  0  0  0  0  0
  -28.4470  -19.2920   20.4310 C   0  0  0  0  0  0  0  0  0  0  0  0
  -27.2410  -19.3860   19.8200 F   0  0  0  0  0  0  0  0  0  0  0  0
  -31.2460  -16.6780   21.1500 C   0  0  0  0  0  2  0  0  0  0  0  0
  -31.0840  -14.4870   20.0450 C   0  0  0  0  0  0  0  0  0  0  0  0
  -30.7170  -12.3050   18.9530 C   0  0  0  0  0  2  0  0  0  0  0  0
  -29.7460  -12.4680   17.7740 C   0  0  0  0  0  2  0  0  0  0  0  0
  -28.2850  -12.3630   18.2550 C   0  0  0  0  0  2  0  0  0  0  0  0
  -27.9890  -13.2730   19.4760 C   0  0  0  0  0  3  0  0  0  0  0  0
  -29.0590  -13.0720   20.5690 C   0  0  0  0  0  2  0  0  0  0  0  0
  -30.3780  -13.3310   19.9560 N   0  0  0  0  0  0  0  0  0  0  0  0
  -32.1260  -14.6830   19.3990 O   0  0  0  0  0  0  0  0  0  0  0  0
  -30.5810  -15.4160   20.8630 N   0  0  0  0  0  0  0  0  0  0  0  0
  -29.7490  -15.1820   21.3760 H   0  0  0  0  0  0  0  0  0  0  0  0
  -25.6340  -13.9740   20.2580 C   0  0  0  0  0  0  0  0  0  0  0  0
  -24.5480  -13.2400   20.6530 C   0  0  0  0  0  0  0  0  0  0  0  0
  -24.9620  -11.8730   20.6050 C   0  0  0  0  0  0  0  0  0  0  0  0
  -26.6400  -13.0570   19.9940 N   0  0  0  0  0  0  0  0  0  0  0  0
  -26.2380  -11.7880   20.2590 N   0  0  0  0  0  0  0  0  0  0  0  0
  -24.2020  -10.6350   20.8240 C   0  0  0  0  0  0  0  0  0  0  0  0
  -24.5980   -9.6840   21.7890 C   0  0  0  0  0  3  0  0  0  0  0  0
  -23.8440   -8.5070   21.9890 C   0  0  0  0  0  3  0  0  0  0  0  0
  -22.6760   -8.2730   21.2240 C   0  0  0  0  0  0  0  0  0  0  0  0
  -22.2940   -9.2150   20.2500 C   0  0  0  0  0  3  0  0  0  0  0  0
  -23.0510  -10.3820   20.0480 C   0  0  0  0  0  3  0  0  0  0  0  0
  -21.8960   -7.1470   21.3330 O   0  0  0  0  0  0  0  0  0  0  0  0
  -21.7600   -6.4760   22.5210 C   0  0  0  0  0  0  0  0  0  0  0  0
  -21.2580   -7.1080   23.6800 C   0  0  0  0  0  3  0  0  0  0  0  0
  -21.0660   -6.3630   24.8600 C   0  0  0  0  0  3  0  0  0  0  0  0
  -21.3720   -4.9880   24.8820 C   0  0  0  0  0  0  0  0  0  0  0  0
  -21.8670   -4.3560   23.7270 C   0  0  0  0  0  3  0  0  0  0  0  0
  -22.0580   -5.0990   22.5490 C   0  0  0  0  0  0  0  0  0  0  0  0
  -22.5130   -4.4800   21.4310 F   0  0  0  0  0  0  0  0  0  0  0  0
  -21.1820   -4.2700   26.0130 F   0  0  0  0  0  0  0  0  0  0  0  0
  -23.1770  -13.7640   20.9730 C   0  0  0  0  0  0  0  0  0  0  0  0
  -22.4630  -13.0910   21.8710 N   0  0  0  0  0  0  0  0  0  0  0  0
  -22.7520  -14.8000   20.4670 O   0  0  0  0  0  0  0  0  0  0  0  0
  -22.8290  -12.2520   22.2990 H   0  0  0  0  0  0  0  0  0  0  0  0
  -21.5410  -13.4130   22.1240 H   0  0  0  0  0  0  0  0  0  0  0  0
  -25.8580  -15.3380   20.0880 N   0  0  0  0  0  0  0  0  0  0  0  0
  -25.1520  -16.0440   20.2430 H   0  0  0  0  0  0  0  0  0  0  0  0
  -26.7560  -15.7300   19.8340 H   0  0  0  0  0  0  0  0  0  0  0  0
  -28.5890  -22.8120   20.5150 N   0  0  0  0  0  4  0  0  0  0  0  0
  -28.2340  -22.6420   19.5860 H   0  0  0  0  0  0  0  0  0  0  0  0
  -29.5920  -22.7750   20.4410 H   0  0  0  0  0  0  0  0  0  0  0  0
  -26.6810  -24.2220   21.3580 C   0  0  0  0  0  1  0  0  0  0  0  0
  -28.1990  -24.1660   21.0400 C   0  0  0  0  0  3  0  0  0  0  0  0
  -28.6130  -25.3800   20.0980 C   0  0  0  0  0  2  0  0  0  0  0  0
  -28.5530  -26.8490   20.1280 O   0  0  0  0  0  0  0  0  0  0  0  0
  -24.6100  -31.9320   23.2690 C   0  0  0  0  0  0  0  0  0  0  0  0
  -27.3450  -27.5600   20.1040 C   0  0  0  0  0  0  0  0  0  0  0  0
  -23.4350  -30.5310   21.6020 C   0  0  0  0  0  3  0  0  0  0  0  0
  -24.9190  -29.0380   20.1560 C   0  0  0  0  0  0  0  0  0  0  0  0
  -25.9580  -30.9270   21.4230 C   0  0  0  0  0  2  0  0  0  0  0  0
  -26.0670  -29.5670   20.7550 C   0  0  0  0  0  0  0  0  0  0  0  0
  -27.2820  -28.8380   20.7160 C   0  0  0  0  0  3  0  0  0  0  0  0
  -26.1710  -27.0590   19.4920 C   0  0  0  0  0  3  0  0  0  0  0  0
  -24.9690  -27.7870   19.5190 C   0  0  0  0  0  3  0  0  0  0  0  0
  -23.6550  -29.8660   20.2170 C   0  0  0  0  0  2  0  0  0  0  0  0
  -24.6840  -31.1460   22.1550 N   0  0  0  0  0  0  0  0  0  0  0  0
  -23.5240  -32.1810   23.8100 O   0  0  0  0  0  0  0  0  0  0  0  0
  -22.7940  -29.4950   22.5500 C   0  0  0  0  0  0  0  0  0  0  0  0
  -21.4700  -29.3090   22.4240 N   0  0  0  0  0  0  0  0  0  0  0  0
  -23.4830  -28.8680   23.3570 O   0  0  0  0  0  0  0  0  0  0  0  0
  -20.9690  -29.8850   21.7590 H   0  0  0  0  0  0  0  0  0  0  0  0
  -18.1170  -28.0380   22.8740 C   0  0  0  0  0  0  0  0  0  0  0  0
  -20.6680  -28.3370   23.1650 C   0  0  0  0  0  3  0  0  0  0  0  0
  -20.7990  -26.9270   22.5430 C   0  0  0  0  0  2  0  0  0  0  0  0
  -19.7070  -26.6340   21.5120 C   0  0  0  0  0  2  0  0  0  0  0  0
  -18.3290  -26.7060   22.1720 C   0  0  0  0  0  2  0  0  0  0  0  0
  -19.2180  -28.8140   23.3270 C   0  0  0  0  0  0  0  0  0  0  0  0
  -18.9730  -30.0620   23.9380 C   0  0  0  0  0  3  0  0  0  0  0  0
  -17.6580  -30.5340   24.1060 C   0  0  0  0  0  3  0  0  0  0  0  0
  -16.5730  -29.7570   23.6690 C   0  0  0  0  0  3  0  0  0  0  0  0
  -16.8010  -28.5090   23.0570 C   0  0  0  0  0  3  0  0  0  0  0  0
  -25.8820  -32.5740   23.9010 C   0  0  0  0  0  3  0  0  0  0  0  0
  -25.5620  -33.9720   24.2180 N   0  0  0  0  0  0  0  0  0  0  0  0
  -25.9090  -35.0210   23.4620 C   0  0  0  0  0  0  0  0  0  0  0  0
  -26.6000  -34.9130   22.4470 O   0  0  0  0  0  0  0  0  0  0  0  0
  -24.9310  -34.1280   24.9900 H   0  0  0  0  0  0  0  0  0  0  0  0
  -24.1830  -36.8100   23.0650 C   0  0  0  0  0  1  0  0  0  0  0  0
  -25.4110  -36.4120   23.9020 C   0  0  0  0  0  3  0  0  0  0  0  0
  -27.5260  -37.3080   24.7690 C   0  0  0  0  0  1  0  0  0  0  0  0
  -26.4440  -37.4660   23.8020 N   0  0  0  0  0  0  0  0  0  0  0  0
  -26.0320  -38.3850   23.9340 H   0  0  0  0  0  0  0  0  0  0  0  0
  -26.3900  -31.8100   25.1870 C   0  0  1  0  0  0  0  0  0  0  0  0
  -25.2880  -31.5590   26.2430 C   0  0  0  0  0  1  0  0  0  0  0  0
  -26.9910  -30.4370   24.8060 C   0  0  0  0  0  1  0  0  0  0  0  0
  -27.5210  -32.6220   25.8630 C   0  0  0  0  0  1  0  0  0  0  0  0
  2  3  1  0
  4  7  2  0
  4  5  1  0
  5  9  1  0
  5  2  2  0
  6  1  1  0
  6  3  2  0
  7  6  1  0
  8  7  1  0
 10 18  1  0
 11 16  1  0
 12 13  1  0
 12 11  1  0
 14 13  1  0
 14 23  1  0
 14 15  1  0
 16 10  1  0
 16 15  1  0
 17 10  2  0
 18  9  1  0
 18 19  1  0
 20 21  2  0
 21 40  1  0
 22 21  1  0
 22 25  1  0
 23 20  1  0
 23 24  1  0
 24 22  2  0
 25 26  1  0
 26 27  2  0
 28 31  1  0
 28 27  1  0
 29 28  2  0
 30 29  1  0
 30 25  2  0
 31 32  1  0
 32 37  2  0
 32 33  1  0
 33 34  2  0
 34 35  1  0
 35 39  1  0
 36 35  2  0
 37 36  1  0
 38 37  1  0
 40 41  1  0
 41 44  1  0
 41 43  1  0
 42 40  2  0
 45 46  1  0
 45 20  1  0
 47 45  1  0
 48 52  1  0
 48  1  1  0
 49 48  1  0
 50 48  1  0
 52 51  1  0
 53 54  1  0
 53 52  1  0
 55 66  2  0
 56 54  1  0
 56 61  1  0
 57 65  1  0
 57 67  1  0
 58 64  1  0
 58 60  1  0
 59 65  1  0
 60 59  1  0
 61 60  2  0
 62 63  1  0
 62 56  2  0
 63 58  2  0
 64 57  1  0
 65 55  1  0
 67 69  2  0
 68 67  1  0
 70 68  1  0
 71 80  2  0
 71 76  1  0
 72 68  1  0
 72 76  1  0
 73 72  1  0
 74 75  1  0
 74 73  1  0
 75 71  1  0
 76 77  2  0
 77 78  1  0
 79 78  2  0
 80 79  1  0
 81 55  1  0
 81 82  1  0
 81 91  1  0
 82 85  1  0
 83 87  1  0
 83 82  1  0
 84 83  2  0
 87 86  1  0
 89 87  1  0
 89 90  1  0
 89 88  1  0
 91 94  1  1
 91 92  1  0
 93 91  1  0
M  ISO  4  10 100  18 100  53 101  54 101
M  END
>  <TORSDO>  (81) 
F 21

>  <SCORE>  (81) 
-13.430

>  <name>  (81) 
80

>  <ligand_id>  (81) 
80

>  <original_smiles>  (81) 
[H]c1c([H])c([H])c2c(c1[H])C([H])([H])C([H])([H])C([H])([H])C2([H])N([H])C(=O)C1([H])N(C(=O)C([H])(N([H])C(=O)C([H])(N([H])C([H])([H])[H])C([H])([H])[H])C(C([H])([H])[H])(C([H])([H])[H])C([H])([H])[H])C([H])([H])c2c([H])c(OC([H])([H])C([H])(C([H])([H])[H])[N+]([H])([H])C([H])([H])c3c([H])c([H])c(C([H])([H])N([H])C(=O)N4C([H])([H])C([H])([H])C([H])([H])C([H])(n5nc(-c6c([H])c([H])c(Oc7c([H])c([H])c(F)c([H])c7F)c([H])c6[H])c(C(=O)N([H])[H])c5N([H])[H])C4([H])[H])c([H])c3F)c([H])c([H])c2C1([H])[H]

>  <smiles>  (81) 
[H]c1c([H])c([H])c2c(c1[H])C([H])([H])C([H])([H])C([H])([H])C2([H])N([H])C(=O)C1([H])N(C(=O)C([H])(N([H])C(=O)C([H])(N([H])C([H])([H])[H])C([H])([H])[H])C(C([H])([H])[H])(C([H])([H])[H])C([H])([H])[H])C([H])([H])c2c([H])c(OC([H])([H])C([H])(C([H])([H])[H])[N+]([H])([H])C([H])([H])c3c([H])c([H])c(C([H])([H])N([H])C(=O)N4C([H])([H])C([H])([H])C([H])([H])C([H])(n5nc(-c6c([H])c([H])c(Oc7c([H])c([H])c(F)c([H])c7F)c([H])c6[H])c(C(=O)N([H])[H])c5N([H])[H])C4([H])[H])c([H])c3F)c([H])c([H])c2C1([H])[H]

$$$$
81:0:0
     RDKit          3D

 96104  0  0  1  0  0  0  0  0999 V2000
  -28.6990  -22.0180   19.8860 C   0  0  0  0  0  3  0  0  0  0  0  0
  -29.7470  -21.1170   19.1790 C   0  0  0  0  0  0  0  0  0  0  0  0
  -29.6310  -18.0410   21.1890 C   0  0  0  0  0  2  0  0  0  0  0  0
  -30.9230  -17.7290   19.0690 C   0  0  0  0  0  2  0  0  0  0  0  0
  -29.9930  -19.5470   21.1590 C   0  0  0  0  0  2  0  0  0  0  0  0
  -31.3270  -19.2130   19.1380 C   0  0  0  0  0  2  0  0  0  0  0  0
  -30.6910  -17.1630   20.4870 C   0  0  0  0  0  3  0  0  0  0  0  0
  -30.2740  -20.0160   19.7870 N   0  0  0  0  0  0  0  0  0  0  0  0
  -30.0840  -21.4430   18.0340 O   0  0  0  0  0  0  0  0  0  0  0  0
  -31.0180  -14.6950   20.0690 C   0  0  0  0  0  0  0  0  0  0  0  0
  -30.6840  -12.5170   18.9770 C   0  0  0  0  0  2  0  0  0  0  0  0
  -29.7090  -12.7030   17.7960 C   0  0  0  0  0  2  0  0  0  0  0  0
  -28.2470  -12.5840   18.2700 C   0  0  0  0  0  2  0  0  0  0  0  0
  -27.9460  -13.4490   19.5230 C   0  0  0  0  0  3  0  0  0  0  0  0
  -29.0310  -13.2450   20.6050 C   0  0  0  0  0  2  0  0  0  0  0  0
  -30.3390  -13.5220   19.9920 N   0  0  0  0  0  0  0  0  0  0  0  0
  -32.1580  -14.8440   19.6220 O   0  0  0  0  0  0  0  0  0  0  0  0
  -30.2900  -15.7460   20.4910 N   0  0  0  0  0  0  0  0  0  0  0  0
  -29.3550  -15.5350   20.8060 H   0  0  0  0  0  0  0  0  0  0  0  0
  -25.5810  -14.0860   20.3130 C   0  0  0  0  0  0  0  0  0  0  0  0
  -24.5150  -13.3260   20.7120 C   0  0  0  0  0  0  0  0  0  0  0  0
  -24.9550  -11.9680   20.6560 C   0  0  0  0  0  0  0  0  0  0  0  0
  -26.6060  -13.1900   20.0440 N   0  0  0  0  0  0  0  0  0  0  0  0
  -26.2350  -11.9120   20.3080 N   0  0  0  0  0  0  0  0  0  0  0  0
  -24.2160  -10.7150   20.8580 C   0  0  0  0  0  0  0  0  0  0  0  0
  -24.6120   -9.7740   21.8350 C   0  0  0  0  0  3  0  0  0  0  0  0
  -23.8760   -8.5840   22.0230 C   0  0  0  0  0  3  0  0  0  0  0  0
  -22.7290   -8.3280   21.2340 C   0  0  0  0  0  0  0  0  0  0  0  0
  -22.3540   -9.2560   20.2470 C   0  0  0  0  0  3  0  0  0  0  0  0
  -23.0910  -10.4370   20.0570 C   0  0  0  0  0  3  0  0  0  0  0  0
  -21.9670   -7.1890   21.3300 O   0  0  0  0  0  0  0  0  0  0  0  0
  -21.8100   -6.5260   22.5210 C   0  0  0  0  0  0  0  0  0  0  0  0
  -21.2260   -7.1450   23.6470 C   0  0  0  0  0  3  0  0  0  0  0  0
  -21.0210   -6.4060   24.8300 C   0  0  0  0  0  3  0  0  0  0  0  0
  -21.3890   -5.0480   24.8840 C   0  0  0  0  0  0  0  0  0  0  0  0
  -21.9640   -4.4290   23.7610 C   0  0  0  0  0  3  0  0  0  0  0  0
  -22.1720   -5.1650   22.5820 C   0  0  0  0  0  0  0  0  0  0  0  0
  -22.7070   -4.5580   21.4970 F   0  0  0  0  0  0  0  0  0  0  0  0
  -21.1830   -4.3350   26.0160 F   0  0  0  0  0  0  0  0  0  0  0  0
  -23.1340  -13.8210   21.0310 C   0  0  0  0  0  0  0  0  0  0  0  0
  -22.4260  -13.1320   21.9180 N   0  0  0  0  0  0  0  0  0  0  0  0
  -22.6920  -14.8550   20.5300 O   0  0  0  0  0  0  0  0  0  0  0  0
  -22.7950  -12.2950   22.3460 H   0  0  0  0  0  0  0  0  0  0  0  0
  -21.5000  -13.4450   22.1760 H   0  0  0  0  0  0  0  0  0  0  0  0
  -25.7600  -15.4550   20.1380 N   0  0  0  0  0  0  0  0  0  0  0  0
  -24.9970  -16.1130   20.2630 H   0  0  0  0  0  0  0  0  0  0  0  0
  -26.5950  -15.8840   19.7620 H   0  0  0  0  0  0  0  0  0  0  0  0
  -28.8660  -24.5290   20.1900 C   0  0  0  0  0  0  0  0  0  0  0  0
  -28.8920  -23.4120   19.4500 N   0  0  0  0  0  0  0  0  0  0  0  0
  -28.5990  -24.5250   21.3950 O   0  0  0  0  0  0  0  0  0  0  0  0
  -29.1860  -23.5000   18.4870 H   0  0  0  0  0  0  0  0  0  0  0  0
  -29.2290  -25.8390   19.4610 C   0  0  0  0  0  2  0  0  0  0  0  0
  -28.9650  -26.9970   20.2650 O   0  0  0  0  0  0  0  0  0  0  0  0
  -24.7750  -31.8270   23.3590 C   0  0  0  0  0  0  0  0  0  0  0  0
  -27.7290  -27.6150   20.2330 C   0  0  0  0  0  0  0  0  0  0  0  0
  -23.6950  -30.4390   21.6190 C   0  0  0  0  0  3  0  0  0  0  0  0
  -25.2650  -29.0100   20.2100 C   0  0  0  0  0  0  0  0  0  0  0  0
  -26.2080  -30.9060   21.5400 C   0  0  0  0  0  2  0  0  0  0  0  0
  -26.3740  -29.5610   20.8610 C   0  0  0  0  0  0  0  0  0  0  0  0
  -27.6030  -28.8670   20.8750 C   0  0  0  0  0  3  0  0  0  0  0  0
  -26.5930  -27.0650   19.5920 C   0  0  0  0  0  3  0  0  0  0  0  0
  -25.3680  -27.7590   19.5780 C   0  0  0  0  0  3  0  0  0  0  0  0
  -23.9880  -29.8180   20.2280 C   0  0  0  0  0  2  0  0  0  0  0  0
  -24.9080  -31.0700   22.2330 N   0  0  0  0  0  0  0  0  0  0  0  0
  -23.6620  -32.0360   23.8630 O   0  0  0  0  0  0  0  0  0  0  0  0
  -23.0470  -29.3590   22.5160 C   0  0  0  0  0  0  0  0  0  0  0  0
  -21.7410  -29.1220   22.3170 N   0  0  0  0  0  0  0  0  0  0  0  0
  -23.7180  -28.7400   23.3440 O   0  0  0  0  0  0  0  0  0  0  0  0
  -21.2580  -29.6790   21.6260 H   0  0  0  0  0  0  0  0  0  0  0  0
  -18.4030  -27.7740   22.6220 C   0  0  0  0  0  0  0  0  0  0  0  0
  -20.9320  -28.1240   23.0170 C   0  0  0  0  0  3  0  0  0  0  0  0
  -21.1190  -26.7200   22.3960 C   0  0  0  0  0  2  0  0  0  0  0  0
  -20.0770  -26.3920   21.3220 C   0  0  0  0  0  2  0  0  0  0  0  0
  -18.6640  -26.4580   21.9090 C   0  0  0  0  0  2  0  0  0  0  0  0
  -19.4690  -28.5640   23.1290 C   0  0  0  0  0  0  0  0  0  0  0  0
  -19.1730  -29.7950   23.7530 C   0  0  0  0  0  3  0  0  0  0  0  0
  -17.8440  -30.2390   23.8770 C   0  0  0  0  0  3  0  0  0  0  0  0
  -16.7910  -29.4470   23.3870 C   0  0  0  0  0  3  0  0  0  0  0  0
  -17.0700  -28.2160   22.7670 C   0  0  0  0  0  3  0  0  0  0  0  0
  -26.0070  -32.4850   24.0530 C   0  0  0  0  0  3  0  0  0  0  0  0
  -26.4720  -31.7190   25.3520 C   0  0  1  0  0  0  0  0  0  0  0  0
  -25.3240  -31.4390   26.3510 C   0  0  0  0  0  1  0  0  0  0  0  0
  -27.1200  -30.3640   24.9850 C   0  0  0  0  0  1  0  0  0  0  0  0
  -27.5540  -32.5440   26.0880 C   0  0  0  0  0  1  0  0  0  0  0  0
  -25.6490  -33.8740   24.3680 N   0  0  0  0  0  0  0  0  0  0  0  0
  -25.9830  -34.9340   23.6190 C   0  0  0  0  0  0  0  0  0  0  0  0
  -26.6970  -34.8480   22.6160 O   0  0  0  0  0  0  0  0  0  0  0  0
  -25.0170  -34.0130   25.1430 H   0  0  0  0  0  0  0  0  0  0  0  0
  -24.2150  -36.6710   23.1940 C   0  0  0  0  0  1  0  0  0  0  0  0
  -25.4390  -36.3100   24.0510 C   0  0  0  0  0  3  0  0  0  0  0  0
  -27.5130  -37.2660   24.9540 C   0  0  0  0  0  1  0  0  0  0  0  0
  -26.4430  -37.3930   23.9680 N   0  0  0  0  0  0  0  0  0  0  0  0
  -26.0030  -38.3010   24.0940 H   0  0  0  0  0  0  0  0  0  0  0  0
  -26.2120  -22.5150   20.3340 C   0  0  0  0  0  1  0  0  0  0  0  0
  -26.8510  -21.3700   18.1750 C   0  0  0  0  0  1  0  0  0  0  0  0
  -27.2240  -21.5710   19.6600 C   0  0  0  0  0  3  0  0  0  0  0  0
  1  2  1  0
  2  8  1  0
  4  6  1  0
  4  7  1  0
  5  3  1  0
  6  8  1  0
  7 18  1  0
  7  3  1  0
  8  5  1  0
  9  2  2  0
 10 18  1  0
 11 16  1  0
 12 13  1  0
 12 11  1  0
 14 13  1  0
 14 23  1  0
 14 15  1  0
 16 10  1  0
 16 15  1  0
 17 10  2  0
 18 19  1  0
 20 21  2  0
 21 40  1  0
 22 21  1  0
 22 25  1  0
 23 24  1  0
 23 20  1  0
 24 22  2  0
 25 26  1  0
 26 27  2  0
 28 31  1  0
 28 27  1  0
 29 28  2  0
 30 29  1  0
 30 25  2  0
 31 32  1  0
 32 37  2  0
 32 33  1  0
 33 34  2  0
 34 35  1  0
 35 39  1  0
 36 35  2  0
 37 36  1  0
 38 37  1  0
 40 41  1  0
 41 44  1  0
 41 43  1  0
 42 40  2  0
 45 46  1  0
 45 20  1  0
 47 45  1  0
 48 50  2  0
 49  1  1  0
 49 48  1  0
 51 49  1  0
 52 48  1  0
 52 53  1  0
 54 65  2  0
 55 53  1  0
 55 60  1  0
 56 64  1  0
 56 66  1  0
 57 63  1  0
 57 59  1  0
 58 64  1  0
 59 60  2  0
 59 58  1  0
 61 55  2  0
 62 61  1  0
 62 57  2  0
 63 56  1  0
 64 54  1  0
 66 68  2  0
 67 66  1  0
 69 67  1  0
 70 79  2  0
 70 75  1  0
 71 67  1  0
 71 75  1  0
 72 71  1  0
 73 74  1  0
 73 72  1  0
 74 70  1  0
 75 76  2  0
 76 77  1  0
 78 77  2  0
 79 78  1  0
 80 54  1  0
 80 85  1  0
 80 81  1  0
 81 84  1  1
 81 82  1  0
 83 81  1  0
 85 88  1  0
 86 90  1  0
 86 85  1  0
 87 86  2  0
 90 89  1  0
 92 90  1  0
 92 93  1  0
 92 91  1  0
 95 96  1  0
 96  1  1  0
 96 94  1  0
M  ISO  4  10 100  18 100  52 101  53 101
M  END
>  <TORSDO>  (82) 
F 20

>  <SCORE>  (82) 
-12.969

>  <name>  (82) 
81

>  <ligand_id>  (82) 
81

>  <original_smiles>  (82) 
[H]c1c([H])c([H])c2c(c1[H])C([H])([H])C([H])([H])C([H])([H])C2([H])N([H])C(=O)C1([H])N(C(=O)C([H])(N([H])C(=O)C([H])(N([H])C([H])([H])[H])C([H])([H])[H])C(C([H])([H])[H])(C([H])([H])[H])C([H])([H])[H])C([H])([H])c2c([H])c(OC([H])([H])C(=O)N([H])C([H])(C(=O)N3C([H])([H])C([H])([H])C([H])(N([H])C(=O)N4C([H])([H])C([H])([H])C([H])([H])C([H])(n5nc(-c6c([H])c([H])c(Oc7c([H])c([H])c(F)c([H])c7F)c([H])c6[H])c(C(=O)N([H])[H])c5N([H])[H])C4([H])[H])C([H])([H])C3([H])[H])C([H])(C([H])([H])[H])C([H])([H])[H])c([H])c([H])c2C1([H])[H]

>  <smiles>  (82) 
[H]c1c([H])c([H])c2c(c1[H])C([H])([H])C([H])([H])C([H])([H])C2([H])N([H])C(=O)C1([H])N(C(=O)C([H])(N([H])C(=O)C([H])(N([H])C([H])([H])[H])C([H])([H])[H])C(C([H])([H])[H])(C([H])([H])[H])C([H])([H])[H])C([H])([H])c2c([H])c(OC([H])([H])C(=O)N([H])C([H])(C(=O)N3C([H])([H])C([H])([H])C([H])(N([H])C(=O)N4C([H])([H])C([H])([H])C([H])([H])C([H])(n5nc(-c6c([H])c([H])c(Oc7c([H])c([H])c(F)c([H])c7F)c([H])c6[H])c(C(=O)N([H])[H])c5N([H])[H])C4([H])[H])C([H])([H])C3([H])[H])C([H])(C([H])([H])[H])C([H])([H])[H])c([H])c([H])c2C1([H])[H]

$$$$
82:0:0
     RDKit          3D

 95104  0  0  1  0  0  0  0  0999 V2000
  -28.2010  -23.4970   20.3460 C   0  0  0  0  0  2  0  0  0  0  0  0
  -30.2130  -23.4960   18.8870 C   0  0  0  0  0  2  0  0  0  0  0  0
  -28.6460  -22.1120   20.9160 C   0  0  0  0  0  2  0  0  0  0  0  0
  -30.6330  -22.1180   19.4680 C   0  0  0  0  0  2  0  0  0  0  0  0
  -29.3910  -24.3750   19.8740 C   0  0  0  0  0  3  0  0  0  0  0  0
  -29.4980  -21.3400   19.9870 N   0  0  0  0  0  0  0  0  0  0  0  0
  -28.5570  -19.1070   20.5720 C   0  0  0  0  0  3  0  0  0  0  0  0
  -30.8740  -19.2280   19.9410 C   0  0  0  0  0  3  0  0  0  0  0  0
  -28.6770  -17.7030   20.7290 C   0  0  0  0  0  3  0  0  0  0  0  0
  -30.9960  -17.8170   20.0870 C   0  0  0  0  0  3  0  0  0  0  0  0
  -29.6480  -19.9210   20.1710 C   0  0  0  0  0  0  0  0  0  0  0  0
  -29.8910  -17.0210   20.4790 C   0  0  0  0  0  0  0  0  0  0  0  0
  -30.6550  -14.6010   20.0850 C   0  0  0  0  0  0  0  0  0  0  0  0
  -30.3540  -12.4370   18.9200 C   0  0  0  0  0  2  0  0  0  0  0  0
  -29.3360  -12.6520   17.7780 C   0  0  0  0  0  2  0  0  0  0  0  0
  -27.8890  -12.4940   18.2870 C   0  0  0  0  0  2  0  0  0  0  0  0
  -27.6230  -13.2950   19.5890 C   0  0  0  0  0  3  0  0  0  0  0  0
  -28.7420  -13.0430   20.6260 C   0  0  0  0  0  2  0  0  0  0  0  0
  -30.0270  -13.3910   19.9940 N   0  0  0  0  0  0  0  0  0  0  0  0
  -31.7650  -14.8040   19.5850 O   0  0  0  0  0  0  0  0  0  0  0  0
  -29.9040  -15.5840   20.6500 N   0  0  0  0  0  0  0  0  0  0  0  0
  -29.0700  -15.2130   21.0800 H   0  0  0  0  0  0  0  0  0  0  0  0
  -25.2740  -13.8910   20.4540 C   0  0  0  0  0  0  0  0  0  0  0  0
  -24.2250  -13.1140   20.8640 C   0  0  0  0  0  0  0  0  0  0  0  0
  -24.6770  -11.7610   20.7690 C   0  0  0  0  0  0  0  0  0  0  0  0
  -26.2990  -13.0120   20.1380 N   0  0  0  0  0  0  0  0  0  0  0  0
  -25.9460  -11.7250   20.3850 N   0  0  0  0  0  0  0  0  0  0  0  0
  -23.9560  -10.4970   20.9660 C   0  0  0  0  0  0  0  0  0  0  0  0
  -24.4090   -9.5240   21.8820 C   0  0  0  0  0  3  0  0  0  0  0  0
  -23.6890   -8.3230   22.0670 C   0  0  0  0  0  3  0  0  0  0  0  0
  -22.5010   -8.0890   21.3330 C   0  0  0  0  0  0  0  0  0  0  0  0
  -22.0660   -9.0510   20.4060 C   0  0  0  0  0  3  0  0  0  0  0  0
  -22.7870  -10.2430   20.2200 C   0  0  0  0  0  3  0  0  0  0  0  0
  -21.7510   -6.9420   21.4290 O   0  0  0  0  0  0  0  0  0  0  0  0
  -21.6890   -6.2150   22.5910 C   0  0  0  0  0  0  0  0  0  0  0  0
  -21.2260   -6.7810   23.7990 C   0  0  0  0  0  3  0  0  0  0  0  0
  -21.1140   -5.9800   24.9530 C   0  0  0  0  0  3  0  0  0  0  0  0
  -21.4540   -4.6160   24.8990 C   0  0  0  0  0  0  0  0  0  0  0  0
  -21.9110   -4.0500   23.6970 C   0  0  0  0  0  3  0  0  0  0  0  0
  -22.0250   -4.8470   22.5450 C   0  0  0  0  0  0  0  0  0  0  0  0
  -22.4460   -4.2930   21.3820 F   0  0  0  0  0  0  0  0  0  0  0  0
  -21.3390   -3.8440   26.0060 F   0  0  0  0  0  0  0  0  0  0  0  0
  -22.8490  -13.5880   21.2310 C   0  0  0  0  0  0  0  0  0  0  0  0
  -22.1670  -12.8690   22.1160 N   0  0  0  0  0  0  0  0  0  0  0  0
  -22.3880  -14.6310   20.7680 O   0  0  0  0  0  0  0  0  0  0  0  0
  -22.5550  -12.0250   22.5120 H   0  0  0  0  0  0  0  0  0  0  0  0
  -21.2470  -13.1680   22.4040 H   0  0  0  0  0  0  0  0  0  0  0  0
  -25.4360  -15.2660   20.3020 N   0  0  0  0  0  0  0  0  0  0  0  0
  -24.6720  -15.9140   20.4560 H   0  0  0  0  0  0  0  0  0  0  0  0
  -26.2470  -15.7020   19.8830 H   0  0  0  0  0  0  0  0  0  0  0  0
  -30.1560  -26.5720   18.7310 C   0  0  0  0  0  1  0  0  0  0  0  0
  -28.9470  -25.7730   19.2430 C   0  0  1  0  0  0  0  0  0  0  0  0
  -28.1200  -25.5310   18.1280 O   0  0  0  0  0  0  0  0  0  0  0  0
  -28.5750  -24.9150   17.5690 H   0  0  0  0  0  0  0  0  0  0  0  0
  -28.3940  -26.6210   20.2610 O   0  0  0  0  0  0  0  0  0  0  0  0
  -24.5700  -31.8830   23.2180 C   0  0  0  0  0  0  0  0  0  0  0  0
  -27.2360  -27.3950   20.1330 C   0  0  0  0  0  0  0  0  0  0  0  0
  -23.3730  -30.4720   21.5820 C   0  0  0  0  0  3  0  0  0  0  0  0
  -24.8320  -28.9370   20.1550 C   0  0  0  0  0  0  0  0  0  0  0  0
  -25.9040  -30.8250   21.3880 C   0  0  0  0  0  2  0  0  0  0  0  0
  -25.9950  -29.4530   20.7390 C   0  0  0  0  0  0  0  0  0  0  0  0
  -27.1930  -28.6900   20.7250 C   0  0  0  0  0  3  0  0  0  0  0  0
  -26.0300  -26.8960   19.5860 C   0  0  0  0  0  3  0  0  0  0  0  0
  -24.8470  -27.6590   19.5760 C   0  0  0  0  0  3  0  0  0  0  0  0
  -23.5870  -29.7940   20.2030 C   0  0  0  0  0  2  0  0  0  0  0  0
  -24.6340  -31.0760   22.1200 N   0  0  0  0  0  0  0  0  0  0  0  0
  -23.4850  -32.1520   23.7550 O   0  0  0  0  0  0  0  0  0  0  0  0
  -22.7230  -29.4510   22.5450 C   0  0  0  0  0  0  0  0  0  0  0  0
  -21.3970  -29.2670   22.4210 N   0  0  0  0  0  0  0  0  0  0  0  0
  -23.4060  -28.8280   23.3600 O   0  0  0  0  0  0  0  0  0  0  0  0
  -20.9040  -29.8210   21.7330 H   0  0  0  0  0  0  0  0  0  0  0  0
  -18.0240  -28.0720   22.9340 C   0  0  0  0  0  0  0  0  0  0  0  0
  -20.5830  -28.3280   23.1940 C   0  0  0  0  0  3  0  0  0  0  0  0
  -20.6820  -26.8980   22.6150 C   0  0  0  0  0  2  0  0  0  0  0  0
  -19.5750  -26.5770   21.6060 C   0  0  0  0  0  2  0  0  0  0  0  0
  -18.1970  -26.7230   22.2570 C   0  0  0  0  0  2  0  0  0  0  0  0
  -19.1440  -28.8330   23.3600 C   0  0  0  0  0  0  0  0  0  0  0  0
  -18.9290  -30.0950   23.9540 C   0  0  0  0  0  3  0  0  0  0  0  0
  -17.6260  -30.5980   24.1250 C   0  0  0  0  0  3  0  0  0  0  0  0
  -16.5190  -29.8340   23.7150 C   0  0  0  0  0  3  0  0  0  0  0  0
  -16.7190  -28.5730   23.1250 C   0  0  0  0  0  3  0  0  0  0  0  0
  -25.8500  -32.5230   23.8390 C   0  0  0  0  0  3  0  0  0  0  0  0
  -26.3780  -31.7510   25.1090 C   0  0  1  0  0  0  0  0  0  0  0  0
  -25.2910  -31.4970   26.1790 C   0  0  0  0  0  1  0  0  0  0  0  0
  -26.9750  -30.3810   24.7070 C   0  0  0  0  0  1  0  0  0  0  0  0
  -27.5230  -32.5540   25.7720 C   0  0  0  0  0  1  0  0  0  0  0  0
  -25.5290  -33.9170   24.1760 N   0  0  0  0  0  0  0  0  0  0  0  0
  -25.8470  -34.9750   23.4170 C   0  0  0  0  0  0  0  0  0  0  0  0
  -26.5110  -34.8810   22.3820 O   0  0  0  0  0  0  0  0  0  0  0  0
  -24.9380  -34.0630   24.9800 H   0  0  0  0  0  0  0  0  0  0  0  0
  -24.1010  -36.7540   23.0770 C   0  0  0  0  0  1  0  0  0  0  0  0
  -25.3490  -36.3570   23.8820 C   0  0  0  0  0  3  0  0  0  0  0  0
  -27.4770  -37.2610   24.7120 C   0  0  0  0  0  1  0  0  0  0  0  0
  -26.3730  -37.4200   23.7700 N   0  0  0  0  0  0  0  0  0  0  0  0
  -25.9580  -38.3360   23.9180 H   0  0  0  0  0  0  0  0  0  0  0  0
  1  3  1  0
  2  4  1  0
  2  5  1  0
  4  6  1  0
  5 52  1  0
  5  1  1  0
  6 11  1  0
  6  3  1  0
  7  9  1  0
  8 10  2  0
  8 11  1  0
 10 12  1  0
 11  7  2  0
 12 21  1  0
 12  9  2  0
 13 21  1  0
 14 19  1  0
 15 16  1  0
 15 14  1  0
 17 16  1  0
 17 26  1  0
 17 18  1  0
 19 13  1  0
 19 18  1  0
 20 13  2  0
 21 22  1  0
 23 24  2  0
 24 43  1  0
 25 24  1  0
 25 28  1  0
 26 27  1  0
 26 23  1  0
 27 25  2  0
 28 29  1  0
 29 30  2  0
 31 34  1  0
 31 30  1  0
 32 31  2  0
 33 32  1  0
 33 28  2  0
 34 35  1  0
 35 36  1  0
 36 37  2  0
 38 37  1  0
 38 42  1  0
 39 38  2  0
 40 35  2  0
 40 39  1  0
 41 40  1  0
 43 44  1  0
 44 47  1  0
 44 46  1  0
 45 43  2  0
 48 23  1  0
 48 49  1  0
 50 48  1  0
 52 51  1  6
 52 55  1  0
 53 52  1  0
 54 53  1  0
 56 67  2  0
 57 55  1  0
 57 62  1  0
 58 66  1  0
 58 68  1  0
 59 65  1  0
 59 61  1  0
 60 66  1  0
 61 60  1  0
 62 61  2  0
 63 57  2  0
 64 63  1  0
 64 59  2  0
 65 58  1  0
 66 56  1  0
 68 70  2  0
 69 68  1  0
 71 69  1  0
 72 81  2  0
 72 77  1  0
 73 69  1  0
 73 77  1  0
 74 73  1  0
 75 76  1  0
 75 74  1  0
 76 72  1  0
 77 78  2  0
 78 79  1  0
 80 79  2  0
 81 80  1  0
 82 56  1  0
 82 87  1  0
 82 83  1  0
 83 86  1  1
 83 84  1  0
 85 83  1  0
 87 90  1  0
 88 92  1  0
 88 87  1  0
 89 88  2  0
 92 91  1  0
 94 92  1  0
 94 95  1  0
 94 93  1  0
M  ISO  4  13 100  21 100  52 101  55 101
M  END
>  <TORSDO>  (83) 
F 19

>  <SCORE>  (83) 
-14.473

>  <name>  (83) 
82

>  <ligand_id>  (83) 
82

>  <original_smiles>  (83) 
[H]OC(Oc1c([H])c([H])c2c(c1[H])C([H])([H])N(C(=O)C([H])(N([H])C(=O)C([H])(N([H])C([H])([H])[H])C([H])([H])[H])C(C([H])([H])[H])(C([H])([H])[H])C([H])([H])[H])C([H])(C(=O)N([H])C1([H])c3c([H])c([H])c([H])c([H])c3C([H])([H])C([H])([H])C1([H])[H])C2([H])[H])(C([H])([H])[H])C1([H])C([H])([H])C([H])([H])N(c2c([H])c([H])c(N([H])C(=O)N3C([H])([H])C([H])([H])C([H])([H])C([H])(n4nc(-c5c([H])c([H])c(Oc6c([H])c([H])c(F)c([H])c6F)c([H])c5[H])c(C(=O)N([H])[H])c4N([H])[H])C3([H])[H])c([H])c2[H])C([H])([H])C1([H])[H]

>  <smiles>  (83) 
[H]OC(Oc1c([H])c([H])c2c(c1[H])C([H])([H])N(C(=O)C([H])(N([H])C(=O)C([H])(N([H])C([H])([H])[H])C([H])([H])[H])C(C([H])([H])[H])(C([H])([H])[H])C([H])([H])[H])C([H])(C(=O)N([H])C1([H])c3c([H])c([H])c([H])c([H])c3C([H])([H])C([H])([H])C1([H])[H])C2([H])[H])(C([H])([H])[H])C1([H])C([H])([H])C([H])([H])N(c2c([H])c([H])c(N([H])C(=O)N3C([H])([H])C([H])([H])C([H])([H])C([H])(n4nc(-c5c([H])c([H])c(Oc6c([H])c([H])c(F)c([H])c6F)c([H])c5[H])c(C(=O)N([H])[H])c4N([H])[H])C3([H])[H])c([H])c2[H])C([H])([H])C1([H])[H]

$$$$
83:0:0
     RDKit          3D

104112  0  0  1  0  0  0  0  0999 V2000
  -31.4500  -23.2820   21.4830 C   0  0  0  0  0  2  0  0  0  0  0  0
  -31.1770  -21.2430   22.8190 C   0  0  0  0  0  1  0  0  0  0  0  0
  -31.4230  -21.7940   21.4590 N   0  0  1  0  0  4  0  0  0  0  0  0
  -32.3600  -21.4910   21.2250 H   0  0  0  0  0  0  0  0  0  0  0  0
  -30.5220  -21.2370   20.4040 C   0  0  0  0  0  2  0  0  0  0  0  0
  -29.6140  -19.0870   21.3740 C   0  0  0  0  0  3  0  0  0  0  0  0
  -29.4980  -17.6870   21.4290 C   0  0  0  0  0  3  0  0  0  0  0  0
  -30.9610  -17.4990   19.4950 C   0  0  0  0  0  3  0  0  0  0  0  0
  -30.4130  -19.7080   20.3870 C   0  0  0  0  0  0  0  0  0  0  0  0
  -31.0850  -18.9070   19.4240 C   0  0  0  0  0  0  0  0  0  0  0  0
  -30.1890  -16.8770   20.5060 C   0  0  0  0  0  0  0  0  0  0  0  0
  -30.7030  -14.4740   20.0260 C   0  0  0  0  0  0  0  0  0  0  0  0
  -30.5280  -12.1390   19.2550 C   0  0  0  0  0  2  0  0  0  0  0  0
  -29.5640  -12.0730   18.0530 C   0  0  0  0  0  2  0  0  0  0  0  0
  -28.1040  -11.9250   18.5290 C   0  0  0  0  0  2  0  0  0  0  0  0
  -27.7260  -12.9550   19.6260 C   0  0  0  0  0  3  0  0  0  0  0  0
  -28.7980  -12.9810   20.7380 C   0  0  0  0  0  2  0  0  0  0  0  0
  -30.1050  -13.2580   20.1100 N   0  0  0  0  0  0  0  0  0  0  0  0
  -31.7640  -14.6590   19.4210 O   0  0  0  0  0  0  0  0  0  0  0  0
  -30.0220  -15.4700   20.6190 N   0  0  0  0  0  0  0  0  0  0  0  0
  -29.2460  -15.1610   21.1860 H   0  0  0  0  0  0  0  0  0  0  0  0
  -25.3970  -13.5890   20.5270 C   0  0  0  0  0  0  0  0  0  0  0  0
  -24.3250  -12.8290   20.9080 C   0  0  0  0  0  0  0  0  0  0  0  0
  -24.7300  -11.4690   20.7520 C   0  0  0  0  0  0  0  0  0  0  0  0
  -26.3920  -12.6940   20.1680 N   0  0  0  0  0  0  0  0  0  0  0  0
  -25.9950  -11.4080   20.3570 N   0  0  0  0  0  0  0  0  0  0  0  0
  -23.9710  -10.2210   20.9040 C   0  0  0  0  0  0  0  0  0  0  0  0
  -24.3170   -9.2620   21.8800 C   0  0  0  0  0  3  0  0  0  0  0  0
  -23.5630   -8.0770   22.0190 C   0  0  0  0  0  3  0  0  0  0  0  0
  -22.4490   -7.8430   21.1780 C   0  0  0  0  0  0  0  0  0  0  0  0
  -22.1220   -8.7910   20.1930 C   0  0  0  0  0  3  0  0  0  0  0  0
  -22.8770   -9.9680   20.0510 C   0  0  0  0  0  3  0  0  0  0  0  0
  -21.6740   -6.7090   21.2220 O   0  0  0  0  0  0  0  0  0  0  0  0
  -21.3330   -6.1170   22.4100 C   0  0  0  0  0  0  0  0  0  0  0  0
  -20.5430   -6.7770   23.3750 C   0  0  0  0  0  3  0  0  0  0  0  0
  -20.1580   -6.1060   24.5530 C   0  0  0  0  0  3  0  0  0  0  0  0
  -20.5530   -4.7720   24.7630 C   0  0  0  0  0  0  0  0  0  0  0  0
  -21.3350   -4.1090   23.8000 C   0  0  0  0  0  3  0  0  0  0  0  0
  -21.7220   -4.7780   22.6270 C   0  0  0  0  0  0  0  0  0  0  0  0
  -22.4580   -4.1290   21.6940 F   0  0  0  0  0  0  0  0  0  0  0  0
  -20.1760   -4.1210   25.8880 F   0  0  0  0  0  0  0  0  0  0  0  0
  -22.9660  -13.3330   21.3040 C   0  0  0  0  0  0  0  0  0  0  0  0
  -22.2720  -12.6060   22.1720 N   0  0  0  0  0  0  0  0  0  0  0  0
  -22.5320  -14.4030   20.8790 O   0  0  0  0  0  0  0  0  0  0  0  0
  -22.6370  -11.7400   22.5400 H   0  0  0  0  0  0  0  0  0  0  0  0
  -21.3620  -12.9230   22.4750 H   0  0  0  0  0  0  0  0  0  0  0  0
  -25.6000  -14.9640   20.4400 N   0  0  0  0  0  0  0  0  0  0  0  0
  -24.8630  -15.6270   20.6480 H   0  0  0  0  0  0  0  0  0  0  0  0
  -26.4480  -15.4020   20.1060 H   0  0  0  0  0  0  0  0  0  0  0  0
  -31.9330  -19.5330   18.3150 C   0  0  1  0  0  0  0  0  0  0  0  0
  -32.5230  -18.6180   17.5460 F   0  0  0  0  0  0  0  0  0  0  0  0
  -31.1650  -20.2960   17.5390 F   0  0  0  0  0  0  0  0  0  0  0  0
  -32.8900  -20.2990   18.8450 F   0  0  0  0  0  0  0  0  0  0  0  0
  -31.4020  -23.9550   20.0840 C   0  0  0  0  0  2  0  0  0  0  0  0
  -31.0390  -26.1990   20.8630 C   0  0  0  0  0  1  0  0  0  0  0  0
  -30.4780  -25.0980   20.0720 N   0  0  0  0  0  0  0  0  0  0  0  0
  -30.1720  -25.6260   18.7340 C   0  0  0  0  0  2  0  0  0  0  0  0
  -28.6970  -25.4210   18.2940 C   0  0  0  0  0  3  0  0  0  0  0  0
  -28.5860  -24.4240   17.2060 N   0  0  0  0  0  4  0  0  0  0  0  0
  -29.0680  -24.7290   16.3780 H   0  0  0  0  0  0  0  0  0  0  0  0
  -27.6160  -24.3050   16.9650 H   0  0  0  0  0  0  0  0  0  0  0  0
  -28.9530  -23.5290   17.4740 H   0  0  0  0  0  0  0  0  0  0  0  0
  -28.0410  -26.7460   17.8570 C   0  0  0  0  0  2  0  0  0  0  0  0
  -26.6310  -26.5340   17.7520 O   0  0  0  0  0  0  0  0  0  0  0  0
  -25.0540  -30.8610   23.2160 C   0  0  0  0  0  0  0  0  0  0  0  0
  -25.7850  -27.4540   18.3340 C   0  0  0  0  0  0  0  0  0  0  0  0
  -23.2300  -30.4490   21.5920 C   0  0  0  0  0  3  0  0  0  0  0  0
  -23.9170  -29.2760   19.4340 C   0  0  0  0  0  0  0  0  0  0  0  0
  -25.6730  -30.3450   20.8620 C   0  0  0  0  0  2  0  0  0  0  0  0
  -25.2580  -29.3160   19.8350 C   0  0  0  0  0  0  0  0  0  0  0  0
  -26.1940  -28.4170   19.2880 C   0  0  0  0  0  3  0  0  0  0  0  0
  -24.4300  -27.4250   17.9390 C   0  0  0  0  0  3  0  0  0  0  0  0
  -23.4940  -28.3280   18.4850 C   0  0  0  0  0  3  0  0  0  0  0  0
  -22.9900  -30.2900   20.0650 C   0  0  0  0  0  2  0  0  0  0  0  0
  -24.6830  -30.5390   21.9450 N   0  0  0  0  0  0  0  0  0  0  0  0
  -24.2070  -31.1300   24.0800 O   0  0  0  0  0  0  0  0  0  0  0  0
  -22.4910  -29.3050   22.3230 C   0  0  0  0  0  0  0  0  0  0  0  0
  -21.1500  -29.3360   22.2770 N   0  0  0  0  0  0  0  0  0  0  0  0
  -23.1210  -28.4060   22.8870 O   0  0  0  0  0  0  0  0  0  0  0  0
  -20.7120  -30.1110   21.8010 H   0  0  0  0  0  0  0  0  0  0  0  0
  -17.6800  -28.3690   22.5400 C   0  0  0  0  0  0  0  0  0  0  0  0
  -20.2450  -28.3440   22.8590 C   0  0  0  0  0  3  0  0  0  0  0  0
  -20.2340  -27.0440   22.0230 C   0  0  0  0  0  2  0  0  0  0  0  0
  -19.1260  -27.0150   20.9650 C   0  0  0  0  0  2  0  0  0  0  0  0
  -17.7520  -27.1600   21.6240 C   0  0  0  0  0  2  0  0  0  0  0  0
  -18.8530  -28.9360   23.1060 C   0  0  0  0  0  0  0  0  0  0  0  0
  -18.7350  -30.0830   23.9200 C   0  0  0  0  0  3  0  0  0  0  0  0
  -17.4760  -30.6590   24.1750 C   0  0  0  0  0  3  0  0  0  0  0  0
  -16.3160  -30.0830   23.6280 C   0  0  0  0  0  3  0  0  0  0  0  0
  -16.4200  -28.9400   22.8150 C   0  0  0  0  0  3  0  0  0  0  0  0
  -26.5550  -30.9340   23.6390 C   0  0  0  0  0  3  0  0  0  0  0  0
  -27.0630  -29.6240   24.3580 C   0  0  1  0  0  0  0  0  0  0  0  0
  -26.1720  -29.1790   25.5410 C   0  0  0  0  0  1  0  0  0  0  0  0
  -27.1390  -28.4500   23.3550 C   0  0  0  0  0  1  0  0  0  0  0  0
  -28.4960  -29.8420   24.8970 C   0  0  0  0  0  1  0  0  0  0  0  0
  -26.7140  -32.1020   24.5130 N   0  0  0  0  0  0  0  0  0  0  0  0
  -27.4190  -33.1970   24.1960 C   0  0  0  0  0  0  0  0  0  0  0  0
  -28.0710  -33.2970   23.1540 O   0  0  0  0  0  0  0  0  0  0  0  0
  -26.1680  -32.1090   25.3620 H   0  0  0  0  0  0  0  0  0  0  0  0
  -26.4770  -35.4780   24.6630 C   0  0  0  0  0  1  0  0  0  0  0  0
  -27.3950  -34.3680   25.1960 C   0  0  0  0  0  3  0  0  0  0  0  0
  -29.5850  -34.0140   26.2480 C   0  0  0  0  0  1  0  0  0  0  0  0
  -28.7350  -34.9250   25.4870 N   0  0  0  0  0  0  0  0  0  0  0  0
  -28.6570  -35.7960   26.0050 H   0  0  0  0  0  0  0  0  0  0  0  0
  3  1  1  0
  3  2  1  0
  3  4  1  6
  5  3  1  0
  6  7  1  0
  8 11  1  0
  9  5  1  0
  9  6  2  0
 10  8  2  0
 10  9  1  0
 11 20  1  0
 11  7  2  0
 12 18  1  0
 12 20  1  0
 13 18  1  0
 14 15  1  0
 14 13  1  0
 16 15  1  0
 16 25  1  0
 16 17  1  0
 18 17  1  0
 19 12  2  0
 20 21  1  0
 22 23  2  0
 23 42  1  0
 24 27  1  0
 24 23  1  0
 25 26  1  0
 25 22  1  0
 26 24  2  0
 27 28  1  0
 28 29  2  0
 30 33  1  0
 30 29  1  0
 31 30  2  0
 32 31  1  0
 32 27  2  0
 33 34  1  0
 34 39  2  0
 34 35  1  0
 35 36  2  0
 36 37  1  0
 37 41  1  0
 38 37  2  0
 39 38  1  0
 40 39  1  0
 42 43  1  0
 43 46  1  0
 43 45  1  0
 44 42  2  0
 47 22  1  0
 47 48  1  0
 49 47  1  0
 50 53  1  1
 50 10  1  0
 51 50  1  0
 52 50  1  0
 54  1  1  0
 56 54  1  0
 56 55  1  0
 57 56  1  0
 58 63  1  0
 58 57  1  0
 59 62  1  0
 59 58  1  0
 60 59  1  0
 61 59  1  0
 64 63  1  0
 64 66  1  0
 65 76  2  0
 66 71  1  0
 67 75  1  0
 67 77  1  0
 68 70  1  0
 68 74  1  0
 69 75  1  0
 70 69  1  0
 71 70  2  0
 72 66  2  0
 72 73  1  0
 73 68  2  0
 74 67  1  0
 75 65  1  0
 77 79  2  0
 78 77  1  0
 80 78  1  0
 81 90  2  0
 81 86  1  0
 82 78  1  0
 82 86  1  0
 83 82  1  0
 84 85  1  0
 84 83  1  0
 85 81  1  0
 86 87  2  0
 87 88  1  0
 89 88  2  0
 90 89  1  0
 91 65  1  0
 91 92  1  0
 91 96  1  0
 92 95  1  1
 92 93  1  0
 94 92  1  0
 96 99  1  0
 97 96  1  0
 97101  1  0
 98 97  2  0
101100  1  0
101103  1  0
103104  1  0
103102  1  0
M  ISO  4  12 100  20 100  63 101  64 101
M  END
>  <TORSDO>  (84) 
F 26

>  <SCORE>  (84) 
-9.345

>  <name>  (84) 
83

>  <ligand_id>  (84) 
83

>  <original_smiles>  (84) 
[H]c1c([H])c([H])c2c(c1[H])C([H])([H])C([H])([H])C([H])([H])C2([H])N([H])C(=O)C1([H])N(C(=O)C([H])(N([H])C(=O)C([H])(N([H])C([H])([H])[H])C([H])([H])[H])C(C([H])([H])[H])(C([H])([H])[H])C([H])([H])[H])C([H])([H])c2c([H])c(OC([H])([H])C([H])(C([H])([H])N(C([H])([H])[H])C([H])([H])C([H])([H])[N+]([H])(C([H])([H])[H])C([H])([H])c3c([H])c([H])c(N([H])C(=O)N4C([H])([H])C([H])([H])C([H])([H])C([H])(n5nc(-c6c([H])c([H])c(Oc7c([H])c([H])c(F)c([H])c7F)c([H])c6[H])c(C(=O)N([H])[H])c5N([H])[H])C4([H])[H])c([H])c3C(F)(F)F)[N+]([H])([H])[H])c([H])c([H])c2C1([H])[H]

>  <smiles>  (84) 
[H]c1c([H])c([H])c2c(c1[H])C([H])([H])C([H])([H])C([H])([H])C2([H])N([H])C(=O)C1([H])N(C(=O)C([H])(N([H])C(=O)C([H])(N([H])C([H])([H])[H])C([H])([H])[H])C(C([H])([H])[H])(C([H])([H])[H])C([H])([H])[H])C([H])([H])c2c([H])c(OC([H])([H])C([H])(C([H])([H])N(C([H])([H])[H])C([H])([H])C([H])([H])[N+]([H])(C([H])([H])[H])C([H])([H])c3c([H])c([H])c(N([H])C(=O)N4C([H])([H])C([H])([H])C([H])([H])C([H])(n5nc(-c6c([H])c([H])c(Oc7c([H])c([H])c(F)c([H])c7F)c([H])c6[H])c(C(=O)N([H])[H])c5N([H])[H])C4([H])[H])c([H])c3C(F)(F)F)[N+]([H])([H])[H])c([H])c([H])c2C1([H])[H]

$$$$
84:0:0
     RDKit          3D

 94103  0  0  1  0  0  0  0  0999 V2000
  -31.3790  -21.9600   20.1060 C   0  0  0  0  0  2  0  0  0  0  0  0
  -30.8690  -22.7440   21.3190 C   0  0  0  0  0  2  0  0  0  0  0  0
  -29.9040  -21.8160   19.7190 C   0  0  0  0  0  3  0  0  0  0  0  0
  -29.6350  -23.0250   20.5580 N   0  0  2  0  0  4  0  0  0  0  0  0
  -28.8150  -22.8300   21.1170 H   0  0  0  0  0  0  0  0  0  0  0  0
  -29.3050  -20.4630   20.2480 C   0  0  0  0  0  0  0  0  0  0  0  0
  -30.0730  -19.3840   18.2070 C   0  0  0  0  0  1  0  0  0  0  0  0
  -29.6400  -19.2910   19.6150 N   0  0  0  0  0  0  0  0  0  0  0  0
  -28.5930  -20.4970   21.2570 O   0  0  0  0  0  0  0  0  0  0  0  0
  -30.9190  -14.4810   20.0750 C   0  0  0  0  0  0  0  0  0  0  0  0
  -30.5520  -12.3360   18.9100 C   0  0  0  0  0  2  0  0  0  0  0  0
  -29.5480  -12.5950   17.7660 C   0  0  0  0  0  2  0  0  0  0  0  0
  -28.0950  -12.4730   18.2720 C   0  0  0  0  0  2  0  0  0  0  0  0
  -27.8470  -13.2330   19.6040 C   0  0  0  0  0  3  0  0  0  0  0  0
  -28.9710  -12.9560   20.6270 C   0  0  0  0  0  2  0  0  0  0  0  0
  -30.2480  -13.2980   19.9820 N   0  0  0  0  0  0  0  0  0  0  0  0
  -32.0440  -14.6230   19.5760 O   0  0  0  0  0  0  0  0  0  0  0  0
  -29.6750  -17.6170   21.5950 C   0  0  0  0  0  2  0  0  0  0  0  0
  -29.9100  -16.0920   21.6980 C   0  0  0  0  0  2  0  0  0  0  0  0
  -30.1360  -16.7490   19.4400 C   0  0  0  0  0  2  0  0  0  0  0  0
  -29.3440  -17.9040   20.1180 C   0  0  0  0  0  3  0  0  0  0  0  0
  -30.1590  -15.5830   20.3440 N   0  0  0  0  0  0  0  0  0  0  0  0
  -25.5060  -13.8250   20.4840 C   0  0  0  0  0  0  0  0  0  0  0  0
  -24.4540  -13.0490   20.8880 C   0  0  0  0  0  0  0  0  0  0  0  0
  -24.8940  -11.6960   20.7720 C   0  0  0  0  0  0  0  0  0  0  0  0
  -26.5230  -12.9460   20.1520 N   0  0  0  0  0  0  0  0  0  0  0  0
  -26.1620  -11.6560   20.3800 N   0  0  0  0  0  0  0  0  0  0  0  0
  -24.1660  -10.4340   20.9630 C   0  0  0  0  0  0  0  0  0  0  0  0
  -24.5830   -9.4700   21.9080 C   0  0  0  0  0  3  0  0  0  0  0  0
  -23.8530   -8.2730   22.0820 C   0  0  0  0  0  3  0  0  0  0  0  0
  -22.6890   -8.0340   21.3090 C   0  0  0  0  0  0  0  0  0  0  0  0
  -22.2920   -8.9880   20.3550 C   0  0  0  0  0  3  0  0  0  0  0  0
  -23.0250  -10.1730   20.1810 C   0  0  0  0  0  3  0  0  0  0  0  0
  -21.9310   -6.8920   21.3940 O   0  0  0  0  0  0  0  0  0  0  0  0
  -21.7850   -6.2070   22.5740 C   0  0  0  0  0  0  0  0  0  0  0  0
  -21.2470   -6.8160   23.7270 C   0  0  0  0  0  3  0  0  0  0  0  0
  -21.0500   -6.0570   24.8970 C   0  0  0  0  0  3  0  0  0  0  0  0
  -21.3840   -4.6900   24.9160 C   0  0  0  0  0  0  0  0  0  0  0  0
  -21.9170   -4.0800   23.7660 C   0  0  0  0  0  3  0  0  0  0  0  0
  -22.1130   -4.8360   22.5960 C   0  0  0  0  0  0  0  0  0  0  0  0
  -22.6080   -4.2400   21.4870 F   0  0  0  0  0  0  0  0  0  0  0  0
  -21.1900   -3.9570   26.0370 F   0  0  0  0  0  0  0  0  0  0  0  0
  -23.0830  -13.5300   21.2730 C   0  0  0  0  0  0  0  0  0  0  0  0
  -22.4060  -12.8160   22.1630 N   0  0  0  0  0  0  0  0  0  0  0  0
  -22.6260  -14.5770   20.8190 O   0  0  0  0  0  0  0  0  0  0  0  0
  -22.7920  -11.9700   22.5580 H   0  0  0  0  0  0  0  0  0  0  0  0
  -21.4890  -13.1190   22.4600 H   0  0  0  0  0  0  0  0  0  0  0  0
  -25.6680  -15.2020   20.3580 N   0  0  0  0  0  0  0  0  0  0  0  0
  -24.8960  -15.8350   20.5440 H   0  0  0  0  0  0  0  0  0  0  0  0
  -26.5000  -15.6690   20.0240 H   0  0  0  0  0  0  0  0  0  0  0  0
  -30.8060  -25.2600   19.9210 C   0  0  0  0  0  1  0  0  0  0  0  0
  -29.5270  -24.3780   19.8560 C   0  0  0  0  0  3  0  0  0  0  0  0
  -28.3110  -25.2160   20.3660 C   0  0  0  0  0  2  0  0  0  0  0  0
  -28.3980  -26.6090   19.9590 O   0  0  0  0  0  0  0  0  0  0  0  0
  -24.6280  -31.7980   23.1030 C   0  0  0  0  0  0  0  0  0  0  0  0
  -27.2380  -27.3600   19.9770 C   0  0  0  0  0  0  0  0  0  0  0  0
  -23.4180  -30.4220   21.4480 C   0  0  0  0  0  3  0  0  0  0  0  0
  -24.8610  -28.8990   19.9970 C   0  0  0  0  0  0  0  0  0  0  0  0
  -25.9480  -30.7690   21.2510 C   0  0  0  0  0  2  0  0  0  0  0  0
  -26.0240  -29.4050   20.5940 C   0  0  0  0  0  0  0  0  0  0  0  0
  -27.2170  -28.6420   20.5770 C   0  0  0  0  0  3  0  0  0  0  0  0
  -26.0610  -26.8810   19.3620 C   0  0  0  0  0  3  0  0  0  0  0  0
  -24.8770  -27.6380   19.3800 C   0  0  0  0  0  3  0  0  0  0  0  0
  -23.6220  -29.7650   20.0580 C   0  0  0  0  0  2  0  0  0  0  0  0
  -24.6860  -31.0110   21.9940 N   0  0  0  0  0  0  0  0  0  0  0  0
  -23.5450  -32.0680   23.6450 O   0  0  0  0  0  0  0  0  0  0  0  0
  -22.7630  -29.3880   22.3950 C   0  0  0  0  0  0  0  0  0  0  0  0
  -21.4310  -29.2350   22.2870 N   0  0  0  0  0  0  0  0  0  0  0  0
  -23.4490  -28.7310   23.1810 O   0  0  0  0  0  0  0  0  0  0  0  0
  -20.9380  -29.8170   21.6250 H   0  0  0  0  0  0  0  0  0  0  0  0
  -18.0410  -28.1180   22.8450 C   0  0  0  0  0  0  0  0  0  0  0  0
  -20.6130  -28.2920   23.0480 C   0  0  0  0  0  3  0  0  0  0  0  0
  -20.6560  -26.8800   22.4200 C   0  0  0  0  0  2  0  0  0  0  0  0
  -19.5150  -26.6260   21.4290 C   0  0  0  0  0  2  0  0  0  0  0  0
  -18.1580  -26.7880   22.1190 C   0  0  0  0  0  2  0  0  0  0  0  0
  -19.1940  -28.8310   23.2680 C   0  0  0  0  0  0  0  0  0  0  0  0
  -19.0300  -30.0800   23.9080 C   0  0  0  0  0  3  0  0  0  0  0  0
  -17.7460  -30.6130   24.1290 C   0  0  0  0  0  3  0  0  0  0  0  0
  -16.6080  -29.8940   23.7220 C   0  0  0  0  0  3  0  0  0  0  0  0
  -16.7570  -28.6490   23.0860 C   0  0  0  0  0  3  0  0  0  0  0  0
  -25.9130  -32.4200   23.7320 C   0  0  0  0  0  3  0  0  0  0  0  0
  -26.4430  -31.6190   24.9850 C   0  0  1  0  0  0  0  0  0  0  0  0
  -25.3610  -31.3480   26.0560 C   0  0  0  0  0  1  0  0  0  0  0  0
  -27.0290  -30.2560   24.5490 C   0  0  0  0  0  1  0  0  0  0  0  0
  -27.5970  -32.4010   25.6550 C   0  0  0  0  0  1  0  0  0  0  0  0
  -25.6010  -33.8080   24.0990 N   0  0  0  0  0  0  0  0  0  0  0  0
  -25.9260  -34.8800   23.3640 C   0  0  0  0  0  0  0  0  0  0  0  0
  -26.5930  -34.8040   22.3280 O   0  0  0  0  0  0  0  0  0  0  0  0
  -25.0090  -33.9410   24.9060 H   0  0  0  0  0  0  0  0  0  0  0  0
  -24.1940  -36.6750   23.0560 C   0  0  0  0  0  1  0  0  0  0  0  0
  -25.4360  -36.2540   23.8570 C   0  0  0  0  0  3  0  0  0  0  0  0
  -27.5660  -37.1230   24.7130 C   0  0  0  0  0  1  0  0  0  0  0  0
  -26.4670  -37.3120   23.7720 N   0  0  0  0  0  0  0  0  0  0  0  0
  -26.0580  -38.2270   23.9410 H   0  0  0  0  0  0  0  0  0  0  0  0
  1  2  1  0
  3  1  1  0
  3  6  1  0
  3  4  1  0
  4  5  1  1
  4  2  1  0
  6  9  2  0
  7  8  1  0
  8  6  1  0
 10 22  1  0
 11 16  1  0
 12 13  1  0
 12 11  1  0
 14 13  1  0
 14 26  1  0
 14 15  1  0
 16 10  1  0
 16 15  1  0
 17 10  2  0
 18 19  1  0
 20 21  1  0
 20 22  1  0
 21  8  1  0
 21 18  1  0
 22 19  1  0
 23 24  2  0
 24 43  1  0
 25 24  1  0
 25 28  1  0
 26 27  1  0
 26 23  1  0
 27 25  2  0
 28 29  1  0
 29 30  2  0
 31 34  1  0
 31 30  1  0
 32 31  2  0
 33 32  1  0
 33 28  2  0
 34 35  1  0
 35 40  2  0
 35 36  1  0
 36 37  2  0
 37 38  1  0
 38 42  1  0
 39 38  2  0
 40 39  1  0
 41 40  1  0
 43 44  1  0
 44 47  1  0
 44 46  1  0
 45 43  2  0
 48 23  1  0
 48 49  1  0
 50 48  1  0
 52 51  1  0
 52 53  1  0
 52  4  1  0
 54 56  1  0
 54 53  1  0
 55 66  2  0
 56 61  1  0
 57 65  1  0
 57 67  1  0
 58 64  1  0
 58 60  1  0
 59 65  1  0
 60 59  1  0
 61 60  2  0
 62 63  1  0
 62 56  2  0
 63 58  2  0
 64 57  1  0
 65 55  1  0
 67 69  2  0
 68 67  1  0
 70 68  1  0
 71 80  2  0
 71 76  1  0
 72 68  1  0
 72 76  1  0
 73 72  1  0
 74 75  1  0
 74 73  1  0
 75 71  1  0
 76 77  2  0
 77 78  1  0
 79 78  2  0
 80 79  1  0
 81 55  1  0
 81 86  1  0
 81 82  1  0
 82 85  1  1
 82 83  1  0
 84 82  1  0
 86 89  1  0
 87 91  1  0
 87 86  1  0
 88 87  2  0
 91 90  1  0
 93 91  1  0
 93 94  1  0
 93 92  1  0
M  ISO  4  10 100  22 100  53 101  54 101
M  END
>  <TORSDO>  (85) 
F 19

>  <SCORE>  (85) 
-13.818

>  <name>  (85) 
84

>  <ligand_id>  (85) 
84

>  <original_smiles>  (85) 
[H]c1c([H])c([H])c2c(c1[H])C([H])([H])C([H])([H])C([H])([H])C2([H])N([H])C(=O)C1([H])N(C(=O)C([H])(N([H])C(=O)C([H])(N([H])C([H])([H])[H])C([H])([H])[H])C(C([H])([H])[H])(C([H])([H])[H])C([H])([H])[H])C([H])([H])c2c([H])c(OC([H])([H])C([H])(C([H])([H])[H])[N+]3([H])C([H])([H])C([H])([H])C3([H])C(=O)N(C([H])([H])[H])C3([H])C([H])([H])N(C(=O)N4C([H])([H])C([H])([H])C([H])([H])C([H])(n5nc(-c6c([H])c([H])c(Oc7c([H])c([H])c(F)c([H])c7F)c([H])c6[H])c(C(=O)N([H])[H])c5N([H])[H])C4([H])[H])C([H])([H])C3([H])[H])c([H])c([H])c2C1([H])[H]

>  <smiles>  (85) 
[H]c1c([H])c([H])c2c(c1[H])C([H])([H])C([H])([H])C([H])([H])C2([H])N([H])C(=O)C1([H])N(C(=O)C([H])(N([H])C(=O)C([H])(N([H])C([H])([H])[H])C([H])([H])[H])C(C([H])([H])[H])(C([H])([H])[H])C([H])([H])[H])C([H])([H])c2c([H])c(OC([H])([H])C([H])(C([H])([H])[H])[N+]3([H])C([H])([H])C([H])([H])C3([H])C(=O)N(C([H])([H])[H])C3([H])C([H])([H])N(C(=O)N4C([H])([H])C([H])([H])C([H])([H])C([H])(n5nc(-c6c([H])c([H])c(Oc7c([H])c([H])c(F)c([H])c7F)c([H])c6[H])c(C(=O)N([H])[H])c5N([H])[H])C4([H])[H])C([H])([H])C3([H])[H])c([H])c([H])c2C1([H])[H]

$$$$
85:0:0
     RDKit          3D

 94102  0  0  1  0  0  0  0  0999 V2000
  -29.1900  -17.8830   18.7530 C   0  0  0  0  0  3  0  0  0  0  0  0
  -28.6980  -20.3260   18.7810 C   0  0  0  0  0  3  0  0  0  0  0  0
  -29.6010  -19.2170   20.7340 C   0  0  0  0  0  3  0  0  0  0  0  0
  -28.7330  -19.0690   18.1190 C   0  0  0  0  0  0  0  0  0  0  0  0
  -29.6270  -17.8410   20.0940 C   0  0  0  0  0  0  0  0  0  0  0  0
  -29.1510  -20.5230   20.1020 C   0  0  0  0  0  0  0  0  0  0  0  0
  -30.5710  -15.2000   20.2610 C   0  0  0  0  0  0  0  0  0  0  0  0
  -30.4820  -12.8260   19.3140 C   0  0  0  0  0  2  0  0  0  0  0  0
  -29.5440  -12.7780   18.0820 C   0  0  0  0  0  2  0  0  0  0  0  0
  -28.0890  -12.5350   18.5200 C   0  0  0  0  0  2  0  0  0  0  0  0
  -27.6830  -13.4320   19.7170 C   0  0  0  0  0  3  0  0  0  0  0  0
  -28.7460  -13.4500   20.8380 C   0  0  0  0  0  2  0  0  0  0  0  0
  -30.0050  -13.9100   20.2370 N   0  0  0  0  0  0  0  0  0  0  0  0
  -31.7420  -15.2630   19.8650 O   0  0  0  0  0  0  0  0  0  0  0  0
  -29.8540  -16.3940   20.6640 N   0  0  0  0  0  0  0  0  0  0  0  0
  -29.1120  -16.1360   21.2980 H   0  0  0  0  0  0  0  0  0  0  0  0
  -25.3030  -13.9770   20.4730 C   0  0  0  0  0  0  0  0  0  0  0  0
  -24.2480  -13.1890   20.8440 C   0  0  0  0  0  0  0  0  0  0  0  0
  -24.7260  -11.8430   20.8040 C   0  0  0  0  0  0  0  0  0  0  0  0
  -26.3520  -13.1100   20.2200 N   0  0  0  0  0  0  0  0  0  0  0  0
  -26.0160  -11.8210   20.4870 N   0  0  0  0  0  0  0  0  0  0  0  0
  -24.0110  -10.5730   20.9930 C   0  0  0  0  0  0  0  0  0  0  0  0
  -24.4430   -9.6110   21.9330 C   0  0  0  0  0  3  0  0  0  0  0  0
  -23.7250   -8.4090   22.1090 C   0  0  0  0  0  3  0  0  0  0  0  0
  -22.5600   -8.1590   21.3460 C   0  0  0  0  0  0  0  0  0  0  0  0
  -22.1460   -9.1100   20.3960 C   0  0  0  0  0  3  0  0  0  0  0  0
  -22.8640  -10.3030   20.2170 C   0  0  0  0  0  3  0  0  0  0  0  0
  -21.8150   -7.0090   21.4320 O   0  0  0  0  0  0  0  0  0  0  0  0
  -21.7560   -6.2730   22.5890 C   0  0  0  0  0  0  0  0  0  0  0  0
  -21.2950   -6.8280   23.8030 C   0  0  0  0  0  3  0  0  0  0  0  0
  -21.1850   -6.0180   24.9500 C   0  0  0  0  0  3  0  0  0  0  0  0
  -21.5250   -4.6540   24.8860 C   0  0  0  0  0  0  0  0  0  0  0  0
  -21.9780   -4.0980   23.6770 C   0  0  0  0  0  3  0  0  0  0  0  0
  -22.0900   -4.9050   22.5300 C   0  0  0  0  0  0  0  0  0  0  0  0
  -22.5080   -4.3580   21.3630 F   0  0  0  0  0  0  0  0  0  0  0  0
  -21.4120   -3.8740   25.9860 F   0  0  0  0  0  0  0  0  0  0  0  0
  -22.8490  -13.6540   21.1220 C   0  0  0  0  0  0  0  0  0  0  0  0
  -22.1280  -12.9470   21.9840 N   0  0  0  0  0  0  0  0  0  0  0  0
  -22.4040  -14.6810   20.6100 O   0  0  0  0  0  0  0  0  0  0  0  0
  -22.5000  -12.1180   22.4220 H   0  0  0  0  0  0  0  0  0  0  0  0
  -21.1880  -13.2410   22.2110 H   0  0  0  0  0  0  0  0  0  0  0  0
  -25.4550  -15.3500   20.3020 N   0  0  0  0  0  0  0  0  0  0  0  0
  -24.6810  -15.9950   20.4250 H   0  0  0  0  0  0  0  0  0  0  0  0
  -26.2940  -15.7990   19.9590 H   0  0  0  0  0  0  0  0  0  0  0  0
  -28.2740  -19.0160   16.6660 C   0  0  1  0  0  0  0  0  0  0  0  0
  -28.1160  -17.7670   16.2280 F   0  0  0  0  0  0  0  0  0  0  0  0
  -27.1110  -19.6540   16.5300 F   0  0  0  0  0  0  0  0  0  0  0  0
  -29.1800  -19.6200   15.8970 F   0  0  0  0  0  0  0  0  0  0  0  0
  -28.3740  -23.1830   20.3860 C   0  0  0  0  0  0  0  0  0  0  0  0
  -30.5400  -22.3700   21.1660 C   0  0  0  0  0  1  0  0  0  0  0  0
  -29.2640  -22.0360   20.5420 N   0  0  0  0  0  0  0  0  0  0  0  0
  -27.1640  -22.9640   20.5100 O   0  0  0  0  0  0  0  0  0  0  0  0
  -28.7500  -24.7870   19.9450 C   0  0  0  0  0  2  0  0  0  0  0  0
  -28.4200  -26.1780   20.6500 O   0  0  0  0  0  0  0  0  0  0  0  0
  -24.6920  -32.0060   23.2690 C   0  0  0  0  0  0  0  0  0  0  0  0
  -27.3770  -27.1760   20.4230 C   0  0  0  0  0  0  0  0  0  0  0  0
  -23.5420  -30.5500   21.6440 C   0  0  0  0  0  3  0  0  0  0  0  0
  -25.0380  -28.9390   20.2840 C   0  0  0  0  0  0  0  0  0  0  0  0
  -26.0990  -30.8180   21.5320 C   0  0  0  0  0  2  0  0  0  0  0  0
  -26.1970  -29.4030   20.9160 C   0  0  0  0  0  0  0  0  0  0  0  0
  -27.3580  -28.5330   20.9740 C   0  0  0  0  0  3  0  0  0  0  0  0
  -26.1970  -26.8300   19.7330 C   0  0  0  0  0  3  0  0  0  0  0  0
  -25.0550  -27.6700   19.6760 C   0  0  0  0  0  3  0  0  0  0  0  0
  -23.8000  -29.8310   20.2890 C   0  0  0  0  0  2  0  0  0  0  0  0
  -24.7970  -31.1510   22.2020 N   0  0  0  0  0  0  0  0  0  0  0  0
  -23.5930  -32.2950   23.7650 O   0  0  0  0  0  0  0  0  0  0  0  0
  -22.8490  -29.5700   22.6240 C   0  0  0  0  0  0  0  0  0  0  0  0
  -21.5230  -29.3900   22.4830 N   0  0  0  0  0  0  0  0  0  0  0  0
  -23.5090  -28.9720   23.4780 O   0  0  0  0  0  0  0  0  0  0  0  0
  -21.0460  -29.9240   21.7700 H   0  0  0  0  0  0  0  0  0  0  0  0
  -18.1370  -28.2010   22.9890 C   0  0  0  0  0  0  0  0  0  0  0  0
  -20.6950  -28.4680   23.2660 C   0  0  0  0  0  3  0  0  0  0  0  0
  -20.7990  -27.0250   22.7170 C   0  0  0  0  0  2  0  0  0  0  0  0
  -19.7030  -26.6860   21.7010 C   0  0  0  0  0  2  0  0  0  0  0  0
  -18.3180  -26.8420   22.3340 C   0  0  0  0  0  2  0  0  0  0  0  0
  -19.2530  -28.9720   23.4110 C   0  0  0  0  0  0  0  0  0  0  0  0
  -19.0290  -30.2410   23.9860 C   0  0  0  0  0  3  0  0  0  0  0  0
  -17.7230  -30.7410   24.1410 C   0  0  0  0  0  3  0  0  0  0  0  0
  -16.6210  -29.9690   23.7320 C   0  0  0  0  0  3  0  0  0  0  0  0
  -16.8300  -28.7020   23.1620 C   0  0  0  0  0  3  0  0  0  0  0  0
  -25.9490  -32.6760   23.9050 C   0  0  0  0  0  3  0  0  0  0  0  0
  -26.4550  -31.9360   25.2050 C   0  0  1  0  0  0  0  0  0  0  0  0
  -25.3420  -31.6770   26.2480 C   0  0  0  0  0  1  0  0  0  0  0  0
  -27.0910  -30.5730   24.8520 C   0  0  0  0  0  1  0  0  0  0  0  0
  -27.5630  -32.7740   25.8880 C   0  0  0  0  0  1  0  0  0  0  0  0
  -25.6050  -34.0730   24.2170 N   0  0  0  0  0  0  0  0  0  0  0  0
  -25.9260  -35.1300   23.4580 C   0  0  0  0  0  0  0  0  0  0  0  0
  -26.6060  -35.0320   22.4330 O   0  0  0  0  0  0  0  0  0  0  0  0
  -25.0000  -34.2200   25.0110 H   0  0  0  0  0  0  0  0  0  0  0  0
  -24.1680  -36.8940   23.0870 C   0  0  0  0  0  1  0  0  0  0  0  0
  -25.4130  -36.5140   23.9040 C   0  0  0  0  0  3  0  0  0  0  0  0
  -27.5250  -37.4500   24.7400 C   0  0  0  0  0  1  0  0  0  0  0  0
  -26.4270  -37.5850   23.7860 N   0  0  0  0  0  0  0  0  0  0  0  0
  -26.0030  -38.4990   23.9190 H   0  0  0  0  0  0  0  0  0  0  0  0
  1  5  1  0
  2  6  2  0
  4  1  2  0
  4  2  1  0
  5 15  1  0
  5  3  2  0
  6 51  1  0
  6  3  1  0
  7 15  1  0
  8 13  1  0
  9 10  1  0
  9  8  1  0
 11 10  1  0
 11 20  1  0
 11 12  1  0
 13  7  1  0
 13 12  1  0
 14  7  2  0
 15 16  1  0
 17 18  2  0
 18 37  1  0
 19 18  1  0
 19 22  1  0
 20 17  1  0
 20 21  1  0
 21 19  2  0
 22 23  1  0
 23 24  2  0
 25 28  1  0
 25 24  1  0
 26 25  2  0
 27 26  1  0
 27 22  2  0
 28 29  1  0
 29 30  1  0
 30 31  2  0
 32 31  1  0
 32 36  1  0
 33 32  2  0
 34 29  2  0
 34 33  1  0
 35 34  1  0
 37 38  1  0
 38 41  1  0
 38 40  1  0
 39 37  2  0
 42 43  1  0
 42 17  1  0
 44 42  1  0
 45  4  1  0
 45 46  1  6
 47 45  1  0
 48 45  1  0
 49 52  2  0
 49 51  1  0
 51 50  1  0
 53 49  1  0
 53 54  1  0
 55 66  2  0
 56 54  1  0
 56 61  1  0
 57 65  1  0
 57 67  1  0
 58 64  1  0
 58 60  1  0
 59 65  1  0
 60 61  2  0
 60 59  1  0
 62 56  2  0
 63 62  1  0
 63 58  2  0
 64 57  1  0
 65 55  1  0
 67 69  2  0
 68 67  1  0
 70 68  1  0
 71 80  2  0
 71 76  1  0
 72 68  1  0
 72 76  1  0
 73 72  1  0
 74 75  1  0
 74 73  1  0
 75 71  1  0
 76 77  2  0
 77 78  1  0
 79 78  2  0
 80 79  1  0
 81 55  1  0
 81 86  1  0
 81 82  1  0
 82 85  1  1
 82 83  1  0
 84 82  1  0
 86 89  1  0
 87 91  1  0
 87 86  1  0
 88 87  2  0
 91 90  1  0
 93 91  1  0
 93 94  1  0
 93 92  1  0
M  ISO  4   7 100  15 100  53 101  54 101
M  END
>  <TORSDO>  (86) 
F 19

>  <SCORE>  (86) 
-14.961

>  <name>  (86) 
85

>  <ligand_id>  (86) 
85

>  <original_smiles>  (86) 
[H]c1c([H])c([H])c2c(c1[H])C([H])([H])C([H])([H])C([H])([H])C2([H])N([H])C(=O)C1([H])N(C(=O)C([H])(N([H])C(=O)C([H])(N([H])C([H])([H])[H])C([H])([H])[H])C(C([H])([H])[H])(C([H])([H])[H])C([H])([H])[H])C([H])([H])c2c([H])c(OC([H])([H])C(=O)N(c3c([H])c(N([H])C(=O)N4C([H])([H])C([H])([H])C([H])([H])C([H])(n5nc(-c6c([H])c([H])c(Oc7c([H])c([H])c(F)c([H])c7F)c([H])c6[H])c(C(=O)N([H])[H])c5N([H])[H])C4([H])[H])c([H])c(C(F)(F)F)c3[H])C([H])([H])[H])c([H])c([H])c2C1([H])[H]

>  <smiles>  (86) 
[H]c1c([H])c([H])c2c(c1[H])C([H])([H])C([H])([H])C([H])([H])C2([H])N([H])C(=O)C1([H])N(C(=O)C([H])(N([H])C(=O)C([H])(N([H])C([H])([H])[H])C([H])([H])[H])C(C([H])([H])[H])(C([H])([H])[H])C([H])([H])[H])C([H])([H])c2c([H])c(OC([H])([H])C(=O)N(c3c([H])c(N([H])C(=O)N4C([H])([H])C([H])([H])C([H])([H])C([H])(n5nc(-c6c([H])c([H])c(Oc7c([H])c([H])c(F)c([H])c7F)c([H])c6[H])c(C(=O)N([H])[H])c5N([H])[H])C4([H])[H])c([H])c(C(F)(F)F)c3[H])C([H])([H])[H])c([H])c([H])c2C1([H])[H]

$$$$
86:0:0
     RDKit          3D

101110  0  0  1  0  0  0  0  0999 V2000
  -32.0440  -21.5890   22.6280 C   0  0  0  0  0  2  0  0  0  0  0  0
  -30.6530  -19.7430   23.5220 C   0  0  0  0  0  2  0  0  0  0  0  0
  -30.8910  -22.5790   22.8850 C   0  0  0  0  0  2  0  0  0  0  0  0
  -29.5020  -20.7330   23.7740 C   0  0  0  0  0  2  0  0  0  0  0  0
  -31.5210  -20.2380   22.4600 N   0  0  0  0  0  0  0  0  0  0  0  0
  -29.9860  -22.1280   23.9820 N   0  0  2  0  0  4  0  0  0  0  0  0
  -30.5490  -22.0880   24.8190 H   0  0  0  0  0  0  0  0  0  0  0  0
  -34.1730  -18.6210   20.3710 C   0  0  0  0  0  3  0  0  0  0  0  0
  -33.5050  -19.5780   21.1590 C   0  0  0  0  0  3  0  0  0  0  0  0
  -33.5610  -17.3860   20.0870 C   0  0  0  0  0  3  0  0  0  0  0  0
  -31.6260  -18.0490   21.4110 C   0  0  0  0  0  3  0  0  0  0  0  0
  -32.2240  -19.2990   21.6870 C   0  0  0  0  0  0  0  0  0  0  0  0
  -32.2720  -17.1000   20.5960 C   0  0  0  0  0  0  0  0  0  0  0  0
  -31.9120  -14.9620   19.4050 C   0  0  0  0  0  0  0  0  0  0  0  0
  -31.5110  -12.6600   18.6210 C   0  0  0  0  0  2  0  0  0  0  0  0
  -30.4500  -12.5960   17.5100 C   0  0  0  0  0  2  0  0  0  0  0  0
  -29.0370  -12.4950   18.1150 C   0  0  0  0  0  2  0  0  0  0  0  0
  -28.7820  -13.5700   19.2030 C   0  0  0  0  0  3  0  0  0  0  0  0
  -29.9410  -13.6110   20.2240 C   0  0  0  0  0  2  0  0  0  0  0  0
  -31.2080  -13.8050   19.4900 N   0  0  0  0  0  0  0  0  0  0  0  0
  -32.7970  -15.1530   18.5650 O   0  0  0  0  0  0  0  0  0  0  0  0
  -31.6200  -15.8640   20.3520 N   0  0  0  0  0  0  0  0  0  0  0  0
  -30.8120  -15.6540   20.9190 H   0  0  0  0  0  0  0  0  0  0  0  0
  -26.6080  -14.2940   20.3800 C   0  0  0  0  0  0  0  0  0  0  0  0
  -25.5230  -13.5820   20.8160 C   0  0  0  0  0  0  0  0  0  0  0  0
  -25.8070  -12.2130   20.5240 C   0  0  0  0  0  0  0  0  0  0  0  0
  -27.4920  -13.3620   19.8600 N   0  0  0  0  0  0  0  0  0  0  0  0
  -27.0200  -12.0960   19.9980 N   0  0  0  0  0  0  0  0  0  0  0  0
  -24.9710  -11.0120   20.6630 C   0  0  0  0  0  0  0  0  0  0  0  0
  -25.3310   -9.9580   21.5300 C   0  0  0  0  0  3  0  0  0  0  0  0
  -24.5030   -8.8220   21.6590 C   0  0  0  0  0  3  0  0  0  0  0  0
  -23.2990   -8.7340   20.9190 C   0  0  0  0  0  0  0  0  0  0  0  0
  -22.9570   -9.7760   20.0390 C   0  0  0  0  0  3  0  0  0  0  0  0
  -23.7860  -10.9030   19.9080 C   0  0  0  0  0  3  0  0  0  0  0  0
  -22.4460   -7.6580   20.9600 O   0  0  0  0  0  0  0  0  0  0  0  0
  -22.1710   -7.0020   22.1330 C   0  0  0  0  0  0  0  0  0  0  0  0
  -21.6050   -7.6660   23.2430 C   0  0  0  0  0  3  0  0  0  0  0  0
  -21.2730   -6.9400   24.4040 C   0  0  0  0  0  3  0  0  0  0  0  0
  -21.4980   -5.5510   24.4550 C   0  0  0  0  0  0  0  0  0  0  0  0
  -22.0570   -4.8870   23.3490 C   0  0  0  0  0  3  0  0  0  0  0  0
  -22.3900   -5.6110   22.1900 C   0  0  0  0  0  0  0  0  0  0  0  0
  -22.9090   -4.9630   21.1190 F   0  0  0  0  0  0  0  0  0  0  0  0
  -21.1730   -4.8520   25.5670 F   0  0  0  0  0  0  0  0  0  0  0  0
  -24.2520  -14.1440   21.3850 C   0  0  0  0  0  0  0  0  0  0  0  0
  -23.6480  -13.4490   22.3430 N   0  0  0  0  0  0  0  0  0  0  0  0
  -23.8130  -15.2330   21.0170 O   0  0  0  0  0  0  0  0  0  0  0  0
  -24.0190  -12.5640   22.6590 H   0  0  0  0  0  0  0  0  0  0  0  0
  -22.8030  -13.8060   22.7650 H   0  0  0  0  0  0  0  0  0  0  0  0
  -26.9070  -15.6530   20.3660 N   0  0  0  0  0  0  0  0  0  0  0  0
  -26.2500  -16.3540   20.6920 H   0  0  0  0  0  0  0  0  0  0  0  0
  -27.7500  -16.0530   19.9730 H   0  0  0  0  0  0  0  0  0  0  0  0
  -28.8450  -23.0500   24.2640 C   0  0  0  0  0  2  0  0  0  0  0  0
  -30.5070  -24.8790   24.9870 C   0  0  0  0  0  1  0  0  0  0  0  0
  -29.1670  -24.5760   24.2880 C   0  0  0  0  0  3  0  0  0  0  0  0
  -29.0350  -25.3360   22.9400 C   0  0  0  0  0  2  0  0  0  0  0  0
  -26.7120  -26.2320   22.8240 C   0  0  0  0  0  1  0  0  0  0  0  0
  -27.6810  -25.2190   22.3310 N   0  0  1  0  0  4  0  0  0  0  0  0
  -27.3010  -24.3470   22.6710 H   0  0  0  0  0  0  0  0  0  0  0  0
  -27.6940  -25.0440   20.8490 C   0  0  0  0  0  2  0  0  0  0  0  0
  -28.4250  -26.1570   20.0540 C   0  0  0  0  0  2  0  0  0  0  0  0
  -27.6730  -26.5000   18.8890 O   0  0  0  0  0  0  0  0  0  0  0  0
  -24.7650  -31.2940   23.2540 C   0  0  0  0  0  0  0  0  0  0  0  0
  -26.6080  -27.3200   19.1560 C   0  0  0  0  0  0  0  0  0  0  0  0
  -23.2520  -30.3060   21.5620 C   0  0  0  0  0  3  0  0  0  0  0  0
  -24.3800  -28.9430   19.7270 C   0  0  0  0  0  0  0  0  0  0  0  0
  -25.7580  -30.5110   21.1090 C   0  0  0  0  0  2  0  0  0  0  0  0
  -25.6370  -29.2750   20.2450 C   0  0  0  0  0  0  0  0  0  0  0  0
  -26.7560  -28.4670   19.9640 C   0  0  0  0  0  3  0  0  0  0  0  0
  -25.3430  -27.0030   18.6230 C   0  0  0  0  0  3  0  0  0  0  0  0
  -24.2230  -27.8020   18.9180 C   0  0  0  0  0  3  0  0  0  0  0  0
  -23.2380  -29.8710   20.0730 C   0  0  0  0  0  2  0  0  0  0  0  0
  -24.6170  -30.7040   22.0330 N   0  0  0  0  0  0  0  0  0  0  0  0
  -23.7830  -31.5490   23.9650 O   0  0  0  0  0  0  0  0  0  0  0  0
  -22.6150  -29.1810   22.4100 C   0  0  0  0  0  0  0  0  0  0  0  0
  -21.2830  -29.0410   22.3120 N   0  0  0  0  0  0  0  0  0  0  0  0
  -23.3150  -28.4420   23.1080 O   0  0  0  0  0  0  0  0  0  0  0  0
  -20.7820  -29.6920   21.7240 H   0  0  0  0  0  0  0  0  0  0  0  0
  -17.9240  -27.7620   22.6500 C   0  0  0  0  0  0  0  0  0  0  0  0
  -20.4710  -28.0300   22.9880 C   0  0  0  0  0  3  0  0  0  0  0  0
  -20.6070  -26.6560   22.2930 C   0  0  0  0  0  2  0  0  0  0  0  0
  -19.5270  -26.4050   21.2380 C   0  0  0  0  0  2  0  0  0  0  0  0
  -18.1320  -26.4760   21.8680 C   0  0  0  0  0  2  0  0  0  0  0  0
  -19.0240  -28.5000   23.1620 C   0  0  0  0  0  0  0  0  0  0  0  0
  -18.7770  -29.7070   23.8500 C   0  0  0  0  0  3  0  0  0  0  0  0
  -17.4630  -30.1750   24.0350 C   0  0  0  0  0  3  0  0  0  0  0  0
  -16.3770  -29.4310   23.5410 C   0  0  0  0  0  3  0  0  0  0  0  0
  -16.6080  -28.2270   22.8530 C   0  0  0  0  0  3  0  0  0  0  0  0
  -26.1700  -31.6960   23.8030 C   0  0  0  0  0  3  0  0  0  0  0  0
  -26.0400  -33.0190   24.4260 N   0  0  0  0  0  0  0  0  0  0  0  0
  -26.4490  -34.1640   23.8640 C   0  0  0  0  0  0  0  0  0  0  0  0
  -27.0480  -34.2070   22.7860 O   0  0  0  0  0  0  0  0  0  0  0  0
  -25.5070  -33.0670   25.2830 H   0  0  0  0  0  0  0  0  0  0  0  0
  -24.9230  -36.1590   23.9840 C   0  0  0  0  0  1  0  0  0  0  0  0
  -26.1440  -35.4720   24.6190 C   0  0  0  0  0  3  0  0  0  0  0  0
  -28.3980  -35.9420   25.4670 C   0  0  0  0  0  1  0  0  0  0  0  0
  -27.2840  -36.4130   24.6480 N   0  0  0  0  0  0  0  0  0  0  0  0
  -26.9950  -37.3210   25.0020 H   0  0  0  0  0  0  0  0  0  0  0  0
  -26.7620  -30.6490   24.8270 C   0  0  1  0  0  0  0  0  0  0  0  0
  -25.7770  -30.2560   25.9540 C   0  0  0  0  0  1  0  0  0  0  0  0
  -27.1870  -29.3540   24.0960 C   0  0  0  0  0  1  0  0  0  0  0  0
  -28.0370  -31.2260   25.4860 C   0  0  0  0  0  1  0  0  0  0  0  0
  1  3  1  0
  2  4  1  0
  3  6  1  0
  4  6  1  0
  5  1  1  0
  5  2  1  0
  6 52  1  0
  6  7  1  1
  8  9  1  0
  9 12  2  0
 10  8  2  0
 10 13  1  0
 11 12  1  0
 12  5  1  0
 13 11  2  0
 14 20  1  0
 14 22  1  0
 15 20  1  0
 16 17  1  0
 16 15  1  0
 18 17  1  0
 18 27  1  0
 18 19  1  0
 20 19  1  0
 21 14  2  0
 22 13  1  0
 22 23  1  0
 24 25  2  0
 25 44  1  0
 26 29  1  0
 26 25  1  0
 27 28  1  0
 27 24  1  0
 28 26  2  0
 29 30  1  0
 30 31  2  0
 32 35  1  0
 32 31  1  0
 33 32  2  0
 34 33  1  0
 34 29  2  0
 35 36  1  0
 36 41  2  0
 36 37  1  0
 37 38  2  0
 38 39  1  0
 39 43  1  0
 40 39  2  0
 41 40  1  0
 42 41  1  0
 44 45  1  0
 45 47  1  0
 45 48  1  0
 46 44  2  0
 49 24  1  0
 49 50  1  0
 51 49  1  0
 52 54  1  0
 54 53  1  0
 55 54  1  0
 57 58  1  1
 57 56  1  0
 57 55  1  0
 59 57  1  0
 60 59  1  0
 61 63  1  0
 61 60  1  0
 62 73  2  0
 63 68  1  0
 64 72  1  0
 64 74  1  0
 65 71  1  0
 65 67  1  0
 66 72  1  0
 67 66  1  0
 68 67  2  0
 69 70  1  0
 69 63  2  0
 70 65  2  0
 71 64  1  0
 72 62  1  0
 74 76  2  0
 75 74  1  0
 77 75  1  0
 78 87  2  0
 78 83  1  0
 79 75  1  0
 79 83  1  0
 80 79  1  0
 81 82  1  0
 81 80  1  0
 82 78  1  0
 83 84  2  0
 84 85  1  0
 86 85  2  0
 87 86  1  0
 88 62  1  0
 88 89  1  0
 88 98  1  0
 89 92  1  0
 90 89  1  0
 90 94  1  0
 91 90  2  0
 94 93  1  0
 94 96  1  0
 96 97  1  0
 96 95  1  0
 98101  1  1
 98 99  1  0
100 98  1  0
M  ISO  4  14 100  22 100  60 101  61 101
M  END
>  <TORSDO>  (87) 
F 23

>  <SCORE>  (87) 
-3.638

>  <name>  (87) 
86

>  <ligand_id>  (87) 
86

>  <original_smiles>  (87) 
[H]c1c([H])c(N([H])C(=O)N2C([H])([H])C([H])([H])C([H])([H])C([H])(n3nc(-c4c([H])c([H])c(Oc5c([H])c([H])c(F)c([H])c5F)c([H])c4[H])c(C(=O)N([H])[H])c3N([H])[H])C2([H])[H])c([H])c(N2C([H])([H])C([H])([H])[N+]([H])(C([H])([H])C([H])(C([H])([H])[H])C([H])([H])[N+]([H])(C([H])([H])[H])C([H])([H])C([H])([H])Oc3c([H])c([H])c4c(c3[H])C([H])([H])N(C(=O)C([H])(N([H])C(=O)C([H])(N([H])C([H])([H])[H])C([H])([H])[H])C(C([H])([H])[H])(C([H])([H])[H])C([H])([H])[H])C([H])(C(=O)N([H])C3([H])c5c([H])c([H])c([H])c([H])c5C([H])([H])C([H])([H])C3([H])[H])C4([H])[H])C([H])([H])C2([H])[H])c1[H]

>  <smiles>  (87) 
[H]c1c([H])c(N([H])C(=O)N2C([H])([H])C([H])([H])C([H])([H])C([H])(n3nc(-c4c([H])c([H])c(Oc5c([H])c([H])c(F)c([H])c5F)c([H])c4[H])c(C(=O)N([H])[H])c3N([H])[H])C2([H])[H])c([H])c(N2C([H])([H])C([H])([H])[N+]([H])(C([H])([H])C([H])(C([H])([H])[H])C([H])([H])[N+]([H])(C([H])([H])[H])C([H])([H])C([H])([H])Oc3c([H])c([H])c4c(c3[H])C([H])([H])N(C(=O)C([H])(N([H])C(=O)C([H])(N([H])C([H])([H])[H])C([H])([H])[H])C(C([H])([H])[H])(C([H])([H])[H])C([H])([H])[H])C([H])(C(=O)N([H])C3([H])c5c([H])c([H])c([H])c([H])c5C([H])([H])C([H])([H])C3([H])[H])C4([H])[H])C([H])([H])C2([H])[H])c1[H]

$$$$
87:0:0
     RDKit          3D

104113  0  0  1  0  0  0  0  0999 V2000
  -30.5800  -17.8920   23.0420 C   0  0  0  0  0  3  0  0  0  0  0  0
  -30.6020  -16.5940   22.5260 C   0  0  0  0  0  3  0  0  0  0  0  0
  -30.2130  -17.5060   20.3000 C   0  0  0  0  0  3  0  0  0  0  0  0
  -30.3860  -19.0220   22.2140 C   0  0  0  0  0  0  0  0  0  0  0  0
  -30.2230  -18.8410   20.8040 C   0  0  0  0  0  0  0  0  0  0  0  0
  -30.3900  -16.3840   21.1590 C   0  0  0  0  0  0  0  0  0  0  0  0
  -31.0110  -14.0130   20.8990 C   0  0  0  0  0  0  0  0  0  0  0  0
  -30.9040  -11.5600   20.6420 C   0  0  0  0  0  2  0  0  0  0  0  0
  -30.1290  -11.2290   19.3510 C   0  0  0  0  0  2  0  0  0  0  0  0
  -28.6090  -11.1750   19.6220 C   0  0  0  0  0  2  0  0  0  0  0  0
  -28.0930  -12.4080   20.4100 C   0  0  0  0  0  3  0  0  0  0  0  0
  -28.9970  -12.6970   21.6310 C   0  0  0  0  0  2  0  0  0  0  0  0
  -30.3770  -12.8340   21.1380 N   0  0  0  0  0  0  0  0  0  0  0  0
  -32.2110  -14.0970   20.6280 O   0  0  0  0  0  0  0  0  0  0  0  0
  -30.1820  -15.0540   20.7130 N   0  0  0  0  0  0  0  0  0  0  0  0
  -29.2150  -14.7810   20.6540 H   0  0  0  0  0  0  0  0  0  0  0  0
  -25.7110  -13.2360   20.9340 C   0  0  0  0  0  0  0  0  0  0  0  0
  -24.5550  -12.5660   21.2320 C   0  0  0  0  0  0  0  0  0  0  0  0
  -24.8960  -11.1790   21.2510 C   0  0  0  0  0  0  0  0  0  0  0  0
  -26.6900  -12.2620   20.7930 N   0  0  0  0  0  0  0  0  0  0  0  0
  -26.1980  -11.0210   21.0410 N   0  0  0  0  0  0  0  0  0  0  0  0
  -24.0530   -9.9860   21.3990 C   0  0  0  0  0  0  0  0  0  0  0  0
  -24.4220   -8.9190   22.2490 C   0  0  0  0  0  3  0  0  0  0  0  0
  -23.5830   -7.7940   22.3910 C   0  0  0  0  0  3  0  0  0  0  0  0
  -22.3620   -7.7270   21.6820 C   0  0  0  0  0  0  0  0  0  0  0  0
  -22.0090   -8.7790   20.8210 C   0  0  0  0  0  3  0  0  0  0  0  0
  -22.8460   -9.8970   20.6750 C   0  0  0  0  0  3  0  0  0  0  0  0
  -21.4990   -6.6600   21.7370 O   0  0  0  0  0  0  0  0  0  0  0  0
  -21.4440   -5.8310   22.8290 C   0  0  0  0  0  0  0  0  0  0  0  0
  -21.1510   -6.3210   24.1200 C   0  0  0  0  0  3  0  0  0  0  0  0
  -21.0360   -5.4270   25.2040 C   0  0  0  0  0  3  0  0  0  0  0  0
  -21.2040   -4.0450   24.9970 C   0  0  0  0  0  0  0  0  0  0  0  0
  -21.4900   -3.5530   23.7110 C   0  0  0  0  0  3  0  0  0  0  0  0
  -21.6050   -4.4450   22.6290 C   0  0  0  0  0  0  0  0  0  0  0  0
  -21.8610   -3.9640   21.3890 F   0  0  0  0  0  0  0  0  0  0  0  0
  -21.0850   -3.1860   26.0370 F   0  0  0  0  0  0  0  0  0  0  0  0
  -23.1870  -13.1670   21.3900 C   0  0  0  0  0  0  0  0  0  0  0  0
  -22.3510  -12.5720   22.2350 N   0  0  0  0  0  0  0  0  0  0  0  0
  -22.8700  -14.1960   20.8000 O   0  0  0  0  0  0  0  0  0  0  0  0
  -22.6190  -11.7370   22.7340 H   0  0  0  0  0  0  0  0  0  0  0  0
  -21.4290  -12.9570   22.3800 H   0  0  0  0  0  0  0  0  0  0  0  0
  -26.0040  -14.5850   20.7520 N   0  0  0  0  0  0  0  0  0  0  0  0
  -25.2820  -15.2980   20.7990 H   0  0  0  0  0  0  0  0  0  0  0  0
  -26.9000  -14.9540   20.4650 H   0  0  0  0  0  0  0  0  0  0  0  0
  -31.3950  -20.2780   19.0250 C   0  0  0  0  0  2  0  0  0  0  0  0
  -28.8940  -20.0580   18.8800 C   0  0  0  0  0  2  0  0  0  0  0  0
  -31.3710  -21.6310   18.2580 C   0  0  0  0  0  2  0  0  0  0  0  0
  -29.0820  -20.9380   17.6060 C   0  0  0  0  0  2  0  0  0  0  0  0
  -30.1130  -20.0530   19.8350 C   0  0  0  0  0  3  0  0  0  0  0  0
  -30.0130  -22.0850   17.8190 N   0  0  2  0  0  4  0  0  0  0  0  0
  -29.6320  -22.5920   18.6080 H   0  0  0  0  0  0  0  0  0  0  0  0
  -30.0990  -23.0790   16.6880 C   0  0  0  0  0  2  0  0  0  0  0  0
  -28.8090  -23.8850   16.3700 C   0  0  0  0  0  2  0  0  0  0  0  0
  -28.9970  -25.3220   16.4620 O   0  0  0  0  0  0  0  0  0  0  0  0
  -25.6240  -28.6840   21.7770 C   0  0  0  0  0  0  0  0  0  0  0  0
  -27.9040  -26.0840   16.8440 C   0  0  0  0  0  0  0  0  0  0  0  0
  -24.3290  -28.3900   19.6980 C   0  0  0  0  0  3  0  0  0  0  0  0
  -25.6610  -27.6280   17.6600 C   0  0  0  0  0  0  0  0  0  0  0  0
  -26.8840  -28.5650   19.6230 C   0  0  0  0  0  2  0  0  0  0  0  0
  -26.8530  -27.6830   18.3930 C   0  0  0  0  0  0  0  0  0  0  0  0
  -27.9800  -26.9300   17.9770 C   0  0  0  0  0  3  0  0  0  0  0  0
  -26.6900  -26.0550   16.1160 C   0  0  0  0  0  3  0  0  0  0  0  0
  -25.5790  -26.8210   16.5140 C   0  0  0  0  0  3  0  0  0  0  0  0
  -24.5030  -28.4640   18.1570 C   0  0  0  0  0  2  0  0  0  0  0  0
  -25.6320  -28.5320   20.4220 N   0  0  0  0  0  0  0  0  0  0  0  0
  -24.5600  -28.7510   22.4120 O   0  0  0  0  0  0  0  0  0  0  0  0
  -23.5630  -27.0910   20.0500 C   0  0  0  0  0  0  0  0  0  0  0  0
  -22.2220  -27.1680   20.0570 N   0  0  0  0  0  0  0  0  0  0  0  0
  -24.1690  -26.0430   20.2820 O   0  0  0  0  0  0  0  0  0  0  0  0
  -21.7980  -28.0630   19.8650 H   0  0  0  0  0  0  0  0  0  0  0  0
  -18.7450  -26.3550   20.5930 C   0  0  0  0  0  0  0  0  0  0  0  0
  -21.2970  -26.0660   20.3210 C   0  0  0  0  0  3  0  0  0  0  0  0
  -20.9710  -25.2920   19.0220 C   0  0  0  0  0  2  0  0  0  0  0  0
  -19.7090  -25.8000   18.3210 C   0  0  0  0  0  2  0  0  0  0  0  0
  -18.4950  -25.6960   19.2480 C   0  0  0  0  0  2  0  0  0  0  0  0
  -20.0610  -26.5450   21.0890 C   0  0  0  0  0  0  0  0  0  0  0  0
  -20.2390  -27.1970   22.3280 C   0  0  0  0  0  3  0  0  0  0  0  0
  -19.1320  -27.6510   23.0690 C   0  0  0  0  0  3  0  0  0  0  0  0
  -17.8300  -27.4470   22.5820 C   0  0  0  0  0  3  0  0  0  0  0  0
  -17.6370  -26.7970   21.3490 C   0  0  0  0  0  3  0  0  0  0  0  0
  -26.9500  -28.8090   22.5930 C   0  0  0  0  0  3  0  0  0  0  0  0
  -26.7100  -29.7590   23.6890 N   0  0  0  0  0  0  0  0  0  0  0  0
  -27.1540  -31.0230   23.7090 C   0  0  0  0  0  0  0  0  0  0  0  0
  -27.8800  -31.4940   22.8290 O   0  0  0  0  0  0  0  0  0  0  0  0
  -26.0870  -29.4580   24.4240 H   0  0  0  0  0  0  0  0  0  0  0  0
  -25.5810  -32.8310   24.4640 C   0  0  0  0  0  1  0  0  0  0  0  0
  -26.7270  -31.9040   24.8960 C   0  0  0  0  0  3  0  0  0  0  0  0
  -28.8440  -31.9090   26.1410 C   0  0  0  0  0  1  0  0  0  0  0  0
  -27.8320  -32.7120   25.4580 N   0  0  0  0  0  0  0  0  0  0  0  0
  -27.4760  -33.4000   26.1160 H   0  0  0  0  0  0  0  0  0  0  0  0
  -27.4640  -27.4260   23.1580 C   0  0  1  0  0  0  0  0  0  0  0  0
  -26.3830  -26.6270   23.9240 C   0  0  0  0  0  1  0  0  0  0  0  0
  -27.9850  -26.5320   22.0090 C   0  0  0  0  0  1  0  0  0  0  0  0
  -28.6550  -27.6610   24.1170 C   0  0  0  0  0  1  0  0  0  0  0  0
  -30.2560  -20.3500   22.9130 C   0  0  0  0  0  0  0  0  0  0  0  0
  -31.9440  -20.4050   24.6580 C   0  0  0  0  0  1  0  0  0  0  0  0
  -30.5470  -20.3440   24.2260 N   0  0  0  0  0  0  0  0  0  0  0  0
  -29.7280  -21.3110   22.3530 O   0  0  0  0  0  0  0  0  0  0  0  0
  -29.4760  -20.5390   25.2110 C   0  0  0  0  0  2  0  0  0  0  0  0
  -29.2460  -19.2540   26.0430 C   0  0  0  0  0  2  0  0  0  0  0  0
  -28.0390  -18.3620   27.9760 C   0  0  0  0  0  1  0  0  0  0  0  0
  -27.1600  -20.3820   26.9150 C   0  0  0  0  0  1  0  0  0  0  0  0
  -27.9190  -19.1260   26.7130 N   0  0  1  0  0  4  0  0  0  0  0  0
  -27.3420  -18.5580   26.1070 H   0  0  0  0  0  0  0  0  0  0  0  0
  2  1  1  0
  3  5  2  0
  3  6  1  0
  4 95  1  0
  4  1  2  0
  5  4  1  0
  6  2  2  0
  7 13  1  0
  8 13  1  0
  9 10  1  0
  9  8  1  0
 11 10  1  0
 11 20  1  0
 11 12  1  0
 13 12  1  0
 14  7  2  0
 15  7  1  0
 15  6  1  0
 16 15  1  0
 17 18  2  0
 18 19  1  0
 18 37  1  0
 19 22  1  0
 20 17  1  0
 20 21  1  0
 21 19  2  0
 22 23  1  0
 23 24  2  0
 25 28  1  0
 25 24  1  0
 26 25  2  0
 27 26  1  0
 27 22  2  0
 28 29  1  0
 29 30  1  0
 30 31  2  0
 32 31  1  0
 32 36  1  0
 33 32  2  0
 34 29  2  0
 34 33  1  0
 35 34  1  0
 37 38  1  0
 38 41  1  0
 38 40  1  0
 39 37  2  0
 42 43  1  0
 42 17  1  0
 44 42  1  0
 45 49  1  0
 46 49  1  0
 47 45  1  0
 48 50  1  0
 48 46  1  0
 49  5  1  0
 50 47  1  0
 50 51  1  1
 52 50  1  0
 53 54  1  0
 53 52  1  0
 54 56  1  0
 55 66  2  0
 56 61  1  0
 57 67  1  0
 57 65  1  0
 58 64  1  0
 58 60  1  0
 59 65  1  0
 60 59  1  0
 61 60  2  0
 62 63  1  0
 62 56  2  0
 63 58  2  0
 64 57  1  0
 65 55  1  0
 67 68  1  0
 67 69  2  0
 70 68  1  0
 71 76  2  0
 71 80  1  0
 72 68  1  0
 72 76  1  0
 73 72  1  0
 74 73  1  0
 74 75  1  0
 75 71  1  0
 76 77  1  0
 77 78  2  0
 79 78  1  0
 80 79  2  0
 81 55  1  0
 81 91  1  0
 81 82  1  0
 82 83  1  0
 82 85  1  0
 83 87  1  0
 84 83  2  0
 87 86  1  0
 87 89  1  0
 89 90  1  0
 89 88  1  0
 91 92  1  1
 91 94  1  0
 93 91  1  0
 95 97  1  0
 97 96  1  0
 97 99  1  0
 98 95  2  0
 99100  1  0
100103  1  0
103102  1  0
103101  1  0
103104  1  6
M  ISO  4   7 100  15 100  53 101  54 101
M  END
>  <TORSDO>  (88) 
F 23

>  <SCORE>  (88) 
4.418

>  <name>  (88) 
87

>  <ligand_id>  (88) 
87

>  <original_smiles>  (88) 
[H]c1c([H])c([H])c2c(c1[H])C([H])([H])C([H])([H])C([H])([H])C2([H])N([H])C(=O)C1([H])N(C(=O)C([H])(N([H])C(=O)C([H])(N([H])C([H])([H])[H])C([H])([H])[H])C(C([H])([H])[H])(C([H])([H])[H])C([H])([H])[H])C([H])([H])c2c([H])c(OC([H])([H])C([H])([H])[N+]3([H])C([H])([H])C([H])([H])C([H])(c4c([H])c(N([H])C(=O)N5C([H])([H])C([H])([H])C([H])([H])C([H])(n6nc(-c7c([H])c([H])c(Oc8c([H])c([H])c(F)c([H])c8F)c([H])c7[H])c(C(=O)N([H])[H])c6N([H])[H])C5([H])[H])c([H])c([H])c4C(=O)N(C([H])([H])[H])C([H])([H])C([H])([H])[N+]([H])(C([H])([H])[H])C([H])([H])[H])C([H])([H])C3([H])[H])c([H])c([H])c2C1([H])[H]

>  <smiles>  (88) 
[H]c1c([H])c([H])c2c(c1[H])C([H])([H])C([H])([H])C([H])([H])C2([H])N([H])C(=O)C1([H])N(C(=O)C([H])(N([H])C(=O)C([H])(N([H])C([H])([H])[H])C([H])([H])[H])C(C([H])([H])[H])(C([H])([H])[H])C([H])([H])[H])C([H])([H])c2c([H])c(OC([H])([H])C([H])([H])[N+]3([H])C([H])([H])C([H])([H])C([H])(c4c([H])c(N([H])C(=O)N5C([H])([H])C([H])([H])C([H])([H])C([H])(n6nc(-c7c([H])c([H])c(Oc8c([H])c([H])c(F)c([H])c8F)c([H])c7[H])c(C(=O)N([H])[H])c6N([H])[H])C5([H])[H])c([H])c([H])c4C(=O)N(C([H])([H])[H])C([H])([H])C([H])([H])[N+]([H])(C([H])([H])[H])C([H])([H])[H])C([H])([H])C3([H])[H])c([H])c([H])c2C1([H])[H]

$$$$
88:0:0
     RDKit          3D

100109  0  0  1  0  0  0  0  0999 V2000
  -37.5870  -31.2770   10.8540 C   0  0  0  0  0  2  0  0  0  0  0  0
  -35.6250  -32.4740   11.5190 C   0  0  0  0  0  2  0  0  0  0  0  0
  -37.4100  -31.1570   12.3870 C   0  0  0  0  0  3  0  0  0  0  0  0
  -35.8900  -31.3130   12.4860 C   0  0  0  0  0  3  0  0  0  0  0  0
  -36.5830  -32.2950   10.3920 N   0  0  2  0  0  4  0  0  0  0  0  0
  -37.0650  -33.1800   10.2950 H   0  0  0  0  0  0  0  0  0  0  0  0
  -35.3640  -31.5640   13.8810 C   0  0  0  0  0  0  0  0  0  0  0  0
  -34.7520  -30.5590   14.5280 N   0  0  0  0  0  0  0  0  0  0  0  0
  -35.4750  -32.7630   14.4820 N   0  0  0  0  0  4  0  0  0  0  0  0
  -34.6450  -29.6510   14.0940 H   0  0  0  0  0  0  0  0  0  0  0  0
  -34.4060  -30.6300   15.4730 H   0  0  0  0  0  0  0  0  0  0  0  0
  -35.9120  -33.5590   14.0350 H   0  0  0  0  0  0  0  0  0  0  0  0
  -35.1450  -32.9250   15.4240 H   0  0  0  0  0  0  0  0  0  0  0  0
  -38.2660  -30.0000   14.5090 C   0  0  0  0  0  3  0  0  0  0  0  0
  -38.1270  -28.6780   12.4780 C   0  0  0  0  0  3  0  0  0  0  0  0
  -38.5640  -28.8350   15.2560 C   0  0  0  0  0  3  0  0  0  0  0  0
  -38.4040  -27.5120   13.2280 C   0  0  0  0  0  3  0  0  0  0  0  0
  -37.9940  -29.9310   13.1210 C   0  0  0  0  0  0  0  0  0  0  0  0
  -38.5900  -27.5720   14.6270 C   0  0  0  0  0  0  0  0  0  0  0  0
  -38.3620  -26.1580   16.6970 C   0  0  0  0  0  0  0  0  0  0  0  0
  -39.3680  -24.8730   18.5540 C   0  0  0  0  0  2  0  0  0  0  0  0
  -40.8800  -25.1790   18.5640 C   0  0  0  0  0  2  0  0  0  0  0  0
  -41.6360  -24.2350   17.6060 C   0  0  0  0  0  2  0  0  0  0  0  0
  -40.9850  -24.1630   16.2000 C   0  0  0  0  0  3  0  0  0  0  0  0
  -39.4630  -23.9210   16.3240 C   0  0  0  0  0  2  0  0  0  0  0  0
  -38.9060  -25.0000   17.1640 N   0  0  0  0  0  0  0  0  0  0  0  0
  -37.8420  -27.0110   17.4270 O   0  0  0  0  0  0  0  0  0  0  0  0
  -38.5820  -26.3600   15.3830 N   0  0  0  0  0  0  0  0  0  0  0  0
  -39.0760  -25.5910   14.9560 H   0  0  0  0  0  0  0  0  0  0  0  0
  -42.8870  -23.1830   14.7710 C   0  0  0  0  0  0  0  0  0  0  0  0
  -43.0330  -21.9680   14.1530 C   0  0  0  0  0  0  0  0  0  0  0  0
  -41.8320  -21.2430   14.4210 C   0  0  0  0  0  0  0  0  0  0  0  0
  -41.6330  -23.1590   15.3630 N   0  0  0  0  0  0  0  0  0  0  0  0
  -40.9790  -21.9980   15.1010 N   0  0  0  0  0  0  0  0  0  0  0  0
  -41.4670  -19.8540   14.1160 C   0  0  0  0  0  0  0  0  0  0  0  0
  -40.5570  -19.5400   13.0810 C   0  0  0  0  0  3  0  0  0  0  0  0
  -40.2350  -18.1950   12.7970 C   0  0  0  0  0  3  0  0  0  0  0  0
  -40.8250  -17.1510   13.5480 C   0  0  0  0  0  0  0  0  0  0  0  0
  -41.7110  -17.4710   14.5920 C   0  0  0  0  0  3  0  0  0  0  0  0
  -42.0260  -18.8100   14.8780 C   0  0  0  0  0  3  0  0  0  0  0  0
  -40.5510  -15.8170   13.3570 O   0  0  0  0  0  0  0  0  0  0  0  0
  -40.1440  -15.0110   14.3880 C   0  0  0  0  0  0  0  0  0  0  0  0
  -40.9560  -13.9680   14.8850 C   0  0  0  0  0  3  0  0  0  0  0  0
  -40.5300  -13.2090   15.9910 C   0  0  0  0  0  3  0  0  0  0  0  0
  -39.2960  -13.4920   16.6090 C   0  0  0  0  0  0  0  0  0  0  0  0
  -38.4880  -14.5340   16.1190 C   0  0  0  0  0  3  0  0  0  0  0  0
  -38.9120  -15.2920   15.0130 C   0  0  0  0  0  0  0  0  0  0  0  0
  -38.1390  -16.3090   14.5590 F   0  0  0  0  0  0  0  0  0  0  0  0
  -38.8900  -12.7690   17.6760 F   0  0  0  0  0  0  0  0  0  0  0  0
  -44.2560  -21.4680   13.4390 C   0  0  0  0  0  0  0  0  0  0  0  0
  -44.6410  -22.1310   12.3540 N   0  0  0  0  0  0  0  0  0  0  0  0
  -44.9040  -20.5150   13.8680 O   0  0  0  0  0  0  0  0  0  0  0  0
  -44.1150  -22.9210   12.0140 H   0  0  0  0  0  0  0  0  0  0  0  0
  -45.4740  -21.8450   11.8600 H   0  0  0  0  0  0  0  0  0  0  0  0
  -43.7230  -24.2880   14.8950 N   0  0  0  0  0  0  0  0  0  0  0  0
  -44.6730  -24.2810   14.5380 H   0  0  0  0  0  0  0  0  0  0  0  0
  -43.5270  -25.0900   15.4790 H   0  0  0  0  0  0  0  0  0  0  0  0
  -35.9280  -32.0220    9.0690 C   0  0  0  0  0  2  0  0  0  0  0  0
  -34.5560  -31.2900    9.1470 C   0  0  0  0  0  2  0  0  0  0  0  0
  -34.5680  -29.8770    9.4370 O   0  0  0  0  0  0  0  0  0  0  0  0
  -33.2370  -24.0970   13.4000 C   0  0  0  0  0  0  0  0  0  0  0  0
  -33.9390  -29.3880   10.5730 C   0  0  0  0  0  0  0  0  0  0  0  0
  -31.8880  -26.0950   13.9300 C   0  0  0  0  0  3  0  0  0  0  0  0
  -32.6630  -28.2790   12.8540 C   0  0  0  0  0  0  0  0  0  0  0  0
  -34.2290  -26.3380   12.9270 C   0  0  0  0  0  2  0  0  0  0  0  0
  -33.7580  -27.6250   12.2800 C   0  0  0  0  0  0  0  0  0  0  0  0
  -34.3880  -28.1670   11.1370 C   0  0  0  0  0  3  0  0  0  0  0  0
  -32.8470  -30.0440   11.1880 C   0  0  0  0  0  3  0  0  0  0  0  0
  -32.2040  -29.4910   12.3110 C   0  0  0  0  0  3  0  0  0  0  0  0
  -32.0240  -27.6360   14.0660 C   0  0  0  0  0  2  0  0  0  0  0  0
  -33.1280  -25.4560   13.3880 N   0  0  0  0  0  0  0  0  0  0  0  0
  -32.3470  -23.3860   13.8870 O   0  0  0  0  0  0  0  0  0  0  0  0
  -30.6260  -25.7870   13.0930 C   0  0  0  0  0  0  0  0  0  0  0  0
  -30.6600  -26.1640   11.8050 N   0  0  0  0  0  0  0  0  0  0  0  0
  -29.6660  -25.1970   13.5920 O   0  0  0  0  0  0  0  0  0  0  0  0
  -31.4880  -26.6390   11.4750 H   0  0  0  0  0  0  0  0  0  0  0  0
  -29.4230  -27.2200    8.5800 C   0  0  0  0  0  0  0  0  0  0  0  0
  -29.6040  -25.9430   10.8190 C   0  0  0  0  0  3  0  0  0  0  0  0
  -29.8980  -24.6880    9.9640 C   0  0  0  0  0  2  0  0  0  0  0  0
  -30.6440  -25.0080    8.6650 C   0  0  0  0  0  2  0  0  0  0  0  0
  -29.8360  -25.9820    7.8040 C   0  0  0  0  0  2  0  0  0  0  0  0
  -29.3300  -27.2080    9.9970 C   0  0  0  0  0  0  0  0  0  0  0  0
  -28.9770  -28.3990   10.6710 C   0  0  0  0  0  3  0  0  0  0  0  0
  -28.7140  -29.5800    9.9530 C   0  0  0  0  0  3  0  0  0  0  0  0
  -28.7990  -29.5840    8.5510 C   0  0  0  0  0  3  0  0  0  0  0  0
  -29.1470  -28.4050    7.8680 C   0  0  0  0  0  3  0  0  0  0  0  0
  -34.4970  -23.3730   12.8310 C   0  0  0  0  0  3  0  0  0  0  0  0
  -35.6820  -23.2840   13.8680 C   0  0  1  0  0  0  0  0  0  0  0  0
  -36.9650  -24.0180   13.4100 C   0  0  0  0  0  1  0  0  0  0  0  0
  -35.2590  -23.8890   15.2290 C   0  0  0  0  0  1  0  0  0  0  0  0
  -36.0370  -21.8030   14.1320 C   0  0  0  0  0  1  0  0  0  0  0  0
  -34.9120  -24.0990   11.6230 N   0  0  0  0  0  0  0  0  0  0  0  0
  -34.4570  -23.8460   10.3880 C   0  0  0  0  0  0  0  0  0  0  0  0
  -33.6820  -22.9190   10.1370 O   0  0  0  0  0  0  0  0  0  0  0  0
  -35.4830  -24.9190   11.7640 H   0  0  0  0  0  0  0  0  0  0  0  0
  -34.3240  -24.3140    7.9180 C   0  0  0  0  0  1  0  0  0  0  0  0
  -34.9410  -24.7680    9.2520 C   0  0  0  0  0  3  0  0  0  0  0  0
  -36.9750  -26.1260    9.4640 C   0  0  0  0  0  1  0  0  0  0  0  0
  -36.4130  -24.8220    9.1210 N   0  0  0  0  0  0  0  0  0  0  0  0
  -36.6980  -24.5910    8.1730 H   0  0  0  0  0  0  0  0  0  0  0  0
  1  3  1  0
  2  4  1  0
  3  4  1  0
  3 18  1  0
  4  7  1  0
  5  1  1  0
  5  2  1  0
  5  6  1  6
  7  9  2  0
  7  8  1  0
  8 11  1  0
  9 13  1  0
 10  8  1  0
 12  9  1  0
 14 16  1  0
 15 18  1  0
 15 17  2  0
 17 19  1  0
 18 14  2  0
 19 16  2  0
 19 28  1  0
 20 26  1  0
 20 27  2  0
 21 22  1  0
 23 22  1  0
 24 33  1  0
 24 25  1  0
 24 23  1  0
 25 26  1  0
 26 21  1  0
 28 20  1  0
 29 28  1  0
 30 55  1  0
 30 33  1  0
 31 32  1  0
 31 30  2  0
 32 34  2  0
 34 33  1  0
 35 32  1  0
 35 40  1  0
 36 35  2  0
 37 36  1  0
 37 38  2  0
 38 39  1  0
 39 40  2  0
 41 38  1  0
 41 42  1  0
 42 43  2  0
 42 47  1  0
 43 44  1  0
 44 45  2  0
 45 49  1  0
 46 45  1  0
 47 46  2  0
 48 47  1  0
 50 52  2  0
 50 31  1  0
 51 50  1  0
 53 51  1  0
 54 51  1  0
 55 57  1  0
 56 55  1  0
 58 59  1  0
 58  5  1  0
 59 60  1  0
 60 62  1  0
 61 72  2  0
 62 67  2  0
 62 68  1  0
 63 73  1  0
 63 70  1  0
 64 70  1  0
 65 71  1  0
 66 64  2  0
 66 65  1  0
 67 66  1  0
 68 69  2  0
 69 64  1  0
 71 61  1  0
 71 63  1  0
 73 75  2  0
 74 73  1  0
 76 74  1  0
 77 82  1  0
 78 74  1  0
 79 78  1  0
 80 79  1  0
 81 77  1  0
 81 80  1  0
 82 83  2  0
 82 78  1  0
 84 83  1  0
 85 84  2  0
 86 85  1  0
 86 77  2  0
 87 61  1  0
 87 88  1  0
 88 91  1  1
 88 90  1  0
 89 88  1  0
 92 95  1  0
 92 87  1  0
 93 92  1  0
 94 93  2  0
 97 96  1  0
 97 93  1  0
 99 97  1  0
 99 98  1  0
100 99  1  0
M  ISO  4  20 100  28 100  59 101  60 101
M  END
>  <TORSDO>  (89) 
F 20

>  <SCORE>  (89) 
-1.286

>  <name>  (89) 
88

>  <ligand_id>  (89) 
88

>  <original_smiles>  (89) 
[H]c1c([H])c([H])c2c(c1[H])C([H])([H])C([H])([H])C([H])([H])C2([H])N([H])C(=O)C1([H])N(C(=O)C([H])(N([H])C(=O)C([H])(N([H])C([H])([H])[H])C([H])([H])[H])C(C([H])([H])[H])(C([H])([H])[H])C([H])([H])[H])C([H])([H])c2c([H])c(OC([H])([H])C([H])([H])[N+]3([H])C([H])([H])C([H])(C(N([H])[H])=[N+]([H])[H])C([H])(c4c([H])c([H])c(N([H])C(=O)N5C([H])([H])C([H])([H])C([H])([H])C([H])(n6nc(-c7c([H])c([H])c(Oc8c([H])c([H])c(F)c([H])c8F)c([H])c7[H])c(C(=O)N([H])[H])c6N([H])[H])C5([H])[H])c([H])c4[H])C3([H])[H])c([H])c([H])c2C1([H])[H]

>  <smiles>  (89) 
[H]c1c([H])c([H])c2c(c1[H])C([H])([H])C([H])([H])C([H])([H])C2([H])N([H])C(=O)C1([H])N(C(=O)C([H])(N([H])C(=O)C([H])(N([H])C([H])([H])[H])C([H])([H])[H])C(C([H])([H])[H])(C([H])([H])[H])C([H])([H])[H])C([H])([H])c2c([H])c(OC([H])([H])C([H])([H])[N+]3([H])C([H])([H])C([H])(C(N([H])[H])=[N+]([H])[H])C([H])(c4c([H])c([H])c(N([H])C(=O)N5C([H])([H])C([H])([H])C([H])([H])C([H])(n6nc(-c7c([H])c([H])c(Oc8c([H])c([H])c(F)c([H])c8F)c([H])c7[H])c(C(=O)N([H])[H])c6N([H])[H])C5([H])[H])c([H])c4[H])C3([H])[H])c([H])c([H])c2C1([H])[H]

$$$$
89:0:0
     RDKit          3D

105114  0  0  1  0  0  0  0  0999 V2000
  -28.1660  -20.3150   19.9490 C   0  0  0  0  0  0  0  0  0  0  0  0
  -29.2760  -20.3170   20.7090 N   0  0  0  0  0  0  0  0  0  0  0  0
  -27.7310  -19.3260   19.3500 O   0  0  0  0  0  0  0  0  0  0  0  0
  -29.4810  -21.2100   21.1340 H   0  0  0  0  0  0  0  0  0  0  0  0
  -32.5850  -18.7370   21.5280 C   0  0  0  0  0  3  0  0  0  0  0  0
  -32.3890  -17.4090   21.1010 C   0  0  0  0  0  3  0  0  0  0  0  0
  -30.0950  -17.9680   20.5070 C   0  0  0  0  0  3  0  0  0  0  0  0
  -31.5330  -19.6810   21.4950 C   0  0  0  0  0  0  0  0  0  0  0  0
  -31.1260  -17.0140   20.6200 C   0  0  0  0  0  0  0  0  0  0  0  0
  -30.2870  -19.3170   20.8960 C   0  0  0  0  0  0  0  0  0  0  0  0
  -31.4670  -14.6550   19.8320 C   0  0  0  0  0  0  0  0  0  0  0  0
  -31.0910  -12.3680   18.9560 C   0  0  0  0  0  2  0  0  0  0  0  0
  -30.0930  -12.4070   17.7810 C   0  0  0  0  0  2  0  0  0  0  0  0
  -28.6290  -12.4140   18.2710 C   0  0  0  0  0  2  0  0  0  0  0  0
  -28.3790  -13.4340   19.4120 C   0  0  0  0  0  3  0  0  0  0  0  0
  -29.4620  -13.2890   20.5020 C   0  0  0  0  0  2  0  0  0  0  0  0
  -30.7750  -13.4850   19.8530 N   0  0  0  0  0  0  0  0  0  0  0  0
  -32.5420  -14.8090   19.2430 O   0  0  0  0  0  0  0  0  0  0  0  0
  -30.7930  -15.6540   20.4280 N   0  0  0  0  0  0  0  0  0  0  0  0
  -29.8630  -15.3950   20.7180 H   0  0  0  0  0  0  0  0  0  0  0  0
  -26.1190  -14.2820   20.3100 C   0  0  0  0  0  0  0  0  0  0  0  0
  -24.9920  -13.6180   20.7210 C   0  0  0  0  0  0  0  0  0  0  0  0
  -25.2870  -12.2260   20.5930 C   0  0  0  0  0  0  0  0  0  0  0  0
  -27.0340  -13.2970   19.9670 N   0  0  0  0  0  0  0  0  0  0  0  0
  -26.5380  -12.0540   20.1890 N   0  0  0  0  0  0  0  0  0  0  0  0
  -24.4300  -11.0470   20.7740 C   0  0  0  0  0  0  0  0  0  0  0  0
  -24.7700  -10.0270   21.6920 C   0  0  0  0  0  3  0  0  0  0  0  0
  -23.9200   -8.9140   21.8690 C   0  0  0  0  0  3  0  0  0  0  0  0
  -22.7210   -8.8140   21.1230 C   0  0  0  0  0  0  0  0  0  0  0  0
  -22.4000   -9.8200   20.1980 C   0  0  0  0  0  3  0  0  0  0  0  0
  -23.2480  -10.9260   20.0200 C   0  0  0  0  0  3  0  0  0  0  0  0
  -21.8490   -7.7530   21.2000 O   0  0  0  0  0  0  0  0  0  0  0  0
  -21.6810   -7.0450   22.3610 C   0  0  0  0  0  0  0  0  0  0  0  0
  -21.2330   -7.6610   23.5490 C   0  0  0  0  0  3  0  0  0  0  0  0
  -21.0130   -6.8870   24.7050 C   0  0  0  0  0  3  0  0  0  0  0  0
  -21.2250   -5.4930   24.6710 C   0  0  0  0  0  0  0  0  0  0  0  0
  -21.6610   -4.8770   23.4860 C   0  0  0  0  0  3  0  0  0  0  0  0
  -21.8860   -5.6510   22.3340 C   0  0  0  0  0  0  0  0  0  0  0  0
  -22.2890   -5.0500   21.1890 F   0  0  0  0  0  0  0  0  0  0  0  0
  -21.0060   -4.7460   25.7780 F   0  0  0  0  0  0  0  0  0  0  0  0
  -23.6840  -14.2380   21.1200 C   0  0  0  0  0  0  0  0  0  0  0  0
  -22.9460  -13.5820   22.0110 N   0  0  0  0  0  0  0  0  0  0  0  0
  -23.3310  -15.3330   20.6840 O   0  0  0  0  0  0  0  0  0  0  0  0
  -23.2490  -12.6950   22.3860 H   0  0  0  0  0  0  0  0  0  0  0  0
  -22.0690  -13.9730   22.3220 H   0  0  0  0  0  0  0  0  0  0  0  0
  -26.4320  -15.6310   20.1890 N   0  0  0  0  0  0  0  0  0  0  0  0
  -25.7610  -16.3620   20.4000 H   0  0  0  0  0  0  0  0  0  0  0  0
  -27.3020  -15.9900   19.8170 H   0  0  0  0  0  0  0  0  0  0  0  0
  -31.7750  -21.0400   22.1060 C   0  0  0  0  0  0  0  0  0  0  0  0
  -30.8660  -21.4570   22.9820 N   0  0  0  0  0  0  0  0  0  0  0  0
  -32.7850  -21.6970   21.8570 O   0  0  0  0  0  0  0  0  0  0  0  0
  -30.0980  -20.8520   23.2420 H   0  0  0  0  0  0  0  0  0  0  0  0
  -31.0020  -22.3210   23.4880 H   0  0  0  0  0  0  0  0  0  0  0  0
  -25.9590  -21.5200   19.3740 C   0  0  0  0  0  2  0  0  0  0  0  0
  -26.4880  -21.9230   17.9980 C   0  0  0  0  0  2  0  0  0  0  0  0
  -27.3990  -21.6590   19.8820 C   0  0  0  0  0  3  0  0  0  0  0  0
  -27.6760  -22.4710   18.6730 N   0  0  0  0  0  0  0  0  0  0  0  0
  -27.5190  -23.9300   18.8160 C   0  0  0  0  0  2  0  0  0  0  0  0
  -28.8070  -24.6760   19.2570 C   0  0  0  0  0  3  0  0  0  0  0  0
  -28.9870  -24.6470   20.7230 N   0  0  0  0  0  4  0  0  0  0  0  0
  -28.2340  -25.1410   21.1720 H   0  0  0  0  0  0  0  0  0  0  0  0
  -29.8320  -25.1350   20.9630 H   0  0  0  0  0  0  0  0  0  0  0  0
  -29.0510  -23.7120   21.0810 H   0  0  0  0  0  0  0  0  0  0  0  0
  -28.8690  -26.1440   18.7550 C   0  0  0  0  0  2  0  0  0  0  0  0
  -28.5810  -27.0870   19.7910 O   0  0  0  0  0  0  0  0  0  0  0  0
  -24.5890  -31.8610   23.2240 C   0  0  0  0  0  0  0  0  0  0  0  0
  -27.3500  -27.7060   19.8460 C   0  0  0  0  0  0  0  0  0  0  0  0
  -23.4170  -30.5050   21.5170 C   0  0  0  0  0  3  0  0  0  0  0  0
  -24.8990  -29.0980   20.0010 C   0  0  0  0  0  0  0  0  0  0  0  0
  -25.9220  -30.9640   21.3180 C   0  0  0  0  0  2  0  0  0  0  0  0
  -26.0420  -29.6320   20.6070 C   0  0  0  0  0  0  0  0  0  0  0  0
  -27.2650  -28.9330   20.5400 C   0  0  0  0  0  3  0  0  0  0  0  0
  -26.1850  -27.1830   19.2420 C   0  0  0  0  0  3  0  0  0  0  0  0
  -24.9600  -27.8670   19.3290 C   0  0  0  0  0  3  0  0  0  0  0  0
  -23.6320  -29.9060   20.1010 C   0  0  0  0  0  2  0  0  0  0  0  0
  -24.6610  -31.1240   22.0770 N   0  0  0  0  0  0  0  0  0  0  0  0
  -23.5050  -32.0660   23.7860 O   0  0  0  0  0  0  0  0  0  0  0  0
  -22.8120  -29.4130   22.4270 C   0  0  0  0  0  0  0  0  0  0  0  0
  -21.5020  -29.1650   22.2720 N   0  0  0  0  0  0  0  0  0  0  0  0
  -23.5170  -28.7930   23.2280 O   0  0  0  0  0  0  0  0  0  0  0  0
  -20.9860  -29.7230   21.6040 H   0  0  0  0  0  0  0  0  0  0  0  0
  -18.2020  -27.7440   22.6470 C   0  0  0  0  0  0  0  0  0  0  0  0
  -20.7290  -28.1530   22.9940 C   0  0  0  0  0  3  0  0  0  0  0  0
  -20.9370  -26.7500   22.3760 C   0  0  0  0  0  2  0  0  0  0  0  0
  -19.8830  -26.3920   21.3240 C   0  0  0  0  0  2  0  0  0  0  0  0
  -18.4810  -26.4320   21.9360 C   0  0  0  0  0  2  0  0  0  0  0  0
  -19.2590  -28.5600   23.1290 C   0  0  0  0  0  0  0  0  0  0  0  0
  -18.9470  -29.7890   23.7500 C   0  0  0  0  0  3  0  0  0  0  0  0
  -17.6080  -30.2010   23.8960 C   0  0  0  0  0  3  0  0  0  0  0  0
  -16.5660  -29.3790   23.4310 C   0  0  0  0  0  3  0  0  0  0  0  0
  -16.8620  -28.1540   22.8120 C   0  0  0  0  0  3  0  0  0  0  0  0
  -25.8600  -32.5020   23.8640 C   0  0  0  0  0  3  0  0  0  0  0  0
  -26.3710  -31.7300   25.1420 C   0  0  1  0  0  0  0  0  0  0  0  0
  -25.2610  -31.4630   26.1850 C   0  0  0  0  0  1  0  0  0  0  0  0
  -26.9870  -30.3660   24.7490 C   0  0  0  0  0  1  0  0  0  0  0  0
  -27.4990  -32.5380   25.8260 C   0  0  0  0  0  1  0  0  0  0  0  0
  -25.5390  -33.8980   24.1910 N   0  0  0  0  0  0  0  0  0  0  0  0
  -25.8750  -34.9510   23.4350 C   0  0  0  0  0  0  0  0  0  0  0  0
  -26.5600  -34.8510   22.4130 O   0  0  0  0  0  0  0  0  0  0  0  0
  -24.9280  -34.0520   24.9800 H   0  0  0  0  0  0  0  0  0  0  0  0
  -24.1430  -36.7310   23.0420 C   0  0  0  0  0  1  0  0  0  0  0  0
  -25.3680  -36.3350   23.8830 C   0  0  0  0  0  3  0  0  0  0  0  0
  -27.4730  -37.2330   24.7730 C   0  0  0  0  0  1  0  0  0  0  0  0
  -26.3960  -37.3940   23.7990 N   0  0  0  0  0  0  0  0  0  0  0  0
  -25.9800  -38.3110   23.9330 H   0  0  0  0  0  0  0  0  0  0  0  0
  1  2  1  0
  2 10  1  0
  2  4  1  0
  3  1  2  0
  6  5  2  0
  7  9  2  0
  7 10  1  0
  8  5  1  0
  8 49  1  0
  9  6  1  0
 10  8  2  0
 11 17  1  0
 11 19  1  0
 12 17  1  0
 13 14  1  0
 13 12  1  0
 15 14  1  0
 15 24  1  0
 15 16  1  0
 17 16  1  0
 18 11  2  0
 19  9  1  0
 19 20  1  0
 21 22  2  0
 22 41  1  0
 23 22  1  0
 23 26  1  0
 24 25  1  0
 24 21  1  0
 25 23  2  0
 26 27  1  0
 27 28  2  0
 29 32  1  0
 29 28  1  0
 30 29  2  0
 31 30  1  0
 31 26  2  0
 32 33  1  0
 33 34  1  0
 34 35  2  0
 36 35  1  0
 36 40  1  0
 37 36  2  0
 38 33  2  0
 38 37  1  0
 39 38  1  0
 41 42  1  0
 42 45  1  0
 42 44  1  0
 43 41  2  0
 46 21  1  0
 46 47  1  0
 48 46  1  0
 49 50  1  0
 50 52  1  0
 50 53  1  0
 51 49  2  0
 54 56  1  0
 55 57  1  0
 55 54  1  0
 56  1  1  0
 57 58  1  0
 57 56  1  0
 58 59  1  0
 59 64  1  0
 59 60  1  0
 60 62  1  0
 60 63  1  0
 60 61  1  0
 64 65  1  0
 65 67  1  0
 66 77  2  0
 67 72  1  0
 68 76  1  0
 68 78  1  0
 69 75  1  0
 69 71  1  0
 70 76  1  0
 71 70  1  0
 72 71  2  0
 73 74  1  0
 73 67  2  0
 74 69  2  0
 75 68  1  0
 76 66  1  0
 78 80  2  0
 79 78  1  0
 81 79  1  0
 82 91  2  0
 82 87  1  0
 83 79  1  0
 83 87  1  0
 84 83  1  0
 85 86  1  0
 85 84  1  0
 86 82  1  0
 87 88  2  0
 88 89  1  0
 90 89  2  0
 91 90  1  0
 92 66  1  0
 92 97  1  0
 92 93  1  0
 93 96  1  1
 93 94  1  0
 95 93  1  0
 97100  1  0
 98102  1  0
 98 97  1  0
 99 98  2  0
102101  1  0
104102  1  0
104105  1  0
104103  1  0
M  ISO  4  11 100  19 100  64 101  65 101
M  END
>  <TORSDO>  (90) 
F 23

>  <SCORE>  (90) 
-11.417

>  <name>  (90) 
89

>  <ligand_id>  (90) 
89

>  <original_smiles>  (90) 
[H]c1c([H])c([H])c2c(c1[H])C([H])([H])C([H])([H])C([H])([H])C2([H])N([H])C(=O)C1([H])N(C(=O)C([H])(N([H])C(=O)C([H])(N([H])C([H])([H])[H])C([H])([H])[H])C(C([H])([H])[H])(C([H])([H])[H])C([H])([H])[H])C([H])([H])c2c([H])c(OC([H])([H])C([H])(C([H])([H])N3C([H])([H])C([H])([H])C3([H])C(=O)N([H])c3c([H])c(N([H])C(=O)N4C([H])([H])C([H])([H])C([H])([H])C([H])(n5nc(-c6c([H])c([H])c(Oc7c([H])c([H])c(F)c([H])c7F)c([H])c6[H])c(C(=O)N([H])[H])c5N([H])[H])C4([H])[H])c([H])c([H])c3C(=O)N([H])[H])[N+]([H])([H])[H])c([H])c([H])c2C1([H])[H]

>  <smiles>  (90) 
[H]c1c([H])c([H])c2c(c1[H])C([H])([H])C([H])([H])C([H])([H])C2([H])N([H])C(=O)C1([H])N(C(=O)C([H])(N([H])C(=O)C([H])(N([H])C([H])([H])[H])C([H])([H])[H])C(C([H])([H])[H])(C([H])([H])[H])C([H])([H])[H])C([H])([H])c2c([H])c(OC([H])([H])C([H])(C([H])([H])N3C([H])([H])C([H])([H])C3([H])C(=O)N([H])c3c([H])c(N([H])C(=O)N4C([H])([H])C([H])([H])C([H])([H])C([H])(n5nc(-c6c([H])c([H])c(Oc7c([H])c([H])c(F)c([H])c7F)c([H])c6[H])c(C(=O)N([H])[H])c5N([H])[H])C4([H])[H])c([H])c([H])c3C(=O)N([H])[H])[N+]([H])([H])[H])c([H])c([H])c2C1([H])[H]

$$$$
90:0:0
     RDKit          3D

 91 99  0  0  1  0  0  0  0  0999 V2000
  -29.2970  -21.1800   20.7890 C   0  0  0  0  0  0  0  0  0  0  0  0
  -28.3600  -22.1800   18.7070 C   0  0  0  0  0  1  0  0  0  0  0  0
  -28.9120  -22.3110   20.0610 N   0  0  0  0  0  0  0  0  0  0  0  0
  -29.3830  -21.2400   22.0180 O   0  0  0  0  0  0  0  0  0  0  0  0
  -31.0560  -18.7290   18.3650 C   0  0  0  0  0  3  0  0  0  0  0  0
  -30.5380  -19.8930   18.9620 C   0  0  0  0  0  3  0  0  0  0  0  0
  -30.8230  -17.4560   18.9170 C   0  0  0  0  0  3  0  0  0  0  0  0
  -29.5230  -18.5030   20.6850 C   0  0  0  0  0  3  0  0  0  0  0  0
  -29.7340  -19.8340   20.1230 C   0  0  0  0  0  0  0  0  0  0  0  0
  -30.0730  -17.2810   20.1040 C   0  0  0  0  0  0  0  0  0  0  0  0
  -30.5920  -14.7430   20.3600 C   0  0  0  0  0  0  0  0  0  0  0  0
  -30.3580  -12.4720   19.3670 C   0  0  0  0  0  2  0  0  0  0  0  0
  -29.4300  -12.5700   18.1370 C   0  0  0  0  0  2  0  0  0  0  0  0
  -27.9560  -12.4140   18.5580 C   0  0  0  0  0  2  0  0  0  0  0  0
  -27.5870  -13.2950   19.7820 C   0  0  0  0  0  3  0  0  0  0  0  0
  -28.6420  -13.1970   20.9070 C   0  0  0  0  0  2  0  0  0  0  0  0
  -29.9460  -13.5280   20.3210 N   0  0  0  0  0  0  0  0  0  0  0  0
  -31.7780  -14.8080   20.0250 O   0  0  0  0  0  0  0  0  0  0  0  0
  -29.8580  -15.8980   20.6110 N   0  0  0  0  0  0  0  0  0  0  0  0
  -28.9720  -15.7390   21.0660 H   0  0  0  0  0  0  0  0  0  0  0  0
  -25.1970  -13.8910   20.4940 C   0  0  0  0  0  0  0  0  0  0  0  0
  -24.1280  -13.1200   20.8660 C   0  0  0  0  0  0  0  0  0  0  0  0
  -24.5910  -11.7690   20.8470 C   0  0  0  0  0  0  0  0  0  0  0  0
  -26.2410  -13.0090   20.2680 N   0  0  0  0  0  0  0  0  0  0  0  0
  -25.8830  -11.7280   20.5440 N   0  0  0  0  0  0  0  0  0  0  0  0
  -23.8630  -10.5080   21.0440 C   0  0  0  0  0  0  0  0  0  0  0  0
  -24.3010   -9.5370   21.9720 C   0  0  0  0  0  3  0  0  0  0  0  0
  -23.5710   -8.3430   22.1570 C   0  0  0  0  0  3  0  0  0  0  0  0
  -22.3900   -8.1100   21.4140 C   0  0  0  0  0  0  0  0  0  0  0  0
  -21.9720   -9.0680   20.4740 C   0  0  0  0  0  3  0  0  0  0  0  0
  -22.7020  -10.2540   20.2860 C   0  0  0  0  0  3  0  0  0  0  0  0
  -21.6330   -6.9670   21.5070 O   0  0  0  0  0  0  0  0  0  0  0  0
  -21.6030   -6.2150   22.6540 C   0  0  0  0  0  0  0  0  0  0  0  0
  -21.2150   -6.7640   23.8950 C   0  0  0  0  0  3  0  0  0  0  0  0
  -21.1320   -5.9390   25.0350 C   0  0  0  0  0  3  0  0  0  0  0  0
  -21.4270   -4.5670   24.9340 C   0  0  0  0  0  0  0  0  0  0  0  0
  -21.8080   -4.0160   23.6970 C   0  0  0  0  0  3  0  0  0  0  0  0
  -21.8930   -4.8380   22.5600 C   0  0  0  0  0  0  0  0  0  0  0  0
  -22.2400   -4.3000   21.3670 F   0  0  0  0  0  0  0  0  0  0  0  0
  -21.3400   -3.7720   26.0260 F   0  0  0  0  0  0  0  0  0  0  0  0
  -22.7300  -13.6000   21.1280 C   0  0  0  0  0  0  0  0  0  0  0  0
  -21.9980  -12.9120   21.9960 N   0  0  0  0  0  0  0  0  0  0  0  0
  -22.2960  -14.6210   20.5950 O   0  0  0  0  0  0  0  0  0  0  0  0
  -22.3610  -12.0880   22.4490 H   0  0  0  0  0  0  0  0  0  0  0  0
  -21.0590  -13.2160   22.2120 H   0  0  0  0  0  0  0  0  0  0  0  0
  -25.3620  -15.2610   20.3080 N   0  0  0  0  0  0  0  0  0  0  0  0
  -24.5940  -15.9140   20.4100 H   0  0  0  0  0  0  0  0  0  0  0  0
  -26.2070  -15.6960   19.9640 H   0  0  0  0  0  0  0  0  0  0  0  0
  -29.0090  -23.7640   20.5620 C   0  0  0  0  0  3  0  0  0  0  0  0
  -28.0740  -24.9330   19.9440 C   0  0  0  0  0  3  0  0  0  0  0  0
  -28.2710  -26.3900   20.2630 O   0  0  0  0  0  0  0  0  0  0  0  0
  -24.6000  -31.8850   23.2450 C   0  0  0  0  0  0  0  0  0  0  0  0
  -27.1770  -27.2860   20.1780 C   0  0  0  0  0  0  0  0  0  0  0  0
  -23.3860  -30.4930   21.6080 C   0  0  0  0  0  3  0  0  0  0  0  0
  -24.8260  -28.9420   20.1680 C   0  0  0  0  0  0  0  0  0  0  0  0
  -25.9290  -30.7930   21.4200 C   0  0  0  0  0  2  0  0  0  0  0  0
  -26.0010  -29.4120   20.7700 C   0  0  0  0  0  0  0  0  0  0  0  0
  -27.1770  -28.5950   20.7690 C   0  0  0  0  0  3  0  0  0  0  0  0
  -25.9840  -26.8940   19.5270 C   0  0  0  0  0  3  0  0  0  0  0  0
  -24.8240  -27.6900   19.5360 C   0  0  0  0  0  3  0  0  0  0  0  0
  -23.5940  -29.8210   20.2250 C   0  0  0  0  0  2  0  0  0  0  0  0
  -24.6570  -31.0750   22.1470 N   0  0  0  0  0  0  0  0  0  0  0  0
  -23.5190  -32.1650   23.7840 O   0  0  0  0  0  0  0  0  0  0  0  0
  -22.7240  -29.4760   22.5690 C   0  0  0  0  0  0  0  0  0  0  0  0
  -21.3970  -29.3000   22.4460 N   0  0  0  0  0  0  0  0  0  0  0  0
  -23.4030  -28.8500   23.3880 O   0  0  0  0  0  0  0  0  0  0  0  0
  -20.9070  -29.8560   21.7610 H   0  0  0  0  0  0  0  0  0  0  0  0
  -18.0210  -28.0970   22.9460 C   0  0  0  0  0  0  0  0  0  0  0  0
  -20.5790  -28.3650   23.2200 C   0  0  0  0  0  3  0  0  0  0  0  0
  -20.6860  -26.9310   22.6520 C   0  0  0  0  0  2  0  0  0  0  0  0
  -19.5870  -26.6010   21.6370 C   0  0  0  0  0  2  0  0  0  0  0  0
  -18.2040  -26.7450   22.2780 C   0  0  0  0  0  2  0  0  0  0  0  0
  -19.1370  -28.8640   23.3750 C   0  0  0  0  0  0  0  0  0  0  0  0
  -18.9140  -30.1290   23.9610 C   0  0  0  0  0  3  0  0  0  0  0  0
  -17.6060  -30.6270   24.1230 C   0  0  0  0  0  3  0  0  0  0  0  0
  -16.5050  -29.8570   23.7110 C   0  0  0  0  0  3  0  0  0  0  0  0
  -16.7140  -28.5940   23.1280 C   0  0  0  0  0  3  0  0  0  0  0  0
  -25.8870  -32.5150   23.8610 C   0  0  0  0  0  3  0  0  0  0  0  0
  -26.4040  -31.7430   25.1370 C   0  0  1  0  0  0  0  0  0  0  0  0
  -25.3140  -31.5130   26.2100 C   0  0  0  0  0  1  0  0  0  0  0  0
  -26.9790  -30.3610   24.7480 C   0  0  0  0  0  1  0  0  0  0  0  0
  -27.5600  -32.5330   25.7940 C   0  0  0  0  0  1  0  0  0  0  0  0
  -25.5810  -33.9140   24.1930 N   0  0  0  0  0  0  0  0  0  0  0  0
  -25.9090  -34.9670   23.4330 C   0  0  0  0  0  0  0  0  0  0  0  0
  -26.5710  -34.8620   22.3960 O   0  0  0  0  0  0  0  0  0  0  0  0
  -24.9910  -34.0690   24.9980 H   0  0  0  0  0  0  0  0  0  0  0  0
  -24.1800  -36.7640   23.0990 C   0  0  0  0  0  1  0  0  0  0  0  0
  -25.4300  -36.3560   23.8960 C   0  0  0  0  0  3  0  0  0  0  0  0
  -27.5760  -37.2380   24.7020 C   0  0  0  0  0  1  0  0  0  0  0  0
  -26.4630  -37.4080   23.7720 N   0  0  0  0  0  0  0  0  0  0  0  0
  -26.0590  -38.3280   23.9250 H   0  0  0  0  0  0  0  0  0  0  0  0
  1  4  2  0
  2  3  1  0
  3 49  1  0
  3  1  1  0
  5  7  2  0
  5  6  1  0
  6  9  2  0
  7 10  1  0
  9  8  1  0
  9  1  1  0
 10 19  1  0
 10  8  2  0
 11 19  1  0
 12 17  1  0
 13 14  1  0
 13 12  1  0
 15 14  1  0
 15 24  1  0
 15 16  1  0
 17 11  1  0
 17 16  1  0
 18 11  2  0
 19 20  1  0
 21 22  2  0
 22 41  1  0
 23 22  1  0
 23 26  1  0
 24 21  1  0
 24 25  1  0
 25 23  2  0
 26 27  1  0
 27 28  2  0
 29 32  1  0
 29 28  1  0
 30 29  2  0
 31 30  1  0
 31 26  2  0
 32 33  1  0
 33 34  1  0
 34 35  2  0
 36 35  1  0
 36 40  1  0
 37 36  2  0
 38 33  2  0
 38 37  1  0
 39 38  1  0
 41 42  1  0
 42 45  1  0
 42 44  1  0
 43 41  2  0
 46 47  1  0
 46 21  1  0
 48 46  1  0
 50 51  1  0
 50 49  2  0
 52 63  2  0
 53 51  1  0
 53 58  1  0
 54 62  1  0
 54 64  1  0
 55 61  1  0
 55 57  1  0
 56 62  1  0
 57 56  1  0
 58 57  2  0
 59 60  1  0
 59 53  2  0
 60 55  2  0
 61 54  1  0
 62 52  1  0
 64 66  2  0
 65 64  1  0
 67 65  1  0
 68 77  2  0
 68 73  1  0
 69 65  1  0
 69 73  1  0
 70 69  1  0
 71 72  1  0
 71 70  1  0
 72 68  1  0
 73 74  2  0
 74 75  1  0
 76 75  2  0
 77 76  1  0
 78 52  1  0
 78 83  1  0
 78 79  1  0
 79 82  1  1
 79 80  1  0
 81 79  1  0
 83 86  1  0
 84 88  1  0
 84 83  1  0
 85 84  2  0
 88 87  1  0
 90 88  1  0
 90 91  1  0
 90 89  1  0
M  ISO  4  11 100  19 100  50 101  51 101
M  END
>  <TORSDO>  (91) 
F 19

>  <SCORE>  (91) 
-14.331

>  <name>  (91) 
90

>  <ligand_id>  (91) 
90

>  <original_smiles>  (91) 
[H]c1c([H])c(C(=O)N(C([H])([H])[H])C([H])([H])C([H])([H])Oc2c([H])c([H])c3c(c2[H])C([H])([H])N(C(=O)C([H])(N([H])C(=O)C([H])(N([H])C([H])([H])[H])C([H])([H])[H])C(C([H])([H])[H])(C([H])([H])[H])C([H])([H])[H])C([H])(C(=O)N([H])C2([H])c4c([H])c([H])c([H])c([H])c4C([H])([H])C([H])([H])C2([H])[H])C3([H])[H])c([H])c(N([H])C(=O)N2C([H])([H])C([H])([H])C([H])([H])C([H])(n3nc(-c4c([H])c([H])c(Oc5c([H])c([H])c(F)c([H])c5F)c([H])c4[H])c(C(=O)N([H])[H])c3N([H])[H])C2([H])[H])c1[H]

>  <smiles>  (91) 
[H]c1c([H])c(C(=O)N(C([H])([H])[H])C([H])([H])C([H])([H])Oc2c([H])c([H])c3c(c2[H])C([H])([H])N(C(=O)C([H])(N([H])C(=O)C([H])(N([H])C([H])([H])[H])C([H])([H])[H])C(C([H])([H])[H])(C([H])([H])[H])C([H])([H])[H])C([H])(C(=O)N([H])C2([H])c4c([H])c([H])c([H])c([H])c4C([H])([H])C([H])([H])C2([H])[H])C3([H])[H])c([H])c(N([H])C(=O)N2C([H])([H])C([H])([H])C([H])([H])C([H])(n3nc(-c4c([H])c([H])c(Oc5c([H])c([H])c(F)c([H])c5F)c([H])c4[H])c(C(=O)N([H])[H])c3N([H])[H])C2([H])[H])c1[H]

$$$$
91:0:0
     RDKit          3D

104113  0  0  1  0  0  0  0  0999 V2000
  -32.2910  -20.5750   22.3410 C   0  0  0  0  0  0  0  0  0  0  0  0
  -30.1710  -21.9230   21.9910 C   0  0  0  0  0  3  0  0  0  0  0  0
  -31.0220  -21.1510   22.9800 C   0  0  0  0  0  2  0  0  0  0  0  0
  -31.0910  -20.5160   20.1610 C   0  0  0  0  0  3  0  0  0  0  0  0
  -33.4650  -19.8570   20.2940 C   0  0  0  0  0  1  0  0  0  0  0  0
  -29.1810  -23.1790   23.8670 C   0  0  0  0  0  1  0  0  0  0  0  0
  -32.2790  -20.3420   21.0090 N   0  0  0  0  0  0  0  0  0  0  0  0
  -30.2520  -21.6010   20.6830 N   0  0  0  0  0  0  0  0  0  0  0  0
  -29.3210  -22.8940   22.4260 N   0  0  0  0  0  0  0  0  0  0  0  0
  -33.2760  -20.3560   23.0570 O   0  0  0  0  0  0  0  0  0  0  0  0
  -29.6820  -22.0730   19.9940 H   0  0  0  0  0  0  0  0  0  0  0  0
  -30.4190  -18.0460   20.6260 C   0  0  0  0  0  3  0  0  0  0  0  0
  -29.3300  -19.3080   18.8410 C   0  0  0  0  0  3  0  0  0  0  0  0
  -28.7230  -16.9870   19.2200 C   0  0  0  0  0  3  0  0  0  0  0  0
  -30.2750  -19.2510   19.8890 C   0  0  0  0  0  0  0  0  0  0  0  0
  -29.6500  -16.9060   20.2870 C   0  0  0  0  0  0  0  0  0  0  0  0
  -28.5610  -18.1840   18.5040 C   0  0  0  0  0  0  0  0  0  0  0  0
  -27.6700  -18.2540   17.4870 F   0  0  0  0  0  0  0  0  0  0  0  0
  -30.5700  -14.6960   20.5940 C   0  0  0  0  0  0  0  0  0  0  0  0
  -30.3550  -12.5630   19.4050 C   0  0  0  0  0  2  0  0  0  0  0  0
  -29.4010  -12.7820   18.2120 C   0  0  0  0  0  2  0  0  0  0  0  0
  -27.9330  -12.5800   18.6430 C   0  0  0  0  0  2  0  0  0  0  0  0
  -27.5710  -13.3570   19.9400 C   0  0  0  0  0  3  0  0  0  0  0  0
  -28.6430  -13.1320   21.0330 C   0  0  0  0  0  2  0  0  0  0  0  0
  -29.9550  -13.4920   20.4690 N   0  0  0  0  0  0  0  0  0  0  0  0
  -31.7100  -14.9290   20.1800 O   0  0  0  0  0  0  0  0  0  0  0  0
  -29.7710  -15.6910   21.0140 N   0  0  0  0  0  0  0  0  0  0  0  0
  -28.9070  -15.3440   21.4060 H   0  0  0  0  0  0  0  0  0  0  0  0
  -25.1490  -13.8710   20.6440 C   0  0  0  0  0  0  0  0  0  0  0  0
  -24.1070  -13.0520   20.9900 C   0  0  0  0  0  0  0  0  0  0  0  0
  -24.6190  -11.7200   20.9350 C   0  0  0  0  0  0  0  0  0  0  0  0
  -26.2270  -13.0310   20.4060 N   0  0  0  0  0  0  0  0  0  0  0  0
  -25.9110  -11.7320   20.6360 N   0  0  0  0  0  0  0  0  0  0  0  0
  -23.9440  -10.4270   21.0950 C   0  0  0  0  0  0  0  0  0  0  0  0
  -24.3790   -9.4830   22.0500 C   0  0  0  0  0  3  0  0  0  0  0  0
  -23.7030   -8.2520   22.1980 C   0  0  0  0  0  3  0  0  0  0  0  0
  -22.5800   -7.9590   21.3920 C   0  0  0  0  0  0  0  0  0  0  0  0
  -22.1670   -8.8930   20.4260 C   0  0  0  0  0  3  0  0  0  0  0  0
  -22.8430  -10.1150   20.2740 C   0  0  0  0  0  3  0  0  0  0  0  0
  -21.8770   -6.7810   21.4480 O   0  0  0  0  0  0  0  0  0  0  0  0
  -21.7700   -6.0620   22.6110 C   0  0  0  0  0  0  0  0  0  0  0  0
  -21.1910   -6.6080   23.7770 C   0  0  0  0  0  3  0  0  0  0  0  0
  -21.0430   -5.8130   24.9290 C   0  0  0  0  0  3  0  0  0  0  0  0
  -21.4610   -4.4690   24.9170 C   0  0  0  0  0  0  0  0  0  0  0  0
  -22.0300   -3.9200   23.7550 C   0  0  0  0  0  3  0  0  0  0  0  0
  -22.1830   -4.7150   22.6040 C   0  0  0  0  0  0  0  0  0  0  0  0
  -22.7140   -4.1760   21.4810 F   0  0  0  0  0  0  0  0  0  0  0  0
  -21.3100   -3.7000   26.0200 F   0  0  0  0  0  0  0  0  0  0  0  0
  -22.6910  -13.4710   21.2590 C   0  0  0  0  0  0  0  0  0  0  0  0
  -21.9810  -12.7250   22.0990 N   0  0  0  0  0  0  0  0  0  0  0  0
  -22.2190  -14.4930   20.7620 O   0  0  0  0  0  0  0  0  0  0  0  0
  -22.3700  -11.8950   22.5210 H   0  0  0  0  0  0  0  0  0  0  0  0
  -21.0320  -12.9880   22.3270 H   0  0  0  0  0  0  0  0  0  0  0  0
  -25.2630  -15.2500   20.4910 N   0  0  0  0  0  0  0  0  0  0  0  0
  -24.4690  -15.8710   20.6080 H   0  0  0  0  0  0  0  0  0  0  0  0
  -26.0950  -15.7300   20.1710 H   0  0  0  0  0  0  0  0  0  0  0  0
  -28.3960  -23.6380   21.5330 C   0  0  0  0  0  2  0  0  0  0  0  0
  -28.5460  -25.1880   21.6010 C   0  0  0  0  0  3  0  0  0  0  0  0
  -27.3190  -25.7900   22.1880 N   0  0  0  0  0  4  0  0  0  0  0  0
  -26.4880  -25.5460   21.6720 H   0  0  0  0  0  0  0  0  0  0  0  0
  -27.4010  -26.7930   22.1870 H   0  0  0  0  0  0  0  0  0  0  0  0
  -27.1830  -25.5080   23.1450 H   0  0  0  0  0  0  0  0  0  0  0  0
  -28.8680  -25.7820   20.1970 C   0  0  0  0  0  2  0  0  0  0  0  0
  -28.8360  -27.2180   20.1460 O   0  0  0  0  0  0  0  0  0  0  0  0
  -24.6060  -31.9350   23.3080 C   0  0  0  0  0  0  0  0  0  0  0  0
  -27.6170  -27.8610   20.0780 C   0  0  0  0  0  0  0  0  0  0  0  0
  -23.5370  -30.5420   21.5690 C   0  0  0  0  0  3  0  0  0  0  0  0
  -25.1220  -29.1890   20.1010 C   0  0  0  0  0  0  0  0  0  0  0  0
  -26.0320  -31.0870   21.4480 C   0  0  0  0  0  2  0  0  0  0  0  0
  -26.2250  -29.7600   20.7470 C   0  0  0  0  0  0  0  0  0  0  0  0
  -27.4730  -29.1010   20.7360 C   0  0  0  0  0  3  0  0  0  0  0  0
  -26.4980  -27.3130   19.4040 C   0  0  0  0  0  3  0  0  0  0  0  0
  -25.2530  -27.9650   19.4280 C   0  0  0  0  0  3  0  0  0  0  0  0
  -23.8190  -29.9530   20.1620 C   0  0  0  0  0  2  0  0  0  0  0  0
  -24.7420  -31.1970   22.1710 N   0  0  0  0  0  0  0  0  0  0  0  0
  -23.4970  -32.1040   23.8340 O   0  0  0  0  0  0  0  0  0  0  0  0
  -22.9380  -29.4280   22.4570 C   0  0  0  0  0  0  0  0  0  0  0  0
  -21.6360  -29.1530   22.2760 N   0  0  0  0  0  0  0  0  0  0  0  0
  -23.6430  -28.8140   23.2620 O   0  0  0  0  0  0  0  0  0  0  0  0
  -21.1250  -29.7050   21.6020 H   0  0  0  0  0  0  0  0  0  0  0  0
  -18.3420  -27.7140   22.6130 C   0  0  0  0  0  0  0  0  0  0  0  0
  -20.8690  -28.1210   22.9720 C   0  0  0  0  0  3  0  0  0  0  0  0
  -21.0830  -26.7350   22.3230 C   0  0  0  0  0  2  0  0  0  0  0  0
  -20.0280  -26.3970   21.2630 C   0  0  0  0  0  2  0  0  0  0  0  0
  -18.6240  -26.4170   21.8750 C   0  0  0  0  0  2  0  0  0  0  0  0
  -19.3960  -28.5210   23.1150 C   0  0  0  0  0  0  0  0  0  0  0  0
  -19.0790  -29.7350   23.7620 C   0  0  0  0  0  3  0  0  0  0  0  0
  -17.7410  -30.1410   23.9180 C   0  0  0  0  0  3  0  0  0  0  0  0
  -16.7010  -29.3280   23.4350 C   0  0  0  0  0  3  0  0  0  0  0  0
  -17.0020  -28.1190   22.7850 C   0  0  0  0  0  3  0  0  0  0  0  0
  -25.8310  -32.6180   23.9910 C   0  0  0  0  0  3  0  0  0  0  0  0
  -25.4630  -34.0100   24.2740 N   0  0  0  0  0  0  0  0  0  0  0  0
  -25.7930  -35.0560   23.5040 C   0  0  0  0  0  0  0  0  0  0  0  0
  -26.5110  -34.9510   22.5050 O   0  0  0  0  0  0  0  0  0  0  0  0
  -24.8260  -34.1640   25.0430 H   0  0  0  0  0  0  0  0  0  0  0  0
  -24.0060  -36.7630   23.0450 C   0  0  0  0  0  1  0  0  0  0  0  0
  -25.2370  -36.4350   23.9040 C   0  0  0  0  0  3  0  0  0  0  0  0
  -27.3040  -37.4320   24.7740 C   0  0  0  0  0  1  0  0  0  0  0  0
  -26.2300  -37.5250   23.7900 N   0  0  0  0  0  0  0  0  0  0  0  0
  -25.7840  -38.4330   23.8910 H   0  0  0  0  0  0  0  0  0  0  0  0
  -26.2930  -31.8840   25.3100 C   0  0  1  0  0  0  0  0  0  0  0  0
  -25.1410  -31.6030   26.3010 C   0  0  0  0  0  1  0  0  0  0  0  0
  -26.9640  -30.5320   24.9690 C   0  0  0  0  0  1  0  0  0  0  0  0
  -27.3570  -32.7360   26.0400 C   0  0  0  0  0  1  0  0  0  0  0  0
  1  3  1  0
  1 10  2  0
  2  9  1  0
  2  3  1  0
  4 15  1  0
  4  8  1  0
  4  7  1  0
  5  7  1  0
  7  1  1  0
  8  2  1  0
  9  6  1  0
 11  8  1  0
 13 15  1  0
 14 16  2  0
 15 12  2  0
 16 12  1  0
 16 27  1  0
 17 13  2  0
 17 14  1  0
 18 17  1  0
 19 27  1  0
 20 25  1  0
 21 22  1  0
 21 20  1  0
 23 22  1  0
 23 32  1  0
 23 24  1  0
 25 19  1  0
 25 24  1  0
 26 19  2  0
 27 28  1  0
 29 30  2  0
 30 49  1  0
 31 30  1  0
 31 34  1  0
 32 33  1  0
 32 29  1  0
 33 31  2  0
 34 35  1  0
 35 36  2  0
 37 40  1  0
 37 36  1  0
 38 37  2  0
 39 38  1  0
 39 34  2  0
 40 41  1  0
 41 42  1  0
 42 43  2  0
 44 43  1  0
 44 48  1  0
 45 44  2  0
 46 41  2  0
 46 45  1  0
 47 46  1  0
 49 50  1  0
 50 53  1  0
 50 52  1  0
 51 49  2  0
 54 55  1  0
 54 29  1  0
 56 54  1  0
 57 58  1  0
 57  9  1  0
 58 63  1  0
 58 59  1  0
 59 62  1  0
 60 59  1  0
 61 59  1  0
 64 63  1  0
 65 76  2  0
 66 64  1  0
 66 71  1  0
 67 75  1  0
 67 77  1  0
 68 74  1  0
 68 70  1  0
 69 75  1  0
 70 69  1  0
 71 70  2  0
 72 73  1  0
 72 66  2  0
 73 68  2  0
 74 67  1  0
 75 65  1  0
 77 79  2  0
 78 77  1  0
 80 78  1  0
 81 90  2  0
 81 86  1  0
 82 78  1  0
 82 86  1  0
 83 82  1  0
 84 85  1  0
 84 83  1  0
 85 81  1  0
 86 87  2  0
 87 88  1  0
 89 88  2  0
 90 89  1  0
 91 65  1  0
 91 92  1  0
 91101  1  0
 92 95  1  0
 93 97  1  0
 93 92  1  0
 94 93  2  0
 97 96  1  0
 99100  1  0
 99 97  1  0
 99 98  1  0
101104  1  1
101102  1  0
103101  1  0
M  ISO  4  19 100  27 100  63 101  64 101
M  END
>  <TORSDO>  (92) 
F 21

>  <SCORE>  (92) 
-13.836

>  <name>  (92) 
91

>  <ligand_id>  (92) 
91

>  <original_smiles>  (92) 
[H]c1c([H])c([H])c2c(c1[H])C([H])([H])C([H])([H])C([H])([H])C2([H])N([H])C(=O)C1([H])N(C(=O)C([H])(N([H])C(=O)C([H])(N([H])C([H])([H])[H])C([H])([H])[H])C(C([H])([H])[H])(C([H])([H])[H])C([H])([H])[H])C([H])([H])c2c([H])c(OC([H])([H])C([H])(C([H])([H])N(C3=[N+]([H])C([H])(c4c([H])c(F)c([H])c(N([H])C(=O)N5C([H])([H])C([H])([H])C([H])([H])C([H])(n6nc(-c7c([H])c([H])c(Oc8c([H])c([H])c(F)c([H])c8F)c([H])c7[H])c(C(=O)N([H])[H])c6N([H])[H])C5([H])[H])c4[H])N(C([H])([H])[H])C(=O)C3([H])[H])C([H])([H])[H])[N+]([H])([H])[H])c([H])c([H])c2C1([H])[H]

>  <smiles>  (92) 
[H]c1c([H])c([H])c2c(c1[H])C([H])([H])C([H])([H])C([H])([H])C2([H])N([H])C(=O)C1([H])N(C(=O)C([H])(N([H])C(=O)C([H])(N([H])C([H])([H])[H])C([H])([H])[H])C(C([H])([H])[H])(C([H])([H])[H])C([H])([H])[H])C([H])([H])c2c([H])c(OC([H])([H])C([H])(C([H])([H])N(C3=[N+]([H])C([H])(c4c([H])c(F)c([H])c(N([H])C(=O)N5C([H])([H])C([H])([H])C([H])([H])C([H])(n6nc(-c7c([H])c([H])c(Oc8c([H])c([H])c(F)c([H])c8F)c([H])c7[H])c(C(=O)N([H])[H])c6N([H])[H])C5([H])[H])c4[H])N(C([H])([H])[H])C(=O)C3([H])[H])C([H])([H])[H])[N+]([H])([H])[H])c([H])c([H])c2C1([H])[H]

$$$$
92:0:0
     RDKit          3D

 92100  0  0  1  0  0  0  0  0999 V2000
  -30.2410  -21.7150   20.3590 C   0  0  0  0  0  0  0  0  0  0  0  0
  -29.2240  -22.6170   20.1910 N   0  0  0  0  0  0  0  0  0  0  0  0
  -31.3830  -22.1440   20.5470 O   0  0  0  0  0  0  0  0  0  0  0  0
  -28.2910  -22.2540   20.0450 H   0  0  0  0  0  0  0  0  0  0  0  0
  -31.2160  -19.3490   20.0870 C   0  0  0  0  0  3  0  0  0  0  0  0
  -31.1800  -17.9240   20.1470 C   0  0  0  0  0  3  0  0  0  0  0  0
  -28.8260  -18.0460   20.6030 C   0  0  0  0  0  3  0  0  0  0  0  0
  -30.0710  -20.1760   20.2900 C   0  0  0  0  0  0  0  0  0  0  0  0
  -29.9780  -17.2230   20.4200 C   0  0  0  0  0  0  0  0  0  0  0  0
  -28.8620  -19.4770   20.5450 C   0  0  0  0  0  0  0  0  0  0  0  0
  -27.7160  -20.1670   20.7630 F   0  0  0  0  0  0  0  0  0  0  0  0
  -30.6240  -14.7110   20.0850 C   0  0  0  0  0  0  0  0  0  0  0  0
  -30.3360  -12.5040   18.9760 C   0  0  0  0  0  2  0  0  0  0  0  0
  -29.3290  -12.6760   17.8170 C   0  0  0  0  0  2  0  0  0  0  0  0
  -27.8800  -12.5190   18.3180 C   0  0  0  0  0  2  0  0  0  0  0  0
  -27.5980  -13.3510   19.5970 C   0  0  0  0  0  3  0  0  0  0  0  0
  -28.7110  -13.1510   20.6510 C   0  0  0  0  0  2  0  0  0  0  0  0
  -29.9920  -13.4960   20.0150 N   0  0  0  0  0  0  0  0  0  0  0  0
  -31.7650  -14.8620   19.6380 O   0  0  0  0  0  0  0  0  0  0  0  0
  -29.8530  -15.7620   20.5210 N   0  0  0  0  0  0  0  0  0  0  0  0
  -28.9700  -15.4460   20.8940 H   0  0  0  0  0  0  0  0  0  0  0  0
  -25.2520  -13.9580   20.4530 C   0  0  0  0  0  0  0  0  0  0  0  0
  -24.1970  -13.1880   20.8600 C   0  0  0  0  0  0  0  0  0  0  0  0
  -24.6400  -11.8330   20.7710 C   0  0  0  0  0  0  0  0  0  0  0  0
  -26.2720  -13.0720   20.1430 N   0  0  0  0  0  0  0  0  0  0  0  0
  -25.9120  -11.7880   20.3950 N   0  0  0  0  0  0  0  0  0  0  0  0
  -23.9100  -10.5740   20.9680 C   0  0  0  0  0  0  0  0  0  0  0  0
  -24.3480   -9.6020   21.8940 C   0  0  0  0  0  3  0  0  0  0  0  0
  -23.6170   -8.4070   22.0770 C   0  0  0  0  0  3  0  0  0  0  0  0
  -22.4340   -8.1780   21.3360 C   0  0  0  0  0  0  0  0  0  0  0  0
  -22.0150   -9.1390   20.3990 C   0  0  0  0  0  3  0  0  0  0  0  0
  -22.7460  -10.3240   20.2130 C   0  0  0  0  0  3  0  0  0  0  0  0
  -21.6750   -7.0370   21.4290 O   0  0  0  0  0  0  0  0  0  0  0  0
  -21.5970   -6.3180   22.5950 C   0  0  0  0  0  0  0  0  0  0  0  0
  -21.1190   -6.8900   23.7930 C   0  0  0  0  0  3  0  0  0  0  0  0
  -20.9900   -6.0960   24.9510 C   0  0  0  0  0  3  0  0  0  0  0  0
  -21.3300   -4.7300   24.9100 C   0  0  0  0  0  0  0  0  0  0  0  0
  -21.8020   -4.1580   23.7160 C   0  0  0  0  0  3  0  0  0  0  0  0
  -21.9320   -4.9480   22.5610 C   0  0  0  0  0  0  0  0  0  0  0  0
  -22.3670   -4.3870   21.4080 F   0  0  0  0  0  0  0  0  0  0  0  0
  -21.1990   -3.9660   26.0190 F   0  0  0  0  0  0  0  0  0  0  0  0
  -22.8210  -13.6730   21.2160 C   0  0  0  0  0  0  0  0  0  0  0  0
  -22.1260  -12.9580   22.0920 N   0  0  0  0  0  0  0  0  0  0  0  0
  -22.3730  -14.7210   20.7520 O   0  0  0  0  0  0  0  0  0  0  0  0
  -22.5010  -12.1090   22.4900 H   0  0  0  0  0  0  0  0  0  0  0  0
  -21.2040  -13.2640   22.3720 H   0  0  0  0  0  0  0  0  0  0  0  0
  -25.4230  -15.3310   20.2990 N   0  0  0  0  0  0  0  0  0  0  0  0
  -24.6610  -15.9850   20.4480 H   0  0  0  0  0  0  0  0  0  0  0  0
  -26.2400  -15.7650   19.8880 H   0  0  0  0  0  0  0  0  0  0  0  0
  -29.4030  -24.1180   20.3100 C   0  0  0  0  0  3  0  0  0  0  0  0
  -28.2050  -25.0790   19.9140 C   0  0  0  0  0  3  0  0  0  0  0  0
  -28.3850  -26.5370   20.1240 O   0  0  0  0  0  0  0  0  0  0  0  0
  -24.5960  -31.8440   23.2130 C   0  0  0  0  0  0  0  0  0  0  0  0
  -27.2520  -27.3660   20.0830 C   0  0  0  0  0  0  0  0  0  0  0  0
  -23.4060  -30.4670   21.5430 C   0  0  0  0  0  3  0  0  0  0  0  0
  -24.8720  -28.9550   20.0940 C   0  0  0  0  0  0  0  0  0  0  0  0
  -25.9430  -30.8100   21.3720 C   0  0  0  0  0  2  0  0  0  0  0  0
  -26.0360  -29.4450   20.7010 C   0  0  0  0  0  0  0  0  0  0  0  0
  -27.2280  -28.6640   20.6840 C   0  0  0  0  0  3  0  0  0  0  0  0
  -26.0630  -26.9290   19.4540 C   0  0  0  0  0  3  0  0  0  0  0  0
  -24.8870  -27.7030   19.4620 C   0  0  0  0  0  3  0  0  0  0  0  0
  -23.6290  -29.8190   20.1520 C   0  0  0  0  0  2  0  0  0  0  0  0
  -24.6680  -31.0570   22.1000 N   0  0  0  0  0  0  0  0  0  0  0  0
  -23.5100  -32.1040   23.7490 O   0  0  0  0  0  0  0  0  0  0  0  0
  -22.7490  -29.4280   22.4830 C   0  0  0  0  0  0  0  0  0  0  0  0
  -21.4240  -29.2500   22.3530 N   0  0  0  0  0  0  0  0  0  0  0  0
  -23.4290  -28.7870   23.2880 O   0  0  0  0  0  0  0  0  0  0  0  0
  -20.9330  -29.8190   21.6770 H   0  0  0  0  0  0  0  0  0  0  0  0
  -18.0460  -28.0540   22.8470 C   0  0  0  0  0  0  0  0  0  0  0  0
  -20.6070  -28.2950   23.1040 C   0  0  0  0  0  3  0  0  0  0  0  0
  -20.6990  -26.8790   22.4900 C   0  0  0  0  0  2  0  0  0  0  0  0
  -19.5870  -26.5880   21.4760 C   0  0  0  0  0  2  0  0  0  0  0  0
  -18.2110  -26.7220   22.1330 C   0  0  0  0  0  2  0  0  0  0  0  0
  -19.1710  -28.8000   23.2880 C   0  0  0  0  0  0  0  0  0  0  0  0
  -18.9620  -30.0480   23.9150 C   0  0  0  0  0  3  0  0  0  0  0  0
  -17.6600  -30.5490   24.1050 C   0  0  0  0  0  3  0  0  0  0  0  0
  -16.5500  -29.8010   23.6780 C   0  0  0  0  0  3  0  0  0  0  0  0
  -16.7430  -28.5550   23.0550 C   0  0  0  0  0  3  0  0  0  0  0  0
  -25.8730  -32.4730   23.8500 C   0  0  0  0  0  3  0  0  0  0  0  0
  -26.3780  -31.6930   25.1260 C   0  0  1  0  0  0  0  0  0  0  0  0
  -25.2750  -31.4430   26.1800 C   0  0  0  0  0  1  0  0  0  0  0  0
  -26.9710  -30.3220   24.7300 C   0  0  0  0  0  1  0  0  0  0  0  0
  -27.5180  -32.4870   25.8070 C   0  0  0  0  0  1  0  0  0  0  0  0
  -25.5590  -33.8680   24.1880 N   0  0  0  0  0  0  0  0  0  0  0  0
  -25.8760  -34.9260   23.4290 C   0  0  0  0  0  0  0  0  0  0  0  0
  -26.5340  -34.8290   22.3890 O   0  0  0  0  0  0  0  0  0  0  0  0
  -24.9720  -34.0160   24.9970 H   0  0  0  0  0  0  0  0  0  0  0  0
  -24.1250  -36.7040   23.1110 C   0  0  0  0  0  1  0  0  0  0  0  0
  -25.3860  -36.3100   23.8960 C   0  0  0  0  0  3  0  0  0  0  0  0
  -27.5240  -37.2210   24.6900 C   0  0  0  0  0  1  0  0  0  0  0  0
  -26.4060  -37.3720   23.7610 N   0  0  0  0  0  0  0  0  0  0  0  0
  -25.9950  -38.2900   23.9080 H   0  0  0  0  0  0  0  0  0  0  0  0
  1  3  2  0
  2 50  1  0
  2  1  1  0
  4  2  1  0
  5  6  2  0
  5  8  1  0
  6  9  1  0
  8  1  1  0
  8 10  2  0
  9 20  1  0
  9  7  2  0
 10  7  1  0
 10 11  1  0
 12 20  1  0
 13 18  1  0
 14 15  1  0
 14 13  1  0
 16 15  1  0
 16 25  1  0
 16 17  1  0
 18 12  1  0
 18 17  1  0
 19 12  2  0
 20 21  1  0
 22 23  2  0
 23 42  1  0
 24 23  1  0
 24 27  1  0
 25 26  1  0
 25 22  1  0
 26 24  2  0
 27 28  1  0
 28 29  2  0
 30 33  1  0
 30 29  1  0
 31 30  2  0
 32 31  1  0
 32 27  2  0
 33 34  1  0
 34 35  1  0
 35 36  2  0
 37 36  1  0
 37 41  1  0
 38 37  2  0
 39 34  2  0
 39 38  1  0
 40 39  1  0
 42 43  1  0
 43 46  1  0
 43 45  1  0
 44 42  2  0
 47 48  1  0
 47 22  1  0
 49 47  1  0
 51 52  1  0
 51 50  2  0
 53 64  2  0
 54 52  1  0
 54 59  1  0
 55 63  1  0
 55 65  1  0
 56 62  1  0
 56 58  1  0
 57 63  1  0
 58 57  1  0
 59 58  2  0
 60 61  1  0
 60 54  2  0
 61 56  2  0
 62 55  1  0
 63 53  1  0
 65 67  2  0
 66 65  1  0
 68 66  1  0
 69 78  2  0
 69 74  1  0
 70 66  1  0
 70 74  1  0
 71 70  1  0
 72 73  1  0
 72 71  1  0
 73 69  1  0
 74 75  2  0
 75 76  1  0
 77 76  2  0
 78 77  1  0
 79 53  1  0
 79 84  1  0
 79 80  1  0
 80 83  1  1
 80 81  1  0
 82 80  1  0
 84 87  1  0
 85 89  1  0
 85 84  1  0
 86 85  2  0
 89 88  1  0
 91 89  1  0
 91 92  1  0
 91 90  1  0
M  ISO  4  12 100  20 100  51 101  52 101
M  END
>  <TORSDO>  (93) 
F 19

>  <SCORE>  (93) 
-14.260

>  <name>  (93) 
92

>  <ligand_id>  (93) 
92

>  <original_smiles>  (93) 
[H]c1c([H])c([H])c2c(c1[H])C([H])([H])C([H])([H])C([H])([H])C2([H])N([H])C(=O)C1([H])N(C(=O)C([H])(N([H])C(=O)C([H])(N([H])C([H])([H])[H])C([H])([H])[H])C(C([H])([H])[H])(C([H])([H])[H])C([H])([H])[H])C([H])([H])c2c([H])c(OC([H])([H])C([H])([H])N([H])C(=O)c3c([H])c([H])c(N([H])C(=O)N4C([H])([H])C([H])([H])C([H])([H])C([H])(n5nc(-c6c([H])c([H])c(Oc7c([H])c([H])c(F)c([H])c7F)c([H])c6[H])c(C(=O)N([H])[H])c5N([H])[H])C4([H])[H])c([H])c3F)c([H])c([H])c2C1([H])[H]

>  <smiles>  (93) 
[H]c1c([H])c([H])c2c(c1[H])C([H])([H])C([H])([H])C([H])([H])C2([H])N([H])C(=O)C1([H])N(C(=O)C([H])(N([H])C(=O)C([H])(N([H])C([H])([H])[H])C([H])([H])[H])C(C([H])([H])[H])(C([H])([H])[H])C([H])([H])[H])C([H])([H])c2c([H])c(OC([H])([H])C([H])([H])N([H])C(=O)c3c([H])c([H])c(N([H])C(=O)N4C([H])([H])C([H])([H])C([H])([H])C([H])(n5nc(-c6c([H])c([H])c(Oc7c([H])c([H])c(F)c([H])c7F)c([H])c6[H])c(C(=O)N([H])[H])c5N([H])[H])C4([H])[H])c([H])c3F)c([H])c([H])c2C1([H])[H]

$$$$
93:0:0
     RDKit          3D

106114  0  0  1  0  0  0  0  0999 V2000
  -31.1390  -17.8600   22.9900 C   0  0  0  0  0  2  0  0  0  0  0  0
  -29.3770  -18.3520   21.2890 C   0  0  0  0  0  3  0  0  0  0  0  0
  -30.5280  -16.6080   19.4340 C   0  0  0  0  0  3  0  0  0  0  0  0
  -28.9530  -18.4530   19.9530 C   0  0  0  0  0  0  0  0  0  0  0  0
  -30.4280  -17.4940   21.6830 C   0  0  0  0  0  0  0  0  0  0  0  0
  -29.6100  -17.6250   18.9790 C   0  0  0  0  0  0  0  0  0  0  0  0
  -30.9070  -16.4730   20.8040 C   0  0  0  0  0  0  0  0  0  0  0  0
  -32.1580  -14.1730   21.2470 C   0  0  0  0  0  0  0  0  0  0  0  0
  -31.6890  -11.7480   21.3590 C   0  0  0  0  0  2  0  0  0  0  0  0
  -31.1040  -11.2250   20.0340 C   0  0  0  0  0  2  0  0  0  0  0  0
  -29.5750  -11.3230   20.0800 C   0  0  0  0  0  2  0  0  0  0  0  0
  -29.0930  -12.7210   20.5420 C   0  0  0  0  0  3  0  0  0  0  0  0
  -29.8410  -13.2650   21.7830 C   0  0  0  0  0  2  0  0  0  0  0  0
  -31.2800  -13.1630   21.5220 N   0  0  0  0  0  0  0  0  0  0  0  0
  -33.3430  -13.9160   20.9990 O   0  0  0  0  0  0  0  0  0  0  0  0
  -31.8570  -15.5010   21.3500 N   0  0  0  0  0  0  0  0  0  0  0  0
  -32.7510  -15.9340   21.5260 H   0  0  0  0  0  0  0  0  0  0  0  0
  -26.7980  -13.8380   20.6990 C   0  0  0  0  0  0  0  0  0  0  0  0
  -25.5350  -13.3480   20.8530 C   0  0  0  0  0  0  0  0  0  0  0  0
  -25.6880  -11.9320   20.9530 C   0  0  0  0  0  0  0  0  0  0  0  0
  -27.6520  -12.7510   20.7320 N   0  0  0  0  0  0  0  0  0  0  0  0
  -26.9740  -11.5970   20.9430 N   0  0  0  0  0  0  0  0  0  0  0  0
  -24.6780  -10.8740   20.9940 C   0  0  0  0  0  0  0  0  0  0  0  0
  -24.7910   -9.7840   21.8840 C   0  0  0  0  0  3  0  0  0  0  0  0
  -23.7930   -8.7890   21.9240 C   0  0  0  0  0  3  0  0  0  0  0  0
  -22.6730   -8.8770   21.0630 C   0  0  0  0  0  0  0  0  0  0  0  0
  -22.5720   -9.9530   20.1630 C   0  0  0  0  0  3  0  0  0  0  0  0
  -23.5710  -10.9390   20.1250 C   0  0  0  0  0  3  0  0  0  0  0  0
  -21.6700   -7.9390   21.0170 O   0  0  0  0  0  0  0  0  0  0  0  0
  -21.4170   -7.0980   22.0730 C   0  0  0  0  0  0  0  0  0  0  0  0
  -21.1440   -7.5910   23.3690 C   0  0  0  0  0  3  0  0  0  0  0  0
  -20.8190   -6.6950   24.4080 C   0  0  0  0  0  3  0  0  0  0  0  0
  -20.7690   -5.3110   24.1540 C   0  0  0  0  0  0  0  0  0  0  0  0
  -21.0430   -4.8180   22.8660 C   0  0  0  0  0  3  0  0  0  0  0  0
  -21.3660   -5.7110   21.8280 C   0  0  0  0  0  0  0  0  0  0  0  0
  -21.6130   -5.2360   20.5850 F   0  0  0  0  0  0  0  0  0  0  0  0
  -20.4540   -4.4510   25.1480 F   0  0  0  0  0  0  0  0  0  0  0  0
  -24.2570  -14.1350   20.8110 C   0  0  0  0  0  0  0  0  0  0  0  0
  -23.2430  -13.6910   21.5440 N   0  0  0  0  0  0  0  0  0  0  0  0
  -24.1670  -15.1870   20.1770 O   0  0  0  0  0  0  0  0  0  0  0  0
  -23.3340  -12.8570   22.1040 H   0  0  0  0  0  0  0  0  0  0  0  0
  -22.3670  -14.1950   21.5630 H   0  0  0  0  0  0  0  0  0  0  0  0
  -27.2800  -15.1170   20.5080 N   0  0  0  0  0  0  0  0  0  0  0  0
  -26.6380  -15.8830   20.3530 H   0  0  0  0  0  0  0  0  0  0  0  0
  -28.2440  -15.4190   20.4870 H   0  0  0  0  0  0  0  0  0  0  0  0
  -27.8970  -19.5090   19.6670 C   0  0  0  0  0  0  0  0  0  0  0  0
  -28.3030  -20.6630   19.1460 N   0  0  0  0  0  0  0  0  0  0  0  0
  -26.7200  -19.3430   20.0070 O   0  0  0  0  0  0  0  0  0  0  0  0
  -29.2630  -20.7850   18.8770 H   0  0  0  0  0  0  0  0  0  0  0  0
  -27.6520  -21.4280   19.0430 H   0  0  0  0  0  0  0  0  0  0  0  0
  -28.0730  -17.8680   17.0160 C   0  0  0  0  0  1  0  0  0  0  0  0
  -30.5390  -18.3450   16.8210 C   0  0  0  0  0  1  0  0  0  0  0  0
  -29.4220  -17.7790   17.5840 N   0  0  0  0  0  0  0  0  0  0  0  0
  -33.1600  -19.2230   23.4530 C   0  0  0  0  0  1  0  0  0  0  0  0
  -31.8120  -19.1980   22.8260 N   0  0  2  0  0  4  0  0  0  0  0  0
  -31.9860  -19.2970   21.8380 H   0  0  0  0  0  0  0  0  0  0  0  0
  -30.9890  -20.3910   23.2260 C   0  0  0  0  0  2  0  0  0  0  0  0
  -30.2750  -21.1410   22.0450 C   0  0  0  0  0  2  0  0  0  0  0  0
  -32.0430  -22.5570   21.1570 C   0  0  0  0  0  1  0  0  0  0  0  0
  -30.7040  -22.5360   21.7510 N   0  0  0  0  0  0  0  0  0  0  0  0
  -29.7160  -23.2750   20.9090 C   0  0  0  0  0  2  0  0  0  0  0  0
  -29.8240  -24.8460   20.8400 C   0  0  0  0  0  3  0  0  0  0  0  0
  -30.8520  -25.2170   19.9340 O   0  0  0  0  0  0  0  0  0  0  0  0
  -31.0040  -26.1500   20.0540 H   0  0  0  0  0  0  0  0  0  0  0  0
  -28.5200  -25.5420   20.3370 C   0  0  0  0  0  2  0  0  0  0  0  0
  -28.5710  -26.9810   20.4380 O   0  0  0  0  0  0  0  0  0  0  0  0
  -24.5710  -32.0780   23.3800 C   0  0  0  0  0  0  0  0  0  0  0  0
  -27.3770  -27.6800   20.3590 C   0  0  0  0  0  0  0  0  0  0  0  0
  -23.4290  -30.6680   21.7000 C   0  0  0  0  0  3  0  0  0  0  0  0
  -24.9480  -29.1560   20.3050 C   0  0  0  0  0  0  0  0  0  0  0  0
  -25.9580  -31.0670   21.5690 C   0  0  0  0  0  2  0  0  0  0  0  0
  -26.0810  -29.6990   20.9180 C   0  0  0  0  0  0  0  0  0  0  0  0
  -27.3020  -28.9800   20.9210 C   0  0  0  0  0  3  0  0  0  0  0  0
  -26.2170  -27.1550   19.7400 C   0  0  0  0  0  3  0  0  0  0  0  0
  -25.0120  -27.8860   19.7080 C   0  0  0  0  0  3  0  0  0  0  0  0
  -23.6830  -29.9910   20.3280 C   0  0  0  0  0  2  0  0  0  0  0  0
  -24.6680  -31.2870   22.2720 N   0  0  0  0  0  0  0  0  0  0  0  0
  -23.4690  -32.3270   23.8910 O   0  0  0  0  0  0  0  0  0  0  0  0
  -22.7670  -29.6320   22.6370 C   0  0  0  0  0  0  0  0  0  0  0  0
  -21.4520  -29.4250   22.4680 N   0  0  0  0  0  0  0  0  0  0  0  0
  -23.4400  -29.0160   23.4680 O   0  0  0  0  0  0  0  0  0  0  0  0
  -20.9690  -29.9720   21.7680 H   0  0  0  0  0  0  0  0  0  0  0  0
  -18.0910  -28.1500   22.8470 C   0  0  0  0  0  0  0  0  0  0  0  0
  -20.6300  -28.4680   23.2120 C   0  0  0  0  0  3  0  0  0  0  0  0
  -20.7860  -27.0370   22.6480 C   0  0  0  0  0  2  0  0  0  0  0  0
  -19.7310  -26.6850   21.5940 C   0  0  0  0  0  2  0  0  0  0  0  0
  -18.3220  -26.8020   22.1830 C   0  0  0  0  0  2  0  0  0  0  0  0
  -19.1740  -28.9410   23.3140 C   0  0  0  0  0  0  0  0  0  0  0  0
  -18.9020  -30.2020   23.8860 C   0  0  0  0  0  3  0  0  0  0  0  0
  -17.5800  -30.6710   24.0010 C   0  0  0  0  0  3  0  0  0  0  0  0
  -16.5110  -29.8770   23.5470 C   0  0  0  0  0  3  0  0  0  0  0  0
  -16.7680  -28.6180   22.9750 C   0  0  0  0  0  3  0  0  0  0  0  0
  -25.8270  -32.7250   24.0350 C   0  0  0  0  0  3  0  0  0  0  0  0
  -25.4970  -34.1250   24.3380 N   0  0  0  0  0  0  0  0  0  0  0  0
  -25.8720  -35.1720   23.5950 C   0  0  0  0  0  0  0  0  0  0  0  0
  -26.6020  -35.0640   22.6060 O   0  0  0  0  0  0  0  0  0  0  0  0
  -24.8550  -34.2770   25.1020 H   0  0  0  0  0  0  0  0  0  0  0  0
  -24.1620  -36.9540   23.1260 C   0  0  0  0  0  1  0  0  0  0  0  0
  -25.3540  -36.5620   24.0130 C   0  0  0  0  0  3  0  0  0  0  0  0
  -27.4400  -37.4510   24.9520 C   0  0  0  0  0  1  0  0  0  0  0  0
  -26.3870  -37.6180   23.9550 N   0  0  0  0  0  0  0  0  0  0  0  0
  -25.9710  -38.5370   24.0790 H   0  0  0  0  0  0  0  0  0  0  0  0
  -26.3070  -31.9720   25.3330 C   0  0  1  0  0  0  0  0  0  0  0  0
  -25.1790  -31.7310   26.3670 C   0  0  0  0  0  1  0  0  0  0  0  0
  -26.9190  -30.5960   24.9730 C   0  0  0  0  0  1  0  0  0  0  0  0
  -27.4240  -32.7850   26.0270 C   0  0  0  0  0  1  0  0  0  0  0  0
  2  5  1  0
  3  7  1  0
  4  2  2  0
  5  1  1  0
  6  3  2  0
  6  4  1  0
  7 16  1  0
  7  5  2  0
  8 16  1  0
  8 14  1  0
  9 14  1  0
 10 11  1  0
 10  9  1  0
 12 11  1  0
 12 21  1  0
 12 13  1  0
 14 13  1  0
 15  8  2  0
 16 17  1  0
 18 21  1  0
 18 19  2  0
 19 20  1  0
 20 23  1  0
 21 22  1  0
 22 20  2  0
 23 24  1  0
 24 25  2  0
 26 25  1  0
 27 26  2  0
 28 27  1  0
 28 23  2  0
 29 26  1  0
 29 30  1  0
 30 31  1  0
 31 32  2  0
 33 32  1  0
 33 37  1  0
 34 33  2  0
 35 30  2  0
 35 34  1  0
 36 35  1  0
 38 19  1  0
 38 39  1  0
 39 42  1  0
 39 41  1  0
 40 38  2  0
 43 18  1  0
 44 43  1  0
 45 43  1  0
 46  4  1  0
 46 48  2  0
 47 46  1  0
 49 47  1  0
 50 47  1  0
 51 53  1  0
 52 53  1  0
 53  6  1  0
 55  1  1  0
 55 57  1  0
 55 54  1  0
 55 56  1  6
 58 57  1  0
 59 60  1  0
 60 58  1  0
 61 60  1  0
 62 65  1  0
 62 61  1  0
 63 64  1  0
 63 62  1  0
 65 66  1  0
 67 78  2  0
 68 66  1  0
 68 73  1  0
 69 77  1  0
 69 79  1  0
 70 76  1  0
 70 72  1  0
 71 77  1  0
 72 73  2  0
 72 71  1  0
 74 68  2  0
 75 74  1  0
 75 70  2  0
 76 69  1  0
 77 67  1  0
 79 81  2  0
 80 79  1  0
 82 80  1  0
 83 92  2  0
 83 88  1  0
 84 80  1  0
 84 88  1  0
 85 84  1  0
 86 87  1  0
 86 85  1  0
 87 83  1  0
 88 89  2  0
 89 90  1  0
 91 90  2  0
 92 91  1  0
 93 67  1  0
 93 94  1  0
 93103  1  0
 94 97  1  0
 95 99  1  0
 95 94  1  0
 96 95  2  0
 99 98  1  0
101 99  1  0
101102  1  0
101100  1  0
103106  1  1
103104  1  0
105103  1  0
M  ISO  4   8 100  16 100  65 101  66 101
M  END
>  <TORSDO>  (94) 
F 27

>  <SCORE>  (94) 
-7.220

>  <name>  (94) 
93

>  <ligand_id>  (94) 
93

>  <original_smiles>  (94) 
[H]OC([H])(C([H])([H])Oc1c([H])c([H])c2c(c1[H])C([H])([H])N(C(=O)C([H])(N([H])C(=O)C([H])(N([H])C([H])([H])[H])C([H])([H])[H])C(C([H])([H])[H])(C([H])([H])[H])C([H])([H])[H])C([H])(C(=O)N([H])C1([H])c3c([H])c([H])c([H])c([H])c3C([H])([H])C([H])([H])C1([H])[H])C2([H])[H])C([H])([H])N(C([H])([H])[H])C([H])([H])C([H])([H])[N+]([H])(C([H])([H])[H])C([H])([H])c1c([H])c(C(=O)N([H])[H])c(N(C([H])([H])[H])C([H])([H])[H])c([H])c1N([H])C(=O)N1C([H])([H])C([H])([H])C([H])([H])C([H])(n2nc(-c3c([H])c([H])c(Oc4c([H])c([H])c(F)c([H])c4F)c([H])c3[H])c(C(=O)N([H])[H])c2N([H])[H])C1([H])[H]

>  <smiles>  (94) 
[H]OC([H])(C([H])([H])Oc1c([H])c([H])c2c(c1[H])C([H])([H])N(C(=O)C([H])(N([H])C(=O)C([H])(N([H])C([H])([H])[H])C([H])([H])[H])C(C([H])([H])[H])(C([H])([H])[H])C([H])([H])[H])C([H])(C(=O)N([H])C1([H])c3c([H])c([H])c([H])c([H])c3C([H])([H])C([H])([H])C1([H])[H])C2([H])[H])C([H])([H])N(C([H])([H])[H])C([H])([H])C([H])([H])[N+]([H])(C([H])([H])[H])C([H])([H])c1c([H])c(C(=O)N([H])[H])c(N(C([H])([H])[H])C([H])([H])[H])c([H])c1N([H])C(=O)N1C([H])([H])C([H])([H])C([H])([H])C([H])(n2nc(-c3c([H])c([H])c(Oc4c([H])c([H])c(F)c([H])c4F)c([H])c3[H])c(C(=O)N([H])[H])c2N([H])[H])C1([H])[H]

$$$$
94:0:0
     RDKit          3D

 92100  0  0  1  0  0  0  0  0999 V2000
  -27.6080  -22.0510   20.3610 C   0  0  0  0  0  1  0  0  0  0  0  0
  -29.0010  -22.5670   20.4000 N   0  0  2  0  0  4  0  0  0  0  0  0
  -29.2330  -22.6240   21.3820 H   0  0  0  0  0  0  0  0  0  0  0  0
  -30.6160  -24.4690   19.8240 C   0  0  0  0  0  1  0  0  0  0  0  0
  -29.1400  -24.0010   19.8360 C   0  0  0  0  0  3  0  0  0  0  0  0
  -28.2580  -25.1410   20.5320 C   0  0  0  0  0  2  0  0  0  0  0  0
  -28.4030  -26.5390   20.0670 O   0  0  0  0  0  0  0  0  0  0  0  0
  -24.6230  -31.8420   23.1780 C   0  0  0  0  0  0  0  0  0  0  0  0
  -27.2630  -27.3510   20.0760 C   0  0  0  0  0  0  0  0  0  0  0  0
  -23.4220  -30.4530   21.5280 C   0  0  0  0  0  3  0  0  0  0  0  0
  -24.8770  -28.9200   20.0910 C   0  0  0  0  0  0  0  0  0  0  0  0
  -25.9570  -30.7980   21.3370 C   0  0  0  0  0  2  0  0  0  0  0  0
  -26.0440  -29.4260   20.6790 C   0  0  0  0  0  0  0  0  0  0  0  0
  -27.2410  -28.6530   20.6580 C   0  0  0  0  0  3  0  0  0  0  0  0
  -26.0780  -26.8950   19.4580 C   0  0  0  0  0  3  0  0  0  0  0  0
  -24.8950  -27.6610   19.4730 C   0  0  0  0  0  3  0  0  0  0  0  0
  -23.6360  -29.7880   20.1420 C   0  0  0  0  0  2  0  0  0  0  0  0
  -24.6870  -31.0470   22.0720 N   0  0  0  0  0  0  0  0  0  0  0  0
  -23.5400  -32.1080   23.7180 O   0  0  0  0  0  0  0  0  0  0  0  0
  -22.7690  -29.4260   22.4810 C   0  0  0  0  0  0  0  0  0  0  0  0
  -21.4440  -29.2390   22.3520 N   0  0  0  0  0  0  0  0  0  0  0  0
  -23.4530  -28.8000   23.2940 O   0  0  0  0  0  0  0  0  0  0  0  0
  -20.9530  -29.7970   21.6690 H   0  0  0  0  0  0  0  0  0  0  0  0
  -18.0760  -28.0020   22.8170 C   0  0  0  0  0  0  0  0  0  0  0  0
  -20.6280  -28.2920   23.1160 C   0  0  0  0  0  3  0  0  0  0  0  0
  -20.7540  -26.8620   22.5410 C   0  0  0  0  0  2  0  0  0  0  0  0
  -19.6650  -26.5260   21.5160 C   0  0  0  0  0  2  0  0  0  0  0  0
  -18.2750  -26.6550   22.1450 C   0  0  0  0  0  2  0  0  0  0  0  0
  -19.1800  -28.7780   23.2590 C   0  0  0  0  0  0  0  0  0  0  0  0
  -18.9410  -30.0380   23.8460 C   0  0  0  0  0  3  0  0  0  0  0  0
  -17.6280  -30.5230   24.0000 C   0  0  0  0  0  3  0  0  0  0  0  0
  -16.5380  -29.7450   23.5730 C   0  0  0  0  0  3  0  0  0  0  0  0
  -16.7620  -28.4870   22.9870 C   0  0  0  0  0  3  0  0  0  0  0  0
  -25.9070  -32.4740   23.8010 C   0  0  0  0  0  3  0  0  0  0  0  0
  -26.4320  -31.6890   25.0660 C   0  0  1  0  0  0  0  0  0  0  0  0
  -25.3460  -31.4350   26.1370 C   0  0  0  0  0  1  0  0  0  0  0  0
  -27.0180  -30.3180   24.6540 C   0  0  0  0  0  1  0  0  0  0  0  0
  -27.5820  -32.4790   25.7340 C   0  0  0  0  0  1  0  0  0  0  0  0
  -25.5920  -33.8640   24.1560 N   0  0  0  0  0  0  0  0  0  0  0  0
  -25.9090  -34.9300   23.4090 C   0  0  0  0  0  0  0  0  0  0  0  0
  -26.5700  -34.8460   22.3710 O   0  0  0  0  0  0  0  0  0  0  0  0
  -25.0030  -34.0000   24.9640 H   0  0  0  0  0  0  0  0  0  0  0  0
  -24.1620  -36.7110   23.1000 C   0  0  0  0  0  1  0  0  0  0  0  0
  -25.4150  -36.3080   23.8920 C   0  0  0  0  0  3  0  0  0  0  0  0
  -27.5530  -37.1980   24.7080 C   0  0  0  0  0  1  0  0  0  0  0  0
  -26.4360  -37.3720   23.7820 N   0  0  0  0  0  0  0  0  0  0  0  0
  -26.0250  -38.2870   23.9510 H   0  0  0  0  0  0  0  0  0  0  0  0
  -29.9830  -21.5500   19.8270 C   0  0  0  0  0  2  0  0  0  0  0  0
  -29.4790  -19.3770   21.2840 C   0  0  0  0  0  3  0  0  0  0  0  0
  -30.3590  -19.1140   19.0630 C   0  0  0  0  0  3  0  0  0  0  0  0
  -29.4990  -17.9570   21.4400 C   0  0  0  0  0  3  0  0  0  0  0  0
  -30.4140  -17.7010   19.2290 C   0  0  0  0  0  3  0  0  0  0  0  0
  -29.8900  -19.9950   20.0760 C   0  0  0  0  0  0  0  0  0  0  0  0
  -29.9750  -17.0810   20.4250 C   0  0  0  0  0  0  0  0  0  0  0  0
  -30.6130  -14.6150   20.0390 C   0  0  0  0  0  0  0  0  0  0  0  0
  -30.3120  -12.4190   18.9250 C   0  0  0  0  0  2  0  0  0  0  0  0
  -29.3000  -12.6060   17.7730 C   0  0  0  0  0  2  0  0  0  0  0  0
  -27.8510  -12.4480   18.2810 C   0  0  0  0  0  2  0  0  0  0  0  0
  -27.5800  -13.2720   19.5700 C   0  0  0  0  0  3  0  0  0  0  0  0
  -28.7010  -13.0580   20.6140 C   0  0  0  0  0  2  0  0  0  0  0  0
  -29.9800  -13.4010   19.9760 N   0  0  0  0  0  0  0  0  0  0  0  0
  -31.7140  -14.7940   19.5130 O   0  0  0  0  0  0  0  0  0  0  0  0
  -29.9140  -15.6350   20.6210 N   0  0  0  0  0  0  0  0  0  0  0  0
  -29.1430  -15.3210   21.1890 H   0  0  0  0  0  0  0  0  0  0  0  0
  -25.2330  -13.8690   20.4380 C   0  0  0  0  0  0  0  0  0  0  0  0
  -24.1840  -13.0970   20.8560 C   0  0  0  0  0  0  0  0  0  0  0  0
  -24.6340  -11.7430   20.7720 C   0  0  0  0  0  0  0  0  0  0  0  0
  -26.2580  -12.9880   20.1270 N   0  0  0  0  0  0  0  0  0  0  0  0
  -25.9030  -11.7030   20.3850 N   0  0  0  0  0  0  0  0  0  0  0  0
  -23.9110  -10.4820   20.9850 C   0  0  0  0  0  0  0  0  0  0  0  0
  -24.3850   -9.5040   21.8860 C   0  0  0  0  0  3  0  0  0  0  0  0
  -23.6650   -8.3050   22.0870 C   0  0  0  0  0  3  0  0  0  0  0  0
  -22.4560   -8.0770   21.3870 C   0  0  0  0  0  0  0  0  0  0  0  0
  -22.0010   -9.0460   20.4760 C   0  0  0  0  0  3  0  0  0  0  0  0
  -22.7200  -10.2350   20.2730 C   0  0  0  0  0  3  0  0  0  0  0  0
  -21.7020   -6.9330   21.4980 O   0  0  0  0  0  0  0  0  0  0  0  0
  -21.6930   -6.1880   22.6490 C   0  0  0  0  0  0  0  0  0  0  0  0
  -21.3250   -6.7420   23.8950 C   0  0  0  0  0  3  0  0  0  0  0  0
  -21.2650   -5.9220   25.0400 C   0  0  0  0  0  3  0  0  0  0  0  0
  -21.5600   -4.5490   24.9390 C   0  0  0  0  0  0  0  0  0  0  0  0
  -21.9230   -3.9950   23.6980 C   0  0  0  0  0  3  0  0  0  0  0  0
  -21.9860   -4.8130   22.5560 C   0  0  0  0  0  0  0  0  0  0  0  0
  -22.3160   -4.2690   21.3610 F   0  0  0  0  0  0  0  0  0  0  0  0
  -21.4950   -3.7600   26.0370 F   0  0  0  0  0  0  0  0  0  0  0  0
  -22.8070  -13.5770   21.2190 C   0  0  0  0  0  0  0  0  0  0  0  0
  -22.1280  -12.8720   22.1180 N   0  0  0  0  0  0  0  0  0  0  0  0
  -22.3450  -14.6120   20.7390 O   0  0  0  0  0  0  0  0  0  0  0  0
  -22.5170  -12.0410   22.5370 H   0  0  0  0  0  0  0  0  0  0  0  0
  -21.2070  -13.1790   22.3970 H   0  0  0  0  0  0  0  0  0  0  0  0
  -25.3950  -15.2410   20.2770 N   0  0  0  0  0  0  0  0  0  0  0  0
  -24.6370  -15.8950   20.4410 H   0  0  0  0  0  0  0  0  0  0  0  0
  -26.2340  -15.6900   19.9310 H   0  0  0  0  0  0  0  0  0  0  0  0
  1  2  1  0
  2  3  1  1
  5  4  1  0
  5  2  1  0
  5  6  1  0
  7  9  1  0
  7  6  1  0
  8 19  2  0
  9 14  1  0
 10 18  1  0
 10 20  1  0
 11 17  1  0
 11 13  1  0
 12 18  1  0
 13 12  1  0
 14 13  2  0
 15 16  1  0
 15  9  2  0
 16 11  2  0
 17 10  1  0
 18  8  1  0
 20 22  2  0
 21 20  1  0
 23 21  1  0
 24 33  2  0
 24 29  1  0
 25 21  1  0
 25 29  1  0
 26 25  1  0
 27 28  1  0
 27 26  1  0
 28 24  1  0
 29 30  2  0
 30 31  1  0
 32 31  2  0
 33 32  1  0
 34  8  1  0
 34 39  1  0
 34 35  1  0
 35 38  1  1
 35 36  1  0
 37 35  1  0
 39 42  1  0
 40 44  1  0
 40 39  1  0
 41 40  2  0
 44 43  1  0
 46 44  1  0
 46 47  1  0
 46 45  1  0
 48 53  1  0
 48  2  1  0
 49 51  1  0
 50 52  2  0
 50 53  1  0
 52 54  1  0
 53 49  2  0
 54 63  1  0
 54 51  2  0
 55 63  1  0
 56 61  1  0
 57 58  1  0
 57 56  1  0
 59 58  1  0
 59 68  1  0
 59 60  1  0
 61 55  1  0
 61 60  1  0
 62 55  2  0
 63 64  1  0
 65 66  2  0
 66 85  1  0
 67 66  1  0
 67 70  1  0
 68 69  1  0
 68 65  1  0
 69 67  2  0
 70 71  1  0
 71 72  2  0
 73 76  1  0
 73 72  1  0
 74 73  2  0
 75 74  1  0
 75 70  2  0
 76 77  1  0
 77 78  1  0
 78 79  2  0
 80 79  1  0
 80 84  1  0
 81 80  2  0
 82 77  2  0
 82 81  1  0
 83 82  1  0
 85 86  1  0
 86 89  1  0
 86 88  1  0
 87 85  2  0
 90 65  1  0
 90 91  1  0
 92 90  1  0
M  ISO  4   6 101   7 101  55 100  63 100
M  END
>  <TORSDO>  (95) 
F 20

>  <SCORE>  (95) 
-13.160

>  <name>  (95) 
94

>  <ligand_id>  (95) 
94

>  <original_smiles>  (95) 
[H]c1c([H])c([H])c2c(c1[H])C([H])([H])C([H])([H])C([H])([H])C2([H])N([H])C(=O)C1([H])N(C(=O)C([H])(N([H])C(=O)C([H])(N([H])C([H])([H])[H])C([H])([H])[H])C(C([H])([H])[H])(C([H])([H])[H])C([H])([H])[H])C([H])([H])c2c([H])c(OC([H])([H])C([H])(C([H])([H])[H])[N+]([H])(C([H])([H])[H])C([H])([H])c3c([H])c([H])c(N([H])C(=O)N4C([H])([H])C([H])([H])C([H])([H])C([H])(n5nc(-c6c([H])c([H])c(Oc7c([H])c([H])c(F)c([H])c7F)c([H])c6[H])c(C(=O)N([H])[H])c5N([H])[H])C4([H])[H])c([H])c3[H])c([H])c([H])c2C1([H])[H]

>  <smiles>  (95) 
[H]c1c([H])c([H])c2c(c1[H])C([H])([H])C([H])([H])C([H])([H])C2([H])N([H])C(=O)C1([H])N(C(=O)C([H])(N([H])C(=O)C([H])(N([H])C([H])([H])[H])C([H])([H])[H])C(C([H])([H])[H])(C([H])([H])[H])C([H])([H])[H])C([H])([H])c2c([H])c(OC([H])([H])C([H])(C([H])([H])[H])[N+]([H])(C([H])([H])[H])C([H])([H])c3c([H])c([H])c(N([H])C(=O)N4C([H])([H])C([H])([H])C([H])([H])C([H])(n5nc(-c6c([H])c([H])c(Oc7c([H])c([H])c(F)c([H])c7F)c([H])c6[H])c(C(=O)N([H])[H])c5N([H])[H])C4([H])[H])c([H])c3[H])c([H])c([H])c2C1([H])[H]

$$$$
95:0:0
     RDKit          3D

 94102  0  0  1  0  0  0  0  0999 V2000
  -29.3360  -19.5610   19.4890 C   0  0  0  0  0  2  0  0  0  0  0  0
  -29.9840  -20.4460   21.5570 C   0  0  0  0  0  2  0  0  0  0  0  0
  -29.0780  -21.0050   20.4080 C   0  0  0  0  0  3  0  0  0  0  0  0
  -30.1220  -18.1980   20.1890 C   0  0  0  0  0  3  0  0  0  0  0  0
  -29.9710  -18.8370   21.6120 C   0  0  0  0  0  3  0  0  0  0  0  0
  -30.6160  -15.2730   19.9630 C   0  0  0  0  0  0  0  0  0  0  0  0
  -30.5220  -12.8330   19.0820 C   0  0  0  0  0  2  0  0  0  0  0  0
  -29.5390  -12.6330   17.9000 C   0  0  0  0  0  2  0  0  0  0  0  0
  -28.1090  -12.3820   18.4150 C   0  0  0  0  0  2  0  0  0  0  0  0
  -27.7250  -13.3540   19.5580 C   0  0  0  0  0  3  0  0  0  0  0  0
  -28.8290  -13.4910   20.6260 C   0  0  0  0  0  2  0  0  0  0  0  0
  -30.0290  -13.9790   19.9280 N   0  0  0  0  0  0  0  0  0  0  0  0
  -31.8300  -15.2610   19.7180 O   0  0  0  0  0  0  0  0  0  0  0  0
  -29.8630  -16.5470   20.0810 N   0  0  0  0  0  0  0  0  0  0  0  0
  -28.8790  -16.3380   20.1620 H   0  0  0  0  0  0  0  0  0  0  0  0
  -25.4190  -13.9470   20.4700 C   0  0  0  0  0  0  0  0  0  0  0  0
  -24.3570  -13.1840   20.8710 C   0  0  0  0  0  0  0  0  0  0  0  0
  -24.7840  -11.8250   20.7610 C   0  0  0  0  0  0  0  0  0  0  0  0
  -26.4200  -13.0550   20.1320 N   0  0  0  0  0  0  0  0  0  0  0  0
  -26.0540  -11.7690   20.3760 N   0  0  0  0  0  0  0  0  0  0  0  0
  -24.0310  -10.5760   20.9420 C   0  0  0  0  0  0  0  0  0  0  0  0
  -24.4680   -9.5700   21.8320 C   0  0  0  0  0  3  0  0  0  0  0  0
  -23.7150   -8.3890   22.0040 C   0  0  0  0  0  3  0  0  0  0  0  0
  -22.5090   -8.2050   21.2870 C   0  0  0  0  0  0  0  0  0  0  0  0
  -22.0910   -9.1990   20.3840 C   0  0  0  0  0  3  0  0  0  0  0  0
  -22.8440  -10.3710   20.2100 C   0  0  0  0  0  3  0  0  0  0  0  0
  -21.7260   -7.0790   21.3700 O   0  0  0  0  0  0  0  0  0  0  0  0
  -21.6820   -6.3170   22.5100 C   0  0  0  0  0  0  0  0  0  0  0  0
  -21.2810   -6.8560   23.7520 C   0  0  0  0  0  3  0  0  0  0  0  0
  -21.1830   -6.0200   24.8830 C   0  0  0  0  0  3  0  0  0  0  0  0
  -21.4750   -4.6480   24.7730 C   0  0  0  0  0  0  0  0  0  0  0  0
  -21.8700   -4.1090   23.5360 C   0  0  0  0  0  3  0  0  0  0  0  0
  -21.9690   -4.9400   22.4070 C   0  0  0  0  0  0  0  0  0  0  0  0
  -22.3290   -4.4120   21.2130 F   0  0  0  0  0  0  0  0  0  0  0  0
  -21.3740   -3.8440   25.8580 F   0  0  0  0  0  0  0  0  0  0  0  0
  -22.9910  -13.6880   21.2320 C   0  0  0  0  0  0  0  0  0  0  0  0
  -22.2950  -12.9870   22.1190 N   0  0  0  0  0  0  0  0  0  0  0  0
  -22.5550  -14.7390   20.7640 O   0  0  0  0  0  0  0  0  0  0  0  0
  -22.6630  -12.1360   22.5190 H   0  0  0  0  0  0  0  0  0  0  0  0
  -21.3790  -13.3050   22.4040 H   0  0  0  0  0  0  0  0  0  0  0  0
  -25.6070  -15.3190   20.3340 N   0  0  0  0  0  0  0  0  0  0  0  0
  -24.8550  -15.9790   20.4980 H   0  0  0  0  0  0  0  0  0  0  0  0
  -26.4200  -15.7460   19.9100 H   0  0  0  0  0  0  0  0  0  0  0  0
  -30.9540  -18.2870   22.5600 N   0  0  0  0  0  4  0  0  0  0  0  0
  -31.8920  -18.5180   22.2860 H   0  0  0  0  0  0  0  0  0  0  0  0
  -30.8710  -17.2880   22.6000 H   0  0  0  0  0  0  0  0  0  0  0  0
  -30.7930  -18.6480   23.4830 H   0  0  0  0  0  0  0  0  0  0  0  0
  -29.1640  -22.7710   19.9890 C   0  0  0  0  0  3  0  0  0  0  0  0
  -29.2140  -22.8140   18.5150 N   0  0  0  0  0  4  0  0  0  0  0  0
  -28.3330  -22.5460   18.1120 H   0  0  0  0  0  0  0  0  0  0  0  0
  -29.9260  -22.2020   18.1600 H   0  0  0  0  0  0  0  0  0  0  0  0
  -29.4280  -23.7460   18.2000 H   0  0  0  0  0  0  0  0  0  0  0  0
  -28.2150  -24.2360   20.4580 C   0  0  0  0  0  2  0  0  0  0  0  0
  -28.4060  -25.8720   20.2940 O   0  0  0  0  0  0  0  0  0  0  0  0
  -24.5610  -31.7370   23.1360 C   0  0  0  0  0  0  0  0  0  0  0  0
  -27.3500  -26.9250   20.2360 C   0  0  0  0  0  0  0  0  0  0  0  0
  -23.4600  -30.2990   21.4690 C   0  0  0  0  0  3  0  0  0  0  0  0
  -24.9980  -28.7320   20.1050 C   0  0  0  0  0  0  0  0  0  0  0  0
  -26.0220  -30.5870   21.4010 C   0  0  0  0  0  2  0  0  0  0  0  0
  -26.1540  -29.1770   20.7580 C   0  0  0  0  0  0  0  0  0  0  0  0
  -27.3270  -28.2960   20.7940 C   0  0  0  0  0  3  0  0  0  0  0  0
  -26.1590  -26.6290   19.5340 C   0  0  0  0  0  3  0  0  0  0  0  0
  -25.0250  -27.4780   19.4730 C   0  0  0  0  0  3  0  0  0  0  0  0
  -23.7530  -29.6170   20.1050 C   0  0  0  0  0  2  0  0  0  0  0  0
  -24.7000  -30.9020   22.0560 N   0  0  0  0  0  0  0  0  0  0  0  0
  -23.4470  -31.9970   23.6220 O   0  0  0  0  0  0  0  0  0  0  0  0
  -22.7650  -29.2870   22.4170 C   0  0  0  0  0  0  0  0  0  0  0  0
  -21.4410  -29.1000   22.2660 N   0  0  0  0  0  0  0  0  0  0  0  0
  -23.4260  -28.6720   23.2570 O   0  0  0  0  0  0  0  0  0  0  0  0
  -20.9610  -29.6490   21.5670 H   0  0  0  0  0  0  0  0  0  0  0  0
  -18.0680  -27.8440   22.7180 C   0  0  0  0  0  0  0  0  0  0  0  0
  -20.6200  -28.1450   23.0180 C   0  0  0  0  0  3  0  0  0  0  0  0
  -20.7490  -26.7190   22.4330 C   0  0  0  0  0  2  0  0  0  0  0  0
  -19.6650  -26.3880   21.4010 C   0  0  0  0  0  2  0  0  0  0  0  0
  -18.2730  -26.5050   22.0290 C   0  0  0  0  0  2  0  0  0  0  0  0
  -19.1690  -28.6210   23.1680 C   0  0  0  0  0  0  0  0  0  0  0  0
  -18.9200  -29.8710   23.7750 C   0  0  0  0  0  3  0  0  0  0  0  0
  -17.6060  -30.3460   23.9340 C   0  0  0  0  0  3  0  0  0  0  0  0
  -16.5190  -29.5670   23.4980 C   0  0  0  0  0  3  0  0  0  0  0  0
  -16.7510  -28.3180   22.8970 C   0  0  0  0  0  3  0  0  0  0  0  0
  -25.7920  -32.4190   23.8050 C   0  0  0  0  0  3  0  0  0  0  0  0
  -26.2870  -31.6680   25.1030 C   0  0  1  0  0  0  0  0  0  0  0  0
  -25.1650  -31.3930   26.1320 C   0  0  0  0  0  1  0  0  0  0  0  0
  -26.9310  -30.3090   24.7420 C   0  0  0  0  0  1  0  0  0  0  0  0
  -27.3850  -32.5010   25.8040 C   0  0  0  0  0  1  0  0  0  0  0  0
  -25.4180  -33.8060   24.1370 N   0  0  0  0  0  0  0  0  0  0  0  0
  -25.7270  -34.8820   23.4010 C   0  0  0  0  0  0  0  0  0  0  0  0
  -26.4200  -34.8150   22.3830 O   0  0  0  0  0  0  0  0  0  0  0  0
  -24.8010  -33.9290   24.9270 H   0  0  0  0  0  0  0  0  0  0  0  0
  -23.9440  -36.6240   23.0410 C   0  0  0  0  0  1  0  0  0  0  0  0
  -25.1850  -36.2500   23.8670 C   0  0  0  0  0  3  0  0  0  0  0  0
  -27.2700  -37.2060   24.7480 C   0  0  0  0  0  1  0  0  0  0  0  0
  -26.1830  -37.3390   23.7820 N   0  0  0  0  0  0  0  0  0  0  0  0
  -25.7410  -38.2440   23.9250 H   0  0  0  0  0  0  0  0  0  0  0  0
  1  4  1  0
  1  3  1  0
  2  5  1  0
  3 48  1  0
  3  2  1  0
  4 14  1  0
  4  5  1  0
  5 44  1  0
  6 14  1  0
  7 12  1  0
  8  9  1  0
  8  7  1  0
 10  9  1  0
 10 19  1  0
 10 11  1  0
 12  6  1  0
 12 11  1  0
 13  6  2  0
 14 15  1  0
 16 17  2  0
 17 36  1  0
 18 17  1  0
 18 21  1  0
 19 20  1  0
 19 16  1  0
 20 18  2  0
 21 22  1  0
 22 23  2  0
 24 27  1  0
 24 23  1  0
 25 24  2  0
 26 25  1  0
 26 21  2  0
 27 28  1  0
 28 29  1  0
 29 30  2  0
 31 30  1  0
 31 35  1  0
 32 31  2  0
 33 28  2  0
 33 32  1  0
 34 33  1  0
 36 37  1  0
 37 40  1  0
 37 39  1  0
 38 36  2  0
 41 16  1  0
 41 42  1  0
 43 41  1  0
 44 46  1  0
 44 47  1  0
 45 44  1  0
 48 53  1  0
 49 48  1  0
 50 49  1  0
 51 49  1  0
 52 49  1  0
 54 53  1  0
 55 66  2  0
 56 54  1  0
 56 61  1  0
 57 65  1  0
 57 67  1  0
 58 64  1  0
 58 60  1  0
 59 65  1  0
 60 61  2  0
 60 59  1  0
 62 56  2  0
 63 62  1  0
 63 58  2  0
 64 57  1  0
 65 55  1  0
 67 69  2  0
 68 67  1  0
 70 68  1  0
 71 80  2  0
 71 76  1  0
 72 68  1  0
 72 76  1  0
 73 72  1  0
 74 75  1  0
 74 73  1  0
 75 71  1  0
 76 77  2  0
 77 78  1  0
 79 78  2  0
 80 79  1  0
 81 55  1  0
 81 86  1  0
 81 82  1  0
 82 85  1  1
 82 83  1  0
 84 82  1  0
 86 89  1  0
 87 91  1  0
 87 86  1  0
 88 87  2  0
 91 90  1  0
 93 91  1  0
 93 94  1  0
 93 92  1  0
M  ISO  4   6 100  14 100  53 101  54 101
M  END
>  <TORSDO>  (96) 
F 20

>  <SCORE>  (96) 
-15.900

>  <name>  (96) 
95

>  <ligand_id>  (96) 
95

>  <original_smiles>  (96) 
[H]c1c([H])c([H])c2c(c1[H])C([H])([H])C([H])([H])C([H])([H])C2([H])N([H])C(=O)C1([H])N(C(=O)C([H])(N([H])C(=O)C([H])(N([H])C([H])([H])[H])C([H])([H])[H])C(C([H])([H])[H])(C([H])([H])[H])C([H])([H])[H])C([H])([H])c2c([H])c(OC([H])([H])C([H])(C3([H])C([H])([H])C([H])(N([H])C(=O)N4C([H])([H])C([H])([H])C([H])([H])C([H])(n5nc(-c6c([H])c([H])c(Oc7c([H])c([H])c(F)c([H])c7F)c([H])c6[H])c(C(=O)N([H])[H])c5N([H])[H])C4([H])[H])C([H])([N+]([H])([H])[H])C3([H])[H])[N+]([H])([H])[H])c([H])c([H])c2C1([H])[H]

>  <smiles>  (96) 
[H]c1c([H])c([H])c2c(c1[H])C([H])([H])C([H])([H])C([H])([H])C2([H])N([H])C(=O)C1([H])N(C(=O)C([H])(N([H])C(=O)C([H])(N([H])C([H])([H])[H])C([H])([H])[H])C(C([H])([H])[H])(C([H])([H])[H])C([H])([H])[H])C([H])([H])c2c([H])c(OC([H])([H])C([H])(C3([H])C([H])([H])C([H])(N([H])C(=O)N4C([H])([H])C([H])([H])C([H])([H])C([H])(n5nc(-c6c([H])c([H])c(Oc7c([H])c([H])c(F)c([H])c7F)c([H])c6[H])c(C(=O)N([H])[H])c5N([H])[H])C4([H])[H])C([H])([N+]([H])([H])[H])C3([H])[H])[N+]([H])([H])[H])c([H])c([H])c2C1([H])[H]

$$$$
96:0:0
     RDKit          3D

 96104  0  0  1  0  0  0  0  0999 V2000
  -28.4290  -19.5540   20.0300 C   0  0  0  0  0  3  0  0  0  0  0  0
  -28.0690  -20.9670   19.9670 C   0  0  0  0  0  3  0  0  0  0  0  0
  -30.7030  -20.1640   19.9160 C   0  0  0  0  0  3  0  0  0  0  0  0
  -29.7810  -19.0740   19.9920 C   0  0  0  0  0  0  0  0  0  0  0  0
  -29.0060  -22.0550   19.8240 C   0  0  0  0  0  0  0  0  0  0  0  0
  -30.3580  -21.5630   19.8050 C   0  0  0  0  0  0  0  0  0  0  0  0
  -32.2940  -22.1620   18.4760 C   0  0  0  0  0  1  0  0  0  0  0  0
  -31.9730  -23.0180   20.8060 C   0  0  0  0  0  1  0  0  0  0  0  0
  -31.3970  -22.4820   19.5830 N   0  0  0  0  0  0  0  0  0  0  0  0
  -30.5490  -17.4450   18.2150 C   0  0  0  0  0  1  0  0  0  0  0  0
  -30.3570  -17.5570   19.7400 C   0  0  0  0  0  3  0  0  0  0  0  0
  -30.5880  -14.9450   20.1980 C   0  0  0  0  0  0  0  0  0  0  0  0
  -30.3850  -12.6210   19.2630 C   0  0  0  0  0  2  0  0  0  0  0  0
  -29.4480  -12.6430   18.0370 C   0  0  0  0  0  2  0  0  0  0  0  0
  -27.9850  -12.4520   18.4810 C   0  0  0  0  0  2  0  0  0  0  0  0
  -27.6040  -13.3500   19.6900 C   0  0  0  0  0  3  0  0  0  0  0  0
  -28.6770  -13.3390   20.7980 C   0  0  0  0  0  2  0  0  0  0  0  0
  -29.9470  -13.7150   20.1700 N   0  0  0  0  0  0  0  0  0  0  0  0
  -31.7940  -14.9640   19.9360 O   0  0  0  0  0  0  0  0  0  0  0  0
  -29.8630  -16.1610   20.2410 N   0  0  0  0  0  0  0  0  0  0  0  0
  -28.8750  -16.0820   20.4260 H   0  0  0  0  0  0  0  0  0  0  0  0
  -25.2310  -13.9080   20.4730 C   0  0  0  0  0  0  0  0  0  0  0  0
  -24.1760  -13.1250   20.8510 C   0  0  0  0  0  0  0  0  0  0  0  0
  -24.6480  -11.7780   20.8020 C   0  0  0  0  0  0  0  0  0  0  0  0
  -26.2750  -13.0390   20.2080 N   0  0  0  0  0  0  0  0  0  0  0  0
  -25.9350  -11.7510   20.4740 N   0  0  0  0  0  0  0  0  0  0  0  0
  -23.9270  -10.5100   20.9900 C   0  0  0  0  0  0  0  0  0  0  0  0
  -24.3520   -9.5530   21.9380 C   0  0  0  0  0  3  0  0  0  0  0  0
  -23.6310   -8.3510   22.1140 C   0  0  0  0  0  3  0  0  0  0  0  0
  -22.4720   -8.0990   21.3430 C   0  0  0  0  0  0  0  0  0  0  0  0
  -22.0680   -9.0440   20.3850 C   0  0  0  0  0  3  0  0  0  0  0  0
  -22.7880  -10.2370   20.2070 C   0  0  0  0  0  3  0  0  0  0  0  0
  -21.7250   -6.9470   21.4260 O   0  0  0  0  0  0  0  0  0  0  0  0
  -21.6410   -6.2280   22.5910 C   0  0  0  0  0  0  0  0  0  0  0  0
  -21.1330   -6.7930   23.7810 C   0  0  0  0  0  3  0  0  0  0  0  0
  -20.9960   -5.9980   24.9360 C   0  0  0  0  0  3  0  0  0  0  0  0
  -21.3590   -4.6390   24.9030 C   0  0  0  0  0  0  0  0  0  0  0  0
  -21.8620   -4.0730   23.7180 C   0  0  0  0  0  3  0  0  0  0  0  0
  -21.9990   -4.8650   22.5650 C   0  0  0  0  0  0  0  0  0  0  0  0
  -22.4630   -4.3100   21.4200 F   0  0  0  0  0  0  0  0  0  0  0  0
  -21.2230   -3.8730   26.0110 F   0  0  0  0  0  0  0  0  0  0  0  0
  -22.7790  -13.5930   21.1410 C   0  0  0  0  0  0  0  0  0  0  0  0
  -22.0610  -12.8830   22.0060 N   0  0  0  0  0  0  0  0  0  0  0  0
  -22.3350  -14.6250   20.6400 O   0  0  0  0  0  0  0  0  0  0  0  0
  -22.4340  -12.0500   22.4380 H   0  0  0  0  0  0  0  0  0  0  0  0
  -21.1240  -13.1780   22.2390 H   0  0  0  0  0  0  0  0  0  0  0  0
  -25.3850  -15.2820   20.3010 N   0  0  0  0  0  0  0  0  0  0  0  0
  -24.6160  -15.9310   20.4150 H   0  0  0  0  0  0  0  0  0  0  0  0
  -26.2170  -15.7210   19.9310 H   0  0  0  0  0  0  0  0  0  0  0  0
  -28.6340  -23.6160   19.4250 C   0  0  0  0  0  3  0  0  0  0  0  0
  -27.8540  -23.5860   18.1700 N   0  0  0  0  0  4  0  0  0  0  0  0
  -26.9140  -23.2680   18.3290 H   0  0  0  0  0  0  0  0  0  0  0  0
  -28.2900  -22.9720   17.5070 H   0  0  0  0  0  0  0  0  0  0  0  0
  -27.8170  -24.5030   17.7590 H   0  0  0  0  0  0  0  0  0  0  0  0
  -28.0330  -24.8070   20.3970 C   0  0  0  0  0  2  0  0  0  0  0  0
  -28.2140  -26.3120   20.1100 O   0  0  0  0  0  0  0  0  0  0  0  0
  -24.5650  -31.8830   23.2200 C   0  0  0  0  0  0  0  0  0  0  0  0
  -27.1270  -27.2360   20.1290 C   0  0  0  0  0  0  0  0  0  0  0  0
  -23.3530  -30.4940   21.5840 C   0  0  0  0  0  3  0  0  0  0  0  0
  -24.7900  -28.9330   20.1430 C   0  0  0  0  0  0  0  0  0  0  0  0
  -25.9010  -30.7800   21.3920 C   0  0  0  0  0  2  0  0  0  0  0  0
  -25.9720  -29.3950   20.7340 C   0  0  0  0  0  0  0  0  0  0  0  0
  -27.1480  -28.5620   20.7060 C   0  0  0  0  0  3  0  0  0  0  0  0
  -25.9170  -26.8560   19.5150 C   0  0  0  0  0  3  0  0  0  0  0  0
  -24.7710  -27.6760   19.5210 C   0  0  0  0  0  3  0  0  0  0  0  0
  -23.5610  -29.8240   20.2000 C   0  0  0  0  0  2  0  0  0  0  0  0
  -24.6270  -31.0730   22.1200 N   0  0  0  0  0  0  0  0  0  0  0  0
  -23.4830  -32.1620   23.7600 O   0  0  0  0  0  0  0  0  0  0  0  0
  -22.6880  -29.4780   22.5460 C   0  0  0  0  0  0  0  0  0  0  0  0
  -21.3620  -29.2930   22.4180 N   0  0  0  0  0  0  0  0  0  0  0  0
  -23.3670  -28.8570   23.3670 O   0  0  0  0  0  0  0  0  0  0  0  0
  -20.8700  -29.8450   21.7300 H   0  0  0  0  0  0  0  0  0  0  0  0
  -17.9930  -28.0620   22.9180 C   0  0  0  0  0  0  0  0  0  0  0  0
  -20.5490  -28.3490   23.1910 C   0  0  0  0  0  3  0  0  0  0  0  0
  -20.6640  -26.9160   22.6210 C   0  0  0  0  0  2  0  0  0  0  0  0
  -19.5680  -26.5810   21.6040 C   0  0  0  0  0  2  0  0  0  0  0  0
  -18.1830  -26.7150   22.2450 C   0  0  0  0  0  2  0  0  0  0  0  0
  -19.1030  -28.8370   23.3490 C   0  0  0  0  0  0  0  0  0  0  0  0
  -18.8700  -30.0980   23.9380 C   0  0  0  0  0  3  0  0  0  0  0  0
  -17.5590  -30.5840   24.1050 C   0  0  0  0  0  3  0  0  0  0  0  0
  -16.4640  -29.8060   23.6920 C   0  0  0  0  0  3  0  0  0  0  0  0
  -16.6820  -28.5480   23.1020 C   0  0  0  0  0  3  0  0  0  0  0  0
  -25.8490  -32.5170   23.8380 C   0  0  0  0  0  3  0  0  0  0  0  0
  -25.5440  -33.9200   24.1610 N   0  0  0  0  0  0  0  0  0  0  0  0
  -25.8820  -34.9700   23.4010 C   0  0  0  0  0  0  0  0  0  0  0  0
  -26.5530  -34.8600   22.3730 O   0  0  0  0  0  0  0  0  0  0  0  0
  -24.9520  -34.0780   24.9630 H   0  0  0  0  0  0  0  0  0  0  0  0
  -24.1790  -36.7840   23.0260 C   0  0  0  0  0  1  0  0  0  0  0  0
  -25.4020  -36.3630   23.8550 C   0  0  0  0  0  3  0  0  0  0  0  0
  -27.5310  -37.2280   24.7230 C   0  0  0  0  0  1  0  0  0  0  0  0
  -26.4460  -37.4060   23.7620 N   0  0  0  0  0  0  0  0  0  0  0  0
  -26.0460  -38.3300   23.9020 H   0  0  0  0  0  0  0  0  0  0  0  0
  -26.3600  -31.7550   25.1240 C   0  0  1  0  0  0  0  0  0  0  0  0
  -25.2650  -31.5340   26.1930 C   0  0  0  0  0  1  0  0  0  0  0  0
  -26.9350  -30.3690   24.7500 C   0  0  0  0  0  1  0  0  0  0  0  0
  -27.5140  -32.5500   25.7790 C   0  0  0  0  0  1  0  0  0  0  0  0
  2  1  2  0
  3  4  2  0
  4  1  1  0
  5  2  1  0
  6  5  2  0
  6  3  1  0
  7  9  1  0
  9  6  1  0
  9  8  1  0
 11 10  1  0
 11  4  1  0
 11 20  1  0
 12 20  1  0
 13 18  1  0
 14 15  1  0
 14 13  1  0
 16 15  1  0
 16 25  1  0
 16 17  1  0
 18 12  1  0
 18 17  1  0
 19 12  2  0
 20 21  1  0
 22 23  2  0
 23 42  1  0
 24 23  1  0
 24 27  1  0
 25 22  1  0
 25 26  1  0
 26 24  2  0
 27 28  1  0
 28 29  2  0
 30 33  1  0
 30 29  1  0
 31 30  2  0
 32 31  1  0
 32 27  2  0
 33 34  1  0
 34 35  1  0
 35 36  2  0
 37 36  1  0
 37 41  1  0
 38 37  2  0
 39 34  2  0
 39 38  1  0
 40 39  1  0
 42 43  1  0
 43 46  1  0
 43 45  1  0
 44 42  2  0
 47 48  1  0
 47 22  1  0
 49 47  1  0
 50  5  1  0
 50 55  1  0
 51 52  1  0
 51 50  1  0
 53 51  1  0
 54 51  1  0
 56 58  1  0
 56 55  1  0
 57 68  2  0
 58 63  1  0
 59 67  1  0
 59 69  1  0
 60 66  1  0
 60 62  1  0
 61 67  1  0
 62 61  1  0
 63 62  2  0
 64 65  1  0
 64 58  2  0
 65 60  2  0
 66 59  1  0
 67 57  1  0
 69 71  2  0
 70 69  1  0
 72 70  1  0
 73 82  2  0
 73 78  1  0
 74 70  1  0
 74 78  1  0
 75 74  1  0
 76 77  1  0
 76 75  1  0
 77 73  1  0
 78 79  2  0
 79 80  1  0
 81 80  2  0
 82 81  1  0
 83 57  1  0
 83 84  1  0
 83 93  1  0
 84 87  1  0
 85 89  1  0
 85 84  1  0
 86 85  2  0
 89 88  1  0
 91 89  1  0
 91 92  1  0
 91 90  1  0
 93 96  1  1
 93 94  1  0
 95 93  1  0
M  ISO  4  12 100  20 100  55 101  56 101
M  END
>  <TORSDO>  (97) 
F 21

>  <SCORE>  (97) 
-13.530

>  <name>  (97) 
96

>  <ligand_id>  (97) 
96

>  <original_smiles>  (97) 
[H]c1c([H])c([H])c2c(c1[H])C([H])([H])C([H])([H])C([H])([H])C2([H])N([H])C(=O)C1([H])N(C(=O)C([H])(N([H])C(=O)C([H])(N([H])C([H])([H])[H])C([H])([H])[H])C(C([H])([H])[H])(C([H])([H])[H])C([H])([H])[H])C([H])([H])c2c([H])c(OC([H])([H])C([H])(c3c([H])c([H])c(C([H])(N([H])C(=O)N4C([H])([H])C([H])([H])C([H])([H])C([H])(n5nc(-c6c([H])c([H])c(Oc7c([H])c([H])c(F)c([H])c7F)c([H])c6[H])c(C(=O)N([H])[H])c5N([H])[H])C4([H])[H])C([H])([H])[H])c([H])c3N(C([H])([H])[H])C([H])([H])[H])[N+]([H])([H])[H])c([H])c([H])c2C1([H])[H]

>  <smiles>  (97) 
[H]c1c([H])c([H])c2c(c1[H])C([H])([H])C([H])([H])C([H])([H])C2([H])N([H])C(=O)C1([H])N(C(=O)C([H])(N([H])C(=O)C([H])(N([H])C([H])([H])[H])C([H])([H])[H])C(C([H])([H])[H])(C([H])([H])[H])C([H])([H])[H])C([H])([H])c2c([H])c(OC([H])([H])C([H])(c3c([H])c([H])c(C([H])(N([H])C(=O)N4C([H])([H])C([H])([H])C([H])([H])C([H])(n5nc(-c6c([H])c([H])c(Oc7c([H])c([H])c(F)c([H])c7F)c([H])c6[H])c(C(=O)N([H])[H])c5N([H])[H])C4([H])[H])C([H])([H])[H])c([H])c3N(C([H])([H])[H])C([H])([H])[H])[N+]([H])([H])[H])c([H])c([H])c2C1([H])[H]

$$$$
