0:0:0
     RDKit          3D

 93101  0  0  1  0  0  0  0  0999 V2000
  -30.2510  -21.7230   20.3440 C   0  0  0  0  0  2  0  0  0  0  0  0
  -28.8410  -19.4590   20.3580 C   0  0  0  0  0  3  0  0  0  0  0  0
  -31.1890  -17.9120   20.3160 C   0  0  0  0  0  3  0  0  0  0  0  0
  -30.0750  -20.1560   20.2930 C   0  0  0  0  0  0  0  0  0  0  0  0
  -29.9560  -17.2150   20.4040 C   0  0  0  0  0  0  0  0  0  0  0  0
  -28.7890  -18.0300   20.4120 C   0  0  0  0  0  0  0  0  0  0  0  0
  -31.2410  -19.3370   20.2660 C   0  0  0  0  0  0  0  0  0  0  0  0
  -27.5810  -17.4190   20.4850 F   0  0  0  0  0  0  0  0  0  0  0  0
  -32.4570  -19.9300   20.2080 F   0  0  0  0  0  0  0  0  0  0  0  0
  -30.5810  -14.7000   20.1260 C   0  0  0  0  0  0  0  0  0  0  0  0
  -30.3020  -12.4960   19.0100 C   0  0  0  0  0  2  0  0  0  0  0  0
  -29.3040  -12.6660   17.8430 C   0  0  0  0  0  2  0  0  0  0  0  0
  -27.8500  -12.5100   18.3340 C   0  0  0  0  0  2  0  0  0  0  0  0
  -27.5550  -13.3360   19.6160 C   0  0  0  0  0  3  0  0  0  0  0  0
  -28.6630  -13.1380   20.6750 C   0  0  0  0  0  2  0  0  0  0  0  0
  -29.9470  -13.4870   20.0460 N   0  0  0  0  0  0  0  0  0  0  0  0
  -31.7330  -14.8450   19.7100 O   0  0  0  0  0  0  0  0  0  0  0  0
  -29.7980  -15.7590   20.5060 N   0  0  0  0  0  0  0  0  0  0  0  0
  -28.8760  -15.4810   20.8060 H   0  0  0  0  0  0  0  0  0  0  0  0
  -25.1960  -13.9280   20.4420 C   0  0  0  0  0  0  0  0  0  0  0  0
  -24.1410  -13.1500   20.8370 C   0  0  0  0  0  0  0  0  0  0  0  0
  -24.5990  -11.7990   20.7660 C   0  0  0  0  0  0  0  0  0  0  0  0
  -26.2280  -13.0490   20.1520 N   0  0  0  0  0  0  0  0  0  0  0  0
  -25.8760  -11.7630   20.4060 N   0  0  0  0  0  0  0  0  0  0  0  0
  -23.8770  -10.5350   20.9630 C   0  0  0  0  0  0  0  0  0  0  0  0
  -24.3170   -9.5700   21.8960 C   0  0  0  0  0  3  0  0  0  0  0  0
  -23.5950   -8.3710   22.0800 C   0  0  0  0  0  3  0  0  0  0  0  0
  -22.4170   -8.1290   21.3330 C   0  0  0  0  0  0  0  0  0  0  0  0
  -21.9960   -9.0830   20.3890 C   0  0  0  0  0  3  0  0  0  0  0  0
  -22.7190  -10.2730   20.2030 C   0  0  0  0  0  3  0  0  0  0  0  0
  -21.6660   -6.9830   21.4280 O   0  0  0  0  0  0  0  0  0  0  0  0
  -21.5900   -6.2670   22.5950 C   0  0  0  0  0  0  0  0  0  0  0  0
  -21.0990   -6.8370   23.7890 C   0  0  0  0  0  3  0  0  0  0  0  0
  -20.9740   -6.0450   24.9490 C   0  0  0  0  0  3  0  0  0  0  0  0
  -21.3280   -4.6840   24.9130 C   0  0  0  0  0  0  0  0  0  0  0  0
  -21.8110   -4.1120   23.7230 C   0  0  0  0  0  3  0  0  0  0  0  0
  -21.9390   -4.9010   22.5660 C   0  0  0  0  0  0  0  0  0  0  0  0
  -22.3850   -4.3400   21.4170 F   0  0  0  0  0  0  0  0  0  0  0  0
  -21.2000   -3.9210   26.0240 F   0  0  0  0  0  0  0  0  0  0  0  0
  -22.7580  -13.6260   21.1740 C   0  0  0  0  0  0  0  0  0  0  0  0
  -22.0610  -12.9130   22.0520 N   0  0  0  0  0  0  0  0  0  0  0  0
  -22.3040  -14.6640   20.6940 O   0  0  0  0  0  0  0  0  0  0  0  0
  -22.4410  -12.0730   22.4610 H   0  0  0  0  0  0  0  0  0  0  0  0
  -21.1340  -13.2130   22.3200 H   0  0  0  0  0  0  0  0  0  0  0  0
  -25.3550  -15.3010   20.2890 N   0  0  0  0  0  0  0  0  0  0  0  0
  -24.6030  -15.9520   20.4850 H   0  0  0  0  0  0  0  0  0  0  0  0
  -26.2150  -15.7690   20.0300 H   0  0  0  0  0  0  0  0  0  0  0  0
  -29.2740  -24.0780   20.3060 C   0  0  0  0  0  0  0  0  0  0  0  0
  -29.1440  -22.7200   20.1300 N   0  0  0  0  0  0  0  0  0  0  0  0
  -30.3220  -24.5550   20.7520 O   0  0  0  0  0  0  0  0  0  0  0  0
  -28.2740  -22.3750   19.7470 H   0  0  0  0  0  0  0  0  0  0  0  0
  -28.1050  -25.0640   19.9210 C   0  0  0  0  0  2  0  0  0  0  0  0
  -28.3280  -26.5090   20.1950 O   0  0  0  0  0  0  0  0  0  0  0  0
  -24.5860  -31.8860   23.2470 C   0  0  0  0  0  0  0  0  0  0  0  0
  -27.2070  -27.3580   20.1500 C   0  0  0  0  0  0  0  0  0  0  0  0
  -23.3860  -30.4990   21.5960 C   0  0  0  0  0  3  0  0  0  0  0  0
  -24.8370  -28.9670   20.1580 C   0  0  0  0  0  0  0  0  0  0  0  0
  -25.9250  -30.8240   21.4170 C   0  0  0  0  0  2  0  0  0  0  0  0
  -26.0080  -29.4520   20.7570 C   0  0  0  0  0  0  0  0  0  0  0  0
  -27.1950  -28.6600   20.7440 C   0  0  0  0  0  3  0  0  0  0  0  0
  -26.0100  -26.9300   19.5290 C   0  0  0  0  0  3  0  0  0  0  0  0
  -24.8410  -27.7110   19.5370 C   0  0  0  0  0  3  0  0  0  0  0  0
  -23.6000  -29.8390   20.2110 C   0  0  0  0  0  2  0  0  0  0  0  0
  -24.6510  -31.0880   22.1430 N   0  0  0  0  0  0  0  0  0  0  0  0
  -23.5020  -32.1560   23.7830 O   0  0  0  0  0  0  0  0  0  0  0  0
  -22.7250  -29.4720   22.5470 C   0  0  0  0  0  0  0  0  0  0  0  0
  -21.3980  -29.2940   22.4200 N   0  0  0  0  0  0  0  0  0  0  0  0
  -23.4040  -28.8400   23.3610 O   0  0  0  0  0  0  0  0  0  0  0  0
  -20.9080  -29.8570   21.7380 H   0  0  0  0  0  0  0  0  0  0  0  0
  -18.0190  -28.1060   22.9230 C   0  0  0  0  0  0  0  0  0  0  0  0
  -20.5810  -28.3510   23.1830 C   0  0  0  0  0  3  0  0  0  0  0  0
  -20.6720  -26.9250   22.5910 C   0  0  0  0  0  2  0  0  0  0  0  0
  -19.5640  -26.6190   21.5790 C   0  0  0  0  0  2  0  0  0  0  0  0
  -18.1860  -26.7640   22.2310 C   0  0  0  0  0  2  0  0  0  0  0  0
  -19.1440  -28.8580   23.3560 C   0  0  0  0  0  0  0  0  0  0  0  0
  -18.9330  -30.1160   23.9620 C   0  0  0  0  0  3  0  0  0  0  0  0
  -17.6310  -30.6210   24.1400 C   0  0  0  0  0  3  0  0  0  0  0  0
  -16.5200  -29.8650   23.7240 C   0  0  0  0  0  3  0  0  0  0  0  0
  -16.7160  -28.6100   23.1210 C   0  0  0  0  0  3  0  0  0  0  0  0
  -25.8670  -32.5160   23.8730 C   0  0  0  0  0  3  0  0  0  0  0  0
  -26.3770  -31.7450   25.1520 C   0  0  1  0  0  0  0  0  0  0  0  0
  -25.2780  -31.5070   26.2130 C   0  0  0  0  0  1  0  0  0  0  0  0
  -26.9620  -30.3670   24.7620 C   0  0  0  0  0  1  0  0  0  0  0  0
  -27.5220  -32.5390   25.8210 C   0  0  0  0  0  1  0  0  0  0  0  0
  -25.5580  -33.9160   24.2040 N   0  0  0  0  0  0  0  0  0  0  0  0
  -25.8690  -34.9670   23.4330 C   0  0  0  0  0  0  0  0  0  0  0  0
  -26.5170  -34.8610   22.3880 O   0  0  0  0  0  0  0  0  0  0  0  0
  -24.9810  -34.0720   25.0170 H   0  0  0  0  0  0  0  0  0  0  0  0
  -24.1190  -36.7440   23.1180 C   0  0  0  0  0  1  0  0  0  0  0  0
  -25.3860  -36.3550   23.8940 C   0  0  0  0  0  3  0  0  0  0  0  0
  -27.5340  -37.2670   24.6620 C   0  0  0  0  0  1  0  0  0  0  0  0
  -26.4080  -37.4150   23.7430 N   0  0  0  0  0  0  0  0  0  0  0  0
  -25.9970  -38.3320   23.8900 H   0  0  0  0  0  0  0  0  0  0  0  0
  2  6  1  0
  3  5  1  0
  4  1  1  0
  4  2  2  0
  5  6  2  0
  5 18  1  0
  6  8  1  0
  7  4  1  0
  7  3  2  0
  9  7  1  0
 10 18  1  0
 11 16  1  0
 12 13  1  0
 12 11  1  0
 14 13  1  0
 14 23  1  0
 14 15  1  0
 16 10  1  0
 16 15  1  0
 17 10  2  0
 18 19  1  0
 20 21  2  0
 21 40  1  0
 22 21  1  0
 22 25  1  0
 23 24  1  0
 23 20  1  0
 24 22  2  0
 25 26  1  0
 26 27  2  0
 28 31  1  0
 28 27  1  0
 29 28  2  0
 30 29  1  0
 30 25  2  0
 31 32  1  0
 32 33  1  0
 33 34  2  0
 35 34  1  0
 35 39  1  0
 36 35  2  0
 37 32  2  0
 37 36  1  0
 38 37  1  0
 40 41  1  0
 41 44  1  0
 41 43  1  0
 42 40  2  0
 45 20  1  0
 45 46  1  0
 47 45  1  0
 48 50  2  0
 49 48  1  0
 49  1  1  0
 51 49  1  0
 52 53  1  0
 52 48  1  0
 54 65  2  0
 55 53  1  0
 55 60  1  0
 56 64  1  0
 56 66  1  0
 57 63  1  0
 57 59  1  0
 58 64  1  0
 59 58  1  0
 60 59  2  0
 61 62  1  0
 61 55  2  0
 62 57  2  0
 63 56  1  0
 64 54  1  0
 66 68  2  0
 67 66  1  0
 69 67  1  0
 70 79  2  0
 70 75  1  0
 71 67  1  0
 71 75  1  0
 72 71  1  0
 73 74  1  0
 73 72  1  0
 74 70  1  0
 75 76  2  0
 76 77  1  0
 78 77  2  0
 79 78  1  0
 80 54  1  0
 80 85  1  0
 80 81  1  0
 81 84  1  1
 81 82  1  0
 83 81  1  0
 85 88  1  0
 86 90  1  0
 86 85  1  0
 87 86  2  0
 90 89  1  0
 92 93  1  0
 92 90  1  0
 92 91  1  0
M  ISO  4  10 100  18 100  52 101  53 101
M  END
>  <TORSDO>  (1) 
F 19

>  <SCORE>  (1) 
-14.523

>  <name>  (1) 
0

>  <ligand_id>  (1) 
0

>  <original_smiles>  (1) 
[H]c1c([H])c([H])c2c(c1[H])C([H])([H])C([H])([H])C([H])([H])C2([H])N([H])C(=O)C1([H])N(C(=O)C([H])(N([H])C(=O)C([H])(N([H])C([H])([H])[H])C([H])([H])[H])C(C([H])([H])[H])(C([H])([H])[H])C([H])([H])[H])C([H])([H])c2c([H])c(OC([H])([H])C(=O)N([H])C([H])([H])c3c([H])c(F)c(N([H])C(=O)N4C([H])([H])C([H])([H])C([H])([H])C([H])(n5nc(-c6c([H])c([H])c(Oc7c([H])c([H])c(F)c([H])c7F)c([H])c6[H])c(C(=O)N([H])[H])c5N([H])[H])C4([H])[H])c([H])c3F)c([H])c([H])c2C1([H])[H]

>  <smiles>  (1) 
[H]c1c([H])c([H])c2c(c1[H])C([H])([H])C([H])([H])C([H])([H])C2([H])N([H])C(=O)C1([H])N(C(=O)C([H])(N([H])C(=O)C([H])(N([H])C([H])([H])[H])C([H])([H])[H])C(C([H])([H])[H])(C([H])([H])[H])C([H])([H])[H])C([H])([H])c2c([H])c(OC([H])([H])C(=O)N([H])C([H])([H])c3c([H])c(F)c(N([H])C(=O)N4C([H])([H])C([H])([H])C([H])([H])C([H])(n5nc(-c6c([H])c([H])c(Oc7c([H])c([H])c(F)c([H])c7F)c([H])c6[H])c(C(=O)N([H])[H])c5N([H])[H])C4([H])[H])c([H])c3F)c([H])c([H])c2C1([H])[H]

$$$$
1:0:0
     RDKit          3D

 97106  0  0  1  0  0  0  0  0999 V2000
  -27.7120  -22.6140   17.1170 C   0  0  0  0  0  2  0  0  0  0  0  0
  -28.6600  -21.5570   17.6520 C   0  0  0  0  0  2  0  0  0  0  0  0
  -27.3910  -23.4110   18.3710 C   0  0  0  0  0  2  0  0  0  0  0  0
  -29.4310  -22.2540   18.7940 C   0  0  0  0  0  3  0  0  0  0  0  0
  -28.6650  -23.5110   19.1260 N   0  0  1  0  0  4  0  0  0  0  0  0
  -28.4260  -23.5110   20.1090 H   0  0  0  0  0  0  0  0  0  0  0  0
  -29.6820  -21.2990   19.9970 C   0  0  0  0  0  2  0  0  0  0  0  0
  -30.3430  -19.9390   19.5950 C   0  0  0  0  0  2  0  0  0  0  0  0
  -32.6830  -18.5310   22.0680 C   0  0  0  0  0  2  0  0  0  0  0  0
  -32.6150  -17.5630   20.8920 C   0  0  0  0  0  2  0  0  0  0  0  0
  -31.7350  -19.6550   21.6520 C   0  0  0  0  0  2  0  0  0  0  0  0
  -31.1630  -17.6690   20.3870 C   0  0  0  0  0  3  0  0  0  0  0  0
  -30.7230  -19.0590   20.7410 N   0  0  2  0  0  4  0  0  0  0  0  0
  -29.8920  -18.8640   21.2940 H   0  0  0  0  0  0  0  0  0  0  0  0
  -30.7950  -14.5200   20.0980 C   0  0  0  0  0  0  0  0  0  0  0  0
  -30.4960  -12.3780   18.8900 C   0  0  0  0  0  2  0  0  0  0  0  0
  -29.4640  -12.5710   17.7590 C   0  0  0  0  0  2  0  0  0  0  0  0
  -28.0190  -12.4170   18.2780 C   0  0  0  0  0  2  0  0  0  0  0  0
  -27.7580  -13.2340   19.5680 C   0  0  0  0  0  3  0  0  0  0  0  0
  -28.8750  -12.9600   20.6000 C   0  0  0  0  0  2  0  0  0  0  0  0
  -30.1680  -13.3160   19.9750 N   0  0  0  0  0  0  0  0  0  0  0  0
  -31.8330  -14.8020   19.4900 O   0  0  0  0  0  0  0  0  0  0  0  0
  -30.2070  -16.6990   21.1250 C   0  0  0  0  0  0  0  0  0  0  0  0
  -30.1140  -15.3770   20.8850 N   0  0  0  0  0  0  0  0  0  0  0  0
  -29.4360  -17.1940   21.9530 O   0  0  0  0  0  0  0  0  0  0  0  0
  -29.3540  -14.9360   21.3770 H   0  0  0  0  0  0  0  0  0  0  0  0
  -25.4110  -13.8530   20.4350 C   0  0  0  0  0  0  0  0  0  0  0  0
  -24.3600  -13.0820   20.8540 C   0  0  0  0  0  0  0  0  0  0  0  0
  -24.8040  -11.7280   20.7630 C   0  0  0  0  0  0  0  0  0  0  0  0
  -26.4310  -12.9670   20.1200 N   0  0  0  0  0  0  0  0  0  0  0  0
  -26.0720  -11.6840   20.3710 N   0  0  0  0  0  0  0  0  0  0  0  0
  -24.0800  -10.4680   20.9690 C   0  0  0  0  0  0  0  0  0  0  0  0
  -24.5160   -9.5120   21.9130 C   0  0  0  0  0  3  0  0  0  0  0  0
  -23.7940   -8.3150   22.1050 C   0  0  0  0  0  3  0  0  0  0  0  0
  -22.6220   -8.0650   21.3540 C   0  0  0  0  0  0  0  0  0  0  0  0
  -22.2050   -9.0090   20.3990 C   0  0  0  0  0  3  0  0  0  0  0  0
  -22.9270  -10.1970   20.2050 C   0  0  0  0  0  3  0  0  0  0  0  0
  -21.8700   -6.9190   21.4550 O   0  0  0  0  0  0  0  0  0  0  0  0
  -21.7620   -6.2330   22.6370 C   0  0  0  0  0  0  0  0  0  0  0  0
  -21.2550   -6.8390   23.8080 C   0  0  0  0  0  3  0  0  0  0  0  0
  -21.0960   -6.0760   24.9820 C   0  0  0  0  0  3  0  0  0  0  0  0
  -21.4330   -4.7090   24.9890 C   0  0  0  0  0  0  0  0  0  0  0  0
  -21.9320   -4.1040   23.8210 C   0  0  0  0  0  3  0  0  0  0  0  0
  -22.0920   -4.8620   22.6490 C   0  0  0  0  0  0  0  0  0  0  0  0
  -22.5540   -4.2690   21.5230 F   0  0  0  0  0  0  0  0  0  0  0  0
  -21.2730   -3.9750   26.1130 F   0  0  0  0  0  0  0  0  0  0  0  0
  -22.9870  -13.5630   21.2270 C   0  0  0  0  0  0  0  0  0  0  0  0
  -22.3100  -12.8510   22.1220 N   0  0  0  0  0  0  0  0  0  0  0  0
  -22.5240  -14.6030   20.7600 O   0  0  0  0  0  0  0  0  0  0  0  0
  -22.7000  -12.0120   22.5250 H   0  0  0  0  0  0  0  0  0  0  0  0
  -21.3900  -13.1520   22.4120 H   0  0  0  0  0  0  0  0  0  0  0  0
  -25.5790  -15.2270   20.2800 N   0  0  0  0  0  0  0  0  0  0  0  0
  -24.8280  -15.8860   20.4550 H   0  0  0  0  0  0  0  0  0  0  0  0
  -26.4100  -15.6660   19.9040 H   0  0  0  0  0  0  0  0  0  0  0  0
  -29.4660  -24.7630   18.8730 C   0  0  0  0  0  2  0  0  0  0  0  0
  -28.7240  -26.1340   18.7420 C   0  0  0  0  0  2  0  0  0  0  0  0
  -28.3330  -26.7530   19.9790 O   0  0  0  0  0  0  0  0  0  0  0  0
  -24.5430  -31.8900   23.1830 C   0  0  0  0  0  0  0  0  0  0  0  0
  -27.1620  -27.4890   19.9920 C   0  0  0  0  0  0  0  0  0  0  0  0
  -23.3180  -30.5040   21.5420 C   0  0  0  0  0  3  0  0  0  0  0  0
  -24.7560  -28.9870   20.0800 C   0  0  0  0  0  0  0  0  0  0  0  0
  -25.8420  -30.8670   21.3160 C   0  0  0  0  0  2  0  0  0  0  0  0
  -25.9220  -29.5030   20.6580 C   0  0  0  0  0  0  0  0  0  0  0  0
  -27.1240  -28.7570   20.6220 C   0  0  0  0  0  3  0  0  0  0  0  0
  -25.9670  -26.9820   19.4330 C   0  0  0  0  0  3  0  0  0  0  0  0
  -24.7710  -27.7220   19.4730 C   0  0  0  0  0  3  0  0  0  0  0  0
  -23.5110  -29.8420   20.1530 C   0  0  0  0  0  2  0  0  0  0  0  0
  -24.5870  -31.1020   22.0720 N   0  0  0  0  0  0  0  0  0  0  0  0
  -23.4690  -32.1530   23.7400 O   0  0  0  0  0  0  0  0  0  0  0  0
  -22.6830  -29.4690   22.5000 C   0  0  0  0  0  0  0  0  0  0  0  0
  -21.3560  -29.2920   22.3960 N   0  0  0  0  0  0  0  0  0  0  0  0
  -23.3800  -28.8300   23.2920 O   0  0  0  0  0  0  0  0  0  0  0  0
  -20.8530  -29.8580   21.7260 H   0  0  0  0  0  0  0  0  0  0  0  0
  -17.9890  -28.0990   22.9420 C   0  0  0  0  0  0  0  0  0  0  0  0
  -20.5520  -28.3450   23.1690 C   0  0  0  0  0  3  0  0  0  0  0  0
  -20.6400  -26.9230   22.5680 C   0  0  0  0  0  2  0  0  0  0  0  0
  -19.5180  -26.6180   21.5720 C   0  0  0  0  0  2  0  0  0  0  0  0
  -18.1470  -26.7600   22.2440 C   0  0  0  0  0  2  0  0  0  0  0  0
  -19.1190  -28.8500   23.3630 C   0  0  0  0  0  0  0  0  0  0  0  0
  -18.9170  -30.1060   23.9770 C   0  0  0  0  0  3  0  0  0  0  0  0
  -17.6180  -30.6100   24.1760 C   0  0  0  0  0  3  0  0  0  0  0  0
  -16.5030  -29.8550   23.7720 C   0  0  0  0  0  3  0  0  0  0  0  0
  -16.6890  -28.6020   23.1620 C   0  0  0  0  0  3  0  0  0  0  0  0
  -25.8360  -32.5180   23.7910 C   0  0  0  0  0  3  0  0  0  0  0  0
  -25.5290  -33.9100   24.1420 N   0  0  0  0  0  0  0  0  0  0  0  0
  -25.8490  -34.9720   23.3900 C   0  0  0  0  0  0  0  0  0  0  0  0
  -26.5060  -34.8830   22.3490 O   0  0  0  0  0  0  0  0  0  0  0  0
  -24.9480  -34.0550   24.9550 H   0  0  0  0  0  0  0  0  0  0  0  0
  -24.1150  -36.7650   23.0710 C   0  0  0  0  0  1  0  0  0  0  0  0
  -25.3630  -36.3530   23.8690 C   0  0  0  0  0  3  0  0  0  0  0  0
  -27.5010  -37.2310   24.7000 C   0  0  0  0  0  1  0  0  0  0  0  0
  -26.3940  -37.4090   23.7630 N   0  0  0  0  0  0  0  0  0  0  0  0
  -25.9870  -38.3270   23.9210 H   0  0  0  0  0  0  0  0  0  0  0  0
  -26.3770  -31.7330   25.0490 C   0  0  1  0  0  0  0  0  0  0  0  0
  -25.3020  -31.4810   26.1320 C   0  0  0  0  0  1  0  0  0  0  0  0
  -26.9560  -30.3610   24.6290 C   0  0  0  0  0  1  0  0  0  0  0  0
  -27.5370  -32.5210   25.7010 C   0  0  0  0  0  1  0  0  0  0  0  0
  1  2  1  0
  1  3  1  0
  2  4  1  0
  3  5  1  0
  4  5  1  0
  4  7  1  0
  5  6  1  1
  8  7  1  0
  8 13  1  0
 10  9  1  0
 11  9  1  0
 12 13  1  0
 12 10  1  0
 12 23  1  0
 13 14  1  1
 13 11  1  0
 15 24  1  0
 16 21  1  0
 17 18  1  0
 17 16  1  0
 19 18  1  0
 19 30  1  0
 19 20  1  0
 21 15  1  0
 21 20  1  0
 22 15  2  0
 23 25  2  0
 24 23  1  0
 24 26  1  0
 27 28  2  0
 28 47  1  0
 29 28  1  0
 29 32  1  0
 30 31  1  0
 30 27  1  0
 31 29  2  0
 32 33  1  0
 33 34  2  0
 35 38  1  0
 35 34  1  0
 36 35  2  0
 37 36  1  0
 37 32  2  0
 38 39  1  0
 39 44  2  0
 39 40  1  0
 40 41  2  0
 41 42  1  0
 42 46  1  0
 43 42  2  0
 44 43  1  0
 45 44  1  0
 47 48  1  0
 48 51  1  0
 48 50  1  0
 49 47  2  0
 52 27  1  0
 52 53  1  0
 54 52  1  0
 55  5  1  0
 56 55  1  0
 56 57  1  0
 57 59  1  0
 58 69  2  0
 59 64  1  0
 60 68  1  0
 60 70  1  0
 61 67  1  0
 61 63  1  0
 62 68  1  0
 63 62  1  0
 64 63  2  0
 65 66  1  0
 65 59  2  0
 66 61  2  0
 67 60  1  0
 68 58  1  0
 70 72  2  0
 71 70  1  0
 73 71  1  0
 74 83  2  0
 74 79  1  0
 75 71  1  0
 75 79  1  0
 76 75  1  0
 77 78  1  0
 77 76  1  0
 78 74  1  0
 79 80  2  0
 80 81  1  0
 82 81  2  0
 83 82  1  0
 84 58  1  0
 84 85  1  0
 84 94  1  0
 85 88  1  0
 86 90  1  0
 86 85  1  0
 87 86  2  0
 90 89  1  0
 92 90  1  0
 92 93  1  0
 92 91  1  0
 94 97  1  1
 94 95  1  0
 96 94  1  0
M  ISO  4  15 100  24 100  56 101  57 101
M  END
>  <TORSDO>  (2) 
F 21

>  <SCORE>  (2) 
-12.007

>  <name>  (2) 
1

>  <ligand_id>  (2) 
1

>  <original_smiles>  (2) 
[H]c1c([H])c([H])c2c(c1[H])C([H])([H])C([H])([H])C([H])([H])C2([H])N([H])C(=O)C1([H])N(C(=O)C([H])(N([H])C(=O)C([H])(N([H])C([H])([H])[H])C([H])([H])[H])C(C([H])([H])[H])(C([H])([H])[H])C([H])([H])[H])C([H])([H])c2c([H])c(OC([H])([H])C([H])([H])[N+]3([H])C([H])([H])C([H])([H])C([H])([H])C3([H])C([H])([H])C([H])([H])[N+]3([H])C([H])([H])C([H])([H])C([H])([H])C3([H])C(=O)N([H])C(=O)N3C([H])([H])C([H])([H])C([H])([H])C([H])(n4nc(-c5c([H])c([H])c(Oc6c([H])c([H])c(F)c([H])c6F)c([H])c5[H])c(C(=O)N([H])[H])c4N([H])[H])C3([H])[H])c([H])c([H])c2C1([H])[H]

>  <smiles>  (2) 
[H]c1c([H])c([H])c2c(c1[H])C([H])([H])C([H])([H])C([H])([H])C2([H])N([H])C(=O)C1([H])N(C(=O)C([H])(N([H])C(=O)C([H])(N([H])C([H])([H])[H])C([H])([H])[H])C(C([H])([H])[H])(C([H])([H])[H])C([H])([H])[H])C([H])([H])c2c([H])c(OC([H])([H])C([H])([H])[N+]3([H])C([H])([H])C([H])([H])C([H])([H])C3([H])C([H])([H])C([H])([H])[N+]3([H])C([H])([H])C([H])([H])C([H])([H])C3([H])C(=O)N([H])C(=O)N3C([H])([H])C([H])([H])C([H])([H])C([H])(n4nc(-c5c([H])c([H])c(Oc6c([H])c([H])c(F)c([H])c6F)c([H])c5[H])c(C(=O)N([H])[H])c4N([H])[H])C3([H])[H])c([H])c([H])c2C1([H])[H]

$$$$
2:0:0
     RDKit          3D

 95104  0  0  1  0  0  0  0  0999 V2000
  -28.8020  -21.6190   20.8870 C   0  0  0  0  0  0  0  0  0  0  0  0
  -27.7170  -21.4440   20.1210 C   0  0  0  0  0  0  0  0  0  0  0  0
  -26.9730  -22.5670   20.7650 C   0  0  0  0  0  2  0  0  0  0  0  0
  -28.3130  -22.9500   21.3210 N   0  0  2  0  0  4  0  0  0  0  0  0
  -28.3050  -22.9890   22.3310 H   0  0  0  0  0  0  0  0  0  0  0  0
  -29.9660  -20.7230   21.0310 C   0  0  0  0  0  0  0  0  0  0  0  0
  -29.6460  -19.3960   21.0510 N   0  0  0  0  0  0  0  0  0  0  0  0
  -31.1300  -21.1310   21.1190 O   0  0  0  0  0  0  0  0  0  0  0  0
  -28.7140  -19.1890   21.3860 H   0  0  0  0  0  0  0  0  0  0  0  0
  -30.7190  -14.6150   20.5250 C   0  0  0  0  0  0  0  0  0  0  0  0
  -30.4080  -12.4080   19.4300 C   0  0  0  0  0  2  0  0  0  0  0  0
  -29.4970  -12.5570   18.1920 C   0  0  0  0  0  2  0  0  0  0  0  0
  -28.0090  -12.4180   18.5750 C   0  0  0  0  0  2  0  0  0  0  0  0
  -27.6300  -13.2600   19.8210 C   0  0  0  0  0  3  0  0  0  0  0  0
  -28.6810  -13.1550   20.9550 C   0  0  0  0  0  2  0  0  0  0  0  0
  -30.0080  -13.4450   20.3940 N   0  0  0  0  0  0  0  0  0  0  0  0
  -31.9160  -14.6810   20.2550 O   0  0  0  0  0  0  0  0  0  0  0  0
  -29.6170  -17.6230   19.2640 C   0  0  0  0  0  2  0  0  0  0  0  0
  -29.1300  -16.2460   19.7210 C   0  0  0  0  0  2  0  0  0  0  0  0
  -30.5480  -16.9850   21.4340 C   0  0  0  0  0  2  0  0  0  0  0  0
  -30.3770  -18.2240   20.4810 C   0  0  0  0  0  3  0  0  0  0  0  0
  -30.0100  -15.7580   20.7770 N   0  0  0  0  0  0  0  0  0  0  0  0
  -25.2340  -13.8790   20.4880 C   0  0  0  0  0  0  0  0  0  0  0  0
  -24.1580  -13.1130   20.8380 C   0  0  0  0  0  0  0  0  0  0  0  0
  -24.6190  -11.7610   20.8320 C   0  0  0  0  0  0  0  0  0  0  0  0
  -26.2790  -12.9890   20.2870 N   0  0  0  0  0  0  0  0  0  0  0  0
  -25.9170  -11.7150   20.5610 N   0  0  0  0  0  0  0  0  0  0  0  0
  -23.8860  -10.5070   21.0140 C   0  0  0  0  0  0  0  0  0  0  0  0
  -24.2930   -9.5570   21.9750 C   0  0  0  0  0  3  0  0  0  0  0  0
  -23.5660   -8.3590   22.1500 C   0  0  0  0  0  3  0  0  0  0  0  0
  -22.4190   -8.1060   21.3630 C   0  0  0  0  0  0  0  0  0  0  0  0
  -22.0300   -9.0470   20.3950 C   0  0  0  0  0  3  0  0  0  0  0  0
  -22.7540  -10.2360   20.2190 C   0  0  0  0  0  3  0  0  0  0  0  0
  -21.6640   -6.9580   21.4420 O   0  0  0  0  0  0  0  0  0  0  0  0
  -21.5830   -6.2330   22.6010 C   0  0  0  0  0  0  0  0  0  0  0  0
  -21.1050   -6.8010   23.8020 C   0  0  0  0  0  3  0  0  0  0  0  0
  -20.9800   -6.0040   24.9570 C   0  0  0  0  0  3  0  0  0  0  0  0
  -21.3140   -4.6360   24.9070 C   0  0  0  0  0  0  0  0  0  0  0  0
  -21.7790   -4.0650   23.7080 C   0  0  0  0  0  3  0  0  0  0  0  0
  -21.9090   -4.8630   22.5590 C   0  0  0  0  0  0  0  0  0  0  0  0
  -22.3420   -4.3080   21.4020 F   0  0  0  0  0  0  0  0  0  0  0  0
  -21.1840   -3.8650   26.0110 F   0  0  0  0  0  0  0  0  0  0  0  0
  -22.7610  -13.5960   21.0720 C   0  0  0  0  0  0  0  0  0  0  0  0
  -22.0050  -12.9130   21.9250 N   0  0  0  0  0  0  0  0  0  0  0  0
  -22.3400  -14.6190   20.5320 O   0  0  0  0  0  0  0  0  0  0  0  0
  -22.3580  -12.0860   22.3860 H   0  0  0  0  0  0  0  0  0  0  0  0
  -21.0650  -13.2220   22.1170 H   0  0  0  0  0  0  0  0  0  0  0  0
  -25.3920  -15.2460   20.2930 N   0  0  0  0  0  0  0  0  0  0  0  0
  -24.6210  -15.8990   20.3730 H   0  0  0  0  0  0  0  0  0  0  0  0
  -26.2530  -15.6800   19.9920 H   0  0  0  0  0  0  0  0  0  0  0  0
  -27.1730  -20.5740   19.2530 O   0  0  0  0  0  0  0  0  0  0  0  0
  -27.8380  -19.9530   18.9810 H   0  0  0  0  0  0  0  0  0  0  0  0
  -28.8800  -24.2220   20.7220 C   0  0  0  0  0  2  0  0  0  0  0  0
  -28.2760  -25.5650   21.2750 C   0  0  0  0  0  2  0  0  0  0  0  0
  -28.4190  -26.6830   20.3530 O   0  0  0  0  0  0  0  0  0  0  0  0
  -24.6020  -31.9170   23.2620 C   0  0  0  0  0  0  0  0  0  0  0  0
  -27.2970  -27.4810   20.2540 C   0  0  0  0  0  0  0  0  0  0  0  0
  -23.4280  -30.5100   21.6010 C   0  0  0  0  0  3  0  0  0  0  0  0
  -24.9070  -28.9950   20.1730 C   0  0  0  0  0  0  0  0  0  0  0  0
  -25.9450  -30.9000   21.4160 C   0  0  0  0  0  2  0  0  0  0  0  0
  -26.0530  -29.5270   20.7820 C   0  0  0  0  0  0  0  0  0  0  0  0
  -27.2530  -28.7820   20.8120 C   0  0  0  0  0  3  0  0  0  0  0  0
  -26.1470  -26.9830   19.5990 C   0  0  0  0  0  3  0  0  0  0  0  0
  -24.9550  -27.7330   19.5560 C   0  0  0  0  0  3  0  0  0  0  0  0
  -23.6570  -29.8490   20.2140 C   0  0  0  0  0  2  0  0  0  0  0  0
  -24.6780  -31.1210   22.1570 N   0  0  0  0  0  0  0  0  0  0  0  0
  -23.5130  -32.1660   23.7970 O   0  0  0  0  0  0  0  0  0  0  0  0
  -22.7790  -29.4760   22.5500 C   0  0  0  0  0  0  0  0  0  0  0  0
  -21.4530  -29.2920   22.4200 N   0  0  0  0  0  0  0  0  0  0  0  0
  -23.4620  -28.8430   23.3550 O   0  0  0  0  0  0  0  0  0  0  0  0
  -20.9530  -29.8660   21.7580 H   0  0  0  0  0  0  0  0  0  0  0  0
  -18.0810  -28.0950   22.9100 C   0  0  0  0  0  0  0  0  0  0  0  0
  -20.6410  -28.3450   23.1820 C   0  0  0  0  0  3  0  0  0  0  0  0
  -20.7370  -26.9160   22.5960 C   0  0  0  0  0  2  0  0  0  0  0  0
  -19.6370  -26.6040   21.5790 C   0  0  0  0  0  2  0  0  0  0  0  0
  -18.2540  -26.7510   22.2200 C   0  0  0  0  0  2  0  0  0  0  0  0
  -19.2000  -28.8500   23.3450 C   0  0  0  0  0  0  0  0  0  0  0  0
  -18.9830  -30.1100   23.9450 C   0  0  0  0  0  3  0  0  0  0  0  0
  -17.6780  -30.6110   24.1170 C   0  0  0  0  0  3  0  0  0  0  0  0
  -16.5740  -29.8580   23.6880 C   0  0  0  0  0  3  0  0  0  0  0  0
  -16.7750  -28.6000   23.0910 C   0  0  0  0  0  3  0  0  0  0  0  0
  -25.8740  -32.5650   23.8970 C   0  0  0  0  0  3  0  0  0  0  0  0
  -26.3760  -31.8150   25.1900 C   0  0  1  0  0  0  0  0  0  0  0  0
  -25.2760  -31.6100   26.2550 C   0  0  0  0  0  1  0  0  0  0  0  0
  -26.9540  -30.4330   24.8130 C   0  0  0  0  0  1  0  0  0  0  0  0
  -27.5180  -32.6180   25.8540 C   0  0  0  0  0  1  0  0  0  0  0  0
  -25.5590  -33.9630   24.2010 N   0  0  0  0  0  0  0  0  0  0  0  0
  -25.9020  -35.0090   23.4320 C   0  0  0  0  0  0  0  0  0  0  0  0
  -26.5860  -34.8920   22.4120 O   0  0  0  0  0  0  0  0  0  0  0  0
  -24.9780  -34.1340   25.0090 H   0  0  0  0  0  0  0  0  0  0  0  0
  -24.1770  -36.7860   23.0080 C   0  0  0  0  0  1  0  0  0  0  0  0
  -25.3980  -36.3970   23.8610 C   0  0  0  0  0  3  0  0  0  0  0  0
  -27.5140  -37.2820   24.7390 C   0  0  0  0  0  1  0  0  0  0  0  0
  -26.4290  -37.4530   23.7770 N   0  0  0  0  0  0  0  0  0  0  0  0
  -26.0100  -38.3670   23.9320 H   0  0  0  0  0  0  0  0  0  0  0  0
  1  6  1  0
  1  4  1  0
  2  3  1  0
  2  1  2  0
  3  4  1  0
  4  5  1  1
  6  7  1  0
  6  8  2  0
  7  9  1  0
 10 22  1  0
 11 16  1  0
 12 13  1  0
 12 11  1  0
 14 13  1  0
 14 26  1  0
 14 15  1  0
 16 10  1  0
 16 15  1  0
 17 10  2  0
 18 19  1  0
 18 21  1  0
 19 22  1  0
 21  7  1  0
 21 20  1  0
 22 20  1  0
 23 24  2  0
 24 43  1  0
 25 24  1  0
 25 28  1  0
 26 23  1  0
 26 27  1  0
 27 25  2  0
 28 29  1  0
 29 30  2  0
 31 34  1  0
 31 30  1  0
 32 31  2  0
 33 32  1  0
 33 28  2  0
 34 35  1  0
 35 36  1  0
 36 37  2  0
 38 37  1  0
 38 42  1  0
 39 38  2  0
 40 35  2  0
 40 39  1  0
 41 40  1  0
 43 44  1  0
 44 47  1  0
 44 46  1  0
 45 43  2  0
 48 49  1  0
 48 23  1  0
 50 48  1  0
 51  2  1  0
 52 51  1  0
 53 54  1  0
 53  4  1  0
 55 54  1  0
 56 67  2  0
 57 55  1  0
 57 62  1  0
 58 66  1  0
 58 68  1  0
 59 65  1  0
 59 61  1  0
 60 66  1  0
 61 62  2  0
 61 60  1  0
 63 57  2  0
 64 63  1  0
 64 59  2  0
 65 58  1  0
 66 56  1  0
 68 70  2  0
 69 68  1  0
 71 69  1  0
 72 81  2  0
 72 77  1  0
 73 69  1  0
 73 77  1  0
 74 73  1  0
 75 76  1  0
 75 74  1  0
 76 72  1  0
 77 78  2  0
 78 79  1  0
 80 79  2  0
 81 80  1  0
 82 56  1  0
 82 87  1  0
 82 83  1  0
 83 86  1  1
 83 84  1  0
 85 83  1  0
 87 90  1  0
 88 92  1  0
 88 87  1  0
 89 88  2  0
 92 91  1  0
 94 92  1  0
 94 95  1  0
 94 93  1  0
M  ISO  4  10 100  22 100  54 101  55 101
M  END
>  <TORSDO>  (3) 
F 20

>  <SCORE>  (3) 
-14.545

>  <name>  (3) 
2

>  <ligand_id>  (3) 
2

>  <original_smiles>  (3) 
[H]OC1=C(C(=O)N([H])C2([H])C([H])([H])N(C(=O)N3C([H])([H])C([H])([H])C([H])([H])C([H])(n4nc(-c5c([H])c([H])c(Oc6c([H])c([H])c(F)c([H])c6F)c([H])c5[H])c(C(=O)N([H])[H])c4N([H])[H])C3([H])[H])C([H])([H])C2([H])[H])[N+]([H])(C([H])([H])C([H])([H])Oc2c([H])c([H])c3c(c2[H])C([H])([H])N(C(=O)C([H])(N([H])C(=O)C([H])(N([H])C([H])([H])[H])C([H])([H])[H])C(C([H])([H])[H])(C([H])([H])[H])C([H])([H])[H])C([H])(C(=O)N([H])C2([H])c4c([H])c([H])c([H])c([H])c4C([H])([H])C([H])([H])C2([H])[H])C3([H])[H])C1([H])[H]

>  <smiles>  (3) 
[H]OC1=C(C(=O)N([H])C2([H])C([H])([H])N(C(=O)N3C([H])([H])C([H])([H])C([H])([H])C([H])(n4nc(-c5c([H])c([H])c(Oc6c([H])c([H])c(F)c([H])c6F)c([H])c5[H])c(C(=O)N([H])[H])c4N([H])[H])C3([H])[H])C([H])([H])C2([H])[H])[N+]([H])(C([H])([H])C([H])([H])Oc2c([H])c([H])c3c(c2[H])C([H])([H])N(C(=O)C([H])(N([H])C(=O)C([H])(N([H])C([H])([H])[H])C([H])([H])[H])C(C([H])([H])[H])(C([H])([H])[H])C([H])([H])[H])C([H])(C(=O)N([H])C2([H])c4c([H])c([H])c([H])c([H])c4C([H])([H])C([H])([H])C2([H])[H])C3([H])[H])C1([H])[H]

$$$$
3:0:0
     RDKit          3D

 92100  0  0  1  0  0  0  0  0999 V2000
  -30.4750  -15.4500   20.3520 C   0  0  0  0  0  0  0  0  0  0  0  0
  -30.4360  -12.9840   19.4810 C   0  0  0  0  0  2  0  0  0  0  0  0
  -29.5430  -12.7170   18.2440 C   0  0  0  0  0  2  0  0  0  0  0  0
  -28.1070  -12.4060   18.6810 C   0  0  0  0  0  2  0  0  0  0  0  0
  -27.6200  -13.3810   19.7800 C   0  0  0  0  0  3  0  0  0  0  0  0
  -28.6500  -13.6130   20.9090 C   0  0  0  0  0  2  0  0  0  0  0  0
  -29.8660  -14.1500   20.2760 N   0  0  0  0  0  0  0  0  0  0  0  0
  -31.6930  -15.3550   20.1350 O   0  0  0  0  0  0  0  0  0  0  0  0
  -30.0090  -19.1830   21.7850 C   0  0  0  0  0  2  0  0  0  0  0  0
  -30.5550  -17.6700   21.6920 C   0  0  0  0  0  2  0  0  0  0  0  0
  -29.1870  -18.0910   19.9060 C   0  0  0  0  0  3  0  0  0  0  0  0
  -29.5510  -19.7400   20.4160 C   0  0  0  0  0  3  0  0  0  0  0  0
  -29.8970  -16.8200   20.6490 N   0  0  0  0  0  0  0  0  0  0  0  0
  -25.2390  -13.8980   20.5100 C   0  0  0  0  0  0  0  0  0  0  0  0
  -24.1840  -13.1050   20.8610 C   0  0  0  0  0  0  0  0  0  0  0  0
  -24.6730  -11.7620   20.8460 C   0  0  0  0  0  0  0  0  0  0  0  0
  -26.2980  -13.0390   20.2850 N   0  0  0  0  0  0  0  0  0  0  0  0
  -25.9700  -11.7480   20.5550 N   0  0  0  0  0  0  0  0  0  0  0  0
  -23.9630  -10.4900   21.0320 C   0  0  0  0  0  0  0  0  0  0  0  0
  -24.3950   -9.5330   21.9780 C   0  0  0  0  0  3  0  0  0  0  0  0
  -23.6790   -8.3290   22.1540 C   0  0  0  0  0  3  0  0  0  0  0  0
  -22.5180   -8.0740   21.3870 C   0  0  0  0  0  0  0  0  0  0  0  0
  -22.1060   -9.0190   20.4320 C   0  0  0  0  0  3  0  0  0  0  0  0
  -22.8220  -10.2150   20.2530 C   0  0  0  0  0  3  0  0  0  0  0  0
  -21.7760   -6.9200   21.4730 O   0  0  0  0  0  0  0  0  0  0  0  0
  -21.7210   -6.1820   22.6280 C   0  0  0  0  0  0  0  0  0  0  0  0
  -21.2760   -6.7390   23.8470 C   0  0  0  0  0  3  0  0  0  0  0  0
  -21.1690   -5.9270   24.9950 C   0  0  0  0  0  3  0  0  0  0  0  0
  -21.4970   -4.5590   24.9230 C   0  0  0  0  0  0  0  0  0  0  0  0
  -21.9360   -4.0030   23.7080 C   0  0  0  0  0  3  0  0  0  0  0  0
  -22.0430   -4.8110   22.5640 C   0  0  0  0  0  0  0  0  0  0  0  0
  -22.4450   -4.2650   21.3900 F   0  0  0  0  0  0  0  0  0  0  0  0
  -21.3880   -3.7760   26.0220 F   0  0  0  0  0  0  0  0  0  0  0  0
  -22.7760  -13.5620   21.1010 C   0  0  0  0  0  0  0  0  0  0  0  0
  -22.0450  -12.8660   21.9670 N   0  0  0  0  0  0  0  0  0  0  0  0
  -22.3310  -14.5740   20.5600 O   0  0  0  0  0  0  0  0  0  0  0  0
  -22.4180  -12.0490   22.4290 H   0  0  0  0  0  0  0  0  0  0  0  0
  -21.1000  -13.1550   22.1720 H   0  0  0  0  0  0  0  0  0  0  0  0
  -25.3890  -15.2710   20.3380 N   0  0  0  0  0  0  0  0  0  0  0  0
  -24.6280  -15.9250   20.4840 H   0  0  0  0  0  0  0  0  0  0  0  0
  -26.2640  -15.7270   20.1130 H   0  0  0  0  0  0  0  0  0  0  0  0
  -29.3800  -17.9030   18.3960 C   0  0  0  0  0  0  0  0  0  0  0  0
  -28.2920  -17.7480   17.6480 N   0  0  0  0  0  0  0  0  0  0  0  0
  -30.5080  -17.8770   17.9070 O   0  0  0  0  0  0  0  0  0  0  0  0
  -27.3770  -17.7810   18.0770 H   0  0  0  0  0  0  0  0  0  0  0  0
  -28.3630  -17.6220   16.6470 H   0  0  0  0  0  0  0  0  0  0  0  0
  -28.9640  -22.7120   20.3960 C   0  0  0  0  0  0  0  0  0  0  0  0
  -28.6990  -21.2260   20.3900 N   0  0  0  0  0  0  0  0  0  0  0  0
  -30.1600  -23.0070   20.4360 O   0  0  0  0  0  0  0  0  0  0  0  0
  -27.7000  -21.0620   20.3580 H   0  0  0  0  0  0  0  0  0  0  0  0
  -27.8940  -24.1460   20.3370 C   0  0  0  0  0  2  0  0  0  0  0  0
  -28.2210  -25.7950   20.4120 O   0  0  0  0  0  0  0  0  0  0  0  0
  -24.6990  -31.9180   23.2870 C   0  0  0  0  0  0  0  0  0  0  0  0
  -27.2400  -26.9430   20.3420 C   0  0  0  0  0  0  0  0  0  0  0  0
  -23.5160  -30.5220   21.6430 C   0  0  0  0  0  3  0  0  0  0  0  0
  -24.9690  -28.8870   20.2510 C   0  0  0  0  0  0  0  0  0  0  0  0
  -26.0890  -30.6920   21.5350 C   0  0  0  0  0  2  0  0  0  0  0  0
  -26.1570  -29.2710   20.8870 C   0  0  0  0  0  0  0  0  0  0  0  0
  -27.2860  -28.3230   20.9030 C   0  0  0  0  0  3  0  0  0  0  0  0
  -26.0250  -26.7290   19.6540 C   0  0  0  0  0  3  0  0  0  0  0  0
  -24.9330  -27.6370   19.6120 C   0  0  0  0  0  3  0  0  0  0  0  0
  -23.7610  -29.8250   20.2760 C   0  0  0  0  0  2  0  0  0  0  0  0
  -24.7900  -31.0720   22.2090 N   0  0  0  0  0  0  0  0  0  0  0  0
  -23.6040  -32.2220   23.7890 O   0  0  0  0  0  0  0  0  0  0  0  0
  -22.7940  -29.5420   22.6060 C   0  0  0  0  0  0  0  0  0  0  0  0
  -21.4640  -29.3960   22.4680 N   0  0  0  0  0  0  0  0  0  0  0  0
  -23.4420  -28.9150   23.4490 O   0  0  0  0  0  0  0  0  0  0  0  0
  -20.9940  -29.9520   21.7680 H   0  0  0  0  0  0  0  0  0  0  0  0
  -18.0600  -28.2270   22.9530 C   0  0  0  0  0  0  0  0  0  0  0  0
  -20.6210  -28.4690   23.2350 C   0  0  0  0  0  3  0  0  0  0  0  0
  -20.7130  -27.0330   22.6670 C   0  0  0  0  0  2  0  0  0  0  0  0
  -19.6170  -26.7190   21.6440 C   0  0  0  0  0  2  0  0  0  0  0  0
  -18.2310  -26.8760   22.2770 C   0  0  0  0  0  2  0  0  0  0  0  0
  -19.1830  -28.9820   23.3890 C   0  0  0  0  0  0  0  0  0  0  0  0
  -18.9680  -30.2440   23.9830 C   0  0  0  0  0  3  0  0  0  0  0  0
  -17.6650  -30.7520   24.1450 C   0  0  0  0  0  3  0  0  0  0  0  0
  -16.5580  -29.9950   23.7220 C   0  0  0  0  0  3  0  0  0  0  0  0
  -16.7570  -28.7340   23.1340 C   0  0  0  0  0  3  0  0  0  0  0  0
  -25.9640  -32.5570   23.9360 C   0  0  0  0  0  3  0  0  0  0  0  0
  -25.6470  -33.9560   24.2740 N   0  0  0  0  0  0  0  0  0  0  0  0
  -25.9750  -35.0200   23.5290 C   0  0  0  0  0  0  0  0  0  0  0  0
  -26.6370  -34.9270   22.4920 O   0  0  0  0  0  0  0  0  0  0  0  0
  -25.0570  -34.1020   25.0800 H   0  0  0  0  0  0  0  0  0  0  0  0
  -24.2330  -36.8150   23.2320 C   0  0  0  0  0  1  0  0  0  0  0  0
  -25.4970  -36.4080   24.0060 C   0  0  0  0  0  3  0  0  0  0  0  0
  -27.6460  -37.3040   24.7860 C   0  0  0  0  0  1  0  0  0  0  0  0
  -26.5220  -37.4660   23.8690 N   0  0  0  0  0  0  0  0  0  0  0  0
  -26.1160  -38.3840   24.0250 H   0  0  0  0  0  0  0  0  0  0  0  0
  -26.4520  -31.7870   25.2270 C   0  0  1  0  0  0  0  0  0  0  0  0
  -25.3380  -31.5610   26.2770 C   0  0  0  0  0  1  0  0  0  0  0  0
  -27.0350  -30.4040   24.8600 C   0  0  0  0  0  1  0  0  0  0  0  0
  -27.5940  -32.5780   25.9070 C   0  0  0  0  0  1  0  0  0  0  0  0
  1 13  1  0
  2  7  1  0
  3  4  1  0
  3  2  1  0
  5  4  1  0
  5 17  1  0
  5  6  1  0
  7  1  1  0
  7  6  1  0
  8  1  2  0
 10  9  1  0
 11 42  1  0
 11 12  1  0
 11 13  1  0
 12 48  1  0
 12  9  1  0
 13 10  1  0
 14 15  2  0
 15 34  1  0
 16 15  1  0
 16 19  1  0
 17 14  1  0
 17 18  1  0
 18 16  2  0
 19 20  1  0
 20 21  2  0
 22 25  1  0
 22 21  1  0
 23 22  2  0
 24 23  1  0
 24 19  2  0
 25 26  1  0
 26 27  1  0
 27 28  2  0
 29 28  1  0
 29 33  1  0
 30 29  2  0
 31 26  2  0
 31 30  1  0
 32 31  1  0
 34 35  1  0
 35 38  1  0
 35 37  1  0
 36 34  2  0
 39 40  1  0
 39 14  1  0
 41 39  1  0
 43 45  1  0
 43 42  1  0
 44 42  2  0
 46 43  1  0
 47 49  2  0
 48 47  1  0
 50 48  1  0
 51 47  1  0
 51 52  1  0
 53 64  2  0
 54 52  1  0
 54 59  1  0
 55 63  1  0
 55 65  1  0
 56 62  1  0
 56 58  1  0
 57 63  1  0
 58 59  2  0
 58 57  1  0
 60 54  2  0
 61 60  1  0
 61 56  2  0
 62 55  1  0
 63 53  1  0
 65 67  2  0
 66 65  1  0
 68 66  1  0
 69 78  2  0
 69 74  1  0
 70 66  1  0
 70 74  1  0
 71 70  1  0
 72 73  1  0
 72 71  1  0
 73 69  1  0
 74 75  2  0
 75 76  1  0
 77 76  2  0
 78 77  1  0
 79 53  1  0
 79 80  1  0
 79 89  1  0
 80 83  1  0
 81 85  1  0
 81 80  1  0
 82 81  2  0
 85 84  1  0
 87 85  1  0
 87 88  1  0
 87 86  1  0
 89 92  1  1
 89 90  1  0
 91 89  1  0
M  ISO  4   1 100  13 100  51 101  52 101
M  END
>  <TORSDO>  (4) 
F 18

>  <SCORE>  (4) 
-16.023

>  <name>  (4) 
3

>  <ligand_id>  (4) 
3

>  <original_smiles>  (4) 
[H]c1c([H])c([H])c2c(c1[H])C([H])([H])C([H])([H])C([H])([H])C2([H])N([H])C(=O)C1([H])N(C(=O)C([H])(N([H])C(=O)C([H])(N([H])C([H])([H])[H])C([H])([H])[H])C(C([H])([H])[H])(C([H])([H])[H])C([H])([H])[H])C([H])([H])c2c([H])c(OC([H])([H])C(=O)N([H])C3([H])C([H])(C(=O)N([H])[H])N(C(=O)N4C([H])([H])C([H])([H])C([H])([H])C([H])(n5nc(-c6c([H])c([H])c(Oc7c([H])c([H])c(F)c([H])c7F)c([H])c6[H])c(C(=O)N([H])[H])c5N([H])[H])C4([H])[H])C([H])([H])C3([H])[H])c([H])c([H])c2C1([H])[H]

>  <smiles>  (4) 
[H]c1c([H])c([H])c2c(c1[H])C([H])([H])C([H])([H])C([H])([H])C2([H])N([H])C(=O)C1([H])N(C(=O)C([H])(N([H])C(=O)C([H])(N([H])C([H])([H])[H])C([H])([H])[H])C(C([H])([H])[H])(C([H])([H])[H])C([H])([H])[H])C([H])([H])c2c([H])c(OC([H])([H])C(=O)N([H])C3([H])C([H])(C(=O)N([H])[H])N(C(=O)N4C([H])([H])C([H])([H])C([H])([H])C([H])(n5nc(-c6c([H])c([H])c(Oc7c([H])c([H])c(F)c([H])c7F)c([H])c6[H])c(C(=O)N([H])[H])c5N([H])[H])C4([H])[H])C([H])([H])C3([H])[H])c([H])c([H])c2C1([H])[H]

$$$$
4:0:0
     RDKit          3D

 93101  0  0  1  0  0  0  0  0999 V2000
  -28.4890  -21.8190   20.6100 N   0  0  0  0  0  4  0  0  0  0  0  0
  -28.3110  -22.0580   21.5730 H   0  0  0  0  0  0  0  0  0  0  0  0
  -29.4530  -21.5290   20.5400 H   0  0  0  0  0  0  0  0  0  0  0  0
  -28.2810  -23.0070   19.7430 C   0  0  0  0  0  2  0  0  0  0  0  0
  -28.4620  -24.3570   20.4740 C   0  0  0  0  0  2  0  0  0  0  0  0
  -28.6160  -25.5500   19.5040 C   0  0  0  0  0  2  0  0  0  0  0  0
  -28.4650  -26.8080   20.1760 O   0  0  0  0  0  0  0  0  0  0  0  0
  -24.5810  -31.9150   23.2480 C   0  0  0  0  0  0  0  0  0  0  0  0
  -27.2510  -27.4720   20.1760 C   0  0  0  0  0  0  0  0  0  0  0  0
  -23.3850  -30.5150   21.5970 C   0  0  0  0  0  3  0  0  0  0  0  0
  -24.8460  -28.9730   20.1860 C   0  0  0  0  0  0  0  0  0  0  0  0
  -25.9100  -30.8710   21.4160 C   0  0  0  0  0  2  0  0  0  0  0  0
  -25.9990  -29.4970   20.7800 C   0  0  0  0  0  0  0  0  0  0  0  0
  -27.1990  -28.7520   20.7740 C   0  0  0  0  0  3  0  0  0  0  0  0
  -26.0650  -26.9490   19.6040 C   0  0  0  0  0  3  0  0  0  0  0  0
  -24.8730  -27.6970   19.6010 C   0  0  0  0  0  3  0  0  0  0  0  0
  -23.6040  -29.8350   20.2190 C   0  0  0  0  0  2  0  0  0  0  0  0
  -24.6440  -31.1150   22.1470 N   0  0  0  0  0  0  0  0  0  0  0  0
  -23.4970  -32.1860   23.7830 O   0  0  0  0  0  0  0  0  0  0  0  0
  -22.7260  -29.4930   22.5510 C   0  0  0  0  0  0  0  0  0  0  0  0
  -21.4010  -29.3160   22.4170 N   0  0  0  0  0  0  0  0  0  0  0  0
  -23.4050  -28.8620   23.3660 O   0  0  0  0  0  0  0  0  0  0  0  0
  -20.9140  -29.8790   21.7350 H   0  0  0  0  0  0  0  0  0  0  0  0
  -18.0240  -28.1340   22.8970 C   0  0  0  0  0  0  0  0  0  0  0  0
  -20.5800  -28.3780   23.1810 C   0  0  0  0  0  3  0  0  0  0  0  0
  -20.6810  -26.9490   22.5960 C   0  0  0  0  0  2  0  0  0  0  0  0
  -19.5810  -26.6360   21.5760 C   0  0  0  0  0  2  0  0  0  0  0  0
  -18.1980  -26.7860   22.2170 C   0  0  0  0  0  2  0  0  0  0  0  0
  -19.1440  -28.8880   23.3350 C   0  0  0  0  0  0  0  0  0  0  0  0
  -18.9290  -30.1520   23.9260 C   0  0  0  0  0  3  0  0  0  0  0  0
  -17.6260  -30.6600   24.0840 C   0  0  0  0  0  3  0  0  0  0  0  0
  -16.5200  -29.9010   23.6640 C   0  0  0  0  0  3  0  0  0  0  0  0
  -16.7200  -28.6400   23.0750 C   0  0  0  0  0  3  0  0  0  0  0  0
  -25.8630  -32.5450   23.8770 C   0  0  0  0  0  3  0  0  0  0  0  0
  -25.5580  -33.9470   24.1910 N   0  0  0  0  0  0  0  0  0  0  0  0
  -25.9090  -34.9920   23.4280 C   0  0  0  0  0  0  0  0  0  0  0  0
  -26.5960  -34.8750   22.4090 O   0  0  0  0  0  0  0  0  0  0  0  0
  -24.9520  -34.1130   24.9820 H   0  0  0  0  0  0  0  0  0  0  0  0
  -24.2020  -36.7930   23.0230 C   0  0  0  0  0  1  0  0  0  0  0  0
  -25.4220  -36.3860   23.8650 C   0  0  0  0  0  3  0  0  0  0  0  0
  -27.5450  -37.2610   24.7370 C   0  0  0  0  0  1  0  0  0  0  0  0
  -26.4650  -37.4300   23.7680 N   0  0  0  0  0  0  0  0  0  0  0  0
  -26.0630  -38.3550   23.9010 H   0  0  0  0  0  0  0  0  0  0  0  0
  -26.3660  -31.7810   25.1610 C   0  0  1  0  0  0  0  0  0  0  0  0
  -25.2640  -31.5510   26.2210 C   0  0  0  0  0  1  0  0  0  0  0  0
  -26.9470  -30.4010   24.7790 C   0  0  0  0  0  1  0  0  0  0  0  0
  -27.5160  -32.5730   25.8280 C   0  0  0  0  0  1  0  0  0  0  0  0
  -27.6460  -20.6530   20.2600 C   0  0  0  0  0  2  0  0  0  0  0  0
  -28.3220  -19.2910   20.5670 C   0  0  0  0  0  2  0  0  0  0  0  0
  -30.4580  -18.5230   17.6420 C   0  0  0  0  0  2  0  0  0  0  0  0
  -30.7240  -17.3260   18.5390 C   0  0  0  0  0  2  0  0  0  0  0  0
  -29.3030  -19.2370   18.3250 C   0  0  0  0  0  2  0  0  0  0  0  0
  -29.8100  -17.5240   19.7600 C   0  0  0  0  0  3  0  0  0  0  0  0
  -29.5120  -18.9700   19.7520 N   0  0  0  0  0  0  0  0  0  0  0  0
  -30.4300  -16.9650   21.0670 C   0  0  0  0  0  2  0  0  0  0  0  0
  -30.9650  -14.5510   20.5670 C   0  0  0  0  0  0  0  0  0  0  0  0
  -30.7020  -12.4050   19.3820 C   0  0  0  0  0  2  0  0  0  0  0  0
  -29.7930  -12.6210   18.1530 C   0  0  0  0  0  2  0  0  0  0  0  0
  -28.3040  -12.5020   18.5380 C   0  0  0  0  0  2  0  0  0  0  0  0
  -27.9400  -13.3400   19.7920 C   0  0  0  0  0  3  0  0  0  0  0  0
  -28.9550  -13.0770   20.9280 C   0  0  0  0  0  2  0  0  0  0  0  0
  -30.3050  -13.3730   20.4130 N   0  0  0  0  0  0  0  0  0  0  0  0
  -32.0790  -14.7750   20.0840 O   0  0  0  0  0  0  0  0  0  0  0  0
  -30.2360  -15.5150   21.1490 N   0  0  0  0  0  0  0  0  0  0  0  0
  -29.3570  -15.2090   21.5400 H   0  0  0  0  0  0  0  0  0  0  0  0
  -25.5190  -13.9850   20.3950 C   0  0  0  0  0  0  0  0  0  0  0  0
  -24.4330  -13.2290   20.7490 C   0  0  0  0  0  0  0  0  0  0  0  0
  -24.8850  -11.8750   20.7700 C   0  0  0  0  0  0  0  0  0  0  0  0
  -26.5660  -13.0910   20.2240 N   0  0  0  0  0  0  0  0  0  0  0  0
  -26.1840  -11.8190   20.5050 N   0  0  0  0  0  0  0  0  0  0  0  0
  -24.1470  -10.6220   20.9720 C   0  0  0  0  0  0  0  0  0  0  0  0
  -24.5480   -9.6760   21.9390 C   0  0  0  0  0  3  0  0  0  0  0  0
  -23.8110   -8.4860   22.1260 C   0  0  0  0  0  3  0  0  0  0  0  0
  -22.6590   -8.2360   21.3430 C   0  0  0  0  0  0  0  0  0  0  0  0
  -22.2790   -9.1710   20.3640 C   0  0  0  0  0  3  0  0  0  0  0  0
  -23.0160  -10.3520   20.1760 C   0  0  0  0  0  3  0  0  0  0  0  0
  -21.8960   -7.0970   21.4360 O   0  0  0  0  0  0  0  0  0  0  0  0
  -21.8130   -6.3800   22.6030 C   0  0  0  0  0  0  0  0  0  0  0  0
  -21.3610   -6.9640   23.8070 C   0  0  0  0  0  3  0  0  0  0  0  0
  -21.2250   -6.1740   24.9660 C   0  0  0  0  0  3  0  0  0  0  0  0
  -21.5290   -4.8000   24.9220 C   0  0  0  0  0  0  0  0  0  0  0  0
  -21.9740   -4.2160   23.7230 C   0  0  0  0  0  3  0  0  0  0  0  0
  -22.1130   -5.0030   22.5670 C   0  0  0  0  0  0  0  0  0  0  0  0
  -22.5210   -4.4300   21.4090 F   0  0  0  0  0  0  0  0  0  0  0  0
  -21.3910   -4.0390   26.0320 F   0  0  0  0  0  0  0  0  0  0  0  0
  -23.0310  -13.7220   20.9630 C   0  0  0  0  0  0  0  0  0  0  0  0
  -22.2700  -13.0570   21.8260 N   0  0  0  0  0  0  0  0  0  0  0  0
  -22.6150  -14.7330   20.3980 O   0  0  0  0  0  0  0  0  0  0  0  0
  -22.6170  -12.2410   22.3070 H   0  0  0  0  0  0  0  0  0  0  0  0
  -21.3260  -13.3690   22.0070 H   0  0  0  0  0  0  0  0  0  0  0  0
  -25.7010  -15.3480   20.1840 N   0  0  0  0  0  0  0  0  0  0  0  0
  -24.9350  -16.0110   20.2450 H   0  0  0  0  0  0  0  0  0  0  0  0
  -26.5610  -15.7650   19.8560 H   0  0  0  0  0  0  0  0  0  0  0  0
  1  2  1  0
  3  1  1  0
  4  5  1  0
  4  1  1  0
  6  7  1  0
  6  5  1  0
  7  9  1  0
  8 19  2  0
  9 14  1  0
 10 18  1  0
 10 20  1  0
 11 17  1  0
 11 13  1  0
 12 18  1  0
 13 12  1  0
 14 13  2  0
 15  9  2  0
 16 15  1  0
 16 11  2  0
 17 10  1  0
 18  8  1  0
 20 22  2  0
 21 20  1  0
 23 21  1  0
 24 33  2  0
 24 29  1  0
 25 21  1  0
 25 29  1  0
 26 25  1  0
 27 28  1  0
 27 26  1  0
 28 24  1  0
 29 30  2  0
 30 31  1  0
 32 31  2  0
 33 32  1  0
 34  8  1  0
 34 35  1  0
 34 44  1  0
 35 38  1  0
 36 40  1  0
 36 35  1  0
 37 36  2  0
 40 39  1  0
 42 40  1  0
 42 43  1  0
 42 41  1  0
 44 47  1  1
 44 45  1  0
 46 44  1  0
 48 49  1  0
 48  1  1  0
 50 52  1  0
 50 51  1  0
 51 53  1  0
 52 54  1  0
 53 55  1  0
 54 53  1  0
 54 49  1  0
 55 64  1  0
 56 64  1  0
 57 62  1  0
 58 59  1  0
 58 57  1  0
 60 59  1  0
 60 69  1  0
 60 61  1  0
 62 56  1  0
 62 61  1  0
 63 56  2  0
 64 65  1  0
 66 67  2  0
 67 68  1  0
 67 86  1  0
 68 71  1  0
 69 66  1  0
 69 70  1  0
 70 68  2  0
 71 72  1  0
 72 73  2  0
 74 77  1  0
 74 73  1  0
 75 74  2  0
 76 75  1  0
 76 71  2  0
 77 78  1  0
 78 79  1  0
 79 80  2  0
 81 80  1  0
 81 85  1  0
 82 81  2  0
 83 78  2  0
 83 82  1  0
 84 83  1  0
 86 87  1  0
 87 90  1  0
 87 89  1  0
 88 86  2  0
 91 92  1  0
 91 66  1  0
 93 91  1  0
M  ISO  4   6 101   7 101  56 100  64 100
M  END
>  <TORSDO>  (5) 
F 23

>  <SCORE>  (5) 
-12.579

>  <name>  (5) 
4

>  <ligand_id>  (5) 
4

>  <original_smiles>  (5) 
[H]c1c([H])c([H])c2c(c1[H])C([H])([H])C([H])([H])C([H])([H])C2([H])N([H])C(=O)C1([H])N(C(=O)C([H])(N([H])C(=O)C([H])(N([H])C([H])([H])[H])C([H])([H])[H])C(C([H])([H])[H])(C([H])([H])[H])C([H])([H])[H])C([H])([H])c2c([H])c(OC([H])([H])C([H])([H])C([H])([H])[N+]([H])([H])C([H])([H])C([H])([H])N3C([H])([H])C([H])([H])C([H])([H])C3([H])C([H])([H])N([H])C(=O)N3C([H])([H])C([H])([H])C([H])([H])C([H])(n4nc(-c5c([H])c([H])c(Oc6c([H])c([H])c(F)c([H])c6F)c([H])c5[H])c(C(=O)N([H])[H])c4N([H])[H])C3([H])[H])c([H])c([H])c2C1([H])[H]

>  <smiles>  (5) 
[H]c1c([H])c([H])c2c(c1[H])C([H])([H])C([H])([H])C([H])([H])C2([H])N([H])C(=O)C1([H])N(C(=O)C([H])(N([H])C(=O)C([H])(N([H])C([H])([H])[H])C([H])([H])[H])C(C([H])([H])[H])(C([H])([H])[H])C([H])([H])[H])C([H])([H])c2c([H])c(OC([H])([H])C([H])([H])C([H])([H])[N+]([H])([H])C([H])([H])C([H])([H])N3C([H])([H])C([H])([H])C([H])([H])C3([H])C([H])([H])N([H])C(=O)N3C([H])([H])C([H])([H])C([H])([H])C([H])(n4nc(-c5c([H])c([H])c(Oc6c([H])c([H])c(F)c([H])c6F)c([H])c5[H])c(C(=O)N([H])[H])c4N([H])[H])C3([H])[H])c([H])c([H])c2C1([H])[H]

$$$$
5:0:0
     RDKit          3D

 93101  0  0  1  0  0  0  0  0999 V2000
  -28.4130  -20.1260   19.2990 C   0  0  0  0  0  3  0  0  0  0  0  0
  -29.9250  -20.6500   21.0900 C   0  0  0  0  0  3  0  0  0  0  0  0
  -29.2530  -19.6510   20.3350 C   0  0  0  0  0  0  0  0  0  0  0  0
  -28.8770  -22.5160   19.8190 C   0  0  0  0  0  0  0  0  0  0  0  0
  -28.2300  -21.5140   19.0480 C   0  0  0  0  0  0  0  0  0  0  0  0
  -29.7510  -22.0440   20.8380 C   0  0  0  0  0  0  0  0  0  0  0  0
  -27.4090  -21.8800   18.0330 F   0  0  0  0  0  0  0  0  0  0  0  0
  -30.4410  -22.9290   21.5970 F   0  0  0  0  0  0  0  0  0  0  0  0
  -29.2750  -18.1290   20.7170 C   0  0  0  0  0  3  0  0  0  0  0  0
  -29.4060  -18.0260   22.0400 F   0  0  0  0  0  0  0  0  0  0  0  0
  -30.3090  -17.1290   20.0610 C   0  0  0  0  0  2  0  0  0  0  0  0
  -30.8020  -14.6000   19.9830 C   0  0  0  0  0  0  0  0  0  0  0  0
  -30.5090  -12.3760   18.9310 C   0  0  0  0  0  2  0  0  0  0  0  0
  -29.4970  -12.5220   17.7720 C   0  0  0  0  0  2  0  0  0  0  0  0
  -28.0520  -12.3680   18.2860 C   0  0  0  0  0  2  0  0  0  0  0  0
  -27.7720  -13.2270   19.5480 C   0  0  0  0  0  3  0  0  0  0  0  0
  -28.8910  -13.0630   20.6010 C   0  0  0  0  0  2  0  0  0  0  0  0
  -30.1680  -13.3880   19.9490 N   0  0  0  0  0  0  0  0  0  0  0  0
  -31.9330  -14.7510   19.5150 O   0  0  0  0  0  0  0  0  0  0  0  0
  -30.0440  -15.6760   20.3430 N   0  0  0  0  0  0  0  0  0  0  0  0
  -29.1380  -15.4590   20.7290 H   0  0  0  0  0  0  0  0  0  0  0  0
  -25.4340  -13.8350   20.4260 C   0  0  0  0  0  0  0  0  0  0  0  0
  -24.3840  -13.0640   20.8460 C   0  0  0  0  0  0  0  0  0  0  0  0
  -24.8280  -11.7090   20.7550 C   0  0  0  0  0  0  0  0  0  0  0  0
  -26.4510  -12.9500   20.1080 N   0  0  0  0  0  0  0  0  0  0  0  0
  -26.0950  -11.6640   20.3650 N   0  0  0  0  0  0  0  0  0  0  0  0
  -24.1000  -10.4500   20.9610 C   0  0  0  0  0  0  0  0  0  0  0  0
  -24.5330   -9.4920   21.9030 C   0  0  0  0  0  3  0  0  0  0  0  0
  -23.8050   -8.2980   22.0960 C   0  0  0  0  0  3  0  0  0  0  0  0
  -22.6320   -8.0530   21.3440 C   0  0  0  0  0  0  0  0  0  0  0  0
  -22.2180   -9.0000   20.3890 C   0  0  0  0  0  3  0  0  0  0  0  0
  -22.9460  -10.1860   20.1960 C   0  0  0  0  0  3  0  0  0  0  0  0
  -21.8750   -6.9100   21.4440 O   0  0  0  0  0  0  0  0  0  0  0  0
  -21.7650   -6.2230   22.6270 C   0  0  0  0  0  0  0  0  0  0  0  0
  -21.2450   -6.8240   23.7940 C   0  0  0  0  0  3  0  0  0  0  0  0
  -21.0850   -6.0610   24.9680 C   0  0  0  0  0  3  0  0  0  0  0  0
  -21.4330   -4.6980   24.9750 C   0  0  0  0  0  0  0  0  0  0  0  0
  -21.9460   -4.0950   23.8130 C   0  0  0  0  0  3  0  0  0  0  0  0
  -22.1080   -4.8560   22.6410 C   0  0  0  0  0  0  0  0  0  0  0  0
  -22.5820   -4.2650   21.5170 F   0  0  0  0  0  0  0  0  0  0  0  0
  -21.2720   -3.9630   26.1000 F   0  0  0  0  0  0  0  0  0  0  0  0
  -23.0120  -13.5490   21.2150 C   0  0  0  0  0  0  0  0  0  0  0  0
  -22.3320  -12.8410   22.1100 N   0  0  0  0  0  0  0  0  0  0  0  0
  -22.5540  -14.5900   20.7460 O   0  0  0  0  0  0  0  0  0  0  0  0
  -22.7160  -11.9990   22.5110 H   0  0  0  0  0  0  0  0  0  0  0  0
  -21.4140  -13.1480   22.3990 H   0  0  0  0  0  0  0  0  0  0  0  0
  -25.6010  -15.2070   20.2650 N   0  0  0  0  0  0  0  0  0  0  0  0
  -24.8400  -15.8600   20.4200 H   0  0  0  0  0  0  0  0  0  0  0  0
  -26.4110  -15.6380   19.8370 H   0  0  0  0  0  0  0  0  0  0  0  0
  -28.6680  -24.0320   19.4490 C   0  0  0  0  0  2  0  0  0  0  0  0
  -27.4880  -24.8470   21.6290 C   0  0  0  0  0  1  0  0  0  0  0  0
  -28.5480  -25.1590   20.5530 C   0  0  0  0  0  3  0  0  0  0  0  0
  -28.5270  -26.5550   20.0630 O   0  0  0  0  0  0  0  0  0  0  0  0
  -24.5830  -31.7390   23.0810 C   0  0  0  0  0  0  0  0  0  0  0  0
  -27.3550  -27.3090   20.0320 C   0  0  0  0  0  0  0  0  0  0  0  0
  -23.4350  -30.3280   21.4090 C   0  0  0  0  0  3  0  0  0  0  0  0
  -24.9430  -28.8230   19.9930 C   0  0  0  0  0  0  0  0  0  0  0  0
  -25.9620  -30.7220   21.2600 C   0  0  0  0  0  2  0  0  0  0  0  0
  -26.0850  -29.3530   20.6060 C   0  0  0  0  0  0  0  0  0  0  0  0
  -27.2950  -28.6070   20.6130 C   0  0  0  0  0  3  0  0  0  0  0  0
  -26.1970  -26.8170   19.3940 C   0  0  0  0  0  3  0  0  0  0  0  0
  -24.9980  -27.5590   19.3790 C   0  0  0  0  0  3  0  0  0  0  0  0
  -23.6830  -29.6640   20.0270 C   0  0  0  0  0  2  0  0  0  0  0  0
  -24.6770  -30.9470   21.9750 N   0  0  0  0  0  0  0  0  0  0  0  0
  -23.4860  -31.9840   23.6040 O   0  0  0  0  0  0  0  0  0  0  0  0
  -22.7850  -29.2880   22.3510 C   0  0  0  0  0  0  0  0  0  0  0  0
  -21.4610  -29.1040   22.2230 N   0  0  0  0  0  0  0  0  0  0  0  0
  -23.4710  -28.6500   23.1560 O   0  0  0  0  0  0  0  0  0  0  0  0
  -20.9680  -29.6700   21.5480 H   0  0  0  0  0  0  0  0  0  0  0  0
  -18.0890  -27.8970   22.7210 C   0  0  0  0  0  0  0  0  0  0  0  0
  -20.6490  -28.1460   22.9750 C   0  0  0  0  0  3  0  0  0  0  0  0
  -20.7440  -26.7320   22.3580 C   0  0  0  0  0  2  0  0  0  0  0  0
  -19.6330  -26.4400   21.3460 C   0  0  0  0  0  2  0  0  0  0  0  0
  -18.2570  -26.5670   22.0060 C   0  0  0  0  0  2  0  0  0  0  0  0
  -19.2120  -28.6460   23.1620 C   0  0  0  0  0  0  0  0  0  0  0  0
  -19.0000  -29.8930   23.7910 C   0  0  0  0  0  3  0  0  0  0  0  0
  -17.6980  -30.3910   23.9820 C   0  0  0  0  0  3  0  0  0  0  0  0
  -16.5880  -29.6380   23.5570 C   0  0  0  0  0  3  0  0  0  0  0  0
  -16.7850  -28.3940   22.9330 C   0  0  0  0  0  3  0  0  0  0  0  0
  -25.8430  -32.3930   23.7290 C   0  0  0  0  0  3  0  0  0  0  0  0
  -26.3670  -31.6120   24.9960 C   0  0  1  0  0  0  0  0  0  0  0  0
  -25.2710  -31.3250   26.0480 C   0  0  0  0  0  1  0  0  0  0  0  0
  -26.9920  -30.2580   24.5850 C   0  0  0  0  0  1  0  0  0  0  0  0
  -27.4900  -32.4230   25.6860 C   0  0  0  0  0  1  0  0  0  0  0  0
  -25.4940  -33.7760   24.0830 N   0  0  0  0  0  0  0  0  0  0  0  0
  -25.7960  -34.8510   23.3410 C   0  0  0  0  0  0  0  0  0  0  0  0
  -26.4670  -34.7830   22.3080 O   0  0  0  0  0  0  0  0  0  0  0  0
  -24.8960  -33.9000   24.8860 H   0  0  0  0  0  0  0  0  0  0  0  0
  -24.0130  -36.5960   23.0210 C   0  0  0  0  0  1  0  0  0  0  0  0
  -25.2680  -36.2170   23.8220 C   0  0  0  0  0  3  0  0  0  0  0  0
  -27.3750  -37.1560   24.6640 C   0  0  0  0  0  1  0  0  0  0  0  0
  -26.2680  -37.3020   23.7220 N   0  0  0  0  0  0  0  0  0  0  0  0
  -25.8350  -38.2080   23.8780 H   0  0  0  0  0  0  0  0  0  0  0  0
  1  3  1  0
  3  9  1  0
  3  2  2  0
  4  6  2  0
  5  1  2  0
  5  4  1  0
  6  2  1  0
  6  8  1  0
  7  5  1  0
  9 10  1  0
 11 20  1  0
 11  9  1  0
 12 20  1  0
 13 18  1  0
 14 15  1  0
 14 13  1  0
 16 15  1  0
 16 25  1  0
 16 17  1  0
 18 12  1  0
 18 17  1  0
 19 12  2  0
 20 21  1  0
 22 23  2  0
 23 42  1  0
 24 23  1  0
 24 27  1  0
 25 26  1  0
 25 22  1  0
 26 24  2  0
 27 28  1  0
 28 29  2  0
 30 33  1  0
 30 29  1  0
 31 30  2  0
 32 31  1  0
 32 27  2  0
 33 34  1  0
 34 39  2  0
 34 35  1  0
 35 36  2  0
 36 37  1  0
 37 41  1  0
 38 37  2  0
 39 38  1  0
 40 39  1  0
 42 43  1  0
 43 46  1  0
 43 45  1  0
 44 42  2  0
 47 48  1  0
 47 22  1  0
 49 47  1  0
 50  4  1  0
 50 52  1  0
 52 51  1  0
 53 52  1  0
 54 65  2  0
 55 53  1  0
 55 60  1  0
 56 64  1  0
 56 66  1  0
 57 63  1  0
 57 59  1  0
 58 64  1  0
 59 60  2  0
 59 58  1  0
 61 55  2  0
 62 61  1  0
 62 57  2  0
 63 56  1  0
 64 54  1  0
 66 68  2  0
 67 66  1  0
 69 67  1  0
 70 79  2  0
 70 75  1  0
 71 67  1  0
 71 75  1  0
 72 71  1  0
 73 74  1  0
 73 72  1  0
 74 70  1  0
 75 76  2  0
 76 77  1  0
 78 77  2  0
 79 78  1  0
 80 54  1  0
 80 85  1  0
 80 81  1  0
 81 84  1  1
 81 82  1  0
 83 81  1  0
 85 88  1  0
 86 90  1  0
 86 85  1  0
 87 86  2  0
 90 89  1  0
 92 90  1  0
 92 93  1  0
 92 91  1  0
M  ISO  4  12 100  20 100  52 101  53 101
M  END
>  <TORSDO>  (6) 
F 20

>  <SCORE>  (6) 
-13.479

>  <name>  (6) 
5

>  <ligand_id>  (6) 
5

>  <original_smiles>  (6) 
[H]c1c([H])c([H])c2c(c1[H])C([H])([H])C([H])([H])C([H])([H])C2([H])N([H])C(=O)C1([H])N(C(=O)C([H])(N([H])C(=O)C([H])(N([H])C([H])([H])[H])C([H])([H])[H])C(C([H])([H])[H])(C([H])([H])[H])C([H])([H])[H])C([H])([H])c2c([H])c(OC([H])(C([H])([H])[H])C([H])([H])c3c(F)c([H])c(C([H])(F)C([H])([H])N([H])C(=O)N4C([H])([H])C([H])([H])C([H])([H])C([H])(n5nc(-c6c([H])c([H])c(Oc7c([H])c([H])c(F)c([H])c7F)c([H])c6[H])c(C(=O)N([H])[H])c5N([H])[H])C4([H])[H])c([H])c3F)c([H])c([H])c2C1([H])[H]

>  <smiles>  (6) 
[H]c1c([H])c([H])c2c(c1[H])C([H])([H])C([H])([H])C([H])([H])C2([H])N([H])C(=O)C1([H])N(C(=O)C([H])(N([H])C(=O)C([H])(N([H])C([H])([H])[H])C([H])([H])[H])C(C([H])([H])[H])(C([H])([H])[H])C([H])([H])[H])C([H])([H])c2c([H])c(OC([H])(C([H])([H])[H])C([H])([H])c3c(F)c([H])c(C([H])(F)C([H])([H])N([H])C(=O)N4C([H])([H])C([H])([H])C([H])([H])C([H])(n5nc(-c6c([H])c([H])c(Oc7c([H])c([H])c(F)c([H])c7F)c([H])c6[H])c(C(=O)N([H])[H])c5N([H])[H])C4([H])[H])c([H])c3F)c([H])c([H])c2C1([H])[H]

$$$$
6:0:0
     RDKit          3D

 98107  0  0  1  0  0  0  0  0999 V2000
  -31.8490  -22.8360   22.2980 C   0  0  0  0  0  2  0  0  0  0  0  0
  -31.4580  -21.3960   22.5900 C   0  0  0  0  0  2  0  0  0  0  0  0
  -31.6620  -22.9240   20.7880 C   0  0  0  0  0  2  0  0  0  0  0  0
  -30.3720  -21.0670   21.5420 C   0  0  0  0  0  3  0  0  0  0  0  0
  -30.4570  -22.1170   20.4680 N   0  0  1  0  0  4  0  0  0  0  0  0
  -30.6120  -21.6940   19.5650 H   0  0  0  0  0  0  0  0  0  0  0  0
  -31.6110  -17.4550   20.7480 C   0  0  0  0  0  3  0  0  0  0  0  0
  -29.1950  -17.4440   20.9300 C   0  0  0  0  0  3  0  0  0  0  0  0
  -30.3980  -19.5780   21.1240 C   0  0  0  0  0  0  0  0  0  0  0  0
  -30.3980  -16.7200   20.7870 C   0  0  0  0  0  0  0  0  0  0  0  0
  -31.6070  -18.8660   20.9090 C   0  0  0  0  0  0  0  0  0  0  0  0
  -29.1900  -18.8440   21.0990 C   0  0  0  0  0  0  0  0  0  0  0  0
  -32.7870  -19.5320   20.8900 F   0  0  0  0  0  0  0  0  0  0  0  0
  -28.0040  -19.4740   21.2820 F   0  0  0  0  0  0  0  0  0  0  0  0
  -30.9610  -14.3570   19.9930 C   0  0  0  0  0  0  0  0  0  0  0  0
  -30.6020  -12.2060   18.8230 C   0  0  0  0  0  2  0  0  0  0  0  0
  -29.5910  -12.4290   17.6770 C   0  0  0  0  0  2  0  0  0  0  0  0
  -28.1380  -12.3240   18.1820 C   0  0  0  0  0  2  0  0  0  0  0  0
  -27.8900  -13.1560   19.4680 C   0  0  0  0  0  3  0  0  0  0  0  0
  -28.9920  -12.8700   20.5120 C   0  0  0  0  0  2  0  0  0  0  0  0
  -30.2950  -13.1730   19.8880 N   0  0  0  0  0  0  0  0  0  0  0  0
  -32.0440  -14.5700   19.4360 O   0  0  0  0  0  0  0  0  0  0  0  0
  -30.2780  -15.2940   20.6830 N   0  0  0  0  0  0  0  0  0  0  0  0
  -29.4560  -14.9100   21.1230 H   0  0  0  0  0  0  0  0  0  0  0  0
  -25.5580  -13.8400   20.3200 C   0  0  0  0  0  0  0  0  0  0  0  0
  -24.4810  -13.1000   20.7300 C   0  0  0  0  0  0  0  0  0  0  0  0
  -24.8870  -11.7330   20.6390 C   0  0  0  0  0  0  0  0  0  0  0  0
  -26.5530  -12.9260   20.0100 N   0  0  0  0  0  0  0  0  0  0  0  0
  -26.1540  -11.6520   20.2560 N   0  0  0  0  0  0  0  0  0  0  0  0
  -24.1240  -10.4930   20.8370 C   0  0  0  0  0  0  0  0  0  0  0  0
  -24.5110   -9.5360   21.8010 C   0  0  0  0  0  3  0  0  0  0  0  0
  -23.7520   -8.3600   21.9850 C   0  0  0  0  0  3  0  0  0  0  0  0
  -22.5930   -8.1340   21.2060 C   0  0  0  0  0  0  0  0  0  0  0  0
  -22.2260   -9.0810   20.2320 C   0  0  0  0  0  3  0  0  0  0  0  0
  -22.9850  -10.2480   20.0460 C   0  0  0  0  0  3  0  0  0  0  0  0
  -21.8090   -7.0100   21.2980 O   0  0  0  0  0  0  0  0  0  0  0  0
  -21.6130   -6.3650   22.4930 C   0  0  0  0  0  0  0  0  0  0  0  0
  -21.0780   -7.0280   23.6200 C   0  0  0  0  0  3  0  0  0  0  0  0
  -20.8290   -6.3100   24.8060 C   0  0  0  0  0  3  0  0  0  0  0  0
  -21.1050   -4.9310   24.8670 C   0  0  0  0  0  0  0  0  0  0  0  0
  -21.6310   -4.2680   23.7430 C   0  0  0  0  0  3  0  0  0  0  0  0
  -21.8820   -4.9830   22.5590 C   0  0  0  0  0  0  0  0  0  0  0  0
  -22.3700   -4.3360   21.4740 F   0  0  0  0  0  0  0  0  0  0  0  0
  -20.8570   -4.2390   26.0030 F   0  0  0  0  0  0  0  0  0  0  0  0
  -23.1210  -13.6210   21.0940 C   0  0  0  0  0  0  0  0  0  0  0  0
  -22.4260  -12.9410   22.0000 N   0  0  0  0  0  0  0  0  0  0  0  0
  -22.6850  -14.6640   20.6110 O   0  0  0  0  0  0  0  0  0  0  0  0
  -22.7920  -12.0950   22.4120 H   0  0  0  0  0  0  0  0  0  0  0  0
  -21.5150  -13.2710   22.2860 H   0  0  0  0  0  0  0  0  0  0  0  0
  -25.7680  -15.2080   20.1680 N   0  0  0  0  0  0  0  0  0  0  0  0
  -25.0330  -15.8890   20.3300 H   0  0  0  0  0  0  0  0  0  0  0  0
  -26.6110  -15.6200   19.7890 H   0  0  0  0  0  0  0  0  0  0  0  0
  -29.1970  -22.9320   20.3340 C   0  0  0  0  0  2  0  0  0  0  0  0
  -29.2190  -24.1440   19.3350 C   0  0  0  0  0  3  0  0  0  0  0  0
  -30.3090  -24.0320   18.4300 O   0  0  0  0  0  0  0  0  0  0  0  0
  -30.2950  -24.8160   17.8860 H   0  0  0  0  0  0  0  0  0  0  0  0
  -29.2450  -25.5380   20.0330 C   0  0  0  0  0  2  0  0  0  0  0  0
  -28.9230  -26.6270   19.1520 O   0  0  0  0  0  0  0  0  0  0  0  0
  -24.6970  -31.0910   22.8150 C   0  0  0  0  0  0  0  0  0  0  0  0
  -27.6910  -27.2270   19.3040 C   0  0  0  0  0  0  0  0  0  0  0  0
  -23.6040  -29.7730   21.0290 C   0  0  0  0  0  3  0  0  0  0  0  0
  -25.1770  -28.5120   19.4630 C   0  0  0  0  0  0  0  0  0  0  0  0
  -26.0890  -30.3590   20.8810 C   0  0  0  0  0  2  0  0  0  0  0  0
  -26.2890  -29.0690   20.1080 C   0  0  0  0  0  0  0  0  0  0  0  0
  -27.5500  -28.4350   20.0270 C   0  0  0  0  0  3  0  0  0  0  0  0
  -26.5660  -26.6800   18.6570 C   0  0  0  0  0  3  0  0  0  0  0  0
  -25.3100  -27.3150   18.7360 C   0  0  0  0  0  3  0  0  0  0  0  0
  -23.8660  -29.2580   19.5880 C   0  0  0  0  0  2  0  0  0  0  0  0
  -24.8130  -30.4190   21.6340 N   0  0  0  0  0  0  0  0  0  0  0  0
  -23.5990  -31.2140   23.3760 O   0  0  0  0  0  0  0  0  0  0  0  0
  -23.0430  -28.6070   21.8750 C   0  0  0  0  0  0  0  0  0  0  0  0
  -21.7330  -28.3480   21.7430 N   0  0  0  0  0  0  0  0  0  0  0  0
  -23.7850  -27.9430   22.6030 O   0  0  0  0  0  0  0  0  0  0  0  0
  -21.1910  -28.9430   21.1310 H   0  0  0  0  0  0  0  0  0  0  0  0
  -18.4540  -26.8900   22.1660 C   0  0  0  0  0  0  0  0  0  0  0  0
  -20.9990  -27.2730   22.4100 C   0  0  0  0  0  3  0  0  0  0  0  0
  -21.1690  -25.9320   21.6580 C   0  0  0  0  0  2  0  0  0  0  0  0
  -20.0580  -25.6680   20.6370 C   0  0  0  0  0  2  0  0  0  0  0  0
  -18.6900  -25.6470   21.3250 C   0  0  0  0  0  2  0  0  0  0  0  0
  -19.5380  -27.6620   22.6630 C   0  0  0  0  0  0  0  0  0  0  0  0
  -19.2630  -28.8280   23.4100 C   0  0  0  0  0  3  0  0  0  0  0  0
  -17.9380  -29.2230   23.6660 C   0  0  0  0  0  3  0  0  0  0  0  0
  -16.8690  -28.4470   23.1870 C   0  0  0  0  0  3  0  0  0  0  0  0
  -17.1270  -27.2820   22.4420 C   0  0  0  0  0  3  0  0  0  0  0  0
  -25.9290  -31.7570   23.5030 C   0  0  0  0  0  3  0  0  0  0  0  0
  -25.5200  -33.0990   23.9390 N   0  0  0  0  0  0  0  0  0  0  0  0
  -25.7990  -34.2310   23.2790 C   0  0  0  0  0  0  0  0  0  0  0  0
  -26.4990  -34.2590   22.2630 O   0  0  0  0  0  0  0  0  0  0  0  0
  -24.8980  -33.1480   24.7330 H   0  0  0  0  0  0  0  0  0  0  0  0
  -23.9670  -35.9330   23.0170 C   0  0  0  0  0  1  0  0  0  0  0  0
  -25.2070  -35.5410   23.8340 C   0  0  0  0  0  3  0  0  0  0  0  0
  -27.2530  -36.4870   24.8100 C   0  0  0  0  0  1  0  0  0  0  0  0
  -26.1710  -36.6640   23.8450 N   0  0  0  0  0  0  0  0  0  0  0  0
  -25.6990  -37.5390   24.0540 H   0  0  0  0  0  0  0  0  0  0  0  0
  -26.4910  -30.9220   24.7180 C   0  0  1  0  0  0  0  0  0  0  0  0
  -25.4120  -30.5250   25.7520 C   0  0  0  0  0  1  0  0  0  0  0  0
  -27.1680  -29.6230   24.2210 C   0  0  0  0  0  1  0  0  0  0  0  0
  -27.5810  -31.7350   25.4540 C   0  0  0  0  0  1  0  0  0  0  0  0
  1  2  1  0
  3  1  1  0
  4  9  1  0
  4  2  1  0
  5  3  1  0
  5  4  1  0
  5  6  1  6
  7 10  2  0
  7 11  1  0
  8 12  2  0
 10  8  1  0
 11  9  2  0
 12  9  1  0
 12 14  1  0
 13 11  1  0
 15 23  1  0
 16 21  1  0
 17 18  1  0
 17 16  1  0
 19 18  1  0
 19 28  1  0
 19 20  1  0
 21 15  1  0
 21 20  1  0
 22 15  2  0
 23 10  1  0
 23 24  1  0
 25 26  2  0
 26 45  1  0
 27 26  1  0
 27 30  1  0
 28 29  1  0
 28 25  1  0
 29 27  2  0
 30 31  1  0
 31 32  2  0
 33 36  1  0
 33 32  1  0
 34 33  2  0
 35 34  1  0
 35 30  2  0
 36 37  1  0
 37 42  2  0
 37 38  1  0
 38 39  2  0
 39 40  1  0
 40 44  1  0
 41 40  2  0
 42 41  1  0
 43 42  1  0
 45 46  1  0
 46 49  1  0
 46 48  1  0
 47 45  2  0
 50 25  1  0
 50 51  1  0
 52 50  1  0
 53  5  1  0
 54 57  1  0
 54 53  1  0
 55 54  1  0
 56 55  1  0
 58 60  1  0
 58 57  1  0
 59 70  2  0
 60 65  1  0
 61 69  1  0
 61 71  1  0
 62 68  1  0
 62 64  1  0
 63 69  1  0
 64 63  1  0
 65 64  2  0
 66 67  1  0
 66 60  2  0
 67 62  2  0
 68 61  1  0
 69 59  1  0
 71 73  2  0
 72 71  1  0
 74 72  1  0
 75 84  2  0
 75 80  1  0
 76 72  1  0
 76 80  1  0
 77 76  1  0
 78 79  1  0
 78 77  1  0
 79 75  1  0
 80 81  2  0
 81 82  1  0
 83 82  2  0
 84 83  1  0
 85 59  1  0
 85 86  1  0
 85 95  1  0
 86 89  1  0
 87 91  1  0
 87 86  1  0
 88 87  2  0
 91 90  1  0
 91 93  1  0
 93 94  1  0
 93 92  1  0
 95 98  1  1
 95 96  1  0
 97 95  1  0
M  ISO  4  15 100  23 100  57 101  58 101
M  END
>  <TORSDO>  (7) 
F 21

>  <SCORE>  (7) 
-9.743

>  <name>  (7) 
6

>  <ligand_id>  (7) 
6

>  <original_smiles>  (7) 
[H]OC([H])(C([H])([H])Oc1c([H])c([H])c2c(c1[H])C([H])([H])N(C(=O)C([H])(N([H])C(=O)C([H])(N([H])C([H])([H])[H])C([H])([H])[H])C(C([H])([H])[H])(C([H])([H])[H])C([H])([H])[H])C([H])(C(=O)N([H])C1([H])c3c([H])c([H])c([H])c([H])c3C([H])([H])C([H])([H])C1([H])[H])C2([H])[H])C([H])([H])[N+]1([H])C([H])([H])C([H])([H])C([H])([H])C1([H])c1c(F)c([H])c(N([H])C(=O)N2C([H])([H])C([H])([H])C([H])([H])C([H])(n3nc(-c4c([H])c([H])c(Oc5c([H])c([H])c(F)c([H])c5F)c([H])c4[H])c(C(=O)N([H])[H])c3N([H])[H])C2([H])[H])c([H])c1F

>  <smiles>  (7) 
[H]OC([H])(C([H])([H])Oc1c([H])c([H])c2c(c1[H])C([H])([H])N(C(=O)C([H])(N([H])C(=O)C([H])(N([H])C([H])([H])[H])C([H])([H])[H])C(C([H])([H])[H])(C([H])([H])[H])C([H])([H])[H])C([H])(C(=O)N([H])C1([H])c3c([H])c([H])c([H])c([H])c3C([H])([H])C([H])([H])C1([H])[H])C2([H])[H])C([H])([H])[N+]1([H])C([H])([H])C([H])([H])C([H])([H])C1([H])c1c(F)c([H])c(N([H])C(=O)N2C([H])([H])C([H])([H])C([H])([H])C([H])(n3nc(-c4c([H])c([H])c(Oc5c([H])c([H])c(F)c([H])c5F)c([H])c4[H])c(C(=O)N([H])[H])c3N([H])[H])C2([H])[H])c([H])c1F

$$$$
7:0:0
     RDKit          3D

 92100  0  0  1  0  0  0  0  0999 V2000
  -30.1370  -20.4330   18.9260 C   0  0  0  0  0  2  0  0  0  0  0  0
  -29.2540  -19.2070   18.6050 C   0  0  0  0  0  3  0  0  0  0  0  0
  -29.1470  -18.9520   20.1160 C   0  0  0  0  0  3  0  0  0  0  0  0
  -29.5180  -20.4940   20.2510 N   0  0  0  0  0  0  0  0  0  0  0  0
  -27.9750  -19.5100   17.9240 N   0  0  0  0  0  4  0  0  0  0  0  0
  -27.4430  -20.1950   18.4260 H   0  0  0  0  0  0  0  0  0  0  0  0
  -27.4150  -18.6790   17.8400 H   0  0  0  0  0  0  0  0  0  0  0  0
  -28.1440  -19.8520   16.9950 H   0  0  0  0  0  0  0  0  0  0  0  0
  -30.0980  -17.6680   20.6430 C   0  0  0  0  0  2  0  0  0  0  0  0
  -30.5010  -14.9640   20.3400 C   0  0  0  0  0  0  0  0  0  0  0  0
  -30.3640  -12.6300   19.3680 C   0  0  0  0  0  2  0  0  0  0  0  0
  -29.4170  -12.6020   18.1460 C   0  0  0  0  0  2  0  0  0  0  0  0
  -27.9580  -12.3890   18.5930 C   0  0  0  0  0  2  0  0  0  0  0  0
  -27.5650  -13.3030   19.7840 C   0  0  0  0  0  3  0  0  0  0  0  0
  -28.6320  -13.3010   20.8970 C   0  0  0  0  0  2  0  0  0  0  0  0
  -29.8960  -13.7130   20.2760 N   0  0  0  0  0  0  0  0  0  0  0  0
  -31.7050  -15.0300   20.0720 O   0  0  0  0  0  0  0  0  0  0  0  0
  -29.7260  -16.1420   20.5020 N   0  0  0  0  0  0  0  0  0  0  0  0
  -28.7450  -15.9510   20.6340 H   0  0  0  0  0  0  0  0  0  0  0  0
  -25.1910  -13.8720   20.5550 C   0  0  0  0  0  0  0  0  0  0  0  0
  -24.1320  -13.0920   20.9270 C   0  0  0  0  0  0  0  0  0  0  0  0
  -24.5970  -11.7420   20.8750 C   0  0  0  0  0  0  0  0  0  0  0  0
  -26.2320  -12.9980   20.2940 N   0  0  0  0  0  0  0  0  0  0  0  0
  -25.8850  -11.7110   20.5520 N   0  0  0  0  0  0  0  0  0  0  0  0
  -23.8730  -10.4770   21.0550 C   0  0  0  0  0  0  0  0  0  0  0  0
  -24.3070   -9.5010   21.9800 C   0  0  0  0  0  3  0  0  0  0  0  0
  -23.5820   -8.3030   22.1500 C   0  0  0  0  0  3  0  0  0  0  0  0
  -22.4090   -8.0700   21.3920 C   0  0  0  0  0  0  0  0  0  0  0  0
  -21.9930   -9.0330   20.4570 C   0  0  0  0  0  3  0  0  0  0  0  0
  -22.7190  -10.2240   20.2860 C   0  0  0  0  0  3  0  0  0  0  0  0
  -21.6550   -6.9240   21.4720 O   0  0  0  0  0  0  0  0  0  0  0  0
  -21.5920   -6.1810   22.6240 C   0  0  0  0  0  0  0  0  0  0  0  0
  -21.1140   -6.7250   23.8350 C   0  0  0  0  0  3  0  0  0  0  0  0
  -21.0010   -5.9070   24.9780 C   0  0  0  0  0  3  0  0  0  0  0  0
  -21.3570   -4.5470   24.9100 C   0  0  0  0  0  0  0  0  0  0  0  0
  -21.8290   -4.0030   23.7020 C   0  0  0  0  0  3  0  0  0  0  0  0
  -21.9440   -4.8180   22.5620 C   0  0  0  0  0  0  0  0  0  0  0  0
  -22.3790   -4.2840   21.3950 F   0  0  0  0  0  0  0  0  0  0  0  0
  -21.2410   -3.7600   26.0040 F   0  0  0  0  0  0  0  0  0  0  0  0
  -22.7370  -13.5650   21.2150 C   0  0  0  0  0  0  0  0  0  0  0  0
  -22.0140  -12.8550   22.0740 N   0  0  0  0  0  0  0  0  0  0  0  0
  -22.2960  -14.5980   20.7130 O   0  0  0  0  0  0  0  0  0  0  0  0
  -22.3840  -12.0180   22.5020 H   0  0  0  0  0  0  0  0  0  0  0  0
  -21.0790  -13.1530   22.3100 H   0  0  0  0  0  0  0  0  0  0  0  0
  -25.3500  -15.2450   20.3920 N   0  0  0  0  0  0  0  0  0  0  0  0
  -24.5800  -15.8940   20.5140 H   0  0  0  0  0  0  0  0  0  0  0  0
  -26.1840  -15.6860   20.0260 H   0  0  0  0  0  0  0  0  0  0  0  0
  -28.5490  -21.7360   20.2940 C   0  0  0  0  0  2  0  0  0  0  0  0
  -29.0020  -23.3680   20.3480 C   0  0  0  0  0  3  0  0  0  0  0  0
  -29.9190  -23.5360   19.3940 F   0  0  0  0  0  0  0  0  0  0  0  0
  -27.9540  -24.6810   20.1910 C   0  0  0  0  0  2  0  0  0  0  0  0
  -28.2470  -26.2050   20.3450 O   0  0  0  0  0  0  0  0  0  0  0  0
  -24.6430  -31.9220   23.3000 C   0  0  0  0  0  0  0  0  0  0  0  0
  -27.1950  -27.1920   20.2790 C   0  0  0  0  0  0  0  0  0  0  0  0
  -23.4400  -30.5390   21.6530 C   0  0  0  0  0  3  0  0  0  0  0  0
  -24.8810  -28.9550   20.2360 C   0  0  0  0  0  0  0  0  0  0  0  0
  -25.9980  -30.7820   21.5040 C   0  0  0  0  0  2  0  0  0  0  0  0
  -26.0620  -29.3910   20.8500 C   0  0  0  0  0  0  0  0  0  0  0  0
  -27.2210  -28.5270   20.8540 C   0  0  0  0  0  3  0  0  0  0  0  0
  -25.9860  -26.8560   19.6290 C   0  0  0  0  0  3  0  0  0  0  0  0
  -24.8560  -27.7010   19.6110 C   0  0  0  0  0  3  0  0  0  0  0  0
  -23.6620  -29.8630   20.2750 C   0  0  0  0  0  2  0  0  0  0  0  0
  -24.7140  -31.1020   22.2070 N   0  0  0  0  0  0  0  0  0  0  0  0
  -23.5560  -32.2160   23.8220 O   0  0  0  0  0  0  0  0  0  0  0  0
  -22.7460  -29.5370   22.6090 C   0  0  0  0  0  0  0  0  0  0  0  0
  -21.4190  -29.3700   22.4650 N   0  0  0  0  0  0  0  0  0  0  0  0
  -23.4050  -28.9100   23.4440 O   0  0  0  0  0  0  0  0  0  0  0  0
  -20.9450  -29.9260   21.7680 H   0  0  0  0  0  0  0  0  0  0  0  0
  -18.0250  -28.1930   22.9330 C   0  0  0  0  0  0  0  0  0  0  0  0
  -20.5830  -28.4410   23.2290 C   0  0  0  0  0  3  0  0  0  0  0  0
  -20.6820  -27.0060   22.6580 C   0  0  0  0  0  2  0  0  0  0  0  0
  -19.5900  -26.6880   21.6330 C   0  0  0  0  0  2  0  0  0  0  0  0
  -18.2010  -26.8420   22.2600 C   0  0  0  0  0  2  0  0  0  0  0  0
  -19.1440  -28.9500   23.3730 C   0  0  0  0  0  0  0  0  0  0  0  0
  -18.9250  -30.2150   23.9620 C   0  0  0  0  0  3  0  0  0  0  0  0
  -17.6200  -30.7220   24.1150 C   0  0  0  0  0  3  0  0  0  0  0  0
  -16.5170  -29.9620   23.6910 C   0  0  0  0  0  3  0  0  0  0  0  0
  -16.7200  -28.7000   23.1050 C   0  0  0  0  0  3  0  0  0  0  0  0
  -25.9230  -32.5440   23.9360 C   0  0  0  0  0  3  0  0  0  0  0  0
  -25.6270  -33.9500   24.2520 N   0  0  0  0  0  0  0  0  0  0  0  0
  -25.9540  -34.9940   23.4770 C   0  0  0  0  0  0  0  0  0  0  0  0
  -26.6050  -34.8730   22.4360 O   0  0  0  0  0  0  0  0  0  0  0  0
  -25.0460  -34.1190   25.0600 H   0  0  0  0  0  0  0  0  0  0  0  0
  -24.2300  -36.7970   23.1450 C   0  0  0  0  0  1  0  0  0  0  0  0
  -25.4890  -36.3920   23.9280 C   0  0  0  0  0  3  0  0  0  0  0  0
  -27.6470  -37.2800   24.6970 C   0  0  0  0  0  1  0  0  0  0  0  0
  -26.5250  -37.4370   23.7740 N   0  0  0  0  0  0  0  0  0  0  0  0
  -26.1280  -38.3620   23.9120 H   0  0  0  0  0  0  0  0  0  0  0  0
  -26.4060  -31.7800   25.2310 C   0  0  1  0  0  0  0  0  0  0  0  0
  -25.2920  -31.5700   26.2830 C   0  0  0  0  0  1  0  0  0  0  0  0
  -26.9760  -30.3900   24.8680 C   0  0  0  0  0  1  0  0  0  0  0  0
  -27.5560  -32.5660   25.9030 C   0  0  0  0  0  1  0  0  0  0  0  0
  1  4  1  0
  2  5  1  0
  2  1  1  0
  2  3  1  0
  3  4  1  0
  3  9  1  0
  4 48  1  0
  5  6  1  0
  7  5  1  0
  8  5  1  0
 10 18  1  0
 11 16  1  0
 12 13  1  0
 12 11  1  0
 14 13  1  0
 14 23  1  0
 14 15  1  0
 16 10  1  0
 16 15  1  0
 17 10  2  0
 18 19  1  0
 18  9  1  0
 20 21  2  0
 21 40  1  0
 22 21  1  0
 22 25  1  0
 23 24  1  0
 23 20  1  0
 24 22  2  0
 25 26  1  0
 26 27  2  0
 28 31  1  0
 28 27  1  0
 29 28  2  0
 30 29  1  0
 30 25  2  0
 31 32  1  0
 32 33  1  0
 33 34  2  0
 35 34  1  0
 35 39  1  0
 36 35  2  0
 37 32  2  0
 37 36  1  0
 38 37  1  0
 40 41  1  0
 41 44  1  0
 41 43  1  0
 42 40  2  0
 45 46  1  0
 45 20  1  0
 47 45  1  0
 48 49  1  0
 49 50  1  0
 51 52  1  0
 51 49  1  0
 53 64  2  0
 54 52  1  0
 54 59  1  0
 55 63  1  0
 55 65  1  0
 56 62  1  0
 56 58  1  0
 57 63  1  0
 58 59  2  0
 58 57  1  0
 60 54  2  0
 61 60  1  0
 61 56  2  0
 62 55  1  0
 63 53  1  0
 65 67  2  0
 66 65  1  0
 68 66  1  0
 69 78  2  0
 69 74  1  0
 70 66  1  0
 70 74  1  0
 71 70  1  0
 72 73  1  0
 72 71  1  0
 73 69  1  0
 74 75  2  0
 75 76  1  0
 77 76  2  0
 78 77  1  0
 79 53  1  0
 79 80  1  0
 79 89  1  0
 80 83  1  0
 81 85  1  0
 81 80  1  0
 82 81  2  0
 85 84  1  0
 87 88  1  0
 87 85  1  0
 87 86  1  0
 89 92  1  1
 89 90  1  0
 91 89  1  0
M  ISO  4  10 100  18 100  51 101  52 101
M  END
>  <TORSDO>  (8) 
F 21

>  <SCORE>  (8) 
-14.179

>  <name>  (8) 
7

>  <ligand_id>  (8) 
7

>  <original_smiles>  (8) 
[H]c1c([H])c([H])c2c(c1[H])C([H])([H])C([H])([H])C([H])([H])C2([H])N([H])C(=O)C1([H])N(C(=O)C([H])(N([H])C(=O)C([H])(N([H])C([H])([H])[H])C([H])([H])[H])C(C([H])([H])[H])(C([H])([H])[H])C([H])([H])[H])C([H])([H])c2c([H])c(OC([H])([H])C([H])(F)C([H])([H])N3C([H])([H])C([H])([N+]([H])([H])[H])C3([H])C([H])([H])N([H])C(=O)N3C([H])([H])C([H])([H])C([H])([H])C([H])(n4nc(-c5c([H])c([H])c(Oc6c([H])c([H])c(F)c([H])c6F)c([H])c5[H])c(C(=O)N([H])[H])c4N([H])[H])C3([H])[H])c([H])c([H])c2C1([H])[H]

>  <smiles>  (8) 
[H]c1c([H])c([H])c2c(c1[H])C([H])([H])C([H])([H])C([H])([H])C2([H])N([H])C(=O)C1([H])N(C(=O)C([H])(N([H])C(=O)C([H])(N([H])C([H])([H])[H])C([H])([H])[H])C(C([H])([H])[H])(C([H])([H])[H])C([H])([H])[H])C([H])([H])c2c([H])c(OC([H])([H])C([H])(F)C([H])([H])N3C([H])([H])C([H])([N+]([H])([H])[H])C3([H])C([H])([H])N([H])C(=O)N3C([H])([H])C([H])([H])C([H])([H])C([H])(n4nc(-c5c([H])c([H])c(Oc6c([H])c([H])c(F)c([H])c6F)c([H])c5[H])c(C(=O)N([H])[H])c4N([H])[H])C3([H])[H])c([H])c([H])c2C1([H])[H]

$$$$
8:0:0
     RDKit          3D

 94102  0  0  1  0  0  0  0  0999 V2000
  -29.3610  -19.1090   20.6810 C   0  0  0  0  0  3  0  0  0  0  0  0
  -30.5270  -20.6600   19.2500 C   0  0  0  0  0  3  0  0  0  0  0  0
  -30.9690  -18.1960   19.0900 C   0  0  0  0  0  0  0  0  0  0  0  0
  -29.5010  -20.5300   20.1990 C   0  0  0  0  0  0  0  0  0  0  0  0
  -30.1150  -17.8880   20.2100 C   0  0  0  0  0  0  0  0  0  0  0  0
  -31.2210  -19.5510   18.7180 C   0  0  0  0  0  0  0  0  0  0  0  0
  -32.1500  -19.8330   17.7700 F   0  0  0  0  0  0  0  0  0  0  0  0
  -30.7440  -15.2030   20.6570 C   0  0  0  0  0  0  0  0  0  0  0  0
  -30.7130  -12.8100   19.7870 C   0  0  0  0  0  2  0  0  0  0  0  0
  -29.8600  -12.7100   18.4990 C   0  0  0  0  0  2  0  0  0  0  0  0
  -28.3750  -12.4950   18.8450 C   0  0  0  0  0  2  0  0  0  0  0  0
  -27.8850  -13.4380   19.9760 C   0  0  0  0  0  3  0  0  0  0  0  0
  -28.8720  -13.4970   21.1620 C   0  0  0  0  0  2  0  0  0  0  0  0
  -30.1660  -13.9270   20.6180 N   0  0  0  0  0  0  0  0  0  0  0  0
  -31.9670  -15.2420   20.4970 O   0  0  0  0  0  0  0  0  0  0  0  0
  -29.9500  -16.4080   20.7080 N   0  0  0  0  0  0  0  0  0  0  0  0
  -29.0200  -16.2130   21.0500 H   0  0  0  0  0  0  0  0  0  0  0  0
  -25.4600  -13.9960   20.5610 C   0  0  0  0  0  0  0  0  0  0  0  0
  -24.3850  -13.2150   20.8810 C   0  0  0  0  0  0  0  0  0  0  0  0
  -24.8680  -11.8690   20.9080 C   0  0  0  0  0  0  0  0  0  0  0  0
  -26.5260  -13.1280   20.4020 N   0  0  0  0  0  0  0  0  0  0  0  0
  -26.1760  -11.8460   20.6820 N   0  0  0  0  0  0  0  0  0  0  0  0
  -24.1450  -10.6020   21.0790 C   0  0  0  0  0  0  0  0  0  0  0  0
  -24.5330   -9.6540   22.0520 C   0  0  0  0  0  3  0  0  0  0  0  0
  -23.8080   -8.4520   22.2100 C   0  0  0  0  0  3  0  0  0  0  0  0
  -22.6830   -8.1900   21.3930 C   0  0  0  0  0  0  0  0  0  0  0  0
  -22.3140   -9.1260   20.4100 C   0  0  0  0  0  3  0  0  0  0  0  0
  -23.0400  -10.3180   20.2510 C   0  0  0  0  0  3  0  0  0  0  0  0
  -21.9350   -7.0390   21.4570 O   0  0  0  0  0  0  0  0  0  0  0  0
  -21.8230   -6.3180   22.6190 C   0  0  0  0  0  0  0  0  0  0  0  0
  -21.2890   -6.8820   23.7980 C   0  0  0  0  0  3  0  0  0  0  0  0
  -21.1270   -6.0850   24.9500 C   0  0  0  0  0  3  0  0  0  0  0  0
  -21.4890   -4.7260   24.9220 C   0  0  0  0  0  0  0  0  0  0  0  0
  -22.0150   -4.1590   23.7460 C   0  0  0  0  0  3  0  0  0  0  0  0
  -22.1770   -4.9530   22.5970 C   0  0  0  0  0  0  0  0  0  0  0  0
  -22.6660   -4.3980   21.4620 F   0  0  0  0  0  0  0  0  0  0  0  0
  -21.3260   -3.9580   26.0250 F   0  0  0  0  0  0  0  0  0  0  0  0
  -22.9670  -13.6780   21.0490 C   0  0  0  0  0  0  0  0  0  0  0  0
  -22.1990  -13.0040   21.8970 N   0  0  0  0  0  0  0  0  0  0  0  0
  -22.5490  -14.6760   20.4630 O   0  0  0  0  0  0  0  0  0  0  0  0
  -22.5500  -12.1990   22.3930 H   0  0  0  0  0  0  0  0  0  0  0  0
  -21.2450  -13.2990   22.0520 H   0  0  0  0  0  0  0  0  0  0  0  0
  -25.6160  -15.3660   20.3640 N   0  0  0  0  0  0  0  0  0  0  0  0
  -24.8300  -16.0060   20.4190 H   0  0  0  0  0  0  0  0  0  0  0  0
  -26.4610  -15.8070   20.0270 H   0  0  0  0  0  0  0  0  0  0  0  0
  -31.5760  -17.1270   18.1600 C   0  0  1  0  0  0  0  0  0  0  0  0
  -32.8140  -16.8090   18.5320 F   0  0  0  0  0  0  0  0  0  0  0  0
  -30.8240  -16.0290   18.0980 F   0  0  0  0  0  0  0  0  0  0  0  0
  -31.6380  -17.5470   16.8960 F   0  0  0  0  0  0  0  0  0  0  0  0
  -28.7510  -21.7870   20.5520 N   0  0  0  0  0  0  0  0  0  0  0  0
  -28.0200  -21.6780   21.2540 H   0  0  0  0  0  0  0  0  0  0  0  0
  -28.9790  -23.2950   20.0970 C   0  0  0  0  0  3  0  0  0  0  0  0
  -27.9680  -24.6410   20.4420 C   0  0  0  0  0  3  0  0  0  0  0  0
  -28.2170  -26.1910   20.2190 O   0  0  0  0  0  0  0  0  0  0  0  0
  -24.5930  -31.9400   23.2310 C   0  0  0  0  0  0  0  0  0  0  0  0
  -27.1610  -27.1910   20.2000 C   0  0  0  0  0  0  0  0  0  0  0  0
  -23.3900  -30.5370   21.6030 C   0  0  0  0  0  3  0  0  0  0  0  0
  -24.8350  -28.9590   20.1730 C   0  0  0  0  0  0  0  0  0  0  0  0
  -25.9450  -30.7990   21.4260 C   0  0  0  0  0  2  0  0  0  0  0  0
  -26.0190  -29.4030   20.7770 C   0  0  0  0  0  0  0  0  0  0  0  0
  -27.1830  -28.5370   20.7680 C   0  0  0  0  0  3  0  0  0  0  0  0
  -25.9510  -26.8660   19.5490 C   0  0  0  0  0  3  0  0  0  0  0  0
  -24.8170  -27.7070   19.5420 C   0  0  0  0  0  3  0  0  0  0  0  0
  -23.6060  -29.8570   20.2250 C   0  0  0  0  0  2  0  0  0  0  0  0
  -24.6640  -31.1160   22.1400 N   0  0  0  0  0  0  0  0  0  0  0  0
  -23.5080  -32.2220   23.7650 O   0  0  0  0  0  0  0  0  0  0  0  0
  -22.7190  -29.5290   22.5710 C   0  0  0  0  0  0  0  0  0  0  0  0
  -21.3940  -29.3380   22.4410 N   0  0  0  0  0  0  0  0  0  0  0  0
  -23.3950  -28.9220   23.4060 O   0  0  0  0  0  0  0  0  0  0  0  0
  -20.9050  -29.8800   21.7430 H   0  0  0  0  0  0  0  0  0  0  0  0
  -18.0290  -28.0850   22.9380 C   0  0  0  0  0  0  0  0  0  0  0  0
  -20.5820  -28.3950   23.2170 C   0  0  0  0  0  3  0  0  0  0  0  0
  -20.7120  -26.9590   22.6590 C   0  0  0  0  0  2  0  0  0  0  0  0
  -19.6200  -26.6070   21.6410 C   0  0  0  0  0  2  0  0  0  0  0  0
  -18.2330  -26.7340   22.2760 C   0  0  0  0  0  2  0  0  0  0  0  0
  -19.1320  -28.8730   23.3660 C   0  0  0  0  0  0  0  0  0  0  0  0
  -18.8850  -30.1360   23.9460 C   0  0  0  0  0  3  0  0  0  0  0  0
  -17.5700  -30.6130   24.1030 C   0  0  0  0  0  3  0  0  0  0  0  0
  -16.4830  -29.8230   23.6900 C   0  0  0  0  0  3  0  0  0  0  0  0
  -16.7130  -28.5620   23.1140 C   0  0  0  0  0  3  0  0  0  0  0  0
  -25.8700  -32.5840   23.8500 C   0  0  0  0  0  3  0  0  0  0  0  0
  -26.3780  -31.8330   25.1430 C   0  0  1  0  0  0  0  0  0  0  0  0
  -25.2770  -31.6110   26.2070 C   0  0  0  0  0  1  0  0  0  0  0  0
  -26.9660  -30.4510   24.7820 C   0  0  0  0  0  1  0  0  0  0  0  0
  -27.5230  -32.6400   25.8000 C   0  0  0  0  0  1  0  0  0  0  0  0
  -25.5570  -33.9880   24.1650 N   0  0  0  0  0  0  0  0  0  0  0  0
  -25.9020  -35.0380   23.4070 C   0  0  0  0  0  0  0  0  0  0  0  0
  -26.5810  -34.9260   22.3840 O   0  0  0  0  0  0  0  0  0  0  0  0
  -24.9540  -34.1470   24.9590 H   0  0  0  0  0  0  0  0  0  0  0  0
  -24.2020  -36.8520   23.0140 C   0  0  0  0  0  1  0  0  0  0  0  0
  -25.4180  -36.4320   23.8550 C   0  0  0  0  0  3  0  0  0  0  0  0
  -27.5360  -37.3020   24.7450 C   0  0  0  0  0  1  0  0  0  0  0  0
  -26.4650  -37.4740   23.7670 N   0  0  0  0  0  0  0  0  0  0  0  0
  -26.0650  -38.4000   23.8930 H   0  0  0  0  0  0  0  0  0  0  0  0
  2  4  1  0
  3  5  2  0
  4 50  1  0
  4  1  2  0
  5  1  1  0
  5 16  1  0
  6  3  1  0
  6  2  2  0
  7  6  1  0
  8 16  1  0
  9 14  1  0
 10 11  1  0
 10  9  1  0
 12 11  1  0
 12 21  1  0
 12 13  1  0
 14  8  1  0
 14 13  1  0
 15  8  2  0
 16 17  1  0
 18 19  2  0
 19 20  1  0
 19 38  1  0
 20 23  1  0
 21 18  1  0
 21 22  1  0
 22 20  2  0
 23 24  1  0
 24 25  2  0
 26 29  1  0
 26 25  1  0
 27 26  2  0
 28 27  1  0
 28 23  2  0
 29 30  1  0
 30 31  1  0
 31 32  2  0
 33 32  1  0
 33 37  1  0
 34 33  2  0
 35 30  2  0
 35 34  1  0
 36 35  1  0
 38 39  1  0
 39 42  1  0
 39 41  1  0
 40 38  2  0
 43 44  1  0
 43 18  1  0
 45 43  1  0
 46 47  1  1
 46  3  1  0
 48 46  1  0
 49 46  1  0
 50 51  1  0
 52 53  2  0
 52 50  1  0
 54 53  1  0
 55 66  2  0
 56 54  1  0
 56 61  1  0
 57 65  1  0
 57 67  1  0
 58 64  1  0
 58 60  1  0
 59 65  1  0
 60 59  1  0
 61 60  2  0
 62 56  2  0
 63 62  1  0
 63 58  2  0
 64 57  1  0
 65 55  1  0
 67 69  2  0
 68 67  1  0
 70 68  1  0
 71 80  2  0
 71 76  1  0
 72 68  1  0
 72 76  1  0
 73 72  1  0
 74 75  1  0
 74 73  1  0
 75 71  1  0
 76 77  2  0
 77 78  1  0
 79 78  2  0
 80 79  1  0
 81 55  1  0
 81 86  1  0
 81 82  1  0
 82 85  1  1
 82 83  1  0
 84 82  1  0
 86 89  1  0
 87 91  1  0
 87 86  1  0
 88 87  2  0
 91 90  1  0
 93 91  1  0
 93 94  1  0
 93 92  1  0
M  ISO  4   8 100  16 100  53 101  54 101
M  END
>  <TORSDO>  (9) 
F 20

>  <SCORE>  (9) 
-14.483

>  <name>  (9) 
8

>  <ligand_id>  (9) 
8

>  <original_smiles>  (9) 
[H]c1c([H])c([H])c2c(c1[H])C([H])([H])C([H])([H])C([H])([H])C2([H])N([H])C(=O)C1([H])N(C(=O)C([H])(N([H])C(=O)C([H])(N([H])C([H])([H])[H])C([H])([H])[H])C(C([H])([H])[H])(C([H])([H])[H])C([H])([H])[H])C([H])([H])c2c([H])c(OC([H])([H])C([H])([H])N([H])c3c([H])c(F)c(C(F)(F)F)c(N([H])C(=O)N4C([H])([H])C([H])([H])C([H])([H])C([H])(n5nc(-c6c([H])c([H])c(Oc7c([H])c([H])c(F)c([H])c7F)c([H])c6[H])c(C(=O)N([H])[H])c5N([H])[H])C4([H])[H])c3[H])c([H])c([H])c2C1([H])[H]

>  <smiles>  (9) 
[H]c1c([H])c([H])c2c(c1[H])C([H])([H])C([H])([H])C([H])([H])C2([H])N([H])C(=O)C1([H])N(C(=O)C([H])(N([H])C(=O)C([H])(N([H])C([H])([H])[H])C([H])([H])[H])C(C([H])([H])[H])(C([H])([H])[H])C([H])([H])[H])C([H])([H])c2c([H])c(OC([H])([H])C([H])([H])N([H])c3c([H])c(F)c(C(F)(F)F)c(N([H])C(=O)N4C([H])([H])C([H])([H])C([H])([H])C([H])(n5nc(-c6c([H])c([H])c(Oc7c([H])c([H])c(F)c([H])c7F)c([H])c6[H])c(C(=O)N([H])[H])c5N([H])[H])C4([H])[H])c3[H])c([H])c([H])c2C1([H])[H]

$$$$
9:0:0
     RDKit          3D

 95104  0  0  1  0  0  0  0  0999 V2000
  -29.5920  -18.0650   20.6850 C   0  0  0  0  0  3  0  0  0  0  0  0
  -31.8560  -17.2810   21.0910 C   0  0  0  0  0  3  0  0  0  0  0  0
  -31.4140  -19.6820   20.9680 C   0  0  0  0  0  0  0  0  0  0  0  0
  -30.0410  -19.4100   20.7310 C   0  0  0  0  0  0  0  0  0  0  0  0
  -30.4920  -16.9840   20.8530 C   0  0  0  0  0  0  0  0  0  0  0  0
  -32.3170  -18.6090   21.1360 C   0  0  0  0  0  0  0  0  0  0  0  0
  -31.8780  -21.0940   21.0250 C   0  0  0  0  0  0  0  0  0  0  0  0
  -29.0350  -20.5590   20.5490 C   0  0  0  0  0  2  0  0  0  0  0  0
  -30.7880  -22.1170   21.3300 C   0  0  0  0  0  2  0  0  0  0  0  0
  -29.6460  -21.9180   20.4010 N   0  0  2  0  0  4  0  0  0  0  0  0
  -33.0450  -21.4680   20.8700 O   0  0  0  0  0  0  0  0  0  0  0  0
  -33.6370  -18.8210   21.3590 F   0  0  0  0  0  0  0  0  0  0  0  0
  -30.0150  -21.9550   19.4610 H   0  0  0  0  0  0  0  0  0  0  0  0
  -30.6980  -14.5550   20.3690 C   0  0  0  0  0  0  0  0  0  0  0  0
  -30.3710  -12.3610   19.3070 C   0  0  0  0  0  2  0  0  0  0  0  0
  -29.4420  -12.5350   18.0900 C   0  0  0  0  0  2  0  0  0  0  0  0
  -27.9660  -12.4190   18.5200 C   0  0  0  0  0  2  0  0  0  0  0  0
  -27.6260  -13.2950   19.7580 C   0  0  0  0  0  3  0  0  0  0  0  0
  -28.6780  -13.1270   20.8750 C   0  0  0  0  0  2  0  0  0  0  0  0
  -30.0020  -13.3910   20.2910 N   0  0  0  0  0  0  0  0  0  0  0  0
  -31.8370  -14.6690   19.9060 O   0  0  0  0  0  0  0  0  0  0  0  0
  -30.0130  -15.6320   20.8010 N   0  0  0  0  0  0  0  0  0  0  0  0
  -29.0320  -15.4800   20.9840 H   0  0  0  0  0  0  0  0  0  0  0  0
  -25.2340  -13.9100   20.4730 C   0  0  0  0  0  0  0  0  0  0  0  0
  -24.1640  -13.1430   20.8480 C   0  0  0  0  0  0  0  0  0  0  0  0
  -24.6170  -11.7890   20.8140 C   0  0  0  0  0  0  0  0  0  0  0  0
  -26.2750  -13.0240   20.2410 N   0  0  0  0  0  0  0  0  0  0  0  0
  -25.9070  -11.7440   20.5040 N   0  0  0  0  0  0  0  0  0  0  0  0
  -23.8860  -10.5300   21.0060 C   0  0  0  0  0  0  0  0  0  0  0  0
  -24.3090   -9.5670   21.9500 C   0  0  0  0  0  3  0  0  0  0  0  0
  -23.5800   -8.3720   22.1300 C   0  0  0  0  0  3  0  0  0  0  0  0
  -22.4120   -8.1320   21.3680 C   0  0  0  0  0  0  0  0  0  0  0  0
  -22.0070   -9.0820   20.4130 C   0  0  0  0  0  3  0  0  0  0  0  0
  -22.7370  -10.2690   20.2310 C   0  0  0  0  0  3  0  0  0  0  0  0
  -21.6530   -6.9900   21.4570 O   0  0  0  0  0  0  0  0  0  0  0  0
  -21.5880   -6.2600   22.6160 C   0  0  0  0  0  0  0  0  0  0  0  0
  -21.1260   -6.8200   23.8270 C   0  0  0  0  0  3  0  0  0  0  0  0
  -21.0090   -6.0150   24.9770 C   0  0  0  0  0  3  0  0  0  0  0  0
  -21.3430   -4.6490   24.9160 C   0  0  0  0  0  0  0  0  0  0  0  0
  -21.7970   -4.0870   23.7100 C   0  0  0  0  0  3  0  0  0  0  0  0
  -21.9160   -4.8900   22.5630 C   0  0  0  0  0  0  0  0  0  0  0  0
  -22.3360   -4.3380   21.3980 F   0  0  0  0  0  0  0  0  0  0  0  0
  -21.2220   -3.8720   26.0190 F   0  0  0  0  0  0  0  0  0  0  0  0
  -22.7680  -13.6270   21.1180 C   0  0  0  0  0  0  0  0  0  0  0  0
  -22.0330  -12.9340   21.9820 N   0  0  0  0  0  0  0  0  0  0  0  0
  -22.3370  -14.6560   20.5990 O   0  0  0  0  0  0  0  0  0  0  0  0
  -22.3910  -12.0990   22.4250 H   0  0  0  0  0  0  0  0  0  0  0  0
  -21.0980  -13.2420   22.2060 H   0  0  0  0  0  0  0  0  0  0  0  0
  -25.4000  -15.2780   20.2950 N   0  0  0  0  0  0  0  0  0  0  0  0
  -24.6310  -15.9290   20.4130 H   0  0  0  0  0  0  0  0  0  0  0  0
  -26.2430  -15.7190   19.9480 H   0  0  0  0  0  0  0  0  0  0  0  0
  -28.6210  -22.9950   20.5360 C   0  0  0  0  0  2  0  0  0  0  0  0
  -29.0440  -24.4190   20.0760 C   0  0  0  0  0  2  0  0  0  0  0  0
  -28.0180  -25.4610   20.5720 C   0  0  0  0  0  2  0  0  0  0  0  0
  -28.2060  -26.7870   20.0480 O   0  0  0  0  0  0  0  0  0  0  0  0
  -24.4690  -31.9670   23.2180 C   0  0  0  0  0  0  0  0  0  0  0  0
  -27.0600  -27.5510   20.0580 C   0  0  0  0  0  0  0  0  0  0  0  0
  -23.2410  -30.5840   21.5810 C   0  0  0  0  0  3  0  0  0  0  0  0
  -24.6720  -29.0620   20.1240 C   0  0  0  0  0  0  0  0  0  0  0  0
  -25.7660  -30.9370   21.3540 C   0  0  0  0  0  2  0  0  0  0  0  0
  -25.8410  -29.5720   20.7020 C   0  0  0  0  0  0  0  0  0  0  0  0
  -27.0380  -28.8230   20.6740 C   0  0  0  0  0  3  0  0  0  0  0  0
  -25.8800  -27.0680   19.4490 C   0  0  0  0  0  3  0  0  0  0  0  0
  -24.6830  -27.8050   19.4970 C   0  0  0  0  0  3  0  0  0  0  0  0
  -23.4310  -29.9190   20.1910 C   0  0  0  0  0  2  0  0  0  0  0  0
  -24.5120  -31.1760   22.1090 N   0  0  0  0  0  0  0  0  0  0  0  0
  -23.3940  -32.2370   23.7720 O   0  0  0  0  0  0  0  0  0  0  0  0
  -22.6000  -29.5530   22.5380 C   0  0  0  0  0  0  0  0  0  0  0  0
  -21.2730  -29.3720   22.4230 N   0  0  0  0  0  0  0  0  0  0  0  0
  -23.2930  -28.9200   23.3400 O   0  0  0  0  0  0  0  0  0  0  0  0
  -20.7720  -29.9300   21.7460 H   0  0  0  0  0  0  0  0  0  0  0  0
  -17.9080  -28.1710   22.9430 C   0  0  0  0  0  0  0  0  0  0  0  0
  -20.4670  -28.4310   23.1990 C   0  0  0  0  0  3  0  0  0  0  0  0
  -20.5700  -27.0020   22.6180 C   0  0  0  0  0  2  0  0  0  0  0  0
  -19.4630  -26.6820   21.6100 C   0  0  0  0  0  2  0  0  0  0  0  0
  -18.0840  -26.8230   22.2620 C   0  0  0  0  0  2  0  0  0  0  0  0
  -19.0280  -28.9320   23.3700 C   0  0  0  0  0  0  0  0  0  0  0  0
  -18.8100  -30.1930   23.9670 C   0  0  0  0  0  3  0  0  0  0  0  0
  -17.5070  -30.6920   24.1440 C   0  0  0  0  0  3  0  0  0  0  0  0
  -16.4010  -29.9250   23.7350 C   0  0  0  0  0  3  0  0  0  0  0  0
  -16.6020  -28.6680   23.1380 C   0  0  0  0  0  3  0  0  0  0  0  0
  -25.7640  -32.5930   23.8240 C   0  0  0  0  0  3  0  0  0  0  0  0
  -26.2980  -31.8130   25.0890 C   0  0  1  0  0  0  0  0  0  0  0  0
  -25.2160  -31.5680   26.1680 C   0  0  0  0  0  1  0  0  0  0  0  0
  -26.8720  -30.4360   24.6800 C   0  0  0  0  0  1  0  0  0  0  0  0
  -27.4590  -32.6010   25.7410 C   0  0  0  0  0  1  0  0  0  0  0  0
  -25.4670  -33.9920   24.1620 N   0  0  0  0  0  0  0  0  0  0  0  0
  -25.8090  -35.0440   23.4070 C   0  0  0  0  0  0  0  0  0  0  0  0
  -26.4810  -34.9400   22.3780 O   0  0  0  0  0  0  0  0  0  0  0  0
  -24.8750  -34.1470   24.9650 H   0  0  0  0  0  0  0  0  0  0  0  0
  -24.1090  -36.8600   23.0390 C   0  0  0  0  0  1  0  0  0  0  0  0
  -25.3310  -36.4350   23.8680 C   0  0  0  0  0  3  0  0  0  0  0  0
  -27.4600  -37.2860   24.7460 C   0  0  0  0  0  1  0  0  0  0  0  0
  -26.3780  -37.4760   23.7830 N   0  0  0  0  0  0  0  0  0  0  0  0
  -25.9790  -38.3990   23.9340 H   0  0  0  0  0  0  0  0  0  0  0  0
  1  4  2  0
  1  5  1  0
  2  6  1  0
  3  7  1  0
  3  6  2  0
  4  3  1  0
  5  2  2  0
  6 12  1  0
  7  9  1  0
  8  4  1  0
 10 52  1  0
 10  8  1  0
 10  9  1  0
 11  7  2  0
 10 13  1  6
 14 22  1  0
 15 20  1  0
 16 17  1  0
 16 15  1  0
 18 17  1  0
 18 27  1  0
 18 19  1  0
 20 14  1  0
 20 19  1  0
 21 14  2  0
 22  5  1  0
 22 23  1  0
 24 25  2  0
 25 44  1  0
 26 25  1  0
 26 29  1  0
 27 24  1  0
 27 28  1  0
 28 26  2  0
 29 30  1  0
 30 31  2  0
 32 35  1  0
 32 31  1  0
 33 32  2  0
 34 33  1  0
 34 29  2  0
 35 36  1  0
 36 37  1  0
 37 38  2  0
 39 38  1  0
 39 43  1  0
 40 39  2  0
 41 36  2  0
 41 40  1  0
 42 41  1  0
 44 45  1  0
 45 48  1  0
 45 47  1  0
 46 44  2  0
 49 50  1  0
 49 24  1  0
 51 49  1  0
 53 52  1  0
 53 54  1  0
 55 57  1  0
 55 54  1  0
 56 67  2  0
 57 62  1  0
 58 66  1  0
 58 68  1  0
 59 65  1  0
 59 61  1  0
 60 66  1  0
 61 60  1  0
 62 61  2  0
 63 64  1  0
 63 57  2  0
 64 59  2  0
 65 58  1  0
 66 56  1  0
 68 70  2  0
 69 68  1  0
 71 69  1  0
 72 81  2  0
 72 77  1  0
 73 69  1  0
 73 77  1  0
 74 73  1  0
 75 76  1  0
 75 74  1  0
 76 72  1  0
 77 78  2  0
 78 79  1  0
 80 79  2  0
 81 80  1  0
 82 56  1  0
 82 87  1  0
 82 83  1  0
 83 86  1  1
 83 84  1  0
 85 83  1  0
 87 90  1  0
 88 92  1  0
 88 87  1  0
 89 88  2  0
 92 91  1  0
 94 92  1  0
 94 95  1  0
 94 93  1  0
M  ISO  4  14 100  22 100  54 101  55 101
M  END
>  <TORSDO>  (10) 
F 19

>  <SCORE>  (10) 
-14.567

>  <name>  (10) 
9

>  <ligand_id>  (10) 
9

>  <original_smiles>  (10) 
[H]c1c([H])c([H])c2c(c1[H])C([H])([H])C([H])([H])C([H])([H])C2([H])N([H])C(=O)C1([H])N(C(=O)C([H])(N([H])C(=O)C([H])(N([H])C([H])([H])[H])C([H])([H])[H])C(C([H])([H])[H])(C([H])([H])[H])C([H])([H])[H])C([H])([H])c2c([H])c(OC([H])([H])C([H])([H])C([H])([H])[N+]3([H])C([H])([H])C(=O)c4c(F)c([H])c(N([H])C(=O)N5C([H])([H])C([H])([H])C([H])([H])C([H])(n6nc(-c7c([H])c([H])c(Oc8c([H])c([H])c(F)c([H])c8F)c([H])c7[H])c(C(=O)N([H])[H])c6N([H])[H])C5([H])[H])c([H])c4C3([H])[H])c([H])c([H])c2C1([H])[H]

>  <smiles>  (10) 
[H]c1c([H])c([H])c2c(c1[H])C([H])([H])C([H])([H])C([H])([H])C2([H])N([H])C(=O)C1([H])N(C(=O)C([H])(N([H])C(=O)C([H])(N([H])C([H])([H])[H])C([H])([H])[H])C(C([H])([H])[H])(C([H])([H])[H])C([H])([H])[H])C([H])([H])c2c([H])c(OC([H])([H])C([H])([H])C([H])([H])[N+]3([H])C([H])([H])C(=O)c4c(F)c([H])c(N([H])C(=O)N5C([H])([H])C([H])([H])C([H])([H])C([H])(n6nc(-c7c([H])c([H])c(Oc8c([H])c([H])c(F)c([H])c8F)c([H])c7[H])c(C(=O)N([H])[H])c6N([H])[H])C5([H])[H])c([H])c4C3([H])[H])c([H])c([H])c2C1([H])[H]

$$$$
10:0:0
     RDKit          3D

 94102  0  0  1  0  0  0  0  0999 V2000
  -28.6430  -22.5750   19.5710 C   0  0  0  0  0  3  0  0  0  0  0  0
  -29.6750  -21.6150   20.2900 C   0  0  0  0  0  3  0  0  0  0  0  0
  -29.4560  -17.8410   19.1030 C   0  0  0  0  0  2  0  0  0  0  0  0
  -29.8090  -17.9010   21.5410 C   0  0  0  0  0  2  0  0  0  0  0  0
  -29.6840  -19.3950   19.0380 C   0  0  0  0  0  2  0  0  0  0  0  0
  -30.0610  -19.4380   21.4520 C   0  0  0  0  0  2  0  0  0  0  0  0
  -30.2140  -17.1320   20.2610 C   0  0  0  0  0  3  0  0  0  0  0  0
  -29.3710  -20.1230   20.3120 N   0  0  1  0  0  4  0  0  0  0  0  0
  -28.3800  -20.0250   20.4820 H   0  0  0  0  0  0  0  0  0  0  0  0
  -30.6970  -14.5970   19.9970 C   0  0  0  0  0  0  0  0  0  0  0  0
  -30.4030  -12.3830   18.9270 C   0  0  0  0  0  2  0  0  0  0  0  0
  -29.3920  -12.5370   17.7700 C   0  0  0  0  0  2  0  0  0  0  0  0
  -27.9460  -12.3860   18.2840 C   0  0  0  0  0  2  0  0  0  0  0  0
  -27.6650  -13.2380   19.5520 C   0  0  0  0  0  3  0  0  0  0  0  0
  -28.7850  -13.0620   20.6020 C   0  0  0  0  0  2  0  0  0  0  0  0
  -30.0610  -13.3890   19.9490 N   0  0  0  0  0  0  0  0  0  0  0  0
  -31.8350  -14.7550   19.5460 O   0  0  0  0  0  0  0  0  0  0  0  0
  -29.9260  -15.6610   20.3650 N   0  0  0  0  0  0  0  0  0  0  0  0
  -29.0070  -15.4130   20.6990 H   0  0  0  0  0  0  0  0  0  0  0  0
  -25.3260  -13.8420   20.4300 C   0  0  0  0  0  0  0  0  0  0  0  0
  -24.2750  -13.0690   20.8430 C   0  0  0  0  0  0  0  0  0  0  0  0
  -24.7190  -11.7150   20.7500 C   0  0  0  0  0  0  0  0  0  0  0  0
  -26.3450  -12.9580   20.1100 N   0  0  0  0  0  0  0  0  0  0  0  0
  -25.9890  -11.6720   20.3630 N   0  0  0  0  0  0  0  0  0  0  0  0
  -23.9940  -10.4550   20.9510 C   0  0  0  0  0  0  0  0  0  0  0  0
  -24.4410   -9.4860   21.8760 C   0  0  0  0  0  3  0  0  0  0  0  0
  -23.7160   -8.2890   22.0650 C   0  0  0  0  0  3  0  0  0  0  0  0
  -22.5300   -8.0540   21.3290 C   0  0  0  0  0  0  0  0  0  0  0  0
  -22.1020   -9.0130   20.3920 C   0  0  0  0  0  3  0  0  0  0  0  0
  -22.8270  -10.2000   20.2020 C   0  0  0  0  0  3  0  0  0  0  0  0
  -21.7750   -6.9100   21.4270 O   0  0  0  0  0  0  0  0  0  0  0  0
  -21.7030   -6.1950   22.5950 C   0  0  0  0  0  0  0  0  0  0  0  0
  -21.2390   -6.7740   23.7960 C   0  0  0  0  0  3  0  0  0  0  0  0
  -21.1130   -5.9840   24.9570 C   0  0  0  0  0  3  0  0  0  0  0  0
  -21.4440   -4.6160   24.9170 C   0  0  0  0  0  0  0  0  0  0  0  0
  -21.9000   -4.0370   23.7200 C   0  0  0  0  0  3  0  0  0  0  0  0
  -22.0270   -4.8230   22.5630 C   0  0  0  0  0  0  0  0  0  0  0  0
  -22.4470   -4.2560   21.4070 F   0  0  0  0  0  0  0  0  0  0  0  0
  -21.3170   -3.8550   26.0280 F   0  0  0  0  0  0  0  0  0  0  0  0
  -22.9020  -13.5530   21.2100 C   0  0  0  0  0  0  0  0  0  0  0  0
  -22.2230  -12.8440   22.1050 N   0  0  0  0  0  0  0  0  0  0  0  0
  -22.4420  -14.5930   20.7390 O   0  0  0  0  0  0  0  0  0  0  0  0
  -22.6070  -12.0020   22.5070 H   0  0  0  0  0  0  0  0  0  0  0  0
  -21.3040  -13.1480   22.3940 H   0  0  0  0  0  0  0  0  0  0  0  0
  -25.4940  -15.2150   20.2790 N   0  0  0  0  0  0  0  0  0  0  0  0
  -24.7350  -15.8670   20.4440 H   0  0  0  0  0  0  0  0  0  0  0  0
  -26.3220  -15.6580   19.9030 H   0  0  0  0  0  0  0  0  0  0  0  0
  -28.9290  -24.1480   19.4520 C   0  0  0  0  0  3  0  0  0  0  0  0
  -30.3650  -24.4620   19.2620 N   0  0  0  0  0  4  0  0  0  0  0  0
  -30.9080  -24.2960   20.0930 H   0  0  0  0  0  0  0  0  0  0  0  0
  -30.4620  -25.4380   19.0390 H   0  0  0  0  0  0  0  0  0  0  0  0
  -30.7650  -23.9420   18.4990 H   0  0  0  0  0  0  0  0  0  0  0  0
  -28.2830  -25.1330   20.5010 C   0  0  0  0  0  2  0  0  0  0  0  0
  -28.4170  -26.5650   20.1850 O   0  0  0  0  0  0  0  0  0  0  0  0
  -24.5920  -31.8560   23.2100 C   0  0  0  0  0  0  0  0  0  0  0  0
  -27.2660  -27.3510   20.1730 C   0  0  0  0  0  0  0  0  0  0  0  0
  -23.4070  -30.4410   21.5660 C   0  0  0  0  0  3  0  0  0  0  0  0
  -24.8770  -28.9020   20.1540 C   0  0  0  0  0  0  0  0  0  0  0  0
  -25.9370  -30.7980   21.3860 C   0  0  0  0  0  2  0  0  0  0  0  0
  -26.0350  -29.4190   20.7500 C   0  0  0  0  0  0  0  0  0  0  0  0
  -27.2340  -28.6550   20.7480 C   0  0  0  0  0  3  0  0  0  0  0  0
  -26.0910  -26.8760   19.5560 C   0  0  0  0  0  3  0  0  0  0  0  0
  -24.9040  -27.6350   19.5510 C   0  0  0  0  0  3  0  0  0  0  0  0
  -23.6310  -29.7600   20.1900 C   0  0  0  0  0  2  0  0  0  0  0  0
  -24.6640  -31.0470   22.1130 N   0  0  0  0  0  0  0  0  0  0  0  0
  -23.5040  -32.1230   23.7400 O   0  0  0  0  0  0  0  0  0  0  0  0
  -22.7510  -29.4220   22.5260 C   0  0  0  0  0  0  0  0  0  0  0  0
  -21.4240  -29.2460   22.4070 N   0  0  0  0  0  0  0  0  0  0  0  0
  -23.4340  -28.7900   23.3360 O   0  0  0  0  0  0  0  0  0  0  0  0
  -20.9330  -29.8070   21.7240 H   0  0  0  0  0  0  0  0  0  0  0  0
  -18.0460  -28.0700   22.9350 C   0  0  0  0  0  0  0  0  0  0  0  0
  -20.6080  -28.3080   23.1780 C   0  0  0  0  0  3  0  0  0  0  0  0
  -20.6940  -26.8800   22.5900 C   0  0  0  0  0  2  0  0  0  0  0  0
  -19.5790  -26.5750   21.5860 C   0  0  0  0  0  2  0  0  0  0  0  0
  -18.2050  -26.7250   22.2460 C   0  0  0  0  0  2  0  0  0  0  0  0
  -19.1750  -28.8210   23.3580 C   0  0  0  0  0  0  0  0  0  0  0  0
  -18.9710  -30.0800   23.9630 C   0  0  0  0  0  3  0  0  0  0  0  0
  -17.6720  -30.5890   24.1480 C   0  0  0  0  0  3  0  0  0  0  0  0
  -16.5570  -29.8360   23.7400 C   0  0  0  0  0  3  0  0  0  0  0  0
  -16.7460  -28.5780   23.1390 C   0  0  0  0  0  3  0  0  0  0  0  0
  -25.8660  -32.5010   23.8360 C   0  0  0  0  0  3  0  0  0  0  0  0
  -25.5410  -33.8960   24.1680 N   0  0  0  0  0  0  0  0  0  0  0  0
  -25.8560  -34.9520   23.4060 C   0  0  0  0  0  0  0  0  0  0  0  0
  -26.5230  -34.8570   22.3730 O   0  0  0  0  0  0  0  0  0  0  0  0
  -24.9520  -34.0440   24.9740 H   0  0  0  0  0  0  0  0  0  0  0  0
  -24.1060  -36.7250   23.0560 C   0  0  0  0  0  1  0  0  0  0  0  0
  -25.3520  -36.3350   23.8660 C   0  0  0  0  0  3  0  0  0  0  0  0
  -27.4770  -37.2460   24.6940 C   0  0  0  0  0  1  0  0  0  0  0  0
  -26.3720  -37.4020   23.7510 N   0  0  0  0  0  0  0  0  0  0  0  0
  -25.9540  -38.3160   23.9030 H   0  0  0  0  0  0  0  0  0  0  0  0
  -26.3870  -31.7340   25.1120 C   0  0  1  0  0  0  0  0  0  0  0  0
  -25.2960  -31.4770   26.1770 C   0  0  0  0  0  1  0  0  0  0  0  0
  -26.9900  -30.3670   24.7170 C   0  0  0  0  0  1  0  0  0  0  0  0
  -27.5310  -32.5380   25.7740 C   0  0  0  0  0  1  0  0  0  0  0  0
  1  2  2  0
  2  8  1  0
  3  7  1  0
  5  3  1  0
  5  8  1  0
  6  4  1  0
  7 18  1  0
  7  4  1  0
  8  9  1  1
  8  6  1  0
 10 18  1  0
 11 16  1  0
 12 13  1  0
 12 11  1  0
 14 13  1  0
 14 23  1  0
 14 15  1  0
 16 10  1  0
 16 15  1  0
 17 10  2  0
 18 19  1  0
 20 21  2  0
 21 40  1  0
 22 21  1  0
 22 25  1  0
 23 24  1  0
 23 20  1  0
 24 22  2  0
 25 26  1  0
 26 27  2  0
 28 31  1  0
 28 27  1  0
 29 28  2  0
 30 29  1  0
 30 25  2  0
 31 32  1  0
 32 33  1  0
 33 34  2  0
 35 34  1  0
 35 39  1  0
 36 35  2  0
 37 32  2  0
 37 36  1  0
 38 37  1  0
 40 41  1  0
 41 44  1  0
 41 43  1  0
 42 40  2  0
 45 20  1  0
 45 46  1  0
 47 45  1  0
 48  1  1  0
 48 53  1  0
 49 48  1  0
 49 50  1  0
 51 49  1  0
 52 49  1  0
 54 53  1  0
 55 66  2  0
 56 54  1  0
 56 61  1  0
 57 65  1  0
 57 67  1  0
 58 64  1  0
 58 60  1  0
 59 65  1  0
 60 59  1  0
 61 60  2  0
 62 56  2  0
 63 62  1  0
 63 58  2  0
 64 57  1  0
 65 55  1  0
 67 69  2  0
 68 67  1  0
 70 68  1  0
 71 80  2  0
 71 76  1  0
 72 68  1  0
 72 76  1  0
 73 72  1  0
 74 75  1  0
 74 73  1  0
 75 71  1  0
 76 77  2  0
 77 78  1  0
 79 78  2  0
 80 79  1  0
 81 55  1  0
 81 82  1  0
 81 91  1  0
 82 85  1  0
 83 87  1  0
 83 82  1  0
 84 83  2  0
 87 86  1  0
 89 87  1  0
 89 90  1  0
 89 88  1  0
 91 94  1  1
 91 92  1  0
 93 91  1  0
M  ISO  4  10 100  18 100  53 101  54 101
M  END
>  <TORSDO>  (11) 
F 21

>  <SCORE>  (11) 
-13.199

>  <name>  (11) 
10

>  <ligand_id>  (11) 
10

>  <original_smiles>  (11) 
[H]c1c([H])c([H])c2c(c1[H])C([H])([H])C([H])([H])C([H])([H])C2([H])N([H])C(=O)C1([H])N(C(=O)C([H])(N([H])C(=O)C([H])(N([H])C([H])([H])[H])C([H])([H])[H])C(C([H])([H])[H])(C([H])([H])[H])C([H])([H])[H])C([H])([H])c2c([H])c(OC([H])([H])C([H])(C([H])([H])C([H])([H])[N+]3([H])C([H])([H])C([H])([H])C([H])(N([H])C(=O)N4C([H])([H])C([H])([H])C([H])([H])C([H])(n5nc(-c6c([H])c([H])c(Oc7c([H])c([H])c(F)c([H])c7F)c([H])c6[H])c(C(=O)N([H])[H])c5N([H])[H])C4([H])[H])C([H])([H])C3([H])[H])[N+]([H])([H])[H])c([H])c([H])c2C1([H])[H]

>  <smiles>  (11) 
[H]c1c([H])c([H])c2c(c1[H])C([H])([H])C([H])([H])C([H])([H])C2([H])N([H])C(=O)C1([H])N(C(=O)C([H])(N([H])C(=O)C([H])(N([H])C([H])([H])[H])C([H])([H])[H])C(C([H])([H])[H])(C([H])([H])[H])C([H])([H])[H])C([H])([H])c2c([H])c(OC([H])([H])C([H])(C([H])([H])C([H])([H])[N+]3([H])C([H])([H])C([H])([H])C([H])(N([H])C(=O)N4C([H])([H])C([H])([H])C([H])([H])C([H])(n5nc(-c6c([H])c([H])c(Oc7c([H])c([H])c(F)c([H])c7F)c([H])c6[H])c(C(=O)N([H])[H])c5N([H])[H])C4([H])[H])C([H])([H])C3([H])[H])[N+]([H])([H])[H])c([H])c([H])c2C1([H])[H]

$$$$
11:0:0
     RDKit          3D

 94102  0  0  1  0  0  0  0  0999 V2000
  -28.5070  -19.1470   20.8060 C   0  0  0  0  0  3  0  0  0  0  0  0
  -27.7210  -20.2520   21.2060 C   0  0  0  0  0  3  0  0  0  0  0  0
  -29.5820  -19.2890   19.9120 C   0  0  0  0  0  0  0  0  0  0  0  0
  -28.9900  -21.9000   19.8520 C   0  0  0  0  0  0  0  0  0  0  0  0
  -27.9420  -21.5770   20.7500 C   0  0  0  0  0  0  0  0  0  0  0  0
  -29.7920  -20.7020   19.4560 C   0  0  0  0  0  0  0  0  0  0  0  0
  -27.1130  -22.5480   21.1970 F   0  0  0  0  0  0  0  0  0  0  0  0
  -30.7960  -20.9230   18.5760 F   0  0  0  0  0  0  0  0  0  0  0  0
  -30.4480  -17.9310   19.5120 C   0  0  0  0  0  2  0  0  0  0  0  0
  -30.9590  -15.2440   19.8350 C   0  0  0  0  0  0  0  0  0  0  0  0
  -30.8000  -12.8700   18.9760 C   0  0  0  0  0  2  0  0  0  0  0  0
  -29.8190  -12.8260   17.7810 C   0  0  0  0  0  2  0  0  0  0  0  0
  -28.3630  -12.6570   18.2630 C   0  0  0  0  0  2  0  0  0  0  0  0
  -28.0260  -13.5650   19.4740 C   0  0  0  0  0  3  0  0  0  0  0  0
  -29.1340  -13.5820   20.5450 C   0  0  0  0  0  2  0  0  0  0  0  0
  -30.3700  -13.9820   19.8680 N   0  0  0  0  0  0  0  0  0  0  0  0
  -32.1470  -15.3020   19.5020 O   0  0  0  0  0  0  0  0  0  0  0  0
  -30.1740  -16.4280   19.9410 N   0  0  0  0  0  0  0  0  0  0  0  0
  -29.2160  -16.2390   20.1850 H   0  0  0  0  0  0  0  0  0  0  0  0
  -25.7120  -14.1390   20.3950 C   0  0  0  0  0  0  0  0  0  0  0  0
  -24.6620  -13.3590   20.7920 C   0  0  0  0  0  0  0  0  0  0  0  0
  -25.0970  -12.0030   20.6600 C   0  0  0  0  0  0  0  0  0  0  0  0
  -26.7190  -13.2590   20.0410 N   0  0  0  0  0  0  0  0  0  0  0  0
  -26.3650  -11.9670   20.2670 N   0  0  0  0  0  0  0  0  0  0  0  0
  -24.3590  -10.7440   20.8310 C   0  0  0  0  0  0  0  0  0  0  0  0
  -24.7710   -9.7740   21.7710 C   0  0  0  0  0  3  0  0  0  0  0  0
  -24.0350   -8.5810   21.9340 C   0  0  0  0  0  3  0  0  0  0  0  0
  -22.8710   -8.3520   21.1640 C   0  0  0  0  0  0  0  0  0  0  0  0
  -22.4780   -9.3120   20.2140 C   0  0  0  0  0  3  0  0  0  0  0  0
  -23.2130  -10.4960   20.0470 C   0  0  0  0  0  3  0  0  0  0  0  0
  -22.1070   -7.2110   21.2380 O   0  0  0  0  0  0  0  0  0  0  0  0
  -21.9560   -6.5190   22.4120 C   0  0  0  0  0  0  0  0  0  0  0  0
  -21.3840   -7.1130   23.5600 C   0  0  0  0  0  3  0  0  0  0  0  0
  -21.1910   -6.3450   24.7270 C   0  0  0  0  0  3  0  0  0  0  0  0
  -21.5510   -4.9840   24.7430 C   0  0  0  0  0  0  0  0  0  0  0  0
  -22.1120   -4.3900   23.5980 C   0  0  0  0  0  3  0  0  0  0  0  0
  -22.3120   -5.1560   22.4370 C   0  0  0  0  0  0  0  0  0  0  0  0
  -22.8350   -4.5760   21.3300 F   0  0  0  0  0  0  0  0  0  0  0  0
  -21.3550   -4.2430   25.8590 F   0  0  0  0  0  0  0  0  0  0  0  0
  -23.2950  -13.8420   21.1720 C   0  0  0  0  0  0  0  0  0  0  0  0
  -22.6270  -13.1280   22.0740 N   0  0  0  0  0  0  0  0  0  0  0  0
  -22.8340  -14.8830   20.7060 O   0  0  0  0  0  0  0  0  0  0  0  0
  -23.0190  -12.2840   22.4680 H   0  0  0  0  0  0  0  0  0  0  0  0
  -21.7070  -13.4230   22.3660 H   0  0  0  0  0  0  0  0  0  0  0  0
  -25.8930  -15.5120   20.2750 N   0  0  0  0  0  0  0  0  0  0  0  0
  -25.1590  -16.1790   20.4830 H   0  0  0  0  0  0  0  0  0  0  0  0
  -26.7180  -15.9470   19.8850 H   0  0  0  0  0  0  0  0  0  0  0  0
  -29.2020  -23.4870   19.3560 C   0  0  0  0  0  3  0  0  0  0  0  0
  -29.2430  -23.4880   17.8780 N   0  0  0  0  0  4  0  0  0  0  0  0
  -28.3300  -23.3700   17.4730 H   0  0  0  0  0  0  0  0  0  0  0  0
  -29.8320  -22.7390   17.5590 H   0  0  0  0  0  0  0  0  0  0  0  0
  -29.6320  -24.3520   17.5270 H   0  0  0  0  0  0  0  0  0  0  0  0
  -28.2990  -24.8460   19.8680 C   0  0  0  0  0  2  0  0  0  0  0  0
  -28.4830  -26.3670   19.4950 O   0  0  0  0  0  0  0  0  0  0  0  0
  -24.7520  -31.7650   22.9690 C   0  0  0  0  0  0  0  0  0  0  0  0
  -27.4050  -27.3340   19.5670 C   0  0  0  0  0  0  0  0  0  0  0  0
  -23.5740  -30.4550   21.2520 C   0  0  0  0  0  3  0  0  0  0  0  0
  -25.0430  -29.0340   19.6930 C   0  0  0  0  0  0  0  0  0  0  0  0
  -26.1210  -30.7940   21.0830 C   0  0  0  0  0  2  0  0  0  0  0  0
  -26.2180  -29.4560   20.3260 C   0  0  0  0  0  0  0  0  0  0  0  0
  -27.4020  -28.6230   20.2430 C   0  0  0  0  0  3  0  0  0  0  0  0
  -26.2010  -27.0280   18.8950 C   0  0  0  0  0  3  0  0  0  0  0  0
  -25.0490  -27.8400   18.9590 C   0  0  0  0  0  3  0  0  0  0  0  0
  -23.7950  -29.8960   19.8230 C   0  0  0  0  0  2  0  0  0  0  0  0
  -24.8360  -31.0240   21.8230 N   0  0  0  0  0  0  0  0  0  0  0  0
  -23.6630  -31.9810   23.5250 O   0  0  0  0  0  0  0  0  0  0  0  0
  -22.9390  -29.3560   22.1410 C   0  0  0  0  0  0  0  0  0  0  0  0
  -21.6080  -29.1780   22.0400 N   0  0  0  0  0  0  0  0  0  0  0  0
  -23.6420  -28.6750   22.8900 O   0  0  0  0  0  0  0  0  0  0  0  0
  -21.1000  -29.7780   21.4070 H   0  0  0  0  0  0  0  0  0  0  0  0
  -18.2440  -27.9420   22.5900 C   0  0  0  0  0  0  0  0  0  0  0  0
  -20.8180  -28.1710   22.7520 C   0  0  0  0  0  3  0  0  0  0  0  0
  -20.8800  -26.8060   22.0270 C   0  0  0  0  0  2  0  0  0  0  0  0
  -19.7220  -26.5910   21.0460 C   0  0  0  0  0  2  0  0  0  0  0  0
  -18.3770  -26.6700   21.7700 C   0  0  0  0  0  2  0  0  0  0  0  0
  -19.3900  -28.6540   23.0380 C   0  0  0  0  0  0  0  0  0  0  0  0
  -19.2060  -29.8490   23.7690 C   0  0  0  0  0  3  0  0  0  0  0  0
  -17.9140  -30.3270   24.0560 C   0  0  0  0  0  3  0  0  0  0  0  0
  -16.7850  -29.6090   23.6260 C   0  0  0  0  0  3  0  0  0  0  0  0
  -16.9530  -28.4180   22.8960 C   0  0  0  0  0  3  0  0  0  0  0  0
  -26.0170  -32.3930   23.6290 C   0  0  0  0  0  3  0  0  0  0  0  0
  -26.5520  -31.5530   24.8550 C   0  0  1  0  0  0  0  0  0  0  0  0
  -25.4650  -31.2280   25.9070 C   0  0  0  0  0  1  0  0  0  0  0  0
  -27.1610  -30.2160   24.3780 C   0  0  0  0  0  1  0  0  0  0  0  0
  -27.6950  -32.3250   25.5550 C   0  0  0  0  0  1  0  0  0  0  0  0
  -25.6710  -33.7580   24.0600 N   0  0  0  0  0  0  0  0  0  0  0  0
  -25.9580  -34.8720   23.3750 C   0  0  0  0  0  0  0  0  0  0  0  0
  -26.6200  -34.8610   22.3340 O   0  0  0  0  0  0  0  0  0  0  0  0
  -25.0810  -33.8360   24.8760 H   0  0  0  0  0  0  0  0  0  0  0  0
  -24.1790  -36.6370   23.1730 C   0  0  0  0  0  1  0  0  0  0  0  0
  -25.4420  -36.2120   23.9390 C   0  0  0  0  0  3  0  0  0  0  0  0
  -27.5560  -37.1000   24.8160 C   0  0  0  0  0  1  0  0  0  0  0  0
  -26.4450  -37.3000   23.8880 N   0  0  0  0  0  0  0  0  0  0  0  0
  -26.0150  -38.1960   24.1010 H   0  0  0  0  0  0  0  0  0  0  0  0
  1  2  1  0
  3  1  2  0
  4  5  1  0
  5  7  1  0
  5  2  2  0
  6  4  2  0
  6  3  1  0
  8  6  1  0
  9  3  1  0
  9 18  1  0
 10 16  1  0
 10 18  1  0
 11 16  1  0
 12 13  1  0
 12 11  1  0
 14 13  1  0
 14 23  1  0
 14 15  1  0
 16 15  1  0
 17 10  2  0
 18 19  1  0
 20 21  2  0
 21 40  1  0
 22 21  1  0
 22 25  1  0
 23 24  1  0
 23 20  1  0
 24 22  2  0
 25 26  1  0
 26 27  2  0
 28 31  1  0
 28 27  1  0
 29 28  2  0
 30 29  1  0
 30 25  2  0
 31 32  1  0
 32 37  2  0
 32 33  1  0
 33 34  2  0
 34 35  1  0
 35 39  1  0
 36 35  2  0
 37 36  1  0
 38 37  1  0
 40 41  1  0
 41 44  1  0
 41 43  1  0
 42 40  2  0
 45 20  1  0
 45 46  1  0
 47 45  1  0
 48  4  1  0
 48 53  1  0
 49 48  1  0
 50 49  1  0
 51 49  1  0
 52 49  1  0
 54 56  1  0
 54 53  1  0
 55 66  2  0
 56 61  1  0
 57 65  1  0
 57 67  1  0
 58 64  1  0
 58 60  1  0
 59 65  1  0
 60 59  1  0
 61 60  2  0
 62 63  1  0
 62 56  2  0
 63 58  2  0
 64 57  1  0
 65 55  1  0
 67 69  2  0
 68 67  1  0
 70 68  1  0
 71 80  2  0
 71 76  1  0
 72 68  1  0
 72 76  1  0
 73 72  1  0
 74 75  1  0
 74 73  1  0
 75 71  1  0
 76 77  2  0
 77 78  1  0
 79 78  2  0
 80 79  1  0
 81 55  1  0
 81 86  1  0
 81 82  1  0
 82 85  1  1
 82 83  1  0
 84 82  1  0
 86 89  1  0
 87 91  1  0
 87 86  1  0
 88 87  2  0
 91 90  1  0
 93 91  1  0
 93 94  1  0
 93 92  1  0
M  ISO  4  10 100  18 100  53 101  54 101
M  END
>  <TORSDO>  (12) 
F 20

>  <SCORE>  (12) 
-12.278

>  <name>  (12) 
11

>  <ligand_id>  (12) 
11

>  <original_smiles>  (12) 
[H]c1c([H])c([H])c2c(c1[H])C([H])([H])C([H])([H])C([H])([H])C2([H])N([H])C(=O)C1([H])N(C(=O)C([H])(N([H])C(=O)C([H])(N([H])C([H])([H])[H])C([H])([H])[H])C(C([H])([H])[H])(C([H])([H])[H])C([H])([H])[H])C([H])([H])c2c([H])c(OC([H])([H])C([H])(c3c(F)c([H])c([H])c(C([H])([H])N([H])C(=O)N4C([H])([H])C([H])([H])C([H])([H])C([H])(n5nc(-c6c([H])c([H])c(Oc7c([H])c([H])c(F)c([H])c7F)c([H])c6[H])c(C(=O)N([H])[H])c5N([H])[H])C4([H])[H])c3F)[N+]([H])([H])[H])c([H])c([H])c2C1([H])[H]

>  <smiles>  (12) 
[H]c1c([H])c([H])c2c(c1[H])C([H])([H])C([H])([H])C([H])([H])C2([H])N([H])C(=O)C1([H])N(C(=O)C([H])(N([H])C(=O)C([H])(N([H])C([H])([H])[H])C([H])([H])[H])C(C([H])([H])[H])(C([H])([H])[H])C([H])([H])[H])C([H])([H])c2c([H])c(OC([H])([H])C([H])(c3c(F)c([H])c([H])c(C([H])([H])N([H])C(=O)N4C([H])([H])C([H])([H])C([H])([H])C([H])(n5nc(-c6c([H])c([H])c(Oc7c([H])c([H])c(F)c([H])c7F)c([H])c6[H])c(C(=O)N([H])[H])c5N([H])[H])C4([H])[H])c3F)[N+]([H])([H])[H])c([H])c([H])c2C1([H])[H]

$$$$
12:0:0
     RDKit          3D

 96104  0  0  1  0  0  0  0  0999 V2000
  -30.0210  -21.5400   22.2940 C   0  0  0  0  0  2  0  0  0  0  0  0
  -28.5840  -18.5440   19.4960 C   0  0  0  0  0  3  0  0  0  0  0  0
  -27.8940  -19.7640   19.6370 C   0  0  0  0  0  3  0  0  0  0  0  0
  -30.2210  -19.2700   21.1470 C   0  0  0  0  0  3  0  0  0  0  0  0
  -29.7580  -18.2900   20.2400 C   0  0  0  0  0  0  0  0  0  0  0  0
  -29.5320  -20.4970   21.2970 C   0  0  0  0  0  0  0  0  0  0  0  0
  -28.3700  -20.7390   20.5320 C   0  0  0  0  0  0  0  0  0  0  0  0
  -27.7230  -21.9230   20.6470 F   0  0  0  0  0  0  0  0  0  0  0  0
  -30.5500  -17.0010   20.0010 C   0  0  0  0  0  3  0  0  0  0  0  0
  -30.3160  -16.5940   18.7480 F   0  0  0  0  0  0  0  0  0  0  0  0
  -30.2830  -15.8390   20.9980 C   0  0  0  0  0  3  0  0  0  0  0  0
  -28.9620  -15.7410   21.1460 F   0  0  0  0  0  0  0  0  0  0  0  0
  -30.9580  -14.5110   20.5230 C   0  0  0  0  0  0  0  0  0  0  0  0
  -30.7070  -12.3140   19.4280 C   0  0  0  0  0  2  0  0  0  0  0  0
  -29.8110  -12.4900   18.1830 C   0  0  0  0  0  2  0  0  0  0  0  0
  -28.3170  -12.3830   18.5510 C   0  0  0  0  0  2  0  0  0  0  0  0
  -27.9450  -13.2570   19.7820 C   0  0  0  0  0  3  0  0  0  0  0  0
  -28.9520  -13.0140   20.9300 C   0  0  0  0  0  2  0  0  0  0  0  0
  -30.2940  -13.3240   20.4190 N   0  0  0  0  0  0  0  0  0  0  0  0
  -32.1240  -14.6100   20.1170 O   0  0  0  0  0  0  0  0  0  0  0  0
  -25.5370  -13.9420   20.3830 C   0  0  0  0  0  0  0  0  0  0  0  0
  -24.4390  -13.2030   20.7290 C   0  0  0  0  0  0  0  0  0  0  0  0
  -24.8700  -11.8430   20.7540 C   0  0  0  0  0  0  0  0  0  0  0  0
  -26.5690  -13.0330   20.2150 N   0  0  0  0  0  0  0  0  0  0  0  0
  -26.1690  -11.7670   20.4950 N   0  0  0  0  0  0  0  0  0  0  0  0
  -24.1120  -10.6030   20.9540 C   0  0  0  0  0  0  0  0  0  0  0  0
  -24.4940   -9.6540   21.9270 C   0  0  0  0  0  3  0  0  0  0  0  0
  -23.7440   -8.4730   22.1090 C   0  0  0  0  0  3  0  0  0  0  0  0
  -22.5950   -8.2340   21.3200 C   0  0  0  0  0  0  0  0  0  0  0  0
  -22.2330   -9.1680   20.3330 C   0  0  0  0  0  3  0  0  0  0  0  0
  -22.9850  -10.3400   20.1490 C   0  0  0  0  0  3  0  0  0  0  0  0
  -21.8180   -7.1060   21.4110 O   0  0  0  0  0  0  0  0  0  0  0  0
  -21.7060   -6.3990   22.5810 C   0  0  0  0  0  0  0  0  0  0  0  0
  -21.2330   -6.9960   23.7690 C   0  0  0  0  0  3  0  0  0  0  0  0
  -21.0650   -6.2140   24.9310 C   0  0  0  0  0  3  0  0  0  0  0  0
  -21.3600   -4.8390   24.9030 C   0  0  0  0  0  0  0  0  0  0  0  0
  -21.8260   -4.2410   23.7190 C   0  0  0  0  0  3  0  0  0  0  0  0
  -21.9960   -5.0200   22.5610 C   0  0  0  0  0  0  0  0  0  0  0  0
  -22.4220   -4.4360   21.4170 F   0  0  0  0  0  0  0  0  0  0  0  0
  -21.1960   -4.0870   26.0160 F   0  0  0  0  0  0  0  0  0  0  0  0
  -23.0420  -13.7130   20.9400 C   0  0  0  0  0  0  0  0  0  0  0  0
  -22.2720  -13.0590   21.8040 N   0  0  0  0  0  0  0  0  0  0  0  0
  -22.6380  -14.7260   20.3720 O   0  0  0  0  0  0  0  0  0  0  0  0
  -22.6060  -12.2430   22.2990 H   0  0  0  0  0  0  0  0  0  0  0  0
  -21.3300  -13.3820   21.9750 H   0  0  0  0  0  0  0  0  0  0  0  0
  -25.7420  -15.3040   20.1840 N   0  0  0  0  0  0  0  0  0  0  0  0
  -25.0020  -15.9900   20.2860 H   0  0  0  0  0  0  0  0  0  0  0  0
  -26.6490  -15.7230   20.0140 H   0  0  0  0  0  0  0  0  0  0  0  0
  -31.6240  -23.1430   21.3410 C   0  0  0  0  0  1  0  0  0  0  0  0
  -30.1990  -22.8840   21.6730 N   0  0  2  0  0  4  0  0  0  0  0  0
  -29.6810  -22.8290   20.8090 H   0  0  0  0  0  0  0  0  0  0  0  0
  -29.5630  -23.9620   22.4850 C   0  0  0  0  0  2  0  0  0  0  0  0
  -29.4820  -25.3540   21.8100 C   0  0  0  0  0  3  0  0  0  0  0  0
  -29.2470  -26.2440   22.7790 F   0  0  0  0  0  0  0  0  0  0  0  0
  -28.3540  -25.4980   20.7690 C   0  0  0  0  0  2  0  0  0  0  0  0
  -28.4520  -26.7870   20.1550 O   0  0  0  0  0  0  0  0  0  0  0  0
  -24.6060  -31.8880   23.2340 C   0  0  0  0  0  0  0  0  0  0  0  0
  -27.2810  -27.5020   20.1390 C   0  0  0  0  0  0  0  0  0  0  0  0
  -23.4080  -30.4880   21.5810 C   0  0  0  0  0  3  0  0  0  0  0  0
  -24.8760  -28.9710   20.1470 C   0  0  0  0  0  0  0  0  0  0  0  0
  -25.9310  -30.8710   21.3890 C   0  0  0  0  0  2  0  0  0  0  0  0
  -26.0250  -29.5080   20.7380 C   0  0  0  0  0  0  0  0  0  0  0  0
  -27.2330  -28.7790   20.7290 C   0  0  0  0  0  3  0  0  0  0  0  0
  -26.1190  -26.9690   19.5390 C   0  0  0  0  0  3  0  0  0  0  0  0
  -24.9150  -27.7010   19.5420 C   0  0  0  0  0  3  0  0  0  0  0  0
  -23.6240  -29.8160   20.1990 C   0  0  0  0  0  2  0  0  0  0  0  0
  -24.6660  -31.0950   22.1260 N   0  0  0  0  0  0  0  0  0  0  0  0
  -23.5230  -32.1510   23.7750 O   0  0  0  0  0  0  0  0  0  0  0  0
  -22.7640  -29.4570   22.5350 C   0  0  0  0  0  0  0  0  0  0  0  0
  -21.4400  -29.2750   22.4100 N   0  0  0  0  0  0  0  0  0  0  0  0
  -23.4520  -28.8240   23.3400 O   0  0  0  0  0  0  0  0  0  0  0  0
  -20.9480  -29.8330   21.7290 H   0  0  0  0  0  0  0  0  0  0  0  0
  -18.0640  -28.0970   22.9220 C   0  0  0  0  0  0  0  0  0  0  0  0
  -20.6250  -28.3310   23.1750 C   0  0  0  0  0  3  0  0  0  0  0  0
  -20.7140  -26.9090   22.5730 C   0  0  0  0  0  2  0  0  0  0  0  0
  -19.5990  -26.6120   21.5660 C   0  0  0  0  0  2  0  0  0  0  0  0
  -18.2230  -26.7580   22.2240 C   0  0  0  0  0  2  0  0  0  0  0  0
  -19.1920  -28.8440   23.3540 C   0  0  0  0  0  0  0  0  0  0  0  0
  -18.9870  -30.1010   23.9650 C   0  0  0  0  0  3  0  0  0  0  0  0
  -17.6880  -30.6080   24.1490 C   0  0  0  0  0  3  0  0  0  0  0  0
  -16.5740  -29.8580   23.7330 C   0  0  0  0  0  3  0  0  0  0  0  0
  -16.7640  -28.6050   23.1250 C   0  0  0  0  0  3  0  0  0  0  0  0
  -25.8890  -32.5190   23.8590 C   0  0  0  0  0  3  0  0  0  0  0  0
  -25.5780  -33.9160   24.1840 N   0  0  0  0  0  0  0  0  0  0  0  0
  -25.9190  -34.9670   23.4250 C   0  0  0  0  0  0  0  0  0  0  0  0
  -26.5980  -34.8610   22.4010 O   0  0  0  0  0  0  0  0  0  0  0  0
  -24.9770  -34.0750   24.9790 H   0  0  0  0  0  0  0  0  0  0  0  0
  -24.1960  -36.7600   23.0440 C   0  0  0  0  0  1  0  0  0  0  0  0
  -25.4260  -36.3570   23.8740 C   0  0  0  0  0  3  0  0  0  0  0  0
  -27.5500  -37.2390   24.7350 C   0  0  0  0  0  1  0  0  0  0  0  0
  -26.4610  -37.4080   23.7760 N   0  0  0  0  0  0  0  0  0  0  0  0
  -26.0560  -38.3290   23.9160 H   0  0  0  0  0  0  0  0  0  0  0  0
  -26.4050  -31.7460   25.1350 C   0  0  1  0  0  0  0  0  0  0  0  0
  -25.3100  -31.5040   26.1970 C   0  0  0  0  0  1  0  0  0  0  0  0
  -26.9940  -30.3700   24.7440 C   0  0  0  0  0  1  0  0  0  0  0  0
  -27.5480  -32.5440   25.8070 C   0  0  0  0  0  1  0  0  0  0  0  0
  2  3  2  0
  2  5  1  0
  3  7  1  0
  4  6  1  0
  5  4  2  0
  6  1  1  0
  7  8  1  0
  7  6  2  0
  9 10  1  0
  9  5  1  0
  9 11  1  0
 11 12  1  0
 13 11  1  0
 14 19  1  0
 15 16  1  0
 15 14  1  0
 17 16  1  0
 17 24  1  0
 17 18  1  0
 19 13  1  0
 19 18  1  0
 20 13  2  0
 21 22  2  0
 22 23  1  0
 22 41  1  0
 23 26  1  0
 24 21  1  0
 24 25  1  0
 25 23  2  0
 26 27  1  0
 27 28  2  0
 29 32  1  0
 29 28  1  0
 30 29  2  0
 31 30  1  0
 31 26  2  0
 32 33  1  0
 33 34  1  0
 34 35  2  0
 36 35  1  0
 36 40  1  0
 37 36  2  0
 38 33  2  0
 38 37  1  0
 39 38  1  0
 41 42  1  0
 42 45  1  0
 42 44  1  0
 43 41  2  0
 46 47  1  0
 46 21  1  0
 48 46  1  0
 49 50  1  0
 50  1  1  0
 50 52  1  0
 50 51  1  6
 53 52  1  0
 53 54  1  0
 55 53  1  0
 56 55  1  0
 57 68  2  0
 58 56  1  0
 58 63  1  0
 59 67  1  0
 59 69  1  0
 60 66  1  0
 60 62  1  0
 61 67  1  0
 62 61  1  0
 63 62  2  0
 64 65  1  0
 64 58  2  0
 65 60  2  0
 66 59  1  0
 67 57  1  0
 69 71  2  0
 70 69  1  0
 72 70  1  0
 73 82  2  0
 73 78  1  0
 74 70  1  0
 74 78  1  0
 75 74  1  0
 76 77  1  0
 76 75  1  0
 77 73  1  0
 78 79  2  0
 79 80  1  0
 81 80  2  0
 82 81  1  0
 83 57  1  0
 83 84  1  0
 83 93  1  0
 84 87  1  0
 85 89  1  0
 85 84  1  0
 86 85  2  0
 89 88  1  0
 91 89  1  0
 91 92  1  0
 91 90  1  0
 93 96  1  1
 93 94  1  0
 95 93  1  0
M  ISO  4  11 100  13 100  55 101  56 101
M  END
>  <TORSDO>  (13) 
F 23

>  <SCORE>  (13) 
-13.016

>  <name>  (13) 
12

>  <ligand_id>  (13) 
12

>  <original_smiles>  (13) 
[H]c1c([H])c([H])c2c(c1[H])C([H])([H])C([H])([H])C([H])([H])C2([H])N([H])C(=O)C1([H])N(C(=O)C([H])(N([H])C(=O)C([H])(N([H])C([H])([H])[H])C([H])([H])[H])C(C([H])([H])[H])(C([H])([H])[H])C([H])([H])[H])C([H])([H])c2c([H])c(OC([H])([H])C([H])(F)C([H])([H])[N+]([H])(C([H])([H])[H])C([H])([H])c3c([H])c(C([H])(F)C([H])(F)C(=O)N4C([H])([H])C([H])([H])C([H])([H])C([H])(n5nc(-c6c([H])c([H])c(Oc7c([H])c([H])c(F)c([H])c7F)c([H])c6[H])c(C(=O)N([H])[H])c5N([H])[H])C4([H])[H])c([H])c([H])c3F)c([H])c([H])c2C1([H])[H]

>  <smiles>  (13) 
[H]c1c([H])c([H])c2c(c1[H])C([H])([H])C([H])([H])C([H])([H])C2([H])N([H])C(=O)C1([H])N(C(=O)C([H])(N([H])C(=O)C([H])(N([H])C([H])([H])[H])C([H])([H])[H])C(C([H])([H])[H])(C([H])([H])[H])C([H])([H])[H])C([H])([H])c2c([H])c(OC([H])([H])C([H])(F)C([H])([H])[N+]([H])(C([H])([H])[H])C([H])([H])c3c([H])c(C([H])(F)C([H])(F)C(=O)N4C([H])([H])C([H])([H])C([H])([H])C([H])(n5nc(-c6c([H])c([H])c(Oc7c([H])c([H])c(F)c([H])c7F)c([H])c6[H])c(C(=O)N([H])[H])c5N([H])[H])C4([H])[H])c([H])c([H])c3F)c([H])c([H])c2C1([H])[H]

$$$$
13:0:0
     RDKit          3D

 96104  0  0  1  0  0  0  0  0999 V2000
  -31.7380  -20.4500   22.5380 C   0  0  0  0  0  2  0  0  0  0  0  0
  -30.7100  -22.5210   21.5850 C   0  0  0  0  0  0  0  0  0  0  0  0
  -30.6750  -21.4440   22.3820 N   0  0  0  0  0  0  0  0  0  0  0  0
  -31.6990  -22.8230   20.9150 O   0  0  0  0  0  0  0  0  0  0  0  0
  -29.8340  -21.2970   22.9260 H   0  0  0  0  0  0  0  0  0  0  0  0
  -29.4260  -23.3540   21.5210 C   0  0  0  0  0  2  0  0  0  0  0  0
  -29.5960  -24.7550   20.8920 C   0  0  0  0  0  2  0  0  0  0  0  0
  -28.2380  -25.4170   20.6250 C   0  0  0  0  0  2  0  0  0  0  0  0
  -28.3970  -26.7770   20.2190 O   0  0  0  0  0  0  0  0  0  0  0  0
  -24.5740  -31.9340   23.2470 C   0  0  0  0  0  0  0  0  0  0  0  0
  -27.2250  -27.4990   20.1900 C   0  0  0  0  0  0  0  0  0  0  0  0
  -23.3690  -30.5250   21.6100 C   0  0  0  0  0  3  0  0  0  0  0  0
  -24.8250  -28.9860   20.1930 C   0  0  0  0  0  0  0  0  0  0  0  0
  -25.8910  -30.8930   21.4090 C   0  0  0  0  0  2  0  0  0  0  0  0
  -25.9810  -29.5210   20.7760 C   0  0  0  0  0  0  0  0  0  0  0  0
  -27.1860  -28.7850   20.7670 C   0  0  0  0  0  3  0  0  0  0  0  0
  -26.0530  -26.9750   19.6000 C   0  0  0  0  0  3  0  0  0  0  0  0
  -24.8550  -27.7110   19.6030 C   0  0  0  0  0  3  0  0  0  0  0  0
  -23.5790  -29.8390   20.2340 C   0  0  0  0  0  2  0  0  0  0  0  0
  -24.6290  -31.1310   22.1480 N   0  0  0  0  0  0  0  0  0  0  0  0
  -23.4920  -32.2070   23.7860 O   0  0  0  0  0  0  0  0  0  0  0  0
  -22.7210  -29.5040   22.5740 C   0  0  0  0  0  0  0  0  0  0  0  0
  -21.4000  -29.3090   22.4370 N   0  0  0  0  0  0  0  0  0  0  0  0
  -23.4040  -28.8910   23.3980 O   0  0  0  0  0  0  0  0  0  0  0  0
  -20.9100  -29.8580   21.7440 H   0  0  0  0  0  0  0  0  0  0  0  0
  -18.0310  -28.0910   22.9070 C   0  0  0  0  0  0  0  0  0  0  0  0
  -20.5820  -28.3710   23.2070 C   0  0  0  0  0  3  0  0  0  0  0  0
  -20.7020  -26.9360   22.6460 C   0  0  0  0  0  2  0  0  0  0  0  0
  -19.6150  -26.5940   21.6220 C   0  0  0  0  0  2  0  0  0  0  0  0
  -18.2250  -26.7360   22.2490 C   0  0  0  0  0  2  0  0  0  0  0  0
  -19.1380  -28.8660   23.3430 C   0  0  0  0  0  0  0  0  0  0  0  0
  -18.9040  -30.1350   23.9160 C   0  0  0  0  0  3  0  0  0  0  0  0
  -17.5930  -30.6280   24.0610 C   0  0  0  0  0  3  0  0  0  0  0  0
  -16.4990  -29.8490   23.6430 C   0  0  0  0  0  3  0  0  0  0  0  0
  -16.7200  -28.5830   23.0720 C   0  0  0  0  0  3  0  0  0  0  0  0
  -25.8590  -32.5680   23.8640 C   0  0  0  0  0  3  0  0  0  0  0  0
  -25.5520  -33.9670   24.1860 N   0  0  0  0  0  0  0  0  0  0  0  0
  -25.8940  -35.0150   23.4240 C   0  0  0  0  0  0  0  0  0  0  0  0
  -26.5750  -34.9050   22.4000 O   0  0  0  0  0  0  0  0  0  0  0  0
  -24.9450  -34.1250   24.9780 H   0  0  0  0  0  0  0  0  0  0  0  0
  -24.1820  -36.8150   23.0300 C   0  0  0  0  0  1  0  0  0  0  0  0
  -25.4040  -36.4060   23.8690 C   0  0  0  0  0  3  0  0  0  0  0  0
  -27.5250  -37.2810   24.7430 C   0  0  0  0  0  1  0  0  0  0  0  0
  -26.4440  -37.4550   23.7770 N   0  0  0  0  0  0  0  0  0  0  0  0
  -26.0390  -38.3770   23.9160 H   0  0  0  0  0  0  0  0  0  0  0  0
  -26.3790  -31.8010   25.1420 C   0  0  1  0  0  0  0  0  0  0  0  0
  -25.2880  -31.5630   26.2120 C   0  0  0  0  0  1  0  0  0  0  0  0
  -26.9670  -30.4240   24.7520 C   0  0  0  0  0  1  0  0  0  0  0  0
  -27.5300  -32.5980   25.8000 C   0  0  0  0  0  1  0  0  0  0  0  0
  -31.6500  -19.3370   21.4720 C   0  0  0  0  0  2  0  0  0  0  0  0
  -30.6720  -14.5470   20.2090 C   0  0  0  0  0  0  0  0  0  0  0  0
  -30.2410  -12.5060   18.8960 C   0  0  0  0  0  2  0  0  0  0  0  0
  -29.2300  -12.8040   17.7720 C   0  0  0  0  0  2  0  0  0  0  0  0
  -27.7850  -12.6320   18.2800 C   0  0  0  0  0  2  0  0  0  0  0  0
  -27.5290  -13.3800   19.6150 C   0  0  0  0  0  3  0  0  0  0  0  0
  -28.6510  -13.0930   20.6400 C   0  0  0  0  0  2  0  0  0  0  0  0
  -29.9460  -13.4130   20.0140 N   0  0  0  0  0  0  0  0  0  0  0  0
  -31.7420  -14.7730   19.6360 O   0  0  0  0  0  0  0  0  0  0  0  0
  -30.4460  -17.3780   22.6500 C   0  0  0  0  0  2  0  0  0  0  0  0
  -30.8890  -15.9870   22.1500 C   0  0  0  0  0  2  0  0  0  0  0  0
  -29.2780  -16.5000   20.3170 C   0  0  0  0  0  2  0  0  0  0  0  0
  -30.3720  -18.4600   21.5440 C   0  0  0  0  0  3  0  0  0  0  0  0
  -30.0270  -17.8430   20.1620 C   0  0  0  0  0  3  0  0  0  0  0  0
  -30.1130  -15.4920   20.9960 N   0  0  0  0  0  0  0  0  0  0  0  0
  -25.1640  -13.9380   20.4620 C   0  0  0  0  0  0  0  0  0  0  0  0
  -24.1270  -13.1410   20.8660 C   0  0  0  0  0  0  0  0  0  0  0  0
  -24.6060  -11.7990   20.7820 C   0  0  0  0  0  0  0  0  0  0  0  0
  -26.2080  -13.0780   20.1590 N   0  0  0  0  0  0  0  0  0  0  0  0
  -25.8780  -11.7850   20.4070 N   0  0  0  0  0  0  0  0  0  0  0  0
  -23.9100  -10.5210   20.9790 C   0  0  0  0  0  0  0  0  0  0  0  0
  -24.3830   -9.5600   21.9010 C   0  0  0  0  0  3  0  0  0  0  0  0
  -23.6880   -8.3460   22.0870 C   0  0  0  0  0  3  0  0  0  0  0  0
  -22.5070   -8.0840   21.3530 C   0  0  0  0  0  0  0  0  0  0  0  0
  -22.0530   -9.0350   20.4220 C   0  0  0  0  0  3  0  0  0  0  0  0
  -22.7480  -10.2400   20.2340 C   0  0  0  0  0  3  0  0  0  0  0  0
  -21.7810   -6.9220   21.4500 O   0  0  0  0  0  0  0  0  0  0  0  0
  -21.7390   -6.1930   22.6110 C   0  0  0  0  0  0  0  0  0  0  0  0
  -21.2930   -6.7530   23.8280 C   0  0  0  0  0  3  0  0  0  0  0  0
  -21.2030   -5.9480   24.9810 C   0  0  0  0  0  3  0  0  0  0  0  0
  -21.5480   -4.5850   24.9190 C   0  0  0  0  0  0  0  0  0  0  0  0
  -21.9870   -4.0250   23.7060 C   0  0  0  0  0  3  0  0  0  0  0  0
  -22.0800   -4.8270   22.5550 C   0  0  0  0  0  0  0  0  0  0  0  0
  -22.4840   -4.2770   21.3840 F   0  0  0  0  0  0  0  0  0  0  0  0
  -21.4530   -3.8090   26.0240 F   0  0  0  0  0  0  0  0  0  0  0  0
  -22.7390  -13.5900   21.2190 C   0  0  0  0  0  0  0  0  0  0  0  0
  -22.0650  -12.8630   22.1050 N   0  0  0  0  0  0  0  0  0  0  0  0
  -22.2590  -14.6200   20.7470 O   0  0  0  0  0  0  0  0  0  0  0  0
  -22.4660  -12.0290   22.5100 H   0  0  0  0  0  0  0  0  0  0  0  0
  -21.1360  -13.1450   22.3810 H   0  0  0  0  0  0  0  0  0  0  0  0
  -25.3010  -15.3150   20.3050 N   0  0  0  0  0  0  0  0  0  0  0  0
  -24.5340  -15.9600   20.4640 H   0  0  0  0  0  0  0  0  0  0  0  0
  -26.1290  -15.7670   19.9410 H   0  0  0  0  0  0  0  0  0  0  0  0
  -29.2570  -18.7960   19.3380 N   0  0  0  0  0  4  0  0  0  0  0  0
  -28.3940  -19.0560   19.7830 H   0  0  0  0  0  0  0  0  0  0  0  0
  -29.0410  -18.3950   18.4410 H   0  0  0  0  0  0  0  0  0  0  0  0
  -29.7920  -19.6300   19.1700 H   0  0  0  0  0  0  0  0  0  0  0  0
  2  3  1  0
  3  1  1  0
  3  5  1  0
  4  2  2  0
  6  2  1  0
  7  6  1  0
  8  7  1  0
  9  8  1  0
 10 21  2  0
 11  9  1  0
 11 16  1  0
 12 20  1  0
 12 22  1  0
 13 19  1  0
 13 15  1  0
 14 20  1  0
 15 14  1  0
 16 15  2  0
 17 18  1  0
 17 11  2  0
 18 13  2  0
 19 12  1  0
 20 10  1  0
 22 24  2  0
 23 22  1  0
 25 23  1  0
 26 35  2  0
 26 31  1  0
 27 23  1  0
 27 31  1  0
 28 27  1  0
 29 30  1  0
 29 28  1  0
 30 26  1  0
 31 32  2  0
 32 33  1  0
 34 33  2  0
 35 34  1  0
 36 10  1  0
 36 37  1  0
 36 46  1  0
 37 40  1  0
 38 42  1  0
 38 37  1  0
 39 38  2  0
 42 41  1  0
 44 42  1  0
 44 45  1  0
 44 43  1  0
 46 49  1  1
 46 47  1  0
 48 46  1  0
 50  1  1  0
 51 64  1  0
 52 57  1  0
 53 54  1  0
 53 52  1  0
 55 54  1  0
 55 68  1  0
 55 56  1  0
 57 51  1  0
 57 56  1  0
 58 51  2  0
 60 59  1  0
 61 64  1  0
 62 50  1  0
 62 59  1  0
 63 93  1  0
 63 61  1  0
 63 62  1  0
 64 60  1  0
 65 66  2  0
 66 85  1  0
 67 66  1  0
 67 70  1  0
 68 69  1  0
 68 65  1  0
 69 67  2  0
 70 71  1  0
 71 72  2  0
 73 76  1  0
 73 72  1  0
 74 73  2  0
 75 74  1  0
 75 70  2  0
 76 77  1  0
 77 78  1  0
 78 79  2  0
 80 79  1  0
 80 84  1  0
 81 80  2  0
 82 77  2  0
 82 81  1  0
 83 82  1  0
 85 86  1  0
 86 89  1  0
 86 88  1  0
 87 85  2  0
 90 65  1  0
 90 91  1  0
 92 90  1  0
 93 94  1  0
 95 93  1  0
 96 93  1  0
M  ISO  4   8 101   9 101  51 100  64 100
M  END
>  <TORSDO>  (14) 
F 22

>  <SCORE>  (14) 
-13.300

>  <name>  (14) 
13

>  <ligand_id>  (14) 
13

>  <original_smiles>  (14) 
[H]c1c([H])c([H])c2c(c1[H])C([H])([H])C([H])([H])C([H])([H])C2([H])N([H])C(=O)C1([H])N(C(=O)C([H])(N([H])C(=O)C([H])(N([H])C([H])([H])[H])C([H])([H])[H])C(C([H])([H])[H])(C([H])([H])[H])C([H])([H])[H])C([H])([H])c2c([H])c(OC([H])([H])C([H])([H])C([H])([H])C(=O)N([H])C([H])([H])C([H])([H])C3([H])C([H])([H])C([H])([H])N(C(=O)N4C([H])([H])C([H])([H])C([H])([H])C([H])(n5nc(-c6c([H])c([H])c(Oc7c([H])c([H])c(F)c([H])c7F)c([H])c6[H])c(C(=O)N([H])[H])c5N([H])[H])C4([H])[H])C([H])([H])C3([H])[N+]([H])([H])[H])c([H])c([H])c2C1([H])[H]

>  <smiles>  (14) 
[H]c1c([H])c([H])c2c(c1[H])C([H])([H])C([H])([H])C([H])([H])C2([H])N([H])C(=O)C1([H])N(C(=O)C([H])(N([H])C(=O)C([H])(N([H])C([H])([H])[H])C([H])([H])[H])C(C([H])([H])[H])(C([H])([H])[H])C([H])([H])[H])C([H])([H])c2c([H])c(OC([H])([H])C([H])([H])C([H])([H])C(=O)N([H])C([H])([H])C([H])([H])C3([H])C([H])([H])C([H])([H])N(C(=O)N4C([H])([H])C([H])([H])C([H])([H])C([H])(n5nc(-c6c([H])c([H])c(Oc7c([H])c([H])c(F)c([H])c7F)c([H])c6[H])c(C(=O)N([H])[H])c5N([H])[H])C4([H])[H])C([H])([H])C3([H])[N+]([H])([H])[H])c([H])c([H])c2C1([H])[H]

$$$$
14:0:0
     RDKit          3D

 97105  0  0  1  0  0  0  0  0999 V2000
  -29.8330  -22.1880   19.2020 N   0  0  0  0  0  4  0  0  0  0  0  0
  -28.9590  -22.6250   18.9590 H   0  0  0  0  0  0  0  0  0  0  0  0
  -29.8250  -22.0900   20.2030 H   0  0  0  0  0  0  0  0  0  0  0  0
  -29.3510  -20.7640   17.2100 C   0  0  0  0  0  1  0  0  0  0  0  0
  -29.8900  -20.8200   18.6530 C   0  0  0  0  0  3  0  0  0  0  0  0
  -30.7970  -14.4370   20.2130 C   0  0  0  0  0  0  0  0  0  0  0  0
  -30.3100  -12.3230   19.0810 C   0  0  0  0  0  2  0  0  0  0  0  0
  -29.3550  -12.5210   17.8930 C   0  0  0  0  0  2  0  0  0  0  0  0
  -27.8870  -12.4140   18.3570 C   0  0  0  0  0  2  0  0  0  0  0  0
  -27.5870  -13.2460   19.6360 C   0  0  0  0  0  3  0  0  0  0  0  0
  -28.6840  -13.0660   20.7070 C   0  0  0  0  0  2  0  0  0  0  0  0
  -29.9660  -13.3660   20.0620 N   0  0  0  0  0  0  0  0  0  0  0  0
  -32.0080  -14.2840   20.0560 O   0  0  0  0  0  0  0  0  0  0  0  0
  -29.1480  -19.8620   19.6070 C   0  0  0  0  0  0  0  0  0  0  0  0
  -30.8270  -18.0590   19.1640 C   0  0  0  0  0  2  0  0  0  0  0  0
  -29.0800  -17.7440   20.8830 C   0  0  0  0  0  2  0  0  0  0  0  0
  -31.3530  -16.7670   19.8080 C   0  0  0  0  0  2  0  0  0  0  0  0
  -29.0010  -16.2800   20.3970 C   0  0  0  0  0  2  0  0  0  0  0  0
  -29.6550  -18.6260   19.8560 N   0  0  0  0  0  0  0  0  0  0  0  0
  -30.3330  -15.7210   20.0910 N   0  0  0  0  0  0  0  0  0  0  0  0
  -28.1170  -20.2750   20.1500 O   0  0  0  0  0  0  0  0  0  0  0  0
  -25.2230  -13.8500   20.4330 C   0  0  0  0  0  0  0  0  0  0  0  0
  -24.1660  -13.0770   20.8280 C   0  0  0  0  0  0  0  0  0  0  0  0
  -24.6290  -11.7260   20.7870 C   0  0  0  0  0  0  0  0  0  0  0  0
  -26.2580  -12.9700   20.1650 N   0  0  0  0  0  0  0  0  0  0  0  0
  -25.9120  -11.6860   20.4430 N   0  0  0  0  0  0  0  0  0  0  0  0
  -23.9100  -10.4640   20.9950 C   0  0  0  0  0  0  0  0  0  0  0  0
  -24.3730   -9.4960   21.9150 C   0  0  0  0  0  3  0  0  0  0  0  0
  -23.6550   -8.2970   22.1130 C   0  0  0  0  0  3  0  0  0  0  0  0
  -22.4610   -8.0590   21.3890 C   0  0  0  0  0  0  0  0  0  0  0  0
  -22.0220   -9.0130   20.4540 C   0  0  0  0  0  3  0  0  0  0  0  0
  -22.7400  -10.2050   20.2560 C   0  0  0  0  0  3  0  0  0  0  0  0
  -21.7100   -6.9140   21.4960 O   0  0  0  0  0  0  0  0  0  0  0  0
  -21.6960   -6.1660   22.6440 C   0  0  0  0  0  0  0  0  0  0  0  0
  -21.2970   -6.7090   23.8860 C   0  0  0  0  0  3  0  0  0  0  0  0
  -21.2280   -5.8830   25.0250 C   0  0  0  0  0  3  0  0  0  0  0  0
  -21.5500   -4.5180   24.9250 C   0  0  0  0  0  0  0  0  0  0  0  0
  -21.9420   -3.9740   23.6890 C   0  0  0  0  0  3  0  0  0  0  0  0
  -22.0120   -4.7950   22.5510 C   0  0  0  0  0  0  0  0  0  0  0  0
  -22.3680   -4.2600   21.3590 F   0  0  0  0  0  0  0  0  0  0  0  0
  -21.4780   -3.7240   26.0200 F   0  0  0  0  0  0  0  0  0  0  0  0
  -22.7750  -13.5540   21.1340 C   0  0  0  0  0  0  0  0  0  0  0  0
  -22.0690  -12.8620   22.0170 N   0  0  0  0  0  0  0  0  0  0  0  0
  -22.3210  -14.5750   20.6170 O   0  0  0  0  0  0  0  0  0  0  0  0
  -22.4620  -12.0460   22.4660 H   0  0  0  0  0  0  0  0  0  0  0  0
  -21.1310  -13.1540   22.2550 H   0  0  0  0  0  0  0  0  0  0  0  0
  -25.3760  -15.2250   20.2580 N   0  0  0  0  0  0  0  0  0  0  0  0
  -24.5990  -15.8620   20.3880 H   0  0  0  0  0  0  0  0  0  0  0  0
  -26.2030  -15.6870   19.9090 H   0  0  0  0  0  0  0  0  0  0  0  0
  -30.9870  -23.0520   18.8650 C   0  0  0  0  0  2  0  0  0  0  0  0
  -31.3280  -23.9460   20.0610 C   0  0  0  0  0  2  0  0  0  0  0  0
  -29.7470  -25.2600   21.4670 C   0  0  0  0  0  0  0  0  0  0  0  0
  -30.2640  -24.9090   20.2880 N   0  0  0  0  0  0  0  0  0  0  0  0
  -29.9990  -24.6600   22.5150 O   0  0  0  0  0  0  0  0  0  0  0  0
  -29.9270  -25.4380   19.4920 H   0  0  0  0  0  0  0  0  0  0  0  0
  -28.8320  -26.4780   21.4570 C   0  0  0  0  0  2  0  0  0  0  0  0
  -28.3290  -26.6910   20.1310 O   0  0  0  0  0  0  0  0  0  0  0  0
  -24.5750  -31.8610   23.2230 C   0  0  0  0  0  0  0  0  0  0  0  0
  -27.2030  -27.4660   20.1090 C   0  0  0  0  0  0  0  0  0  0  0  0
  -23.3600  -30.4710   21.5760 C   0  0  0  0  0  3  0  0  0  0  0  0
  -24.8080  -28.9440   20.1260 C   0  0  0  0  0  0  0  0  0  0  0  0
  -25.8790  -30.8370   21.3630 C   0  0  0  0  0  2  0  0  0  0  0  0
  -25.9630  -29.4740   20.7160 C   0  0  0  0  0  0  0  0  0  0  0  0
  -27.1660  -28.7440   20.7040 C   0  0  0  0  0  3  0  0  0  0  0  0
  -26.0470  -26.9490   19.4930 C   0  0  0  0  0  3  0  0  0  0  0  0
  -24.8430  -27.6780   19.5040 C   0  0  0  0  0  3  0  0  0  0  0  0
  -23.5570  -29.7900   20.1930 C   0  0  0  0  0  2  0  0  0  0  0  0
  -24.6240  -31.0680   22.1150 N   0  0  0  0  0  0  0  0  0  0  0  0
  -23.4950  -32.1350   23.7680 O   0  0  0  0  0  0  0  0  0  0  0  0
  -22.7060  -29.4500   22.5340 C   0  0  0  0  0  0  0  0  0  0  0  0
  -21.3830  -29.2740   22.4080 N   0  0  0  0  0  0  0  0  0  0  0  0
  -23.3910  -28.8150   23.3430 O   0  0  0  0  0  0  0  0  0  0  0  0
  -20.8970  -29.8490   21.7300 H   0  0  0  0  0  0  0  0  0  0  0  0
  -18.0070  -28.0810   22.8770 C   0  0  0  0  0  0  0  0  0  0  0  0
  -20.5600  -28.3280   23.1640 C   0  0  0  0  0  3  0  0  0  0  0  0
  -20.6610  -26.9020   22.5780 C   0  0  0  0  0  2  0  0  0  0  0  0
  -19.5620  -26.5870   21.5580 C   0  0  0  0  0  2  0  0  0  0  0  0
  -18.1800  -26.7350   22.1990 C   0  0  0  0  0  2  0  0  0  0  0  0
  -19.1240  -28.8400   23.3140 C   0  0  0  0  0  0  0  0  0  0  0  0
  -18.9060  -30.1000   23.9150 C   0  0  0  0  0  3  0  0  0  0  0  0
  -17.6010  -30.6060   24.0760 C   0  0  0  0  0  3  0  0  0  0  0  0
  -16.4990  -29.8440   23.6510 C   0  0  0  0  0  3  0  0  0  0  0  0
  -16.7010  -28.5840   23.0600 C   0  0  0  0  0  3  0  0  0  0  0  0
  -25.8670  -32.4790   23.8450 C   0  0  0  0  0  3  0  0  0  0  0  0
  -25.5690  -33.8790   24.1750 N   0  0  0  0  0  0  0  0  0  0  0  0
  -25.9160  -34.9280   23.4190 C   0  0  0  0  0  0  0  0  0  0  0  0
  -26.5910  -34.8220   22.3910 O   0  0  0  0  0  0  0  0  0  0  0  0
  -24.9740  -34.0360   24.9730 H   0  0  0  0  0  0  0  0  0  0  0  0
  -24.2160  -36.7430   23.0410 C   0  0  0  0  0  1  0  0  0  0  0  0
  -25.4400  -36.3190   23.8710 C   0  0  0  0  0  3  0  0  0  0  0  0
  -27.5730  -37.1820   24.7310 C   0  0  0  0  0  1  0  0  0  0  0  0
  -26.4860  -37.3600   23.7710 N   0  0  0  0  0  0  0  0  0  0  0  0
  -26.0900  -38.2880   23.8990 H   0  0  0  0  0  0  0  0  0  0  0  0
  -26.3790  -31.7030   25.1230 C   0  0  1  0  0  0  0  0  0  0  0  0
  -25.2870  -31.4740   26.1910 C   0  0  0  0  0  1  0  0  0  0  0  0
  -26.9450  -30.3190   24.7240 C   0  0  0  0  0  1  0  0  0  0  0  0
  -27.5350  -32.4920   25.7870 C   0  0  0  0  0  1  0  0  0  0  0  0
  1  3  1  0
  2  1  1  0
  5  4  1  0
  5  1  1  0
  5 14  1  0
  7 12  1  0
  8  9  1  0
  8  7  1  0
 10  9  1  0
 10 25  1  0
 10 11  1  0
 12  6  1  0
 12 11  1  0
 13  6  2  0
 14 19  1  0
 14 21  2  0
 15 17  1  0
 15 19  1  0
 17 20  1  0
 18 16  1  0
 19 16  1  0
 20  6  1  0
 20 18  1  0
 22 23  2  0
 23 42  1  0
 24 23  1  0
 24 27  1  0
 25 22  1  0
 25 26  1  0
 26 24  2  0
 27 28  1  0
 28 29  2  0
 30 33  1  0
 30 29  1  0
 31 30  2  0
 32 31  1  0
 32 27  2  0
 33 34  1  0
 34 35  1  0
 35 36  2  0
 37 36  1  0
 37 41  1  0
 38 37  2  0
 39 34  2  0
 39 38  1  0
 40 39  1  0
 42 43  1  0
 43 46  1  0
 43 45  1  0
 44 42  2  0
 47 48  1  0
 47 22  1  0
 49 47  1  0
 50  1  1  0
 50 51  1  0
 51 53  1  0
 52 54  2  0
 53 52  1  0
 55 53  1  0
 56 52  1  0
 57 56  1  0
 58 69  2  0
 59 57  1  0
 59 64  1  0
 60 68  1  0
 60 70  1  0
 61 67  1  0
 61 63  1  0
 62 68  1  0
 63 62  1  0
 64 63  2  0
 65 66  1  0
 65 59  2  0
 66 61  2  0
 67 60  1  0
 68 58  1  0
 70 72  2  0
 71 70  1  0
 73 71  1  0
 74 83  2  0
 74 79  1  0
 75 71  1  0
 75 79  1  0
 76 75  1  0
 77 78  1  0
 77 76  1  0
 78 74  1  0
 79 80  2  0
 80 81  1  0
 82 81  2  0
 83 82  1  0
 84 58  1  0
 84 85  1  0
 84 94  1  0
 85 88  1  0
 86 90  1  0
 86 85  1  0
 87 86  2  0
 90 89  1  0
 92 90  1  0
 92 93  1  0
 92 91  1  0
 94 97  1  1
 94 95  1  0
 96 94  1  0
M  ISO  4   6 100  20 100  56 101  57 101
M  END
>  <TORSDO>  (15) 
F 21

>  <SCORE>  (15) 
-13.640

>  <name>  (15) 
14

>  <ligand_id>  (15) 
14

>  <original_smiles>  (15) 
[H]c1c([H])c([H])c2c(c1[H])C([H])([H])C([H])([H])C([H])([H])C2([H])N([H])C(=O)C1([H])N(C(=O)C([H])(N([H])C(=O)C([H])(N([H])C([H])([H])[H])C([H])([H])[H])C(C([H])([H])[H])(C([H])([H])[H])C([H])([H])[H])C([H])([H])c2c([H])c(OC([H])([H])C(=O)N([H])C([H])([H])C([H])([H])[N+]([H])([H])C([H])(C(=O)N3C([H])([H])C([H])([H])N(C(=O)N4C([H])([H])C([H])([H])C([H])([H])C([H])(n5nc(-c6c([H])c([H])c(Oc7c([H])c([H])c(F)c([H])c7F)c([H])c6[H])c(C(=O)N([H])[H])c5N([H])[H])C4([H])[H])C([H])([H])C3([H])[H])C([H])([H])[H])c([H])c([H])c2C1([H])[H]

>  <smiles>  (15) 
[H]c1c([H])c([H])c2c(c1[H])C([H])([H])C([H])([H])C([H])([H])C2([H])N([H])C(=O)C1([H])N(C(=O)C([H])(N([H])C(=O)C([H])(N([H])C([H])([H])[H])C([H])([H])[H])C(C([H])([H])[H])(C([H])([H])[H])C([H])([H])[H])C([H])([H])c2c([H])c(OC([H])([H])C(=O)N([H])C([H])([H])C([H])([H])[N+]([H])([H])C([H])(C(=O)N3C([H])([H])C([H])([H])N(C(=O)N4C([H])([H])C([H])([H])C([H])([H])C([H])(n5nc(-c6c([H])c([H])c(Oc7c([H])c([H])c(F)c([H])c7F)c([H])c6[H])c(C(=O)N([H])[H])c5N([H])[H])C4([H])[H])C([H])([H])C3([H])[H])C([H])([H])[H])c([H])c([H])c2C1([H])[H]

$$$$
15:0:0
     RDKit          3D

 88 96  0  0  1  0  0  0  0  0999 V2000
  -30.3810  -20.9850   20.1060 C   0  0  0  0  0  3  0  0  0  0  0  0
  -29.9550  -22.4060   20.0450 C   0  0  0  0  0  3  0  0  0  0  0  0
  -28.1960  -20.2710   20.1550 C   0  0  0  0  0  3  0  0  0  0  0  0
  -29.5580  -19.7760   20.1580 C   0  0  0  0  0  0  0  0  0  0  0  0
  -28.5900  -22.8980   20.0410 C   0  0  0  0  0  0  0  0  0  0  0  0
  -27.7580  -21.6910   20.0950 C   0  0  0  0  0  0  0  0  0  0  0  0
  -26.4190  -21.8890   20.0560 F   0  0  0  0  0  0  0  0  0  0  0  0
  -30.2490  -18.1820   20.2170 C   0  0  0  0  0  2  0  0  0  0  0  0
  -30.4970  -15.3320   20.1400 C   0  0  0  0  0  0  0  0  0  0  0  0
  -30.4030  -12.9290   19.2070 C   0  0  0  0  0  2  0  0  0  0  0  0
  -29.4590  -12.7780   17.9890 C   0  0  0  0  0  2  0  0  0  0  0  0
  -28.0150  -12.5190   18.4520 C   0  0  0  0  0  2  0  0  0  0  0  0
  -27.5960  -13.4600   19.6100 C   0  0  0  0  0  3  0  0  0  0  0  0
  -28.6660  -13.5650   20.7180 C   0  0  0  0  0  2  0  0  0  0  0  0
  -29.8960  -14.0510   20.0710 N   0  0  0  0  0  0  0  0  0  0  0  0
  -31.7090  -15.3220   19.8920 O   0  0  0  0  0  0  0  0  0  0  0  0
  -29.7780  -16.6090   20.2770 N   0  0  0  0  0  0  0  0  0  0  0  0
  -28.7870  -16.4900   20.4240 H   0  0  0  0  0  0  0  0  0  0  0  0
  -25.2280  -14.0080   20.3840 C   0  0  0  0  0  0  0  0  0  0  0  0
  -24.1750  -13.2250   20.7680 C   0  0  0  0  0  0  0  0  0  0  0  0
  -24.6520  -11.8780   20.7410 C   0  0  0  0  0  0  0  0  0  0  0  0
  -26.2740  -13.1390   20.1350 N   0  0  0  0  0  0  0  0  0  0  0  0
  -25.9410  -11.8520   20.4180 N   0  0  0  0  0  0  0  0  0  0  0  0
  -23.9380  -10.6110   20.9430 C   0  0  0  0  0  0  0  0  0  0  0  0
  -24.3650   -9.6650   21.9000 C   0  0  0  0  0  3  0  0  0  0  0  0
  -23.6470   -8.4640   22.0900 C   0  0  0  0  0  3  0  0  0  0  0  0
  -22.4870   -8.2020   21.3240 C   0  0  0  0  0  0  0  0  0  0  0  0
  -22.0780   -9.1380   20.3570 C   0  0  0  0  0  3  0  0  0  0  0  0
  -22.7970  -10.3280   20.1660 C   0  0  0  0  0  3  0  0  0  0  0  0
  -21.7410   -7.0520   21.4240 O   0  0  0  0  0  0  0  0  0  0  0  0
  -21.6710   -6.3380   22.5930 C   0  0  0  0  0  0  0  0  0  0  0  0
  -21.1700   -6.9060   23.7840 C   0  0  0  0  0  3  0  0  0  0  0  0
  -21.0510   -6.1150   24.9450 C   0  0  0  0  0  3  0  0  0  0  0  0
  -21.4230   -4.7590   24.9150 C   0  0  0  0  0  0  0  0  0  0  0  0
  -21.9170   -4.1900   23.7280 C   0  0  0  0  0  3  0  0  0  0  0  0
  -22.0390   -4.9780   22.5700 C   0  0  0  0  0  0  0  0  0  0  0  0
  -22.4950   -4.4190   21.4230 F   0  0  0  0  0  0  0  0  0  0  0  0
  -21.3020   -3.9970   26.0270 F   0  0  0  0  0  0  0  0  0  0  0  0
  -22.7770  -13.6930   21.0450 C   0  0  0  0  0  0  0  0  0  0  0  0
  -22.0600  -12.9970   21.9190 N   0  0  0  0  0  0  0  0  0  0  0  0
  -22.3290  -14.7130   20.5210 O   0  0  0  0  0  0  0  0  0  0  0  0
  -22.4370  -12.1730   22.3650 H   0  0  0  0  0  0  0  0  0  0  0  0
  -21.1210  -13.2910   22.1480 H   0  0  0  0  0  0  0  0  0  0  0  0
  -25.3740  -15.3790   20.1960 N   0  0  0  0  0  0  0  0  0  0  0  0
  -24.5990  -16.0220   20.3040 H   0  0  0  0  0  0  0  0  0  0  0  0
  -26.2040  -15.8210   19.8200 H   0  0  0  0  0  0  0  0  0  0  0  0
  -27.9200  -24.4800   19.7810 C   0  0  0  0  0  2  0  0  0  0  0  0
  -28.2740  -26.0250   20.1400 O   0  0  0  0  0  0  0  0  0  0  0  0
  -24.6560  -31.8530   23.2300 C   0  0  0  0  0  0  0  0  0  0  0  0
  -27.2710  -27.1180   20.0860 C   0  0  0  0  0  0  0  0  0  0  0  0
  -23.4800  -30.4920   21.5500 C   0  0  0  0  0  3  0  0  0  0  0  0
  -24.9490  -28.9530   20.0880 C   0  0  0  0  0  0  0  0  0  0  0  0
  -26.0430  -30.7430   21.4150 C   0  0  0  0  0  2  0  0  0  0  0  0
  -26.1310  -29.3570   20.7220 C   0  0  0  0  0  0  0  0  0  0  0  0
  -27.2880  -28.4600   20.7020 C   0  0  0  0  0  3  0  0  0  0  0  0
  -26.0590  -26.8650   19.4030 C   0  0  0  0  0  3  0  0  0  0  0  0
  -24.9360  -27.7270   19.4090 C   0  0  0  0  0  3  0  0  0  0  0  0
  -23.7200  -29.8530   20.1550 C   0  0  0  0  0  2  0  0  0  0  0  0
  -24.7470  -31.0540   22.1200 N   0  0  0  0  0  0  0  0  0  0  0  0
  -23.5620  -32.1160   23.7550 O   0  0  0  0  0  0  0  0  0  0  0  0
  -22.7950  -29.4600   22.4820 C   0  0  0  0  0  0  0  0  0  0  0  0
  -21.4660  -29.2910   22.3520 N   0  0  0  0  0  0  0  0  0  0  0  0
  -23.4650  -28.8130   23.2910 O   0  0  0  0  0  0  0  0  0  0  0  0
  -20.9790  -29.8650   21.6780 H   0  0  0  0  0  0  0  0  0  0  0  0
  -18.0860  -28.0710   22.8460 C   0  0  0  0  0  0  0  0  0  0  0  0
  -20.6480  -28.3270   23.0960 C   0  0  0  0  0  3  0  0  0  0  0  0
  -20.7430  -26.9170   22.4690 C   0  0  0  0  0  2  0  0  0  0  0  0
  -19.6320  -26.6320   21.4540 C   0  0  0  0  0  2  0  0  0  0  0  0
  -18.2560  -26.7490   22.1160 C   0  0  0  0  0  2  0  0  0  0  0  0
  -19.2080  -28.8190   23.2930 C   0  0  0  0  0  0  0  0  0  0  0  0
  -18.9920  -30.0550   23.9390 C   0  0  0  0  0  3  0  0  0  0  0  0
  -17.6870  -30.5450   24.1400 C   0  0  0  0  0  3  0  0  0  0  0  0
  -16.5800  -29.7950   23.7080 C   0  0  0  0  0  3  0  0  0  0  0  0
  -16.7800  -28.5590   23.0670 C   0  0  0  0  0  3  0  0  0  0  0  0
  -25.9200  -32.4890   23.8830 C   0  0  0  0  0  3  0  0  0  0  0  0
  -25.6030  -33.8890   24.2130 N   0  0  0  0  0  0  0  0  0  0  0  0
  -25.9140  -34.9470   23.4510 C   0  0  0  0  0  0  0  0  0  0  0  0
  -26.5620  -34.8460   22.4050 O   0  0  0  0  0  0  0  0  0  0  0  0
  -25.0230  -34.0400   25.0260 H   0  0  0  0  0  0  0  0  0  0  0  0
  -24.1530  -36.7230   23.1620 C   0  0  0  0  0  1  0  0  0  0  0  0
  -25.4330  -36.3350   23.9190 C   0  0  0  0  0  3  0  0  0  0  0  0
  -27.5860  -37.2590   24.6580 C   0  0  0  0  0  1  0  0  0  0  0  0
  -26.4480  -37.3990   23.7530 N   0  0  0  0  0  0  0  0  0  0  0  0
  -26.0370  -38.3160   23.9020 H   0  0  0  0  0  0  0  0  0  0  0  0
  -26.4000  -31.7210   25.1770 C   0  0  1  0  0  0  0  0  0  0  0  0
  -25.2790  -31.4930   26.2180 C   0  0  0  0  0  1  0  0  0  0  0  0
  -26.9870  -30.3390   24.8120 C   0  0  0  0  0  1  0  0  0  0  0  0
  -27.5360  -32.5140   25.8650 C   0  0  0  0  0  1  0  0  0  0  0  0
  1  4  1  0
  2  1  2  0
  3  4  2  0
  4  8  1  0
  5  2  1  0
  5  6  2  0
  6  3  1  0
  7  6  1  0
  8 17  1  0
  9 17  1  0
 10 15  1  0
 11 12  1  0
 11 10  1  0
 13 12  1  0
 13 22  1  0
 13 14  1  0
 15  9  1  0
 15 14  1  0
 16  9  2  0
 17 18  1  0
 19 20  2  0
 20 39  1  0
 21 20  1  0
 21 24  1  0
 22 19  1  0
 22 23  1  0
 23 21  2  0
 24 25  1  0
 25 26  2  0
 27 30  1  0
 27 26  1  0
 28 27  2  0
 29 28  1  0
 29 24  2  0
 30 31  1  0
 31 32  1  0
 32 33  2  0
 34 33  1  0
 34 38  1  0
 35 34  2  0
 36 31  2  0
 36 35  1  0
 37 36  1  0
 39 40  1  0
 40 43  1  0
 40 42  1  0
 41 39  2  0
 44 45  1  0
 44 19  1  0
 46 44  1  0
 47  5  1  0
 47 48  1  0
 49 60  2  0
 50 48  1  0
 50 55  1  0
 51 59  1  0
 51 61  1  0
 52 58  1  0
 52 54  1  0
 53 59  1  0
 54 53  1  0
 55 54  2  0
 56 57  1  0
 56 50  2  0
 57 52  2  0
 58 51  1  0
 59 49  1  0
 61 63  2  0
 62 61  1  0
 64 62  1  0
 65 74  2  0
 65 70  1  0
 66 62  1  0
 66 70  1  0
 67 66  1  0
 68 69  1  0
 68 67  1  0
 69 65  1  0
 70 71  2  0
 71 72  1  0
 73 72  2  0
 74 73  1  0
 75 49  1  0
 75 76  1  0
 75 85  1  0
 76 79  1  0
 77 81  1  0
 77 76  1  0
 78 77  2  0
 81 80  1  0
 83 84  1  0
 83 81  1  0
 83 82  1  0
 85 88  1  1
 85 86  1  0
 87 85  1  0
M  ISO  4   9 100  17 100  47 101  48 101
M  END
>  <TORSDO>  (16) 
F 18

>  <SCORE>  (16) 
-15.644

>  <name>  (16) 
15

>  <ligand_id>  (16) 
15

>  <original_smiles>  (16) 
[H]c1c([H])c([H])c2c(c1[H])C([H])([H])C([H])([H])C([H])([H])C2([H])N([H])C(=O)C1([H])N(C(=O)C([H])(N([H])C(=O)C([H])(N([H])C([H])([H])[H])C([H])([H])[H])C(C([H])([H])[H])(C([H])([H])[H])C([H])([H])[H])C([H])([H])c2c([H])c(OC([H])([H])c3c([H])c([H])c(C([H])([H])N([H])C(=O)N4C([H])([H])C([H])([H])C([H])([H])C([H])(n5nc(-c6c([H])c([H])c(Oc7c([H])c([H])c(F)c([H])c7F)c([H])c6[H])c(C(=O)N([H])[H])c5N([H])[H])C4([H])[H])c([H])c3F)c([H])c([H])c2C1([H])[H]

>  <smiles>  (16) 
[H]c1c([H])c([H])c2c(c1[H])C([H])([H])C([H])([H])C([H])([H])C2([H])N([H])C(=O)C1([H])N(C(=O)C([H])(N([H])C(=O)C([H])(N([H])C([H])([H])[H])C([H])([H])[H])C(C([H])([H])[H])(C([H])([H])[H])C([H])([H])[H])C([H])([H])c2c([H])c(OC([H])([H])c3c([H])c([H])c(C([H])([H])N([H])C(=O)N4C([H])([H])C([H])([H])C([H])([H])C([H])(n5nc(-c6c([H])c([H])c(Oc7c([H])c([H])c(F)c([H])c7F)c([H])c6[H])c(C(=O)N([H])[H])c5N([H])[H])C4([H])[H])c([H])c3F)c([H])c([H])c2C1([H])[H]

$$$$
16:0:0
     RDKit          3D

 96105  0  0  1  0  0  0  0  0999 V2000
  -29.5480  -21.6750   19.3670 C   0  0  0  0  0  3  0  0  0  0  0  0
  -28.3770  -22.2800   18.8920 C   0  0  0  0  0  3  0  0  0  0  0  0
  -30.3180  -22.3010   20.3710 C   0  0  0  0  0  0  0  0  0  0  0  0
  -28.7300  -24.1870   20.3910 C   0  0  0  0  0  0  0  0  0  0  0  0
  -27.9680  -23.5220   19.4000 C   0  0  0  0  0  0  0  0  0  0  0  0
  -29.9020  -23.5570   20.8820 C   0  0  0  0  0  0  0  0  0  0  0  0
  -26.8060  -24.0370   18.9450 F   0  0  0  0  0  0  0  0  0  0  0  0
  -30.6270  -24.1450   21.8650 F   0  0  0  0  0  0  0  0  0  0  0  0
  -31.5960  -21.6400   20.8860 C   0  0  0  0  0  2  0  0  0  0  0  0
  -31.1980  -19.2240   21.4040 C   0  0  0  0  0  0  0  0  0  0  0  0
  -31.6680  -20.2000   20.6140 N   0  0  0  0  0  0  0  0  0  0  0  0
  -30.8190  -19.4280   22.5590 O   0  0  0  0  0  0  0  0  0  0  0  0
  -31.9540  -19.9400   19.6780 H   0  0  0  0  0  0  0  0  0  0  0  0
  -30.7640  -14.4810   20.4970 C   0  0  0  0  0  0  0  0  0  0  0  0
  -30.3890  -12.3190   19.3780 C   0  0  0  0  0  2  0  0  0  0  0  0
  -29.4800  -12.4960   18.1470 C   0  0  0  0  0  2  0  0  0  0  0  0
  -27.9940  -12.4050   18.5470 C   0  0  0  0  0  2  0  0  0  0  0  0
  -27.6370  -13.2570   19.7970 C   0  0  0  0  0  3  0  0  0  0  0  0
  -28.6830  -13.0850   20.9250 C   0  0  0  0  0  2  0  0  0  0  0  0
  -30.0180  -13.3480   20.3620 N   0  0  0  0  0  0  0  0  0  0  0  0
  -31.9200  -14.5640   20.0790 O   0  0  0  0  0  0  0  0  0  0  0  0
  -29.7760  -17.7500   19.9500 C   0  0  0  0  0  2  0  0  0  0  0  0
  -29.2520  -16.3210   20.1140 C   0  0  0  0  0  2  0  0  0  0  0  0
  -30.9520  -16.6200   21.7060 C   0  0  0  0  0  2  0  0  0  0  0  0
  -31.0690  -17.8320   20.7540 C   0  0  0  0  0  3  0  0  0  0  0  0
  -30.1600  -15.5870   21.0060 N   0  0  0  0  0  0  0  0  0  0  0  0
  -25.2340  -13.8880   20.4600 C   0  0  0  0  0  0  0  0  0  0  0  0
  -24.1530  -13.1270   20.8190 C   0  0  0  0  0  0  0  0  0  0  0  0
  -24.6070  -11.7730   20.8180 C   0  0  0  0  0  0  0  0  0  0  0  0
  -26.2780  -12.9960   20.2610 N   0  0  0  0  0  0  0  0  0  0  0  0
  -25.9040  -11.7200   20.5360 N   0  0  0  0  0  0  0  0  0  0  0  0
  -23.8690  -10.5170   21.0110 C   0  0  0  0  0  0  0  0  0  0  0  0
  -24.2880   -9.5530   21.9570 C   0  0  0  0  0  3  0  0  0  0  0  0
  -23.5520   -8.3630   22.1380 C   0  0  0  0  0  3  0  0  0  0  0  0
  -22.3850   -8.1260   21.3720 C   0  0  0  0  0  0  0  0  0  0  0  0
  -21.9860   -9.0770   20.4150 C   0  0  0  0  0  3  0  0  0  0  0  0
  -22.7220  -10.2610   20.2340 C   0  0  0  0  0  3  0  0  0  0  0  0
  -21.6220   -6.9860   21.4620 O   0  0  0  0  0  0  0  0  0  0  0  0
  -21.5630   -6.2500   22.6180 C   0  0  0  0  0  0  0  0  0  0  0  0
  -21.1420   -6.8140   23.8420 C   0  0  0  0  0  3  0  0  0  0  0  0
  -21.0350   -6.0040   24.9910 C   0  0  0  0  0  3  0  0  0  0  0  0
  -21.3330   -4.6290   24.9150 C   0  0  0  0  0  0  0  0  0  0  0  0
  -21.7450   -4.0650   23.6950 C   0  0  0  0  0  3  0  0  0  0  0  0
  -21.8560   -4.8730   22.5500 C   0  0  0  0  0  0  0  0  0  0  0  0
  -22.2330   -4.3190   21.3720 F   0  0  0  0  0  0  0  0  0  0  0  0
  -21.2190   -3.8510   26.0150 F   0  0  0  0  0  0  0  0  0  0  0  0
  -22.7540  -13.6190   21.0560 C   0  0  0  0  0  0  0  0  0  0  0  0
  -22.0040  -12.9380   21.9170 N   0  0  0  0  0  0  0  0  0  0  0  0
  -22.3310  -14.6380   20.5130 O   0  0  0  0  0  0  0  0  0  0  0  0
  -22.3590  -12.1180   22.3880 H   0  0  0  0  0  0  0  0  0  0  0  0
  -21.0620  -13.2440   22.1120 H   0  0  0  0  0  0  0  0  0  0  0  0
  -25.4100  -15.2530   20.2630 N   0  0  0  0  0  0  0  0  0  0  0  0
  -24.6450  -15.9140   20.3350 H   0  0  0  0  0  0  0  0  0  0  0  0
  -26.2720  -15.6850   19.9530 H   0  0  0  0  0  0  0  0  0  0  0  0
  -28.2260  -25.5000   20.9980 C   0  0  0  0  0  2  0  0  0  0  0  0
  -28.3650  -26.6670   20.1640 O   0  0  0  0  0  0  0  0  0  0  0  0
  -24.5900  -31.8810   23.2350 C   0  0  0  0  0  0  0  0  0  0  0  0
  -27.2320  -27.4500   20.1440 C   0  0  0  0  0  0  0  0  0  0  0  0
  -23.3870  -30.4800   21.5950 C   0  0  0  0  0  3  0  0  0  0  0  0
  -24.8410  -28.9570   20.1640 C   0  0  0  0  0  0  0  0  0  0  0  0
  -25.9140  -30.8430   21.3980 C   0  0  0  0  0  2  0  0  0  0  0  0
  -26.0020  -29.4750   20.7540 C   0  0  0  0  0  0  0  0  0  0  0  0
  -27.2040  -28.7300   20.7420 C   0  0  0  0  0  3  0  0  0  0  0  0
  -26.0600  -26.9630   19.5300 C   0  0  0  0  0  3  0  0  0  0  0  0
  -24.8640  -27.6970   19.5510 C   0  0  0  0  0  3  0  0  0  0  0  0
  -23.5960  -29.8120   20.2120 C   0  0  0  0  0  2  0  0  0  0  0  0
  -24.6490  -31.0810   22.1350 N   0  0  0  0  0  0  0  0  0  0  0  0
  -23.5080  -32.1520   23.7740 O   0  0  0  0  0  0  0  0  0  0  0  0
  -22.7400  -29.4510   22.5490 C   0  0  0  0  0  0  0  0  0  0  0  0
  -21.4150  -29.2710   22.4230 N   0  0  0  0  0  0  0  0  0  0  0  0
  -23.4250  -28.8200   23.3590 O   0  0  0  0  0  0  0  0  0  0  0  0
  -20.9220  -29.8330   21.7430 H   0  0  0  0  0  0  0  0  0  0  0  0
  -18.0370  -28.0880   22.9250 C   0  0  0  0  0  0  0  0  0  0  0  0
  -20.5970  -28.3310   23.1900 C   0  0  0  0  0  3  0  0  0  0  0  0
  -20.6910  -26.9020   22.6060 C   0  0  0  0  0  2  0  0  0  0  0  0
  -19.5840  -26.5900   21.5940 C   0  0  0  0  0  2  0  0  0  0  0  0
  -18.2050  -26.7400   22.2430 C   0  0  0  0  0  2  0  0  0  0  0  0
  -19.1620  -28.8410   23.3550 C   0  0  0  0  0  0  0  0  0  0  0  0
  -18.9530  -30.1040   23.9510 C   0  0  0  0  0  3  0  0  0  0  0  0
  -17.6520  -30.6140   24.1230 C   0  0  0  0  0  3  0  0  0  0  0  0
  -16.5420  -29.8570   23.7110 C   0  0  0  0  0  3  0  0  0  0  0  0
  -16.7350  -28.5960   23.1180 C   0  0  0  0  0  3  0  0  0  0  0  0
  -25.8750  -32.5140   23.8530 C   0  0  0  0  0  3  0  0  0  0  0  0
  -26.3990  -31.7390   25.1250 C   0  0  1  0  0  0  0  0  0  0  0  0
  -25.3100  -31.4910   26.1950 C   0  0  0  0  0  1  0  0  0  0  0  0
  -26.9840  -30.3650   24.7210 C   0  0  0  0  0  1  0  0  0  0  0  0
  -27.5470  -32.5340   25.7890 C   0  0  0  0  0  1  0  0  0  0  0  0
  -25.5640  -33.9100   24.1850 N   0  0  0  0  0  0  0  0  0  0  0  0
  -25.8900  -34.9630   23.4240 C   0  0  0  0  0  0  0  0  0  0  0  0
  -26.5580  -34.8630   22.3920 O   0  0  0  0  0  0  0  0  0  0  0  0
  -24.9710  -34.0640   24.9880 H   0  0  0  0  0  0  0  0  0  0  0  0
  -24.1530  -36.7470   23.0710 C   0  0  0  0  0  1  0  0  0  0  0  0
  -25.3960  -36.3490   23.8830 C   0  0  0  0  0  3  0  0  0  0  0  0
  -27.5280  -37.2390   24.7140 C   0  0  0  0  0  1  0  0  0  0  0  0
  -26.4230  -37.4060   23.7730 N   0  0  0  0  0  0  0  0  0  0  0  0
  -26.0120  -38.3240   23.9280 H   0  0  0  0  0  0  0  0  0  0  0  0
  1  3  1  0
  2  1  2  0
  2  5  1  0
  3  6  2  0
  3  9  1  0
  4  6  1  0
  4 55  1  0
  5  4  2  0
  6  8  1  0
  7  5  1  0
 10 12  2  0
 11  9  1  0
 11 10  1  0
 13 11  1  0
 14 26  1  0
 15 20  1  0
 16 17  1  0
 16 15  1  0
 18 17  1  0
 18 30  1  0
 18 19  1  0
 20 14  1  0
 20 19  1  0
 21 14  2  0
 22 23  1  0
 22 25  1  0
 23 26  1  0
 25 10  1  0
 25 24  1  0
 26 24  1  0
 27 28  2  0
 28 47  1  0
 29 28  1  0
 29 32  1  0
 30 27  1  0
 30 31  1  0
 31 29  2  0
 32 33  1  0
 33 34  2  0
 35 38  1  0
 35 34  1  0
 36 35  2  0
 37 36  1  0
 37 32  2  0
 38 39  1  0
 39 40  1  0
 40 41  2  0
 42 41  1  0
 42 46  1  0
 43 42  2  0
 44 39  2  0
 44 43  1  0
 45 44  1  0
 47 48  1  0
 48 51  1  0
 48 50  1  0
 49 47  2  0
 52 53  1  0
 52 27  1  0
 54 52  1  0
 56 55  1  0
 57 68  2  0
 58 56  1  0
 58 63  1  0
 59 67  1  0
 59 69  1  0
 60 66  1  0
 60 62  1  0
 61 67  1  0
 62 61  1  0
 63 62  2  0
 64 65  1  0
 64 58  2  0
 65 60  2  0
 66 59  1  0
 67 57  1  0
 69 71  2  0
 70 69  1  0
 72 70  1  0
 73 82  2  0
 73 78  1  0
 74 70  1  0
 74 78  1  0
 75 74  1  0
 76 77  1  0
 76 75  1  0
 77 73  1  0
 78 79  2  0
 79 80  1  0
 81 80  2  0
 82 81  1  0
 83 57  1  0
 83 88  1  0
 83 84  1  0
 84 87  1  1
 84 85  1  0
 86 84  1  0
 88 91  1  0
 89 93  1  0
 89 88  1  0
 90 89  2  0
 93 92  1  0
 95 93  1  0
 95 96  1  0
 95 94  1  0
M  ISO  4  14 100  26 100  55 101  56 101
M  END
>  <TORSDO>  (17) 
F 19

>  <SCORE>  (17) 
-14.680

>  <name>  (17) 
16

>  <ligand_id>  (17) 
16

>  <original_smiles>  (17) 
[H]c1c([H])c([H])c2c(c1[H])C([H])([H])C([H])([H])C([H])([H])C2([H])N([H])C(=O)C1([H])N(C(=O)C([H])(N([H])C(=O)C([H])(N([H])C([H])([H])[H])C([H])([H])[H])C(C([H])([H])[H])(C([H])([H])[H])C([H])([H])[H])C([H])([H])c2c([H])c(OC([H])([H])c3c(F)c([H])c([H])c(C([H])([H])N([H])C(=O)C4([H])C([H])([H])N(C(=O)N5C([H])([H])C([H])([H])C([H])([H])C([H])(n6nc(-c7c([H])c([H])c(Oc8c([H])c([H])c(F)c([H])c8F)c([H])c7[H])c(C(=O)N([H])[H])c6N([H])[H])C5([H])[H])C([H])([H])C4([H])[H])c3F)c([H])c([H])c2C1([H])[H]

>  <smiles>  (17) 
[H]c1c([H])c([H])c2c(c1[H])C([H])([H])C([H])([H])C([H])([H])C2([H])N([H])C(=O)C1([H])N(C(=O)C([H])(N([H])C(=O)C([H])(N([H])C([H])([H])[H])C([H])([H])[H])C(C([H])([H])[H])(C([H])([H])[H])C([H])([H])[H])C([H])([H])c2c([H])c(OC([H])([H])c3c(F)c([H])c([H])c(C([H])([H])N([H])C(=O)C4([H])C([H])([H])N(C(=O)N5C([H])([H])C([H])([H])C([H])([H])C([H])(n6nc(-c7c([H])c([H])c(Oc8c([H])c([H])c(F)c([H])c8F)c([H])c7[H])c(C(=O)N([H])[H])c6N([H])[H])C5([H])[H])C([H])([H])C4([H])[H])c3F)c([H])c([H])c2C1([H])[H]

$$$$
17:0:0
     RDKit          3D

 99107  0  0  1  0  0  0  0  0999 V2000
  -31.9520  -20.1050   21.0160 C   0  0  0  0  0  1  0  0  0  0  0  0
  -30.8830  -19.3980   20.1410 C   0  0  0  0  0  3  0  0  0  0  0  0
  -31.3170  -14.0950   21.2170 C   0  0  0  0  0  0  0  0  0  0  0  0
  -31.1940  -11.6440   20.8590 C   0  0  0  0  0  2  0  0  0  0  0  0
  -30.6460  -11.3310   19.4520 C   0  0  0  0  0  2  0  0  0  0  0  0
  -29.1040  -11.2900   19.4640 C   0  0  0  0  0  2  0  0  0  0  0  0
  -28.4960  -12.5460   20.1360 C   0  0  0  0  0  3  0  0  0  0  0  0
  -29.1650  -12.7990   21.5070 C   0  0  0  0  0  2  0  0  0  0  0  0
  -30.6170  -12.9270   21.2890 N   0  0  0  0  0  0  0  0  0  0  0  0
  -32.5380  -14.1230   21.0110 O   0  0  0  0  0  0  0  0  0  0  0  0
  -31.0170  -16.2260   22.4080 C   0  0  0  0  0  2  0  0  0  0  0  0
  -31.3320  -17.6390   21.8530 C   0  0  0  0  0  2  0  0  0  0  0  0
  -29.7750  -15.7470   20.3060 C   0  0  0  0  0  2  0  0  0  0  0  0
  -29.5130  -17.2680   20.2940 C   0  0  0  0  0  3  0  0  0  0  0  0
  -30.6050  -15.2340   21.4090 N   0  0  0  0  0  0  0  0  0  0  0  0
  -30.7990  -17.9560   20.5120 N   0  0  0  0  0  0  0  0  0  0  0  0
  -26.0870  -13.4600   20.1090 C   0  0  0  0  0  0  0  0  0  0  0  0
  -24.8770  -12.8430   20.2600 C   0  0  0  0  0  0  0  0  0  0  0  0
  -25.1670  -11.4640   20.4930 C   0  0  0  0  0  0  0  0  0  0  0  0
  -27.0440  -12.4660   20.2570 N   0  0  0  0  0  0  0  0  0  0  0  0
  -26.4770  -11.2690   20.5480 N   0  0  0  0  0  0  0  0  0  0  0  0
  -24.2760  -10.3040   20.6120 C   0  0  0  0  0  0  0  0  0  0  0  0
  -24.4940   -9.3020   21.5840 C   0  0  0  0  0  3  0  0  0  0  0  0
  -23.6170   -8.2030   21.6860 C   0  0  0  0  0  3  0  0  0  0  0  0
  -22.5050   -8.0980   20.8150 C   0  0  0  0  0  0  0  0  0  0  0  0
  -22.3070   -9.0860   19.8350 C   0  0  0  0  0  3  0  0  0  0  0  0
  -23.1850  -10.1760   19.7300 C   0  0  0  0  0  3  0  0  0  0  0  0
  -21.6140   -7.0530   20.8260 O   0  0  0  0  0  0  0  0  0  0  0  0
  -21.3070   -6.3820   21.9840 C   0  0  0  0  0  0  0  0  0  0  0  0
  -20.8480   -7.0560   23.1370 C   0  0  0  0  0  3  0  0  0  0  0  0
  -20.4780   -6.3190   24.2810 C   0  0  0  0  0  3  0  0  0  0  0  0
  -20.5550   -4.9140   24.2710 C   0  0  0  0  0  0  0  0  0  0  0  0
  -21.0080   -4.2420   23.1210 C   0  0  0  0  0  3  0  0  0  0  0  0
  -21.3810   -4.9740   21.9810 C   0  0  0  0  0  0  0  0  0  0  0  0
  -21.7960   -4.3210   20.8670 F   0  0  0  0  0  0  0  0  0  0  0  0
  -20.1920   -4.2070   25.3660 F   0  0  0  0  0  0  0  0  0  0  0  0
  -23.5220  -13.4690   20.1000 C   0  0  0  0  0  0  0  0  0  0  0  0
  -22.5470  -13.0390   20.8920 N   0  0  0  0  0  0  0  0  0  0  0  0
  -23.3330  -14.3820   19.2970 O   0  0  0  0  0  0  0  0  0  0  0  0
  -22.7070  -12.3110   21.5720 H   0  0  0  0  0  0  0  0  0  0  0  0
  -21.6280  -13.4530   20.8230 H   0  0  0  0  0  0  0  0  0  0  0  0
  -26.4490  -14.7760   19.8310 N   0  0  0  0  0  0  0  0  0  0  0  0
  -25.7530  -15.4790   19.6080 H   0  0  0  0  0  0  0  0  0  0  0  0
  -27.3930  -15.0750   19.6260 H   0  0  0  0  0  0  0  0  0  0  0  0
  -28.3170  -17.6780   21.2210 C   0  0  0  0  0  2  0  0  0  0  0  0
  -26.9070  -17.3410   20.7050 C   0  0  0  0  0  0  0  0  0  0  0  0
  -25.8880  -17.4830   21.5430 N   0  0  0  0  0  0  0  0  0  0  0  0
  -26.7170  -16.9070   19.5720 O   0  0  0  0  0  0  0  0  0  0  0  0
  -26.0270  -17.8350   22.4800 H   0  0  0  0  0  0  0  0  0  0  0  0
  -24.9570  -17.2120   21.2550 H   0  0  0  0  0  0  0  0  0  0  0  0
  -31.2430  -19.6260   18.6310 C   0  0  0  0  0  2  0  0  0  0  0  0
  -30.9280  -21.0000   18.1390 N   0  0  0  0  0  4  0  0  0  0  0  0
  -31.6010  -21.6400   18.5320 H   0  0  0  0  0  0  0  0  0  0  0  0
  -30.0150  -21.2650   18.4710 H   0  0  0  0  0  0  0  0  0  0  0  0
  -30.9930  -21.1890   16.6630 C   0  0  0  0  0  2  0  0  0  0  0  0
  -30.8980  -22.6790   16.2000 C   0  0  0  0  0  3  0  0  0  0  0  0
  -31.9380  -23.3510   16.7010 F   0  0  0  0  0  0  0  0  0  0  0  0
  -29.5670  -23.4260   16.5060 C   0  0  0  0  0  2  0  0  0  0  0  0
  -29.6820  -24.8750   16.4550 O   0  0  0  0  0  0  0  0  0  0  0  0
  -24.0780  -27.2500   20.2150 C   0  0  0  0  0  0  0  0  0  0  0  0
  -28.5000  -25.6020   16.4590 C   0  0  0  0  0  0  0  0  0  0  0  0
  -23.9090  -27.4670   17.7590 C   0  0  0  0  0  3  0  0  0  0  0  0
  -26.0680  -27.0670   16.4600 C   0  0  0  0  0  0  0  0  0  0  0  0
  -26.1950  -27.5000   18.9150 C   0  0  0  0  0  2  0  0  0  0  0  0
  -26.7810  -26.8990   17.6520 C   0  0  0  0  0  0  0  0  0  0  0  0
  -28.0030  -26.1780   17.6550 C   0  0  0  0  0  3  0  0  0  0  0  0
  -27.7730  -25.8130   15.2650 C   0  0  0  0  0  3  0  0  0  0  0  0
  -26.5630  -26.5290   15.2610 C   0  0  0  0  0  3  0  0  0  0  0  0
  -24.7750  -27.8450   16.5280 C   0  0  0  0  0  2  0  0  0  0  0  0
  -24.7180  -27.3770   19.0190 N   0  0  0  0  0  0  0  0  0  0  0  0
  -22.8400  -27.2470   20.2850 O   0  0  0  0  0  0  0  0  0  0  0  0
  -23.1290  -26.1730   17.4370 C   0  0  0  0  0  0  0  0  0  0  0  0
  -22.0620  -26.3010   16.6300 N   0  0  0  0  0  0  0  0  0  0  0  0
  -23.5000  -25.0840   17.8830 O   0  0  0  0  0  0  0  0  0  0  0  0
  -21.8190  -27.2290   16.3120 H   0  0  0  0  0  0  0  0  0  0  0  0
  -19.2070  -25.5340   14.5520 C   0  0  0  0  0  0  0  0  0  0  0  0
  -21.2030  -25.2150   16.1640 C   0  0  0  0  0  3  0  0  0  0  0  0
  -21.8740  -24.4300   15.0120 C   0  0  0  0  0  2  0  0  0  0  0  0
  -21.4870  -24.9490   13.6230 C   0  0  0  0  0  2  0  0  0  0  0  0
  -19.9710  -24.8650   13.4210 C   0  0  0  0  0  2  0  0  0  0  0  0
  -19.7910  -25.7120   15.8340 C   0  0  0  0  0  0  0  0  0  0  0  0
  -19.0500  -26.3730   16.8380 C   0  0  0  0  0  3  0  0  0  0  0  0
  -17.7490  -26.8470   16.5790 C   0  0  0  0  0  3  0  0  0  0  0  0
  -17.1710  -26.6550   15.3140 C   0  0  0  0  0  3  0  0  0  0  0  0
  -17.8960  -25.9960   14.3040 C   0  0  0  0  0  3  0  0  0  0  0  0
  -24.8670  -27.1250   21.5550 C   0  0  0  0  0  3  0  0  0  0  0  0
  -24.1250  -27.8740   22.5770 N   0  0  0  0  0  0  0  0  0  0  0  0
  -24.5120  -29.0480   23.0930 C   0  0  0  0  0  0  0  0  0  0  0  0
  -25.5840  -29.5860   22.8040 O   0  0  0  0  0  0  0  0  0  0  0  0
  -23.2110  -27.5200   22.8220 H   0  0  0  0  0  0  0  0  0  0  0  0
  -22.8590  -30.9190   23.3990 C   0  0  0  0  0  1  0  0  0  0  0  0
  -23.5570  -29.7360   24.0880 C   0  0  0  0  0  3  0  0  0  0  0  0
  -24.6760  -29.1110   26.1830 C   0  0  0  0  0  1  0  0  0  0  0  0
  -24.2280  -30.2030   25.3210 N   0  0  0  0  0  0  0  0  0  0  0  0
  -23.6100  -30.7990   25.8640 H   0  0  0  0  0  0  0  0  0  0  0  0
  -25.0890  -25.6310   22.0110 C   0  0  1  0  0  0  0  0  0  0  0  0
  -23.7910  -24.7910   22.0400 C   0  0  0  0  0  1  0  0  0  0  0  0
  -26.0910  -24.9190   21.0720 C   0  0  0  0  0  1  0  0  0  0  0  0
  -25.7100  -25.6010   23.4280 C   0  0  0  0  0  1  0  0  0  0  0  0
  2 16  1  0
  2  1  1  0
  3  9  1  0
  3 15  1  0
  4  9  1  0
  5  6  1  0
  5  4  1  0
  7  6  1  0
  7 20  1  0
  7  8  1  0
  9  8  1  0
 10  3  2  0
 12 11  1  0
 13 15  1  0
 14 13  1  0
 14 16  1  0
 14 45  1  0
 15 11  1  0
 16 12  1  0
 17 20  1  0
 17 18  2  0
 18 19  1  0
 19 21  2  0
 19 22  1  0
 20 21  1  0
 22 23  1  0
 23 24  2  0
 25 28  1  0
 25 24  1  0
 26 25  2  0
 27 26  1  0
 27 22  2  0
 28 29  1  0
 29 30  1  0
 30 31  2  0
 32 31  1  0
 32 36  1  0
 33 32  2  0
 34 29  2  0
 34 33  1  0
 35 34  1  0
 37 18  1  0
 37 38  1  0
 38 40  1  0
 39 37  2  0
 41 38  1  0
 42 17  1  0
 43 42  1  0
 44 42  1  0
 46 45  1  0
 46 47  1  0
 47 49  1  0
 48 46  2  0
 50 47  1  0
 51  2  1  0
 52 54  1  0
 52 53  1  0
 52 51  1  0
 55 52  1  0
 56 58  1  0
 56 55  1  0
 56 57  1  0
 59 61  1  0
 59 58  1  0
 60 71  2  0
 61 66  1  0
 62 72  1  0
 62 70  1  0
 63 69  1  0
 63 65  1  0
 64 70  1  0
 65 66  2  0
 65 64  1  0
 67 61  2  0
 68 67  1  0
 68 63  2  0
 69 62  1  0
 70 60  1  0
 72 74  2  0
 73 72  1  0
 75 73  1  0
 76 81  1  0
 77 73  1  0
 78 77  1  0
 79 78  1  0
 80 79  1  0
 80 76  1  0
 81 77  1  0
 81 82  2  0
 83 82  1  0
 84 83  2  0
 85 76  2  0
 85 84  1  0
 86 60  1  0
 86 96  1  0
 86 87  1  0
 87 90  1  0
 87 88  1  0
 88 92  1  0
 89 88  2  0
 92 91  1  0
 92 94  1  0
 94 95  1  0
 94 93  1  0
 96 97  1  1
 96 99  1  0
 98 96  1  0
M  ISO  4   3 100  15 100  58 101  59 101
M  END
>  <TORSDO>  (18) 
F 23

>  <SCORE>  (18) 
-4.885

>  <name>  (18) 
17

>  <ligand_id>  (18) 
17

>  <original_smiles>  (18) 
[H]c1c([H])c([H])c2c(c1[H])C([H])([H])C([H])([H])C([H])([H])C2([H])N([H])C(=O)C1([H])N(C(=O)C([H])(N([H])C(=O)C([H])(N([H])C([H])([H])[H])C([H])([H])[H])C(C([H])([H])[H])(C([H])([H])[H])C([H])([H])[H])C([H])([H])c2c([H])c(OC([H])([H])C([H])(F)C([H])([H])[N+]([H])([H])C([H])([H])C([H])(N3C([H])([H])C([H])([H])N(C(=O)N4C([H])([H])C([H])([H])C([H])([H])C([H])(n5nc(-c6c([H])c([H])c(Oc7c([H])c([H])c(F)c([H])c7F)c([H])c6[H])c(C(=O)N([H])[H])c5N([H])[H])C4([H])[H])C([H])([H])C3([H])C([H])([H])C(=O)N([H])[H])C([H])([H])[H])c([H])c([H])c2C1([H])[H]

>  <smiles>  (18) 
[H]c1c([H])c([H])c2c(c1[H])C([H])([H])C([H])([H])C([H])([H])C2([H])N([H])C(=O)C1([H])N(C(=O)C([H])(N([H])C(=O)C([H])(N([H])C([H])([H])[H])C([H])([H])[H])C(C([H])([H])[H])(C([H])([H])[H])C([H])([H])[H])C([H])([H])c2c([H])c(OC([H])([H])C([H])(F)C([H])([H])[N+]([H])([H])C([H])([H])C([H])(N3C([H])([H])C([H])([H])N(C(=O)N4C([H])([H])C([H])([H])C([H])([H])C([H])(n5nc(-c6c([H])c([H])c(Oc7c([H])c([H])c(F)c([H])c7F)c([H])c6[H])c(C(=O)N([H])[H])c5N([H])[H])C4([H])[H])C([H])([H])C3([H])C([H])([H])C(=O)N([H])[H])C([H])([H])[H])c([H])c([H])c2C1([H])[H]

$$$$
18:0:0
     RDKit          3D

 90 98  0  0  1  0  0  0  0  0999 V2000
  -28.1320  -20.1890   20.3070 C   0  0  0  0  0  3  0  0  0  0  0  0
  -27.6950  -21.6100   20.2870 C   0  0  0  0  0  3  0  0  0  0  0  0
  -30.3070  -20.9360   20.2970 C   0  0  0  0  0  3  0  0  0  0  0  0
  -29.5000  -19.7130   20.3040 C   0  0  0  0  0  0  0  0  0  0  0  0
  -28.5060  -22.8300   20.2520 C   0  0  0  0  0  0  0  0  0  0  0  0
  -29.8770  -22.3580   20.2640 C   0  0  0  0  0  0  0  0  0  0  0  0
  -30.8550  -23.2940   20.2050 F   0  0  0  0  0  0  0  0  0  0  0  0
  -27.8050  -24.4040   20.0260 C   0  0  0  0  0  2  0  0  0  0  0  0
  -28.1790  -25.9580   20.3200 O   0  0  0  0  0  0  0  0  0  0  0  0
  -24.6320  -31.9070   23.2510 C   0  0  0  0  0  0  0  0  0  0  0  0
  -27.1870  -27.0590   20.2350 C   0  0  0  0  0  0  0  0  0  0  0  0
  -23.4360  -30.5080   21.6160 C   0  0  0  0  0  3  0  0  0  0  0  0
  -24.8840  -28.9150   20.1920 C   0  0  0  0  0  0  0  0  0  0  0  0
  -26.0010  -30.7310   21.4650 C   0  0  0  0  0  2  0  0  0  0  0  0
  -26.0710  -29.3250   20.8100 C   0  0  0  0  0  0  0  0  0  0  0  0
  -27.2200  -28.4170   20.8130 C   0  0  0  0  0  3  0  0  0  0  0  0
  -25.9720  -26.7980   19.5600 C   0  0  0  0  0  3  0  0  0  0  0  0
  -24.8580  -27.6710   19.5460 C   0  0  0  0  0  3  0  0  0  0  0  0
  -23.6620  -29.8280   20.2400 C   0  0  0  0  0  2  0  0  0  0  0  0
  -24.7110  -31.0750   22.1640 N   0  0  0  0  0  0  0  0  0  0  0  0
  -23.5440  -32.1960   23.7740 O   0  0  0  0  0  0  0  0  0  0  0  0
  -22.7470  -29.5100   22.5830 C   0  0  0  0  0  0  0  0  0  0  0  0
  -21.4180  -29.3380   22.4550 N   0  0  0  0  0  0  0  0  0  0  0  0
  -23.4140  -28.8910   23.4160 O   0  0  0  0  0  0  0  0  0  0  0  0
  -20.9340  -29.8870   21.7600 H   0  0  0  0  0  0  0  0  0  0  0  0
  -18.0390  -28.1210   22.9620 C   0  0  0  0  0  0  0  0  0  0  0  0
  -20.5970  -28.4000   23.2280 C   0  0  0  0  0  3  0  0  0  0  0  0
  -20.7060  -26.9660   22.6620 C   0  0  0  0  0  2  0  0  0  0  0  0
  -19.6070  -26.6320   21.6470 C   0  0  0  0  0  2  0  0  0  0  0  0
  -18.2240  -26.7710   22.2890 C   0  0  0  0  0  2  0  0  0  0  0  0
  -19.1520  -28.8920   23.3890 C   0  0  0  0  0  0  0  0  0  0  0  0
  -18.9230  -30.1530   23.9810 C   0  0  0  0  0  3  0  0  0  0  0  0
  -17.6140  -30.6430   24.1490 C   0  0  0  0  0  3  0  0  0  0  0  0
  -16.5160  -29.8690   23.7360 C   0  0  0  0  0  3  0  0  0  0  0  0
  -16.7290  -28.6090   23.1490 C   0  0  0  0  0  3  0  0  0  0  0  0
  -25.9050  -32.5510   23.8790 C   0  0  0  0  0  3  0  0  0  0  0  0
  -26.4070  -31.7930   25.1710 C   0  0  1  0  0  0  0  0  0  0  0  0
  -25.3030  -31.5720   26.2320 C   0  0  0  0  0  1  0  0  0  0  0  0
  -26.9910  -30.4080   24.8090 C   0  0  0  0  0  1  0  0  0  0  0  0
  -27.5530  -32.5940   25.8330 C   0  0  0  0  0  1  0  0  0  0  0  0
  -25.5900  -33.9520   24.2030 N   0  0  0  0  0  0  0  0  0  0  0  0
  -25.9130  -35.0060   23.4420 C   0  0  0  0  0  0  0  0  0  0  0  0
  -26.5700  -34.9020   22.4040 O   0  0  0  0  0  0  0  0  0  0  0  0
  -25.0030  -34.1070   25.0100 H   0  0  0  0  0  0  0  0  0  0  0  0
  -24.1760  -36.8020   23.1160 C   0  0  0  0  0  1  0  0  0  0  0  0
  -25.4320  -36.3980   23.9040 C   0  0  0  0  0  3  0  0  0  0  0  0
  -27.5760  -37.2960   24.6980 C   0  0  0  0  0  1  0  0  0  0  0  0
  -26.4610  -37.4520   23.7690 N   0  0  0  0  0  0  0  0  0  0  0  0
  -26.0550  -38.3730   23.9140 H   0  0  0  0  0  0  0  0  0  0  0  0
  -30.2010  -18.1270   20.1350 C   0  0  0  0  0  0  0  0  0  0  0  0
  -30.4880  -15.2790   20.2850 C   0  0  0  0  0  0  0  0  0  0  0  0
  -30.3990  -12.8750   19.3570 C   0  0  0  0  0  2  0  0  0  0  0  0
  -29.4650  -12.7360   18.1300 C   0  0  0  0  0  2  0  0  0  0  0  0
  -28.0180  -12.4740   18.5790 C   0  0  0  0  0  2  0  0  0  0  0  0
  -27.5920  -13.4090   19.7400 C   0  0  0  0  0  3  0  0  0  0  0  0
  -28.6540  -13.5120   20.8550 C   0  0  0  0  0  2  0  0  0  0  0  0
  -29.8870  -13.9960   20.2220 N   0  0  0  0  0  0  0  0  0  0  0  0
  -31.7010  -15.2630   20.0360 O   0  0  0  0  0  0  0  0  0  0  0  0
  -29.7710  -16.5600   20.4090 N   0  0  0  0  0  4  0  0  0  0  0  0
  -28.7870  -16.4450   20.5960 H   0  0  0  0  0  0  0  0  0  0  0  0
  -25.2230  -13.9510   20.5140 C   0  0  0  0  0  0  0  0  0  0  0  0
  -24.1680  -13.1660   20.8850 C   0  0  0  0  0  0  0  0  0  0  0  0
  -24.6420  -11.8190   20.8420 C   0  0  0  0  0  0  0  0  0  0  0  0
  -26.2690  -13.0840   20.2560 N   0  0  0  0  0  0  0  0  0  0  0  0
  -25.9310  -11.7950   20.5230 N   0  0  0  0  0  0  0  0  0  0  0  0
  -23.9220  -10.5510   21.0280 C   0  0  0  0  0  0  0  0  0  0  0  0
  -24.3580   -9.5830   21.9590 C   0  0  0  0  0  3  0  0  0  0  0  0
  -23.6360   -8.3830   22.1340 C   0  0  0  0  0  3  0  0  0  0  0  0
  -22.4640   -8.1410   21.3770 C   0  0  0  0  0  0  0  0  0  0  0  0
  -22.0480   -9.0990   20.4360 C   0  0  0  0  0  3  0  0  0  0  0  0
  -22.7710  -10.2910   20.2580 C   0  0  0  0  0  3  0  0  0  0  0  0
  -21.7130   -6.9930   21.4620 O   0  0  0  0  0  0  0  0  0  0  0  0
  -21.6540   -6.2560   22.6170 C   0  0  0  0  0  0  0  0  0  0  0  0
  -21.1860   -6.8070   23.8300 C   0  0  0  0  0  3  0  0  0  0  0  0
  -21.0750   -5.9940   24.9760 C   0  0  0  0  0  3  0  0  0  0  0  0
  -21.4220   -4.6320   24.9100 C   0  0  0  0  0  0  0  0  0  0  0  0
  -21.8830   -4.0800   23.7010 C   0  0  0  0  0  3  0  0  0  0  0  0
  -21.9950   -4.8900   22.5580 C   0  0  0  0  0  0  0  0  0  0  0  0
  -22.4190   -4.3480   21.3910 F   0  0  0  0  0  0  0  0  0  0  0  0
  -21.3090   -3.8490   26.0090 F   0  0  0  0  0  0  0  0  0  0  0  0
  -22.7690  -13.6330   21.1640 C   0  0  0  0  0  0  0  0  0  0  0  0
  -22.0500  -12.9320   22.0330 N   0  0  0  0  0  0  0  0  0  0  0  0
  -22.3240  -14.6570   20.6470 O   0  0  0  0  0  0  0  0  0  0  0  0
  -22.4250  -12.1050   22.4730 H   0  0  0  0  0  0  0  0  0  0  0  0
  -21.1120  -13.2280   22.2630 H   0  0  0  0  0  0  0  0  0  0  0  0
  -25.3750  -15.3240   20.3430 N   0  0  0  0  0  0  0  0  0  0  0  0
  -24.6000  -15.9690   20.4580 H   0  0  0  0  0  0  0  0  0  0  0  0
  -26.2050  -15.7680   19.9730 H   0  0  0  0  0  0  0  0  0  0  0  0
  -30.7930  -18.1180   18.7110 C   0  0  0  0  0  2  0  0  0  0  0  0
  -29.8240  -17.9170   17.8140 F   0  0  0  0  0  0  0  0  0  0  0  0
  2  1  2  0
  3  4  2  0
  4  1  1  0
  5  6  2  0
  5  2  1  0
  6  3  1  0
  7  6  1  0
  8  5  1  0
  8  9  1  0
 10 21  2  0
 11  9  1  0
 11 16  1  0
 12 20  1  0
 12 22  1  0
 13 19  1  0
 13 15  1  0
 14 20  1  0
 15 16  2  0
 15 14  1  0
 17 11  2  0
 18 17  1  0
 18 13  2  0
 19 12  1  0
 20 10  1  0
 22 24  2  0
 23 22  1  0
 25 23  1  0
 26 35  2  0
 26 31  1  0
 27 23  1  0
 27 31  1  0
 28 27  1  0
 29 30  1  0
 29 28  1  0
 30 26  1  0
 31 32  2  0
 32 33  1  0
 34 33  2  0
 35 34  1  0
 36 10  1  0
 36 41  1  0
 36 37  1  0
 37 40  1  1
 37 38  1  0
 39 37  1  0
 41 44  1  0
 42 46  1  0
 42 41  1  0
 43 42  2  0
 46 45  1  0
 48 46  1  0
 48 49  1  0
 48 47  1  0
 50  4  1  0
 50 59  2  0
 51 59  1  0
 52 57  1  0
 53 54  1  0
 53 52  1  0
 55 54  1  0
 55 64  1  0
 55 56  1  0
 57 51  1  0
 57 56  1  0
 58 51  2  0
 59 60  1  0
 61 62  2  0
 62 81  1  0
 63 62  1  0
 63 66  1  0
 64 61  1  0
 64 65  1  0
 65 63  2  0
 66 67  1  0
 67 68  2  0
 69 72  1  0
 69 68  1  0
 70 69  2  0
 71 70  1  0
 71 66  2  0
 72 73  1  0
 73 74  1  0
 74 75  2  0
 76 75  1  0
 76 80  1  0
 77 76  2  0
 78 73  2  0
 78 77  1  0
 79 78  1  0
 81 82  1  0
 82 85  1  0
 82 84  1  0
 83 81  2  0
 86 87  1  0
 86 61  1  0
 88 86  1  0
 89 50  1  0
 90 89  1  0
M  ISO  4   8 101   9 101  51 100  59 100
M  END
>  <TORSDO>  (19) 
F 19

>  <SCORE>  (19) 
-15.272

>  <name>  (19) 
18

>  <ligand_id>  (19) 
18

>  <original_smiles>  (19) 
[H]c1c([H])c([H])c2c(c1[H])C([H])([H])C([H])([H])C([H])([H])C2([H])N([H])C(=O)C1([H])N(C(=O)C([H])(N([H])C(=O)C([H])(N([H])C([H])([H])[H])C([H])([H])[H])C(C([H])([H])[H])(C([H])([H])[H])C([H])([H])[H])C([H])([H])c2c([H])c(OC([H])([H])c3c([H])c([H])c(C([H])(N([H])C(=O)N4C([H])([H])C([H])([H])C([H])([H])C([H])(n5nc(-c6c([H])c([H])c(Oc7c([H])c([H])c(F)c([H])c7F)c([H])c6[H])c(C(=O)N([H])[H])c5N([H])[H])C4([H])[H])C([H])([H])F)c([H])c3F)c([H])c([H])c2C1([H])[H]

>  <smiles>  (19) 
[H]c1c([H])c([H])c2c(c1[H])C([H])([H])C([H])([H])C([H])([H])C2([H])N([H])C(=O)C1([H])N(C(=O)C([H])(N([H])C(=O)C([H])(N([H])C([H])([H])[H])C([H])([H])[H])C(C([H])([H])[H])(C([H])([H])[H])C([H])([H])[H])C([H])([H])c2c([H])c(OC([H])([H])c3c([H])c([H])c(C([H])(N([H])C(=O)N4C([H])([H])C([H])([H])C([H])([H])C([H])(n5nc(-c6c([H])c([H])c(Oc7c([H])c([H])c(F)c([H])c7F)c([H])c6[H])c(C(=O)N([H])[H])c5N([H])[H])C4([H])[H])C([H])([H])F)c([H])c3F)c([H])c([H])c2C1([H])[H]

$$$$
19:0:0
     RDKit          3D

 95103  0  0  1  0  0  0  0  0999 V2000
  -29.5490  -21.9010   20.5450 C   0  0  0  0  0  2  0  0  0  0  0  0
  -29.4020  -18.4450   22.2540 C   0  0  0  0  0  2  0  0  0  0  0  0
  -28.5740  -18.2700   19.8340 C   0  0  0  0  0  2  0  0  0  0  0  0
  -29.9910  -19.8290   21.8860 C   0  0  0  0  0  2  0  0  0  0  0  0
  -29.2490  -19.6290   19.5680 C   0  0  0  0  0  2  0  0  0  0  0  0
  -29.1700  -17.5090   21.0420 C   0  0  0  0  0  3  0  0  0  0  0  0
  -29.2160  -20.4700   20.7910 N   0  0  2  0  0  4  0  0  0  0  0  0
  -28.2480  -20.4780   21.0760 H   0  0  0  0  0  0  0  0  0  0  0  0
  -30.9410  -14.4370   19.9350 C   0  0  0  0  0  0  0  0  0  0  0  0
  -30.5500  -12.3250   18.7270 C   0  0  0  0  0  2  0  0  0  0  0  0
  -29.4910  -12.5850   17.6350 C   0  0  0  0  0  2  0  0  0  0  0  0
  -28.0600  -12.4480   18.1970 C   0  0  0  0  0  2  0  0  0  0  0  0
  -27.8530  -13.2160   19.5300 C   0  0  0  0  0  3  0  0  0  0  0  0
  -29.0120  -12.9140   20.5100 C   0  0  0  0  0  2  0  0  0  0  0  0
  -30.2820  -13.2510   19.8350 N   0  0  0  0  0  0  0  0  0  0  0  0
  -32.0170  -14.6570   19.3680 O   0  0  0  0  0  0  0  0  0  0  0  0
  -30.4150  -16.7000   20.6420 C   0  0  0  0  0  0  0  0  0  0  0  0
  -30.2090  -15.3790   20.5440 N   0  0  0  0  0  0  0  0  0  0  0  0
  -31.4790  -17.2820   20.4070 O   0  0  0  0  0  0  0  0  0  0  0  0
  -29.3100  -15.0550   20.8590 H   0  0  0  0  0  0  0  0  0  0  0  0
  -25.5440  -13.7980   20.5170 C   0  0  0  0  0  0  0  0  0  0  0  0
  -24.5100  -13.0120   20.9530 C   0  0  0  0  0  0  0  0  0  0  0  0
  -24.9470  -11.6610   20.7880 C   0  0  0  0  0  0  0  0  0  0  0  0
  -26.5490  -12.9260   20.1260 N   0  0  0  0  0  0  0  0  0  0  0  0
  -26.1960  -11.6320   20.3400 N   0  0  0  0  0  0  0  0  0  0  0  0
  -24.2280  -10.3930   20.9680 C   0  0  0  0  0  0  0  0  0  0  0  0
  -24.6720   -9.4160   21.8870 C   0  0  0  0  0  3  0  0  0  0  0  0
  -23.9530   -8.2120   22.0550 C   0  0  0  0  0  3  0  0  0  0  0  0
  -22.7780   -7.9780   21.3030 C   0  0  0  0  0  0  0  0  0  0  0  0
  -22.3550   -8.9420   20.3720 C   0  0  0  0  0  3  0  0  0  0  0  0
  -23.0740  -10.1360   20.2010 C   0  0  0  0  0  3  0  0  0  0  0  0
  -22.0300   -6.8270   21.3810 O   0  0  0  0  0  0  0  0  0  0  0  0
  -21.8940   -6.1350   22.5580 C   0  0  0  0  0  0  0  0  0  0  0  0
  -21.3460   -6.7320   23.7150 C   0  0  0  0  0  3  0  0  0  0  0  0
  -21.1610   -5.9660   24.8830 C   0  0  0  0  0  3  0  0  0  0  0  0
  -21.5130   -4.6040   24.8950 C   0  0  0  0  0  0  0  0  0  0  0  0
  -22.0550   -4.0070   23.7440 C   0  0  0  0  0  3  0  0  0  0  0  0
  -22.2410   -4.7690   22.5770 C   0  0  0  0  0  0  0  0  0  0  0  0
  -22.7450   -4.1850   21.4640 F   0  0  0  0  0  0  0  0  0  0  0  0
  -21.3300   -3.8650   26.0140 F   0  0  0  0  0  0  0  0  0  0  0  0
  -23.1550  -13.4800   21.4010 C   0  0  0  0  0  0  0  0  0  0  0  0
  -22.5220  -12.7570   22.3180 N   0  0  0  0  0  0  0  0  0  0  0  0
  -22.6650  -14.5240   20.9690 O   0  0  0  0  0  0  0  0  0  0  0  0
  -22.9300  -11.9140   22.6930 H   0  0  0  0  0  0  0  0  0  0  0  0
  -21.6170  -13.0550   22.6530 H   0  0  0  0  0  0  0  0  0  0  0  0
  -25.7060  -15.1750   20.3940 N   0  0  0  0  0  0  0  0  0  0  0  0
  -24.9420  -15.8190   20.5630 H   0  0  0  0  0  0  0  0  0  0  0  0
  -26.4640  -15.6000   19.8770 H   0  0  0  0  0  0  0  0  0  0  0  0
  -28.6960  -22.8560   21.4120 C   0  0  0  0  0  2  0  0  0  0  0  0
  -29.5390  -25.2040   21.6650 C   0  0  0  0  0  0  0  0  0  0  0  0
  -28.8520  -24.2570   21.0190 N   0  0  0  0  0  0  0  0  0  0  0  0
  -30.2170  -24.9540   22.6640 O   0  0  0  0  0  0  0  0  0  0  0  0
  -28.3390  -24.5780   20.2090 H   0  0  0  0  0  0  0  0  0  0  0  0
  -29.4330  -26.6480   21.1390 C   0  0  0  0  0  2  0  0  0  0  0  0
  -28.5920  -26.6950   19.9760 O   0  0  0  0  0  0  0  0  0  0  0  0
  -24.7140  -31.7510   23.2230 C   0  0  0  0  0  0  0  0  0  0  0  0
  -27.4450  -27.4530   20.0390 C   0  0  0  0  0  0  0  0  0  0  0  0
  -23.5330  -30.3840   21.5300 C   0  0  0  0  0  3  0  0  0  0  0  0
  -25.0180  -28.9070   20.0710 C   0  0  0  0  0  0  0  0  0  0  0  0
  -26.0500  -30.7900   21.3550 C   0  0  0  0  0  2  0  0  0  0  0  0
  -26.1610  -29.4370   20.6830 C   0  0  0  0  0  0  0  0  0  0  0  0
  -27.3770  -28.7200   20.6670 C   0  0  0  0  0  3  0  0  0  0  0  0
  -26.2920  -26.9420   19.4100 C   0  0  0  0  0  3  0  0  0  0  0  0
  -25.0780  -27.6550   19.4300 C   0  0  0  0  0  3  0  0  0  0  0  0
  -23.7590  -29.7440   20.1340 C   0  0  0  0  0  2  0  0  0  0  0  0
  -24.7840  -30.9860   22.0970 N   0  0  0  0  0  0  0  0  0  0  0  0
  -23.6270  -31.9980   23.7620 O   0  0  0  0  0  0  0  0  0  0  0  0
  -22.8850  -29.3300   22.4570 C   0  0  0  0  0  0  0  0  0  0  0  0
  -21.5660  -29.1300   22.3040 N   0  0  0  0  0  0  0  0  0  0  0  0
  -23.5670  -28.6990   23.2700 O   0  0  0  0  0  0  0  0  0  0  0  0
  -21.0750  -29.6930   21.6230 H   0  0  0  0  0  0  0  0  0  0  0  0
  -18.2090  -27.8550   22.6990 C   0  0  0  0  0  0  0  0  0  0  0  0
  -20.7540  -28.1580   23.0340 C   0  0  0  0  0  3  0  0  0  0  0  0
  -20.9000  -26.7410   22.4300 C   0  0  0  0  0  2  0  0  0  0  0  0
  -19.8260  -26.4180   21.3840 C   0  0  0  0  0  2  0  0  0  0  0  0
  -18.4280  -26.5230   22.0000 C   0  0  0  0  0  2  0  0  0  0  0  0
  -19.3030  -28.6300   23.1710 C   0  0  0  0  0  0  0  0  0  0  0  0
  -19.0430  -29.8780   23.7780 C   0  0  0  0  0  3  0  0  0  0  0  0
  -17.7250  -30.3500   23.9220 C   0  0  0  0  0  3  0  0  0  0  0  0
  -16.6460  -29.5700   23.4690 C   0  0  0  0  0  3  0  0  0  0  0  0
  -16.8900  -28.3250   22.8620 C   0  0  0  0  0  3  0  0  0  0  0  0
  -25.9910  -32.3730   23.8690 C   0  0  0  0  0  3  0  0  0  0  0  0
  -26.5200  -31.5570   25.1130 C   0  0  1  0  0  0  0  0  0  0  0  0
  -25.4310  -31.2540   26.1690 C   0  0  0  0  0  1  0  0  0  0  0  0
  -27.1240  -30.2090   24.6570 C   0  0  0  0  0  1  0  0  0  0  0  0
  -27.6600  -32.3390   25.8060 C   0  0  0  0  0  1  0  0  0  0  0  0
  -25.6660  -33.7530   24.2540 N   0  0  0  0  0  0  0  0  0  0  0  0
  -25.9970  -34.8370   23.5400 C   0  0  0  0  0  0  0  0  0  0  0  0
  -26.6790  -34.7790   22.5120 O   0  0  0  0  0  0  0  0  0  0  0  0
  -25.0680  -33.8730   25.0580 H   0  0  0  0  0  0  0  0  0  0  0  0
  -24.2630  -36.6280   23.2200 C   0  0  0  0  0  1  0  0  0  0  0  0
  -25.4890  -36.2010   24.0420 C   0  0  0  0  0  3  0  0  0  0  0  0
  -27.5990  -37.0620   24.9580 C   0  0  0  0  0  1  0  0  0  0  0  0
  -26.5160  -37.2650   23.9980 N   0  0  0  0  0  0  0  0  0  0  0  0
  -26.1010  -38.1760   24.1740 H   0  0  0  0  0  0  0  0  0  0  0  0
  1  7  1  0
  1 49  1  0
  3  6  1  0
  4  2  1  0
  5  3  1  0
  5  7  1  0
  6 17  1  0
  6  2  1  0
  7  8  1  1
  7  4  1  0
  9 18  1  0
 10 15  1  0
 11 12  1  0
 11 10  1  0
 13 12  1  0
 13 24  1  0
 13 14  1  0
 15  9  1  0
 15 14  1  0
 16  9  2  0
 18 17  1  0
 18 20  1  0
 19 17  2  0
 21 22  2  0
 22 41  1  0
 23 22  1  0
 23 26  1  0
 24 25  1  0
 24 21  1  0
 25 23  2  0
 26 27  1  0
 27 28  2  0
 29 32  1  0
 29 28  1  0
 30 29  2  0
 31 30  1  0
 31 26  2  0
 32 33  1  0
 33 38  2  0
 33 34  1  0
 34 35  2  0
 35 36  1  0
 36 40  1  0
 37 36  2  0
 38 37  1  0
 39 38  1  0
 41 42  1  0
 42 45  1  0
 42 44  1  0
 43 41  2  0
 46 21  1  0
 46 47  1  0
 48 46  1  0
 50 52  2  0
 51 49  1  0
 51 50  1  0
 53 51  1  0
 54 50  1  0
 55 57  1  0
 55 54  1  0
 56 67  2  0
 57 62  1  0
 58 66  1  0
 58 68  1  0
 59 65  1  0
 59 61  1  0
 60 66  1  0
 61 60  1  0
 62 61  2  0
 63 64  1  0
 63 57  2  0
 64 59  2  0
 65 58  1  0
 66 56  1  0
 68 70  2  0
 69 68  1  0
 71 69  1  0
 72 81  2  0
 72 77  1  0
 73 69  1  0
 73 77  1  0
 74 73  1  0
 75 76  1  0
 75 74  1  0
 76 72  1  0
 77 78  2  0
 78 79  1  0
 80 79  2  0
 81 80  1  0
 82 56  1  0
 82 87  1  0
 82 83  1  0
 83 86  1  1
 83 84  1  0
 85 83  1  0
 87 90  1  0
 88 92  1  0
 88 87  1  0
 89 88  2  0
 92 91  1  0
 94 92  1  0
 94 95  1  0
 94 93  1  0
M  ISO  4   9 100  18 100  54 101  55 101
M  END
>  <TORSDO>  (20) 
F 20

>  <SCORE>  (20) 
-11.350

>  <name>  (20) 
19

>  <ligand_id>  (20) 
19

>  <original_smiles>  (20) 
[H]c1c([H])c([H])c2c(c1[H])C([H])([H])C([H])([H])C([H])([H])C2([H])N([H])C(=O)C1([H])N(C(=O)C([H])(N([H])C(=O)C([H])(N([H])C([H])([H])[H])C([H])([H])[H])C(C([H])([H])[H])(C([H])([H])[H])C([H])([H])[H])C([H])([H])c2c([H])c(OC([H])([H])C(=O)N([H])C([H])([H])C([H])([H])[N+]3([H])C([H])([H])C([H])([H])C([H])(C(=O)N([H])C(=O)N4C([H])([H])C([H])([H])C([H])([H])C([H])(n5nc(-c6c([H])c([H])c(Oc7c([H])c([H])c(F)c([H])c7F)c([H])c6[H])c(C(=O)N([H])[H])c5N([H])[H])C4([H])[H])C([H])([H])C3([H])[H])c([H])c([H])c2C1([H])[H]

>  <smiles>  (20) 
[H]c1c([H])c([H])c2c(c1[H])C([H])([H])C([H])([H])C([H])([H])C2([H])N([H])C(=O)C1([H])N(C(=O)C([H])(N([H])C(=O)C([H])(N([H])C([H])([H])[H])C([H])([H])[H])C(C([H])([H])[H])(C([H])([H])[H])C([H])([H])[H])C([H])([H])c2c([H])c(OC([H])([H])C(=O)N([H])C([H])([H])C([H])([H])[N+]3([H])C([H])([H])C([H])([H])C([H])(C(=O)N([H])C(=O)N4C([H])([H])C([H])([H])C([H])([H])C([H])(n5nc(-c6c([H])c([H])c(Oc7c([H])c([H])c(F)c([H])c7F)c([H])c6[H])c(C(=O)N([H])[H])c5N([H])[H])C4([H])[H])C([H])([H])C3([H])[H])c([H])c([H])c2C1([H])[H]

$$$$
20:0:0
     RDKit          3D

 94102  0  0  1  0  0  0  0  0999 V2000
  -29.4950  -19.8890   21.0690 C   0  0  0  0  0  2  0  0  0  0  0  0
  -28.3560  -19.0160   19.0310 C   0  0  0  0  0  3  0  0  0  0  0  0
  -29.1020  -16.3590   19.1990 C   0  0  0  0  0  3  0  0  0  0  0  0
  -29.1570  -18.6320   20.1500 C   0  0  0  0  0  0  0  0  0  0  0  0
  -29.4900  -17.1810   20.2860 C   0  0  0  0  0  0  0  0  0  0  0  0
  -27.8760  -18.1110   18.0740 C   0  0  0  0  0  0  0  0  0  0  0  0
  -28.2490  -16.7730   18.1650 C   0  0  0  0  0  0  0  0  0  0  0  0
  -27.0540  -18.5220   17.0780 F   0  0  0  0  0  0  0  0  0  0  0  0
  -27.7460  -15.8620   17.2950 F   0  0  0  0  0  0  0  0  0  0  0  0
  -30.7770  -15.2220   21.5220 C   0  0  0  0  0  0  0  0  0  0  0  0
  -30.8330  -12.8540   20.7130 C   0  0  0  0  0  2  0  0  0  0  0  0
  -30.1200  -12.7140   19.3510 C   0  0  0  0  0  2  0  0  0  0  0  0
  -28.5880  -12.5710   19.5310 C   0  0  0  0  0  2  0  0  0  0  0  0
  -27.9850  -13.5150   20.6080 C   0  0  0  0  0  3  0  0  0  0  0  0
  -28.8450  -13.5970   21.8810 C   0  0  0  0  0  2  0  0  0  0  0  0
  -30.1960  -13.9730   21.4530 N   0  0  0  0  0  0  0  0  0  0  0  0
  -32.0050  -15.3080   21.4610 O   0  0  0  0  0  0  0  0  0  0  0  0
  -30.0030  -16.3960   21.4510 N   0  0  0  0  0  0  0  0  0  0  0  0
  -29.5730  -16.6290   22.3340 H   0  0  0  0  0  0  0  0  0  0  0  0
  -25.5200  -14.0870   20.9440 C   0  0  0  0  0  0  0  0  0  0  0  0
  -24.4190  -13.2980   21.1170 C   0  0  0  0  0  0  0  0  0  0  0  0
  -24.8940  -11.9520   21.1580 C   0  0  0  0  0  0  0  0  0  0  0  0
  -26.5930  -13.2140   20.8840 N   0  0  0  0  0  0  0  0  0  0  0  0
  -26.2160  -11.9270   21.0770 N   0  0  0  0  0  0  0  0  0  0  0  0
  -24.1620  -10.6810   21.2070 C   0  0  0  0  0  0  0  0  0  0  0  0
  -24.4720   -9.6870   22.1630 C   0  0  0  0  0  3  0  0  0  0  0  0
  -23.7360   -8.4840   22.2030 C   0  0  0  0  0  3  0  0  0  0  0  0
  -22.6820   -8.2650   21.2860 C   0  0  0  0  0  0  0  0  0  0  0  0
  -22.3980   -9.2460   20.3180 C   0  0  0  0  0  3  0  0  0  0  0  0
  -23.1350  -10.4400   20.2730 C   0  0  0  0  0  3  0  0  0  0  0  0
  -21.9270   -7.1180   21.2430 O   0  0  0  0  0  0  0  0  0  0  0  0
  -21.7390   -6.3380   22.3570 C   0  0  0  0  0  0  0  0  0  0  0  0
  -21.1510   -6.8500   23.5350 C   0  0  0  0  0  3  0  0  0  0  0  0
  -20.9110   -5.9970   24.6280 C   0  0  0  0  0  3  0  0  0  0  0  0
  -21.2480   -4.6330   24.5470 C   0  0  0  0  0  0  0  0  0  0  0  0
  -21.8320   -4.1200   23.3750 C   0  0  0  0  0  3  0  0  0  0  0  0
  -22.0730   -4.9700   22.2820 C   0  0  0  0  0  0  0  0  0  0  0  0
  -22.6150   -4.4680   21.1460 F   0  0  0  0  0  0  0  0  0  0  0  0
  -21.0100   -3.8110   25.5960 F   0  0  0  0  0  0  0  0  0  0  0  0
  -22.9920  -13.7600   21.1460 C   0  0  0  0  0  0  0  0  0  0  0  0
  -22.1300  -13.0600   21.8770 N   0  0  0  0  0  0  0  0  0  0  0  0
  -22.6400  -14.7800   20.5530 O   0  0  0  0  0  0  0  0  0  0  0  0
  -22.4150  -12.2340   22.3860 H   0  0  0  0  0  0  0  0  0  0  0  0
  -21.1640  -13.3500   21.9270 H   0  0  0  0  0  0  0  0  0  0  0  0
  -25.6970  -15.4630   20.8130 N   0  0  0  0  0  0  0  0  0  0  0  0
  -24.9140  -16.1040   20.8360 H   0  0  0  0  0  0  0  0  0  0  0  0
  -26.5880  -15.9280   20.6990 H   0  0  0  0  0  0  0  0  0  0  0  0
  -29.4940  -21.2770   20.3760 N   0  0  0  0  0  4  0  0  0  0  0  0
  -28.9180  -21.1670   19.5610 H   0  0  0  0  0  0  0  0  0  0  0  0
  -30.4280  -21.4370   20.0330 H   0  0  0  0  0  0  0  0  0  0  0  0
  -29.0050  -22.5600   21.0760 C   0  0  0  0  0  2  0  0  0  0  0  0
  -28.9430  -23.9630   20.2360 C   0  0  0  0  0  3  0  0  0  0  0  0
  -28.4010  -25.3210   20.9500 C   0  0  0  0  0  3  0  0  0  0  0  0
  -28.5180  -26.7060   20.3560 O   0  0  0  0  0  0  0  0  0  0  0  0
  -24.6890  -32.0910   23.4190 C   0  0  0  0  0  0  0  0  0  0  0  0
  -27.4000  -27.5700   20.3490 C   0  0  0  0  0  0  0  0  0  0  0  0
  -23.5290  -30.6920   21.7450 C   0  0  0  0  0  3  0  0  0  0  0  0
  -25.0190  -29.1700   20.3240 C   0  0  0  0  0  0  0  0  0  0  0  0
  -26.0640  -31.0450   21.5980 C   0  0  0  0  0  2  0  0  0  0  0  0
  -26.1740  -29.6720   20.9360 C   0  0  0  0  0  0  0  0  0  0  0  0
  -27.3710  -28.8830   20.9380 C   0  0  0  0  0  3  0  0  0  0  0  0
  -26.2180  -27.1310   19.7170 C   0  0  0  0  0  3  0  0  0  0  0  0
  -25.0420  -27.9090   19.7080 C   0  0  0  0  0  3  0  0  0  0  0  0
  -23.7650  -30.0220   20.3650 C   0  0  0  0  0  2  0  0  0  0  0  0
  -24.7770  -31.2950   22.3090 N   0  0  0  0  0  0  0  0  0  0  0  0
  -23.5940  -32.3470   23.9460 O   0  0  0  0  0  0  0  0  0  0  0  0
  -22.8680  -29.6620   22.6930 C   0  0  0  0  0  0  0  0  0  0  0  0
  -21.5550  -29.4420   22.5160 N   0  0  0  0  0  0  0  0  0  0  0  0
  -23.5380  -29.0700   23.5460 O   0  0  0  0  0  0  0  0  0  0  0  0
  -21.0790  -29.9490   21.7860 H   0  0  0  0  0  0  0  0  0  0  0  0
  -18.2320  -28.0600   22.8760 C   0  0  0  0  0  0  0  0  0  0  0  0
  -20.7480  -28.4760   23.2650 C   0  0  0  0  0  3  0  0  0  0  0  0
  -20.9700  -27.0460   22.7210 C   0  0  0  0  0  2  0  0  0  0  0  0
  -19.9450  -26.6560   21.6510 C   0  0  0  0  0  2  0  0  0  0  0  0
  -18.5280  -26.7180   22.2330 C   0  0  0  0  0  2  0  0  0  0  0  0
  -19.2760  -28.8950   23.3450 C   0  0  0  0  0  0  0  0  0  0  0  0
  -18.9510  -30.1460   23.9160 C   0  0  0  0  0  3  0  0  0  0  0  0
  -17.6100  -30.5610   24.0230 C   0  0  0  0  0  3  0  0  0  0  0  0
  -16.5780  -29.7330   23.5520 C   0  0  0  0  0  3  0  0  0  0  0  0
  -16.8860  -28.4810   22.9870 C   0  0  0  0  0  3  0  0  0  0  0  0
  -25.9550  -32.7340   24.0650 C   0  0  0  0  0  3  0  0  0  0  0  0
  -25.6280  -34.1320   24.3860 N   0  0  0  0  0  0  0  0  0  0  0  0
  -25.9730  -35.1880   23.6390 C   0  0  0  0  0  0  0  0  0  0  0  0
  -26.6660  -35.0890   22.6220 O   0  0  0  0  0  0  0  0  0  0  0  0
  -25.0120  -34.2840   25.1700 H   0  0  0  0  0  0  0  0  0  0  0  0
  -24.2350  -36.9700   23.2510 C   0  0  0  0  0  1  0  0  0  0  0  0
  -25.4640  -36.5730   24.0860 C   0  0  0  0  0  3  0  0  0  0  0  0
  -27.5700  -37.4800   24.9630 C   0  0  0  0  0  1  0  0  0  0  0  0
  -26.4900  -37.6340   23.9940 N   0  0  0  0  0  0  0  0  0  0  0  0
  -26.0710  -38.5520   24.1250 H   0  0  0  0  0  0  0  0  0  0  0  0
  -26.4580  -31.9740   25.3550 C   0  0  1  0  0  0  0  0  0  0  0  0
  -25.3470  -31.7330   26.4000 C   0  0  0  0  0  1  0  0  0  0  0  0
  -27.0650  -30.5980   24.9880 C   0  0  0  0  0  1  0  0  0  0  0  0
  -27.5810  -32.7880   26.0430 C   0  0  0  0  0  1  0  0  0  0  0  0
  2  4  1  0
  3  5  1  0
  4  5  2  0
  4  1  1  0
  5 18  1  0
  6  7  1  0
  6  2  2  0
  7  3  2  0
  8  6  1  0
  9  7  1  0
 11 16  1  0
 12 13  1  0
 12 11  1  0
 14 13  1  0
 14 23  1  0
 14 15  1  0
 16 10  1  0
 16 15  1  0
 17 10  2  0
 18 10  1  0
 18 19  1  0
 20 21  2  0
 21 40  1  0
 21 22  1  0
 22 25  1  0
 23 20  1  0
 23 24  1  0
 24 22  2  0
 25 26  1  0
 26 27  2  0
 28 27  1  0
 29 28  2  0
 30 29  1  0
 30 25  2  0
 31 28  1  0
 31 32  1  0
 32 33  1  0
 33 34  2  0
 35 34  1  0
 35 39  1  0
 36 35  2  0
 37 32  2  0
 37 36  1  0
 38 37  1  0
 40 41  1  0
 41 44  1  0
 41 43  1  0
 42 40  2  0
 45 46  1  0
 45 20  1  0
 47 45  1  0
 48  1  1  0
 48 51  1  0
 49 48  1  0
 50 48  1  0
 52 53  2  0
 52 51  1  0
 54 53  1  0
 55 66  2  0
 56 54  1  0
 56 61  1  0
 57 65  1  0
 57 67  1  0
 58 64  1  0
 58 60  1  0
 59 65  1  0
 60 61  2  0
 60 59  1  0
 62 56  2  0
 63 62  1  0
 63 58  2  0
 64 57  1  0
 65 55  1  0
 67 69  2  0
 68 67  1  0
 70 68  1  0
 71 80  2  0
 71 76  1  0
 72 68  1  0
 72 76  1  0
 73 72  1  0
 74 75  1  0
 74 73  1  0
 75 71  1  0
 76 77  2  0
 77 78  1  0
 79 78  2  0
 80 79  1  0
 81 55  1  0
 81 82  1  0
 81 91  1  0
 82 85  1  0
 83 87  1  0
 83 82  1  0
 84 83  2  0
 87 86  1  0
 89 87  1  0
 89 90  1  0
 89 88  1  0
 91 94  1  1
 91 92  1  0
 93 91  1  0
M  ISO  4  10 100  18 100  53 101  54 101
M  END
>  <TORSDO>  (21) 
F 21

>  <SCORE>  (21) 
-9.176

>  <name>  (21) 
20

>  <ligand_id>  (21) 
20

>  <original_smiles>  (21) 
[H]c1c([H])c([H])c2c(c1[H])C([H])([H])C([H])([H])C([H])([H])C2([H])N([H])C(=O)C1([H])N(C(=O)C([H])(N([H])C(=O)C([H])(N([H])C([H])([H])[H])C([H])([H])[H])C(C([H])([H])[H])(C([H])([H])[H])C([H])([H])[H])C([H])([H])c2c([H])c(OC([H])([H])C([H])([H])C([H])([H])[N+]([H])([H])C([H])([H])c3c([H])c(F)c(F)c([H])c3N([H])C(=O)N3C([H])([H])C([H])([H])C([H])([H])C([H])(n4nc(-c5c([H])c([H])c(Oc6c([H])c([H])c(F)c([H])c6F)c([H])c5[H])c(C(=O)N([H])[H])c4N([H])[H])C3([H])[H])c([H])c([H])c2C1([H])[H]

>  <smiles>  (21) 
[H]c1c([H])c([H])c2c(c1[H])C([H])([H])C([H])([H])C([H])([H])C2([H])N([H])C(=O)C1([H])N(C(=O)C([H])(N([H])C(=O)C([H])(N([H])C([H])([H])[H])C([H])([H])[H])C(C([H])([H])[H])(C([H])([H])[H])C([H])([H])[H])C([H])([H])c2c([H])c(OC([H])([H])C([H])([H])C([H])([H])[N+]([H])([H])C([H])([H])c3c([H])c(F)c(F)c([H])c3N([H])C(=O)N3C([H])([H])C([H])([H])C([H])([H])C([H])(n4nc(-c5c([H])c([H])c(Oc6c([H])c([H])c(F)c([H])c6F)c([H])c5[H])c(C(=O)N([H])[H])c4N([H])[H])C3([H])[H])c([H])c([H])c2C1([H])[H]

$$$$
21:0:0
     RDKit          3D

 93101  0  0  1  0  0  0  0  0999 V2000
  -29.4640  -21.6710   19.3230 C   0  0  0  0  0  0  0  0  0  0  0  0
  -29.8760  -22.9420   19.5620 N   0  0  0  0  0  0  0  0  0  0  0  0
  -28.3210  -21.4240   18.9360 O   0  0  0  0  0  0  0  0  0  0  0  0
  -30.8330  -23.0640   19.8640 H   0  0  0  0  0  0  0  0  0  0  0  0
  -30.4440  -20.4790   19.5290 C   0  0  0  0  0  2  0  0  0  0  0  0
  -27.9280  -18.0450   21.0410 C   0  0  0  0  0  2  0  0  0  0  0  0
  -28.7790  -16.7830   21.2120 C   0  0  0  0  0  2  0  0  0  0  0  0
  -28.8370  -19.2740   20.9620 C   0  0  0  0  0  2  0  0  0  0  0  0
  -30.6130  -17.9310   19.8550 C   0  0  0  0  0  2  0  0  0  0  0  0
  -29.7760  -16.6020   20.0420 C   0  0  0  0  0  3  0  0  0  0  0  0
  -29.7430  -19.1740   19.7860 N   0  0  2  0  0  4  0  0  0  0  0  0
  -29.1340  -19.0690   18.9840 H   0  0  0  0  0  0  0  0  0  0  0  0
  -30.9540  -14.3450   19.4170 C   0  0  0  0  0  0  0  0  0  0  0  0
  -30.6160  -12.0560   18.5060 C   0  0  0  0  0  2  0  0  0  0  0  0
  -29.5280  -12.0880   17.4080 C   0  0  0  0  0  2  0  0  0  0  0  0
  -28.1130  -12.0090   18.0140 C   0  0  0  0  0  2  0  0  0  0  0  0
  -27.9180  -12.9930   19.1980 C   0  0  0  0  0  3  0  0  0  0  0  0
  -29.0840  -12.8520   20.2030 C   0  0  0  0  0  2  0  0  0  0  0  0
  -30.3470  -13.1240   19.4830 N   0  0  0  0  0  0  0  0  0  0  0  0
  -31.8910  -14.5890   18.6480 O   0  0  0  0  0  0  0  0  0  0  0  0
  -30.4390  -15.2790   20.2570 N   0  0  0  0  0  0  0  0  0  0  0  0
  -30.0160  -14.8050   21.0420 H   0  0  0  0  0  0  0  0  0  0  0  0
  -25.7210  -13.7630   20.3060 C   0  0  0  0  0  0  0  0  0  0  0  0
  -24.6350  -13.0680   20.7670 C   0  0  0  0  0  0  0  0  0  0  0  0
  -24.9320  -11.6870   20.5500 C   0  0  0  0  0  0  0  0  0  0  0  0
  -26.6180  -12.8080   19.8460 N   0  0  0  0  0  0  0  0  0  0  0  0
  -26.1520  -11.5490   20.0450 N   0  0  0  0  0  0  0  0  0  0  0  0
  -24.1020  -10.4890   20.7390 C   0  0  0  0  0  0  0  0  0  0  0  0
  -24.4110   -9.5320   21.7320 C   0  0  0  0  0  3  0  0  0  0  0  0
  -23.5890   -8.3990   21.9100 C   0  0  0  0  0  3  0  0  0  0  0  0
  -22.4480   -8.2140   21.0960 C   0  0  0  0  0  0  0  0  0  0  0  0
  -22.1540   -9.1610   20.0990 C   0  0  0  0  0  3  0  0  0  0  0  0
  -22.9750  -10.2860   19.9180 C   0  0  0  0  0  3  0  0  0  0  0  0
  -21.6050   -7.1320   21.1810 O   0  0  0  0  0  0  0  0  0  0  0  0
  -21.2440   -6.5910   22.3890 C   0  0  0  0  0  0  0  0  0  0  0  0
  -20.5960   -7.3560   23.3820 C   0  0  0  0  0  3  0  0  0  0  0  0
  -20.1800   -6.7450   24.5820 C   0  0  0  0  0  3  0  0  0  0  0  0
  -20.4040   -5.3710   24.7870 C   0  0  0  0  0  0  0  0  0  0  0  0
  -21.0470   -4.6060   23.7970 C   0  0  0  0  0  3  0  0  0  0  0  0
  -21.4630   -5.2140   22.6000 C   0  0  0  0  0  0  0  0  0  0  0  0
  -22.0620   -4.4680   21.6400 F   0  0  0  0  0  0  0  0  0  0  0  0
  -19.9990   -4.7830   25.9350 F   0  0  0  0  0  0  0  0  0  0  0  0
  -23.3530  -13.6490   21.2920 C   0  0  0  0  0  0  0  0  0  0  0  0
  -22.7070  -12.9690   22.2320 N   0  0  0  0  0  0  0  0  0  0  0  0
  -22.9420  -14.7410   20.9000 O   0  0  0  0  0  0  0  0  0  0  0  0
  -23.0490  -12.0830   22.5740 H   0  0  0  0  0  0  0  0  0  0  0  0
  -21.8560  -13.3470   22.6210 H   0  0  0  0  0  0  0  0  0  0  0  0
  -26.0110  -15.1190   20.2230 N   0  0  0  0  0  0  0  0  0  0  0  0
  -25.3440  -15.8260   20.5110 H   0  0  0  0  0  0  0  0  0  0  0  0
  -26.8420  -15.5060   19.7960 H   0  0  0  0  0  0  0  0  0  0  0  0
  -29.1060  -24.1990   19.3270 C   0  0  0  0  0  2  0  0  0  0  0  0
  -29.2410  -25.2720   20.4630 C   0  0  0  0  0  2  0  0  0  0  0  0
  -29.1770  -26.6680   20.0750 O   0  0  0  0  0  0  0  0  0  0  0  0
  -24.8700  -31.5170   23.1590 C   0  0  0  0  0  0  0  0  0  0  0  0
  -27.9530  -27.3200   20.0870 C   0  0  0  0  0  0  0  0  0  0  0  0
  -23.8450  -30.1030   21.4090 C   0  0  0  0  0  3  0  0  0  0  0  0
  -25.4640  -28.6910   20.0240 C   0  0  0  0  0  0  0  0  0  0  0  0
  -26.3510  -30.6100   21.3590 C   0  0  0  0  0  2  0  0  0  0  0  0
  -26.5580  -29.2630   20.6860 C   0  0  0  0  0  0  0  0  0  0  0  0
  -27.8070  -28.5890   20.7030 C   0  0  0  0  0  3  0  0  0  0  0  0
  -26.8400  -26.7670   19.4200 C   0  0  0  0  0  3  0  0  0  0  0  0
  -25.6020  -27.4440   19.3850 C   0  0  0  0  0  3  0  0  0  0  0  0
  -24.1690  -29.4760   20.0280 C   0  0  0  0  0  2  0  0  0  0  0  0
  -25.0390  -30.7590   22.0370 N   0  0  0  0  0  0  0  0  0  0  0  0
  -23.7460  -31.7060   23.6460 O   0  0  0  0  0  0  0  0  0  0  0  0
  -23.1980  -29.0210   22.3040 C   0  0  0  0  0  0  0  0  0  0  0  0
  -21.8940  -28.7730   22.0970 N   0  0  0  0  0  0  0  0  0  0  0  0
  -23.8670  -28.4040   23.1350 O   0  0  0  0  0  0  0  0  0  0  0  0
  -21.4150  -29.3210   21.3980 H   0  0  0  0  0  0  0  0  0  0  0  0
  -18.5740  -27.3780   22.3680 C   0  0  0  0  0  0  0  0  0  0  0  0
  -21.0960  -27.7590   22.7850 C   0  0  0  0  0  3  0  0  0  0  0  0
  -21.3090  -26.3690   22.1360 C   0  0  0  0  0  2  0  0  0  0  0  0
  -20.2790  -26.0460   21.0500 C   0  0  0  0  0  2  0  0  0  0  0  0
  -18.8610  -26.0820   21.6270 C   0  0  0  0  0  2  0  0  0  0  0  0
  -19.6230  -28.1720   22.9000 C   0  0  0  0  0  0  0  0  0  0  0  0
  -19.3040  -29.3850   23.5500 C   0  0  0  0  0  3  0  0  0  0  0  0
  -17.9680  -29.8070   23.6730 C   0  0  0  0  0  3  0  0  0  0  0  0
  -16.9310  -29.0110   23.1540 C   0  0  0  0  0  3  0  0  0  0  0  0
  -17.2340  -27.7980   22.5130 C   0  0  0  0  0  3  0  0  0  0  0  0
  -26.0770  -32.2020   23.8730 C   0  0  0  0  0  3  0  0  0  0  0  0
  -26.5490  -31.4350   25.1680 C   0  0  1  0  0  0  0  0  0  0  0  0
  -25.4040  -31.1070   26.1530 C   0  0  0  0  0  1  0  0  0  0  0  0
  -27.2410  -30.1050   24.7880 C   0  0  0  0  0  1  0  0  0  0  0  0
  -27.6020  -32.2780   25.9240 C   0  0  0  0  0  1  0  0  0  0  0  0
  -25.6770  -33.5770   24.2060 N   0  0  0  0  0  0  0  0  0  0  0  0
  -25.9880  -34.6580   23.4800 C   0  0  0  0  0  0  0  0  0  0  0  0
  -26.7180  -34.6060   22.4870 O   0  0  0  0  0  0  0  0  0  0  0  0
  -25.0330  -33.6870   24.9770 H   0  0  0  0  0  0  0  0  0  0  0  0
  -24.1900  -36.3610   23.0550 C   0  0  0  0  0  1  0  0  0  0  0  0
  -25.4050  -36.0110   23.9290 C   0  0  0  0  0  3  0  0  0  0  0  0
  -27.4350  -37.0000   24.8920 C   0  0  0  0  0  1  0  0  0  0  0  0
  -26.3860  -37.1190   23.8830 N   0  0  0  0  0  0  0  0  0  0  0  0
  -25.9230  -38.0150   24.0100 H   0  0  0  0  0  0  0  0  0  0  0  0
  1  5  1  0
  1  2  1  0
  2  4  1  0
  3  1  2  0
  5 11  1  0
  6  7  1  0
  8  6  1  0
  9 10  1  0
 10 21  1  0
 10  7  1  0
 11  9  1  0
 11  8  1  0
 11 12  1  6
 13 19  1  0
 13 21  1  0
 14 19  1  0
 15 16  1  0
 15 14  1  0
 17 16  1  0
 17 26  1  0
 17 18  1  0
 19 18  1  0
 20 13  2  0
 21 22  1  0
 23 24  2  0
 24 43  1  0
 25 28  1  0
 25 24  1  0
 26 27  1  0
 26 23  1  0
 27 25  2  0
 28 29  1  0
 29 30  2  0
 31 34  1  0
 31 30  1  0
 32 31  2  0
 33 32  1  0
 33 28  2  0
 34 35  1  0
 35 40  2  0
 35 36  1  0
 36 37  2  0
 37 38  1  0
 38 42  1  0
 39 38  2  0
 40 39  1  0
 41 40  1  0
 43 44  1  0
 44 46  1  0
 44 47  1  0
 45 43  2  0
 48 23  1  0
 48 49  1  0
 50 48  1  0
 51  2  1  0
 51 52  1  0
 53 55  1  0
 53 52  1  0
 54 65  2  0
 55 60  1  0
 56 64  1  0
 56 66  1  0
 57 63  1  0
 57 59  1  0
 58 64  1  0
 59 60  2  0
 59 58  1  0
 61 55  2  0
 62 61  1  0
 62 57  2  0
 63 56  1  0
 64 54  1  0
 66 68  2  0
 67 66  1  0
 69 67  1  0
 70 79  2  0
 70 75  1  0
 71 67  1  0
 71 75  1  0
 72 71  1  0
 73 74  1  0
 73 72  1  0
 74 70  1  0
 75 76  2  0
 76 77  1  0
 78 77  2  0
 79 78  1  0
 80 54  1  0
 80 85  1  0
 80 81  1  0
 81 84  1  1
 81 82  1  0
 83 81  1  0
 85 88  1  0
 86 90  1  0
 86 85  1  0
 87 86  2  0
 90 89  1  0
 92 90  1  0
 92 93  1  0
 92 91  1  0
M  ISO  4  13 100  21 100  52 101  53 101
M  END
>  <TORSDO>  (22) 
F 20

>  <SCORE>  (22) 
-10.006

>  <name>  (22) 
21

>  <ligand_id>  (22) 
21

>  <original_smiles>  (22) 
[H]c1c([H])c([H])c2c(c1[H])C([H])([H])C([H])([H])C([H])([H])C2([H])N([H])C(=O)C1([H])N(C(=O)C([H])(N([H])C(=O)C([H])(N([H])C([H])([H])[H])C([H])([H])[H])C(C([H])([H])[H])(C([H])([H])[H])C([H])([H])[H])C([H])([H])c2c([H])c(OC([H])([H])C([H])([H])N([H])C(=O)C([H])([H])[N+]3([H])C([H])([H])C([H])([H])C([H])([H])C([H])(N([H])C(=O)N4C([H])([H])C([H])([H])C([H])([H])C([H])(n5nc(-c6c([H])c([H])c(Oc7c([H])c([H])c(F)c([H])c7F)c([H])c6[H])c(C(=O)N([H])[H])c5N([H])[H])C4([H])[H])C3([H])[H])c([H])c([H])c2C1([H])[H]

>  <smiles>  (22) 
[H]c1c([H])c([H])c2c(c1[H])C([H])([H])C([H])([H])C([H])([H])C2([H])N([H])C(=O)C1([H])N(C(=O)C([H])(N([H])C(=O)C([H])(N([H])C([H])([H])[H])C([H])([H])[H])C(C([H])([H])[H])(C([H])([H])[H])C([H])([H])[H])C([H])([H])c2c([H])c(OC([H])([H])C([H])([H])N([H])C(=O)C([H])([H])[N+]3([H])C([H])([H])C([H])([H])C([H])([H])C([H])(N([H])C(=O)N4C([H])([H])C([H])([H])C([H])([H])C([H])(n5nc(-c6c([H])c([H])c(Oc7c([H])c([H])c(F)c([H])c7F)c([H])c6[H])c(C(=O)N([H])[H])c5N([H])[H])C4([H])[H])C3([H])[H])c([H])c([H])c2C1([H])[H]

$$$$
22:0:0
     RDKit          3D

 90 98  0  0  1  0  0  0  0  0999 V2000
  -28.9090  -21.2580   20.6900 C   0  0  0  0  0  3  0  0  0  0  0  0
  -29.2710  -19.8850   20.0450 C   0  0  0  0  0  0  0  0  0  0  0  0
  -28.6310  -22.6500   20.0440 C   0  0  0  0  0  0  0  0  0  0  0  0
  -29.3150  -20.0500   18.6430 C   0  0  0  0  0  0  0  0  0  0  0  0
  -28.7620  -22.5260   18.6440 C   0  0  0  0  0  0  0  0  0  0  0  0
  -29.0820  -21.2970   17.9900 C   0  0  0  0  0  0  0  0  0  0  0  0
  -29.6260  -18.9760   17.8780 F   0  0  0  0  0  0  0  0  0  0  0  0
  -28.5400  -23.6190   17.8750 F   0  0  0  0  0  0  0  0  0  0  0  0
  -29.1650  -21.3180   16.6380 F   0  0  0  0  0  0  0  0  0  0  0  0
  -29.7900  -18.3080   20.6720 C   0  0  0  0  0  2  0  0  0  0  0  0
  -30.3660  -15.3740   20.2550 C   0  0  0  0  0  0  0  0  0  0  0  0
  -30.3660  -12.9160   19.3600 C   0  0  0  0  0  2  0  0  0  0  0  0
  -29.4430  -12.6660   18.1390 C   0  0  0  0  0  2  0  0  0  0  0  0
  -27.9980  -12.3810   18.5870 C   0  0  0  0  0  2  0  0  0  0  0  0
  -27.5410  -13.3460   19.7090 C   0  0  0  0  0  3  0  0  0  0  0  0
  -28.5940  -13.5230   20.8220 C   0  0  0  0  0  2  0  0  0  0  0  0
  -29.8010  -14.0620   20.1680 N   0  0  0  0  0  0  0  0  0  0  0  0
  -31.5980  -15.3550   20.1090 O   0  0  0  0  0  0  0  0  0  0  0  0
  -29.5980  -16.6620   20.3090 N   0  0  0  0  0  0  0  0  0  0  0  0
  -28.6140  -16.4460   20.2530 H   0  0  0  0  0  0  0  0  0  0  0  0
  -25.1700  -13.8880   20.4720 C   0  0  0  0  0  0  0  0  0  0  0  0
  -24.1150  -13.1060   20.8450 C   0  0  0  0  0  0  0  0  0  0  0  0
  -24.5910  -11.7580   20.8180 C   0  0  0  0  0  0  0  0  0  0  0  0
  -26.2190  -13.0190   20.2280 N   0  0  0  0  0  0  0  0  0  0  0  0
  -25.8830  -11.7320   20.5070 N   0  0  0  0  0  0  0  0  0  0  0  0
  -23.8700  -10.4930   21.0130 C   0  0  0  0  0  0  0  0  0  0  0  0
  -24.3060   -9.5290   21.9480 C   0  0  0  0  0  3  0  0  0  0  0  0
  -23.5820   -8.3300   22.1310 C   0  0  0  0  0  3  0  0  0  0  0  0
  -22.4080   -8.0870   21.3810 C   0  0  0  0  0  0  0  0  0  0  0  0
  -21.9900   -9.0400   20.4350 C   0  0  0  0  0  3  0  0  0  0  0  0
  -22.7140  -10.2300   20.2490 C   0  0  0  0  0  3  0  0  0  0  0  0
  -21.6550   -6.9410   21.4750 O   0  0  0  0  0  0  0  0  0  0  0  0
  -21.6150   -6.1990   22.6270 C   0  0  0  0  0  0  0  0  0  0  0  0
  -21.1970   -6.7540   23.8570 C   0  0  0  0  0  3  0  0  0  0  0  0
  -21.1030   -5.9390   25.0020 C   0  0  0  0  0  3  0  0  0  0  0  0
  -21.4170   -4.5700   24.9190 C   0  0  0  0  0  0  0  0  0  0  0  0
  -21.8280   -4.0140   23.6950 C   0  0  0  0  0  3  0  0  0  0  0  0
  -21.9240   -4.8260   22.5520 C   0  0  0  0  0  0  0  0  0  0  0  0
  -22.3000   -4.2800   21.3710 F   0  0  0  0  0  0  0  0  0  0  0  0
  -21.3190   -3.7840   26.0180 F   0  0  0  0  0  0  0  0  0  0  0  0
  -22.7140  -13.5760   21.1080 C   0  0  0  0  0  0  0  0  0  0  0  0
  -21.9880  -12.8810   21.9760 N   0  0  0  0  0  0  0  0  0  0  0  0
  -22.2750  -14.5960   20.5780 O   0  0  0  0  0  0  0  0  0  0  0  0
  -22.3590  -12.0580   22.4260 H   0  0  0  0  0  0  0  0  0  0  0  0
  -21.0480  -13.1790   22.1950 H   0  0  0  0  0  0  0  0  0  0  0  0
  -25.3210  -15.2590   20.2890 N   0  0  0  0  0  0  0  0  0  0  0  0
  -24.5430  -15.9010   20.3960 H   0  0  0  0  0  0  0  0  0  0  0  0
  -26.1520  -15.7030   19.9210 H   0  0  0  0  0  0  0  0  0  0  0  0
  -28.0090  -24.2000   20.6360 C   0  0  0  0  0  2  0  0  0  0  0  0
  -28.2290  -25.8150   20.2640 O   0  0  0  0  0  0  0  0  0  0  0  0
  -24.6290  -31.8650   23.2000 C   0  0  0  0  0  0  0  0  0  0  0  0
  -27.2130  -26.9240   20.2660 C   0  0  0  0  0  0  0  0  0  0  0  0
  -23.4520  -30.4510   21.5650 C   0  0  0  0  0  3  0  0  0  0  0  0
  -24.9160  -28.8270   20.1770 C   0  0  0  0  0  0  0  0  0  0  0  0
  -26.0220  -30.6550   21.4420 C   0  0  0  0  0  2  0  0  0  0  0  0
  -26.1010  -29.2330   20.8040 C   0  0  0  0  0  0  0  0  0  0  0  0
  -27.2460  -28.3070   20.8150 C   0  0  0  0  0  3  0  0  0  0  0  0
  -25.9940  -26.6780   19.5960 C   0  0  0  0  0  3  0  0  0  0  0  0
  -24.8900  -27.5700   19.5520 C   0  0  0  0  0  3  0  0  0  0  0  0
  -23.6970  -29.7520   20.2000 C   0  0  0  0  0  2  0  0  0  0  0  0
  -24.7230  -31.0190   22.1230 N   0  0  0  0  0  0  0  0  0  0  0  0
  -23.5340  -32.1600   23.7060 O   0  0  0  0  0  0  0  0  0  0  0  0
  -22.7470  -29.4660   22.5360 C   0  0  0  0  0  0  0  0  0  0  0  0
  -21.4150  -29.3150   22.4150 N   0  0  0  0  0  0  0  0  0  0  0  0
  -23.4080  -28.8370   23.3670 O   0  0  0  0  0  0  0  0  0  0  0  0
  -20.9350  -29.8740   21.7240 H   0  0  0  0  0  0  0  0  0  0  0  0
  -18.0210  -28.1430   22.9430 C   0  0  0  0  0  0  0  0  0  0  0  0
  -20.5860  -28.3860   23.1910 C   0  0  0  0  0  3  0  0  0  0  0  0
  -20.6700  -26.9530   22.6170 C   0  0  0  0  0  2  0  0  0  0  0  0
  -19.5590  -26.6400   21.6100 C   0  0  0  0  0  2  0  0  0  0  0  0
  -18.1820  -26.7940   22.2620 C   0  0  0  0  0  2  0  0  0  0  0  0
  -19.1490  -28.8970   23.3650 C   0  0  0  0  0  0  0  0  0  0  0  0
  -18.9400  -30.1580   23.9660 C   0  0  0  0  0  3  0  0  0  0  0  0
  -17.6390  -30.6640   24.1470 C   0  0  0  0  0  3  0  0  0  0  0  0
  -16.5270  -29.9070   23.7380 C   0  0  0  0  0  3  0  0  0  0  0  0
  -16.7190  -28.6480   23.1420 C   0  0  0  0  0  3  0  0  0  0  0  0
  -25.8930  -32.5160   23.8400 C   0  0  0  0  0  3  0  0  0  0  0  0
  -25.5670  -33.9170   24.1650 N   0  0  0  0  0  0  0  0  0  0  0  0
  -25.9030  -34.9780   23.4170 C   0  0  0  0  0  0  0  0  0  0  0  0
  -26.5790  -34.8810   22.3900 O   0  0  0  0  0  0  0  0  0  0  0  0
  -24.9650  -34.0660   24.9600 H   0  0  0  0  0  0  0  0  0  0  0  0
  -24.1740  -36.7760   23.0670 C   0  0  0  0  0  1  0  0  0  0  0  0
  -25.4120  -36.3660   23.8790 C   0  0  0  0  0  3  0  0  0  0  0  0
  -27.5430  -37.2550   24.7220 C   0  0  0  0  0  1  0  0  0  0  0  0
  -26.4450  -37.4210   23.7740 N   0  0  0  0  0  0  0  0  0  0  0  0
  -26.0350  -38.3400   23.9210 H   0  0  0  0  0  0  0  0  0  0  0  0
  -26.3890  -31.7630   25.1350 C   0  0  1  0  0  0  0  0  0  0  0  0
  -25.2800  -31.5440   26.1910 C   0  0  0  0  0  1  0  0  0  0  0  0
  -26.9770  -30.3780   24.7810 C   0  0  0  0  0  1  0  0  0  0  0  0
  -27.5290  -32.5680   25.8030 C   0  0  0  0  0  1  0  0  0  0  0  0
  2 10  1  0
  2  1  1  0
  3 49  1  0
  3  1  2  0
  4  2  2  0
  5  3  1  0
  6  4  1  0
  6  5  2  0
  7  4  1  0
  8  5  1  0
  9  6  1  0
 11 19  1  0
 12 17  1  0
 13 14  1  0
 13 12  1  0
 15 14  1  0
 15 24  1  0
 15 16  1  0
 17 11  1  0
 17 16  1  0
 18 11  2  0
 19 10  1  0
 20 19  1  0
 21 22  2  0
 22 41  1  0
 23 22  1  0
 23 26  1  0
 24 21  1  0
 24 25  1  0
 25 23  2  0
 26 27  1  0
 27 28  2  0
 29 32  1  0
 29 28  1  0
 30 29  2  0
 31 30  1  0
 31 26  2  0
 32 33  1  0
 33 34  1  0
 34 35  2  0
 36 35  1  0
 36 40  1  0
 37 36  2  0
 38 33  2  0
 38 37  1  0
 39 38  1  0
 41 42  1  0
 42 45  1  0
 42 44  1  0
 43 41  2  0
 46 47  1  0
 46 21  1  0
 48 46  1  0
 50 52  1  0
 50 49  1  0
 51 62  2  0
 52 57  1  0
 53 61  1  0
 53 63  1  0
 54 60  1  0
 54 56  1  0
 55 61  1  0
 56 57  2  0
 56 55  1  0
 58 52  2  0
 59 58  1  0
 59 54  2  0
 60 53  1  0
 61 51  1  0
 63 65  2  0
 64 63  1  0
 66 64  1  0
 67 76  2  0
 67 72  1  0
 68 64  1  0
 68 72  1  0
 69 68  1  0
 70 71  1  0
 70 69  1  0
 71 67  1  0
 72 73  2  0
 73 74  1  0
 75 74  2  0
 76 75  1  0
 77 51  1  0
 77 78  1  0
 77 87  1  0
 78 81  1  0
 79 83  1  0
 79 78  1  0
 80 79  2  0
 83 82  1  0
 85 83  1  0
 85 86  1  0
 85 84  1  0
 87 90  1  1
 87 88  1  0
 89 87  1  0
M  ISO  4  11 100  19 100  49 101  50 101
M  END
>  <TORSDO>  (23) 
F 18

>  <SCORE>  (23) 
-16.803

>  <name>  (23) 
22

>  <ligand_id>  (23) 
22

>  <original_smiles>  (23) 
[H]c1c([H])c([H])c2c(c1[H])C([H])([H])C([H])([H])C([H])([H])C2([H])N([H])C(=O)C1([H])N(C(=O)C([H])(N([H])C(=O)C([H])(N([H])C([H])([H])[H])C([H])([H])[H])C(C([H])([H])[H])(C([H])([H])[H])C([H])([H])[H])C([H])([H])c2c([H])c(OC([H])([H])c3c([H])c(C([H])([H])N([H])C(=O)N4C([H])([H])C([H])([H])C([H])([H])C([H])(n5nc(-c6c([H])c([H])c(Oc7c([H])c([H])c(F)c([H])c7F)c([H])c6[H])c(C(=O)N([H])[H])c5N([H])[H])C4([H])[H])c(F)c(F)c3F)c([H])c([H])c2C1([H])[H]

>  <smiles>  (23) 
[H]c1c([H])c([H])c2c(c1[H])C([H])([H])C([H])([H])C([H])([H])C2([H])N([H])C(=O)C1([H])N(C(=O)C([H])(N([H])C(=O)C([H])(N([H])C([H])([H])[H])C([H])([H])[H])C(C([H])([H])[H])(C([H])([H])[H])C([H])([H])[H])C([H])([H])c2c([H])c(OC([H])([H])c3c([H])c(C([H])([H])N([H])C(=O)N4C([H])([H])C([H])([H])C([H])([H])C([H])(n5nc(-c6c([H])c([H])c(Oc7c([H])c([H])c(F)c([H])c7F)c([H])c6[H])c(C(=O)N([H])[H])c5N([H])[H])C4([H])[H])c(F)c(F)c3F)c([H])c([H])c2C1([H])[H]

$$$$
23:0:0
     RDKit          3D

 94102  0  0  1  0  0  0  0  0999 V2000
  -28.6080  -21.1150   20.7310 C   0  0  0  0  0  2  0  0  0  0  0  0
  -28.9010  -22.5870   21.0660 N   0  0  0  0  0  4  0  0  0  0  0  0
  -28.2650  -22.7460   21.8350 H   0  0  0  0  0  0  0  0  0  0  0  0
  -29.8070  -22.7120   21.4860 H   0  0  0  0  0  0  0  0  0  0  0  0
  -28.5910  -23.7540   20.1240 C   0  0  0  0  0  2  0  0  0  0  0  0
  -28.2730  -25.1490   20.8610 C   0  0  0  0  0  2  0  0  0  0  0  0
  -28.4270  -26.4740   20.2030 O   0  0  0  0  0  0  0  0  0  0  0  0
  -24.6730  -31.8620   23.2500 C   0  0  0  0  0  0  0  0  0  0  0  0
  -27.3150  -27.3240   20.1980 C   0  0  0  0  0  0  0  0  0  0  0  0
  -23.4860  -30.4690   21.5920 C   0  0  0  0  0  3  0  0  0  0  0  0
  -24.9510  -28.9240   20.1750 C   0  0  0  0  0  0  0  0  0  0  0  0
  -26.0250  -30.7940   21.4310 C   0  0  0  0  0  2  0  0  0  0  0  0
  -26.1150  -29.4180   20.7800 C   0  0  0  0  0  0  0  0  0  0  0  0
  -27.3040  -28.6310   20.7780 C   0  0  0  0  0  3  0  0  0  0  0  0
  -26.1330  -26.8780   19.5740 C   0  0  0  0  0  3  0  0  0  0  0  0
  -24.9610  -27.6600   19.5640 C   0  0  0  0  0  3  0  0  0  0  0  0
  -23.7130  -29.7980   20.2120 C   0  0  0  0  0  2  0  0  0  0  0  0
  -24.7460  -31.0600   22.1480 N   0  0  0  0  0  0  0  0  0  0  0  0
  -23.5830  -32.1360   23.7750 O   0  0  0  0  0  0  0  0  0  0  0  0
  -22.8160  -29.4490   22.5420 C   0  0  0  0  0  0  0  0  0  0  0  0
  -21.4930  -29.2680   22.4000 N   0  0  0  0  0  0  0  0  0  0  0  0
  -23.4890  -28.8190   23.3640 O   0  0  0  0  0  0  0  0  0  0  0  0
  -21.0100  -29.8270   21.7100 H   0  0  0  0  0  0  0  0  0  0  0  0
  -18.1150  -28.0550   22.8500 C   0  0  0  0  0  0  0  0  0  0  0  0
  -20.6670  -28.3270   23.1590 C   0  0  0  0  0  3  0  0  0  0  0  0
  -20.7850  -26.8970   22.5840 C   0  0  0  0  0  2  0  0  0  0  0  0
  -19.7000  -26.5690   21.5530 C   0  0  0  0  0  2  0  0  0  0  0  0
  -18.3090  -26.7070   22.1760 C   0  0  0  0  0  2  0  0  0  0  0  0
  -19.2230  -28.8230   23.2960 C   0  0  0  0  0  0  0  0  0  0  0  0
  -18.9900  -30.0850   23.8850 C   0  0  0  0  0  3  0  0  0  0  0  0
  -17.6810  -30.5800   24.0320 C   0  0  0  0  0  3  0  0  0  0  0  0
  -16.5860  -29.8100   23.6020 C   0  0  0  0  0  3  0  0  0  0  0  0
  -16.8030  -28.5500   23.0170 C   0  0  0  0  0  3  0  0  0  0  0  0
  -25.9480  -32.4940   23.8860 C   0  0  0  0  0  3  0  0  0  0  0  0
  -25.6330  -33.8900   24.2240 N   0  0  0  0  0  0  0  0  0  0  0  0
  -25.9700  -34.9490   23.4750 C   0  0  0  0  0  0  0  0  0  0  0  0
  -26.6490  -34.8540   22.4490 O   0  0  0  0  0  0  0  0  0  0  0  0
  -25.0330  -34.0360   25.0210 H   0  0  0  0  0  0  0  0  0  0  0  0
  -24.2410  -36.7430   23.1200 C   0  0  0  0  0  1  0  0  0  0  0  0
  -25.4770  -36.3340   23.9390 C   0  0  0  0  0  3  0  0  0  0  0  0
  -27.6020  -37.2170   24.7950 C   0  0  0  0  0  1  0  0  0  0  0  0
  -26.5070  -37.3900   23.8430 N   0  0  0  0  0  0  0  0  0  0  0  0
  -26.0970  -38.3070   23.9940 H   0  0  0  0  0  0  0  0  0  0  0  0
  -26.4550  -31.7160   25.1640 C   0  0  1  0  0  0  0  0  0  0  0  0
  -25.3540  -31.4730   26.2220 C   0  0  0  0  0  1  0  0  0  0  0  0
  -27.0400  -30.3410   24.7690 C   0  0  0  0  0  1  0  0  0  0  0  0
  -27.5970  -32.5090   25.8420 C   0  0  0  0  0  1  0  0  0  0  0  0
  -29.7730  -20.0510   20.3750 C   0  0  0  0  0  3  0  0  0  0  0  0
  -29.3360  -17.7660   21.7130 C   0  0  0  0  0  2  0  0  0  0  0  0
  -29.3280  -18.5070   20.4120 C   0  0  0  0  0  3  0  0  0  0  0  0
  -30.2070  -17.1760   20.6090 C   0  0  0  0  0  3  0  0  0  0  0  0
  -30.6370  -14.6830   20.0520 C   0  0  0  0  0  0  0  0  0  0  0  0
  -30.3940  -12.4490   18.9730 C   0  0  0  0  0  2  0  0  0  0  0  0
  -29.4000  -12.5730   17.7970 C   0  0  0  0  0  2  0  0  0  0  0  0
  -27.9460  -12.4130   18.2870 C   0  0  0  0  0  2  0  0  0  0  0  0
  -27.6370  -13.2750   19.5400 C   0  0  0  0  0  3  0  0  0  0  0  0
  -28.7370  -13.1180   20.6110 C   0  0  0  0  0  2  0  0  0  0  0  0
  -30.0150  -13.4640   19.9750 N   0  0  0  0  0  0  0  0  0  0  0  0
  -31.8130  -14.8240   19.6980 O   0  0  0  0  0  0  0  0  0  0  0  0
  -29.8390  -15.7620   20.3540 N   0  0  0  0  0  0  0  0  0  0  0  0
  -28.8700  -15.5270   20.5110 H   0  0  0  0  0  0  0  0  0  0  0  0
  -25.2830  -13.8850   20.3650 C   0  0  0  0  0  0  0  0  0  0  0  0
  -24.2280  -13.1140   20.7710 C   0  0  0  0  0  0  0  0  0  0  0  0
  -24.6810  -11.7610   20.7120 C   0  0  0  0  0  0  0  0  0  0  0  0
  -26.3110  -12.9980   20.0810 N   0  0  0  0  0  0  0  0  0  0  0  0
  -25.9570  -11.7170   20.3510 N   0  0  0  0  0  0  0  0  0  0  0  0
  -23.9580  -10.5000   20.9210 C   0  0  0  0  0  0  0  0  0  0  0  0
  -24.3940   -9.5430   21.8630 C   0  0  0  0  0  3  0  0  0  0  0  0
  -23.6670   -8.3470   22.0580 C   0  0  0  0  0  3  0  0  0  0  0  0
  -22.4920   -8.1010   21.3090 C   0  0  0  0  0  0  0  0  0  0  0  0
  -22.0760   -9.0470   20.3540 C   0  0  0  0  0  3  0  0  0  0  0  0
  -22.8030  -10.2340   20.1580 C   0  0  0  0  0  3  0  0  0  0  0  0
  -21.7390   -6.9580   21.4120 O   0  0  0  0  0  0  0  0  0  0  0  0
  -21.6550   -6.2540   22.5880 C   0  0  0  0  0  0  0  0  0  0  0  0
  -21.1860   -6.8460   23.7800 C   0  0  0  0  0  3  0  0  0  0  0  0
  -21.0520   -6.0680   24.9470 C   0  0  0  0  0  3  0  0  0  0  0  0
  -21.3760   -4.6980   24.9210 C   0  0  0  0  0  0  0  0  0  0  0  0
  -21.8410   -4.1060   23.7330 C   0  0  0  0  0  3  0  0  0  0  0  0
  -21.9760   -4.8810   22.5690 C   0  0  0  0  0  0  0  0  0  0  0  0
  -22.4040   -4.3020   21.4210 F   0  0  0  0  0  0  0  0  0  0  0  0
  -21.2410   -3.9470   26.0400 F   0  0  0  0  0  0  0  0  0  0  0  0
  -22.8440  -13.5970   21.0990 C   0  0  0  0  0  0  0  0  0  0  0  0
  -22.1450  -12.8990   21.9850 N   0  0  0  0  0  0  0  0  0  0  0  0
  -22.3920  -14.6270   20.6020 O   0  0  0  0  0  0  0  0  0  0  0  0
  -22.5230  -12.0670   22.4120 H   0  0  0  0  0  0  0  0  0  0  0  0
  -21.2160  -13.2030   22.2460 H   0  0  0  0  0  0  0  0  0  0  0  0
  -25.4470  -15.2560   20.1890 N   0  0  0  0  0  0  0  0  0  0  0  0
  -24.6790  -15.9050   20.3160 H   0  0  0  0  0  0  0  0  0  0  0  0
  -26.2620  -15.6870   19.7750 H   0  0  0  0  0  0  0  0  0  0  0  0
  -31.0830  -20.2940   21.1800 C   0  0  0  0  0  2  0  0  0  0  0  0
  -32.0980  -21.0630   20.4310 N   0  0  0  0  0  4  0  0  0  0  0  0
  -32.2640  -20.6450   19.5320 H   0  0  0  0  0  0  0  0  0  0  0  0
  -32.9700  -21.0470   20.9320 H   0  0  0  0  0  0  0  0  0  0  0  0
  -31.8450  -22.0230   20.2920 H   0  0  0  0  0  0  0  0  0  0  0  0
  1  2  1  0
  2  4  1  0
  2  3  1  0
  5  6  1  0
  5  2  1  0
  7  6  1  0
  8 19  2  0
  9  7  1  0
  9 14  1  0
 10 18  1  0
 10 20  1  0
 11 17  1  0
 11 13  1  0
 12 18  1  0
 13 12  1  0
 14 13  2  0
 15  9  2  0
 16 15  1  0
 16 11  2  0
 17 10  1  0
 18  8  1  0
 20 22  2  0
 21 20  1  0
 23 21  1  0
 24 33  2  0
 24 29  1  0
 25 21  1  0
 25 29  1  0
 26 25  1  0
 27 28  1  0
 27 26  1  0
 28 24  1  0
 29 30  2  0
 30 31  1  0
 32 31  2  0
 33 32  1  0
 34  8  1  0
 34 35  1  0
 34 44  1  0
 35 38  1  0
 36 40  1  0
 36 35  1  0
 37 36  2  0
 40 39  1  0
 42 40  1  0
 42 43  1  0
 42 41  1  0
 44 47  1  1
 44 45  1  0
 46 44  1  0
 48  1  1  0
 48 90  1  0
 50 48  1  0
 50 51  1  0
 50 49  1  0
 51 60  1  0
 51 49  1  0
 52 60  1  0
 53 58  1  0
 54 55  1  0
 54 53  1  0
 56 55  1  0
 56 65  1  0
 56 57  1  0
 58 52  1  0
 58 57  1  0
 59 52  2  0
 60 61  1  0
 62 63  2  0
 63 82  1  0
 64 63  1  0
 64 67  1  0
 65 66  1  0
 65 62  1  0
 66 64  2  0
 67 68  1  0
 68 69  2  0
 70 73  1  0
 70 69  1  0
 71 70  2  0
 72 71  1  0
 72 67  2  0
 73 74  1  0
 74 75  1  0
 75 76  2  0
 77 76  1  0
 77 81  1  0
 78 77  2  0
 79 74  2  0
 79 78  1  0
 80 79  1  0
 82 83  1  0
 83 86  1  0
 83 85  1  0
 84 82  2  0
 87 88  1  0
 87 62  1  0
 89 87  1  0
 91 93  1  0
 91 90  1  0
 92 91  1  0
 94 91  1  0
M  ISO  4   6 101   7 101  52 100  60 100
M  END
>  <TORSDO>  (24) 
F 23

>  <SCORE>  (24) 
-12.403

>  <name>  (24) 
23

>  <ligand_id>  (24) 
23

>  <original_smiles>  (24) 
[H]c1c([H])c([H])c2c(c1[H])C([H])([H])C([H])([H])C([H])([H])C2([H])N([H])C(=O)C1([H])N(C(=O)C([H])(N([H])C(=O)C([H])(N([H])C([H])([H])[H])C([H])([H])[H])C(C([H])([H])[H])(C([H])([H])[H])C([H])([H])[H])C([H])([H])c2c([H])c(OC([H])([H])C([H])([H])[N+]([H])([H])C([H])([H])C([H])(C3([H])C([H])([H])C3([H])N([H])C(=O)N3C([H])([H])C([H])([H])C([H])([H])C([H])(n4nc(-c5c([H])c([H])c(Oc6c([H])c([H])c(F)c([H])c6F)c([H])c5[H])c(C(=O)N([H])[H])c4N([H])[H])C3([H])[H])C([H])([H])[N+]([H])([H])[H])c([H])c([H])c2C1([H])[H]

>  <smiles>  (24) 
[H]c1c([H])c([H])c2c(c1[H])C([H])([H])C([H])([H])C([H])([H])C2([H])N([H])C(=O)C1([H])N(C(=O)C([H])(N([H])C(=O)C([H])(N([H])C([H])([H])[H])C([H])([H])[H])C(C([H])([H])[H])(C([H])([H])[H])C([H])([H])[H])C([H])([H])c2c([H])c(OC([H])([H])C([H])([H])[N+]([H])([H])C([H])([H])C([H])(C3([H])C([H])([H])C3([H])N([H])C(=O)N3C([H])([H])C([H])([H])C([H])([H])C([H])(n4nc(-c5c([H])c([H])c(Oc6c([H])c([H])c(F)c([H])c6F)c([H])c5[H])c(C(=O)N([H])[H])c4N([H])[H])C3([H])[H])C([H])([H])[N+]([H])([H])[H])c([H])c([H])c2C1([H])[H]

$$$$
24:0:0
     RDKit          3D

 88 96  0  0  1  0  0  0  0  0999 V2000
  -27.8940  -20.9890   19.5120 C   0  0  0  0  0  3  0  0  0  0  0  0
  -29.9650  -19.9190   20.8410 C   0  0  0  0  0  3  0  0  0  0  0  0
  -28.5200  -22.1740   20.1600 C   0  0  0  0  0  0  0  0  0  0  0  0
  -29.2980  -18.7430   20.1870 C   0  0  0  0  0  0  0  0  0  0  0  0
  -28.2140  -19.5050   19.5220 C   0  0  0  0  0  0  0  0  0  0  0  0
  -29.6270  -21.4280   20.8420 C   0  0  0  0  0  0  0  0  0  0  0  0
  -27.3520  -18.7400   18.8100 F   0  0  0  0  0  0  0  0  0  0  0  0
  -30.4500  -22.1900   21.6020 F   0  0  0  0  0  0  0  0  0  0  0  0
  -30.2630  -15.7180   20.2050 C   0  0  0  0  0  0  0  0  0  0  0  0
  -30.3860  -13.1840   19.3710 C   0  0  0  0  0  2  0  0  0  0  0  0
  -29.4730  -12.7830   18.1760 C   0  0  0  0  0  2  0  0  0  0  0  0
  -28.0530  -12.4250   18.6490 C   0  0  0  0  0  2  0  0  0  0  0  0
  -27.5550  -13.4170   19.7260 C   0  0  0  0  0  3  0  0  0  0  0  0
  -28.6050  -13.7180   20.8190 C   0  0  0  0  0  2  0  0  0  0  0  0
  -29.7640  -14.3480   20.1410 N   0  0  0  0  0  0  0  0  0  0  0  0
  -31.4990  -15.6930   20.0490 O   0  0  0  0  0  0  0  0  0  0  0  0
  -29.4270  -17.0220   20.2120 N   0  0  0  0  0  0  0  0  0  0  0  0
  -28.4830  -16.6750   20.1270 H   0  0  0  0  0  0  0  0  0  0  0  0
  -25.2060  -13.9250   20.5550 C   0  0  0  0  0  0  0  0  0  0  0  0
  -24.1570  -13.1330   20.9270 C   0  0  0  0  0  0  0  0  0  0  0  0
  -24.6340  -11.7880   20.8590 C   0  0  0  0  0  0  0  0  0  0  0  0
  -26.2500  -13.0660   20.2690 N   0  0  0  0  0  0  0  0  0  0  0  0
  -25.9210  -11.7700   20.5210 N   0  0  0  0  0  0  0  0  0  0  0  0
  -23.9150  -10.5160   21.0350 C   0  0  0  0  0  0  0  0  0  0  0  0
  -24.3400   -9.5490   21.9710 C   0  0  0  0  0  3  0  0  0  0  0  0
  -23.6190   -8.3460   22.1360 C   0  0  0  0  0  3  0  0  0  0  0  0
  -22.4550   -8.1040   21.3690 C   0  0  0  0  0  0  0  0  0  0  0  0
  -22.0490   -9.0600   20.4210 C   0  0  0  0  0  3  0  0  0  0  0  0
  -22.7700  -10.2540   20.2540 C   0  0  0  0  0  3  0  0  0  0  0  0
  -21.7040   -6.9560   21.4450 O   0  0  0  0  0  0  0  0  0  0  0  0
  -21.6120   -6.2330   22.6080 C   0  0  0  0  0  0  0  0  0  0  0  0
  -21.0670   -6.7850   23.7880 C   0  0  0  0  0  3  0  0  0  0  0  0
  -20.9280   -5.9850   24.9410 C   0  0  0  0  0  3  0  0  0  0  0  0
  -21.3170   -4.6330   24.9120 C   0  0  0  0  0  0  0  0  0  0  0  0
  -21.8540   -4.0800   23.7360 C   0  0  0  0  0  3  0  0  0  0  0  0
  -21.9980   -4.8770   22.5870 C   0  0  0  0  0  0  0  0  0  0  0  0
  -22.4960   -4.3310   21.4490 F   0  0  0  0  0  0  0  0  0  0  0  0
  -21.1780   -3.8630   26.0170 F   0  0  0  0  0  0  0  0  0  0  0  0
  -22.7610  -13.5980   21.2260 C   0  0  0  0  0  0  0  0  0  0  0  0
  -22.0490  -12.8900   22.0970 N   0  0  0  0  0  0  0  0  0  0  0  0
  -22.3120  -14.6250   20.7210 O   0  0  0  0  0  0  0  0  0  0  0  0
  -22.4310  -12.0640   22.5310 H   0  0  0  0  0  0  0  0  0  0  0  0
  -21.1120  -13.1810   22.3290 H   0  0  0  0  0  0  0  0  0  0  0  0
  -25.3510  -15.3010   20.4000 N   0  0  0  0  0  0  0  0  0  0  0  0
  -24.5710  -15.9390   20.5170 H   0  0  0  0  0  0  0  0  0  0  0  0
  -26.1720  -15.7460   20.0150 H   0  0  0  0  0  0  0  0  0  0  0  0
  -27.7970  -23.9000   20.1220 C   0  0  0  0  0  2  0  0  0  0  0  0
  -28.1150  -25.6070   20.3040 O   0  0  0  0  0  0  0  0  0  0  0  0
  -24.6400  -31.8990   23.2580 C   0  0  0  0  0  0  0  0  0  0  0  0
  -27.1530  -26.8260   20.2580 C   0  0  0  0  0  0  0  0  0  0  0  0
  -23.4450  -30.5020   21.6300 C   0  0  0  0  0  3  0  0  0  0  0  0
  -24.8860  -28.8550   20.2110 C   0  0  0  0  0  0  0  0  0  0  0  0
  -26.0230  -30.6420   21.4970 C   0  0  0  0  0  2  0  0  0  0  0  0
  -26.0830  -29.2110   20.8400 C   0  0  0  0  0  0  0  0  0  0  0  0
  -27.2040  -28.2250   20.8300 C   0  0  0  0  0  3  0  0  0  0  0  0
  -25.9160  -26.6760   19.5800 C   0  0  0  0  0  3  0  0  0  0  0  0
  -24.8380  -27.6130   19.5570 C   0  0  0  0  0  3  0  0  0  0  0  0
  -23.6790  -29.8030   20.2600 C   0  0  0  0  0  2  0  0  0  0  0  0
  -24.7270  -31.0460   22.1800 N   0  0  0  0  0  0  0  0  0  0  0  0
  -23.5500  -32.2000   23.7730 O   0  0  0  0  0  0  0  0  0  0  0  0
  -22.7300  -29.5250   22.6040 C   0  0  0  0  0  0  0  0  0  0  0  0
  -21.3990  -29.3610   22.4690 N   0  0  0  0  0  0  0  0  0  0  0  0
  -23.3830  -28.9140   23.4510 O   0  0  0  0  0  0  0  0  0  0  0  0
  -20.9210  -29.9000   21.7610 H   0  0  0  0  0  0  0  0  0  0  0  0
  -18.0170  -28.1300   22.9670 C   0  0  0  0  0  0  0  0  0  0  0  0
  -20.5740  -28.4270   23.2450 C   0  0  0  0  0  3  0  0  0  0  0  0
  -20.6930  -26.9900   22.6880 C   0  0  0  0  0  2  0  0  0  0  0  0
  -19.6010  -26.6450   21.6700 C   0  0  0  0  0  2  0  0  0  0  0  0
  -18.2130  -26.7790   22.3010 C   0  0  0  0  0  2  0  0  0  0  0  0
  -19.1250  -28.9100   23.3960 C   0  0  0  0  0  0  0  0  0  0  0  0
  -18.8850  -30.1720   23.9850 C   0  0  0  0  0  3  0  0  0  0  0  0
  -17.5720  -30.6560   24.1450 C   0  0  0  0  0  3  0  0  0  0  0  0
  -16.4800  -29.8740   23.7310 C   0  0  0  0  0  3  0  0  0  0  0  0
  -16.7030  -28.6130   23.1470 C   0  0  0  0  0  3  0  0  0  0  0  0
  -25.9070  -32.5480   23.8930 C   0  0  0  0  0  3  0  0  0  0  0  0
  -25.5950  -33.9540   24.2130 N   0  0  0  0  0  0  0  0  0  0  0  0
  -25.9230  -35.0090   23.4550 C   0  0  0  0  0  0  0  0  0  0  0  0
  -26.5810  -34.8990   22.4170 O   0  0  0  0  0  0  0  0  0  0  0  0
  -25.0060  -34.1110   25.0170 H   0  0  0  0  0  0  0  0  0  0  0  0
  -24.2000  -36.8190   23.1360 C   0  0  0  0  0  1  0  0  0  0  0  0
  -25.4570  -36.4060   23.9180 C   0  0  0  0  0  3  0  0  0  0  0  0
  -27.6040  -37.2990   24.7090 C   0  0  0  0  0  1  0  0  0  0  0  0
  -26.4940  -37.4530   23.7730 N   0  0  0  0  0  0  0  0  0  0  0  0
  -26.0950  -38.3790   23.9010 H   0  0  0  0  0  0  0  0  0  0  0  0
  -26.3940  -31.7990   25.1980 C   0  0  1  0  0  0  0  0  0  0  0  0
  -25.2810  -31.5960   26.2550 C   0  0  0  0  0  1  0  0  0  0  0  0
  -26.9690  -30.4050   24.8590 C   0  0  0  0  0  1  0  0  0  0  0  0
  -27.5440  -32.5940   25.8610 C   0  0  0  0  0  1  0  0  0  0  0  0
  1  5  2  0
  1  3  1  0
  2  6  1  0
  3  6  2  0
  4 17  1  0
  4  2  2  0
  5  4  1  0
  6  8  1  0
  7  5  1  0
  9 17  1  0
 10 15  1  0
 11 12  1  0
 11 10  1  0
 13 12  1  0
 13 22  1  0
 13 14  1  0
 15  9  1  0
 15 14  1  0
 16  9  2  0
 18 17  1  0
 19 20  2  0
 20 39  1  0
 21 20  1  0
 21 24  1  0
 22 23  1  0
 22 19  1  0
 23 21  2  0
 24 25  1  0
 25 26  2  0
 27 30  1  0
 27 26  1  0
 28 27  2  0
 29 28  1  0
 29 24  2  0
 30 31  1  0
 31 32  1  0
 32 33  2  0
 34 33  1  0
 34 38  1  0
 35 34  2  0
 36 31  2  0
 36 35  1  0
 37 36  1  0
 39 40  1  0
 40 43  1  0
 40 42  1  0
 41 39  2  0
 44 45  1  0
 44 19  1  0
 46 44  1  0
 47  3  1  0
 47 48  1  0
 49 60  2  0
 50 48  1  0
 50 55  1  0
 51 59  1  0
 51 61  1  0
 52 58  1  0
 52 54  1  0
 53 59  1  0
 54 53  1  0
 55 54  2  0
 56 50  2  0
 57 56  1  0
 57 52  2  0
 58 51  1  0
 59 49  1  0
 61 63  2  0
 62 61  1  0
 64 62  1  0
 65 74  2  0
 65 70  1  0
 66 62  1  0
 66 70  1  0
 67 66  1  0
 68 69  1  0
 68 67  1  0
 69 65  1  0
 70 71  2  0
 71 72  1  0
 73 72  2  0
 74 73  1  0
 75 49  1  0
 75 76  1  0
 75 85  1  0
 76 79  1  0
 77 81  1  0
 77 76  1  0
 78 77  2  0
 81 80  1  0
 83 84  1  0
 83 81  1  0
 83 82  1  0
 85 88  1  1
 85 86  1  0
 87 85  1  0
M  ISO  4   9 100  17 100  47 101  48 101
M  END
>  <TORSDO>  (25) 
F 17

>  <SCORE>  (25) 
-16.814

>  <name>  (25) 
24

>  <ligand_id>  (25) 
24

>  <original_smiles>  (25) 
[H]c1c([H])c([H])c2c(c1[H])C([H])([H])C([H])([H])C([H])([H])C2([H])N([H])C(=O)C1([H])N(C(=O)C([H])(N([H])C(=O)C([H])(N([H])C([H])([H])[H])C([H])([H])[H])C(C([H])([H])[H])(C([H])([H])[H])C([H])([H])[H])C([H])([H])c2c([H])c(OC([H])([H])c3c([H])c(F)c(N([H])C(=O)N4C([H])([H])C([H])([H])C([H])([H])C([H])(n5nc(-c6c([H])c([H])c(Oc7c([H])c([H])c(F)c([H])c7F)c([H])c6[H])c(C(=O)N([H])[H])c5N([H])[H])C4([H])[H])c([H])c3F)c([H])c([H])c2C1([H])[H]

>  <smiles>  (25) 
[H]c1c([H])c([H])c2c(c1[H])C([H])([H])C([H])([H])C([H])([H])C2([H])N([H])C(=O)C1([H])N(C(=O)C([H])(N([H])C(=O)C([H])(N([H])C([H])([H])[H])C([H])([H])[H])C(C([H])([H])[H])(C([H])([H])[H])C([H])([H])[H])C([H])([H])c2c([H])c(OC([H])([H])c3c([H])c(F)c(N([H])C(=O)N4C([H])([H])C([H])([H])C([H])([H])C([H])(n5nc(-c6c([H])c([H])c(Oc7c([H])c([H])c(F)c([H])c7F)c([H])c6[H])c(C(=O)N([H])[H])c5N([H])[H])C4([H])[H])c([H])c3F)c([H])c([H])c2C1([H])[H]

$$$$
25:0:0
     RDKit          3D

104114  0  0  1  0  0  0  0  0999 V2000
  -29.6300  -18.9270   19.9620 C   0  0  0  0  0  0  0  0  0  0  0  0
  -29.6880  -17.5780   20.0110 N   0  0  0  0  0  0  0  0  0  0  0  0
  -29.0430  -19.5800   20.8290 O   0  0  0  0  0  0  0  0  0  0  0  0
  -30.1750  -17.1040   19.2640 H   0  0  0  0  0  0  0  0  0  0  0  0
  -30.2750  -13.6170   21.4950 C   0  0  0  0  0  0  0  0  0  0  0  0
  -30.5140  -11.1500   21.4150 C   0  0  0  0  0  2  0  0  0  0  0  0
  -30.1500  -10.6170   20.0140 C   0  0  0  0  0  2  0  0  0  0  0  0
  -28.6410  -10.3340   19.9240 C   0  0  0  0  0  2  0  0  0  0  0  0
  -27.7870  -11.5210   20.4380 C   0  0  0  0  0  3  0  0  0  0  0  0
  -28.3020  -12.0340   21.8020 C   0  0  0  0  0  2  0  0  0  0  0  0
  -29.7250  -12.3760   21.6710 N   0  0  0  0  0  0  0  0  0  0  0  0
  -31.4820  -13.7260   21.2540 O   0  0  0  0  0  0  0  0  0  0  0  0
  -30.2510  -16.0260   21.9370 C   0  0  0  0  0  2  0  0  0  0  0  0
  -28.5990  -15.4090   20.7520 C   0  0  0  0  0  3  0  0  0  0  0  0
  -29.1910  -16.7630   21.1400 C   0  0  0  0  0  3  0  0  0  0  0  0
  -29.5280  -14.7450   21.7160 N   0  0  0  0  0  0  0  0  0  0  0  0
  -24.9710  -16.6360   20.8920 C   0  0  0  0  0  3  0  0  0  0  0  0
  -26.3420  -16.5170   20.5860 C   0  0  0  0  0  3  0  0  0  0  0  0
  -24.3330  -15.6430   21.6570 C   0  0  0  0  0  3  0  0  0  0  0  0
  -27.0930  -15.4070   21.0380 C   0  0  0  0  0  0  0  0  0  0  0  0
  -25.0780  -14.5540   22.1490 C   0  0  0  0  0  0  0  0  0  0  0  0
  -26.4550  -14.4470   21.8650 C   0  0  0  0  0  0  0  0  0  0  0  0
  -24.4720  -13.6190   22.9180 F   0  0  0  0  0  0  0  0  0  0  0  0
  -27.1540  -13.4280   22.4210 F   0  0  0  0  0  0  0  0  0  0  0  0
  -25.2710  -11.8970   20.0600 C   0  0  0  0  0  0  0  0  0  0  0  0
  -24.1800  -11.1060   20.2800 C   0  0  0  0  0  0  0  0  0  0  0  0
  -24.6840   -9.8880   20.8260 C   0  0  0  0  0  0  0  0  0  0  0  0
  -26.3690  -11.1720   20.4920 N   0  0  0  0  0  0  0  0  0  0  0  0
  -25.9980   -9.9680   21.0010 N   0  0  0  0  0  0  0  0  0  0  0  0
  -23.9980   -8.6270   21.1330 C   0  0  0  0  0  0  0  0  0  0  0  0
  -24.4060   -7.8050   22.2060 C   0  0  0  0  0  3  0  0  0  0  0  0
  -23.7180   -6.6080   22.4930 C   0  0  0  0  0  3  0  0  0  0  0  0
  -22.6070   -6.2230   21.7060 C   0  0  0  0  0  0  0  0  0  0  0  0
  -22.2190   -7.0320   20.6240 C   0  0  0  0  0  3  0  0  0  0  0  0
  -22.9080   -8.2220   20.3360 C   0  0  0  0  0  3  0  0  0  0  0  0
  -21.8950   -5.0640   21.8940 O   0  0  0  0  0  0  0  0  0  0  0  0
  -21.7190   -4.5220   23.1430 C   0  0  0  0  0  0  0  0  0  0  0  0
  -21.0750   -5.2340   24.1800 C   0  0  0  0  0  3  0  0  0  0  0  0
  -20.8540   -4.6140   25.4260 C   0  0  0  0  0  3  0  0  0  0  0  0
  -21.2670   -3.2840   25.6350 C   0  0  0  0  0  0  0  0  0  0  0  0
  -21.9020   -2.5730   24.6020 C   0  0  0  0  0  3  0  0  0  0  0  0
  -22.1250   -3.1900   23.3590 C   0  0  0  0  0  0  0  0  0  0  0  0
  -22.7190   -2.4940   22.3600 F   0  0  0  0  0  0  0  0  0  0  0  0
  -21.0470   -2.6850   26.8290 F   0  0  0  0  0  0  0  0  0  0  0  0
  -22.7590  -11.4240   19.9100 C   0  0  0  0  0  0  0  0  0  0  0  0
  -21.8000  -10.9920   20.7200 N   0  0  0  0  0  0  0  0  0  0  0  0
  -22.4920  -12.1040   18.9190 O   0  0  0  0  0  0  0  0  0  0  0  0
  -22.0170  -10.4530   21.5440 H   0  0  0  0  0  0  0  0  0  0  0  0
  -20.8350  -11.2070   20.5130 H   0  0  0  0  0  0  0  0  0  0  0  0
  -25.4220  -13.1550   19.5000 N   0  0  0  0  0  0  0  0  0  0  0  0
  -24.6210  -13.7080   19.2200 H   0  0  0  0  0  0  0  0  0  0  0  0
  -26.2850  -13.6800   19.5030 H   0  0  0  0  0  0  0  0  0  0  0  0
  -31.8410  -19.3020   18.6780 C   0  0  0  0  0  2  0  0  0  0  0  0
  -32.1280  -20.5350   19.5420 C   0  0  0  0  0  2  0  0  0  0  0  0
  -30.3520  -19.6750   18.7950 C   0  0  0  0  0  3  0  0  0  0  0  0
  -30.8210  -21.0580   19.1160 N   0  0  0  0  0  0  0  0  0  0  0  0
  -30.9930  -22.0080   17.9890 C   0  0  0  0  0  2  0  0  0  0  0  0
  -29.6780  -22.7360   17.5780 C   0  0  0  0  0  3  0  0  0  0  0  0
  -29.7590  -23.2910   16.2070 N   0  0  0  0  0  4  0  0  0  0  0  0
  -30.3980  -24.0680   16.1750 H   0  0  0  0  0  0  0  0  0  0  0  0
  -28.8620  -23.6160   15.8920 H   0  0  0  0  0  0  0  0  0  0  0  0
  -30.0750  -22.5960   15.5530 H   0  0  0  0  0  0  0  0  0  0  0  0
  -29.1640  -23.7960   18.6040 C   0  0  0  0  0  2  0  0  0  0  0  0
  -29.4000  -25.1880   18.2740 O   0  0  0  0  0  0  0  0  0  0  0  0
  -25.4530  -28.9390   22.9020 C   0  0  0  0  0  0  0  0  0  0  0  0
  -28.2990  -25.9980   18.4780 C   0  0  0  0  0  0  0  0  0  0  0  0
  -24.4020  -28.4370   20.7220 C   0  0  0  0  0  3  0  0  0  0  0  0
  -25.9660  -27.5420   18.9160 C   0  0  0  0  0  0  0  0  0  0  0  0
  -26.9460  -28.6640   20.9220 C   0  0  0  0  0  2  0  0  0  0  0  0
  -27.0690  -27.6860   19.7680 C   0  0  0  0  0  0  0  0  0  0  0  0
  -28.2440  -26.9270   19.5480 C   0  0  0  0  0  3  0  0  0  0  0  0
  -27.1840  -25.8860   17.6200 C   0  0  0  0  0  3  0  0  0  0  0  0
  -26.0200  -26.6430   17.8380 C   0  0  0  0  0  3  0  0  0  0  0  0
  -24.7460  -28.3840   19.2110 C   0  0  0  0  0  2  0  0  0  0  0  0
  -25.6130  -28.6670   21.5750 N   0  0  0  0  0  0  0  0  0  0  0  0
  -24.3260  -29.0370   23.4050 O   0  0  0  0  0  0  0  0  0  0  0  0
  -23.6220  -27.1570   21.0970 C   0  0  0  0  0  0  0  0  0  0  0  0
  -22.2970  -27.1740   20.8750 N   0  0  0  0  0  0  0  0  0  0  0  0
  -24.2080  -26.1700   21.5500 O   0  0  0  0  0  0  0  0  0  0  0  0
  -21.8920  -28.0240   20.5080 H   0  0  0  0  0  0  0  0  0  0  0  0
  -18.8080  -26.2360   20.8070 C   0  0  0  0  0  0  0  0  0  0  0  0
  -21.3700  -26.0700   21.1180 C   0  0  0  0  0  3  0  0  0  0  0  0
  -21.3480  -25.0890   19.9220 C   0  0  0  0  0  2  0  0  0  0  0  0
  -20.2510  -25.4050   18.9010 C   0  0  0  0  0  2  0  0  0  0  0  0
  -18.8720  -25.3640   19.5640 C   0  0  0  0  0  2  0  0  0  0  0  0
  -19.9820  -26.5790   21.5270 C   0  0  0  0  0  0  0  0  0  0  0  0
  -19.8720  -27.4220   22.6550 C   0  0  0  0  0  3  0  0  0  0  0  0
  -18.6190  -27.9120   23.0670 C   0  0  0  0  0  3  0  0  0  0  0  0
  -17.4570  -27.5540   22.3610 C   0  0  0  0  0  3  0  0  0  0  0  0
  -17.5530  -26.7150   21.2360 C   0  0  0  0  0  3  0  0  0  0  0  0
  -26.6780  -29.1640   23.8430 C   0  0  0  0  0  3  0  0  0  0  0  0
  -26.3800  -30.3310   24.6820 N   0  0  0  0  0  0  0  0  0  0  0  0
  -26.8970  -31.5540   24.4970 C   0  0  0  0  0  0  0  0  0  0  0  0
  -27.7390  -31.8000   23.6280 O   0  0  0  0  0  0  0  0  0  0  0  0
  -25.6570  -30.2170   25.3780 H   0  0  0  0  0  0  0  0  0  0  0  0
  -25.4010  -33.5700   24.6580 C   0  0  0  0  0  1  0  0  0  0  0  0
  -26.3980  -32.6830   25.4200 C   0  0  0  0  0  3  0  0  0  0  0  0
  -28.3230  -32.8130   26.9390 C   0  0  0  0  0  1  0  0  0  0  0  0
  -27.4890  -33.5170   25.9690 N   0  0  0  0  0  0  0  0  0  0  0  0
  -27.1160  -34.3500   26.4170 H   0  0  0  0  0  0  0  0  0  0  0  0
  -27.0160  -27.9060   24.7330 C   0  0  1  0  0  0  0  0  0  0  0  0
  -25.8020  -27.3520   25.5150 C   0  0  0  0  0  1  0  0  0  0  0  0
  -27.5810  -26.7580   23.8660 C   0  0  0  0  0  1  0  0  0  0  0  0
  -28.1170  -28.2700   25.7570 C   0  0  0  0  0  1  0  0  0  0  0  0
  1  2  1  0
  1  3  2  0
  4  2  1  0
  5 11  1  0
  5 16  1  0
  6 11  1  0
  7  6  1  0
  8  7  1  0
  9  8  1  0
  9 28  1  0
  9 10  1  0
 11 10  1  0
 12  5  2  0
 14 20  1  0
 14 15  1  0
 14 16  1  0
 15  2  1  0
 15 13  1  0
 16 13  1  0
 17 19  1  0
 18 17  2  0
 18 20  1  0
 19 21  2  0
 20 22  2  0
 21 23  1  0
 22 21  1  0
 22 24  1  0
 25 26  2  0
 25 28  1  0
 26 27  1  0
 27 29  2  0
 27 30  1  0
 28 29  1  0
 30 31  1  0
 31 32  2  0
 33 36  1  0
 33 32  1  0
 34 33  2  0
 35 34  1  0
 35 30  2  0
 36 37  1  0
 37 42  2  0
 37 38  1  0
 38 39  2  0
 39 40  1  0
 40 44  1  0
 41 40  2  0
 42 41  1  0
 43 42  1  0
 45 26  1  0
 45 46  1  0
 46 48  1  0
 47 45  2  0
 49 46  1  0
 50 52  1  0
 50 25  1  0
 51 50  1  0
 53 55  1  0
 53 54  1  0
 55 56  1  0
 55  1  1  0
 56 54  1  0
 57 56  1  0
 58 57  1  0
 58 63  1  0
 59 58  1  0
 60 59  1  0
 61 59  1  0
 62 59  1  0
 64 66  1  0
 64 63  1  0
 65 76  2  0
 66 71  1  0
 67 77  1  0
 67 75  1  0
 68 74  1  0
 68 70  1  0
 69 75  1  0
 70 69  1  0
 71 70  2  0
 72 73  1  0
 72 66  2  0
 73 68  2  0
 74 67  1  0
 75 65  1  0
 77 79  2  0
 78 77  1  0
 80 78  1  0
 81 90  2  0
 81 86  1  0
 82 78  1  0
 82 86  1  0
 83 82  1  0
 84 85  1  0
 84 83  1  0
 85 81  1  0
 86 87  2  0
 87 88  1  0
 89 88  2  0
 90 89  1  0
 91 65  1  0
 91 92  1  0
 91101  1  0
 92 95  1  0
 93 92  1  0
 93 97  1  0
 94 93  2  0
 97 96  1  0
 97 99  1  0
 99100  1  0
 99 98  1  0
101102  1  1
101104  1  0
103101  1  0
M  ISO  4   5 100  16 100  63 101  64 101
M  END
>  <TORSDO>  (26) 
F 22

>  <SCORE>  (26) 
1.479

>  <name>  (26) 
25

>  <ligand_id>  (26) 
25

>  <original_smiles>  (26) 
[H]c1c([H])c([H])c2c(c1[H])C([H])([H])C([H])([H])C([H])([H])C2([H])N([H])C(=O)C1([H])N(C(=O)C([H])(N([H])C(=O)C([H])(N([H])C([H])([H])[H])C([H])([H])[H])C(C([H])([H])[H])(C([H])([H])[H])C([H])([H])[H])C([H])([H])c2c([H])c(OC([H])([H])C([H])(C([H])([H])N3C([H])([H])C([H])([H])C3([H])C(=O)N([H])C3([H])C([H])([H])N(C(=O)N4C([H])([H])C([H])([H])C([H])([H])C([H])(n5nc(-c6c([H])c([H])c(Oc7c([H])c([H])c(F)c([H])c7F)c([H])c6[H])c(C(=O)N([H])[H])c5N([H])[H])C4([H])[H])C3([H])c3c([H])c([H])c([H])c(F)c3F)[N+]([H])([H])[H])c([H])c([H])c2C1([H])[H]

>  <smiles>  (26) 
[H]c1c([H])c([H])c2c(c1[H])C([H])([H])C([H])([H])C([H])([H])C2([H])N([H])C(=O)C1([H])N(C(=O)C([H])(N([H])C(=O)C([H])(N([H])C([H])([H])[H])C([H])([H])[H])C(C([H])([H])[H])(C([H])([H])[H])C([H])([H])[H])C([H])([H])c2c([H])c(OC([H])([H])C([H])(C([H])([H])N3C([H])([H])C([H])([H])C3([H])C(=O)N([H])C3([H])C([H])([H])N(C(=O)N4C([H])([H])C([H])([H])C([H])([H])C([H])(n5nc(-c6c([H])c([H])c(Oc7c([H])c([H])c(F)c([H])c7F)c([H])c6[H])c(C(=O)N([H])[H])c5N([H])[H])C4([H])[H])C3([H])c3c([H])c([H])c([H])c(F)c3F)[N+]([H])([H])[H])c([H])c([H])c2C1([H])[H]

$$$$
26:0:0
     RDKit          3D

 89 97  0  0  1  0  0  0  0  0999 V2000
  -29.6370  -20.9910   18.7760 C   0  0  0  0  0  3  0  0  0  0  0  0
  -30.1570  -19.7980   18.1930 C   0  0  0  0  0  3  0  0  0  0  0  0
  -29.0930  -19.5970   20.6640 C   0  0  0  0  0  3  0  0  0  0  0  0
  -29.0610  -21.0440   20.0650 C   0  0  0  0  0  0  0  0  0  0  0  0
  -29.6320  -18.2490   20.0820 C   0  0  0  0  0  0  0  0  0  0  0  0
  -30.1640  -18.5070   18.7950 C   0  0  0  0  0  0  0  0  0  0  0  0
  -30.6620  -17.4770   18.0680 F   0  0  0  0  0  0  0  0  0  0  0  0
  -30.3630  -15.3840   20.3180 C   0  0  0  0  0  0  0  0  0  0  0  0
  -30.3910  -12.8970   19.5110 C   0  0  0  0  0  2  0  0  0  0  0  0
  -29.5020  -12.6440   18.2650 C   0  0  0  0  0  2  0  0  0  0  0  0
  -28.0500  -12.3570   18.6820 C   0  0  0  0  0  2  0  0  0  0  0  0
  -27.5660  -13.3340   19.7810 C   0  0  0  0  0  3  0  0  0  0  0  0
  -28.5890  -13.5280   20.9230 C   0  0  0  0  0  2  0  0  0  0  0  0
  -29.8220  -14.0540   20.3120 N   0  0  0  0  0  0  0  0  0  0  0  0
  -31.5760  -15.3710   20.0510 O   0  0  0  0  0  0  0  0  0  0  0  0
  -29.6080  -16.6670   20.5360 N   0  0  0  0  0  0  0  0  0  0  0  0
  -28.7440  -16.4490   21.0090 H   0  0  0  0  0  0  0  0  0  0  0  0
  -25.1840  -13.8810   20.4940 C   0  0  0  0  0  0  0  0  0  0  0  0
  -24.1190  -13.1010   20.8510 C   0  0  0  0  0  0  0  0  0  0  0  0
  -24.5930  -11.7530   20.8360 C   0  0  0  0  0  0  0  0  0  0  0  0
  -26.2340  -13.0090   20.2710 N   0  0  0  0  0  0  0  0  0  0  0  0
  -25.8900  -11.7230   20.5450 N   0  0  0  0  0  0  0  0  0  0  0  0
  -23.8660  -10.4900   21.0210 C   0  0  0  0  0  0  0  0  0  0  0  0
  -24.2840   -9.5270   21.9670 C   0  0  0  0  0  3  0  0  0  0  0  0
  -23.5540   -8.3310   22.1420 C   0  0  0  0  0  3  0  0  0  0  0  0
  -22.3920   -8.0890   21.3720 C   0  0  0  0  0  0  0  0  0  0  0  0
  -21.9930   -9.0400   20.4150 C   0  0  0  0  0  3  0  0  0  0  0  0
  -22.7240  -10.2260   20.2380 C   0  0  0  0  0  3  0  0  0  0  0  0
  -21.6360   -6.9450   21.4540 O   0  0  0  0  0  0  0  0  0  0  0  0
  -21.5690   -6.2090   22.6110 C   0  0  0  0  0  0  0  0  0  0  0  0
  -21.1250   -6.7710   23.8270 C   0  0  0  0  0  3  0  0  0  0  0  0
  -21.0050   -5.9610   24.9740 C   0  0  0  0  0  3  0  0  0  0  0  0
  -21.3180   -4.5910   24.9060 C   0  0  0  0  0  0  0  0  0  0  0  0
  -21.7560   -4.0280   23.6940 C   0  0  0  0  0  3  0  0  0  0  0  0
  -21.8770   -4.8350   22.5490 C   0  0  0  0  0  0  0  0  0  0  0  0
  -22.2780   -4.2830   21.3780 F   0  0  0  0  0  0  0  0  0  0  0  0
  -21.1970   -3.8110   26.0060 F   0  0  0  0  0  0  0  0  0  0  0  0
  -22.7170  -13.5750   21.0900 C   0  0  0  0  0  0  0  0  0  0  0  0
  -21.9730  -12.8820   21.9460 N   0  0  0  0  0  0  0  0  0  0  0  0
  -22.2890  -14.5980   20.5560 O   0  0  0  0  0  0  0  0  0  0  0  0
  -22.3340  -12.0560   22.4000 H   0  0  0  0  0  0  0  0  0  0  0  0
  -21.0310  -13.1830   22.1510 H   0  0  0  0  0  0  0  0  0  0  0  0
  -25.3430  -15.2510   20.3100 N   0  0  0  0  0  0  0  0  0  0  0  0
  -24.5690  -15.9000   20.4020 H   0  0  0  0  0  0  0  0  0  0  0  0
  -26.1860  -15.6900   19.9610 H   0  0  0  0  0  0  0  0  0  0  0  0
  -28.6200  -22.6440   20.6280 C   0  0  0  0  0  0  0  0  0  0  0  0
  -28.6100  -22.7480   21.8580 O   0  0  0  0  0  0  0  0  0  0  0  0
  -28.1290  -24.1640   19.8300 C   0  0  0  0  0  2  0  0  0  0  0  0
  -28.1850  -25.7680   20.3330 O   0  0  0  0  0  0  0  0  0  0  0  0
  -24.6280  -31.8330   23.1890 C   0  0  0  0  0  0  0  0  0  0  0  0
  -27.1940  -26.8980   20.2030 C   0  0  0  0  0  0  0  0  0  0  0  0
  -23.4420  -30.4270   21.5540 C   0  0  0  0  0  3  0  0  0  0  0  0
  -24.8980  -28.8110   20.1380 C   0  0  0  0  0  0  0  0  0  0  0  0
  -26.0110  -30.6250   21.4210 C   0  0  0  0  0  2  0  0  0  0  0  0
  -26.0820  -29.2070   20.7700 C   0  0  0  0  0  0  0  0  0  0  0  0
  -27.2190  -28.2700   20.7810 C   0  0  0  0  0  3  0  0  0  0  0  0
  -25.9830  -26.6730   19.5070 C   0  0  0  0  0  3  0  0  0  0  0  0
  -24.8770  -27.5660   19.4850 C   0  0  0  0  0  3  0  0  0  0  0  0
  -23.6780  -29.7360   20.1810 C   0  0  0  0  0  2  0  0  0  0  0  0
  -24.7150  -30.9910   22.1080 N   0  0  0  0  0  0  0  0  0  0  0  0
  -23.5350  -32.1260   23.7050 O   0  0  0  0  0  0  0  0  0  0  0  0
  -22.7420  -29.4390   22.5240 C   0  0  0  0  0  0  0  0  0  0  0  0
  -21.4100  -29.2840   22.4060 N   0  0  0  0  0  0  0  0  0  0  0  0
  -23.4050  -28.8120   23.3530 O   0  0  0  0  0  0  0  0  0  0  0  0
  -20.9260  -29.8410   21.7150 H   0  0  0  0  0  0  0  0  0  0  0  0
  -18.0230  -28.0910   22.9330 C   0  0  0  0  0  0  0  0  0  0  0  0
  -20.5850  -28.3510   23.1810 C   0  0  0  0  0  3  0  0  0  0  0  0
  -20.6780  -26.9170   22.6070 C   0  0  0  0  0  2  0  0  0  0  0  0
  -19.5690  -26.5980   21.5980 C   0  0  0  0  0  2  0  0  0  0  0  0
  -18.1920  -26.7440   22.2510 C   0  0  0  0  0  2  0  0  0  0  0  0
  -19.1450  -28.8530   23.3560 C   0  0  0  0  0  0  0  0  0  0  0  0
  -18.9300  -30.1110   23.9590 C   0  0  0  0  0  3  0  0  0  0  0  0
  -17.6260  -30.6090   24.1400 C   0  0  0  0  0  3  0  0  0  0  0  0
  -16.5180  -29.8470   23.7300 C   0  0  0  0  0  3  0  0  0  0  0  0
  -16.7180  -28.5890   23.1330 C   0  0  0  0  0  3  0  0  0  0  0  0
  -25.8940  -32.4830   23.8240 C   0  0  0  0  0  3  0  0  0  0  0  0
  -25.5700  -33.8820   24.1580 N   0  0  0  0  0  0  0  0  0  0  0  0
  -25.9020  -34.9470   23.4150 C   0  0  0  0  0  0  0  0  0  0  0  0
  -26.5740  -34.8560   22.3860 O   0  0  0  0  0  0  0  0  0  0  0  0
  -24.9710  -34.0260   24.9570 H   0  0  0  0  0  0  0  0  0  0  0  0
  -24.1700  -36.7480   23.0850 C   0  0  0  0  0  1  0  0  0  0  0  0
  -25.4150  -36.3340   23.8880 C   0  0  0  0  0  3  0  0  0  0  0  0
  -27.5490  -37.2180   24.7230 C   0  0  0  0  0  1  0  0  0  0  0  0
  -26.4450  -37.3900   23.7820 N   0  0  0  0  0  0  0  0  0  0  0  0
  -26.0370  -38.3080   23.9370 H   0  0  0  0  0  0  0  0  0  0  0  0
  -26.3990  -31.7250   25.1150 C   0  0  1  0  0  0  0  0  0  0  0  0
  -25.2960  -31.4990   26.1760 C   0  0  0  0  0  1  0  0  0  0  0  0
  -26.9850  -30.3410   24.7500 C   0  0  0  0  0  1  0  0  0  0  0  0
  -27.5440  -32.5240   25.7780 C   0  0  0  0  0  1  0  0  0  0  0  0
  1  4  1  0
  2  1  2  0
  2  6  1  0
  4 46  1  0
  4  3  2  0
  5 16  1  0
  5  3  1  0
  6  5  2  0
  7  6  1  0
  8 16  1  0
  9 14  1  0
 10 11  1  0
 10  9  1  0
 12 11  1  0
 12 21  1  0
 12 13  1  0
 14  8  1  0
 14 13  1  0
 15  8  2  0
 16 17  1  0
 18 19  2  0
 19 38  1  0
 20 19  1  0
 20 23  1  0
 21 18  1  0
 21 22  1  0
 22 20  2  0
 23 24  1  0
 24 25  2  0
 26 29  1  0
 26 25  1  0
 27 26  2  0
 28 27  1  0
 28 23  2  0
 29 30  1  0
 30 31  1  0
 31 32  2  0
 33 32  1  0
 33 37  1  0
 34 33  2  0
 35 30  2  0
 35 34  1  0
 36 35  1  0
 38 39  1  0
 39 42  1  0
 39 41  1  0
 40 38  2  0
 43 44  1  0
 43 18  1  0
 45 43  1  0
 46 47  2  0
 48 49  1  0
 48 46  1  0
 50 61  2  0
 51 49  1  0
 51 56  1  0
 52 60  1  0
 52 62  1  0
 53 59  1  0
 53 55  1  0
 54 60  1  0
 55 56  2  0
 55 54  1  0
 57 51  2  0
 58 57  1  0
 58 53  2  0
 59 52  1  0
 60 50  1  0
 62 64  2  0
 63 62  1  0
 65 63  1  0
 66 75  2  0
 66 71  1  0
 67 63  1  0
 67 71  1  0
 68 67  1  0
 69 70  1  0
 69 68  1  0
 70 66  1  0
 71 72  2  0
 72 73  1  0
 74 73  2  0
 75 74  1  0
 76 50  1  0
 76 77  1  0
 76 86  1  0
 77 80  1  0
 78 82  1  0
 78 77  1  0
 79 78  2  0
 82 81  1  0
 84 82  1  0
 84 85  1  0
 84 83  1  0
 86 89  1  1
 86 87  1  0
 88 86  1  0
M  ISO  4   8 100  16 100  48 101  49 101
M  END
>  <TORSDO>  (27) 
F 18

>  <SCORE>  (27) 
-16.135

>  <name>  (27) 
26

>  <ligand_id>  (27) 
26

>  <original_smiles>  (27) 
[H]c1c([H])c([H])c2c(c1[H])C([H])([H])C([H])([H])C([H])([H])C2([H])N([H])C(=O)C1([H])N(C(=O)C([H])(N([H])C(=O)C([H])(N([H])C([H])([H])[H])C([H])([H])[H])C(C([H])([H])[H])(C([H])([H])[H])C([H])([H])[H])C([H])([H])c2c([H])c(OC([H])([H])C(=O)c3c([H])c([H])c(F)c(N([H])C(=O)N4C([H])([H])C([H])([H])C([H])([H])C([H])(n5nc(-c6c([H])c([H])c(Oc7c([H])c([H])c(F)c([H])c7F)c([H])c6[H])c(C(=O)N([H])[H])c5N([H])[H])C4([H])[H])c3[H])c([H])c([H])c2C1([H])[H]

>  <smiles>  (27) 
[H]c1c([H])c([H])c2c(c1[H])C([H])([H])C([H])([H])C([H])([H])C2([H])N([H])C(=O)C1([H])N(C(=O)C([H])(N([H])C(=O)C([H])(N([H])C([H])([H])[H])C([H])([H])[H])C(C([H])([H])[H])(C([H])([H])[H])C([H])([H])[H])C([H])([H])c2c([H])c(OC([H])([H])C(=O)c3c([H])c([H])c(F)c(N([H])C(=O)N4C([H])([H])C([H])([H])C([H])([H])C([H])(n5nc(-c6c([H])c([H])c(Oc7c([H])c([H])c(F)c([H])c7F)c([H])c6[H])c(C(=O)N([H])[H])c5N([H])[H])C4([H])[H])c3[H])c([H])c([H])c2C1([H])[H]

$$$$
27:0:0
     RDKit          3D

 95104  0  0  1  0  0  0  0  0999 V2000
  -31.1210  -22.7880   20.5550 N   0  0  0  0  0  4  0  0  0  0  0  0
  -31.9030  -23.3290   20.2250 H   0  0  0  0  0  0  0  0  0  0  0  0
  -31.0380  -22.9800   21.5390 H   0  0  0  0  0  0  0  0  0  0  0  0
  -31.8490  -20.6040   21.5400 C   0  0  0  0  0  2  0  0  0  0  0  0
  -30.4300  -20.4110   21.0440 C   0  0  0  0  0  3  0  0  0  0  0  0
  -31.3690  -21.3510   20.3130 C   0  0  0  0  0  3  0  0  0  0  0  0
  -29.0470  -17.9690   18.4780 C   0  0  0  0  0  3  0  0  0  0  0  0
  -29.4500  -19.1570   19.1090 C   0  0  0  0  0  3  0  0  0  0  0  0
  -29.2100  -16.7380   19.1350 C   0  0  0  0  0  3  0  0  0  0  0  0
  -30.1630  -17.8880   21.0670 C   0  0  0  0  0  3  0  0  0  0  0  0
  -30.0120  -19.1270   20.4030 C   0  0  0  0  0  0  0  0  0  0  0  0
  -29.7800  -16.6900   20.4270 C   0  0  0  0  0  0  0  0  0  0  0  0
  -30.6660  -14.4550   20.5810 C   0  0  0  0  0  0  0  0  0  0  0  0
  -30.4060  -12.3060   19.4250 C   0  0  0  0  0  2  0  0  0  0  0  0
  -29.4820  -12.5390   18.2120 C   0  0  0  0  0  2  0  0  0  0  0  0
  -28.0010  -12.3970   18.6170 C   0  0  0  0  0  2  0  0  0  0  0  0
  -27.6430  -13.2150   19.8870 C   0  0  0  0  0  3  0  0  0  0  0  0
  -28.6810  -12.9650   21.0070 C   0  0  0  0  0  2  0  0  0  0  0  0
  -30.0190  -13.2660   20.4680 N   0  0  0  0  0  0  0  0  0  0  0  0
  -31.7930  -14.6680   20.1240 O   0  0  0  0  0  0  0  0  0  0  0  0
  -29.9210  -15.4460   21.0910 N   0  0  0  0  0  0  0  0  0  0  0  0
  -29.0930  -15.1210   21.5610 H   0  0  0  0  0  0  0  0  0  0  0  0
  -25.2260  -13.8190   20.5350 C   0  0  0  0  0  0  0  0  0  0  0  0
  -24.1550  -13.0430   20.8880 C   0  0  0  0  0  0  0  0  0  0  0  0
  -24.6250  -11.6940   20.8780 C   0  0  0  0  0  0  0  0  0  0  0  0
  -26.2810  -12.9410   20.3360 N   0  0  0  0  0  0  0  0  0  0  0  0
  -25.9210  -11.6600   20.5950 N   0  0  0  0  0  0  0  0  0  0  0  0
  -23.9060  -10.4290   21.0650 C   0  0  0  0  0  0  0  0  0  0  0  0
  -24.3420   -9.4610   21.9970 C   0  0  0  0  0  3  0  0  0  0  0  0
  -23.6240   -8.2590   22.1680 C   0  0  0  0  0  3  0  0  0  0  0  0
  -22.4560   -8.0150   21.4080 C   0  0  0  0  0  0  0  0  0  0  0  0
  -22.0390   -8.9710   20.4650 C   0  0  0  0  0  3  0  0  0  0  0  0
  -22.7590  -10.1660   20.2910 C   0  0  0  0  0  3  0  0  0  0  0  0
  -21.7080   -6.8660   21.4900 O   0  0  0  0  0  0  0  0  0  0  0  0
  -21.6680   -6.1140   22.6370 C   0  0  0  0  0  0  0  0  0  0  0  0
  -21.2510   -6.6570   23.8710 C   0  0  0  0  0  3  0  0  0  0  0  0
  -21.1600   -5.8310   25.0090 C   0  0  0  0  0  3  0  0  0  0  0  0
  -21.4780   -4.4630   24.9140 C   0  0  0  0  0  0  0  0  0  0  0  0
  -21.8910   -3.9200   23.6850 C   0  0  0  0  0  3  0  0  0  0  0  0
  -21.9840   -4.7430   22.5500 C   0  0  0  0  0  0  0  0  0  0  0  0
  -22.3610   -4.2100   21.3630 F   0  0  0  0  0  0  0  0  0  0  0  0
  -21.3840   -3.6670   26.0050 F   0  0  0  0  0  0  0  0  0  0  0  0
  -22.7500  -13.5140   21.1330 C   0  0  0  0  0  0  0  0  0  0  0  0
  -22.0110  -12.8150   21.9900 N   0  0  0  0  0  0  0  0  0  0  0  0
  -22.3140  -14.5340   20.6020 O   0  0  0  0  0  0  0  0  0  0  0  0
  -22.3720  -11.9850   22.4360 H   0  0  0  0  0  0  0  0  0  0  0  0
  -21.0700  -13.1150   22.1990 H   0  0  0  0  0  0  0  0  0  0  0  0
  -25.3860  -15.1900   20.3480 N   0  0  0  0  0  0  0  0  0  0  0  0
  -24.6150  -15.8420   20.4340 H   0  0  0  0  0  0  0  0  0  0  0  0
  -26.2450  -15.6310   20.0420 H   0  0  0  0  0  0  0  0  0  0  0  0
  -29.9120  -23.3020   19.8820 C   0  0  0  0  0  2  0  0  0  0  0  0
  -29.7630  -24.7890   20.1970 C   0  0  0  0  0  0  0  0  0  0  0  0
  -30.6780  -25.4380   20.7200 O   0  0  0  0  0  0  0  0  0  0  0  0
  -28.4220  -25.4330   19.8240 C   0  0  0  0  0  2  0  0  0  0  0  0
  -28.4240  -26.8120   20.1890 O   0  0  0  0  0  0  0  0  0  0  0  0
  -24.5840  -31.9030   23.2760 C   0  0  0  0  0  0  0  0  0  0  0  0
  -27.2220  -27.4820   20.1810 C   0  0  0  0  0  0  0  0  0  0  0  0
  -23.3700  -30.5090   21.6300 C   0  0  0  0  0  3  0  0  0  0  0  0
  -24.8180  -28.9700   20.2050 C   0  0  0  0  0  0  0  0  0  0  0  0
  -25.8940  -30.8670   21.4310 C   0  0  0  0  0  2  0  0  0  0  0  0
  -25.9740  -29.4970   20.7910 C   0  0  0  0  0  0  0  0  0  0  0  0
  -27.1760  -28.7600   20.7770 C   0  0  0  0  0  3  0  0  0  0  0  0
  -26.0450  -26.9580   19.5950 C   0  0  0  0  0  3  0  0  0  0  0  0
  -24.8470  -27.6980   19.6070 C   0  0  0  0  0  3  0  0  0  0  0  0
  -23.5760  -29.8270   20.2500 C   0  0  0  0  0  2  0  0  0  0  0  0
  -24.6340  -31.1080   22.1720 N   0  0  0  0  0  0  0  0  0  0  0  0
  -23.5040  -32.1800   23.8180 O   0  0  0  0  0  0  0  0  0  0  0  0
  -22.7160  -29.4900   22.5890 C   0  0  0  0  0  0  0  0  0  0  0  0
  -21.3920  -29.3080   22.4540 N   0  0  0  0  0  0  0  0  0  0  0  0
  -23.3950  -28.8630   23.4070 O   0  0  0  0  0  0  0  0  0  0  0  0
  -20.9070  -29.8650   21.7650 H   0  0  0  0  0  0  0  0  0  0  0  0
  -18.0160  -28.1170   22.9270 C   0  0  0  0  0  0  0  0  0  0  0  0
  -20.5710  -28.3710   23.2190 C   0  0  0  0  0  3  0  0  0  0  0  0
  -20.6770  -26.9390   22.6460 C   0  0  0  0  0  2  0  0  0  0  0  0
  -19.5840  -26.6170   21.6230 C   0  0  0  0  0  2  0  0  0  0  0  0
  -18.1970  -26.7660   22.2540 C   0  0  0  0  0  2  0  0  0  0  0  0
  -19.1320  -28.8770   23.3650 C   0  0  0  0  0  0  0  0  0  0  0  0
  -18.9120  -30.1430   23.9510 C   0  0  0  0  0  3  0  0  0  0  0  0
  -17.6070  -30.6470   24.1060 C   0  0  0  0  0  3  0  0  0  0  0  0
  -16.5050  -29.8830   23.6860 C   0  0  0  0  0  3  0  0  0  0  0  0
  -16.7100  -28.6190   23.1020 C   0  0  0  0  0  3  0  0  0  0  0  0
  -25.8750  -32.5250   23.8970 C   0  0  0  0  0  3  0  0  0  0  0  0
  -25.5810  -33.9290   24.2150 N   0  0  0  0  0  0  0  0  0  0  0  0
  -25.9230  -34.9710   23.4440 C   0  0  0  0  0  0  0  0  0  0  0  0
  -26.5920  -34.8510   22.4150 O   0  0  0  0  0  0  0  0  0  0  0  0
  -24.9930  -34.0990   25.0170 H   0  0  0  0  0  0  0  0  0  0  0  0
  -24.2070  -36.7700   23.0700 C   0  0  0  0  0  1  0  0  0  0  0  0
  -25.4450  -36.3660   23.8880 C   0  0  0  0  0  3  0  0  0  0  0  0
  -27.5920  -37.2350   24.7040 C   0  0  0  0  0  1  0  0  0  0  0  0
  -26.4820  -37.4140   23.7700 N   0  0  0  0  0  0  0  0  0  0  0  0
  -26.0810  -38.3340   23.9310 H   0  0  0  0  0  0  0  0  0  0  0  0
  -26.3830  -31.7580   25.1790 C   0  0  1  0  0  0  0  0  0  0  0  0
  -25.2870  -31.5400   26.2480 C   0  0  0  0  0  1  0  0  0  0  0  0
  -26.9490  -30.3710   24.7950 C   0  0  0  0  0  1  0  0  0  0  0  0
  -27.5430  -32.5420   25.8350 C   0  0  0  0  0  1  0  0  0  0  0  0
  1  3  1  0
  2  1  1  0
  5 11  1  0
  5  4  1  0
  6  1  1  0
  6  5  1  0
  6  4  1  0
  7  8  2  0
  7  9  1  0
  8 11  1  0
  9 12  2  0
 11 10  2  0
 12 10  1  0
 12 21  1  0
 13 21  1  0
 14 19  1  0
 15 16  1  0
 15 14  1  0
 17 16  1  0
 17 26  1  0
 17 18  1  0
 19 13  1  0
 19 18  1  0
 20 13  2  0
 21 22  1  0
 23 24  2  0
 24 43  1  0
 25 24  1  0
 25 28  1  0
 26 23  1  0
 26 27  1  0
 27 25  2  0
 28 29  1  0
 29 30  2  0
 31 34  1  0
 31 30  1  0
 32 31  2  0
 33 32  1  0
 33 28  2  0
 34 35  1  0
 35 36  1  0
 36 37  2  0
 38 37  1  0
 38 42  1  0
 39 38  2  0
 40 35  2  0
 40 39  1  0
 41 40  1  0
 43 44  1  0
 44 47  1  0
 44 46  1  0
 45 43  2  0
 48 49  1  0
 48 23  1  0
 50 48  1  0
 51 52  1  0
 51  1  1  0
 52 53  2  0
 54 55  1  0
 54 52  1  0
 56 67  2  0
 57 55  1  0
 57 62  1  0
 58 66  1  0
 58 68  1  0
 59 65  1  0
 59 61  1  0
 60 66  1  0
 61 60  1  0
 62 61  2  0
 63 64  1  0
 63 57  2  0
 64 59  2  0
 65 58  1  0
 66 56  1  0
 68 70  2  0
 69 68  1  0
 71 69  1  0
 72 81  2  0
 72 77  1  0
 73 69  1  0
 73 77  1  0
 74 73  1  0
 75 76  1  0
 75 74  1  0
 76 72  1  0
 77 78  2  0
 78 79  1  0
 80 79  2  0
 81 80  1  0
 82 56  1  0
 82 83  1  0
 82 92  1  0
 83 86  1  0
 84 88  1  0
 84 83  1  0
 85 84  2  0
 88 87  1  0
 90 88  1  0
 90 91  1  0
 90 89  1  0
 92 95  1  1
 92 93  1  0
 94 92  1  0
M  ISO  4  13 100  21 100  54 101  55 101
M  END
>  <TORSDO>  (28) 
F 21

>  <SCORE>  (28) 
-13.775

>  <name>  (28) 
27

>  <ligand_id>  (28) 
27

>  <original_smiles>  (28) 
[H]c1c([H])c([H])c2c(c1[H])C([H])([H])C([H])([H])C([H])([H])C2([H])N([H])C(=O)C1([H])N(C(=O)C([H])(N([H])C(=O)C([H])(N([H])C([H])([H])[H])C([H])([H])[H])C(C([H])([H])[H])(C([H])([H])[H])C([H])([H])[H])C([H])([H])c2c([H])c(OC([H])([H])C(=O)C([H])([H])[N+]([H])([H])C3([H])C([H])([H])C3([H])c3c([H])c([H])c([H])c(N([H])C(=O)N4C([H])([H])C([H])([H])C([H])([H])C([H])(n5nc(-c6c([H])c([H])c(Oc7c([H])c([H])c(F)c([H])c7F)c([H])c6[H])c(C(=O)N([H])[H])c5N([H])[H])C4([H])[H])c3[H])c([H])c([H])c2C1([H])[H]

>  <smiles>  (28) 
[H]c1c([H])c([H])c2c(c1[H])C([H])([H])C([H])([H])C([H])([H])C2([H])N([H])C(=O)C1([H])N(C(=O)C([H])(N([H])C(=O)C([H])(N([H])C([H])([H])[H])C([H])([H])[H])C(C([H])([H])[H])(C([H])([H])[H])C([H])([H])[H])C([H])([H])c2c([H])c(OC([H])([H])C(=O)C([H])([H])[N+]([H])([H])C3([H])C([H])([H])C3([H])c3c([H])c([H])c([H])c(N([H])C(=O)N4C([H])([H])C([H])([H])C([H])([H])C([H])(n5nc(-c6c([H])c([H])c(Oc7c([H])c([H])c(F)c([H])c7F)c([H])c6[H])c(C(=O)N([H])[H])c5N([H])[H])C4([H])[H])c3[H])c([H])c([H])c2C1([H])[H]

$$$$
28:0:0
     RDKit          3D

 94102  0  0  1  0  0  0  0  0999 V2000
  -30.6460  -22.1260   17.3330 C   0  0  0  0  0  2  0  0  0  0  0  0
  -28.2750  -21.6220   17.9360 C   0  0  0  0  0  1  0  0  0  0  0  0
  -29.4170  -22.5620   18.0470 N   0  0  2  0  0  4  0  0  0  0  0  0
  -29.6680  -22.6000   19.0240 H   0  0  0  0  0  0  0  0  0  0  0  0
  -29.0270  -23.9540   17.7230 C   0  0  0  0  0  2  0  0  0  0  0  0
  -28.7150  -24.7120   19.0140 C   0  0  0  0  0  2  0  0  0  0  0  0
  -28.7410  -26.2230   18.8060 C   0  0  0  0  0  2  0  0  0  0  0  0
  -28.4070  -26.8340   20.0430 O   0  0  0  0  0  0  0  0  0  0  0  0
  -24.5650  -31.8590   23.2260 C   0  0  0  0  0  0  0  0  0  0  0  0
  -27.1980  -27.4770   20.0930 C   0  0  0  0  0  0  0  0  0  0  0  0
  -23.3450  -30.4690   21.5770 C   0  0  0  0  0  3  0  0  0  0  0  0
  -24.7900  -28.9360   20.1450 C   0  0  0  0  0  0  0  0  0  0  0  0
  -25.8650  -30.8310   21.3730 C   0  0  0  0  0  2  0  0  0  0  0  0
  -25.9450  -29.4640   20.7360 C   0  0  0  0  0  0  0  0  0  0  0  0
  -27.1460  -28.7320   20.7250 C   0  0  0  0  0  3  0  0  0  0  0  0
  -26.0230  -26.9360   19.5200 C   0  0  0  0  0  3  0  0  0  0  0  0
  -24.8200  -27.6660   19.5430 C   0  0  0  0  0  3  0  0  0  0  0  0
  -23.5480  -29.7940   20.1940 C   0  0  0  0  0  2  0  0  0  0  0  0
  -24.6080  -31.0680   22.1170 N   0  0  0  0  0  0  0  0  0  0  0  0
  -23.4880  -32.1310   23.7740 O   0  0  0  0  0  0  0  0  0  0  0  0
  -22.7010  -29.4420   22.5320 C   0  0  0  0  0  0  0  0  0  0  0  0
  -21.3750  -29.2680   22.4170 N   0  0  0  0  0  0  0  0  0  0  0  0
  -23.3890  -28.8000   23.3320 O   0  0  0  0  0  0  0  0  0  0  0  0
  -20.8800  -29.8370   21.7440 H   0  0  0  0  0  0  0  0  0  0  0  0
  -17.9990  -28.1010   22.9400 C   0  0  0  0  0  0  0  0  0  0  0  0
  -20.5610  -28.3310   23.1880 C   0  0  0  0  0  3  0  0  0  0  0  0
  -20.6430  -26.9030   22.5970 C   0  0  0  0  0  2  0  0  0  0  0  0
  -19.5270  -26.6020   21.5920 C   0  0  0  0  0  2  0  0  0  0  0  0
  -18.1540  -26.7570   22.2500 C   0  0  0  0  0  2  0  0  0  0  0  0
  -19.1290  -28.8480   23.3660 C   0  0  0  0  0  0  0  0  0  0  0  0
  -18.9300  -30.1100   23.9680 C   0  0  0  0  0  3  0  0  0  0  0  0
  -17.6330  -30.6240   24.1470 C   0  0  0  0  0  3  0  0  0  0  0  0
  -16.5170  -29.8760   23.7340 C   0  0  0  0  0  3  0  0  0  0  0  0
  -16.7000  -28.6160   23.1380 C   0  0  0  0  0  3  0  0  0  0  0  0
  -25.8580  -32.4790   23.8410 C   0  0  0  0  0  3  0  0  0  0  0  0
  -25.5600  -33.8760   24.1750 N   0  0  0  0  0  0  0  0  0  0  0  0
  -25.9000  -34.9270   23.4180 C   0  0  0  0  0  0  0  0  0  0  0  0
  -26.5700  -34.8230   22.3860 O   0  0  0  0  0  0  0  0  0  0  0  0
  -24.9650  -34.0340   24.9750 H   0  0  0  0  0  0  0  0  0  0  0  0
  -24.1810  -36.7270   23.0640 C   0  0  0  0  0  1  0  0  0  0  0  0
  -25.4190  -36.3150   23.8770 C   0  0  0  0  0  3  0  0  0  0  0  0
  -27.5570  -37.1810   24.7170 C   0  0  0  0  0  1  0  0  0  0  0  0
  -26.4570  -37.3630   23.7730 N   0  0  0  0  0  0  0  0  0  0  0  0
  -26.0570  -38.2850   23.9300 H   0  0  0  0  0  0  0  0  0  0  0  0
  -26.3830  -31.6990   25.1080 C   0  0  1  0  0  0  0  0  0  0  0  0
  -25.2970  -31.4580   26.1830 C   0  0  0  0  0  1  0  0  0  0  0  0
  -26.9570  -30.3210   24.7000 C   0  0  0  0  0  1  0  0  0  0  0  0
  -27.5420  -32.4850   25.7650 C   0  0  0  0  0  1  0  0  0  0  0  0
  -31.4790  -21.0830   18.1040 C   0  0  0  0  0  2  0  0  0  0  0  0
  -31.1880  -19.6330   17.6760 C   0  0  0  0  0  2  0  0  0  0  0  0
  -33.4730  -18.7050   17.6710 C   0  0  0  0  0  1  0  0  0  0  0  0
  -32.1070  -18.6240   18.2670 N   0  0  2  0  0  4  0  0  0  0  0  0
  -32.2150  -18.8390   19.2480 H   0  0  0  0  0  0  0  0  0  0  0  0
  -30.8390  -14.6340   20.5390 C   0  0  0  0  0  0  0  0  0  0  0  0
  -30.5070  -12.3260   19.8720 C   0  0  0  0  0  2  0  0  0  0  0  0
  -29.6440  -12.3050   18.5900 C   0  0  0  0  0  2  0  0  0  0  0  0
  -28.1530  -12.2970   18.9390 C   0  0  0  0  0  2  0  0  0  0  0  0
  -27.7400  -13.3160   20.0370 C   0  0  0  0  0  3  0  0  0  0  0  0
  -28.7510  -13.3520   21.2090 C   0  0  0  0  0  2  0  0  0  0  0  0
  -30.1010  -13.4980   20.6440 N   0  0  0  0  0  0  0  0  0  0  0  0
  -31.9740  -14.7550   20.9800 O   0  0  0  0  0  0  0  0  0  0  0  0
  -32.4260  -16.0970   17.9880 C   0  0  0  0  0  2  0  0  0  0  0  0
  -31.4560  -14.9650   18.2460 C   0  0  0  0  0  2  0  0  0  0  0  0
  -30.6650  -16.8230   19.4340 C   0  0  0  0  0  2  0  0  0  0  0  0
  -31.4890  -17.2630   18.1980 C   0  0  0  0  0  3  0  0  0  0  0  0
  -30.6010  -15.3420   19.4030 N   0  0  0  0  0  0  0  0  0  0  0  0
  -25.3020  -13.9290   20.6060 C   0  0  0  0  0  0  0  0  0  0  0  0
  -24.2130  -13.1590   20.9160 C   0  0  0  0  0  0  0  0  0  0  0  0
  -24.6820  -11.8110   20.9570 C   0  0  0  0  0  0  0  0  0  0  0  0
  -26.3670  -13.0540   20.4760 N   0  0  0  0  0  0  0  0  0  0  0  0
  -25.9920  -11.7780   20.7570 N   0  0  0  0  0  0  0  0  0  0  0  0
  -23.9530  -10.5450   21.1200 C   0  0  0  0  0  0  0  0  0  0  0  0
  -24.3400   -9.5880   22.0840 C   0  0  0  0  0  3  0  0  0  0  0  0
  -23.6100   -8.3900   22.2400 C   0  0  0  0  0  3  0  0  0  0  0  0
  -22.4790   -8.1380   21.4280 C   0  0  0  0  0  0  0  0  0  0  0  0
  -22.1110   -9.0830   20.4540 C   0  0  0  0  0  3  0  0  0  0  0  0
  -22.8410  -10.2730   20.2970 C   0  0  0  0  0  3  0  0  0  0  0  0
  -21.7270   -6.9900   21.4920 O   0  0  0  0  0  0  0  0  0  0  0  0
  -21.6360   -6.2500   22.6430 C   0  0  0  0  0  0  0  0  0  0  0  0
  -21.1760   -6.8100   23.8540 C   0  0  0  0  0  3  0  0  0  0  0  0
  -21.0330   -5.9990   24.9970 C   0  0  0  0  0  3  0  0  0  0  0  0
  -21.3390   -4.6260   24.9290 C   0  0  0  0  0  0  0  0  0  0  0  0
  -21.7930   -4.0650   23.7220 C   0  0  0  0  0  3  0  0  0  0  0  0
  -21.9370   -4.8750   22.5820 C   0  0  0  0  0  0  0  0  0  0  0  0
  -22.3540   -4.3240   21.4150 F   0  0  0  0  0  0  0  0  0  0  0  0
  -21.1950   -3.8440   26.0230 F   0  0  0  0  0  0  0  0  0  0  0  0
  -22.7950  -13.6310   21.0680 C   0  0  0  0  0  0  0  0  0  0  0  0
  -22.0110  -12.9530   21.8980 N   0  0  0  0  0  0  0  0  0  0  0  0
  -22.3880  -14.6350   20.4850 O   0  0  0  0  0  0  0  0  0  0  0  0
  -22.3500  -12.1410   22.3930 H   0  0  0  0  0  0  0  0  0  0  0  0
  -21.0580  -13.2530   22.0450 H   0  0  0  0  0  0  0  0  0  0  0  0
  -25.4710  -15.2960   20.3960 N   0  0  0  0  0  0  0  0  0  0  0  0
  -24.6970  -15.9500   20.4370 H   0  0  0  0  0  0  0  0  0  0  0  0
  -26.3480  -15.7350   20.1480 H   0  0  0  0  0  0  0  0  0  0  0  0
  1  3  1  0
  1 49  1  0
  2  3  1  0
  3  4  1  1
  5  3  1  0
  5  6  1  0
  7  6  1  0
  7  8  1  0
  8 10  1  0
  9 20  2  0
 10 15  1  0
 11 19  1  0
 11 21  1  0
 12 18  1  0
 12 14  1  0
 13 19  1  0
 14 13  1  0
 15 14  2  0
 16 17  1  0
 16 10  2  0
 17 12  2  0
 18 11  1  0
 19  9  1  0
 21 23  2  0
 22 21  1  0
 24 22  1  0
 25 34  2  0
 25 30  1  0
 26 22  1  0
 26 30  1  0
 27 26  1  0
 28 29  1  0
 28 27  1  0
 29 25  1  0
 30 31  2  0
 31 32  1  0
 33 32  2  0
 34 33  1  0
 35  9  1  0
 35 36  1  0
 35 45  1  0
 36 39  1  0
 37 41  1  0
 37 36  1  0
 38 37  2  0
 41 40  1  0
 43 41  1  0
 43 44  1  0
 43 42  1  0
 45 48  1  1
 45 46  1  0
 47 45  1  0
 50 49  1  0
 50 52  1  0
 51 52  1  0
 52 53  1  1
 54 60  1  0
 54 61  2  0
 55 60  1  0
 56 57  1  0
 56 55  1  0
 58 57  1  0
 58 70  1  0
 58 59  1  0
 60 59  1  0
 62 65  1  0
 62 63  1  0
 63 66  1  0
 65 52  1  0
 65 64  1  0
 66 64  1  0
 66 54  1  0
 67 68  2  0
 68 69  1  0
 68 87  1  0
 69 72  1  0
 70 67  1  0
 70 71  1  0
 71 69  2  0
 72 73  1  0
 73 74  2  0
 75 78  1  0
 75 74  1  0
 76 75  2  0
 77 76  1  0
 77 72  2  0
 78 79  1  0
 79 80  1  0
 80 81  2  0
 82 81  1  0
 82 86  1  0
 83 82  2  0
 84 79  2  0
 84 83  1  0
 85 84  1  0
 87 88  1  0
 88 91  1  0
 88 90  1  0
 89 87  2  0
 92 93  1  0
 92 67  1  0
 94 92  1  0
M  ISO  4   7 101   8 101  54 100  66 100
M  END
>  <TORSDO>  (29) 
F 23

>  <SCORE>  (29) 
-12.528

>  <name>  (29) 
28

>  <ligand_id>  (29) 
28

>  <original_smiles>  (29) 
[H]c1c([H])c([H])c2c(c1[H])C([H])([H])C([H])([H])C([H])([H])C2([H])N([H])C(=O)C1([H])N(C(=O)C([H])(N([H])C(=O)C([H])(N([H])C([H])([H])[H])C([H])([H])[H])C(C([H])([H])[H])(C([H])([H])[H])C([H])([H])[H])C([H])([H])c2c([H])c(OC([H])([H])C([H])([H])C([H])([H])[N+]([H])(C([H])([H])[H])C([H])([H])C([H])([H])C([H])([H])[N+]([H])(C([H])([H])[H])C3([H])C([H])([H])N(C(=O)N4C([H])([H])C([H])([H])C([H])([H])C([H])(n5nc(-c6c([H])c([H])c(Oc7c([H])c([H])c(F)c([H])c7F)c([H])c6[H])c(C(=O)N([H])[H])c5N([H])[H])C4([H])[H])C([H])([H])C3([H])[H])c([H])c([H])c2C1([H])[H]

>  <smiles>  (29) 
[H]c1c([H])c([H])c2c(c1[H])C([H])([H])C([H])([H])C([H])([H])C2([H])N([H])C(=O)C1([H])N(C(=O)C([H])(N([H])C(=O)C([H])(N([H])C([H])([H])[H])C([H])([H])[H])C(C([H])([H])[H])(C([H])([H])[H])C([H])([H])[H])C([H])([H])c2c([H])c(OC([H])([H])C([H])([H])C([H])([H])[N+]([H])(C([H])([H])[H])C([H])([H])C([H])([H])C([H])([H])[N+]([H])(C([H])([H])[H])C3([H])C([H])([H])N(C(=O)N4C([H])([H])C([H])([H])C([H])([H])C([H])(n5nc(-c6c([H])c([H])c(Oc7c([H])c([H])c(F)c([H])c7F)c([H])c6[H])c(C(=O)N([H])[H])c5N([H])[H])C4([H])[H])C([H])([H])C3([H])[H])c([H])c([H])c2C1([H])[H]

$$$$
29:0:0
     RDKit          3D

 91 99  0  0  1  0  0  0  0  0999 V2000
  -30.0280  -21.6000   20.8590 C   0  0  0  0  0  3  0  0  0  0  0  0
  -29.5430  -17.9410   19.4560 C   0  0  0  0  0  2  0  0  0  0  0  0
  -30.0370  -17.8110   21.8710 C   0  0  0  0  0  2  0  0  0  0  0  0
  -29.8730  -19.4740   19.4780 C   0  0  0  0  0  2  0  0  0  0  0  0
  -30.3830  -19.3320   21.8650 C   0  0  0  0  0  2  0  0  0  0  0  0
  -30.3210  -17.1170   20.5180 C   0  0  0  0  0  3  0  0  0  0  0  0
  -29.6710  -20.1230   20.8120 N   0  0  1  0  0  4  0  0  0  0  0  0
  -28.6880  -20.0590   21.0350 H   0  0  0  0  0  0  0  0  0  0  0  0
  -30.6790  -14.6080   20.0690 C   0  0  0  0  0  0  0  0  0  0  0  0
  -30.3550  -12.4260   18.9430 C   0  0  0  0  0  2  0  0  0  0  0  0
  -29.3440  -12.6110   17.7910 C   0  0  0  0  0  2  0  0  0  0  0  0
  -27.8980  -12.4510   18.3020 C   0  0  0  0  0  2  0  0  0  0  0  0
  -27.6220  -13.2800   19.5860 C   0  0  0  0  0  3  0  0  0  0  0  0
  -28.7420  -13.0830   20.6320 C   0  0  0  0  0  2  0  0  0  0  0  0
  -30.0220  -13.4140   19.9860 N   0  0  0  0  0  0  0  0  0  0  0  0
  -31.8030  -14.7710   19.5850 O   0  0  0  0  0  0  0  0  0  0  0  0
  -29.9580  -15.6640   20.5360 N   0  0  0  0  0  0  0  0  0  0  0  0
  -29.0420  -15.4310   20.8870 H   0  0  0  0  0  0  0  0  0  0  0  0
  -25.2780  -13.8670   20.4640 C   0  0  0  0  0  0  0  0  0  0  0  0
  -24.2300  -13.0860   20.8710 C   0  0  0  0  0  0  0  0  0  0  0  0
  -24.6810  -11.7340   20.7670 C   0  0  0  0  0  0  0  0  0  0  0  0
  -26.3010  -12.9900   20.1380 N   0  0  0  0  0  0  0  0  0  0  0  0
  -25.9500  -11.7010   20.3800 N   0  0  0  0  0  0  0  0  0  0  0  0
  -23.9590  -10.4690   20.9570 C   0  0  0  0  0  0  0  0  0  0  0  0
  -24.3990   -9.5010   21.8870 C   0  0  0  0  0  3  0  0  0  0  0  0
  -23.6780   -8.3000   22.0660 C   0  0  0  0  0  3  0  0  0  0  0  0
  -22.5030   -8.0600   21.3150 C   0  0  0  0  0  0  0  0  0  0  0  0
  -22.0820   -9.0170   20.3760 C   0  0  0  0  0  3  0  0  0  0  0  0
  -22.8030  -10.2090   20.1940 C   0  0  0  0  0  3  0  0  0  0  0  0
  -21.7530   -6.9130   21.4040 O   0  0  0  0  0  0  0  0  0  0  0  0
  -21.6470   -6.2100   22.5780 C   0  0  0  0  0  0  0  0  0  0  0  0
  -21.1320   -6.7980   23.7540 C   0  0  0  0  0  3  0  0  0  0  0  0
  -20.9760   -6.0210   24.9200 C   0  0  0  0  0  3  0  0  0  0  0  0
  -21.3240   -4.6570   24.9080 C   0  0  0  0  0  0  0  0  0  0  0  0
  -21.8330   -4.0700   23.7370 C   0  0  0  0  0  3  0  0  0  0  0  0
  -21.9900   -4.8430   22.5740 C   0  0  0  0  0  0  0  0  0  0  0  0
  -22.4600   -4.2670   21.4420 F   0  0  0  0  0  0  0  0  0  0  0  0
  -21.1680   -3.9090   26.0260 F   0  0  0  0  0  0  0  0  0  0  0  0
  -22.8540  -13.5600   21.2430 C   0  0  0  0  0  0  0  0  0  0  0  0
  -22.1770  -12.8410   22.1310 N   0  0  0  0  0  0  0  0  0  0  0  0
  -22.3900  -14.6010   20.7800 O   0  0  0  0  0  0  0  0  0  0  0  0
  -22.5660  -11.9970   22.5260 H   0  0  0  0  0  0  0  0  0  0  0  0
  -21.2570  -13.1400   22.4220 H   0  0  0  0  0  0  0  0  0  0  0  0
  -25.4390  -15.2420   20.3210 N   0  0  0  0  0  0  0  0  0  0  0  0
  -24.6790  -15.8920   20.4890 H   0  0  0  0  0  0  0  0  0  0  0  0
  -26.2610  -15.6870   19.9330 H   0  0  0  0  0  0  0  0  0  0  0  0
  -29.0110  -22.6130   20.2100 C   0  0  0  0  0  3  0  0  0  0  0  0
  -29.2530  -24.1390   20.4840 C   0  0  0  0  0  0  0  0  0  0  0  0
  -30.2560  -24.5230   21.0930 O   0  0  0  0  0  0  0  0  0  0  0  0
  -28.1880  -25.1530   19.9600 C   0  0  0  0  0  2  0  0  0  0  0  0
  -28.3920  -26.5640   20.3160 O   0  0  0  0  0  0  0  0  0  0  0  0
  -24.6360  -31.9170   23.2930 C   0  0  0  0  0  0  0  0  0  0  0  0
  -27.2630  -27.3850   20.2510 C   0  0  0  0  0  0  0  0  0  0  0  0
  -23.4350  -30.5150   21.6540 C   0  0  0  0  0  3  0  0  0  0  0  0
  -24.8890  -28.9690   20.2350 C   0  0  0  0  0  0  0  0  0  0  0  0
  -25.9720  -30.8430   21.4740 C   0  0  0  0  0  2  0  0  0  0  0  0
  -26.0530  -29.4660   20.8330 C   0  0  0  0  0  0  0  0  0  0  0  0
  -27.2430  -28.6840   20.8360 C   0  0  0  0  0  3  0  0  0  0  0  0
  -26.0740  -26.9390   19.6220 C   0  0  0  0  0  3  0  0  0  0  0  0
  -24.8990  -27.7090   19.6230 C   0  0  0  0  0  3  0  0  0  0  0  0
  -23.6510  -29.8370   20.2760 C   0  0  0  0  0  2  0  0  0  0  0  0
  -24.7000  -31.1080   22.1970 N   0  0  0  0  0  0  0  0  0  0  0  0
  -23.5520  -32.1970   23.8240 O   0  0  0  0  0  0  0  0  0  0  0  0
  -22.7730  -29.4980   22.6140 C   0  0  0  0  0  0  0  0  0  0  0  0
  -21.4500  -29.3120   22.4750 N   0  0  0  0  0  0  0  0  0  0  0  0
  -23.4490  -28.8800   23.4420 O   0  0  0  0  0  0  0  0  0  0  0  0
  -20.9650  -29.8610   21.7800 H   0  0  0  0  0  0  0  0  0  0  0  0
  -18.0710  -28.1140   22.9560 C   0  0  0  0  0  0  0  0  0  0  0  0
  -20.6270  -28.3780   23.2450 C   0  0  0  0  0  3  0  0  0  0  0  0
  -20.7360  -26.9430   22.6790 C   0  0  0  0  0  2  0  0  0  0  0  0
  -19.6420  -26.6130   21.6590 C   0  0  0  0  0  2  0  0  0  0  0  0
  -18.2550  -26.7610   22.2910 C   0  0  0  0  0  2  0  0  0  0  0  0
  -19.1870  -28.8800   23.3900 C   0  0  0  0  0  0  0  0  0  0  0  0
  -18.9610  -30.1470   23.9710 C   0  0  0  0  0  3  0  0  0  0  0  0
  -17.6540  -30.6470   24.1230 C   0  0  0  0  0  3  0  0  0  0  0  0
  -16.5540  -29.8780   23.7060 C   0  0  0  0  0  3  0  0  0  0  0  0
  -16.7640  -28.6130   23.1280 C   0  0  0  0  0  3  0  0  0  0  0  0
  -25.9180  -32.5510   23.9150 C   0  0  0  0  0  3  0  0  0  0  0  0
  -26.4230  -31.7910   25.2030 C   0  0  1  0  0  0  0  0  0  0  0  0
  -25.3200  -31.5660   26.2640 C   0  0  0  0  0  1  0  0  0  0  0  0
  -27.0070  -30.4090   24.8300 C   0  0  0  0  0  1  0  0  0  0  0  0
  -27.5690  -32.5910   25.8680 C   0  0  0  0  0  1  0  0  0  0  0  0
  -25.6150  -33.9530   24.2260 N   0  0  0  0  0  0  0  0  0  0  0  0
  -25.9290  -34.9930   23.4410 C   0  0  0  0  0  0  0  0  0  0  0  0
  -26.5780  -34.8710   22.3980 O   0  0  0  0  0  0  0  0  0  0  0  0
  -25.0370  -34.1220   25.0370 H   0  0  0  0  0  0  0  0  0  0  0  0
  -24.1800  -36.7680   23.1040 C   0  0  0  0  0  1  0  0  0  0  0  0
  -25.4490  -36.3880   23.8830 C   0  0  0  0  0  3  0  0  0  0  0  0
  -27.6010  -37.3070   24.6290 C   0  0  0  0  0  1  0  0  0  0  0  0
  -26.4710  -37.4440   23.7130 N   0  0  0  0  0  0  0  0  0  0  0  0
  -26.0640  -38.3650   23.8460 H   0  0  0  0  0  0  0  0  0  0  0  0
  2  4  1  0
  2  6  1  0
  4  7  1  0
  5  3  1  0
  6 17  1  0
  6  3  1  0
  7  1  1  0
  7  8  1  1
  7  5  1  0
  9 17  1  0
 10 15  1  0
 11 12  1  0
 11 10  1  0
 13 12  1  0
 13 22  1  0
 13 14  1  0
 15  9  1  0
 15 14  1  0
 16  9  2  0
 17 18  1  0
 19 20  2  0
 20 39  1  0
 21 20  1  0
 21 24  1  0
 22 23  1  0
 22 19  1  0
 23 21  2  0
 24 25  1  0
 25 26  2  0
 27 30  1  0
 27 26  1  0
 28 27  2  0
 29 28  1  0
 29 24  2  0
 30 31  1  0
 31 32  1  0
 32 33  2  0
 34 33  1  0
 34 38  1  0
 35 34  2  0
 36 31  2  0
 36 35  1  0
 37 36  1  0
 39 40  1  0
 40 43  1  0
 40 42  1  0
 41 39  2  0
 44 19  1  0
 44 45  1  0
 46 44  1  0
 47 48  1  0
 47  1  2  0
 48 49  2  0
 50 51  1  0
 50 48  1  0
 52 63  2  0
 53 51  1  0
 53 58  1  0
 54 62  1  0
 54 64  1  0
 55 61  1  0
 55 57  1  0
 56 62  1  0
 57 58  2  0
 57 56  1  0
 59 60  1  0
 59 53  2  0
 60 55  2  0
 61 54  1  0
 62 52  1  0
 64 66  2  0
 65 64  1  0
 67 65  1  0
 68 77  2  0
 68 73  1  0
 69 65  1  0
 69 73  1  0
 70 69  1  0
 71 72  1  0
 71 70  1  0
 72 68  1  0
 73 74  2  0
 74 75  1  0
 76 75  2  0
 77 76  1  0
 78 52  1  0
 78 83  1  0
 78 79  1  0
 79 82  1  1
 79 80  1  0
 81 79  1  0
 83 86  1  0
 84 88  1  0
 84 83  1  0
 85 84  2  0
 88 87  1  0
 90 91  1  0
 90 88  1  0
 90 89  1  0
M  ISO  4   9 100  17 100  50 101  51 101
M  END
>  <TORSDO>  (30) 
F 20

>  <SCORE>  (30) 
-13.394

>  <name>  (30) 
29

>  <ligand_id>  (30) 
29

>  <original_smiles>  (30) 
[H]c1c([H])c([H])c2c(c1[H])C([H])([H])C([H])([H])C([H])([H])C2([H])N([H])C(=O)C1([H])N(C(=O)C([H])(N([H])C(=O)C([H])(N([H])C([H])([H])[H])C([H])([H])[H])C(C([H])([H])[H])(C([H])([H])[H])C([H])([H])[H])C([H])([H])c2c([H])c(OC([H])([H])C(=O)C([H])([H])C([H])([H])[N+]3([H])C([H])([H])C([H])([H])C([H])(N([H])C(=O)N4C([H])([H])C([H])([H])C([H])([H])C([H])(n5nc(-c6c([H])c([H])c(Oc7c([H])c([H])c(F)c([H])c7F)c([H])c6[H])c(C(=O)N([H])[H])c5N([H])[H])C4([H])[H])C([H])([H])C3([H])[H])c([H])c([H])c2C1([H])[H]

>  <smiles>  (30) 
[H]c1c([H])c([H])c2c(c1[H])C([H])([H])C([H])([H])C([H])([H])C2([H])N([H])C(=O)C1([H])N(C(=O)C([H])(N([H])C(=O)C([H])(N([H])C([H])([H])[H])C([H])([H])[H])C(C([H])([H])[H])(C([H])([H])[H])C([H])([H])[H])C([H])([H])c2c([H])c(OC([H])([H])C(=O)C([H])([H])C([H])([H])[N+]3([H])C([H])([H])C([H])([H])C([H])(N([H])C(=O)N4C([H])([H])C([H])([H])C([H])([H])C([H])(n5nc(-c6c([H])c([H])c(Oc7c([H])c([H])c(F)c([H])c7F)c([H])c6[H])c(C(=O)N([H])[H])c5N([H])[H])C4([H])[H])C([H])([H])C3([H])[H])c([H])c([H])c2C1([H])[H]

$$$$
30:0:0
     RDKit          3D

 91 99  0  0  1  0  0  0  0  0999 V2000
  -28.9020  -21.5700   21.5790 C   0  0  0  0  0  2  0  0  0  0  0  0
  -29.0190  -20.0500   21.7880 C   0  0  0  0  0  2  0  0  0  0  0  0
  -29.1600  -20.4410   19.4590 C   0  0  0  0  0  2  0  0  0  0  0  0
  -28.5530  -21.7490   20.0940 C   0  0  0  0  0  3  0  0  0  0  0  0
  -29.6150  -19.5160   20.5430 N   0  0  2  0  0  4  0  0  0  0  0  0
  -30.6120  -19.6670   20.6150 H   0  0  0  0  0  0  0  0  0  0  0  0
  -29.4270  -23.1240   18.2300 C   0  0  0  0  0  1  0  0  0  0  0  0
  -28.9990  -23.1020   19.6320 N   0  0  0  0  0  0  0  0  0  0  0  0
  -27.9670  -24.1690   19.7910 C   0  0  0  0  0  2  0  0  0  0  0  0
  -28.3990  -25.3960   20.6710 C   0  0  0  0  0  2  0  0  0  0  0  0
  -28.3840  -26.7270   20.0830 O   0  0  0  0  0  0  0  0  0  0  0  0
  -24.5650  -31.9200   23.2310 C   0  0  0  0  0  0  0  0  0  0  0  0
  -27.2120  -27.4630   20.1360 C   0  0  0  0  0  0  0  0  0  0  0  0
  -23.3660  -30.5280   21.5760 C   0  0  0  0  0  3  0  0  0  0  0  0
  -24.8240  -28.9950   20.1500 C   0  0  0  0  0  0  0  0  0  0  0  0
  -25.8950  -30.8820   21.3890 C   0  0  0  0  0  2  0  0  0  0  0  0
  -25.9840  -29.5120   20.7380 C   0  0  0  0  0  0  0  0  0  0  0  0
  -27.1860  -28.7580   20.7170 C   0  0  0  0  0  3  0  0  0  0  0  0
  -26.0280  -26.9610   19.5580 C   0  0  0  0  0  3  0  0  0  0  0  0
  -24.8420  -27.7210   19.5570 C   0  0  0  0  0  3  0  0  0  0  0  0
  -23.5800  -29.8570   20.1930 C   0  0  0  0  0  2  0  0  0  0  0  0
  -24.6260  -31.1260   22.1230 N   0  0  0  0  0  0  0  0  0  0  0  0
  -23.4810  -32.1860   23.7690 O   0  0  0  0  0  0  0  0  0  0  0  0
  -22.7130  -29.5010   22.5290 C   0  0  0  0  0  0  0  0  0  0  0  0
  -21.3870  -29.3220   22.4010 N   0  0  0  0  0  0  0  0  0  0  0  0
  -23.3960  -28.8670   23.3390 O   0  0  0  0  0  0  0  0  0  0  0  0
  -20.9010  -29.8840   21.7160 H   0  0  0  0  0  0  0  0  0  0  0  0
  -18.0080  -28.1410   22.9020 C   0  0  0  0  0  0  0  0  0  0  0  0
  -20.5700  -28.3770   23.1600 C   0  0  0  0  0  3  0  0  0  0  0  0
  -20.6590  -26.9560   22.5580 C   0  0  0  0  0  2  0  0  0  0  0  0
  -19.5480  -26.6570   21.5470 C   0  0  0  0  0  2  0  0  0  0  0  0
  -18.1710  -26.8010   22.2030 C   0  0  0  0  0  2  0  0  0  0  0  0
  -19.1340  -28.8870   23.3370 C   0  0  0  0  0  0  0  0  0  0  0  0
  -18.9290  -30.1430   23.9500 C   0  0  0  0  0  3  0  0  0  0  0  0
  -17.6300  -30.6520   24.1320 C   0  0  0  0  0  3  0  0  0  0  0  0
  -16.5180  -29.9010   23.7140 C   0  0  0  0  0  3  0  0  0  0  0  0
  -16.7070  -28.6460   23.1070 C   0  0  0  0  0  3  0  0  0  0  0  0
  -25.8470  -32.5510   23.8590 C   0  0  0  0  0  3  0  0  0  0  0  0
  -25.5370  -33.9480   24.1890 N   0  0  0  0  0  0  0  0  0  0  0  0
  -25.8780  -35.0020   23.4350 C   0  0  0  0  0  0  0  0  0  0  0  0
  -26.5600  -34.8990   22.4120 O   0  0  0  0  0  0  0  0  0  0  0  0
  -24.9380  -34.1020   24.9870 H   0  0  0  0  0  0  0  0  0  0  0  0
  -24.1630  -36.8020   23.0570 C   0  0  0  0  0  1  0  0  0  0  0  0
  -25.3890  -36.3900   23.8890 C   0  0  0  0  0  3  0  0  0  0  0  0
  -27.5110  -37.2640   24.7620 C   0  0  0  0  0  1  0  0  0  0  0  0
  -26.4270  -37.4400   23.7990 N   0  0  0  0  0  0  0  0  0  0  0  0
  -26.0200  -38.3600   23.9430 H   0  0  0  0  0  0  0  0  0  0  0  0
  -26.3580  -31.7790   25.1370 C   0  0  1  0  0  0  0  0  0  0  0  0
  -25.2580  -31.5420   26.2000 C   0  0  0  0  0  1  0  0  0  0  0  0
  -26.9440  -30.4020   24.7470 C   0  0  0  0  0  1  0  0  0  0  0  0
  -27.5040  -32.5730   25.8080 C   0  0  0  0  0  1  0  0  0  0  0  0
  -29.3940  -18.0480   20.2780 C   0  0  0  0  0  2  0  0  0  0  0  0
  -30.2910  -17.0550   21.1050 C   0  0  0  0  0  2  0  0  0  0  0  0
  -30.7090  -14.6260   20.3480 C   0  0  0  0  0  0  0  0  0  0  0  0
  -30.4620  -12.4520   19.1850 C   0  0  0  0  0  2  0  0  0  0  0  0
  -29.5030  -12.6290   17.9870 C   0  0  0  0  0  2  0  0  0  0  0  0
  -28.0340  -12.4770   18.4240 C   0  0  0  0  0  2  0  0  0  0  0  0
  -27.6980  -13.3140   19.6860 C   0  0  0  0  0  3  0  0  0  0  0  0
  -28.7560  -13.0910   20.7890 C   0  0  0  0  0  2  0  0  0  0  0  0
  -30.0730  -13.4270   20.2180 N   0  0  0  0  0  0  0  0  0  0  0  0
  -31.8310  -14.8420   19.8750 O   0  0  0  0  0  0  0  0  0  0  0  0
  -29.9670  -15.6160   20.9050 N   0  0  0  0  0  0  0  0  0  0  0  0
  -29.0670  -15.3180   21.2550 H   0  0  0  0  0  0  0  0  0  0  0  0
  -25.3050  -13.9290   20.4080 C   0  0  0  0  0  0  0  0  0  0  0  0
  -24.2400  -13.1620   20.7920 C   0  0  0  0  0  0  0  0  0  0  0  0
  -24.7020  -11.8090   20.7660 C   0  0  0  0  0  0  0  0  0  0  0  0
  -26.3480  -13.0460   20.1740 N   0  0  0  0  0  0  0  0  0  0  0  0
  -25.9880  -11.7660   20.4450 N   0  0  0  0  0  0  0  0  0  0  0  0
  -23.9760  -10.5490   20.9690 C   0  0  0  0  0  0  0  0  0  0  0  0
  -24.4130   -9.5900   21.9100 C   0  0  0  0  0  3  0  0  0  0  0  0
  -23.6900   -8.3930   22.1000 C   0  0  0  0  0  3  0  0  0  0  0  0
  -22.5160   -8.1460   21.3500 C   0  0  0  0  0  0  0  0  0  0  0  0
  -22.0970   -9.0940   20.4010 C   0  0  0  0  0  3  0  0  0  0  0  0
  -22.8190  -10.2830   20.2070 C   0  0  0  0  0  3  0  0  0  0  0  0
  -21.7620   -7.0020   21.4500 O   0  0  0  0  0  0  0  0  0  0  0  0
  -21.7130   -6.2710   22.6090 C   0  0  0  0  0  0  0  0  0  0  0  0
  -21.2800   -6.8360   23.8290 C   0  0  0  0  0  3  0  0  0  0  0  0
  -21.1780   -6.0310   24.9820 C   0  0  0  0  0  3  0  0  0  0  0  0
  -21.5000   -4.6630   24.9160 C   0  0  0  0  0  0  0  0  0  0  0  0
  -21.9270   -4.0980   23.7020 C   0  0  0  0  0  3  0  0  0  0  0  0
  -22.0320   -4.9000   22.5510 C   0  0  0  0  0  0  0  0  0  0  0  0
  -22.4230   -4.3440   21.3800 F   0  0  0  0  0  0  0  0  0  0  0  0
  -21.3940   -3.8890   26.0210 F   0  0  0  0  0  0  0  0  0  0  0  0
  -22.8450  -13.6420   21.0690 C   0  0  0  0  0  0  0  0  0  0  0  0
  -22.1190  -12.9550   21.9450 N   0  0  0  0  0  0  0  0  0  0  0  0
  -22.4060  -14.6640   20.5470 O   0  0  0  0  0  0  0  0  0  0  0  0
  -22.4850  -12.1280   22.3940 H   0  0  0  0  0  0  0  0  0  0  0  0
  -21.1840  -13.2630   22.1660 H   0  0  0  0  0  0  0  0  0  0  0  0
  -25.4730  -15.2980   20.2190 N   0  0  0  0  0  0  0  0  0  0  0  0
  -24.7050  -15.9530   20.3160 H   0  0  0  0  0  0  0  0  0  0  0  0
  -26.3010  -15.7220   19.8220 H   0  0  0  0  0  0  0  0  0  0  0  0
  1  2  1  0
  3  4  1  0
  3  5  1  0
  4  8  1  0
  4  1  1  0
  5  6  1  1
  5  2  1  0
  7  8  1  0
  8  9  1  0
  9 10  1  0
 11 13  1  0
 11 10  1  0
 12 23  2  0
 13 18  1  0
 14 22  1  0
 14 24  1  0
 15 21  1  0
 15 17  1  0
 16 22  1  0
 17 16  1  0
 18 17  2  0
 19 13  2  0
 20 19  1  0
 20 15  2  0
 21 14  1  0
 22 12  1  0
 24 26  2  0
 25 24  1  0
 27 25  1  0
 28 37  2  0
 28 33  1  0
 29 25  1  0
 29 33  1  0
 30 29  1  0
 31 32  1  0
 31 30  1  0
 32 28  1  0
 33 34  2  0
 34 35  1  0
 36 35  2  0
 37 36  1  0
 38 12  1  0
 38 39  1  0
 38 48  1  0
 39 42  1  0
 40 44  1  0
 40 39  1  0
 41 40  2  0
 44 43  1  0
 46 44  1  0
 46 47  1  0
 46 45  1  0
 48 51  1  1
 48 49  1  0
 50 48  1  0
 52  5  1  0
 52 53  1  0
 54 62  1  0
 55 60  1  0
 56 57  1  0
 56 55  1  0
 58 57  1  0
 58 67  1  0
 58 59  1  0
 60 54  1  0
 60 59  1  0
 61 54  2  0
 62 53  1  0
 62 63  1  0
 64 65  2  0
 65 84  1  0
 66 65  1  0
 66 69  1  0
 67 64  1  0
 67 68  1  0
 68 66  2  0
 69 70  1  0
 70 71  2  0
 72 75  1  0
 72 71  1  0
 73 72  2  0
 74 73  1  0
 74 69  2  0
 75 76  1  0
 76 77  1  0
 77 78  2  0
 79 78  1  0
 79 83  1  0
 80 79  2  0
 81 76  2  0
 81 80  1  0
 82 81  1  0
 84 85  1  0
 85 88  1  0
 85 87  1  0
 86 84  2  0
 89 90  1  0
 89 64  1  0
 91 89  1  0
M  ISO  4  10 101  11 101  54 100  62 100
M  END
>  <TORSDO>  (31) 
F 21

>  <SCORE>  (31) 
-12.840

>  <name>  (31) 
30

>  <ligand_id>  (31) 
30

>  <original_smiles>  (31) 
[H]c1c([H])c([H])c2c(c1[H])C([H])([H])C([H])([H])C([H])([H])C2([H])N([H])C(=O)C1([H])N(C(=O)C([H])(N([H])C(=O)C([H])(N([H])C([H])([H])[H])C([H])([H])[H])C(C([H])([H])[H])(C([H])([H])[H])C([H])([H])[H])C([H])([H])c2c([H])c(OC([H])([H])C([H])([H])N(C([H])([H])[H])C3([H])C([H])([H])C([H])([H])[N+]([H])(C([H])([H])C([H])([H])N([H])C(=O)N4C([H])([H])C([H])([H])C([H])([H])C([H])(n5nc(-c6c([H])c([H])c(Oc7c([H])c([H])c(F)c([H])c7F)c([H])c6[H])c(C(=O)N([H])[H])c5N([H])[H])C4([H])[H])C3([H])[H])c([H])c([H])c2C1([H])[H]

>  <smiles>  (31) 
[H]c1c([H])c([H])c2c(c1[H])C([H])([H])C([H])([H])C([H])([H])C2([H])N([H])C(=O)C1([H])N(C(=O)C([H])(N([H])C(=O)C([H])(N([H])C([H])([H])[H])C([H])([H])[H])C(C([H])([H])[H])(C([H])([H])[H])C([H])([H])[H])C([H])([H])c2c([H])c(OC([H])([H])C([H])([H])N(C([H])([H])[H])C3([H])C([H])([H])C([H])([H])[N+]([H])(C([H])([H])C([H])([H])N([H])C(=O)N4C([H])([H])C([H])([H])C([H])([H])C([H])(n5nc(-c6c([H])c([H])c(Oc7c([H])c([H])c(F)c([H])c7F)c([H])c6[H])c(C(=O)N([H])[H])c5N([H])[H])C4([H])[H])C3([H])[H])c([H])c([H])c2C1([H])[H]

$$$$
31:0:0
     RDKit          3D

 97 96  0  0  1  0  0  0  0  0999 V2000
  -23.8800  -22.7080   17.7930 C   0  0  0  0  0  2  0  0  0  0  0  0
  -24.6320  -21.4360   18.5990 N   0  0  0  0  0  2  0  0  0  0  0  0
  -24.6760  -23.0880   16.9320 O   0  0  0  0  0  1  0  0  0  0  0  0
  -24.0260  -21.2780   19.3970 H   0  0  0  0  0  0  0  0  0  0  0  0
  -25.2690  -19.0380   17.7630 C   0  0  0  0  0  2  0  0  0  0  0  0
  -25.7030  -17.4330   19.5470 C   0  0  0  0  0  2  0  0  0  0  0  0
  -26.0020  -20.0180   18.6570 C   0  0  0  0  0  1  0  0  0  0  0  0
  -26.9450  -18.3360   19.6770 C   0  0  0  0  0  1  0  0  0  0  0  0
  -24.6750  -18.0720   18.7050 N   0  0  0  0  0  4  0  0  0  0  0  0
  -24.1590  -17.3680   18.2060 H   0  0  0  0  0  0  0  0  0  0  0  0
  -24.0340  -18.5680   19.3040 H   0  0  0  0  0  0  0  0  0  0  0  0
  -29.7050  -16.0710   19.9230 C   0  0  0  0  0  0  0  0  0  0  0  0
  -31.1890  -13.6730   19.9290 C   0  0  0  0  0  2  0  0  0  0  0  0
  -30.7460  -12.4890   18.9930 C   0  0  0  0  0  2  0  0  0  0  0  0
  -29.3930  -11.8990   19.4380 C   0  0  0  0  0  2  0  0  0  0  0  0
  -28.5000  -13.0310   19.9800 C   0  0  0  0  0  3  0  0  0  0  0  0
  -29.1690  -13.8640   21.0540 C   0  0  0  0  0  2  0  0  0  0  0  0
  -30.0180  -14.6630   20.2450 N   0  0  0  0  0  0  0  0  0  0  0  0
  -30.9070  -16.4990   19.7950 O   0  0  0  0  0  0  0  0  0  0  0  0
  -28.2090  -16.8230   19.7030 N   0  0  0  0  0  2  0  0  0  0  0  0
  -27.5790  -16.0240   19.7290 H   0  0  0  0  0  0  0  0  0  0  0  0
  -26.2440  -13.5380   20.8960 C   0  0  0  0  0  0  0  0  0  0  0  0
  -25.2080  -12.7320   21.2500 C   0  0  0  0  0  0  0  0  0  0  0  0
  -25.6710  -11.3910   21.0700 C   0  0  0  0  0  0  0  0  0  0  0  0
  -27.2290  -12.6680   20.4810 N   0  0  0  0  0  0  0  0  0  0  0  0
  -26.9310  -11.3710   20.6760 N   0  0  0  0  0  0  0  0  0  0  0  0
  -24.9630  -10.1240   21.1710 C   0  0  0  0  0  0  0  0  0  0  0  0
  -25.1810   -9.2410   22.2480 C   0  0  0  0  0  3  0  0  0  0  0  0
  -24.4660   -8.0280   22.3230 C   0  0  0  0  0  3  0  0  0  0  0  0
  -23.5270   -7.6980   21.3160 C   0  0  0  0  0  0  0  0  0  0  0  0
  -23.3410   -8.5720   20.2310 C   0  0  0  0  0  3  0  0  0  0  0  0
  -24.0560   -9.7750   20.1550 C   0  0  0  0  0  3  0  0  0  0  0  0
  -22.8010   -6.5350   21.2930 O   0  0  0  0  0  0  0  0  0  0  0  0
  -22.1540   -6.0750   22.4100 C   0  0  0  0  0  0  0  0  0  0  0  0
  -21.1260   -6.8140   23.0360 C   0  0  0  0  0  3  0  0  0  0  0  0
  -20.4410   -6.2680   24.1400 C   0  0  0  0  0  3  0  0  0  0  0  0
  -20.7770   -4.9850   24.6110 C   0  0  0  0  0  0  0  0  0  0  0  0
  -21.7970   -4.2480   23.9860 C   0  0  0  0  0  3  0  0  0  0  0  0
  -22.4820   -4.7910   22.8870 C   0  0  0  0  0  0  0  0  0  0  0  0
  -23.4510   -4.0690   22.2730 F   0  0  0  0  0  0  0  0  0  0  0  0
  -20.1120   -4.4570   25.6650 F   0  0  0  0  0  0  0  0  0  0  0  0
  -23.8380  -13.1950   21.6210 C   0  0  0  0  0  0  0  0  0  0  0  0
  -23.1380  -12.4280   22.4450 N   0  0  0  0  0  0  0  0  0  0  0  0
  -23.4040  -14.2740   21.2170 O   0  0  0  0  0  0  0  0  0  0  0  0
  -23.5090  -11.5540   22.7890 H   0  0  0  0  0  0  0  0  0  0  0  0
  -22.2170  -12.7170   22.7380 H   0  0  0  0  0  0  0  0  0  0  0  0
  -26.4250  -14.9260   20.8640 N   0  0  0  0  0  0  0  0  0  0  0  0
  -25.5700  -15.4740   20.8280 H   0  0  0  0  0  0  0  0  0  0  0  0
  -27.1240  -15.2900   20.2350 H   0  0  0  0  0  0  0  0  0  0  0  0
  -20.9560  -23.1010   17.2020 C   0  0  0  0  0  2  0  0  0  0  0  0
  -20.1390  -24.2890   16.5380 C   0  0  0  0  0  2  0  0  0  0  0  0
  -22.1790  -23.8920   17.6510 C   0  0  0  0  0  1  0  0  0  0  0  0
  -21.1880  -25.3800   16.6520 N   0  0  0  0  0  2  0  0  0  0  0  0
  -20.8220  -25.9680   17.3810 H   0  0  0  0  0  0  0  0  0  0  0  0
  -22.5750  -26.9760   15.2230 C   0  0  0  0  0 15  0  0  0  0  0  0
  -24.6390  -26.9000   15.5020 C   0  0  0  0  0  1  0  0  0  0  0  0
  -25.9440  -26.4070   16.7060 O   0  0  0  0  0  0  0  0  0  0  0  0
  -24.8080  -29.2550   21.3720 C   0  0  0  0  0  0  0  0  0  0  0  0
  -27.3570  -26.6290   16.9460 C   0  0  0  0  0  3  0  0  0  0  0  0
  -24.3790  -29.3570   18.9720 C   0  0  0  0  0  3  0  0  0  0  0  0
  -26.3960  -28.9640   17.3830 C   0  0  0  0  0  3  0  0  0  0  0  0
  -26.7490  -28.9750   19.8380 C   0  0  0  0  0  2  0  0  0  0  0  0
  -26.9940  -28.3570   18.4870 C   0  0  0  0  0  3  0  0  0  0  0  0
  -27.6750  -27.1510   18.2400 C   0  0  0  0  0  2  0  0  0  0  0  0
  -27.6740  -27.4730   15.9240 C   0  0  0  0  0  2  0  0  0  0  0  0
  -26.9220  -28.6510   16.0940 C   0  0  0  0  0  2  0  0  0  0  0  0
  -25.1470  -29.7830   17.6670 C   0  0  0  0  0  2  0  0  0  0  0  0
  -25.3200  -29.2400   20.1140 N   0  0  0  0  0  0  0  0  0  0  0  0
  -23.6040  -29.4600   21.5770 O   0  0  0  0  0  0  0  0  0  0  0  0
  -23.6120  -28.0050   18.9330 C   0  0  0  0  0  0  0  0  0  0  0  0
  -22.4010  -27.8730   19.4020 N   0  0  0  0  0  0  0  0  0  0  0  0
  -24.1370  -26.9790   18.5390 O   0  0  0  0  0  0  0  0  0  0  0  0
  -21.9480  -28.6580   19.8530 H   0  0  0  0  0  0  0  0  0  0  0  0
  -19.0470  -27.2360   20.5490 C   0  0  0  0  0  0  0  0  0  0  0  0
  -21.5190  -26.7490   18.9430 C   0  0  0  0  0  2  0  0  0  0  0  0
  -20.8910  -27.0030   16.9190 C   0  0  0  0  0 15  0  0  0  0  0  0
  -18.4260  -27.8740   17.0560 C   0  0  0  0  0 15  0  0  0  0  0  0
  -17.9410  -27.7620   19.1700 C   0  0  0  0  0  1  0  0  0  0  0  0
  -20.5310  -26.8720   20.4250 C   0  0  0  0  0  0  0  0  0  0  0  0
  -21.2910  -26.8260   21.6930 C   0  0  0  0  0  3  0  0  0  0  0  0
  -20.7880  -26.9430   23.0210 C   0  0  0  0  0  3  0  0  0  0  0  0
  -19.4050  -27.0720   23.1590 C   0  0  0  0  0  3  0  0  0  0  0  0
  -18.5940  -27.2150   21.9720 C   0  0  0  0  0  3  0  0  0  0  0  0
  -25.7290  -29.0280   22.5990 C   0  0  0  0  0  3  0  0  0  0  0  0
  -25.3670  -27.7310   23.4230 C   0  0  1  0  0  0  0  0  0  0  0  0
  -23.8580  -27.5870   23.7230 C   0  0  0  0  0  1  0  0  0  0  0  0
  -25.8220  -26.4490   22.6860 C   0  0  0  0  0  1  0  0  0  0  0  0
  -26.1270  -27.7580   24.7690 C   0  0  0  0  0  1  0  0  0  0  0  0
  -25.6010  -30.2300   23.4240 N   0  0  0  0  0  0  0  0  0  0  0  0
  -26.4530  -31.2610   23.3920 C   0  0  0  0  0  0  0  0  0  0  0  0
  -27.4890  -31.2530   22.7200 O   0  0  0  0  0  0  0  0  0  0  0  0
  -24.7510  -30.3290   23.9600 H   0  0  0  0  0  0  0  0  0  0  0  0
  -25.5110  -33.5940   23.3520 C   0  0  0  0  0  1  0  0  0  0  0  0
  -26.1010  -32.4900   24.2460 C   0  0  0  0  0  3  0  0  0  0  0  0
  -27.7210  -32.1200   26.0520 C   0  0  0  0  0  1  0  0  0  0  0  0
  -27.2490  -33.0260   25.0070 N   0  0  0  0  0  0  0  0  0  0  0  0
  -27.0060  -33.9100   25.4450 H   0  0  0  0  0  0  0  0  0  0  0  0
  1  2  1  0
  2  4  1  0
  3  1  1  0
  5  7  1  0
  5  9  1  0
  6  8  1  0
  9 11  1  0
  9  6  1  0
 10  9  1  0
 12 18  1  0
 13 18  1  0
 14 15  1  0
 14 13  1  0
 16 15  1  0
 16 25  1  0
 16 17  1  0
 18 17  1  0
 19 12  2  0
 20 21  1  0
 20 12  1  0
 22 23  2  0
 23 42  1  0
 24 27  1  0
 24 23  1  0
 25 26  1  0
 25 22  1  0
 26 24  2  0
 27 28  1  0
 28 29  2  0
 30 29  1  0
 31 30  2  0
 32 31  1  0
 32 27  2  0
 33 30  1  0
 33 34  1  0
 34 39  2  0
 34 35  1  0
 35 36  2  0
 36 37  1  0
 37 41  1  0
 38 37  2  0
 39 38  1  0
 40 39  1  0
 42 43  1  0
 43 46  1  0
 43 45  1  0
 44 42  2  0
 47 22  1  0
 48 47  1  0
 49 47  1  0
 50 52  1  0
 51 53  1  0
 51 50  1  0
 53 54  1  0
 56 57  1  0
 58 69  2  0
 59 57  1  0
 59 64  1  0
 60 70  1  0
 60 68  1  0
 61 66  1  0
 61 67  1  0
 61 63  1  0
 62 68  1  0
 63 64  1  0
 63 62  1  0
 65 66  1  0
 65 59  1  0
 67 60  1  0
 68 58  1  0
 70 71  1  0
 71 73  1  0
 72 70  2  0
 74 83  1  0
 75 71  1  0
 75 79  1  0
 78 74  1  0
 79 74  2  0
 79 80  1  0
 80 81  2  0
 81 82  1  0
 83 82  2  0
 84 58  1  0
 84 85  1  0
 84 89  1  0
 85 86  1  1
 85 88  1  0
 87 85  1  0
 89 92  1  0
 90 89  1  0
 90 94  1  0
 91 90  2  0
 94 93  1  0
 94 96  1  0
 96 97  1  0
 96 95  1  0
M  ISO  4  12 100  20 100  56 101  57 101
M  END
>  <TORSDO>  (32) 
F 20

>  <SCORE>  (32) 
-5.121

>  <name>  (32) 
31

>  <ligand_id>  (32) 
31

>  <original_smiles>  (32) 
[H]c1c([H])c([H])c2c(c1[H])C([H])([H])C([H])([H])C([H])([H])C2([H])N([H])C(=O)C1([H])N(C(=O)C([H])(N([H])C(=O)C([H])(N([H])C([H])([H])[H])C([H])([H])[H])C(C([H])([H])[H])(C([H])([H])[H])C([H])([H])[H])C([H])([H])c2c([H])c(OC([H])([H])C([H])([H])[N+]3([H])C([H])([H])C([H])([H])C3([H])C(=O)N([H])C3([H])C([H])(N([H])C(=O)N4C([H])([H])C([H])([H])C([H])([H])C([H])(n5nc(-c6c([H])c([H])c(Oc7c([H])c([H])c(F)c([H])c7F)c([H])c6[H])c(C(=O)N([H])[H])c5N([H])[H])C4([H])[H])C([H])([H])[N+]([H])([H])C3([H])[H])c([H])c([H])c2C1([H])[H]

>  <smiles>  (32) 
[H]c1c([H])c([H])c2c(c1[H])C([H])([H])C([H])([H])C([H])([H])C2([H])N([H])C(=O)C1([H])N(C(=O)C([H])(N([H])C(=O)C([H])(N([H])C([H])([H])[H])C([H])([H])[H])C(C([H])([H])[H])(C([H])([H])[H])C([H])([H])[H])C([H])([H])c2c([H])c(OC([H])([H])C([H])([H])[N+]3([H])C([H])([H])C([H])([H])C3([H])C(=O)N([H])C3([H])C([H])(N([H])C(=O)N4C([H])([H])C([H])([H])C([H])([H])C([H])(n5nc(-c6c([H])c([H])c(Oc7c([H])c([H])c(F)c([H])c7F)c([H])c6[H])c(C(=O)N([H])[H])c5N([H])[H])C4([H])[H])C([H])([H])[N+]([H])([H])C3([H])[H])c([H])c([H])c2C1([H])[H]

$$$$
32:0:0
     RDKit          3D

 95103  0  0  1  0  0  0  0  0999 V2000
  -28.7340  -22.2030   20.8100 C   0  0  0  0  0  2  0  0  0  0  0  0
  -30.3390  -20.1060   21.3110 C   0  0  0  0  0  3  0  0  0  0  0  0
  -29.0210  -18.4270   19.5420 C   0  0  0  0  0  3  0  0  0  0  0  0
  -29.3610  -20.7450   20.4860 C   0  0  0  0  0  0  0  0  0  0  0  0
  -29.8970  -17.7610   20.4600 C   0  0  0  0  0  0  0  0  0  0  0  0
  -28.7550  -19.8440   19.5580 C   0  0  0  0  0  0  0  0  0  0  0  0
  -30.5980  -18.6830   21.3030 C   0  0  0  0  0  0  0  0  0  0  0  0
  -27.8050  -20.3230   18.7230 F   0  0  0  0  0  0  0  0  0  0  0  0
  -31.4710  -18.1990   22.2170 F   0  0  0  0  0  0  0  0  0  0  0  0
  -29.7660  -16.1740   20.7940 C   0  0  2  0  0  0  0  0  0  0  0  0
  -28.4640  -15.9940   20.5900 F   0  0  0  0  0  0  0  0  0  0  0  0
  -29.9350  -16.0550   22.1110 F   0  0  0  0  0  0  0  0  0  0  0  0
  -30.5530  -14.9010   20.1220 C   0  0  0  0  0  0  0  0  0  0  0  0
  -30.3830  -12.6190   19.0310 C   0  0  0  0  0  2  0  0  0  0  0  0
  -29.3710  -12.6660   17.8590 C   0  0  0  0  0  2  0  0  0  0  0  0
  -27.9310  -12.4470   18.3620 C   0  0  0  0  0  2  0  0  0  0  0  0
  -27.6010  -13.3200   19.5960 C   0  0  0  0  0  3  0  0  0  0  0  0
  -28.7170  -13.2110   20.6630 C   0  0  0  0  0  2  0  0  0  0  0  0
  -29.9790  -13.6370   20.0360 N   0  0  0  0  0  0  0  0  0  0  0  0
  -31.6820  -15.0510   19.6400 O   0  0  0  0  0  0  0  0  0  0  0  0
  -25.2510  -13.9150   20.4470 C   0  0  0  0  0  0  0  0  0  0  0  0
  -24.2000  -13.1370   20.8490 C   0  0  0  0  0  0  0  0  0  0  0  0
  -24.6580  -11.7860   20.7730 C   0  0  0  0  0  0  0  0  0  0  0  0
  -26.2800  -13.0360   20.1450 N   0  0  0  0  0  0  0  0  0  0  0  0
  -25.9330  -11.7510   20.4040 N   0  0  0  0  0  0  0  0  0  0  0  0
  -23.9390  -10.5220   20.9700 C   0  0  0  0  0  0  0  0  0  0  0  0
  -24.3900   -9.5540   21.8930 C   0  0  0  0  0  3  0  0  0  0  0  0
  -23.6720   -8.3530   22.0770 C   0  0  0  0  0  3  0  0  0  0  0  0
  -22.4880   -8.1130   21.3380 C   0  0  0  0  0  0  0  0  0  0  0  0
  -22.0590   -9.0700   20.4030 C   0  0  0  0  0  3  0  0  0  0  0  0
  -22.7770  -10.2630   20.2170 C   0  0  0  0  0  3  0  0  0  0  0  0
  -21.7410   -6.9640   21.4330 O   0  0  0  0  0  0  0  0  0  0  0  0
  -21.6860   -6.2350   22.5940 C   0  0  0  0  0  0  0  0  0  0  0  0
  -21.2380   -6.7990   23.8070 C   0  0  0  0  0  3  0  0  0  0  0  0
  -21.1330   -5.9960   24.9610 C   0  0  0  0  0  3  0  0  0  0  0  0
  -21.4660   -4.6290   24.9010 C   0  0  0  0  0  0  0  0  0  0  0  0
  -21.9060   -4.0650   23.6900 C   0  0  0  0  0  3  0  0  0  0  0  0
  -22.0140   -4.8650   22.5410 C   0  0  0  0  0  0  0  0  0  0  0  0
  -22.4200   -4.3120   21.3720 F   0  0  0  0  0  0  0  0  0  0  0  0
  -21.3580   -3.8560   26.0060 F   0  0  0  0  0  0  0  0  0  0  0  0
  -22.8180  -13.6100   21.1950 C   0  0  0  0  0  0  0  0  0  0  0  0
  -22.1300  -12.8950   22.0780 N   0  0  0  0  0  0  0  0  0  0  0  0
  -22.3590  -14.6480   20.7190 O   0  0  0  0  0  0  0  0  0  0  0  0
  -22.5130  -12.0530   22.4800 H   0  0  0  0  0  0  0  0  0  0  0  0
  -21.2050  -13.1940   22.3550 H   0  0  0  0  0  0  0  0  0  0  0  0
  -25.4140  -15.2880   20.2930 N   0  0  0  0  0  0  0  0  0  0  0  0
  -24.6660  -15.9490   20.4710 H   0  0  0  0  0  0  0  0  0  0  0  0
  -26.2780  -15.7340   20.0090 H   0  0  0  0  0  0  0  0  0  0  0  0
  -29.1730  -23.6940   20.2740 C   0  0  0  0  0  3  0  0  0  0  0  0
  -30.5230  -24.0400   20.7700 N   0  0  0  0  0  4  0  0  0  0  0  0
  -31.1970  -23.3450   20.5000 H   0  0  0  0  0  0  0  0  0  0  0  0
  -30.5480  -24.1230   21.7720 H   0  0  0  0  0  0  0  0  0  0  0  0
  -30.8160  -24.9240   20.3850 H   0  0  0  0  0  0  0  0  0  0  0  0
  -28.1410  -24.9340   20.6010 C   0  0  0  0  0  2  0  0  0  0  0  0
  -28.3700  -26.4050   20.2800 O   0  0  0  0  0  0  0  0  0  0  0  0
  -24.6190  -31.9300   23.2480 C   0  0  0  0  0  0  0  0  0  0  0  0
  -27.2610  -27.2980   20.2460 C   0  0  0  0  0  0  0  0  0  0  0  0
  -23.4310  -30.5170   21.6100 C   0  0  0  0  0  3  0  0  0  0  0  0
  -24.8960  -28.9510   20.2060 C   0  0  0  0  0  0  0  0  0  0  0  0
  -25.9770  -30.8240   21.4430 C   0  0  0  0  0  2  0  0  0  0  0  0
  -26.0640  -29.4350   20.8070 C   0  0  0  0  0  0  0  0  0  0  0  0
  -27.2500  -28.6240   20.8090 C   0  0  0  0  0  3  0  0  0  0  0  0
  -26.0640  -26.8910   19.6120 C   0  0  0  0  0  3  0  0  0  0  0  0
  -24.9010  -27.6870   19.5970 C   0  0  0  0  0  3  0  0  0  0  0  0
  -23.6590  -29.8310   20.2380 C   0  0  0  0  0  2  0  0  0  0  0  0
  -24.6960  -31.1110   22.1560 N   0  0  0  0  0  0  0  0  0  0  0  0
  -23.5320  -32.2080   23.7760 O   0  0  0  0  0  0  0  0  0  0  0  0
  -22.7620  -29.5090   22.5760 C   0  0  0  0  0  0  0  0  0  0  0  0
  -21.4350  -29.3370   22.4530 N   0  0  0  0  0  0  0  0  0  0  0  0
  -23.4390  -28.8820   23.3960 O   0  0  0  0  0  0  0  0  0  0  0  0
  -20.9470  -29.8960   21.7670 H   0  0  0  0  0  0  0  0  0  0  0  0
  -18.0530  -28.1490   22.9650 C   0  0  0  0  0  0  0  0  0  0  0  0
  -20.6140  -28.4020   23.2240 C   0  0  0  0  0  3  0  0  0  0  0  0
  -20.7080  -26.9690   22.6470 C   0  0  0  0  0  2  0  0  0  0  0  0
  -19.6010  -26.6510   21.6380 C   0  0  0  0  0  2  0  0  0  0  0  0
  -18.2220  -26.7990   22.2880 C   0  0  0  0  0  2  0  0  0  0  0  0
  -19.1750  -28.9090   23.3900 C   0  0  0  0  0  0  0  0  0  0  0  0
  -18.9590  -30.1710   23.9850 C   0  0  0  0  0  3  0  0  0  0  0  0
  -17.6570  -30.6740   24.1570 C   0  0  0  0  0  3  0  0  0  0  0  0
  -16.5490  -29.9110   23.7460 C   0  0  0  0  0  3  0  0  0  0  0  0
  -16.7490  -28.6510   23.1570 C   0  0  0  0  0  3  0  0  0  0  0  0
  -25.8940  -32.5720   23.8750 C   0  0  0  0  0  3  0  0  0  0  0  0
  -25.5810  -33.9740   24.1880 N   0  0  0  0  0  0  0  0  0  0  0  0
  -25.9280  -35.0210   23.4270 C   0  0  0  0  0  0  0  0  0  0  0  0
  -26.6130  -34.9060   22.4080 O   0  0  0  0  0  0  0  0  0  0  0  0
  -24.9740  -34.1360   24.9790 H   0  0  0  0  0  0  0  0  0  0  0  0
  -24.2190  -36.8230   23.0260 C   0  0  0  0  0  1  0  0  0  0  0  0
  -25.4390  -36.4150   23.8660 C   0  0  0  0  0  3  0  0  0  0  0  0
  -27.5590  -37.2960   24.7390 C   0  0  0  0  0  1  0  0  0  0  0  0
  -26.4800  -37.4610   23.7680 N   0  0  0  0  0  0  0  0  0  0  0  0
  -26.0760  -38.3840   23.8950 H   0  0  0  0  0  0  0  0  0  0  0  0
  -26.4000  -31.8160   25.1660 C   0  0  1  0  0  0  0  0  0  0  0  0
  -25.2980  -31.5880   26.2290 C   0  0  0  0  0  1  0  0  0  0  0  0
  -26.9860  -30.4340   24.7990 C   0  0  0  0  0  1  0  0  0  0  0  0
  -27.5440  -32.6210   25.8290 C   0  0  0  0  0  1  0  0  0  0  0  0
  3  6  2  0
  3  5  1  0
  4  1  1  0
  4  2  2  0
  5 10  1  0
  5  7  2  0
  6  4  1  0
  7  2  1  0
  7  9  1  0
  8  6  1  0
 10 12  1  1
 11 10  1  0
 13 10  1  0
 14 19  1  0
 15 16  1  0
 15 14  1  0
 17 16  1  0
 17 24  1  0
 17 18  1  0
 19 13  1  0
 19 18  1  0
 20 13  2  0
 21 22  2  0
 22 41  1  0
 23 22  1  0
 23 26  1  0
 24 25  1  0
 24 21  1  0
 25 23  2  0
 26 27  1  0
 27 28  2  0
 29 32  1  0
 29 28  1  0
 30 29  2  0
 31 30  1  0
 31 26  2  0
 32 33  1  0
 33 34  1  0
 34 35  2  0
 36 35  1  0
 36 40  1  0
 37 36  2  0
 38 33  2  0
 38 37  1  0
 39 38  1  0
 41 42  1  0
 42 45  1  0
 42 44  1  0
 43 41  2  0
 46 21  1  0
 46 47  1  0
 48 46  1  0
 49 54  1  0
 49 50  1  0
 49  1  1  0
 50 52  1  0
 51 50  1  0
 53 50  1  0
 55 54  1  0
 56 67  2  0
 57 55  1  0
 57 62  1  0
 58 66  1  0
 58 68  1  0
 59 65  1  0
 59 61  1  0
 60 66  1  0
 61 62  2  0
 61 60  1  0
 63 57  2  0
 64 63  1  0
 64 59  2  0
 65 58  1  0
 66 56  1  0
 68 70  2  0
 69 68  1  0
 71 69  1  0
 72 81  2  0
 72 77  1  0
 73 69  1  0
 73 77  1  0
 74 73  1  0
 75 76  1  0
 75 74  1  0
 76 72  1  0
 77 78  2  0
 78 79  1  0
 80 79  2  0
 81 80  1  0
 82 56  1  0
 82 83  1  0
 82 92  1  0
 83 86  1  0
 84 88  1  0
 84 83  1  0
 85 84  2  0
 88 87  1  0
 90 88  1  0
 90 91  1  0
 90 89  1  0
 92 95  1  1
 92 93  1  0
 94 92  1  0
M  ISO  4  10 100  13 100  54 101  55 101
M  END
>  <TORSDO>  (33) 
F 21

>  <SCORE>  (33) 
-14.052

>  <name>  (33) 
32

>  <ligand_id>  (33) 
32

>  <original_smiles>  (33) 
[H]c1c([H])c([H])c2c(c1[H])C([H])([H])C([H])([H])C([H])([H])C2([H])N([H])C(=O)C1([H])N(C(=O)C([H])(N([H])C(=O)C([H])(N([H])C([H])([H])[H])C([H])([H])[H])C(C([H])([H])[H])(C([H])([H])[H])C([H])([H])[H])C([H])([H])c2c([H])c(OC([H])([H])C([H])(C([H])([H])c3c([H])c(F)c(C(F)(F)C(=O)N4C([H])([H])C([H])([H])C([H])([H])C([H])(n5nc(-c6c([H])c([H])c(Oc7c([H])c([H])c(F)c([H])c7F)c([H])c6[H])c(C(=O)N([H])[H])c5N([H])[H])C4([H])[H])c([H])c3F)[N+]([H])([H])[H])c([H])c([H])c2C1([H])[H]

>  <smiles>  (33) 
[H]c1c([H])c([H])c2c(c1[H])C([H])([H])C([H])([H])C([H])([H])C2([H])N([H])C(=O)C1([H])N(C(=O)C([H])(N([H])C(=O)C([H])(N([H])C([H])([H])[H])C([H])([H])[H])C(C([H])([H])[H])(C([H])([H])[H])C([H])([H])[H])C([H])([H])c2c([H])c(OC([H])([H])C([H])(C([H])([H])c3c([H])c(F)c(C(F)(F)C(=O)N4C([H])([H])C([H])([H])C([H])([H])C([H])(n5nc(-c6c([H])c([H])c(Oc7c([H])c([H])c(F)c([H])c7F)c([H])c6[H])c(C(=O)N([H])[H])c5N([H])[H])C4([H])[H])c([H])c3F)[N+]([H])([H])[H])c([H])c([H])c2C1([H])[H]

$$$$
33:0:0
     RDKit          3D

 90 98  0  0  1  0  0  0  0  0999 V2000
  -30.1190  -20.8610   20.8520 C   0  0  0  0  0  3  0  0  0  0  0  0
  -28.2250  -20.1970   19.7330 C   0  0  0  0  0  3  0  0  0  0  0  0
  -29.4410  -19.6770   20.3210 C   0  0  0  0  0  0  0  0  0  0  0  0
  -28.4780  -22.7950   20.2060 C   0  0  0  0  0  0  0  0  0  0  0  0
  -29.6930  -22.2860   20.8160 C   0  0  0  0  0  0  0  0  0  0  0  0
  -27.7870  -21.6140   19.6880 C   0  0  0  0  0  0  0  0  0  0  0  0
  -30.5230  -23.1900   21.3930 F   0  0  0  0  0  0  0  0  0  0  0  0
  -26.6000  -21.8400   19.0760 F   0  0  0  0  0  0  0  0  0  0  0  0
  -30.9070  -18.1900   18.8250 C   0  0  0  0  0  1  0  0  0  0  0  0
  -30.1850  -18.1140   20.1810 C   0  0  0  0  0  0  0  0  0  0  0  0
  -30.4620  -15.2490   20.2600 C   0  0  0  0  0  0  0  0  0  0  0  0
  -30.3700  -12.8390   19.3450 C   0  0  0  0  0  2  0  0  0  0  0  0
  -29.4250  -12.6840   18.1290 C   0  0  0  0  0  2  0  0  0  0  0  0
  -27.9830  -12.4210   18.5940 C   0  0  0  0  0  2  0  0  0  0  0  0
  -27.5630  -13.3630   19.7500 C   0  0  0  0  0  3  0  0  0  0  0  0
  -28.6360  -13.4830   20.8550 C   0  0  0  0  0  2  0  0  0  0  0  0
  -29.8600  -13.9690   20.2020 N   0  0  0  0  0  0  0  0  0  0  0  0
  -31.6770  -15.2260   20.0220 O   0  0  0  0  0  0  0  0  0  0  0  0
  -29.7450  -16.5340   20.3650 N   0  0  0  0  0  4  0  0  0  0  0  0
  -28.7580  -16.4150   20.5370 H   0  0  0  0  0  0  0  0  0  0  0  0
  -25.2040  -13.9050   20.5540 C   0  0  0  0  0  0  0  0  0  0  0  0
  -24.1520  -13.1180   20.9340 C   0  0  0  0  0  0  0  0  0  0  0  0
  -24.6260  -11.7710   20.8820 C   0  0  0  0  0  0  0  0  0  0  0  0
  -26.2460  -13.0380   20.2830 N   0  0  0  0  0  0  0  0  0  0  0  0
  -25.9120  -11.7470   20.5480 N   0  0  0  0  0  0  0  0  0  0  0  0
  -23.9090  -10.5020   21.0710 C   0  0  0  0  0  0  0  0  0  0  0  0
  -24.3560   -9.5300   21.9920 C   0  0  0  0  0  3  0  0  0  0  0  0
  -23.6350   -8.3290   22.1710 C   0  0  0  0  0  3  0  0  0  0  0  0
  -22.4540   -8.0920   21.4290 C   0  0  0  0  0  0  0  0  0  0  0  0
  -22.0260   -9.0540   20.4970 C   0  0  0  0  0  3  0  0  0  0  0  0
  -22.7460  -10.2460   20.3160 C   0  0  0  0  0  3  0  0  0  0  0  0
  -21.7040   -6.9440   21.5180 O   0  0  0  0  0  0  0  0  0  0  0  0
  -21.6660   -6.1970   22.6680 C   0  0  0  0  0  0  0  0  0  0  0  0
  -21.2310   -6.7390   23.8960 C   0  0  0  0  0  3  0  0  0  0  0  0
  -21.1420   -5.9170   25.0370 C   0  0  0  0  0  3  0  0  0  0  0  0
  -21.4780   -4.5530   24.9500 C   0  0  0  0  0  0  0  0  0  0  0  0
  -21.9070   -4.0090   23.7260 C   0  0  0  0  0  3  0  0  0  0  0  0
  -21.9970   -4.8290   22.5880 C   0  0  0  0  0  0  0  0  0  0  0  0
  -22.3900   -4.2950   21.4060 F   0  0  0  0  0  0  0  0  0  0  0  0
  -21.3860   -3.7610   26.0450 F   0  0  0  0  0  0  0  0  0  0  0  0
  -22.7570  -13.5850   21.2300 C   0  0  0  0  0  0  0  0  0  0  0  0
  -22.0490  -12.8820   22.1050 N   0  0  0  0  0  0  0  0  0  0  0  0
  -22.3060  -14.6090   20.7190 O   0  0  0  0  0  0  0  0  0  0  0  0
  -22.4280  -12.0540   22.5400 H   0  0  0  0  0  0  0  0  0  0  0  0
  -21.1130  -13.1780   22.3470 H   0  0  0  0  0  0  0  0  0  0  0  0
  -25.3540  -15.2780   20.3860 N   0  0  0  0  0  0  0  0  0  0  0  0
  -24.5810  -15.9230   20.5140 H   0  0  0  0  0  0  0  0  0  0  0  0
  -26.1830  -15.7240   20.0150 H   0  0  0  0  0  0  0  0  0  0  0  0
  -27.7700  -24.3760   20.0750 C   0  0  0  0  0  2  0  0  0  0  0  0
  -28.1770  -25.9320   20.3140 O   0  0  0  0  0  0  0  0  0  0  0  0
  -24.6620  -31.8990   23.2570 C   0  0  0  0  0  0  0  0  0  0  0  0
  -27.1890  -27.0380   20.2390 C   0  0  0  0  0  0  0  0  0  0  0  0
  -23.4590  -30.5100   21.6190 C   0  0  0  0  0  3  0  0  0  0  0  0
  -24.8990  -28.9090   20.1950 C   0  0  0  0  0  0  0  0  0  0  0  0
  -26.0260  -30.7170   21.4700 C   0  0  0  0  0  2  0  0  0  0  0  0
  -26.0890  -29.3120   20.8140 C   0  0  0  0  0  0  0  0  0  0  0  0
  -27.2310  -28.3970   20.8150 C   0  0  0  0  0  3  0  0  0  0  0  0
  -25.9710  -26.7860   19.5660 C   0  0  0  0  0  3  0  0  0  0  0  0
  -24.8630  -27.6650   19.5500 C   0  0  0  0  0  3  0  0  0  0  0  0
  -23.6830  -29.8310   20.2420 C   0  0  0  0  0  2  0  0  0  0  0  0
  -24.7370  -31.0680   22.1680 N   0  0  0  0  0  0  0  0  0  0  0  0
  -23.5750  -32.1940   23.7790 O   0  0  0  0  0  0  0  0  0  0  0  0
  -22.7630  -29.5150   22.5830 C   0  0  0  0  0  0  0  0  0  0  0  0
  -21.4320  -29.3550   22.4560 N   0  0  0  0  0  0  0  0  0  0  0  0
  -23.4260  -28.8870   23.4140 O   0  0  0  0  0  0  0  0  0  0  0  0
  -20.9510  -29.9120   21.7630 H   0  0  0  0  0  0  0  0  0  0  0  0
  -18.0440  -28.1610   22.9580 C   0  0  0  0  0  0  0  0  0  0  0  0
  -20.6040  -28.4230   23.2290 C   0  0  0  0  0  3  0  0  0  0  0  0
  -20.7040  -26.9870   22.6600 C   0  0  0  0  0  2  0  0  0  0  0  0
  -19.6040  -26.6630   21.6440 C   0  0  0  0  0  2  0  0  0  0  0  0
  -18.2200  -26.8100   22.2840 C   0  0  0  0  0  2  0  0  0  0  0  0
  -19.1620  -28.9250   23.3870 C   0  0  0  0  0  0  0  0  0  0  0  0
  -18.9410  -30.1860   23.9800 C   0  0  0  0  0  3  0  0  0  0  0  0
  -17.6360  -30.6860   24.1470 C   0  0  0  0  0  3  0  0  0  0  0  0
  -16.5320  -29.9190   23.7310 C   0  0  0  0  0  3  0  0  0  0  0  0
  -16.7370  -28.6590   23.1430 C   0  0  0  0  0  3  0  0  0  0  0  0
  -25.9380  -32.5330   23.8870 C   0  0  0  0  0  3  0  0  0  0  0  0
  -25.6290  -33.9340   24.2210 N   0  0  0  0  0  0  0  0  0  0  0  0
  -25.9370  -34.9910   23.4570 C   0  0  0  0  0  0  0  0  0  0  0  0
  -26.5760  -34.8890   22.4070 O   0  0  0  0  0  0  0  0  0  0  0  0
  -25.0580  -34.0860   25.0390 H   0  0  0  0  0  0  0  0  0  0  0  0
  -24.1830  -36.7780   23.1840 C   0  0  0  0  0  1  0  0  0  0  0  0
  -25.4660  -36.3800   23.9330 C   0  0  0  0  0  3  0  0  0  0  0  0
  -27.6310  -37.2880   24.6560 C   0  0  0  0  0  1  0  0  0  0  0  0
  -26.4850  -37.4400   23.7630 N   0  0  0  0  0  0  0  0  0  0  0  0
  -26.0800  -38.3580   23.9200 H   0  0  0  0  0  0  0  0  0  0  0  0
  -26.4400  -31.7650   25.1730 C   0  0  1  0  0  0  0  0  0  0  0  0
  -25.3370  -31.5430   26.2350 C   0  0  0  0  0  1  0  0  0  0  0  0
  -27.0150  -30.3800   24.8020 C   0  0  0  0  0  1  0  0  0  0  0  0
  -27.5910  -32.5550   25.8380 C   0  0  0  0  0  1  0  0  0  0  0  0
  2  3  1  0
  3  1  2  0
  4  5  2  0
  5  1  1  0
  5  7  1  0
  6  2  2  0
  6  4  1  0
  8  6  1  0
  9 10  1  0
 10  3  1  0
 10 19  2  0
 11 19  1  0
 12 17  1  0
 13 14  1  0
 13 12  1  0
 15 14  1  0
 15 24  1  0
 15 16  1  0
 17 11  1  0
 17 16  1  0
 18 11  2  0
 19 20  1  0
 21 22  2  0
 22 41  1  0
 23 22  1  0
 23 26  1  0
 24 25  1  0
 24 21  1  0
 25 23  2  0
 26 27  1  0
 27 28  2  0
 29 32  1  0
 29 28  1  0
 30 29  2  0
 31 30  1  0
 31 26  2  0
 32 33  1  0
 33 34  1  0
 34 35  2  0
 36 35  1  0
 36 40  1  0
 37 36  2  0
 38 33  2  0
 38 37  1  0
 39 38  1  0
 41 42  1  0
 42 45  1  0
 42 44  1  0
 43 41  2  0
 46 47  1  0
 46 21  1  0
 48 46  1  0
 49  4  1  0
 49 50  1  0
 51 62  2  0
 52 50  1  0
 52 57  1  0
 53 61  1  0
 53 63  1  0
 54 60  1  0
 54 56  1  0
 55 61  1  0
 56 57  2  0
 56 55  1  0
 58 52  2  0
 59 58  1  0
 59 54  2  0
 60 53  1  0
 61 51  1  0
 63 65  2  0
 64 63  1  0
 66 64  1  0
 67 76  2  0
 67 72  1  0
 68 64  1  0
 68 72  1  0
 69 68  1  0
 70 71  1  0
 70 69  1  0
 71 67  1  0
 72 73  2  0
 73 74  1  0
 75 74  2  0
 76 75  1  0
 77 51  1  0
 77 78  1  0
 77 87  1  0
 78 81  1  0
 79 83  1  0
 79 78  1  0
 80 79  2  0
 83 82  1  0
 85 86  1  0
 85 83  1  0
 85 84  1  0
 87 90  1  1
 87 88  1  0
 89 87  1  0
M  ISO  4  11 100  19 100  49 101  50 101
M  END
>  <TORSDO>  (34) 
F 18

>  <SCORE>  (34) 
-15.902

>  <name>  (34) 
33

>  <ligand_id>  (34) 
33

>  <original_smiles>  (34) 
[H]c1c([H])c([H])c2c(c1[H])C([H])([H])C([H])([H])C([H])([H])C2([H])N([H])C(=O)C1([H])N(C(=O)C([H])(N([H])C(=O)C([H])(N([H])C([H])([H])[H])C([H])([H])[H])C(C([H])([H])[H])(C([H])([H])[H])C([H])([H])[H])C([H])([H])c2c([H])c(OC([H])([H])c3c(F)c([H])c(C([H])(N([H])C(=O)N4C([H])([H])C([H])([H])C([H])([H])C([H])(n5nc(-c6c([H])c([H])c(Oc7c([H])c([H])c(F)c([H])c7F)c([H])c6[H])c(C(=O)N([H])[H])c5N([H])[H])C4([H])[H])C([H])([H])[H])c([H])c3F)c([H])c([H])c2C1([H])[H]

>  <smiles>  (34) 
[H]c1c([H])c([H])c2c(c1[H])C([H])([H])C([H])([H])C([H])([H])C2([H])N([H])C(=O)C1([H])N(C(=O)C([H])(N([H])C(=O)C([H])(N([H])C([H])([H])[H])C([H])([H])[H])C(C([H])([H])[H])(C([H])([H])[H])C([H])([H])[H])C([H])([H])c2c([H])c(OC([H])([H])c3c(F)c([H])c(C([H])(N([H])C(=O)N4C([H])([H])C([H])([H])C([H])([H])C([H])(n5nc(-c6c([H])c([H])c(Oc7c([H])c([H])c(F)c([H])c7F)c([H])c6[H])c(C(=O)N([H])[H])c5N([H])[H])C4([H])[H])C([H])([H])[H])c([H])c3F)c([H])c([H])c2C1([H])[H]

$$$$
34:0:0
     RDKit          3D

 90 98  0  0  1  0  0  0  0  0999 V2000
  -29.7620  -22.3310   20.6390 C   0  0  0  0  0  3  0  0  0  0  0  0
  -28.2010  -20.2110   19.7950 C   0  0  0  0  0  3  0  0  0  0  0  0
  -28.4910  -22.8250   20.1420 C   0  0  0  0  0  0  0  0  0  0  0  0
  -29.4760  -19.7140   20.2700 C   0  0  0  0  0  0  0  0  0  0  0  0
  -27.7550  -21.6240   19.7410 C   0  0  0  0  0  0  0  0  0  0  0  0
  -30.2100  -20.9140   20.6900 C   0  0  0  0  0  0  0  0  0  0  0  0
  -26.5160  -21.8300   19.2350 F   0  0  0  0  0  0  0  0  0  0  0  0
  -31.4690  -20.7130   21.1460 F   0  0  0  0  0  0  0  0  0  0  0  0
  -30.8510  -18.1790   18.7290 C   0  0  0  0  0  1  0  0  0  0  0  0
  -30.2030  -18.1410   20.1250 C   0  0  0  0  0  0  0  0  0  0  0  0
  -30.4920  -15.2810   20.2630 C   0  0  0  0  0  0  0  0  0  0  0  0
  -30.4080  -12.8670   19.3580 C   0  0  0  0  0  2  0  0  0  0  0  0
  -29.4740  -12.7090   18.1340 C   0  0  0  0  0  2  0  0  0  0  0  0
  -28.0260  -12.4490   18.5880 C   0  0  0  0  0  2  0  0  0  0  0  0
  -27.5980  -13.3950   19.7380 C   0  0  0  0  0  3  0  0  0  0  0  0
  -28.6620  -13.5150   20.8510 C   0  0  0  0  0  2  0  0  0  0  0  0
  -29.8920  -13.9980   20.2080 N   0  0  0  0  0  0  0  0  0  0  0  0
  -31.7070  -15.2610   20.0270 O   0  0  0  0  0  0  0  0  0  0  0  0
  -29.7720  -16.5650   20.3590 N   0  0  0  0  0  4  0  0  0  0  0  0
  -28.7860  -16.4440   20.5390 H   0  0  0  0  0  0  0  0  0  0  0  0
  -25.2350  -13.9430   20.5270 C   0  0  0  0  0  0  0  0  0  0  0  0
  -24.1790  -13.1590   20.8980 C   0  0  0  0  0  0  0  0  0  0  0  0
  -24.6490  -11.8100   20.8460 C   0  0  0  0  0  0  0  0  0  0  0  0
  -26.2770  -13.0720   20.2600 N   0  0  0  0  0  0  0  0  0  0  0  0
  -25.9360  -11.7820   20.5200 N   0  0  0  0  0  0  0  0  0  0  0  0
  -23.9250  -10.5430   21.0270 C   0  0  0  0  0  0  0  0  0  0  0  0
  -24.3580   -9.5720   21.9560 C   0  0  0  0  0  3  0  0  0  0  0  0
  -23.6320   -8.3720   22.1270 C   0  0  0  0  0  3  0  0  0  0  0  0
  -22.4600   -8.1370   21.3690 C   0  0  0  0  0  0  0  0  0  0  0  0
  -22.0470   -9.0990   20.4290 C   0  0  0  0  0  3  0  0  0  0  0  0
  -22.7730  -10.2880   20.2570 C   0  0  0  0  0  3  0  0  0  0  0  0
  -21.7060   -6.9910   21.4490 O   0  0  0  0  0  0  0  0  0  0  0  0
  -21.6450   -6.2500   22.6020 C   0  0  0  0  0  0  0  0  0  0  0  0
  -21.1770   -6.7970   23.8160 C   0  0  0  0  0  3  0  0  0  0  0  0
  -21.0650   -5.9800   24.9590 C   0  0  0  0  0  3  0  0  0  0  0  0
  -21.4100   -4.6180   24.8900 C   0  0  0  0  0  0  0  0  0  0  0  0
  -21.8710   -4.0700   23.6800 C   0  0  0  0  0  3  0  0  0  0  0  0
  -21.9840   -4.8840   22.5380 C   0  0  0  0  0  0  0  0  0  0  0  0
  -22.4090   -4.3450   21.3690 F   0  0  0  0  0  0  0  0  0  0  0  0
  -21.2960   -3.8320   25.9850 F   0  0  0  0  0  0  0  0  0  0  0  0
  -22.7840  -13.6290   21.1850 C   0  0  0  0  0  0  0  0  0  0  0  0
  -22.0660  -12.9270   22.0530 N   0  0  0  0  0  0  0  0  0  0  0  0
  -22.3390  -14.6570   20.6750 O   0  0  0  0  0  0  0  0  0  0  0  0
  -22.4390  -12.0960   22.4880 H   0  0  0  0  0  0  0  0  0  0  0  0
  -21.1290  -13.2240   22.2880 H   0  0  0  0  0  0  0  0  0  0  0  0
  -25.3910  -15.3160   20.3630 N   0  0  0  0  0  0  0  0  0  0  0  0
  -24.6200  -15.9620   20.4870 H   0  0  0  0  0  0  0  0  0  0  0  0
  -26.2220  -15.7590   19.9970 H   0  0  0  0  0  0  0  0  0  0  0  0
  -27.8000  -24.4080   19.9630 C   0  0  0  0  0  2  0  0  0  0  0  0
  -28.1940  -25.9580   20.2440 O   0  0  0  0  0  0  0  0  0  0  0  0
  -24.6390  -31.8760   23.2390 C   0  0  0  0  0  0  0  0  0  0  0  0
  -27.2010  -27.0610   20.1760 C   0  0  0  0  0  0  0  0  0  0  0  0
  -23.4460  -30.4930   21.5890 C   0  0  0  0  0  3  0  0  0  0  0  0
  -24.8980  -28.9170   20.1490 C   0  0  0  0  0  0  0  0  0  0  0  0
  -26.0120  -30.7200   21.4420 C   0  0  0  0  0  2  0  0  0  0  0  0
  -26.0850  -29.3210   20.7740 C   0  0  0  0  0  0  0  0  0  0  0  0
  -27.2330  -28.4130   20.7660 C   0  0  0  0  0  3  0  0  0  0  0  0
  -25.9840  -26.8070   19.5000 C   0  0  0  0  0  3  0  0  0  0  0  0
  -24.8700  -27.6790   19.4930 C   0  0  0  0  0  3  0  0  0  0  0  0
  -23.6760  -29.8290   20.2060 C   0  0  0  0  0  2  0  0  0  0  0  0
  -24.7200  -31.0550   22.1440 N   0  0  0  0  0  0  0  0  0  0  0  0
  -23.5500  -32.1580   23.7630 O   0  0  0  0  0  0  0  0  0  0  0  0
  -22.7580  -29.4840   22.5440 C   0  0  0  0  0  0  0  0  0  0  0  0
  -21.4280  -29.3180   22.4180 N   0  0  0  0  0  0  0  0  0  0  0  0
  -23.4250  -28.8530   23.3670 O   0  0  0  0  0  0  0  0  0  0  0  0
  -20.9420  -29.8780   21.7310 H   0  0  0  0  0  0  0  0  0  0  0  0
  -18.0460  -28.1070   22.9230 C   0  0  0  0  0  0  0  0  0  0  0  0
  -20.6060  -28.3730   23.1820 C   0  0  0  0  0  3  0  0  0  0  0  0
  -20.7070  -26.9450   22.5950 C   0  0  0  0  0  2  0  0  0  0  0  0
  -19.6030  -26.6310   21.5810 C   0  0  0  0  0  2  0  0  0  0  0  0
  -18.2220  -26.7660   22.2300 C   0  0  0  0  0  2  0  0  0  0  0  0
  -19.1640  -28.8680   23.3560 C   0  0  0  0  0  0  0  0  0  0  0  0
  -18.9430  -30.1210   23.9680 C   0  0  0  0  0  3  0  0  0  0  0  0
  -17.6360  -30.6140   24.1480 C   0  0  0  0  0  3  0  0  0  0  0  0
  -16.5340  -29.8510   23.7280 C   0  0  0  0  0  3  0  0  0  0  0  0
  -16.7380  -28.5990   23.1220 C   0  0  0  0  0  3  0  0  0  0  0  0
  -25.9110  -32.5150   23.8740 C   0  0  0  0  0  3  0  0  0  0  0  0
  -25.5940  -33.9130   24.2130 N   0  0  0  0  0  0  0  0  0  0  0  0
  -25.8920  -34.9730   23.4500 C   0  0  0  0  0  0  0  0  0  0  0  0
  -26.5270  -34.8770   22.3970 O   0  0  0  0  0  0  0  0  0  0  0  0
  -25.0250  -34.0600   25.0340 H   0  0  0  0  0  0  0  0  0  0  0  0
  -24.1250  -36.7490   23.1890 C   0  0  0  0  0  1  0  0  0  0  0  0
  -25.4140  -36.3590   23.9300 C   0  0  0  0  0  3  0  0  0  0  0  0
  -27.5730  -37.2850   24.6490 C   0  0  0  0  0  1  0  0  0  0  0  0
  -26.4260  -37.4240   23.7550 N   0  0  0  0  0  0  0  0  0  0  0  0
  -26.0160  -38.3420   23.9050 H   0  0  0  0  0  0  0  0  0  0  0  0
  -26.4130  -31.7450   25.1590 C   0  0  1  0  0  0  0  0  0  0  0  0
  -25.3080  -31.5100   26.2160 C   0  0  0  0  0  1  0  0  0  0  0  0
  -27.0000  -30.3650   24.7830 C   0  0  0  0  0  1  0  0  0  0  0  0
  -27.5570  -32.5400   25.8310 C   0  0  0  0  0  1  0  0  0  0  0  0
  1  6  1  0
  2  4  1  0
  3  1  2  0
  4  6  2  0
  5  2  2  0
  5  3  1  0
  6  8  1  0
  7  5  1  0
  9 10  1  0
 10  4  1  0
 10 19  2  0
 11 19  1  0
 12 17  1  0
 13 14  1  0
 13 12  1  0
 15 14  1  0
 15 24  1  0
 15 16  1  0
 17 11  1  0
 17 16  1  0
 18 11  2  0
 19 20  1  0
 21 22  2  0
 22 41  1  0
 23 22  1  0
 23 26  1  0
 24 25  1  0
 24 21  1  0
 25 23  2  0
 26 27  1  0
 27 28  2  0
 29 32  1  0
 29 28  1  0
 30 29  2  0
 31 30  1  0
 31 26  2  0
 32 33  1  0
 33 34  1  0
 34 35  2  0
 36 35  1  0
 36 40  1  0
 37 36  2  0
 38 33  2  0
 38 37  1  0
 39 38  1  0
 41 42  1  0
 42 45  1  0
 42 44  1  0
 43 41  2  0
 46 47  1  0
 46 21  1  0
 48 46  1  0
 49  3  1  0
 49 50  1  0
 51 62  2  0
 52 50  1  0
 52 57  1  0
 53 61  1  0
 53 63  1  0
 54 60  1  0
 54 56  1  0
 55 61  1  0
 56 55  1  0
 57 56  2  0
 58 52  2  0
 59 58  1  0
 59 54  2  0
 60 53  1  0
 61 51  1  0
 63 65  2  0
 64 63  1  0
 66 64  1  0
 67 76  2  0
 67 72  1  0
 68 64  1  0
 68 72  1  0
 69 68  1  0
 70 71  1  0
 70 69  1  0
 71 67  1  0
 72 73  2  0
 73 74  1  0
 75 74  2  0
 76 75  1  0
 77 51  1  0
 77 78  1  0
 77 87  1  0
 78 81  1  0
 79 83  1  0
 79 78  1  0
 80 79  2  0
 83 82  1  0
 85 86  1  0
 85 83  1  0
 85 84  1  0
 87 90  1  1
 87 88  1  0
 89 87  1  0
M  ISO  4  11 100  19 100  49 101  50 101
M  END
>  <TORSDO>  (35) 
F 18

>  <SCORE>  (35) 
-15.891

>  <name>  (35) 
34

>  <ligand_id>  (35) 
34

>  <original_smiles>  (35) 
[H]c1c([H])c([H])c2c(c1[H])C([H])([H])C([H])([H])C([H])([H])C2([H])N([H])C(=O)C1([H])N(C(=O)C([H])(N([H])C(=O)C([H])(N([H])C([H])([H])[H])C([H])([H])[H])C(C([H])([H])[H])(C([H])([H])[H])C([H])([H])[H])C([H])([H])c2c([H])c(OC([H])([H])c3c([H])c(F)c(C([H])(N([H])C(=O)N4C([H])([H])C([H])([H])C([H])([H])C([H])(n5nc(-c6c([H])c([H])c(Oc7c([H])c([H])c(F)c([H])c7F)c([H])c6[H])c(C(=O)N([H])[H])c5N([H])[H])C4([H])[H])C([H])([H])[H])c([H])c3F)c([H])c([H])c2C1([H])[H]

>  <smiles>  (35) 
[H]c1c([H])c([H])c2c(c1[H])C([H])([H])C([H])([H])C([H])([H])C2([H])N([H])C(=O)C1([H])N(C(=O)C([H])(N([H])C(=O)C([H])(N([H])C([H])([H])[H])C([H])([H])[H])C(C([H])([H])[H])(C([H])([H])[H])C([H])([H])[H])C([H])([H])c2c([H])c(OC([H])([H])c3c([H])c(F)c(C([H])(N([H])C(=O)N4C([H])([H])C([H])([H])C([H])([H])C([H])(n5nc(-c6c([H])c([H])c(Oc7c([H])c([H])c(F)c([H])c7F)c([H])c6[H])c(C(=O)N([H])[H])c5N([H])[H])C4([H])[H])C([H])([H])[H])c([H])c3F)c([H])c([H])c2C1([H])[H]

$$$$
35:0:0
     RDKit          3D

 96104  0  0  1  0  0  0  0  0999 V2000
  -29.3710  -19.5760   21.7300 C   0  0  0  0  0  3  0  0  0  0  0  0
  -29.4240  -20.9600   21.9780 C   0  0  0  0  0  3  0  0  0  0  0  0
  -31.1060  -19.8040   20.0370 C   0  0  0  0  0  3  0  0  0  0  0  0
  -30.1960  -18.9950   20.7460 C   0  0  0  0  0  0  0  0  0  0  0  0
  -30.3000  -21.7850   21.2330 C   0  0  0  0  0  0  0  0  0  0  0  0
  -31.1540  -21.1890   20.2780 C   0  0  0  0  0  0  0  0  0  0  0  0
  -32.0000  -21.9670   19.5600 F   0  0  0  0  0  0  0  0  0  0  0  0
  -30.0860  -17.5140   20.4400 C   0  0  0  0  0  3  0  0  0  0  0  0
  -28.8000  -17.1520   20.4800 F   0  0  0  0  0  0  0  0  0  0  0  0
  -30.9030  -16.6450   21.4140 C   0  0  0  0  0  2  0  0  0  0  0  0
  -31.0640  -14.4830   20.1910 C   0  0  0  0  0  0  0  0  0  0  0  0
  -30.6870  -12.4080   18.9190 C   0  0  0  0  0  2  0  0  0  0  0  0
  -29.6980  -12.6400   17.7600 C   0  0  0  0  0  2  0  0  0  0  0  0
  -28.2390  -12.5110   18.2360 C   0  0  0  0  0  2  0  0  0  0  0  0
  -27.9540  -13.3370   19.5180 C   0  0  0  0  0  3  0  0  0  0  0  0
  -29.0310  -13.0490   20.5860 C   0  0  0  0  0  2  0  0  0  0  0  0
  -30.3590  -13.3400   20.0040 N   0  0  0  0  0  0  0  0  0  0  0  0
  -32.0300  -14.8200   19.5000 O   0  0  0  0  0  0  0  0  0  0  0  0
  -30.6240  -15.2310   21.2060 N   0  0  0  0  0  0  0  0  0  0  0  0
  -29.8860  -14.8300   21.7660 H   0  0  0  0  0  0  0  0  0  0  0  0
  -25.5790  -13.9750   20.2920 C   0  0  0  0  0  0  0  0  0  0  0  0
  -24.5100  -13.2120   20.6840 C   0  0  0  0  0  0  0  0  0  0  0  0
  -24.9510  -11.8550   20.6270 C   0  0  0  0  0  0  0  0  0  0  0  0
  -26.6070  -13.0820   20.0280 N   0  0  0  0  0  0  0  0  0  0  0  0
  -26.2310  -11.8020   20.2800 N   0  0  0  0  0  0  0  0  0  0  0  0
  -24.2160  -10.6000   20.8310 C   0  0  0  0  0  0  0  0  0  0  0  0
  -24.5990   -9.6740   21.8260 C   0  0  0  0  0  3  0  0  0  0  0  0
  -23.8670   -8.4830   22.0160 C   0  0  0  0  0  3  0  0  0  0  0  0
  -22.7380   -8.2070   21.2080 C   0  0  0  0  0  0  0  0  0  0  0  0
  -22.3750   -9.1200   20.2030 C   0  0  0  0  0  3  0  0  0  0  0  0
  -23.1060  -10.3050   20.0130 C   0  0  0  0  0  3  0  0  0  0  0  0
  -21.9840   -7.0630   21.3010 O   0  0  0  0  0  0  0  0  0  0  0  0
  -21.7920   -6.4210   22.4990 C   0  0  0  0  0  0  0  0  0  0  0  0
  -21.1650   -7.0590   23.5920 C   0  0  0  0  0  3  0  0  0  0  0  0
  -20.9240   -6.3420   24.7820 C   0  0  0  0  0  3  0  0  0  0  0  0
  -21.3020   -4.9900   24.8780 C   0  0  0  0  0  0  0  0  0  0  0  0
  -21.9220   -4.3520   23.7890 C   0  0  0  0  0  3  0  0  0  0  0  0
  -22.1640   -5.0660   22.6020 C   0  0  0  0  0  0  0  0  0  0  0  0
  -22.7420   -4.4420   21.5480 F   0  0  0  0  0  0  0  0  0  0  0  0
  -21.0650   -4.2980   26.0170 F   0  0  0  0  0  0  0  0  0  0  0  0
  -23.1280  -13.7050   21.0070 C   0  0  0  0  0  0  0  0  0  0  0  0
  -22.4210  -13.0090   21.8920 N   0  0  0  0  0  0  0  0  0  0  0  0
  -22.6820  -14.7370   20.5080 O   0  0  0  0  0  0  0  0  0  0  0  0
  -22.7950  -12.1740   22.3180 H   0  0  0  0  0  0  0  0  0  0  0  0
  -21.4940  -13.3180   22.1500 H   0  0  0  0  0  0  0  0  0  0  0  0
  -25.7590  -15.3440   20.1260 N   0  0  0  0  0  0  0  0  0  0  0  0
  -25.0210  -16.0190   20.2920 H   0  0  0  0  0  0  0  0  0  0  0  0
  -26.6380  -15.7740   19.8600 H   0  0  0  0  0  0  0  0  0  0  0  0
  -30.3330  -23.1850   21.3600 N   0  0  0  0  0  0  0  0  0  0  0  0
  -30.9040  -23.6290   20.6450 H   0  0  0  0  0  0  0  0  0  0  0  0
  -29.1110  -23.9030   21.7310 C   0  0  0  0  0  2  0  0  0  0  0  0
  -28.0930  -23.1510   19.4970 C   0  0  0  0  0  1  0  0  0  0  0  0
  -26.7360  -24.4430   21.1050 C   0  0  0  0  0  1  0  0  0  0  0  0
  -28.1770  -24.2990   20.5330 C   0  0  1  0  0  0  0  0  0  0  0  0
  -28.6690  -25.5920   19.7670 C   0  0  0  0  0  2  0  0  0  0  0  0
  -28.5990  -27.0380   19.8910 O   0  0  0  0  0  0  0  0  0  0  0  0
  -24.5840  -31.8270   23.2580 C   0  0  0  0  0  0  0  0  0  0  0  0
  -27.3840  -27.7200   19.8700 C   0  0  0  0  0  0  0  0  0  0  0  0
  -23.4270  -30.4950   21.5270 C   0  0  0  0  0  3  0  0  0  0  0  0
  -24.9320  -29.1270   19.9940 C   0  0  0  0  0  0  0  0  0  0  0  0
  -25.9370  -30.9680   21.3500 C   0  0  0  0  0  2  0  0  0  0  0  0
  -26.0710  -29.6510   20.6160 C   0  0  0  0  0  0  0  0  0  0  0  0
  -27.2980  -28.9550   20.5520 C   0  0  0  0  0  3  0  0  0  0  0  0
  -26.2230  -27.2210   19.2300 C   0  0  0  0  0  3  0  0  0  0  0  0
  -25.0030  -27.9110   19.2990 C   0  0  0  0  0  3  0  0  0  0  0  0
  -23.6550  -29.9240   20.1020 C   0  0  0  0  0  2  0  0  0  0  0  0
  -24.6680  -31.1090   22.1030 N   0  0  0  0  0  0  0  0  0  0  0  0
  -23.4940  -32.0180   23.8160 O   0  0  0  0  0  0  0  0  0  0  0  0
  -22.8240  -29.3810   22.4130 C   0  0  0  0  0  0  0  0  0  0  0  0
  -21.5090  -29.1520   22.2700 N   0  0  0  0  0  0  0  0  0  0  0  0
  -23.5360  -28.7320   23.1850 O   0  0  0  0  0  0  0  0  0  0  0  0
  -20.9970  -29.7350   21.6230 H   0  0  0  0  0  0  0  0  0  0  0  0
  -18.1860  -27.7950   22.6780 C   0  0  0  0  0  0  0  0  0  0  0  0
  -20.7320  -28.1300   22.9710 C   0  0  0  0  0  3  0  0  0  0  0  0
  -20.8880  -26.7490   22.2940 C   0  0  0  0  0  2  0  0  0  0  0  0
  -19.7960  -26.4550   21.2600 C   0  0  0  0  0  2  0  0  0  0  0  0
  -18.4120  -26.5010   21.9120 C   0  0  0  0  0  2  0  0  0  0  0  0
  -19.2750  -28.5660   23.1610 C   0  0  0  0  0  0  0  0  0  0  0  0
  -19.0090  -29.7780   23.8360 C   0  0  0  0  0  3  0  0  0  0  0  0
  -17.6860  -30.2170   24.0330 C   0  0  0  0  0  3  0  0  0  0  0  0
  -16.6120  -29.4410   23.5660 C   0  0  0  0  0  3  0  0  0  0  0  0
  -16.8620  -28.2310   22.8960 C   0  0  0  0  0  3  0  0  0  0  0  0
  -25.8470  -32.4640   23.9190 C   0  0  0  0  0  3  0  0  0  0  0  0
  -25.5030  -33.8430   24.2900 N   0  0  0  0  0  0  0  0  0  0  0  0
  -25.8180  -34.9240   23.5660 C   0  0  0  0  0  0  0  0  0  0  0  0
  -26.4990  -34.8690   22.5380 O   0  0  0  0  0  0  0  0  0  0  0  0
  -24.8990  -33.9590   25.0900 H   0  0  0  0  0  0  0  0  0  0  0  0
  -24.0530  -36.6870   23.2430 C   0  0  0  0  0  1  0  0  0  0  0  0
  -25.2930  -36.2870   24.0600 C   0  0  0  0  0  3  0  0  0  0  0  0
  -27.3900  -37.1960   24.9570 C   0  0  0  0  0  1  0  0  0  0  0  0
  -26.3040  -37.3650   23.9960 N   0  0  0  0  0  0  0  0  0  0  0  0
  -25.8740  -38.2720   24.1560 H   0  0  0  0  0  0  0  0  0  0  0  0
  -26.3650  -31.6590   25.1740 C   0  0  1  0  0  0  0  0  0  0  0  0
  -25.2630  -31.3470   26.2120 C   0  0  0  0  0  1  0  0  0  0  0  0
  -26.9950  -30.3150   24.7350 C   0  0  0  0  0  1  0  0  0  0  0  0
  -27.4810  -32.4590   25.8840 C   0  0  0  0  0  1  0  0  0  0  0  0
  1  2  1  0
  3  6  2  0
  3  4  1  0
  4  1  2  0
  5 49  1  0
  5  2  2  0
  6  5  1  0
  7  6  1  0
  8  9  1  0
  8  4  1  0
  8 10  1  0
 11 19  1  0
 12 17  1  0
 13 14  1  0
 13 12  1  0
 15 14  1  0
 15 24  1  0
 15 16  1  0
 17 11  1  0
 17 16  1  0
 18 11  2  0
 19 10  1  0
 19 20  1  0
 21 22  2  0
 22 41  1  0
 23 22  1  0
 23 26  1  0
 24 25  1  0
 24 21  1  0
 25 23  2  0
 26 27  1  0
 27 28  2  0
 29 32  1  0
 29 28  1  0
 30 29  2  0
 31 30  1  0
 31 26  2  0
 32 33  1  0
 33 38  2  0
 33 34  1  0
 34 35  2  0
 35 36  1  0
 36 40  1  0
 37 36  2  0
 38 37  1  0
 39 38  1  0
 41 42  1  0
 42 45  1  0
 42 44  1  0
 43 41  2  0
 46 21  1  0
 46 47  1  0
 48 46  1  0
 49 51  1  0
 50 49  1  0
 54 52  1  6
 54 53  1  0
 54 51  1  0
 55 56  1  0
 55 54  1  0
 57 68  2  0
 58 56  1  0
 58 63  1  0
 59 67  1  0
 59 69  1  0
 60 66  1  0
 60 62  1  0
 61 67  1  0
 62 61  1  0
 63 62  2  0
 64 65  1  0
 64 58  2  0
 65 60  2  0
 66 59  1  0
 67 57  1  0
 69 71  2  0
 70 69  1  0
 72 70  1  0
 73 82  2  0
 73 78  1  0
 74 70  1  0
 74 78  1  0
 75 74  1  0
 76 77  1  0
 76 75  1  0
 77 73  1  0
 78 79  2  0
 79 80  1  0
 81 80  2  0
 82 81  1  0
 83 57  1  0
 83 84  1  0
 83 93  1  0
 84 87  1  0
 85 89  1  0
 85 84  1  0
 86 85  2  0
 89 88  1  0
 91 89  1  0
 91 92  1  0
 91 90  1  0
 93 96  1  1
 93 94  1  0
 95 93  1  0
M  ISO  4  11 100  19 100  55 101  56 101
M  END
>  <TORSDO>  (36) 
F 22

>  <SCORE>  (36) 
-12.223

>  <name>  (36) 
35

>  <ligand_id>  (36) 
35

>  <original_smiles>  (36) 
[H]c1c([H])c([H])c2c(c1[H])C([H])([H])C([H])([H])C([H])([H])C2([H])N([H])C(=O)C1([H])N(C(=O)C([H])(N([H])C(=O)C([H])(N([H])C([H])([H])[H])C([H])([H])[H])C(C([H])([H])[H])(C([H])([H])[H])C([H])([H])[H])C([H])([H])c2c([H])c(OC([H])([H])C(C([H])([H])[H])(C([H])([H])[H])C([H])([H])N([H])c3c([H])c([H])c(C([H])(F)C([H])([H])N([H])C(=O)N4C([H])([H])C([H])([H])C([H])([H])C([H])(n5nc(-c6c([H])c([H])c(Oc7c([H])c([H])c(F)c([H])c7F)c([H])c6[H])c(C(=O)N([H])[H])c5N([H])[H])C4([H])[H])c([H])c3F)c([H])c([H])c2C1([H])[H]

>  <smiles>  (36) 
[H]c1c([H])c([H])c2c(c1[H])C([H])([H])C([H])([H])C([H])([H])C2([H])N([H])C(=O)C1([H])N(C(=O)C([H])(N([H])C(=O)C([H])(N([H])C([H])([H])[H])C([H])([H])[H])C(C([H])([H])[H])(C([H])([H])[H])C([H])([H])[H])C([H])([H])c2c([H])c(OC([H])([H])C(C([H])([H])[H])(C([H])([H])[H])C([H])([H])N([H])c3c([H])c([H])c(C([H])(F)C([H])([H])N([H])C(=O)N4C([H])([H])C([H])([H])C([H])([H])C([H])(n5nc(-c6c([H])c([H])c(Oc7c([H])c([H])c(F)c([H])c7F)c([H])c6[H])c(C(=O)N([H])[H])c5N([H])[H])C4([H])[H])c([H])c3F)c([H])c([H])c2C1([H])[H]

$$$$
36:0:0
     RDKit          3D

 93101  0  0  1  0  0  0  0  0999 V2000
  -30.1120  -21.6790   20.7300 C   0  0  0  0  0  0  0  0  0  0  0  0
  -29.1970  -22.5860   20.2610 N   0  0  0  0  0  0  0  0  0  0  0  0
  -31.0730  -22.0950   21.3790 O   0  0  0  0  0  0  0  0  0  0  0  0
  -28.4160  -22.2450   19.7160 H   0  0  0  0  0  0  0  0  0  0  0  0
  -28.8120  -19.4220   20.5910 C   0  0  0  0  0  3  0  0  0  0  0  0
  -31.1760  -17.9310   20.3110 C   0  0  0  0  0  3  0  0  0  0  0  0
  -30.0240  -20.1530   20.4900 C   0  0  0  0  0  0  0  0  0  0  0  0
  -29.9660  -17.2040   20.4540 C   0  0  0  0  0  0  0  0  0  0  0  0
  -28.7890  -17.9940   20.5750 C   0  0  0  0  0  0  0  0  0  0  0  0
  -31.2030  -19.3590   20.3320 C   0  0  0  0  0  0  0  0  0  0  0  0
  -27.6010  -17.3560   20.7020 F   0  0  0  0  0  0  0  0  0  0  0  0
  -32.4120  -19.9630   20.2120 F   0  0  0  0  0  0  0  0  0  0  0  0
  -30.6040  -14.7020   20.0610 C   0  0  0  0  0  0  0  0  0  0  0  0
  -30.3070  -12.5060   18.9280 C   0  0  0  0  0  2  0  0  0  0  0  0
  -29.2920  -12.6940   17.7780 C   0  0  0  0  0  2  0  0  0  0  0  0
  -27.8460  -12.5300   18.2910 C   0  0  0  0  0  2  0  0  0  0  0  0
  -27.5740  -13.3470   19.5820 C   0  0  0  0  0  3  0  0  0  0  0  0
  -28.6970  -13.1360   20.6220 C   0  0  0  0  0  2  0  0  0  0  0  0
  -29.9730  -13.4870   19.9810 N   0  0  0  0  0  0  0  0  0  0  0  0
  -31.7420  -14.8610   19.6080 O   0  0  0  0  0  0  0  0  0  0  0  0
  -29.8310  -15.7440   20.5000 N   0  0  0  0  0  0  0  0  0  0  0  0
  -28.9280  -15.4470   20.8400 H   0  0  0  0  0  0  0  0  0  0  0  0
  -25.2320  -13.9430   20.4560 C   0  0  0  0  0  0  0  0  0  0  0  0
  -24.1810  -13.1680   20.8640 C   0  0  0  0  0  0  0  0  0  0  0  0
  -24.6300  -11.8150   20.7700 C   0  0  0  0  0  0  0  0  0  0  0  0
  -26.2540  -13.0630   20.1370 N   0  0  0  0  0  0  0  0  0  0  0  0
  -25.8990  -11.7750   20.3860 N   0  0  0  0  0  0  0  0  0  0  0  0
  -23.9050  -10.5530   20.9700 C   0  0  0  0  0  0  0  0  0  0  0  0
  -24.3700   -9.5680   21.8680 C   0  0  0  0  0  3  0  0  0  0  0  0
  -23.6450   -8.3700   22.0550 C   0  0  0  0  0  3  0  0  0  0  0  0
  -22.4420   -8.1510   21.3440 C   0  0  0  0  0  0  0  0  0  0  0  0
  -21.9950   -9.1260   20.4340 C   0  0  0  0  0  3  0  0  0  0  0  0
  -22.7210  -10.3140   20.2440 C   0  0  0  0  0  3  0  0  0  0  0  0
  -21.6850   -7.0090   21.4430 O   0  0  0  0  0  0  0  0  0  0  0  0
  -21.6590   -6.2600   22.5930 C   0  0  0  0  0  0  0  0  0  0  0  0
  -21.2520   -6.8070   23.8290 C   0  0  0  0  0  3  0  0  0  0  0  0
  -21.1730   -5.9850   24.9700 C   0  0  0  0  0  3  0  0  0  0  0  0
  -21.4910   -4.6160   24.8760 C   0  0  0  0  0  0  0  0  0  0  0  0
  -21.8900   -4.0690   23.6450 C   0  0  0  0  0  3  0  0  0  0  0  0
  -21.9710   -4.8880   22.5060 C   0  0  0  0  0  0  0  0  0  0  0  0
  -22.3370   -4.3510   21.3160 F   0  0  0  0  0  0  0  0  0  0  0  0
  -21.4070   -3.8240   25.9700 F   0  0  0  0  0  0  0  0  0  0  0  0
  -22.8060  -13.6480   21.2310 C   0  0  0  0  0  0  0  0  0  0  0  0
  -22.1230  -12.9310   22.1160 N   0  0  0  0  0  0  0  0  0  0  0  0
  -22.3500  -14.6940   20.7700 O   0  0  0  0  0  0  0  0  0  0  0  0
  -22.5050  -12.0860   22.5120 H   0  0  0  0  0  0  0  0  0  0  0  0
  -21.2030  -13.2330   22.4020 H   0  0  0  0  0  0  0  0  0  0  0  0
  -25.3950  -15.3180   20.3120 N   0  0  0  0  0  0  0  0  0  0  0  0
  -24.6500  -15.9700   20.5220 H   0  0  0  0  0  0  0  0  0  0  0  0
  -26.2550  -15.7820   20.0440 H   0  0  0  0  0  0  0  0  0  0  0  0
  -29.3220  -24.0820   20.4820 C   0  0  0  0  0  3  0  0  0  0  0  0
  -28.1920  -25.0550   19.9360 C   0  0  0  0  0  3  0  0  0  0  0  0
  -28.3640  -26.5130   20.1620 O   0  0  0  0  0  0  0  0  0  0  0  0
  -24.5890  -31.8630   23.1860 C   0  0  0  0  0  0  0  0  0  0  0  0
  -27.2350  -27.3460   20.1020 C   0  0  0  0  0  0  0  0  0  0  0  0
  -23.3960  -30.4690   21.5330 C   0  0  0  0  0  3  0  0  0  0  0  0
  -24.8590  -28.9400   20.0970 C   0  0  0  0  0  0  0  0  0  0  0  0
  -25.9320  -30.8060   21.3550 C   0  0  0  0  0  2  0  0  0  0  0  0
  -26.0220  -29.4330   20.6990 C   0  0  0  0  0  0  0  0  0  0  0  0
  -27.2130  -28.6480   20.6910 C   0  0  0  0  0  3  0  0  0  0  0  0
  -26.0490  -26.9080   19.4680 C   0  0  0  0  0  3  0  0  0  0  0  0
  -24.8730  -27.6840   19.4720 C   0  0  0  0  0  3  0  0  0  0  0  0
  -23.6160  -29.8050   20.1480 C   0  0  0  0  0  2  0  0  0  0  0  0
  -24.6580  -31.0630   22.0820 N   0  0  0  0  0  0  0  0  0  0  0  0
  -23.5020  -32.1300   23.7190 O   0  0  0  0  0  0  0  0  0  0  0  0
  -22.7380  -29.4410   22.4830 C   0  0  0  0  0  0  0  0  0  0  0  0
  -21.4100  -29.2730   22.3660 N   0  0  0  0  0  0  0  0  0  0  0  0
  -23.4200  -28.7980   23.2860 O   0  0  0  0  0  0  0  0  0  0  0  0
  -20.9180  -29.8430   21.6920 H   0  0  0  0  0  0  0  0  0  0  0  0
  -18.0270  -28.1110   22.8970 C   0  0  0  0  0  0  0  0  0  0  0  0
  -20.5920  -28.3300   23.1300 C   0  0  0  0  0  3  0  0  0  0  0  0
  -20.6650  -26.9100   22.5220 C   0  0  0  0  0  2  0  0  0  0  0  0
  -19.5430  -26.6240   21.5200 C   0  0  0  0  0  2  0  0  0  0  0  0
  -18.1740  -26.7730   22.1910 C   0  0  0  0  0  2  0  0  0  0  0  0
  -19.1630  -28.8480   23.3240 C   0  0  0  0  0  0  0  0  0  0  0  0
  -18.9700  -30.1010   23.9470 C   0  0  0  0  0  3  0  0  0  0  0  0
  -17.6750  -30.6150   24.1450 C   0  0  0  0  0  3  0  0  0  0  0  0
  -16.5540  -29.8740   23.7340 C   0  0  0  0  0  3  0  0  0  0  0  0
  -16.7300  -28.6230   23.1160 C   0  0  0  0  0  3  0  0  0  0  0  0
  -25.8670  -32.4980   23.8150 C   0  0  0  0  0  3  0  0  0  0  0  0
  -26.3890  -31.7160   25.0830 C   0  0  1  0  0  0  0  0  0  0  0  0
  -25.2950  -31.4560   26.1460 C   0  0  0  0  0  1  0  0  0  0  0  0
  -26.9830  -30.3480   24.6750 C   0  0  0  0  0  1  0  0  0  0  0  0
  -27.5300  -32.5120   25.7570 C   0  0  0  0  0  1  0  0  0  0  0  0
  -25.5460  -33.8900   24.1610 N   0  0  0  0  0  0  0  0  0  0  0  0
  -25.8610  -34.9530   23.4090 C   0  0  0  0  0  0  0  0  0  0  0  0
  -26.5200  -34.8660   22.3700 O   0  0  0  0  0  0  0  0  0  0  0  0
  -24.9610  -34.0320   24.9700 H   0  0  0  0  0  0  0  0  0  0  0  0
  -24.1100  -36.7320   23.0930 C   0  0  0  0  0  1  0  0  0  0  0  0
  -25.3650  -36.3320   23.8850 C   0  0  0  0  0  3  0  0  0  0  0  0
  -27.4980  -37.2350   24.7040 C   0  0  0  0  0  1  0  0  0  0  0  0
  -26.3860  -37.3960   23.7690 N   0  0  0  0  0  0  0  0  0  0  0  0
  -25.9730  -38.3110   23.9250 H   0  0  0  0  0  0  0  0  0  0  0  0
  1  3  2  0
  2 51  1  0
  2  1  1  0
  4  2  1  0
  6 10  2  0
  6  8  1  0
  7  5  2  0
  7  1  1  0
  8 21  1  0
  8  9  2  0
  9  5  1  0
  9 11  1  0
 10  7  1  0
 12 10  1  0
 13 21  1  0
 14 19  1  0
 15 16  1  0
 15 14  1  0
 17 16  1  0
 17 26  1  0
 17 18  1  0
 19 13  1  0
 19 18  1  0
 20 13  2  0
 21 22  1  0
 23 24  2  0
 24 43  1  0
 25 24  1  0
 25 28  1  0
 26 27  1  0
 26 23  1  0
 27 25  2  0
 28 29  1  0
 29 30  2  0
 31 34  1  0
 31 30  1  0
 32 31  2  0
 33 32  1  0
 33 28  2  0
 34 35  1  0
 35 36  1  0
 36 37  2  0
 38 37  1  0
 38 42  1  0
 39 38  2  0
 40 35  2  0
 40 39  1  0
 41 40  1  0
 43 44  1  0
 44 47  1  0
 44 46  1  0
 45 43  2  0
 48 23  1  0
 48 49  1  0
 50 48  1  0
 52 53  1  0
 52 51  2  0
 54 65  2  0
 55 53  1  0
 55 60  1  0
 56 64  1  0
 56 66  1  0
 57 63  1  0
 57 59  1  0
 58 64  1  0
 59 58  1  0
 60 59  2  0
 61 62  1  0
 61 55  2  0
 62 57  2  0
 63 56  1  0
 64 54  1  0
 66 68  2  0
 67 66  1  0
 69 67  1  0
 70 79  2  0
 70 75  1  0
 71 67  1  0
 71 75  1  0
 72 71  1  0
 73 74  1  0
 73 72  1  0
 74 70  1  0
 75 76  2  0
 76 77  1  0
 78 77  2  0
 79 78  1  0
 80 54  1  0
 80 85  1  0
 80 81  1  0
 81 84  1  1
 81 82  1  0
 83 81  1  0
 85 88  1  0
 86 90  1  0
 86 85  1  0
 87 86  2  0
 90 89  1  0
 92 90  1  0
 92 93  1  0
 92 91  1  0
M  ISO  4  13 100  21 100  52 101  53 101
M  END
>  <TORSDO>  (37) 
F 19

>  <SCORE>  (37) 
-14.394

>  <name>  (37) 
36

>  <ligand_id>  (37) 
36

>  <original_smiles>  (37) 
[H]c1c([H])c([H])c2c(c1[H])C([H])([H])C([H])([H])C([H])([H])C2([H])N([H])C(=O)C1([H])N(C(=O)C([H])(N([H])C(=O)C([H])(N([H])C([H])([H])[H])C([H])([H])[H])C(C([H])([H])[H])(C([H])([H])[H])C([H])([H])[H])C([H])([H])c2c([H])c(OC([H])([H])C([H])([H])N([H])C(=O)c3c([H])c(F)c(N([H])C(=O)N4C([H])([H])C([H])([H])C([H])([H])C([H])(n5nc(-c6c([H])c([H])c(Oc7c([H])c([H])c(F)c([H])c7F)c([H])c6[H])c(C(=O)N([H])[H])c5N([H])[H])C4([H])[H])c([H])c3F)c([H])c([H])c2C1([H])[H]

>  <smiles>  (37) 
[H]c1c([H])c([H])c2c(c1[H])C([H])([H])C([H])([H])C([H])([H])C2([H])N([H])C(=O)C1([H])N(C(=O)C([H])(N([H])C(=O)C([H])(N([H])C([H])([H])[H])C([H])([H])[H])C(C([H])([H])[H])(C([H])([H])[H])C([H])([H])[H])C([H])([H])c2c([H])c(OC([H])([H])C([H])([H])N([H])C(=O)c3c([H])c(F)c(N([H])C(=O)N4C([H])([H])C([H])([H])C([H])([H])C([H])(n5nc(-c6c([H])c([H])c(Oc7c([H])c([H])c(F)c([H])c7F)c([H])c6[H])c(C(=O)N([H])[H])c5N([H])[H])C4([H])[H])c([H])c3F)c([H])c([H])c2C1([H])[H]

$$$$
37:0:0
     RDKit          3D

 97105  0  0  1  0  0  0  0  0999 V2000
  -31.8660  -21.2810   18.2410 C   0  0  0  0  0  3  0  0  0  0  0  0
  -33.2560  -20.8420   18.2350 N   0  0  0  0  0  0  0  0  0  0  0  0
  -33.4960  -20.5420   17.2920 H   0  0  0  0  0  0  0  0  0  0  0  0
  -33.8770  -21.6340   18.3870 H   0  0  0  0  0  0  0  0  0  0  0  0
  -31.6290  -22.2170   19.4490 C   0  0  0  0  0  2  0  0  0  0  0  0
  -30.3800  -23.1130   19.3130 C   0  0  0  0  0  2  0  0  0  0  0  0
  -30.6780  -24.3710   18.5900 N   0  0  0  0  0  4  0  0  0  0  0  0
  -30.3260  -24.3320   17.6430 H   0  0  0  0  0  0  0  0  0  0  0  0
  -31.6820  -24.4550   18.5310 H   0  0  0  0  0  0  0  0  0  0  0  0
  -30.2050  -25.5960   19.2720 C   0  0  0  0  0  2  0  0  0  0  0  0
  -28.6700  -25.7370   19.3060 C   0  0  0  0  0  2  0  0  0  0  0  0
  -28.4230  -26.8240   20.1850 O   0  0  0  0  0  0  0  0  0  0  0  0
  -24.5500  -31.8750   23.2570 C   0  0  0  0  0  0  0  0  0  0  0  0
  -27.2050  -27.4590   20.1760 C   0  0  0  0  0  0  0  0  0  0  0  0
  -23.3370  -30.4720   21.6150 C   0  0  0  0  0  3  0  0  0  0  0  0
  -24.7910  -28.9210   20.2000 C   0  0  0  0  0  0  0  0  0  0  0  0
  -25.8560  -30.8460   21.3910 C   0  0  0  0  0  2  0  0  0  0  0  0
  -25.9410  -29.4630   20.7830 C   0  0  0  0  0  0  0  0  0  0  0  0
  -27.1450  -28.7330   20.7780 C   0  0  0  0  0  3  0  0  0  0  0  0
  -26.0350  -26.9100   19.6050 C   0  0  0  0  0  3  0  0  0  0  0  0
  -24.8290  -27.6400   19.6180 C   0  0  0  0  0  3  0  0  0  0  0  0
  -23.5500  -29.7850   20.2350 C   0  0  0  0  0  2  0  0  0  0  0  0
  -24.6040  -31.0770   22.1530 N   0  0  0  0  0  0  0  0  0  0  0  0
  -23.4720  -32.1410   23.8010 O   0  0  0  0  0  0  0  0  0  0  0  0
  -22.6920  -29.4500   22.5750 C   0  0  0  0  0  0  0  0  0  0  0  0
  -21.3670  -29.2700   22.4500 N   0  0  0  0  0  0  0  0  0  0  0  0
  -23.3800  -28.8230   23.3860 O   0  0  0  0  0  0  0  0  0  0  0  0
  -20.8750  -29.8360   21.7740 H   0  0  0  0  0  0  0  0  0  0  0  0
  -17.9900  -28.0840   22.9320 C   0  0  0  0  0  0  0  0  0  0  0  0
  -20.5470  -28.3300   23.2150 C   0  0  0  0  0  3  0  0  0  0  0  0
  -20.6470  -26.8980   22.6380 C   0  0  0  0  0  2  0  0  0  0  0  0
  -19.5480  -26.5820   21.6200 C   0  0  0  0  0  2  0  0  0  0  0  0
  -18.1650  -26.7310   22.2610 C   0  0  0  0  0  2  0  0  0  0  0  0
  -19.1100  -28.8400   23.3660 C   0  0  0  0  0  0  0  0  0  0  0  0
  -18.8940  -30.1060   23.9510 C   0  0  0  0  0  3  0  0  0  0  0  0
  -17.5920  -30.6140   24.1120 C   0  0  0  0  0  3  0  0  0  0  0  0
  -16.4860  -29.8540   23.6960 C   0  0  0  0  0  3  0  0  0  0  0  0
  -16.6850  -28.5920   23.1100 C   0  0  0  0  0  3  0  0  0  0  0  0
  -25.8410  -32.5020   23.8750 C   0  0  0  0  0  3  0  0  0  0  0  0
  -25.5390  -33.9030   24.2000 N   0  0  0  0  0  0  0  0  0  0  0  0
  -25.8770  -34.9480   23.4300 C   0  0  0  0  0  0  0  0  0  0  0  0
  -26.5510  -34.8320   22.4030 O   0  0  0  0  0  0  0  0  0  0  0  0
  -24.9480  -34.0680   25.0020 H   0  0  0  0  0  0  0  0  0  0  0  0
  -24.1740  -36.7520   23.0220 C   0  0  0  0  0  1  0  0  0  0  0  0
  -25.3890  -36.3430   23.8710 C   0  0  0  0  0  3  0  0  0  0  0  0
  -27.5140  -37.2090   24.7360 C   0  0  0  0  0  1  0  0  0  0  0  0
  -26.4290  -37.3860   23.7770 N   0  0  0  0  0  0  0  0  0  0  0  0
  -26.0280  -38.3100   23.9190 H   0  0  0  0  0  0  0  0  0  0  0  0
  -26.3570  -31.7290   25.1530 C   0  0  1  0  0  0  0  0  0  0  0  0
  -25.2760  -31.5070   26.2370 C   0  0  0  0  0  1  0  0  0  0  0  0
  -26.9120  -30.3430   24.7460 C   0  0  0  0  0  1  0  0  0  0  0  0
  -27.5270  -32.5010   25.8030 C   0  0  0  0  0  1  0  0  0  0  0  0
  -30.9330  -20.0430   18.2460 C   0  0  0  0  0  2  0  0  0  0  0  0
  -31.3910  -19.0410   19.2360 N   0  0  0  0  0  4  0  0  0  0  0  0
  -32.0930  -18.4840   18.7680 H   0  0  0  0  0  0  0  0  0  0  0  0
  -31.8880  -19.5580   19.9450 H   0  0  0  0  0  0  0  0  0  0  0  0
  -30.7300  -14.5490   20.3410 C   0  0  0  0  0  0  0  0  0  0  0  0
  -30.3280  -12.3520   19.3370 C   0  0  0  0  0  2  0  0  0  0  0  0
  -29.3770  -12.4700   18.1340 C   0  0  0  0  0  2  0  0  0  0  0  0
  -27.9070  -12.3630   18.5770 C   0  0  0  0  0  2  0  0  0  0  0  0
  -27.5700  -13.2380   19.8120 C   0  0  0  0  0  3  0  0  0  0  0  0
  -28.6600  -13.1680   20.9090 C   0  0  0  0  0  2  0  0  0  0  0  0
  -29.9630  -13.4230   20.2730 N   0  0  0  0  0  0  0  0  0  0  0  0
  -31.9460  -14.5040   20.1560 O   0  0  0  0  0  0  0  0  0  0  0  0
  -29.3890  -17.5390   18.8500 C   0  0  0  0  0  2  0  0  0  0  0  0
  -29.0740  -16.1610   19.4310 C   0  0  0  0  0  2  0  0  0  0  0  0
  -30.9320  -16.9910   20.6460 C   0  0  0  0  0  2  0  0  0  0  0  0
  -30.3460  -18.1700   19.8430 C   0  0  0  0  0  3  0  0  0  0  0  0
  -30.1250  -15.7760   20.3830 N   0  0  0  0  0  0  0  0  0  0  0  0
  -25.2050  -13.8820   20.5620 C   0  0  0  0  0  0  0  0  0  0  0  0
  -24.1290  -13.1210   20.9330 C   0  0  0  0  0  0  0  0  0  0  0  0
  -24.5790  -11.7670   20.8980 C   0  0  0  0  0  0  0  0  0  0  0  0
  -26.2350  -12.9830   20.3210 N   0  0  0  0  0  0  0  0  0  0  0  0
  -25.8660  -11.7100   20.5890 N   0  0  0  0  0  0  0  0  0  0  0  0
  -23.8480  -10.5120   21.0790 C   0  0  0  0  0  0  0  0  0  0  0  0
  -24.2750   -9.5370   22.0060 C   0  0  0  0  0  3  0  0  0  0  0  0
  -23.5450   -8.3410   22.1760 C   0  0  0  0  0  3  0  0  0  0  0  0
  -22.3730   -8.1140   21.4170 C   0  0  0  0  0  0  0  0  0  0  0  0
  -21.9660   -9.0770   20.4760 C   0  0  0  0  0  3  0  0  0  0  0  0
  -22.6980  -10.2650   20.3050 C   0  0  0  0  0  3  0  0  0  0  0  0
  -21.6110   -6.9750   21.4990 O   0  0  0  0  0  0  0  0  0  0  0  0
  -21.5530   -6.2300   22.6490 C   0  0  0  0  0  0  0  0  0  0  0  0
  -21.1130   -6.7830   23.8720 C   0  0  0  0  0  3  0  0  0  0  0  0
  -21.0050   -5.9650   25.0130 C   0  0  0  0  0  3  0  0  0  0  0  0
  -21.3200   -4.5960   24.9320 C   0  0  0  0  0  0  0  0  0  0  0  0
  -21.7510   -4.0440   23.7130 C   0  0  0  0  0  3  0  0  0  0  0  0
  -21.8630   -4.8580   22.5730 C   0  0  0  0  0  0  0  0  0  0  0  0
  -22.2580   -4.3190   21.3950 F   0  0  0  0  0  0  0  0  0  0  0  0
  -21.2080   -3.8060   26.0250 F   0  0  0  0  0  0  0  0  0  0  0  0
  -22.7370  -13.6130   21.2030 C   0  0  0  0  0  0  0  0  0  0  0  0
  -21.9960  -12.9180   22.0630 N   0  0  0  0  0  0  0  0  0  0  0  0
  -22.3120  -14.6460   20.6900 O   0  0  0  0  0  0  0  0  0  0  0  0
  -22.3460  -12.0760   22.4970 H   0  0  0  0  0  0  0  0  0  0  0  0
  -21.0620  -13.2370   22.2860 H   0  0  0  0  0  0  0  0  0  0  0  0
  -25.3820  -15.2490   20.3820 N   0  0  0  0  0  0  0  0  0  0  0  0
  -24.6310  -15.9120   20.5300 H   0  0  0  0  0  0  0  0  0  0  0  0
  -26.2340  -15.6820   20.0550 H   0  0  0  0  0  0  0  0  0  0  0  0
  1 53  1  0
  1  5  1  0
  2  1  1  0
  2  4  1  0
  3  2  1  0
  6  5  1  0
  7 10  1  0
  7  6  1  0
  8  7  1  0
  9  7  1  0
 10 11  1  0
 11 12  1  0
 13 24  2  0
 14 12  1  0
 14 19  1  0
 15 23  1  0
 15 25  1  0
 16 22  1  0
 16 18  1  0
 17 23  1  0
 18 17  1  0
 19 18  2  0
 20 21  1  0
 20 14  2  0
 21 16  2  0
 22 15  1  0
 23 13  1  0
 25 27  2  0
 26 25  1  0
 28 26  1  0
 29 38  2  0
 29 34  1  0
 30 26  1  0
 30 34  1  0
 31 30  1  0
 32 33  1  0
 32 31  1  0
 33 29  1  0
 34 35  2  0
 35 36  1  0
 37 36  2  0
 38 37  1  0
 39 13  1  0
 39 40  1  0
 39 49  1  0
 40 43  1  0
 41 45  1  0
 41 40  1  0
 42 41  2  0
 45 44  1  0
 47 45  1  0
 47 48  1  0
 47 46  1  0
 49 52  1  1
 49 50  1  0
 51 49  1  0
 53 54  1  0
 54 56  1  0
 55 54  1  0
 57 69  1  0
 58 63  1  0
 59 60  1  0
 59 58  1  0
 61 60  1  0
 61 73  1  0
 61 62  1  0
 63 57  1  0
 63 62  1  0
 64 57  2  0
 65 66  1  0
 65 68  1  0
 66 69  1  0
 68 54  1  0
 68 67  1  0
 69 67  1  0
 70 71  2  0
 71 90  1  0
 72 71  1  0
 72 75  1  0
 73 70  1  0
 73 74  1  0
 74 72  2  0
 75 76  1  0
 76 77  2  0
 78 81  1  0
 78 77  1  0
 79 78  2  0
 80 79  1  0
 80 75  2  0
 81 82  1  0
 82 83  1  0
 83 84  2  0
 85 84  1  0
 85 89  1  0
 86 85  2  0
 87 82  2  0
 87 86  1  0
 88 87  1  0
 90 91  1  0
 91 94  1  0
 91 93  1  0
 92 90  2  0
 95 96  1  0
 95 70  1  0
 97 95  1  0
M  ISO  4  11 101  12 101  57 100  69 100
M  END
>  <TORSDO>  (38) 
F 24

>  <SCORE>  (38) 
-12.466

>  <name>  (38) 
37

>  <ligand_id>  (38) 
37

>  <original_smiles>  (38) 
[H]c1c([H])c([H])c2c(c1[H])C([H])([H])C([H])([H])C([H])([H])C2([H])N([H])C(=O)C1([H])N(C(=O)C([H])(N([H])C(=O)C([H])(N([H])C([H])([H])[H])C([H])([H])[H])C(C([H])([H])[H])(C([H])([H])[H])C([H])([H])[H])C([H])([H])c2c([H])c(OC([H])([H])C([H])([H])[N+]([H])([H])C([H])([H])C([H])([H])C([H])(N([H])[H])C([H])([H])[N+]([H])([H])C3([H])C([H])([H])N(C(=O)N4C([H])([H])C([H])([H])C([H])([H])C([H])(n5nc(-c6c([H])c([H])c(Oc7c([H])c([H])c(F)c([H])c7F)c([H])c6[H])c(C(=O)N([H])[H])c5N([H])[H])C4([H])[H])C([H])([H])C3([H])[H])c([H])c([H])c2C1([H])[H]

>  <smiles>  (38) 
[H]c1c([H])c([H])c2c(c1[H])C([H])([H])C([H])([H])C([H])([H])C2([H])N([H])C(=O)C1([H])N(C(=O)C([H])(N([H])C(=O)C([H])(N([H])C([H])([H])[H])C([H])([H])[H])C(C([H])([H])[H])(C([H])([H])[H])C([H])([H])[H])C([H])([H])c2c([H])c(OC([H])([H])C([H])([H])[N+]([H])([H])C([H])([H])C([H])([H])C([H])(N([H])[H])C([H])([H])[N+]([H])([H])C3([H])C([H])([H])N(C(=O)N4C([H])([H])C([H])([H])C([H])([H])C([H])(n5nc(-c6c([H])c([H])c(Oc7c([H])c([H])c(F)c([H])c7F)c([H])c6[H])c(C(=O)N([H])[H])c5N([H])[H])C4([H])[H])C([H])([H])C3([H])[H])c([H])c([H])c2C1([H])[H]

$$$$
38:0:0
     RDKit          3D

 88 96  0  0  1  0  0  0  0  0999 V2000
  -29.5220  -19.8000   21.2620 C   0  0  0  0  0  3  0  0  0  0  0  0
  -28.7490  -19.6170   19.1950 C   0  0  0  0  0  3  0  0  0  0  0  0
  -28.5750  -22.1680   20.2130 C   0  0  0  0  0  0  0  0  0  0  0  0
  -29.3580  -18.7320   20.2240 C   0  0  0  0  0  0  0  0  0  0  0  0
  -29.1800  -21.3010   21.2700 C   0  0  0  0  0  0  0  0  0  0  0  0
  -28.4100  -21.1070   19.1780 C   0  0  0  0  0  0  0  0  0  0  0  0
  -29.4170  -21.9270   22.4480 F   0  0  0  0  0  0  0  0  0  0  0  0
  -27.8050  -21.5250   18.0400 F   0  0  0  0  0  0  0  0  0  0  0  0
  -30.2760  -15.6990   20.1830 C   0  0  0  0  0  0  0  0  0  0  0  0
  -30.3920  -13.1690   19.3410 C   0  0  0  0  0  2  0  0  0  0  0  0
  -29.4790  -12.7830   18.1410 C   0  0  0  0  0  2  0  0  0  0  0  0
  -28.0610  -12.4250   18.6140 C   0  0  0  0  0  2  0  0  0  0  0  0
  -27.5660  -13.4090   19.6990 C   0  0  0  0  0  3  0  0  0  0  0  0
  -28.6150  -13.7010   20.7970 C   0  0  0  0  0  2  0  0  0  0  0  0
  -29.7770  -14.3290   20.1260 N   0  0  0  0  0  0  0  0  0  0  0  0
  -31.5050  -15.6780   19.9840 O   0  0  0  0  0  0  0  0  0  0  0  0
  -29.4450  -17.0090   20.2690 N   0  0  0  0  0  0  0  0  0  0  0  0
  -28.4970  -16.6660   20.3290 H   0  0  0  0  0  0  0  0  0  0  0  0
  -25.2100  -13.9100   20.5070 C   0  0  0  0  0  0  0  0  0  0  0  0
  -24.1660  -13.1160   20.8860 C   0  0  0  0  0  0  0  0  0  0  0  0
  -24.6520  -11.7730   20.8340 C   0  0  0  0  0  0  0  0  0  0  0  0
  -26.2600  -13.0540   20.2360 N   0  0  0  0  0  0  0  0  0  0  0  0
  -25.9390  -11.7590   20.5020 N   0  0  0  0  0  0  0  0  0  0  0  0
  -23.9410  -10.5000   21.0230 C   0  0  0  0  0  0  0  0  0  0  0  0
  -24.3860   -9.5330   21.9510 C   0  0  0  0  0  3  0  0  0  0  0  0
  -23.6710   -8.3300   22.1300 C   0  0  0  0  0  3  0  0  0  0  0  0
  -22.4950   -8.0840   21.3820 C   0  0  0  0  0  0  0  0  0  0  0  0
  -22.0690   -9.0390   20.4430 C   0  0  0  0  0  3  0  0  0  0  0  0
  -22.7840  -10.2340   20.2620 C   0  0  0  0  0  3  0  0  0  0  0  0
  -21.7510   -6.9320   21.4710 O   0  0  0  0  0  0  0  0  0  0  0  0
  -21.7030   -6.1930   22.6270 C   0  0  0  0  0  0  0  0  0  0  0  0
  -21.2480   -6.7450   23.8440 C   0  0  0  0  0  3  0  0  0  0  0  0
  -21.1480   -5.9320   24.9910 C   0  0  0  0  0  3  0  0  0  0  0  0
  -21.4930   -4.5690   24.9210 C   0  0  0  0  0  0  0  0  0  0  0  0
  -21.9410   -4.0170   23.7080 C   0  0  0  0  0  3  0  0  0  0  0  0
  -22.0410   -4.8270   22.5630 C   0  0  0  0  0  0  0  0  0  0  0  0
  -22.4530   -4.2850   21.3920 F   0  0  0  0  0  0  0  0  0  0  0  0
  -21.3910   -3.7860   26.0210 F   0  0  0  0  0  0  0  0  0  0  0  0
  -22.7670  -13.5750   21.1740 C   0  0  0  0  0  0  0  0  0  0  0  0
  -22.0600  -12.8700   22.0490 N   0  0  0  0  0  0  0  0  0  0  0  0
  -22.3110  -14.5940   20.6580 O   0  0  0  0  0  0  0  0  0  0  0  0
  -22.4440  -12.0460   22.4880 H   0  0  0  0  0  0  0  0  0  0  0  0
  -21.1210  -13.1600   22.2860 H   0  0  0  0  0  0  0  0  0  0  0  0
  -25.3480  -15.2850   20.3360 N   0  0  0  0  0  0  0  0  0  0  0  0
  -24.5650  -15.9200   20.4540 H   0  0  0  0  0  0  0  0  0  0  0  0
  -26.1630  -15.7350   19.9430 H   0  0  0  0  0  0  0  0  0  0  0  0
  -27.8100  -23.8770   20.1980 C   0  0  0  0  0  2  0  0  0  0  0  0
  -28.1300  -25.5920   20.3290 O   0  0  0  0  0  0  0  0  0  0  0  0
  -24.6750  -31.9040   23.2480 C   0  0  0  0  0  0  0  0  0  0  0  0
  -27.1720  -26.8130   20.2750 C   0  0  0  0  0  0  0  0  0  0  0  0
  -23.4740  -30.5020   21.6250 C   0  0  0  0  0  3  0  0  0  0  0  0
  -24.9090  -28.8430   20.2170 C   0  0  0  0  0  0  0  0  0  0  0  0
  -26.0530  -30.6380   21.4890 C   0  0  0  0  0  2  0  0  0  0  0  0
  -26.1090  -29.2020   20.8410 C   0  0  0  0  0  0  0  0  0  0  0  0
  -27.2260  -28.2150   20.8380 C   0  0  0  0  0  3  0  0  0  0  0  0
  -25.9380  -26.6610   19.5940 C   0  0  0  0  0  3  0  0  0  0  0  0
  -24.8600  -27.5970   19.5680 C   0  0  0  0  0  3  0  0  0  0  0  0
  -23.7040  -29.7960   20.2580 C   0  0  0  0  0  2  0  0  0  0  0  0
  -24.7580  -31.0480   22.1730 N   0  0  0  0  0  0  0  0  0  0  0  0
  -23.5860  -32.2120   23.7610 O   0  0  0  0  0  0  0  0  0  0  0  0
  -22.7590  -29.5320   22.6050 C   0  0  0  0  0  0  0  0  0  0  0  0
  -21.4270  -29.3720   22.4780 N   0  0  0  0  0  0  0  0  0  0  0  0
  -23.4140  -28.9210   23.4520 O   0  0  0  0  0  0  0  0  0  0  0  0
  -20.9470  -29.9150   21.7740 H   0  0  0  0  0  0  0  0  0  0  0  0
  -18.0440  -28.1450   22.9860 C   0  0  0  0  0  0  0  0  0  0  0  0
  -20.6000  -28.4430   23.2600 C   0  0  0  0  0  3  0  0  0  0  0  0
  -20.7190  -27.0010   22.7130 C   0  0  0  0  0  2  0  0  0  0  0  0
  -19.6270  -26.6510   21.6970 C   0  0  0  0  0  2  0  0  0  0  0  0
  -18.2390  -26.7900   22.3280 C   0  0  0  0  0  2  0  0  0  0  0  0
  -19.1520  -28.9290   23.4090 C   0  0  0  0  0  0  0  0  0  0  0  0
  -18.9120  -30.1930   23.9890 C   0  0  0  0  0  3  0  0  0  0  0  0
  -17.5990  -30.6760   24.1460 C   0  0  0  0  0  3  0  0  0  0  0  0
  -16.5070  -29.8930   23.7360 C   0  0  0  0  0  3  0  0  0  0  0  0
  -16.7310  -28.6290   23.1630 C   0  0  0  0  0  3  0  0  0  0  0  0
  -25.9450  -32.5530   23.8780 C   0  0  0  0  0  3  0  0  0  0  0  0
  -25.6280  -33.9560   24.2090 N   0  0  0  0  0  0  0  0  0  0  0  0
  -25.9380  -35.0180   23.4520 C   0  0  0  0  0  0  0  0  0  0  0  0
  -26.5770  -34.9190   22.4030 O   0  0  0  0  0  0  0  0  0  0  0  0
  -25.0530  -34.1050   25.0260 H   0  0  0  0  0  0  0  0  0  0  0  0
  -24.1870  -36.8110   23.1840 C   0  0  0  0  0  1  0  0  0  0  0  0
  -25.4680  -36.4080   23.9330 C   0  0  0  0  0  3  0  0  0  0  0  0
  -27.6320  -37.3150   24.6610 C   0  0  0  0  0  1  0  0  0  0  0  0
  -26.4880  -37.4680   23.7670 N   0  0  0  0  0  0  0  0  0  0  0  0
  -26.0830  -38.3860   23.9250 H   0  0  0  0  0  0  0  0  0  0  0  0
  -26.4450  -31.7980   25.1720 C   0  0  1  0  0  0  0  0  0  0  0  0
  -25.3430  -31.5840   26.2370 C   0  0  0  0  0  1  0  0  0  0  0  0
  -27.0240  -30.4100   24.8170 C   0  0  0  0  0  1  0  0  0  0  0  0
  -27.5960  -32.5950   25.8310 C   0  0  0  0  0  1  0  0  0  0  0  0
  1  5  1  0
  2  4  1  0
  3  5  2  0
  4 17  1  0
  4  1  2  0
  5  7  1  0
  6  2  2  0
  6  3  1  0
  8  6  1  0
  9 17  1  0
 10 15  1  0
 11 12  1  0
 11 10  1  0
 13 12  1  0
 13 22  1  0
 13 14  1  0
 15  9  1  0
 15 14  1  0
 16  9  2  0
 17 18  1  0
 19 20  2  0
 20 39  1  0
 21 20  1  0
 21 24  1  0
 22 23  1  0
 22 19  1  0
 23 21  2  0
 24 25  1  0
 25 26  2  0
 27 30  1  0
 27 26  1  0
 28 27  2  0
 29 28  1  0
 29 24  2  0
 30 31  1  0
 31 32  1  0
 32 33  2  0
 34 33  1  0
 34 38  1  0
 35 34  2  0
 36 31  2  0
 36 35  1  0
 37 36  1  0
 39 40  1  0
 40 43  1  0
 40 42  1  0
 41 39  2  0
 44 45  1  0
 44 19  1  0
 46 44  1  0
 47  3  1  0
 47 48  1  0
 49 60  2  0
 50 48  1  0
 50 55  1  0
 51 59  1  0
 51 61  1  0
 52 58  1  0
 52 54  1  0
 53 59  1  0
 54 53  1  0
 55 54  2  0
 56 50  2  0
 57 56  1  0
 57 52  2  0
 58 51  1  0
 59 49  1  0
 61 63  2  0
 62 61  1  0
 64 62  1  0
 65 74  2  0
 65 70  1  0
 66 62  1  0
 66 70  1  0
 67 66  1  0
 68 69  1  0
 68 67  1  0
 69 65  1  0
 70 71  2  0
 71 72  1  0
 73 72  2  0
 74 73  1  0
 75 49  1  0
 75 76  1  0
 75 85  1  0
 76 79  1  0
 77 81  1  0
 77 76  1  0
 78 77  2  0
 81 80  1  0
 83 84  1  0
 83 81  1  0
 83 82  1  0
 85 88  1  1
 85 86  1  0
 87 85  1  0
M  ISO  4   9 100  17 100  47 101  48 101
M  END
>  <TORSDO>  (39) 
F 17

>  <SCORE>  (39) 
-16.676

>  <name>  (39) 
38

>  <ligand_id>  (39) 
38

>  <original_smiles>  (39) 
[H]c1c([H])c([H])c2c(c1[H])C([H])([H])C([H])([H])C([H])([H])C2([H])N([H])C(=O)C1([H])N(C(=O)C([H])(N([H])C(=O)C([H])(N([H])C([H])([H])[H])C([H])([H])[H])C(C([H])([H])[H])(C([H])([H])[H])C([H])([H])[H])C([H])([H])c2c([H])c(OC([H])([H])c3c(F)c([H])c(N([H])C(=O)N4C([H])([H])C([H])([H])C([H])([H])C([H])(n5nc(-c6c([H])c([H])c(Oc7c([H])c([H])c(F)c([H])c7F)c([H])c6[H])c(C(=O)N([H])[H])c5N([H])[H])C4([H])[H])c([H])c3F)c([H])c([H])c2C1([H])[H]

>  <smiles>  (39) 
[H]c1c([H])c([H])c2c(c1[H])C([H])([H])C([H])([H])C([H])([H])C2([H])N([H])C(=O)C1([H])N(C(=O)C([H])(N([H])C(=O)C([H])(N([H])C([H])([H])[H])C([H])([H])[H])C(C([H])([H])[H])(C([H])([H])[H])C([H])([H])[H])C([H])([H])c2c([H])c(OC([H])([H])c3c(F)c([H])c(N([H])C(=O)N4C([H])([H])C([H])([H])C([H])([H])C([H])(n5nc(-c6c([H])c([H])c(Oc7c([H])c([H])c(F)c([H])c7F)c([H])c6[H])c(C(=O)N([H])[H])c5N([H])[H])C4([H])[H])c([H])c3F)c([H])c([H])c2C1([H])[H]

$$$$
39:0:0
     RDKit          3D

 91 99  0  0  1  0  0  0  0  0999 V2000
  -29.3990  -18.6270   20.3340 C   0  0  0  0  0  3  0  0  0  0  0  0
  -30.9890  -17.6220   21.8710 C   0  0  0  0  0  3  0  0  0  0  0  0
  -30.0620  -17.4210   20.8290 C   0  0  0  0  0  0  0  0  0  0  0  0
  -29.6450  -19.9780   20.8300 C   0  0  0  0  0  0  0  0  0  0  0  0
  -31.2300  -18.9050   22.4030 C   0  0  0  0  0  0  0  0  0  0  0  0
  -30.5780  -20.0580   21.9030 C   0  0  0  0  0  0  0  0  0  0  0  0
  -32.1000  -19.0350   23.4350 F   0  0  0  0  0  0  0  0  0  0  0  0
  -30.8740  -21.2400   22.4930 F   0  0  0  0  0  0  0  0  0  0  0  0
  -30.5640  -14.8960   20.2950 C   0  0  0  0  0  0  0  0  0  0  0  0
  -30.3870  -12.6290   19.2410 C   0  0  0  0  0  2  0  0  0  0  0  0
  -29.4250  -12.6610   18.0320 C   0  0  0  0  0  2  0  0  0  0  0  0
  -27.9660  -12.4500   18.4870 C   0  0  0  0  0  2  0  0  0  0  0  0
  -27.5870  -13.3510   19.6910 C   0  0  0  0  0  3  0  0  0  0  0  0
  -28.6610  -13.2880   20.7970 C   0  0  0  0  0  2  0  0  0  0  0  0
  -29.9400  -13.6750   20.1830 N   0  0  0  0  0  0  0  0  0  0  0  0
  -31.7640  -14.9990   20.0230 O   0  0  0  0  0  0  0  0  0  0  0  0
  -29.7580  -16.0230   20.4140 N   0  0  0  0  0  0  0  0  0  0  0  0
  -28.7810  -15.8330   20.2560 H   0  0  0  0  0  0  0  0  0  0  0  0
  -25.2080  -13.9160   20.4690 C   0  0  0  0  0  0  0  0  0  0  0  0
  -24.1580  -13.1260   20.8540 C   0  0  0  0  0  0  0  0  0  0  0  0
  -24.6390  -11.7810   20.8130 C   0  0  0  0  0  0  0  0  0  0  0  0
  -26.2560  -13.0490   20.2080 N   0  0  0  0  0  0  0  0  0  0  0  0
  -25.9250  -11.7620   20.4850 N   0  0  0  0  0  0  0  0  0  0  0  0
  -23.9340  -10.5090   21.0070 C   0  0  0  0  0  0  0  0  0  0  0  0
  -24.3820   -9.5490   21.9390 C   0  0  0  0  0  3  0  0  0  0  0  0
  -23.6710   -8.3430   22.1220 C   0  0  0  0  0  3  0  0  0  0  0  0
  -22.5000   -8.0880   21.3690 C   0  0  0  0  0  0  0  0  0  0  0  0
  -22.0750   -9.0360   20.4220 C   0  0  0  0  0  3  0  0  0  0  0  0
  -22.7860  -10.2320   20.2390 C   0  0  0  0  0  3  0  0  0  0  0  0
  -21.7630   -6.9320   21.4600 O   0  0  0  0  0  0  0  0  0  0  0  0
  -21.7100   -6.1980   22.6200 C   0  0  0  0  0  0  0  0  0  0  0  0
  -21.2270   -6.7500   23.8270 C   0  0  0  0  0  3  0  0  0  0  0  0
  -21.1220   -5.9430   24.9780 C   0  0  0  0  0  3  0  0  0  0  0  0
  -21.4940   -4.5860   24.9230 C   0  0  0  0  0  0  0  0  0  0  0  0
  -21.9690   -4.0350   23.7190 C   0  0  0  0  0  3  0  0  0  0  0  0
  -22.0750   -4.8390   22.5710 C   0  0  0  0  0  0  0  0  0  0  0  0
  -22.5130   -4.2970   21.4100 F   0  0  0  0  0  0  0  0  0  0  0  0
  -21.3860   -3.8080   26.0240 F   0  0  0  0  0  0  0  0  0  0  0  0
  -22.7600  -13.5850   21.1460 C   0  0  0  0  0  0  0  0  0  0  0  0
  -22.0460  -12.8770   22.0130 N   0  0  0  0  0  0  0  0  0  0  0  0
  -22.3080  -14.6100   20.6380 O   0  0  0  0  0  0  0  0  0  0  0  0
  -22.4270  -12.0520   22.4520 H   0  0  0  0  0  0  0  0  0  0  0  0
  -21.1070  -13.1680   22.2440 H   0  0  0  0  0  0  0  0  0  0  0  0
  -25.3530  -15.2900   20.2940 N   0  0  0  0  0  0  0  0  0  0  0  0
  -24.5810  -15.9350   20.4300 H   0  0  0  0  0  0  0  0  0  0  0  0
  -26.1860  -15.7440   19.9480 H   0  0  0  0  0  0  0  0  0  0  0  0
  -29.0020  -21.1370   20.2670 O   0  0  0  0  0  0  0  0  0  0  0  0
  -29.1120  -22.5340   20.8110 C   0  0  0  0  0  3  0  0  0  0  0  0
  -28.5000  -23.8170   20.0170 C   0  0  0  0  0  3  0  0  0  0  0  0
  -28.1910  -25.2100   20.7860 C   0  0  0  0  0  2  0  0  0  0  0  0
  -28.2290  -26.5510   20.1160 O   0  0  0  0  0  0  0  0  0  0  0  0
  -24.5490  -31.9550   23.2600 C   0  0  0  0  0  0  0  0  0  0  0  0
  -27.1030  -27.3970   20.1460 C   0  0  0  0  0  0  0  0  0  0  0  0
  -23.3200  -30.5760   21.6200 C   0  0  0  0  0  3  0  0  0  0  0  0
  -24.7450  -29.0310   20.1590 C   0  0  0  0  0  0  0  0  0  0  0  0
  -25.8530  -30.8930   21.3910 C   0  0  0  0  0  2  0  0  0  0  0  0
  -25.9230  -29.5110   20.7460 C   0  0  0  0  0  0  0  0  0  0  0  0
  -27.1060  -28.7100   20.7190 C   0  0  0  0  0  3  0  0  0  0  0  0
  -25.9030  -26.9690   19.5400 C   0  0  0  0  0  3  0  0  0  0  0  0
  -24.7410  -27.7690   19.5380 C   0  0  0  0  0  3  0  0  0  0  0  0
  -23.5150  -29.9170   20.2260 C   0  0  0  0  0  2  0  0  0  0  0  0
  -24.5960  -31.1570   22.1510 N   0  0  0  0  0  0  0  0  0  0  0  0
  -23.4730  -32.2250   23.8140 O   0  0  0  0  0  0  0  0  0  0  0  0
  -22.6650  -29.5530   22.5790 C   0  0  0  0  0  0  0  0  0  0  0  0
  -21.3410  -29.3630   22.4540 N   0  0  0  0  0  0  0  0  0  0  0  0
  -23.3500  -28.9300   23.3950 O   0  0  0  0  0  0  0  0  0  0  0  0
  -20.8500  -29.9230   21.7720 H   0  0  0  0  0  0  0  0  0  0  0  0
  -17.9760  -28.1150   22.9320 C   0  0  0  0  0  0  0  0  0  0  0  0
  -20.5290  -28.4150   23.2190 C   0  0  0  0  0  3  0  0  0  0  0  0
  -20.6560  -26.9830   22.6490 C   0  0  0  0  0  2  0  0  0  0  0  0
  -19.5650  -26.6400   21.6280 C   0  0  0  0  0  2  0  0  0  0  0  0
  -18.1770  -26.7670   22.2610 C   0  0  0  0  0  2  0  0  0  0  0  0
  -19.0800  -28.8950   23.3680 C   0  0  0  0  0  0  0  0  0  0  0  0
  -18.8340  -30.1560   23.9550 C   0  0  0  0  0  3  0  0  0  0  0  0
  -17.5190  -30.6340   24.1110 C   0  0  0  0  0  3  0  0  0  0  0  0
  -16.4300  -29.8530   23.6890 C   0  0  0  0  0  3  0  0  0  0  0  0
  -16.6600  -28.5940   23.1030 C   0  0  0  0  0  3  0  0  0  0  0  0
  -25.8400  -32.5780   23.8750 C   0  0  0  0  0  3  0  0  0  0  0  0
  -26.3470  -31.8180   25.1600 C   0  0  1  0  0  0  0  0  0  0  0  0
  -25.2550  -31.6090   26.2360 C   0  0  0  0  0  1  0  0  0  0  0  0
  -26.9070  -30.4300   24.7740 C   0  0  0  0  0  1  0  0  0  0  0  0
  -27.5100  -32.6030   25.8140 C   0  0  0  0  0  1  0  0  0  0  0  0
  -25.5520  -33.9840   24.1940 N   0  0  0  0  0  0  0  0  0  0  0  0
  -25.8980  -35.0270   23.4280 C   0  0  0  0  0  0  0  0  0  0  0  0
  -26.5660  -34.9070   22.3980 O   0  0  0  0  0  0  0  0  0  0  0  0
  -24.9760  -34.1550   25.0040 H   0  0  0  0  0  0  0  0  0  0  0  0
  -24.2090  -36.8510   23.0400 C   0  0  0  0  0  1  0  0  0  0  0  0
  -25.4290  -36.4250   23.8750 C   0  0  0  0  0  3  0  0  0  0  0  0
  -27.5640  -37.2700   24.7420 C   0  0  0  0  0  1  0  0  0  0  0  0
  -26.4820  -37.4590   23.7780 N   0  0  0  0  0  0  0  0  0  0  0  0
  -26.0930  -38.3870   23.9190 H   0  0  0  0  0  0  0  0  0  0  0  0
  1  3  2  0
  1  4  1  0
  2  5  2  0
  3  2  1  0
  4  6  2  0
  5  7  1  0
  6  5  1  0
  6  8  1  0
  9 17  1  0
 10 15  1  0
 11 12  1  0
 11 10  1  0
 13 12  1  0
 13 22  1  0
 13 14  1  0
 15  9  1  0
 15 14  1  0
 16  9  2  0
 17  3  1  0
 18 17  1  0
 19 20  2  0
 20 39  1  0
 21 20  1  0
 21 24  1  0
 22 19  1  0
 22 23  1  0
 23 21  2  0
 24 25  1  0
 25 26  2  0
 27 30  1  0
 27 26  1  0
 28 27  2  0
 29 28  1  0
 29 24  2  0
 30 31  1  0
 31 32  1  0
 32 33  2  0
 34 33  1  0
 34 38  1  0
 35 34  2  0
 36 31  2  0
 36 35  1  0
 37 36  1  0
 39 40  1  0
 40 43  1  0
 40 42  1  0
 41 39  2  0
 44 45  1  0
 44 19  1  0
 46 44  1  0
 47 48  1  0
 47  4  1  0
 49 50  1  0
 49 48  2  0
 51 53  1  0
 51 50  1  0
 52 63  2  0
 53 58  1  0
 54 62  1  0
 54 64  1  0
 55 61  1  0
 55 57  1  0
 56 62  1  0
 57 56  1  0
 58 57  2  0
 59 53  2  0
 60 59  1  0
 60 55  2  0
 61 54  1  0
 62 52  1  0
 64 66  2  0
 65 64  1  0
 67 65  1  0
 68 77  2  0
 68 73  1  0
 69 65  1  0
 69 73  1  0
 70 69  1  0
 71 72  1  0
 71 70  1  0
 72 68  1  0
 73 74  2  0
 74 75  1  0
 76 75  2  0
 77 76  1  0
 78 52  1  0
 78 83  1  0
 78 79  1  0
 79 82  1  1
 79 80  1  0
 81 79  1  0
 83 86  1  0
 84 88  1  0
 84 83  1  0
 85 84  2  0
 88 87  1  0
 90 88  1  0
 90 91  1  0
 90 89  1  0
M  ISO  4   9 100  17 100  50 101  51 101
M  END
>  <TORSDO>  (40) 
F 20

>  <SCORE>  (40) 
-13.787

>  <name>  (40) 
39

>  <ligand_id>  (40) 
39

>  <original_smiles>  (40) 
[H]c1c([H])c([H])c2c(c1[H])C([H])([H])C([H])([H])C([H])([H])C2([H])N([H])C(=O)C1([H])N(C(=O)C([H])(N([H])C(=O)C([H])(N([H])C([H])([H])[H])C([H])([H])[H])C(C([H])([H])[H])(C([H])([H])[H])C([H])([H])[H])C([H])([H])c2c([H])c(OC([H])([H])C([H])([H])C([H])([H])Oc3c([H])c(N([H])C(=O)N4C([H])([H])C([H])([H])C([H])([H])C([H])(n5nc(-c6c([H])c([H])c(Oc7c([H])c([H])c(F)c([H])c7F)c([H])c6[H])c(C(=O)N([H])[H])c5N([H])[H])C4([H])[H])c([H])c(F)c3F)c([H])c([H])c2C1([H])[H]

>  <smiles>  (40) 
[H]c1c([H])c([H])c2c(c1[H])C([H])([H])C([H])([H])C([H])([H])C2([H])N([H])C(=O)C1([H])N(C(=O)C([H])(N([H])C(=O)C([H])(N([H])C([H])([H])[H])C([H])([H])[H])C(C([H])([H])[H])(C([H])([H])[H])C([H])([H])[H])C([H])([H])c2c([H])c(OC([H])([H])C([H])([H])C([H])([H])Oc3c([H])c(N([H])C(=O)N4C([H])([H])C([H])([H])C([H])([H])C([H])(n5nc(-c6c([H])c([H])c(Oc7c([H])c([H])c(F)c([H])c7F)c([H])c6[H])c(C(=O)N([H])[H])c5N([H])[H])C4([H])[H])c([H])c(F)c3F)c([H])c([H])c2C1([H])[H]

$$$$
40:0:0
     RDKit          3D

 96104  0  0  1  0  0  0  0  0999 V2000
  -29.2810  -20.5650   20.8500 C   0  0  0  0  0  0  0  0  0  0  0  0
  -29.7600  -19.4110   20.3440 N   0  0  0  0  0  0  0  0  0  0  0  0
  -29.2680  -20.7810   22.0670 O   0  0  0  0  0  0  0  0  0  0  0  0
  -29.7580  -19.2920   19.3400 H   0  0  0  0  0  0  0  0  0  0  0  0
  -29.1830  -17.5370   21.9140 C   0  0  0  0  0  2  0  0  0  0  0  0
  -30.2760  -18.3200   21.1920 C   0  0  0  0  0  3  0  0  0  0  0  0
  -30.6300  -16.9580   20.5450 C   0  0  0  0  0  3  0  0  0  0  0  0
  -29.4330  -15.0730   21.6990 C   0  0  0  0  0  1  0  0  0  0  0  0
  -30.0870  -16.3950   21.8010 N   0  0  2  0  0  4  0  0  0  0  0  0
  -30.7690  -16.4170   22.5460 H   0  0  0  0  0  0  0  0  0  0  0  0
  -32.1010  -16.5140   20.3460 C   0  0  0  0  0  2  0  0  0  0  0  0
  -32.8350  -14.5100   19.0620 C   0  0  0  0  0  0  0  0  0  0  0  0
  -32.2080  -12.1780   18.5740 C   0  0  0  0  0  2  0  0  0  0  0  0
  -31.2020  -12.1480   17.4030 C   0  0  0  0  0  2  0  0  0  0  0  0
  -29.7590  -12.3150   17.9170 C   0  0  0  0  0  2  0  0  0  0  0  0
  -29.6090  -13.5050   18.9010 C   0  0  0  0  0  3  0  0  0  0  0  0
  -30.7120  -13.4640   19.9780 C   0  0  0  0  0  2  0  0  0  0  0  0
  -32.0150  -13.4470   19.2950 N   0  0  0  0  0  0  0  0  0  0  0  0
  -33.9220  -14.4030   18.4940 O   0  0  0  0  0  0  0  0  0  0  0  0
  -32.2790  -15.7310   19.1230 N   0  0  0  0  0  0  0  0  0  0  0  0
  -32.6750  -16.3110   18.3980 H   0  0  0  0  0  0  0  0  0  0  0  0
  -27.5030  -14.6400   19.8480 C   0  0  0  0  0  0  0  0  0  0  0  0
  -26.3150  -14.1320   20.3010 C   0  0  0  0  0  0  0  0  0  0  0  0
  -26.4290  -12.7120   20.1990 C   0  0  0  0  0  0  0  0  0  0  0  0
  -28.2770  -13.5440   19.5000 N   0  0  0  0  0  0  0  0  0  0  0  0
  -27.6380  -12.3760   19.7680 N   0  0  0  0  0  0  0  0  0  0  0  0
  -25.4380  -11.6530   20.4320 C   0  0  0  0  0  0  0  0  0  0  0  0
  -25.6880  -10.5920   21.3290 C   0  0  0  0  0  3  0  0  0  0  0  0
  -24.7130   -9.5970   21.5490 C   0  0  0  0  0  3  0  0  0  0  0  0
  -23.4720   -9.6560   20.8700 C   0  0  0  0  0  0  0  0  0  0  0  0
  -23.2370  -10.7030   19.9610 C   0  0  0  0  0  3  0  0  0  0  0  0
  -24.2110  -11.6900   19.7400 C   0  0  0  0  0  3  0  0  0  0  0  0
  -22.4760   -8.7190   21.0020 O   0  0  0  0  0  0  0  0  0  0  0  0
  -22.2810   -8.0350   22.1750 C   0  0  0  0  0  0  0  0  0  0  0  0
  -22.0510   -8.7020   23.3970 C   0  0  0  0  0  3  0  0  0  0  0  0
  -21.7880   -7.9600   24.5650 C   0  0  0  0  0  3  0  0  0  0  0  0
  -21.7420   -6.5540   24.5130 C   0  0  0  0  0  0  0  0  0  0  0  0
  -21.9660   -5.8870   23.2950 C   0  0  0  0  0  3  0  0  0  0  0  0
  -22.2320   -6.6270   22.1280 C   0  0  0  0  0  0  0  0  0  0  0  0
  -22.4260   -5.9810   20.9530 F   0  0  0  0  0  0  0  0  0  0  0  0
  -21.4820   -5.8400   25.6320 F   0  0  0  0  0  0  0  0  0  0  0  0
  -25.1040  -14.9180   20.7120 C   0  0  0  0  0  0  0  0  0  0  0  0
  -24.3240  -14.3970   21.6540 N   0  0  0  0  0  0  0  0  0  0  0  0
  -24.8690  -16.0270   20.2330 O   0  0  0  0  0  0  0  0  0  0  0  0
  -24.5270  -13.4950   22.0600 H   0  0  0  0  0  0  0  0  0  0  0  0
  -23.5110  -14.9060   21.9710 H   0  0  0  0  0  0  0  0  0  0  0  0
  -27.9830  -15.9370   19.6840 N   0  0  0  0  0  0  0  0  0  0  0  0
  -27.3630  -16.7330   19.7760 H   0  0  0  0  0  0  0  0  0  0  0  0
  -28.8200  -16.1450   19.1560 H   0  0  0  0  0  0  0  0  0  0  0  0
  -28.7230  -21.6360   19.8920 C   0  0  0  0  0  2  0  0  0  0  0  0
  -28.4310  -24.1390   20.0500 C   0  0  0  0  0  0  0  0  0  0  0  0
  -28.6310  -22.9260   20.5880 N   0  0  0  0  0  0  0  0  0  0  0  0
  -28.2990  -24.3050   18.8350 O   0  0  0  0  0  0  0  0  0  0  0  0
  -28.7380  -22.8580   21.5920 H   0  0  0  0  0  0  0  0  0  0  0  0
  -28.3750  -25.3300   21.0330 C   0  0  0  0  0  2  0  0  0  0  0  0
  -28.4920  -26.6060   20.3750 O   0  0  0  0  0  0  0  0  0  0  0  0
  -24.6360  -31.8190   23.3310 C   0  0  0  0  0  0  0  0  0  0  0  0
  -27.3320  -27.3450   20.3570 C   0  0  0  0  0  0  0  0  0  0  0  0
  -23.4560  -30.3890   21.6940 C   0  0  0  0  0  3  0  0  0  0  0  0
  -24.9340  -28.8340   20.3120 C   0  0  0  0  0  0  0  0  0  0  0  0
  -25.9820  -30.7560   21.5220 C   0  0  0  0  0  2  0  0  0  0  0  0
  -26.0820  -29.3760   20.9050 C   0  0  0  0  0  0  0  0  0  0  0  0
  -27.2870  -28.6380   20.9240 C   0  0  0  0  0  3  0  0  0  0  0  0
  -26.1710  -26.8130   19.7620 C   0  0  0  0  0  3  0  0  0  0  0  0
  -24.9720  -27.5510   19.7370 C   0  0  0  0  0  3  0  0  0  0  0  0
  -23.6860  -29.6880   20.3280 C   0  0  0  0  0  2  0  0  0  0  0  0
  -24.7090  -31.0030   22.2410 N   0  0  0  0  0  0  0  0  0  0  0  0
  -23.5470  -32.0950   23.8530 O   0  0  0  0  0  0  0  0  0  0  0  0
  -22.7950  -29.3800   22.6620 C   0  0  0  0  0  0  0  0  0  0  0  0
  -21.4890  -29.1330   22.4680 N   0  0  0  0  0  0  0  0  0  0  0  0
  -23.4580  -28.8210   23.5390 O   0  0  0  0  0  0  0  0  0  0  0  0
  -21.0160  -29.6390   21.7320 H   0  0  0  0  0  0  0  0  0  0  0  0
  -18.1540  -27.7840   22.8020 C   0  0  0  0  0  0  0  0  0  0  0  0
  -20.6700  -28.1920   23.2310 C   0  0  0  0  0  3  0  0  0  0  0  0
  -20.8840  -26.7420   22.7390 C   0  0  0  0  0  2  0  0  0  0  0  0
  -19.8730  -26.3110   21.6720 C   0  0  0  0  0  2  0  0  0  0  0  0
  -18.4450  -26.4140   22.2130 C   0  0  0  0  0  2  0  0  0  0  0  0
  -19.2000  -28.6250   23.2650 C   0  0  0  0  0  0  0  0  0  0  0  0
  -18.8770  -29.9020   23.7720 C   0  0  0  0  0  3  0  0  0  0  0  0
  -17.5420  -30.3420   23.8200 C   0  0  0  0  0  3  0  0  0  0  0  0
  -16.5090  -29.5000   23.3740 C   0  0  0  0  0  3  0  0  0  0  0  0
  -16.8150  -28.2230   22.8710 C   0  0  0  0  0  3  0  0  0  0  0  0
  -25.9120  -32.4610   23.9590 C   0  0  0  0  0  3  0  0  0  0  0  0
  -25.6040  -33.8680   24.2460 N   0  0  0  0  0  0  0  0  0  0  0  0
  -25.9600  -34.8990   23.4680 C   0  0  0  0  0  0  0  0  0  0  0  0
  -26.6550  -34.7670   22.4560 O   0  0  0  0  0  0  0  0  0  0  0  0
  -24.9910  -34.0460   25.0290 H   0  0  0  0  0  0  0  0  0  0  0  0
  -24.2520  -36.6900   23.0210 C   0  0  0  0  0  1  0  0  0  0  0  0
  -25.4680  -36.3000   23.8770 C   0  0  0  0  0  3  0  0  0  0  0  0
  -27.5880  -37.1900   24.7390 C   0  0  0  0  0  1  0  0  0  0  0  0
  -26.5100  -37.3450   23.7660 N   0  0  0  0  0  0  0  0  0  0  0  0
  -26.1060  -38.2700   23.8850 H   0  0  0  0  0  0  0  0  0  0  0  0
  -26.4080  -31.7200   25.2620 C   0  0  1  0  0  0  0  0  0  0  0  0
  -25.2870  -31.4650   26.2950 C   0  0  0  0  0  1  0  0  0  0  0  0
  -27.0400  -30.3540   24.9040 C   0  0  0  0  0  1  0  0  0  0  0  0
  -27.5150  -32.5530   25.9500 C   0  0  0  0  0  1  0  0  0  0  0  0
  1  3  2  0
  2  1  1  0
  4  2  1  0
  6  2  1  0
  6  5  1  0
  7 11  1  0
  7  6  1  0
  7  9  1  0
  8  9  1  0
  9  5  1  0
  9 10  1  1
 12 20  1  0
 12 18  1  0
 13 18  1  0
 14 15  1  0
 14 13  1  0
 16 15  1  0
 16 25  1  0
 16 17  1  0
 18 17  1  0
 19 12  2  0
 20 11  1  0
 21 20  1  0
 22 23  2  0
 23 42  1  0
 24 23  1  0
 24 27  1  0
 25 26  1  0
 25 22  1  0
 26 24  2  0
 27 28  1  0
 28 29  2  0
 30 33  1  0
 30 29  1  0
 31 30  2  0
 32 31  1  0
 32 27  2  0
 33 34  1  0
 34 35  1  0
 35 36  2  0
 37 36  1  0
 37 41  1  0
 38 37  2  0
 39 34  2  0
 39 38  1  0
 40 39  1  0
 42 43  1  0
 43 46  1  0
 43 45  1  0
 44 42  2  0
 47 48  1  0
 47 22  1  0
 49 47  1  0
 50 52  1  0
 50  1  1  0
 51 52  1  0
 51 55  1  0
 52 54  1  0
 53 51  2  0
 56 55  1  0
 57 68  2  0
 58 56  1  0
 58 63  1  0
 59 67  1  0
 59 69  1  0
 60 66  1  0
 60 62  1  0
 61 67  1  0
 62 63  2  0
 62 61  1  0
 64 58  2  0
 65 64  1  0
 65 60  2  0
 66 59  1  0
 67 57  1  0
 69 71  2  0
 70 69  1  0
 72 70  1  0
 73 82  2  0
 73 78  1  0
 74 70  1  0
 74 78  1  0
 75 74  1  0
 76 77  1  0
 76 75  1  0
 77 73  1  0
 78 79  2  0
 79 80  1  0
 81 80  2  0
 82 81  1  0
 83 57  1  0
 83 84  1  0
 83 93  1  0
 84 87  1  0
 85 89  1  0
 85 84  1  0
 86 85  2  0
 89 88  1  0
 91 89  1  0
 91 92  1  0
 91 90  1  0
 93 96  1  1
 93 94  1  0
 95 93  1  0
M  ISO  4  12 100  20 100  55 101  56 101
M  END
>  <TORSDO>  (41) 
F 21

>  <SCORE>  (41) 
-9.216

>  <name>  (41) 
40

>  <ligand_id>  (41) 
40

>  <original_smiles>  (41) 
[H]c1c([H])c([H])c2c(c1[H])C([H])([H])C([H])([H])C([H])([H])C2([H])N([H])C(=O)C1([H])N(C(=O)C([H])(N([H])C(=O)C([H])(N([H])C([H])([H])[H])C([H])([H])[H])C(C([H])([H])[H])(C([H])([H])[H])C([H])([H])[H])C([H])([H])c2c([H])c(OC([H])([H])C(=O)N([H])C([H])([H])C(=O)N([H])C3([H])C([H])([H])[N+]([H])(C([H])([H])[H])C3([H])C([H])([H])N([H])C(=O)N3C([H])([H])C([H])([H])C([H])([H])C([H])(n4nc(-c5c([H])c([H])c(Oc6c([H])c([H])c(F)c([H])c6F)c([H])c5[H])c(C(=O)N([H])[H])c4N([H])[H])C3([H])[H])c([H])c([H])c2C1([H])[H]

>  <smiles>  (41) 
[H]c1c([H])c([H])c2c(c1[H])C([H])([H])C([H])([H])C([H])([H])C2([H])N([H])C(=O)C1([H])N(C(=O)C([H])(N([H])C(=O)C([H])(N([H])C([H])([H])[H])C([H])([H])[H])C(C([H])([H])[H])(C([H])([H])[H])C([H])([H])[H])C([H])([H])c2c([H])c(OC([H])([H])C(=O)N([H])C([H])([H])C(=O)N([H])C3([H])C([H])([H])[N+]([H])(C([H])([H])[H])C3([H])C([H])([H])N([H])C(=O)N3C([H])([H])C([H])([H])C([H])([H])C([H])(n4nc(-c5c([H])c([H])c(Oc6c([H])c([H])c(F)c([H])c6F)c([H])c5[H])c(C(=O)N([H])[H])c4N([H])[H])C3([H])[H])c([H])c([H])c2C1([H])[H]

$$$$
41:0:0
     RDKit          3D

100109  0  0  1  0  0  0  0  0999 V2000
  -30.0580  -20.9140   17.8740 C   0  0  0  0  0  2  0  0  0  0  0  0
  -31.1330  -20.0800   18.4870 N   0  0  0  0  0  4  0  0  0  0  0  0
  -32.0190  -20.2940   18.0610 H   0  0  0  0  0  0  0  0  0  0  0  0
  -31.2090  -20.3630   19.4530 H   0  0  0  0  0  0  0  0  0  0  0  0
  -32.5550  -15.4590   19.4960 C   0  0  0  0  0  0  0  0  0  0  0  0
  -32.3210  -13.0830   18.9220 C   0  0  0  0  0  2  0  0  0  0  0  0
  -31.2900  -13.0190   17.7760 C   0  0  0  0  0  2  0  0  0  0  0  0
  -29.8500  -12.9810   18.3330 C   0  0  0  0  0  2  0  0  0  0  0  0
  -29.5770  -13.9930   19.4850 C   0  0  0  0  0  3  0  0  0  0  0  0
  -30.7440  -14.0270   20.4980 C   0  0  0  0  0  2  0  0  0  0  0  0
  -31.9810  -14.2510   19.7410 N   0  0  0  0  0  0  0  0  0  0  0  0
  -33.7430  -15.5920   19.1840 O   0  0  0  0  0  0  0  0  0  0  0  0
  -31.1570  -17.8890   17.2070 C   0  0  0  0  0  2  0  0  0  0  0  0
  -31.3360  -16.4400   17.6600 C   0  0  0  0  0  2  0  0  0  0  0  0
  -31.7830  -17.8290   19.5160 C   0  0  0  0  0  3  0  0  0  0  0  0
  -30.9030  -18.6120   18.5130 C   0  0  0  0  0  3  0  0  0  0  0  0
  -31.6670  -16.4150   19.1100 N   0  0  0  0  0  0  0  0  0  0  0  0
  -30.7760  -18.8580   23.6340 C   0  0  0  0  0  3  0  0  0  0  0  0
  -31.5940  -19.7040   22.8610 C   0  0  0  0  0  3  0  0  0  0  0  0
  -30.2710  -17.6690   23.0740 C   0  0  0  0  0  3  0  0  0  0  0  0
  -31.9190  -19.3510   21.5350 C   0  0  0  0  0  3  0  0  0  0  0  0
  -30.5830  -17.3220   21.7410 C   0  0  0  0  0  3  0  0  0  0  0  0
  -31.4270  -18.1540   20.9670 C   0  0  0  0  0  0  0  0  0  0  0  0
  -27.3780  -14.6690   20.6270 C   0  0  0  0  0  0  0  0  0  0  0  0
  -26.3070  -13.9360   21.0430 C   0  0  0  0  0  0  0  0  0  0  0  0
  -26.6280  -12.5730   20.7600 C   0  0  0  0  0  0  0  0  0  0  0  0
  -28.2920  -13.7550   20.1250 N   0  0  0  0  0  0  0  0  0  0  0  0
  -27.8520  -12.4820   20.2630 N   0  0  0  0  0  0  0  0  0  0  0  0
  -25.8250  -11.3550   20.8840 C   0  0  0  0  0  0  0  0  0  0  0  0
  -26.0830  -10.3960   21.8890 C   0  0  0  0  0  3  0  0  0  0  0  0
  -25.2840   -9.2380   21.9960 C   0  0  0  0  0  3  0  0  0  0  0  0
  -24.2120   -9.0300   21.0950 C   0  0  0  0  0  0  0  0  0  0  0  0
  -23.9750   -9.9760   20.0800 C   0  0  0  0  0  3  0  0  0  0  0  0
  -24.7770  -11.1250   19.9750 C   0  0  0  0  0  3  0  0  0  0  0  0
  -23.3940   -7.9250   21.1060 O   0  0  0  0  0  0  0  0  0  0  0  0
  -22.7990   -7.4880   22.2580 C   0  0  0  0  0  0  0  0  0  0  0  0
  -21.9950   -8.3360   23.0510 C   0  0  0  0  0  3  0  0  0  0  0  0
  -21.3460   -7.8270   24.1910 C   0  0  0  0  0  3  0  0  0  0  0  0
  -21.4880   -6.4690   24.5330 C   0  0  0  0  0  0  0  0  0  0  0  0
  -22.2820   -5.6210   23.7420 C   0  0  0  0  0  3  0  0  0  0  0  0
  -22.9340   -6.1290   22.6080 C   0  0  0  0  0  0  0  0  0  0  0  0
  -23.6850   -5.3060   21.8380 F   0  0  0  0  0  0  0  0  0  0  0  0
  -20.8550   -5.9760   25.6220 F   0  0  0  0  0  0  0  0  0  0  0  0
  -25.0160  -14.4690   21.5900 C   0  0  0  0  0  0  0  0  0  0  0  0
  -24.3890  -13.7380   22.5030 N   0  0  0  0  0  0  0  0  0  0  0  0
  -24.5840  -15.5710   21.2450 O   0  0  0  0  0  0  0  0  0  0  0  0
  -24.7660  -12.8490   22.8010 H   0  0  0  0  0  0  0  0  0  0  0  0
  -23.5310  -14.0790   22.9130 H   0  0  0  0  0  0  0  0  0  0  0  0
  -27.6420  -16.0370   20.6100 N   0  0  0  0  0  0  0  0  0  0  0  0
  -26.9430  -16.7090   20.9090 H   0  0  0  0  0  0  0  0  0  0  0  0
  -28.4450  -16.4650   20.1710 H   0  0  0  0  0  0  0  0  0  0  0  0
  -30.4220  -21.4690   16.4690 C   0  0  0  0  0  2  0  0  0  0  0  0
  -30.8020  -22.9720   16.3920 C   0  0  0  0  0  2  0  0  0  0  0  0
  -29.5920  -24.0730   14.5020 C   0  0  0  0  0  1  0  0  0  0  0  0
  -29.7320  -23.9400   15.9810 N   0  0  2  0  0  4  0  0  0  0  0  0
  -28.8350  -23.6130   16.3090 H   0  0  0  0  0  0  0  0  0  0  0  0
  -29.9190  -25.2650   16.6400 C   0  0  0  0  0  2  0  0  0  0  0  0
  -29.0930  -25.4090   17.9390 C   0  0  0  0  0  2  0  0  0  0  0  0
  -29.2550  -26.8240   18.5290 C   0  0  0  0  0  2  0  0  0  0  0  0
  -28.6830  -26.9740   19.8240 O   0  0  0  0  0  0  0  0  0  0  0  0
  -24.6390  -31.6520   23.3350 C   0  0  0  0  0  0  0  0  0  0  0  0
  -27.4730  -27.6250   19.8810 C   0  0  0  0  0  0  0  0  0  0  0  0
  -23.4920  -30.3410   21.5780 C   0  0  0  0  0  3  0  0  0  0  0  0
  -25.0100  -28.9930   20.0330 C   0  0  0  0  0  0  0  0  0  0  0  0
  -25.9960  -30.8230   21.4170 C   0  0  0  0  0  2  0  0  0  0  0  0
  -26.1410  -29.5170   20.6670 C   0  0  0  0  0  0  0  0  0  0  0  0
  -27.3740  -28.8340   20.6030 C   0  0  0  0  0  3  0  0  0  0  0  0
  -26.3190  -27.0980   19.2610 C   0  0  0  0  0  3  0  0  0  0  0  0
  -25.0870  -27.7790   19.3310 C   0  0  0  0  0  3  0  0  0  0  0  0
  -23.7290  -29.7910   20.1450 C   0  0  0  0  0  2  0  0  0  0  0  0
  -24.7280  -30.9500   22.1680 N   0  0  0  0  0  0  0  0  0  0  0  0
  -23.5490  -31.8330   23.8930 O   0  0  0  0  0  0  0  0  0  0  0  0
  -22.8940  -29.2080   22.4440 C   0  0  0  0  0  0  0  0  0  0  0  0
  -21.6130  -28.8890   22.2020 N   0  0  0  0  0  0  0  0  0  0  0  0
  -23.5790  -28.6270   23.2870 O   0  0  0  0  0  0  0  0  0  0  0  0
  -21.1130  -29.4170   21.4990 H   0  0  0  0  0  0  0  0  0  0  0  0
  -18.4010  -27.2450   22.3250 C   0  0  0  0  0  0  0  0  0  0  0  0
  -20.8540  -27.8340   22.8780 C   0  0  0  0  0  3  0  0  0  0  0  0
  -21.2110  -26.4420   22.3100 C   0  0  0  0  0  2  0  0  0  0  0  0
  -20.2790  -25.9920   21.1780 C   0  0  0  0  0  2  0  0  0  0  0  0
  -18.8290  -25.9440   21.6640 C   0  0  0  0  0  2  0  0  0  0  0  0
  -19.3540  -28.1400   22.8780 C   0  0  0  0  0  0  0  0  0  0  0  0
  -18.9070  -29.3540   23.4420 C   0  0  0  0  0  3  0  0  0  0  0  0
  -17.5370  -29.6790   23.4620 C   0  0  0  0  0  3  0  0  0  0  0  0
  -16.5980  -28.7850   22.9230 C   0  0  0  0  0  3  0  0  0  0  0  0
  -17.0270  -27.5680   22.3640 C   0  0  0  0  0  3  0  0  0  0  0  0
  -25.8980  -32.2800   24.0040 C   0  0  0  0  0  3  0  0  0  0  0  0
  -25.5890  -33.6870   24.2900 N   0  0  0  0  0  0  0  0  0  0  0  0
  -25.9520  -34.7150   23.5120 C   0  0  0  0  0  0  0  0  0  0  0  0
  -26.6560  -34.5810   22.5080 O   0  0  0  0  0  0  0  0  0  0  0  0
  -24.9800  -33.8690   25.0730 H   0  0  0  0  0  0  0  0  0  0  0  0
  -24.2330  -36.4950   23.0640 C   0  0  0  0  0  1  0  0  0  0  0  0
  -25.4550  -36.1170   23.9180 C   0  0  0  0  0  3  0  0  0  0  0  0
  -27.5610  -37.0310   24.7830 C   0  0  0  0  0  1  0  0  0  0  0  0
  -26.4880  -37.1670   23.8030 N   0  0  0  0  0  0  0  0  0  0  0  0
  -26.0770  -38.0890   23.9140 H   0  0  0  0  0  0  0  0  0  0  0  0
  -26.3520  -31.5320   25.3160 C   0  0  1  0  0  0  0  0  0  0  0  0
  -25.2020  -31.2590   26.3120 C   0  0  0  0  0  1  0  0  0  0  0  0
  -27.0030  -30.1690   24.9670 C   0  0  0  0  0  1  0  0  0  0  0  0
  -27.4340  -32.3630   26.0450 C   0  0  0  0  0  1  0  0  0  0  0  0
  1  2  1  0
  2  4  1  0
  3  2  1  0
  5 11  1  0
  6 11  1  0
  7  8  1  0
  7  6  1  0
  9  8  1  0
  9 27  1  0
  9 10  1  0
 11 10  1  0
 12  5  2  0
 13 14  1  0
 13 16  1  0
 14 17  1  0
 15 23  1  0
 16  2  1  0
 16 15  1  0
 17  5  1  0
 17 15  1  0
 19 18  2  0
 20 18  1  0
 21 19  1  0
 22 20  2  0
 23 21  2  0
 23 22  1  0
 24 25  2  0
 25 44  1  0
 26 29  1  0
 26 25  1  0
 27 28  1  0
 27 24  1  0
 28 26  2  0
 29 30  1  0
 30 31  2  0
 32 35  1  0
 32 31  1  0
 33 32  2  0
 34 33  1  0
 34 29  2  0
 35 36  1  0
 36 41  2  0
 36 37  1  0
 37 38  2  0
 38 39  1  0
 39 43  1  0
 40 39  2  0
 41 40  1  0
 42 41  1  0
 44 45  1  0
 45 47  1  0
 45 48  1  0
 46 44  2  0
 49 24  1  0
 49 50  1  0
 51 49  1  0
 52  1  1  0
 53 52  1  0
 54 55  1  0
 55 56  1  1
 55 53  1  0
 55 57  1  0
 57 58  1  0
 58 59  1  0
 59 60  1  0
 60 62  1  0
 61 72  2  0
 62 67  1  0
 63 71  1  0
 63 73  1  0
 64 70  1  0
 64 66  1  0
 65 71  1  0
 66 65  1  0
 67 66  2  0
 68 69  1  0
 68 62  2  0
 69 64  2  0
 70 63  1  0
 71 61  1  0
 73 75  2  0
 74 73  1  0
 76 74  1  0
 77 86  2  0
 77 82  1  0
 78 74  1  0
 79 78  1  0
 80 81  1  0
 80 79  1  0
 81 77  1  0
 82 78  1  0
 82 83  2  0
 83 84  1  0
 85 84  2  0
 86 85  1  0
 87 61  1  0
 87 88  1  0
 87 97  1  0
 88 91  1  0
 89 93  1  0
 89 88  1  0
 90 89  2  0
 93 92  1  0
 95 96  1  0
 95 93  1  0
 95 94  1  0
 97100  1  1
 97 98  1  0
 99 97  1  0
M  ISO  4   5 100  17 100  59 101  60 101
M  END
>  <TORSDO>  (42) 
F 24

>  <SCORE>  (42) 
-7.977

>  <name>  (42) 
41

>  <ligand_id>  (42) 
41

>  <original_smiles>  (42) 
[H]c1c([H])c([H])c(C2([H])N(C(=O)N3C([H])([H])C([H])([H])C([H])([H])C([H])(n4nc(-c5c([H])c([H])c(Oc6c([H])c([H])c(F)c([H])c6F)c([H])c5[H])c(C(=O)N([H])[H])c4N([H])[H])C3([H])[H])C([H])([H])C([H])([H])C2([H])[N+]([H])([H])C([H])([H])C([H])([H])C([H])([H])[N+]([H])(C([H])([H])[H])C([H])([H])C([H])([H])C([H])([H])Oc2c([H])c([H])c3c(c2[H])C([H])([H])N(C(=O)C([H])(N([H])C(=O)C([H])(N([H])C([H])([H])[H])C([H])([H])[H])C(C([H])([H])[H])(C([H])([H])[H])C([H])([H])[H])C([H])(C(=O)N([H])C2([H])c4c([H])c([H])c([H])c([H])c4C([H])([H])C([H])([H])C2([H])[H])C3([H])[H])c([H])c1[H]

>  <smiles>  (42) 
[H]c1c([H])c([H])c(C2([H])N(C(=O)N3C([H])([H])C([H])([H])C([H])([H])C([H])(n4nc(-c5c([H])c([H])c(Oc6c([H])c([H])c(F)c([H])c6F)c([H])c5[H])c(C(=O)N([H])[H])c4N([H])[H])C3([H])[H])C([H])([H])C([H])([H])C2([H])[N+]([H])([H])C([H])([H])C([H])([H])C([H])([H])[N+]([H])(C([H])([H])[H])C([H])([H])C([H])([H])C([H])([H])Oc2c([H])c([H])c3c(c2[H])C([H])([H])N(C(=O)C([H])(N([H])C(=O)C([H])(N([H])C([H])([H])[H])C([H])([H])[H])C(C([H])([H])[H])(C([H])([H])[H])C([H])([H])[H])C([H])(C(=O)N([H])C2([H])c4c([H])c([H])c([H])c([H])c4C([H])([H])C([H])([H])C2([H])[H])C3([H])[H])c([H])c1[H]

$$$$
42:0:0
     RDKit          3D

 93101  0  0  1  0  0  0  0  0999 V2000
  -27.5700  -21.2480   22.0030 C   0  0  0  0  0  1  0  0  0  0  0  0
  -28.4700  -21.9970   21.0830 N   0  0  1  0  0  4  0  0  0  0  0  0
  -29.3540  -22.0510   21.5700 H   0  0  0  0  0  0  0  0  0  0  0  0
  -28.7930  -21.2600   19.8220 C   0  0  0  0  0  2  0  0  0  0  0  0
  -28.6700  -18.7490   19.3140 C   0  0  0  0  0  3  0  0  0  0  0  0
  -29.0720  -17.4100   19.5190 C   0  0  0  0  0  3  0  0  0  0  0  0
  -30.7550  -18.1570   21.1000 C   0  0  0  0  0  3  0  0  0  0  0  0
  -29.2950  -19.8120   20.0070 C   0  0  0  0  0  0  0  0  0  0  0  0
  -30.1000  -17.0930   20.4360 C   0  0  0  0  0  0  0  0  0  0  0  0
  -30.3720  -19.5020   20.8700 C   0  0  0  0  0  0  0  0  0  0  0  0
  -31.0020  -20.5040   21.5290 F   0  0  0  0  0  0  0  0  0  0  0  0
  -31.0060  -14.8000   20.0890 C   0  0  0  0  0  0  0  0  0  0  0  0
  -30.7430  -12.6020   18.9750 C   0  0  0  0  0  2  0  0  0  0  0  0
  -29.7520  -12.7580   17.8000 C   0  0  0  0  0  2  0  0  0  0  0  0
  -28.2940  -12.6040   18.2820 C   0  0  0  0  0  2  0  0  0  0  0  0
  -27.9890  -13.4710   19.5350 C   0  0  0  0  0  3  0  0  0  0  0  0
  -29.0790  -13.2620   20.6100 C   0  0  0  0  0  2  0  0  0  0  0  0
  -30.3840  -13.5890   20.0080 N   0  0  0  0  0  0  0  0  0  0  0  0
  -32.0730  -15.0450   19.5180 O   0  0  0  0  0  0  0  0  0  0  0  0
  -30.3380  -15.7310   20.8030 N   0  0  0  0  0  0  0  0  0  0  0  0
  -29.5920  -15.3160   21.3410 H   0  0  0  0  0  0  0  0  0  0  0  0
  -25.6320  -14.1040   20.3650 C   0  0  0  0  0  0  0  0  0  0  0  0
  -24.5690  -13.3370   20.7610 C   0  0  0  0  0  0  0  0  0  0  0  0
  -25.0070  -11.9810   20.6730 C   0  0  0  0  0  0  0  0  0  0  0  0
  -26.6520  -13.2120   20.0650 N   0  0  0  0  0  0  0  0  0  0  0  0
  -26.2800  -11.9280   20.3030 N   0  0  0  0  0  0  0  0  0  0  0  0
  -24.2700  -10.7250   20.8640 C   0  0  0  0  0  0  0  0  0  0  0  0
  -24.6300   -9.8030   21.8710 C   0  0  0  0  0  3  0  0  0  0  0  0
  -23.8960   -8.6110   22.0450 C   0  0  0  0  0  3  0  0  0  0  0  0
  -22.7880   -8.3310   21.2090 C   0  0  0  0  0  0  0  0  0  0  0  0
  -22.4500   -9.2410   20.1930 C   0  0  0  0  0  3  0  0  0  0  0  0
  -23.1840  -10.4260   20.0180 C   0  0  0  0  0  3  0  0  0  0  0  0
  -22.0330   -7.1870   21.2870 O   0  0  0  0  0  0  0  0  0  0  0  0
  -21.7730   -6.5760   22.4880 C   0  0  0  0  0  0  0  0  0  0  0  0
  -21.0730   -7.2330   23.5220 C   0  0  0  0  0  3  0  0  0  0  0  0
  -20.7680   -6.5440   24.7130 C   0  0  0  0  0  3  0  0  0  0  0  0
  -21.1530   -5.2000   24.8680 C   0  0  0  0  0  0  0  0  0  0  0  0
  -21.8470   -4.5420   23.8370 C   0  0  0  0  0  3  0  0  0  0  0  0
  -22.1550   -5.2290   22.6490 C   0  0  0  0  0  0  0  0  0  0  0  0
  -22.8040   -4.5840   21.6490 F   0  0  0  0  0  0  0  0  0  0  0  0
  -20.8530   -4.5340   26.0080 F   0  0  0  0  0  0  0  0  0  0  0  0
  -23.1930  -13.8290   21.1080 C   0  0  0  0  0  0  0  0  0  0  0  0
  -22.4940  -13.1190   21.9880 N   0  0  0  0  0  0  0  0  0  0  0  0
  -22.7490  -14.8750   20.6380 O   0  0  0  0  0  0  0  0  0  0  0  0
  -22.8670  -12.2750   22.3950 H   0  0  0  0  0  0  0  0  0  0  0  0
  -21.5690  -13.4270   22.2580 H   0  0  0  0  0  0  0  0  0  0  0  0
  -25.8020  -15.4760   20.2230 N   0  0  0  0  0  0  0  0  0  0  0  0
  -25.0330  -16.1140   20.3920 H   0  0  0  0  0  0  0  0  0  0  0  0
  -26.6380  -15.9470   19.9060 H   0  0  0  0  0  0  0  0  0  0  0  0
  -27.9540  -23.3960   20.9130 C   0  0  0  0  0  2  0  0  0  0  0  0
  -28.9210  -24.4580   20.3090 C   0  0  0  0  0  2  0  0  0  0  0  0
  -28.6090  -25.8860   20.8450 C   0  0  0  0  0  2  0  0  0  0  0  0
  -28.6490  -26.9600   19.8840 O   0  0  0  0  0  0  0  0  0  0  0  0
  -24.6090  -31.8480   23.1520 C   0  0  0  0  0  0  0  0  0  0  0  0
  -27.4830  -27.6920   19.8840 C   0  0  0  0  0  0  0  0  0  0  0  0
  -23.4710  -30.4520   21.4600 C   0  0  0  0  0  3  0  0  0  0  0  0
  -25.0050  -29.0490   19.9720 C   0  0  0  0  0  0  0  0  0  0  0  0
  -25.9700  -30.9610   21.2570 C   0  0  0  0  0  2  0  0  0  0  0  0
  -26.1360  -29.6200   20.5720 C   0  0  0  0  0  0  0  0  0  0  0  0
  -27.3810  -28.9460   20.5320 C   0  0  0  0  0  3  0  0  0  0  0  0
  -26.3390  -27.1370   19.2730 C   0  0  0  0  0  3  0  0  0  0  0  0
  -25.1020  -27.8060   19.3240 C   0  0  0  0  0  3  0  0  0  0  0  0
  -23.7070  -29.8220   20.0610 C   0  0  0  0  0  2  0  0  0  0  0  0
  -24.7030  -31.0990   22.0160 N   0  0  0  0  0  0  0  0  0  0  0  0
  -23.5170  -32.0380   23.7040 O   0  0  0  0  0  0  0  0  0  0  0  0
  -22.8850  -29.3630   22.3880 C   0  0  0  0  0  0  0  0  0  0  0  0
  -21.5730  -29.1170   22.2620 N   0  0  0  0  0  0  0  0  0  0  0  0
  -23.6080  -28.7430   23.1750 O   0  0  0  0  0  0  0  0  0  0  0  0
  -21.0450  -29.6930   21.6230 H   0  0  0  0  0  0  0  0  0  0  0  0
  -18.2750  -27.7190   22.7400 C   0  0  0  0  0  0  0  0  0  0  0  0
  -20.8200  -28.0910   22.9820 C   0  0  0  0  0  3  0  0  0  0  0  0
  -20.9920  -26.7030   22.3160 C   0  0  0  0  0  2  0  0  0  0  0  0
  -19.8790  -26.3680   21.3170 C   0  0  0  0  0  2  0  0  0  0  0  0
  -18.5030  -26.4150   21.9910 C   0  0  0  0  0  2  0  0  0  0  0  0
  -19.3620  -28.5130   23.1920 C   0  0  0  0  0  0  0  0  0  0  0  0
  -19.0980  -29.7330   23.8520 C   0  0  0  0  0  3  0  0  0  0  0  0
  -17.7740  -30.1640   24.0560 C   0  0  0  0  0  3  0  0  0  0  0  0
  -16.7010  -29.3680   23.6210 C   0  0  0  0  0  3  0  0  0  0  0  0
  -16.9520  -28.1450   22.9720 C   0  0  0  0  0  3  0  0  0  0  0  0
  -25.8550  -32.5260   23.7960 C   0  0  0  0  0  3  0  0  0  0  0  0
  -25.4820  -33.9050   24.1360 N   0  0  0  0  0  0  0  0  0  0  0  0
  -25.7880  -34.9820   23.3990 C   0  0  0  0  0  0  0  0  0  0  0  0
  -26.4850  -34.9180   22.3820 O   0  0  0  0  0  0  0  0  0  0  0  0
  -24.8610  -34.0230   24.9230 H   0  0  0  0  0  0  0  0  0  0  0  0
  -24.0090  -36.7160   23.0170 C   0  0  0  0  0  1  0  0  0  0  0  0
  -25.2360  -36.3450   23.8630 C   0  0  0  0  0  3  0  0  0  0  0  0
  -27.3030  -37.2990   24.7840 C   0  0  0  0  0  1  0  0  0  0  0  0
  -26.2340  -37.4360   23.7980 N   0  0  0  0  0  0  0  0  0  0  0  0
  -25.7910  -38.3410   23.9310 H   0  0  0  0  0  0  0  0  0  0  0  0
  -26.3870  -31.7650   25.0720 C   0  0  1  0  0  0  0  0  0  0  0  0
  -25.2890  -31.4630   26.1190 C   0  0  0  0  0  1  0  0  0  0  0  0
  -27.0390  -30.4260   24.6610 C   0  0  0  0  0  1  0  0  0  0  0  0
  -27.4930  -32.6020   25.7570 C   0  0  0  0  0  1  0  0  0  0  0  0
  2  3  1  1
  2  1  1  0
  4  8  1  0
  4  2  1  0
  5  6  2  0
  5  8  1  0
  6  9  1  0
  8 10  2  0
  9 20  1  0
  9  7  2  0
 10  7  1  0
 10 11  1  0
 12 20  1  0
 13 18  1  0
 14 15  1  0
 14 13  1  0
 16 15  1  0
 16 25  1  0
 16 17  1  0
 18 12  1  0
 18 17  1  0
 19 12  2  0
 20 21  1  0
 22 23  2  0
 23 42  1  0
 24 23  1  0
 24 27  1  0
 25 26  1  0
 25 22  1  0
 26 24  2  0
 27 28  1  0
 28 29  2  0
 30 33  1  0
 30 29  1  0
 31 30  2  0
 32 31  1  0
 32 27  2  0
 33 34  1  0
 34 39  2  0
 34 35  1  0
 35 36  2  0
 36 37  1  0
 37 41  1  0
 38 37  2  0
 39 38  1  0
 40 39  1  0
 42 43  1  0
 43 46  1  0
 43 45  1  0
 44 42  2  0
 47 22  1  0
 47 48  1  0
 49 47  1  0
 50  2  1  0
 51 52  1  0
 51 50  1  0
 53 55  1  0
 53 52  1  0
 54 65  2  0
 55 60  1  0
 56 64  1  0
 56 66  1  0
 57 63  1  0
 57 59  1  0
 58 64  1  0
 59 58  1  0
 60 59  2  0
 61 62  1  0
 61 55  2  0
 62 57  2  0
 63 56  1  0
 64 54  1  0
 66 68  2  0
 67 66  1  0
 69 67  1  0
 70 79  2  0
 70 75  1  0
 71 67  1  0
 71 75  1  0
 72 71  1  0
 73 74  1  0
 73 72  1  0
 74 70  1  0
 75 76  2  0
 76 77  1  0
 78 77  2  0
 79 78  1  0
 80 54  1  0
 80 81  1  0
 80 90  1  0
 81 84  1  0
 82 86  1  0
 82 81  1  0
 83 82  2  0
 86 85  1  0
 88 86  1  0
 88 89  1  0
 88 87  1  0
 90 93  1  1
 90 91  1  0
 92 90  1  0
M  ISO  4  12 100  20 100  52 101  53 101
M  END
>  <TORSDO>  (43) 
F 21

>  <SCORE>  (43) 
-11.510

>  <name>  (43) 
42

>  <ligand_id>  (43) 
42

>  <original_smiles>  (43) 
[H]c1c([H])c([H])c2c(c1[H])C([H])([H])C([H])([H])C([H])([H])C2([H])N([H])C(=O)C1([H])N(C(=O)C([H])(N([H])C(=O)C([H])(N([H])C([H])([H])[H])C([H])([H])[H])C(C([H])([H])[H])(C([H])([H])[H])C([H])([H])[H])C([H])([H])c2c([H])c(OC([H])([H])C([H])([H])C([H])([H])[N+]([H])(C([H])([H])[H])C([H])([H])c3c([H])c([H])c(N([H])C(=O)N4C([H])([H])C([H])([H])C([H])([H])C([H])(n5nc(-c6c([H])c([H])c(Oc7c([H])c([H])c(F)c([H])c7F)c([H])c6[H])c(C(=O)N([H])[H])c5N([H])[H])C4([H])[H])c([H])c3F)c([H])c([H])c2C1([H])[H]

>  <smiles>  (43) 
[H]c1c([H])c([H])c2c(c1[H])C([H])([H])C([H])([H])C([H])([H])C2([H])N([H])C(=O)C1([H])N(C(=O)C([H])(N([H])C(=O)C([H])(N([H])C([H])([H])[H])C([H])([H])[H])C(C([H])([H])[H])(C([H])([H])[H])C([H])([H])[H])C([H])([H])c2c([H])c(OC([H])([H])C([H])([H])C([H])([H])[N+]([H])(C([H])([H])[H])C([H])([H])c3c([H])c([H])c(N([H])C(=O)N4C([H])([H])C([H])([H])C([H])([H])C([H])(n5nc(-c6c([H])c([H])c(Oc7c([H])c([H])c(F)c([H])c7F)c([H])c6[H])c(C(=O)N([H])[H])c5N([H])[H])C4([H])[H])c([H])c3F)c([H])c([H])c2C1([H])[H]

$$$$
43:0:0
     RDKit          3D

 97105  0  0  1  0  0  0  0  0999 V2000
  -28.9750  -16.8380   18.6940 C   0  0  0  0  0  3  0  0  0  0  0  0
  -28.4150  -17.4450   17.5810 C   0  0  0  0  0  3  0  0  0  0  0  0
  -28.8540  -19.6170   18.5700 C   0  0  0  0  0  0  0  0  0  0  0  0
  -29.2990  -19.0690   19.8430 C   0  0  0  0  0  0  0  0  0  0  0  0
  -29.4710  -17.5210   19.8370 C   0  0  0  0  0  0  0  0  0  0  0  0
  -28.3870  -18.8240   17.5020 C   0  0  0  0  0  0  0  0  0  0  0  0
  -27.9300  -19.3870   16.3550 F   0  0  0  0  0  0  0  0  0  0  0  0
  -30.6560  -15.1230   20.4590 C   0  0  0  0  0  0  0  0  0  0  0  0
  -30.4310  -12.8370   19.3370 C   0  0  0  0  0  2  0  0  0  0  0  0
  -29.4740  -12.8190   18.1250 C   0  0  0  0  0  2  0  0  0  0  0  0
  -28.0250  -12.5930   18.5900 C   0  0  0  0  0  2  0  0  0  0  0  0
  -27.6460  -13.4450   19.8280 C   0  0  0  0  0  3  0  0  0  0  0  0
  -28.7390  -13.4420   20.9170 C   0  0  0  0  0  2  0  0  0  0  0  0
  -29.9750  -13.9090   20.2760 N   0  0  0  0  0  0  0  0  0  0  0  0
  -31.8640  -15.0840   20.2070 O   0  0  0  0  0  0  0  0  0  0  0  0
  -30.0520  -16.4150   20.7460 N   0  0  0  0  0  0  0  0  0  0  0  0
  -30.5430  -16.8290   21.5270 H   0  0  0  0  0  0  0  0  0  0  0  0
  -25.2780  -13.9730   20.6200 C   0  0  0  0  0  0  0  0  0  0  0  0
  -24.2270  -13.1810   20.9800 C   0  0  0  0  0  0  0  0  0  0  0  0
  -24.7050  -11.8360   20.9160 C   0  0  0  0  0  0  0  0  0  0  0  0
  -26.3270  -13.1130   20.3500 N   0  0  0  0  0  0  0  0  0  0  0  0
  -25.9950  -11.8200   20.5940 N   0  0  0  0  0  0  0  0  0  0  0  0
  -23.9940  -10.5620   21.0840 C   0  0  0  0  0  0  0  0  0  0  0  0
  -24.4280   -9.5920   22.0130 C   0  0  0  0  0  3  0  0  0  0  0  0
  -23.7180   -8.3820   22.1700 C   0  0  0  0  0  3  0  0  0  0  0  0
  -22.5600   -8.1320   21.3970 C   0  0  0  0  0  0  0  0  0  0  0  0
  -22.1440   -9.0930   20.4570 C   0  0  0  0  0  3  0  0  0  0  0  0
  -22.8530  -10.2950   20.3000 C   0  0  0  0  0  3  0  0  0  0  0  0
  -21.8230   -6.9730   21.4630 O   0  0  0  0  0  0  0  0  0  0  0  0
  -21.7550   -6.2300   22.6140 C   0  0  0  0  0  0  0  0  0  0  0  0
  -21.2590   -6.7690   23.8210 C   0  0  0  0  0  3  0  0  0  0  0  0
  -21.1400   -5.9500   24.9620 C   0  0  0  0  0  3  0  0  0  0  0  0
  -21.5020   -4.5920   24.8970 C   0  0  0  0  0  0  0  0  0  0  0  0
  -21.9880   -4.0500   23.6930 C   0  0  0  0  0  3  0  0  0  0  0  0
  -22.1120   -4.8670   22.5550 C   0  0  0  0  0  0  0  0  0  0  0  0
  -22.5610   -4.3360   21.3930 F   0  0  0  0  0  0  0  0  0  0  0  0
  -21.3820   -3.8020   25.9890 F   0  0  0  0  0  0  0  0  0  0  0  0
  -22.8250  -13.6340   21.2720 C   0  0  0  0  0  0  0  0  0  0  0  0
  -22.1150  -12.9130   22.1310 N   0  0  0  0  0  0  0  0  0  0  0  0
  -22.3740  -14.6660   20.7750 O   0  0  0  0  0  0  0  0  0  0  0  0
  -22.4970  -12.0760   22.5450 H   0  0  0  0  0  0  0  0  0  0  0  0
  -21.1780  -13.2030   22.3750 H   0  0  0  0  0  0  0  0  0  0  0  0
  -25.4350  -15.3480   20.4720 N   0  0  0  0  0  0  0  0  0  0  0  0
  -24.6680  -16.0010   20.5780 H   0  0  0  0  0  0  0  0  0  0  0  0
  -26.2910  -15.7800   20.1440 H   0  0  0  0  0  0  0  0  0  0  0  0
  -28.9270  -21.0840   18.2410 C   0  0  0  0  0  0  0  0  0  0  0  0
  -27.7670  -21.7320   18.2070 N   0  0  0  0  0  0  0  0  0  0  0  0
  -30.0030  -21.6630   18.1070 O   0  0  0  0  0  0  0  0  0  0  0  0
  -26.8960  -21.2180   18.2220 H   0  0  0  0  0  0  0  0  0  0  0  0
  -27.7510  -22.7090   17.9470 H   0  0  0  0  0  0  0  0  0  0  0  0
  -29.5800  -20.3170   20.9420 C   0  0  0  0  0  2  0  0  0  0  0  0
  -28.6670  -21.6490   21.1090 N   0  0  0  0  0  4  0  0  0  0  0  0
  -28.1400  -21.4940   21.9540 H   0  0  0  0  0  0  0  0  0  0  0  0
  -27.9860  -21.5970   20.3650 H   0  0  0  0  0  0  0  0  0  0  0  0
  -29.1340  -23.1950   21.1330 C   0  0  0  0  0  3  0  0  0  0  0  0
  -28.0680  -24.5410   21.0440 C   0  0  0  0  0  3  0  0  0  0  0  0
  -28.3530  -26.1030   20.9910 O   0  0  0  0  0  0  0  0  0  0  0  0
  -24.5880  -32.0480   23.3710 C   0  0  0  0  0  0  0  0  0  0  0  0
  -27.3120  -27.1050   20.8130 C   0  0  0  0  0  0  0  0  0  0  0  0
  -23.4760  -30.5340   21.7780 C   0  0  0  0  0  3  0  0  0  0  0  0
  -24.9950  -28.8700   20.5380 C   0  0  0  0  0  0  0  0  0  0  0  0
  -26.0350  -30.7920   21.7240 C   0  0  0  0  0  2  0  0  0  0  0  0
  -26.1450  -29.3530   21.1760 C   0  0  0  0  0  0  0  0  0  0  0  0
  -27.3050  -28.4870   21.2900 C   0  0  0  0  0  3  0  0  0  0  0  0
  -26.1340  -26.7390   20.1250 C   0  0  0  0  0  3  0  0  0  0  0  0
  -25.0080  -27.5810   19.9920 C   0  0  0  0  0  3  0  0  0  0  0  0
  -23.7690  -29.7670   20.4600 C   0  0  0  0  0  2  0  0  0  0  0  0
  -24.7160  -31.1530   22.3440 N   0  0  0  0  0  0  0  0  0  0  0  0
  -23.4750  -32.3600   23.8250 O   0  0  0  0  0  0  0  0  0  0  0  0
  -22.7510  -29.5920   22.7720 C   0  0  0  0  0  0  0  0  0  0  0  0
  -21.4400  -29.3720   22.5690 N   0  0  0  0  0  0  0  0  0  0  0  0
  -23.3730  -29.0590   23.6940 O   0  0  0  0  0  0  0  0  0  0  0  0
  -20.9920  -29.8530   21.8020 H   0  0  0  0  0  0  0  0  0  0  0  0
  -18.0630  -28.1020   22.9270 C   0  0  0  0  0  0  0  0  0  0  0  0
  -20.5850  -28.4780   23.3570 C   0  0  0  0  0  3  0  0  0  0  0  0
  -20.7720  -27.0050   22.9250 C   0  0  0  0  0  2  0  0  0  0  0  0
  -19.7620  -26.5540   21.8650 C   0  0  0  0  0  2  0  0  0  0  0  0
  -18.3310  -26.7070   22.3880 C   0  0  0  0  0  2  0  0  0  0  0  0
  -19.1220  -28.9390   23.3660 C   0  0  0  0  0  0  0  0  0  0  0  0
  -18.8210  -30.2390   23.8270 C   0  0  0  0  0  3  0  0  0  0  0  0
  -17.4920  -30.7030   23.8530 C   0  0  0  0  0  3  0  0  0  0  0  0
  -16.4460  -29.8650   23.4300 C   0  0  0  0  0  3  0  0  0  0  0  0
  -16.7320  -28.5670   22.9720 C   0  0  0  0  0  3  0  0  0  0  0  0
  -25.8300  -32.7360   24.0160 C   0  0  0  0  0  3  0  0  0  0  0  0
  -25.4810  -34.1430   24.2770 N   0  0  0  0  0  0  0  0  0  0  0  0
  -25.8040  -35.1710   23.4820 C   0  0  0  0  0  0  0  0  0  0  0  0
  -26.4950  -35.0380   22.4680 O   0  0  0  0  0  0  0  0  0  0  0  0
  -24.8730  -34.3170   25.0630 H   0  0  0  0  0  0  0  0  0  0  0  0
  -24.0370  -36.9090   23.0340 C   0  0  0  0  0  1  0  0  0  0  0  0
  -25.2800  -36.5680   23.8720 C   0  0  0  0  0  3  0  0  0  0  0  0
  -27.3820  -37.5470   24.6810 C   0  0  0  0  0  1  0  0  0  0  0  0
  -26.2880  -37.6400   23.7190 N   0  0  0  0  0  0  0  0  0  0  0  0
  -25.8580  -38.5570   23.8130 H   0  0  0  0  0  0  0  0  0  0  0  0
  -26.3040  -32.0360   25.3490 C   0  0  1  0  0  0  0  0  0  0  0  0
  -25.1660  -31.7980   26.3680 C   0  0  0  0  0  1  0  0  0  0  0  0
  -26.9560  -30.6660   25.0500 C   0  0  0  0  0  1  0  0  0  0  0  0
  -27.3890  -32.8970   26.0380 C   0  0  0  0  0  1  0  0  0  0  0  0
  1  5  1  0
  2  1  2  0
  3  4  1  0
  4 51  1  0
  5  4  2  0
  5 16  1  0
  6  2  1  0
  6  3  2  0
  7  6  1  0
  8 16  1  0
  9 14  1  0
 10 11  1  0
 10  9  1  0
 12 11  1  0
 12 21  1  0
 12 13  1  0
 14  8  1  0
 14 13  1  0
 15  8  2  0
 16 17  1  0
 18 19  2  0
 19 38  1  0
 20 19  1  0
 20 23  1  0
 21 22  1  0
 21 18  1  0
 22 20  2  0
 23 24  1  0
 24 25  2  0
 26 29  1  0
 26 25  1  0
 27 26  2  0
 28 27  1  0
 28 23  2  0
 29 30  1  0
 30 31  1  0
 31 32  2  0
 33 32  1  0
 33 37  1  0
 34 33  2  0
 35 30  2  0
 35 34  1  0
 36 35  1  0
 38 39  1  0
 39 42  1  0
 39 41  1  0
 40 38  2  0
 43 44  1  0
 43 18  1  0
 45 43  1  0
 46  3  1  0
 47 49  1  0
 47 46  1  0
 48 46  2  0
 50 47  1  0
 51 52  1  0
 52 55  1  0
 52 53  1  0
 54 52  1  0
 56 55  2  0
 57 56  1  0
 58 69  2  0
 59 57  1  0
 59 64  1  0
 60 68  1  0
 60 70  1  0
 61 63  1  0
 62 68  1  0
 63 64  2  0
 63 62  1  0
 65 59  2  0
 66 65  1  0
 66 61  2  0
 67 61  1  0
 67 60  1  0
 68 58  1  0
 70 72  2  0
 71 70  1  0
 73 71  1  0
 74 83  2  0
 74 79  1  0
 75 71  1  0
 75 79  1  0
 76 75  1  0
 77 78  1  0
 77 76  1  0
 78 74  1  0
 79 80  2  0
 80 81  1  0
 82 81  2  0
 83 82  1  0
 84 58  1  0
 84 85  1  0
 84 94  1  0
 85 88  1  0
 86 90  1  0
 86 85  1  0
 87 86  2  0
 90 89  1  0
 92 93  1  0
 92 90  1  0
 92 91  1  0
 94 97  1  1
 94 95  1  0
 96 94  1  0
M  ISO  4   8 100  16 100  56 101  57 101
M  END
>  <TORSDO>  (44) 
F 21

>  <SCORE>  (44) 
-13.623

>  <name>  (44) 
43

>  <ligand_id>  (44) 
43

>  <original_smiles>  (44) 
[H]c1c([H])c([H])c2c(c1[H])C([H])([H])C([H])([H])C([H])([H])C2([H])N([H])C(=O)C1([H])N(C(=O)C([H])(N([H])C(=O)C([H])(N([H])C([H])([H])[H])C([H])([H])[H])C(C([H])([H])[H])(C([H])([H])[H])C([H])([H])[H])C([H])([H])c2c([H])c(OC([H])([H])C([H])([H])[N+]([H])([H])C([H])([H])c3c(C(=O)N([H])[H])c(F)c([H])c([H])c3N([H])C(=O)N3C([H])([H])C([H])([H])C([H])([H])C([H])(n4nc(-c5c([H])c([H])c(Oc6c([H])c([H])c(F)c([H])c6F)c([H])c5[H])c(C(=O)N([H])[H])c4N([H])[H])C3([H])[H])c([H])c([H])c2C1([H])[H]

>  <smiles>  (44) 
[H]c1c([H])c([H])c2c(c1[H])C([H])([H])C([H])([H])C([H])([H])C2([H])N([H])C(=O)C1([H])N(C(=O)C([H])(N([H])C(=O)C([H])(N([H])C([H])([H])[H])C([H])([H])[H])C(C([H])([H])[H])(C([H])([H])[H])C([H])([H])[H])C([H])([H])c2c([H])c(OC([H])([H])C([H])([H])[N+]([H])([H])C([H])([H])c3c(C(=O)N([H])[H])c(F)c([H])c([H])c3N([H])C(=O)N3C([H])([H])C([H])([H])C([H])([H])C([H])(n4nc(-c5c([H])c([H])c(Oc6c([H])c([H])c(F)c([H])c6F)c([H])c5[H])c(C(=O)N([H])[H])c4N([H])[H])C3([H])[H])c([H])c([H])c2C1([H])[H]

$$$$
44:0:0
     RDKit          3D

 93101  0  0  1  0  0  0  0  0999 V2000
  -30.2510  -21.7230   20.3440 C   0  0  0  0  0  2  0  0  0  0  0  0
  -28.8410  -19.4590   20.3580 C   0  0  0  0  0  3  0  0  0  0  0  0
  -31.1890  -17.9120   20.3160 C   0  0  0  0  0  3  0  0  0  0  0  0
  -30.0750  -20.1560   20.2930 C   0  0  0  0  0  0  0  0  0  0  0  0
  -29.9560  -17.2150   20.4040 C   0  0  0  0  0  0  0  0  0  0  0  0
  -28.7890  -18.0300   20.4120 C   0  0  0  0  0  0  0  0  0  0  0  0
  -31.2410  -19.3370   20.2660 C   0  0  0  0  0  0  0  0  0  0  0  0
  -27.5810  -17.4190   20.4850 F   0  0  0  0  0  0  0  0  0  0  0  0
  -32.4570  -19.9300   20.2080 F   0  0  0  0  0  0  0  0  0  0  0  0
  -30.5810  -14.7000   20.1260 C   0  0  0  0  0  0  0  0  0  0  0  0
  -30.3020  -12.4960   19.0100 C   0  0  0  0  0  2  0  0  0  0  0  0
  -29.3040  -12.6660   17.8430 C   0  0  0  0  0  2  0  0  0  0  0  0
  -27.8500  -12.5100   18.3340 C   0  0  0  0  0  2  0  0  0  0  0  0
  -27.5550  -13.3360   19.6160 C   0  0  0  0  0  3  0  0  0  0  0  0
  -28.6630  -13.1380   20.6750 C   0  0  0  0  0  2  0  0  0  0  0  0
  -29.9470  -13.4870   20.0460 N   0  0  0  0  0  0  0  0  0  0  0  0
  -31.7330  -14.8450   19.7100 O   0  0  0  0  0  0  0  0  0  0  0  0
  -29.7980  -15.7590   20.5060 N   0  0  0  0  0  0  0  0  0  0  0  0
  -28.8760  -15.4810   20.8060 H   0  0  0  0  0  0  0  0  0  0  0  0
  -25.1960  -13.9280   20.4420 C   0  0  0  0  0  0  0  0  0  0  0  0
  -24.1410  -13.1500   20.8370 C   0  0  0  0  0  0  0  0  0  0  0  0
  -24.5990  -11.7990   20.7660 C   0  0  0  0  0  0  0  0  0  0  0  0
  -26.2280  -13.0490   20.1520 N   0  0  0  0  0  0  0  0  0  0  0  0
  -25.8760  -11.7630   20.4060 N   0  0  0  0  0  0  0  0  0  0  0  0
  -23.8770  -10.5350   20.9630 C   0  0  0  0  0  0  0  0  0  0  0  0
  -24.3170   -9.5700   21.8960 C   0  0  0  0  0  3  0  0  0  0  0  0
  -23.5950   -8.3710   22.0800 C   0  0  0  0  0  3  0  0  0  0  0  0
  -22.4170   -8.1290   21.3330 C   0  0  0  0  0  0  0  0  0  0  0  0
  -21.9960   -9.0830   20.3890 C   0  0  0  0  0  3  0  0  0  0  0  0
  -22.7190  -10.2730   20.2030 C   0  0  0  0  0  3  0  0  0  0  0  0
  -21.6660   -6.9830   21.4280 O   0  0  0  0  0  0  0  0  0  0  0  0
  -21.5900   -6.2670   22.5950 C   0  0  0  0  0  0  0  0  0  0  0  0
  -21.0990   -6.8370   23.7890 C   0  0  0  0  0  3  0  0  0  0  0  0
  -20.9740   -6.0450   24.9490 C   0  0  0  0  0  3  0  0  0  0  0  0
  -21.3280   -4.6840   24.9130 C   0  0  0  0  0  0  0  0  0  0  0  0
  -21.8110   -4.1120   23.7230 C   0  0  0  0  0  3  0  0  0  0  0  0
  -21.9390   -4.9010   22.5660 C   0  0  0  0  0  0  0  0  0  0  0  0
  -22.3850   -4.3400   21.4170 F   0  0  0  0  0  0  0  0  0  0  0  0
  -21.2000   -3.9210   26.0240 F   0  0  0  0  0  0  0  0  0  0  0  0
  -22.7580  -13.6260   21.1740 C   0  0  0  0  0  0  0  0  0  0  0  0
  -22.0610  -12.9130   22.0520 N   0  0  0  0  0  0  0  0  0  0  0  0
  -22.3040  -14.6640   20.6940 O   0  0  0  0  0  0  0  0  0  0  0  0
  -22.4410  -12.0730   22.4610 H   0  0  0  0  0  0  0  0  0  0  0  0
  -21.1340  -13.2130   22.3200 H   0  0  0  0  0  0  0  0  0  0  0  0
  -25.3550  -15.3010   20.2890 N   0  0  0  0  0  0  0  0  0  0  0  0
  -24.6030  -15.9520   20.4850 H   0  0  0  0  0  0  0  0  0  0  0  0
  -26.2150  -15.7690   20.0300 H   0  0  0  0  0  0  0  0  0  0  0  0
  -29.2740  -24.0780   20.3060 C   0  0  0  0  0  0  0  0  0  0  0  0
  -29.1440  -22.7200   20.1300 N   0  0  0  0  0  0  0  0  0  0  0  0
  -30.3220  -24.5550   20.7520 O   0  0  0  0  0  0  0  0  0  0  0  0
  -28.2740  -22.3750   19.7470 H   0  0  0  0  0  0  0  0  0  0  0  0
  -28.1050  -25.0640   19.9210 C   0  0  0  0  0  2  0  0  0  0  0  0
  -28.3280  -26.5090   20.1950 O   0  0  0  0  0  0  0  0  0  0  0  0
  -24.5860  -31.8860   23.2470 C   0  0  0  0  0  0  0  0  0  0  0  0
  -27.2070  -27.3580   20.1500 C   0  0  0  0  0  0  0  0  0  0  0  0
  -23.3860  -30.4990   21.5960 C   0  0  0  0  0  3  0  0  0  0  0  0
  -24.8370  -28.9670   20.1580 C   0  0  0  0  0  0  0  0  0  0  0  0
  -25.9250  -30.8240   21.4170 C   0  0  0  0  0  2  0  0  0  0  0  0
  -26.0080  -29.4520   20.7570 C   0  0  0  0  0  0  0  0  0  0  0  0
  -27.1950  -28.6600   20.7440 C   0  0  0  0  0  3  0  0  0  0  0  0
  -26.0100  -26.9300   19.5290 C   0  0  0  0  0  3  0  0  0  0  0  0
  -24.8410  -27.7110   19.5370 C   0  0  0  0  0  3  0  0  0  0  0  0
  -23.6000  -29.8390   20.2110 C   0  0  0  0  0  2  0  0  0  0  0  0
  -24.6510  -31.0880   22.1430 N   0  0  0  0  0  0  0  0  0  0  0  0
  -23.5020  -32.1560   23.7830 O   0  0  0  0  0  0  0  0  0  0  0  0
  -22.7250  -29.4720   22.5470 C   0  0  0  0  0  0  0  0  0  0  0  0
  -21.3980  -29.2940   22.4200 N   0  0  0  0  0  0  0  0  0  0  0  0
  -23.4040  -28.8400   23.3610 O   0  0  0  0  0  0  0  0  0  0  0  0
  -20.9080  -29.8570   21.7380 H   0  0  0  0  0  0  0  0  0  0  0  0
  -18.0190  -28.1060   22.9230 C   0  0  0  0  0  0  0  0  0  0  0  0
  -20.5810  -28.3510   23.1830 C   0  0  0  0  0  3  0  0  0  0  0  0
  -20.6720  -26.9250   22.5910 C   0  0  0  0  0  2  0  0  0  0  0  0
  -19.5640  -26.6190   21.5790 C   0  0  0  0  0  2  0  0  0  0  0  0
  -18.1860  -26.7640   22.2310 C   0  0  0  0  0  2  0  0  0  0  0  0
  -19.1440  -28.8580   23.3560 C   0  0  0  0  0  0  0  0  0  0  0  0
  -18.9330  -30.1160   23.9620 C   0  0  0  0  0  3  0  0  0  0  0  0
  -17.6310  -30.6210   24.1400 C   0  0  0  0  0  3  0  0  0  0  0  0
  -16.5200  -29.8650   23.7240 C   0  0  0  0  0  3  0  0  0  0  0  0
  -16.7160  -28.6100   23.1210 C   0  0  0  0  0  3  0  0  0  0  0  0
  -25.8670  -32.5160   23.8730 C   0  0  0  0  0  3  0  0  0  0  0  0
  -26.3770  -31.7450   25.1520 C   0  0  1  0  0  0  0  0  0  0  0  0
  -25.2780  -31.5070   26.2130 C   0  0  0  0  0  1  0  0  0  0  0  0
  -26.9620  -30.3670   24.7620 C   0  0  0  0  0  1  0  0  0  0  0  0
  -27.5220  -32.5390   25.8210 C   0  0  0  0  0  1  0  0  0  0  0  0
  -25.5580  -33.9160   24.2040 N   0  0  0  0  0  0  0  0  0  0  0  0
  -25.8690  -34.9670   23.4330 C   0  0  0  0  0  0  0  0  0  0  0  0
  -26.5170  -34.8610   22.3880 O   0  0  0  0  0  0  0  0  0  0  0  0
  -24.9810  -34.0720   25.0170 H   0  0  0  0  0  0  0  0  0  0  0  0
  -24.1190  -36.7440   23.1180 C   0  0  0  0  0  1  0  0  0  0  0  0
  -25.3860  -36.3550   23.8940 C   0  0  0  0  0  3  0  0  0  0  0  0
  -27.5340  -37.2670   24.6620 C   0  0  0  0  0  1  0  0  0  0  0  0
  -26.4080  -37.4150   23.7430 N   0  0  0  0  0  0  0  0  0  0  0  0
  -25.9970  -38.3320   23.8900 H   0  0  0  0  0  0  0  0  0  0  0  0
  2  6  1  0
  3  5  1  0
  4  1  1  0
  4  2  2  0
  5  6  2  0
  5 18  1  0
  6  8  1  0
  7  4  1  0
  7  3  2  0
  9  7  1  0
 10 18  1  0
 11 16  1  0
 12 13  1  0
 12 11  1  0
 14 13  1  0
 14 23  1  0
 14 15  1  0
 16 10  1  0
 16 15  1  0
 17 10  2  0
 18 19  1  0
 20 21  2  0
 21 40  1  0
 22 21  1  0
 22 25  1  0
 23 24  1  0
 23 20  1  0
 24 22  2  0
 25 26  1  0
 26 27  2  0
 28 31  1  0
 28 27  1  0
 29 28  2  0
 30 29  1  0
 30 25  2  0
 31 32  1  0
 32 33  1  0
 33 34  2  0
 35 34  1  0
 35 39  1  0
 36 35  2  0
 37 32  2  0
 37 36  1  0
 38 37  1  0
 40 41  1  0
 41 44  1  0
 41 43  1  0
 42 40  2  0
 45 20  1  0
 45 46  1  0
 47 45  1  0
 48 50  2  0
 49 48  1  0
 49  1  1  0
 51 49  1  0
 52 53  1  0
 52 48  1  0
 54 65  2  0
 55 53  1  0
 55 60  1  0
 56 64  1  0
 56 66  1  0
 57 63  1  0
 57 59  1  0
 58 64  1  0
 59 58  1  0
 60 59  2  0
 61 62  1  0
 61 55  2  0
 62 57  2  0
 63 56  1  0
 64 54  1  0
 66 68  2  0
 67 66  1  0
 69 67  1  0
 70 79  2  0
 70 75  1  0
 71 67  1  0
 71 75  1  0
 72 71  1  0
 73 74  1  0
 73 72  1  0
 74 70  1  0
 75 76  2  0
 76 77  1  0
 78 77  2  0
 79 78  1  0
 80 54  1  0
 80 85  1  0
 80 81  1  0
 81 84  1  1
 81 82  1  0
 83 81  1  0
 85 88  1  0
 86 90  1  0
 86 85  1  0
 87 86  2  0
 90 89  1  0
 92 93  1  0
 92 90  1  0
 92 91  1  0
M  ISO  4  10 100  18 100  52 101  53 101
M  END
>  <TORSDO>  (45) 
F 19

>  <SCORE>  (45) 
-14.523

>  <name>  (45) 
44

>  <ligand_id>  (45) 
44

>  <original_smiles>  (45) 
[H]c1c([H])c([H])c2c(c1[H])C([H])([H])C([H])([H])C([H])([H])C2([H])N([H])C(=O)C1([H])N(C(=O)C([H])(N([H])C(=O)C([H])(N([H])C([H])([H])[H])C([H])([H])[H])C(C([H])([H])[H])(C([H])([H])[H])C([H])([H])[H])C([H])([H])c2c([H])c(OC([H])([H])C(=O)N([H])C([H])([H])c3c([H])c(F)c(N([H])C(=O)N4C([H])([H])C([H])([H])C([H])([H])C([H])(n5nc(-c6c([H])c([H])c(Oc7c([H])c([H])c(F)c([H])c7F)c([H])c6[H])c(C(=O)N([H])[H])c5N([H])[H])C4([H])[H])c([H])c3F)c([H])c([H])c2C1([H])[H]

>  <smiles>  (45) 
[H]c1c([H])c([H])c2c(c1[H])C([H])([H])C([H])([H])C([H])([H])C2([H])N([H])C(=O)C1([H])N(C(=O)C([H])(N([H])C(=O)C([H])(N([H])C([H])([H])[H])C([H])([H])[H])C(C([H])([H])[H])(C([H])([H])[H])C([H])([H])[H])C([H])([H])c2c([H])c(OC([H])([H])C(=O)N([H])C([H])([H])c3c([H])c(F)c(N([H])C(=O)N4C([H])([H])C([H])([H])C([H])([H])C([H])(n5nc(-c6c([H])c([H])c(Oc7c([H])c([H])c(F)c([H])c7F)c([H])c6[H])c(C(=O)N([H])[H])c5N([H])[H])C4([H])[H])c([H])c3F)c([H])c([H])c2C1([H])[H]

$$$$
45:0:0
     RDKit          3D

 94102  0  0  1  0  0  0  0  0999 V2000
  -29.6340  -20.6170   20.9470 C   0  0  0  0  0  2  0  0  0  0  0  0
  -29.0410  -21.9940   20.4750 C   0  0  0  0  0  2  0  0  0  0  0  0
  -29.5630  -23.1590   21.2520 N   0  0  0  0  0  4  0  0  0  0  0  0
  -30.5170  -22.9340   21.4930 H   0  0  0  0  0  0  0  0  0  0  0  0
  -29.0640  -23.2300   22.1250 H   0  0  0  0  0  0  0  0  0  0  0  0
  -29.6320  -24.5060   20.5910 C   0  0  0  0  0  2  0  0  0  0  0  0
  -28.2810  -25.2340   20.3500 C   0  0  0  0  0  2  0  0  0  0  0  0
  -28.4340  -26.6780   20.3270 O   0  0  0  0  0  0  0  0  0  0  0  0
  -24.6190  -31.9500   23.2910 C   0  0  0  0  0  0  0  0  0  0  0  0
  -27.2720  -27.4340   20.2910 C   0  0  0  0  0  0  0  0  0  0  0  0
  -23.4250  -30.5280   21.6590 C   0  0  0  0  0  3  0  0  0  0  0  0
  -24.8880  -28.9720   20.2610 C   0  0  0  0  0  0  0  0  0  0  0  0
  -25.9580  -30.8740   21.4780 C   0  0  0  0  0  2  0  0  0  0  0  0
  -26.0450  -29.4940   20.8540 C   0  0  0  0  0  0  0  0  0  0  0  0
  -27.2410  -28.7320   20.8630 C   0  0  0  0  0  3  0  0  0  0  0  0
  -26.0930  -26.9420   19.6870 C   0  0  0  0  0  3  0  0  0  0  0  0
  -24.9090  -27.6980   19.6730 C   0  0  0  0  0  3  0  0  0  0  0  0
  -23.6450  -29.8330   20.2890 C   0  0  0  0  0  2  0  0  0  0  0  0
  -24.6860  -31.1340   22.2010 N   0  0  0  0  0  0  0  0  0  0  0  0
  -23.5320  -32.2300   23.8160 O   0  0  0  0  0  0  0  0  0  0  0  0
  -22.7650  -29.5190   22.6280 C   0  0  0  0  0  0  0  0  0  0  0  0
  -21.4410  -29.3350   22.4890 N   0  0  0  0  0  0  0  0  0  0  0  0
  -23.4400  -28.9060   23.4580 O   0  0  0  0  0  0  0  0  0  0  0  0
  -20.9570  -29.8810   21.7900 H   0  0  0  0  0  0  0  0  0  0  0  0
  -18.0640  -28.1400   22.9650 C   0  0  0  0  0  0  0  0  0  0  0  0
  -20.6180  -28.4070   23.2630 C   0  0  0  0  0  3  0  0  0  0  0  0
  -20.7290  -26.9680   22.7070 C   0  0  0  0  0  2  0  0  0  0  0  0
  -19.6390  -26.6290   21.6850 C   0  0  0  0  0  2  0  0  0  0  0  0
  -18.2490  -26.7820   22.3110 C   0  0  0  0  0  2  0  0  0  0  0  0
  -19.1760  -28.9100   23.3960 C   0  0  0  0  0  0  0  0  0  0  0  0
  -18.9480  -30.1820   23.9640 C   0  0  0  0  0  3  0  0  0  0  0  0
  -17.6420  -30.6840   24.1070 C   0  0  0  0  0  3  0  0  0  0  0  0
  -16.5430  -29.9110   23.6940 C   0  0  0  0  0  3  0  0  0  0  0  0
  -16.7550  -28.6400   23.1300 C   0  0  0  0  0  3  0  0  0  0  0  0
  -25.9000  -32.5890   23.9130 C   0  0  0  0  0  3  0  0  0  0  0  0
  -25.5890  -33.9910   24.2290 N   0  0  0  0  0  0  0  0  0  0  0  0
  -25.9140  -35.0340   23.4560 C   0  0  0  0  0  0  0  0  0  0  0  0
  -26.5790  -34.9210   22.4220 O   0  0  0  0  0  0  0  0  0  0  0  0
  -25.0040  -34.1550   25.0350 H   0  0  0  0  0  0  0  0  0  0  0  0
  -24.1720  -36.8100   23.0860 C   0  0  0  0  0  1  0  0  0  0  0  0
  -25.4210  -36.4260   23.8960 C   0  0  0  0  0  3  0  0  0  0  0  0
  -27.5580  -37.3320   24.6940 C   0  0  0  0  0  1  0  0  0  0  0  0
  -26.4460  -37.4830   23.7590 N   0  0  0  0  0  0  0  0  0  0  0  0
  -26.0360  -38.4040   23.8960 H   0  0  0  0  0  0  0  0  0  0  0  0
  -26.4120  -31.8320   25.1990 C   0  0  1  0  0  0  0  0  0  0  0  0
  -25.3150  -31.6010   26.2650 C   0  0  0  0  0  1  0  0  0  0  0  0
  -27.0010  -30.4550   24.8190 C   0  0  0  0  0  1  0  0  0  0  0  0
  -27.5560  -32.6370   25.8600 C   0  0  0  0  0  1  0  0  0  0  0  0
  -29.0650  -19.3000   20.2960 C   0  0  0  0  0  3  0  0  0  0  0  0
  -30.6540  -14.5460   20.1290 C   0  0  0  0  0  0  0  0  0  0  0  0
  -30.2620  -12.4280   18.9150 C   0  0  0  0  0  2  0  0  0  0  0  0
  -29.2490  -12.6570   17.7750 C   0  0  0  0  0  2  0  0  0  0  0  0
  -27.8030  -12.5160   18.2890 C   0  0  0  0  0  2  0  0  0  0  0  0
  -27.5460  -13.3220   19.5920 C   0  0  0  0  0  3  0  0  0  0  0  0
  -28.6650  -13.0700   20.6260 C   0  0  0  0  0  2  0  0  0  0  0  0
  -29.9510  -13.3840   19.9880 N   0  0  0  0  0  0  0  0  0  0  0  0
  -31.7430  -14.7310   19.5780 O   0  0  0  0  0  0  0  0  0  0  0  0
  -30.1420  -17.6280   22.0590 C   0  0  0  0  0  2  0  0  0  0  0  0
  -30.6130  -16.1610   21.9890 C   0  0  0  0  0  2  0  0  0  0  0  0
  -29.4070  -16.6720   20.0240 C   0  0  0  0  0  2  0  0  0  0  0  0
  -29.9320  -18.0150   20.5980 C   0  0  0  0  0  3  0  0  0  0  0  0
  -30.0240  -15.5620   20.7820 N   0  0  0  0  0  0  0  0  0  0  0  0
  -25.1990  -13.9260   20.4610 C   0  0  0  0  0  0  0  0  0  0  0  0
  -24.1500  -13.1510   20.8770 C   0  0  0  0  0  0  0  0  0  0  0  0
  -24.6000  -11.7980   20.7890 C   0  0  0  0  0  0  0  0  0  0  0  0
  -26.2230  -13.0450   20.1460 N   0  0  0  0  0  0  0  0  0  0  0  0
  -25.8680  -11.7600   20.4010 N   0  0  0  0  0  0  0  0  0  0  0  0
  -23.8790  -10.5350   20.9940 C   0  0  0  0  0  0  0  0  0  0  0  0
  -24.3490   -9.5520   21.8930 C   0  0  0  0  0  3  0  0  0  0  0  0
  -23.6280   -8.3550   22.0870 C   0  0  0  0  0  3  0  0  0  0  0  0
  -22.4210   -8.1300   21.3830 C   0  0  0  0  0  0  0  0  0  0  0  0
  -21.9690   -9.1020   20.4710 C   0  0  0  0  0  3  0  0  0  0  0  0
  -22.6920  -10.2920   20.2730 C   0  0  0  0  0  3  0  0  0  0  0  0
  -21.6670   -6.9870   21.4890 O   0  0  0  0  0  0  0  0  0  0  0  0
  -21.6460   -6.2420   22.6400 C   0  0  0  0  0  0  0  0  0  0  0  0
  -21.2680   -6.8000   23.8810 C   0  0  0  0  0  3  0  0  0  0  0  0
  -21.1940   -5.9830   25.0250 C   0  0  0  0  0  3  0  0  0  0  0  0
  -21.4860   -4.6080   24.9330 C   0  0  0  0  0  0  0  0  0  0  0  0
  -21.8550   -4.0490   23.6970 C   0  0  0  0  0  3  0  0  0  0  0  0
  -21.9320   -4.8650   22.5520 C   0  0  0  0  0  0  0  0  0  0  0  0
  -22.2670   -4.3170   21.3600 F   0  0  0  0  0  0  0  0  0  0  0  0
  -21.4060   -3.8210   26.0300 F   0  0  0  0  0  0  0  0  0  0  0  0
  -22.7720  -13.6290   21.2410 C   0  0  0  0  0  0  0  0  0  0  0  0
  -22.0930  -12.9250   22.1390 N   0  0  0  0  0  0  0  0  0  0  0  0
  -22.3080  -14.6630   20.7630 O   0  0  0  0  0  0  0  0  0  0  0  0
  -22.4800  -12.0890   22.5520 H   0  0  0  0  0  0  0  0  0  0  0  0
  -21.1730  -13.2340   22.4220 H   0  0  0  0  0  0  0  0  0  0  0  0
  -25.3630  -15.3000   20.3020 N   0  0  0  0  0  0  0  0  0  0  0  0
  -24.6170  -15.9640   20.4740 H   0  0  0  0  0  0  0  0  0  0  0  0
  -26.2000  -15.7320   19.9370 H   0  0  0  0  0  0  0  0  0  0  0  0
  -28.9160  -19.4440   18.8310 N   0  0  0  0  0  4  0  0  0  0  0  0
  -29.7990  -19.6160   18.3830 H   0  0  0  0  0  0  0  0  0  0  0  0
  -28.2770  -20.1820   18.5870 H   0  0  0  0  0  0  0  0  0  0  0  0
  -28.5320  -18.6000   18.4430 H   0  0  0  0  0  0  0  0  0  0  0  0
  2  1  1  0
  2  3  1  0
  3  4  1  0
  3  5  1  0
  6  3  1  0
  7  6  1  0
  8  7  1  0
  9 20  2  0
 10  8  1  0
 10 15  1  0
 11 19  1  0
 11 21  1  0
 12 18  1  0
 12 14  1  0
 13 19  1  0
 14 15  2  0
 14 13  1  0
 16 10  2  0
 17 16  1  0
 17 12  2  0
 18 11  1  0
 19  9  1  0
 21 23  2  0
 22 21  1  0
 24 22  1  0
 25 34  2  0
 25 30  1  0
 26 22  1  0
 26 30  1  0
 27 26  1  0
 28 29  1  0
 28 27  1  0
 29 25  1  0
 30 31  2  0
 31 32  1  0
 33 32  2  0
 34 33  1  0
 35  9  1  0
 35 36  1  0
 35 45  1  0
 36 39  1  0
 37 41  1  0
 37 36  1  0
 38 37  2  0
 41 40  1  0
 43 41  1  0
 43 44  1  0
 43 42  1  0
 45 48  1  1
 45 46  1  0
 47 45  1  0
 49  1  1  0
 50 62  1  0
 51 56  1  0
 52 53  1  0
 52 51  1  0
 54 53  1  0
 54 66  1  0
 54 55  1  0
 56 50  1  0
 56 55  1  0
 57 50  2  0
 59 58  1  0
 60 61  1  0
 60 62  1  0
 61 49  1  0
 61 58  1  0
 62 59  1  0
 63 64  2  0
 64 83  1  0
 65 64  1  0
 65 68  1  0
 66 67  1  0
 66 63  1  0
 67 65  2  0
 68 69  1  0
 69 70  2  0
 71 74  1  0
 71 70  1  0
 72 71  2  0
 73 72  1  0
 73 68  2  0
 74 75  1  0
 75 76  1  0
 76 77  2  0
 78 77  1  0
 78 82  1  0
 79 78  2  0
 80 75  2  0
 80 79  1  0
 81 80  1  0
 83 84  1  0
 84 87  1  0
 84 86  1  0
 85 83  2  0
 88 63  1  0
 88 89  1  0
 90 88  1  0
 91 49  1  0
 92 91  1  0
 93 91  1  0
 94 91  1  0
M  ISO  4   7 101   8 101  50 100  62 100
M  END
>  <TORSDO>  (46) 
F 22

>  <SCORE>  (46) 
-13.205

>  <name>  (46) 
45

>  <ligand_id>  (46) 
45

>  <original_smiles>  (46) 
[H]c1c([H])c([H])c2c(c1[H])C([H])([H])C([H])([H])C([H])([H])C2([H])N([H])C(=O)C1([H])N(C(=O)C([H])(N([H])C(=O)C([H])(N([H])C([H])([H])[H])C([H])([H])[H])C(C([H])([H])[H])(C([H])([H])[H])C([H])([H])[H])C([H])([H])c2c([H])c(OC([H])([H])C([H])([H])[N+]([H])([H])C([H])([H])C([H])([H])C([H])(C3([H])C([H])([H])N(C(=O)N4C([H])([H])C([H])([H])C([H])([H])C([H])(n5nc(-c6c([H])c([H])c(Oc7c([H])c([H])c(F)c([H])c7F)c([H])c6[H])c(C(=O)N([H])[H])c5N([H])[H])C4([H])[H])C([H])([H])C3([H])[H])[N+]([H])([H])[H])c([H])c([H])c2C1([H])[H]

>  <smiles>  (46) 
[H]c1c([H])c([H])c2c(c1[H])C([H])([H])C([H])([H])C([H])([H])C2([H])N([H])C(=O)C1([H])N(C(=O)C([H])(N([H])C(=O)C([H])(N([H])C([H])([H])[H])C([H])([H])[H])C(C([H])([H])[H])(C([H])([H])[H])C([H])([H])[H])C([H])([H])c2c([H])c(OC([H])([H])C([H])([H])[N+]([H])([H])C([H])([H])C([H])([H])C([H])(C3([H])C([H])([H])N(C(=O)N4C([H])([H])C([H])([H])C([H])([H])C([H])(n5nc(-c6c([H])c([H])c(Oc7c([H])c([H])c(F)c([H])c7F)c([H])c6[H])c(C(=O)N([H])[H])c5N([H])[H])C4([H])[H])C([H])([H])C3([H])[H])[N+]([H])([H])[H])c([H])c([H])c2C1([H])[H]

$$$$
46:0:0
     RDKit          3D

 93102  0  0  1  0  0  0  0  0999 V2000
  -29.2420  -19.0640   21.9730 C   0  0  0  0  0  2  0  0  0  0  0  0
  -28.5390  -17.9690   19.8710 C   0  0  0  0  0  2  0  0  0  0  0  0
  -28.3620  -20.5940   20.1750 C   0  0  0  0  0  2  0  0  0  0  0  0
  -30.7710  -20.0480   20.2610 C   0  0  0  0  0  2  0  0  0  0  0  0
  -28.2110  -19.1780   20.8280 C   0  0  0  0  0  3  0  0  0  0  0  0
  -30.4820  -18.6860   21.1230 C   0  0  0  0  0  3  0  0  0  0  0  0
  -29.8910  -17.4030   20.3560 C   0  0  0  0  0  3  0  0  0  0  0  0
  -29.7220  -21.1760   20.3880 N   0  0  1  0  0  4  0  0  0  0  0  0
  -29.7600  -21.4150   21.3690 H   0  0  0  0  0  0  0  0  0  0  0  0
  -30.9610  -14.8610   19.9650 C   0  0  0  0  0  0  0  0  0  0  0  0
  -30.7260  -12.5950   18.9180 C   0  0  0  0  0  2  0  0  0  0  0  0
  -29.7010  -12.7080   17.7660 C   0  0  0  0  0  2  0  0  0  0  0  0
  -28.2570  -12.5580   18.2870 C   0  0  0  0  0  2  0  0  0  0  0  0
  -27.9820  -13.4180   19.5480 C   0  0  0  0  0  3  0  0  0  0  0  0
  -29.1100  -13.2470   20.5930 C   0  0  0  0  0  2  0  0  0  0  0  0
  -30.3790  -13.6120   19.9360 N   0  0  0  0  0  0  0  0  0  0  0  0
  -32.0880  -15.0500   19.4980 O   0  0  0  0  0  0  0  0  0  0  0  0
  -30.1140  -15.8790   20.3680 N   0  0  0  0  0  0  0  0  0  0  0  0
  -29.2910  -15.4290   20.7440 H   0  0  0  0  0  0  0  0  0  0  0  0
  -25.6610  -14.0500   20.4480 C   0  0  0  0  0  0  0  0  0  0  0  0
  -24.5990  -13.2960   20.8640 C   0  0  0  0  0  0  0  0  0  0  0  0
  -25.0150  -11.9350   20.7430 C   0  0  0  0  0  0  0  0  0  0  0  0
  -26.6620  -13.1520   20.1120 N   0  0  0  0  0  0  0  0  0  0  0  0
  -26.2790  -11.8710   20.3440 N   0  0  0  0  0  0  0  0  0  0  0  0
  -24.2610  -10.6890   20.9280 C   0  0  0  0  0  0  0  0  0  0  0  0
  -24.6740   -9.7040   21.8530 C   0  0  0  0  0  3  0  0  0  0  0  0
  -23.9200   -8.5250   22.0280 C   0  0  0  0  0  3  0  0  0  0  0  0
  -22.7380   -8.3210   21.2770 C   0  0  0  0  0  0  0  0  0  0  0  0
  -22.3440   -9.2930   20.3410 C   0  0  0  0  0  3  0  0  0  0  0  0
  -23.0990  -10.4650   20.1650 C   0  0  0  0  0  3  0  0  0  0  0  0
  -21.9560   -7.1940   21.3600 O   0  0  0  0  0  0  0  0  0  0  0  0
  -21.8180   -6.5010   22.5360 C   0  0  0  0  0  0  0  0  0  0  0  0
  -21.3070   -7.1080   23.7040 C   0  0  0  0  0  3  0  0  0  0  0  0
  -21.1180   -6.3430   24.8710 C   0  0  0  0  0  3  0  0  0  0  0  0
  -21.4280   -4.9700   24.8710 C   0  0  0  0  0  0  0  0  0  0  0  0
  -21.9320   -4.3610   23.7080 C   0  0  0  0  0  3  0  0  0  0  0  0
  -22.1230   -5.1240   22.5430 C   0  0  0  0  0  0  0  0  0  0  0  0
  -22.5890   -4.5310   21.4180 F   0  0  0  0  0  0  0  0  0  0  0  0
  -21.2390   -4.2300   25.9890 F   0  0  0  0  0  0  0  0  0  0  0  0
  -23.2410  -13.8040   21.2510 C   0  0  0  0  0  0  0  0  0  0  0  0
  -22.5630  -13.1110   22.1600 N   0  0  0  0  0  0  0  0  0  0  0  0
  -22.7950  -14.8530   20.7880 O   0  0  0  0  0  0  0  0  0  0  0  0
  -22.9390  -12.2640   22.5610 H   0  0  0  0  0  0  0  0  0  0  0  0
  -21.6540  -13.4320   22.4620 H   0  0  0  0  0  0  0  0  0  0  0  0
  -25.8430  -15.4200   20.3040 N   0  0  0  0  0  0  0  0  0  0  0  0
  -25.0800  -16.0690   20.4570 H   0  0  0  0  0  0  0  0  0  0  0  0
  -26.6350  -15.8440   19.8420 H   0  0  0  0  0  0  0  0  0  0  0  0
  -29.9320  -22.5370   19.6890 C   0  0  0  0  0  2  0  0  0  0  0  0
  -29.3040  -23.8960   20.3450 C   0  0  0  0  0  3  0  0  0  0  0  0
  -30.1310  -24.2210   21.4510 O   0  0  0  0  0  0  0  0  0  0  0  0
  -29.8990  -25.1100   21.7100 H   0  0  0  0  0  0  0  0  0  0  0  0
  -29.2210  -25.2560   19.4600 C   0  0  0  0  0  2  0  0  0  0  0  0
  -28.9520  -26.6020   20.0750 O   0  0  0  0  0  0  0  0  0  0  0  0
  -24.7720  -31.6960   23.0580 C   0  0  0  0  0  0  0  0  0  0  0  0
  -27.7620  -27.3580   19.9680 C   0  0  0  0  0  0  0  0  0  0  0  0
  -23.7080  -30.2790   21.3390 C   0  0  0  0  0  3  0  0  0  0  0  0
  -25.2950  -28.8450   19.9220 C   0  0  0  0  0  0  0  0  0  0  0  0
  -26.2300  -30.7370   21.2560 C   0  0  0  0  0  2  0  0  0  0  0  0
  -26.4110  -29.3810   20.5740 C   0  0  0  0  0  0  0  0  0  0  0  0
  -27.6400  -28.6500   20.5860 C   0  0  0  0  0  3  0  0  0  0  0  0
  -26.6130  -26.8730   19.3020 C   0  0  0  0  0  3  0  0  0  0  0  0
  -25.4000  -27.5980   19.2810 C   0  0  0  0  0  3  0  0  0  0  0  0
  -24.0070  -29.6470   19.9520 C   0  0  0  0  0  2  0  0  0  0  0  0
  -24.9190  -30.9210   21.9440 N   0  0  0  0  0  0  0  0  0  0  0  0
  -23.6570  -31.8970   23.5620 O   0  0  0  0  0  0  0  0  0  0  0  0
  -23.0690  -29.2040   22.2510 C   0  0  0  0  0  0  0  0  0  0  0  0
  -21.7450  -29.0100   22.1230 N   0  0  0  0  0  0  0  0  0  0  0  0
  -23.7630  -28.5500   23.0330 O   0  0  0  0  0  0  0  0  0  0  0  0
  -21.2390  -29.5930   21.4720 H   0  0  0  0  0  0  0  0  0  0  0  0
  -18.3910  -27.7540   22.6360 C   0  0  0  0  0  0  0  0  0  0  0  0
  -20.9540  -28.0140   22.8480 C   0  0  0  0  0  3  0  0  0  0  0  0
  -21.0430  -26.6260   22.1710 C   0  0  0  0  0  2  0  0  0  0  0  0
  -19.9130  -26.3660   21.1700 C   0  0  0  0  0  2  0  0  0  0  0  0
  -18.5520  -26.4570   21.8630 C   0  0  0  0  0  2  0  0  0  0  0  0
  -19.5180  -28.4920   23.0860 C   0  0  0  0  0  0  0  0  0  0  0  0
  -19.3110  -29.7080   23.7730 C   0  0  0  0  0  3  0  0  0  0  0  0
  -18.0090  -30.1880   24.0100 C   0  0  0  0  0  3  0  0  0  0  0  0
  -16.8960  -29.4480   23.5730 C   0  0  0  0  0  3  0  0  0  0  0  0
  -17.0900  -28.2320   22.8930 C   0  0  0  0  0  3  0  0  0  0  0  0
  -25.9930  -32.3840   23.7450 C   0  0  0  0  0  3  0  0  0  0  0  0
  -26.5030  -31.6140   25.0250 C   0  0  1  0  0  0  0  0  0  0  0  0
  -25.3860  -31.2960   26.0470 C   0  0  0  0  0  1  0  0  0  0  0  0
  -27.1730  -30.2780   24.6300 C   0  0  0  0  0  1  0  0  0  0  0  0
  -27.5870  -32.4540   25.7440 C   0  0  0  0  0  1  0  0  0  0  0  0
  -25.5940  -33.7550   24.0940 N   0  0  0  0  0  0  0  0  0  0  0  0
  -25.8940  -34.8420   23.3700 C   0  0  0  0  0  0  0  0  0  0  0  0
  -26.6020  -34.7990   22.3600 O   0  0  0  0  0  0  0  0  0  0  0  0
  -24.9670  -33.8600   24.8780 H   0  0  0  0  0  0  0  0  0  0  0  0
  -24.0770  -36.5430   23.0010 C   0  0  0  0  0  1  0  0  0  0  0  0
  -25.3170  -36.1930   23.8400 C   0  0  0  0  0  3  0  0  0  0  0  0
  -27.3700  -37.1820   24.7530 C   0  0  0  0  0  1  0  0  0  0  0  0
  -26.2910  -37.3030   23.7770 N   0  0  0  0  0  0  0  0  0  0  0  0
  -25.8290  -38.1970   23.9240 H   0  0  0  0  0  0  0  0  0  0  0  0
  2  7  1  0
  3  8  1  0
  3  5  1  0
  4  8  1  0
  5  2  1  0
  5  1  1  0
  6  4  1  0
  6  1  1  0
  7 18  1  0
  7  6  1  0
  8  9  1  1
 10 18  1  0
 11 16  1  0
 12 13  1  0
 12 11  1  0
 14 13  1  0
 14 23  1  0
 14 15  1  0
 16 10  1  0
 16 15  1  0
 17 10  2  0
 18 19  1  0
 20 21  2  0
 21 40  1  0
 22 21  1  0
 22 25  1  0
 23 24  1  0
 23 20  1  0
 24 22  2  0
 25 26  1  0
 26 27  2  0
 28 31  1  0
 28 27  1  0
 29 28  2  0
 30 29  1  0
 30 25  2  0
 31 32  1  0
 32 37  2  0
 32 33  1  0
 33 34  2  0
 35 34  1  0
 35 39  1  0
 36 35  2  0
 37 36  1  0
 38 37  1  0
 40 41  1  0
 41 44  1  0
 41 43  1  0
 42 40  2  0
 45 20  1  0
 45 46  1  0
 47 45  1  0
 48 49  1  0
 48  8  1  0
 49 52  1  0
 49 50  1  0
 50 51  1  0
 52 53  1  0
 54 65  2  0
 55 53  1  0
 55 60  1  0
 56 64  1  0
 56 66  1  0
 57 63  1  0
 57 59  1  0
 58 64  1  0
 59 60  2  0
 59 58  1  0
 61 55  2  0
 62 61  1  0
 62 57  2  0
 63 56  1  0
 64 54  1  0
 66 68  2  0
 67 66  1  0
 69 67  1  0
 70 79  2  0
 70 75  1  0
 71 67  1  0
 71 75  1  0
 72 71  1  0
 73 74  1  0
 73 72  1  0
 74 70  1  0
 75 76  2  0
 76 77  1  0
 78 77  2  0
 79 78  1  0
 80 54  1  0
 80 85  1  0
 80 81  1  0
 81 84  1  1
 81 82  1  0
 83 81  1  0
 85 88  1  0
 86 90  1  0
 86 85  1  0
 87 86  2  0
 90 89  1  0
 92 90  1  0
 92 93  1  0
 92 91  1  0
M  ISO  4  10 100  18 100  52 101  53 101
M  END
>  <TORSDO>  (47) 
F 20

>  <SCORE>  (47) 
-11.705

>  <name>  (47) 
46

>  <ligand_id>  (47) 
46

>  <original_smiles>  (47) 
[H]OC([H])(C([H])([H])Oc1c([H])c([H])c2c(c1[H])C([H])([H])N(C(=O)C([H])(N([H])C(=O)C([H])(N([H])C([H])([H])[H])C([H])([H])[H])C(C([H])([H])[H])(C([H])([H])[H])C([H])([H])[H])C([H])(C(=O)N([H])C1([H])c3c([H])c([H])c([H])c([H])c3C([H])([H])C([H])([H])C1([H])[H])C2([H])[H])C([H])([H])[N+]1([H])C([H])([H])C2([H])C([H])([H])C([H])(N([H])C(=O)N3C([H])([H])C([H])([H])C([H])([H])C([H])(n4nc(-c5c([H])c([H])c(Oc6c([H])c([H])c(F)c([H])c6F)c([H])c5[H])c(C(=O)N([H])[H])c4N([H])[H])C3([H])[H])C([H])(C2([H])[H])C1([H])[H]

>  <smiles>  (47) 
[H]OC([H])(C([H])([H])Oc1c([H])c([H])c2c(c1[H])C([H])([H])N(C(=O)C([H])(N([H])C(=O)C([H])(N([H])C([H])([H])[H])C([H])([H])[H])C(C([H])([H])[H])(C([H])([H])[H])C([H])([H])[H])C([H])(C(=O)N([H])C1([H])c3c([H])c([H])c([H])c([H])c3C([H])([H])C([H])([H])C1([H])[H])C2([H])[H])C([H])([H])[N+]1([H])C([H])([H])C2([H])C([H])([H])C([H])(N([H])C(=O)N3C([H])([H])C([H])([H])C([H])([H])C([H])(n4nc(-c5c([H])c([H])c(Oc6c([H])c([H])c(F)c([H])c6F)c([H])c5[H])c(C(=O)N([H])[H])c4N([H])[H])C3([H])[H])C([H])(C2([H])[H])C1([H])[H]

$$$$
47:0:0
     RDKit          3D

 98107  0  0  1  0  0  0  0  0999 V2000
  -27.5970  -20.3620   21.1220 C   0  0  0  0  0  2  0  0  0  0  0  0
  -28.3300  -20.8680   18.7200 C   0  0  0  0  0  2  0  0  0  0  0  0
  -28.1420  -21.7380   21.5610 C   0  0  0  0  0  2  0  0  0  0  0  0
  -27.7720  -22.2460   19.1380 C   0  0  0  0  0  2  0  0  0  0  0  0
  -28.2550  -19.8060   19.8470 C   0  0  0  0  0  3  0  0  0  0  0  0
  -28.3500  -22.6900   20.4320 N   0  0  1  0  0  4  0  0  0  0  0  0
  -29.3550  -22.7190   20.3090 H   0  0  0  0  0  0  0  0  0  0  0  0
  -29.5880  -17.7200   20.3990 C   0  0  0  0  0  3  0  0  0  0  0  0
  -30.8060  -19.8170   20.1970 C   0  0  0  0  0  3  0  0  0  0  0  0
  -32.0050  -17.7630   20.7440 C   0  0  0  0  0  3  0  0  0  0  0  0
  -29.5830  -19.1080   20.1450 C   0  0  0  0  0  0  0  0  0  0  0  0
  -30.7930  -17.0420   20.6750 C   0  0  0  0  0  0  0  0  0  0  0  0
  -32.0070  -19.1480   20.5000 C   0  0  0  0  0  0  0  0  0  0  0  0
  -33.1700  -19.8430   20.5580 F   0  0  0  0  0  0  0  0  0  0  0  0
  -31.2840  -14.7390   20.0830 C   0  0  0  0  0  0  0  0  0  0  0  0
  -30.9060  -12.5770   18.9640 C   0  0  0  0  0  2  0  0  0  0  0  0
  -29.9240  -12.7730   17.7920 C   0  0  0  0  0  2  0  0  0  0  0  0
  -28.4670  -12.6590   18.2780 C   0  0  0  0  0  2  0  0  0  0  0  0
  -28.1830  -13.5350   19.5280 C   0  0  0  0  0  3  0  0  0  0  0  0
  -29.2710  -13.3130   20.6030 C   0  0  0  0  0  2  0  0  0  0  0  0
  -30.5900  -13.5760   19.9920 N   0  0  0  0  0  0  0  0  0  0  0  0
  -32.3220  -14.9620   19.4510 O   0  0  0  0  0  0  0  0  0  0  0  0
  -30.7390  -15.6480   20.9000 N   0  0  0  0  0  0  0  0  0  0  0  0
  -29.9140  -15.3080   21.3730 H   0  0  0  0  0  0  0  0  0  0  0  0
  -25.8460  -14.1970   20.3870 C   0  0  0  0  0  0  0  0  0  0  0  0
  -24.7690  -13.4470   20.7780 C   0  0  0  0  0  0  0  0  0  0  0  0
  -25.1740  -12.0830   20.6560 C   0  0  0  0  0  0  0  0  0  0  0  0
  -26.8420  -13.2910   20.0580 N   0  0  0  0  0  0  0  0  0  0  0  0
  -26.4430  -12.0110   20.2740 N   0  0  0  0  0  0  0  0  0  0  0  0
  -24.4110  -10.8390   20.8270 C   0  0  0  0  0  0  0  0  0  0  0  0
  -24.8000   -9.8550   21.7610 C   0  0  0  0  0  3  0  0  0  0  0  0
  -24.0390   -8.6760   21.9160 C   0  0  0  0  0  3  0  0  0  0  0  0
  -22.8750   -8.4740   21.1360 C   0  0  0  0  0  0  0  0  0  0  0  0
  -22.5060   -9.4470   20.1910 C   0  0  0  0  0  3  0  0  0  0  0  0
  -23.2660  -10.6170   20.0340 C   0  0  0  0  0  3  0  0  0  0  0  0
  -22.0900   -7.3480   21.2010 O   0  0  0  0  0  0  0  0  0  0  0  0
  -21.9260   -6.6520   22.3710 C   0  0  0  0  0  0  0  0  0  0  0  0
  -21.3670   -7.2470   23.5220 C   0  0  0  0  0  3  0  0  0  0  0  0
  -21.1510   -6.4760   24.6820 C   0  0  0  0  0  3  0  0  0  0  0  0
  -21.4860   -5.1080   24.6910 C   0  0  0  0  0  0  0  0  0  0  0  0
  -22.0390   -4.5120   23.5440 C   0  0  0  0  0  3  0  0  0  0  0  0
  -22.2550   -5.2810   22.3880 C   0  0  0  0  0  0  0  0  0  0  0  0
  -22.7700   -4.6950   21.2800 F   0  0  0  0  0  0  0  0  0  0  0  0
  -21.2720   -4.3660   25.8020 F   0  0  0  0  0  0  0  0  0  0  0  0
  -23.4070  -13.9620   21.1520 C   0  0  0  0  0  0  0  0  0  0  0  0
  -22.7030  -13.2520   22.0270 N   0  0  0  0  0  0  0  0  0  0  0  0
  -22.9800  -15.0240   20.7040 O   0  0  0  0  0  0  0  0  0  0  0  0
  -23.0610  -12.3910   22.4090 H   0  0  0  0  0  0  0  0  0  0  0  0
  -21.7930  -13.5800   22.3200 H   0  0  0  0  0  0  0  0  0  0  0  0
  -26.0540  -15.5670   20.2660 N   0  0  0  0  0  0  0  0  0  0  0  0
  -25.3150  -16.2410   20.4390 H   0  0  0  0  0  0  0  0  0  0  0  0
  -26.8810  -15.9820   19.8560 H   0  0  0  0  0  0  0  0  0  0  0  0
  -28.0760  -24.1130   20.7630 C   0  0  0  0  0  2  0  0  0  0  0  0
  -29.3440  -24.9390   20.4820 C   0  0  0  0  0  3  0  0  0  0  0  0
  -30.4330  -24.3250   21.1570 O   0  0  0  0  0  0  0  0  0  0  0  0
  -30.4280  -24.6270   22.0600 H   0  0  0  0  0  0  0  0  0  0  0  0
  -29.2250  -26.4260   20.8780 C   0  0  0  0  0  2  0  0  0  0  0  0
  -28.8060  -27.1540   19.7320 O   0  0  0  0  0  0  0  0  0  0  0  0
  -24.6870  -31.8260   23.2020 C   0  0  0  0  0  0  0  0  0  0  0  0
  -27.6000  -27.7870   19.8510 C   0  0  0  0  0  0  0  0  0  0  0  0
  -23.5700  -30.4690   21.4560 C   0  0  0  0  0  3  0  0  0  0  0  0
  -25.1180  -29.1110   19.9520 C   0  0  0  0  0  0  0  0  0  0  0  0
  -26.0660  -30.9870   21.3080 C   0  0  0  0  0  2  0  0  0  0  0  0
  -26.2360  -29.6660   20.5890 C   0  0  0  0  0  0  0  0  0  0  0  0
  -27.4800  -29.0060   20.5460 C   0  0  0  0  0  3  0  0  0  0  0  0
  -26.4730  -27.2330   19.2120 C   0  0  0  0  0  3  0  0  0  0  0  0
  -25.2280  -27.8860   19.2670 C   0  0  0  0  0  3  0  0  0  0  0  0
  -23.8280  -29.8930   20.0370 C   0  0  0  0  0  2  0  0  0  0  0  0
  -24.7910  -31.1050   22.0500 N   0  0  0  0  0  0  0  0  0  0  0  0
  -23.5900  -32.0030   23.7500 O   0  0  0  0  0  0  0  0  0  0  0  0
  -22.9720  -29.3510   22.3400 C   0  0  0  0  0  0  0  0  0  0  0  0
  -21.6570  -29.1160   22.2000 N   0  0  0  0  0  0  0  0  0  0  0  0
  -23.6880  -28.6970   23.1040 O   0  0  0  0  0  0  0  0  0  0  0  0
  -21.1400  -29.6990   21.5540 H   0  0  0  0  0  0  0  0  0  0  0  0
  -18.3420  -27.7470   22.6200 C   0  0  0  0  0  0  0  0  0  0  0  0
  -20.8880  -28.0900   22.9000 C   0  0  0  0  0  3  0  0  0  0  0  0
  -21.0470  -26.7110   22.2200 C   0  0  0  0  0  2  0  0  0  0  0  0
  -19.9540  -26.4130   21.1910 C   0  0  0  0  0  2  0  0  0  0  0  0
  -18.5700  -26.4560   21.8470 C   0  0  0  0  0  2  0  0  0  0  0  0
  -19.4310  -28.5190   23.1010 C   0  0  0  0  0  0  0  0  0  0  0  0
  -19.1660  -29.7250   23.7870 C   0  0  0  0  0  3  0  0  0  0  0  0
  -17.8450  -30.1590   23.9970 C   0  0  0  0  0  3  0  0  0  0  0  0
  -16.7690  -29.3810   23.5330 C   0  0  0  0  0  3  0  0  0  0  0  0
  -17.0170  -28.1770   22.8480 C   0  0  0  0  0  3  0  0  0  0  0  0
  -25.9350  -32.4800   23.8740 C   0  0  0  0  0  3  0  0  0  0  0  0
  -25.5760  -33.8590   24.2250 N   0  0  0  0  0  0  0  0  0  0  0  0
  -25.8930  -34.9340   23.4920 C   0  0  0  0  0  0  0  0  0  0  0  0
  -26.5900  -34.8710   22.4750 O   0  0  0  0  0  0  0  0  0  0  0  0
  -24.9640  -33.9800   25.0190 H   0  0  0  0  0  0  0  0  0  0  0  0
  -24.1080  -36.6660   23.1280 C   0  0  0  0  0  1  0  0  0  0  0  0
  -25.3480  -36.2970   23.9580 C   0  0  0  0  0  3  0  0  0  0  0  0
  -27.4260  -37.2500   24.8500 C   0  0  0  0  0  1  0  0  0  0  0  0
  -26.3440  -37.3860   23.8800 N   0  0  0  0  0  0  0  0  0  0  0  0
  -25.9040  -38.2900   24.0280 H   0  0  0  0  0  0  0  0  0  0  0  0
  -26.4410  -31.6940   25.1460 C   0  0  1  0  0  0  0  0  0  0  0  0
  -25.3260  -31.3990   26.1770 C   0  0  0  0  0  1  0  0  0  0  0  0
  -27.0770  -30.3450   24.7330 C   0  0  0  0  0  1  0  0  0  0  0  0
  -27.5500  -32.5060   25.8560 C   0  0  0  0  0  1  0  0  0  0  0  0
  1  3  1  0
  2  4  1  0
  2  5  1  0
  4  6  1  0
  5 11  1  0
  5  1  1  0
  6 53  1  0
  6  3  1  0
  6  7  1  6
  8 12  1  0
  9 13  2  0
 11  9  1  0
 11  8  2  0
 12 10  2  0
 12 23  1  0
 13 14  1  0
 13 10  1  0
 15 23  1  0
 16 21  1  0
 17 18  1  0
 17 16  1  0
 19 18  1  0
 19 28  1  0
 19 20  1  0
 21 15  1  0
 21 20  1  0
 22 15  2  0
 23 24  1  0
 25 26  2  0
 26 45  1  0
 27 26  1  0
 27 30  1  0
 28 29  1  0
 28 25  1  0
 29 27  2  0
 30 31  1  0
 31 32  2  0
 33 36  1  0
 33 32  1  0
 34 33  2  0
 35 34  1  0
 35 30  2  0
 36 37  1  0
 37 42  2  0
 37 38  1  0
 38 39  2  0
 39 40  1  0
 40 44  1  0
 41 40  2  0
 42 41  1  0
 43 42  1  0
 45 46  1  0
 46 49  1  0
 46 48  1  0
 47 45  2  0
 50 25  1  0
 50 51  1  0
 52 50  1  0
 54 53  1  0
 54 57  1  0
 54 55  1  0
 55 56  1  0
 58 60  1  0
 58 57  1  0
 59 70  2  0
 60 65  1  0
 61 69  1  0
 61 71  1  0
 62 68  1  0
 62 64  1  0
 63 69  1  0
 64 63  1  0
 65 64  2  0
 66 67  1  0
 66 60  2  0
 67 62  2  0
 68 61  1  0
 69 59  1  0
 71 73  2  0
 72 71  1  0
 74 72  1  0
 75 84  2  0
 75 80  1  0
 76 72  1  0
 76 80  1  0
 77 76  1  0
 78 79  1  0
 78 77  1  0
 79 75  1  0
 80 81  2  0
 81 82  1  0
 83 82  2  0
 84 83  1  0
 85 59  1  0
 85 86  1  0
 85 95  1  0
 86 89  1  0
 87 91  1  0
 87 86  1  0
 88 87  2  0
 91 90  1  0
 93 91  1  0
 93 94  1  0
 93 92  1  0
 95 98  1  1
 95 96  1  0
 97 95  1  0
M  ISO  4  15 100  23 100  57 101  58 101
M  END
>  <TORSDO>  (48) 
F 21

>  <SCORE>  (48) 
-12.155

>  <name>  (48) 
47

>  <ligand_id>  (48) 
47

>  <original_smiles>  (48) 
[H]OC([H])(C([H])([H])Oc1c([H])c([H])c2c(c1[H])C([H])([H])N(C(=O)C([H])(N([H])C(=O)C([H])(N([H])C([H])([H])[H])C([H])([H])[H])C(C([H])([H])[H])(C([H])([H])[H])C([H])([H])[H])C([H])(C(=O)N([H])C1([H])c3c([H])c([H])c([H])c([H])c3C([H])([H])C([H])([H])C1([H])[H])C2([H])[H])C([H])([H])[N+]1([H])C([H])([H])C([H])([H])C([H])(c2c([H])c(F)c([H])c(N([H])C(=O)N3C([H])([H])C([H])([H])C([H])([H])C([H])(n4nc(-c5c([H])c([H])c(Oc6c([H])c([H])c(F)c([H])c6F)c([H])c5[H])c(C(=O)N([H])[H])c4N([H])[H])C3([H])[H])c2[H])C([H])([H])C1([H])[H]

>  <smiles>  (48) 
[H]OC([H])(C([H])([H])Oc1c([H])c([H])c2c(c1[H])C([H])([H])N(C(=O)C([H])(N([H])C(=O)C([H])(N([H])C([H])([H])[H])C([H])([H])[H])C(C([H])([H])[H])(C([H])([H])[H])C([H])([H])[H])C([H])(C(=O)N([H])C1([H])c3c([H])c([H])c([H])c([H])c3C([H])([H])C([H])([H])C1([H])[H])C2([H])[H])C([H])([H])[N+]1([H])C([H])([H])C([H])([H])C([H])(c2c([H])c(F)c([H])c(N([H])C(=O)N3C([H])([H])C([H])([H])C([H])([H])C([H])(n4nc(-c5c([H])c([H])c(Oc6c([H])c([H])c(F)c([H])c6F)c([H])c5[H])c(C(=O)N([H])[H])c4N([H])[H])C3([H])[H])c2[H])C([H])([H])C1([H])[H]

$$$$
48:0:0
     RDKit          3D

 89 97  0  0  1  0  0  0  0  0999 V2000
  -29.1590  -21.3360   19.6730 C   0  0  0  0  0  3  0  0  0  0  0  0
  -29.6520  -22.7660   21.5430 C   0  0  0  0  0  3  0  0  0  0  0  0
  -29.0430  -22.7710   20.2700 C   0  0  0  0  0  0  0  0  0  0  0  0
  -29.7970  -20.0370   20.2500 C   0  0  0  0  0  0  0  0  0  0  0  0
  -30.2450  -21.6140   22.1370 C   0  0  0  0  0  0  0  0  0  0  0  0
  -30.3150  -20.3220   21.5340 C   0  0  0  0  0  0  0  0  0  0  0  0
  -30.7810  -21.7580   23.3720 F   0  0  0  0  0  0  0  0  0  0  0  0
  -30.9280  -19.3260   22.2180 F   0  0  0  0  0  0  0  0  0  0  0  0
  -30.1080  -18.4150   19.6010 C   0  0  0  0  0  2  0  0  0  0  0  0
  -30.7360  -15.5100   20.0040 C   0  0  0  0  0  0  0  0  0  0  0  0
  -30.7090  -13.0140   19.2420 C   0  0  0  0  0  2  0  0  0  0  0  0
  -29.7820  -12.7500   18.0260 C   0  0  0  0  0  2  0  0  0  0  0  0
  -28.3380  -12.4930   18.4880 C   0  0  0  0  0  2  0  0  0  0  0  0
  -27.8970  -13.4980   19.5810 C   0  0  0  0  0  3  0  0  0  0  0  0
  -28.9540  -13.6990   20.6900 C   0  0  0  0  0  2  0  0  0  0  0  0
  -30.1760  -14.1920   20.0320 N   0  0  0  0  0  0  0  0  0  0  0  0
  -31.9400  -15.4860   19.7030 O   0  0  0  0  0  0  0  0  0  0  0  0
  -29.9860  -16.8030   20.1130 N   0  0  0  0  0  0  0  0  0  0  0  0
  -29.0510  -16.6150   20.4420 H   0  0  0  0  0  0  0  0  0  0  0  0
  -25.5520  -14.0920   20.3760 C   0  0  0  0  0  0  0  0  0  0  0  0
  -24.4840  -13.3340   20.7640 C   0  0  0  0  0  0  0  0  0  0  0  0
  -24.9280  -11.9760   20.7250 C   0  0  0  0  0  0  0  0  0  0  0  0
  -26.5760  -13.2000   20.1140 N   0  0  0  0  0  0  0  0  0  0  0  0
  -26.2140  -11.9200   20.3910 N   0  0  0  0  0  0  0  0  0  0  0  0
  -24.1820  -10.7270   20.9260 C   0  0  0  0  0  0  0  0  0  0  0  0
  -24.5890   -9.7650   21.8780 C   0  0  0  0  0  3  0  0  0  0  0  0
  -23.8400   -8.5840   22.0680 C   0  0  0  0  0  3  0  0  0  0  0  0
  -22.6700   -8.3550   21.3060 C   0  0  0  0  0  0  0  0  0  0  0  0
  -22.2810   -9.3030   20.3440 C   0  0  0  0  0  3  0  0  0  0  0  0
  -23.0300  -10.4760   20.1530 C   0  0  0  0  0  3  0  0  0  0  0  0
  -21.8940   -7.2240   21.4040 O   0  0  0  0  0  0  0  0  0  0  0  0
  -21.7920   -6.5210   22.5780 C   0  0  0  0  0  0  0  0  0  0  0  0
  -21.3290   -7.1220   23.7690 C   0  0  0  0  0  3  0  0  0  0  0  0
  -21.1740   -6.3460   24.9350 C   0  0  0  0  0  3  0  0  0  0  0  0
  -21.4710   -4.9700   24.9100 C   0  0  0  0  0  0  0  0  0  0  0  0
  -21.9270   -4.3690   23.7240 C   0  0  0  0  0  3  0  0  0  0  0  0
  -22.0830   -5.1420   22.5610 C   0  0  0  0  0  0  0  0  0  0  0  0
  -22.5030   -4.5540   21.4150 F   0  0  0  0  0  0  0  0  0  0  0  0
  -21.3150   -4.2230   26.0280 F   0  0  0  0  0  0  0  0  0  0  0  0
  -23.1010  -13.8350   21.0550 C   0  0  0  0  0  0  0  0  0  0  0  0
  -22.3790  -13.1630   21.9440 N   0  0  0  0  0  0  0  0  0  0  0  0
  -22.6700  -14.8610   20.5280 O   0  0  0  0  0  0  0  0  0  0  0  0
  -22.7410  -12.3340   22.3900 H   0  0  0  0  0  0  0  0  0  0  0  0
  -21.4510  -13.4830   22.1830 H   0  0  0  0  0  0  0  0  0  0  0  0
  -25.7340  -15.4610   20.1930 N   0  0  0  0  0  0  0  0  0  0  0  0
  -24.9730  -16.1230   20.3050 H   0  0  0  0  0  0  0  0  0  0  0  0
  -26.5660  -15.8790   19.7990 H   0  0  0  0  0  0  0  0  0  0  0  0
  -28.1940  -24.2540   19.8020 C   0  0  0  0  0  2  0  0  0  0  0  0
  -28.3350  -25.8770   20.1770 O   0  0  0  0  0  0  0  0  0  0  0  0
  -24.6870  -31.8090   23.1750 C   0  0  0  0  0  0  0  0  0  0  0  0
  -27.3240  -26.9890   20.0800 C   0  0  0  0  0  0  0  0  0  0  0  0
  -23.5120  -30.4050   21.5300 C   0  0  0  0  0  3  0  0  0  0  0  0
  -24.9860  -28.8480   20.0710 C   0  0  0  0  0  0  0  0  0  0  0  0
  -26.0740  -30.6640   21.3720 C   0  0  0  0  0  2  0  0  0  0  0  0
  -26.1690  -29.2600   20.6970 C   0  0  0  0  0  0  0  0  0  0  0  0
  -27.3260  -28.3500   20.6810 C   0  0  0  0  0  3  0  0  0  0  0  0
  -26.1110  -26.7480   19.3910 C   0  0  0  0  0  3  0  0  0  0  0  0
  -24.9850  -27.6150   19.3980 C   0  0  0  0  0  3  0  0  0  0  0  0
  -23.7480  -29.7440   20.1430 C   0  0  0  0  0  2  0  0  0  0  0  0
  -24.7800  -30.9870   22.0790 N   0  0  0  0  0  0  0  0  0  0  0  0
  -23.5950  -32.0670   23.7070 O   0  0  0  0  0  0  0  0  0  0  0  0
  -22.8470  -29.3850   22.4910 C   0  0  0  0  0  0  0  0  0  0  0  0
  -21.5270  -29.1590   22.3470 N   0  0  0  0  0  0  0  0  0  0  0  0
  -23.5250  -28.7970   23.3360 O   0  0  0  0  0  0  0  0  0  0  0  0
  -21.0290  -29.6860   21.6440 H   0  0  0  0  0  0  0  0  0  0  0  0
  -18.2110  -27.7400   22.7610 C   0  0  0  0  0  0  0  0  0  0  0  0
  -20.7360  -28.1870   23.1110 C   0  0  0  0  0  3  0  0  0  0  0  0
  -20.9550  -26.7510   22.5790 C   0  0  0  0  0  2  0  0  0  0  0  0
  -19.9170  -26.3310   21.5330 C   0  0  0  0  0  2  0  0  0  0  0  0
  -18.5050  -26.3930   22.1220 C   0  0  0  0  0  2  0  0  0  0  0  0
  -19.2590  -28.5880   23.2110 C   0  0  0  0  0  0  0  0  0  0  0  0
  -18.9300  -29.8420   23.7710 C   0  0  0  0  0  3  0  0  0  0  0  0
  -17.5880  -30.2510   23.8830 C   0  0  0  0  0  3  0  0  0  0  0  0
  -16.5550  -29.4030   23.4470 C   0  0  0  0  0  3  0  0  0  0  0  0
  -16.8680  -28.1490   22.8930 C   0  0  0  0  0  3  0  0  0  0  0  0
  -25.9470  -32.4750   23.8060 C   0  0  0  0  0  3  0  0  0  0  0  0
  -25.6030  -33.8690   24.1450 N   0  0  0  0  0  0  0  0  0  0  0  0
  -25.9210  -34.9410   23.4060 C   0  0  0  0  0  0  0  0  0  0  0  0
  -26.5950  -34.8620   22.3760 O   0  0  0  0  0  0  0  0  0  0  0  0
  -25.0040  -34.0020   24.9450 H   0  0  0  0  0  0  0  0  0  0  0  0
  -24.1610  -36.7140   23.0830 C   0  0  0  0  0  1  0  0  0  0  0  0
  -25.4140  -36.3190   23.8820 C   0  0  0  0  0  3  0  0  0  0  0  0
  -27.5360  -37.2350   24.7130 C   0  0  0  0  0  1  0  0  0  0  0  0
  -26.4280  -37.3910   23.7740 N   0  0  0  0  0  0  0  0  0  0  0  0
  -26.0060  -38.3030   23.9310 H   0  0  0  0  0  0  0  0  0  0  0  0
  -26.4670  -31.7210   25.0920 C   0  0  1  0  0  0  0  0  0  0  0  0
  -25.3720  -31.4760   26.1580 C   0  0  0  0  0  1  0  0  0  0  0  0
  -27.0720  -30.3480   24.7230 C   0  0  0  0  0  1  0  0  0  0  0  0
  -27.6040  -32.5360   25.7540 C   0  0  0  0  0  1  0  0  0  0  0  0
  1  4  2  0
  1  3  1  0
  2  5  1  0
  3  2  2  0
  4  6  1  0
  5  7  1  0
  6  5  2  0
  6  8  1  0
  9 18  1  0
  9  4  1  0
 10 16  1  0
 10 18  1  0
 11 16  1  0
 12 13  1  0
 12 11  1  0
 14 13  1  0
 14 23  1  0
 14 15  1  0
 16 15  1  0
 17 10  2  0
 18 19  1  0
 20 21  2  0
 21 40  1  0
 22 21  1  0
 22 25  1  0
 23 20  1  0
 23 24  1  0
 24 22  2  0
 25 26  1  0
 26 27  2  0
 28 31  1  0
 28 27  1  0
 29 28  2  0
 30 29  1  0
 30 25  2  0
 31 32  1  0
 32 33  1  0
 33 34  2  0
 35 34  1  0
 35 39  1  0
 36 35  2  0
 37 32  2  0
 37 36  1  0
 38 37  1  0
 40 41  1  0
 41 44  1  0
 41 43  1  0
 42 40  2  0
 45 46  1  0
 45 20  1  0
 47 45  1  0
 48 49  1  0
 48  3  1  0
 50 61  2  0
 51 49  1  0
 51 56  1  0
 52 60  1  0
 52 62  1  0
 53 59  1  0
 53 55  1  0
 54 60  1  0
 55 54  1  0
 56 55  2  0
 57 58  1  0
 57 51  2  0
 58 53  2  0
 59 52  1  0
 60 50  1  0
 62 64  2  0
 63 62  1  0
 65 63  1  0
 66 75  2  0
 66 71  1  0
 67 63  1  0
 67 71  1  0
 68 67  1  0
 69 70  1  0
 69 68  1  0
 70 66  1  0
 71 72  2  0
 72 73  1  0
 74 73  2  0
 75 74  1  0
 76 50  1  0
 76 77  1  0
 76 86  1  0
 77 80  1  0
 78 82  1  0
 78 77  1  0
 79 78  2  0
 82 81  1  0
 84 82  1  0
 84 85  1  0
 84 83  1  0
 86 89  1  1
 86 87  1  0
 88 86  1  0
M  ISO  4  10 100  18 100  48 101  49 101
M  END
>  <TORSDO>  (49) 
F 18

>  <SCORE>  (49) 
-16.629

>  <name>  (49) 
48

>  <ligand_id>  (49) 
48

>  <original_smiles>  (49) 
[H]c1c([H])c([H])c2c(c1[H])C([H])([H])C([H])([H])C([H])([H])C2([H])N([H])C(=O)C1([H])N(C(=O)C([H])(N([H])C(=O)C([H])(N([H])C([H])([H])[H])C([H])([H])[H])C(C([H])([H])[H])(C([H])([H])[H])C([H])([H])[H])C([H])([H])c2c([H])c(OC([H])([H])c3c([H])c(F)c(F)c(C([H])([H])N([H])C(=O)N4C([H])([H])C([H])([H])C([H])([H])C([H])(n5nc(-c6c([H])c([H])c(Oc7c([H])c([H])c(F)c([H])c7F)c([H])c6[H])c(C(=O)N([H])[H])c5N([H])[H])C4([H])[H])c3[H])c([H])c([H])c2C1([H])[H]

>  <smiles>  (49) 
[H]c1c([H])c([H])c2c(c1[H])C([H])([H])C([H])([H])C([H])([H])C2([H])N([H])C(=O)C1([H])N(C(=O)C([H])(N([H])C(=O)C([H])(N([H])C([H])([H])[H])C([H])([H])[H])C(C([H])([H])[H])(C([H])([H])[H])C([H])([H])[H])C([H])([H])c2c([H])c(OC([H])([H])c3c([H])c(F)c(F)c(C([H])([H])N([H])C(=O)N4C([H])([H])C([H])([H])C([H])([H])C([H])(n5nc(-c6c([H])c([H])c(Oc7c([H])c([H])c(F)c([H])c7F)c([H])c6[H])c(C(=O)N([H])[H])c5N([H])[H])C4([H])[H])c3[H])c([H])c([H])c2C1([H])[H]

$$$$
49:0:0
     RDKit          3D

 93101  0  0  1  0  0  0  0  0999 V2000
  -28.1930  -23.1410   20.4640 C   0  0  0  0  0  3  0  0  0  0  0  0
  -26.7900  -22.7090   20.2870 N   0  0  0  0  0  4  0  0  0  0  0  0
  -26.6690  -22.2740   19.3840 H   0  0  0  0  0  0  0  0  0  0  0  0
  -26.1550  -23.4850   20.3710 H   0  0  0  0  0  0  0  0  0  0  0  0
  -26.5400  -22.0310   20.9860 H   0  0  0  0  0  0  0  0  0  0  0  0
  -29.2180  -21.7860   20.2120 C   0  0  0  0  0  2  0  0  0  0  0  0
  -28.4440  -17.3670   19.1420 C   0  0  0  0  0  3  0  0  0  0  0  0
  -27.7690  -18.4730   18.5710 C   0  0  0  0  0  3  0  0  0  0  0  0
  -29.5550  -18.9530   20.6020 C   0  0  0  0  0  3  0  0  0  0  0  0
  -28.8880  -20.1560   20.0030 C   0  0  0  0  0  0  0  0  0  0  0  0
  -29.3670  -17.5190   20.1960 C   0  0  0  0  0  0  0  0  0  0  0  0
  -27.9810  -19.8140   18.9740 C   0  0  0  0  0  0  0  0  0  0  0  0
  -27.3180  -20.7990   18.3220 F   0  0  0  0  0  0  0  0  0  0  0  0
  -30.5390  -15.0150   20.3880 C   0  0  0  0  0  0  0  0  0  0  0  0
  -30.3990  -12.6530   19.4550 C   0  0  0  0  0  2  0  0  0  0  0  0
  -29.4970  -12.5880   18.2030 C   0  0  0  0  0  2  0  0  0  0  0  0
  -28.0300  -12.3750   18.6110 C   0  0  0  0  0  2  0  0  0  0  0  0
  -27.6000  -13.3090   19.7710 C   0  0  0  0  0  3  0  0  0  0  0  0
  -28.6300  -13.3570   20.9180 C   0  0  0  0  0  2  0  0  0  0  0  0
  -29.9070  -13.7690   20.3260 N   0  0  0  0  0  0  0  0  0  0  0  0
  -31.7270  -15.0320   20.0490 O   0  0  0  0  0  0  0  0  0  0  0  0
  -29.9290  -16.2320   20.8380 N   0  0  0  0  0  0  0  0  0  0  0  0
  -30.4200  -16.4800   21.6860 H   0  0  0  0  0  0  0  0  0  0  0  0
  -25.2060  -13.8910   20.4450 C   0  0  0  0  0  0  0  0  0  0  0  0
  -24.1360  -13.1200   20.8040 C   0  0  0  0  0  0  0  0  0  0  0  0
  -24.6030  -11.7690   20.8040 C   0  0  0  0  0  0  0  0  0  0  0  0
  -26.2550  -13.0120   20.2450 N   0  0  0  0  0  0  0  0  0  0  0  0
  -25.9010  -11.7310   20.5260 N   0  0  0  0  0  0  0  0  0  0  0  0
  -23.8740  -10.5090   20.9950 C   0  0  0  0  0  0  0  0  0  0  0  0
  -24.2880   -9.5510   21.9480 C   0  0  0  0  0  3  0  0  0  0  0  0
  -23.5550   -8.3590   22.1270 C   0  0  0  0  0  3  0  0  0  0  0  0
  -22.3960   -8.1140   21.3530 C   0  0  0  0  0  0  0  0  0  0  0  0
  -22.0030   -9.0600   20.3900 C   0  0  0  0  0  3  0  0  0  0  0  0
  -22.7340  -10.2440   20.2080 C   0  0  0  0  0  3  0  0  0  0  0  0
  -21.6390   -6.9710   21.4390 O   0  0  0  0  0  0  0  0  0  0  0  0
  -21.5700   -6.2400   22.5980 C   0  0  0  0  0  0  0  0  0  0  0  0
  -21.1230   -6.8060   23.8110 C   0  0  0  0  0  3  0  0  0  0  0  0
  -21.0030   -6.0020   24.9620 C   0  0  0  0  0  3  0  0  0  0  0  0
  -21.3160   -4.6310   24.9000 C   0  0  0  0  0  0  0  0  0  0  0  0
  -21.7560   -4.0630   23.6910 C   0  0  0  0  0  3  0  0  0  0  0  0
  -21.8780   -4.8650   22.5420 C   0  0  0  0  0  0  0  0  0  0  0  0
  -22.2820   -4.3090   21.3750 F   0  0  0  0  0  0  0  0  0  0  0  0
  -21.1940   -3.8550   26.0030 F   0  0  0  0  0  0  0  0  0  0  0  0
  -22.7340  -13.6010   21.0350 C   0  0  0  0  0  0  0  0  0  0  0  0
  -21.9860  -12.9180   21.8940 N   0  0  0  0  0  0  0  0  0  0  0  0
  -22.3100  -14.6190   20.4870 O   0  0  0  0  0  0  0  0  0  0  0  0
  -22.3390  -12.0940   22.3570 H   0  0  0  0  0  0  0  0  0  0  0  0
  -21.0420  -13.2230   22.0880 H   0  0  0  0  0  0  0  0  0  0  0  0
  -25.3720  -15.2590   20.2480 N   0  0  0  0  0  0  0  0  0  0  0  0
  -24.6020  -15.9150   20.3230 H   0  0  0  0  0  0  0  0  0  0  0  0
  -26.2420  -15.7000   19.9810 H   0  0  0  0  0  0  0  0  0  0  0  0
  -28.3650  -24.6930   19.7580 C   0  0  0  0  0  2  0  0  0  0  0  0
  -28.2450  -26.1610   20.3180 O   0  0  0  0  0  0  0  0  0  0  0  0
  -24.6060  -31.8670   23.2220 C   0  0  0  0  0  0  0  0  0  0  0  0
  -27.1770  -27.1300   20.1900 C   0  0  0  0  0  0  0  0  0  0  0  0
  -23.4030  -30.4650   21.5870 C   0  0  0  0  0  3  0  0  0  0  0  0
  -24.8480  -28.8850   20.1560 C   0  0  0  0  0  0  0  0  0  0  0  0
  -25.9560  -30.7280   21.4180 C   0  0  0  0  0  2  0  0  0  0  0  0
  -26.0250  -29.3310   20.7670 C   0  0  0  0  0  0  0  0  0  0  0  0
  -27.1840  -28.4670   20.7700 C   0  0  0  0  0  3  0  0  0  0  0  0
  -25.9770  -26.7900   19.5300 C   0  0  0  0  0  3  0  0  0  0  0  0
  -24.8380  -27.6320   19.5210 C   0  0  0  0  0  3  0  0  0  0  0  0
  -23.6210  -29.7830   20.2090 C   0  0  0  0  0  2  0  0  0  0  0  0
  -24.6750  -31.0430   22.1310 N   0  0  0  0  0  0  0  0  0  0  0  0
  -23.5220  -32.1520   23.7530 O   0  0  0  0  0  0  0  0  0  0  0  0
  -22.7270  -29.4620   22.5550 C   0  0  0  0  0  0  0  0  0  0  0  0
  -21.3990  -29.2900   22.4330 N   0  0  0  0  0  0  0  0  0  0  0  0
  -23.4010  -28.8400   23.3790 O   0  0  0  0  0  0  0  0  0  0  0  0
  -20.9110  -29.8430   21.7420 H   0  0  0  0  0  0  0  0  0  0  0  0
  -18.0230  -28.0770   22.9360 C   0  0  0  0  0  0  0  0  0  0  0  0
  -20.5800  -28.3550   23.2080 C   0  0  0  0  0  3  0  0  0  0  0  0
  -20.6900  -26.9190   22.6420 C   0  0  0  0  0  2  0  0  0  0  0  0
  -19.5920  -26.5850   21.6280 C   0  0  0  0  0  2  0  0  0  0  0  0
  -18.2090  -26.7260   22.2680 C   0  0  0  0  0  2  0  0  0  0  0  0
  -19.1370  -28.8500   23.3630 C   0  0  0  0  0  0  0  0  0  0  0  0
  -18.9080  -30.1130   23.9500 C   0  0  0  0  0  3  0  0  0  0  0  0
  -17.5990  -30.6050   24.1130 C   0  0  0  0  0  3  0  0  0  0  0  0
  -16.5000  -29.8300   23.7020 C   0  0  0  0  0  3  0  0  0  0  0  0
  -16.7130  -28.5680   23.1190 C   0  0  0  0  0  3  0  0  0  0  0  0
  -25.8850  -32.5060   23.8450 C   0  0  0  0  0  3  0  0  0  0  0  0
  -26.3980  -31.7440   25.1290 C   0  0  1  0  0  0  0  0  0  0  0  0
  -25.3020  -31.5170   26.1970 C   0  0  0  0  0  1  0  0  0  0  0  0
  -26.9790  -30.3610   24.7520 C   0  0  0  0  0  1  0  0  0  0  0  0
  -27.5510  -32.5390   25.7860 C   0  0  0  0  0  1  0  0  0  0  0  0
  -25.5740  -33.9070   24.1740 N   0  0  0  0  0  0  0  0  0  0  0  0
  -25.9090  -34.9630   23.4210 C   0  0  0  0  0  0  0  0  0  0  0  0
  -26.5770  -34.8600   22.3890 O   0  0  0  0  0  0  0  0  0  0  0  0
  -24.9820  -34.0600   24.9770 H   0  0  0  0  0  0  0  0  0  0  0  0
  -24.1880  -36.7650   23.0730 C   0  0  0  0  0  1  0  0  0  0  0  0
  -25.4260  -36.3520   23.8840 C   0  0  0  0  0  3  0  0  0  0  0  0
  -27.5610  -37.2290   24.7210 C   0  0  0  0  0  1  0  0  0  0  0  0
  -26.4610  -37.4020   23.7760 N   0  0  0  0  0  0  0  0  0  0  0  0
  -26.0580  -38.3230   23.9280 H   0  0  0  0  0  0  0  0  0  0  0  0
  1 52  1  0
  2  4  1  0
  2  1  1  0
  2  5  1  0
  3  2  1  0
  6  1  1  0
  7 11  1  0
  8 12  1  0
  8  7  2  0
 10  6  1  0
 10  9  1  0
 11  9  2  0
 11 22  1  0
 12 10  2  0
 13 12  1  0
 14 22  1  0
 15 20  1  0
 16 17  1  0
 16 15  1  0
 18 17  1  0
 18 27  1  0
 18 19  1  0
 20 14  1  0
 20 19  1  0
 21 14  2  0
 22 23  1  0
 24 25  2  0
 25 26  1  0
 25 44  1  0
 26 29  1  0
 27 24  1  0
 27 28  1  0
 28 26  2  0
 29 30  1  0
 30 31  2  0
 32 35  1  0
 32 31  1  0
 33 32  2  0
 34 33  1  0
 34 29  2  0
 35 36  1  0
 36 37  1  0
 37 38  2  0
 39 38  1  0
 39 43  1  0
 40 39  2  0
 41 36  2  0
 41 40  1  0
 42 41  1  0
 44 45  1  0
 45 48  1  0
 45 47  1  0
 46 44  2  0
 49 50  1  0
 49 24  1  0
 51 49  1  0
 52 53  1  0
 54 65  2  0
 55 53  1  0
 55 60  1  0
 56 64  1  0
 56 66  1  0
 57 63  1  0
 57 59  1  0
 58 64  1  0
 59 60  2  0
 59 58  1  0
 61 55  2  0
 62 61  1  0
 62 57  2  0
 63 56  1  0
 64 54  1  0
 66 68  2  0
 67 66  1  0
 69 67  1  0
 70 79  2  0
 70 75  1  0
 71 67  1  0
 71 75  1  0
 72 71  1  0
 73 74  1  0
 73 72  1  0
 74 70  1  0
 75 76  2  0
 76 77  1  0
 78 77  2  0
 79 78  1  0
 80 54  1  0
 80 85  1  0
 80 81  1  0
 81 84  1  1
 81 82  1  0
 83 81  1  0
 85 88  1  0
 86 90  1  0
 86 85  1  0
 87 86  2  0
 90 89  1  0
 92 90  1  0
 92 93  1  0
 92 91  1  0
M  ISO  4  14 100  22 100  52 101  53 101
M  END
>  <TORSDO>  (50) 
F 20

>  <SCORE>  (50) 
-15.786

>  <name>  (50) 
49

>  <ligand_id>  (50) 
49

>  <original_smiles>  (50) 
[H]c1c([H])c([H])c2c(c1[H])C([H])([H])C([H])([H])C([H])([H])C2([H])N([H])C(=O)C1([H])N(C(=O)C([H])(N([H])C(=O)C([H])(N([H])C([H])([H])[H])C([H])([H])[H])C(C([H])([H])[H])(C([H])([H])[H])C([H])([H])[H])C([H])([H])c2c([H])c(OC([H])([H])C([H])(C([H])([H])c3c([H])c(N([H])C(=O)N4C([H])([H])C([H])([H])C([H])([H])C([H])(n5nc(-c6c([H])c([H])c(Oc7c([H])c([H])c(F)c([H])c7F)c([H])c6[H])c(C(=O)N([H])[H])c5N([H])[H])C4([H])[H])c([H])c([H])c3F)[N+]([H])([H])[H])c([H])c([H])c2C1([H])[H]

>  <smiles>  (50) 
[H]c1c([H])c([H])c2c(c1[H])C([H])([H])C([H])([H])C([H])([H])C2([H])N([H])C(=O)C1([H])N(C(=O)C([H])(N([H])C(=O)C([H])(N([H])C([H])([H])[H])C([H])([H])[H])C(C([H])([H])[H])(C([H])([H])[H])C([H])([H])[H])C([H])([H])c2c([H])c(OC([H])([H])C([H])(C([H])([H])c3c([H])c(N([H])C(=O)N4C([H])([H])C([H])([H])C([H])([H])C([H])(n5nc(-c6c([H])c([H])c(Oc7c([H])c([H])c(F)c([H])c7F)c([H])c6[H])c(C(=O)N([H])[H])c5N([H])[H])C4([H])[H])c([H])c([H])c3F)[N+]([H])([H])[H])c([H])c([H])c2C1([H])[H]

$$$$
50:0:0
     RDKit          3D

 97105  0  0  1  0  0  0  0  0999 V2000
  -28.8980  -20.0780   20.7750 C   0  0  0  0  0  2  0  0  0  0  0  0
  -29.5450  -21.2380   18.8330 C   0  0  0  0  0  2  0  0  0  0  0  0
  -28.2980  -20.8700   19.6190 C   0  0  0  0  0  3  0  0  0  0  0  0
  -30.0750  -19.3000   20.1270 C   0  0  0  0  0  3  0  0  0  0  0  0
  -30.2810  -19.9660   18.8190 N   0  0  0  0  0  0  0  0  0  0  0  0
  -27.3050  -23.2430   20.2040 C   0  0  0  0  0  0  0  0  0  0  0  0
  -27.3160  -21.9110   19.9820 N   0  0  0  0  0  0  0  0  0  0  0  0
  -26.2130  -23.7670   20.4230 O   0  0  0  0  0  0  0  0  0  0  0  0
  -26.3790  -21.5320   20.0250 H   0  0  0  0  0  0  0  0  0  0  0  0
  -28.5690  -24.1280   20.2090 C   0  0  0  0  0  2  0  0  0  0  0  0
  -28.4160  -25.5040   20.9470 C   0  0  0  0  0  2  0  0  0  0  0  0
  -28.3770  -26.6850   20.1190 O   0  0  0  0  0  0  0  0  0  0  0  0
  -24.5800  -31.9000   23.2300 C   0  0  0  0  0  0  0  0  0  0  0  0
  -27.2170  -27.4270   20.1700 C   0  0  0  0  0  0  0  0  0  0  0  0
  -23.3750  -30.4950   21.5910 C   0  0  0  0  0  3  0  0  0  0  0  0
  -24.8270  -28.9420   20.1830 C   0  0  0  0  0  0  0  0  0  0  0  0
  -25.9060  -30.8410   21.3990 C   0  0  0  0  0  2  0  0  0  0  0  0
  -25.9890  -29.4670   20.7630 C   0  0  0  0  0  0  0  0  0  0  0  0
  -27.1910  -28.7180   20.7480 C   0  0  0  0  0  3  0  0  0  0  0  0
  -26.0390  -26.9150   19.5940 C   0  0  0  0  0  3  0  0  0  0  0  0
  -24.8430  -27.6590   19.6050 C   0  0  0  0  0  3  0  0  0  0  0  0
  -23.5900  -29.8100   20.2160 C   0  0  0  0  0  2  0  0  0  0  0  0
  -24.6380  -31.0920   22.1340 N   0  0  0  0  0  0  0  0  0  0  0  0
  -23.4990  -32.1760   23.7680 O   0  0  0  0  0  0  0  0  0  0  0  0
  -22.7140  -29.4800   22.5520 C   0  0  0  0  0  0  0  0  0  0  0  0
  -21.3870  -29.3070   22.4280 N   0  0  0  0  0  0  0  0  0  0  0  0
  -23.3940  -28.8470   23.3650 O   0  0  0  0  0  0  0  0  0  0  0  0
  -20.8960  -29.8670   21.7440 H   0  0  0  0  0  0  0  0  0  0  0  0
  -18.0070  -28.1440   22.9400 C   0  0  0  0  0  0  0  0  0  0  0  0
  -20.5670  -28.3750   23.2010 C   0  0  0  0  0  3  0  0  0  0  0  0
  -20.6530  -26.9430   22.6220 C   0  0  0  0  0  2  0  0  0  0  0  0
  -19.5450  -26.6340   21.6120 C   0  0  0  0  0  2  0  0  0  0  0  0
  -18.1670  -26.7930   22.2620 C   0  0  0  0  0  2  0  0  0  0  0  0
  -19.1340  -28.8930   23.3670 C   0  0  0  0  0  0  0  0  0  0  0  0
  -18.9300  -30.1600   23.9570 C   0  0  0  0  0  3  0  0  0  0  0  0
  -17.6310  -30.6740   24.1260 C   0  0  0  0  0  3  0  0  0  0  0  0
  -16.5170  -29.9190   23.7180 C   0  0  0  0  0  3  0  0  0  0  0  0
  -16.7070  -28.6560   23.1290 C   0  0  0  0  0  3  0  0  0  0  0  0
  -25.8660  -32.5330   23.8490 C   0  0  0  0  0  3  0  0  0  0  0  0
  -25.5570  -33.9310   24.1770 N   0  0  0  0  0  0  0  0  0  0  0  0
  -25.8920  -34.9820   23.4190 C   0  0  0  0  0  0  0  0  0  0  0  0
  -26.5650  -34.8780   22.3890 O   0  0  0  0  0  0  0  0  0  0  0  0
  -24.9640  -34.0850   24.9800 H   0  0  0  0  0  0  0  0  0  0  0  0
  -24.1670  -36.7750   23.0530 C   0  0  0  0  0  1  0  0  0  0  0  0
  -25.4020  -36.3700   23.8740 C   0  0  0  0  0  3  0  0  0  0  0  0
  -27.5320  -37.2510   24.7180 C   0  0  0  0  0  1  0  0  0  0  0  0
  -26.4350  -37.4240   23.7700 N   0  0  0  0  0  0  0  0  0  0  0  0
  -26.0290  -38.3430   23.9200 H   0  0  0  0  0  0  0  0  0  0  0  0
  -26.3840  -31.7640   25.1260 C   0  0  1  0  0  0  0  0  0  0  0  0
  -25.2950  -31.5270   26.1970 C   0  0  0  0  0  1  0  0  0  0  0  0
  -26.9670  -30.3860   24.7330 C   0  0  0  0  0  1  0  0  0  0  0  0
  -27.5340  -32.5590   25.7880 C   0  0  0  0  0  1  0  0  0  0  0  0
  -29.7830  -17.7620   19.9860 C   0  0  0  0  0  3  0  0  0  0  0  0
  -30.2940  -17.2660   18.8570 F   0  0  0  0  0  0  0  0  0  0  0  0
  -30.3410  -16.8970   21.1490 C   0  0  0  0  0  2  0  0  0  0  0  0
  -30.6730  -14.4710   20.5310 C   0  0  0  0  0  0  0  0  0  0  0  0
  -30.3780  -12.3170   19.3680 C   0  0  0  0  0  2  0  0  0  0  0  0
  -29.4490  -12.5400   18.1570 C   0  0  0  0  0  2  0  0  0  0  0  0
  -27.9680  -12.4160   18.5690 C   0  0  0  0  0  2  0  0  0  0  0  0
  -27.6260  -13.2460   19.8370 C   0  0  0  0  0  3  0  0  0  0  0  0
  -28.6680  -12.9990   20.9510 C   0  0  0  0  0  2  0  0  0  0  0  0
  -30.0000  -13.2970   20.3960 N   0  0  0  0  0  0  0  0  0  0  0  0
  -31.8090  -14.6480   20.0850 O   0  0  0  0  0  0  0  0  0  0  0  0
  -29.9550  -15.4770   21.0560 N   0  0  0  0  0  0  0  0  0  0  0  0
  -29.0190  -15.2400   21.3500 H   0  0  0  0  0  0  0  0  0  0  0  0
  -25.2230  -13.8760   20.5150 C   0  0  0  0  0  0  0  0  0  0  0  0
  -24.1450  -13.1120   20.8780 C   0  0  0  0  0  0  0  0  0  0  0  0
  -24.5980  -11.7570   20.8620 C   0  0  0  0  0  0  0  0  0  0  0  0
  -26.2650  -12.9850   20.3010 N   0  0  0  0  0  0  0  0  0  0  0  0
  -25.8910  -11.7070   20.5680 N   0  0  0  0  0  0  0  0  0  0  0  0
  -23.8620  -10.5000   21.0550 C   0  0  0  0  0  0  0  0  0  0  0  0
  -24.2870   -9.5310   21.9880 C   0  0  0  0  0  3  0  0  0  0  0  0
  -23.5510   -8.3390   22.1670 C   0  0  0  0  0  3  0  0  0  0  0  0
  -22.3760   -8.1100   21.4120 C   0  0  0  0  0  0  0  0  0  0  0  0
  -21.9700   -9.0700   20.4690 C   0  0  0  0  0  3  0  0  0  0  0  0
  -22.7060  -10.2530   20.2890 C   0  0  0  0  0  3  0  0  0  0  0  0
  -21.6130   -6.9710   21.4990 O   0  0  0  0  0  0  0  0  0  0  0  0
  -21.5690   -6.2210   22.6480 C   0  0  0  0  0  0  0  0  0  0  0  0
  -21.1690   -6.7740   23.8840 C   0  0  0  0  0  3  0  0  0  0  0  0
  -21.0700   -5.9530   25.0240 C   0  0  0  0  0  3  0  0  0  0  0  0
  -21.3600   -4.5780   24.9300 C   0  0  0  0  0  0  0  0  0  0  0  0
  -21.7520   -4.0240   23.6980 C   0  0  0  0  0  3  0  0  0  0  0  0
  -21.8520   -4.8430   22.5600 C   0  0  0  0  0  0  0  0  0  0  0  0
  -22.2110   -4.3000   21.3710 F   0  0  0  0  0  0  0  0  0  0  0  0
  -21.2570   -3.7870   26.0230 F   0  0  0  0  0  0  0  0  0  0  0  0
  -22.7480  -13.6020   21.1320 C   0  0  0  0  0  0  0  0  0  0  0  0
  -22.0060  -12.9180   21.9950 N   0  0  0  0  0  0  0  0  0  0  0  0
  -22.3230  -14.6250   20.5980 O   0  0  0  0  0  0  0  0  0  0  0  0
  -22.3640  -12.0900   22.4480 H   0  0  0  0  0  0  0  0  0  0  0  0
  -21.0690  -13.2290   22.2070 H   0  0  0  0  0  0  0  0  0  0  0  0
  -25.3970  -15.2430   20.3300 N   0  0  0  0  0  0  0  0  0  0  0  0
  -24.6240  -15.8930   20.4190 H   0  0  0  0  0  0  0  0  0  0  0  0
  -26.2420  -15.6770   19.9820 H   0  0  0  0  0  0  0  0  0  0  0  0
  -31.6860  -20.2430   18.4870 C   0  0  0  0  0  2  0  0  0  0  0  0
  -32.5660  -18.9990   18.2700 C   0  0  0  0  0  3  0  0  0  0  0  0
  -32.8610  -18.4000   19.4240 F   0  0  0  0  0  0  0  0  0  0  0  0
  -33.7090  -19.3670   17.6920 F   0  0  0  0  0  0  0  0  0  0  0  0
  2  3  1  0
  3  7  1  0
  3  1  1  0
  4 53  1  0
  4  1  1  0
  5  2  1  0
  5  4  1  0
  6 10  1  0
  6  8  2  0
  7  9  1  0
  7  6  1  0
 10 11  1  0
 12 14  1  0
 12 11  1  0
 13 24  2  0
 14 19  1  0
 15 23  1  0
 15 25  1  0
 16 22  1  0
 16 18  1  0
 17 23  1  0
 18 17  1  0
 19 18  2  0
 20 21  1  0
 20 14  2  0
 21 16  2  0
 22 15  1  0
 23 13  1  0
 25 27  2  0
 26 25  1  0
 28 26  1  0
 29 38  2  0
 29 34  1  0
 30 26  1  0
 30 34  1  0
 31 30  1  0
 32 33  1  0
 32 31  1  0
 33 29  1  0
 34 35  2  0
 35 36  1  0
 37 36  2  0
 38 37  1  0
 39 13  1  0
 39 40  1  0
 39 49  1  0
 40 43  1  0
 41 45  1  0
 41 40  1  0
 42 41  2  0
 45 44  1  0
 47 45  1  0
 47 48  1  0
 47 46  1  0
 49 52  1  1
 49 50  1  0
 51 49  1  0
 53 54  1  0
 53 55  1  0
 56 64  1  0
 57 62  1  0
 58 59  1  0
 58 57  1  0
 60 59  1  0
 60 69  1  0
 60 61  1  0
 62 56  1  0
 62 61  1  0
 63 56  2  0
 64 55  1  0
 64 65  1  0
 66 67  2  0
 67 86  1  0
 68 67  1  0
 68 71  1  0
 69 66  1  0
 69 70  1  0
 70 68  2  0
 71 72  1  0
 72 73  2  0
 74 77  1  0
 74 73  1  0
 75 74  2  0
 76 75  1  0
 76 71  2  0
 77 78  1  0
 78 79  1  0
 79 80  2  0
 81 80  1  0
 81 85  1  0
 82 81  2  0
 83 78  2  0
 83 82  1  0
 84 83  1  0
 86 87  1  0
 87 90  1  0
 87 89  1  0
 88 86  2  0
 91 92  1  0
 91 66  1  0
 93 91  1  0
 94  5  1  0
 95 94  1  0
 95 96  1  0
 97 95  1  0
M  ISO  4  11 101  12 101  56 100  64 100
M  END
>  <TORSDO>  (51) 
F 23

>  <SCORE>  (51) 
-13.222

>  <name>  (51) 
50

>  <ligand_id>  (51) 
50

>  <original_smiles>  (51) 
[H]c1c([H])c([H])c2c(c1[H])C([H])([H])C([H])([H])C([H])([H])C2([H])N([H])C(=O)C1([H])N(C(=O)C([H])(N([H])C(=O)C([H])(N([H])C([H])([H])[H])C([H])([H])[H])C(C([H])([H])[H])(C([H])([H])[H])C([H])([H])[H])C([H])([H])c2c([H])c(OC([H])([H])C([H])([H])C(=O)N([H])C3([H])C([H])([H])N(C([H])([H])C([H])(F)F)C([H])(C([H])(F)C([H])([H])N([H])C(=O)N4C([H])([H])C([H])([H])C([H])([H])C([H])(n5nc(-c6c([H])c([H])c(Oc7c([H])c([H])c(F)c([H])c7F)c([H])c6[H])c(C(=O)N([H])[H])c5N([H])[H])C4([H])[H])C3([H])[H])c([H])c([H])c2C1([H])[H]

>  <smiles>  (51) 
[H]c1c([H])c([H])c2c(c1[H])C([H])([H])C([H])([H])C([H])([H])C2([H])N([H])C(=O)C1([H])N(C(=O)C([H])(N([H])C(=O)C([H])(N([H])C([H])([H])[H])C([H])([H])[H])C(C([H])([H])[H])(C([H])([H])[H])C([H])([H])[H])C([H])([H])c2c([H])c(OC([H])([H])C([H])([H])C(=O)N([H])C3([H])C([H])([H])N(C([H])([H])C([H])(F)F)C([H])(C([H])(F)C([H])([H])N([H])C(=O)N4C([H])([H])C([H])([H])C([H])([H])C([H])(n5nc(-c6c([H])c([H])c(Oc7c([H])c([H])c(F)c([H])c7F)c([H])c6[H])c(C(=O)N([H])[H])c5N([H])[H])C4([H])[H])C3([H])[H])c([H])c([H])c2C1([H])[H]

$$$$
51:0:0
     RDKit          3D

 96105  0  0  1  0  0  0  0  0999 V2000
  -30.8650  -22.9030   19.4360 C   0  0  0  0  0  2  0  0  0  0  0  0
  -29.6470  -21.6050   20.5270 C   0  0  0  0  0  3  0  0  0  0  0  0
  -30.9820  -22.2980   20.8340 C   0  0  0  0  0  3  0  0  0  0  0  0
  -31.1320  -23.2050   22.0570 C   0  0  0  0  0  1  0  0  0  0  0  0
  -29.4190  -22.6340   19.4360 N   0  0  1  0  0  4  0  0  0  0  0  0
  -29.1400  -22.1910   18.5720 H   0  0  0  0  0  0  0  0  0  0  0  0
  -30.9070  -19.3580   19.8740 C   0  0  0  0  0  3  0  0  0  0  0  0
  -28.7580  -17.7830   20.6580 C   0  0  0  0  0  3  0  0  0  0  0  0
  -29.7190  -20.0430   20.2660 C   0  0  0  0  0  0  0  0  0  0  0  0
  -29.9620  -17.1000   20.3310 C   0  0  0  0  0  0  0  0  0  0  0  0
  -31.0340  -17.9330   19.9010 C   0  0  0  0  0  0  0  0  0  0  0  0
  -28.6370  -19.2030   20.6320 C   0  0  0  0  0  0  0  0  0  0  0  0
  -32.2090  -17.3920   19.5050 F   0  0  0  0  0  0  0  0  0  0  0  0
  -27.4650  -19.7640   21.0180 F   0  0  0  0  0  0  0  0  0  0  0  0
  -30.7630  -14.6240   19.9550 C   0  0  0  0  0  0  0  0  0  0  0  0
  -30.5220  -12.3820   18.9020 C   0  0  0  0  0  2  0  0  0  0  0  0
  -29.4910  -12.5040   17.7570 C   0  0  0  0  0  2  0  0  0  0  0  0
  -28.0520  -12.3380   18.2850 C   0  0  0  0  0  2  0  0  0  0  0  0
  -27.7750  -13.1940   19.5480 C   0  0  0  0  0  3  0  0  0  0  0  0
  -28.9070  -13.0270   20.5870 C   0  0  0  0  0  2  0  0  0  0  0  0
  -30.1720  -13.3880   19.9250 N   0  0  0  0  0  0  0  0  0  0  0  0
  -31.8890  -14.8000   19.4860 O   0  0  0  0  0  0  0  0  0  0  0  0
  -29.9590  -15.6330   20.4220 N   0  0  0  0  0  0  0  0  0  0  0  0
  -29.1360  -15.2600   20.8660 H   0  0  0  0  0  0  0  0  0  0  0  0
  -25.4540  -13.7950   20.4760 C   0  0  0  0  0  0  0  0  0  0  0  0
  -24.4070  -13.0190   20.8940 C   0  0  0  0  0  0  0  0  0  0  0  0
  -24.8430  -11.6650   20.7660 C   0  0  0  0  0  0  0  0  0  0  0  0
  -26.4620  -12.9120   20.1210 N   0  0  0  0  0  0  0  0  0  0  0  0
  -26.1030  -11.6230   20.3540 N   0  0  0  0  0  0  0  0  0  0  0  0
  -24.1140  -10.4040   20.9550 C   0  0  0  0  0  0  0  0  0  0  0  0
  -24.5390   -9.4390   21.8950 C   0  0  0  0  0  3  0  0  0  0  0  0
  -23.8100   -8.2430   22.0710 C   0  0  0  0  0  3  0  0  0  0  0  0
  -22.6430   -8.0040   21.3080 C   0  0  0  0  0  0  0  0  0  0  0  0
  -22.2370   -8.9580   20.3580 C   0  0  0  0  0  3  0  0  0  0  0  0
  -22.9670  -10.1450   20.1800 C   0  0  0  0  0  3  0  0  0  0  0  0
  -21.8860   -6.8610   21.3930 O   0  0  0  0  0  0  0  0  0  0  0  0
  -21.7580   -6.1690   22.5710 C   0  0  0  0  0  0  0  0  0  0  0  0
  -21.2220   -6.7670   23.7330 C   0  0  0  0  0  3  0  0  0  0  0  0
  -21.0440   -6.0000   24.9020 C   0  0  0  0  0  3  0  0  0  0  0  0
  -21.3910   -4.6360   24.9090 C   0  0  0  0  0  0  0  0  0  0  0  0
  -21.9200   -4.0380   23.7520 C   0  0  0  0  0  3  0  0  0  0  0  0
  -22.1000   -4.8020   22.5860 C   0  0  0  0  0  0  0  0  0  0  0  0
  -22.5900   -4.2140   21.4670 F   0  0  0  0  0  0  0  0  0  0  0  0
  -21.2130   -3.8970   26.0290 F   0  0  0  0  0  0  0  0  0  0  0  0
  -23.0420  -13.5010   21.2970 C   0  0  0  0  0  0  0  0  0  0  0  0
  -22.3780  -12.7790   22.1910 N   0  0  0  0  0  0  0  0  0  0  0  0
  -22.5780  -14.5500   20.8530 O   0  0  0  0  0  0  0  0  0  0  0  0
  -22.7670  -11.9290   22.5720 H   0  0  0  0  0  0  0  0  0  0  0  0
  -21.4660  -13.0810   22.5030 H   0  0  0  0  0  0  0  0  0  0  0  0
  -25.6280  -15.1700   20.3470 N   0  0  0  0  0  0  0  0  0  0  0  0
  -24.8770  -15.8250   20.5340 H   0  0  0  0  0  0  0  0  0  0  0  0
  -26.4390  -15.6090   19.9310 H   0  0  0  0  0  0  0  0  0  0  0  0
  -28.5260  -23.8510   19.7330 C   0  0  0  0  0  2  0  0  0  0  0  0
  -28.3520  -25.0710   17.4010 C   0  0  0  0  0  1  0  0  0  0  0  0
  -28.7500  -25.1870   18.8840 C   0  0  0  0  0  3  0  0  0  0  0  0
  -28.4900  -26.5090   19.5040 O   0  0  0  0  0  0  0  0  0  0  0  0
  -24.6880  -31.5590   22.9120 C   0  0  0  0  0  0  0  0  0  0  0  0
  -27.2900  -27.2320   19.5380 C   0  0  0  0  0  0  0  0  0  0  0  0
  -23.4550  -30.2290   21.2350 C   0  0  0  0  0  3  0  0  0  0  0  0
  -24.8840  -28.7750   19.6930 C   0  0  0  0  0  0  0  0  0  0  0  0
  -25.9780  -30.6070   20.9900 C   0  0  0  0  0  2  0  0  0  0  0  0
  -26.0590  -29.2660   20.2720 C   0  0  0  0  0  0  0  0  0  0  0  0
  -27.2590  -28.5060   20.1820 C   0  0  0  0  0  3  0  0  0  0  0  0
  -26.0770  -26.7650   18.9850 C   0  0  0  0  0  3  0  0  0  0  0  0
  -24.8930  -27.5280   19.0470 C   0  0  0  0  0  3  0  0  0  0  0  0
  -23.6370  -29.6250   19.8170 C   0  0  0  0  0  2  0  0  0  0  0  0
  -24.7270  -30.8130   21.7710 N   0  0  0  0  0  0  0  0  0  0  0  0
  -23.6170  -31.7900   23.4930 O   0  0  0  0  0  0  0  0  0  0  0  0
  -22.8370  -29.1530   22.1590 C   0  0  0  0  0  0  0  0  0  0  0  0
  -21.5070  -28.9780   22.0770 N   0  0  0  0  0  0  0  0  0  0  0  0
  -23.5510  -28.4820   22.9080 O   0  0  0  0  0  0  0  0  0  0  0  0
  -20.9900  -29.5750   21.4460 H   0  0  0  0  0  0  0  0  0  0  0  0
  -18.1520  -27.7650   22.6650 C   0  0  0  0  0  0  0  0  0  0  0  0
  -20.7220  -27.9930   22.8220 C   0  0  0  0  0  3  0  0  0  0  0  0
  -20.7840  -26.6050   22.1450 C   0  0  0  0  0  2  0  0  0  0  0  0
  -19.6300  -26.3580   21.1690 C   0  0  0  0  0  2  0  0  0  0  0  0
  -18.2840  -26.4650   21.8900 C   0  0  0  0  0  2  0  0  0  0  0  0
  -19.2960  -28.4910   23.0890 C   0  0  0  0  0  0  0  0  0  0  0  0
  -19.1180  -29.7110   23.7750 C   0  0  0  0  0  3  0  0  0  0  0  0
  -17.8270  -30.2060   24.0400 C   0  0  0  0  0  3  0  0  0  0  0  0
  -16.6970  -29.4760   23.6310 C   0  0  0  0  0  3  0  0  0  0  0  0
  -16.8610  -28.2570   22.9500 C   0  0  0  0  0  3  0  0  0  0  0  0
  -25.9790  -32.1770   23.5310 C   0  0  0  0  0  3  0  0  0  0  0  0
  -26.5680  -31.3240   24.7210 C   0  0  1  0  0  0  0  0  0  0  0  0
  -25.5280  -30.9720   25.8100 C   0  0  0  0  0  1  0  0  0  0  0  0
  -27.1680  -29.9980   24.1970 C   0  0  0  0  0  1  0  0  0  0  0  0
  -27.7270  -32.0940   25.3970 C   0  0  0  0  0  1  0  0  0  0  0  0
  -25.6480  -33.5360   23.9860 N   0  0  0  0  0  0  0  0  0  0  0  0
  -25.9340  -34.6550   23.3080 C   0  0  0  0  0  0  0  0  0  0  0  0
  -26.5740  -34.6530   22.2520 O   0  0  0  0  0  0  0  0  0  0  0  0
  -25.0760  -33.6090   24.8130 H   0  0  0  0  0  0  0  0  0  0  0  0
  -24.1630  -36.4340   23.1440 C   0  0  0  0  0  1  0  0  0  0  0  0
  -25.4290  -35.9890   23.8920 C   0  0  0  0  0  3  0  0  0  0  0  0
  -27.5600  -36.8510   24.7570 C   0  0  0  0  0  1  0  0  0  0  0  0
  -26.4380  -37.0700   23.8480 N   0  0  0  0  0  0  0  0  0  0  0  0
  -26.0160  -37.9660   24.0760 H   0  0  0  0  0  0  0  0  0  0  0  0
  1  5  1  0
  1  3  1  0
  2  9  1  0
  2  3  1  0
  3  4  1  0
  5 53  1  0
  5  2  1  0
  5  6  1  6
  7 11  2  0
  7  9  1  0
  9 12  2  0
 10 23  1  0
 10  8  2  0
 11 10  1  0
 12  8  1  0
 12 14  1  0
 13 11  1  0
 15 23  1  0
 16 21  1  0
 17 18  1  0
 17 16  1  0
 19 18  1  0
 19 28  1  0
 19 20  1  0
 21 15  1  0
 21 20  1  0
 22 15  2  0
 23 24  1  0
 25 26  2  0
 26 45  1  0
 27 26  1  0
 27 30  1  0
 28 29  1  0
 28 25  1  0
 29 27  2  0
 30 31  1  0
 31 32  2  0
 33 36  1  0
 33 32  1  0
 34 33  2  0
 35 34  1  0
 35 30  2  0
 36 37  1  0
 37 42  2  0
 37 38  1  0
 38 39  2  0
 39 40  1  0
 40 44  1  0
 41 40  2  0
 42 41  1  0
 43 42  1  0
 45 46  1  0
 46 49  1  0
 46 48  1  0
 47 45  2  0
 50 25  1  0
 50 51  1  0
 52 50  1  0
 55 54  1  0
 55 56  1  0
 55 53  1  0
 56 58  1  0
 57 68  2  0
 58 63  1  0
 59 67  1  0
 59 69  1  0
 60 66  1  0
 60 62  1  0
 61 67  1  0
 62 61  1  0
 63 62  2  0
 64 65  1  0
 64 58  2  0
 65 60  2  0
 66 59  1  0
 67 57  1  0
 69 71  2  0
 70 69  1  0
 72 70  1  0
 73 82  2  0
 73 78  1  0
 74 70  1  0
 74 78  1  0
 75 74  1  0
 76 77  1  0
 76 75  1  0
 77 73  1  0
 78 79  2  0
 79 80  1  0
 81 80  2  0
 82 81  1  0
 83 57  1  0
 83 88  1  0
 83 84  1  0
 84 87  1  1
 84 85  1  0
 86 84  1  0
 88 91  1  0
 89 93  1  0
 89 88  1  0
 90 89  2  0
 93 92  1  0
 95 93  1  0
 95 96  1  0
 95 94  1  0
M  ISO  4  15 100  23 100  55 101  56 101
M  END
>  <TORSDO>  (52) 
F 19

>  <SCORE>  (52) 
-12.594

>  <name>  (52) 
51

>  <ligand_id>  (52) 
51

>  <original_smiles>  (52) 
[H]c1c([H])c([H])c2c(c1[H])C([H])([H])C([H])([H])C([H])([H])C2([H])N([H])C(=O)C1([H])N(C(=O)C([H])(N([H])C(=O)C([H])(N([H])C([H])([H])[H])C([H])([H])[H])C(C([H])([H])[H])(C([H])([H])[H])C([H])([H])[H])C([H])([H])c2c([H])c(OC([H])(C([H])([H])[H])C([H])([H])[N+]3([H])C([H])([H])C([H])(C([H])([H])[H])C3([H])c3c([H])c(F)c(N([H])C(=O)N4C([H])([H])C([H])([H])C([H])([H])C([H])(n5nc(-c6c([H])c([H])c(Oc7c([H])c([H])c(F)c([H])c7F)c([H])c6[H])c(C(=O)N([H])[H])c5N([H])[H])C4([H])[H])c([H])c3F)c([H])c([H])c2C1([H])[H]

>  <smiles>  (52) 
[H]c1c([H])c([H])c2c(c1[H])C([H])([H])C([H])([H])C([H])([H])C2([H])N([H])C(=O)C1([H])N(C(=O)C([H])(N([H])C(=O)C([H])(N([H])C([H])([H])[H])C([H])([H])[H])C(C([H])([H])[H])(C([H])([H])[H])C([H])([H])[H])C([H])([H])c2c([H])c(OC([H])(C([H])([H])[H])C([H])([H])[N+]3([H])C([H])([H])C([H])(C([H])([H])[H])C3([H])c3c([H])c(F)c(N([H])C(=O)N4C([H])([H])C([H])([H])C([H])([H])C([H])(n5nc(-c6c([H])c([H])c(Oc7c([H])c([H])c(F)c([H])c7F)c([H])c6[H])c(C(=O)N([H])[H])c5N([H])[H])C4([H])[H])c([H])c3F)c([H])c([H])c2C1([H])[H]

$$$$
52:0:0
     RDKit          3D

 96105  0  0  1  0  0  0  0  0999 V2000
  -31.4350  -21.9780   22.0230 C   0  0  0  0  0  2  0  0  0  0  0  0
  -29.6970  -21.3270   20.3810 C   0  0  0  0  0  2  0  0  0  0  0  0
  -31.2680  -23.4400   21.5590 C   0  0  0  0  0  2  0  0  0  0  0  0
  -29.6230  -22.7680   19.9050 C   0  0  0  0  0  2  0  0  0  0  0  0
  -31.1250  -21.0240   20.8590 C   0  0  0  0  0  3  0  0  0  0  0  0
  -29.9180  -23.6630   21.0260 N   0  0  0  0  0  0  0  0  0  0  0  0
  -31.3140  -19.5280   21.1790 C   0  0  0  0  0  2  0  0  0  0  0  0
  -30.9790  -18.6750   20.0050 N   0  0  2  0  0  4  0  0  0  0  0  0
  -30.0150  -18.9030   19.8080 H   0  0  0  0  0  0  0  0  0  0  0  0
  -30.7170  -14.3630   20.5160 C   0  0  0  0  0  0  0  0  0  0  0  0
  -30.3480  -12.2400   19.3650 C   0  0  0  0  0  2  0  0  0  0  0  0
  -29.4400  -12.4900   18.1470 C   0  0  0  0  0  2  0  0  0  0  0  0
  -27.9560  -12.3870   18.5550 C   0  0  0  0  0  2  0  0  0  0  0  0
  -27.6130  -13.2230   19.8210 C   0  0  0  0  0  3  0  0  0  0  0  0
  -28.6510  -12.9930   20.9430 C   0  0  0  0  0  2  0  0  0  0  0  0
  -29.9870  -13.2320   20.3840 N   0  0  0  0  0  0  0  0  0  0  0  0
  -31.8850  -14.4550   20.1380 O   0  0  0  0  0  0  0  0  0  0  0  0
  -30.5380  -16.6230   21.5960 C   0  0  0  0  0  2  0  0  0  0  0  0
  -29.7660  -16.4500   19.7190 C   0  0  0  0  0  2  0  0  0  0  0  0
  -30.9730  -17.2160   20.2550 C   0  0  0  0  0  3  0  0  0  0  0  0
  -30.0100  -15.4770   20.8080 N   0  0  0  0  0  0  0  0  0  0  0  0
  -25.2000  -13.8380   20.4750 C   0  0  0  0  0  0  0  0  0  0  0  0
  -24.1260  -13.0680   20.8350 C   0  0  0  0  0  0  0  0  0  0  0  0
  -24.5900  -11.7180   20.8350 C   0  0  0  0  0  0  0  0  0  0  0  0
  -26.2520  -12.9560   20.2790 N   0  0  0  0  0  0  0  0  0  0  0  0
  -25.8860  -11.6780   20.5530 N   0  0  0  0  0  0  0  0  0  0  0  0
  -23.8630  -10.4580   21.0310 C   0  0  0  0  0  0  0  0  0  0  0  0
  -24.2960   -9.4950   21.9680 C   0  0  0  0  0  3  0  0  0  0  0  0
  -23.5700   -8.2980   22.1520 C   0  0  0  0  0  3  0  0  0  0  0  0
  -22.3950   -8.0590   21.3990 C   0  0  0  0  0  0  0  0  0  0  0  0
  -21.9830   -9.0110   20.4500 C   0  0  0  0  0  3  0  0  0  0  0  0
  -22.7110  -10.1970   20.2620 C   0  0  0  0  0  3  0  0  0  0  0  0
  -21.6360   -6.9170   21.4950 O   0  0  0  0  0  0  0  0  0  0  0  0
  -21.6030   -6.1690   22.6450 C   0  0  0  0  0  0  0  0  0  0  0  0
  -21.2140   -6.7230   23.8830 C   0  0  0  0  0  3  0  0  0  0  0  0
  -21.1250   -5.9030   25.0250 C   0  0  0  0  0  3  0  0  0  0  0  0
  -21.4150   -4.5290   24.9300 C   0  0  0  0  0  0  0  0  0  0  0  0
  -21.7980   -3.9740   23.6960 C   0  0  0  0  0  3  0  0  0  0  0  0
  -21.8890   -4.7920   22.5570 C   0  0  0  0  0  0  0  0  0  0  0  0
  -22.2360   -4.2470   21.3660 F   0  0  0  0  0  0  0  0  0  0  0  0
  -21.3230   -3.7390   26.0250 F   0  0  0  0  0  0  0  0  0  0  0  0
  -22.7240  -13.5460   21.0750 C   0  0  0  0  0  0  0  0  0  0  0  0
  -21.9830  -12.8640   21.9410 N   0  0  0  0  0  0  0  0  0  0  0  0
  -22.2930  -14.5610   20.5320 O   0  0  0  0  0  0  0  0  0  0  0  0
  -22.3430  -12.0420   22.4030 H   0  0  0  0  0  0  0  0  0  0  0  0
  -21.0390  -13.1640   22.1450 H   0  0  0  0  0  0  0  0  0  0  0  0
  -25.3600  -15.2060   20.2800 N   0  0  0  0  0  0  0  0  0  0  0  0
  -24.5860  -15.8570   20.3600 H   0  0  0  0  0  0  0  0  0  0  0  0
  -26.2190  -15.6520   19.9850 H   0  0  0  0  0  0  0  0  0  0  0  0
  -33.2550  -19.0200   18.8780 C   0  0  0  0  0  1  0  0  0  0  0  0
  -31.7160  -19.0000   18.7430 C   0  0  0  0  0  2  0  0  0  0  0  0
  -29.7920  -25.0610   20.5910 C   0  0  0  0  0  2  0  0  0  0  0  0
  -28.3670  -25.4620   20.1420 C   0  0  1  0  0  0  0  0  0  0  0  0
  -28.0880  -24.9850   18.9020 F   0  0  0  0  0  0  0  0  0  0  0  0
  -27.4810  -24.9490   21.0350 F   0  0  0  0  0  0  0  0  0  0  0  0
  -28.3370  -26.8130   20.1370 O   0  0  0  0  0  0  0  0  0  0  0  0
  -24.5290  -31.8790   23.2160 C   0  0  0  0  0  0  0  0  0  0  0  0
  -27.1300  -27.4650   20.1180 C   0  0  0  0  0  0  0  0  0  0  0  0
  -23.2950  -30.4750   21.5920 C   0  0  0  0  0  3  0  0  0  0  0  0
  -24.7260  -28.9340   20.1550 C   0  0  0  0  0  0  0  0  0  0  0  0
  -25.8130  -30.8410   21.3570 C   0  0  0  0  0  2  0  0  0  0  0  0
  -25.8840  -29.4710   20.7250 C   0  0  0  0  0  0  0  0  0  0  0  0
  -27.0880  -28.7410   20.7060 C   0  0  0  0  0  3  0  0  0  0  0  0
  -25.9530  -26.9280   19.5440 C   0  0  0  0  0  3  0  0  0  0  0  0
  -24.7500  -27.6580   19.5640 C   0  0  0  0  0  3  0  0  0  0  0  0
  -23.4810  -29.7870   20.2140 C   0  0  0  0  0  2  0  0  0  0  0  0
  -24.5640  -31.0800   22.1140 N   0  0  0  0  0  0  0  0  0  0  0  0
  -23.4570  -32.1570   23.7700 O   0  0  0  0  0  0  0  0  0  0  0  0
  -22.6560  -29.4590   22.5630 C   0  0  0  0  0  0  0  0  0  0  0  0
  -21.3310  -29.2820   22.4500 N   0  0  0  0  0  0  0  0  0  0  0  0
  -23.3470  -28.8330   23.3700 O   0  0  0  0  0  0  0  0  0  0  0  0
  -20.8370  -29.8420   21.7680 H   0  0  0  0  0  0  0  0  0  0  0  0
  -17.9560  -28.1040   22.9680 C   0  0  0  0  0  0  0  0  0  0  0  0
  -20.5160  -28.3510   23.2270 C   0  0  0  0  0  3  0  0  0  0  0  0
  -20.6100  -26.9170   22.6560 C   0  0  0  0  0  2  0  0  0  0  0  0
  -19.5010  -26.5930   21.6500 C   0  0  0  0  0  2  0  0  0  0  0  0
  -18.1230  -26.7490   22.2990 C   0  0  0  0  0  2  0  0  0  0  0  0
  -19.0800  -28.8630   23.3870 C   0  0  0  0  0  0  0  0  0  0  0  0
  -18.8700  -30.1330   23.9680 C   0  0  0  0  0  3  0  0  0  0  0  0
  -17.5680  -30.6420   24.1350 C   0  0  0  0  0  3  0  0  0  0  0  0
  -16.4590  -29.8780   23.7330 C   0  0  0  0  0  3  0  0  0  0  0  0
  -16.6530  -28.6110   23.1550 C   0  0  0  0  0  3  0  0  0  0  0  0
  -25.8270  -32.5020   23.8210 C   0  0  0  0  0  3  0  0  0  0  0  0
  -25.5290  -33.8980   24.1660 N   0  0  0  0  0  0  0  0  0  0  0  0
  -25.8540  -34.9540   23.4080 C   0  0  0  0  0  0  0  0  0  0  0  0
  -26.5110  -34.8540   22.3680 O   0  0  0  0  0  0  0  0  0  0  0  0
  -24.9480  -34.0500   24.9780 H   0  0  0  0  0  0  0  0  0  0  0  0
  -24.1270  -36.7500   23.0790 C   0  0  0  0  0  1  0  0  0  0  0  0
  -25.3740  -36.3390   23.8790 C   0  0  0  0  0  3  0  0  0  0  0  0
  -27.5180  -37.2100   24.6960 C   0  0  0  0  0  1  0  0  0  0  0  0
  -26.4080  -37.3900   23.7650 N   0  0  0  0  0  0  0  0  0  0  0  0
  -26.0060  -38.3100   23.9240 H   0  0  0  0  0  0  0  0  0  0  0  0
  -26.3680  -31.7180   25.0790 C   0  0  1  0  0  0  0  0  0  0  0  0
  -25.2980  -31.4730   26.1670 C   0  0  0  0  0  1  0  0  0  0  0  0
  -26.9400  -30.3430   24.6580 C   0  0  0  0  0  1  0  0  0  0  0  0
  -27.5360  -32.5030   25.7240 C   0  0  0  0  0  1  0  0  0  0  0  0
  2  5  1  0
  3  1  1  0
  4  2  1  0
  4  6  1  0
  5  7  1  0
  5  1  1  0
  6  3  1  0
  8  7  1  0
  8  9  1  6
 10 21  1  0
 11 16  1  0
 12 13  1  0
 12 11  1  0
 14 13  1  0
 14 25  1  0
 14 15  1  0
 16 10  1  0
 16 15  1  0
 17 10  2  0
 19 20  1  0
 19 21  1  0
 20  8  1  0
 20 18  1  0
 21 18  1  0
 22 23  2  0
 23 24  1  0
 23 42  1  0
 24 27  1  0
 25 22  1  0
 25 26  1  0
 26 24  2  0
 27 28  1  0
 28 29  2  0
 30 33  1  0
 30 29  1  0
 31 30  2  0
 32 31  1  0
 32 27  2  0
 33 34  1  0
 34 35  1  0
 35 36  2  0
 37 36  1  0
 37 41  1  0
 38 37  2  0
 39 34  2  0
 39 38  1  0
 40 39  1  0
 42 43  1  0
 43 46  1  0
 43 45  1  0
 44 42  2  0
 47 48  1  0
 47 22  1  0
 49 47  1  0
 51 50  1  0
 51  8  1  0
 52  6  1  0
 53 52  1  0
 53 55  1  1
 54 53  1  0
 56 53  1  0
 57 68  2  0
 58 56  1  0
 58 63  1  0
 59 67  1  0
 59 69  1  0
 60 66  1  0
 60 62  1  0
 61 67  1  0
 62 61  1  0
 63 62  2  0
 64 65  1  0
 64 58  2  0
 65 60  2  0
 66 59  1  0
 67 57  1  0
 69 71  2  0
 70 69  1  0
 72 70  1  0
 73 82  2  0
 73 78  1  0
 74 70  1  0
 74 78  1  0
 75 74  1  0
 76 77  1  0
 76 75  1  0
 77 73  1  0
 78 79  2  0
 79 80  1  0
 81 80  2  0
 82 81  1  0
 83 57  1  0
 83 84  1  0
 83 93  1  0
 84 87  1  0
 85 89  1  0
 85 84  1  0
 86 85  2  0
 89 88  1  0
 91 89  1  0
 91 92  1  0
 91 90  1  0
 93 96  1  1
 93 94  1  0
 95 93  1  0
M  ISO  4  10 100  21 100  53 101  56 101
M  END
>  <TORSDO>  (53) 
F 21

>  <SCORE>  (53) 
-13.378

>  <name>  (53) 
52

>  <ligand_id>  (53) 
52

>  <original_smiles>  (53) 
[H]c1c([H])c([H])c2c(c1[H])C([H])([H])C([H])([H])C([H])([H])C2([H])N([H])C(=O)C1([H])N(C(=O)C([H])(N([H])C(=O)C([H])(N([H])C([H])([H])[H])C([H])([H])[H])C(C([H])([H])[H])(C([H])([H])[H])C([H])([H])[H])C([H])([H])c2c([H])c(OC(F)(F)C([H])([H])N3C([H])([H])C([H])([H])C([H])(C([H])([H])[N+]([H])(C([H])([H])C([H])([H])[H])C4([H])C([H])([H])N(C(=O)N5C([H])([H])C([H])([H])C([H])([H])C([H])(n6nc(-c7c([H])c([H])c(Oc8c([H])c([H])c(F)c([H])c8F)c([H])c7[H])c(C(=O)N([H])[H])c6N([H])[H])C5([H])[H])C4([H])[H])C([H])([H])C3([H])[H])c([H])c([H])c2C1([H])[H]

>  <smiles>  (53) 
[H]c1c([H])c([H])c2c(c1[H])C([H])([H])C([H])([H])C([H])([H])C2([H])N([H])C(=O)C1([H])N(C(=O)C([H])(N([H])C(=O)C([H])(N([H])C([H])([H])[H])C([H])([H])[H])C(C([H])([H])[H])(C([H])([H])[H])C([H])([H])[H])C([H])([H])c2c([H])c(OC(F)(F)C([H])([H])N3C([H])([H])C([H])([H])C([H])(C([H])([H])[N+]([H])(C([H])([H])C([H])([H])[H])C4([H])C([H])([H])N(C(=O)N5C([H])([H])C([H])([H])C([H])([H])C([H])(n6nc(-c7c([H])c([H])c(Oc8c([H])c([H])c(F)c([H])c8F)c([H])c7[H])c(C(=O)N([H])[H])c6N([H])[H])C5([H])[H])C4([H])[H])C([H])([H])C3([H])[H])c([H])c([H])c2C1([H])[H]

$$$$
53:0:0
     RDKit          3D

 96104  0  0  1  0  0  0  0  0999 V2000
  -31.3510  -23.1600   21.9000 C   0  0  0  0  0  2  0  0  0  0  0  0
  -31.1950  -24.0840   20.6930 C   0  0  0  0  0  0  0  0  0  0  0  0
  -31.0300  -25.3850   20.9640 N   0  0  0  0  0  0  0  0  0  0  0  0
  -31.2470  -23.6320   19.5470 O   0  0  0  0  0  0  0  0  0  0  0  0
  -31.0090  -25.6550   21.9390 H   0  0  0  0  0  0  0  0  0  0  0  0
  -30.9060  -26.4670   19.9910 C   0  0  0  0  0  2  0  0  0  0  0  0
  -29.7390  -27.3960   20.3550 C   0  0  0  0  0  2  0  0  0  0  0  0
  -28.5170  -26.7290   20.0570 O   0  0  0  0  0  0  0  0  0  0  0  0
  -24.4750  -31.7250   23.1970 C   0  0  0  0  0  0  0  0  0  0  0  0
  -27.3520  -27.4600   20.1090 C   0  0  0  0  0  0  0  0  0  0  0  0
  -23.3510  -30.3180   21.4970 C   0  0  0  0  0  3  0  0  0  0  0  0
  -24.8900  -28.8510   20.0890 C   0  0  0  0  0  0  0  0  0  0  0  0
  -25.8610  -30.7710   21.3650 C   0  0  0  0  0  2  0  0  0  0  0  0
  -26.0090  -29.4140   20.7130 C   0  0  0  0  0  0  0  0  0  0  0  0
  -27.2390  -28.7270   20.7280 C   0  0  0  0  0  3  0  0  0  0  0  0
  -26.2120  -26.8980   19.4980 C   0  0  0  0  0  3  0  0  0  0  0  0
  -24.9830  -27.5870   19.4810 C   0  0  0  0  0  3  0  0  0  0  0  0
  -23.6160  -29.6660   20.1120 C   0  0  0  0  0  2  0  0  0  0  0  0
  -24.5780  -30.9510   22.0800 N   0  0  0  0  0  0  0  0  0  0  0  0
  -23.3730  -31.9540   23.7160 O   0  0  0  0  0  0  0  0  0  0  0  0
  -22.7080  -29.2610   22.4220 C   0  0  0  0  0  0  0  0  0  0  0  0
  -21.3920  -29.0530   22.2650 N   0  0  0  0  0  0  0  0  0  0  0  0
  -23.3910  -28.6320   23.2350 O   0  0  0  0  0  0  0  0  0  0  0  0
  -20.9000  -29.6140   21.5830 H   0  0  0  0  0  0  0  0  0  0  0  0
  -18.0300  -27.8030   22.6910 C   0  0  0  0  0  0  0  0  0  0  0  0
  -20.5820  -28.0810   22.9980 C   0  0  0  0  0  3  0  0  0  0  0  0
  -20.7070  -26.6710   22.3780 C   0  0  0  0  0  2  0  0  0  0  0  0
  -19.6200  -26.3680   21.3420 C   0  0  0  0  0  2  0  0  0  0  0  0
  -18.2310  -26.4760   21.9770 C   0  0  0  0  0  2  0  0  0  0  0  0
  -19.1360  -28.5630   23.1580 C   0  0  0  0  0  0  0  0  0  0  0  0
  -18.8970  -29.8040   23.7860 C   0  0  0  0  0  3  0  0  0  0  0  0
  -17.5850  -30.2870   23.9520 C   0  0  0  0  0  3  0  0  0  0  0  0
  -16.4940  -29.5230   23.5020 C   0  0  0  0  0  3  0  0  0  0  0  0
  -16.7170  -28.2830   22.8780 C   0  0  0  0  0  3  0  0  0  0  0  0
  -25.7260  -32.3790   23.8610 C   0  0  0  0  0  3  0  0  0  0  0  0
  -25.3820  -33.7700   24.1780 N   0  0  0  0  0  0  0  0  0  0  0  0
  -25.7310  -34.8280   23.4330 C   0  0  0  0  0  0  0  0  0  0  0  0
  -26.4480  -34.7350   22.4330 O   0  0  0  0  0  0  0  0  0  0  0  0
  -24.7490  -33.9160   24.9520 H   0  0  0  0  0  0  0  0  0  0  0  0
  -23.9970  -36.5940   22.9940 C   0  0  0  0  0  1  0  0  0  0  0  0
  -25.2000  -36.2070   23.8670 C   0  0  0  0  0  3  0  0  0  0  0  0
  -27.2760  -37.1210   24.8060 C   0  0  0  0  0  1  0  0  0  0  0  0
  -26.2220  -37.2760   23.8080 N   0  0  0  0  0  0  0  0  0  0  0  0
  -25.7960  -38.1900   23.9350 H   0  0  0  0  0  0  0  0  0  0  0  0
  -26.2190  -31.6140   25.1510 C   0  0  1  0  0  0  0  0  0  0  0  0
  -25.0950  -31.3480   26.1810 C   0  0  0  0  0  1  0  0  0  0  0  0
  -26.8440  -30.2520   24.7690 C   0  0  0  0  0  1  0  0  0  0  0  0
  -27.3280  -32.4310   25.8530 C   0  0  0  0  0  1  0  0  0  0  0  0
  -32.3530  -20.9940   22.4950 C   0  0  0  0  0  1  0  0  0  0  0  0
  -31.5210  -21.7360   21.5130 N   0  0  1  0  0  4  0  0  0  0  0  0
  -32.0430  -21.7760   20.6490 H   0  0  0  0  0  0  0  0  0  0  0  0
  -30.2290  -21.0670   21.1860 C   0  0  0  0  0  2  0  0  0  0  0  0
  -30.6720  -18.8890   19.9120 C   0  0  0  0  0  3  0  0  0  0  0  0
  -29.9780  -18.7660   22.2430 C   0  0  0  0  0  3  0  0  0  0  0  0
  -30.7180  -17.4790   19.8540 C   0  0  0  0  0  3  0  0  0  0  0  0
  -30.0120  -17.3610   22.1820 C   0  0  0  0  0  3  0  0  0  0  0  0
  -30.3000  -19.5420   21.1090 C   0  0  0  0  0  0  0  0  0  0  0  0
  -30.3840  -16.7030   20.9910 C   0  0  0  0  0  0  0  0  0  0  0  0
  -30.8590  -14.4160   20.1120 C   0  0  0  0  0  0  0  0  0  0  0  0
  -30.4900  -12.2930   18.9150 C   0  0  0  0  0  2  0  0  0  0  0  0
  -29.4910  -12.5260   17.7630 C   0  0  0  0  0  2  0  0  0  0  0  0
  -28.0380  -12.3900   18.2600 C   0  0  0  0  0  2  0  0  0  0  0  0
  -27.7680  -13.2040   19.5540 C   0  0  0  0  0  3  0  0  0  0  0  0
  -28.8710  -12.9440   20.6030 C   0  0  0  0  0  2  0  0  0  0  0  0
  -30.1790  -13.2450   19.9900 N   0  0  0  0  0  0  0  0  0  0  0  0
  -31.8870  -14.6700   19.4760 O   0  0  0  0  0  0  0  0  0  0  0  0
  -30.3250  -15.2800   20.9880 N   0  0  0  0  0  0  0  0  0  0  0  0
  -29.6470  -14.8720   21.6130 H   0  0  0  0  0  0  0  0  0  0  0  0
  -25.3980  -13.8090   20.3680 C   0  0  0  0  0  0  0  0  0  0  0  0
  -24.3500  -13.0330   20.7870 C   0  0  0  0  0  0  0  0  0  0  0  0
  -24.8140  -11.6840   20.7380 C   0  0  0  0  0  0  0  0  0  0  0  0
  -26.4360  -12.9300   20.0910 N   0  0  0  0  0  0  0  0  0  0  0  0
  -26.0890  -11.6480   20.3690 N   0  0  0  0  0  0  0  0  0  0  0  0
  -24.1040  -10.4190   20.9670 C   0  0  0  0  0  0  0  0  0  0  0  0
  -24.5420   -9.4910   21.9380 C   0  0  0  0  0  3  0  0  0  0  0  0
  -23.8320   -8.2900   22.1500 C   0  0  0  0  0  3  0  0  0  0  0  0
  -22.6710   -8.0080   21.3930 C   0  0  0  0  0  0  0  0  0  0  0  0
  -22.2510   -8.9250   20.4140 C   0  0  0  0  0  3  0  0  0  0  0  0
  -22.9620  -10.1170   20.1980 C   0  0  0  0  0  3  0  0  0  0  0  0
  -21.9330   -6.8560   21.5140 O   0  0  0  0  0  0  0  0  0  0  0  0
  -21.8240   -6.1910   22.7100 C   0  0  0  0  0  0  0  0  0  0  0  0
  -21.3030   -6.8170   23.8640 C   0  0  0  0  0  3  0  0  0  0  0  0
  -21.1420   -6.0780   25.0530 C   0  0  0  0  0  3  0  0  0  0  0  0
  -21.4930   -4.7150   25.0890 C   0  0  0  0  0  0  0  0  0  0  0  0
  -22.0050   -4.0890   23.9400 C   0  0  0  0  0  3  0  0  0  0  0  0
  -22.1680   -4.8250   22.7530 C   0  0  0  0  0  0  0  0  0  0  0  0
  -22.6420   -4.2120   21.6410 F   0  0  0  0  0  0  0  0  0  0  0  0
  -21.3300   -4.0020   26.2290 F   0  0  0  0  0  0  0  0  0  0  0  0
  -22.9660  -13.5060   21.1270 C   0  0  0  0  0  0  0  0  0  0  0  0
  -22.2960  -12.8280   22.0510 N   0  0  0  0  0  0  0  0  0  0  0  0
  -22.4890  -14.5130   20.6050 O   0  0  0  0  0  0  0  0  0  0  0  0
  -22.6970  -12.0150   22.4970 H   0  0  0  0  0  0  0  0  0  0  0  0
  -21.3690  -13.1280   22.3200 H   0  0  0  0  0  0  0  0  0  0  0  0
  -25.5500  -15.1800   20.1850 N   0  0  0  0  0  0  0  0  0  0  0  0
  -24.7900  -15.8340   20.3350 H   0  0  0  0  0  0  0  0  0  0  0  0
  -26.3930  -15.6240   19.8420 H   0  0  0  0  0  0  0  0  0  0  0  0
  2  3  1  0
  2  1  1  0
  3  5  1  0
  4  2  2  0
  6  7  1  0
  6  3  1  0
  8 10  1  0
  8  7  1  0
  9 20  2  0
 10 15  1  0
 11 19  1  0
 11 21  1  0
 12 18  1  0
 12 14  1  0
 13 19  1  0
 14 15  2  0
 14 13  1  0
 16 10  2  0
 17 16  1  0
 17 12  2  0
 18 11  1  0
 19  9  1  0
 21 23  2  0
 22 21  1  0
 24 22  1  0
 25 34  2  0
 25 30  1  0
 26 22  1  0
 26 30  1  0
 27 26  1  0
 28 29  1  0
 28 27  1  0
 29 25  1  0
 30 31  2  0
 31 32  1  0
 33 32  2  0
 34 33  1  0
 35  9  1  0
 35 36  1  0
 35 45  1  0
 36 39  1  0
 37 41  1  0
 37 36  1  0
 38 37  2  0
 41 40  1  0
 43 41  1  0
 43 44  1  0
 43 42  1  0
 45 48  1  1
 45 46  1  0
 47 45  1  0
 50  1  1  0
 50 49  1  0
 50 51  1  6
 52 50  1  0
 53 57  1  0
 55 53  2  0
 55 58  1  0
 56 54  1  0
 57 52  1  0
 57 54  2  0
 58 56  2  0
 59 67  1  0
 60 65  1  0
 61 62  1  0
 61 60  1  0
 63 62  1  0
 63 72  1  0
 63 64  1  0
 65 59  1  0
 65 64  1  0
 66 59  2  0
 67 58  1  0
 67 68  1  0
 69 70  2  0
 70 89  1  0
 71 70  1  0
 71 74  1  0
 72 69  1  0
 72 73  1  0
 73 71  2  0
 74 75  1  0
 75 76  2  0
 77 80  1  0
 77 76  1  0
 78 77  2  0
 79 78  1  0
 79 74  2  0
 80 81  1  0
 81 86  2  0
 81 82  1  0
 82 83  2  0
 83 84  1  0
 84 88  1  0
 85 84  2  0
 86 85  1  0
 87 86  1  0
 89 90  1  0
 90 93  1  0
 90 92  1  0
 91 89  2  0
 94 95  1  0
 94 69  1  0
 96 94  1  0
M  ISO  4   7 101   8 101  59 100  67 100
M  END
>  <TORSDO>  (54) 
F 22

>  <SCORE>  (54) 
-11.706

>  <name>  (54) 
53

>  <ligand_id>  (54) 
53

>  <original_smiles>  (54) 
[H]c1c([H])c([H])c2c(c1[H])C([H])([H])C([H])([H])C([H])([H])C2([H])N([H])C(=O)C1([H])N(C(=O)C([H])(N([H])C(=O)C([H])(N([H])C([H])([H])[H])C([H])([H])[H])C(C([H])([H])[H])(C([H])([H])[H])C([H])([H])[H])C([H])([H])c2c([H])c(OC([H])([H])C([H])([H])N([H])C(=O)C([H])([H])[N+]([H])(C([H])([H])[H])C([H])([H])c3c([H])c([H])c(N([H])C(=O)N4C([H])([H])C([H])([H])C([H])([H])C([H])(n5nc(-c6c([H])c([H])c(Oc7c([H])c([H])c(F)c([H])c7F)c([H])c6[H])c(C(=O)N([H])[H])c5N([H])[H])C4([H])[H])c([H])c3[H])c([H])c([H])c2C1([H])[H]

>  <smiles>  (54) 
[H]c1c([H])c([H])c2c(c1[H])C([H])([H])C([H])([H])C([H])([H])C2([H])N([H])C(=O)C1([H])N(C(=O)C([H])(N([H])C(=O)C([H])(N([H])C([H])([H])[H])C([H])([H])[H])C(C([H])([H])[H])(C([H])([H])[H])C([H])([H])[H])C([H])([H])c2c([H])c(OC([H])([H])C([H])([H])N([H])C(=O)C([H])([H])[N+]([H])(C([H])([H])[H])C([H])([H])c3c([H])c([H])c(N([H])C(=O)N4C([H])([H])C([H])([H])C([H])([H])C([H])(n5nc(-c6c([H])c([H])c(Oc7c([H])c([H])c(F)c([H])c7F)c([H])c6[H])c(C(=O)N([H])[H])c5N([H])[H])C4([H])[H])c([H])c3[H])c([H])c([H])c2C1([H])[H]

$$$$
54:0:0
     RDKit          3D

 92101  0  0  1  0  0  0  0  0999 V2000
  -28.5790  -22.1000   21.2310 C   0  0  0  0  0  2  0  0  0  0  0  0
  -29.8600  -21.5370   20.6440 C   0  0  0  0  0  3  0  0  0  0  0  0
  -29.0560  -22.6710   19.9250 C   0  0  0  0  0  3  0  0  0  0  0  0
  -29.4710  -19.2260   21.6200 C   0  0  0  0  0  3  0  0  0  0  0  0
  -29.5240  -17.8120   21.6370 C   0  0  0  0  0  3  0  0  0  0  0  0
  -30.4340  -17.8250   19.4020 C   0  0  0  0  0  3  0  0  0  0  0  0
  -29.8780  -19.9920   20.4980 C   0  0  0  0  0  0  0  0  0  0  0  0
  -30.0130  -17.0730   20.5350 C   0  0  0  0  0  0  0  0  0  0  0  0
  -30.3670  -19.2560   19.3810 C   0  0  0  0  0  0  0  0  0  0  0  0
  -30.7910  -19.9220   18.2780 F   0  0  0  0  0  0  0  0  0  0  0  0
  -30.6720  -14.6340   20.0200 C   0  0  0  0  0  0  0  0  0  0  0  0
  -30.3850  -12.4400   18.9030 C   0  0  0  0  0  2  0  0  0  0  0  0
  -29.3640  -12.6230   17.7570 C   0  0  0  0  0  2  0  0  0  0  0  0
  -27.9200  -12.4480   18.2740 C   0  0  0  0  0  2  0  0  0  0  0  0
  -27.6440  -13.2680   19.5610 C   0  0  0  0  0  3  0  0  0  0  0  0
  -28.7710  -13.0630   20.6000 C   0  0  0  0  0  2  0  0  0  0  0  0
  -30.0520  -13.4150   19.9590 N   0  0  0  0  0  0  0  0  0  0  0  0
  -31.7640  -14.8400   19.4850 O   0  0  0  0  0  0  0  0  0  0  0  0
  -29.9600  -15.6230   20.6260 N   0  0  0  0  0  0  0  0  0  0  0  0
  -29.1970  -15.2660   21.1810 H   0  0  0  0  0  0  0  0  0  0  0  0
  -25.2990  -13.8390   20.4520 C   0  0  0  0  0  0  0  0  0  0  0  0
  -24.2550  -13.0530   20.8620 C   0  0  0  0  0  0  0  0  0  0  0  0
  -24.7110  -11.7030   20.7480 C   0  0  0  0  0  0  0  0  0  0  0  0
  -26.3250  -12.9690   20.1190 N   0  0  0  0  0  0  0  0  0  0  0  0
  -25.9780  -11.6760   20.3550 N   0  0  0  0  0  0  0  0  0  0  0  0
  -23.9970  -10.4340   20.9430 C   0  0  0  0  0  0  0  0  0  0  0  0
  -24.4450   -9.4680   21.8720 C   0  0  0  0  0  3  0  0  0  0  0  0
  -23.7320   -8.2630   22.0500 C   0  0  0  0  0  3  0  0  0  0  0  0
  -22.5550   -8.0160   21.3030 C   0  0  0  0  0  0  0  0  0  0  0  0
  -22.1280   -8.9710   20.3640 C   0  0  0  0  0  3  0  0  0  0  0  0
  -22.8410  -10.1670   20.1820 C   0  0  0  0  0  3  0  0  0  0  0  0
  -21.8130   -6.8620   21.3940 O   0  0  0  0  0  0  0  0  0  0  0  0
  -21.7160   -6.1590   22.5680 C   0  0  0  0  0  0  0  0  0  0  0  0
  -21.2180   -6.7480   23.7510 C   0  0  0  0  0  3  0  0  0  0  0  0
  -21.0700   -5.9700   24.9160 C   0  0  0  0  0  3  0  0  0  0  0  0
  -21.4070   -4.6030   24.8980 C   0  0  0  0  0  0  0  0  0  0  0  0
  -21.8990   -4.0130   23.7200 C   0  0  0  0  0  3  0  0  0  0  0  0
  -22.0500   -4.7900   22.5580 C   0  0  0  0  0  0  0  0  0  0  0  0
  -22.5050   -4.2120   21.4200 F   0  0  0  0  0  0  0  0  0  0  0  0
  -21.2580   -3.8530   26.0160 F   0  0  0  0  0  0  0  0  0  0  0  0
  -22.8800  -13.5200   21.2410 C   0  0  0  0  0  0  0  0  0  0  0  0
  -22.2130  -12.8000   22.1380 N   0  0  0  0  0  0  0  0  0  0  0  0
  -22.4040  -14.5560   20.7780 O   0  0  0  0  0  0  0  0  0  0  0  0
  -22.6100  -11.9640   22.5390 H   0  0  0  0  0  0  0  0  0  0  0  0
  -21.2920  -13.0930   22.4300 H   0  0  0  0  0  0  0  0  0  0  0  0
  -25.4500  -15.2170   20.3140 N   0  0  0  0  0  0  0  0  0  0  0  0
  -24.6880  -15.8620   20.4900 H   0  0  0  0  0  0  0  0  0  0  0  0
  -26.2780  -15.6720   19.9500 H   0  0  0  0  0  0  0  0  0  0  0  0
  -29.4090  -24.2000   19.9200 C   0  0  0  0  0  3  0  0  0  0  0  0
  -30.0460  -24.5010   21.0560 F   0  0  0  0  0  0  0  0  0  0  0  0
  -28.1730  -25.1670   19.7660 C   0  0  0  0  0  2  0  0  0  0  0  0
  -28.3410  -26.6000   20.0470 O   0  0  0  0  0  0  0  0  0  0  0  0
  -24.6290  -31.8880   23.2480 C   0  0  0  0  0  0  0  0  0  0  0  0
  -27.1910  -27.4010   20.0650 C   0  0  0  0  0  0  0  0  0  0  0  0
  -23.3940  -30.5180   21.6080 C   0  0  0  0  0  3  0  0  0  0  0  0
  -24.8180  -28.9850   20.1440 C   0  0  0  0  0  0  0  0  0  0  0  0
  -25.9310  -30.8370   21.3850 C   0  0  0  0  0  2  0  0  0  0  0  0
  -25.9950  -29.4690   20.7230 C   0  0  0  0  0  0  0  0  0  0  0  0
  -27.1860  -28.6890   20.6740 C   0  0  0  0  0  3  0  0  0  0  0  0
  -25.9810  -26.9560   19.4800 C   0  0  0  0  0  3  0  0  0  0  0  0
  -24.8080  -27.7290   19.5190 C   0  0  0  0  0  3  0  0  0  0  0  0
  -23.5840  -29.8590   20.2180 C   0  0  0  0  0  2  0  0  0  0  0  0
  -24.6720  -31.0960   22.1370 N   0  0  0  0  0  0  0  0  0  0  0  0
  -23.5550  -32.1630   23.8010 O   0  0  0  0  0  0  0  0  0  0  0  0
  -22.7430  -29.4890   22.5620 C   0  0  0  0  0  0  0  0  0  0  0  0
  -21.4190  -29.3000   22.4350 N   0  0  0  0  0  0  0  0  0  0  0  0
  -23.4290  -28.8630   23.3770 O   0  0  0  0  0  0  0  0  0  0  0  0
  -20.9270  -29.8570   21.7500 H   0  0  0  0  0  0  0  0  0  0  0  0
  -18.0560  -28.0630   22.9080 C   0  0  0  0  0  0  0  0  0  0  0  0
  -20.6080  -28.3550   23.2020 C   0  0  0  0  0  3  0  0  0  0  0  0
  -20.7310  -26.9230   22.6290 C   0  0  0  0  0  2  0  0  0  0  0  0
  -19.6420  -26.5840   21.6080 C   0  0  0  0  0  2  0  0  0  0  0  0
  -18.2540  -26.7140   22.2400 C   0  0  0  0  0  2  0  0  0  0  0  0
  -19.1600  -28.8410   23.3470 C   0  0  0  0  0  0  0  0  0  0  0  0
  -18.9190  -30.1050   23.9320 C   0  0  0  0  0  3  0  0  0  0  0  0
  -17.6060  -30.5880   24.0870 C   0  0  0  0  0  3  0  0  0  0  0  0
  -16.5160  -29.8090   23.6640 C   0  0  0  0  0  3  0  0  0  0  0  0
  -16.7430  -28.5490   23.0820 C   0  0  0  0  0  3  0  0  0  0  0  0
  -25.9230  -32.5050   23.8600 C   0  0  0  0  0  3  0  0  0  0  0  0
  -26.4530  -31.7140   25.1190 C   0  0  1  0  0  0  0  0  0  0  0  0
  -25.3720  -31.4670   26.1960 C   0  0  0  0  0  1  0  0  0  0  0  0
  -27.0240  -30.3400   24.7000 C   0  0  0  0  0  1  0  0  0  0  0  0
  -27.6150  -32.4950   25.7770 C   0  0  0  0  0  1  0  0  0  0  0  0
  -25.6270  -33.9010   24.2090 N   0  0  0  0  0  0  0  0  0  0  0  0
  -25.9420  -34.9590   23.4480 C   0  0  0  0  0  0  0  0  0  0  0  0
  -26.5820  -34.8600   22.3980 O   0  0  0  0  0  0  0  0  0  0  0  0
  -25.0540  -34.0500   25.0280 H   0  0  0  0  0  0  0  0  0  0  0  0
  -24.1970  -36.7500   23.1710 C   0  0  0  0  0  1  0  0  0  0  0  0
  -25.4710  -36.3430   23.9320 C   0  0  0  0  0  3  0  0  0  0  0  0
  -27.6340  -37.2320   24.6860 C   0  0  0  0  0  1  0  0  0  0  0  0
  -26.4970  -37.3980   23.7820 N   0  0  0  0  0  0  0  0  0  0  0  0
  -26.0940  -38.3170   23.9450 H   0  0  0  0  0  0  0  0  0  0  0  0
  2  7  1  0
  2  1  1  0
  3 49  1  0
  3  2  1  0
  3  1  1  0
  4  5  1  0
  6  8  1  0
  7  4  2  0
  8 19  1  0
  8  5  2  0
  9  6  2  0
  9  7  1  0
 10  9  1  0
 11 19  1  0
 12 17  1  0
 13 14  1  0
 13 12  1  0
 15 14  1  0
 15 24  1  0
 15 16  1  0
 17 11  1  0
 17 16  1  0
 18 11  2  0
 19 20  1  0
 21 22  2  0
 22 41  1  0
 23 22  1  0
 23 26  1  0
 24 25  1  0
 24 21  1  0
 25 23  2  0
 26 27  1  0
 27 28  2  0
 29 32  1  0
 29 28  1  0
 30 29  2  0
 31 30  1  0
 31 26  2  0
 32 33  1  0
 33 34  1  0
 34 35  2  0
 36 35  1  0
 36 40  1  0
 37 36  2  0
 38 33  2  0
 38 37  1  0
 39 38  1  0
 41 42  1  0
 42 45  1  0
 42 44  1  0
 43 41  2  0
 46 21  1  0
 46 47  1  0
 48 46  1  0
 49 50  1  0
 51 49  1  0
 51 52  1  0
 52 54  1  0
 53 64  2  0
 54 59  1  0
 55 63  1  0
 55 65  1  0
 56 62  1  0
 56 58  1  0
 57 63  1  0
 58 57  1  0
 59 58  2  0
 60 61  1  0
 60 54  2  0
 61 56  2  0
 62 55  1  0
 63 53  1  0
 65 67  2  0
 66 65  1  0
 68 66  1  0
 69 78  2  0
 69 74  1  0
 70 66  1  0
 70 74  1  0
 71 70  1  0
 72 73  1  0
 72 71  1  0
 73 69  1  0
 74 75  2  0
 75 76  1  0
 77 76  2  0
 78 77  1  0
 79 53  1  0
 79 84  1  0
 79 80  1  0
 80 83  1  1
 80 81  1  0
 82 80  1  0
 84 87  1  0
 85 89  1  0
 85 84  1  0
 86 85  2  0
 89 88  1  0
 91 89  1  0
 91 92  1  0
 91 90  1  0
M  ISO  4  11 100  19 100  51 101  52 101
M  END
>  <TORSDO>  (55) 
F 19

>  <SCORE>  (55) 
-13.240

>  <name>  (55) 
54

>  <ligand_id>  (55) 
54

>  <original_smiles>  (55) 
[H]c1c([H])c([H])c2c(c1[H])C([H])([H])C([H])([H])C([H])([H])C2([H])N([H])C(=O)C1([H])N(C(=O)C([H])(N([H])C(=O)C([H])(N([H])C([H])([H])[H])C([H])([H])[H])C(C([H])([H])[H])(C([H])([H])[H])C([H])([H])[H])C([H])([H])c2c([H])c(OC([H])([H])C([H])(F)C3([H])C([H])([H])C3([H])c3c([H])c([H])c(N([H])C(=O)N4C([H])([H])C([H])([H])C([H])([H])C([H])(n5nc(-c6c([H])c([H])c(Oc7c([H])c([H])c(F)c([H])c7F)c([H])c6[H])c(C(=O)N([H])[H])c5N([H])[H])C4([H])[H])c([H])c3F)c([H])c([H])c2C1([H])[H]

>  <smiles>  (55) 
[H]c1c([H])c([H])c2c(c1[H])C([H])([H])C([H])([H])C([H])([H])C2([H])N([H])C(=O)C1([H])N(C(=O)C([H])(N([H])C(=O)C([H])(N([H])C([H])([H])[H])C([H])([H])[H])C(C([H])([H])[H])(C([H])([H])[H])C([H])([H])[H])C([H])([H])c2c([H])c(OC([H])([H])C([H])(F)C3([H])C([H])([H])C3([H])c3c([H])c([H])c(N([H])C(=O)N4C([H])([H])C([H])([H])C([H])([H])C([H])(n5nc(-c6c([H])c([H])c(Oc7c([H])c([H])c(F)c([H])c7F)c([H])c6[H])c(C(=O)N([H])[H])c5N([H])[H])C4([H])[H])c([H])c3F)c([H])c([H])c2C1([H])[H]

$$$$
55:0:0
     RDKit          3D

 94102  0  0  1  0  0  0  0  0999 V2000
  -29.8020  -20.3280   19.8990 C   0  0  0  0  0  2  0  0  0  0  0  0
  -30.2200  -17.8270   20.3400 C   0  0  0  0  0  3  0  0  0  0  0  0
  -31.0680  -18.3270   22.9730 C   0  0  0  0  0  3  0  0  0  0  0  0
  -30.2970  -19.1740   20.8020 C   0  0  0  0  0  0  0  0  0  0  0  0
  -30.5380  -16.7370   21.1950 C   0  0  0  0  0  0  0  0  0  0  0  0
  -30.7370  -19.4040   22.1300 C   0  0  0  0  0  0  0  0  0  0  0  0
  -30.9490  -17.0010   22.5180 C   0  0  0  0  0  0  0  0  0  0  0  0
  -30.8190  -20.6650   22.6210 F   0  0  0  0  0  0  0  0  0  0  0  0
  -31.1940  -15.9740   23.3710 F   0  0  0  0  0  0  0  0  0  0  0  0
  -30.9400  -14.4760   20.1480 C   0  0  0  0  0  0  0  0  0  0  0  0
  -30.6050  -12.3440   18.9290 C   0  0  0  0  0  2  0  0  0  0  0  0
  -29.6050  -12.5840   17.7750 C   0  0  0  0  0  2  0  0  0  0  0  0
  -28.1390  -12.5030   18.2580 C   0  0  0  0  0  2  0  0  0  0  0  0
  -27.8880  -13.3050   19.5640 C   0  0  0  0  0  3  0  0  0  0  0  0
  -28.9750  -12.9660   20.6080 C   0  0  0  0  0  2  0  0  0  0  0  0
  -30.2840  -13.2880   20.0080 N   0  0  0  0  0  0  0  0  0  0  0  0
  -32.0160  -14.7240   19.5940 O   0  0  0  0  0  0  0  0  0  0  0  0
  -30.2460  -15.3830   20.8600 N   0  0  0  0  0  0  0  0  0  0  0  0
  -29.4500  -14.9900   21.3380 H   0  0  0  0  0  0  0  0  0  0  0  0
  -25.5410  -14.0030   20.3700 C   0  0  0  0  0  0  0  0  0  0  0  0
  -24.4570  -13.2700   20.7730 C   0  0  0  0  0  0  0  0  0  0  0  0
  -24.8580  -11.9000   20.6970 C   0  0  0  0  0  0  0  0  0  0  0  0
  -26.5400  -13.0820   20.0850 N   0  0  0  0  0  0  0  0  0  0  0  0
  -26.1320  -11.8120   20.3330 N   0  0  0  0  0  0  0  0  0  0  0  0
  -24.0860  -10.6680   20.8960 C   0  0  0  0  0  0  0  0  0  0  0  0
  -24.5140   -9.6680   21.7990 C   0  0  0  0  0  3  0  0  0  0  0  0
  -23.7490   -8.4960   21.9850 C   0  0  0  0  0  3  0  0  0  0  0  0
  -22.5420   -8.3160   21.2700 C   0  0  0  0  0  0  0  0  0  0  0  0
  -22.1320   -9.3030   20.3550 C   0  0  0  0  0  3  0  0  0  0  0  0
  -22.8970  -10.4660   20.1670 C   0  0  0  0  0  3  0  0  0  0  0  0
  -21.7460   -7.2000   21.3680 O   0  0  0  0  0  0  0  0  0  0  0  0
  -21.6940   -6.4510   22.5150 C   0  0  0  0  0  0  0  0  0  0  0  0
  -21.3400   -7.0190   23.7600 C   0  0  0  0  0  3  0  0  0  0  0  0
  -21.2320   -6.1990   24.9010 C   0  0  0  0  0  3  0  0  0  0  0  0
  -21.4700   -4.8140   24.7990 C   0  0  0  0  0  0  0  0  0  0  0  0
  -21.8190   -4.2470   23.5600 C   0  0  0  0  0  3  0  0  0  0  0  0
  -21.9280   -5.0640   22.4210 C   0  0  0  0  0  0  0  0  0  0  0  0
  -22.2450   -4.5100   21.2250 F   0  0  0  0  0  0  0  0  0  0  0  0
  -21.3580   -4.0260   25.8930 F   0  0  0  0  0  0  0  0  0  0  0  0
  -23.0940  -13.8000   21.1120 C   0  0  0  0  0  0  0  0  0  0  0  0
  -22.3760  -13.1250   22.0020 N   0  0  0  0  0  0  0  0  0  0  0  0
  -22.6760  -14.8470   20.6210 O   0  0  0  0  0  0  0  0  0  0  0  0
  -22.7250  -12.2760   22.4220 H   0  0  0  0  0  0  0  0  0  0  0  0
  -21.4620  -13.4650   22.2680 H   0  0  0  0  0  0  0  0  0  0  0  0
  -25.7580  -15.3680   20.2060 N   0  0  0  0  0  0  0  0  0  0  0  0
  -25.0200  -16.0490   20.3470 H   0  0  0  0  0  0  0  0  0  0  0  0
  -26.6030  -15.7690   19.8200 H   0  0  0  0  0  0  0  0  0  0  0  0
  -30.0330  -21.7210   20.3980 N   0  0  0  0  0  4  0  0  0  0  0  0
  -30.9180  -22.0350   20.0340 H   0  0  0  0  0  0  0  0  0  0  0  0
  -30.1200  -21.6550   21.4040 H   0  0  0  0  0  0  0  0  0  0  0  0
  -28.9710  -22.7210   20.0690 C   0  0  0  0  0  2  0  0  0  0  0  0
  -29.2660  -24.1970   20.5160 C   0  0  0  0  0  2  0  0  0  0  0  0
  -28.1760  -25.1910   20.0170 C   0  0  0  0  0  2  0  0  0  0  0  0
  -28.3310  -26.6040   20.3290 O   0  0  0  0  0  0  0  0  0  0  0  0
  -24.5840  -31.9300   23.2750 C   0  0  0  0  0  0  0  0  0  0  0  0
  -27.1890  -27.4000   20.2530 C   0  0  0  0  0  0  0  0  0  0  0  0
  -23.3710  -30.5320   21.6360 C   0  0  0  0  0  3  0  0  0  0  0  0
  -24.8160  -28.9730   20.2260 C   0  0  0  0  0  0  0  0  0  0  0  0
  -25.9050  -30.8540   21.4500 C   0  0  0  0  0  2  0  0  0  0  0  0
  -25.9810  -29.4760   20.8190 C   0  0  0  0  0  0  0  0  0  0  0  0
  -27.1670  -28.6970   20.8340 C   0  0  0  0  0  3  0  0  0  0  0  0
  -26.0050  -26.9460   19.6210 C   0  0  0  0  0  3  0  0  0  0  0  0
  -24.8280  -27.7110   19.6170 C   0  0  0  0  0  3  0  0  0  0  0  0
  -23.5830  -29.8460   20.2610 C   0  0  0  0  0  2  0  0  0  0  0  0
  -24.6380  -31.1210   22.1780 N   0  0  0  0  0  0  0  0  0  0  0  0
  -23.5050  -32.2130   23.8130 O   0  0  0  0  0  0  0  0  0  0  0  0
  -22.7050  -29.5230   22.6010 C   0  0  0  0  0  0  0  0  0  0  0  0
  -21.3780  -29.3510   22.4740 N   0  0  0  0  0  0  0  0  0  0  0  0
  -23.3790  -28.8980   23.4240 O   0  0  0  0  0  0  0  0  0  0  0  0
  -20.8910  -29.9100   21.7890 H   0  0  0  0  0  0  0  0  0  0  0  0
  -17.9970  -28.1710   22.9630 C   0  0  0  0  0  0  0  0  0  0  0  0
  -20.5540  -28.4250   23.2530 C   0  0  0  0  0  3  0  0  0  0  0  0
  -20.6570  -26.9840   22.7010 C   0  0  0  0  0  2  0  0  0  0  0  0
  -19.5650  -26.6510   21.6800 C   0  0  0  0  0  2  0  0  0  0  0  0
  -18.1770  -26.8110   22.3090 C   0  0  0  0  0  2  0  0  0  0  0  0
  -19.1150  -28.9350   23.3930 C   0  0  0  0  0  0  0  0  0  0  0  0
  -18.8940  -30.2080   23.9620 C   0  0  0  0  0  3  0  0  0  0  0  0
  -17.5900  -30.7170   24.1070 C   0  0  0  0  0  3  0  0  0  0  0  0
  -16.4870  -29.9510   23.6900 C   0  0  0  0  0  3  0  0  0  0  0  0
  -16.6920  -28.6800   23.1250 C   0  0  0  0  0  3  0  0  0  0  0  0
  -25.8750  -32.5520   23.8930 C   0  0  0  0  0  3  0  0  0  0  0  0
  -25.5790  -33.9530   24.2170 N   0  0  0  0  0  0  0  0  0  0  0  0
  -25.9130  -35.0000   23.4480 C   0  0  0  0  0  0  0  0  0  0  0  0
  -26.5730  -34.8840   22.4120 O   0  0  0  0  0  0  0  0  0  0  0  0
  -24.9910  -34.1150   25.0210 H   0  0  0  0  0  0  0  0  0  0  0  0
  -24.1880  -36.7970   23.0970 C   0  0  0  0  0  1  0  0  0  0  0  0
  -25.4360  -36.3940   23.8980 C   0  0  0  0  0  3  0  0  0  0  0  0
  -27.5910  -37.2740   24.6830 C   0  0  0  0  0  1  0  0  0  0  0  0
  -26.4700  -37.4430   23.7620 N   0  0  0  0  0  0  0  0  0  0  0  0
  -26.0710  -38.3640   23.9210 H   0  0  0  0  0  0  0  0  0  0  0  0
  -26.3860  -31.7830   25.1710 C   0  0  1  0  0  0  0  0  0  0  0  0
  -25.2940  -31.5700   26.2440 C   0  0  0  0  0  1  0  0  0  0  0  0
  -26.9490  -30.3950   24.7830 C   0  0  0  0  0  1  0  0  0  0  0  0
  -27.5470  -32.5650   25.8280 C   0  0  0  0  0  1  0  0  0  0  0  0
  1 48  1  0
  1  4  1  0
  2  4  2  0
  2  5  1  0
  4  6  1  0
  5  7  2  0
  6  8  1  0
  6  3  2  0
  7  3  1  0
  7  9  1  0
 10 18  1  0
 11 16  1  0
 12 13  1  0
 12 11  1  0
 14 13  1  0
 14 23  1  0
 14 15  1  0
 16 10  1  0
 16 15  1  0
 17 10  2  0
 18  5  1  0
 18 19  1  0
 20 21  2  0
 21 40  1  0
 22 21  1  0
 22 25  1  0
 23 24  1  0
 23 20  1  0
 24 22  2  0
 25 26  1  0
 26 27  2  0
 28 31  1  0
 28 27  1  0
 29 28  2  0
 30 29  1  0
 30 25  2  0
 31 32  1  0
 32 33  1  0
 33 34  2  0
 35 34  1  0
 35 39  1  0
 36 35  2  0
 37 32  2  0
 37 36  1  0
 38 37  1  0
 40 41  1  0
 41 44  1  0
 41 43  1  0
 42 40  2  0
 45 46  1  0
 45 20  1  0
 47 45  1  0
 48 50  1  0
 49 48  1  0
 51 48  1  0
 51 52  1  0
 53 54  1  0
 53 52  1  0
 55 66  2  0
 56 54  1  0
 56 61  1  0
 57 65  1  0
 57 67  1  0
 58 64  1  0
 58 60  1  0
 59 65  1  0
 60 61  2  0
 60 59  1  0
 62 56  2  0
 63 62  1  0
 63 58  2  0
 64 57  1  0
 65 55  1  0
 67 69  2  0
 68 67  1  0
 70 68  1  0
 71 80  2  0
 71 76  1  0
 72 68  1  0
 72 76  1  0
 73 72  1  0
 74 75  1  0
 74 73  1  0
 75 71  1  0
 76 77  2  0
 77 78  1  0
 79 78  2  0
 80 79  1  0
 81 55  1  0
 81 82  1  0
 81 91  1  0
 82 85  1  0
 83 87  1  0
 83 82  1  0
 84 83  2  0
 87 86  1  0
 89 87  1  0
 89 90  1  0
 89 88  1  0
 91 94  1  1
 91 92  1  0
 93 91  1  0
M  ISO  4  10 100  18 100  53 101  54 101
M  END
>  <TORSDO>  (56) 
F 21

>  <SCORE>  (56) 
-12.622

>  <name>  (56) 
55

>  <ligand_id>  (56) 
55

>  <original_smiles>  (56) 
[H]c1c([H])c([H])c2c(c1[H])C([H])([H])C([H])([H])C([H])([H])C2([H])N([H])C(=O)C1([H])N(C(=O)C([H])(N([H])C(=O)C([H])(N([H])C([H])([H])[H])C([H])([H])[H])C(C([H])([H])[H])(C([H])([H])[H])C([H])([H])[H])C([H])([H])c2c([H])c(OC([H])([H])C([H])([H])C([H])([H])[N+]([H])([H])C([H])([H])c3c([H])c(N([H])C(=O)N4C([H])([H])C([H])([H])C([H])([H])C([H])(n5nc(-c6c([H])c([H])c(Oc7c([H])c([H])c(F)c([H])c7F)c([H])c6[H])c(C(=O)N([H])[H])c5N([H])[H])C4([H])[H])c(F)c([H])c3F)c([H])c([H])c2C1([H])[H]

>  <smiles>  (56) 
[H]c1c([H])c([H])c2c(c1[H])C([H])([H])C([H])([H])C([H])([H])C2([H])N([H])C(=O)C1([H])N(C(=O)C([H])(N([H])C(=O)C([H])(N([H])C([H])([H])[H])C([H])([H])[H])C(C([H])([H])[H])(C([H])([H])[H])C([H])([H])[H])C([H])([H])c2c([H])c(OC([H])([H])C([H])([H])C([H])([H])[N+]([H])([H])C([H])([H])c3c([H])c(N([H])C(=O)N4C([H])([H])C([H])([H])C([H])([H])C([H])(n5nc(-c6c([H])c([H])c(Oc7c([H])c([H])c(F)c([H])c7F)c([H])c6[H])c(C(=O)N([H])[H])c5N([H])[H])C4([H])[H])c(F)c([H])c3F)c([H])c([H])c2C1([H])[H]

$$$$
56:0:0
     RDKit          3D

 95103  0  0  1  0  0  0  0  0999 V2000
  -30.8910  -21.6920   22.9600 C   0  0  0  0  0  2  0  0  0  0  0  0
  -30.3580  -18.2610   24.7510 C   0  0  0  0  0  2  0  0  0  0  0  0
  -30.8170  -19.7030   24.5170 C   0  0  0  0  0  2  0  0  0  0  0  0
  -30.8530  -17.3770   23.6020 C   0  0  0  0  0  2  0  0  0  0  0  0
  -30.3160  -20.2610   23.1630 C   0  0  0  0  0  3  0  0  0  0  0  0
  -30.3680  -17.9020   22.2310 C   0  0  0  0  0  3  0  0  0  0  0  0
  -30.7030  -19.3500   22.0480 N   0  0  0  0  0  4  0  0  0  0  0  0
  -31.6960  -19.4270   21.9110 H   0  0  0  0  0  0  0  0  0  0  0  0
  -30.2620  -19.6870   21.2050 H   0  0  0  0  0  0  0  0  0  0  0  0
  -30.9620  -17.0530   21.0740 C   0  0  0  0  0  2  0  0  0  0  0  0
  -31.0900  -14.6820   20.3460 C   0  0  0  0  0  0  0  0  0  0  0  0
  -30.7110  -12.5940   19.0930 C   0  0  0  0  0  2  0  0  0  0  0  0
  -29.7550  -12.8700   17.9130 C   0  0  0  0  0  2  0  0  0  0  0  0
  -28.2830  -12.7660   18.3580 C   0  0  0  0  0  2  0  0  0  0  0  0
  -27.9910  -13.5550   19.6610 C   0  0  0  0  0  3  0  0  0  0  0  0
  -29.0520  -13.2500   20.7420 C   0  0  0  0  0  2  0  0  0  0  0  0
  -30.3780  -13.5370   20.1710 N   0  0  0  0  0  0  0  0  0  0  0  0
  -32.1940  -14.8730   19.8310 O   0  0  0  0  0  0  0  0  0  0  0  0
  -30.4600  -15.6720   21.0010 N   0  0  0  0  0  0  0  0  0  0  0  0
  -29.5430  -15.4710   21.3710 H   0  0  0  0  0  0  0  0  0  0  0  0
  -25.6100  -14.2010   20.3920 C   0  0  0  0  0  0  0  0  0  0  0  0
  -24.5310  -13.4440   20.7650 C   0  0  0  0  0  0  0  0  0  0  0  0
  -24.9690  -12.0840   20.7220 C   0  0  0  0  0  0  0  0  0  0  0  0
  -26.6370  -13.3030   20.1470 N   0  0  0  0  0  0  0  0  0  0  0  0
  -26.2540  -12.0250   20.4020 N   0  0  0  0  0  0  0  0  0  0  0  0
  -24.2240  -10.8340   20.9100 C   0  0  0  0  0  0  0  0  0  0  0  0
  -24.6250   -9.8700   21.8620 C   0  0  0  0  0  3  0  0  0  0  0  0
  -23.8820   -8.6840   22.0370 C   0  0  0  0  0  3  0  0  0  0  0  0
  -22.7230   -8.4510   21.2590 C   0  0  0  0  0  0  0  0  0  0  0  0
  -22.3400   -9.4030   20.2970 C   0  0  0  0  0  3  0  0  0  0  0  0
  -23.0840  -10.5820   20.1200 C   0  0  0  0  0  3  0  0  0  0  0  0
  -21.9530   -7.3160   21.3420 O   0  0  0  0  0  0  0  0  0  0  0  0
  -21.8210   -6.6210   22.5170 C   0  0  0  0  0  0  0  0  0  0  0  0
  -21.3480   -7.2340   23.6970 C   0  0  0  0  0  3  0  0  0  0  0  0
  -21.1630   -6.4650   24.8640 C   0  0  0  0  0  3  0  0  0  0  0  0
  -21.4390   -5.0850   24.8500 C   0  0  0  0  0  0  0  0  0  0  0  0
  -21.9040   -4.4720   23.6730 C   0  0  0  0  0  3  0  0  0  0  0  0
  -22.0910   -5.2370   22.5090 C   0  0  0  0  0  0  0  0  0  0  0  0
  -22.5200   -4.6370   21.3730 F   0  0  0  0  0  0  0  0  0  0  0  0
  -21.2530   -4.3450   25.9680 F   0  0  0  0  0  0  0  0  0  0  0  0
  -23.1450  -13.9430   21.0530 C   0  0  0  0  0  0  0  0  0  0  0  0
  -22.4200  -13.2680   21.9380 N   0  0  0  0  0  0  0  0  0  0  0  0
  -22.7130  -14.9680   20.5260 O   0  0  0  0  0  0  0  0  0  0  0  0
  -22.7820  -12.4390   22.3860 H   0  0  0  0  0  0  0  0  0  0  0  0
  -21.4890  -13.5850   22.1710 H   0  0  0  0  0  0  0  0  0  0  0  0
  -25.7980  -15.5700   20.2210 N   0  0  0  0  0  0  0  0  0  0  0  0
  -25.0430  -16.2370   20.3300 H   0  0  0  0  0  0  0  0  0  0  0  0
  -26.6500  -15.9910   19.8700 H   0  0  0  0  0  0  0  0  0  0  0  0
  -29.4790  -23.2590   21.6550 C   0  0  0  0  0  0  0  0  0  0  0  0
  -30.4990  -22.3890   21.7250 N   0  0  0  0  0  0  0  0  0  0  0  0
  -28.5890  -23.2620   22.5070 O   0  0  0  0  0  0  0  0  0  0  0  0
  -31.1880  -22.4300   20.9850 H   0  0  0  0  0  0  0  0  0  0  0  0
  -29.4920  -24.3080   20.5200 C   0  0  0  0  0  2  0  0  0  0  0  0
  -28.2220  -25.1920   20.4790 C   0  0  0  0  0  2  0  0  0  0  0  0
  -28.3850  -26.4480   19.7900 O   0  0  0  0  0  0  0  0  0  0  0  0
  -24.6090  -31.5330   23.0360 C   0  0  0  0  0  0  0  0  0  0  0  0
  -27.2350  -27.2100   19.7840 C   0  0  0  0  0  0  0  0  0  0  0  0
  -23.3910  -30.1790   21.3640 C   0  0  0  0  0  3  0  0  0  0  0  0
  -24.8350  -28.7070   19.8650 C   0  0  0  0  0  0  0  0  0  0  0  0
  -25.9110  -30.5640   21.1450 C   0  0  0  0  0  2  0  0  0  0  0  0
  -25.9990  -29.2170   20.4550 C   0  0  0  0  0  0  0  0  0  0  0  0
  -27.2040  -28.4780   20.4090 C   0  0  0  0  0  3  0  0  0  0  0  0
  -26.0560  -26.7230   19.1740 C   0  0  0  0  0  3  0  0  0  0  0  0
  -24.8590  -27.4600   19.2190 C   0  0  0  0  0  3  0  0  0  0  0  0
  -23.5860  -29.5540   19.9580 C   0  0  0  0  0  2  0  0  0  0  0  0
  -24.6560  -30.7710   21.9070 N   0  0  0  0  0  0  0  0  0  0  0  0
  -23.5350  -31.7790   23.6010 O   0  0  0  0  0  0  0  0  0  0  0  0
  -22.7590  -29.1200   22.2970 C   0  0  0  0  0  0  0  0  0  0  0  0
  -21.4300  -28.9490   22.1980 N   0  0  0  0  0  0  0  0  0  0  0  0
  -23.4590  -28.4590   23.0680 O   0  0  0  0  0  0  0  0  0  0  0  0
  -20.9260  -29.5400   21.5520 H   0  0  0  0  0  0  0  0  0  0  0  0
  -18.0650  -27.7430   22.7160 C   0  0  0  0  0  0  0  0  0  0  0  0
  -20.6270  -27.9850   22.9500 C   0  0  0  0  0  3  0  0  0  0  0  0
  -20.7150  -26.5760   22.3200 C   0  0  0  0  0  2  0  0  0  0  0  0
  -19.5930  -26.2930   21.3150 C   0  0  0  0  0  2  0  0  0  0  0  0
  -18.2250  -26.4180   21.9900 C   0  0  0  0  0  2  0  0  0  0  0  0
  -19.1930  -28.4860   23.1530 C   0  0  0  0  0  0  0  0  0  0  0  0
  -18.9890  -29.7290   23.7890 C   0  0  0  0  0  3  0  0  0  0  0  0
  -17.6900  -30.2280   23.9980 C   0  0  0  0  0  3  0  0  0  0  0  0
  -16.5750  -29.4790   23.5800 C   0  0  0  0  0  3  0  0  0  0  0  0
  -16.7640  -28.2390   22.9430 C   0  0  0  0  0  3  0  0  0  0  0  0
  -25.9000  -32.1510   23.6610 C   0  0  0  0  0  3  0  0  0  0  0  0
  -25.5660  -33.5080   24.1120 N   0  0  0  0  0  0  0  0  0  0  0  0
  -25.8670  -34.6290   23.4430 C   0  0  0  0  0  0  0  0  0  0  0  0
  -26.5270  -34.6280   22.3990 O   0  0  0  0  0  0  0  0  0  0  0  0
  -24.9790  -33.5820   24.9300 H   0  0  0  0  0  0  0  0  0  0  0  0
  -24.0990  -36.4070   23.2550 C   0  0  0  0  0  1  0  0  0  0  0  0
  -25.3550  -35.9610   24.0210 C   0  0  0  0  0  3  0  0  0  0  0  0
  -27.4780  -36.8120   24.9120 C   0  0  0  0  0  1  0  0  0  0  0  0
  -26.3650  -37.0410   23.9940 N   0  0  0  0  0  0  0  0  0  0  0  0
  -25.9420  -37.9360   24.2270 H   0  0  0  0  0  0  0  0  0  0  0  0
  -26.4890  -31.2950   24.8490 C   0  0  1  0  0  0  0  0  0  0  0  0
  -25.4490  -30.9440   25.9370 C   0  0  0  0  0  1  0  0  0  0  0  0
  -27.0870  -29.9710   24.3200 C   0  0  0  0  0  1  0  0  0  0  0  0
  -27.6480  -32.0650   25.5240 C   0  0  0  0  0  1  0  0  0  0  0  0
  3  2  1  0
  4  2  1  0
  5  1  1  0
  5  3  1  0
  6 10  1  0
  6  4  1  0
  7  6  1  0
  7  5  1  0
  8  7  1  0
  9  7  1  0
 11 19  1  0
 12 17  1  0
 13 14  1  0
 13 12  1  0
 15 14  1  0
 15 24  1  0
 15 16  1  0
 17 11  1  0
 17 16  1  0
 18 11  2  0
 19 10  1  0
 19 20  1  0
 21 22  2  0
 22 41  1  0
 23 22  1  0
 23 26  1  0
 24 21  1  0
 24 25  1  0
 25 23  2  0
 26 27  1  0
 27 28  2  0
 29 32  1  0
 29 28  1  0
 30 29  2  0
 31 30  1  0
 31 26  2  0
 32 33  1  0
 33 34  1  0
 34 35  2  0
 36 35  1  0
 36 40  1  0
 37 36  2  0
 38 33  2  0
 38 37  1  0
 39 38  1  0
 41 42  1  0
 42 45  1  0
 42 44  1  0
 43 41  2  0
 46 47  1  0
 46 21  1  0
 48 46  1  0
 49 50  1  0
 49 51  2  0
 50  1  1  0
 52 50  1  0
 53 49  1  0
 54 53  1  0
 55 54  1  0
 56 67  2  0
 57 55  1  0
 57 62  1  0
 58 66  1  0
 58 68  1  0
 59 65  1  0
 59 61  1  0
 60 66  1  0
 61 60  1  0
 62 61  2  0
 63 64  1  0
 63 57  2  0
 64 59  2  0
 65 58  1  0
 66 56  1  0
 68 70  2  0
 69 68  1  0
 71 69  1  0
 72 81  2  0
 72 77  1  0
 73 69  1  0
 73 77  1  0
 74 73  1  0
 75 76  1  0
 75 74  1  0
 76 72  1  0
 77 78  2  0
 78 79  1  0
 80 79  2  0
 81 80  1  0
 82 56  1  0
 82 83  1  0
 82 92  1  0
 83 86  1  0
 84 88  1  0
 84 83  1  0
 85 84  2  0
 88 87  1  0
 90 88  1  0
 90 91  1  0
 90 89  1  0
 92 95  1  1
 92 93  1  0
 94 92  1  0
M  ISO  4  11 100  19 100  54 101  55 101
M  END
>  <TORSDO>  (57) 
F 21

>  <SCORE>  (57) 
-10.093

>  <name>  (57) 
56

>  <ligand_id>  (57) 
56

>  <original_smiles>  (57) 
[H]c1c([H])c([H])c2c(c1[H])C([H])([H])C([H])([H])C([H])([H])C2([H])N([H])C(=O)C1([H])N(C(=O)C([H])(N([H])C(=O)C([H])(N([H])C([H])([H])[H])C([H])([H])[H])C(C([H])([H])[H])(C([H])([H])[H])C([H])([H])[H])C([H])([H])c2c([H])c(OC([H])([H])C([H])([H])C(=O)N([H])C([H])([H])C3([H])C([H])([H])C([H])([H])C([H])([H])C([H])(C([H])([H])N([H])C(=O)N4C([H])([H])C([H])([H])C([H])([H])C([H])(n5nc(-c6c([H])c([H])c(Oc7c([H])c([H])c(F)c([H])c7F)c([H])c6[H])c(C(=O)N([H])[H])c5N([H])[H])C4([H])[H])[N+]3([H])[H])c([H])c([H])c2C1([H])[H]

>  <smiles>  (57) 
[H]c1c([H])c([H])c2c(c1[H])C([H])([H])C([H])([H])C([H])([H])C2([H])N([H])C(=O)C1([H])N(C(=O)C([H])(N([H])C(=O)C([H])(N([H])C([H])([H])[H])C([H])([H])[H])C(C([H])([H])[H])(C([H])([H])[H])C([H])([H])[H])C([H])([H])c2c([H])c(OC([H])([H])C([H])([H])C(=O)N([H])C([H])([H])C3([H])C([H])([H])C([H])([H])C([H])([H])C([H])(C([H])([H])N([H])C(=O)N4C([H])([H])C([H])([H])C([H])([H])C([H])(n5nc(-c6c([H])c([H])c(Oc7c([H])c([H])c(F)c([H])c7F)c([H])c6[H])c(C(=O)N([H])[H])c5N([H])[H])C4([H])[H])[N+]3([H])[H])c([H])c([H])c2C1([H])[H]

$$$$
57:0:0
     RDKit          3D

 93101  0  0  1  0  0  0  0  0999 V2000
  -28.2930  -22.6670   21.5610 C   0  0  0  0  0  2  0  0  0  0  0  0
  -30.1120  -23.3170   23.0830 C   0  0  0  0  0  1  0  0  0  0  0  0
  -29.4280  -23.6040   21.7970 N   0  0  2  0  0  4  0  0  0  0  0  0
  -30.1150  -23.4350   21.0730 H   0  0  0  0  0  0  0  0  0  0  0  0
  -29.0710  -25.0500   21.6760 C   0  0  0  0  0  2  0  0  0  0  0  0
  -28.5870  -25.4610   20.2620 C   0  0  0  0  0  2  0  0  0  0  0  0
  -28.4760  -26.8810   20.1800 O   0  0  0  0  0  0  0  0  0  0  0  0
  -24.5620  -31.9070   23.2500 C   0  0  0  0  0  0  0  0  0  0  0  0
  -27.2420  -27.4950   20.1990 C   0  0  0  0  0  0  0  0  0  0  0  0
  -23.3550  -30.5020   21.6060 C   0  0  0  0  0  3  0  0  0  0  0  0
  -24.8170  -28.9580   20.1950 C   0  0  0  0  0  0  0  0  0  0  0  0
  -25.8720  -30.8820   21.3950 C   0  0  0  0  0  2  0  0  0  0  0  0
  -25.9660  -29.5040   20.7780 C   0  0  0  0  0  0  0  0  0  0  0  0
  -27.1760  -28.7830   20.7700 C   0  0  0  0  0  3  0  0  0  0  0  0
  -26.0730  -26.9520   19.6110 C   0  0  0  0  0  3  0  0  0  0  0  0
  -24.8640  -27.6790   19.6120 C   0  0  0  0  0  3  0  0  0  0  0  0
  -23.5670  -29.8120   20.2300 C   0  0  0  0  0  2  0  0  0  0  0  0
  -24.6140  -31.1100   22.1450 N   0  0  0  0  0  0  0  0  0  0  0  0
  -23.4810  -32.1770   23.7930 O   0  0  0  0  0  0  0  0  0  0  0  0
  -22.7040  -29.4850   22.5690 C   0  0  0  0  0  0  0  0  0  0  0  0
  -21.3820  -29.3040   22.4410 N   0  0  0  0  0  0  0  0  0  0  0  0
  -23.3870  -28.8580   23.3840 O   0  0  0  0  0  0  0  0  0  0  0  0
  -20.8940  -29.8600   21.7530 H   0  0  0  0  0  0  0  0  0  0  0  0
  -18.0010  -28.1320   22.9400 C   0  0  0  0  0  0  0  0  0  0  0  0
  -20.5610  -28.3700   23.2110 C   0  0  0  0  0  3  0  0  0  0  0  0
  -20.6510  -26.9400   22.6290 C   0  0  0  0  0  2  0  0  0  0  0  0
  -19.5460  -26.6300   21.6150 C   0  0  0  0  0  2  0  0  0  0  0  0
  -18.1660  -26.7830   22.2600 C   0  0  0  0  0  2  0  0  0  0  0  0
  -19.1260  -28.8840   23.3720 C   0  0  0  0  0  0  0  0  0  0  0  0
  -18.9170  -30.1460   23.9690 C   0  0  0  0  0  3  0  0  0  0  0  0
  -17.6160  -30.6590   24.1340 C   0  0  0  0  0  3  0  0  0  0  0  0
  -16.5060  -29.9010   23.7220 C   0  0  0  0  0  3  0  0  0  0  0  0
  -16.6990  -28.6400   23.1320 C   0  0  0  0  0  3  0  0  0  0  0  0
  -25.8490  -32.5340   23.8730 C   0  0  0  0  0  3  0  0  0  0  0  0
  -25.5470  -33.9360   24.1930 N   0  0  0  0  0  0  0  0  0  0  0  0
  -25.8920  -34.9820   23.4290 C   0  0  0  0  0  0  0  0  0  0  0  0
  -26.5700  -34.8670   22.4040 O   0  0  0  0  0  0  0  0  0  0  0  0
  -24.9500  -34.0990   24.9900 H   0  0  0  0  0  0  0  0  0  0  0  0
  -24.1820  -36.7820   23.0350 C   0  0  0  0  0  1  0  0  0  0  0  0
  -25.4070  -36.3770   23.8700 C   0  0  0  0  0  3  0  0  0  0  0  0
  -27.5370  -37.2480   24.7250 C   0  0  0  0  0  1  0  0  0  0  0  0
  -26.4490  -37.4210   23.7660 N   0  0  0  0  0  0  0  0  0  0  0  0
  -26.0490  -38.3450   23.9000 H   0  0  0  0  0  0  0  0  0  0  0  0
  -26.3640  -31.7660   25.1520 C   0  0  1  0  0  0  0  0  0  0  0  0
  -25.2700  -31.5250   26.2170 C   0  0  0  0  0  1  0  0  0  0  0  0
  -26.9480  -30.3900   24.7530 C   0  0  0  0  0  1  0  0  0  0  0  0
  -27.5140  -32.5610   25.8120 C   0  0  0  0  0  1  0  0  0  0  0  0
  -28.6440  -21.5180   20.5900 C   0  0  0  0  0  2  0  0  0  0  0  0
  -29.4100  -20.3490   21.2560 C   0  0  0  0  0  2  0  0  0  0  0  0
  -28.3830  -17.0550   19.8940 C   0  0  0  0  0  2  0  0  0  0  0  0
  -28.2280  -18.5760   19.9330 C   0  0  0  0  0  2  0  0  0  0  0  0
  -30.2380  -18.0060   21.0700 C   0  0  0  0  0  2  0  0  0  0  0  0
  -29.8450  -16.7900   20.2210 C   0  0  0  0  0  3  0  0  0  0  0  0
  -29.5180  -19.1260   20.4210 N   0  0  2  0  0  4  0  0  0  0  0  0
  -30.0540  -19.3550   19.5950 H   0  0  0  0  0  0  0  0  0  0  0  0
  -30.6880  -14.4800   20.2650 C   0  0  0  0  0  0  0  0  0  0  0  0
  -30.3210  -12.3610   19.0700 C   0  0  0  0  0  2  0  0  0  0  0  0
  -29.3570  -12.6250   17.8920 C   0  0  0  0  0  2  0  0  0  0  0  0
  -27.8880  -12.5050   18.3510 C   0  0  0  0  0  2  0  0  0  0  0  0
  -27.5940  -13.3030   19.6500 C   0  0  0  0  0  3  0  0  0  0  0  0
  -28.6730  -13.0300   20.7270 C   0  0  0  0  0  2  0  0  0  0  0  0
  -29.9980  -13.3130   20.1420 N   0  0  0  0  0  0  0  0  0  0  0  0
  -31.7690  -14.6950   19.7190 O   0  0  0  0  0  0  0  0  0  0  0  0
  -29.9880  -15.4650   20.8380 N   0  0  0  0  0  0  0  0  0  0  0  0
  -29.1710  -15.1340   21.3280 H   0  0  0  0  0  0  0  0  0  0  0  0
  -25.2020  -13.9160   20.3920 C   0  0  0  0  0  0  0  0  0  0  0  0
  -24.1390  -13.1470   20.7850 C   0  0  0  0  0  0  0  0  0  0  0  0
  -24.6030  -11.7950   20.7530 C   0  0  0  0  0  0  0  0  0  0  0  0
  -26.2440  -13.0360   20.1480 N   0  0  0  0  0  0  0  0  0  0  0  0
  -25.8870  -11.7540   20.4170 N   0  0  0  0  0  0  0  0  0  0  0  0
  -23.8800  -10.5350   20.9590 C   0  0  0  0  0  0  0  0  0  0  0  0
  -24.3330   -9.5680   21.8860 C   0  0  0  0  0  3  0  0  0  0  0  0
  -23.6100   -8.3730   22.0820 C   0  0  0  0  0  3  0  0  0  0  0  0
  -22.4220   -8.1340   21.3510 C   0  0  0  0  0  0  0  0  0  0  0  0
  -21.9900   -9.0860   20.4120 C   0  0  0  0  0  3  0  0  0  0  0  0
  -22.7150  -10.2730   20.2130 C   0  0  0  0  0  3  0  0  0  0  0  0
  -21.6680   -6.9900   21.4620 O   0  0  0  0  0  0  0  0  0  0  0  0
  -21.6460   -6.2540   22.6190 C   0  0  0  0  0  0  0  0  0  0  0  0
  -21.2380   -6.8110   23.8530 C   0  0  0  0  0  3  0  0  0  0  0  0
  -21.1580   -5.9990   25.0000 C   0  0  0  0  0  3  0  0  0  0  0  0
  -21.4700   -4.6290   24.9170 C   0  0  0  0  0  0  0  0  0  0  0  0
  -21.8740   -4.0720   23.6930 C   0  0  0  0  0  3  0  0  0  0  0  0
  -21.9540   -4.8810   22.5450 C   0  0  0  0  0  0  0  0  0  0  0  0
  -22.3200   -4.3340   21.3620 F   0  0  0  0  0  0  0  0  0  0  0  0
  -21.3860   -3.8460   26.0200 F   0  0  0  0  0  0  0  0  0  0  0  0
  -22.7470  -13.6260   21.0850 C   0  0  0  0  0  0  0  0  0  0  0  0
  -22.0360  -12.9330   21.9670 N   0  0  0  0  0  0  0  0  0  0  0  0
  -22.3020  -14.6530   20.5700 O   0  0  0  0  0  0  0  0  0  0  0  0
  -22.4150  -12.1090   22.4110 H   0  0  0  0  0  0  0  0  0  0  0  0
  -21.1030  -13.2380   22.2110 H   0  0  0  0  0  0  0  0  0  0  0  0
  -25.3560  -15.2810   20.2000 N   0  0  0  0  0  0  0  0  0  0  0  0
  -24.5800  -15.9250   20.3070 H   0  0  0  0  0  0  0  0  0  0  0  0
  -26.1690  -15.7130   19.7790 H   0  0  0  0  0  0  0  0  0  0  0  0
  1  3  1  0
  3  2  1  0
  3  4  1  6
  5  3  1  0
  6  5  1  0
  7  9  1  0
  7  6  1  0
  8 19  2  0
  9 14  1  0
 10 18  1  0
 10 20  1  0
 11 17  1  0
 11 13  1  0
 12 18  1  0
 13 12  1  0
 14 13  2  0
 15 16  1  0
 15  9  2  0
 16 11  2  0
 17 10  1  0
 18  8  1  0
 20 22  2  0
 21 20  1  0
 23 21  1  0
 24 33  2  0
 24 29  1  0
 25 21  1  0
 25 29  1  0
 26 25  1  0
 27 28  1  0
 27 26  1  0
 28 24  1  0
 29 30  2  0
 30 31  1  0
 32 31  2  0
 33 32  1  0
 34  8  1  0
 34 35  1  0
 34 44  1  0
 35 38  1  0
 36 40  1  0
 36 35  1  0
 37 36  2  0
 40 39  1  0
 42 40  1  0
 42 43  1  0
 42 41  1  0
 44 47  1  1
 44 45  1  0
 46 44  1  0
 48 49  1  0
 48  1  1  0
 50 51  1  0
 50 53  1  0
 51 54  1  0
 53 64  1  0
 53 52  1  0
 54 52  1  0
 54 49  1  0
 54 55  1  6
 56 64  1  0
 57 62  1  0
 58 59  1  0
 58 57  1  0
 60 59  1  0
 60 69  1  0
 60 61  1  0
 62 56  1  0
 62 61  1  0
 63 56  2  0
 64 65  1  0
 66 67  2  0
 67 86  1  0
 68 67  1  0
 68 71  1  0
 69 66  1  0
 69 70  1  0
 70 68  2  0
 71 72  1  0
 72 73  2  0
 74 77  1  0
 74 73  1  0
 75 74  2  0
 76 75  1  0
 76 71  2  0
 77 78  1  0
 78 79  1  0
 79 80  2  0
 81 80  1  0
 81 85  1  0
 82 81  2  0
 83 78  2  0
 83 82  1  0
 84 83  1  0
 86 87  1  0
 87 90  1  0
 87 89  1  0
 88 86  2  0
 91 92  1  0
 91 66  1  0
 93 91  1  0
M  ISO  4   6 101   7 101  56 100  64 100
M  END
>  <TORSDO>  (58) 
F 22

>  <SCORE>  (58) 
-13.322

>  <name>  (58) 
57

>  <ligand_id>  (58) 
57

>  <original_smiles>  (58) 
[H]c1c([H])c([H])c2c(c1[H])C([H])([H])C([H])([H])C([H])([H])C2([H])N([H])C(=O)C1([H])N(C(=O)C([H])(N([H])C(=O)C([H])(N([H])C([H])([H])[H])C([H])([H])[H])C(C([H])([H])[H])(C([H])([H])[H])C([H])([H])[H])C([H])([H])c2c([H])c(OC([H])([H])C([H])([H])[N+]([H])(C([H])([H])[H])C([H])([H])C([H])([H])C([H])([H])[N+]3([H])C([H])([H])C([H])([H])C([H])(N([H])C(=O)N4C([H])([H])C([H])([H])C([H])([H])C([H])(n5nc(-c6c([H])c([H])c(Oc7c([H])c([H])c(F)c([H])c7F)c([H])c6[H])c(C(=O)N([H])[H])c5N([H])[H])C4([H])[H])C3([H])[H])c([H])c([H])c2C1([H])[H]

>  <smiles>  (58) 
[H]c1c([H])c([H])c2c(c1[H])C([H])([H])C([H])([H])C([H])([H])C2([H])N([H])C(=O)C1([H])N(C(=O)C([H])(N([H])C(=O)C([H])(N([H])C([H])([H])[H])C([H])([H])[H])C(C([H])([H])[H])(C([H])([H])[H])C([H])([H])[H])C([H])([H])c2c([H])c(OC([H])([H])C([H])([H])[N+]([H])(C([H])([H])[H])C([H])([H])C([H])([H])C([H])([H])[N+]3([H])C([H])([H])C([H])([H])C([H])(N([H])C(=O)N4C([H])([H])C([H])([H])C([H])([H])C([H])(n5nc(-c6c([H])c([H])c(Oc7c([H])c([H])c(F)c([H])c7F)c([H])c6[H])c(C(=O)N([H])[H])c5N([H])[H])C4([H])[H])C3([H])[H])c([H])c([H])c2C1([H])[H]

$$$$
58:0:0
     RDKit          3D

 93101  0  0  1  0  0  0  0  0999 V2000
  -29.6130  -21.1660   19.8900 C   0  0  0  0  0  2  0  0  0  0  0  0
  -29.7910  -18.4530   20.0320 C   0  0  0  0  0  3  0  0  0  0  0  0
  -30.8570  -17.4000   21.9530 C   0  0  0  0  0  3  0  0  0  0  0  0
  -29.9290  -19.7820   20.6200 C   0  0  0  0  0  0  0  0  0  0  0  0
  -30.2590  -17.2400   20.6840 C   0  0  0  0  0  0  0  0  0  0  0  0
  -30.9650  -18.6690   22.5580 C   0  0  0  0  0  0  0  0  0  0  0  0
  -30.5080  -19.8340   21.9050 C   0  0  0  0  0  0  0  0  0  0  0  0
  -31.5260  -18.7670   23.7880 F   0  0  0  0  0  0  0  0  0  0  0  0
  -30.6430  -21.0320   22.5280 F   0  0  0  0  0  0  0  0  0  0  0  0
  -30.8410  -14.7600   20.1150 C   0  0  0  0  0  0  0  0  0  0  0  0
  -30.5900  -12.5110   19.0490 C   0  0  0  0  0  2  0  0  0  0  0  0
  -29.6030  -12.6250   17.8680 C   0  0  0  0  0  2  0  0  0  0  0  0
  -28.1460  -12.4740   18.3500 C   0  0  0  0  0  2  0  0  0  0  0  0
  -27.8330  -13.3420   19.6010 C   0  0  0  0  0  3  0  0  0  0  0  0
  -28.9350  -13.2000   20.6730 C   0  0  0  0  0  2  0  0  0  0  0  0
  -30.2070  -13.5470   20.0290 N   0  0  0  0  0  0  0  0  0  0  0  0
  -32.0370  -14.8770   19.8200 O   0  0  0  0  0  0  0  0  0  0  0  0
  -30.0200  -15.8700   20.1980 N   0  0  0  0  0  0  0  0  0  0  0  0
  -29.0500  -15.6410   20.0500 H   0  0  0  0  0  0  0  0  0  0  0  0
  -25.4940  -13.9680   20.4540 C   0  0  0  0  0  0  0  0  0  0  0  0
  -24.4310  -13.2060   20.8580 C   0  0  0  0  0  0  0  0  0  0  0  0
  -24.8630  -11.8460   20.7730 C   0  0  0  0  0  0  0  0  0  0  0  0
  -26.5060  -13.0710   20.1450 N   0  0  0  0  0  0  0  0  0  0  0  0
  -26.1360  -11.7900   20.4010 N   0  0  0  0  0  0  0  0  0  0  0  0
  -24.1180  -10.5970   20.9640 C   0  0  0  0  0  0  0  0  0  0  0  0
  -24.5510   -9.6130   21.8810 C   0  0  0  0  0  3  0  0  0  0  0  0
  -23.8100   -8.4260   22.0630 C   0  0  0  0  0  3  0  0  0  0  0  0
  -22.6180   -8.2160   21.3260 C   0  0  0  0  0  0  0  0  0  0  0  0
  -22.2050   -9.1860   20.3980 C   0  0  0  0  0  3  0  0  0  0  0  0
  -22.9470  -10.3650   20.2140 C   0  0  0  0  0  3  0  0  0  0  0  0
  -21.8450   -7.0850   21.4200 O   0  0  0  0  0  0  0  0  0  0  0  0
  -21.7810   -6.3490   22.5760 C   0  0  0  0  0  0  0  0  0  0  0  0
  -21.3370   -6.9080   23.7950 C   0  0  0  0  0  3  0  0  0  0  0  0
  -21.2240   -6.0970   24.9420 C   0  0  0  0  0  3  0  0  0  0  0  0
  -21.5430   -4.7280   24.8710 C   0  0  0  0  0  0  0  0  0  0  0  0
  -21.9760   -4.1660   23.6560 C   0  0  0  0  0  3  0  0  0  0  0  0
  -22.0920   -4.9760   22.5120 C   0  0  0  0  0  0  0  0  0  0  0  0
  -22.4920   -4.4260   21.3390 F   0  0  0  0  0  0  0  0  0  0  0  0
  -21.4260   -3.9460   25.9680 F   0  0  0  0  0  0  0  0  0  0  0  0
  -23.0580  -13.7040   21.2020 C   0  0  0  0  0  0  0  0  0  0  0  0
  -22.3490  -13.0050   22.0800 N   0  0  0  0  0  0  0  0  0  0  0  0
  -22.6200  -14.7460   20.7190 O   0  0  0  0  0  0  0  0  0  0  0  0
  -22.7130  -12.1610   22.4990 H   0  0  0  0  0  0  0  0  0  0  0  0
  -21.4240  -13.3190   22.3390 H   0  0  0  0  0  0  0  0  0  0  0  0
  -25.6780  -15.3400   20.3020 N   0  0  0  0  0  0  0  0  0  0  0  0
  -24.9230  -15.9970   20.4720 H   0  0  0  0  0  0  0  0  0  0  0  0
  -26.5010  -15.7760   19.9060 H   0  0  0  0  0  0  0  0  0  0  0  0
  -27.4250  -22.0490   20.6910 C   0  0  0  0  0  1  0  0  0  0  0  0
  -28.8890  -22.3030   20.6400 N   0  0  2  0  0  4  0  0  0  0  0  0
  -29.2140  -22.2010   21.5920 H   0  0  0  0  0  0  0  0  0  0  0  0
  -29.2340  -23.7690   20.2570 C   0  0  0  0  0  3  0  0  0  0  0  0
  -28.1680  -24.9430   20.5760 C   0  0  0  0  0  3  0  0  0  0  0  0
  -28.4570  -26.4100   20.3570 O   0  0  0  0  0  0  0  0  0  0  0  0
  -24.6740  -31.9170   23.2100 C   0  0  0  0  0  0  0  0  0  0  0  0
  -27.3620  -27.2980   20.2830 C   0  0  0  0  0  0  0  0  0  0  0  0
  -23.5120  -30.4870   21.5720 C   0  0  0  0  0  3  0  0  0  0  0  0
  -24.9980  -28.9290   20.1940 C   0  0  0  0  0  0  0  0  0  0  0  0
  -26.0540  -30.8190   21.4210 C   0  0  0  0  0  2  0  0  0  0  0  0
  -26.1560  -29.4230   20.8090 C   0  0  0  0  0  0  0  0  0  0  0  0
  -27.3400  -28.6210   20.8470 C   0  0  0  0  0  3  0  0  0  0  0  0
  -26.1830  -26.8850   19.6150 C   0  0  0  0  0  3  0  0  0  0  0  0
  -25.0150  -27.6650   19.5940 C   0  0  0  0  0  3  0  0  0  0  0  0
  -23.7600  -29.8040   20.2020 C   0  0  0  0  0  2  0  0  0  0  0  0
  -24.7660  -31.0940   22.1250 N   0  0  0  0  0  0  0  0  0  0  0  0
  -23.5770  -32.1900   23.7220 O   0  0  0  0  0  0  0  0  0  0  0  0
  -22.8440  -29.4720   22.5320 C   0  0  0  0  0  0  0  0  0  0  0  0
  -21.5250  -29.2600   22.3710 N   0  0  0  0  0  0  0  0  0  0  0  0
  -23.5130  -28.8810   23.3830 O   0  0  0  0  0  0  0  0  0  0  0  0
  -21.0460  -29.7940   21.6610 H   0  0  0  0  0  0  0  0  0  0  0  0
  -18.1710  -27.9620   22.7810 C   0  0  0  0  0  0  0  0  0  0  0  0
  -20.7060  -28.3210   23.1420 C   0  0  0  0  0  3  0  0  0  0  0  0
  -20.8810  -26.8750   22.6250 C   0  0  0  0  0  2  0  0  0  0  0  0
  -19.8320  -26.4770   21.5830 C   0  0  0  0  0  2  0  0  0  0  0  0
  -18.4200  -26.5970   22.1610 C   0  0  0  0  0  2  0  0  0  0  0  0
  -19.2440  -28.7770   23.2270 C   0  0  0  0  0  0  0  0  0  0  0  0
  -18.9550  -30.0500   23.7670 C   0  0  0  0  0  3  0  0  0  0  0  0
  -17.6280  -30.5080   23.8640 C   0  0  0  0  0  3  0  0  0  0  0  0
  -16.5700  -29.6920   23.4290 C   0  0  0  0  0  3  0  0  0  0  0  0
  -16.8420  -28.4200   22.8930 C   0  0  0  0  0  3  0  0  0  0  0  0
  -25.9370  -32.5750   23.8460 C   0  0  0  0  0  3  0  0  0  0  0  0
  -26.4480  -31.8140   25.1310 C   0  0  1  0  0  0  0  0  0  0  0  0
  -25.3450  -31.5560   26.1860 C   0  0  0  0  0  1  0  0  0  0  0  0
  -27.0660  -30.4500   24.7460 C   0  0  0  0  0  1  0  0  0  0  0  0
  -27.5770  -32.6280   25.8060 C   0  0  0  0  0  1  0  0  0  0  0  0
  -25.5980  -33.9690   24.1720 N   0  0  0  0  0  0  0  0  0  0  0  0
  -25.9130  -35.0230   23.4080 C   0  0  0  0  0  0  0  0  0  0  0  0
  -26.5890  -34.9250   22.3800 O   0  0  0  0  0  0  0  0  0  0  0  0
  -25.0050  -34.1150   24.9750 H   0  0  0  0  0  0  0  0  0  0  0  0
  -24.1670  -36.7890   23.0100 C   0  0  0  0  0  1  0  0  0  0  0  0
  -25.3960  -36.4050   23.8510 C   0  0  0  0  0  3  0  0  0  0  0  0
  -27.5020  -37.3240   24.7170 C   0  0  0  0  0  1  0  0  0  0  0  0
  -26.4150  -37.4720   23.7530 N   0  0  0  0  0  0  0  0  0  0  0  0
  -25.9930  -38.3870   23.8830 H   0  0  0  0  0  0  0  0  0  0  0  0
  1  4  1  0
  1 49  1  0
  2  4  2  0
  2  5  1  0
  3  6  1  0
  4  7  1  0
  5  3  2  0
  6  8  1  0
  7  9  1  0
  7  6  2  0
 10 18  1  0
 11 16  1  0
 12 13  1  0
 12 11  1  0
 14 13  1  0
 14 23  1  0
 14 15  1  0
 16 10  1  0
 16 15  1  0
 17 10  2  0
 18  5  1  0
 19 18  1  0
 20 21  2  0
 21 40  1  0
 22 21  1  0
 22 25  1  0
 23 24  1  0
 23 20  1  0
 24 22  2  0
 25 26  1  0
 26 27  2  0
 28 31  1  0
 28 27  1  0
 29 28  2  0
 30 29  1  0
 30 25  2  0
 31 32  1  0
 32 33  1  0
 33 34  2  0
 35 34  1  0
 35 39  1  0
 36 35  2  0
 37 32  2  0
 37 36  1  0
 38 37  1  0
 40 41  1  0
 41 44  1  0
 41 43  1  0
 42 40  2  0
 45 20  1  0
 45 46  1  0
 47 45  1  0
 49 48  1  0
 49 50  1  1
 51 52  2  0
 51 49  1  0
 53 52  1  0
 54 65  2  0
 55 53  1  0
 55 60  1  0
 56 64  1  0
 56 66  1  0
 57 63  1  0
 57 59  1  0
 58 64  1  0
 59 60  2  0
 59 58  1  0
 61 55  2  0
 62 61  1  0
 62 57  2  0
 63 56  1  0
 64 54  1  0
 66 68  2  0
 67 66  1  0
 69 67  1  0
 70 79  2  0
 70 75  1  0
 71 67  1  0
 71 75  1  0
 72 71  1  0
 73 74  1  0
 73 72  1  0
 74 70  1  0
 75 76  2  0
 76 77  1  0
 78 77  2  0
 79 78  1  0
 80 54  1  0
 80 85  1  0
 80 81  1  0
 81 84  1  1
 81 82  1  0
 83 81  1  0
 85 88  1  0
 86 90  1  0
 86 85  1  0
 87 86  2  0
 90 89  1  0
 92 90  1  0
 92 93  1  0
 92 91  1  0
M  ISO  4  10 100  18 100  52 101  53 101
M  END
>  <TORSDO>  (59) 
F 20

>  <SCORE>  (59) 
-13.510

>  <name>  (59) 
58

>  <ligand_id>  (59) 
58

>  <original_smiles>  (59) 
[H]c1c([H])c([H])c2c(c1[H])C([H])([H])C([H])([H])C([H])([H])C2([H])N([H])C(=O)C1([H])N(C(=O)C([H])(N([H])C(=O)C([H])(N([H])C([H])([H])[H])C([H])([H])[H])C(C([H])([H])[H])(C([H])([H])[H])C([H])([H])[H])C([H])([H])c2c([H])c(OC([H])([H])C([H])([H])[N+]([H])(C([H])([H])[H])C([H])([H])c3c([H])c(N([H])C(=O)N4C([H])([H])C([H])([H])C([H])([H])C([H])(n5nc(-c6c([H])c([H])c(Oc7c([H])c([H])c(F)c([H])c7F)c([H])c6[H])c(C(=O)N([H])[H])c5N([H])[H])C4([H])[H])c([H])c(F)c3F)c([H])c([H])c2C1([H])[H]

>  <smiles>  (59) 
[H]c1c([H])c([H])c2c(c1[H])C([H])([H])C([H])([H])C([H])([H])C2([H])N([H])C(=O)C1([H])N(C(=O)C([H])(N([H])C(=O)C([H])(N([H])C([H])([H])[H])C([H])([H])[H])C(C([H])([H])[H])(C([H])([H])[H])C([H])([H])[H])C([H])([H])c2c([H])c(OC([H])([H])C([H])([H])[N+]([H])(C([H])([H])[H])C([H])([H])c3c([H])c(N([H])C(=O)N4C([H])([H])C([H])([H])C([H])([H])C([H])(n5nc(-c6c([H])c([H])c(Oc7c([H])c([H])c(F)c([H])c7F)c([H])c6[H])c(C(=O)N([H])[H])c5N([H])[H])C4([H])[H])c([H])c(F)c3F)c([H])c([H])c2C1([H])[H]

$$$$
59:0:0
     RDKit          3D

 96105  0  0  1  0  0  0  0  0999 V2000
  -28.5780  -21.6520   20.7240 C   0  0  0  0  0  0  0  0  0  0  0  0
  -29.2220  -20.9600   21.6800 N   0  0  0  0  0  0  0  0  0  0  0  0
  -28.8110  -21.4940   19.5210 O   0  0  0  0  0  0  0  0  0  0  0  0
  -28.9690  -21.1220   22.6470 H   0  0  0  0  0  0  0  0  0  0  0  0
  -26.1650  -22.6580   20.6460 C   0  0  0  0  0  2  0  0  0  0  0  0
  -26.3510  -24.0390   20.0260 C   0  0  0  0  0  2  0  0  0  0  0  0
  -27.6060  -22.7720   21.1560 C   0  0  0  0  0  3  0  0  0  0  0  0
  -27.7970  -23.8890   20.2290 N   0  0  2  0  0  4  0  0  0  0  0  0
  -28.2610  -23.4510   19.4370 H   0  0  0  0  0  0  0  0  0  0  0  0
  -28.5190  -25.0640   20.7740 C   0  0  0  0  0  2  0  0  0  0  0  0
  -29.0370  -26.0150   19.6780 C   0  0  0  0  0  2  0  0  0  0  0  0
  -28.9130  -27.3540   20.1510 O   0  0  0  0  0  0  0  0  0  0  0  0
  -24.6390  -31.9650   23.4460 C   0  0  0  0  0  0  0  0  0  0  0  0
  -27.6620  -27.9300   20.1770 C   0  0  0  0  0  0  0  0  0  0  0  0
  -23.5810  -30.6040   21.6720 C   0  0  0  0  0  3  0  0  0  0  0  0
  -25.1710  -29.2590   20.2210 C   0  0  0  0  0  0  0  0  0  0  0  0
  -26.0810  -31.1290   21.5980 C   0  0  0  0  0  2  0  0  0  0  0  0
  -26.2730  -29.8140   20.8760 C   0  0  0  0  0  0  0  0  0  0  0  0
  -27.5220  -29.1580   20.8540 C   0  0  0  0  0  3  0  0  0  0  0  0
  -26.5260  -27.3690   19.5420 C   0  0  0  0  0  3  0  0  0  0  0  0
  -25.2900  -28.0320   19.5560 C   0  0  0  0  0  3  0  0  0  0  0  0
  -23.8780  -30.0370   20.2630 C   0  0  0  0  0  2  0  0  0  0  0  0
  -24.7820  -31.2410   22.3000 N   0  0  0  0  0  0  0  0  0  0  0  0
  -23.5230  -32.1370   23.9550 O   0  0  0  0  0  0  0  0  0  0  0  0
  -22.9580  -29.4840   22.5400 C   0  0  0  0  0  0  0  0  0  0  0  0
  -21.6580  -29.2200   22.3270 N   0  0  0  0  0  0  0  0  0  0  0  0
  -23.6380  -28.8530   23.3530 O   0  0  0  0  0  0  0  0  0  0  0  0
  -21.1660  -29.7720   21.6410 H   0  0  0  0  0  0  0  0  0  0  0  0
  -18.3560  -27.7700   22.5970 C   0  0  0  0  0  0  0  0  0  0  0  0
  -20.8770  -28.1760   22.9820 C   0  0  0  0  0  3  0  0  0  0  0  0
  -21.1070  -26.8090   22.2870 C   0  0  0  0  0  2  0  0  0  0  0  0
  -20.0430  -26.4580   21.2400 C   0  0  0  0  0  2  0  0  0  0  0  0
  -18.6460  -26.4630   21.8750 C   0  0  0  0  0  2  0  0  0  0  0  0
  -19.4020  -28.5770   23.1150 C   0  0  0  0  0  0  0  0  0  0  0  0
  -19.0720  -29.7870   23.7710 C   0  0  0  0  0  3  0  0  0  0  0  0
  -17.7330  -30.1930   23.9030 C   0  0  0  0  0  3  0  0  0  0  0  0
  -16.7010  -29.3890   23.3940 C   0  0  0  0  0  3  0  0  0  0  0  0
  -17.0130  -28.1810   22.7420 C   0  0  0  0  0  3  0  0  0  0  0  0
  -25.8630  -32.6310   24.1530 C   0  0  0  0  0  3  0  0  0  0  0  0
  -25.5040  -34.0270   24.4390 N   0  0  0  0  0  0  0  0  0  0  0  0
  -25.8580  -35.0730   23.6820 C   0  0  0  0  0  0  0  0  0  0  0  0
  -26.5990  -34.9690   22.7010 O   0  0  0  0  0  0  0  0  0  0  0  0
  -24.8680  -34.1860   25.2060 H   0  0  0  0  0  0  0  0  0  0  0  0
  -24.1190  -36.8110   23.1740 C   0  0  0  0  0  1  0  0  0  0  0  0
  -25.3100  -36.4560   24.0790 C   0  0  0  0  0  3  0  0  0  0  0  0
  -27.3580  -37.4080   25.0390 C   0  0  0  0  0  1  0  0  0  0  0  0
  -26.3220  -37.5330   24.0170 N   0  0  0  0  0  0  0  0  0  0  0  0
  -25.8850  -38.4450   24.1220 H   0  0  0  0  0  0  0  0  0  0  0  0
  -26.2970  -31.8830   25.4740 C   0  0  1  0  0  0  0  0  0  0  0  0
  -25.1270  -31.6090   26.4440 C   0  0  0  0  0  1  0  0  0  0  0  0
  -26.9600  -30.5260   25.1370 C   0  0  0  0  0  1  0  0  0  0  0  0
  -27.3600  -32.7210   26.2250 C   0  0  0  0  0  1  0  0  0  0  0  0
  -30.4630  -20.2020   21.4780 C   0  0  0  0  0  2  0  0  0  0  0  0
  -29.4450  -16.7910   20.0610 C   0  0  0  0  0  3  0  0  0  0  0  0
  -29.3820  -18.1550   20.4160 C   0  0  0  0  0  3  0  0  0  0  0  0
  -31.2340  -16.4540   21.6790 C   0  0  0  0  0  3  0  0  0  0  0  0
  -30.4030  -15.9420   20.6540 C   0  0  0  0  0  0  0  0  0  0  0  0
  -30.3110  -18.6910   21.3330 C   0  0  0  0  0  0  0  0  0  0  0  0
  -31.2080  -17.8250   21.9950 C   0  0  0  0  0  0  0  0  0  0  0  0
  -32.1220  -18.3140   22.8690 F   0  0  0  0  0  0  0  0  0  0  0  0
  -30.8380  -14.6840   19.9650 C   0  0  0  0  0  0  0  0  0  0  0  0
  -30.3870  -12.5010   18.9370 C   0  0  0  0  0  2  0  0  0  0  0  0
  -29.3930  -12.6330   17.7710 C   0  0  0  0  0  2  0  0  0  0  0  0
  -27.9520  -12.4920   18.2900 C   0  0  0  0  0  2  0  0  0  0  0  0
  -27.6680  -13.4010   19.5160 C   0  0  0  0  0  3  0  0  0  0  0  0
  -28.7890  -13.3260   20.5800 C   0  0  0  0  0  2  0  0  0  0  0  0
  -30.0770  -13.5580   19.9140 N   0  0  0  0  0  0  0  0  0  0  0  0
  -31.8970  -14.7940   19.3450 O   0  0  0  0  0  0  0  0  0  0  0  0
  -25.3370  -14.0100   20.4170 C   0  0  0  0  0  0  0  0  0  0  0  0
  -24.2920  -13.2360   20.8410 C   0  0  0  0  0  0  0  0  0  0  0  0
  -24.7390  -11.8810   20.7430 C   0  0  0  0  0  0  0  0  0  0  0  0
  -26.3530  -13.1250   20.0880 N   0  0  0  0  0  0  0  0  0  0  0  0
  -26.0020  -11.8390   20.3430 N   0  0  0  0  0  0  0  0  0  0  0  0
  -24.0150  -10.6220   20.9450 C   0  0  0  0  0  0  0  0  0  0  0  0
  -24.4500   -9.6660   21.8920 C   0  0  0  0  0  3  0  0  0  0  0  0
  -23.7270   -8.4680   22.0830 C   0  0  0  0  0  3  0  0  0  0  0  0
  -22.5550   -8.2190   21.3300 C   0  0  0  0  0  0  0  0  0  0  0  0
  -22.1410   -9.1630   20.3720 C   0  0  0  0  0  3  0  0  0  0  0  0
  -22.8640  -10.3500   20.1790 C   0  0  0  0  0  3  0  0  0  0  0  0
  -21.7990   -7.0760   21.4310 O   0  0  0  0  0  0  0  0  0  0  0  0
  -21.7080   -6.3770   22.6090 C   0  0  0  0  0  0  0  0  0  0  0  0
  -21.1950   -6.9630   23.7890 C   0  0  0  0  0  3  0  0  0  0  0  0
  -21.0530   -6.1860   24.9560 C   0  0  0  0  0  3  0  0  0  0  0  0
  -21.4200   -4.8270   24.9470 C   0  0  0  0  0  0  0  0  0  0  0  0
  -21.9220   -4.2400   23.7720 C   0  0  0  0  0  3  0  0  0  0  0  0
  -22.0640   -5.0140   22.6070 C   0  0  0  0  0  0  0  0  0  0  0  0
  -22.5320   -4.4390   21.4730 F   0  0  0  0  0  0  0  0  0  0  0  0
  -21.2740   -4.0790   26.0640 F   0  0  0  0  0  0  0  0  0  0  0  0
  -22.9220  -13.7110   21.2280 C   0  0  0  0  0  0  0  0  0  0  0  0
  -22.2550  -12.9970   22.1260 N   0  0  0  0  0  0  0  0  0  0  0  0
  -22.4560  -14.7560   20.7720 O   0  0  0  0  0  0  0  0  0  0  0  0
  -22.6480  -12.1570   22.5260 H   0  0  0  0  0  0  0  0  0  0  0  0
  -21.3340  -13.2900   22.4200 H   0  0  0  0  0  0  0  0  0  0  0  0
  -25.5010  -15.3830   20.2590 N   0  0  0  0  0  0  0  0  0  0  0  0
  -24.7600  -16.0430   20.4550 H   0  0  0  0  0  0  0  0  0  0  0  0
  -26.3460  -15.8330   19.9300 H   0  0  0  0  0  0  0  0  0  0  0  0
  1  2  1  0
  2  4  1  0
  3  1  2  0
  5  7  1  0
  6  8  1  0
  6  5  1  0
  7  1  1  0
  8 10  1  0
  8  7  1  0
  8  9  1  6
 11 12  1  0
 11 10  1  0
 12 14  1  0
 13 24  2  0
 14 19  1  0
 15 23  1  0
 15 25  1  0
 16 22  1  0
 16 18  1  0
 17 23  1  0
 18 17  1  0
 19 18  2  0
 20 21  1  0
 20 14  2  0
 21 16  2  0
 22 15  1  0
 23 13  1  0
 25 27  2  0
 26 25  1  0
 28 26  1  0
 29 38  2  0
 29 34  1  0
 30 26  1  0
 30 34  1  0
 31 30  1  0
 32 33  1  0
 32 31  1  0
 33 29  1  0
 34 35  2  0
 35 36  1  0
 37 36  2  0
 38 37  1  0
 39 13  1  0
 39 40  1  0
 39 49  1  0
 40 43  1  0
 41 45  1  0
 41 40  1  0
 42 41  2  0
 45 44  1  0
 47 45  1  0
 47 48  1  0
 47 46  1  0
 49 52  1  1
 49 50  1  0
 51 49  1  0
 53  2  1  0
 54 55  2  0
 54 57  1  0
 55 58  1  0
 56 59  1  0
 57 56  2  0
 58 53  1  0
 58 59  2  0
 59 60  1  0
 61 57  1  0
 62 67  1  0
 63 64  1  0
 63 62  1  0
 65 64  1  0
 65 72  1  0
 65 66  1  0
 67 61  1  0
 67 66  1  0
 68 61  2  0
 69 70  2  0
 70 89  1  0
 71 70  1  0
 71 74  1  0
 72 73  1  0
 72 69  1  0
 73 71  2  0
 74 75  1  0
 75 76  2  0
 77 80  1  0
 77 76  1  0
 78 77  2  0
 79 78  1  0
 79 74  2  0
 80 81  1  0
 81 82  1  0
 82 83  2  0
 84 83  1  0
 84 88  1  0
 85 84  2  0
 86 81  2  0
 86 85  1  0
 87 86  1  0
 89 90  1  0
 90 93  1  0
 90 92  1  0
 91 89  2  0
 94 69  1  0
 94 95  1  0
 96 94  1  0
M  ISO  4  11 101  12 101  57 100  61 100
M  END
>  <TORSDO>  (60) 
F 21

>  <SCORE>  (60) 
-12.631

>  <name>  (60) 
59

>  <ligand_id>  (60) 
59

>  <original_smiles>  (60) 
[H]c1c([H])c([H])c2c(c1[H])C([H])([H])C([H])([H])C([H])([H])C2([H])N([H])C(=O)C1([H])N(C(=O)C([H])(N([H])C(=O)C([H])(N([H])C([H])([H])[H])C([H])([H])[H])C(C([H])([H])[H])(C([H])([H])[H])C([H])([H])[H])C([H])([H])c2c([H])c(OC([H])([H])C([H])([H])[N+]3([H])C([H])([H])C([H])([H])C3([H])C(=O)N([H])C([H])([H])c3c([H])c([H])c(C(=O)N4C([H])([H])C([H])([H])C([H])([H])C([H])(n5nc(-c6c([H])c([H])c(Oc7c([H])c([H])c(F)c([H])c7F)c([H])c6[H])c(C(=O)N([H])[H])c5N([H])[H])C4([H])[H])c([H])c3F)c([H])c([H])c2C1([H])[H]

>  <smiles>  (60) 
[H]c1c([H])c([H])c2c(c1[H])C([H])([H])C([H])([H])C([H])([H])C2([H])N([H])C(=O)C1([H])N(C(=O)C([H])(N([H])C(=O)C([H])(N([H])C([H])([H])[H])C([H])([H])[H])C(C([H])([H])[H])(C([H])([H])[H])C([H])([H])[H])C([H])([H])c2c([H])c(OC([H])([H])C([H])([H])[N+]3([H])C([H])([H])C([H])([H])C3([H])C(=O)N([H])C([H])([H])c3c([H])c([H])c(C(=O)N4C([H])([H])C([H])([H])C([H])([H])C([H])(n5nc(-c6c([H])c([H])c(Oc7c([H])c([H])c(F)c([H])c7F)c([H])c6[H])c(C(=O)N([H])[H])c5N([H])[H])C4([H])[H])c([H])c3F)c([H])c([H])c2C1([H])[H]

$$$$
60:0:0
     RDKit          3D

 90 98  0  0  1  0  0  0  0  0999 V2000
  -30.0430  -20.8990   18.9920 C   0  0  0  0  0  3  0  0  0  0  0  0
  -29.4900  -19.8170   19.7970 C   0  0  0  0  0  0  0  0  0  0  0  0
  -28.6040  -22.9580   19.7260 C   0  0  0  0  0  0  0  0  0  0  0  0
  -29.6440  -22.3240   18.9400 C   0  0  0  0  0  0  0  0  0  0  0  0
  -28.4480  -20.4510   20.5920 C   0  0  0  0  0  0  0  0  0  0  0  0
  -28.0390  -21.8840   20.5460 C   0  0  0  0  0  0  0  0  0  0  0  0
  -30.2960  -23.1020   18.0430 F   0  0  0  0  0  0  0  0  0  0  0  0
  -27.7920  -19.6570   21.4720 F   0  0  0  0  0  0  0  0  0  0  0  0
  -26.9970  -22.2300   21.3420 F   0  0  0  0  0  0  0  0  0  0  0  0
  -30.2050  -18.2320   19.8760 C   0  0  0  0  0  2  0  0  0  0  0  0
  -30.4720  -15.3800   19.8650 C   0  0  0  0  0  0  0  0  0  0  0  0
  -30.3440  -12.9660   18.9630 C   0  0  0  0  0  2  0  0  0  0  0  0
  -29.3600  -12.8150   17.7780 C   0  0  0  0  0  2  0  0  0  0  0  0
  -27.9310  -12.5630   18.2910 C   0  0  0  0  0  2  0  0  0  0  0  0
  -27.5550  -13.5120   19.4570 C   0  0  0  0  0  3  0  0  0  0  0  0
  -28.6640  -13.6210   20.5260 C   0  0  0  0  0  2  0  0  0  0  0  0
  -29.8700  -14.0970   19.8350 N   0  0  0  0  0  0  0  0  0  0  0  0
  -31.6730  -15.3680   19.5670 O   0  0  0  0  0  0  0  0  0  0  0  0
  -29.7570  -16.6570   20.0180 N   0  0  0  0  0  0  0  0  0  0  0  0
  -28.7770  -16.5350   20.2220 H   0  0  0  0  0  0  0  0  0  0  0  0
  -25.2300  -14.0750   20.3410 C   0  0  0  0  0  0  0  0  0  0  0  0
  -24.1850  -13.2980   20.7560 C   0  0  0  0  0  0  0  0  0  0  0  0
  -24.6420  -11.9460   20.6820 C   0  0  0  0  0  0  0  0  0  0  0  0
  -26.2530  -13.1980   20.0310 N   0  0  0  0  0  0  0  0  0  0  0  0
  -25.9160  -11.9110   20.3050 N   0  0  0  0  0  0  0  0  0  0  0  0
  -23.9180  -10.6840   20.8920 C   0  0  0  0  0  0  0  0  0  0  0  0
  -24.3670   -9.7200   21.8190 C   0  0  0  0  0  3  0  0  0  0  0  0
  -23.6420   -8.5250   22.0180 C   0  0  0  0  0  3  0  0  0  0  0  0
  -22.4520   -8.2880   21.2890 C   0  0  0  0  0  0  0  0  0  0  0  0
  -22.0220   -9.2410   20.3490 C   0  0  0  0  0  3  0  0  0  0  0  0
  -22.7490  -10.4270   20.1480 C   0  0  0  0  0  3  0  0  0  0  0  0
  -21.6950   -7.1460   21.3980 O   0  0  0  0  0  0  0  0  0  0  0  0
  -21.6430   -6.4260   22.5640 C   0  0  0  0  0  0  0  0  0  0  0  0
  -21.1720   -6.9930   23.7690 C   0  0  0  0  0  3  0  0  0  0  0  0
  -21.0670   -6.1970   24.9280 C   0  0  0  0  0  3  0  0  0  0  0  0
  -21.4240   -4.8360   24.8820 C   0  0  0  0  0  0  0  0  0  0  0  0
  -21.8880   -4.2690   23.6830 C   0  0  0  0  0  3  0  0  0  0  0  0
  -21.9940   -5.0620   22.5260 C   0  0  0  0  0  0  0  0  0  0  0  0
  -22.4210   -4.5050   21.3670 F   0  0  0  0  0  0  0  0  0  0  0  0
  -21.3160   -4.0700   25.9930 F   0  0  0  0  0  0  0  0  0  0  0  0
  -22.8060  -13.7790   21.1000 C   0  0  0  0  0  0  0  0  0  0  0  0
  -22.1120  -13.0680   21.9810 N   0  0  0  0  0  0  0  0  0  0  0  0
  -22.3550  -14.8200   20.6230 O   0  0  0  0  0  0  0  0  0  0  0  0
  -22.4900  -12.2250   22.3860 H   0  0  0  0  0  0  0  0  0  0  0  0
  -21.1860  -13.3700   22.2530 H   0  0  0  0  0  0  0  0  0  0  0  0
  -25.3880  -15.4480   20.1730 N   0  0  0  0  0  0  0  0  0  0  0  0
  -24.6270  -16.0990   20.3310 H   0  0  0  0  0  0  0  0  0  0  0  0
  -26.2080  -15.8880   19.7770 H   0  0  0  0  0  0  0  0  0  0  0  0
  -27.8830  -24.5170   19.4660 C   0  0  0  0  0  2  0  0  0  0  0  0
  -28.2230  -26.0690   19.8100 O   0  0  0  0  0  0  0  0  0  0  0  0
  -24.5480  -31.7520   23.0940 C   0  0  0  0  0  0  0  0  0  0  0  0
  -27.2010  -27.1460   19.7970 C   0  0  0  0  0  0  0  0  0  0  0  0
  -23.3780  -30.4260   21.3840 C   0  0  0  0  0  3  0  0  0  0  0  0
  -24.8570  -28.9480   19.8670 C   0  0  0  0  0  0  0  0  0  0  0  0
  -25.9370  -30.7140   21.2410 C   0  0  0  0  0  2  0  0  0  0  0  0
  -26.0380  -29.3490   20.5060 C   0  0  0  0  0  0  0  0  0  0  0  0
  -27.2050  -28.4690   20.4510 C   0  0  0  0  0  3  0  0  0  0  0  0
  -25.9890  -26.8950   19.1160 C   0  0  0  0  0  3  0  0  0  0  0  0
  -24.8550  -27.7410   19.1540 C   0  0  0  0  0  3  0  0  0  0  0  0
  -23.6170  -29.8300   19.9690 C   0  0  0  0  0  2  0  0  0  0  0  0
  -24.6420  -30.9870   21.9610 N   0  0  0  0  0  0  0  0  0  0  0  0
  -23.4550  -31.9860   23.6350 O   0  0  0  0  0  0  0  0  0  0  0  0
  -22.7140  -29.3570   22.2910 C   0  0  0  0  0  0  0  0  0  0  0  0
  -21.3870  -29.1710   22.1620 N   0  0  0  0  0  0  0  0  0  0  0  0
  -23.3980  -28.6990   23.0780 O   0  0  0  0  0  0  0  0  0  0  0  0
  -20.8870  -29.7530   21.5040 H   0  0  0  0  0  0  0  0  0  0  0  0
  -18.0280  -27.8890   22.6400 C   0  0  0  0  0  0  0  0  0  0  0  0
  -20.5880  -28.1750   22.8840 C   0  0  0  0  0  3  0  0  0  0  0  0
  -20.7000  -26.7840   22.2160 C   0  0  0  0  0  2  0  0  0  0  0  0
  -19.5860  -26.5120   21.2000 C   0  0  0  0  0  2  0  0  0  0  0  0
  -18.2140  -26.5910   21.8740 C   0  0  0  0  0  2  0  0  0  0  0  0
  -19.1430  -28.6400   23.1020 C   0  0  0  0  0  0  0  0  0  0  0  0
  -18.9130  -29.8550   23.7840 C   0  0  0  0  0  3  0  0  0  0  0  0
  -17.6030  -30.3180   24.0070 C   0  0  0  0  0  3  0  0  0  0  0  0
  -16.5040  -29.5650   23.5610 C   0  0  0  0  0  3  0  0  0  0  0  0
  -16.7170  -28.3510   22.8840 C   0  0  0  0  0  3  0  0  0  0  0  0
  -25.8080  -32.3870   23.7560 C   0  0  0  0  0  3  0  0  0  0  0  0
  -25.4780  -33.7760   24.1190 N   0  0  0  0  0  0  0  0  0  0  0  0
  -25.7920  -34.8540   23.3880 C   0  0  0  0  0  0  0  0  0  0  0  0
  -26.4530  -34.7840   22.3490 O   0  0  0  0  0  0  0  0  0  0  0  0
  -24.8910  -33.9040   24.9290 H   0  0  0  0  0  0  0  0  0  0  0  0
  -24.0280  -36.6310   23.1160 C   0  0  0  0  0  1  0  0  0  0  0  0
  -25.2960  -36.2270   23.8860 C   0  0  0  0  0  3  0  0  0  0  0  0
  -27.4330  -37.1380   24.6870 C   0  0  0  0  0  1  0  0  0  0  0  0
  -26.3090  -37.3000   23.7680 N   0  0  0  0  0  0  0  0  0  0  0  0
  -25.8910  -38.2110   23.9350 H   0  0  0  0  0  0  0  0  0  0  0  0
  -26.3000  -31.5960   25.0320 C   0  0  1  0  0  0  0  0  0  0  0  0
  -25.1860  -31.3370   26.0740 C   0  0  0  0  0  1  0  0  0  0  0  0
  -26.8960  -30.2260   24.6380 C   0  0  0  0  0  1  0  0  0  0  0  0
  -27.4340  -32.3830   25.7300 C   0  0  0  0  0  1  0  0  0  0  0  0
  1  2  1  0
  2 10  1  0
  2  5  2  0
  3  6  2  0
  4  1  2  0
  4  3  1  0
  5  8  1  0
  6  5  1  0
  6  9  1  0
  7  4  1  0
 10 19  1  0
 11 19  1  0
 12 17  1  0
 13 14  1  0
 13 12  1  0
 15 14  1  0
 15 24  1  0
 15 16  1  0
 17 11  1  0
 17 16  1  0
 18 11  2  0
 19 20  1  0
 21 22  2  0
 22 41  1  0
 23 22  1  0
 23 26  1  0
 24 25  1  0
 24 21  1  0
 25 23  2  0
 26 27  1  0
 27 28  2  0
 29 32  1  0
 29 28  1  0
 30 29  2  0
 31 30  1  0
 31 26  2  0
 32 33  1  0
 33 34  1  0
 34 35  2  0
 36 35  1  0
 36 40  1  0
 37 36  2  0
 38 33  2  0
 38 37  1  0
 39 38  1  0
 41 42  1  0
 42 45  1  0
 42 44  1  0
 43 41  2  0
 46 47  1  0
 46 21  1  0
 48 46  1  0
 49  3  1  0
 49 50  1  0
 51 62  2  0
 52 50  1  0
 52 57  1  0
 53 61  1  0
 53 63  1  0
 54 60  1  0
 54 56  1  0
 55 61  1  0
 56 55  1  0
 57 56  2  0
 58 59  1  0
 58 52  2  0
 59 54  2  0
 60 53  1  0
 61 51  1  0
 63 65  2  0
 64 63  1  0
 66 64  1  0
 67 76  2  0
 67 72  1  0
 68 64  1  0
 68 72  1  0
 69 68  1  0
 70 71  1  0
 70 69  1  0
 71 67  1  0
 72 73  2  0
 73 74  1  0
 75 74  2  0
 76 75  1  0
 77 51  1  0
 77 78  1  0
 77 87  1  0
 78 81  1  0
 79 83  1  0
 79 78  1  0
 80 79  2  0
 83 82  1  0
 85 83  1  0
 85 86  1  0
 85 84  1  0
 87 90  1  1
 87 88  1  0
 89 87  1  0
M  ISO  4  11 100  19 100  49 101  50 101
M  END
>  <TORSDO>  (61) 
F 18

>  <SCORE>  (61) 
-14.990

>  <name>  (61) 
60

>  <ligand_id>  (61) 
60

>  <original_smiles>  (61) 
[H]c1c([H])c([H])c2c(c1[H])C([H])([H])C([H])([H])C([H])([H])C2([H])N([H])C(=O)C1([H])N(C(=O)C([H])(N([H])C(=O)C([H])(N([H])C([H])([H])[H])C([H])([H])[H])C(C([H])([H])[H])(C([H])([H])[H])C([H])([H])[H])C([H])([H])c2c([H])c(OC([H])([H])c3c(F)c([H])c(C([H])([H])N([H])C(=O)N4C([H])([H])C([H])([H])C([H])([H])C([H])(n5nc(-c6c([H])c([H])c(Oc7c([H])c([H])c(F)c([H])c7F)c([H])c6[H])c(C(=O)N([H])[H])c5N([H])[H])C4([H])[H])c(F)c3F)c([H])c([H])c2C1([H])[H]

>  <smiles>  (61) 
[H]c1c([H])c([H])c2c(c1[H])C([H])([H])C([H])([H])C([H])([H])C2([H])N([H])C(=O)C1([H])N(C(=O)C([H])(N([H])C(=O)C([H])(N([H])C([H])([H])[H])C([H])([H])[H])C(C([H])([H])[H])(C([H])([H])[H])C([H])([H])[H])C([H])([H])c2c([H])c(OC([H])([H])c3c(F)c([H])c(C([H])([H])N([H])C(=O)N4C([H])([H])C([H])([H])C([H])([H])C([H])(n5nc(-c6c([H])c([H])c(Oc7c([H])c([H])c(F)c([H])c7F)c([H])c6[H])c(C(=O)N([H])[H])c5N([H])[H])C4([H])[H])c(F)c3F)c([H])c([H])c2C1([H])[H]

$$$$
61:0:0
     RDKit          3D

 91 96  0  0  1  0  0  0  0  0999 V2000
  -26.1160  -19.3020   19.8770 C   0  0  0  0  0  3  0  0  0  0  0  0
  -26.3380  -21.0780   19.9980 C   0  0  0  0  0  3  0  0  0  0  0  0
  -26.8350  -21.2350   21.2250 F   0  0  0  0  0  0  0  0  0  0  0  0
  -27.2110  -22.3140   19.0350 C   0  0  0  0  0  3  0  0  0  0  0  0
  -27.5750  -24.0400   19.3320 C   0  0  0  0  0  3  0  0  0  0  0  0
  -28.2510  -25.3270   18.5410 O   0  0  0  0  0  0  0  0  0  0  0  0
  -26.3730  -30.5580   23.4450 C   0  0  0  0  0  0  0  0  0  0  0  0
  -27.8170  -26.6830   18.8500 C   0  0  0  0  0  0  0  0  0  0  0  0
  -24.9790  -30.0690   21.4870 C   0  0  0  0  0  3  0  0  0  0  0  0
  -26.1220  -28.9150   19.5050 C   0  0  0  0  0  0  0  0  0  0  0  0
  -27.5420  -29.8480   21.3090 C   0  0  0  0  0  2  0  0  0  0  0  0
  -27.3340  -28.7920   20.1970 C   0  0  0  0  0  0  0  0  0  0  0  0
  -28.2090  -27.6760   19.8620 C   0  0  0  0  0  3  0  0  0  0  0  0
  -26.7170  -27.0420   18.0750 C   0  0  0  0  0  3  0  0  0  0  0  0
  -25.8500  -28.0810   18.4210 C   0  0  0  0  0  3  0  0  0  0  0  0
  -25.1070  -29.9520   19.9500 C   0  0  0  0  0  2  0  0  0  0  0  0
  -26.3250  -30.1630   22.1360 N   0  0  0  0  0  0  0  0  0  0  0  0
  -25.3420  -30.8250   24.0820 O   0  0  0  0  0  0  0  0  0  0  0  0
  -24.1200  -28.9030   22.0420 C   0  0  0  0  0  0  0  0  0  0  0  0
  -22.7840  -29.0080   21.9220 N   0  0  0  0  0  0  0  0  0  0  0  0
  -24.6590  -27.9220   22.5620 O   0  0  0  0  0  0  0  0  0  0  0  0
  -22.4120  -29.8460   21.4980 H   0  0  0  0  0  0  0  0  0  0  0  0
  -19.2380  -28.2890   22.1400 C   0  0  0  0  0  0  0  0  0  0  0  0
  -21.8010  -28.0090   22.3530 C   0  0  0  0  0  3  0  0  0  0  0  0
  -21.6600  -26.8790   21.3070 C   0  0  0  0  0  2  0  0  0  0  0  0
  -20.5310  -27.1280   20.3000 C   0  0  0  0  0  2  0  0  0  0  0  0
  -19.1870  -27.2620   21.0210 C   0  0  0  0  0  2  0  0  0  0  0  0
  -20.4670  -28.6500   22.7550 C   0  0  0  0  0  0  0  0  0  0  0  0
  -20.4610  -29.6330   23.7690 C   0  0  0  0  0  3  0  0  0  0  0  0
  -19.2590  -30.2480   24.1690 C   0  0  0  0  0  3  0  0  0  0  0  0
  -18.0450  -29.8770   23.5650 C   0  0  0  0  0  3  0  0  0  0  0  0
  -18.0350  -28.8970   22.5570 C   0  0  0  0  0  3  0  0  0  0  0  0
  -27.7270  -30.7140   24.1980 C   0  0  0  0  0  3  0  0  0  0  0  0
  -27.5640  -31.7900   25.1900 N   0  0  0  0  0  0  0  0  0  0  0  0
  -27.9850  -33.0520   25.0290 C   0  0  0  0  0  0  0  0  0  0  0  0
  -28.6180  -33.4210   24.0380 O   0  0  0  0  0  0  0  0  0  0  0  0
  -27.0040  -31.5730   26.0010 H   0  0  0  0  0  0  0  0  0  0  0  0
  -26.4370  -34.9100   25.7340 C   0  0  0  0  0  1  0  0  0  0  0  0
  -27.6540  -34.0640   26.1450 C   0  0  0  0  0  3  0  0  0  0  0  0
  -29.8830  -34.2670   27.1550 C   0  0  0  0  0  1  0  0  0  0  0  0
  -28.7840  -34.9570   26.4860 N   0  0  0  0  0  0  0  0  0  0  0  0
  -28.4740  -35.7170   27.0870 H   0  0  0  0  0  0  0  0  0  0  0  0
  -28.1940  -29.3840   24.9100 C   0  0  1  0  0  0  0  0  0  0  0  0
  -27.1160  -28.7510   25.8190 C   0  0  0  0  0  1  0  0  0  0  0  0
  -28.6140  -28.3170   23.8740 C   0  0  0  0  0  1  0  0  0  0  0  0
  -29.4440  -29.6690   25.7750 C   0  0  0  0  0  1  0  0  0  0  0  0
  -24.8960  -18.2060   20.5880 C   0  0  0  0  0  3  0  0  0  0  0  0
  -26.9850  -12.8600   21.6330 C   0  0  0  0  0  2  0  0  0  0  0  0
  -24.0460  -15.7320   19.5340 C   0  0  0  0  0  0  0  0  0  0  0  0
  -24.2920  -13.8560   19.1800 C   0  0  0  0  0  2  0  0  0  0  0  0
  -26.7160  -14.4590   22.6150 C   0  0  0  0  0  2  0  0  0  0  0  0
  -25.5480  -15.9540   22.1490 C   0  0  0  0  0  2  0  0  0  0  0  0
  -28.2540  -12.2570   21.1150 N   0  0  0  0  0  1  0  0  0  0  0  0
  -24.7040  -16.5500   20.7050 N   0  0  0  0  0  0  0  0  0  0  0  0
  -23.3840  -16.3460   18.6920 O   0  0  0  0  0  0  0  0  0  0  0  0
  -29.7010  -12.9260   20.1970 C   0  0  2  0  0  0  0  0  0  0  0  0
  -30.6140  -11.7030   20.7500 C   0  0  0  0  0  1  0  0  0  0  0  0
  -30.1120  -10.7150   19.3130 C   0  0  0  0  0  1  0  0  0  0  0  0
  -28.8070  -11.1360   18.4110 C   0  0  0  0  0  2  0  0  0  0  0  0
  -28.0590  -12.5990   18.5830 C   0  0  0  0  0  2  0  0  0  0  0  0
  -28.8340  -13.9780   19.8320 C   0  0  0  0  0  1  0  0  0  0  0  0
  -30.0800  -13.3570   20.9490 N   0  0  0  0  0  1  0  0  0  0  0  0
  -30.6720  -13.1730   19.1160 O   0  0  0  0  0  1  0  0  0  0  0  0
  -26.0570  -13.3750   19.7970 C   0  0  1  0  0  0  0  0  0  0  0  0
  -24.7580  -12.4060   20.7450 C   0  0  0  0  0  3  0  0  0  0  0  0
  -24.9710  -10.8890   20.2740 C   0  0  0  0  0  0  0  0  0  0  0  0
  -26.6990  -12.2530   18.9400 N   0  0  0  0  0  0  0  0  0  0  0  0
  -26.0490  -10.8570   19.2630 N   0  0  0  0  0  0  0  0  0  0  0  0
  -24.2840   -9.5600   20.7100 C   0  0  0  0  0  0  0  0  0  0  0  0
  -24.7600   -8.6730   21.7350 C   0  0  0  0  0  3  0  0  0  0  0  0
  -24.0790   -7.4660   22.0990 C   0  0  0  0  0  3  0  0  0  0  0  0
  -22.8750   -7.0900   21.4530 C   0  0  0  0  0  0  0  0  0  0  0  0
  -22.3980   -7.9510   20.4440 C   0  0  0  0  0  3  0  0  0  0  0  0
  -23.0810   -9.1430   20.0870 C   0  0  0  0  0  3  0  0  0  0  0  0
  -22.1610   -5.9200   21.6760 O   0  0  0  0  0  0  0  0  0  0  0  0
  -22.0230   -5.3270   22.9140 C   0  0  0  0  0  0  0  0  0  0  0  0
  -21.4820   -6.0220   24.0190 C   0  0  0  0  0  3  0  0  0  0  0  0
  -21.2930   -5.3620   25.2520 C   0  0  0  0  0  3  0  0  0  0  0  0
  -21.6340   -4.0030   25.3900 C   0  0  0  0  0  0  0  0  0  0  0  0
  -22.1520   -3.2990   24.2890 C   0  0  0  0  0  3  0  0  0  0  0  0
  -22.3380   -3.9540   23.0560 C   0  0  0  0  0  0  0  0  0  0  0  0
  -22.8110   -3.2510   21.9990 F   0  0  0  0  0  0  0  0  0  0  0  0
  -21.4600   -3.3740   26.5760 F   0  0  0  0  0  0  0  0  0  0  0  0
  -23.2310  -12.5880   21.1360 C   0  0  0  0  0  0  0  0  0  0  0  0
  -22.6890  -11.8010   22.0440 N   0  0  0  0  0  0  0  0  0  0  0  0
  -22.3900  -13.2300   20.5090 O   0  0  0  0  0  0  0  0  0  0  0  0
  -23.2450  -11.1540   22.5850 H   0  0  0  0  0  0  0  0  0  0  0  0
  -21.6970  -11.8610   22.2240 H   0  0  0  0  0  0  0  0  0  0  0  0
  -26.6620  -14.5800   19.4010 N   0  0  0  0  0  0  0  0  0  0  0  0
  -26.3630  -15.4740   19.7730 H   0  0  0  0  0  0  0  0  0  0  0  0
  -27.3690  -14.6680   18.6840 H   0  0  0  0  0  0  0  0  0  0  0  0
  1  2  1  0
  1 47  2  0
  2  3  1  0
  4  5  2  0
  4  2  1  0
  6  8  1  0
  6  5  1  0
  7 18  2  0
  8 13  1  0
  9 19  1  0
  9 17  1  0
 10 16  1  0
 10 12  1  0
 11 17  1  0
 12 11  1  0
 13 12  2  0
 14 15  1  0
 14  8  2  0
 15 10  2  0
 16  9  1  0
 17  7  1  0
 19 21  2  0
 20 19  1  0
 22 20  1  0
 23 32  2  0
 23 28  1  0
 24 20  1  0
 24 28  1  0
 25 24  1  0
 26 27  1  0
 26 25  1  0
 27 23  1  0
 28 29  2  0
 29 30  1  0
 31 30  2  0
 32 31  1  0
 33  7  1  0
 33 43  1  0
 33 34  1  0
 34 37  1  0
 35 34  1  0
 35 39  1  0
 36 35  2  0
 39 38  1  0
 39 41  1  0
 41 42  1  0
 41 40  1  0
 43 46  1  1
 43 44  1  0
 45 43  1  0
 47 54  1  0
 48 51  1  0
 49 54  1  0
 50 49  1  0
 52 51  1  0
 53 48  1  0
 54 52  1  0
 55 49  2  0
 56 57  1  1
 56 62  1  0
 59 60  1  0
 59 58  1  0
 60 67  1  0
 61 56  1  0
 63 56  1  0
 64 50  1  6
 64 65  1  0
 65 84  1  0
 66 69  1  0
 66 65  1  0
 67 68  1  0
 67 64  1  0
 68 66  2  0
 69 70  1  0
 70 71  2  0
 72 75  1  0
 72 71  1  0
 73 72  2  0
 74 73  1  0
 74 69  2  0
 75 76  1  0
 76 81  2  0
 76 77  1  0
 77 78  2  0
 78 79  1  0
 79 83  1  0
 80 79  2  0
 81 80  1  0
 82 81  1  0
 84 85  1  0
 85 88  1  0
 85 87  1  0
 86 84  2  0
 89 90  1  0
 89 64  1  0
 91 89  1  0
M  ISO  4   5 101   6 101  53 100  56 100
M  END
>  <TORSDO>  (62) 
F 21

>  <SCORE>  (62) 
10.180

>  <name>  (62) 
61

>  <ligand_id>  (62) 
61

>  <original_smiles>  (62) 
[H]c1c([H])c([H])c2c(c1[H])C([H])([H])C([H])([H])C([H])([H])C2([H])N([H])C(=O)C1([H])N(C(=O)C([H])(N([H])C(=O)C([H])(N([H])C([H])([H])[H])C([H])([H])[H])C(C([H])([H])[H])(C([H])([H])[H])C([H])([H])[H])C([H])([H])c2c([H])c(OC([H])([H])C([H])([H])C([H])(F)C([H])([H])C([H])([H])N3C(=O)C([H])([H])C(=NC(=O)N4C([H])([H])C([H])([H])C([H])([H])C([H])(n5nc(-c6c([H])c([H])c(Oc7c([H])c([H])c(F)c([H])c7F)c([H])c6[H])c(C(=O)N([H])[H])c5N([H])[H])C4([H])[H])C([H])([H])C3([H])[H])c([H])c([H])c2C1([H])[H]

>  <smiles>  (62) 
[H]c1c([H])c([H])c2c(c1[H])C([H])([H])C([H])([H])C([H])([H])C2([H])N([H])C(=O)C1([H])N(C(=O)C([H])(N([H])C(=O)C([H])(N([H])C([H])([H])[H])C([H])([H])[H])C(C([H])([H])[H])(C([H])([H])[H])C([H])([H])[H])C([H])([H])c2c([H])c(OC([H])([H])C([H])([H])C([H])(F)C([H])([H])C([H])([H])N3C(=O)C([H])([H])C(=NC(=O)N4C([H])([H])C([H])([H])C([H])([H])C([H])(n5nc(-c6c([H])c([H])c(Oc7c([H])c([H])c(F)c([H])c7F)c([H])c6[H])c(C(=O)N([H])[H])c5N([H])[H])C4([H])[H])C([H])([H])C3([H])[H])c([H])c([H])c2C1([H])[H]

$$$$
62:0:0
     RDKit          3D

 95103  0  0  1  0  0  0  0  0999 V2000
  -29.7930  -21.9680   20.2640 C   0  0  0  0  0  2  0  0  0  0  0  0
  -28.8380  -20.7830   20.0400 C   0  0  0  0  0  0  0  0  0  0  0  0
  -27.6740  -21.0620   19.7290 O   0  0  0  0  0  0  0  0  0  0  0  0
  -30.3780  -19.0190   21.0920 C   0  0  0  0  0  3  0  0  0  0  0  0
  -30.6960  -17.6610   21.3570 C   0  0  0  0  0  3  0  0  0  0  0  0
  -28.9150  -16.9650   19.8640 C   0  0  0  0  0  3  0  0  0  0  0  0
  -29.3140  -19.3650   20.2180 C   0  0  0  0  0  0  0  0  0  0  0  0
  -29.9520  -16.6220   20.7530 C   0  0  0  0  0  0  0  0  0  0  0  0
  -28.5990  -18.3130   19.5950 C   0  0  0  0  0  0  0  0  0  0  0  0
  -27.5830  -18.5710   18.7350 F   0  0  0  0  0  0  0  0  0  0  0  0
  -30.7740  -14.3320   20.3900 C   0  0  0  0  0  0  0  0  0  0  0  0
  -30.5020  -12.1580   19.2470 C   0  0  0  0  0  2  0  0  0  0  0  0
  -29.5250  -12.3210   18.0640 C   0  0  0  0  0  2  0  0  0  0  0  0
  -28.0600  -12.1750   18.5240 C   0  0  0  0  0  2  0  0  0  0  0  0
  -27.7380  -13.0210   19.7830 C   0  0  0  0  0  3  0  0  0  0  0  0
  -28.8170  -12.8080   20.8690 C   0  0  0  0  0  2  0  0  0  0  0  0
  -30.1330  -13.1360   20.2840 N   0  0  0  0  0  0  0  0  0  0  0  0
  -31.8440  -14.5830   19.8280 O   0  0  0  0  0  0  0  0  0  0  0  0
  -30.1210  -15.2560   21.1160 N   0  0  0  0  0  0  0  0  0  0  0  0
  -29.3250  -14.8480   21.5830 H   0  0  0  0  0  0  0  0  0  0  0  0
  -25.3530  -13.6260   20.5570 C   0  0  0  0  0  0  0  0  0  0  0  0
  -24.2910  -12.8480   20.9370 C   0  0  0  0  0  0  0  0  0  0  0  0
  -24.7500  -11.4970   20.8670 C   0  0  0  0  0  0  0  0  0  0  0  0
  -26.3920  -12.7460   20.2860 N   0  0  0  0  0  0  0  0  0  0  0  0
  -26.0310  -11.4600   20.5250 N   0  0  0  0  0  0  0  0  0  0  0  0
  -24.0250  -10.2330   21.0510 C   0  0  0  0  0  0  0  0  0  0  0  0
  -24.4350   -9.2800   22.0090 C   0  0  0  0  0  3  0  0  0  0  0  0
  -23.7120   -8.0780   22.1790 C   0  0  0  0  0  3  0  0  0  0  0  0
  -22.5660   -7.8230   21.3890 C   0  0  0  0  0  0  0  0  0  0  0  0
  -22.1770   -8.7640   20.4200 C   0  0  0  0  0  3  0  0  0  0  0  0
  -22.9000   -9.9570   20.2490 C   0  0  0  0  0  3  0  0  0  0  0  0
  -21.8180   -6.6740   21.4660 O   0  0  0  0  0  0  0  0  0  0  0  0
  -21.6990   -5.9700   22.6370 C   0  0  0  0  0  0  0  0  0  0  0  0
  -21.1110   -6.5350   23.7900 C   0  0  0  0  0  3  0  0  0  0  0  0
  -20.9450   -5.7540   24.9510 C   0  0  0  0  0  3  0  0  0  0  0  0
  -21.3570   -4.4090   24.9590 C   0  0  0  0  0  0  0  0  0  0  0  0
  -21.9370   -3.8420   23.8110 C   0  0  0  0  0  3  0  0  0  0  0  0
  -22.1060   -4.6200   22.6530 C   0  0  0  0  0  0  0  0  0  0  0  0
  -22.6460   -4.0630   21.5420 F   0  0  0  0  0  0  0  0  0  0  0  0
  -21.1910   -3.6560   26.0720 F   0  0  0  0  0  0  0  0  0  0  0  0
  -22.9010  -13.3230   21.2510 C   0  0  0  0  0  0  0  0  0  0  0  0
  -22.1920  -12.6110   22.1200 N   0  0  0  0  0  0  0  0  0  0  0  0
  -22.4520  -14.3590   20.7640 O   0  0  0  0  0  0  0  0  0  0  0  0
  -22.5670  -11.7720   22.5380 H   0  0  0  0  0  0  0  0  0  0  0  0
  -21.2620  -12.9110   22.3740 H   0  0  0  0  0  0  0  0  0  0  0  0
  -25.5120  -14.9990   20.4060 N   0  0  0  0  0  0  0  0  0  0  0  0
  -24.7500  -15.6490   20.5700 H   0  0  0  0  0  0  0  0  0  0  0  0
  -26.3380  -15.4470   20.0360 H   0  0  0  0  0  0  0  0  0  0  0  0
  -29.0490  -22.9940   21.0570 N   0  0  1  0  0  4  0  0  0  0  0  0
  -28.1070  -22.8180   20.7190 H   0  0  0  0  0  0  0  0  0  0  0  0
  -30.3810  -22.5470   23.1850 C   0  0  0  0  0  1  0  0  0  0  0  0
  -28.9970  -22.6980   22.5180 C   0  0  0  0  0  2  0  0  0  0  0  0
  -29.3320  -24.4340   20.7350 C   0  0  0  0  0  2  0  0  0  0  0  0
  -28.0950  -25.1760   20.1690 C   0  0  0  0  0  2  0  0  0  0  0  0
  -28.2450  -26.6070   20.2430 O   0  0  0  0  0  0  0  0  0  0  0  0
  -24.5170  -31.8680   23.2830 C   0  0  0  0  0  0  0  0  0  0  0  0
  -27.0830  -27.3580   20.2220 C   0  0  0  0  0  0  0  0  0  0  0  0
  -23.2920  -30.4980   21.6270 C   0  0  0  0  0  3  0  0  0  0  0  0
  -24.7200  -28.9240   20.2180 C   0  0  0  0  0  0  0  0  0  0  0  0
  -25.8280  -30.7940   21.4520 C   0  0  0  0  0  2  0  0  0  0  0  0
  -25.8860  -29.4210   20.8100 C   0  0  0  0  0  0  0  0  0  0  0  0
  -27.0720  -28.6480   20.8030 C   0  0  0  0  0  3  0  0  0  0  0  0
  -25.8930  -26.8780   19.6230 C   0  0  0  0  0  3  0  0  0  0  0  0
  -24.7180  -27.6510   19.6210 C   0  0  0  0  0  3  0  0  0  0  0  0
  -23.4970  -29.8100   20.2510 C   0  0  0  0  0  2  0  0  0  0  0  0
  -24.5650  -31.0680   22.1790 N   0  0  0  0  0  0  0  0  0  0  0  0
  -23.4380  -32.1660   23.8120 O   0  0  0  0  0  0  0  0  0  0  0  0
  -22.6030  -29.4950   22.5800 C   0  0  0  0  0  0  0  0  0  0  0  0
  -21.2760  -29.3450   22.4330 N   0  0  0  0  0  0  0  0  0  0  0  0
  -23.2610  -28.8560   23.4040 O   0  0  0  0  0  0  0  0  0  0  0  0
  -20.8110  -29.9100   21.7390 H   0  0  0  0  0  0  0  0  0  0  0  0
  -17.8610  -28.2730   22.9240 C   0  0  0  0  0  0  0  0  0  0  0  0
  -20.4270  -28.4280   23.1930 C   0  0  0  0  0  3  0  0  0  0  0  0
  -20.4740  -27.0030   22.5940 C   0  0  0  0  0  2  0  0  0  0  0  0
  -19.3580  -26.7390   21.5770 C   0  0  0  0  0  2  0  0  0  0  0  0
  -17.9840  -26.9280   22.2290 C   0  0  0  0  0  2  0  0  0  0  0  0
  -19.0100  -28.9850   23.3620 C   0  0  0  0  0  0  0  0  0  0  0  0
  -18.8420  -30.2470   23.9720 C   0  0  0  0  0  3  0  0  0  0  0  0
  -17.5580  -30.7970   24.1480 C   0  0  0  0  0  3  0  0  0  0  0  0
  -16.4240  -30.0810   23.7250 C   0  0  0  0  0  3  0  0  0  0  0  0
  -16.5760  -28.8210   23.1200 C   0  0  0  0  0  3  0  0  0  0  0  0
  -25.8120  -32.4630   23.9180 C   0  0  0  0  0  3  0  0  0  0  0  0
  -25.5450  -33.8740   24.2240 N   0  0  0  0  0  0  0  0  0  0  0  0
  -25.9020  -34.9020   23.4420 C   0  0  0  0  0  0  0  0  0  0  0  0
  -26.5590  -34.7600   22.4070 O   0  0  0  0  0  0  0  0  0  0  0  0
  -24.9590  -34.0610   25.0240 H   0  0  0  0  0  0  0  0  0  0  0  0
  -24.2150  -36.7300   23.0720 C   0  0  0  0  0  1  0  0  0  0  0  0
  -25.4560  -36.3110   23.8760 C   0  0  0  0  0  3  0  0  0  0  0  0
  -27.6140  -37.1700   24.6720 C   0  0  0  0  0  1  0  0  0  0  0  0
  -26.5150  -37.3350   23.7260 N   0  0  0  0  0  0  0  0  0  0  0  0
  -26.1320  -38.2690   23.8450 H   0  0  0  0  0  0  0  0  0  0  0  0
  -26.2840  -31.6900   25.2120 C   0  0  1  0  0  0  0  0  0  0  0  0
  -25.1630  -31.4880   26.2580 C   0  0  0  0  0  1  0  0  0  0  0  0
  -26.8380  -30.2960   24.8380 C   0  0  0  0  0  1  0  0  0  0  0  0
  -27.4410  -32.4600   25.8900 C   0  0  0  0  0  1  0  0  0  0  0  0
  1 49  1  0
  2  7  1  0
  2  1  1  0
  3  2  2  0
  4  5  1  0
  6  8  1  0
  7  4  2  0
  8 19  1  0
  8  5  2  0
  9  6  2  0
  9  7  1  0
 10  9  1  0
 11 19  1  0
 12 17  1  0
 13 14  1  0
 13 12  1  0
 15 14  1  0
 15 24  1  0
 15 16  1  0
 17 11  1  0
 17 16  1  0
 18 11  2  0
 19 20  1  0
 21 22  2  0
 22 41  1  0
 23 22  1  0
 23 26  1  0
 24 25  1  0
 24 21  1  0
 25 23  2  0
 26 27  1  0
 27 28  2  0
 29 32  1  0
 29 28  1  0
 30 29  2  0
 31 30  1  0
 31 26  2  0
 32 33  1  0
 33 38  2  0
 33 34  1  0
 34 35  2  0
 35 36  1  0
 36 40  1  0
 37 36  2  0
 38 37  1  0
 39 38  1  0
 41 42  1  0
 42 45  1  0
 42 44  1  0
 43 41  2  0
 46 21  1  0
 46 47  1  0
 48 46  1  0
 49 52  1  0
 49 50  1  6
 52 51  1  0
 53 49  1  0
 54 55  1  0
 54 53  1  0
 56 67  2  0
 57 55  1  0
 57 62  1  0
 58 66  1  0
 58 68  1  0
 59 65  1  0
 59 61  1  0
 60 66  1  0
 61 60  1  0
 62 61  2  0
 63 57  2  0
 64 63  1  0
 64 59  2  0
 65 58  1  0
 66 56  1  0
 68 70  2  0
 69 68  1  0
 71 69  1  0
 72 81  2  0
 72 77  1  0
 73 69  1  0
 73 77  1  0
 74 73  1  0
 75 76  1  0
 75 74  1  0
 76 72  1  0
 77 78  2  0
 78 79  1  0
 80 79  2  0
 81 80  1  0
 82 56  1  0
 82 83  1  0
 82 92  1  0
 83 86  1  0
 84 88  1  0
 84 83  1  0
 85 84  2  0
 88 87  1  0
 90 91  1  0
 90 88  1  0
 90 89  1  0
 92 95  1  1
 92 93  1  0
 94 92  1  0
M  ISO  4  11 100  19 100  54 101  55 101
M  END
>  <TORSDO>  (63) 
F 22

>  <SCORE>  (63) 
-13.288

>  <name>  (63) 
62

>  <ligand_id>  (63) 
62

>  <original_smiles>  (63) 
[H]c1c([H])c([H])c2c(c1[H])C([H])([H])C([H])([H])C([H])([H])C2([H])N([H])C(=O)C1([H])N(C(=O)C([H])(N([H])C(=O)C([H])(N([H])C([H])([H])[H])C([H])([H])[H])C(C([H])([H])[H])(C([H])([H])[H])C([H])([H])[H])C([H])([H])c2c([H])c(OC([H])([H])C([H])([H])[N+]([H])(C([H])([H])C(=O)c3c([H])c([H])c(N([H])C(=O)N4C([H])([H])C([H])([H])C([H])([H])C([H])(n5nc(-c6c([H])c([H])c(Oc7c([H])c([H])c(F)c([H])c7F)c([H])c6[H])c(C(=O)N([H])[H])c5N([H])[H])C4([H])[H])c([H])c3F)C([H])([H])C([H])([H])[H])c([H])c([H])c2C1([H])[H]

>  <smiles>  (63) 
[H]c1c([H])c([H])c2c(c1[H])C([H])([H])C([H])([H])C([H])([H])C2([H])N([H])C(=O)C1([H])N(C(=O)C([H])(N([H])C(=O)C([H])(N([H])C([H])([H])[H])C([H])([H])[H])C(C([H])([H])[H])(C([H])([H])[H])C([H])([H])[H])C([H])([H])c2c([H])c(OC([H])([H])C([H])([H])[N+]([H])(C([H])([H])C(=O)c3c([H])c([H])c(N([H])C(=O)N4C([H])([H])C([H])([H])C([H])([H])C([H])(n5nc(-c6c([H])c([H])c(Oc7c([H])c([H])c(F)c([H])c7F)c([H])c6[H])c(C(=O)N([H])[H])c5N([H])[H])C4([H])[H])c([H])c3F)C([H])([H])C([H])([H])[H])c([H])c([H])c2C1([H])[H]

$$$$
63:0:0
     RDKit          3D

 94102  0  0  1  0  0  0  0  0999 V2000
  -28.9110  -21.9330   19.4660 C   0  0  0  0  0  3  0  0  0  0  0  0
  -29.5440  -19.2070   19.2120 C   0  0  0  0  0  2  0  0  0  0  0  0
  -29.6180  -20.0870   21.2350 C   0  0  0  0  0  2  0  0  0  0  0  0
  -30.4070  -18.0130   19.9470 C   0  0  0  0  0  3  0  0  0  0  0  0
  -30.4010  -18.7130   21.3440 C   0  0  0  0  0  3  0  0  0  0  0  0
  -29.7520  -20.5950   19.8600 N   0  0  0  0  0  0  0  0  0  0  0  0
  -30.8070  -15.2480   19.8110 C   0  0  0  0  0  0  0  0  0  0  0  0
  -30.6320  -12.8630   18.9460 C   0  0  0  0  0  2  0  0  0  0  0  0
  -29.6260  -12.7580   17.7780 C   0  0  0  0  0  2  0  0  0  0  0  0
  -28.1930  -12.5580   18.3050 C   0  0  0  0  0  2  0  0  0  0  0  0
  -27.8540  -13.5200   19.4720 C   0  0  0  0  0  3  0  0  0  0  0  0
  -28.9770  -13.5860   20.5290 C   0  0  0  0  0  2  0  0  0  0  0  0
  -30.1990  -13.9910   19.8220 N   0  0  0  0  0  0  0  0  0  0  0  0
  -32.0020  -15.2860   19.4980 O   0  0  0  0  0  0  0  0  0  0  0  0
  -30.0510  -16.4540   19.9450 N   0  0  0  0  0  0  0  0  0  0  0  0
  -29.0730  -16.2730   20.1140 H   0  0  0  0  0  0  0  0  0  0  0  0
  -25.5510  -14.1240   20.4040 C   0  0  0  0  0  0  0  0  0  0  0  0
  -24.4950  -13.3600   20.8190 C   0  0  0  0  0  0  0  0  0  0  0  0
  -24.9200  -12.0010   20.7050 C   0  0  0  0  0  0  0  0  0  0  0  0
  -26.5520  -13.2310   20.0580 N   0  0  0  0  0  0  0  0  0  0  0  0
  -26.1870  -11.9470   20.3050 N   0  0  0  0  0  0  0  0  0  0  0  0
  -24.1730  -10.7520   20.8960 C   0  0  0  0  0  0  0  0  0  0  0  0
  -24.5860   -9.7820   21.8360 C   0  0  0  0  0  3  0  0  0  0  0  0
  -23.8390   -8.6000   22.0190 C   0  0  0  0  0  3  0  0  0  0  0  0
  -22.6650   -8.3780   21.2600 C   0  0  0  0  0  0  0  0  0  0  0  0
  -22.2710   -9.3350   20.3090 C   0  0  0  0  0  3  0  0  0  0  0  0
  -23.0200  -10.5090   20.1250 C   0  0  0  0  0  3  0  0  0  0  0  0
  -21.8880   -7.2480   21.3540 O   0  0  0  0  0  0  0  0  0  0  0  0
  -21.7530   -6.5600   22.5330 C   0  0  0  0  0  0  0  0  0  0  0  0
  -21.1890   -7.1580   23.6820 C   0  0  0  0  0  3  0  0  0  0  0  0
  -21.0050   -6.3940   24.8530 C   0  0  0  0  0  3  0  0  0  0  0  0
  -21.3740   -5.0370   24.8750 C   0  0  0  0  0  0  0  0  0  0  0  0
  -21.9290   -4.4400   23.7290 C   0  0  0  0  0  3  0  0  0  0  0  0
  -22.1160   -5.1990   22.5630 C   0  0  0  0  0  0  0  0  0  0  0  0
  -22.6330   -4.6120   21.4540 F   0  0  0  0  0  0  0  0  0  0  0  0
  -21.1910   -4.3010   25.9970 F   0  0  0  0  0  0  0  0  0  0  0  0
  -23.1330  -13.8620   21.1990 C   0  0  0  0  0  0  0  0  0  0  0  0
  -22.4500  -13.1590   22.0940 N   0  0  0  0  0  0  0  0  0  0  0  0
  -22.6880  -14.9130   20.7360 O   0  0  0  0  0  0  0  0  0  0  0  0
  -22.8280  -12.3090   22.4870 H   0  0  0  0  0  0  0  0  0  0  0  0
  -21.5380  -13.4730   22.3960 H   0  0  0  0  0  0  0  0  0  0  0  0
  -25.7330  -15.4970   20.2650 N   0  0  0  0  0  0  0  0  0  0  0  0
  -24.9840  -16.1530   20.4570 H   0  0  0  0  0  0  0  0  0  0  0  0
  -26.5290  -15.9280   19.8140 H   0  0  0  0  0  0  0  0  0  0  0  0
  -31.7730  -18.9500   21.8240 N   0  0  0  0  0  4  0  0  0  0  0  0
  -32.2430  -18.0760   21.9800 H   0  0  0  0  0  0  0  0  0  0  0  0
  -31.7610  -19.4610   22.6880 H   0  0  0  0  0  0  0  0  0  0  0  0
  -32.2970  -19.4840   21.1540 H   0  0  0  0  0  0  0  0  0  0  0  0
  -27.3980  -21.6750   19.3650 C   0  0  0  0  0  0  0  0  0  0  0  0
  -26.9030  -20.9790   18.1040 C   0  0  0  0  0  1  0  0  0  0  0  0
  -26.6010  -21.9530   20.2630 O   0  0  0  0  0  0  0  0  0  0  0  0
  -29.1490  -23.4850   20.1250 C   0  0  0  0  0  3  0  0  0  0  0  0
  -28.1980  -24.8560   19.7880 C   0  0  0  0  0  3  0  0  0  0  0  0
  -28.3820  -26.3530   20.2000 O   0  0  0  0  0  0  0  0  0  0  0  0
  -24.6400  -31.9330   23.2550 C   0  0  0  0  0  0  0  0  0  0  0  0
  -27.3060  -27.3190   20.1360 C   0  0  0  0  0  0  0  0  0  0  0  0
  -23.4630  -30.5410   21.5960 C   0  0  0  0  0  3  0  0  0  0  0  0
  -24.9400  -29.0210   20.1410 C   0  0  0  0  0  0  0  0  0  0  0  0
  -26.0110  -30.8600   21.4300 C   0  0  0  0  0  2  0  0  0  0  0  0
  -26.1130  -29.4810   20.7530 C   0  0  0  0  0  0  0  0  0  0  0  0
  -27.2930  -28.6470   20.7360 C   0  0  0  0  0  3  0  0  0  0  0  0
  -26.1020  -26.9660   19.4840 C   0  0  0  0  0  3  0  0  0  0  0  0
  -24.9470  -27.7760   19.4940 C   0  0  0  0  0  3  0  0  0  0  0  0
  -23.6960  -29.8960   20.2060 C   0  0  0  0  0  2  0  0  0  0  0  0
  -24.7240  -31.1310   22.1510 N   0  0  0  0  0  0  0  0  0  0  0  0
  -23.5510  -32.1890   23.7900 O   0  0  0  0  0  0  0  0  0  0  0  0
  -22.8060  -29.5040   22.5400 C   0  0  0  0  0  0  0  0  0  0  0  0
  -21.4840  -29.2950   22.3990 N   0  0  0  0  0  0  0  0  0  0  0  0
  -23.4890  -28.8920   23.3660 O   0  0  0  0  0  0  0  0  0  0  0  0
  -20.9890  -29.8420   21.7110 H   0  0  0  0  0  0  0  0  0  0  0  0
  -18.1310  -28.0070   22.8660 C   0  0  0  0  0  0  0  0  0  0  0  0
  -20.6810  -28.3270   23.1520 C   0  0  0  0  0  3  0  0  0  0  0  0
  -20.8220  -26.9060   22.5570 C   0  0  0  0  0  2  0  0  0  0  0  0
  -19.7320  -26.5710   21.5330 C   0  0  0  0  0  2  0  0  0  0  0  0
  -18.3440  -26.6750   22.1700 C   0  0  0  0  0  2  0  0  0  0  0  0
  -19.2280  -28.7920   23.3130 C   0  0  0  0  0  0  0  0  0  0  0  0
  -18.9730  -30.0400   23.9220 C   0  0  0  0  0  3  0  0  0  0  0  0
  -17.6550  -30.5050   24.0880 C   0  0  0  0  0  3  0  0  0  0  0  0
  -16.5720  -29.7160   23.6610 C   0  0  0  0  0  3  0  0  0  0  0  0
  -16.8120  -28.4690   23.0560 C   0  0  0  0  0  3  0  0  0  0  0  0
  -25.9070  -32.5810   23.8910 C   0  0  0  0  0  3  0  0  0  0  0  0
  -25.5930  -33.9880   24.1880 N   0  0  0  0  0  0  0  0  0  0  0  0
  -25.8950  -35.0220   23.3930 C   0  0  0  0  0  0  0  0  0  0  0  0
  -26.5370  -34.8950   22.3460 O   0  0  0  0  0  0  0  0  0  0  0  0
  -25.0290  -34.1620   25.0050 H   0  0  0  0  0  0  0  0  0  0  0  0
  -24.1320  -36.7830   23.0590 C   0  0  0  0  0  1  0  0  0  0  0  0
  -25.4140  -36.4210   23.8270 C   0  0  0  0  0  3  0  0  0  0  0  0
  -27.5610  -37.3690   24.5460 C   0  0  0  0  0  1  0  0  0  0  0  0
  -26.4270  -37.4810   23.6330 N   0  0  0  0  0  0  0  0  0  0  0  0
  -26.0130  -38.4020   23.7540 H   0  0  0  0  0  0  0  0  0  0  0  0
  -26.3960  -31.8400   25.1960 C   0  0  1  0  0  0  0  0  0  0  0  0
  -25.2770  -31.6140   26.2390 C   0  0  0  0  0  1  0  0  0  0  0  0
  -27.0000  -30.4600   24.8510 C   0  0  0  0  0  1  0  0  0  0  0  0
  -27.5280  -32.6530   25.8690 C   0  0  0  0  0  1  0  0  0  0  0  0
  1  6  1  0
  1 52  1  0
  2  6  1  0
  2  4  1  0
  3  5  1  0
  4 15  1  0
  4  5  1  0
  5 45  1  0
  6  3  1  0
  7 13  1  0
  7 15  1  0
  8 13  1  0
  9 10  1  0
  9  8  1  0
 11 10  1  0
 11 20  1  0
 11 12  1  0
 13 12  1  0
 14  7  2  0
 15 16  1  0
 17 18  2  0
 18 37  1  0
 19 18  1  0
 19 22  1  0
 20 21  1  0
 20 17  1  0
 21 19  2  0
 22 23  1  0
 23 24  2  0
 25 28  1  0
 25 24  1  0
 26 25  2  0
 27 26  1  0
 27 22  2  0
 28 29  1  0
 29 34  2  0
 29 30  1  0
 30 31  2  0
 31 32  1  0
 32 36  1  0
 33 32  2  0
 34 33  1  0
 35 34  1  0
 37 38  1  0
 38 41  1  0
 38 40  1  0
 39 37  2  0
 42 17  1  0
 42 43  1  0
 44 42  1  0
 45 46  1  0
 45 47  1  0
 48 45  1  0
 49  1  1  0
 49 51  2  0
 50 49  1  0
 53 52  2  0
 53 54  1  0
 55 66  2  0
 56 54  1  0
 56 61  1  0
 57 65  1  0
 57 67  1  0
 58 64  1  0
 58 60  1  0
 59 65  1  0
 60 59  1  0
 61 60  2  0
 62 63  1  0
 62 56  2  0
 63 58  2  0
 64 57  1  0
 65 55  1  0
 67 69  2  0
 68 67  1  0
 70 68  1  0
 71 80  2  0
 71 76  1  0
 72 68  1  0
 72 76  1  0
 73 72  1  0
 74 75  1  0
 74 73  1  0
 75 71  1  0
 76 77  2  0
 77 78  1  0
 79 78  2  0
 80 79  1  0
 81 55  1  0
 81 82  1  0
 81 91  1  0
 82 85  1  0
 83 87  1  0
 83 82  1  0
 84 83  2  0
 87 86  1  0
 89 90  1  0
 89 87  1  0
 89 88  1  0
 91 94  1  1
 91 92  1  0
 93 91  1  0
M  ISO  4   7 100  15 100  53 101  54 101
M  END
>  <TORSDO>  (64) 
F 21

>  <SCORE>  (64) 
-14.010

>  <name>  (64) 
63

>  <ligand_id>  (64) 
63

>  <original_smiles>  (64) 
[H]c1c([H])c([H])c2c(c1[H])C([H])([H])C([H])([H])C([H])([H])C2([H])N([H])C(=O)C1([H])N(C(=O)C([H])(N([H])C(=O)C([H])(N([H])C([H])([H])[H])C([H])([H])[H])C(C([H])([H])[H])(C([H])([H])[H])C([H])([H])[H])C([H])([H])c2c([H])c(OC([H])([H])C([H])([H])C([H])(C(=O)C([H])([H])[H])N3C([H])([H])C([H])(N([H])C(=O)N4C([H])([H])C([H])([H])C([H])([H])C([H])(n5nc(-c6c([H])c([H])c(Oc7c([H])c([H])c(F)c([H])c7F)c([H])c6[H])c(C(=O)N([H])[H])c5N([H])[H])C4([H])[H])C([H])([N+]([H])([H])[H])C3([H])[H])c([H])c([H])c2C1([H])[H]

>  <smiles>  (64) 
[H]c1c([H])c([H])c2c(c1[H])C([H])([H])C([H])([H])C([H])([H])C2([H])N([H])C(=O)C1([H])N(C(=O)C([H])(N([H])C(=O)C([H])(N([H])C([H])([H])[H])C([H])([H])[H])C(C([H])([H])[H])(C([H])([H])[H])C([H])([H])[H])C([H])([H])c2c([H])c(OC([H])([H])C([H])([H])C([H])(C(=O)C([H])([H])[H])N3C([H])([H])C([H])(N([H])C(=O)N4C([H])([H])C([H])([H])C([H])([H])C([H])(n5nc(-c6c([H])c([H])c(Oc7c([H])c([H])c(F)c([H])c7F)c([H])c6[H])c(C(=O)N([H])[H])c5N([H])[H])C4([H])[H])C([H])([N+]([H])([H])[H])C3([H])[H])c([H])c([H])c2C1([H])[H]

$$$$
64:0:0
     RDKit          3D

 93 95  0  0  1  0  0  0  0  0999 V2000
  -22.2010  -24.8470   20.0930 C   0  0  0  0  0  2  0  0  0  0  0  0
  -21.7010  -26.2990   19.6210 C   0  0  0  0  0  2  0  0  0  0  0  0
  -23.7060  -25.1350   20.3180 C   0  0  0  0  0  1  0  0  0  0  0  0
  -22.7980  -27.0110   20.0820 N   0  0  0  0  0  2  0  0  0  0  0  0
  -23.4900  -27.3230   19.4150 H   0  0  0  0  0  0  0  0  0  0  0  0
  -26.1700  -22.6030   20.8280 C   0  0  0  0  0  3  0  0  0  0  0  0
  -27.0330  -21.1890   20.7750 C   0  0  0  0  0  3  0  0  0  0  0  0
  -26.1450  -20.7380   19.0280 C   0  0  0  0  0  3  0  0  0  0  0  0
  -25.0650  -23.4180   20.0070 C   0  0  0  0  0  3  0  0  0  0  0  0
  -27.2930  -19.9310   19.8140 C   0  0  0  0  0  3  0  0  0  0  0  0
  -25.2490  -22.1380   19.0720 C   0  0  0  0  0  0  0  0  0  0  0  0
  -24.3320  -22.1580   18.0660 F   0  0  0  0  0  0  0  0  0  0  0  0
  -29.4190  -16.8230   19.5990 C   0  0  0  0  0  0  0  0  0  0  0  0
  -30.3550  -14.2120   18.7980 C   0  0  0  0  0  2  0  0  0  0  0  0
  -29.6410  -13.2600   17.7570 C   0  0  0  0  0  2  0  0  0  0  0  0
  -28.3930  -12.5940   18.3450 C   0  0  0  0  0  2  0  0  0  0  0  0
  -27.7330  -13.6110   19.2840 C   0  0  0  0  0  3  0  0  0  0  0  0
  -28.6640  -14.2530   20.3230 C   0  0  0  0  0  2  0  0  0  0  0  0
  -29.4240  -15.2730   19.5560 N   0  0  0  0  0  0  0  0  0  0  0  0
  -30.6820  -16.9050   19.3460 O   0  0  0  0  0  0  0  0  0  0  0  0
  -28.1860  -18.1090   19.7800 N   0  0  0  0  0  2  0  0  0  0  0  0
  -27.4190  -17.4890   20.0050 H   0  0  0  0  0  0  0  0  0  0  0  0
  -25.5710  -14.0670   20.4160 C   0  0  0  0  0  0  0  0  0  0  0  0
  -24.5660  -13.2640   20.8500 C   0  0  0  0  0  0  0  0  0  0  0  0
  -24.9890  -11.9220   20.5940 C   0  0  0  0  0  0  0  0  0  0  0  0
  -26.5200  -13.2050   19.9140 N   0  0  0  0  0  0  0  0  0  0  0  0
  -26.2130  -11.9010   20.0840 N   0  0  0  0  0  0  0  0  0  0  0  0
  -24.2620  -10.6620   20.7310 C   0  0  0  0  0  0  0  0  0  0  0  0
  -24.7370   -9.6200   21.5560 C   0  0  0  0  0  3  0  0  0  0  0  0
  -24.0020   -8.4240   21.6820 C   0  0  0  0  0  3  0  0  0  0  0  0
  -22.7820   -8.2660   20.9840 C   0  0  0  0  0  0  0  0  0  0  0  0
  -22.3290   -9.2970   20.1430 C   0  0  0  0  0  3  0  0  0  0  0  0
  -23.0630  -10.4850   20.0130 C   0  0  0  0  0  3  0  0  0  0  0  0
  -22.0100   -7.1340   21.0310 O   0  0  0  0  0  0  0  0  0  0  0  0
  -21.9270   -6.3690   22.1650 C   0  0  0  0  0  0  0  0  0  0  0  0
  -21.5140   -6.9110   23.4020 C   0  0  0  0  0  3  0  0  0  0  0  0
  -21.3770   -6.0720   24.5250 C   0  0  0  0  0  3  0  0  0  0  0  0
  -21.6450   -4.6940   24.4120 C   0  0  0  0  0  0  0  0  0  0  0  0
  -22.0540   -4.1530   23.1810 C   0  0  0  0  0  3  0  0  0  0  0  0
  -22.1920   -4.9890   22.0600 C   0  0  0  0  0  0  0  0  0  0  0  0
  -22.5660   -4.4620   20.8680 F   0  0  0  0  0  0  0  0  0  0  0  0
  -21.5050   -3.8860   25.4890 F   0  0  0  0  0  0  0  0  0  0  0  0
  -23.2400  -13.7350   21.3580 C   0  0  0  0  0  0  0  0  0  0  0  0
  -22.6180  -12.9680   22.2440 N   0  0  0  0  0  0  0  0  0  0  0  0
  -22.7750  -14.8190   21.0030 O   0  0  0  0  0  0  0  0  0  0  0  0
  -23.0130  -12.0900   22.5450 H   0  0  0  0  0  0  0  0  0  0  0  0
  -21.7290  -13.2610   22.6280 H   0  0  0  0  0  0  0  0  0  0  0  0
  -25.7520  -15.4480   20.3590 N   0  0  0  0  0  0  0  0  0  0  0  0
  -24.9510  -16.0410   20.5490 H   0  0  0  0  0  0  0  0  0  0  0  0
  -26.3290  -15.8180   19.6170 H   0  0  0  0  0  0  0  0  0  0  0  0
  -22.1570  -28.7460   21.0720 C   0  0  0  0  0 15  0  0  0  0  0  0
  -23.5430  -29.4130   23.3420 C   0  0  0  0  0 15  0  0  0  0  0  0
  -25.5570  -28.5590   22.9530 O   0  0  0  0  0  1  0  0  0  0  0  0
  -24.7100  -31.6560   22.8920 C   0  0  0  0  0  0  0  0  0  0  0  0
  -26.3960  -27.8770   21.7780 C   0  0  0  0  0  3  0  0  0  0  0  0
  -24.2480  -29.2000   21.2390 C   0  0  0  0  0  2  0  0  0  0  0  0
  -25.5140  -28.9240   19.5760 C   0  0  0  0  0  3  0  0  0  0  0  0
  -26.1510  -30.9190   21.0340 C   0  0  0  0  0  2  0  0  0  0  0  0
  -26.5000  -29.5940   20.3740 C   0  0  0  0  0  3  0  0  0  0  0  0
  -27.2860  -28.7860   21.2050 C   0  0  0  0  0  2  0  0  0  0  0  0
  -26.0010  -26.9660   20.7060 C   0  0  0  0  0  2  0  0  0  0  0  0
  -25.5350  -27.5210   19.4930 C   0  0  0  0  0  2  0  0  0  0  0  0
  -24.1680  -29.4220   19.7640 C   0  0  0  0  0  2  0  0  0  0  0  0
  -24.9550  -30.6660   21.8380 N   0  0  0  0  0  0  0  0  0  0  0  0
  -23.5560  -32.0520   23.1850 O   0  0  0  0  0  0  0  0  0  0  0  0
  -23.6120  -27.1790   22.5470 C   0  0  0  0  0  2  0  0  0  0  0  0
  -22.1620  -27.2100   23.1690 N   0  0  0  0  0  0  0  0  0  0  0  0
  -24.1650  -26.7790   23.5150 O   0  0  0  0  0  1  0  0  0  0  0  0
  -22.3230  -26.5950   23.9600 H   0  0  0  0  0  0  0  0  0  0  0  0
  -17.9220  -27.9100   22.6880 C   0  0  0  0  0  0  0  0  0  0  0  0
  -20.5500  -27.3840   23.1950 C   0  0  0  0  0  3  0  0  0  0  0  0
  -20.1380  -25.9910   22.6380 C   0  0  0  0  0  2  0  0  0  0  0  0
  -19.1780  -26.2120   21.4660 C   0  0  0  0  0  2  0  0  0  0  0  0
  -17.8530  -26.5540   22.0560 C   0  0  0  0  0  2  0  0  0  0  0  0
  -19.2000  -28.4510   23.1680 C   0  0  0  0  0  0  0  0  0  0  0  0
  -19.0160  -29.7350   23.7700 C   0  0  0  0  0  3  0  0  0  0  0  0
  -17.7320  -30.4110   23.8520 C   0  0  0  0  0  3  0  0  0  0  0  0
  -16.5560  -29.8150   23.3730 C   0  0  0  0  0  3  0  0  0  0  0  0
  -16.6510  -28.5520   22.8120 C   0  0  0  0  0  3  0  0  0  0  0  0
  -25.7710  -32.2860   23.8890 C   0  0  0  0  0  3  0  0  0  0  0  0
  -26.0850  -31.5430   25.2760 C   0  0  1  0  0  0  0  0  0  0  0  0
  -24.9070  -31.4100   26.2910 C   0  0  0  0  0  1  0  0  0  0  0  0
  -26.7270  -30.1670   25.0530 C   0  0  0  0  0  1  0  0  0  0  0  0
  -27.1680  -32.3710   26.0050 C   0  0  0  0  0  1  0  0  0  0  0  0
  -25.3620  -33.6710   24.2390 N   0  0  0  0  0  0  0  0  0  0  0  0
  -25.8060  -34.7630   23.6090 C   0  0  0  0  0  0  0  0  0  0  0  0
  -26.5760  -34.6870   22.6500 O   0  0  0  0  0  0  0  0  0  0  0  0
  -24.6300  -33.7780   24.9290 H   0  0  0  0  0  0  0  0  0  0  0  0
  -24.1170  -36.5970   23.2650 C   0  0  0  0  0  1  0  0  0  0  0  0
  -25.3270  -36.1440   24.0970 C   0  0  0  0  0  3  0  0  0  0  0  0
  -27.4490  -36.9790   25.0220 C   0  0  0  0  0  1  0  0  0  0  0  0
  -26.3850  -37.1820   24.0440 N   0  0  0  0  0  0  0  0  0  0  0  0
  -25.9900  -38.1060   24.1920 H   0  0  0  0  0  0  0  0  0  0  0  0
  1  3  1  0
  2  4  1  0
  2  1  1  0
  5  4  1  0
  7  6  1  0
  8 11  2  0
  8 10  1  0
  9  6  2  0
 10  7  2  0
 11  9  1  0
 12 11  1  0
 13 21  1  0
 14 19  1  0
 15 16  1  0
 15 14  1  0
 17 16  1  0
 17 26  1  0
 17 18  1  0
 19 13  1  0
 19 18  1  0
 20 13  2  0
 21 22  1  0
 23 24  2  0
 24 43  1  0
 25 28  1  0
 25 24  1  0
 26 27  1  0
 26 23  1  0
 27 25  2  0
 28 29  1  0
 29 30  2  0
 31 34  1  0
 31 30  1  0
 32 31  2  0
 33 32  1  0
 33 28  2  0
 34 35  1  0
 35 36  1  0
 36 37  2  0
 38 37  1  0
 38 42  1  0
 39 38  2  0
 40 35  2  0
 40 39  1  0
 41 40  1  0
 43 44  1  0
 44 46  1  0
 44 47  1  0
 45 43  2  0
 48 23  1  0
 48 49  1  0
 50 48  1  0
 54 65  2  0
 55 53  1  0
 56 64  1  0
 57 62  1  0
 57 63  1  0
 57 59  1  0
 58 64  1  0
 59 58  1  0
 59 60  1  0
 60 55  1  0
 61 55  1  0
 62 61  1  0
 63 56  1  0
 64 54  1  0
 66 67  1  0
 66 68  1  0
 67 69  1  0
 70 79  2  0
 70 75  1  0
 71 67  1  0
 72 71  1  0
 73 74  1  0
 73 72  1  0
 74 70  1  0
 75 71  1  0
 75 76  2  0
 76 77  1  0
 78 77  2  0
 79 78  1  0
 80 54  1  0
 80 85  1  0
 80 81  1  0
 81 84  1  1
 81 82  1  0
 83 81  1  0
 85 88  1  0
 86 90  1  0
 86 85  1  0
 87 86  2  0
 90 89  1  0
 92 90  1  0
 92 93  1  0
 92 91  1  0
M  ISO  4  13 100  21 100  52 101  53 101
M  END
>  <TORSDO>  (65) 
F 19

>  <SCORE>  (65) 
-12.406

>  <name>  (65) 
64

>  <ligand_id>  (65) 
64

>  <original_smiles>  (65) 
[H]c1c([H])c([H])c2c(c1[H])C([H])([H])C([H])([H])C([H])([H])C2([H])N([H])C(=O)C1([H])N(C(=O)C([H])(N([H])C(=O)C([H])(N([H])C([H])([H])[H])C([H])([H])[H])C(C([H])([H])[H])(C([H])([H])[H])C([H])([H])[H])C([H])([H])c2c([H])c(OC([H])([H])C([H])([H])[N+]3([H])C([H])([H])C([H])([H])C3([H])c3c([H])c([H])c(N([H])C(=O)N4C([H])([H])C([H])([H])C([H])([H])C([H])(n5nc(-c6c([H])c([H])c(Oc7c([H])c([H])c(F)c([H])c7F)c([H])c6[H])c(C(=O)N([H])[H])c5N([H])[H])C4([H])[H])c([H])c3F)c([H])c([H])c2C1([H])[H]

>  <smiles>  (65) 
[H]c1c([H])c([H])c2c(c1[H])C([H])([H])C([H])([H])C([H])([H])C2([H])N([H])C(=O)C1([H])N(C(=O)C([H])(N([H])C(=O)C([H])(N([H])C([H])([H])[H])C([H])([H])[H])C(C([H])([H])[H])(C([H])([H])[H])C([H])([H])[H])C([H])([H])c2c([H])c(OC([H])([H])C([H])([H])[N+]3([H])C([H])([H])C([H])([H])C3([H])c3c([H])c([H])c(N([H])C(=O)N4C([H])([H])C([H])([H])C([H])([H])C([H])(n5nc(-c6c([H])c([H])c(Oc7c([H])c([H])c(F)c([H])c7F)c([H])c6[H])c(C(=O)N([H])[H])c5N([H])[H])C4([H])[H])c([H])c3F)c([H])c([H])c2C1([H])[H]

$$$$
65:0:0
     RDKit          3D

 89 97  0  0  1  0  0  0  0  0999 V2000
  -29.5490  -20.2410   20.5300 C   0  0  0  0  0  3  0  0  0  0  0  0
  -30.2950  -20.2450   21.8420 C   0  0  0  0  0  0  0  0  0  0  0  0
  -31.5340  -19.3630   21.7610 C   0  0  0  0  0  2  0  0  0  0  0  0
  -31.5470  -18.7830   20.3370 C   0  0  0  0  0  2  0  0  0  0  0  0
  -30.0700  -18.5840   19.9490 C   0  0  0  0  0  3  0  0  0  0  0  0
  -28.9280  -21.4300   20.0050 N   0  0  0  0  0  2  0  0  0  0  0  0
  -29.9940  -20.8790   22.8600 O   0  0  0  0  0  0  0  0  0  0  0  0
  -30.5370  -15.6160   20.2140 C   0  0  0  0  0  0  0  0  0  0  0  0
  -30.5780  -13.1110   19.4580 C   0  0  0  0  0  2  0  0  0  0  0  0
  -29.6900  -12.7910   18.2280 C   0  0  0  0  0  2  0  0  0  0  0  0
  -28.2530  -12.4750   18.6740 C   0  0  0  0  0  2  0  0  0  0  0  0
  -27.7500  -13.4860   19.7340 C   0  0  0  0  0  3  0  0  0  0  0  0
  -28.7750  -13.7540   20.8600 C   0  0  0  0  0  2  0  0  0  0  0  0
  -29.9890  -14.2890   20.2160 N   0  0  0  0  0  0  0  0  0  0  0  0
  -31.7510  -15.5800   19.9610 O   0  0  0  0  0  0  0  0  0  0  0  0
  -29.7960  -16.9300   20.3000 N   0  0  0  0  0  0  0  0  0  0  0  0
  -28.8250  -16.7690   20.5180 H   0  0  0  0  0  0  0  0  0  0  0  0
  -25.3830  -14.0130   20.5080 C   0  0  0  0  0  0  0  0  0  0  0  0
  -24.3280  -13.2260   20.8730 C   0  0  0  0  0  0  0  0  0  0  0  0
  -24.8030  -11.8780   20.8220 C   0  0  0  0  0  0  0  0  0  0  0  0
  -26.4290  -13.1490   20.2460 N   0  0  0  0  0  0  0  0  0  0  0  0
  -26.0940  -11.8560   20.5040 N   0  0  0  0  0  0  0  0  0  0  0  0
  -24.0840  -10.6090   21.0000 C   0  0  0  0  0  0  0  0  0  0  0  0
  -24.4860   -9.6590   21.9630 C   0  0  0  0  0  3  0  0  0  0  0  0
  -23.7640   -8.4580   22.1300 C   0  0  0  0  0  3  0  0  0  0  0  0
  -22.6250   -8.1980   21.3320 C   0  0  0  0  0  0  0  0  0  0  0  0
  -22.2410   -9.1370   20.3580 C   0  0  0  0  0  3  0  0  0  0  0  0
  -22.9640  -10.3290   20.1910 C   0  0  0  0  0  3  0  0  0  0  0  0
  -21.8790   -7.0460   21.4050 O   0  0  0  0  0  0  0  0  0  0  0  0
  -21.7430   -6.3490   22.5790 C   0  0  0  0  0  0  0  0  0  0  0  0
  -21.1500   -6.9250   23.7230 C   0  0  0  0  0  3  0  0  0  0  0  0
  -20.9680   -6.1510   24.8870 C   0  0  0  0  0  3  0  0  0  0  0  0
  -21.3680   -4.8010   24.9060 C   0  0  0  0  0  0  0  0  0  0  0  0
  -21.9540   -4.2250   23.7650 C   0  0  0  0  0  3  0  0  0  0  0  0
  -22.1380   -4.9960   22.6050 C   0  0  0  0  0  0  0  0  0  0  0  0
  -22.6840   -4.4290   21.5010 F   0  0  0  0  0  0  0  0  0  0  0  0
  -21.1870   -4.0560   26.0210 F   0  0  0  0  0  0  0  0  0  0  0  0
  -22.9290  -13.6920   21.1470 C   0  0  0  0  0  0  0  0  0  0  0  0
  -22.2030  -12.9850   22.0050 N   0  0  0  0  0  0  0  0  0  0  0  0
  -22.4870  -14.7200   20.6360 O   0  0  0  0  0  0  0  0  0  0  0  0
  -22.5730  -12.1540   22.4430 H   0  0  0  0  0  0  0  0  0  0  0  0
  -21.2630  -13.2810   22.2290 H   0  0  0  0  0  0  0  0  0  0  0  0
  -25.5370  -15.3870   20.3460 N   0  0  0  0  0  0  0  0  0  0  0  0
  -24.7640  -16.0340   20.4710 H   0  0  0  0  0  0  0  0  0  0  0  0
  -26.3740  -15.8340   19.9970 H   0  0  0  0  0  0  0  0  0  0  0  0
  -29.0140  -22.9390   20.4650 C   0  0  0  0  0  0  0  0  0  0  0  0
  -29.8950  -23.2740   21.2540 O   0  0  0  0  0  0  0  0  0  0  0  0
  -28.0280  -24.3440   19.9960 C   0  0  0  0  0  2  0  0  0  0  0  0
  -28.2260  -25.9720   20.3450 O   0  0  0  0  0  0  0  0  0  0  0  0
  -24.6370  -31.9620   23.3270 C   0  0  0  0  0  0  0  0  0  0  0  0
  -27.2260  -27.0960   20.2610 C   0  0  0  0  0  0  0  0  0  0  0  0
  -23.4560  -30.5770   21.6700 C   0  0  0  0  0  3  0  0  0  0  0  0
  -24.9190  -28.9930   20.2270 C   0  0  0  0  0  0  0  0  0  0  0  0
  -26.0240  -30.7960   21.5310 C   0  0  0  0  0  2  0  0  0  0  0  0
  -26.1040  -29.3890   20.8590 C   0  0  0  0  0  0  0  0  0  0  0  0
  -27.2480  -28.4640   20.8510 C   0  0  0  0  0  3  0  0  0  0  0  0
  -26.0130  -26.8700   19.5710 C   0  0  0  0  0  3  0  0  0  0  0  0
  -24.9020  -27.7570   19.5600 C   0  0  0  0  0  3  0  0  0  0  0  0
  -23.6940  -29.9100   20.2860 C   0  0  0  0  0  2  0  0  0  0  0  0
  -24.7280  -31.1400   22.2300 N   0  0  0  0  0  0  0  0  0  0  0  0
  -23.5450  -32.2380   23.8490 O   0  0  0  0  0  0  0  0  0  0  0  0
  -22.7660  -29.5680   22.6250 C   0  0  0  0  0  0  0  0  0  0  0  0
  -21.4410  -29.3750   22.4800 N   0  0  0  0  0  0  0  0  0  0  0  0
  -23.4310  -28.9560   23.4650 O   0  0  0  0  0  0  0  0  0  0  0  0
  -20.9570  -29.9210   21.7810 H   0  0  0  0  0  0  0  0  0  0  0  0
  -18.0800  -28.0770   22.9270 C   0  0  0  0  0  0  0  0  0  0  0  0
  -20.6270  -28.4170   23.2380 C   0  0  0  0  0  3  0  0  0  0  0  0
  -20.7790  -26.9870   22.6680 C   0  0  0  0  0  2  0  0  0  0  0  0
  -19.7060  -26.6310   21.6350 C   0  0  0  0  0  2  0  0  0  0  0  0
  -18.3090  -26.7350   22.2530 C   0  0  0  0  0  2  0  0  0  0  0  0
  -19.1690  -28.8740   23.3750 C   0  0  0  0  0  0  0  0  0  0  0  0
  -18.8990  -30.1250   23.9690 C   0  0  0  0  0  3  0  0  0  0  0  0
  -17.5760  -30.5840   24.1170 C   0  0  0  0  0  3  0  0  0  0  0  0
  -16.5030  -29.7860   23.6830 C   0  0  0  0  0  3  0  0  0  0  0  0
  -16.7570  -28.5340   23.0950 C   0  0  0  0  0  3  0  0  0  0  0  0
  -25.9010  -32.6090   23.9710 C   0  0  0  0  0  3  0  0  0  0  0  0
  -25.5880  -34.0190   24.2710 N   0  0  0  0  0  0  0  0  0  0  0  0
  -25.9140  -35.0610   23.4930 C   0  0  0  0  0  0  0  0  0  0  0  0
  -26.5710  -34.9370   22.4560 O   0  0  0  0  0  0  0  0  0  0  0  0
  -25.0030  -34.1880   25.0750 H   0  0  0  0  0  0  0  0  0  0  0  0
  -24.1760  -36.8540   23.1490 C   0  0  0  0  0  1  0  0  0  0  0  0
  -25.4400  -36.4630   23.9330 C   0  0  0  0  0  3  0  0  0  0  0  0
  -27.5890  -37.3790   24.6940 C   0  0  0  0  0  1  0  0  0  0  0  0
  -26.4690  -37.5130   23.7660 N   0  0  0  0  0  0  0  0  0  0  0  0
  -26.0640  -38.4380   23.8880 H   0  0  0  0  0  0  0  0  0  0  0  0
  -26.3730  -31.8700   25.2840 C   0  0  1  0  0  0  0  0  0  0  0  0
  -25.2480  -31.6680   26.3280 C   0  0  0  0  0  1  0  0  0  0  0  0
  -26.9580  -30.4790   24.9550 C   0  0  0  0  0  1  0  0  0  0  0  0
  -27.5090  -32.6750   25.9580 C   0  0  0  0  0  1  0  0  0  0  0  0
  1  6  1  0
  1  2  1  0
  2  7  2  0
  3  2  1  0
  4  3  1  0
  5 16  1  0
  5  4  1  0
  5  1  1  0
  6 46  1  0
  8 14  1  0
  8 16  1  0
  9 14  1  0
 10 11  1  0
 10  9  1  0
 12 11  1  0
 12 21  1  0
 12 13  1  0
 14 13  1  0
 15  8  2  0
 16 17  1  0
 18 19  2  0
 19 38  1  0
 20 19  1  0
 20 23  1  0
 21 22  1  0
 21 18  1  0
 22 20  2  0
 23 24  1  0
 24 25  2  0
 26 29  1  0
 26 25  1  0
 27 26  2  0
 28 27  1  0
 28 23  2  0
 29 30  1  0
 30 35  2  0
 30 31  1  0
 31 32  2  0
 32 33  1  0
 33 37  1  0
 34 33  2  0
 35 34  1  0
 36 35  1  0
 38 39  1  0
 39 42  1  0
 39 41  1  0
 40 38  2  0
 43 44  1  0
 43 18  1  0
 45 43  1  0
 46 47  2  0
 48 49  1  0
 48 46  1  0
 50 61  2  0
 51 49  1  0
 51 56  1  0
 52 60  1  0
 52 62  1  0
 53 59  1  0
 53 55  1  0
 54 60  1  0
 55 54  1  0
 56 55  2  0
 57 51  2  0
 58 57  1  0
 58 53  2  0
 59 52  1  0
 60 50  1  0
 62 64  2  0
 63 62  1  0
 65 63  1  0
 66 75  2  0
 66 71  1  0
 67 63  1  0
 67 71  1  0
 68 67  1  0
 69 70  1  0
 69 68  1  0
 70 66  1  0
 71 72  2  0
 72 73  1  0
 74 73  2  0
 75 74  1  0
 76 50  1  0
 76 77  1  0
 76 86  1  0
 77 80  1  0
 78 82  1  0
 78 77  1  0
 79 78  2  0
 82 81  1  0
 84 85  1  0
 84 82  1  0
 84 83  1  0
 86 89  1  1
 86 87  1  0
 88 86  1  0
M  ISO  4   8 100  16 100  48 101  49 101
M  END
>  <TORSDO>  (66) 
F 18

>  <SCORE>  (66) 
-16.013

>  <name>  (66) 
65

>  <ligand_id>  (66) 
65

>  <original_smiles>  (66) 
[H]c1c([H])c([H])c2c(c1[H])C([H])([H])C([H])([H])C([H])([H])C2([H])N([H])C(=O)C1([H])N(C(=O)C([H])(N([H])C(=O)C([H])(N([H])C([H])([H])[H])C([H])([H])[H])C(C([H])([H])[H])(C([H])([H])[H])C([H])([H])[H])C([H])([H])c2c([H])c(OC([H])([H])C(=O)N=C3C(=O)C([H])([H])C([H])([H])C3([H])N([H])C(=O)N3C([H])([H])C([H])([H])C([H])([H])C([H])(n4nc(-c5c([H])c([H])c(Oc6c([H])c([H])c(F)c([H])c6F)c([H])c5[H])c(C(=O)N([H])[H])c4N([H])[H])C3([H])[H])c([H])c([H])c2C1([H])[H]

>  <smiles>  (66) 
[H]c1c([H])c([H])c2c(c1[H])C([H])([H])C([H])([H])C([H])([H])C2([H])N([H])C(=O)C1([H])N(C(=O)C([H])(N([H])C(=O)C([H])(N([H])C([H])([H])[H])C([H])([H])[H])C(C([H])([H])[H])(C([H])([H])[H])C([H])([H])[H])C([H])([H])c2c([H])c(OC([H])([H])C(=O)N=C3C(=O)C([H])([H])C([H])([H])C3([H])N([H])C(=O)N3C([H])([H])C([H])([H])C([H])([H])C([H])(n4nc(-c5c([H])c([H])c(Oc6c([H])c([H])c(F)c([H])c6F)c([H])c5[H])c(C(=O)N([H])[H])c4N([H])[H])C3([H])[H])c([H])c([H])c2C1([H])[H]

$$$$
66:0:0
     RDKit          3D

 90 98  0  0  1  0  0  0  0  0999 V2000
  -28.7060  -21.2090   21.3150 C   0  0  0  0  0  3  0  0  0  0  0  0
  -28.4520  -22.6360   21.2670 C   0  0  0  0  0  3  0  0  0  0  0  0
  -29.4800  -21.2580   19.0820 C   0  0  0  0  0  3  0  0  0  0  0  0
  -29.1870  -20.4280   20.2100 C   0  0  0  0  0  0  0  0  0  0  0  0
  -28.6560  -23.4450   20.1040 C   0  0  0  0  0  0  0  0  0  0  0  0
  -29.2240  -22.6840   19.0260 C   0  0  0  0  0  0  0  0  0  0  0  0
  -29.4450  -23.3110   17.8460 F   0  0  0  0  0  0  0  0  0  0  0  0
  -29.0850  -18.7930   20.1600 C   0  0  0  0  0  3  0  0  0  0  0  0
  -28.2320  -18.4300   21.1200 F   0  0  0  0  0  0  0  0  0  0  0  0
  -30.2840  -17.6630   20.2100 C   0  0  0  0  0  2  0  0  0  0  0  0
  -30.7060  -14.9900   20.1470 C   0  0  0  0  0  0  0  0  0  0  0  0
  -30.5410  -12.6600   19.2100 C   0  0  0  0  0  2  0  0  0  0  0  0
  -29.5780  -12.6440   18.0010 C   0  0  0  0  0  2  0  0  0  0  0  0
  -28.1210  -12.4520   18.4630 C   0  0  0  0  0  2  0  0  0  0  0  0
  -27.7470  -13.3710   19.6560 C   0  0  0  0  0  3  0  0  0  0  0  0
  -28.8290  -13.3640   20.7580 C   0  0  0  0  0  2  0  0  0  0  0  0
  -30.0990  -13.7450   20.1240 N   0  0  0  0  0  0  0  0  0  0  0  0
  -31.8900  -15.0770   19.8110 O   0  0  0  0  0  0  0  0  0  0  0  0
  -29.9340  -16.1450   20.3370 N   0  0  0  0  0  0  0  0  0  0  0  0
  -28.9700  -15.9650   20.5740 H   0  0  0  0  0  0  0  0  0  0  0  0
  -25.3860  -13.9440   20.4670 C   0  0  0  0  0  0  0  0  0  0  0  0
  -24.3300  -13.1640   20.8500 C   0  0  0  0  0  0  0  0  0  0  0  0
  -24.7900  -11.8130   20.7800 C   0  0  0  0  0  0  0  0  0  0  0  0
  -26.4210  -13.0700   20.1830 N   0  0  0  0  0  0  0  0  0  0  0  0
  -26.0720  -11.7810   20.4360 N   0  0  0  0  0  0  0  0  0  0  0  0
  -24.0650  -10.5490   20.9640 C   0  0  0  0  0  0  0  0  0  0  0  0
  -24.4760   -9.5950   21.9210 C   0  0  0  0  0  3  0  0  0  0  0  0
  -23.7500   -8.3960   22.0940 C   0  0  0  0  0  3  0  0  0  0  0  0
  -22.6000   -8.1430   21.3090 C   0  0  0  0  0  0  0  0  0  0  0  0
  -22.2090   -9.0850   20.3420 C   0  0  0  0  0  3  0  0  0  0  0  0
  -22.9350  -10.2750   20.1680 C   0  0  0  0  0  3  0  0  0  0  0  0
  -21.8480   -6.9960   21.3900 O   0  0  0  0  0  0  0  0  0  0  0  0
  -21.7150   -6.3040   22.5680 C   0  0  0  0  0  0  0  0  0  0  0  0
  -21.1590   -6.8970   23.7210 C   0  0  0  0  0  3  0  0  0  0  0  0
  -20.9760   -6.1300   24.8890 C   0  0  0  0  0  3  0  0  0  0  0  0
  -21.3390   -4.7690   24.9030 C   0  0  0  0  0  0  0  0  0  0  0  0
  -21.8880   -4.1760   23.7520 C   0  0  0  0  0  3  0  0  0  0  0  0
  -22.0730   -4.9400   22.5880 C   0  0  0  0  0  0  0  0  0  0  0  0
  -22.5810   -4.3580   21.4750 F   0  0  0  0  0  0  0  0  0  0  0  0
  -21.1560   -4.0300   26.0220 F   0  0  0  0  0  0  0  0  0  0  0  0
  -22.9410  -13.6380   21.1660 C   0  0  0  0  0  0  0  0  0  0  0  0
  -22.2350  -12.9290   22.0390 N   0  0  0  0  0  0  0  0  0  0  0  0
  -22.4930  -14.6730   20.6740 O   0  0  0  0  0  0  0  0  0  0  0  0
  -22.6110  -12.0930   22.4600 H   0  0  0  0  0  0  0  0  0  0  0  0
  -21.3040  -13.2280   22.2910 H   0  0  0  0  0  0  0  0  0  0  0  0
  -25.5450  -15.3180   20.3120 N   0  0  0  0  0  0  0  0  0  0  0  0
  -24.7810  -15.9670   20.4700 H   0  0  0  0  0  0  0  0  0  0  0  0
  -26.3790  -15.7720   19.9630 H   0  0  0  0  0  0  0  0  0  0  0  0
  -27.9160  -24.8820   19.8580 C   0  0  0  0  0  2  0  0  0  0  0  0
  -28.2580  -26.3080   20.3180 O   0  0  0  0  0  0  0  0  0  0  0  0
  -24.6410  -31.9470   23.3350 C   0  0  0  0  0  0  0  0  0  0  0  0
  -27.2170  -27.3010   20.2380 C   0  0  0  0  0  0  0  0  0  0  0  0
  -23.4380  -30.5680   21.6860 C   0  0  0  0  0  3  0  0  0  0  0  0
  -24.8850  -29.0270   20.2370 C   0  0  0  0  0  0  0  0  0  0  0  0
  -25.9910  -30.8470   21.5180 C   0  0  0  0  0  2  0  0  0  0  0  0
  -26.0650  -29.4660   20.8510 C   0  0  0  0  0  0  0  0  0  0  0  0
  -27.2310  -28.6160   20.8460 C   0  0  0  0  0  3  0  0  0  0  0  0
  -26.0130  -26.9750   19.5660 C   0  0  0  0  0  3  0  0  0  0  0  0
  -24.8700  -27.7930   19.5820 C   0  0  0  0  0  3  0  0  0  0  0  0
  -23.6560  -29.9150   20.2970 C   0  0  0  0  0  2  0  0  0  0  0  0
  -24.7100  -31.1400   22.2340 N   0  0  0  0  0  0  0  0  0  0  0  0
  -23.5570  -32.2240   23.8690 O   0  0  0  0  0  0  0  0  0  0  0  0
  -22.7680  -29.5440   22.6360 C   0  0  0  0  0  0  0  0  0  0  0  0
  -21.4430  -29.3530   22.4940 N   0  0  0  0  0  0  0  0  0  0  0  0
  -23.4400  -28.9260   23.4640 O   0  0  0  0  0  0  0  0  0  0  0  0
  -20.9560  -29.9060   21.8030 H   0  0  0  0  0  0  0  0  0  0  0  0
  -18.0750  -28.1030   22.9510 C   0  0  0  0  0  0  0  0  0  0  0  0
  -20.6260  -28.4050   23.2560 C   0  0  0  0  0  3  0  0  0  0  0  0
  -20.7570  -26.9720   22.6880 C   0  0  0  0  0  2  0  0  0  0  0  0
  -19.6750  -26.6290   21.6590 C   0  0  0  0  0  2  0  0  0  0  0  0
  -18.2830  -26.7550   22.2820 C   0  0  0  0  0  2  0  0  0  0  0  0
  -19.1750  -28.8850   23.3950 C   0  0  0  0  0  0  0  0  0  0  0  0
  -18.9270  -30.1450   23.9810 C   0  0  0  0  0  3  0  0  0  0  0  0
  -17.6110  -30.6240   24.1280 C   0  0  0  0  0  3  0  0  0  0  0  0
  -16.5260  -29.8390   23.7010 C   0  0  0  0  0  3  0  0  0  0  0  0
  -16.7580  -28.5810   23.1180 C   0  0  0  0  0  3  0  0  0  0  0  0
  -25.9230  -32.5770   23.9610 C   0  0  0  0  0  3  0  0  0  0  0  0
  -26.4190  -31.8150   25.2520 C   0  0  1  0  0  0  0  0  0  0  0  0
  -25.3110  -31.5930   26.3080 C   0  0  0  0  0  1  0  0  0  0  0  0
  -27.0010  -30.4310   24.8850 C   0  0  0  0  0  1  0  0  0  0  0  0
  -27.5630  -32.6120   25.9210 C   0  0  0  0  0  1  0  0  0  0  0  0
  -25.6190  -33.9810   24.2780 N   0  0  0  0  0  0  0  0  0  0  0  0
  -25.9330  -35.0240   23.4980 C   0  0  0  0  0  0  0  0  0  0  0  0
  -26.5750  -34.9060   22.4510 O   0  0  0  0  0  0  0  0  0  0  0  0
  -25.0470  -34.1470   25.0920 H   0  0  0  0  0  0  0  0  0  0  0  0
  -24.1810  -36.8030   23.1910 C   0  0  0  0  0  1  0  0  0  0  0  0
  -25.4610  -36.4200   23.9500 C   0  0  0  0  0  3  0  0  0  0  0  0
  -27.6200  -37.3390   24.6710 C   0  0  0  0  0  1  0  0  0  0  0  0
  -26.4800  -37.4760   23.7680 N   0  0  0  0  0  0  0  0  0  0  0  0
  -26.0740  -38.3970   23.9070 H   0  0  0  0  0  0  0  0  0  0  0  0
  2  1  1  0
  3  4  1  0
  4  1  2  0
  5  2  2  0
  6  3  2  0
  6  5  1  0
  7  6  1  0
  8 10  1  0
  8  4  1  0
  8  9  1  0
 10 19  1  0
 11 19  1  0
 12 17  1  0
 13 14  1  0
 13 12  1  0
 15 14  1  0
 15 24  1  0
 15 16  1  0
 17 11  1  0
 17 16  1  0
 18 11  2  0
 19 20  1  0
 21 22  2  0
 22 41  1  0
 23 22  1  0
 23 26  1  0
 24 25  1  0
 24 21  1  0
 25 23  2  0
 26 27  1  0
 27 28  2  0
 29 32  1  0
 29 28  1  0
 30 29  2  0
 31 30  1  0
 31 26  2  0
 32 33  1  0
 33 38  2  0
 33 34  1  0
 34 35  2  0
 35 36  1  0
 36 40  1  0
 37 36  2  0
 38 37  1  0
 39 38  1  0
 41 42  1  0
 42 45  1  0
 42 44  1  0
 43 41  2  0
 46 21  1  0
 46 47  1  0
 48 46  1  0
 49  5  1  0
 49 50  1  0
 51 62  2  0
 52 50  1  0
 52 57  1  0
 53 61  1  0
 53 63  1  0
 54 60  1  0
 54 56  1  0
 55 61  1  0
 56 55  1  0
 57 56  2  0
 58 59  1  0
 58 52  2  0
 59 54  2  0
 60 53  1  0
 61 51  1  0
 63 65  2  0
 64 63  1  0
 66 64  1  0
 67 76  2  0
 67 72  1  0
 68 64  1  0
 68 72  1  0
 69 68  1  0
 70 71  1  0
 70 69  1  0
 71 67  1  0
 72 73  2  0
 73 74  1  0
 75 74  2  0
 76 75  1  0
 77 51  1  0
 77 82  1  0
 77 78  1  0
 78 81  1  1
 78 79  1  0
 80 78  1  0
 82 85  1  0
 83 87  1  0
 83 82  1  0
 84 83  2  0
 87 86  1  0
 89 90  1  0
 89 87  1  0
 89 88  1  0
M  ISO  4  11 100  19 100  49 101  50 101
M  END
>  <TORSDO>  (67) 
F 19

>  <SCORE>  (67) 
-14.094

>  <name>  (67) 
66

>  <ligand_id>  (67) 
66

>  <original_smiles>  (67) 
[H]c1c([H])c([H])c2c(c1[H])C([H])([H])C([H])([H])C([H])([H])C2([H])N([H])C(=O)C1([H])N(C(=O)C([H])(N([H])C(=O)C([H])(N([H])C([H])([H])[H])C([H])([H])[H])C(C([H])([H])[H])(C([H])([H])[H])C([H])([H])[H])C([H])([H])c2c([H])c(OC([H])([H])c3c([H])c([H])c(C([H])(F)C([H])([H])N([H])C(=O)N4C([H])([H])C([H])([H])C([H])([H])C([H])(n5nc(-c6c([H])c([H])c(Oc7c([H])c([H])c(F)c([H])c7F)c([H])c6[H])c(C(=O)N([H])[H])c5N([H])[H])C4([H])[H])c([H])c3F)c([H])c([H])c2C1([H])[H]

>  <smiles>  (67) 
[H]c1c([H])c([H])c2c(c1[H])C([H])([H])C([H])([H])C([H])([H])C2([H])N([H])C(=O)C1([H])N(C(=O)C([H])(N([H])C(=O)C([H])(N([H])C([H])([H])[H])C([H])([H])[H])C(C([H])([H])[H])(C([H])([H])[H])C([H])([H])[H])C([H])([H])c2c([H])c(OC([H])([H])c3c([H])c([H])c(C([H])(F)C([H])([H])N([H])C(=O)N4C([H])([H])C([H])([H])C([H])([H])C([H])(n5nc(-c6c([H])c([H])c(Oc7c([H])c([H])c(F)c([H])c7F)c([H])c6[H])c(C(=O)N([H])[H])c5N([H])[H])C4([H])[H])c([H])c3F)c([H])c([H])c2C1([H])[H]

$$$$
67:0:0
     RDKit          3D

 92100  0  0  1  0  0  0  0  0999 V2000
  -29.1990  -21.1460   20.7210 N   0  0  0  0  0  4  0  0  0  0  0  0
  -30.0470  -21.3580   21.2220 H   0  0  0  0  0  0  0  0  0  0  0  0
  -28.4850  -21.0000   21.4170 H   0  0  0  0  0  0  0  0  0  0  0  0
  -28.7050  -18.3630   18.0190 C   0  0  0  0  0  2  0  0  0  0  0  0
  -28.8000  -17.0730   18.8450 C   0  0  0  0  0  2  0  0  0  0  0  0
  -28.3530  -19.5820   18.8830 C   0  0  0  0  0  2  0  0  0  0  0  0
  -29.5910  -18.4780   20.8220 C   0  0  0  0  0  2  0  0  0  0  0  0
  -29.8500  -17.1380   19.9760 C   0  0  0  0  0  3  0  0  0  0  0  0
  -29.4300  -19.8350   19.9640 C   0  0  0  0  0  3  0  0  0  0  0  0
  -30.5860  -14.6870   20.3930 C   0  0  0  0  0  0  0  0  0  0  0  0
  -30.3680  -12.4360   19.3680 C   0  0  0  0  0  2  0  0  0  0  0  0
  -29.4310  -12.5590   18.1450 C   0  0  0  0  0  2  0  0  0  0  0  0
  -27.9560  -12.4070   18.5650 C   0  0  0  0  0  2  0  0  0  0  0  0
  -27.5960  -13.2710   19.8040 C   0  0  0  0  0  3  0  0  0  0  0  0
  -28.6520  -13.1370   20.9250 C   0  0  0  0  0  2  0  0  0  0  0  0
  -29.9630  -13.4660   20.3490 N   0  0  0  0  0  0  0  0  0  0  0  0
  -31.7420  -14.8220   19.9780 O   0  0  0  0  0  0  0  0  0  0  0  0
  -29.8060  -15.7880   20.6660 N   0  0  0  0  0  0  0  0  0  0  0  0
  -28.9220  -15.5590   21.0930 H   0  0  0  0  0  0  0  0  0  0  0  0
  -25.2000  -13.8630   20.5150 C   0  0  0  0  0  0  0  0  0  0  0  0
  -24.1330  -13.0900   20.8850 C   0  0  0  0  0  0  0  0  0  0  0  0
  -24.5970  -11.7400   20.8610 C   0  0  0  0  0  0  0  0  0  0  0  0
  -26.2470  -12.9850   20.2860 N   0  0  0  0  0  0  0  0  0  0  0  0
  -25.8890  -11.7020   20.5540 N   0  0  0  0  0  0  0  0  0  0  0  0
  -23.8690  -10.4780   21.0560 C   0  0  0  0  0  0  0  0  0  0  0  0
  -24.3120   -9.5050   21.9800 C   0  0  0  0  0  3  0  0  0  0  0  0
  -23.5870   -8.3080   22.1630 C   0  0  0  0  0  3  0  0  0  0  0  0
  -22.4030   -8.0750   21.4230 C   0  0  0  0  0  0  0  0  0  0  0  0
  -21.9780   -9.0370   20.4890 C   0  0  0  0  0  3  0  0  0  0  0  0
  -22.7050  -10.2250   20.3050 C   0  0  0  0  0  3  0  0  0  0  0  0
  -21.6500   -6.9310   21.5160 O   0  0  0  0  0  0  0  0  0  0  0  0
  -21.6310   -6.1720   22.6590 C   0  0  0  0  0  0  0  0  0  0  0  0
  -21.2510   -6.7140   23.9070 C   0  0  0  0  0  3  0  0  0  0  0  0
  -21.1790   -5.8820   25.0430 C   0  0  0  0  0  3  0  0  0  0  0  0
  -21.4740   -4.5100   24.9310 C   0  0  0  0  0  0  0  0  0  0  0  0
  -21.8450   -3.9680   23.6880 C   0  0  0  0  0  3  0  0  0  0  0  0
  -21.9200   -4.7960   22.5550 C   0  0  0  0  0  0  0  0  0  0  0  0
  -22.2590   -4.2640   21.3550 F   0  0  0  0  0  0  0  0  0  0  0  0
  -21.3960   -3.7100   26.0200 F   0  0  0  0  0  0  0  0  0  0  0  0
  -22.7350  -13.5680   21.1510 C   0  0  0  0  0  0  0  0  0  0  0  0
  -22.0030  -12.8790   22.0200 N   0  0  0  0  0  0  0  0  0  0  0  0
  -22.2990  -14.5900   20.6230 O   0  0  0  0  0  0  0  0  0  0  0  0
  -22.3640  -12.0520   22.4730 H   0  0  0  0  0  0  0  0  0  0  0  0
  -21.0660  -13.1890   22.2370 H   0  0  0  0  0  0  0  0  0  0  0  0
  -25.3590  -15.2330   20.3310 N   0  0  0  0  0  0  0  0  0  0  0  0
  -24.5830  -15.8770   20.4320 H   0  0  0  0  0  0  0  0  0  0  0  0
  -26.1920  -15.6730   19.9640 H   0  0  0  0  0  0  0  0  0  0  0  0
  -28.8010  -22.3940   19.9340 C   0  0  0  0  0  2  0  0  0  0  0  0
  -28.9230  -23.8400   20.6180 C   0  0  0  0  0  3  0  0  0  0  0  0
  -28.4970  -23.7390   21.8790 F   0  0  0  0  0  0  0  0  0  0  0  0
  -28.1010  -25.0150   19.9150 C   0  0  0  0  0  2  0  0  0  0  0  0
  -28.2840  -26.4520   20.2720 O   0  0  0  0  0  0  0  0  0  0  0  0
  -24.6100  -31.9120   23.2470 C   0  0  0  0  0  0  0  0  0  0  0  0
  -27.1830  -27.3260   20.1870 C   0  0  0  0  0  0  0  0  0  0  0  0
  -23.3960  -30.5190   21.6110 C   0  0  0  0  0  3  0  0  0  0  0  0
  -24.8340  -28.9670   20.1790 C   0  0  0  0  0  0  0  0  0  0  0  0
  -25.9380  -30.8160   21.4310 C   0  0  0  0  0  2  0  0  0  0  0  0
  -26.0060  -29.4390   20.7840 C   0  0  0  0  0  0  0  0  0  0  0  0
  -27.1800  -28.6260   20.7860 C   0  0  0  0  0  3  0  0  0  0  0  0
  -25.9940  -26.9320   19.5260 C   0  0  0  0  0  3  0  0  0  0  0  0
  -24.8310  -27.7190   19.5430 C   0  0  0  0  0  3  0  0  0  0  0  0
  -23.6050  -29.8490   20.2280 C   0  0  0  0  0  2  0  0  0  0  0  0
  -24.6670  -31.1010   22.1520 N   0  0  0  0  0  0  0  0  0  0  0  0
  -23.5290  -32.1980   23.7820 O   0  0  0  0  0  0  0  0  0  0  0  0
  -22.7300  -29.5040   22.5710 C   0  0  0  0  0  0  0  0  0  0  0  0
  -21.4010  -29.3370   22.4500 N   0  0  0  0  0  0  0  0  0  0  0  0
  -23.4070  -28.8720   23.3860 O   0  0  0  0  0  0  0  0  0  0  0  0
  -20.9140  -29.9020   21.7670 H   0  0  0  0  0  0  0  0  0  0  0  0
  -18.0180  -28.1650   22.9580 C   0  0  0  0  0  0  0  0  0  0  0  0
  -20.5780  -28.4070   23.2230 C   0  0  0  0  0  3  0  0  0  0  0  0
  -20.6690  -26.9730   22.6510 C   0  0  0  0  0  2  0  0  0  0  0  0
  -19.5640  -26.6560   21.6390 C   0  0  0  0  0  2  0  0  0  0  0  0
  -18.1840  -26.8130   22.2850 C   0  0  0  0  0  2  0  0  0  0  0  0
  -19.1420  -28.9190   23.3850 C   0  0  0  0  0  0  0  0  0  0  0  0
  -18.9340  -30.1850   23.9750 C   0  0  0  0  0  3  0  0  0  0  0  0
  -17.6330  -30.6960   24.1420 C   0  0  0  0  0  3  0  0  0  0  0  0
  -16.5220  -29.9380   23.7320 C   0  0  0  0  0  3  0  0  0  0  0  0
  -16.7150  -28.6750   23.1460 C   0  0  0  0  0  3  0  0  0  0  0  0
  -25.8980  -32.5380   23.8650 C   0  0  0  0  0  3  0  0  0  0  0  0
  -26.4170  -31.7630   25.1380 C   0  0  1  0  0  0  0  0  0  0  0  0
  -25.3270  -31.5290   26.2100 C   0  0  0  0  0  1  0  0  0  0  0  0
  -26.9930  -30.3830   24.7440 C   0  0  0  0  0  1  0  0  0  0  0  0
  -27.5740  -32.5520   25.7960 C   0  0  0  0  0  1  0  0  0  0  0  0
  -25.5940  -33.9360   24.2000 N   0  0  0  0  0  0  0  0  0  0  0  0
  -25.9200  -34.9910   23.4390 C   0  0  0  0  0  0  0  0  0  0  0  0
  -26.5770  -34.8880   22.4010 O   0  0  0  0  0  0  0  0  0  0  0  0
  -25.0070  -34.0910   25.0060 H   0  0  0  0  0  0  0  0  0  0  0  0
  -24.1850  -36.7850   23.1150 C   0  0  0  0  0  1  0  0  0  0  0  0
  -25.4400  -36.3780   23.9050 C   0  0  0  0  0  3  0  0  0  0  0  0
  -27.5890  -37.2610   24.7000 C   0  0  0  0  0  1  0  0  0  0  0  0
  -26.4700  -37.4320   23.7760 N   0  0  0  0  0  0  0  0  0  0  0  0
  -26.0670  -38.3510   23.9350 H   0  0  0  0  0  0  0  0  0  0  0  0
  1  2  1  0
  1  3  1  0
  4  5  1  0
  4  6  1  0
  5  8  1  0
  6  9  1  0
  8 18  1  0
  8  7  1  0
  9  1  1  0
  9  7  1  0
 10 18  1  0
 11 16  1  0
 12 13  1  0
 12 11  1  0
 14 13  1  0
 14 23  1  0
 14 15  1  0
 16 10  1  0
 16 15  1  0
 17 10  2  0
 18 19  1  0
 20 21  2  0
 21 40  1  0
 22 21  1  0
 22 25  1  0
 23 20  1  0
 23 24  1  0
 24 22  2  0
 25 26  1  0
 26 27  2  0
 28 31  1  0
 28 27  1  0
 29 28  2  0
 30 29  1  0
 30 25  2  0
 31 32  1  0
 32 33  1  0
 33 34  2  0
 35 34  1  0
 35 39  1  0
 36 35  2  0
 37 32  2  0
 37 36  1  0
 38 37  1  0
 40 41  1  0
 41 44  1  0
 41 43  1  0
 42 40  2  0
 45 46  1  0
 45 20  1  0
 47 45  1  0
 48 49  1  0
 48  1  1  0
 49 50  1  0
 51 52  1  0
 51 49  1  0
 53 64  2  0
 54 52  1  0
 54 59  1  0
 55 63  1  0
 55 65  1  0
 56 62  1  0
 56 58  1  0
 57 63  1  0
 58 59  2  0
 58 57  1  0
 60 61  1  0
 60 54  2  0
 61 56  2  0
 62 55  1  0
 63 53  1  0
 65 67  2  0
 66 65  1  0
 68 66  1  0
 69 78  2  0
 69 74  1  0
 70 66  1  0
 70 74  1  0
 71 70  1  0
 72 73  1  0
 72 71  1  0
 73 69  1  0
 74 75  2  0
 75 76  1  0
 77 76  2  0
 78 77  1  0
 79 53  1  0
 79 84  1  0
 79 80  1  0
 80 83  1  1
 80 81  1  0
 82 80  1  0
 84 87  1  0
 85 89  1  0
 85 84  1  0
 86 85  2  0
 89 88  1  0
 91 89  1  0
 91 92  1  0
 91 90  1  0
M  ISO  4  10 100  18 100  51 101  52 101
M  END
>  <TORSDO>  (68) 
F 20

>  <SCORE>  (68) 
-13.946

>  <name>  (68) 
67

>  <ligand_id>  (68) 
67

>  <original_smiles>  (68) 
[H]c1c([H])c([H])c2c(c1[H])C([H])([H])C([H])([H])C([H])([H])C2([H])N([H])C(=O)C1([H])N(C(=O)C([H])(N([H])C(=O)C([H])(N([H])C([H])([H])[H])C([H])([H])[H])C(C([H])([H])[H])(C([H])([H])[H])C([H])([H])[H])C([H])([H])c2c([H])c(OC([H])([H])C([H])(F)C([H])([H])[N+]([H])([H])C3([H])C([H])([H])C([H])([H])C([H])([H])C([H])(N([H])C(=O)N4C([H])([H])C([H])([H])C([H])([H])C([H])(n5nc(-c6c([H])c([H])c(Oc7c([H])c([H])c(F)c([H])c7F)c([H])c6[H])c(C(=O)N([H])[H])c5N([H])[H])C4([H])[H])C3([H])[H])c([H])c([H])c2C1([H])[H]

>  <smiles>  (68) 
[H]c1c([H])c([H])c2c(c1[H])C([H])([H])C([H])([H])C([H])([H])C2([H])N([H])C(=O)C1([H])N(C(=O)C([H])(N([H])C(=O)C([H])(N([H])C([H])([H])[H])C([H])([H])[H])C(C([H])([H])[H])(C([H])([H])[H])C([H])([H])[H])C([H])([H])c2c([H])c(OC([H])([H])C([H])(F)C([H])([H])[N+]([H])([H])C3([H])C([H])([H])C([H])([H])C([H])([H])C([H])(N([H])C(=O)N4C([H])([H])C([H])([H])C([H])([H])C([H])(n5nc(-c6c([H])c([H])c(Oc7c([H])c([H])c(F)c([H])c7F)c([H])c6[H])c(C(=O)N([H])[H])c5N([H])[H])C4([H])[H])C3([H])[H])c([H])c([H])c2C1([H])[H]

$$$$
68:0:0
     RDKit          3D

 93101  0  0  1  0  0  0  0  0999 V2000
  -27.8150  -22.1280   21.2050 C   0  0  0  0  0  3  0  0  0  0  0  0
  -29.1180  -23.6330   19.3730 C   0  0  0  0  0  3  0  0  0  0  0  0
  -28.6490  -21.2510   20.3800 C   0  0  0  0  0  0  0  0  0  0  0  0
  -28.2670  -24.5030   20.1880 C   0  0  0  0  0  0  0  0  0  0  0  0
  -27.6420  -23.6020   21.1390 C   0  0  0  0  0  0  0  0  0  0  0  0
  -29.2970  -22.1560   19.4430 C   0  0  0  0  0  0  0  0  0  0  0  0
  -26.8480  -24.1650   22.0790 F   0  0  0  0  0  0  0  0  0  0  0  0
  -30.1350  -21.6000   18.5380 F   0  0  0  0  0  0  0  0  0  0  0  0
  -28.2570  -26.0330   20.1620 O   0  0  0  0  0  0  0  0  0  0  0  0
  -24.6450  -31.9060   23.1820 C   0  0  0  0  0  0  0  0  0  0  0  0
  -27.1910  -27.0550   20.1660 C   0  0  0  0  0  0  0  0  0  0  0  0
  -23.4470  -30.5120   21.5470 C   0  0  0  0  0  3  0  0  0  0  0  0
  -24.8870  -28.9050   20.1290 C   0  0  0  0  0  0  0  0  0  0  0  0
  -26.0100  -30.7260   21.3910 C   0  0  0  0  0  2  0  0  0  0  0  0
  -26.0750  -29.3190   20.7420 C   0  0  0  0  0  0  0  0  0  0  0  0
  -27.2220  -28.4140   20.7340 C   0  0  0  0  0  3  0  0  0  0  0  0
  -25.9780  -26.7760   19.5040 C   0  0  0  0  0  3  0  0  0  0  0  0
  -24.8610  -27.6530   19.4910 C   0  0  0  0  0  3  0  0  0  0  0  0
  -23.6700  -29.8250   20.1730 C   0  0  0  0  0  2  0  0  0  0  0  0
  -24.7250  -31.0750   22.0950 N   0  0  0  0  0  0  0  0  0  0  0  0
  -23.5590  -32.2000   23.7050 O   0  0  0  0  0  0  0  0  0  0  0  0
  -22.7530  -29.5180   22.5120 C   0  0  0  0  0  0  0  0  0  0  0  0
  -21.4230  -29.3570   22.3840 N   0  0  0  0  0  0  0  0  0  0  0  0
  -23.4160  -28.8930   23.3440 O   0  0  0  0  0  0  0  0  0  0  0  0
  -20.9410  -29.9070   21.6840 H   0  0  0  0  0  0  0  0  0  0  0  0
  -18.0320  -28.1870   22.9170 C   0  0  0  0  0  0  0  0  0  0  0  0
  -20.5970  -28.4230   23.1560 C   0  0  0  0  0  3  0  0  0  0  0  0
  -20.6780  -26.9960   22.5680 C   0  0  0  0  0  2  0  0  0  0  0  0
  -19.5610  -26.6950   21.5620 C   0  0  0  0  0  2  0  0  0  0  0  0
  -18.1870  -26.8450   22.2210 C   0  0  0  0  0  2  0  0  0  0  0  0
  -19.1630  -28.9350   23.3410 C   0  0  0  0  0  0  0  0  0  0  0  0
  -18.9610  -30.1900   23.9550 C   0  0  0  0  0  3  0  0  0  0  0  0
  -17.6630  -30.7010   24.1430 C   0  0  0  0  0  3  0  0  0  0  0  0
  -16.5470  -29.9510   23.7330 C   0  0  0  0  0  3  0  0  0  0  0  0
  -16.7330  -28.6960   23.1270 C   0  0  0  0  0  3  0  0  0  0  0  0
  -25.9220  -32.5430   23.8170 C   0  0  0  0  0  3  0  0  0  0  0  0
  -26.4300  -31.7650   25.0940 C   0  0  1  0  0  0  0  0  0  0  0  0
  -25.3330  -31.5260   26.1580 C   0  0  0  0  0  1  0  0  0  0  0  0
  -27.0100  -30.3860   24.7040 C   0  0  0  0  0  1  0  0  0  0  0  0
  -27.5800  -32.5550   25.7620 C   0  0  0  0  0  1  0  0  0  0  0  0
  -25.6080  -33.9400   24.1620 N   0  0  0  0  0  0  0  0  0  0  0  0
  -25.9260  -35.0060   23.4140 C   0  0  0  0  0  0  0  0  0  0  0  0
  -26.5810  -34.9160   22.3720 O   0  0  0  0  0  0  0  0  0  0  0  0
  -25.0240  -34.0850   24.9720 H   0  0  0  0  0  0  0  0  0  0  0  0
  -24.1870  -36.8020   23.1150 C   0  0  0  0  0  1  0  0  0  0  0  0
  -25.4460  -36.3890   23.8960 C   0  0  0  0  0  3  0  0  0  0  0  0
  -27.5900  -37.2750   24.7020 C   0  0  0  0  0  1  0  0  0  0  0  0
  -26.4740  -37.4470   23.7730 N   0  0  0  0  0  0  0  0  0  0  0  0
  -26.0690  -38.3660   23.9320 H   0  0  0  0  0  0  0  0  0  0  0  0
  -28.6280  -19.5040   20.4920 C   0  0  0  0  0  3  0  0  0  0  0  0
  -27.3480  -19.0910   19.8910 N   0  0  0  0  0  4  0  0  0  0  0  0
  -27.3500  -19.2270   18.8960 H   0  0  0  0  0  0  0  0  0  0  0  0
  -26.6000  -19.6370   20.2750 H   0  0  0  0  0  0  0  0  0  0  0  0
  -27.1550  -18.1280   20.0940 H   0  0  0  0  0  0  0  0  0  0  0  0
  -29.7880  -18.1690   20.2550 C   0  0  0  0  0  2  0  0  0  0  0  0
  -30.4080  -15.2950   20.2520 C   0  0  0  0  0  0  0  0  0  0  0  0
  -30.4220  -12.8610   19.3800 C   0  0  0  0  0  2  0  0  0  0  0  0
  -29.5020  -12.6890   18.1450 C   0  0  0  0  0  2  0  0  0  0  0  0
  -28.0450  -12.4320   18.5700 C   0  0  0  0  0  2  0  0  0  0  0  0
  -27.6040  -13.3600   19.7290 C   0  0  0  0  0  3  0  0  0  0  0  0
  -28.6550  -13.4780   20.8510 C   0  0  0  0  0  2  0  0  0  0  0  0
  -29.8790  -13.9830   20.2210 N   0  0  0  0  0  0  0  0  0  0  0  0
  -31.6180  -15.3430   19.9870 O   0  0  0  0  0  0  0  0  0  0  0  0
  -29.5940  -16.5200   20.3950 N   0  0  0  0  0  0  0  0  0  0  0  0
  -28.6430  -16.2680   20.6150 H   0  0  0  0  0  0  0  0  0  0  0  0
  -25.2410  -13.9090   20.5050 C   0  0  0  0  0  0  0  0  0  0  0  0
  -24.1910  -13.1260   20.8880 C   0  0  0  0  0  0  0  0  0  0  0  0
  -24.6590  -11.7750   20.8330 C   0  0  0  0  0  0  0  0  0  0  0  0
  -26.2810  -13.0380   20.2420 N   0  0  0  0  0  0  0  0  0  0  0  0
  -25.9460  -11.7490   20.5060 N   0  0  0  0  0  0  0  0  0  0  0  0
  -23.9380  -10.5090   21.0160 C   0  0  0  0  0  0  0  0  0  0  0  0
  -24.3620   -9.5490   21.9620 C   0  0  0  0  0  3  0  0  0  0  0  0
  -23.6430   -8.3460   22.1300 C   0  0  0  0  0  3  0  0  0  0  0  0
  -22.4830   -8.0980   21.3590 C   0  0  0  0  0  0  0  0  0  0  0  0
  -22.0800   -9.0470   20.4010 C   0  0  0  0  0  3  0  0  0  0  0  0
  -22.7990  -10.2400   20.2320 C   0  0  0  0  0  3  0  0  0  0  0  0
  -21.7370   -6.9460   21.4360 O   0  0  0  0  0  0  0  0  0  0  0  0
  -21.6400   -6.2280   22.6010 C   0  0  0  0  0  0  0  0  0  0  0  0
  -21.1200   -6.7960   23.7850 C   0  0  0  0  0  3  0  0  0  0  0  0
  -20.9760   -6.0040   24.9410 C   0  0  0  0  0  3  0  0  0  0  0  0
  -21.3370   -4.6440   24.9130 C   0  0  0  0  0  0  0  0  0  0  0  0
  -21.8490   -4.0750   23.7330 C   0  0  0  0  0  3  0  0  0  0  0  0
  -21.9950   -4.8640   22.5790 C   0  0  0  0  0  0  0  0  0  0  0  0
  -22.4710   -4.3080   21.4380 F   0  0  0  0  0  0  0  0  0  0  0  0
  -21.1910   -3.8780   26.0210 F   0  0  0  0  0  0  0  0  0  0  0  0
  -22.7950  -13.5940   21.1730 C   0  0  0  0  0  0  0  0  0  0  0  0
  -22.0770  -12.8860   22.0370 N   0  0  0  0  0  0  0  0  0  0  0  0
  -22.3530  -14.6230   20.6620 O   0  0  0  0  0  0  0  0  0  0  0  0
  -22.4530  -12.0530   22.4660 H   0  0  0  0  0  0  0  0  0  0  0  0
  -21.1390  -13.1830   22.2710 H   0  0  0  0  0  0  0  0  0  0  0  0
  -25.3970  -15.2820   20.3130 N   0  0  0  0  0  0  0  0  0  0  0  0
  -24.5400  -15.8190   20.2390 H   0  0  0  0  0  0  0  0  0  0  0  0
  -26.0760  -15.5560   19.6170 H   0  0  0  0  0  0  0  0  0  0  0  0
  2  6  2  0
  2  4  1  0
  3 50  1  0
  3  1  2  0
  4  5  2  0
  5  1  1  0
  5  7  1  0
  6  3  1  0
  8  6  1  0
  9 11  1  0
  9  4  1  0
 10 21  2  0
 11 16  1  0
 12 20  1  0
 12 22  1  0
 13 19  1  0
 13 15  1  0
 14 20  1  0
 15 14  1  0
 16 15  2  0
 17 11  2  0
 18 17  1  0
 18 13  2  0
 19 12  1  0
 20 10  1  0
 22 24  2  0
 23 22  1  0
 25 23  1  0
 26 35  2  0
 26 31  1  0
 27 23  1  0
 27 31  1  0
 28 27  1  0
 29 30  1  0
 29 28  1  0
 30 26  1  0
 31 32  2  0
 32 33  1  0
 34 33  2  0
 35 34  1  0
 36 10  1  0
 36 41  1  0
 36 37  1  0
 37 40  1  1
 37 38  1  0
 39 37  1  0
 41 44  1  0
 42 46  1  0
 42 41  1  0
 43 42  2  0
 46 45  1  0
 48 46  1  0
 48 49  1  0
 48 47  1  0
 50 55  1  0
 51 54  1  0
 51 53  1  0
 51 50  1  0
 52 51  1  0
 55 64  1  0
 56 64  1  0
 57 62  1  0
 58 59  1  0
 58 57  1  0
 60 59  1  0
 60 69  1  0
 60 61  1  0
 62 56  1  0
 62 61  1  0
 63 56  2  0
 64 65  1  0
 66 67  2  0
 67 86  1  0
 68 67  1  0
 68 71  1  0
 69 66  1  0
 69 70  1  0
 70 68  2  0
 71 72  1  0
 72 73  2  0
 74 77  1  0
 74 73  1  0
 75 74  2  0
 76 75  1  0
 76 71  2  0
 77 78  1  0
 78 79  1  0
 79 80  2  0
 81 80  1  0
 81 85  1  0
 82 81  2  0
 83 78  2  0
 83 82  1  0
 84 83  1  0
 86 87  1  0
 87 90  1  0
 87 89  1  0
 88 86  2  0
 91 66  1  0
 92 91  1  0
 93 91  1  0
M  ISO  4   4 101   9 101  56 100  64 100
M  END
>  <TORSDO>  (69) 
F 19

>  <SCORE>  (69) 
-16.009

>  <name>  (69) 
68

>  <ligand_id>  (69) 
68

>  <original_smiles>  (69) 
[H]c1c([H])c([H])c2c(c1[H])C([H])([H])C([H])([H])C([H])([H])C2([H])N([H])C(=O)C1([H])N(C(=O)C([H])(N([H])C(=O)C([H])(N([H])C([H])([H])[H])C([H])([H])[H])C(C([H])([H])[H])(C([H])([H])[H])C([H])([H])[H])C([H])([H])c2c([H])c(Oc3c([H])c(F)c(C([H])(C([H])([H])N([H])C(=O)N4C([H])([H])C([H])([H])C([H])([H])C([H])(n5nc(-c6c([H])c([H])c(Oc7c([H])c([H])c(F)c([H])c7F)c([H])c6[H])c(C(=O)N([H])[H])c5N([H])[H])C4([H])[H])[N+]([H])([H])[H])c([H])c3F)c([H])c([H])c2C1([H])[H]

>  <smiles>  (69) 
[H]c1c([H])c([H])c2c(c1[H])C([H])([H])C([H])([H])C([H])([H])C2([H])N([H])C(=O)C1([H])N(C(=O)C([H])(N([H])C(=O)C([H])(N([H])C([H])([H])[H])C([H])([H])[H])C(C([H])([H])[H])(C([H])([H])[H])C([H])([H])[H])C([H])([H])c2c([H])c(Oc3c([H])c(F)c(C([H])(C([H])([H])N([H])C(=O)N4C([H])([H])C([H])([H])C([H])([H])C([H])(n5nc(-c6c([H])c([H])c(Oc7c([H])c([H])c(F)c([H])c7F)c([H])c6[H])c(C(=O)N([H])[H])c5N([H])[H])C4([H])[H])[N+]([H])([H])[H])c([H])c3F)c([H])c([H])c2C1([H])[H]

$$$$
69:0:0
     RDKit          3D

 91 99  0  0  1  0  0  0  0  0999 V2000
  -28.8430  -22.4830   20.2780 C   0  0  0  0  0  0  0  0  0  0  0  0
  -29.8330  -21.5370   20.2590 N   0  0  0  0  0  0  0  0  0  0  0  0
  -27.6500  -22.1720   20.2290 O   0  0  0  0  0  0  0  0  0  0  0  0
  -30.7630  -21.9300   20.1990 H   0  0  0  0  0  0  0  0  0  0  0  0
  -30.9300  -19.3270   19.8830 C   0  0  0  0  0  3  0  0  0  0  0  0
  -28.7040  -19.3100   20.7930 C   0  0  0  0  0  3  0  0  0  0  0  0
  -30.9840  -17.9020   19.9490 C   0  0  0  0  0  3  0  0  0  0  0  0
  -28.7610  -17.8870   20.8690 C   0  0  0  0  0  3  0  0  0  0  0  0
  -29.7920  -20.0740   20.2980 C   0  0  0  0  0  0  0  0  0  0  0  0
  -29.8960  -17.1400   20.4510 C   0  0  0  0  0  0  0  0  0  0  0  0
  -30.6220  -14.6700   20.0660 C   0  0  0  0  0  0  0  0  0  0  0  0
  -30.3530  -12.4730   18.9360 C   0  0  0  0  0  2  0  0  0  0  0  0
  -29.3360  -12.6480   17.7860 C   0  0  0  0  0  2  0  0  0  0  0  0
  -27.8900  -12.4760   18.2960 C   0  0  0  0  0  2  0  0  0  0  0  0
  -27.6100  -13.2950   19.5840 C   0  0  0  0  0  3  0  0  0  0  0  0
  -28.7310  -13.0850   20.6270 C   0  0  0  0  0  2  0  0  0  0  0  0
  -30.0090  -13.4480   19.9910 N   0  0  0  0  0  0  0  0  0  0  0  0
  -31.7480  -14.8550   19.5910 O   0  0  0  0  0  0  0  0  0  0  0  0
  -29.8490  -15.6830   20.5630 N   0  0  0  0  0  0  0  0  0  0  0  0
  -28.9980  -15.3310   20.9750 H   0  0  0  0  0  0  0  0  0  0  0  0
  -25.2620  -13.8780   20.4570 C   0  0  0  0  0  0  0  0  0  0  0  0
  -24.2160  -13.0940   20.8650 C   0  0  0  0  0  0  0  0  0  0  0  0
  -24.6720  -11.7440   20.7660 C   0  0  0  0  0  0  0  0  0  0  0  0
  -26.2880  -13.0040   20.1350 N   0  0  0  0  0  0  0  0  0  0  0  0
  -25.9410  -11.7130   20.3800 N   0  0  0  0  0  0  0  0  0  0  0  0
  -23.9540  -10.4780   20.9600 C   0  0  0  0  0  0  0  0  0  0  0  0
  -24.4110   -9.5030   21.8740 C   0  0  0  0  0  3  0  0  0  0  0  0
  -23.6940   -8.3000   22.0550 C   0  0  0  0  0  3  0  0  0  0  0  0
  -22.5070   -8.0640   21.3220 C   0  0  0  0  0  0  0  0  0  0  0  0
  -22.0700   -9.0280   20.3970 C   0  0  0  0  0  3  0  0  0  0  0  0
  -22.7860  -10.2220   20.2140 C   0  0  0  0  0  3  0  0  0  0  0  0
  -21.7590   -6.9150   21.4150 O   0  0  0  0  0  0  0  0  0  0  0  0
  -21.6970   -6.1890   22.5770 C   0  0  0  0  0  0  0  0  0  0  0  0
  -21.2380   -6.7560   23.7870 C   0  0  0  0  0  3  0  0  0  0  0  0
  -21.1240   -5.9550   24.9410 C   0  0  0  0  0  3  0  0  0  0  0  0
  -21.4570   -4.5880   24.8860 C   0  0  0  0  0  0  0  0  0  0  0  0
  -21.9090   -4.0220   23.6820 C   0  0  0  0  0  3  0  0  0  0  0  0
  -22.0250   -4.8200   22.5300 C   0  0  0  0  0  0  0  0  0  0  0  0
  -22.4400   -4.2630   21.3660 F   0  0  0  0  0  0  0  0  0  0  0  0
  -21.3410   -3.8170   25.9930 F   0  0  0  0  0  0  0  0  0  0  0  0
  -22.8380  -13.5650   21.2330 C   0  0  0  0  0  0  0  0  0  0  0  0
  -22.1620  -12.8460   22.1230 N   0  0  0  0  0  0  0  0  0  0  0  0
  -22.3710  -14.6030   20.7680 O   0  0  0  0  0  0  0  0  0  0  0  0
  -22.5530  -12.0050   22.5220 H   0  0  0  0  0  0  0  0  0  0  0  0
  -21.2400  -13.1430   22.4110 H   0  0  0  0  0  0  0  0  0  0  0  0
  -25.4190  -15.2530   20.3120 N   0  0  0  0  0  0  0  0  0  0  0  0
  -24.6540  -15.8980   20.4770 H   0  0  0  0  0  0  0  0  0  0  0  0
  -26.2320  -15.6990   19.9070 H   0  0  0  0  0  0  0  0  0  0  0  0
  -29.2280  -24.0150   20.3500 C   0  0  0  0  0  3  0  0  0  0  0  0
  -28.1040  -25.0750   19.9880 C   0  0  0  0  0  3  0  0  0  0  0  0
  -28.3380  -26.5210   20.2070 O   0  0  0  0  0  0  0  0  0  0  0  0
  -24.6180  -31.8920   23.2640 C   0  0  0  0  0  0  0  0  0  0  0  0
  -27.2210  -27.3700   20.1600 C   0  0  0  0  0  0  0  0  0  0  0  0
  -23.4120  -30.5170   21.6090 C   0  0  0  0  0  3  0  0  0  0  0  0
  -24.8590  -28.9840   20.1680 C   0  0  0  0  0  0  0  0  0  0  0  0
  -25.9540  -30.8330   21.4320 C   0  0  0  0  0  2  0  0  0  0  0  0
  -26.0300  -29.4630   20.7700 C   0  0  0  0  0  0  0  0  0  0  0  0
  -27.2140  -28.6680   20.7570 C   0  0  0  0  0  3  0  0  0  0  0  0
  -26.0260  -26.9470   19.5320 C   0  0  0  0  0  3  0  0  0  0  0  0
  -24.8590  -27.7300   19.5390 C   0  0  0  0  0  3  0  0  0  0  0  0
  -23.6250  -29.8590   20.2210 C   0  0  0  0  0  2  0  0  0  0  0  0
  -24.6810  -31.0970   22.1590 N   0  0  0  0  0  0  0  0  0  0  0  0
  -23.5340  -32.1680   23.8010 O   0  0  0  0  0  0  0  0  0  0  0  0
  -22.7470  -29.4890   22.5550 C   0  0  0  0  0  0  0  0  0  0  0  0
  -21.4220  -29.3100   22.4180 N   0  0  0  0  0  0  0  0  0  0  0  0
  -23.4210  -28.8570   23.3730 O   0  0  0  0  0  0  0  0  0  0  0  0
  -20.9380  -29.8710   21.7310 H   0  0  0  0  0  0  0  0  0  0  0  0
  -18.0420  -28.1100   22.8840 C   0  0  0  0  0  0  0  0  0  0  0  0
  -20.5980  -28.3680   23.1760 C   0  0  0  0  0  3  0  0  0  0  0  0
  -20.7050  -26.9390   22.5930 C   0  0  0  0  0  2  0  0  0  0  0  0
  -19.6110  -26.6230   21.5680 C   0  0  0  0  0  2  0  0  0  0  0  0
  -18.2240  -26.7640   22.2030 C   0  0  0  0  0  2  0  0  0  0  0  0
  -19.1570  -28.8690   23.3280 C   0  0  0  0  0  0  0  0  0  0  0  0
  -18.9330  -30.1280   23.9250 C   0  0  0  0  0  3  0  0  0  0  0  0
  -17.6270  -30.6290   24.0830 C   0  0  0  0  0  3  0  0  0  0  0  0
  -16.5260  -29.8660   23.6560 C   0  0  0  0  0  3  0  0  0  0  0  0
  -16.7350  -28.6090   23.0620 C   0  0  0  0  0  3  0  0  0  0  0  0
  -25.9020  -32.5140   23.8960 C   0  0  0  0  0  3  0  0  0  0  0  0
  -26.4050  -31.7350   25.1730 C   0  0  1  0  0  0  0  0  0  0  0  0
  -25.3030  -31.5020   26.2320 C   0  0  0  0  0  1  0  0  0  0  0  0
  -26.9820  -30.3550   24.7800 C   0  0  0  0  0  1  0  0  0  0  0  0
  -27.5580  -32.5180   25.8440 C   0  0  0  0  0  1  0  0  0  0  0  0
  -25.6010  -33.9140   24.2280 N   0  0  0  0  0  0  0  0  0  0  0  0
  -25.9220  -34.9630   23.4620 C   0  0  0  0  0  0  0  0  0  0  0  0
  -26.5730  -34.8570   22.4190 O   0  0  0  0  0  0  0  0  0  0  0  0
  -25.0200  -34.0700   25.0380 H   0  0  0  0  0  0  0  0  0  0  0  0
  -24.1770  -36.7490   23.1480 C   0  0  0  0  0  1  0  0  0  0  0  0
  -25.4440  -36.3550   23.9240 C   0  0  0  0  0  3  0  0  0  0  0  0
  -27.5990  -37.2530   24.6840 C   0  0  0  0  0  1  0  0  0  0  0  0
  -26.4700  -37.4090   23.7710 N   0  0  0  0  0  0  0  0  0  0  0  0
  -26.0650  -38.3300   23.9220 H   0  0  0  0  0  0  0  0  0  0  0  0
  1 49  1  0
  2  1  1  0
  2  9  1  0
  3  1  2  0
  4  2  1  0
  5  7  2  0
  5  9  1  0
  6  8  1  0
  7 10  1  0
  9  6  2  0
 10 19  1  0
 10  8  2  0
 11 19  1  0
 12 17  1  0
 13 14  1  0
 13 12  1  0
 15 14  1  0
 15 24  1  0
 15 16  1  0
 17 11  1  0
 17 16  1  0
 18 11  2  0
 19 20  1  0
 21 22  2  0
 22 41  1  0
 23 22  1  0
 23 26  1  0
 24 25  1  0
 24 21  1  0
 25 23  2  0
 26 27  1  0
 27 28  2  0
 29 32  1  0
 29 28  1  0
 30 29  2  0
 31 30  1  0
 31 26  2  0
 32 33  1  0
 33 34  1  0
 34 35  2  0
 36 35  1  0
 36 40  1  0
 37 36  2  0
 38 33  2  0
 38 37  1  0
 39 38  1  0
 41 42  1  0
 42 45  1  0
 42 44  1  0
 43 41  2  0
 46 21  1  0
 46 47  1  0
 48 46  1  0
 50 51  1  0
 50 49  2  0
 52 63  2  0
 53 51  1  0
 53 58  1  0
 54 62  1  0
 54 64  1  0
 55 61  1  0
 55 57  1  0
 56 62  1  0
 57 56  1  0
 58 57  2  0
 59 60  1  0
 59 53  2  0
 60 55  2  0
 61 54  1  0
 62 52  1  0
 64 66  2  0
 65 64  1  0
 67 65  1  0
 68 77  2  0
 68 73  1  0
 69 65  1  0
 69 73  1  0
 70 69  1  0
 71 72  1  0
 71 70  1  0
 72 68  1  0
 73 74  2  0
 74 75  1  0
 76 75  2  0
 77 76  1  0
 78 52  1  0
 78 83  1  0
 78 79  1  0
 79 82  1  1
 79 80  1  0
 81 79  1  0
 83 86  1  0
 84 88  1  0
 84 83  1  0
 85 84  2  0
 88 87  1  0
 90 91  1  0
 90 88  1  0
 90 89  1  0
M  ISO  4  11 100  19 100  50 101  51 101
M  END
>  <TORSDO>  (70) 
F 19

>  <SCORE>  (70) 
-13.934

>  <name>  (70) 
69

>  <ligand_id>  (70) 
69

>  <original_smiles>  (70) 
[H]c1c([H])c([H])c2c(c1[H])C([H])([H])C([H])([H])C([H])([H])C2([H])N([H])C(=O)C1([H])N(C(=O)C([H])(N([H])C(=O)C([H])(N([H])C([H])([H])[H])C([H])([H])[H])C(C([H])([H])[H])(C([H])([H])[H])C([H])([H])[H])C([H])([H])c2c([H])c(OC([H])([H])C([H])([H])C(=O)N([H])c3c([H])c([H])c(N([H])C(=O)N4C([H])([H])C([H])([H])C([H])([H])C([H])(n5nc(-c6c([H])c([H])c(Oc7c([H])c([H])c(F)c([H])c7F)c([H])c6[H])c(C(=O)N([H])[H])c5N([H])[H])C4([H])[H])c([H])c3[H])c([H])c([H])c2C1([H])[H]

>  <smiles>  (70) 
[H]c1c([H])c([H])c2c(c1[H])C([H])([H])C([H])([H])C([H])([H])C2([H])N([H])C(=O)C1([H])N(C(=O)C([H])(N([H])C(=O)C([H])(N([H])C([H])([H])[H])C([H])([H])[H])C(C([H])([H])[H])(C([H])([H])[H])C([H])([H])[H])C([H])([H])c2c([H])c(OC([H])([H])C([H])([H])C(=O)N([H])c3c([H])c([H])c(N([H])C(=O)N4C([H])([H])C([H])([H])C([H])([H])C([H])(n5nc(-c6c([H])c([H])c(Oc7c([H])c([H])c(F)c([H])c7F)c([H])c6[H])c(C(=O)N([H])[H])c5N([H])[H])C4([H])[H])c([H])c3[H])c([H])c([H])c2C1([H])[H]

$$$$
70:0:0
     RDKit          3D

 91 99  0  0  1  0  0  0  0  0999 V2000
  -29.6490  -19.7940   19.1430 C   0  0  0  0  0  3  0  0  0  0  0  0
  -29.4340  -19.9480   21.4840 C   0  0  0  0  0  3  0  0  0  0  0  0
  -29.1390  -22.0960   20.1380 C   0  0  0  0  0  0  0  0  0  0  0  0
  -29.7400  -19.0810   20.3760 C   0  0  0  0  0  0  0  0  0  0  0  0
  -29.3730  -21.2120   19.0270 C   0  0  0  0  0  0  0  0  0  0  0  0
  -29.1470  -21.3750   21.3790 C   0  0  0  0  0  0  0  0  0  0  0  0
  -29.3820  -21.7320   17.7750 F   0  0  0  0  0  0  0  0  0  0  0  0
  -28.9520  -22.0670   22.5280 F   0  0  0  0  0  0  0  0  0  0  0  0
  -29.1370  -23.6960   19.9370 C   0  0  0  0  0  0  0  0  0  0  0  0
  -29.9950  -24.1730   19.1850 O   0  0  0  0  0  0  0  0  0  0  0  0
  -28.1340  -24.8190   20.5570 C   0  0  0  0  0  2  0  0  0  0  0  0
  -28.3830  -26.3180   20.2450 O   0  0  0  0  0  0  0  0  0  0  0  0
  -24.6320  -31.9000   23.1890 C   0  0  0  0  0  0  0  0  0  0  0  0
  -27.3010  -27.2530   20.1960 C   0  0  0  0  0  0  0  0  0  0  0  0
  -23.4670  -30.4880   21.5380 C   0  0  0  0  0  3  0  0  0  0  0  0
  -24.9500  -28.9370   20.1290 C   0  0  0  0  0  0  0  0  0  0  0  0
  -26.0140  -30.8020   21.3910 C   0  0  0  0  0  2  0  0  0  0  0  0
  -26.1140  -29.4110   20.7470 C   0  0  0  0  0  0  0  0  0  0  0  0
  -27.2950  -28.5850   20.7600 C   0  0  0  0  0  3  0  0  0  0  0  0
  -26.1150  -26.8710   19.5370 C   0  0  0  0  0  3  0  0  0  0  0  0
  -24.9600  -27.6790   19.5080 C   0  0  0  0  0  3  0  0  0  0  0  0
  -23.7080  -29.8130   20.1620 C   0  0  0  0  0  2  0  0  0  0  0  0
  -24.7240  -31.0840   22.0950 N   0  0  0  0  0  0  0  0  0  0  0  0
  -23.5380  -32.1670   23.7090 O   0  0  0  0  0  0  0  0  0  0  0  0
  -22.7970  -29.4680   22.4940 C   0  0  0  0  0  0  0  0  0  0  0  0
  -21.4700  -29.2950   22.3700 N   0  0  0  0  0  0  0  0  0  0  0  0
  -23.4750  -28.8370   23.3090 O   0  0  0  0  0  0  0  0  0  0  0  0
  -20.9790  -29.8570   21.6890 H   0  0  0  0  0  0  0  0  0  0  0  0
  -18.0890  -28.1120   22.8990 C   0  0  0  0  0  0  0  0  0  0  0  0
  -20.6520  -28.3510   23.1370 C   0  0  0  0  0  3  0  0  0  0  0  0
  -20.7360  -26.9280   22.5380 C   0  0  0  0  0  2  0  0  0  0  0  0
  -19.6190  -26.6290   21.5340 C   0  0  0  0  0  2  0  0  0  0  0  0
  -18.2470  -26.7730   22.1980 C   0  0  0  0  0  2  0  0  0  0  0  0
  -19.2180  -28.8590   23.3270 C   0  0  0  0  0  0  0  0  0  0  0  0
  -19.0150  -30.1130   23.9450 C   0  0  0  0  0  3  0  0  0  0  0  0
  -17.7150  -30.6190   24.1370 C   0  0  0  0  0  3  0  0  0  0  0  0
  -16.6010  -29.8680   23.7250 C   0  0  0  0  0  3  0  0  0  0  0  0
  -16.7880  -28.6160   23.1130 C   0  0  0  0  0  3  0  0  0  0  0  0
  -25.8970  -32.5520   23.8270 C   0  0  0  0  0  3  0  0  0  0  0  0
  -26.4120  -31.7850   25.1070 C   0  0  1  0  0  0  0  0  0  0  0  0
  -25.3110  -31.5260   26.1630 C   0  0  0  0  0  1  0  0  0  0  0  0
  -27.0210  -30.4180   24.7190 C   0  0  0  0  0  1  0  0  0  0  0  0
  -27.5420  -32.5950   25.7840 C   0  0  0  0  0  1  0  0  0  0  0  0
  -25.5610  -33.9440   24.1650 N   0  0  0  0  0  0  0  0  0  0  0  0
  -25.8610  -35.0070   23.4060 C   0  0  0  0  0  0  0  0  0  0  0  0
  -26.5190  -34.9200   22.3660 O   0  0  0  0  0  0  0  0  0  0  0  0
  -24.9740  -34.0840   24.9730 H   0  0  0  0  0  0  0  0  0  0  0  0
  -24.0930  -36.7680   23.0860 C   0  0  0  0  0  1  0  0  0  0  0  0
  -25.3540  -36.3850   23.8760 C   0  0  0  0  0  3  0  0  0  0  0  0
  -27.4800  -37.3160   24.6820 C   0  0  0  0  0  1  0  0  0  0  0  0
  -26.3640  -37.4580   23.7490 N   0  0  0  0  0  0  0  0  0  0  0  0
  -25.9410  -38.3700   23.8980 H   0  0  0  0  0  0  0  0  0  0  0  0
  -30.4640  -17.6120   20.5150 C   0  0  0  0  0  2  0  0  0  0  0  0
  -30.6310  -14.9620   20.1780 C   0  0  0  0  0  0  0  0  0  0  0  0
  -30.4270  -12.6550   19.1730 C   0  0  0  0  0  2  0  0  0  0  0  0
  -29.4630  -12.6690   17.9660 C   0  0  0  0  0  2  0  0  0  0  0  0
  -28.0100  -12.4740   18.4320 C   0  0  0  0  0  2  0  0  0  0  0  0
  -27.6470  -13.3760   19.6410 C   0  0  0  0  0  3  0  0  0  0  0  0
  -28.7310  -13.3450   20.7390 C   0  0  0  0  0  2  0  0  0  0  0  0
  -29.9940  -13.7320   20.1030 N   0  0  0  0  0  0  0  0  0  0  0  0
  -31.8290  -15.0070   19.8770 O   0  0  0  0  0  0  0  0  0  0  0  0
  -29.9090  -16.1590   20.3880 N   0  0  0  0  0  0  0  0  0  0  0  0
  -28.9190  -16.0510   20.5490 H   0  0  0  0  0  0  0  0  0  0  0  0
  -25.2900  -13.9590   20.4480 C   0  0  0  0  0  0  0  0  0  0  0  0
  -24.2320  -13.1850   20.8350 C   0  0  0  0  0  0  0  0  0  0  0  0
  -24.6870  -11.8320   20.7720 C   0  0  0  0  0  0  0  0  0  0  0  0
  -26.3210  -13.0790   20.1690 N   0  0  0  0  0  0  0  0  0  0  0  0
  -25.9690  -11.7940   20.4300 N   0  0  0  0  0  0  0  0  0  0  0  0
  -23.9570  -10.5700   20.9560 C   0  0  0  0  0  0  0  0  0  0  0  0
  -24.3900   -9.5940   21.8810 C   0  0  0  0  0  3  0  0  0  0  0  0
  -23.6580   -8.4000   22.0550 C   0  0  0  0  0  3  0  0  0  0  0  0
  -22.4790   -8.1730   21.3050 C   0  0  0  0  0  0  0  0  0  0  0  0
  -22.0660   -9.1380   20.3690 C   0  0  0  0  0  3  0  0  0  0  0  0
  -22.7980  -10.3230   20.1920 C   0  0  0  0  0  3  0  0  0  0  0  0
  -21.7190   -7.0310   21.3900 O   0  0  0  0  0  0  0  0  0  0  0  0
  -21.6540   -6.2950   22.5460 C   0  0  0  0  0  0  0  0  0  0  0  0
  -21.1850   -6.8490   23.7570 C   0  0  0  0  0  3  0  0  0  0  0  0
  -21.0670   -6.0370   24.9040 C   0  0  0  0  0  3  0  0  0  0  0  0
  -21.4090   -4.6740   24.8390 C   0  0  0  0  0  0  0  0  0  0  0  0
  -21.8710   -4.1190   23.6330 C   0  0  0  0  0  3  0  0  0  0  0  0
  -21.9900   -4.9280   22.4880 C   0  0  0  0  0  0  0  0  0  0  0  0
  -22.4150   -4.3830   21.3230 F   0  0  0  0  0  0  0  0  0  0  0  0
  -21.2890   -3.8920   25.9380 F   0  0  0  0  0  0  0  0  0  0  0  0
  -22.8440  -13.6660   21.1460 C   0  0  0  0  0  0  0  0  0  0  0  0
  -22.1340  -12.9630   22.0200 N   0  0  0  0  0  0  0  0  0  0  0  0
  -22.4010  -14.7000   20.6490 O   0  0  0  0  0  0  0  0  0  0  0  0
  -22.5040  -12.1250   22.4410 H   0  0  0  0  0  0  0  0  0  0  0  0
  -21.2030  -13.2660   22.2700 H   0  0  0  0  0  0  0  0  0  0  0  0
  -25.4550  -15.3320   20.2830 N   0  0  0  0  0  0  0  0  0  0  0  0
  -24.6790  -15.9770   20.3920 H   0  0  0  0  0  0  0  0  0  0  0  0
  -26.2750  -15.7650   19.8790 H   0  0  0  0  0  0  0  0  0  0  0  0
  1  4  1  0
  3  6  2  0
  4 53  1  0
  4  2  2  0
  5  1  2  0
  5  3  1  0
  6  2  1  0
  6  8  1  0
  7  5  1  0
  9  3  1  0
  9 11  1  0
 10  9  2  0
 12 11  1  0
 13 24  2  0
 14 12  1  0
 14 19  1  0
 15 23  1  0
 15 25  1  0
 16 22  1  0
 16 18  1  0
 17 23  1  0
 18 19  2  0
 18 17  1  0
 20 14  2  0
 21 20  1  0
 21 16  2  0
 22 15  1  0
 23 13  1  0
 25 27  2  0
 26 25  1  0
 28 26  1  0
 29 38  2  0
 29 34  1  0
 30 26  1  0
 30 34  1  0
 31 30  1  0
 32 33  1  0
 32 31  1  0
 33 29  1  0
 34 35  2  0
 35 36  1  0
 37 36  2  0
 38 37  1  0
 39 13  1  0
 39 44  1  0
 39 40  1  0
 40 43  1  1
 40 41  1  0
 42 40  1  0
 44 47  1  0
 45 49  1  0
 45 44  1  0
 46 45  2  0
 49 48  1  0
 51 49  1  0
 51 52  1  0
 51 50  1  0
 54 62  1  0
 55 60  1  0
 56 57  1  0
 56 55  1  0
 58 57  1  0
 58 67  1  0
 58 59  1  0
 60 54  1  0
 60 59  1  0
 61 54  2  0
 62 53  1  0
 62 63  1  0
 64 65  2  0
 65 84  1  0
 66 65  1  0
 66 69  1  0
 67 68  1  0
 67 64  1  0
 68 66  2  0
 69 70  1  0
 70 71  2  0
 72 75  1  0
 72 71  1  0
 73 72  2  0
 74 73  1  0
 74 69  2  0
 75 76  1  0
 76 77  1  0
 77 78  2  0
 79 78  1  0
 79 83  1  0
 80 79  2  0
 81 76  2  0
 81 80  1  0
 82 81  1  0
 84 85  1  0
 85 88  1  0
 85 87  1  0
 86 84  2  0
 89 90  1  0
 89 64  1  0
 91 89  1  0
M  ISO  4  11 101  12 101  54 100  62 100
M  END
>  <TORSDO>  (71) 
F 19

>  <SCORE>  (71) 
-14.168

>  <name>  (71) 
70

>  <ligand_id>  (71) 
70

>  <original_smiles>  (71) 
[H]c1c([H])c([H])c2c(c1[H])C([H])([H])C([H])([H])C([H])([H])C2([H])N([H])C(=O)C1([H])N(C(=O)C([H])(N([H])C(=O)C([H])(N([H])C([H])([H])[H])C([H])([H])[H])C(C([H])([H])[H])(C([H])([H])[H])C([H])([H])[H])C([H])([H])c2c([H])c(OC([H])([H])C(=O)c3c(F)c([H])c(C([H])([H])N([H])C(=O)N4C([H])([H])C([H])([H])C([H])([H])C([H])(n5nc(-c6c([H])c([H])c(Oc7c([H])c([H])c(F)c([H])c7F)c([H])c6[H])c(C(=O)N([H])[H])c5N([H])[H])C4([H])[H])c([H])c3F)c([H])c([H])c2C1([H])[H]

>  <smiles>  (71) 
[H]c1c([H])c([H])c2c(c1[H])C([H])([H])C([H])([H])C([H])([H])C2([H])N([H])C(=O)C1([H])N(C(=O)C([H])(N([H])C(=O)C([H])(N([H])C([H])([H])[H])C([H])([H])[H])C(C([H])([H])[H])(C([H])([H])[H])C([H])([H])[H])C([H])([H])c2c([H])c(OC([H])([H])C(=O)c3c(F)c([H])c(C([H])([H])N([H])C(=O)N4C([H])([H])C([H])([H])C([H])([H])C([H])(n5nc(-c6c([H])c([H])c(Oc7c([H])c([H])c(F)c([H])c7F)c([H])c6[H])c(C(=O)N([H])[H])c5N([H])[H])C4([H])[H])c([H])c3F)c([H])c([H])c2C1([H])[H]

$$$$
71:0:0
     RDKit          3D

 94102  0  0  1  0  0  0  0  0999 V2000
  -28.2890  -22.6420   20.3840 C   0  0  0  0  0  3  0  0  0  0  0  0
  -31.0440  -18.7840   19.6670 C   0  0  0  0  0  3  0  0  0  0  0  0
  -31.3670  -20.1480   19.4080 C   0  0  0  0  0  3  0  0  0  0  0  0
  -28.9050  -19.6190   20.3940 C   0  0  0  0  0  3  0  0  0  0  0  0
  -29.1930  -21.1330   20.1320 C   0  0  0  0  0  0  0  0  0  0  0  0
  -29.8000  -18.3610   20.1830 C   0  0  0  0  0  0  0  0  0  0  0  0
  -30.5060  -21.2580   19.6250 C   0  0  0  0  0  0  0  0  0  0  0  0
  -30.9800  -22.4920   19.3400 F   0  0  0  0  0  0  0  0  0  0  0  0
  -30.3920  -15.4700   20.2440 C   0  0  0  0  0  0  0  0  0  0  0  0
  -30.3880  -13.0020   19.3890 C   0  0  0  0  0  2  0  0  0  0  0  0
  -29.4850  -12.7960   18.1460 C   0  0  0  0  0  2  0  0  0  0  0  0
  -28.0350  -12.5160   18.5770 C   0  0  0  0  0  2  0  0  0  0  0  0
  -27.5720  -13.4780   19.7000 C   0  0  0  0  0  3  0  0  0  0  0  0
  -28.6100  -13.6390   20.8310 C   0  0  0  0  0  2  0  0  0  0  0  0
  -29.8400  -14.1520   20.2090 N   0  0  0  0  0  0  0  0  0  0  0  0
  -31.6120  -15.4580   20.0080 O   0  0  0  0  0  0  0  0  0  0  0  0
  -29.6100  -16.7450   20.3760 N   0  0  0  0  0  0  0  0  0  0  0  0
  -28.6530  -16.5150   20.6010 H   0  0  0  0  0  0  0  0  0  0  0  0
  -25.2030  -14.0350   20.4400 C   0  0  0  0  0  0  0  0  0  0  0  0
  -24.1390  -13.2610   20.8080 C   0  0  0  0  0  0  0  0  0  0  0  0
  -24.6070  -11.9100   20.7890 C   0  0  0  0  0  0  0  0  0  0  0  0
  -26.2450  -13.1590   20.2040 N   0  0  0  0  0  0  0  0  0  0  0  0
  -25.9010  -11.8750   20.4840 N   0  0  0  0  0  0  0  0  0  0  0  0
  -23.8780  -10.6500   20.9810 C   0  0  0  0  0  0  0  0  0  0  0  0
  -24.2950   -9.6940   21.9340 C   0  0  0  0  0  3  0  0  0  0  0  0
  -23.5640   -8.5000   22.1170 C   0  0  0  0  0  3  0  0  0  0  0  0
  -22.4020   -8.2550   21.3460 C   0  0  0  0  0  0  0  0  0  0  0  0
  -22.0040   -9.1990   20.3830 C   0  0  0  0  0  3  0  0  0  0  0  0
  -22.7360  -10.3840   20.1990 C   0  0  0  0  0  3  0  0  0  0  0  0
  -21.6450   -7.1110   21.4370 O   0  0  0  0  0  0  0  0  0  0  0  0
  -21.5790   -6.3810   22.5960 C   0  0  0  0  0  0  0  0  0  0  0  0
  -21.1310   -6.9480   23.8090 C   0  0  0  0  0  3  0  0  0  0  0  0
  -21.0110   -6.1450   24.9620 C   0  0  0  0  0  3  0  0  0  0  0  0
  -21.3300   -4.7750   24.9000 C   0  0  0  0  0  0  0  0  0  0  0  0
  -21.7730   -4.2070   23.6930 C   0  0  0  0  0  3  0  0  0  0  0  0
  -21.8940   -5.0080   22.5430 C   0  0  0  0  0  0  0  0  0  0  0  0
  -22.3000   -4.4510   21.3760 F   0  0  0  0  0  0  0  0  0  0  0  0
  -21.2080   -4.0000   26.0030 F   0  0  0  0  0  0  0  0  0  0  0  0
  -22.7410  -13.7410   21.0590 C   0  0  0  0  0  0  0  0  0  0  0  0
  -22.0070  -13.0580   21.9310 N   0  0  0  0  0  0  0  0  0  0  0  0
  -22.3090  -14.7570   20.5180 O   0  0  0  0  0  0  0  0  0  0  0  0
  -22.3670  -12.2360   22.3920 H   0  0  0  0  0  0  0  0  0  0  0  0
  -21.0640  -13.3600   22.1350 H   0  0  0  0  0  0  0  0  0  0  0  0
  -25.3650  -15.4050   20.2530 N   0  0  0  0  0  0  0  0  0  0  0  0
  -24.5870  -16.0500   20.3330 H   0  0  0  0  0  0  0  0  0  0  0  0
  -26.2000  -15.8420   19.8880 H   0  0  0  0  0  0  0  0  0  0  0  0
  -26.8430  -22.3090   19.9440 C   0  0  0  0  0  2  0  0  0  0  0  0
  -25.7560  -23.2950   20.4090 C   0  0  0  0  0  2  0  0  0  0  0  0
  -24.4430  -22.9760   19.8220 N   0  0  0  0  0  4  0  0  0  0  0  0
  -24.4750  -22.9820   18.8170 H   0  0  0  0  0  0  0  0  0  0  0  0
  -23.7670  -23.6580   20.1150 H   0  0  0  0  0  0  0  0  0  0  0  0
  -24.1240  -22.0760   20.1320 H   0  0  0  0  0  0  0  0  0  0  0  0
  -28.5450  -24.3850   19.8730 C   0  0  0  0  0  2  0  0  0  0  0  0
  -28.3170  -25.9590   20.4000 O   0  0  0  0  0  0  0  0  0  0  0  0
  -24.6640  -31.9240   23.2270 C   0  0  0  0  0  0  0  0  0  0  0  0
  -27.2950  -27.0440   20.2370 C   0  0  0  0  0  0  0  0  0  0  0  0
  -23.4990  -30.5080   21.5800 C   0  0  0  0  0  3  0  0  0  0  0  0
  -24.9770  -28.9150   20.1630 C   0  0  0  0  0  0  0  0  0  0  0  0
  -26.0640  -30.7420   21.4580 C   0  0  0  0  0  2  0  0  0  0  0  0
  -26.1500  -29.3300   20.8030 C   0  0  0  0  0  0  0  0  0  0  0  0
  -27.2960  -28.4100   20.8230 C   0  0  0  0  0  3  0  0  0  0  0  0
  -26.1010  -26.7980   19.5240 C   0  0  0  0  0  3  0  0  0  0  0  0
  -24.9790  -27.6730   19.5060 C   0  0  0  0  0  3  0  0  0  0  0  0
  -23.7460  -29.8230   20.2060 C   0  0  0  0  0  2  0  0  0  0  0  0
  -24.7630  -31.0900   22.1410 N   0  0  0  0  0  0  0  0  0  0  0  0
  -23.5670  -32.2060   23.7400 O   0  0  0  0  0  0  0  0  0  0  0  0
  -22.8080  -29.5110   22.5470 C   0  0  0  0  0  0  0  0  0  0  0  0
  -21.4780  -29.3400   22.4220 N   0  0  0  0  0  0  0  0  0  0  0  0
  -23.4750  -28.8900   23.3790 O   0  0  0  0  0  0  0  0  0  0  0  0
  -20.9920  -29.8950   21.7330 H   0  0  0  0  0  0  0  0  0  0  0  0
  -18.1010  -28.1120   22.9330 C   0  0  0  0  0  0  0  0  0  0  0  0
  -20.6610  -28.3940   23.1910 C   0  0  0  0  0  3  0  0  0  0  0  0
  -20.7690  -26.9660   22.6080 C   0  0  0  0  0  2  0  0  0  0  0  0
  -19.6660  -26.6420   21.5950 C   0  0  0  0  0  2  0  0  0  0  0  0
  -18.2850  -26.7700   22.2440 C   0  0  0  0  0  2  0  0  0  0  0  0
  -19.2160  -28.8820   23.3620 C   0  0  0  0  0  0  0  0  0  0  0  0
  -18.9880  -30.1370   23.9690 C   0  0  0  0  0  3  0  0  0  0  0  0
  -17.6780  -30.6220   24.1480 C   0  0  0  0  0  3  0  0  0  0  0  0
  -16.5790  -29.8520   23.7300 C   0  0  0  0  0  3  0  0  0  0  0  0
  -16.7920  -28.5980   23.1290 C   0  0  0  0  0  3  0  0  0  0  0  0
  -25.9240  -32.5820   23.8700 C   0  0  0  0  0  3  0  0  0  0  0  0
  -25.5920  -33.9820   24.1930 N   0  0  0  0  0  0  0  0  0  0  0  0
  -25.9120  -35.0430   23.4390 C   0  0  0  0  0  0  0  0  0  0  0  0
  -26.5820  -34.9480   22.4080 O   0  0  0  0  0  0  0  0  0  0  0  0
  -24.9970  -34.1280   24.9950 H   0  0  0  0  0  0  0  0  0  0  0  0
  -24.1570  -36.8200   23.1030 C   0  0  0  0  0  1  0  0  0  0  0  0
  -25.4130  -36.4290   23.8990 C   0  0  0  0  0  3  0  0  0  0  0  0
  -27.5450  -37.3490   24.7040 C   0  0  0  0  0  1  0  0  0  0  0  0
  -26.4320  -37.4960   23.7700 N   0  0  0  0  0  0  0  0  0  0  0  0
  -26.0140  -38.4110   23.9150 H   0  0  0  0  0  0  0  0  0  0  0  0
  -26.4230  -31.8330   25.1680 C   0  0  1  0  0  0  0  0  0  0  0  0
  -25.3140  -31.6020   26.2220 C   0  0  0  0  0  1  0  0  0  0  0  0
  -27.0220  -30.4530   24.8160 C   0  0  0  0  0  1  0  0  0  0  0  0
  -27.5570  -32.6460   25.8380 C   0  0  0  0  0  1  0  0  0  0  0  0
  1 53  1  0
  2  6  1  0
  3  7  1  0
  3  2  2  0
  5  1  1  0
  5  4  1  0
  6 17  1  0
  6  4  2  0
  7  5  2  0
  8  7  1  0
  9 17  1  0
 10 15  1  0
 11 12  1  0
 11 10  1  0
 13 12  1  0
 13 22  1  0
 13 14  1  0
 15  9  1  0
 15 14  1  0
 16  9  2  0
 17 18  1  0
 19 20  2  0
 20 39  1  0
 21 20  1  0
 21 24  1  0
 22 19  1  0
 22 23  1  0
 23 21  2  0
 24 25  1  0
 25 26  2  0
 27 30  1  0
 27 26  1  0
 28 27  2  0
 29 28  1  0
 29 24  2  0
 30 31  1  0
 31 32  1  0
 32 33  2  0
 34 33  1  0
 34 38  1  0
 35 34  2  0
 36 31  2  0
 36 35  1  0
 37 36  1  0
 39 40  1  0
 40 43  1  0
 40 42  1  0
 41 39  2  0
 44 45  1  0
 44 19  1  0
 46 44  1  0
 47  1  1  0
 47 48  1  0
 49 51  1  0
 49 52  1  0
 49 48  1  0
 50 49  1  0
 53 54  1  0
 55 66  2  0
 56 54  1  0
 56 61  1  0
 57 65  1  0
 57 67  1  0
 58 64  1  0
 58 60  1  0
 59 65  1  0
 60 61  2  0
 60 59  1  0
 62 56  2  0
 63 62  1  0
 63 58  2  0
 64 57  1  0
 65 55  1  0
 67 69  2  0
 68 67  1  0
 70 68  1  0
 71 80  2  0
 71 76  1  0
 72 68  1  0
 72 76  1  0
 73 72  1  0
 74 75  1  0
 74 73  1  0
 75 71  1  0
 76 77  2  0
 77 78  1  0
 79 78  2  0
 80 79  1  0
 81 55  1  0
 81 82  1  0
 81 91  1  0
 82 85  1  0
 83 87  1  0
 83 82  1  0
 84 83  2  0
 87 86  1  0
 89 87  1  0
 89 90  1  0
 89 88  1  0
 91 94  1  1
 91 92  1  0
 93 91  1  0
M  ISO  4   9 100  17 100  53 101  54 101
M  END
>  <TORSDO>  (72) 
F 21

>  <SCORE>  (72) 
-15.421

>  <name>  (72) 
71

>  <ligand_id>  (72) 
71

>  <original_smiles>  (72) 
[H]c1c([H])c([H])c2c(c1[H])C([H])([H])C([H])([H])C([H])([H])C2([H])N([H])C(=O)C1([H])N(C(=O)C([H])(N([H])C(=O)C([H])(N([H])C([H])([H])[H])C([H])([H])[H])C(C([H])([H])[H])(C([H])([H])[H])C([H])([H])[H])C([H])([H])c2c([H])c(OC([H])([H])C([H])(c3c([H])c(N([H])C(=O)N4C([H])([H])C([H])([H])C([H])([H])C([H])(n5nc(-c6c([H])c([H])c(Oc7c([H])c([H])c(F)c([H])c7F)c([H])c6[H])c(C(=O)N([H])[H])c5N([H])[H])C4([H])[H])c([H])c([H])c3F)C([H])([H])C([H])([H])[N+]([H])([H])[H])c([H])c([H])c2C1([H])[H]

>  <smiles>  (72) 
[H]c1c([H])c([H])c2c(c1[H])C([H])([H])C([H])([H])C([H])([H])C2([H])N([H])C(=O)C1([H])N(C(=O)C([H])(N([H])C(=O)C([H])(N([H])C([H])([H])[H])C([H])([H])[H])C(C([H])([H])[H])(C([H])([H])[H])C([H])([H])[H])C([H])([H])c2c([H])c(OC([H])([H])C([H])(c3c([H])c(N([H])C(=O)N4C([H])([H])C([H])([H])C([H])([H])C([H])(n5nc(-c6c([H])c([H])c(Oc7c([H])c([H])c(F)c([H])c7F)c([H])c6[H])c(C(=O)N([H])[H])c5N([H])[H])C4([H])[H])c([H])c([H])c3F)C([H])([H])C([H])([H])[N+]([H])([H])[H])c([H])c([H])c2C1([H])[H]

$$$$
72:0:0
     RDKit          3D

 96104  0  0  1  0  0  0  0  0999 V2000
  -31.6730  -21.8730   19.0630 C   0  0  0  0  0  2  0  0  0  0  0  0
  -31.4720  -20.4160   19.5230 C   0  0  0  0  0  2  0  0  0  0  0  0
  -30.0550  -20.0570   20.0420 C   0  0  0  0  0  2  0  0  0  0  0  0
  -30.8590  -14.6510   21.3930 C   0  0  0  0  0  0  0  0  0  0  0  0
  -30.7660  -12.3150   20.7020 C   0  0  0  0  0  2  0  0  0  0  0  0
  -30.0610  -12.2570   19.3300 C   0  0  0  0  0  2  0  0  0  0  0  0
  -28.5280  -12.1780   19.5090 C   0  0  0  0  0  2  0  0  0  0  0  0
  -27.9580  -13.1870   20.5450 C   0  0  0  0  0  3  0  0  0  0  0  0
  -28.8180  -13.2490   21.8260 C   0  0  0  0  0  2  0  0  0  0  0  0
  -30.2100  -13.4630   21.4180 N   0  0  0  0  0  0  0  0  0  0  0  0
  -32.0850  -14.7520   21.4710 O   0  0  0  0  0  0  0  0  0  0  0  0
  -29.7330  -16.0350   18.2630 C   0  0  0  0  0  0  0  0  0  0  0  0
  -29.7360  -17.3530   17.5030 C   0  0  0  0  0  2  0  0  0  0  0  0
  -30.7940  -15.8760   19.3560 C   0  0  0  0  0  2  0  0  0  0  0  0
  -29.8080  -16.8220   21.4710 C   0  0  0  0  0  2  0  0  0  0  0  0
  -29.1450  -18.5260   18.3110 C   0  0  0  0  0  2  0  0  0  0  0  0
  -28.9490  -17.8880   20.7310 C   0  0  0  0  0  2  0  0  0  0  0  0
  -30.2080  -15.6190   20.6980 N   0  0  0  0  0  0  0  0  0  0  0  0
  -29.7100  -18.6540   19.6910 N   0  0  2  0  0  4  0  0  0  0  0  0
  -28.8830  -15.1770   18.0380 O   0  0  0  0  0  0  0  0  0  0  0  0
  -30.6140  -18.2090   19.6680 H   0  0  0  0  0  0  0  0  0  0  0  0
  -25.4790  -13.7900   20.8580 C   0  0  0  0  0  0  0  0  0  0  0  0
  -24.3730  -13.0190   21.0850 C   0  0  0  0  0  0  0  0  0  0  0  0
  -24.8410  -11.6730   21.1850 C   0  0  0  0  0  0  0  0  0  0  0  0
  -26.5540  -12.9140   20.8320 N   0  0  0  0  0  0  0  0  0  0  0  0
  -26.1650  -11.6400   21.0910 N   0  0  0  0  0  0  0  0  0  0  0  0
  -24.1020  -10.4100   21.3030 C   0  0  0  0  0  0  0  0  0  0  0  0
  -24.4250   -9.4550   22.2930 C   0  0  0  0  0  3  0  0  0  0  0  0
  -23.6880   -8.2570   22.4000 C   0  0  0  0  0  3  0  0  0  0  0  0
  -22.6110   -8.0050   21.5170 C   0  0  0  0  0  0  0  0  0  0  0  0
  -22.3090   -8.9450   20.5160 C   0  0  0  0  0  3  0  0  0  0  0  0
  -23.0480  -10.1350   20.4070 C   0  0  0  0  0  3  0  0  0  0  0  0
  -21.8540   -6.8590   21.5330 O   0  0  0  0  0  0  0  0  0  0  0  0
  -21.7180   -6.1010   22.6680 C   0  0  0  0  0  0  0  0  0  0  0  0
  -21.2110   -6.6430   23.8710 C   0  0  0  0  0  3  0  0  0  0  0  0
  -21.0240   -5.8140   24.9940 C   0  0  0  0  0  3  0  0  0  0  0  0
  -21.3310   -4.4430   24.9170 C   0  0  0  0  0  0  0  0  0  0  0  0
  -21.8310   -3.9000   23.7210 C   0  0  0  0  0  3  0  0  0  0  0  0
  -22.0210   -4.7260   22.5990 C   0  0  0  0  0  0  0  0  0  0  0  0
  -22.4820   -4.1930   21.4420 F   0  0  0  0  0  0  0  0  0  0  0  0
  -21.1400   -3.6430   25.9930 F   0  0  0  0  0  0  0  0  0  0  0  0
  -22.9480  -13.4890   21.1070 C   0  0  0  0  0  0  0  0  0  0  0  0
  -22.1010  -12.8240   21.8850 N   0  0  0  0  0  0  0  0  0  0  0  0
  -22.5900  -14.4800   20.4710 O   0  0  0  0  0  0  0  0  0  0  0  0
  -22.4100  -12.0310   22.4260 H   0  0  0  0  0  0  0  0  0  0  0  0
  -21.1380  -13.1170   21.9460 H   0  0  0  0  0  0  0  0  0  0  0  0
  -25.6570  -15.1530   20.6430 N   0  0  0  0  0  0  0  0  0  0  0  0
  -24.8540  -15.7610   20.5290 H   0  0  0  0  0  0  0  0  0  0  0  0
  -26.5150  -15.5500   20.2870 H   0  0  0  0  0  0  0  0  0  0  0  0
  -31.3520  -22.9590   20.1100 C   0  0  0  0  0  2  0  0  0  0  0  0
  -29.7560  -24.8450   20.3180 C   0  0  0  0  0  0  0  0  0  0  0  0
  -30.1670  -23.7200   19.7250 N   0  0  0  0  0  0  0  0  0  0  0  0
  -30.3670  -25.3630   21.2580 O   0  0  0  0  0  0  0  0  0  0  0  0
  -29.6140  -23.3890   18.9460 H   0  0  0  0  0  0  0  0  0  0  0  0
  -28.4600  -25.4670   19.7860 C   0  0  0  0  0  2  0  0  0  0  0  0
  -28.4500  -26.8590   20.0900 O   0  0  0  0  0  0  0  0  0  0  0  0
  -24.6110  -31.9350   23.1970 C   0  0  0  0  0  0  0  0  0  0  0  0
  -27.2430  -27.5200   20.0880 C   0  0  0  0  0  0  0  0  0  0  0  0
  -23.3910  -30.5210   21.5740 C   0  0  0  0  0  3  0  0  0  0  0  0
  -24.8320  -28.9880   20.1380 C   0  0  0  0  0  0  0  0  0  0  0  0
  -25.9090  -30.8990   21.3420 C   0  0  0  0  0  2  0  0  0  0  0  0
  -25.9910  -29.5280   20.7080 C   0  0  0  0  0  0  0  0  0  0  0  0
  -27.1970  -28.7980   20.6820 C   0  0  0  0  0  3  0  0  0  0  0  0
  -26.0620  -26.9870   19.5160 C   0  0  0  0  0  3  0  0  0  0  0  0
  -24.8590  -27.7160   19.5460 C   0  0  0  0  0  3  0  0  0  0  0  0
  -23.5850  -29.8380   20.1950 C   0  0  0  0  0  2  0  0  0  0  0  0
  -24.6560  -31.1330   22.0960 N   0  0  0  0  0  0  0  0  0  0  0  0
  -23.5360  -32.2030   23.7500 O   0  0  0  0  0  0  0  0  0  0  0  0
  -22.7610  -29.4980   22.5450 C   0  0  0  0  0  0  0  0  0  0  0  0
  -21.4340  -29.3140   22.4370 N   0  0  0  0  0  0  0  0  0  0  0  0
  -23.4570  -28.8750   23.3490 O   0  0  0  0  0  0  0  0  0  0  0  0
  -20.9340  -29.8710   21.7590 H   0  0  0  0  0  0  0  0  0  0  0  0
  -18.0730  -28.1050   22.9710 C   0  0  0  0  0  0  0  0  0  0  0  0
  -20.6300  -28.3760   23.2200 C   0  0  0  0  0  3  0  0  0  0  0  0
  -20.7370  -26.9420   22.6500 C   0  0  0  0  0  2  0  0  0  0  0  0
  -19.6270  -26.6090   21.6480 C   0  0  0  0  0  2  0  0  0  0  0  0
  -18.2500  -26.7510   22.3030 C   0  0  0  0  0  2  0  0  0  0  0  0
  -19.1910  -28.8750   23.3880 C   0  0  0  0  0  0  0  0  0  0  0  0
  -18.9730  -30.1410   23.9730 C   0  0  0  0  0  3  0  0  0  0  0  0
  -17.6680  -30.6390   24.1450 C   0  0  0  0  0  3  0  0  0  0  0  0
  -16.5630  -29.8670   23.7460 C   0  0  0  0  0  3  0  0  0  0  0  0
  -16.7660  -28.6020   23.1650 C   0  0  0  0  0  3  0  0  0  0  0  0
  -25.9030  -32.5750   23.7980 C   0  0  0  0  0  3  0  0  0  0  0  0
  -25.5850  -33.9640   24.1540 N   0  0  0  0  0  0  0  0  0  0  0  0
  -25.8980  -35.0290   23.4060 C   0  0  0  0  0  0  0  0  0  0  0  0
  -26.5580  -34.9480   22.3660 O   0  0  0  0  0  0  0  0  0  0  0  0
  -25.0030  -34.1010   24.9660 H   0  0  0  0  0  0  0  0  0  0  0  0
  -24.1480  -36.8070   23.0940 C   0  0  0  0  0  1  0  0  0  0  0  0
  -25.4010  -36.4050   23.8890 C   0  0  0  0  0  3  0  0  0  0  0  0
  -27.5360  -37.2970   24.7070 C   0  0  0  0  0  1  0  0  0  0  0  0
  -26.4210  -37.4710   23.7800 N   0  0  0  0  0  0  0  0  0  0  0  0
  -26.0080  -38.3850   23.9510 H   0  0  0  0  0  0  0  0  0  0  0  0
  -26.4610  -31.7900   25.0480 C   0  0  1  0  0  0  0  0  0  0  0  0
  -25.3990  -31.5210   26.1390 C   0  0  0  0  0  1  0  0  0  0  0  0
  -27.0510  -30.4260   24.6170 C   0  0  0  0  0  1  0  0  0  0  0  0
  -27.6180  -32.5880   25.6940 C   0  0  0  0  0  1  0  0  0  0  0  0
  1  2  1  0
  1 50  1  0
  2  3  1  0
  4 10  1  0
  4 11  2  0
  5 10  1  0
  6  7  1  0
  6  5  1  0
  8  7  1  0
  8 25  1  0
  8  9  1  0
 10  9  1  0
 12 14  1  0
 13 12  1  0
 13 16  1  0
 14 18  1  0
 16 19  1  0
 17 15  1  0
 18  4  1  0
 18 15  1  0
 19  3  1  0
 19 17  1  0
 20 12  2  0
 19 21  1  6
 22 23  2  0
 23 42  1  0
 23 24  1  0
 24 27  1  0
 25 22  1  0
 25 26  1  0
 26 24  2  0
 27 28  1  0
 28 29  2  0
 30 33  1  0
 30 29  1  0
 31 30  2  0
 32 31  1  0
 32 27  2  0
 33 34  1  0
 34 35  1  0
 35 36  2  0
 37 36  1  0
 37 41  1  0
 38 37  2  0
 39 34  2  0
 39 38  1  0
 40 39  1  0
 42 43  1  0
 43 46  1  0
 43 45  1  0
 44 42  2  0
 47 22  1  0
 48 47  1  0
 49 47  1  0
 51 53  2  0
 52 50  1  0
 52 51  1  0
 54 52  1  0
 55 56  1  0
 55 51  1  0
 57 68  2  0
 58 56  1  0
 58 63  1  0
 59 67  1  0
 59 69  1  0
 60 66  1  0
 60 62  1  0
 61 67  1  0
 62 61  1  0
 63 62  2  0
 64 65  1  0
 64 58  2  0
 65 60  2  0
 66 59  1  0
 67 57  1  0
 69 71  2  0
 70 69  1  0
 72 70  1  0
 73 82  2  0
 73 78  1  0
 74 70  1  0
 74 78  1  0
 75 74  1  0
 76 77  1  0
 76 75  1  0
 77 73  1  0
 78 79  2  0
 79 80  1  0
 81 80  2  0
 82 81  1  0
 83 57  1  0
 83 84  1  0
 83 93  1  0
 84 87  1  0
 85 89  1  0
 85 84  1  0
 86 85  2  0
 89 88  1  0
 91 89  1  0
 91 92  1  0
 91 90  1  0
 93 96  1  1
 93 94  1  0
 95 93  1  0
M  ISO  4   4 100  18 100  55 101  56 101
M  END
>  <TORSDO>  (73) 
F 21

>  <SCORE>  (73) 
-10.460

>  <name>  (73) 
72

>  <ligand_id>  (73) 
72

>  <original_smiles>  (73) 
[H]c1c([H])c([H])c2c(c1[H])C([H])([H])C([H])([H])C([H])([H])C2([H])N([H])C(=O)C1([H])N(C(=O)C([H])(N([H])C(=O)C([H])(N([H])C([H])([H])[H])C([H])([H])[H])C(C([H])([H])[H])(C([H])([H])[H])C([H])([H])[H])C([H])([H])c2c([H])c(OC([H])([H])C(=O)N([H])C([H])([H])C([H])([H])C([H])([H])C([H])([H])[N+]3([H])C([H])([H])C([H])([H])C(=O)C([H])([H])N(C(=O)N4C([H])([H])C([H])([H])C([H])([H])C([H])(n5nc(-c6c([H])c([H])c(Oc7c([H])c([H])c(F)c([H])c7F)c([H])c6[H])c(C(=O)N([H])[H])c5N([H])[H])C4([H])[H])C([H])([H])C3([H])[H])c([H])c([H])c2C1([H])[H]

>  <smiles>  (73) 
[H]c1c([H])c([H])c2c(c1[H])C([H])([H])C([H])([H])C([H])([H])C2([H])N([H])C(=O)C1([H])N(C(=O)C([H])(N([H])C(=O)C([H])(N([H])C([H])([H])[H])C([H])([H])[H])C(C([H])([H])[H])(C([H])([H])[H])C([H])([H])[H])C([H])([H])c2c([H])c(OC([H])([H])C(=O)N([H])C([H])([H])C([H])([H])C([H])([H])C([H])([H])[N+]3([H])C([H])([H])C([H])([H])C(=O)C([H])([H])N(C(=O)N4C([H])([H])C([H])([H])C([H])([H])C([H])(n5nc(-c6c([H])c([H])c(Oc7c([H])c([H])c(F)c([H])c7F)c([H])c6[H])c(C(=O)N([H])[H])c5N([H])[H])C4([H])[H])C([H])([H])C3([H])[H])c([H])c([H])c2C1([H])[H]

$$$$
73:0:0
     RDKit          3D

 90 98  0  0  1  0  0  0  0  0999 V2000
  -28.9790  -22.2150   20.7790 C   0  0  0  0  0  2  0  0  0  0  0  0
  -30.2440  -18.5690   19.2970 C   0  0  0  0  0  2  0  0  0  0  0  0
  -28.5920  -18.2040   21.0070 C   0  0  0  0  0  2  0  0  0  0  0  0
  -30.2480  -20.1500   19.6520 C   0  0  0  0  0  2  0  0  0  0  0  0
  -28.6030  -19.7560   21.3560 C   0  0  0  0  0  2  0  0  0  0  0  0
  -29.9210  -17.5640   20.4740 C   0  0  0  0  0  3  0  0  0  0  0  0
  -28.9850  -20.7280   20.2610 N   0  0  1  0  0  4  0  0  0  0  0  0
  -28.2610  -20.6690   19.5590 H   0  0  0  0  0  0  0  0  0  0  0  0
  -30.6240  -14.9380   19.9810 C   0  0  0  0  0  0  0  0  0  0  0  0
  -30.4640  -12.6510   18.9380 C   0  0  0  0  0  2  0  0  0  0  0  0
  -29.4510  -12.6870   17.7710 C   0  0  0  0  0  2  0  0  0  0  0  0
  -28.0120  -12.4730   18.2800 C   0  0  0  0  0  2  0  0  0  0  0  0
  -27.6850  -13.3400   19.5250 C   0  0  0  0  0  3  0  0  0  0  0  0
  -28.8070  -13.2640   20.5810 C   0  0  0  0  0  2  0  0  0  0  0  0
  -30.0490  -13.6820   19.9180 N   0  0  0  0  0  0  0  0  0  0  0  0
  -31.8050  -15.0800   19.6500 O   0  0  0  0  0  0  0  0  0  0  0  0
  -29.7800  -16.0300   20.2240 N   0  0  0  0  0  0  0  0  0  0  0  0
  -28.8360  -15.7080   20.3700 H   0  0  0  0  0  0  0  0  0  0  0  0
  -25.3420  -13.8870   20.4110 C   0  0  0  0  0  0  0  0  0  0  0  0
  -24.3060  -13.0920   20.8210 C   0  0  0  0  0  0  0  0  0  0  0  0
  -24.7780  -11.7470   20.7280 C   0  0  0  0  0  0  0  0  0  0  0  0
  -26.3760  -13.0240   20.0890 N   0  0  0  0  0  0  0  0  0  0  0  0
  -26.0490  -11.7310   20.3440 N   0  0  0  0  0  0  0  0  0  0  0  0
  -24.0740  -10.4740   20.9240 C   0  0  0  0  0  0  0  0  0  0  0  0
  -24.5190   -9.5220   21.8680 C   0  0  0  0  0  3  0  0  0  0  0  0
  -23.8140   -8.3120   22.0510 C   0  0  0  0  0  3  0  0  0  0  0  0
  -22.6490   -8.0470   21.2910 C   0  0  0  0  0  0  0  0  0  0  0  0
  -22.2240   -8.9880   20.3370 C   0  0  0  0  0  3  0  0  0  0  0  0
  -22.9300  -10.1890   20.1520 C   0  0  0  0  0  3  0  0  0  0  0  0
  -21.9150   -6.8890   21.3840 O   0  0  0  0  0  0  0  0  0  0  0  0
  -21.8070   -6.1970   22.5630 C   0  0  0  0  0  0  0  0  0  0  0  0
  -21.2830   -6.7930   23.7310 C   0  0  0  0  0  3  0  0  0  0  0  0
  -21.1250   -6.0250   24.9030 C   0  0  0  0  0  3  0  0  0  0  0  0
  -21.4830   -4.6630   24.9070 C   0  0  0  0  0  0  0  0  0  0  0  0
  -22.0010   -4.0680   23.7440 C   0  0  0  0  0  3  0  0  0  0  0  0
  -22.1600   -4.8330   22.5740 C   0  0  0  0  0  0  0  0  0  0  0  0
  -22.6400   -4.2490   21.4500 F   0  0  0  0  0  0  0  0  0  0  0  0
  -21.3250   -3.9240   26.0290 F   0  0  0  0  0  0  0  0  0  0  0  0
  -22.9220  -13.5490   21.1810 C   0  0  0  0  0  0  0  0  0  0  0  0
  -22.2490  -12.8250   22.0690 N   0  0  0  0  0  0  0  0  0  0  0  0
  -22.4480  -14.5830   20.7110 O   0  0  0  0  0  0  0  0  0  0  0  0
  -22.6460  -11.9900   22.4720 H   0  0  0  0  0  0  0  0  0  0  0  0
  -21.3220  -13.1120   22.3500 H   0  0  0  0  0  0  0  0  0  0  0  0
  -25.4800  -15.2630   20.2580 N   0  0  0  0  0  0  0  0  0  0  0  0
  -24.7020  -15.8940   20.4160 H   0  0  0  0  0  0  0  0  0  0  0  0
  -26.2730  -15.7170   19.8260 H   0  0  0  0  0  0  0  0  0  0  0  0
  -28.7490  -23.5780   19.8780 C   0  0  0  0  0  3  0  0  0  0  0  0
  -29.9000  -23.8120   19.2450 F   0  0  0  0  0  0  0  0  0  0  0  0
  -28.2770  -24.9860   20.6160 C   0  0  0  0  0  2  0  0  0  0  0  0
  -28.3940  -26.4130   20.0880 O   0  0  0  0  0  0  0  0  0  0  0  0
  -24.6340  -31.8930   23.1690 C   0  0  0  0  0  0  0  0  0  0  0  0
  -27.2840  -27.3010   20.1110 C   0  0  0  0  0  0  0  0  0  0  0  0
  -23.4470  -30.4890   21.5240 C   0  0  0  0  0  3  0  0  0  0  0  0
  -24.9150  -28.9440   20.0960 C   0  0  0  0  0  0  0  0  0  0  0  0
  -25.9900  -30.8140   21.3480 C   0  0  0  0  0  2  0  0  0  0  0  0
  -26.0840  -29.4310   20.6950 C   0  0  0  0  0  0  0  0  0  0  0  0
  -27.2750  -28.6260   20.6820 C   0  0  0  0  0  3  0  0  0  0  0  0
  -26.0900  -26.8840   19.4920 C   0  0  0  0  0  3  0  0  0  0  0  0
  -24.9240  -27.6810   19.4820 C   0  0  0  0  0  3  0  0  0  0  0  0
  -23.6720  -29.8170   20.1440 C   0  0  0  0  0  2  0  0  0  0  0  0
  -24.7090  -31.0850   22.0700 N   0  0  0  0  0  0  0  0  0  0  0  0
  -23.5470  -32.1580   23.7030 O   0  0  0  0  0  0  0  0  0  0  0  0
  -22.7890  -29.4670   22.4820 C   0  0  0  0  0  0  0  0  0  0  0  0
  -21.4610  -29.2890   22.3650 N   0  0  0  0  0  0  0  0  0  0  0  0
  -23.4730  -28.8350   23.2900 O   0  0  0  0  0  0  0  0  0  0  0  0
  -20.9660  -29.8520   21.6870 H   0  0  0  0  0  0  0  0  0  0  0  0
  -18.0870  -28.0900   22.8980 C   0  0  0  0  0  0  0  0  0  0  0  0
  -20.6500  -28.3420   23.1330 C   0  0  0  0  0  3  0  0  0  0  0  0
  -20.7410  -26.9190   22.5350 C   0  0  0  0  0  2  0  0  0  0  0  0
  -19.6240  -26.6140   21.5330 C   0  0  0  0  0  2  0  0  0  0  0  0
  -18.2520  -26.7500   22.1990 C   0  0  0  0  0  2  0  0  0  0  0  0
  -19.2140  -28.8430   23.3230 C   0  0  0  0  0  0  0  0  0  0  0  0
  -19.0050  -30.0960   23.9390 C   0  0  0  0  0  3  0  0  0  0  0  0
  -17.7030  -30.5960   24.1330 C   0  0  0  0  0  3  0  0  0  0  0  0
  -16.5920  -29.8380   23.7230 C   0  0  0  0  0  3  0  0  0  0  0  0
  -16.7850  -28.5870   23.1110 C   0  0  0  0  0  3  0  0  0  0  0  0
  -25.9070  -32.5380   23.7970 C   0  0  0  0  0  3  0  0  0  0  0  0
  -26.4280  -31.7680   25.0740 C   0  0  1  0  0  0  0  0  0  0  0  0
  -25.3330  -31.5160   26.1380 C   0  0  0  0  0  1  0  0  0  0  0  0
  -27.0280  -30.3990   24.6830 C   0  0  0  0  0  1  0  0  0  0  0  0
  -27.5680  -32.5730   25.7430 C   0  0  0  0  0  1  0  0  0  0  0  0
  -25.5810  -33.9320   24.1360 N   0  0  0  0  0  0  0  0  0  0  0  0
  -25.9070  -34.9960   23.3900 C   0  0  0  0  0  0  0  0  0  0  0  0
  -26.5820  -34.9070   22.3620 O   0  0  0  0  0  0  0  0  0  0  0  0
  -24.9780  -34.0730   24.9340 H   0  0  0  0  0  0  0  0  0  0  0  0
  -24.1690  -36.7810   23.0390 C   0  0  0  0  0  1  0  0  0  0  0  0
  -25.4050  -36.3760   23.8570 C   0  0  0  0  0  3  0  0  0  0  0  0
  -27.5240  -37.2700   24.7190 C   0  0  0  0  0  1  0  0  0  0  0  0
  -26.4310  -37.4380   23.7650 N   0  0  0  0  0  0  0  0  0  0  0  0
  -26.0170  -38.3540   23.9140 H   0  0  0  0  0  0  0  0  0  0  0  0
  2  4  1  0
  2  6  1  0
  3  5  1  0
  4  7  1  0
  6 17  1  0
  6  3  1  0
  7  1  1  0
  7  5  1  0
  7  8  1  6
  9 17  1  0
 10 15  1  0
 11 12  1  0
 11 10  1  0
 13 12  1  0
 13 22  1  0
 13 14  1  0
 15  9  1  0
 15 14  1  0
 16  9  2  0
 17 18  1  0
 19 20  2  0
 20 39  1  0
 21 20  1  0
 21 24  1  0
 22 23  1  0
 22 19  1  0
 23 21  2  0
 24 25  1  0
 25 26  2  0
 27 30  1  0
 27 26  1  0
 28 27  2  0
 29 28  1  0
 29 24  2  0
 30 31  1  0
 31 36  2  0
 31 32  1  0
 32 33  2  0
 33 34  1  0
 34 38  1  0
 35 34  2  0
 36 35  1  0
 37 36  1  0
 39 40  1  0
 40 43  1  0
 40 42  1  0
 41 39  2  0
 44 19  1  0
 44 45  1  0
 46 44  1  0
 47 48  1  0
 47 49  1  0
 47  1  1  0
 50 52  1  0
 50 49  1  0
 51 62  2  0
 52 57  1  0
 53 61  1  0
 53 63  1  0
 54 60  1  0
 54 56  1  0
 55 61  1  0
 56 55  1  0
 57 56  2  0
 58 52  2  0
 59 58  1  0
 59 54  2  0
 60 53  1  0
 61 51  1  0
 63 65  2  0
 64 63  1  0
 66 64  1  0
 67 76  2  0
 67 72  1  0
 68 64  1  0
 68 72  1  0
 69 68  1  0
 70 71  1  0
 70 69  1  0
 71 67  1  0
 72 73  2  0
 73 74  1  0
 75 74  2  0
 76 75  1  0
 77 51  1  0
 77 82  1  0
 77 78  1  0
 78 81  1  1
 78 79  1  0
 80 78  1  0
 82 85  1  0
 83 87  1  0
 83 82  1  0
 84 83  2  0
 87 86  1  0
 89 87  1  0
 89 90  1  0
 89 88  1  0
M  ISO  4   9 100  17 100  49 101  50 101
M  END
>  <TORSDO>  (74) 
F 19

>  <SCORE>  (74) 
-12.941

>  <name>  (74) 
73

>  <ligand_id>  (74) 
73

>  <original_smiles>  (74) 
[H]c1c([H])c([H])c2c(c1[H])C([H])([H])C([H])([H])C([H])([H])C2([H])N([H])C(=O)C1([H])N(C(=O)C([H])(N([H])C(=O)C([H])(N([H])C([H])([H])[H])C([H])([H])[H])C(C([H])([H])[H])(C([H])([H])[H])C([H])([H])[H])C([H])([H])c2c([H])c(OC([H])([H])C([H])(F)C([H])([H])[N+]3([H])C([H])([H])C([H])([H])C([H])(N([H])C(=O)N4C([H])([H])C([H])([H])C([H])([H])C([H])(n5nc(-c6c([H])c([H])c(Oc7c([H])c([H])c(F)c([H])c7F)c([H])c6[H])c(C(=O)N([H])[H])c5N([H])[H])C4([H])[H])C([H])([H])C3([H])[H])c([H])c([H])c2C1([H])[H]

>  <smiles>  (74) 
[H]c1c([H])c([H])c2c(c1[H])C([H])([H])C([H])([H])C([H])([H])C2([H])N([H])C(=O)C1([H])N(C(=O)C([H])(N([H])C(=O)C([H])(N([H])C([H])([H])[H])C([H])([H])[H])C(C([H])([H])[H])(C([H])([H])[H])C([H])([H])[H])C([H])([H])c2c([H])c(OC([H])([H])C([H])(F)C([H])([H])[N+]3([H])C([H])([H])C([H])([H])C([H])(N([H])C(=O)N4C([H])([H])C([H])([H])C([H])([H])C([H])(n5nc(-c6c([H])c([H])c(Oc7c([H])c([H])c(F)c([H])c7F)c([H])c6[H])c(C(=O)N([H])[H])c5N([H])[H])C4([H])[H])C([H])([H])C3([H])[H])c([H])c([H])c2C1([H])[H]

$$$$
74:0:0
     RDKit          3D

102111  0  0  1  0  0  0  0  0999 V2000
  -29.4310  -17.2310   18.4380 C   0  0  0  0  0  3  0  0  0  0  0  0
  -28.7720  -19.2110   17.1980 C   0  0  0  0  0  3  0  0  0  0  0  0
  -29.9140  -18.0000   19.5320 C   0  0  0  0  0  0  0  0  0  0  0  0
  -29.7930  -19.4380   19.4270 C   0  0  0  0  0  0  0  0  0  0  0  0
  -28.8760  -17.8200   17.2900 C   0  0  0  0  0  0  0  0  0  0  0  0
  -29.2260  -20.0100   18.2550 C   0  0  0  0  0  0  0  0  0  0  0  0
  -28.4520  -17.0410   16.2670 F   0  0  0  0  0  0  0  0  0  0  0  0
  -29.1140  -21.3600   18.1390 F   0  0  0  0  0  0  0  0  0  0  0  0
  -29.1060  -20.9030   21.2590 C   0  0  0  0  0  2  0  0  0  0  0  0
  -31.3030  -21.2480   20.1010 C   0  0  0  0  0  2  0  0  0  0  0  0
  -28.6730  -22.3650   20.9130 C   0  0  0  0  0  2  0  0  0  0  0  0
  -31.1090  -22.6900   20.6350 C   0  0  0  0  0  2  0  0  0  0  0  0
  -30.1940  -20.3410   20.4380 N   0  0  0  0  0  0  0  0  0  0  0  0
  -29.7530  -23.2200   20.3330 N   0  0  2  0  0  4  0  0  0  0  0  0
  -29.6610  -23.0950   19.3320 H   0  0  0  0  0  0  0  0  0  0  0  0
  -29.6480  -24.6920   20.6350 C   0  0  0  0  0  2  0  0  0  0  0  0
  -28.3850  -25.4200   20.1040 C   0  0  0  0  0  2  0  0  0  0  0  0
  -28.4600  -26.8380   20.3720 O   0  0  0  0  0  0  0  0  0  0  0  0
  -24.6300  -32.0350   23.4000 C   0  0  0  0  0  0  0  0  0  0  0  0
  -27.2880  -27.5760   20.3280 C   0  0  0  0  0  0  0  0  0  0  0  0
  -23.4360  -30.6340   21.7500 C   0  0  0  0  0  3  0  0  0  0  0  0
  -24.8980  -29.1010   20.3300 C   0  0  0  0  0  0  0  0  0  0  0  0
  -25.9650  -30.9850   21.5760 C   0  0  0  0  0  2  0  0  0  0  0  0
  -26.0520  -29.6160   20.9290 C   0  0  0  0  0  0  0  0  0  0  0  0
  -27.2490  -28.8600   20.9270 C   0  0  0  0  0  3  0  0  0  0  0  0
  -26.1150  -27.0910   19.7030 C   0  0  0  0  0  3  0  0  0  0  0  0
  -24.9250  -27.8400   19.7140 C   0  0  0  0  0  3  0  0  0  0  0  0
  -23.6520  -29.9560   20.3710 C   0  0  0  0  0  2  0  0  0  0  0  0
  -24.6940  -31.2350   22.2990 N   0  0  0  0  0  0  0  0  0  0  0  0
  -23.5440  -32.3110   23.9290 O   0  0  0  0  0  0  0  0  0  0  0  0
  -22.7780  -29.6140   22.7050 C   0  0  0  0  0  0  0  0  0  0  0  0
  -21.4620  -29.4040   22.5410 N   0  0  0  0  0  0  0  0  0  0  0  0
  -23.4500  -29.0140   23.5490 O   0  0  0  0  0  0  0  0  0  0  0  0
  -20.9830  -29.9390   21.8290 H   0  0  0  0  0  0  0  0  0  0  0  0
  -18.1060  -28.1200   22.9200 C   0  0  0  0  0  0  0  0  0  0  0  0
  -20.6390  -28.4590   23.2960 C   0  0  0  0  0  3  0  0  0  0  0  0
  -20.8110  -27.0210   22.7570 C   0  0  0  0  0  2  0  0  0  0  0  0
  -19.7630  -26.6430   21.7040 C   0  0  0  0  0  2  0  0  0  0  0  0
  -18.3510  -26.7620   22.2840 C   0  0  0  0  0  2  0  0  0  0  0  0
  -19.1820  -28.9250   23.3790 C   0  0  0  0  0  0  0  0  0  0  0  0
  -18.9020  -30.1970   23.9240 C   0  0  0  0  0  3  0  0  0  0  0  0
  -17.5770  -30.6620   24.0230 C   0  0  0  0  0  3  0  0  0  0  0  0
  -16.5140  -29.8540   23.5820 C   0  0  0  0  0  3  0  0  0  0  0  0
  -16.7800  -28.5860   23.0350 C   0  0  0  0  0  3  0  0  0  0  0  0
  -25.9130  -32.6640   24.0300 C   0  0  0  0  0  3  0  0  0  0  0  0
  -25.6080  -34.0650   24.3460 N   0  0  0  0  0  0  0  0  0  0  0  0
  -25.9370  -35.1090   23.5730 C   0  0  0  0  0  0  0  0  0  0  0  0
  -26.6030  -34.9930   22.5410 O   0  0  0  0  0  0  0  0  0  0  0  0
  -25.0180  -34.2280   25.1490 H   0  0  0  0  0  0  0  0  0  0  0  0
  -24.1950  -36.8860   23.2170 C   0  0  0  0  0  1  0  0  0  0  0  0
  -25.4510  -36.5020   24.0160 C   0  0  0  0  0  3  0  0  0  0  0  0
  -27.5950  -37.4060   24.7990 C   0  0  0  0  0  1  0  0  0  0  0  0
  -26.4770  -37.5570   23.8710 N   0  0  0  0  0  0  0  0  0  0  0  0
  -26.0680  -38.4770   24.0140 H   0  0  0  0  0  0  0  0  0  0  0  0
  -26.4130  -31.8980   25.3160 C   0  0  1  0  0  0  0  0  0  0  0  0
  -25.3060  -31.6670   26.3720 C   0  0  0  0  0  1  0  0  0  0  0  0
  -27.0000  -30.5180   24.9380 C   0  0  0  0  0  1  0  0  0  0  0  0
  -27.5550  -32.6940   25.9880 C   0  0  0  0  0  1  0  0  0  0  0  0
  -30.5840  -17.2240   20.7160 C   0  0  0  0  0  3  0  0  0  0  0  0
  -31.0460  -14.7050   20.4660 C   0  0  0  0  0  0  0  0  0  0  0  0
  -30.7820  -12.4770   19.4400 C   0  0  0  0  0  2  0  0  0  0  0  0
  -29.8730  -12.6170   18.2010 C   0  0  0  0  0  2  0  0  0  0  0  0
  -28.3850  -12.5140   18.5950 C   0  0  0  0  0  2  0  0  0  0  0  0
  -28.0200  -13.4210   19.7980 C   0  0  0  0  0  3  0  0  0  0  0  0
  -29.0390  -13.2570   20.9470 C   0  0  0  0  0  2  0  0  0  0  0  0
  -30.3830  -13.5190   20.3970 N   0  0  0  0  0  0  0  0  0  0  0  0
  -32.2110  -14.8510   20.0950 O   0  0  0  0  0  0  0  0  0  0  0  0
  -30.2650  -15.7660   20.7760 N   0  0  0  0  0  0  0  0  0  0  0  0
  -29.3010  -15.5290   20.9500 H   0  0  0  0  0  0  0  0  0  0  0  0
  -25.6240  -14.1000   20.4460 C   0  0  0  0  0  0  0  0  0  0  0  0
  -24.5290  -13.3580   20.8000 C   0  0  0  0  0  0  0  0  0  0  0  0
  -24.9530  -11.9950   20.7930 C   0  0  0  0  0  0  0  0  0  0  0  0
  -26.6500  -13.1880   20.2500 N   0  0  0  0  0  0  0  0  0  0  0  0
  -26.2490  -11.9190   20.5160 N   0  0  0  0  0  0  0  0  0  0  0  0
  -24.1900  -10.7540   20.9790 C   0  0  0  0  0  0  0  0  0  0  0  0
  -24.5700   -9.7920   21.9390 C   0  0  0  0  0  3  0  0  0  0  0  0
  -23.8130   -8.6130   22.1090 C   0  0  0  0  0  3  0  0  0  0  0  0
  -22.6600   -8.3900   21.3200 C   0  0  0  0  0  0  0  0  0  0  0  0
  -22.2980   -9.3400   20.3490 C   0  0  0  0  0  3  0  0  0  0  0  0
  -23.0560  -10.5100   20.1790 C   0  0  0  0  0  3  0  0  0  0  0  0
  -21.8790   -7.2630   21.4000 O   0  0  0  0  0  0  0  0  0  0  0  0
  -21.7580   -6.5510   22.5680 C   0  0  0  0  0  0  0  0  0  0  0  0
  -21.2930   -7.1440   23.7610 C   0  0  0  0  0  3  0  0  0  0  0  0
  -21.1140   -6.3590   24.9170 C   0  0  0  0  0  3  0  0  0  0  0  0
  -21.3950   -4.9800   24.8820 C   0  0  0  0  0  0  0  0  0  0  0  0
  -21.8540   -4.3850   23.6940 C   0  0  0  0  0  3  0  0  0  0  0  0
  -22.0310   -5.1690   22.5400 C   0  0  0  0  0  0  0  0  0  0  0  0
  -22.4530   -4.5840   21.3920 F   0  0  0  0  0  0  0  0  0  0  0  0
  -21.2150   -4.2250   25.9900 F   0  0  0  0  0  0  0  0  0  0  0  0
  -23.1380  -13.8770   21.0350 C   0  0  0  0  0  0  0  0  0  0  0  0
  -22.3760  -13.2120   21.8950 N   0  0  0  0  0  0  0  0  0  0  0  0
  -22.7360  -14.9010   20.4870 O   0  0  0  0  0  0  0  0  0  0  0  0
  -22.7180  -12.3870   22.3610 H   0  0  0  0  0  0  0  0  0  0  0  0
  -21.4380  -13.5360   22.0910 H   0  0  0  0  0  0  0  0  0  0  0  0
  -25.8310  -15.4610   20.2540 N   0  0  0  0  0  0  0  0  0  0  0  0
  -25.0640  -16.1250   20.2940 H   0  0  0  0  0  0  0  0  0  0  0  0
  -26.6780  -15.8630   19.8750 H   0  0  0  0  0  0  0  0  0  0  0  0
  -30.3250  -17.8400   22.1180 C   0  0  0  0  0  2  0  0  0  0  0  0
  -30.9340  -17.0700   23.2190 N   0  0  0  0  0  4  0  0  0  0  0  0
  -30.6300  -16.1160   23.1950 H   0  0  0  0  0  0  0  0  0  0  0  0
  -30.6670  -17.4620   24.1040 H   0  0  0  0  0  0  0  0  0  0  0  0
  -31.9360  -17.0910   23.1510 H   0  0  0  0  0  0  0  0  0  0  0  0
  1  3  1  0
  2  5  1  0
  2  6  2  0
  3 59  1  0
  4  3  2  0
  4 13  1  0
  5  1  2  0
  6  4  1  0
  7  5  1  0
  8  6  1  0
 10 13  1  0
 10 12  1  0
 11  9  1  0
 13  9  1  0
 14 16  1  0
 14 12  1  0
 14 11  1  0
 14 15  1  6
 17 18  1  0
 17 16  1  0
 19 30  2  0
 20 18  1  0
 20 25  1  0
 21 29  1  0
 21 31  1  0
 22 28  1  0
 22 24  1  0
 23 29  1  0
 24 23  1  0
 25 24  2  0
 26 27  1  0
 26 20  2  0
 27 22  2  0
 28 21  1  0
 29 19  1  0
 31 33  2  0
 32 31  1  0
 34 32  1  0
 35 44  2  0
 35 40  1  0
 36 32  1  0
 36 40  1  0
 37 36  1  0
 38 39  1  0
 38 37  1  0
 39 35  1  0
 40 41  2  0
 41 42  1  0
 43 42  2  0
 44 43  1  0
 45 19  1  0
 45 46  1  0
 45 55  1  0
 46 49  1  0
 47 51  1  0
 47 46  1  0
 48 47  2  0
 51 50  1  0
 53 54  1  0
 53 51  1  0
 53 52  1  0
 55 58  1  1
 55 56  1  0
 57 55  1  0
 59 68  1  0
 59 98  1  0
 60 68  1  0
 61 66  1  0
 62 63  1  0
 62 61  1  0
 64 63  1  0
 64 73  1  0
 64 65  1  0
 66 60  1  0
 66 65  1  0
 67 60  2  0
 68 69  1  0
 70 71  2  0
 71 90  1  0
 72 71  1  0
 72 75  1  0
 73 70  1  0
 73 74  1  0
 74 72  2  0
 75 76  1  0
 76 77  2  0
 78 81  1  0
 78 77  1  0
 79 78  2  0
 80 79  1  0
 80 75  2  0
 81 82  1  0
 82 83  1  0
 83 84  2  0
 85 84  1  0
 85 89  1  0
 86 85  2  0
 87 82  2  0
 87 86  1  0
 88 87  1  0
 90 91  1  0
 91 94  1  0
 91 93  1  0
 92 90  2  0
 95 96  1  0
 95 70  1  0
 97 95  1  0
 98 99  1  0
 99101  1  0
100 99  1  0
102 99  1  0
M  ISO  4  17 101  18 101  60 100  68 100
M  END
>  <TORSDO>  (75) 
F 22

>  <SCORE>  (75) 
-11.115

>  <name>  (75) 
74

>  <ligand_id>  (75) 
74

>  <original_smiles>  (75) 
[H]c1c([H])c([H])c2c(c1[H])C([H])([H])C([H])([H])C([H])([H])C2([H])N([H])C(=O)C1([H])N(C(=O)C([H])(N([H])C(=O)C([H])(N([H])C([H])([H])[H])C([H])([H])[H])C(C([H])([H])[H])(C([H])([H])[H])C([H])([H])[H])C([H])([H])c2c([H])c(OC([H])([H])C([H])([H])[N+]3([H])C([H])([H])C([H])([H])N(c4c(F)c([H])c(F)c([H])c4C([H])(N([H])C(=O)N4C([H])([H])C([H])([H])C([H])([H])C([H])(n5nc(-c6c([H])c([H])c(Oc7c([H])c([H])c(F)c([H])c7F)c([H])c6[H])c(C(=O)N([H])[H])c5N([H])[H])C4([H])[H])C([H])([H])[N+]([H])([H])[H])C([H])([H])C3([H])[H])c([H])c([H])c2C1([H])[H]

>  <smiles>  (75) 
[H]c1c([H])c([H])c2c(c1[H])C([H])([H])C([H])([H])C([H])([H])C2([H])N([H])C(=O)C1([H])N(C(=O)C([H])(N([H])C(=O)C([H])(N([H])C([H])([H])[H])C([H])([H])[H])C(C([H])([H])[H])(C([H])([H])[H])C([H])([H])[H])C([H])([H])c2c([H])c(OC([H])([H])C([H])([H])[N+]3([H])C([H])([H])C([H])([H])N(c4c(F)c([H])c(F)c([H])c4C([H])(N([H])C(=O)N4C([H])([H])C([H])([H])C([H])([H])C([H])(n5nc(-c6c([H])c([H])c(Oc7c([H])c([H])c(F)c([H])c7F)c([H])c6[H])c(C(=O)N([H])[H])c5N([H])[H])C4([H])[H])C([H])([H])[N+]([H])([H])[H])C([H])([H])C3([H])[H])c([H])c([H])c2C1([H])[H]

$$$$
75:0:0
     RDKit          3D

 99 99  0  0  1  0  0  0  0  0999 V2000
  -21.6220  -29.4500   24.0690 C   0  0  0  0  0  3  0  0  0  0  0  0
  -19.6400  -29.8660   22.0550 C   0  0  0  0  0  1  0  0  0  0  0  0
  -23.2280  -28.6990   21.0530 C   0  0  0  0  0  1  0  0  0  0  0  0
  -22.9960  -29.1750   23.1540 C   0  0  0  0  0  2  0  0  0  0  0  0
  -20.0900  -29.7440   23.6220 C   0  0  0  0  0  0  0  0  0  0  0  0
  -21.6770  -29.4940   20.2570 C   0  0  0  0  0  2  0  0  0  0  0  0
  -19.1600  -29.9570   24.5840 F   0  0  0  0  0  0  0  0  0  0  0  0
  -21.6340  -29.6350   18.8970 F   0  0  0  0  0  0  0  0  0  0  0  0
  -23.8160  -28.8200   24.5190 N   0  0  0  0  0  0  0  0  0  0  0  0
  -23.3990  -29.2910   25.3110 H   0  0  0  0  0  0  0  0  0  0  0  0
  -24.9820  -27.7110   25.0820 C   0  0  0  0  0  2  0  0  0  0  0  0
  -26.7880  -27.3420   24.7340 C   0  0  0  0  0  2  0  0  0  0  0  0
  -27.8460  -26.1430   24.1880 O   0  0  0  0  0  0  0  0  0  0  0  0
  -26.1280  -31.0540   23.3600 C   0  0  0  0  0  0  0  0  0  0  0  0
  -28.5840  -26.2540   23.0000 C   0  0  0  0  0  3  0  0  0  0  0  0
  -25.6240  -28.9130   21.7750 C   0  0  0  0  0  3  0  0  0  0  0  0
  -27.5640  -27.7440   20.9960 C   0  0  0  0  0  3  0  0  0  0  0  0
  -27.9650  -29.7380   22.4620 C   0  0  0  0  0  2  0  0  0  0  0  0
  -28.2920  -28.3330   22.0420 C   0  0  0  0  0  3  0  0  0  0  0  0
  -29.0680  -27.5420   22.8890 C   0  0  0  0  0  2  0  0  0  0  0  0
  -28.1720  -25.5640   21.8210 C   0  0  0  0  0  3  0  0  0  0  0  0
  -27.6450  -26.3510   20.7670 C   0  0  0  0  0  3  0  0  0  0  0  0
  -26.4090  -28.5540   20.5030 C   0  0  0  0  0  2  0  0  0  0  0  0
  -26.5090  -29.9210   22.6250 N   0  0  0  0  0  0  0  0  0  0  0  0
  -25.0280  -31.6010   23.1930 O   0  0  0  0  0  0  0  0  0  0  0  0
  -25.0820  -27.3460   22.4370 C   0  0  0  0  0  0  0  0  0  0  0  0
  -23.7620  -26.4910   22.4930 N   0  0  0  0  0  0  0  0  0  0  0  0
  -25.6670  -26.8050   23.2040 O   0  0  0  0  0  0  0  0  0  0  0  0
  -23.7990  -25.9140   23.3210 H   0  0  0  0  0  0  0  0  0  0  0  0
  -21.0900  -25.2760   18.9300 C   0  0  0  0  0  3  0  0  0  0  0  0
  -22.2390  -26.2180   21.6120 C   0  0  0  0  0  3  0  0  0  0  0  0
  -22.0430  -24.7030   21.5440 C   0  0  0  0  0  2  0  0  0  0  0  0
  -22.3320  -23.7510   20.3170 C   0  0  0  0  0  2  0  0  0  0  0  0
  -21.2040  -23.8640   19.3220 C   0  0  0  0  0  2  0  0  0  0  0  0
  -21.9020  -26.5410   19.9640 C   0  0  0  0  0  2  0  0  0  0  0  0
  -23.3100  -27.8910   18.4180 C   0  0  0  0  0  1  0  0  0  0  0  0
  -23.0960  -27.4710   16.7790 C   0  0  0  0  0  2  0  0  0  0  0  0
  -22.1200  -26.2360   16.2910 C   0  0  0  0  0  3  0  0  0  0  0  0
  -21.2320  -25.2390   17.2440 C   0  0  0  0  0  3  0  0  0  0  0  0
  -27.0480  -31.7560   24.4660 C   0  0  0  0  0  3  0  0  0  0  0  0
  -26.6880  -31.4730   25.9940 C   0  0  1  0  0  0  0  0  0  0  0  0
  -25.1790  -31.6250   26.3040 C   0  0  0  0  0  1  0  0  0  0  0  0
  -27.2220  -30.1260   26.4920 C   0  0  0  0  0  1  0  0  0  0  0  0
  -27.4300  -32.4460   26.9440 C   0  0  0  0  0  1  0  0  0  0  0  0
  -27.0310  -33.2180   24.2690 N   0  0  0  0  0  0  0  0  0  0  0  0
  -28.0570  -33.9670   23.8360 C   0  0  0  0  0  0  0  0  0  0  0  0
  -29.1400  -33.4830   23.4970 O   0  0  0  0  0  0  0  0  0  0  0  0
  -26.1500  -33.6730   24.4530 H   0  0  0  0  0  0  0  0  0  0  0  0
  -27.3520  -35.8550   22.3330 C   0  0  0  0  0  1  0  0  0  0  0  0
  -27.8420  -35.4920   23.7430 C   0  0  0  0  0  3  0  0  0  0  0  0
  -29.4440  -36.2040   25.4670 C   0  0  0  0  0  1  0  0  0  0  0  0
  -29.0500  -36.2890   24.0630 N   0  0  0  0  0  0  0  0  0  0  0  0
  -28.9080  -37.2680   23.8310 H   0  0  0  0  0  0  0  0  0  0  0  0
  -24.6500  -26.4140   20.3560 C   0  0  0  0  0  1  0  0  0  0  0  0
  -24.3540  -26.3470   18.9150 N   0  0  0  0  0  4  0  0  0  0  0  0
  -23.4930  -25.8550   18.7620 H   0  0  0  0  0  0  0  0  0  0  0  0
  -25.0880  -25.8500   18.4410 H   0  0  0  0  0  0  0  0  0  0  0  0
  -24.2950  -27.2660   18.5150 H   0  0  0  0  0  0  0  0  0  0  0  0
  -25.8380  -23.8080   20.5500 C   0  0  0  0  0  1  0  0  0  0  0  0
  -24.9300  -23.3010   21.3860 F   0  0  0  0  0  0  0  0  0  0  0  0
  -27.5390  -21.4990   20.4510 C   0  0  0  0  0 15  0  0  0  0  0  0
  -29.6170  -17.4520   20.3870 C   0  0  0  0  0  2  0  0  0  0  0  0
  -30.7980  -14.5980   19.6330 C   0  0  0  0  0  2  0  0  0  0  0  0
  -30.4110  -13.3610   18.6310 C   0  0  0  0  0  2  0  0  0  0  0  0
  -29.1490  -12.6180   19.0550 C   0  0  0  0  0  2  0  0  0  0  0  0
  -28.3600  -13.6780   19.8110 C   0  0  0  0  0  3  0  0  0  0  0  0
  -29.0730  -14.5190   20.9190 C   0  0  0  0  0  2  0  0  0  0  0  0
  -29.6920  -15.7460   20.2280 N   0  0  0  0  0  0  0  0  0  0  0  0
  -30.9330  -17.2720   20.3860 O   0  0  0  0  0  1  0  0  0  0  0  0
  -28.4210  -19.1380   20.4230 N   0  0  0  0  0  1  0  0  0  0  0  0
  -27.5370  -18.6460   20.3750 H   0  0  0  0  0  0  0  0  0  0  0  0
  -26.0770  -14.3010   20.3740 C   0  0  0  0  0  0  0  0  0  0  0  0
  -24.9720  -13.6050   20.7170 C   0  0  0  0  0  0  0  0  0  0  0  0
  -25.3610  -12.2270   20.7550 C   0  0  0  0  0  0  0  0  0  0  0  0
  -27.0550  -13.3500   20.2310 N   0  0  0  0  0  0  0  0  0  0  0  0
  -26.6610  -12.0910   20.5140 N   0  0  0  0  0  0  0  0  0  0  0  0
  -24.5400  -11.0340   20.9320 C   0  0  0  0  0  0  0  0  0  0  0  0
  -24.8410  -10.0630   21.9110 C   0  0  0  0  0  3  0  0  0  0  0  0
  -24.0040   -8.9400   22.0770 C   0  0  0  0  0  3  0  0  0  0  0  0
  -22.8570   -8.7850   21.2650 C   0  0  0  0  0  0  0  0  0  0  0  0
  -22.5790   -9.7410   20.2730 C   0  0  0  0  0  3  0  0  0  0  0  0
  -23.4150  -10.8550   20.1030 C   0  0  0  0  0  3  0  0  0  0  0  0
  -21.9980   -7.7170   21.3400 O   0  0  0  0  0  0  0  0  0  0  0  0
  -21.7860   -7.0520   22.5200 C   0  0  0  0  0  0  0  0  0  0  0  0
  -21.3520   -7.7200   23.6850 C   0  0  0  0  0  3  0  0  0  0  0  0
  -21.0790   -6.9850   24.8550 C   0  0  0  0  0  3  0  0  0  0  0  0
  -21.2290   -5.5850   24.8590 C   0  0  0  0  0  0  0  0  0  0  0  0
  -21.6560   -4.9190   23.6980 C   0  0  0  0  0  3  0  0  0  0  0  0
  -21.9310   -5.6510   22.5300 C   0  0  0  0  0  0  0  0  0  0  0  0
  -22.3240   -5.0030   21.4070 F   0  0  0  0  0  0  0  0  0  0  0  0
  -20.9580   -4.8780   25.9810 F   0  0  0  0  0  0  0  0  0  0  0  0
  -23.6150  -14.1990   20.8740 C   0  0  0  0  0  0  0  0  0  0  0  0
  -22.7980  -13.6190   21.7420 N   0  0  0  0  0  0  0  0  0  0  0  0
  -23.3000  -15.2230   20.2690 O   0  0  0  0  0  0  0  0  0  0  0  0
  -23.0780  -12.7960   22.2520 H   0  0  0  0  0  0  0  0  0  0  0  0
  -21.8790  -14.0050   21.9010 H   0  0  0  0  0  0  0  0  0  0  0  0
  -26.3280  -15.6540   20.1350 N   0  0  0  0  0  0  0  0  0  0  0  0
  -25.5570  -16.3080   20.0620 H   0  0  0  0  0  0  0  0  0  0  0  0
  -27.1470  -15.9400   19.6160 H   0  0  0  0  0  0  0  0  0  0  0  0
  2  5  1  0
  4  1  1  0
  4  9  1  0
  5  1  2  0
  5  7  1  0
  6  3  1  0
  8  6  1  0
  9 11  1  0
  9 10  1  0
 12 11  1  0
 13 12  1  0
 15 13  1  0
 16 26  1  0
 16 24  1  0
 17 23  1  0
 17 19  1  0
 18 24  1  0
 19 18  1  0
 19 20  1  0
 20 15  1  0
 21 15  1  0
 22 17  1  0
 22 21  2  0
 23 16  1  0
 24 14  1  0
 25 14  2  0
 26 27  1  0
 26 28  2  0
 27 29  1  0
 30 39  1  0
 30 34  1  0
 30 35  1  0
 31 27  1  0
 32 31  1  0
 33 32  1  0
 34 33  1  0
 35 31  1  0
 37 36  1  0
 38 37  1  0
 38 39  2  0
 40 14  1  0
 40 41  1  0
 41 42  1  6
 41 43  1  0
 41 44  1  0
 45 48  1  0
 45 40  1  0
 46 45  1  0
 47 46  2  0
 50 49  1  0
 50 46  1  0
 50 52  1  0
 52 51  1  0
 53 52  1  0
 55 54  1  0
 56 55  1  0
 57 55  1  0
 58 55  1  0
 59 60  1  0
 63 68  1  0
 64 65  1  0
 64 63  1  0
 66 65  1  0
 66 75  1  0
 66 67  1  0
 68 62  1  0
 68 67  1  0
 69 62  1  0
 71 70  1  0
 72 73  2  0
 73 74  1  0
 73 92  1  0
 74 77  1  0
 75 72  1  0
 75 76  1  0
 76 74  2  0
 77 78  1  0
 78 79  2  0
 80 83  1  0
 80 79  1  0
 81 80  2  0
 82 81  1  0
 82 77  2  0
 83 84  1  0
 84 89  2  0
 84 85  1  0
 85 86  2  0
 86 87  1  0
 87 91  1  0
 88 87  2  0
 89 88  1  0
 90 89  1  0
 92 93  1  0
 93 96  1  0
 93 95  1  0
 94 92  2  0
 97 72  1  0
 98 97  1  0
 99 97  1  0
M  ISO  4  12 101  13 101  62 100  70 100
M  END
>  <TORSDO>  (76) 
F 23

>  <SCORE>  (76) 
-7.388

>  <name>  (76) 
75

>  <ligand_id>  (76) 
75

>  <original_smiles>  (76) 
[H]c1c([H])c([H])c2c(c1[H])C([H])([H])C([H])([H])C([H])([H])C2([H])N([H])C(=O)C1([H])N(C(=O)C([H])(N([H])C(=O)C([H])(N([H])C([H])([H])[H])C([H])([H])[H])C(C([H])([H])[H])(C([H])([H])[H])C([H])([H])[H])C([H])([H])c2c([H])c(OC([H])([H])C([H])([H])N([H])c3c([H])c(F)c([H])c(F)c3C([H])(C([H])(F)C([H])([H])N([H])C(=O)N3C([H])([H])C([H])([H])C([H])([H])C([H])(n4nc(-c5c([H])c([H])c(Oc6c([H])c([H])c(F)c([H])c6F)c([H])c5[H])c(C(=O)N([H])[H])c4N([H])[H])C3([H])[H])[N+]([H])([H])[H])c([H])c([H])c2C1([H])[H]

>  <smiles>  (76) 
[H]c1c([H])c([H])c2c(c1[H])C([H])([H])C([H])([H])C([H])([H])C2([H])N([H])C(=O)C1([H])N(C(=O)C([H])(N([H])C(=O)C([H])(N([H])C([H])([H])[H])C([H])([H])[H])C(C([H])([H])[H])(C([H])([H])[H])C([H])([H])[H])C([H])([H])c2c([H])c(OC([H])([H])C([H])([H])N([H])c3c([H])c(F)c([H])c(F)c3C([H])(C([H])(F)C([H])([H])N([H])C(=O)N3C([H])([H])C([H])([H])C([H])([H])C([H])(n4nc(-c5c([H])c([H])c(Oc6c([H])c([H])c(F)c([H])c6F)c([H])c5[H])c(C(=O)N([H])[H])c4N([H])[H])C3([H])[H])[N+]([H])([H])[H])c([H])c([H])c2C1([H])[H]

$$$$
76:0:0
     RDKit          3D

 89 97  0  0  1  0  0  0  0  0999 V2000
  -30.1570  -20.8770   19.3060 C   0  0  0  0  0  3  0  0  0  0  0  0
  -27.8590  -21.7310   20.4530 C   0  0  0  0  0  3  0  0  0  0  0  0
  -29.4630  -19.7320   19.8910 C   0  0  0  0  0  0  0  0  0  0  0  0
  -28.5600  -22.8730   19.8620 C   0  0  0  0  0  0  0  0  0  0  0  0
  -28.2620  -20.2980   20.4840 C   0  0  0  0  0  0  0  0  0  0  0  0
  -29.7550  -22.3030   19.2720 C   0  0  0  0  0  0  0  0  0  0  0  0
  -27.4350  -19.4420   21.1280 F   0  0  0  0  0  0  0  0  0  0  0  0
  -30.5690  -23.1470   18.5970 F   0  0  0  0  0  0  0  0  0  0  0  0
  -30.1760  -18.1470   19.9590 C   0  0  0  0  0  2  0  0  0  0  0  0
  -30.4510  -15.2970   19.8910 C   0  0  0  0  0  0  0  0  0  0  0  0
  -30.3150  -12.8900   18.9740 C   0  0  0  0  0  2  0  0  0  0  0  0
  -29.3090  -12.7430   17.8060 C   0  0  0  0  0  2  0  0  0  0  0  0
  -27.8900  -12.4880   18.3430 C   0  0  0  0  0  2  0  0  0  0  0  0
  -27.5340  -13.4290   19.5220 C   0  0  0  0  0  3  0  0  0  0  0  0
  -28.6610  -13.5300   20.5730 C   0  0  0  0  0  2  0  0  0  0  0  0
  -29.8540  -14.0140   19.8620 N   0  0  0  0  0  0  0  0  0  0  0  0
  -31.6470  -15.2950   19.5720 O   0  0  0  0  0  0  0  0  0  0  0  0
  -29.7310  -16.5680   20.0700 N   0  0  0  0  0  0  0  0  0  0  0  0
  -28.7540  -16.4400   20.2850 H   0  0  0  0  0  0  0  0  0  0  0  0
  -25.2290  -13.9850   20.4620 C   0  0  0  0  0  0  0  0  0  0  0  0
  -24.1910  -13.2050   20.8860 C   0  0  0  0  0  0  0  0  0  0  0  0
  -24.6440  -11.8540   20.7860 C   0  0  0  0  0  0  0  0  0  0  0  0
  -26.2450  -13.1100   20.1190 N   0  0  0  0  0  0  0  0  0  0  0  0
  -25.9090  -11.8200   20.3810 N   0  0  0  0  0  0  0  0  0  0  0  0
  -23.9220  -10.5910   20.9940 C   0  0  0  0  0  0  0  0  0  0  0  0
  -24.3940   -9.6080   21.8910 C   0  0  0  0  0  3  0  0  0  0  0  0
  -23.6690   -8.4130   22.0890 C   0  0  0  0  0  3  0  0  0  0  0  0
  -22.4590   -8.1920   21.3890 C   0  0  0  0  0  0  0  0  0  0  0  0
  -22.0060   -9.1630   20.4790 C   0  0  0  0  0  3  0  0  0  0  0  0
  -22.7300  -10.3500   20.2800 C   0  0  0  0  0  3  0  0  0  0  0  0
  -21.7020   -7.0510   21.4990 O   0  0  0  0  0  0  0  0  0  0  0  0
  -21.6900   -6.3030   22.6490 C   0  0  0  0  0  0  0  0  0  0  0  0
  -21.2730   -6.8430   23.8860 C   0  0  0  0  0  3  0  0  0  0  0  0
  -21.2110   -6.0210   25.0290 C   0  0  0  0  0  3  0  0  0  0  0  0
  -21.5540   -4.6580   24.9360 C   0  0  0  0  0  0  0  0  0  0  0  0
  -21.9620   -4.1170   23.7040 C   0  0  0  0  0  3  0  0  0  0  0  0
  -22.0280   -4.9370   22.5640 C   0  0  0  0  0  0  0  0  0  0  0  0
  -22.4020   -4.4050   21.3750 F   0  0  0  0  0  0  0  0  0  0  0  0
  -21.4850   -3.8660   26.0310 F   0  0  0  0  0  0  0  0  0  0  0  0
  -22.8210  -13.6840   21.2660 C   0  0  0  0  0  0  0  0  0  0  0  0
  -22.1520  -12.9720   22.1660 N   0  0  0  0  0  0  0  0  0  0  0  0
  -22.3560  -14.7240   20.8020 O   0  0  0  0  0  0  0  0  0  0  0  0
  -22.5430  -12.1290   22.5610 H   0  0  0  0  0  0  0  0  0  0  0  0
  -21.2360  -13.2730   22.4650 H   0  0  0  0  0  0  0  0  0  0  0  0
  -25.3870  -15.3600   20.3090 N   0  0  0  0  0  0  0  0  0  0  0  0
  -24.6300  -16.0110   20.4920 H   0  0  0  0  0  0  0  0  0  0  0  0
  -26.2060  -15.8080   19.9190 H   0  0  0  0  0  0  0  0  0  0  0  0
  -27.8650  -24.4430   19.6070 C   0  0  0  0  0  2  0  0  0  0  0  0
  -28.2120  -25.9860   19.9840 O   0  0  0  0  0  0  0  0  0  0  0  0
  -24.6080  -31.7990   23.1070 C   0  0  0  0  0  0  0  0  0  0  0  0
  -27.2080  -27.0780   19.9370 C   0  0  0  0  0  0  0  0  0  0  0  0
  -23.4260  -30.4450   21.4250 C   0  0  0  0  0  3  0  0  0  0  0  0
  -24.8910  -28.9130   19.9500 C   0  0  0  0  0  0  0  0  0  0  0  0
  -25.9890  -30.6970   21.2850 C   0  0  0  0  0  2  0  0  0  0  0  0
  -26.0740  -29.3140   20.5840 C   0  0  0  0  0  0  0  0  0  0  0  0
  -27.2300  -28.4170   20.5570 C   0  0  0  0  0  3  0  0  0  0  0  0
  -25.9950  -26.8270   19.2560 C   0  0  0  0  0  3  0  0  0  0  0  0
  -24.8740  -27.6890   19.2680 C   0  0  0  0  0  3  0  0  0  0  0  0
  -23.6620  -29.8130   20.0280 C   0  0  0  0  0  2  0  0  0  0  0  0
  -24.6960  -31.0050   21.9940 N   0  0  0  0  0  0  0  0  0  0  0  0
  -23.5170  -32.0600   23.6390 O   0  0  0  0  0  0  0  0  0  0  0  0
  -22.7450  -29.4070   22.3570 C   0  0  0  0  0  0  0  0  0  0  0  0
  -21.4140  -29.2520   22.2450 N   0  0  0  0  0  0  0  0  0  0  0  0
  -23.4220  -28.7460   23.1490 O   0  0  0  0  0  0  0  0  0  0  0  0
  -20.9210  -29.8370   21.5850 H   0  0  0  0  0  0  0  0  0  0  0  0
  -18.0280  -28.0720   22.7940 C   0  0  0  0  0  0  0  0  0  0  0  0
  -20.5980  -28.2880   22.9920 C   0  0  0  0  0  3  0  0  0  0  0  0
  -20.6590  -26.8860   22.3400 C   0  0  0  0  0  2  0  0  0  0  0  0
  -19.5220  -26.6360   21.3450 C   0  0  0  0  0  2  0  0  0  0  0  0
  -18.1620  -26.7610   22.0390 C   0  0  0  0  0  2  0  0  0  0  0  0
  -19.1700  -28.7970   23.2280 C   0  0  0  0  0  0  0  0  0  0  0  0
  -18.9860  -30.0250   23.8990 C   0  0  0  0  0  3  0  0  0  0  0  0
  -17.6940  -30.5300   24.1370 C   0  0  0  0  0  3  0  0  0  0  0  0
  -16.5670  -29.8030   23.7170 C   0  0  0  0  0  3  0  0  0  0  0  0
  -16.7350  -28.5740   23.0520 C   0  0  0  0  0  3  0  0  0  0  0  0
  -25.8750  -32.4340   23.7570 C   0  0  0  0  0  3  0  0  0  0  0  0
  -25.5540  -33.8300   24.1030 N   0  0  0  0  0  0  0  0  0  0  0  0
  -25.8720  -34.8960   23.3570 C   0  0  0  0  0  0  0  0  0  0  0  0
  -26.5300  -34.8100   22.3160 O   0  0  0  0  0  0  0  0  0  0  0  0
  -24.9700  -33.9710   24.9130 H   0  0  0  0  0  0  0  0  0  0  0  0
  -24.1210  -36.6800   23.0660 C   0  0  0  0  0  1  0  0  0  0  0  0
  -25.3870  -36.2780   23.8390 C   0  0  0  0  0  3  0  0  0  0  0  0
  -27.5300  -37.1810   24.6280 C   0  0  0  0  0  1  0  0  0  0  0  0
  -26.4070  -37.3420   23.7070 N   0  0  0  0  0  0  0  0  0  0  0  0
  -25.9950  -38.2570   23.8690 H   0  0  0  0  0  0  0  0  0  0  0  0
  -26.3660  -31.6570   25.0420 C   0  0  1  0  0  0  0  0  0  0  0  0
  -25.2540  -31.4180   26.0890 C   0  0  0  0  0  1  0  0  0  0  0  0
  -26.9550  -30.2790   24.6620 C   0  0  0  0  0  1  0  0  0  0  0  0
  -27.5060  -32.4470   25.7290 C   0  0  0  0  0  1  0  0  0  0  0  0
  1  3  1  0
  2  5  1  0
  3  9  1  0
  3  5  2  0
  4  2  2  0
  5  7  1  0
  6  1  2  0
  6  4  1  0
  8  6  1  0
  9 18  1  0
 10 18  1  0
 11 16  1  0
 12 13  1  0
 12 11  1  0
 14 13  1  0
 14 23  1  0
 14 15  1  0
 16 10  1  0
 16 15  1  0
 17 10  2  0
 18 19  1  0
 20 21  2  0
 21 40  1  0
 22 21  1  0
 22 25  1  0
 23 24  1  0
 23 20  1  0
 24 22  2  0
 25 26  1  0
 26 27  2  0
 28 31  1  0
 28 27  1  0
 29 28  2  0
 30 29  1  0
 30 25  2  0
 31 32  1  0
 32 33  1  0
 33 34  2  0
 35 34  1  0
 35 39  1  0
 36 35  2  0
 37 32  2  0
 37 36  1  0
 38 37  1  0
 40 41  1  0
 41 44  1  0
 41 43  1  0
 42 40  2  0
 45 20  1  0
 45 46  1  0
 47 45  1  0
 48  4  1  0
 48 49  1  0
 50 61  2  0
 51 49  1  0
 51 56  1  0
 52 60  1  0
 52 62  1  0
 53 59  1  0
 53 55  1  0
 54 60  1  0
 55 54  1  0
 56 55  2  0
 57 58  1  0
 57 51  2  0
 58 53  2  0
 59 52  1  0
 60 50  1  0
 62 64  2  0
 63 62  1  0
 65 63  1  0
 66 75  2  0
 66 71  1  0
 67 63  1  0
 67 71  1  0
 68 67  1  0
 69 70  1  0
 69 68  1  0
 70 66  1  0
 71 72  2  0
 72 73  1  0
 74 73  2  0
 75 74  1  0
 76 50  1  0
 76 77  1  0
 76 86  1  0
 77 80  1  0
 78 82  1  0
 78 77  1  0
 79 78  2  0
 82 81  1  0
 84 82  1  0
 84 85  1  0
 84 83  1  0
 86 89  1  1
 86 87  1  0
 88 86  1  0
M  ISO  4  10 100  18 100  48 101  49 101
M  END
>  <TORSDO>  (77) 
F 18

>  <SCORE>  (77) 
-15.230

>  <name>  (77) 
76

>  <ligand_id>  (77) 
76

>  <original_smiles>  (77) 
[H]c1c([H])c([H])c2c(c1[H])C([H])([H])C([H])([H])C([H])([H])C2([H])N([H])C(=O)C1([H])N(C(=O)C([H])(N([H])C(=O)C([H])(N([H])C([H])([H])[H])C([H])([H])[H])C(C([H])([H])[H])(C([H])([H])[H])C([H])([H])[H])C([H])([H])c2c([H])c(OC([H])([H])c3c([H])c(F)c(C([H])([H])N([H])C(=O)N4C([H])([H])C([H])([H])C([H])([H])C([H])(n5nc(-c6c([H])c([H])c(Oc7c([H])c([H])c(F)c([H])c7F)c([H])c6[H])c(C(=O)N([H])[H])c5N([H])[H])C4([H])[H])c([H])c3F)c([H])c([H])c2C1([H])[H]

>  <smiles>  (77) 
[H]c1c([H])c([H])c2c(c1[H])C([H])([H])C([H])([H])C([H])([H])C2([H])N([H])C(=O)C1([H])N(C(=O)C([H])(N([H])C(=O)C([H])(N([H])C([H])([H])[H])C([H])([H])[H])C(C([H])([H])[H])(C([H])([H])[H])C([H])([H])[H])C([H])([H])c2c([H])c(OC([H])([H])c3c([H])c(F)c(C([H])([H])N([H])C(=O)N4C([H])([H])C([H])([H])C([H])([H])C([H])(n5nc(-c6c([H])c([H])c(Oc7c([H])c([H])c(F)c([H])c7F)c([H])c6[H])c(C(=O)N([H])[H])c5N([H])[H])C4([H])[H])c([H])c3F)c([H])c([H])c2C1([H])[H]

$$$$
77:0:0
     RDKit          3D

 99 99  0  0  1  0  0  0  0  0999 V2000
  -22.0450  -24.7550   22.2760 C   0  0  0  0  0 15  0  0  0  0  0  0
  -20.4850  -27.4970   20.1900 C   0  0  0  0  0  2  0  0  0  0  0  0
  -23.1870  -24.3650   20.7180 C   0  0  0  0  0  1  0  0  0  0  0  0
  -23.0250  -25.4970   19.2580 C   0  0  0  0  0  3  0  0  0  0  0  0
  -20.6570  -26.2320   22.3590 C   0  0  0  0  0  1  0  0  0  0  0  0
  -21.7710  -26.8950   18.8810 C   0  0  0  0  0  3  0  0  0  0  0  0
  -20.0260  -26.4570   23.5510 F   0  0  0  0  0  0  0  0  0  0  0  0
  -21.8170  -27.5200   17.6870 F   0  0  0  0  0  0  0  0  0  0  0  0
  -24.7780  -22.9770   20.6370 C   0  0  0  0  0  2  0  0  0  0  0  0
  -25.6690  -23.5770   21.2430 O   0  0  0  0  0  0  0  0  0  0  0  0
  -25.8150  -20.9860   20.2420 C   0  0  0  0  0  1  0  0  0  0  0  0
  -25.6820  -20.5970   21.6520 N   0  0  0  0  0  4  0  0  0  0  0  0
  -26.5540  -20.2380   21.9970 H   0  0  0  0  0  0  0  0  0  0  0  0
  -24.9570  -19.9230   21.8110 H   0  0  0  0  0  0  0  0  0  0  0  0
  -25.4770  -21.4550   22.1440 H   0  0  0  0  0  0  0  0  0  0  0  0
  -27.6130  -19.7200   19.7890 C   0  0  0  0  0 15  0  0  0  0  0  0
  -29.9720  -16.9050   19.7070 C   0  0  0  0  0  0  0  0  0  0  0  0
  -31.0770  -14.3710   19.0600 C   0  0  0  0  0  2  0  0  0  0  0  0
  -30.3960  -13.4550   17.9700 C   0  0  0  0  0  2  0  0  0  0  0  0
  -29.0720  -12.8790   18.4860 C   0  0  0  0  0  2  0  0  0  0  0  0
  -28.4060  -13.9570   19.3540 C   0  0  0  0  0  3  0  0  0  0  0  0
  -29.2760  -14.4900   20.4860 C   0  0  0  0  0  2  0  0  0  0  0  0
  -30.1130  -15.4070   19.7670 N   0  0  0  0  0  0  0  0  0  0  0  0
  -31.1820  -17.1400   19.3500 O   0  0  0  0  0  0  0  0  0  0  0  0
  -28.6280  -17.9710   19.9200 N   0  0  0  0  0  2  0  0  0  0  0  0
  -27.9060  -17.3280   20.2400 H   0  0  0  0  0  0  0  0  0  0  0  0
  -26.2260  -14.5400   20.3680 C   0  0  0  0  0  0  0  0  0  0  0  0
  -25.1960  -13.7740   20.8090 C   0  0  0  0  0  0  0  0  0  0  0  0
  -25.6090  -12.4160   20.6340 C   0  0  0  0  0  0  0  0  0  0  0  0
  -27.1540  -13.6340   19.9130 N   0  0  0  0  0  0  0  0  0  0  0  0
  -26.8360  -12.3490   20.1500 N   0  0  0  0  0  0  0  0  0  0  0  0
  -24.8800  -11.1710   20.8140 C   0  0  0  0  0  0  0  0  0  0  0  0
  -25.2750  -10.2130   21.7720 C   0  0  0  0  0  3  0  0  0  0  0  0
  -24.5320   -9.0260   21.9270 C   0  0  0  0  0  3  0  0  0  0  0  0
  -23.3910   -8.7970   21.1230 C   0  0  0  0  0  0  0  0  0  0  0  0
  -23.0250   -9.7440   20.1520 C   0  0  0  0  0  3  0  0  0  0  0  0
  -23.7680  -10.9220   19.9930 C   0  0  0  0  0  3  0  0  0  0  0  0
  -22.6180   -7.6670   21.1890 O   0  0  0  0  0  0  0  0  0  0  0  0
  -22.3010   -7.0880   22.3900 C   0  0  0  0  0  0  0  0  0  0  0  0
  -21.6930   -7.8190   23.4330 C   0  0  0  0  0  3  0  0  0  0  0  0
  -21.3180   -7.1650   24.6220 C   0  0  0  0  0  3  0  0  0  0  0  0
  -21.5470   -5.7830   24.7680 C   0  0  0  0  0  0  0  0  0  0  0  0
  -22.1530   -5.0550   23.7280 C   0  0  0  0  0  3  0  0  0  0  0  0
  -22.5260   -5.7060   22.5410 C   0  0  0  0  0  0  0  0  0  0  0  0
  -23.0890   -4.9970   21.5320 F   0  0  0  0  0  0  0  0  0  0  0  0
  -21.1800   -5.1500   25.9070 F   0  0  0  0  0  0  0  0  0  0  0  0
  -23.8670  -14.2840   21.2590 C   0  0  0  0  0  0  0  0  0  0  0  0
  -23.2340  -13.5850   22.1910 N   0  0  0  0  0  0  0  0  0  0  0  0
  -23.4110  -15.3370   20.8140 O   0  0  0  0  0  0  0  0  0  0  0  0
  -23.6260  -12.7310   22.5590 H   0  0  0  0  0  0  0  0  0  0  0  0
  -22.3440  -13.9100   22.5420 H   0  0  0  0  0  0  0  0  0  0  0  0
  -26.4470  -15.9160   20.2860 N   0  0  0  0  0  0  0  0  0  0  0  0
  -25.6490  -16.5110   20.4770 H   0  0  0  0  0  0  0  0  0  0  0  0
  -26.9970  -16.2650   19.5100 H   0  0  0  0  0  0  0  0  0  0  0  0
  -24.2880  -25.6700   18.5620 N   0  0  0  0  0  0  0  0  0  0  0  0
  -24.1540  -26.4690   17.9400 H   0  0  0  0  0  0  0  0  0  0  0  0
  -25.5710  -25.8950   19.3780 C   0  0  0  0  0  2  0  0  0  0  0  0
  -27.0710  -25.9390   18.6990 C   0  0  0  0  0  2  0  0  0  0  0  0
  -28.0020  -27.1150   18.7720 O   0  0  0  0  0  0  0  0  0  0  0  0
  -24.7460  -31.6230   23.0810 C   0  0  0  0  0  0  0  0  0  0  0  0
  -27.3100  -28.2840   18.7860 C   0  0  0  0  0  0  0  0  0  0  0  0
  -23.6550  -30.9260   21.0060 C   0  0  0  0  0  3  0  0  0  0  0  0
  -25.1400  -29.9730   19.1710 C   0  0  0  0  0  0  0  0  0  0  0  0
  -26.1950  -31.1340   21.1070 C   0  0  0  0  0  2  0  0  0  0  0  0
  -26.2520  -30.0800   20.0210 C   0  0  0  0  0  0  0  0  0  0  0  0
  -27.3600  -29.2160   19.8490 C   0  0  0  0  0  3  0  0  0  0  0  0
  -26.3320  -28.4020   17.7950 C   0  0  0  0  0  3  0  0  0  0  0  0
  -25.2050  -29.1790   18.0260 C   0  0  0  0  0  3  0  0  0  0  0  0
  -23.9230  -30.8010   19.4840 C   0  0  0  0  0  2  0  0  0  0  0  0
  -24.8820  -31.2510   21.7800 N   0  0  0  0  0  0  0  0  0  0  0  0
  -23.6260  -31.7630   23.5940 O   0  0  0  0  0  0  0  0  0  0  0  0
  -23.0780  -29.6180   21.5430 C   0  0  0  0  0  0  0  0  0  0  0  0
  -21.7990  -29.5590   21.8010 N   0  0  0  0  0  0  0  0  0  0  0  0
  -23.7800  -28.6300   21.7420 O   0  0  0  0  0  0  0  0  0  0  0  0
  -21.2120  -30.3740   21.7020 H   0  0  0  0  0  0  0  0  0  0  0  0
  -18.1870  -28.6190   22.2720 C   0  0  0  0  0  0  0  0  0  0  0  0
  -21.1920  -28.2620   22.0610 C   0  0  0  0  0  2  0  0  0  0  0  0
  -21.2600  -27.0520   20.3000 C   0  0  0  0  0  2  0  0  0  0  0  0
  -19.2100  -26.6300   19.4810 C   0  0  0  0  0  1  0  0  0  0  0  0
  -17.6950  -27.5920   20.7630 C   0  0  0  0  0  1  0  0  0  0  0  0
  -19.6540  -28.8750   22.7930 C   0  0  0  0  0  0  0  0  0  0  0  0
  -19.8130  -29.7910   23.9090 C   0  0  0  0  0  3  0  0  0  0  0  0
  -18.7600  -30.4390   24.6040 C   0  0  0  0  0  3  0  0  0  0  0  0
  -17.4430  -30.1900   24.1940 C   0  0  0  0  0  3  0  0  0  0  0  0
  -17.1900  -29.3170   23.0770 C   0  0  0  0  0  3  0  0  0  0  0  0
  -25.9870  -31.9050   23.9700 C   0  0  0  0  0  3  0  0  0  0  0  0
  -26.2010  -30.8320   25.1050 C   0  0  1  0  0  0  0  0  0  0  0  0
  -24.9270  -30.5320   25.9280 C   0  0  0  0  0  1  0  0  0  0  0  0
  -26.6960  -29.4940   24.5040 C   0  0  0  0  0  1  0  0  0  0  0  0
  -27.3050  -31.3200   26.0730 C   0  0  0  0  0  1  0  0  0  0  0  0
  -25.8040  -33.2450   24.5380 N   0  0  0  0  0  0  0  0  0  0  0  0
  -26.3260  -34.3620   24.0180 C   0  0  0  0  0  0  0  0  0  0  0  0
  -27.0880  -34.3580   23.0470 O   0  0  0  0  0  0  0  0  0  0  0  0
  -25.1510  -33.3300   25.3040 H   0  0  0  0  0  0  0  0  0  0  0  0
  -24.8420  -36.3890   23.8670 C   0  0  0  0  0  1  0  0  0  0  0  0
  -25.9450  -35.6990   24.6850 C   0  0  0  0  0  3  0  0  0  0  0  0
  -28.0860  -36.1220   25.8100 C   0  0  0  0  0  1  0  0  0  0  0  0
  -27.0920  -36.6160   24.8590 N   0  0  0  0  0  0  0  0  0  0  0  0
  -26.7790  -37.5290   25.1750 H   0  0  0  0  0  0  0  0  0  0  0  0
  2 78  1  0
  4  3  1  0
  5  7  1  0
  6  8  1  0
  6  4  1  0
  6 78  1  0
  9 10  2  0
 11 12  1  0
 12 14  1  0
 12 13  1  0
 12 15  1  0
 17 23  1  0
 17 25  1  0
 18 23  1  0
 19 20  1  0
 19 18  1  0
 21 20  1  0
 21 30  1  0
 21 22  1  0
 23 22  1  0
 24 17  2  0
 25 26  1  0
 27 28  2  0
 28 47  1  0
 29 28  1  0
 29 32  1  0
 30 31  1  0
 30 27  1  0
 31 29  2  0
 32 33  1  0
 33 34  2  0
 35 38  1  0
 35 34  1  0
 36 35  2  0
 37 36  1  0
 37 32  2  0
 38 39  1  0
 39 44  2  0
 39 40  1  0
 40 41  2  0
 41 42  1  0
 42 46  1  0
 43 42  2  0
 44 43  1  0
 45 44  1  0
 47 48  1  0
 48 51  1  0
 48 50  1  0
 49 47  2  0
 52 27  1  0
 52 53  1  0
 54 52  1  0
 55  4  1  0
 55 57  1  0
 56 55  1  0
 58 59  1  0
 58 57  1  0
 59 61  1  0
 60 71  2  0
 61 66  1  0
 62 72  1  0
 62 70  1  0
 63 69  1  0
 63 65  1  0
 64 70  1  0
 65 64  1  0
 66 65  2  0
 67 68  1  0
 67 61  2  0
 68 63  2  0
 69 62  1  0
 70 60  1  0
 72 74  2  0
 72 73  1  0
 73 77  1  0
 75 73  1  0
 76 81  2  0
 76 85  1  0
 77 81  1  0
 79  2  1  0
 80 76  1  0
 81 82  1  0
 82 83  2  0
 84 83  1  0
 85 84  2  0
 86 60  1  0
 86 91  1  0
 86 87  1  0
 87 88  1  1
 87 90  1  0
 89 87  1  0
 91 94  1  0
 92 91  1  0
 92 96  1  0
 93 92  2  0
 96 95  1  0
 96 98  1  0
 98 99  1  0
 98 97  1  0
M  ISO  4  17 100  25 100  58 101  59 101
M  END
>  <TORSDO>  (78) 
F 23

>  <SCORE>  (78) 
1.093

>  <name>  (78) 
77

>  <ligand_id>  (78) 
77

>  <original_smiles>  (78) 
[H]c1c([H])c([H])c2c(c1[H])C([H])([H])C([H])([H])C([H])([H])C2([H])N([H])C(=O)C1([H])N(C(=O)C([H])(N([H])C(=O)C([H])(N([H])C([H])([H])[H])C([H])([H])[H])C(C([H])([H])[H])(C([H])([H])[H])C([H])([H])[H])C([H])([H])c2c([H])c(OC([H])([H])C([H])([H])N([H])c3c(F)c([H])c(F)c([H])c3C(=O)C([H])(C([H])([H])N([H])C(=O)N3C([H])([H])C([H])([H])C([H])([H])C([H])(n4nc(-c5c([H])c([H])c(Oc6c([H])c([H])c(F)c([H])c6F)c([H])c5[H])c(C(=O)N([H])[H])c4N([H])[H])C3([H])[H])[N+]([H])([H])[H])c([H])c([H])c2C1([H])[H]

>  <smiles>  (78) 
[H]c1c([H])c([H])c2c(c1[H])C([H])([H])C([H])([H])C([H])([H])C2([H])N([H])C(=O)C1([H])N(C(=O)C([H])(N([H])C(=O)C([H])(N([H])C([H])([H])[H])C([H])([H])[H])C(C([H])([H])[H])(C([H])([H])[H])C([H])([H])[H])C([H])([H])c2c([H])c(OC([H])([H])C([H])([H])N([H])c3c(F)c([H])c(F)c([H])c3C(=O)C([H])(C([H])([H])N([H])C(=O)N3C([H])([H])C([H])([H])C([H])([H])C([H])(n4nc(-c5c([H])c([H])c(Oc6c([H])c([H])c(F)c([H])c6F)c([H])c5[H])c(C(=O)N([H])[H])c4N([H])[H])C3([H])[H])[N+]([H])([H])[H])c([H])c([H])c2C1([H])[H]

$$$$
78:0:0
     RDKit          3D

 91 99  0  0  1  0  0  0  0  0999 V2000
  -28.6340  -21.3420   18.4940 C   0  0  0  0  0  2  0  0  0  0  0  0
  -28.9770  -22.7900   18.1910 C   0  0  0  0  0  2  0  0  0  0  0  0
  -28.6440  -21.7310   19.9900 C   0  0  0  0  0  3  0  0  0  0  0  0
  -29.4950  -22.8660   19.5610 N   0  0  0  0  0  0  0  0  0  0  0  0
  -29.2370  -20.7210   21.0320 C   0  0  0  0  0  2  0  0  0  0  0  0
  -29.8010  -19.4880   20.4020 N   0  0  0  0  0  4  0  0  0  0  0  0
  -30.7860  -19.6490   20.2650 H   0  0  0  0  0  0  0  0  0  0  0  0
  -29.3760  -19.4330   19.4900 H   0  0  0  0  0  0  0  0  0  0  0  0
  -29.6050  -18.1620   21.0790 C   0  0  0  0  0  2  0  0  0  0  0  0
  -30.2680  -16.9900   20.2770 C   0  0  0  0  0  2  0  0  0  0  0  0
  -30.7030  -14.5260   20.3210 C   0  0  0  0  0  0  0  0  0  0  0  0
  -30.3720  -12.3660   19.1850 C   0  0  0  0  0  2  0  0  0  0  0  0
  -29.4190  -12.5930   17.9920 C   0  0  0  0  0  2  0  0  0  0  0  0
  -27.9490  -12.4660   18.4340 C   0  0  0  0  0  2  0  0  0  0  0  0
  -27.6340  -13.2790   19.7190 C   0  0  0  0  0  3  0  0  0  0  0  0
  -28.7080  -13.0520   20.8120 C   0  0  0  0  0  2  0  0  0  0  0  0
  -30.0230  -13.3500   20.2270 N   0  0  0  0  0  0  0  0  0  0  0  0
  -31.8320  -14.6750   19.8450 O   0  0  0  0  0  0  0  0  0  0  0  0
  -29.9960  -15.6030   20.7430 N   0  0  0  0  0  0  0  0  0  0  0  0
  -29.0940  -15.4160   21.1540 H   0  0  0  0  0  0  0  0  0  0  0  0
  -25.2420  -13.8840   20.4420 C   0  0  0  0  0  0  0  0  0  0  0  0
  -24.1780  -13.1160   20.8280 C   0  0  0  0  0  0  0  0  0  0  0  0
  -24.6360  -11.7630   20.8000 C   0  0  0  0  0  0  0  0  0  0  0  0
  -26.2850  -13.0020   20.2100 N   0  0  0  0  0  0  0  0  0  0  0  0
  -25.9250  -11.7220   20.4840 N   0  0  0  0  0  0  0  0  0  0  0  0
  -23.9070  -10.5030   21.0010 C   0  0  0  0  0  0  0  0  0  0  0  0
  -24.3500   -9.5350   21.9280 C   0  0  0  0  0  3  0  0  0  0  0  0
  -23.6220   -8.3410   22.1180 C   0  0  0  0  0  3  0  0  0  0  0  0
  -22.4370   -8.1060   21.3800 C   0  0  0  0  0  0  0  0  0  0  0  0
  -22.0130   -9.0630   20.4420 C   0  0  0  0  0  3  0  0  0  0  0  0
  -22.7420  -10.2470   20.2500 C   0  0  0  0  0  3  0  0  0  0  0  0
  -21.6800   -6.9640   21.4810 O   0  0  0  0  0  0  0  0  0  0  0  0
  -21.6520   -6.2180   22.6330 C   0  0  0  0  0  0  0  0  0  0  0  0
  -21.2570   -6.7720   23.8700 C   0  0  0  0  0  3  0  0  0  0  0  0
  -21.1770   -5.9530   25.0140 C   0  0  0  0  0  3  0  0  0  0  0  0
  -21.4800   -4.5800   24.9240 C   0  0  0  0  0  0  0  0  0  0  0  0
  -21.8640   -4.0260   23.6910 C   0  0  0  0  0  3  0  0  0  0  0  0
  -21.9470   -4.8430   22.5480 C   0  0  0  0  0  0  0  0  0  0  0  0
  -22.3010   -4.2980   21.3600 F   0  0  0  0  0  0  0  0  0  0  0  0
  -21.3910   -3.7920   26.0210 F   0  0  0  0  0  0  0  0  0  0  0  0
  -22.7850  -13.5970   21.1110 C   0  0  0  0  0  0  0  0  0  0  0  0
  -22.0640  -12.9060   21.9880 N   0  0  0  0  0  0  0  0  0  0  0  0
  -22.3470  -14.6220   20.5910 O   0  0  0  0  0  0  0  0  0  0  0  0
  -22.4340  -12.0740   22.4270 H   0  0  0  0  0  0  0  0  0  0  0  0
  -21.1310  -13.2120   22.2250 H   0  0  0  0  0  0  0  0  0  0  0  0
  -25.4060  -15.2560   20.2530 N   0  0  0  0  0  0  0  0  0  0  0  0
  -24.6300  -15.9030   20.3420 H   0  0  0  0  0  0  0  0  0  0  0  0
  -26.2390  -15.6800   19.8640 H   0  0  0  0  0  0  0  0  0  0  0  0
  -29.3860  -24.2120   20.1990 C   0  0  0  0  0  3  0  0  0  0  0  0
  -28.2170  -25.1750   19.7860 C   0  0  0  0  0  3  0  0  0  0  0  0
  -28.3350  -26.5630   20.2080 O   0  0  0  0  0  0  0  0  0  0  0  0
  -24.5990  -31.8650   23.2360 C   0  0  0  0  0  0  0  0  0  0  0  0
  -27.1900  -27.3580   20.1550 C   0  0  0  0  0  0  0  0  0  0  0  0
  -23.3750  -30.4710   21.6050 C   0  0  0  0  0  3  0  0  0  0  0  0
  -24.8160  -28.9300   20.1690 C   0  0  0  0  0  0  0  0  0  0  0  0
  -25.9100  -30.8060   21.3980 C   0  0  0  0  0  2  0  0  0  0  0  0
  -25.9860  -29.4300   20.7560 C   0  0  0  0  0  0  0  0  0  0  0  0
  -27.1750  -28.6490   20.7460 C   0  0  0  0  0  3  0  0  0  0  0  0
  -25.9990  -26.9050   19.5390 C   0  0  0  0  0  3  0  0  0  0  0  0
  -24.8220  -27.6700   19.5550 C   0  0  0  0  0  3  0  0  0  0  0  0
  -23.5730  -29.7920   20.2270 C   0  0  0  0  0  2  0  0  0  0  0  0
  -24.6460  -31.0640   22.1360 N   0  0  0  0  0  0  0  0  0  0  0  0
  -23.5210  -32.1390   23.7860 O   0  0  0  0  0  0  0  0  0  0  0  0
  -22.7240  -29.4510   22.5700 C   0  0  0  0  0  0  0  0  0  0  0  0
  -21.3990  -29.2710   22.4500 N   0  0  0  0  0  0  0  0  0  0  0  0
  -23.4110  -28.8270   23.3820 O   0  0  0  0  0  0  0  0  0  0  0  0
  -20.9040  -29.8210   21.7630 H   0  0  0  0  0  0  0  0  0  0  0  0
  -18.0260  -28.0780   22.9590 C   0  0  0  0  0  0  0  0  0  0  0  0
  -20.5840  -28.3380   23.2280 C   0  0  0  0  0  3  0  0  0  0  0  0
  -20.6870  -26.9030   22.6600 C   0  0  0  0  0  2  0  0  0  0  0  0
  -19.5850  -26.5760   21.6480 C   0  0  0  0  0  2  0  0  0  0  0  0
  -18.2020  -26.7260   22.2910 C   0  0  0  0  0  2  0  0  0  0  0  0
  -19.1450  -28.8430   23.3850 C   0  0  0  0  0  0  0  0  0  0  0  0
  -18.9240  -30.1100   23.9680 C   0  0  0  0  0  3  0  0  0  0  0  0
  -17.6180  -30.6110   24.1320 C   0  0  0  0  0  3  0  0  0  0  0  0
  -16.5140  -29.8400   23.7280 C   0  0  0  0  0  3  0  0  0  0  0  0
  -16.7210  -28.5770   23.1440 C   0  0  0  0  0  3  0  0  0  0  0  0
  -25.8900  -32.4970   23.8440 C   0  0  0  0  0  3  0  0  0  0  0  0
  -25.5840  -33.8940   24.1780 N   0  0  0  0  0  0  0  0  0  0  0  0
  -25.9080  -34.9450   23.4130 C   0  0  0  0  0  0  0  0  0  0  0  0
  -26.5630  -34.8410   22.3710 O   0  0  0  0  0  0  0  0  0  0  0  0
  -25.0090  -34.0440   24.9920 H   0  0  0  0  0  0  0  0  0  0  0  0
  -24.1820  -36.7420   23.0780 C   0  0  0  0  0  1  0  0  0  0  0  0
  -25.4310  -36.3340   23.8760 C   0  0  0  0  0  3  0  0  0  0  0  0
  -27.5760  -37.2160   24.6840 C   0  0  0  0  0  1  0  0  0  0  0  0
  -26.4660  -37.3860   23.7520 N   0  0  0  0  0  0  0  0  0  0  0  0
  -26.0610  -38.3050   23.9110 H   0  0  0  0  0  0  0  0  0  0  0  0
  -26.4160  -31.7240   25.1150 C   0  0  1  0  0  0  0  0  0  0  0  0
  -25.3310  -31.4800   26.1910 C   0  0  0  0  0  1  0  0  0  0  0  0
  -26.9940  -30.3480   24.7140 C   0  0  0  0  0  1  0  0  0  0  0  0
  -27.5810  -32.5100   25.7630 C   0  0  0  0  0  1  0  0  0  0  0  0
  1  3  1  0
  2  1  1  0
  2  4  1  0
  3  5  1  0
  4  3  1  0
  4 49  1  0
  6  5  1  0
  6  9  1  0
  7  6  1  0
  8  6  1  0
 10 19  1  0
 10  9  1  0
 11 19  1  0
 12 17  1  0
 13 14  1  0
 13 12  1  0
 15 14  1  0
 15 24  1  0
 15 16  1  0
 17 11  1  0
 17 16  1  0
 18 11  2  0
 19 20  1  0
 21 22  2  0
 22 41  1  0
 23 22  1  0
 23 26  1  0
 24 21  1  0
 24 25  1  0
 25 23  2  0
 26 27  1  0
 27 28  2  0
 29 32  1  0
 29 28  1  0
 30 29  2  0
 31 30  1  0
 31 26  2  0
 32 33  1  0
 33 34  1  0
 34 35  2  0
 36 35  1  0
 36 40  1  0
 37 36  2  0
 38 33  2  0
 38 37  1  0
 39 38  1  0
 41 42  1  0
 42 45  1  0
 42 44  1  0
 43 41  2  0
 46 47  1  0
 46 21  1  0
 48 46  1  0
 50 49  2  0
 50 51  1  0
 52 63  2  0
 53 51  1  0
 53 58  1  0
 54 62  1  0
 54 64  1  0
 55 61  1  0
 55 57  1  0
 56 62  1  0
 57 56  1  0
 58 57  2  0
 59 60  1  0
 59 53  2  0
 60 55  2  0
 61 54  1  0
 62 52  1  0
 64 66  2  0
 65 64  1  0
 67 65  1  0
 68 77  2  0
 68 73  1  0
 69 65  1  0
 69 73  1  0
 70 69  1  0
 71 72  1  0
 71 70  1  0
 72 68  1  0
 73 74  2  0
 74 75  1  0
 76 75  2  0
 77 76  1  0
 78 52  1  0
 78 79  1  0
 78 88  1  0
 79 82  1  0
 80 84  1  0
 80 79  1  0
 81 80  2  0
 84 83  1  0
 86 84  1  0
 86 87  1  0
 86 85  1  0
 88 91  1  1
 88 89  1  0
 90 88  1  0
M  ISO  4  11 100  19 100  50 101  51 101
M  END
>  <TORSDO>  (79) 
F 22

>  <SCORE>  (79) 
-12.953

>  <name>  (79) 
78

>  <ligand_id>  (79) 
78

>  <original_smiles>  (79) 
[H]c1c([H])c([H])c2c(c1[H])C([H])([H])C([H])([H])C([H])([H])C2([H])N([H])C(=O)C1([H])N(C(=O)C([H])(N([H])C(=O)C([H])(N([H])C([H])([H])[H])C([H])([H])[H])C(C([H])([H])[H])(C([H])([H])[H])C([H])([H])[H])C([H])([H])c2c([H])c(OC([H])([H])C([H])([H])N3C([H])([H])C([H])([H])C3([H])C([H])([H])[N+]([H])([H])C([H])([H])C([H])([H])N([H])C(=O)N3C([H])([H])C([H])([H])C([H])([H])C([H])(n4nc(-c5c([H])c([H])c(Oc6c([H])c([H])c(F)c([H])c6F)c([H])c5[H])c(C(=O)N([H])[H])c4N([H])[H])C3([H])[H])c([H])c([H])c2C1([H])[H]

>  <smiles>  (79) 
[H]c1c([H])c([H])c2c(c1[H])C([H])([H])C([H])([H])C([H])([H])C2([H])N([H])C(=O)C1([H])N(C(=O)C([H])(N([H])C(=O)C([H])(N([H])C([H])([H])[H])C([H])([H])[H])C(C([H])([H])[H])(C([H])([H])[H])C([H])([H])[H])C([H])([H])c2c([H])c(OC([H])([H])C([H])([H])N3C([H])([H])C([H])([H])C3([H])C([H])([H])[N+]([H])([H])C([H])([H])C([H])([H])N([H])C(=O)N3C([H])([H])C([H])([H])C([H])([H])C([H])(n4nc(-c5c([H])c([H])c(Oc6c([H])c([H])c(F)c([H])c6F)c([H])c5[H])c(C(=O)N([H])[H])c4N([H])[H])C3([H])[H])c([H])c([H])c2C1([H])[H]

$$$$
79:0:0
     RDKit          3D

 92100  0  0  1  0  0  0  0  0999 V2000
  -29.1970  -19.0890   20.4430 C   0  0  0  0  0  3  0  0  0  0  0  0
  -31.3750  -19.5020   18.8370 C   0  0  0  0  0  3  0  0  0  0  0  0
  -29.4710  -20.5250   20.0420 C   0  0  0  0  0  0  0  0  0  0  0  0
  -29.9970  -17.8540   20.0790 C   0  0  0  0  0  0  0  0  0  0  0  0
  -30.6100  -20.6280   19.2070 C   0  0  0  0  0  0  0  0  0  0  0  0
  -31.0870  -18.1780   19.2290 C   0  0  0  0  0  0  0  0  0  0  0  0
  -30.9620  -21.8140   18.6600 F   0  0  0  0  0  0  0  0  0  0  0  0
  -31.8690  -17.2160   18.6950 F   0  0  0  0  0  0  0  0  0  0  0  0
  -30.4990  -15.1040   20.2750 C   0  0  0  0  0  0  0  0  0  0  0  0
  -30.3710  -12.7280   19.3590 C   0  0  0  0  0  2  0  0  0  0  0  0
  -29.4280  -12.6530   18.1370 C   0  0  0  0  0  2  0  0  0  0  0  0
  -27.9750  -12.4200   18.5900 C   0  0  0  0  0  2  0  0  0  0  0  0
  -27.5720  -13.3430   19.7700 C   0  0  0  0  0  3  0  0  0  0  0  0
  -28.6450  -13.3990   20.8780 C   0  0  0  0  0  2  0  0  0  0  0  0
  -29.8920  -13.8400   20.2400 N   0  0  0  0  0  0  0  0  0  0  0  0
  -31.7130  -15.0920   20.0510 O   0  0  0  0  0  0  0  0  0  0  0  0
  -29.7490  -16.3370   20.4120 N   0  0  0  0  0  0  0  0  0  0  0  0
  -28.8080  -16.1560   20.7230 H   0  0  0  0  0  0  0  0  0  0  0  0
  -25.2060  -13.8970   20.5610 C   0  0  0  0  0  0  0  0  0  0  0  0
  -24.1520  -13.1120   20.9390 C   0  0  0  0  0  0  0  0  0  0  0  0
  -24.6230  -11.7630   20.8860 C   0  0  0  0  0  0  0  0  0  0  0  0
  -26.2490  -13.0270   20.2930 N   0  0  0  0  0  0  0  0  0  0  0  0
  -25.9090  -11.7380   20.5540 N   0  0  0  0  0  0  0  0  0  0  0  0
  -23.9020  -10.4960   21.0700 C   0  0  0  0  0  0  0  0  0  0  0  0
  -24.3500   -9.5180   21.9860 C   0  0  0  0  0  3  0  0  0  0  0  0
  -23.6280   -8.3180   22.1600 C   0  0  0  0  0  3  0  0  0  0  0  0
  -22.4440   -8.0870   21.4210 C   0  0  0  0  0  0  0  0  0  0  0  0
  -22.0150   -9.0530   20.4940 C   0  0  0  0  0  3  0  0  0  0  0  0
  -22.7380  -10.2460   20.3170 C   0  0  0  0  0  3  0  0  0  0  0  0
  -21.6930   -6.9400   21.5070 O   0  0  0  0  0  0  0  0  0  0  0  0
  -21.6580   -6.1860   22.6530 C   0  0  0  0  0  0  0  0  0  0  0  0
  -21.2300   -6.7240   23.8860 C   0  0  0  0  0  3  0  0  0  0  0  0
  -21.1440   -5.8960   25.0230 C   0  0  0  0  0  3  0  0  0  0  0  0
  -21.4750   -4.5300   24.9280 C   0  0  0  0  0  0  0  0  0  0  0  0
  -21.8960   -3.9920   23.6990 C   0  0  0  0  0  3  0  0  0  0  0  0
  -21.9830   -4.8170   22.5650 C   0  0  0  0  0  0  0  0  0  0  0  0
  -22.3700   -4.2890   21.3780 F   0  0  0  0  0  0  0  0  0  0  0  0
  -21.3840   -3.7340   26.0180 F   0  0  0  0  0  0  0  0  0  0  0  0
  -22.7570  -13.5800   21.2310 C   0  0  0  0  0  0  0  0  0  0  0  0
  -22.0440  -12.8770   22.1040 N   0  0  0  0  0  0  0  0  0  0  0  0
  -22.3100  -14.6070   20.7220 O   0  0  0  0  0  0  0  0  0  0  0  0
  -22.4200  -12.0500   22.5410 H   0  0  0  0  0  0  0  0  0  0  0  0
  -21.1070  -13.1720   22.3380 H   0  0  0  0  0  0  0  0  0  0  0  0
  -25.3600  -15.2700   20.3930 N   0  0  0  0  0  0  0  0  0  0  0  0
  -24.5860  -15.9140   20.5070 H   0  0  0  0  0  0  0  0  0  0  0  0
  -26.1880  -15.7130   20.0170 H   0  0  0  0  0  0  0  0  0  0  0  0
  -28.9510  -23.2600   20.3070 C   0  0  0  0  0  0  0  0  0  0  0  0
  -28.6520  -21.8400   20.2870 N   0  0  0  0  0  0  0  0  0  0  0  0
  -30.1250  -23.6040   20.4540 O   0  0  0  0  0  0  0  0  0  0  0  0
  -27.6590  -21.6720   20.3820 H   0  0  0  0  0  0  0  0  0  0  0  0
  -27.8480  -24.5350   20.2200 C   0  0  0  0  0  2  0  0  0  0  0  0
  -28.1970  -26.0860   20.3210 O   0  0  0  0  0  0  0  0  0  0  0  0
  -24.6360  -31.9320   23.2530 C   0  0  0  0  0  0  0  0  0  0  0  0
  -27.1720  -27.1250   20.2570 C   0  0  0  0  0  0  0  0  0  0  0  0
  -23.4310  -30.5370   21.6210 C   0  0  0  0  0  3  0  0  0  0  0  0
  -24.8680  -28.9380   20.2080 C   0  0  0  0  0  0  0  0  0  0  0  0
  -25.9930  -30.7620   21.4680 C   0  0  0  0  0  2  0  0  0  0  0  0
  -26.0540  -29.3610   20.8200 C   0  0  0  0  0  0  0  0  0  0  0  0
  -27.2060  -28.4740   20.8230 C   0  0  0  0  0  3  0  0  0  0  0  0
  -25.9550  -26.8220   19.6050 C   0  0  0  0  0  3  0  0  0  0  0  0
  -24.8360  -27.6820   19.5840 C   0  0  0  0  0  3  0  0  0  0  0  0
  -23.6510  -29.8520   20.2470 C   0  0  0  0  0  2  0  0  0  0  0  0
  -24.7070  -31.1010   22.1680 N   0  0  0  0  0  0  0  0  0  0  0  0
  -23.5490  -32.2290   23.7750 O   0  0  0  0  0  0  0  0  0  0  0  0
  -22.7370  -29.5430   22.5880 C   0  0  0  0  0  0  0  0  0  0  0  0
  -21.4080  -29.3820   22.4590 N   0  0  0  0  0  0  0  0  0  0  0  0
  -23.4000  -28.9180   23.4200 O   0  0  0  0  0  0  0  0  0  0  0  0
  -20.9280  -29.9380   21.7640 H   0  0  0  0  0  0  0  0  0  0  0  0
  -18.0160  -28.2090   22.9660 C   0  0  0  0  0  0  0  0  0  0  0  0
  -20.5770  -28.4570   23.2340 C   0  0  0  0  0  3  0  0  0  0  0  0
  -20.6700  -27.0190   22.6700 C   0  0  0  0  0  2  0  0  0  0  0  0
  -19.5670  -26.6980   21.6560 C   0  0  0  0  0  2  0  0  0  0  0  0
  -18.1850  -26.8550   22.2970 C   0  0  0  0  0  2  0  0  0  0  0  0
  -19.1390  -28.9670   23.3920 C   0  0  0  0  0  0  0  0  0  0  0  0
  -18.9250  -30.2320   23.9820 C   0  0  0  0  0  3  0  0  0  0  0  0
  -17.6230  -30.7400   24.1470 C   0  0  0  0  0  3  0  0  0  0  0  0
  -16.5150  -29.9800   23.7350 C   0  0  0  0  0  3  0  0  0  0  0  0
  -16.7120  -28.7160   23.1500 C   0  0  0  0  0  3  0  0  0  0  0  0
  -25.9140  -32.5640   23.8820 C   0  0  0  0  0  3  0  0  0  0  0  0
  -25.6060  -33.9660   24.2120 N   0  0  0  0  0  0  0  0  0  0  0  0
  -25.9280  -35.0210   23.4510 C   0  0  0  0  0  0  0  0  0  0  0  0
  -26.5790  -34.9160   22.4080 O   0  0  0  0  0  0  0  0  0  0  0  0
  -25.0230  -34.1210   25.0210 H   0  0  0  0  0  0  0  0  0  0  0  0
  -24.1900  -36.8170   23.1440 C   0  0  0  0  0  1  0  0  0  0  0  0
  -25.4550  -36.4120   23.9200 C   0  0  0  0  0  3  0  0  0  0  0  0
  -27.6070  -37.3080   24.6920 C   0  0  0  0  0  1  0  0  0  0  0  0
  -26.4840  -37.4630   23.7710 N   0  0  0  0  0  0  0  0  0  0  0  0
  -26.0820  -38.3870   23.9120 H   0  0  0  0  0  0  0  0  0  0  0  0
  -26.4170  -31.7970   25.1670 C   0  0  1  0  0  0  0  0  0  0  0  0
  -25.3160  -31.5730   26.2290 C   0  0  0  0  0  1  0  0  0  0  0  0
  -26.9940  -30.4130   24.7930 C   0  0  0  0  0  1  0  0  0  0  0  0
  -27.5690  -32.5880   25.8300 C   0  0  0  0  0  1  0  0  0  0  0  0
  2  5  2  0
  2  6  1  0
  3 48  1  0
  3  1  2  0
  4 17  1  0
  4  1  1  0
  5  3  1  0
  6  4  2  0
  7  5  1  0
  8  6  1  0
  9 17  1  0
 10 15  1  0
 11 12  1  0
 11 10  1  0
 13 12  1  0
 13 22  1  0
 13 14  1  0
 15  9  1  0
 15 14  1  0
 16  9  2  0
 17 18  1  0
 19 20  2  0
 20 39  1  0
 21 20  1  0
 21 24  1  0
 22 23  1  0
 22 19  1  0
 23 21  2  0
 24 25  1  0
 25 26  2  0
 27 30  1  0
 27 26  1  0
 28 27  2  0
 29 28  1  0
 29 24  2  0
 30 31  1  0
 31 32  1  0
 32 33  2  0
 34 33  1  0
 34 38  1  0
 35 34  2  0
 36 31  2  0
 36 35  1  0
 37 36  1  0
 39 40  1  0
 40 43  1  0
 40 42  1  0
 41 39  2  0
 44 45  1  0
 44 19  1  0
 46 44  1  0
 47 49  2  0
 48 47  1  0
 48 50  1  0
 51 47  1  0
 51 52  1  0
 53 64  2  0
 54 52  1  0
 54 59  1  0
 55 63  1  0
 55 65  1  0
 56 62  1  0
 56 58  1  0
 57 63  1  0
 58 59  2  0
 58 57  1  0
 60 54  2  0
 61 60  1  0
 61 56  2  0
 62 55  1  0
 63 53  1  0
 65 67  2  0
 66 65  1  0
 68 66  1  0
 69 78  2  0
 69 74  1  0
 70 66  1  0
 70 74  1  0
 71 70  1  0
 72 73  1  0
 72 71  1  0
 73 69  1  0
 74 75  2  0
 75 76  1  0
 77 76  2  0
 78 77  1  0
 79 53  1  0
 79 80  1  0
 79 89  1  0
 80 83  1  0
 81 85  1  0
 81 80  1  0
 82 81  2  0
 85 84  1  0
 87 88  1  0
 87 85  1  0
 87 86  1  0
 89 92  1  1
 89 90  1  0
 91 89  1  0
M  ISO  4   9 100  17 100  51 101  52 101
M  END
>  <TORSDO>  (80) 
F 18

>  <SCORE>  (80) 
-14.652

>  <name>  (80) 
79

>  <ligand_id>  (80) 
79

>  <original_smiles>  (80) 
[H]c1c([H])c([H])c2c(c1[H])C([H])([H])C([H])([H])C([H])([H])C2([H])N([H])C(=O)C1([H])N(C(=O)C([H])(N([H])C(=O)C([H])(N([H])C([H])([H])[H])C([H])([H])[H])C(C([H])([H])[H])(C([H])([H])[H])C([H])([H])[H])C([H])([H])c2c([H])c(OC([H])([H])C(=O)N([H])c3c([H])c(N([H])C(=O)N4C([H])([H])C([H])([H])C([H])([H])C([H])(n5nc(-c6c([H])c([H])c(Oc7c([H])c([H])c(F)c([H])c7F)c([H])c6[H])c(C(=O)N([H])[H])c5N([H])[H])C4([H])[H])c(F)c([H])c3F)c([H])c([H])c2C1([H])[H]

>  <smiles>  (80) 
[H]c1c([H])c([H])c2c(c1[H])C([H])([H])C([H])([H])C([H])([H])C2([H])N([H])C(=O)C1([H])N(C(=O)C([H])(N([H])C(=O)C([H])(N([H])C([H])([H])[H])C([H])([H])[H])C(C([H])([H])[H])(C([H])([H])[H])C([H])([H])[H])C([H])([H])c2c([H])c(OC([H])([H])C(=O)N([H])c3c([H])c(N([H])C(=O)N4C([H])([H])C([H])([H])C([H])([H])C([H])(n5nc(-c6c([H])c([H])c(Oc7c([H])c([H])c(F)c([H])c7F)c([H])c6[H])c(C(=O)N([H])[H])c5N([H])[H])C4([H])[H])c(F)c([H])c3F)c([H])c([H])c2C1([H])[H]

$$$$
80:0:0
     RDKit          3D

 91 99  0  0  1  0  0  0  0  0999 V2000
  -29.5310  -21.0180   19.8850 C   0  0  0  0  0  2  0  0  0  0  0  0
  -28.1720  -18.7850   17.8270 C   0  0  0  0  0  2  0  0  0  0  0  0
  -29.1340  -17.7440   18.3810 C   0  0  0  0  0  2  0  0  0  0  0  0
  -27.6900  -19.5060   19.0840 C   0  0  0  0  0  2  0  0  0  0  0  0
  -29.7120  -18.3660   19.6720 C   0  0  0  0  0  3  0  0  0  0  0  0
  -28.8710  -19.6290   19.9840 N   0  0  1  0  0  4  0  0  0  0  0  0
  -28.5190  -19.5750   20.9280 H   0  0  0  0  0  0  0  0  0  0  0  0
  -29.9360  -17.2680   20.8350 C   0  0  0  0  0  2  0  0  0  0  0  0
  -30.5980  -14.7040   20.4450 C   0  0  0  0  0  0  0  0  0  0  0  0
  -30.4480  -12.4250   19.4490 C   0  0  0  0  0  2  0  0  0  0  0  0
  -29.5150  -12.4920   18.2160 C   0  0  0  0  0  2  0  0  0  0  0  0
  -28.0360  -12.3280   18.6310 C   0  0  0  0  0  2  0  0  0  0  0  0
  -27.6440  -13.2190   19.8390 C   0  0  0  0  0  3  0  0  0  0  0  0
  -28.6930  -13.1220   20.9690 C   0  0  0  0  0  2  0  0  0  0  0  0
  -29.9980  -13.4710   20.3870 N   0  0  0  0  0  0  0  0  0  0  0  0
  -31.7950  -14.8480   20.1920 O   0  0  0  0  0  0  0  0  0  0  0  0
  -29.7470  -15.7750   20.5820 N   0  0  0  0  0  0  0  0  0  0  0  0
  -28.7840  -15.4830   20.6310 H   0  0  0  0  0  0  0  0  0  0  0  0
  -25.2510  -13.8160   20.5610 C   0  0  0  0  0  0  0  0  0  0  0  0
  -24.1800  -13.0430   20.9190 C   0  0  0  0  0  0  0  0  0  0  0  0
  -24.6390  -11.6910   20.8740 C   0  0  0  0  0  0  0  0  0  0  0  0
  -26.2930  -12.9350   20.3190 N   0  0  0  0  0  0  0  0  0  0  0  0
  -25.9300  -11.6520   20.5680 N   0  0  0  0  0  0  0  0  0  0  0  0
  -23.9070  -10.4290   21.0400 C   0  0  0  0  0  0  0  0  0  0  0  0
  -24.3630   -9.4220   21.9190 C   0  0  0  0  0  3  0  0  0  0  0  0
  -23.6290   -8.2260   22.0770 C   0  0  0  0  0  3  0  0  0  0  0  0
  -22.4270   -8.0300   21.3570 C   0  0  0  0  0  0  0  0  0  0  0  0
  -21.9890   -9.0260   20.4670 C   0  0  0  0  0  3  0  0  0  0  0  0
  -22.7230  -10.2140   20.3050 C   0  0  0  0  0  3  0  0  0  0  0  0
  -21.6640   -6.8890   21.4260 O   0  0  0  0  0  0  0  0  0  0  0  0
  -21.6840   -6.0740   22.5290 C   0  0  0  0  0  0  0  0  0  0  0  0
  -21.4000   -6.5630   23.8230 C   0  0  0  0  0  3  0  0  0  0  0  0
  -21.3650   -5.6800   24.9190 C   0  0  0  0  0  3  0  0  0  0  0  0
  -21.6040   -4.3060   24.7240 C   0  0  0  0  0  0  0  0  0  0  0  0
  -21.8800   -3.8150   23.4360 C   0  0  0  0  0  3  0  0  0  0  0  0
  -21.9180   -4.6960   22.3420 C   0  0  0  0  0  0  0  0  0  0  0  0
  -22.1660   -4.2160   21.0990 F   0  0  0  0  0  0  0  0  0  0  0  0
  -21.5630   -3.4550   25.7750 F   0  0  0  0  0  0  0  0  0  0  0  0
  -22.7820  -13.5220   21.1870 C   0  0  0  0  0  0  0  0  0  0  0  0
  -22.0440  -12.8270   22.0440 N   0  0  0  0  0  0  0  0  0  0  0  0
  -22.3530  -14.5530   20.6680 O   0  0  0  0  0  0  0  0  0  0  0  0
  -22.4040  -11.9970   22.4920 H   0  0  0  0  0  0  0  0  0  0  0  0
  -21.1020  -13.1280   22.2560 H   0  0  0  0  0  0  0  0  0  0  0  0
  -25.4160  -15.1880   20.3990 N   0  0  0  0  0  0  0  0  0  0  0  0
  -24.6280  -15.8220   20.4810 H   0  0  0  0  0  0  0  0  0  0  0  0
  -26.2410  -15.6290   20.0180 H   0  0  0  0  0  0  0  0  0  0  0  0
  -28.6140  -22.2680   20.2770 C   0  0  0  0  0  0  0  0  0  0  0  0
  -27.4870  -22.0640   20.7430 O   0  0  0  0  0  0  0  0  0  0  0  0
  -29.1160  -23.7750   20.1430 C   0  0  0  0  0  3  0  0  0  0  0  0
  -28.0190  -24.9330   19.9430 C   0  0  0  0  0  3  0  0  0  0  0  0
  -28.3050  -26.3920   20.1340 O   0  0  0  0  0  0  0  0  0  0  0  0
  -24.6320  -31.8560   23.2020 C   0  0  0  0  0  0  0  0  0  0  0  0
  -27.2100  -27.2870   20.0970 C   0  0  0  0  0  0  0  0  0  0  0  0
  -23.4240  -30.4870   21.5430 C   0  0  0  0  0  3  0  0  0  0  0  0
  -24.8660  -28.9440   20.1040 C   0  0  0  0  0  0  0  0  0  0  0  0
  -25.9710  -30.7790   21.3740 C   0  0  0  0  0  2  0  0  0  0  0  0
  -26.0420  -29.4050   20.7120 C   0  0  0  0  0  0  0  0  0  0  0  0
  -27.2190  -28.5900   20.6960 C   0  0  0  0  0  3  0  0  0  0  0  0
  -26.0070  -26.8940   19.4650 C   0  0  0  0  0  3  0  0  0  0  0  0
  -24.8540  -27.6950   19.4700 C   0  0  0  0  0  3  0  0  0  0  0  0
  -23.6380  -29.8290   20.1570 C   0  0  0  0  0  2  0  0  0  0  0  0
  -24.6950  -31.0560   22.0980 N   0  0  0  0  0  0  0  0  0  0  0  0
  -23.5480  -32.1370   23.7340 O   0  0  0  0  0  0  0  0  0  0  0  0
  -22.7490  -29.4620   22.4880 C   0  0  0  0  0  0  0  0  0  0  0  0
  -21.4200  -29.3060   22.3650 N   0  0  0  0  0  0  0  0  0  0  0  0
  -23.4200  -28.8130   23.2940 O   0  0  0  0  0  0  0  0  0  0  0  0
  -20.9360  -29.8880   21.6960 H   0  0  0  0  0  0  0  0  0  0  0  0
  -18.0300  -28.1360   22.8460 C   0  0  0  0  0  0  0  0  0  0  0  0
  -20.5900  -28.3680   23.1240 C   0  0  0  0  0  3  0  0  0  0  0  0
  -20.6770  -26.9400   22.5380 C   0  0  0  0  0  2  0  0  0  0  0  0
  -19.5760  -26.6360   21.5180 C   0  0  0  0  0  2  0  0  0  0  0  0
  -18.1940  -26.7910   22.1600 C   0  0  0  0  0  2  0  0  0  0  0  0
  -19.1550  -28.8830   23.2860 C   0  0  0  0  0  0  0  0  0  0  0  0
  -18.9480  -30.1430   23.8890 C   0  0  0  0  0  3  0  0  0  0  0  0
  -17.6480  -30.6540   24.0550 C   0  0  0  0  0  3  0  0  0  0  0  0
  -16.5380  -29.9040   23.6320 C   0  0  0  0  0  3  0  0  0  0  0  0
  -16.7280  -28.6470   23.0330 C   0  0  0  0  0  3  0  0  0  0  0  0
  -25.9160  -32.4750   23.8350 C   0  0  0  0  0  3  0  0  0  0  0  0
  -25.5970  -33.8560   24.2280 N   0  0  0  0  0  0  0  0  0  0  0  0
  -25.9050  -34.9430   23.5090 C   0  0  0  0  0  0  0  0  0  0  0  0
  -26.5590  -34.8910   22.4650 O   0  0  0  0  0  0  0  0  0  0  0  0
  -25.0160  -33.9690   25.0460 H   0  0  0  0  0  0  0  0  0  0  0  0
  -24.1490  -36.7290   23.2630 C   0  0  0  0  0  1  0  0  0  0  0  0
  -25.4110  -36.3070   24.0330 C   0  0  0  0  0  3  0  0  0  0  0  0
  -27.5580  -37.1800   24.8460 C   0  0  0  0  0  1  0  0  0  0  0  0
  -26.4280  -37.3770   23.9410 N   0  0  0  0  0  0  0  0  0  0  0  0
  -26.0140  -38.2840   24.1410 H   0  0  0  0  0  0  0  0  0  0  0  0
  -26.4530  -31.6570   25.0720 C   0  0  1  0  0  0  0  0  0  0  0  0
  -25.3780  -31.3720   26.1460 C   0  0  0  0  0  1  0  0  0  0  0  0
  -27.0370  -30.2990   24.6190 C   0  0  0  0  0  1  0  0  0  0  0  0
  -27.6100  -32.4280   25.7490 C   0  0  0  0  0  1  0  0  0  0  0  0
  1  6  1  0
  1 47  1  0
  2  3  1  0
  2  4  1  0
  3  5  1  0
  4  6  1  0
  5  6  1  0
  5  8  1  0
  6  7  1  1
  9 17  1  0
 10 15  1  0
 11 12  1  0
 11 10  1  0
 13 12  1  0
 13 22  1  0
 13 14  1  0
 15  9  1  0
 15 14  1  0
 16  9  2  0
 17 18  1  0
 17  8  1  0
 19 20  2  0
 20 39  1  0
 21 20  1  0
 21 24  1  0
 22 19  1  0
 22 23  1  0
 23 21  2  0
 24 25  1  0
 25 26  2  0
 27 30  1  0
 27 26  1  0
 28 27  2  0
 29 28  1  0
 29 24  2  0
 30 31  1  0
 31 32  1  0
 32 33  2  0
 34 33  1  0
 34 38  1  0
 35 34  2  0
 36 31  2  0
 36 35  1  0
 37 36  1  0
 39 40  1  0
 40 43  1  0
 40 42  1  0
 41 39  2  0
 44 45  1  0
 44 19  1  0
 46 44  1  0
 47 48  2  0
 49 47  1  0
 50 51  1  0
 50 49  2  0
 52 63  2  0
 53 51  1  0
 53 58  1  0
 54 62  1  0
 54 64  1  0
 55 61  1  0
 55 57  1  0
 56 62  1  0
 57 56  1  0
 58 57  2  0
 59 60  1  0
 59 53  2  0
 60 55  2  0
 61 54  1  0
 62 52  1  0
 64 66  2  0
 65 64  1  0
 67 65  1  0
 68 77  2  0
 68 73  1  0
 69 65  1  0
 69 73  1  0
 70 69  1  0
 71 72  1  0
 71 70  1  0
 72 68  1  0
 73 74  2  0
 74 75  1  0
 76 75  2  0
 77 76  1  0
 78 52  1  0
 78 79  1  0
 78 88  1  0
 79 82  1  0
 80 84  1  0
 80 79  1  0
 81 80  2  0
 84 83  1  0
 86 84  1  0
 86 87  1  0
 86 85  1  0
 88 91  1  1
 88 89  1  0
 90 88  1  0
M  ISO  4   9 100  17 100  50 101  51 101
M  END
>  <TORSDO>  (81) 
F 21

>  <SCORE>  (81) 
-13.425

>  <name>  (81) 
80

>  <ligand_id>  (81) 
80

>  <original_smiles>  (81) 
[H]c1c([H])c([H])c2c(c1[H])C([H])([H])C([H])([H])C([H])([H])C2([H])N([H])C(=O)C1([H])N(C(=O)C([H])(N([H])C(=O)C([H])(N([H])C([H])([H])[H])C([H])([H])[H])C(C([H])([H])[H])(C([H])([H])[H])C([H])([H])[H])C([H])([H])c2c([H])c(OC([H])([H])C([H])([H])C(=O)C([H])([H])[N+]3([H])C([H])([H])C([H])([H])C([H])([H])C3([H])C([H])([H])N([H])C(=O)N3C([H])([H])C([H])([H])C([H])([H])C([H])(n4nc(-c5c([H])c([H])c(Oc6c([H])c([H])c(F)c([H])c6F)c([H])c5[H])c(C(=O)N([H])[H])c4N([H])[H])C3([H])[H])c([H])c([H])c2C1([H])[H]

>  <smiles>  (81) 
[H]c1c([H])c([H])c2c(c1[H])C([H])([H])C([H])([H])C([H])([H])C2([H])N([H])C(=O)C1([H])N(C(=O)C([H])(N([H])C(=O)C([H])(N([H])C([H])([H])[H])C([H])([H])[H])C(C([H])([H])[H])(C([H])([H])[H])C([H])([H])[H])C([H])([H])c2c([H])c(OC([H])([H])C([H])([H])C(=O)C([H])([H])[N+]3([H])C([H])([H])C([H])([H])C([H])([H])C3([H])C([H])([H])N([H])C(=O)N3C([H])([H])C([H])([H])C([H])([H])C([H])(n4nc(-c5c([H])c([H])c(Oc6c([H])c([H])c(F)c([H])c6F)c([H])c5[H])c(C(=O)N([H])[H])c4N([H])[H])C3([H])[H])c([H])c([H])c2C1([H])[H]

$$$$
81:0:0
     RDKit          3D

 90 98  0  0  1  0  0  0  0  0999 V2000
  -28.1290  -20.3730   20.3220 C   0  0  0  0  0  3  0  0  0  0  0  0
  -30.5840  -19.1280   20.2680 C   0  0  0  0  0  3  0  0  0  0  0  0
  -29.1710  -21.3910   20.2830 C   0  0  0  0  0  0  0  0  0  0  0  0
  -29.5400  -18.1220   20.3190 C   0  0  0  0  0  0  0  0  0  0  0  0
  -28.2970  -18.8930   20.3400 C   0  0  0  0  0  0  0  0  0  0  0  0
  -30.4160  -20.6060   20.2550 C   0  0  0  0  0  0  0  0  0  0  0  0
  -27.1590  -18.1610   20.3860 F   0  0  0  0  0  0  0  0  0  0  0  0
  -31.5790  -21.2990   20.2120 F   0  0  0  0  0  0  0  0  0  0  0  0
  -30.4300  -15.3190   20.2180 C   0  0  0  0  0  0  0  0  0  0  0  0
  -30.4270  -12.8900   19.3190 C   0  0  0  0  0  2  0  0  0  0  0  0
  -29.4750  -12.7130   18.1080 C   0  0  0  0  0  2  0  0  0  0  0  0
  -28.0340  -12.4390   18.5740 C   0  0  0  0  0  2  0  0  0  0  0  0
  -27.6070  -13.3820   19.7270 C   0  0  0  0  0  3  0  0  0  0  0  0
  -28.6800  -13.4940   20.8310 C   0  0  0  0  0  2  0  0  0  0  0  0
  -29.9010  -14.0040   20.1840 N   0  0  0  0  0  0  0  0  0  0  0  0
  -31.6390  -15.3790   19.9470 O   0  0  0  0  0  0  0  0  0  0  0  0
  -29.5790  -16.5100   20.3670 N   0  0  0  0  0  0  0  0  0  0  0  0
  -28.6430  -16.1740   20.5360 H   0  0  0  0  0  0  0  0  0  0  0  0
  -25.2520  -13.9210   20.5480 C   0  0  0  0  0  0  0  0  0  0  0  0
  -24.2000  -13.1330   20.9240 C   0  0  0  0  0  0  0  0  0  0  0  0
  -24.6680  -11.7860   20.8500 C   0  0  0  0  0  0  0  0  0  0  0  0
  -26.2900  -13.0540   20.2580 N   0  0  0  0  0  0  0  0  0  0  0  0
  -25.9530  -11.7610   20.5080 N   0  0  0  0  0  0  0  0  0  0  0  0
  -23.9470  -10.5170   21.0260 C   0  0  0  0  0  0  0  0  0  0  0  0
  -24.3760   -9.5450   21.9580 C   0  0  0  0  0  3  0  0  0  0  0  0
  -23.6520   -8.3450   22.1240 C   0  0  0  0  0  3  0  0  0  0  0  0
  -22.4860   -8.1070   21.3590 C   0  0  0  0  0  0  0  0  0  0  0  0
  -22.0770   -9.0680   20.4170 C   0  0  0  0  0  3  0  0  0  0  0  0
  -22.8010  -10.2590   20.2480 C   0  0  0  0  0  3  0  0  0  0  0  0
  -21.7350   -6.9590   21.4330 O   0  0  0  0  0  0  0  0  0  0  0  0
  -21.6390   -6.2370   22.5960 C   0  0  0  0  0  0  0  0  0  0  0  0
  -21.0990   -6.7920   23.7760 C   0  0  0  0  0  3  0  0  0  0  0  0
  -20.9540   -5.9930   24.9280 C   0  0  0  0  0  3  0  0  0  0  0  0
  -21.3390   -4.6400   24.9000 C   0  0  0  0  0  0  0  0  0  0  0  0
  -21.8730   -4.0840   23.7240 C   0  0  0  0  0  3  0  0  0  0  0  0
  -22.0190   -4.8800   22.5750 C   0  0  0  0  0  0  0  0  0  0  0  0
  -22.5140   -4.3330   21.4380 F   0  0  0  0  0  0  0  0  0  0  0  0
  -21.1940   -3.8710   26.0050 F   0  0  0  0  0  0  0  0  0  0  0  0
  -22.8080  -13.6010   21.2350 C   0  0  0  0  0  0  0  0  0  0  0  0
  -22.1030  -12.8890   22.1070 N   0  0  0  0  0  0  0  0  0  0  0  0
  -22.3570  -14.6340   20.7420 O   0  0  0  0  0  0  0  0  0  0  0  0
  -22.4830  -12.0540   22.5270 H   0  0  0  0  0  0  0  0  0  0  0  0
  -21.1710  -13.1840   22.3580 H   0  0  0  0  0  0  0  0  0  0  0  0
  -25.4010  -15.2960   20.4010 N   0  0  0  0  0  0  0  0  0  0  0  0
  -24.6310  -15.9360   20.5600 H   0  0  0  0  0  0  0  0  0  0  0  0
  -26.2270  -15.7650   20.0520 H   0  0  0  0  0  0  0  0  0  0  0  0
  -29.1290  -23.1130   20.3510 C   0  0  0  0  0  0  0  0  0  0  0  0
  -30.2190  -23.6260   20.6220 O   0  0  0  0  0  0  0  0  0  0  0  0
  -27.9550  -24.3660   20.1290 C   0  0  0  0  0  2  0  0  0  0  0  0
  -28.2210  -25.9790   20.2810 O   0  0  0  0  0  0  0  0  0  0  0  0
  -24.6580  -31.9120   23.2480 C   0  0  0  0  0  0  0  0  0  0  0  0
  -27.2020  -27.0580   20.2230 C   0  0  0  0  0  0  0  0  0  0  0  0
  -23.4560  -30.5200   21.6110 C   0  0  0  0  0  3  0  0  0  0  0  0
  -24.8990  -28.9180   20.1850 C   0  0  0  0  0  0  0  0  0  0  0  0
  -26.0200  -30.7360   21.4560 C   0  0  0  0  0  2  0  0  0  0  0  0
  -26.0880  -29.3300   20.7990 C   0  0  0  0  0  0  0  0  0  0  0  0
  -27.2350  -28.4200   20.7930 C   0  0  0  0  0  3  0  0  0  0  0  0
  -25.9810  -26.7890   19.5650 C   0  0  0  0  0  3  0  0  0  0  0  0
  -24.8690  -27.6670   19.5470 C   0  0  0  0  0  3  0  0  0  0  0  0
  -23.6810  -29.8380   20.2340 C   0  0  0  0  0  2  0  0  0  0  0  0
  -24.7340  -31.0830   22.1590 N   0  0  0  0  0  0  0  0  0  0  0  0
  -23.5700  -32.2040   23.7740 O   0  0  0  0  0  0  0  0  0  0  0  0
  -22.7640  -29.5240   22.5780 C   0  0  0  0  0  0  0  0  0  0  0  0
  -21.4360  -29.3520   22.4460 N   0  0  0  0  0  0  0  0  0  0  0  0
  -23.4280  -28.9070   23.4140 O   0  0  0  0  0  0  0  0  0  0  0  0
  -20.9520  -29.9010   21.7490 H   0  0  0  0  0  0  0  0  0  0  0  0
  -18.0530  -28.1460   22.9570 C   0  0  0  0  0  0  0  0  0  0  0  0
  -20.6130  -28.4140   23.2170 C   0  0  0  0  0  3  0  0  0  0  0  0
  -20.7150  -26.9820   22.6420 C   0  0  0  0  0  2  0  0  0  0  0  0
  -19.6110  -26.6600   21.6290 C   0  0  0  0  0  2  0  0  0  0  0  0
  -18.2300  -26.7990   22.2770 C   0  0  0  0  0  2  0  0  0  0  0  0
  -19.1710  -28.9110   23.3850 C   0  0  0  0  0  0  0  0  0  0  0  0
  -18.9480  -30.1690   23.9850 C   0  0  0  0  0  3  0  0  0  0  0  0
  -17.6410  -30.6640   24.1600 C   0  0  0  0  0  3  0  0  0  0  0  0
  -16.5390  -29.8970   23.7460 C   0  0  0  0  0  3  0  0  0  0  0  0
  -16.7450  -28.6400   23.1510 C   0  0  0  0  0  3  0  0  0  0  0  0
  -25.9320  -32.5510   23.8790 C   0  0  0  0  0  3  0  0  0  0  0  0
  -25.6190  -33.9520   24.2150 N   0  0  0  0  0  0  0  0  0  0  0  0
  -25.9220  -35.0100   23.4520 C   0  0  0  0  0  0  0  0  0  0  0  0
  -26.5560  -34.9120   22.3990 O   0  0  0  0  0  0  0  0  0  0  0  0
  -25.0490  -34.1000   25.0340 H   0  0  0  0  0  0  0  0  0  0  0  0
  -24.1700  -36.7990   23.1740 C   0  0  0  0  0  1  0  0  0  0  0  0
  -25.4470  -36.3980   23.9300 C   0  0  0  0  0  3  0  0  0  0  0  0
  -27.6020  -37.3090   24.6820 C   0  0  0  0  0  1  0  0  0  0  0  0
  -26.4690  -37.4580   23.7720 N   0  0  0  0  0  0  0  0  0  0  0  0
  -26.0610  -38.3760   23.9200 H   0  0  0  0  0  0  0  0  0  0  0  0
  -26.4380  -31.7850   25.1640 C   0  0  1  0  0  0  0  0  0  0  0  0
  -25.3360  -31.5480   26.2230 C   0  0  0  0  0  1  0  0  0  0  0  0
  -27.0280  -30.4060   24.7880 C   0  0  0  0  0  1  0  0  0  0  0  0
  -27.5820  -32.5830   25.8330 C   0  0  0  0  0  1  0  0  0  0  0  0
  1  5  1  0
  2  4  1  0
  3  1  2  0
  3 47  1  0
  4  5  2  0
  4 17  1  0
  5  7  1  0
  6  2  2  0
  6  3  1  0
  8  6  1  0
  9 17  1  0
 10 15  1  0
 11 12  1  0
 11 10  1  0
 13 12  1  0
 13 22  1  0
 13 14  1  0
 15  9  1  0
 15 14  1  0
 16  9  2  0
 17 18  1  0
 19 20  2  0
 20 39  1  0
 21 20  1  0
 21 24  1  0
 22 23  1  0
 22 19  1  0
 23 21  2  0
 24 25  1  0
 25 26  2  0
 27 30  1  0
 27 26  1  0
 28 27  2  0
 29 28  1  0
 29 24  2  0
 30 31  1  0
 31 32  1  0
 32 33  2  0
 34 33  1  0
 34 38  1  0
 35 34  2  0
 36 31  2  0
 36 35  1  0
 37 36  1  0
 39 40  1  0
 40 43  1  0
 40 42  1  0
 41 39  2  0
 44 19  1  0
 44 45  1  0
 46 44  1  0
 47 48  2  0
 49 50  1  0
 49 47  1  0
 51 62  2  0
 52 50  1  0
 52 57  1  0
 53 61  1  0
 53 63  1  0
 54 60  1  0
 54 56  1  0
 55 61  1  0
 56 55  1  0
 57 56  2  0
 58 52  2  0
 59 58  1  0
 59 54  2  0
 60 53  1  0
 61 51  1  0
 63 65  2  0
 64 63  1  0
 66 64  1  0
 67 76  2  0
 67 72  1  0
 68 64  1  0
 68 72  1  0
 69 68  1  0
 70 71  1  0
 70 69  1  0
 71 67  1  0
 72 73  2  0
 73 74  1  0
 75 74  2  0
 76 75  1  0
 77 51  1  0
 77 78  1  0
 77 87  1  0
 78 81  1  0
 79 83  1  0
 79 78  1  0
 80 79  2  0
 83 82  1  0
 85 86  1  0
 85 83  1  0
 85 84  1  0
 87 90  1  1
 87 88  1  0
 89 87  1  0
M  ISO  4   9 100  17 100  49 101  50 101
M  END
>  <TORSDO>  (82) 
F 18

>  <SCORE>  (82) 
-15.999

>  <name>  (82) 
81

>  <ligand_id>  (82) 
81

>  <original_smiles>  (82) 
[H]c1c([H])c([H])c2c(c1[H])C([H])([H])C([H])([H])C([H])([H])C2([H])N([H])C(=O)C1([H])N(C(=O)C([H])(N([H])C(=O)C([H])(N([H])C([H])([H])[H])C([H])([H])[H])C(C([H])([H])[H])(C([H])([H])[H])C([H])([H])[H])C([H])([H])c2c([H])c(OC([H])([H])C(=O)c3c([H])c(F)c(N([H])C(=O)N4C([H])([H])C([H])([H])C([H])([H])C([H])(n5nc(-c6c([H])c([H])c(Oc7c([H])c([H])c(F)c([H])c7F)c([H])c6[H])c(C(=O)N([H])[H])c5N([H])[H])C4([H])[H])c([H])c3F)c([H])c([H])c2C1([H])[H]

>  <smiles>  (82) 
[H]c1c([H])c([H])c2c(c1[H])C([H])([H])C([H])([H])C([H])([H])C2([H])N([H])C(=O)C1([H])N(C(=O)C([H])(N([H])C(=O)C([H])(N([H])C([H])([H])[H])C([H])([H])[H])C(C([H])([H])[H])(C([H])([H])[H])C([H])([H])[H])C([H])([H])c2c([H])c(OC([H])([H])C(=O)c3c([H])c(F)c(N([H])C(=O)N4C([H])([H])C([H])([H])C([H])([H])C([H])(n5nc(-c6c([H])c([H])c(Oc7c([H])c([H])c(F)c([H])c7F)c([H])c6[H])c(C(=O)N([H])[H])c5N([H])[H])C4([H])[H])c([H])c3F)c([H])c([H])c2C1([H])[H]

$$$$
82:0:0
     RDKit          3D

 97106  0  0  1  0  0  0  0  0999 V2000
  -29.0390  -21.2760   18.0410 C   0  0  0  0  0  2  0  0  0  0  0  0
  -31.5750  -21.3070   18.3730 C   0  0  0  0  0  2  0  0  0  0  0  0
  -29.1800  -22.6450   17.3600 C   0  0  0  0  0  2  0  0  0  0  0  0
  -31.5810  -22.7090   17.7200 C   0  0  0  0  0  2  0  0  0  0  0  0
  -30.3390  -20.4260   18.0090 C   0  0  0  0  0  3  0  0  0  0  0  0
  -30.2900  -23.3840   17.9940 N   0  0  1  0  0  4  0  0  0  0  0  0
  -30.1280  -23.3110   18.9910 H   0  0  0  0  0  0  0  0  0  0  0  0
  -31.2430  -18.7610   19.7700 C   0  0  0  0  0  3  0  0  0  0  0  0
  -31.1580  -17.5630   20.5080 C   0  0  0  0  0  3  0  0  0  0  0  0
  -28.9810  -17.1240   19.5260 C   0  0  0  0  0  3  0  0  0  0  0  0
  -30.2130  -19.1500   18.8730 C   0  0  0  0  0  0  0  0  0  0  0  0
  -30.0330  -16.7260   20.3660 C   0  0  0  0  0  0  0  0  0  0  0  0
  -29.0790  -18.3000   18.7650 C   0  0  0  0  0  0  0  0  0  0  0  0
  -28.0740  -18.5700   17.9000 F   0  0  0  0  0  0  0  0  0  0  0  0
  -30.6810  -14.4300   20.5190 C   0  0  0  0  0  0  0  0  0  0  0  0
  -30.3660  -12.3000   19.3460 C   0  0  0  0  0  2  0  0  0  0  0  0
  -29.4230  -12.5170   18.1430 C   0  0  0  0  0  2  0  0  0  0  0  0
  -27.9490  -12.3860   18.5680 C   0  0  0  0  0  2  0  0  0  0  0  0
  -27.6060  -13.2270   19.8260 C   0  0  0  0  0  3  0  0  0  0  0  0
  -28.6530  -12.9940   20.9400 C   0  0  0  0  0  2  0  0  0  0  0  0
  -29.9900  -13.2690   20.3850 N   0  0  0  0  0  0  0  0  0  0  0  0
  -31.8240  -14.5900   20.0780 O   0  0  0  0  0  0  0  0  0  0  0  0
  -29.9630  -15.4580   20.9940 N   0  0  0  0  0  0  0  0  0  0  0  0
  -29.0470  -15.1860   21.3190 H   0  0  0  0  0  0  0  0  0  0  0  0
  -25.2080  -13.8480   20.5290 C   0  0  0  0  0  0  0  0  0  0  0  0
  -24.1380  -13.0800   20.9000 C   0  0  0  0  0  0  0  0  0  0  0  0
  -24.5960  -11.7260   20.8690 C   0  0  0  0  0  0  0  0  0  0  0  0
  -26.2510  -12.9610   20.3010 N   0  0  0  0  0  0  0  0  0  0  0  0
  -25.8850  -11.6820   20.5630 N   0  0  0  0  0  0  0  0  0  0  0  0
  -23.8680  -10.4660   21.0570 C   0  0  0  0  0  0  0  0  0  0  0  0
  -24.2990   -9.4950   21.9870 C   0  0  0  0  0  3  0  0  0  0  0  0
  -23.5690   -8.2990   22.1640 C   0  0  0  0  0  3  0  0  0  0  0  0
  -22.3940   -8.0660   21.4090 C   0  0  0  0  0  0  0  0  0  0  0  0
  -21.9840   -9.0270   20.4680 C   0  0  0  0  0  3  0  0  0  0  0  0
  -22.7130  -10.2120   20.2890 C   0  0  0  0  0  3  0  0  0  0  0  0
  -21.6380   -6.9230   21.4930 O   0  0  0  0  0  0  0  0  0  0  0  0
  -21.5900   -6.1780   22.6440 C   0  0  0  0  0  0  0  0  0  0  0  0
  -21.1610   -6.7280   23.8700 C   0  0  0  0  0  3  0  0  0  0  0  0
  -21.0540   -5.9060   25.0120 C   0  0  0  0  0  3  0  0  0  0  0  0
  -21.3730   -4.5350   24.9230 C   0  0  0  0  0  0  0  0  0  0  0  0
  -21.7980   -3.9870   23.7000 C   0  0  0  0  0  3  0  0  0  0  0  0
  -21.9020   -4.8060   22.5630 C   0  0  0  0  0  0  0  0  0  0  0  0
  -22.2880   -4.2690   21.3810 F   0  0  0  0  0  0  0  0  0  0  0  0
  -21.2670   -3.7410   26.0150 F   0  0  0  0  0  0  0  0  0  0  0  0
  -22.7430  -13.5640   21.1750 C   0  0  0  0  0  0  0  0  0  0  0  0
  -22.0110  -12.8590   22.0330 N   0  0  0  0  0  0  0  0  0  0  0  0
  -22.3110  -14.5970   20.6670 O   0  0  0  0  0  0  0  0  0  0  0  0
  -22.3730  -12.0200   22.4600 H   0  0  0  0  0  0  0  0  0  0  0  0
  -21.0780  -13.1620   22.2700 H   0  0  0  0  0  0  0  0  0  0  0  0
  -25.3750  -15.2170   20.3530 N   0  0  0  0  0  0  0  0  0  0  0  0
  -24.5910  -15.8580   20.4180 H   0  0  0  0  0  0  0  0  0  0  0  0
  -26.2180  -15.6610   20.0160 H   0  0  0  0  0  0  0  0  0  0  0  0
  -30.2470  -24.8620   17.8250 C   0  0  0  0  0  2  0  0  0  0  0  0
  -30.2750  -25.5390   19.2240 C   0  0  0  0  0  3  0  0  0  0  0  0
  -29.8680  -24.6490   20.1410 F   0  0  0  0  0  0  0  0  0  0  0  0
  -29.4870  -26.8730   19.4120 C   0  0  0  0  0  2  0  0  0  0  0  0
  -28.3340  -26.6170   20.2090 O   0  0  0  0  0  0  0  0  0  0  0  0
  -24.5930  -31.8990   23.2440 C   0  0  0  0  0  0  0  0  0  0  0  0
  -27.2470  -27.4580   20.1500 C   0  0  0  0  0  0  0  0  0  0  0  0
  -23.3860  -30.4870   21.6120 C   0  0  0  0  0  3  0  0  0  0  0  0
  -24.8440  -28.9430   20.1940 C   0  0  0  0  0  0  0  0  0  0  0  0
  -25.9140  -30.8490   21.4080 C   0  0  0  0  0  2  0  0  0  0  0  0
  -26.0080  -29.4790   20.7660 C   0  0  0  0  0  0  0  0  0  0  0  0
  -27.2190  -28.7420   20.7410 C   0  0  0  0  0  3  0  0  0  0  0  0
  -26.0650  -26.9300   19.5960 C   0  0  0  0  0  3  0  0  0  0  0  0
  -24.8680  -27.6680   19.6050 C   0  0  0  0  0  3  0  0  0  0  0  0
  -23.5920  -29.7890   20.2410 C   0  0  0  0  0  2  0  0  0  0  0  0
  -24.6490  -31.0930   22.1460 N   0  0  0  0  0  0  0  0  0  0  0  0
  -23.5090  -32.1760   23.7820 O   0  0  0  0  0  0  0  0  0  0  0  0
  -22.7320  -29.4740   22.5810 C   0  0  0  0  0  0  0  0  0  0  0  0
  -21.4070  -29.2940   22.4520 N   0  0  0  0  0  0  0  0  0  0  0  0
  -23.4150  -28.8550   23.4000 O   0  0  0  0  0  0  0  0  0  0  0  0
  -20.9250  -29.8360   21.7480 H   0  0  0  0  0  0  0  0  0  0  0  0
  -18.0260  -28.1180   22.9590 C   0  0  0  0  0  0  0  0  0  0  0  0
  -20.5860  -28.3630   23.2250 C   0  0  0  0  0  3  0  0  0  0  0  0
  -20.6810  -26.9310   22.6510 C   0  0  0  0  0  2  0  0  0  0  0  0
  -19.5770  -26.6130   21.6390 C   0  0  0  0  0  2  0  0  0  0  0  0
  -18.1950  -26.7680   22.2810 C   0  0  0  0  0  2  0  0  0  0  0  0
  -19.1510  -28.8740   23.3850 C   0  0  0  0  0  0  0  0  0  0  0  0
  -18.9380  -30.1380   23.9750 C   0  0  0  0  0  3  0  0  0  0  0  0
  -17.6370  -30.6480   24.1420 C   0  0  0  0  0  3  0  0  0  0  0  0
  -16.5260  -29.8880   23.7340 C   0  0  0  0  0  3  0  0  0  0  0  0
  -16.7230  -28.6250   23.1470 C   0  0  0  0  0  3  0  0  0  0  0  0
  -25.8760  -32.5310   23.8620 C   0  0  0  0  0  3  0  0  0  0  0  0
  -26.3870  -31.7700   25.1460 C   0  0  1  0  0  0  0  0  0  0  0  0
  -25.2900  -31.5520   26.2140 C   0  0  0  0  0  1  0  0  0  0  0  0
  -26.9600  -30.3830   24.7680 C   0  0  0  0  0  1  0  0  0  0  0  0
  -27.5450  -32.5630   25.7990 C   0  0  0  0  0  1  0  0  0  0  0  0
  -25.5720  -33.9330   24.1770 N   0  0  0  0  0  0  0  0  0  0  0  0
  -25.9140  -34.9780   23.4120 C   0  0  0  0  0  0  0  0  0  0  0  0
  -26.5930  -34.8660   22.3870 O   0  0  0  0  0  0  0  0  0  0  0  0
  -24.9700  -34.0960   24.9710 H   0  0  0  0  0  0  0  0  0  0  0  0
  -24.1920  -36.7680   23.0150 C   0  0  0  0  0  1  0  0  0  0  0  0
  -25.4180  -36.3680   23.8520 C   0  0  0  0  0  3  0  0  0  0  0  0
  -27.5670  -37.2210   24.6830 C   0  0  0  0  0  1  0  0  0  0  0  0
  -26.4440  -37.4320   23.7750 N   0  0  0  0  0  0  0  0  0  0  0  0
  -26.0310  -38.3340   23.9980 H   0  0  0  0  0  0  0  0  0  0  0  0
  3  6  1  0
  3  1  1  0
  4  6  1  0
  4  2  1  0
  5  1  1  0
  5  2  1  0
  5 11  1  0
  6  7  1  1
  8  9  1  0
 10 12  1  0
 11  8  2  0
 12  9  2  0
 12 23  1  0
 13 11  1  0
 13 10  2  0
 14 13  1  0
 15 23  1  0
 16 21  1  0
 17 18  1  0
 17 16  1  0
 19 18  1  0
 19 28  1  0
 19 20  1  0
 21 15  1  0
 21 20  1  0
 22 15  2  0
 23 24  1  0
 25 26  2  0
 26 45  1  0
 27 26  1  0
 27 30  1  0
 28 25  1  0
 28 29  1  0
 29 27  2  0
 30 31  1  0
 31 32  2  0
 33 36  1  0
 33 32  1  0
 34 33  2  0
 35 34  1  0
 35 30  2  0
 36 37  1  0
 37 38  1  0
 38 39  2  0
 40 39  1  0
 40 44  1  0
 41 40  2  0
 42 37  2  0
 42 41  1  0
 43 42  1  0
 45 46  1  0
 46 49  1  0
 46 48  1  0
 47 45  2  0
 50 51  1  0
 50 25  1  0
 52 50  1  0
 53  6  1  0
 53 54  1  0
 54 56  1  0
 54 55  1  0
 56 57  1  0
 58 69  2  0
 59 57  1  0
 59 64  1  0
 60 68  1  0
 60 70  1  0
 61 67  1  0
 61 63  1  0
 62 68  1  0
 63 62  1  0
 64 63  2  0
 65 66  1  0
 65 59  2  0
 66 61  2  0
 67 60  1  0
 68 58  1  0
 70 72  2  0
 71 70  1  0
 73 71  1  0
 74 83  2  0
 74 79  1  0
 75 71  1  0
 75 79  1  0
 76 75  1  0
 77 78  1  0
 77 76  1  0
 78 74  1  0
 79 80  2  0
 80 81  1  0
 82 81  2  0
 83 82  1  0
 84 58  1  0
 84 89  1  0
 84 85  1  0
 85 88  1  1
 85 86  1  0
 87 85  1  0
 89 92  1  0
 90 94  1  0
 90 89  1  0
 91 90  2  0
 94 93  1  0
 96 94  1  0
 96 97  1  0
 96 95  1  0
M  ISO  4  15 100  23 100  56 101  57 101
M  END
>  <TORSDO>  (83) 
F 20

>  <SCORE>  (83) 
-14.078

>  <name>  (83) 
82

>  <ligand_id>  (83) 
82

>  <original_smiles>  (83) 
[H]c1c([H])c([H])c2c(c1[H])C([H])([H])C([H])([H])C([H])([H])C2([H])N([H])C(=O)C1([H])N(C(=O)C([H])(N([H])C(=O)C([H])(N([H])C([H])([H])[H])C([H])([H])[H])C(C([H])([H])[H])(C([H])([H])[H])C([H])([H])[H])C([H])([H])c2c([H])c(OC([H])([H])C([H])(F)C([H])([H])[N+]3([H])C([H])([H])C([H])([H])C([H])(c4c([H])c([H])c(N([H])C(=O)N5C([H])([H])C([H])([H])C([H])([H])C([H])(n6nc(-c7c([H])c([H])c(Oc8c([H])c([H])c(F)c([H])c8F)c([H])c7[H])c(C(=O)N([H])[H])c6N([H])[H])C5([H])[H])c([H])c4F)C([H])([H])C3([H])[H])c([H])c([H])c2C1([H])[H]

>  <smiles>  (83) 
[H]c1c([H])c([H])c2c(c1[H])C([H])([H])C([H])([H])C([H])([H])C2([H])N([H])C(=O)C1([H])N(C(=O)C([H])(N([H])C(=O)C([H])(N([H])C([H])([H])[H])C([H])([H])[H])C(C([H])([H])[H])(C([H])([H])[H])C([H])([H])[H])C([H])([H])c2c([H])c(OC([H])([H])C([H])(F)C([H])([H])[N+]3([H])C([H])([H])C([H])([H])C([H])(c4c([H])c([H])c(N([H])C(=O)N5C([H])([H])C([H])([H])C([H])([H])C([H])(n6nc(-c7c([H])c([H])c(Oc8c([H])c([H])c(F)c([H])c8F)c([H])c7[H])c(C(=O)N([H])[H])c6N([H])[H])C5([H])[H])c([H])c4F)C([H])([H])C3([H])[H])c([H])c([H])c2C1([H])[H]

$$$$
83:0:0
     RDKit          3D

 95104  0  0  1  0  0  0  0  0999 V2000
  -26.6040  -21.3810   16.8490 C   0  0  0  0  0  2  0  0  0  0  0  0
  -27.1150  -20.0900   17.4660 C   0  0  0  0  0  2  0  0  0  0  0  0
  -27.6040  -22.4350   17.3260 C   0  0  0  0  0  2  0  0  0  0  0  0
  -27.6860  -20.5560   18.8160 C   0  0  0  0  0  3  0  0  0  0  0  0
  -28.2370  -21.9230   18.5730 N   0  0  2  0  0  4  0  0  0  0  0  0
  -29.2210  -21.7730   18.3840 H   0  0  0  0  0  0  0  0  0  0  0  0
  -28.7050  -19.5350   19.3630 C   0  0  0  0  0  0  0  0  0  0  0  0
  -28.1710  -18.4800   20.0010 N   0  0  0  0  0  0  0  0  0  0  0  0
  -29.9150  -19.6910   19.1800 O   0  0  0  0  0  0  0  0  0  0  0  0
  -27.1600  -18.5080   20.0760 H   0  0  0  0  0  0  0  0  0  0  0  0
  -30.8220  -14.3150   20.0730 C   0  0  0  0  0  0  0  0  0  0  0  0
  -30.4320  -12.1790   18.9110 C   0  0  0  0  0  2  0  0  0  0  0  0
  -29.4190  -12.4230   17.7740 C   0  0  0  0  0  2  0  0  0  0  0  0
  -27.9730  -12.2830   18.2910 C   0  0  0  0  0  2  0  0  0  0  0  0
  -27.7200  -13.0890   19.5930 C   0  0  0  0  0  3  0  0  0  0  0  0
  -28.8440  -12.8510   20.6250 C   0  0  0  0  0  2  0  0  0  0  0  0
  -30.1310  -13.1470   19.9720 N   0  0  0  0  0  0  0  0  0  0  0  0
  -31.9440  -14.4840   19.5840 O   0  0  0  0  0  0  0  0  0  0  0  0
  -29.8080  -17.4750   21.6930 C   0  0  0  0  0  2  0  0  0  0  0  0
  -30.4950  -16.0940   21.7650 C   0  0  0  0  0  2  0  0  0  0  0  0
  -29.4860  -16.3310   19.6420 C   0  0  0  0  0  2  0  0  0  0  0  0
  -28.7670  -17.2790   20.5960 C   0  0  0  0  0  3  0  0  0  0  0  0
  -30.1160  -15.3630   20.5480 N   0  0  0  0  0  0  0  0  0  0  0  0
  -25.3790  -13.7180   20.4520 C   0  0  0  0  0  0  0  0  0  0  0  0
  -24.3250  -12.9530   20.8730 C   0  0  0  0  0  0  0  0  0  0  0  0
  -24.7680  -11.5970   20.7910 C   0  0  0  0  0  0  0  0  0  0  0  0
  -26.3980  -12.8260   20.1480 N   0  0  0  0  0  0  0  0  0  0  0  0
  -26.0370  -11.5460   20.4090 N   0  0  0  0  0  0  0  0  0  0  0  0
  -24.0390  -10.3410   21.0000 C   0  0  0  0  0  0  0  0  0  0  0  0
  -24.4930   -9.3720   21.9220 C   0  0  0  0  0  3  0  0  0  0  0  0
  -23.7680   -8.1760   22.1180 C   0  0  0  0  0  3  0  0  0  0  0  0
  -22.5760   -7.9420   21.3920 C   0  0  0  0  0  0  0  0  0  0  0  0
  -22.1410   -8.9010   20.4590 C   0  0  0  0  0  3  0  0  0  0  0  0
  -22.8660  -10.0870   20.2620 C   0  0  0  0  0  3  0  0  0  0  0  0
  -21.8170   -6.8020   21.5010 O   0  0  0  0  0  0  0  0  0  0  0  0
  -21.7580   -6.0870   22.6700 C   0  0  0  0  0  0  0  0  0  0  0  0
  -21.3320   -6.6740   23.8810 C   0  0  0  0  0  3  0  0  0  0  0  0
  -21.2210   -5.8850   25.0440 C   0  0  0  0  0  3  0  0  0  0  0  0
  -21.5250   -4.5110   24.9960 C   0  0  0  0  0  0  0  0  0  0  0  0
  -21.9450   -3.9250   23.7880 C   0  0  0  0  0  3  0  0  0  0  0  0
  -22.0600   -4.7110   22.6280 C   0  0  0  0  0  0  0  0  0  0  0  0
  -22.4450   -4.1370   21.4630 F   0  0  0  0  0  0  0  0  0  0  0  0
  -21.4100   -3.7510   26.1100 F   0  0  0  0  0  0  0  0  0  0  0  0
  -22.9520  -13.4410   21.2330 C   0  0  0  0  0  0  0  0  0  0  0  0
  -22.2750  -12.7470   22.1420 N   0  0  0  0  0  0  0  0  0  0  0  0
  -22.4910  -14.4710   20.7430 O   0  0  0  0  0  0  0  0  0  0  0  0
  -22.6620  -11.9130   22.5560 H   0  0  0  0  0  0  0  0  0  0  0  0
  -21.3570  -13.0560   22.4270 H   0  0  0  0  0  0  0  0  0  0  0  0
  -25.5480  -15.0880   20.2820 N   0  0  0  0  0  0  0  0  0  0  0  0
  -24.7910  -15.7480   20.4220 H   0  0  0  0  0  0  0  0  0  0  0  0
  -26.3680  -15.5030   19.8620 H   0  0  0  0  0  0  0  0  0  0  0  0
  -28.1220  -22.8510   19.7390 C   0  0  0  0  0  2  0  0  0  0  0  0
  -28.6520  -24.2910   19.4890 C   0  0  0  0  0  2  0  0  0  0  0  0
  -28.3850  -25.2490   20.6690 C   0  0  0  0  0  2  0  0  0  0  0  0
  -28.4960  -26.6240   20.2710 O   0  0  0  0  0  0  0  0  0  0  0  0
  -24.5260  -31.7500   23.1600 C   0  0  0  0  0  0  0  0  0  0  0  0
  -27.3150  -27.3310   20.2030 C   0  0  0  0  0  0  0  0  0  0  0  0
  -23.3870  -30.3290   21.4860 C   0  0  0  0  0  3  0  0  0  0  0  0
  -24.9030  -28.7990   20.1190 C   0  0  0  0  0  0  0  0  0  0  0  0
  -25.9110  -30.7200   21.3650 C   0  0  0  0  0  2  0  0  0  0  0  0
  -26.0350  -29.3470   20.7390 C   0  0  0  0  0  0  0  0  0  0  0  0
  -27.2450  -28.6210   20.7730 C   0  0  0  0  0  3  0  0  0  0  0  0
  -26.1670  -26.7950   19.5750 C   0  0  0  0  0  3  0  0  0  0  0  0
  -24.9630  -27.5230   19.5330 C   0  0  0  0  0  3  0  0  0  0  0  0
  -23.6490  -29.6450   20.1190 C   0  0  0  0  0  2  0  0  0  0  0  0
  -24.6230  -30.9480   22.0640 N   0  0  0  0  0  0  0  0  0  0  0  0
  -23.4260  -32.0120   23.6650 O   0  0  0  0  0  0  0  0  0  0  0  0
  -22.7150  -29.3060   22.4300 C   0  0  0  0  0  0  0  0  0  0  0  0
  -21.3900  -29.1420   22.2910 N   0  0  0  0  0  0  0  0  0  0  0  0
  -23.3850  -28.6640   23.2450 O   0  0  0  0  0  0  0  0  0  0  0  0
  -20.9130  -29.7200   21.6120 H   0  0  0  0  0  0  0  0  0  0  0  0
  -17.9950  -28.0000   22.7530 C   0  0  0  0  0  0  0  0  0  0  0  0
  -20.5560  -28.2020   23.0380 C   0  0  0  0  0  3  0  0  0  0  0  0
  -20.6350  -26.7800   22.4360 C   0  0  0  0  0  2  0  0  0  0  0  0
  -19.5250  -26.4860   21.4210 C   0  0  0  0  0  2  0  0  0  0  0  0
  -18.1460  -26.6540   22.0630 C   0  0  0  0  0  2  0  0  0  0  0  0
  -19.1260  -28.7290   23.2040 C   0  0  0  0  0  0  0  0  0  0  0  0
  -18.9310  -29.9850   23.8180 C   0  0  0  0  0  3  0  0  0  0  0  0
  -17.6370  -30.5110   23.9890 C   0  0  0  0  0  3  0  0  0  0  0  0
  -16.5200  -29.7780   23.5530 C   0  0  0  0  0  3  0  0  0  0  0  0
  -16.6980  -28.5260   22.9390 C   0  0  0  0  0  3  0  0  0  0  0  0
  -25.7850  -32.3960   23.8180 C   0  0  0  0  0  3  0  0  0  0  0  0
  -26.2840  -31.6230   25.1010 C   0  0  1  0  0  0  0  0  0  0  0  0
  -25.1700  -31.3610   26.1410 C   0  0  0  0  0  1  0  0  0  0  0  0
  -26.8970  -30.2590   24.7070 C   0  0  0  0  0  1  0  0  0  0  0  0
  -27.4060  -32.4280   25.7960 C   0  0  0  0  0  1  0  0  0  0  0  0
  -25.4450  -33.7870   24.1490 N   0  0  0  0  0  0  0  0  0  0  0  0
  -25.7750  -34.8480   23.4020 C   0  0  0  0  0  0  0  0  0  0  0  0
  -26.4640  -34.7600   22.3830 O   0  0  0  0  0  0  0  0  0  0  0  0
  -24.8340  -33.9260   24.9410 H   0  0  0  0  0  0  0  0  0  0  0  0
  -24.0130  -36.6020   23.0320 C   0  0  0  0  0  1  0  0  0  0  0  0
  -25.2560  -36.2240   23.8550 C   0  0  0  0  0  3  0  0  0  0  0  0
  -27.3660  -37.1500   24.7020 C   0  0  0  0  0  1  0  0  0  0  0  0
  -26.2680  -37.2970   23.7490 N   0  0  0  0  0  0  0  0  0  0  0  0
  -25.8430  -38.2090   23.8930 H   0  0  0  0  0  0  0  0  0  0  0  0
  1  3  1  0
  1  2  1  0
  2  4  1  0
  3  5  1  0
  4  7  1  0
  5  4  1  0
  5 52  1  0
  5  6  1  6
  7  8  1  0
  8 10  1  0
  9  7  2  0
 11 23  1  0
 12 17  1  0
 13 14  1  0
 13 12  1  0
 15 14  1  0
 15 27  1  0
 15 16  1  0
 17 11  1  0
 17 16  1  0
 18 11  2  0
 19 20  1  0
 21 23  1  0
 21 22  1  0
 22  8  1  0
 22 19  1  0
 23 20  1  0
 24 25  2  0
 25 44  1  0
 26 25  1  0
 26 29  1  0
 27 28  1  0
 27 24  1  0
 28 26  2  0
 29 30  1  0
 30 31  2  0
 32 35  1  0
 32 31  1  0
 33 32  2  0
 34 33  1  0
 34 29  2  0
 35 36  1  0
 36 37  1  0
 37 38  2  0
 39 38  1  0
 39 43  1  0
 40 39  2  0
 41 36  2  0
 41 40  1  0
 42 41  1  0
 44 45  1  0
 45 48  1  0
 45 47  1  0
 46 44  2  0
 49 50  1  0
 49 24  1  0
 51 49  1  0
 53 52  1  0
 53 54  1  0
 55 54  1  0
 56 67  2  0
 57 55  1  0
 57 62  1  0
 58 66  1  0
 58 68  1  0
 59 61  1  0
 60 66  1  0
 61 62  2  0
 61 60  1  0
 63 57  2  0
 64 63  1  0
 64 59  2  0
 65 59  1  0
 65 58  1  0
 66 56  1  0
 68 70  2  0
 69 68  1  0
 71 69  1  0
 72 81  2  0
 72 77  1  0
 73 69  1  0
 73 77  1  0
 74 73  1  0
 75 76  1  0
 75 74  1  0
 76 72  1  0
 77 78  2  0
 78 79  1  0
 80 79  2  0
 81 80  1  0
 82 56  1  0
 82 87  1  0
 82 83  1  0
 83 86  1  1
 83 84  1  0
 85 83  1  0
 87 90  1  0
 88 92  1  0
 88 87  1  0
 89 88  2  0
 92 91  1  0
 94 92  1  0
 94 95  1  0
 94 93  1  0
M  ISO  4  11 100  23 100  54 101  55 101
M  END
>  <TORSDO>  (84) 
F 20

>  <SCORE>  (84) 
-12.777

>  <name>  (84) 
83

>  <ligand_id>  (84) 
83

>  <original_smiles>  (84) 
[H]c1c([H])c([H])c2c(c1[H])C([H])([H])C([H])([H])C([H])([H])C2([H])N([H])C(=O)C1([H])N(C(=O)C([H])(N([H])C(=O)C([H])(N([H])C([H])([H])[H])C([H])([H])[H])C(C([H])([H])[H])(C([H])([H])[H])C([H])([H])[H])C([H])([H])c2c([H])c(OC([H])([H])C([H])([H])C([H])([H])[N+]3([H])C([H])([H])C([H])([H])C([H])([H])C3([H])C(=O)N([H])C3([H])C([H])([H])N(C(=O)N4C([H])([H])C([H])([H])C([H])([H])C([H])(n5nc(-c6c([H])c([H])c(Oc7c([H])c([H])c(F)c([H])c7F)c([H])c6[H])c(C(=O)N([H])[H])c5N([H])[H])C4([H])[H])C([H])([H])C3([H])[H])c([H])c([H])c2C1([H])[H]

>  <smiles>  (84) 
[H]c1c([H])c([H])c2c(c1[H])C([H])([H])C([H])([H])C([H])([H])C2([H])N([H])C(=O)C1([H])N(C(=O)C([H])(N([H])C(=O)C([H])(N([H])C([H])([H])[H])C([H])([H])[H])C(C([H])([H])[H])(C([H])([H])[H])C([H])([H])[H])C([H])([H])c2c([H])c(OC([H])([H])C([H])([H])C([H])([H])[N+]3([H])C([H])([H])C([H])([H])C([H])([H])C3([H])C(=O)N([H])C3([H])C([H])([H])N(C(=O)N4C([H])([H])C([H])([H])C([H])([H])C([H])(n5nc(-c6c([H])c([H])c(Oc7c([H])c([H])c(F)c([H])c7F)c([H])c6[H])c(C(=O)N([H])[H])c5N([H])[H])C4([H])[H])C([H])([H])C3([H])[H])c([H])c([H])c2C1([H])[H]

$$$$
84:0:0
     RDKit          3D

 96104  0  0  1  0  0  0  0  0999 V2000
  -29.9550  -22.0880   20.3170 C   0  0  0  0  0  3  0  0  0  0  0  0
  -29.9420  -23.9240   22.0250 C   0  0  0  0  0  1  0  0  0  0  0  0
  -29.6360  -23.5090   20.6570 N   0  0  0  0  0  0  0  0  0  0  0  0
  -28.3780  -24.0940   20.1260 C   0  0  0  0  0  2  0  0  0  0  0  0
  -28.5410  -25.4400   19.3320 C   0  0  0  0  0  2  0  0  0  0  0  0
  -28.3910  -26.6800   20.0670 O   0  0  0  0  0  0  0  0  0  0  0  0
  -24.5670  -31.8620   23.1570 C   0  0  0  0  0  0  0  0  0  0  0  0
  -27.2020  -27.4010   20.0420 C   0  0  0  0  0  0  0  0  0  0  0  0
  -23.3560  -30.4620   21.5200 C   0  0  0  0  0  3  0  0  0  0  0  0
  -24.8040  -28.9300   20.0780 C   0  0  0  0  0  0  0  0  0  0  0  0
  -25.8840  -30.8190   21.3070 C   0  0  0  0  0  2  0  0  0  0  0  0
  -25.9670  -29.4470   20.6590 C   0  0  0  0  0  0  0  0  0  0  0  0
  -27.1650  -28.6900   20.6350 C   0  0  0  0  0  3  0  0  0  0  0  0
  -26.0080  -26.9000   19.4700 C   0  0  0  0  0  3  0  0  0  0  0  0
  -24.8210  -27.6580   19.4830 C   0  0  0  0  0  3  0  0  0  0  0  0
  -23.5610  -29.7920   20.1370 C   0  0  0  0  0  2  0  0  0  0  0  0
  -24.6210  -31.0650   22.0530 N   0  0  0  0  0  0  0  0  0  0  0  0
  -23.4870  -32.1310   23.7050 O   0  0  0  0  0  0  0  0  0  0  0  0
  -22.7110  -29.4360   22.4820 C   0  0  0  0  0  0  0  0  0  0  0  0
  -21.3830  -29.2660   22.3780 N   0  0  0  0  0  0  0  0  0  0  0  0
  -23.4050  -28.7980   23.2780 O   0  0  0  0  0  0  0  0  0  0  0  0
  -20.8860  -29.8300   21.7020 H   0  0  0  0  0  0  0  0  0  0  0  0
  -18.0090  -28.0910   22.9260 C   0  0  0  0  0  0  0  0  0  0  0  0
  -20.5730  -28.3260   23.1530 C   0  0  0  0  0  3  0  0  0  0  0  0
  -20.6530  -26.9030   22.5540 C   0  0  0  0  0  2  0  0  0  0  0  0
  -19.5280  -26.6010   21.5590 C   0  0  0  0  0  2  0  0  0  0  0  0
  -18.1610  -26.7500   22.2320 C   0  0  0  0  0  2  0  0  0  0  0  0
  -19.1410  -28.8390   23.3450 C   0  0  0  0  0  0  0  0  0  0  0  0
  -18.9440  -30.0990   23.9530 C   0  0  0  0  0  3  0  0  0  0  0  0
  -17.6460  -30.6090   24.1460 C   0  0  0  0  0  3  0  0  0  0  0  0
  -16.5280  -29.8570   23.7450 C   0  0  0  0  0  3  0  0  0  0  0  0
  -16.7100  -28.6000   23.1410 C   0  0  0  0  0  3  0  0  0  0  0  0
  -25.8550  -32.4950   23.7700 C   0  0  0  0  0  3  0  0  0  0  0  0
  -25.5400  -33.8820   24.1310 N   0  0  0  0  0  0  0  0  0  0  0  0
  -25.8550  -34.9520   23.3890 C   0  0  0  0  0  0  0  0  0  0  0  0
  -26.5160  -34.8740   22.3500 O   0  0  0  0  0  0  0  0  0  0  0  0
  -24.9470  -34.0160   24.9380 H   0  0  0  0  0  0  0  0  0  0  0  0
  -24.1120  -36.7380   23.0780 C   0  0  0  0  0  1  0  0  0  0  0  0
  -25.3590  -36.3250   23.8750 C   0  0  0  0  0  3  0  0  0  0  0  0
  -27.4940  -37.2100   24.7070 C   0  0  0  0  0  1  0  0  0  0  0  0
  -26.3810  -37.3900   23.7780 N   0  0  0  0  0  0  0  0  0  0  0  0
  -25.9680  -38.3010   23.9500 H   0  0  0  0  0  0  0  0  0  0  0  0
  -26.4010  -31.7020   25.0220 C   0  0  1  0  0  0  0  0  0  0  0  0
  -25.3280  -31.4280   26.1030 C   0  0  0  0  0  1  0  0  0  0  0  0
  -26.9900  -30.3390   24.5900 C   0  0  0  0  0  1  0  0  0  0  0  0
  -27.5560  -32.4920   25.6830 C   0  0  0  0  0  1  0  0  0  0  0  0
  -29.3180  -20.9060   21.1590 C   0  0  0  0  0  2  0  0  0  0  0  0
  -29.0680  -18.3200   18.4110 C   0  0  0  0  0  2  0  0  0  0  0  0
  -28.5700  -19.4230   19.3340 C   0  0  0  0  0  2  0  0  0  0  0  0
  -29.5580  -18.3110   21.2910 C   0  0  0  0  0  2  0  0  0  0  0  0
  -29.1080  -16.9720   19.1420 C   0  0  0  0  0  3  0  0  0  0  0  0
  -29.9730  -17.0320   20.4420 C   0  0  0  0  0  3  0  0  0  0  0  0
  -29.5350  -15.8980   18.1350 C   0  0  0  0  0  1  0  0  0  0  0  0
  -29.5080  -19.5810   20.4680 N   0  0  2  0  0  4  0  0  0  0  0  0
  -30.4410  -19.6990   20.0700 H   0  0  0  0  0  0  0  0  0  0  0  0
  -30.7600  -14.6740   21.1210 C   0  0  0  0  0  0  0  0  0  0  0  0
  -30.7290  -12.3500   20.2770 C   0  0  0  0  0  2  0  0  0  0  0  0
  -29.9440  -12.3280   18.9480 C   0  0  0  0  0  2  0  0  0  0  0  0
  -28.4220  -12.2280   19.1990 C   0  0  0  0  0  2  0  0  0  0  0  0
  -27.9030  -13.1660   20.3240 C   0  0  0  0  0  3  0  0  0  0  0  0
  -28.8210  -13.1210   21.5640 C   0  0  0  0  0  2  0  0  0  0  0  0
  -30.1870  -13.4350   21.1160 N   0  0  0  0  0  0  0  0  0  0  0  0
  -31.9530  -14.8440   20.8560 O   0  0  0  0  0  0  0  0  0  0  0  0
  -29.8820  -15.7170   21.1610 N   0  0  0  0  0  0  0  0  0  0  0  0
  -28.9540  -15.4430   21.4410 H   0  0  0  0  0  0  0  0  0  0  0  0
  -25.4400  -13.7640   20.7420 C   0  0  0  0  0  0  0  0  0  0  0  0
  -24.3450  -12.9930   21.0140 C   0  0  0  0  0  0  0  0  0  0  0  0
  -24.8190  -11.6470   21.0790 C   0  0  0  0  0  0  0  0  0  0  0  0
  -26.5120  -12.8910   20.6590 N   0  0  0  0  0  0  0  0  0  0  0  0
  -26.1370  -11.6140   20.9220 N   0  0  0  0  0  0  0  0  0  0  0  0
  -24.0880  -10.3820   21.2260 C   0  0  0  0  0  0  0  0  0  0  0  0
  -24.4570   -9.4260   22.1990 C   0  0  0  0  0  3  0  0  0  0  0  0
  -23.7290   -8.2250   22.3320 C   0  0  0  0  0  3  0  0  0  0  0  0
  -22.6190   -7.9710   21.4900 C   0  0  0  0  0  0  0  0  0  0  0  0
  -22.2710   -8.9150   20.5080 C   0  0  0  0  0  3  0  0  0  0  0  0
  -23.0000  -10.1080   20.3730 C   0  0  0  0  0  3  0  0  0  0  0  0
  -21.8690   -6.8200   21.5310 O   0  0  0  0  0  0  0  0  0  0  0  0
  -21.7700   -6.0670   22.6730 C   0  0  0  0  0  0  0  0  0  0  0  0
  -21.3000   -6.6130   23.8860 C   0  0  0  0  0  3  0  0  0  0  0  0
  -21.1450   -5.7870   25.0180 C   0  0  0  0  0  3  0  0  0  0  0  0
  -21.4520   -4.4170   24.9370 C   0  0  0  0  0  0  0  0  0  0  0  0
  -21.9190   -3.8690   23.7290 C   0  0  0  0  0  3  0  0  0  0  0  0
  -22.0760   -4.6920   22.6000 C   0  0  0  0  0  0  0  0  0  0  0  0
  -22.5040   -4.1560   21.4310 F   0  0  0  0  0  0  0  0  0  0  0  0
  -21.2990   -3.6210   26.0210 F   0  0  0  0  0  0  0  0  0  0  0  0
  -22.9200  -13.4610   21.1150 C   0  0  0  0  0  0  0  0  0  0  0  0
  -22.1080  -12.7870   21.9210 N   0  0  0  0  0  0  0  0  0  0  0  0
  -22.5340  -14.4630   20.5140 O   0  0  0  0  0  0  0  0  0  0  0  0
  -22.4290  -11.9750   22.4270 H   0  0  0  0  0  0  0  0  0  0  0  0
  -21.1480  -13.0810   22.0320 H   0  0  0  0  0  0  0  0  0  0  0  0
  -25.6080  -15.1310   20.5330 N   0  0  0  0  0  0  0  0  0  0  0  0
  -24.8190  -15.7690   20.5090 H   0  0  0  0  0  0  0  0  0  0  0  0
  -26.4710  -15.5560   20.2320 H   0  0  0  0  0  0  0  0  0  0  0  0
  -31.4830  -21.8880   20.2090 C   0  0  0  0  0  2  0  0  0  0  0  0
  -31.7820  -20.7090   19.4780 O   0  0  0  0  0  0  0  0  0  0  0  0
  -32.6960  -20.7650   19.2110 H   0  0  0  0  0  0  0  0  0  0  0  0
  1 94  1  0
  1  3  1  0
  1 47  1  0
  3  2  1  0
  4  3  1  0
  5  6  1  0
  5  4  1  0
  7 18  2  0
  8  6  1  0
  8 13  1  0
  9 17  1  0
  9 19  1  0
 10 16  1  0
 10 12  1  0
 11 17  1  0
 12 11  1  0
 13 12  2  0
 14 15  1  0
 14  8  2  0
 15 10  2  0
 16  9  1  0
 17  7  1  0
 19 21  2  0
 20 19  1  0
 22 20  1  0
 23 32  2  0
 23 28  1  0
 24 20  1  0
 24 28  1  0
 25 24  1  0
 26 27  1  0
 26 25  1  0
 27 23  1  0
 28 29  2  0
 29 30  1  0
 31 30  2  0
 32 31  1  0
 33  7  1  0
 33 34  1  0
 33 43  1  0
 34 37  1  0
 35 39  1  0
 35 34  1  0
 36 35  2  0
 39 38  1  0
 41 39  1  0
 41 42  1  0
 41 40  1  0
 43 46  1  1
 43 44  1  0
 45 43  1  0
 48 51  1  0
 48 49  1  0
 49 54  1  0
 51 53  1  0
 51 52  1  0
 52 64  1  0
 52 50  1  0
 54 47  1  0
 54 50  1  0
 54 55  1  6
 56 64  1  0
 57 62  1  0
 58 59  1  0
 58 57  1  0
 60 59  1  0
 60 69  1  0
 60 61  1  0
 62 56  1  0
 62 61  1  0
 63 56  2  0
 64 65  1  0
 66 67  2  0
 67 68  1  0
 67 86  1  0
 68 71  1  0
 69 66  1  0
 69 70  1  0
 70 68  2  0
 71 72  1  0
 72 73  2  0
 74 77  1  0
 74 73  1  0
 75 74  2  0
 76 75  1  0
 76 71  2  0
 77 78  1  0
 78 79  1  0
 79 80  2  0
 81 80  1  0
 81 85  1  0
 82 81  2  0
 83 78  2  0
 83 82  1  0
 84 83  1  0
 86 87  1  0
 87 90  1  0
 87 89  1  0
 88 86  2  0
 91 66  1  0
 92 91  1  0
 93 91  1  0
 95 94  1  0
 96 95  1  0
M  ISO  4   5 101   6 101  56 100  64 100
M  END
>  <TORSDO>  (85) 
F 23

>  <SCORE>  (85) 
-11.798

>  <name>  (85) 
84

>  <ligand_id>  (85) 
84

>  <original_smiles>  (85) 
[H]OC([H])([H])C([H])(N(C([H])([H])[H])C([H])([H])C([H])([H])Oc1c([H])c([H])c2c(c1[H])C([H])([H])N(C(=O)C([H])(N([H])C(=O)C([H])(N([H])C([H])([H])[H])C([H])([H])[H])C(C([H])([H])[H])(C([H])([H])[H])C([H])([H])[H])C([H])(C(=O)N([H])C1([H])c3c([H])c([H])c([H])c([H])c3C([H])([H])C([H])([H])C1([H])[H])C2([H])[H])C([H])([H])[N+]1([H])C([H])([H])C([H])([H])C([H])(C([H])([H])[H])C([H])(N([H])C(=O)N2C([H])([H])C([H])([H])C([H])([H])C([H])(n3nc(-c4c([H])c([H])c(Oc5c([H])c([H])c(F)c([H])c5F)c([H])c4[H])c(C(=O)N([H])[H])c3N([H])[H])C2([H])[H])C1([H])[H]

>  <smiles>  (85) 
[H]OC([H])([H])C([H])(N(C([H])([H])[H])C([H])([H])C([H])([H])Oc1c([H])c([H])c2c(c1[H])C([H])([H])N(C(=O)C([H])(N([H])C(=O)C([H])(N([H])C([H])([H])[H])C([H])([H])[H])C(C([H])([H])[H])(C([H])([H])[H])C([H])([H])[H])C([H])(C(=O)N([H])C1([H])c3c([H])c([H])c([H])c([H])c3C([H])([H])C([H])([H])C1([H])[H])C2([H])[H])C([H])([H])[N+]1([H])C([H])([H])C([H])([H])C([H])(C([H])([H])[H])C([H])(N([H])C(=O)N2C([H])([H])C([H])([H])C([H])([H])C([H])(n3nc(-c4c([H])c([H])c(Oc5c([H])c([H])c(F)c([H])c5F)c([H])c4[H])c(C(=O)N([H])[H])c3N([H])[H])C2([H])[H])C1([H])[H]

$$$$
85:0:0
     RDKit          3D

 93101  0  0  1  0  0  0  0  0999 V2000
  -29.1940  -22.5240   20.3100 C   0  0  0  0  0  0  0  0  0  0  0  0
  -28.8080  -21.1920   20.2850 N   0  0  0  0  0  0  0  0  0  0  0  0
  -30.3810  -22.8000   20.4890 O   0  0  0  0  0  0  0  0  0  0  0  0
  -27.8120  -21.0240   20.2180 H   0  0  0  0  0  0  0  0  0  0  0  0
  -29.9880  -19.7650   18.6250 C   0  0  0  0  0  2  0  0  0  0  0  0
  -29.2330  -18.4360   20.1330 C   0  0  0  0  0  3  0  0  0  0  0  0
  -29.7340  -19.9780   20.1210 C   0  0  0  0  0  3  0  0  0  0  0  0
  -27.9370  -18.4880   18.0030 C   0  0  0  0  0  1  0  0  0  0  0  0
  -29.2570  -18.4910   18.6700 N   0  0  1  0  0  4  0  0  0  0  0  0
  -29.8340  -17.7460   18.3060 H   0  0  0  0  0  0  0  0  0  0  0  0
  -30.6050  -14.7390   20.4100 C   0  0  0  0  0  0  0  0  0  0  0  0
  -30.3950  -12.4660   19.4040 C   0  0  0  0  0  2  0  0  0  0  0  0
  -29.4810  -12.5350   18.1630 C   0  0  0  0  0  2  0  0  0  0  0  0
  -28.0020  -12.3740   18.5670 C   0  0  0  0  0  2  0  0  0  0  0  0
  -27.6090  -13.2720   19.7710 C   0  0  0  0  0  3  0  0  0  0  0  0
  -28.6490  -13.1950   20.9100 C   0  0  0  0  0  2  0  0  0  0  0  0
  -29.9540  -13.5300   20.3320 N   0  0  0  0  0  0  0  0  0  0  0  0
  -31.8130  -14.7850   20.1620 O   0  0  0  0  0  0  0  0  0  0  0  0
  -30.2220  -17.2270   20.5160 C   0  0  0  0  0  0  0  0  0  0  0  0
  -29.8280  -15.8910   20.4910 N   0  0  0  0  0  0  0  0  0  0  0  0
  -31.3850  -17.5430   20.7830 O   0  0  0  0  0  0  0  0  0  0  0  0
  -28.8360  -15.7260   20.4740 H   0  0  0  0  0  0  0  0  0  0  0  0
  -25.2100  -13.8730   20.4460 C   0  0  0  0  0  0  0  0  0  0  0  0
  -24.1380  -13.1060   20.8070 C   0  0  0  0  0  0  0  0  0  0  0  0
  -24.6020  -11.7550   20.8070 C   0  0  0  0  0  0  0  0  0  0  0  0
  -26.2570  -12.9910   20.2430 N   0  0  0  0  0  0  0  0  0  0  0  0
  -25.8990  -11.7120   20.5250 N   0  0  0  0  0  0  0  0  0  0  0  0
  -23.8730  -10.4950   20.9990 C   0  0  0  0  0  0  0  0  0  0  0  0
  -24.2870   -9.5400   21.9530 C   0  0  0  0  0  3  0  0  0  0  0  0
  -23.5580   -8.3440   22.1330 C   0  0  0  0  0  3  0  0  0  0  0  0
  -22.3980   -8.0970   21.3580 C   0  0  0  0  0  0  0  0  0  0  0  0
  -22.0040   -9.0420   20.3940 C   0  0  0  0  0  3  0  0  0  0  0  0
  -22.7340  -10.2280   20.2120 C   0  0  0  0  0  3  0  0  0  0  0  0
  -21.6420   -6.9540   21.4460 O   0  0  0  0  0  0  0  0  0  0  0  0
  -21.5710   -6.2260   22.6060 C   0  0  0  0  0  0  0  0  0  0  0  0
  -21.1210   -6.7960   23.8180 C   0  0  0  0  0  3  0  0  0  0  0  0
  -20.9960   -5.9940   24.9700 C   0  0  0  0  0  3  0  0  0  0  0  0
  -21.3120   -4.6230   24.9120 C   0  0  0  0  0  0  0  0  0  0  0  0
  -21.7540   -4.0520   23.7060 C   0  0  0  0  0  3  0  0  0  0  0  0
  -21.8800   -4.8510   22.5560 C   0  0  0  0  0  0  0  0  0  0  0  0
  -22.2870   -4.2910   21.3900 F   0  0  0  0  0  0  0  0  0  0  0  0
  -21.1850   -3.8510   26.0160 F   0  0  0  0  0  0  0  0  0  0  0  0
  -22.7340  -13.5860   21.0390 C   0  0  0  0  0  0  0  0  0  0  0  0
  -21.9870  -12.9040   21.8980 N   0  0  0  0  0  0  0  0  0  0  0  0
  -22.3100  -14.6040   20.4940 O   0  0  0  0  0  0  0  0  0  0  0  0
  -22.3430  -12.0830   22.3650 H   0  0  0  0  0  0  0  0  0  0  0  0
  -21.0430  -13.2090   22.0930 H   0  0  0  0  0  0  0  0  0  0  0  0
  -25.3740  -15.2420   20.2480 N   0  0  0  0  0  0  0  0  0  0  0  0
  -24.5960  -15.8870   20.3310 H   0  0  0  0  0  0  0  0  0  0  0  0
  -26.2100  -15.6750   19.8840 H   0  0  0  0  0  0  0  0  0  0  0  0
  -28.1970  -23.7350   20.0050 C   0  0  0  0  0  2  0  0  0  0  0  0
  -28.3020  -25.1280   20.8150 C   0  0  0  0  0  2  0  0  0  0  0  0
  -28.3510  -26.4760   20.1730 O   0  0  0  0  0  0  0  0  0  0  0  0
  -24.6140  -31.8780   23.2480 C   0  0  0  0  0  0  0  0  0  0  0  0
  -27.2240  -27.3110   20.2000 C   0  0  0  0  0  0  0  0  0  0  0  0
  -23.4090  -30.4780   21.6090 C   0  0  0  0  0  3  0  0  0  0  0  0
  -24.8580  -28.9190   20.1860 C   0  0  0  0  0  0  0  0  0  0  0  0
  -25.9460  -30.7990   21.4170 C   0  0  0  0  0  2  0  0  0  0  0  0
  -26.0280  -29.4170   20.7750 C   0  0  0  0  0  0  0  0  0  0  0  0
  -27.2170  -28.6260   20.7650 C   0  0  0  0  0  3  0  0  0  0  0  0
  -26.0330  -26.8600   19.5970 C   0  0  0  0  0  3  0  0  0  0  0  0
  -24.8640  -27.6470   19.5860 C   0  0  0  0  0  3  0  0  0  0  0  0
  -23.6220  -29.7960   20.2310 C   0  0  0  0  0  2  0  0  0  0  0  0
  -24.6760  -31.0700   22.1480 N   0  0  0  0  0  0  0  0  0  0  0  0
  -23.5320  -32.1540   23.7850 O   0  0  0  0  0  0  0  0  0  0  0  0
  -22.7480  -29.4630   22.5730 C   0  0  0  0  0  0  0  0  0  0  0  0
  -21.4220  -29.2830   22.4480 N   0  0  0  0  0  0  0  0  0  0  0  0
  -23.4280  -28.8400   23.3930 O   0  0  0  0  0  0  0  0  0  0  0  0
  -20.9330  -29.8380   21.7600 H   0  0  0  0  0  0  0  0  0  0  0  0
  -18.0500  -28.0710   22.9430 C   0  0  0  0  0  0  0  0  0  0  0  0
  -20.6070  -28.3440   23.2190 C   0  0  0  0  0  3  0  0  0  0  0  0
  -20.7160  -26.9110   22.6480 C   0  0  0  0  0  2  0  0  0  0  0  0
  -19.6190  -26.5800   21.6320 C   0  0  0  0  0  2  0  0  0  0  0  0
  -18.2350  -26.7200   22.2710 C   0  0  0  0  0  2  0  0  0  0  0  0
  -19.1640  -28.8400   23.3730 C   0  0  0  0  0  0  0  0  0  0  0  0
  -18.9370  -30.1040   23.9610 C   0  0  0  0  0  3  0  0  0  0  0  0
  -17.6290  -30.5990   24.1210 C   0  0  0  0  0  3  0  0  0  0  0  0
  -16.5290  -29.8270   23.7070 C   0  0  0  0  0  3  0  0  0  0  0  0
  -16.7410  -28.5650   23.1230 C   0  0  0  0  0  3  0  0  0  0  0  0
  -25.8980  -32.5130   23.8670 C   0  0  0  0  0  3  0  0  0  0  0  0
  -26.4120  -31.7460   25.1490 C   0  0  1  0  0  0  0  0  0  0  0  0
  -25.3170  -31.5180   26.2180 C   0  0  0  0  0  1  0  0  0  0  0  0
  -26.9910  -30.3660   24.7650 C   0  0  0  0  0  1  0  0  0  0  0  0
  -27.5650  -32.5410   25.8070 C   0  0  0  0  0  1  0  0  0  0  0  0
  -25.5900  -33.9130   24.1930 N   0  0  0  0  0  0  0  0  0  0  0  0
  -25.9250  -34.9630   23.4310 C   0  0  0  0  0  0  0  0  0  0  0  0
  -26.5950  -34.8550   22.4000 O   0  0  0  0  0  0  0  0  0  0  0  0
  -24.9970  -34.0720   24.9930 H   0  0  0  0  0  0  0  0  0  0  0  0
  -24.2030  -36.7610   23.0700 C   0  0  0  0  0  1  0  0  0  0  0  0
  -25.4420  -36.3540   23.8840 C   0  0  0  0  0  3  0  0  0  0  0  0
  -27.5780  -37.2370   24.7140 C   0  0  0  0  0  1  0  0  0  0  0  0
  -26.4770  -37.4050   23.7680 N   0  0  0  0  0  0  0  0  0  0  0  0
  -26.0740  -38.3260   23.9110 H   0  0  0  0  0  0  0  0  0  0  0  0
  1  3  2  0
  2  1  1  0
  4  2  1  0
  5  9  1  0
  5  7  1  0
  6 19  1  0
  7  6  1  0
  7  2  1  0
  8  9  1  0
  9  6  1  0
  9 10  1  6
 11 20  1  0
 12 17  1  0
 13 14  1  0
 13 12  1  0
 15 14  1  0
 15 26  1  0
 15 16  1  0
 17 11  1  0
 17 16  1  0
 18 11  2  0
 19 21  2  0
 20 19  1  0
 22 20  1  0
 23 24  2  0
 24 25  1  0
 24 43  1  0
 25 28  1  0
 26 23  1  0
 26 27  1  0
 27 25  2  0
 28 29  1  0
 29 30  2  0
 31 34  1  0
 31 30  1  0
 32 31  2  0
 33 32  1  0
 33 28  2  0
 34 35  1  0
 35 36  1  0
 36 37  2  0
 38 37  1  0
 38 42  1  0
 39 38  2  0
 40 35  2  0
 40 39  1  0
 41 40  1  0
 43 44  1  0
 44 47  1  0
 44 46  1  0
 45 43  2  0
 48 49  1  0
 48 23  1  0
 50 48  1  0
 51  1  1  0
 51 52  1  0
 53 55  1  0
 53 52  1  0
 54 65  2  0
 55 60  1  0
 56 64  1  0
 56 66  1  0
 57 63  1  0
 57 59  1  0
 58 64  1  0
 59 58  1  0
 60 59  2  0
 61 55  2  0
 62 61  1  0
 62 57  2  0
 63 56  1  0
 64 54  1  0
 66 68  2  0
 67 66  1  0
 69 67  1  0
 70 79  2  0
 70 75  1  0
 71 67  1  0
 71 75  1  0
 72 71  1  0
 73 74  1  0
 73 72  1  0
 74 70  1  0
 75 76  2  0
 76 77  1  0
 78 77  2  0
 79 78  1  0
 80 54  1  0
 80 85  1  0
 80 81  1  0
 81 84  1  1
 81 82  1  0
 83 81  1  0
 85 88  1  0
 86 90  1  0
 86 85  1  0
 87 86  2  0
 90 89  1  0
 92 90  1  0
 92 93  1  0
 92 91  1  0
M  ISO  4  11 100  20 100  52 101  53 101
M  END
>  <TORSDO>  (86) 
F 19

>  <SCORE>  (86) 
-14.233

>  <name>  (86) 
85

>  <ligand_id>  (86) 
85

>  <original_smiles>  (86) 
[H]c1c([H])c([H])c2c(c1[H])C([H])([H])C([H])([H])C([H])([H])C2([H])N([H])C(=O)C1([H])N(C(=O)C([H])(N([H])C(=O)C([H])(N([H])C([H])([H])[H])C([H])([H])[H])C(C([H])([H])[H])(C([H])([H])[H])C([H])([H])[H])C([H])([H])c2c([H])c(OC([H])([H])C([H])([H])C(=O)N([H])C3([H])C([H])([H])[N+]([H])(C([H])([H])[H])C3([H])C(=O)N([H])C(=O)N3C([H])([H])C([H])([H])C([H])([H])C([H])(n4nc(-c5c([H])c([H])c(Oc6c([H])c([H])c(F)c([H])c6F)c([H])c5[H])c(C(=O)N([H])[H])c4N([H])[H])C3([H])[H])c([H])c([H])c2C1([H])[H]

>  <smiles>  (86) 
[H]c1c([H])c([H])c2c(c1[H])C([H])([H])C([H])([H])C([H])([H])C2([H])N([H])C(=O)C1([H])N(C(=O)C([H])(N([H])C(=O)C([H])(N([H])C([H])([H])[H])C([H])([H])[H])C(C([H])([H])[H])(C([H])([H])[H])C([H])([H])[H])C([H])([H])c2c([H])c(OC([H])([H])C([H])([H])C(=O)N([H])C3([H])C([H])([H])[N+]([H])(C([H])([H])[H])C3([H])C(=O)N([H])C(=O)N3C([H])([H])C([H])([H])C([H])([H])C([H])(n4nc(-c5c([H])c([H])c(Oc6c([H])c([H])c(F)c([H])c6F)c([H])c5[H])c(C(=O)N([H])[H])c4N([H])[H])C3([H])[H])c([H])c([H])c2C1([H])[H]

$$$$
86:0:0
     RDKit          3D

 92100  0  0  1  0  0  0  0  0999 V2000
  -30.0930  -21.6440   19.8970 C   0  0  0  0  0  2  0  0  0  0  0  0
  -28.7710  -19.4130   20.5200 C   0  0  0  0  0  3  0  0  0  0  0  0
  -28.7470  -17.9920   20.6850 C   0  0  0  0  0  3  0  0  0  0  0  0
  -31.0920  -17.8640   20.1880 C   0  0  0  0  0  3  0  0  0  0  0  0
  -29.9650  -20.0980   20.1810 C   0  0  0  0  0  0  0  0  0  0  0  0
  -29.8980  -17.1700   20.5150 C   0  0  0  0  0  0  0  0  0  0  0  0
  -31.1180  -19.2800   20.0270 C   0  0  0  0  0  0  0  0  0  0  0  0
  -32.2960  -19.8620   19.6960 F   0  0  0  0  0  0  0  0  0  0  0  0
  -30.5860  -14.6620   20.3240 C   0  0  0  0  0  0  0  0  0  0  0  0
  -30.3620  -12.4310   19.2500 C   0  0  0  0  0  2  0  0  0  0  0  0
  -29.4080  -12.5780   18.0450 C   0  0  0  0  0  2  0  0  0  0  0  0
  -27.9400  -12.4120   18.4850 C   0  0  0  0  0  2  0  0  0  0  0  0
  -27.5940  -13.2600   19.7380 C   0  0  0  0  0  3  0  0  0  0  0  0
  -28.6620  -13.0970   20.8420 C   0  0  0  0  0  2  0  0  0  0  0  0
  -29.9680  -13.4400   20.2530 N   0  0  0  0  0  0  0  0  0  0  0  0
  -31.7480  -14.8110   19.9310 O   0  0  0  0  0  0  0  0  0  0  0  0
  -29.7820  -15.7150   20.6820 N   0  0  0  0  0  0  0  0  0  0  0  0
  -28.8750  -15.4090   20.9980 H   0  0  0  0  0  0  0  0  0  0  0  0
  -25.2070  -13.8530   20.4820 C   0  0  0  0  0  0  0  0  0  0  0  0
  -24.1460  -13.0790   20.8630 C   0  0  0  0  0  0  0  0  0  0  0  0
  -24.6100  -11.7280   20.8260 C   0  0  0  0  0  0  0  0  0  0  0  0
  -26.2500  -12.9750   20.2340 N   0  0  0  0  0  0  0  0  0  0  0  0
  -25.8980  -11.6910   20.5020 N   0  0  0  0  0  0  0  0  0  0  0  0
  -23.8880  -10.4630   21.0240 C   0  0  0  0  0  0  0  0  0  0  0  0
  -24.3300   -9.4960   21.9530 C   0  0  0  0  0  3  0  0  0  0  0  0
  -23.6090   -8.2980   22.1370 C   0  0  0  0  0  3  0  0  0  0  0  0
  -22.4320   -8.0550   21.3890 C   0  0  0  0  0  0  0  0  0  0  0  0
  -22.0100   -9.0100   20.4490 C   0  0  0  0  0  3  0  0  0  0  0  0
  -22.7310  -10.2020   20.2630 C   0  0  0  0  0  3  0  0  0  0  0  0
  -21.6820   -6.9080   21.4840 O   0  0  0  0  0  0  0  0  0  0  0  0
  -21.6410   -6.1680   22.6380 C   0  0  0  0  0  0  0  0  0  0  0  0
  -21.2130   -6.7220   23.8640 C   0  0  0  0  0  3  0  0  0  0  0  0
  -21.1180   -5.9070   25.0110 C   0  0  0  0  0  3  0  0  0  0  0  0
  -21.4410   -4.5390   24.9320 C   0  0  0  0  0  0  0  0  0  0  0  0
  -21.8610   -3.9850   23.7110 C   0  0  0  0  0  3  0  0  0  0  0  0
  -21.9590   -4.7950   22.5670 C   0  0  0  0  0  0  0  0  0  0  0  0
  -22.3450   -4.2520   21.3870 F   0  0  0  0  0  0  0  0  0  0  0  0
  -21.3430   -3.7540   26.0300 F   0  0  0  0  0  0  0  0  0  0  0  0
  -22.7510  -13.5540   21.1490 C   0  0  0  0  0  0  0  0  0  0  0  0
  -22.0300  -12.8550   22.0200 N   0  0  0  0  0  0  0  0  0  0  0  0
  -22.3070  -14.5800   20.6360 O   0  0  0  0  0  0  0  0  0  0  0  0
  -22.4000  -12.0260   22.4610 H   0  0  0  0  0  0  0  0  0  0  0  0
  -21.0930  -13.1560   22.2510 H   0  0  0  0  0  0  0  0  0  0  0  0
  -25.3650  -15.2240   20.3030 N   0  0  0  0  0  0  0  0  0  0  0  0
  -24.5860  -15.8650   20.4010 H   0  0  0  0  0  0  0  0  0  0  0  0
  -26.1890  -15.6620   19.9120 H   0  0  0  0  0  0  0  0  0  0  0  0
  -29.2420  -24.0320   20.1650 C   0  0  0  0  0  0  0  0  0  0  0  0
  -29.0660  -22.6720   20.2810 N   0  0  0  0  0  0  0  0  0  0  0  0
  -30.3360  -24.4960   19.8360 O   0  0  0  0  0  0  0  0  0  0  0  0
  -28.1540  -22.3390   20.5650 H   0  0  0  0  0  0  0  0  0  0  0  0
  -28.0440  -25.0250   20.4090 C   0  0  0  0  0  2  0  0  0  0  0  0
  -28.3200  -26.4710   20.1830 O   0  0  0  0  0  0  0  0  0  0  0  0
  -24.6270  -31.8890   23.2370 C   0  0  0  0  0  0  0  0  0  0  0  0
  -27.2090  -27.3320   20.1550 C   0  0  0  0  0  0  0  0  0  0  0  0
  -23.4130  -30.5000   21.5980 C   0  0  0  0  0  3  0  0  0  0  0  0
  -24.8520  -28.9530   20.1610 C   0  0  0  0  0  0  0  0  0  0  0  0
  -25.9520  -30.8080   21.4090 C   0  0  0  0  0  2  0  0  0  0  0  0
  -26.0240  -29.4310   20.7610 C   0  0  0  0  0  0  0  0  0  0  0  0
  -27.2060  -28.6300   20.7540 C   0  0  0  0  0  3  0  0  0  0  0  0
  -26.0190  -26.9210   19.5130 C   0  0  0  0  0  3  0  0  0  0  0  0
  -24.8510  -27.7040   19.5280 C   0  0  0  0  0  3  0  0  0  0  0  0
  -23.6210  -29.8320   20.2130 C   0  0  0  0  0  2  0  0  0  0  0  0
  -24.6830  -31.0830   22.1370 N   0  0  0  0  0  0  0  0  0  0  0  0
  -23.5460  -32.1690   23.7750 O   0  0  0  0  0  0  0  0  0  0  0  0
  -22.7520  -29.4800   22.5550 C   0  0  0  0  0  0  0  0  0  0  0  0
  -21.4240  -29.3070   22.4320 N   0  0  0  0  0  0  0  0  0  0  0  0
  -23.4300  -28.8480   23.3690 O   0  0  0  0  0  0  0  0  0  0  0  0
  -20.9350  -29.8680   21.7480 H   0  0  0  0  0  0  0  0  0  0  0  0
  -18.0440  -28.1240   22.9410 C   0  0  0  0  0  0  0  0  0  0  0  0
  -20.6050  -28.3710   23.2050 C   0  0  0  0  0  3  0  0  0  0  0  0
  -20.6990  -26.9410   22.6270 C   0  0  0  0  0  2  0  0  0  0  0  0
  -19.5930  -26.6240   21.6160 C   0  0  0  0  0  2  0  0  0  0  0  0
  -18.2130  -26.7740   22.2650 C   0  0  0  0  0  2  0  0  0  0  0  0
  -19.1670  -28.8810   23.3690 C   0  0  0  0  0  0  0  0  0  0  0  0
  -18.9550  -30.1440   23.9640 C   0  0  0  0  0  3  0  0  0  0  0  0
  -17.6520  -30.6490   24.1350 C   0  0  0  0  0  3  0  0  0  0  0  0
  -16.5440  -29.8900   23.7200 C   0  0  0  0  0  3  0  0  0  0  0  0
  -16.7410  -28.6290   23.1290 C   0  0  0  0  0  3  0  0  0  0  0  0
  -25.9150  -32.5150   23.8550 C   0  0  0  0  0  3  0  0  0  0  0  0
  -26.4350  -31.7360   25.1250 C   0  0  1  0  0  0  0  0  0  0  0  0
  -25.3470  -31.4960   26.1970 C   0  0  0  0  0  1  0  0  0  0  0  0
  -27.0120  -30.3580   24.7240 C   0  0  0  0  0  1  0  0  0  0  0  0
  -27.5920  -32.5220   25.7850 C   0  0  0  0  0  1  0  0  0  0  0  0
  -25.6090  -33.9120   24.1950 N   0  0  0  0  0  0  0  0  0  0  0  0
  -25.9300  -34.9670   23.4340 C   0  0  0  0  0  0  0  0  0  0  0  0
  -26.5850  -34.8670   22.3930 O   0  0  0  0  0  0  0  0  0  0  0  0
  -25.0290  -34.0640   25.0070 H   0  0  0  0  0  0  0  0  0  0  0  0
  -24.1970  -36.7600   23.1090 C   0  0  0  0  0  1  0  0  0  0  0  0
  -25.4500  -36.3550   23.9020 C   0  0  0  0  0  3  0  0  0  0  0  0
  -27.5960  -37.2380   24.7040 C   0  0  0  0  0  1  0  0  0  0  0  0
  -26.4800  -37.4070   23.7760 N   0  0  0  0  0  0  0  0  0  0  0  0
  -26.0760  -38.3270   23.9320 H   0  0  0  0  0  0  0  0  0  0  0  0
  1  5  1  0
  1 48  1  0
  2  3  1  0
  4  6  1  0
  5  2  2  0
  6 17  1  0
  6  3  2  0
  7  5  1  0
  7  4  2  0
  8  7  1  0
  9 17  1  0
 10 15  1  0
 11 12  1  0
 11 10  1  0
 13 12  1  0
 13 22  1  0
 13 14  1  0
 15  9  1  0
 15 14  1  0
 16  9  2  0
 17 18  1  0
 19 20  2  0
 20 39  1  0
 21 20  1  0
 21 24  1  0
 22 19  1  0
 22 23  1  0
 23 21  2  0
 24 25  1  0
 25 26  2  0
 27 30  1  0
 27 26  1  0
 28 27  2  0
 29 28  1  0
 29 24  2  0
 30 31  1  0
 31 32  1  0
 32 33  2  0
 34 33  1  0
 34 38  1  0
 35 34  2  0
 36 31  2  0
 36 35  1  0
 37 36  1  0
 39 40  1  0
 40 43  1  0
 40 42  1  0
 41 39  2  0
 44 45  1  0
 44 19  1  0
 46 44  1  0
 47 48  1  0
 47 51  1  0
 48 50  1  0
 49 47  2  0
 52 51  1  0
 53 64  2  0
 54 52  1  0
 54 59  1  0
 55 63  1  0
 55 65  1  0
 56 62  1  0
 56 58  1  0
 57 63  1  0
 58 57  1  0
 59 58  2  0
 60 61  1  0
 60 54  2  0
 61 56  2  0
 62 55  1  0
 63 53  1  0
 65 67  2  0
 66 65  1  0
 68 66  1  0
 69 78  2  0
 69 74  1  0
 70 66  1  0
 70 74  1  0
 71 70  1  0
 72 73  1  0
 72 71  1  0
 73 69  1  0
 74 75  2  0
 75 76  1  0
 77 76  2  0
 78 77  1  0
 79 53  1  0
 79 84  1  0
 79 80  1  0
 80 83  1  1
 80 81  1  0
 82 80  1  0
 84 87  1  0
 85 89  1  0
 85 84  1  0
 86 85  2  0
 89 88  1  0
 91 89  1  0
 91 92  1  0
 91 90  1  0
M  ISO  4   9 100  17 100  51 101  52 101
M  END
>  <TORSDO>  (87) 
F 19

>  <SCORE>  (87) 
-14.298

>  <name>  (87) 
86

>  <ligand_id>  (87) 
86

>  <original_smiles>  (87) 
[H]c1c([H])c([H])c2c(c1[H])C([H])([H])C([H])([H])C([H])([H])C2([H])N([H])C(=O)C1([H])N(C(=O)C([H])(N([H])C(=O)C([H])(N([H])C([H])([H])[H])C([H])([H])[H])C(C([H])([H])[H])(C([H])([H])[H])C([H])([H])[H])C([H])([H])c2c([H])c(OC([H])([H])C(=O)N([H])C([H])([H])c3c([H])c([H])c(N([H])C(=O)N4C([H])([H])C([H])([H])C([H])([H])C([H])(n5nc(-c6c([H])c([H])c(Oc7c([H])c([H])c(F)c([H])c7F)c([H])c6[H])c(C(=O)N([H])[H])c5N([H])[H])C4([H])[H])c([H])c3F)c([H])c([H])c2C1([H])[H]

>  <smiles>  (87) 
[H]c1c([H])c([H])c2c(c1[H])C([H])([H])C([H])([H])C([H])([H])C2([H])N([H])C(=O)C1([H])N(C(=O)C([H])(N([H])C(=O)C([H])(N([H])C([H])([H])[H])C([H])([H])[H])C(C([H])([H])[H])(C([H])([H])[H])C([H])([H])[H])C([H])([H])c2c([H])c(OC([H])([H])C(=O)N([H])C([H])([H])c3c([H])c([H])c(N([H])C(=O)N4C([H])([H])C([H])([H])C([H])([H])C([H])(n5nc(-c6c([H])c([H])c(Oc7c([H])c([H])c(F)c([H])c7F)c([H])c6[H])c(C(=O)N([H])[H])c5N([H])[H])C4([H])[H])c([H])c3F)c([H])c([H])c2C1([H])[H]

$$$$
87:0:0
     RDKit          3D

 96104  0  0  1  0  0  0  0  0999 V2000
  -30.5320  -20.8590   20.0170 C   0  0  0  0  0  2  0  0  0  0  0  0
  -31.7370  -20.0690   20.2950 N   0  0  0  0  0  0  0  0  0  0  0  0
  -32.4550  -20.6680   20.6980 H   0  0  0  0  0  0  0  0  0  0  0  0
  -31.1920  -17.6920   20.6520 C   0  0  0  0  0  3  0  0  0  0  0  0
  -31.3760  -18.1160   23.4370 C   0  0  0  0  0  3  0  0  0  0  0  0
  -30.9650  -16.6160   21.5510 C   0  0  0  0  0  0  0  0  0  0  0  0
  -31.5180  -18.9780   21.1530 C   0  0  0  0  0  0  0  0  0  0  0  0
  -31.0360  -16.8470   22.9390 C   0  0  0  0  0  0  0  0  0  0  0  0
  -31.6240  -19.1760   22.5470 C   0  0  0  0  0  0  0  0  0  0  0  0
  -30.7700  -15.8340   23.7990 F   0  0  0  0  0  0  0  0  0  0  0  0
  -31.9480  -20.4020   23.0290 F   0  0  0  0  0  0  0  0  0  0  0  0
  -31.0850  -14.4950   20.2170 C   0  0  0  0  0  0  0  0  0  0  0  0
  -30.6880  -12.4130   18.9390 C   0  0  0  0  0  2  0  0  0  0  0  0
  -29.7120  -12.6760   17.7730 C   0  0  0  0  0  2  0  0  0  0  0  0
  -28.2470  -12.5640   18.2420 C   0  0  0  0  0  2  0  0  0  0  0  0
  -27.9730  -13.3810   19.5330 C   0  0  0  0  0  3  0  0  0  0  0  0
  -29.0410  -13.0650   20.6020 C   0  0  0  0  0  2  0  0  0  0  0  0
  -30.3710  -13.3520   20.0260 N   0  0  0  0  0  0  0  0  0  0  0  0
  -32.1170  -14.7630   19.5930 O   0  0  0  0  0  0  0  0  0  0  0  0
  -30.5710  -15.3090   21.1530 N   0  0  0  0  0  0  0  0  0  0  0  0
  -29.8460  -14.8910   21.7180 H   0  0  0  0  0  0  0  0  0  0  0  0
  -25.6000  -14.0610   20.2730 C   0  0  0  0  0  0  0  0  0  0  0  0
  -24.5200  -13.3180   20.6700 C   0  0  0  0  0  0  0  0  0  0  0  0
  -24.9460  -11.9550   20.6450 C   0  0  0  0  0  0  0  0  0  0  0  0
  -26.6190  -13.1500   20.0340 N   0  0  0  0  0  0  0  0  0  0  0  0
  -26.2280  -11.8800   20.3120 N   0  0  0  0  0  0  0  0  0  0  0  0
  -24.1950  -10.7140   20.8620 C   0  0  0  0  0  0  0  0  0  0  0  0
  -24.6110   -9.7560   21.8130 C   0  0  0  0  0  3  0  0  0  0  0  0
  -23.8620   -8.5760   22.0160 C   0  0  0  0  0  3  0  0  0  0  0  0
  -22.6830   -8.3470   21.2680 C   0  0  0  0  0  0  0  0  0  0  0  0
  -22.2850   -9.2940   20.3080 C   0  0  0  0  0  3  0  0  0  0  0  0
  -23.0340  -10.4640   20.1030 C   0  0  0  0  0  3  0  0  0  0  0  0
  -21.9060   -7.2190   21.3800 O   0  0  0  0  0  0  0  0  0  0  0  0
  -21.8210   -6.5170   22.5560 C   0  0  0  0  0  0  0  0  0  0  0  0
  -21.4030   -7.1280   23.7580 C   0  0  0  0  0  3  0  0  0  0  0  0
  -21.2630   -6.3540   24.9280 C   0  0  0  0  0  3  0  0  0  0  0  0
  -21.5290   -4.9720   24.8960 C   0  0  0  0  0  0  0  0  0  0  0  0
  -21.9390   -4.3620   23.6980 C   0  0  0  0  0  3  0  0  0  0  0  0
  -22.0820   -5.1330   22.5300 C   0  0  0  0  0  0  0  0  0  0  0  0
  -22.4570   -4.5350   21.3730 F   0  0  0  0  0  0  0  0  0  0  0  0
  -21.3860   -4.2280   26.0170 F   0  0  0  0  0  0  0  0  0  0  0  0
  -23.1390  -13.8320   20.9650 C   0  0  0  0  0  0  0  0  0  0  0  0
  -22.4170  -13.1710   21.8640 N   0  0  0  0  0  0  0  0  0  0  0  0
  -22.7100  -14.8560   20.4340 O   0  0  0  0  0  0  0  0  0  0  0  0
  -22.7770  -12.3420   22.3130 H   0  0  0  0  0  0  0  0  0  0  0  0
  -21.4930  -13.4980   22.1030 H   0  0  0  0  0  0  0  0  0  0  0  0
  -25.7960  -15.4240   20.0790 N   0  0  0  0  0  0  0  0  0  0  0  0
  -25.0520  -16.1030   20.1980 H   0  0  0  0  0  0  0  0  0  0  0  0
  -26.6590  -15.8370   19.7440 H   0  0  0  0  0  0  0  0  0  0  0  0
  -30.7350  -22.3820   20.2510 C   0  0  0  0  0  2  0  0  0  0  0  0
  -29.5090  -23.1670   19.9570 N   0  0  0  0  0  4  0  0  0  0  0  0
  -28.7750  -22.8110   20.5500 H   0  0  0  0  0  0  0  0  0  0  0  0
  -29.2390  -22.9870   19.0020 H   0  0  0  0  0  0  0  0  0  0  0  0
  -29.6200  -24.6390   20.1680 C   0  0  0  0  0  2  0  0  0  0  0  0
  -28.2970  -25.3710   19.8500 C   0  0  0  0  0  2  0  0  0  0  0  0
  -28.3590  -26.7750   20.1530 O   0  0  0  0  0  0  0  0  0  0  0  0
  -24.5500  -31.9540   23.2270 C   0  0  0  0  0  0  0  0  0  0  0  0
  -27.1710  -27.4880   20.1450 C   0  0  0  0  0  0  0  0  0  0  0  0
  -23.3270  -30.5420   21.6060 C   0  0  0  0  0  3  0  0  0  0  0  0
  -24.7690  -28.9950   20.1800 C   0  0  0  0  0  0  0  0  0  0  0  0
  -25.8520  -30.8980   21.3810 C   0  0  0  0  0  2  0  0  0  0  0  0
  -25.9330  -29.5220   20.7510 C   0  0  0  0  0  0  0  0  0  0  0  0
  -27.1350  -28.7770   20.7300 C   0  0  0  0  0  3  0  0  0  0  0  0
  -25.9800  -26.9790   19.5700 C   0  0  0  0  0  3  0  0  0  0  0  0
  -24.7870  -27.7220   19.5900 C   0  0  0  0  0  3  0  0  0  0  0  0
  -23.5260  -29.8550   20.2280 C   0  0  0  0  0  2  0  0  0  0  0  0
  -24.5960  -31.1460   22.1300 N   0  0  0  0  0  0  0  0  0  0  0  0
  -23.4730  -32.2300   23.7730 O   0  0  0  0  0  0  0  0  0  0  0  0
  -22.6860  -29.5260   22.5780 C   0  0  0  0  0  0  0  0  0  0  0  0
  -21.3650  -29.3190   22.4420 N   0  0  0  0  0  0  0  0  0  0  0  0
  -23.3720  -28.9260   23.4090 O   0  0  0  0  0  0  0  0  0  0  0  0
  -20.8720  -29.8610   21.7470 H   0  0  0  0  0  0  0  0  0  0  0  0
  -18.0160  -28.0410   22.8920 C   0  0  0  0  0  0  0  0  0  0  0  0
  -20.5570  -28.3820   23.2220 C   0  0  0  0  0  3  0  0  0  0  0  0
  -20.7140  -26.9360   22.6930 C   0  0  0  0  0  2  0  0  0  0  0  0
  -19.6480  -26.5510   21.6620 C   0  0  0  0  0  2  0  0  0  0  0  0
  -18.2480  -26.6770   22.2660 C   0  0  0  0  0  2  0  0  0  0  0  0
  -19.1010  -28.8480   23.3260 C   0  0  0  0  0  0  0  0  0  0  0  0
  -18.8320  -30.1230   23.8690 C   0  0  0  0  0  3  0  0  0  0  0  0
  -17.5090  -30.5920   23.9840 C   0  0  0  0  0  3  0  0  0  0  0  0
  -16.4380  -29.7840   23.5670 C   0  0  0  0  0  3  0  0  0  0  0  0
  -16.6920  -28.5110   23.0260 C   0  0  0  0  0  3  0  0  0  0  0  0
  -25.8410  -32.5880   23.8300 C   0  0  0  0  0  3  0  0  0  0  0  0
  -25.5300  -33.9820   24.1720 N   0  0  0  0  0  0  0  0  0  0  0  0
  -25.8480  -35.0390   23.4140 C   0  0  0  0  0  0  0  0  0  0  0  0
  -26.5050  -34.9440   22.3740 O   0  0  0  0  0  0  0  0  0  0  0  0
  -24.9430  -34.1300   24.9800 H   0  0  0  0  0  0  0  0  0  0  0  0
  -24.1060  -36.8240   23.0880 C   0  0  0  0  0  1  0  0  0  0  0  0
  -25.3580  -36.4230   23.8830 C   0  0  0  0  0  3  0  0  0  0  0  0
  -27.5010  -37.3130   24.6870 C   0  0  0  0  0  1  0  0  0  0  0  0
  -26.3840  -37.4830   23.7610 N   0  0  0  0  0  0  0  0  0  0  0  0
  -25.9740  -38.4000   23.9220 H   0  0  0  0  0  0  0  0  0  0  0  0
  -26.3830  -31.8110   25.0930 C   0  0  1  0  0  0  0  0  0  0  0  0
  -25.3090  -31.5610   26.1770 C   0  0  0  0  0  1  0  0  0  0  0  0
  -26.9670  -30.4390   24.6780 C   0  0  0  0  0  1  0  0  0  0  0  0
  -27.5390  -32.6070   25.7410 C   0  0  0  0  0  1  0  0  0  0  0  0
  1 50  1  0
  1  2  1  0
  2  3  1  0
  2  7  1  0
  4  7  2  0
  4  6  1  0
  6  8  2  0
  7  9  1  0
  8  5  1  0
  8 10  1  0
  9 11  1  0
  9  5  2  0
 12 20  1  0
 13 18  1  0
 14 15  1  0
 14 13  1  0
 16 15  1  0
 16 25  1  0
 16 17  1  0
 18 12  1  0
 18 17  1  0
 19 12  2  0
 20  6  1  0
 20 21  1  0
 22 23  2  0
 23 42  1  0
 24 23  1  0
 24 27  1  0
 25 22  1  0
 25 26  1  0
 26 24  2  0
 27 28  1  0
 28 29  2  0
 30 33  1  0
 30 29  1  0
 31 30  2  0
 32 31  1  0
 32 27  2  0
 33 34  1  0
 34 35  1  0
 35 36  2  0
 37 36  1  0
 37 41  1  0
 38 37  2  0
 39 34  2  0
 39 38  1  0
 40 39  1  0
 42 43  1  0
 43 46  1  0
 43 45  1  0
 44 42  2  0
 47 48  1  0
 47 22  1  0
 49 47  1  0
 51 54  1  0
 51 50  1  0
 51 52  1  0
 53 51  1  0
 55 56  1  0
 55 54  1  0
 57 68  2  0
 58 56  1  0
 58 63  1  0
 59 67  1  0
 59 69  1  0
 60 66  1  0
 60 62  1  0
 61 67  1  0
 62 61  1  0
 63 62  2  0
 64 65  1  0
 64 58  2  0
 65 60  2  0
 66 59  1  0
 67 57  1  0
 69 71  2  0
 70 69  1  0
 72 70  1  0
 73 82  2  0
 73 78  1  0
 74 70  1  0
 74 78  1  0
 75 74  1  0
 76 77  1  0
 76 75  1  0
 77 73  1  0
 78 79  2  0
 79 80  1  0
 81 80  2  0
 82 81  1  0
 83 57  1  0
 83 84  1  0
 83 93  1  0
 84 87  1  0
 85 89  1  0
 85 84  1  0
 86 85  2  0
 89 88  1  0
 91 89  1  0
 91 92  1  0
 91 90  1  0
 93 96  1  1
 93 94  1  0
 95 93  1  0
M  ISO  4  12 100  20 100  55 101  56 101
M  END
>  <TORSDO>  (88) 
F 22

>  <SCORE>  (88) 
-10.841

>  <name>  (88) 
87

>  <ligand_id>  (88) 
87

>  <original_smiles>  (88) 
[H]c1c([H])c([H])c2c(c1[H])C([H])([H])C([H])([H])C([H])([H])C2([H])N([H])C(=O)C1([H])N(C(=O)C([H])(N([H])C(=O)C([H])(N([H])C([H])([H])[H])C([H])([H])[H])C(C([H])([H])[H])(C([H])([H])[H])C([H])([H])[H])C([H])([H])c2c([H])c(OC([H])([H])C([H])([H])[N+]([H])([H])C([H])([H])C([H])([H])N([H])c3c([H])c(N([H])C(=O)N4C([H])([H])C([H])([H])C([H])([H])C([H])(n5nc(-c6c([H])c([H])c(Oc7c([H])c([H])c(F)c([H])c7F)c([H])c6[H])c(C(=O)N([H])[H])c5N([H])[H])C4([H])[H])c(F)c([H])c3F)c([H])c([H])c2C1([H])[H]

>  <smiles>  (88) 
[H]c1c([H])c([H])c2c(c1[H])C([H])([H])C([H])([H])C([H])([H])C2([H])N([H])C(=O)C1([H])N(C(=O)C([H])(N([H])C(=O)C([H])(N([H])C([H])([H])[H])C([H])([H])[H])C(C([H])([H])[H])(C([H])([H])[H])C([H])([H])[H])C([H])([H])c2c([H])c(OC([H])([H])C([H])([H])[N+]([H])([H])C([H])([H])C([H])([H])N([H])c3c([H])c(N([H])C(=O)N4C([H])([H])C([H])([H])C([H])([H])C([H])(n5nc(-c6c([H])c([H])c(Oc7c([H])c([H])c(F)c([H])c7F)c([H])c6[H])c(C(=O)N([H])[H])c5N([H])[H])C4([H])[H])c(F)c([H])c3F)c([H])c([H])c2C1([H])[H]

$$$$
88:0:0
     RDKit          3D

 95103  0  0  1  0  0  0  0  0999 V2000
  -29.3120  -20.0170   21.2170 C   0  0  0  0  0  0  0  0  0  0  0  0
  -30.0050  -20.9690   18.9110 C   0  0  0  0  0  2  0  0  0  0  0  0
  -30.0350  -19.5140   18.4430 C   0  0  0  0  0  2  0  0  0  0  0  0
  -29.1430  -21.1500   20.1720 C   0  0  0  0  0  3  0  0  0  0  0  0
  -30.4900  -18.5290   19.5620 C   0  0  0  0  0  3  0  0  0  0  0  0
  -29.8290  -18.8300   20.8370 N   0  0  0  0  0  0  0  0  0  0  0  0
  -28.9530  -20.2010   22.3800 O   0  0  0  0  0  0  0  0  0  0  0  0
  -29.8900  -18.1130   21.5470 H   0  0  0  0  0  0  0  0  0  0  0  0
  -28.9010  -23.6410   20.3090 C   0  0  0  0  0  0  0  0  0  0  0  0
  -29.4110  -22.4760   20.7420 N   0  0  0  0  0  0  0  0  0  0  0  0
  -27.9790  -23.6960   19.4950 O   0  0  0  0  0  0  0  0  0  0  0  0
  -30.1100  -22.4980   21.4720 H   0  0  0  0  0  0  0  0  0  0  0  0
  -29.5660  -24.9290   20.8280 C   0  0  0  0  0  2  0  0  0  0  0  0
  -28.6350  -26.1470   21.0400 C   0  0  0  0  0  2  0  0  0  0  0  0
  -28.4790  -26.9740   19.8780 O   0  0  0  0  0  0  0  0  0  0  0  0
  -24.6190  -31.9410   23.2200 C   0  0  0  0  0  0  0  0  0  0  0  0
  -27.3250  -27.7170   19.9150 C   0  0  0  0  0  0  0  0  0  0  0  0
  -23.4190  -30.5740   21.5410 C   0  0  0  0  0  3  0  0  0  0  0  0
  -24.8910  -29.1360   20.0260 C   0  0  0  0  0  0  0  0  0  0  0  0
  -25.9280  -31.0160   21.3120 C   0  0  0  0  0  2  0  0  0  0  0  0
  -26.0420  -29.6760   20.6160 C   0  0  0  0  0  0  0  0  0  0  0  0
  -27.2660  -28.9720   20.5600 C   0  0  0  0  0  3  0  0  0  0  0  0
  -26.1660  -27.1900   19.3150 C   0  0  0  0  0  3  0  0  0  0  0  0
  -24.9460  -27.8930   19.3700 C   0  0  0  0  0  3  0  0  0  0  0  0
  -23.6250  -29.9560   20.1290 C   0  0  0  0  0  2  0  0  0  0  0  0
  -24.6730  -31.1880   22.0840 N   0  0  0  0  0  0  0  0  0  0  0  0
  -23.5410  -32.1610   23.7900 O   0  0  0  0  0  0  0  0  0  0  0  0
  -22.8130  -29.4960   22.4700 C   0  0  0  0  0  0  0  0  0  0  0  0
  -21.4940  -29.2770   22.3550 N   0  0  0  0  0  0  0  0  0  0  0  0
  -23.5290  -28.8620   23.2510 O   0  0  0  0  0  0  0  0  0  0  0  0
  -20.9750  -29.8500   21.7030 H   0  0  0  0  0  0  0  0  0  0  0  0
  -18.1670  -27.9570   22.8530 C   0  0  0  0  0  0  0  0  0  0  0  0
  -20.7190  -28.2830   23.0990 C   0  0  0  0  0  3  0  0  0  0  0  0
  -20.8560  -26.8810   22.4660 C   0  0  0  0  0  2  0  0  0  0  0  0
  -19.7510  -26.5650   21.4540 C   0  0  0  0  0  2  0  0  0  0  0  0
  -18.3750  -26.6420   22.1210 C   0  0  0  0  0  2  0  0  0  0  0  0
  -19.2690  -28.7350   23.2980 C   0  0  0  0  0  0  0  0  0  0  0  0
  -19.0230  -29.9670   23.9410 C   0  0  0  0  0  3  0  0  0  0  0  0
  -17.7070  -30.4230   24.1450 C   0  0  0  0  0  3  0  0  0  0  0  0
  -16.6200  -29.6420   23.7170 C   0  0  0  0  0  3  0  0  0  0  0  0
  -16.8510  -28.4110   23.0760 C   0  0  0  0  0  3  0  0  0  0  0  0
  -25.9000  -32.5790   23.8420 C   0  0  0  0  0  3  0  0  0  0  0  0
  -26.4350  -31.8010   25.1070 C   0  0  1  0  0  0  0  0  0  0  0  0
  -25.3490  -31.5330   26.1740 C   0  0  0  0  0  1  0  0  0  0  0  0
  -27.0420  -30.4380   24.6960 C   0  0  0  0  0  1  0  0  0  0  0  0
  -27.5710  -32.6070   25.7790 C   0  0  0  0  0  1  0  0  0  0  0  0
  -25.5770  -33.9710   24.1850 N   0  0  0  0  0  0  0  0  0  0  0  0
  -25.9040  -35.0330   23.4370 C   0  0  0  0  0  0  0  0  0  0  0  0
  -26.5790  -34.9460   22.4070 O   0  0  0  0  0  0  0  0  0  0  0  0
  -24.9760  -34.1100   24.9840 H   0  0  0  0  0  0  0  0  0  0  0  0
  -24.1740  -36.8240   23.0710 C   0  0  0  0  0  1  0  0  0  0  0  0
  -25.3990  -36.4120   23.9030 C   0  0  0  0  0  3  0  0  0  0  0  0
  -27.5070  -37.3020   24.7980 C   0  0  0  0  0  1  0  0  0  0  0  0
  -26.4270  -37.4730   23.8290 N   0  0  0  0  0  0  0  0  0  0  0  0
  -26.0120  -38.3880   23.9740 H   0  0  0  0  0  0  0  0  0  0  0  0
  -31.2100  -16.7490   17.8650 C   0  0  0  0  0  1  0  0  0  0  0  0
  -30.3280  -17.0380   19.1050 C   0  0  0  0  0  3  0  0  0  0  0  0
  -31.1860  -14.8950   20.2050 C   0  0  0  0  0  0  0  0  0  0  0  0
  -30.9170  -12.6510   19.2460 C   0  0  0  0  0  2  0  0  0  0  0  0
  -29.9850  -12.7720   18.0200 C   0  0  0  0  0  2  0  0  0  0  0  0
  -28.4990  -12.6940   18.4300 C   0  0  0  0  0  2  0  0  0  0  0  0
  -28.1570  -13.5920   19.6520 C   0  0  0  0  0  3  0  0  0  0  0  0
  -29.2040  -13.4390   20.7800 C   0  0  0  0  0  2  0  0  0  0  0  0
  -30.5340  -13.7010   20.2070 N   0  0  0  0  0  0  0  0  0  0  0  0
  -32.3790  -14.9960   19.9130 O   0  0  0  0  0  0  0  0  0  0  0  0
  -30.3670  -15.9740   20.1560 N   0  0  0  0  0  0  0  0  0  0  0  0
  -29.4640  -15.7890   20.5670 H   0  0  0  0  0  0  0  0  0  0  0  0
  -25.7870  -14.2560   20.4030 C   0  0  0  0  0  0  0  0  0  0  0  0
  -24.6940  -13.5100   20.7590 C   0  0  0  0  0  0  0  0  0  0  0  0
  -25.1130  -12.1450   20.6810 C   0  0  0  0  0  0  0  0  0  0  0  0
  -26.8000  -13.3480   20.1360 N   0  0  0  0  0  0  0  0  0  0  0  0
  -26.3970  -12.0720   20.3660 N   0  0  0  0  0  0  0  0  0  0  0  0
  -24.3470  -10.9010   20.8380 C   0  0  0  0  0  0  0  0  0  0  0  0
  -24.7210   -9.9250   21.7850 C   0  0  0  0  0  3  0  0  0  0  0  0
  -23.9670   -8.7400   21.9300 C   0  0  0  0  0  3  0  0  0  0  0  0
  -22.8190   -8.5280   21.1280 C   0  0  0  0  0  0  0  0  0  0  0  0
  -22.4620   -9.4960   20.1730 C   0  0  0  0  0  3  0  0  0  0  0  0
  -23.2180  -10.6700   20.0270 C   0  0  0  0  0  3  0  0  0  0  0  0
  -22.0330   -7.4030   21.1820 O   0  0  0  0  0  0  0  0  0  0  0  0
  -21.8670   -6.6940   22.3450 C   0  0  0  0  0  0  0  0  0  0  0  0
  -21.2970   -7.2750   23.4980 C   0  0  0  0  0  3  0  0  0  0  0  0
  -21.0870   -6.4930   24.6500 C   0  0  0  0  0  3  0  0  0  0  0  0
  -21.4310   -5.1280   24.6450 C   0  0  0  0  0  0  0  0  0  0  0  0
  -21.9860   -4.5420   23.4930 C   0  0  0  0  0  3  0  0  0  0  0  0
  -22.2000   -5.3230   22.3450 C   0  0  0  0  0  0  0  0  0  0  0  0
  -22.7200   -4.7520   21.2320 F   0  0  0  0  0  0  0  0  0  0  0  0
  -21.2200   -4.3710   25.7480 F   0  0  0  0  0  0  0  0  0  0  0  0
  -23.3160  -14.0220   21.0540 C   0  0  0  0  0  0  0  0  0  0  0  0
  -22.5700  -13.3240   21.9080 N   0  0  0  0  0  0  0  0  0  0  0  0
  -22.9070  -15.0720   20.5630 O   0  0  0  0  0  0  0  0  0  0  0  0
  -22.9130  -12.4740   22.3290 H   0  0  0  0  0  0  0  0  0  0  0  0
  -21.6430  -13.6470   22.1410 H   0  0  0  0  0  0  0  0  0  0  0  0
  -26.0030  -15.6270   20.2620 N   0  0  0  0  0  0  0  0  0  0  0  0
  -25.2630  -16.3090   20.3770 H   0  0  0  0  0  0  0  0  0  0  0  0
  -26.8590  -16.0330   19.9090 H   0  0  0  0  0  0  0  0  0  0  0  0
  1  7  2  0
  2  4  1  0
  3  2  1  0
  3  5  1  0
  4 10  1  0
  4  1  1  0
  5 57  1  0
  5  6  1  0
  6  1  1  0
  6  8  1  0
  9 10  1  0
  9 13  1  0
 10 12  1  0
 11  9  2  0
 13 14  1  0
 15 17  1  0
 15 14  1  0
 16 27  2  0
 17 22  1  0
 18 26  1  0
 18 28  1  0
 19 25  1  0
 19 21  1  0
 20 26  1  0
 21 20  1  0
 22 21  2  0
 23 24  1  0
 23 17  2  0
 24 19  2  0
 25 18  1  0
 26 16  1  0
 28 30  2  0
 29 28  1  0
 31 29  1  0
 32 41  2  0
 32 37  1  0
 33 29  1  0
 33 37  1  0
 34 33  1  0
 35 36  1  0
 35 34  1  0
 36 32  1  0
 37 38  2  0
 38 39  1  0
 40 39  2  0
 41 40  1  0
 42 16  1  0
 42 47  1  0
 42 43  1  0
 43 46  1  1
 43 44  1  0
 45 43  1  0
 47 50  1  0
 48 52  1  0
 48 47  1  0
 49 48  2  0
 52 51  1  0
 54 52  1  0
 54 55  1  0
 54 53  1  0
 57 56  1  0
 57 66  1  0
 58 64  1  0
 59 64  1  0
 60 61  1  0
 60 59  1  0
 62 61  1  0
 62 71  1  0
 62 63  1  0
 64 63  1  0
 65 58  2  0
 66 58  1  0
 66 67  1  0
 68 69  2  0
 69 88  1  0
 70 69  1  0
 70 73  1  0
 71 72  1  0
 71 68  1  0
 72 70  2  0
 73 74  1  0
 74 75  2  0
 76 79  1  0
 76 75  1  0
 77 76  2  0
 78 77  1  0
 78 73  2  0
 79 80  1  0
 80 81  1  0
 81 82  2  0
 83 82  1  0
 83 87  1  0
 84 83  2  0
 85 80  2  0
 85 84  1  0
 86 85  1  0
 88 89  1  0
 89 92  1  0
 89 91  1  0
 90 88  2  0
 93 94  1  0
 93 68  1  0
 95 93  1  0
M  ISO  4  14 101  15 101  58 100  66 100
M  END
>  <TORSDO>  (89) 
F 20

>  <SCORE>  (89) 
-12.010

>  <name>  (89) 
88

>  <ligand_id>  (89) 
88

>  <original_smiles>  (89) 
[H]c1c([H])c([H])c2c(c1[H])C([H])([H])C([H])([H])C([H])([H])C2([H])N([H])C(=O)C1([H])N(C(=O)C([H])(N([H])C(=O)C([H])(N([H])C([H])([H])[H])C([H])([H])[H])C(C([H])([H])[H])(C([H])([H])[H])C([H])([H])[H])C([H])([H])c2c([H])c(OC([H])([H])C([H])([H])C(=O)N([H])C3([H])C(=O)N([H])C([H])(C([H])(N([H])C(=O)N4C([H])([H])C([H])([H])C([H])([H])C([H])(n5nc(-c6c([H])c([H])c(Oc7c([H])c([H])c(F)c([H])c7F)c([H])c6[H])c(C(=O)N([H])[H])c5N([H])[H])C4([H])[H])C([H])([H])[H])C([H])([H])C3([H])[H])c([H])c([H])c2C1([H])[H]

>  <smiles>  (89) 
[H]c1c([H])c([H])c2c(c1[H])C([H])([H])C([H])([H])C([H])([H])C2([H])N([H])C(=O)C1([H])N(C(=O)C([H])(N([H])C(=O)C([H])(N([H])C([H])([H])[H])C([H])([H])[H])C(C([H])([H])[H])(C([H])([H])[H])C([H])([H])[H])C([H])([H])c2c([H])c(OC([H])([H])C([H])([H])C(=O)N([H])C3([H])C(=O)N([H])C([H])(C([H])(N([H])C(=O)N4C([H])([H])C([H])([H])C([H])([H])C([H])(n5nc(-c6c([H])c([H])c(Oc7c([H])c([H])c(F)c([H])c7F)c([H])c6[H])c(C(=O)N([H])[H])c5N([H])[H])C4([H])[H])C([H])([H])[H])C([H])([H])C3([H])[H])c([H])c([H])c2C1([H])[H]

$$$$
89:0:0
     RDKit          3D

 99108  0  0  1  0  0  0  0  0999 V2000
  -30.3730  -22.4730   19.1140 C   0  0  0  0  0  2  0  0  0  0  0  0
  -29.5510  -21.1450   20.5810 C   0  0  0  0  0  3  0  0  0  0  0  0
  -29.1190  -22.5840   19.9810 C   0  0  0  0  0  3  0  0  0  0  0  0
  -30.8610  -21.3920   19.9740 N   0  0  0  0  0  0  0  0  0  0  0  0
  -29.5320  -18.4740   20.8770 C   0  0  0  0  0  3  0  0  0  0  0  0
  -28.2510  -18.1710   18.4180 C   0  0  0  0  0  3  0  0  0  0  0  0
  -29.1500  -19.6710   20.1460 C   0  0  0  0  0  0  0  0  0  0  0  0
  -29.3020  -17.1290   20.3770 C   0  0  0  0  0  0  0  0  0  0  0  0
  -28.4980  -19.4650   18.9040 C   0  0  0  0  0  0  0  0  0  0  0  0
  -28.6410  -17.0270   19.1310 C   0  0  0  0  0  0  0  0  0  0  0  0
  -28.1140  -20.5090   18.1340 F   0  0  0  0  0  0  0  0  0  0  0  0
  -28.3430  -15.8160   18.6110 F   0  0  0  0  0  0  0  0  0  0  0  0
  -30.3830  -14.8280   20.7300 C   0  0  0  0  0  0  0  0  0  0  0  0
  -30.3300  -12.5520   19.7250 C   0  0  0  0  0  2  0  0  0  0  0  0
  -29.4240  -12.6040   18.4730 C   0  0  0  0  0  2  0  0  0  0  0  0
  -27.9410  -12.4060   18.8490 C   0  0  0  0  0  2  0  0  0  0  0  0
  -27.5060  -13.2510   20.0790 C   0  0  0  0  0  3  0  0  0  0  0  0
  -28.5370  -13.1600   21.2250 C   0  0  0  0  0  2  0  0  0  0  0  0
  -29.8390  -13.5670   20.6850 N   0  0  0  0  0  0  0  0  0  0  0  0
  -31.5410  -15.0220   20.3490 O   0  0  0  0  0  0  0  0  0  0  0  0
  -29.5730  -15.8810   21.1100 N   0  0  0  0  0  0  0  0  0  0  0  0
  -28.7880  -15.5790   21.6680 H   0  0  0  0  0  0  0  0  0  0  0  0
  -25.0790  -13.7370   20.7600 C   0  0  0  0  0  0  0  0  0  0  0  0
  -24.0360  -12.9140   21.0930 C   0  0  0  0  0  0  0  0  0  0  0  0
  -24.5520  -11.5830   21.0430 C   0  0  0  0  0  0  0  0  0  0  0  0
  -26.1610  -12.9030   20.5290 N   0  0  0  0  0  0  0  0  0  0  0  0
  -25.8500  -11.6020   20.7630 N   0  0  0  0  0  0  0  0  0  0  0  0
  -23.8700  -10.2890   21.1890 C   0  0  0  0  0  0  0  0  0  0  0  0
  -24.3130   -9.3230   22.1200 C   0  0  0  0  0  3  0  0  0  0  0  0
  -23.6310   -8.0960   22.2590 C   0  0  0  0  0  3  0  0  0  0  0  0
  -22.4910   -7.8260   21.4660 C   0  0  0  0  0  0  0  0  0  0  0  0
  -22.0670   -8.7810   20.5260 C   0  0  0  0  0  3  0  0  0  0  0  0
  -22.7500  -10.0000   20.3850 C   0  0  0  0  0  3  0  0  0  0  0  0
  -21.7790   -6.6520   21.5130 O   0  0  0  0  0  0  0  0  0  0  0  0
  -21.7240   -5.8860   22.6510 C   0  0  0  0  0  0  0  0  0  0  0  0
  -21.2060   -6.3910   23.8640 C   0  0  0  0  0  3  0  0  0  0  0  0
  -21.1040   -5.5500   24.9900 C   0  0  0  0  0  3  0  0  0  0  0  0
  -21.5100   -4.2040   24.9040 C   0  0  0  0  0  0  0  0  0  0  0  0
  -22.0210   -3.7000   23.6950 C   0  0  0  0  0  3  0  0  0  0  0  0
  -22.1240   -4.5370   22.5720 C   0  0  0  0  0  0  0  0  0  0  0  0
  -22.5970   -4.0380   21.4030 F   0  0  0  0  0  0  0  0  0  0  0  0
  -21.4050   -3.3940   25.9820 F   0  0  0  0  0  0  0  0  0  0  0  0
  -22.6150  -13.3290   21.3430 C   0  0  0  0  0  0  0  0  0  0  0  0
  -21.8950  -12.5880   22.1780 N   0  0  0  0  0  0  0  0  0  0  0  0
  -22.1480  -14.3470   20.8330 O   0  0  0  0  0  0  0  0  0  0  0  0
  -22.2820  -11.7640   22.6120 H   0  0  0  0  0  0  0  0  0  0  0  0
  -20.9410  -12.8490   22.3830 H   0  0  0  0  0  0  0  0  0  0  0  0
  -25.1920  -15.1170   20.6130 N   0  0  0  0  0  0  0  0  0  0  0  0
  -24.3990  -15.7400   20.7220 H   0  0  0  0  0  0  0  0  0  0  0  0
  -26.0290  -15.5900   20.2950 H   0  0  0  0  0  0  0  0  0  0  0  0
  -28.8850  -23.9790   20.7400 C   0  0  0  0  0  3  0  0  0  0  0  0
  -29.8800  -24.1650   21.6090 F   0  0  0  0  0  0  0  0  0  0  0  0
  -28.8010  -25.2950   19.8230 C   0  0  0  0  0  2  0  0  0  0  0  0
  -28.6350  -26.6510   20.4060 O   0  0  0  0  0  0  0  0  0  0  0  0
  -24.6610  -31.9120   23.3020 C   0  0  0  0  0  0  0  0  0  0  0  0
  -27.4690  -27.4260   20.3070 C   0  0  0  0  0  0  0  0  0  0  0  0
  -23.5410  -30.4940   21.6200 C   0  0  0  0  0  3  0  0  0  0  0  0
  -25.0660  -28.9820   20.2300 C   0  0  0  0  0  0  0  0  0  0  0  0
  -26.0760  -30.8680   21.5180 C   0  0  0  0  0  2  0  0  0  0  0  0
  -26.2010  -29.4930   20.8710 C   0  0  0  0  0  0  0  0  0  0  0  0
  -27.3990  -28.7220   20.9040 C   0  0  0  0  0  3  0  0  0  0  0  0
  -26.3050  -26.9580   19.6550 C   0  0  0  0  0  3  0  0  0  0  0  0
  -25.1210  -27.7210   19.6150 C   0  0  0  0  0  3  0  0  0  0  0  0
  -23.8120  -29.8330   20.2420 C   0  0  0  0  0  2  0  0  0  0  0  0
  -24.7760  -31.1100   22.2040 N   0  0  0  0  0  0  0  0  0  0  0  0
  -23.5570  -32.1640   23.8040 O   0  0  0  0  0  0  0  0  0  0  0  0
  -22.8750  -29.4580   22.5570 C   0  0  0  0  0  0  0  0  0  0  0  0
  -21.5640  -29.2320   22.3700 N   0  0  0  0  0  0  0  0  0  0  0  0
  -23.5370  -28.8630   23.4110 O   0  0  0  0  0  0  0  0  0  0  0  0
  -21.0920  -29.7640   21.6530 H   0  0  0  0  0  0  0  0  0  0  0  0
  -18.2140  -27.9040   22.6950 C   0  0  0  0  0  0  0  0  0  0  0  0
  -20.7400  -28.2720   23.1080 C   0  0  0  0  0  3  0  0  0  0  0  0
  -20.9340  -26.8400   22.5580 C   0  0  0  0  0  2  0  0  0  0  0  0
  -19.9050  -26.4600   21.4890 C   0  0  0  0  0  2  0  0  0  0  0  0
  -18.4830  -26.5560   22.0500 C   0  0  0  0  0  2  0  0  0  0  0  0
  -19.2740  -28.7170   23.1760 C   0  0  0  0  0  0  0  0  0  0  0  0
  -18.9700  -29.9770   23.7370 C   0  0  0  0  0  3  0  0  0  0  0  0
  -17.6370  -30.4260   23.8200 C   0  0  0  0  0  3  0  0  0  0  0  0
  -16.5920  -29.6110   23.3540 C   0  0  0  0  0  3  0  0  0  0  0  0
  -16.8810  -28.3520   22.7980 C   0  0  0  0  0  3  0  0  0  0  0  0
  -25.9100  -32.5690   23.9680 C   0  0  0  0  0  3  0  0  0  0  0  0
  -25.5630  -33.9620   24.2810 N   0  0  0  0  0  0  0  0  0  0  0  0
  -25.8930  -35.0180   23.5250 C   0  0  0  0  0  0  0  0  0  0  0  0
  -26.5900  -34.9220   22.5110 O   0  0  0  0  0  0  0  0  0  0  0  0
  -24.9420  -34.1060   25.0630 H   0  0  0  0  0  0  0  0  0  0  0  0
  -24.1340  -36.7710   23.1250 C   0  0  0  0  0  1  0  0  0  0  0  0
  -25.3670  -36.3990   23.9630 C   0  0  0  0  0  3  0  0  0  0  0  0
  -27.4630  -37.3390   24.8310 C   0  0  0  0  0  1  0  0  0  0  0  0
  -26.3790  -37.4730   23.8620 N   0  0  0  0  0  0  0  0  0  0  0  0
  -25.9520  -38.3860   23.9890 H   0  0  0  0  0  0  0  0  0  0  0  0
  -26.3890  -31.8120   25.2680 C   0  0  1  0  0  0  0  0  0  0  0  0
  -25.2610  -31.5590   26.2960 C   0  0  0  0  0  1  0  0  0  0  0  0
  -27.0130  -30.4450   24.9040 C   0  0  0  0  0  1  0  0  0  0  0  0
  -27.4970  -32.6310   25.9700 C   0  0  0  0  0  1  0  0  0  0  0  0
  -31.9070  -21.7940   20.9210 C   0  0  0  0  0  2  0  0  0  0  0  0
  -33.3200  -21.5700   20.3400 C   0  0  1  0  0  0  0  0  0  0  0  0
  -34.2210  -21.6700   21.3180 F   0  0  0  0  0  0  0  0  0  0  0  0
  -33.4160  -20.3530   19.8000 F   0  0  0  0  0  0  0  0  0  0  0  0
  -33.6100  -22.4790   19.4090 F   0  0  0  0  0  0  0  0  0  0  0  0
  1  4  1  0
  1  3  1  0
  2  7  1  0
  3  2  1  0
  3 51  1  0
  4  2  1  0
  4 95  1  0
  6  9  2  0
  6 10  1  0
  7  5  2  0
  8  5  1  0
  8 21  1  0
  9  7  1  0
 10  8  2  0
 11  9  1  0
 12 10  1  0
 13 21  1  0
 14 19  1  0
 15 16  1  0
 15 14  1  0
 17 16  1  0
 17 26  1  0
 17 18  1  0
 19 13  1  0
 19 18  1  0
 20 13  2  0
 21 22  1  0
 23 24  2  0
 24 43  1  0
 25 24  1  0
 25 28  1  0
 26 23  1  0
 26 27  1  0
 27 25  2  0
 28 29  1  0
 29 30  2  0
 31 34  1  0
 31 30  1  0
 32 31  2  0
 33 32  1  0
 33 28  2  0
 34 35  1  0
 35 36  1  0
 36 37  2  0
 38 37  1  0
 38 42  1  0
 39 38  2  0
 40 35  2  0
 40 39  1  0
 41 40  1  0
 43 44  1  0
 44 47  1  0
 44 46  1  0
 45 43  2  0
 48 49  1  0
 48 23  1  0
 50 48  1  0
 51 52  1  0
 53 54  1  0
 53 51  1  0
 55 66  2  0
 56 54  1  0
 56 61  1  0
 57 65  1  0
 57 67  1  0
 58 64  1  0
 58 60  1  0
 59 65  1  0
 60 61  2  0
 60 59  1  0
 62 56  2  0
 63 62  1  0
 63 58  2  0
 64 57  1  0
 65 55  1  0
 67 69  2  0
 68 67  1  0
 70 68  1  0
 71 80  2  0
 71 76  1  0
 72 68  1  0
 72 76  1  0
 73 72  1  0
 74 75  1  0
 74 73  1  0
 75 71  1  0
 76 77  2  0
 77 78  1  0
 79 78  2  0
 80 79  1  0
 81 55  1  0
 81 82  1  0
 81 91  1  0
 82 85  1  0
 83 87  1  0
 83 82  1  0
 84 83  2  0
 87 86  1  0
 89 87  1  0
 89 90  1  0
 89 88  1  0
 91 94  1  1
 91 92  1  0
 93 91  1  0
 96 95  1  0
 96 97  1  1
 98 96  1  0
 99 96  1  0
M  ISO  4  13 100  21 100  53 101  54 101
M  END
>  <TORSDO>  (90) 
F 21

>  <SCORE>  (90) 
-13.763

>  <name>  (90) 
89

>  <ligand_id>  (90) 
89

>  <original_smiles>  (90) 
[H]c1c([H])c([H])c2c(c1[H])C([H])([H])C([H])([H])C([H])([H])C2([H])N([H])C(=O)C1([H])N(C(=O)C([H])(N([H])C(=O)C([H])(N([H])C([H])([H])[H])C([H])([H])[H])C(C([H])([H])[H])(C([H])([H])[H])C([H])([H])[H])C([H])([H])c2c([H])c(OC([H])([H])C([H])(F)C3([H])C([H])([H])N(C([H])([H])C(F)(F)F)C3([H])c3c([H])c(N([H])C(=O)N4C([H])([H])C([H])([H])C([H])([H])C([H])(n5nc(-c6c([H])c([H])c(Oc7c([H])c([H])c(F)c([H])c7F)c([H])c6[H])c(C(=O)N([H])[H])c5N([H])[H])C4([H])[H])c(F)c([H])c3F)c([H])c([H])c2C1([H])[H]

>  <smiles>  (90) 
[H]c1c([H])c([H])c2c(c1[H])C([H])([H])C([H])([H])C([H])([H])C2([H])N([H])C(=O)C1([H])N(C(=O)C([H])(N([H])C(=O)C([H])(N([H])C([H])([H])[H])C([H])([H])[H])C(C([H])([H])[H])(C([H])([H])[H])C([H])([H])[H])C([H])([H])c2c([H])c(OC([H])([H])C([H])(F)C3([H])C([H])([H])N(C([H])([H])C(F)(F)F)C3([H])c3c([H])c(N([H])C(=O)N4C([H])([H])C([H])([H])C([H])([H])C([H])(n5nc(-c6c([H])c([H])c(Oc7c([H])c([H])c(F)c([H])c7F)c([H])c6[H])c(C(=O)N([H])[H])c5N([H])[H])C4([H])[H])c(F)c([H])c3F)c([H])c([H])c2C1([H])[H]

$$$$
90:0:0
     RDKit          3D

 95103  0  0  1  0  0  0  0  0999 V2000
  -29.6810  -21.1880   20.1990 N   0  0  0  0  0  4  0  0  0  0  0  0
  -30.6180  -21.5230   20.0520 H   0  0  0  0  0  0  0  0  0  0  0  0
  -29.5450  -21.1300   21.1970 H   0  0  0  0  0  0  0  0  0  0  0  0
  -29.6620  -19.7250   19.6650 C   0  0  0  0  0  2  0  0  0  0  0  0
  -32.1500  -19.7900   19.4340 C   0  0  0  0  0  3  0  0  0  0  0  0
  -33.4900  -19.3740   19.4170 C   0  0  0  0  0  3  0  0  0  0  0  0
  -31.0420  -18.9050   19.6310 C   0  0  0  0  0  0  0  0  0  0  0  0
  -31.3500  -17.4400   19.7040 C   0  0  0  0  0  0  0  0  0  0  0  0
  -33.7850  -18.0350   19.6490 C   0  0  0  0  0  0  0  0  0  0  0  0
  -32.7460  -17.1090   19.8240 C   0  0  0  0  0  0  0  0  0  0  0  0
  -35.0810  -17.6390   19.7020 F   0  0  0  0  0  0  0  0  0  0  0  0
  -33.1400  -15.8420   20.1270 F   0  0  0  0  0  0  0  0  0  0  0  0
  -30.9240  -14.9110   19.4400 C   0  0  0  0  0  0  0  0  0  0  0  0
  -30.5540  -12.4860   18.9440 C   0  0  0  0  0  2  0  0  0  0  0  0
  -29.5660  -12.2800   17.7790 C   0  0  0  0  0  2  0  0  0  0  0  0
  -28.1460  -12.1340   18.3420 C   0  0  0  0  0  2  0  0  0  0  0  0
  -27.7950  -13.2390   19.3750 C   0  0  0  0  0  3  0  0  0  0  0  0
  -28.9390  -13.5220   20.3910 C   0  0  0  0  0  2  0  0  0  0  0  0
  -30.1840  -13.7500   19.6370 N   0  0  0  0  0  0  0  0  0  0  0  0
  -32.0110  -14.8020   18.8840 O   0  0  0  0  0  0  0  0  0  0  0  0
  -30.4650  -16.2170   19.6670 N   0  0  0  0  0  0  0  0  0  0  0  0
  -29.5020  -16.3310   19.9380 H   0  0  0  0  0  0  0  0  0  0  0  0
  -25.5670  -13.8940   20.4690 C   0  0  0  0  0  0  0  0  0  0  0  0
  -24.5050  -13.1600   20.9180 C   0  0  0  0  0  0  0  0  0  0  0  0
  -24.8630  -11.7880   20.7230 C   0  0  0  0  0  0  0  0  0  0  0  0
  -26.5100  -12.9770   20.0290 N   0  0  0  0  0  0  0  0  0  0  0  0
  -26.1000  -11.6990   20.2420 N   0  0  0  0  0  0  0  0  0  0  0  0
  -24.0710  -10.5640   20.9130 C   0  0  0  0  0  0  0  0  0  0  0  0
  -24.4800   -9.5480   21.8030 C   0  0  0  0  0  3  0  0  0  0  0  0
  -23.6950   -8.3900   21.9830 C   0  0  0  0  0  3  0  0  0  0  0  0
  -22.4770   -8.2360   21.2760 C   0  0  0  0  0  0  0  0  0  0  0  0
  -22.0830   -9.2430   20.3740 C   0  0  0  0  0  3  0  0  0  0  0  0
  -22.8710  -10.3930   20.1920 C   0  0  0  0  0  3  0  0  0  0  0  0
  -21.6560   -7.1380   21.3740 O   0  0  0  0  0  0  0  0  0  0  0  0
  -21.5410   -6.4280   22.5410 C   0  0  0  0  0  0  0  0  0  0  0  0
  -21.0940   -7.0290   23.7400 C   0  0  0  0  0  3  0  0  0  0  0  0
  -20.9150   -6.2440   24.8970 C   0  0  0  0  0  3  0  0  0  0  0  0
  -21.1750   -4.8620   24.8570 C   0  0  0  0  0  0  0  0  0  0  0  0
  -21.6130   -4.2600   23.6650 C   0  0  0  0  0  3  0  0  0  0  0  0
  -21.7890   -5.0410   22.5100 C   0  0  0  0  0  0  0  0  0  0  0  0
  -22.1900   -4.4530   21.3570 F   0  0  0  0  0  0  0  0  0  0  0  0
  -21.0010   -4.1040   25.9680 F   0  0  0  0  0  0  0  0  0  0  0  0
  -23.1900  -13.6980   21.4070 C   0  0  0  0  0  0  0  0  0  0  0  0
  -22.5370  -12.9910   22.3250 N   0  0  0  0  0  0  0  0  0  0  0  0
  -22.7600  -14.7820   21.0150 O   0  0  0  0  0  0  0  0  0  0  0  0
  -22.8990  -12.1180   22.6730 H   0  0  0  0  0  0  0  0  0  0  0  0
  -21.6570  -13.3340   22.6870 H   0  0  0  0  0  0  0  0  0  0  0  0
  -25.8070  -15.2600   20.3740 N   0  0  0  0  0  0  0  0  0  0  0  0
  -25.1040  -15.9500   20.6140 H   0  0  0  0  0  0  0  0  0  0  0  0
  -26.6470  -15.6710   19.9830 H   0  0  0  0  0  0  0  0  0  0  0  0
  -28.7320  -22.3030   19.6730 C   0  0  0  0  0  2  0  0  0  0  0  0
  -28.8740  -23.8430   20.2590 C   0  0  0  0  0  3  0  0  0  0  0  0
  -28.7020  -23.7570   21.5800 F   0  0  0  0  0  0  0  0  0  0  0  0
  -27.9090  -25.0750   19.7660 C   0  0  0  0  0  2  0  0  0  0  0  0
  -28.0520  -26.5130   20.2590 O   0  0  0  0  0  0  0  0  0  0  0  0
  -24.5920  -32.0610   23.4890 C   0  0  0  0  0  0  0  0  0  0  0  0
  -26.9690  -27.4370   20.2490 C   0  0  0  0  0  0  0  0  0  0  0  0
  -23.2990  -30.7320   21.8600 C   0  0  0  0  0  3  0  0  0  0  0  0
  -24.6550  -29.1620   20.3560 C   0  0  0  0  0  0  0  0  0  0  0  0
  -25.8360  -30.9720   21.5950 C   0  0  0  0  0  2  0  0  0  0  0  0
  -25.8600  -29.5950   20.9230 C   0  0  0  0  0  0  0  0  0  0  0  0
  -27.0130  -28.7400   20.8690 C   0  0  0  0  0  3  0  0  0  0  0  0
  -25.7370  -27.0900   19.6440 C   0  0  0  0  0  3  0  0  0  0  0  0
  -24.5990  -27.9160   19.7160 C   0  0  0  0  0  3  0  0  0  0  0  0
  -23.4450  -30.0720   20.4620 C   0  0  0  0  0  2  0  0  0  0  0  0
  -24.5960  -31.2730   22.3710 N   0  0  0  0  0  0  0  0  0  0  0  0
  -23.5330  -32.3540   24.0650 O   0  0  0  0  0  0  0  0  0  0  0  0
  -22.6330  -29.7200   22.8250 C   0  0  0  0  0  0  0  0  0  0  0  0
  -21.3290  -29.4570   22.6280 N   0  0  0  0  0  0  0  0  0  0  0  0
  -23.2910  -29.1730   23.7120 O   0  0  0  0  0  0  0  0  0  0  0  0
  -20.8520  -29.9480   21.8810 H   0  0  0  0  0  0  0  0  0  0  0  0
  -18.0230  -28.0210   22.9400 C   0  0  0  0  0  0  0  0  0  0  0  0
  -20.5240  -28.4990   23.3880 C   0  0  0  0  0  3  0  0  0  0  0  0
  -20.7800  -27.0530   22.9040 C   0  0  0  0  0  2  0  0  0  0  0  0
  -19.7930  -26.5890   21.8310 C   0  0  0  0  0  2  0  0  0  0  0  0
  -18.3580  -26.6580   22.3570 C   0  0  0  0  0  2  0  0  0  0  0  0
  -19.0420  -28.8910   23.4080 C   0  0  0  0  0  0  0  0  0  0  0  0
  -18.6800  -30.1600   23.9110 C   0  0  0  0  0  3  0  0  0  0  0  0
  -17.3320  -30.5610   23.9510 C   0  0  0  0  0  3  0  0  0  0  0  0
  -16.3270  -29.6910   23.4970 C   0  0  0  0  0  3  0  0  0  0  0  0
  -16.6720  -28.4220   23.0000 C   0  0  0  0  0  3  0  0  0  0  0  0
  -25.9100  -32.6470   24.0860 C   0  0  0  0  0  3  0  0  0  0  0  0
  -25.6590  -34.0530   24.4310 N   0  0  0  0  0  0  0  0  0  0  0  0
  -25.9780  -35.0970   23.6540 C   0  0  0  0  0  0  0  0  0  0  0  0
  -26.5810  -34.9740   22.5830 O   0  0  0  0  0  0  0  0  0  0  0  0
  -25.1260  -34.2270   25.2700 H   0  0  0  0  0  0  0  0  0  0  0  0
  -24.2770  -36.9350   23.4090 C   0  0  0  0  0  1  0  0  0  0  0  0
  -25.5600  -36.4990   24.1370 C   0  0  0  0  0  3  0  0  0  0  0  0
  -27.7680  -37.3260   24.8180 C   0  0  0  0  0  1  0  0  0  0  0  0
  -26.6080  -37.5260   23.9520 N   0  0  0  0  0  0  0  0  0  0  0  0
  -26.2370  -38.4550   24.1230 H   0  0  0  0  0  0  0  0  0  0  0  0
  -26.4250  -31.8530   25.3480 C   0  0  1  0  0  0  0  0  0  0  0  0
  -25.3310  -31.5950   26.4110 C   0  0  0  0  0  1  0  0  0  0  0  0
  -27.0010  -30.4800   24.9320 C   0  0  0  0  0  1  0  0  0  0  0  0
  -27.5810  -32.6280   26.0210 C   0  0  0  0  0  1  0  0  0  0  0  0
  1  3  1  0
  2  1  1  0
  4  1  1  0
  5  7  1  0
  6  5  2  0
  6  9  1  0
  7  4  1  0
  7  8  2  0
  8 10  1  0
  9 11  1  0
  9 10  2  0
 10 12  1  0
 13 19  1  0
 13 21  1  0
 14 19  1  0
 15 16  1  0
 15 14  1  0
 17 16  1  0
 17 26  1  0
 17 18  1  0
 19 18  1  0
 20 13  2  0
 21  8  1  0
 21 22  1  0
 23 24  2  0
 24 43  1  0
 25 28  1  0
 25 24  1  0
 26 27  1  0
 26 23  1  0
 27 25  2  0
 28 29  1  0
 29 30  2  0
 31 34  1  0
 31 30  1  0
 32 31  2  0
 33 32  1  0
 33 28  2  0
 34 35  1  0
 35 36  1  0
 36 37  2  0
 38 37  1  0
 38 42  1  0
 39 38  2  0
 40 35  2  0
 40 39  1  0
 41 40  1  0
 43 44  1  0
 44 46  1  0
 44 47  1  0
 45 43  2  0
 48 23  1  0
 48 49  1  0
 50 48  1  0
 51  1  1  0
 51 52  1  0
 52 53  1  0
 54 55  1  0
 54 52  1  0
 56 67  2  0
 57 55  1  0
 57 62  1  0
 58 66  1  0
 58 68  1  0
 59 65  1  0
 59 61  1  0
 60 66  1  0
 61 60  1  0
 62 61  2  0
 63 64  1  0
 63 57  2  0
 64 59  2  0
 65 58  1  0
 66 56  1  0
 68 70  2  0
 69 68  1  0
 71 69  1  0
 72 81  2  0
 72 77  1  0
 73 69  1  0
 73 77  1  0
 74 73  1  0
 75 76  1  0
 75 74  1  0
 76 72  1  0
 77 78  2  0
 78 79  1  0
 80 79  2  0
 81 80  1  0
 82 56  1  0
 82 83  1  0
 82 92  1  0
 83 86  1  0
 84 88  1  0
 84 83  1  0
 85 84  2  0
 88 87  1  0
 90 91  1  0
 90 88  1  0
 90 89  1  0
 92 95  1  1
 92 93  1  0
 94 92  1  0
M  ISO  4  13 100  21 100  54 101  55 101
M  END
>  <TORSDO>  (91) 
F 21

>  <SCORE>  (91) 
-12.542

>  <name>  (91) 
90

>  <ligand_id>  (91) 
90

>  <original_smiles>  (91) 
[H]c1c([H])c([H])c2c(c1[H])C([H])([H])C([H])([H])C([H])([H])C2([H])N([H])C(=O)C1([H])N(C(=O)C([H])(N([H])C(=O)C([H])(N([H])C([H])([H])[H])C([H])([H])[H])C(C([H])([H])[H])(C([H])([H])[H])C([H])([H])[H])C([H])([H])c2c([H])c(OC([H])([H])C([H])(F)C([H])([H])[N+]([H])([H])C([H])([H])c3c([H])c([H])c(F)c(F)c3N([H])C(=O)N3C([H])([H])C([H])([H])C([H])([H])C([H])(n4nc(-c5c([H])c([H])c(Oc6c([H])c([H])c(F)c([H])c6F)c([H])c5[H])c(C(=O)N([H])[H])c4N([H])[H])C3([H])[H])c([H])c([H])c2C1([H])[H]

>  <smiles>  (91) 
[H]c1c([H])c([H])c2c(c1[H])C([H])([H])C([H])([H])C([H])([H])C2([H])N([H])C(=O)C1([H])N(C(=O)C([H])(N([H])C(=O)C([H])(N([H])C([H])([H])[H])C([H])([H])[H])C(C([H])([H])[H])(C([H])([H])[H])C([H])([H])[H])C([H])([H])c2c([H])c(OC([H])([H])C([H])(F)C([H])([H])[N+]([H])([H])C([H])([H])c3c([H])c([H])c(F)c(F)c3N([H])C(=O)N3C([H])([H])C([H])([H])C([H])([H])C([H])(n4nc(-c5c([H])c([H])c(Oc6c([H])c([H])c(F)c([H])c6F)c([H])c5[H])c(C(=O)N([H])[H])c4N([H])[H])C3([H])[H])c([H])c([H])c2C1([H])[H]

$$$$
91:0:0
     RDKit          3D

 92100  0  0  1  0  0  0  0  0999 V2000
  -30.0930  -21.6440   19.8970 C   0  0  0  0  0  2  0  0  0  0  0  0
  -28.7710  -19.4130   20.5200 C   0  0  0  0  0  3  0  0  0  0  0  0
  -28.7470  -17.9920   20.6850 C   0  0  0  0  0  3  0  0  0  0  0  0
  -31.0920  -17.8640   20.1880 C   0  0  0  0  0  3  0  0  0  0  0  0
  -29.9650  -20.0980   20.1810 C   0  0  0  0  0  0  0  0  0  0  0  0
  -29.8980  -17.1700   20.5150 C   0  0  0  0  0  0  0  0  0  0  0  0
  -31.1180  -19.2800   20.0270 C   0  0  0  0  0  0  0  0  0  0  0  0
  -32.2960  -19.8620   19.6960 F   0  0  0  0  0  0  0  0  0  0  0  0
  -30.5860  -14.6620   20.3240 C   0  0  0  0  0  0  0  0  0  0  0  0
  -30.3620  -12.4310   19.2500 C   0  0  0  0  0  2  0  0  0  0  0  0
  -29.4080  -12.5780   18.0450 C   0  0  0  0  0  2  0  0  0  0  0  0
  -27.9400  -12.4120   18.4850 C   0  0  0  0  0  2  0  0  0  0  0  0
  -27.5940  -13.2600   19.7380 C   0  0  0  0  0  3  0  0  0  0  0  0
  -28.6620  -13.0970   20.8420 C   0  0  0  0  0  2  0  0  0  0  0  0
  -29.9680  -13.4400   20.2530 N   0  0  0  0  0  0  0  0  0  0  0  0
  -31.7480  -14.8110   19.9310 O   0  0  0  0  0  0  0  0  0  0  0  0
  -29.7820  -15.7150   20.6820 N   0  0  0  0  0  0  0  0  0  0  0  0
  -28.8750  -15.4090   20.9980 H   0  0  0  0  0  0  0  0  0  0  0  0
  -25.2070  -13.8530   20.4820 C   0  0  0  0  0  0  0  0  0  0  0  0
  -24.1460  -13.0790   20.8630 C   0  0  0  0  0  0  0  0  0  0  0  0
  -24.6100  -11.7280   20.8260 C   0  0  0  0  0  0  0  0  0  0  0  0
  -26.2500  -12.9750   20.2340 N   0  0  0  0  0  0  0  0  0  0  0  0
  -25.8980  -11.6910   20.5020 N   0  0  0  0  0  0  0  0  0  0  0  0
  -23.8880  -10.4630   21.0240 C   0  0  0  0  0  0  0  0  0  0  0  0
  -24.3300   -9.4960   21.9530 C   0  0  0  0  0  3  0  0  0  0  0  0
  -23.6090   -8.2980   22.1370 C   0  0  0  0  0  3  0  0  0  0  0  0
  -22.4320   -8.0550   21.3890 C   0  0  0  0  0  0  0  0  0  0  0  0
  -22.0100   -9.0100   20.4490 C   0  0  0  0  0  3  0  0  0  0  0  0
  -22.7310  -10.2020   20.2630 C   0  0  0  0  0  3  0  0  0  0  0  0
  -21.6820   -6.9080   21.4840 O   0  0  0  0  0  0  0  0  0  0  0  0
  -21.6410   -6.1680   22.6380 C   0  0  0  0  0  0  0  0  0  0  0  0
  -21.2130   -6.7220   23.8640 C   0  0  0  0  0  3  0  0  0  0  0  0
  -21.1180   -5.9070   25.0110 C   0  0  0  0  0  3  0  0  0  0  0  0
  -21.4410   -4.5390   24.9320 C   0  0  0  0  0  0  0  0  0  0  0  0
  -21.8610   -3.9850   23.7110 C   0  0  0  0  0  3  0  0  0  0  0  0
  -21.9590   -4.7950   22.5670 C   0  0  0  0  0  0  0  0  0  0  0  0
  -22.3450   -4.2520   21.3870 F   0  0  0  0  0  0  0  0  0  0  0  0
  -21.3430   -3.7540   26.0300 F   0  0  0  0  0  0  0  0  0  0  0  0
  -22.7510  -13.5540   21.1490 C   0  0  0  0  0  0  0  0  0  0  0  0
  -22.0300  -12.8550   22.0200 N   0  0  0  0  0  0  0  0  0  0  0  0
  -22.3070  -14.5800   20.6360 O   0  0  0  0  0  0  0  0  0  0  0  0
  -22.4000  -12.0260   22.4610 H   0  0  0  0  0  0  0  0  0  0  0  0
  -21.0930  -13.1560   22.2510 H   0  0  0  0  0  0  0  0  0  0  0  0
  -25.3650  -15.2240   20.3030 N   0  0  0  0  0  0  0  0  0  0  0  0
  -24.5860  -15.8650   20.4010 H   0  0  0  0  0  0  0  0  0  0  0  0
  -26.1890  -15.6620   19.9120 H   0  0  0  0  0  0  0  0  0  0  0  0
  -29.2420  -24.0320   20.1650 C   0  0  0  0  0  0  0  0  0  0  0  0
  -29.0660  -22.6720   20.2810 N   0  0  0  0  0  0  0  0  0  0  0  0
  -30.3360  -24.4960   19.8360 O   0  0  0  0  0  0  0  0  0  0  0  0
  -28.1540  -22.3390   20.5650 H   0  0  0  0  0  0  0  0  0  0  0  0
  -28.0440  -25.0250   20.4090 C   0  0  0  0  0  2  0  0  0  0  0  0
  -28.3200  -26.4710   20.1830 O   0  0  0  0  0  0  0  0  0  0  0  0
  -24.6270  -31.8890   23.2370 C   0  0  0  0  0  0  0  0  0  0  0  0
  -27.2090  -27.3320   20.1550 C   0  0  0  0  0  0  0  0  0  0  0  0
  -23.4130  -30.5000   21.5980 C   0  0  0  0  0  3  0  0  0  0  0  0
  -24.8520  -28.9530   20.1610 C   0  0  0  0  0  0  0  0  0  0  0  0
  -25.9520  -30.8080   21.4090 C   0  0  0  0  0  2  0  0  0  0  0  0
  -26.0240  -29.4310   20.7610 C   0  0  0  0  0  0  0  0  0  0  0  0
  -27.2060  -28.6300   20.7540 C   0  0  0  0  0  3  0  0  0  0  0  0
  -26.0190  -26.9210   19.5130 C   0  0  0  0  0  3  0  0  0  0  0  0
  -24.8510  -27.7040   19.5280 C   0  0  0  0  0  3  0  0  0  0  0  0
  -23.6210  -29.8320   20.2130 C   0  0  0  0  0  2  0  0  0  0  0  0
  -24.6830  -31.0830   22.1370 N   0  0  0  0  0  0  0  0  0  0  0  0
  -23.5460  -32.1690   23.7750 O   0  0  0  0  0  0  0  0  0  0  0  0
  -22.7520  -29.4800   22.5550 C   0  0  0  0  0  0  0  0  0  0  0  0
  -21.4240  -29.3070   22.4320 N   0  0  0  0  0  0  0  0  0  0  0  0
  -23.4300  -28.8480   23.3690 O   0  0  0  0  0  0  0  0  0  0  0  0
  -20.9350  -29.8680   21.7480 H   0  0  0  0  0  0  0  0  0  0  0  0
  -18.0440  -28.1240   22.9410 C   0  0  0  0  0  0  0  0  0  0  0  0
  -20.6050  -28.3710   23.2050 C   0  0  0  0  0  3  0  0  0  0  0  0
  -20.6990  -26.9410   22.6270 C   0  0  0  0  0  2  0  0  0  0  0  0
  -19.5930  -26.6240   21.6160 C   0  0  0  0  0  2  0  0  0  0  0  0
  -18.2130  -26.7740   22.2650 C   0  0  0  0  0  2  0  0  0  0  0  0
  -19.1670  -28.8810   23.3690 C   0  0  0  0  0  0  0  0  0  0  0  0
  -18.9550  -30.1440   23.9640 C   0  0  0  0  0  3  0  0  0  0  0  0
  -17.6520  -30.6490   24.1350 C   0  0  0  0  0  3  0  0  0  0  0  0
  -16.5440  -29.8900   23.7200 C   0  0  0  0  0  3  0  0  0  0  0  0
  -16.7410  -28.6290   23.1290 C   0  0  0  0  0  3  0  0  0  0  0  0
  -25.9150  -32.5150   23.8550 C   0  0  0  0  0  3  0  0  0  0  0  0
  -26.4350  -31.7360   25.1250 C   0  0  1  0  0  0  0  0  0  0  0  0
  -25.3470  -31.4960   26.1970 C   0  0  0  0  0  1  0  0  0  0  0  0
  -27.0120  -30.3580   24.7240 C   0  0  0  0  0  1  0  0  0  0  0  0
  -27.5920  -32.5220   25.7850 C   0  0  0  0  0  1  0  0  0  0  0  0
  -25.6090  -33.9120   24.1950 N   0  0  0  0  0  0  0  0  0  0  0  0
  -25.9300  -34.9670   23.4340 C   0  0  0  0  0  0  0  0  0  0  0  0
  -26.5850  -34.8670   22.3930 O   0  0  0  0  0  0  0  0  0  0  0  0
  -25.0290  -34.0640   25.0070 H   0  0  0  0  0  0  0  0  0  0  0  0
  -24.1970  -36.7600   23.1090 C   0  0  0  0  0  1  0  0  0  0  0  0
  -25.4500  -36.3550   23.9020 C   0  0  0  0  0  3  0  0  0  0  0  0
  -27.5960  -37.2380   24.7040 C   0  0  0  0  0  1  0  0  0  0  0  0
  -26.4800  -37.4070   23.7760 N   0  0  0  0  0  0  0  0  0  0  0  0
  -26.0760  -38.3270   23.9320 H   0  0  0  0  0  0  0  0  0  0  0  0
  1  5  1  0
  1 48  1  0
  2  3  1  0
  4  6  1  0
  5  2  2  0
  6 17  1  0
  6  3  2  0
  7  5  1  0
  7  4  2  0
  8  7  1  0
  9 17  1  0
 10 15  1  0
 11 12  1  0
 11 10  1  0
 13 12  1  0
 13 22  1  0
 13 14  1  0
 15  9  1  0
 15 14  1  0
 16  9  2  0
 17 18  1  0
 19 20  2  0
 20 39  1  0
 21 20  1  0
 21 24  1  0
 22 19  1  0
 22 23  1  0
 23 21  2  0
 24 25  1  0
 25 26  2  0
 27 30  1  0
 27 26  1  0
 28 27  2  0
 29 28  1  0
 29 24  2  0
 30 31  1  0
 31 32  1  0
 32 33  2  0
 34 33  1  0
 34 38  1  0
 35 34  2  0
 36 31  2  0
 36 35  1  0
 37 36  1  0
 39 40  1  0
 40 43  1  0
 40 42  1  0
 41 39  2  0
 44 45  1  0
 44 19  1  0
 46 44  1  0
 47 48  1  0
 47 51  1  0
 48 50  1  0
 49 47  2  0
 52 51  1  0
 53 64  2  0
 54 52  1  0
 54 59  1  0
 55 63  1  0
 55 65  1  0
 56 62  1  0
 56 58  1  0
 57 63  1  0
 58 57  1  0
 59 58  2  0
 60 61  1  0
 60 54  2  0
 61 56  2  0
 62 55  1  0
 63 53  1  0
 65 67  2  0
 66 65  1  0
 68 66  1  0
 69 78  2  0
 69 74  1  0
 70 66  1  0
 70 74  1  0
 71 70  1  0
 72 73  1  0
 72 71  1  0
 73 69  1  0
 74 75  2  0
 75 76  1  0
 77 76  2  0
 78 77  1  0
 79 53  1  0
 79 84  1  0
 79 80  1  0
 80 83  1  1
 80 81  1  0
 82 80  1  0
 84 87  1  0
 85 89  1  0
 85 84  1  0
 86 85  2  0
 89 88  1  0
 91 89  1  0
 91 92  1  0
 91 90  1  0
M  ISO  4   9 100  17 100  51 101  52 101
M  END
>  <TORSDO>  (92) 
F 19

>  <SCORE>  (92) 
-14.298

>  <name>  (92) 
91

>  <ligand_id>  (92) 
91

>  <original_smiles>  (92) 
[H]c1c([H])c([H])c2c(c1[H])C([H])([H])C([H])([H])C([H])([H])C2([H])N([H])C(=O)C1([H])N(C(=O)C([H])(N([H])C(=O)C([H])(N([H])C([H])([H])[H])C([H])([H])[H])C(C([H])([H])[H])(C([H])([H])[H])C([H])([H])[H])C([H])([H])c2c([H])c(OC([H])([H])C(=O)N([H])C([H])([H])c3c([H])c([H])c(N([H])C(=O)N4C([H])([H])C([H])([H])C([H])([H])C([H])(n5nc(-c6c([H])c([H])c(Oc7c([H])c([H])c(F)c([H])c7F)c([H])c6[H])c(C(=O)N([H])[H])c5N([H])[H])C4([H])[H])c([H])c3F)c([H])c([H])c2C1([H])[H]

>  <smiles>  (92) 
[H]c1c([H])c([H])c2c(c1[H])C([H])([H])C([H])([H])C([H])([H])C2([H])N([H])C(=O)C1([H])N(C(=O)C([H])(N([H])C(=O)C([H])(N([H])C([H])([H])[H])C([H])([H])[H])C(C([H])([H])[H])(C([H])([H])[H])C([H])([H])[H])C([H])([H])c2c([H])c(OC([H])([H])C(=O)N([H])C([H])([H])c3c([H])c([H])c(N([H])C(=O)N4C([H])([H])C([H])([H])C([H])([H])C([H])(n5nc(-c6c([H])c([H])c(Oc7c([H])c([H])c(F)c([H])c7F)c([H])c6[H])c(C(=O)N([H])[H])c5N([H])[H])C4([H])[H])c([H])c3F)c([H])c([H])c2C1([H])[H]

$$$$
