0:0:0
     RDKit          3D

 96104  0  0  1  0  0  0  0  0999 V2000
  -29.8430  -20.4460   17.7750 C   0  0  0  0  0  0  0  0  0  0  0  0
  -28.8330  -21.3100   17.9700 N   0  0  0  0  0  0  0  0  0  0  0  0
  -30.7100  -20.6470   16.9190 O   0  0  0  0  0  0  0  0  0  0  0  0
  -28.1770  -21.1010   18.7120 H   0  0  0  0  0  0  0  0  0  0  0  0
  -29.4570  -17.9230   20.6640 C   0  0  0  0  0  3  0  0  0  0  0  0
  -30.2980  -16.7660   18.7020 C   0  0  0  0  0  3  0  0  0  0  0  0
  -29.8270  -19.1680   18.5730 C   0  0  0  0  0  0  0  0  0  0  0  0
  -29.9160  -16.7300   20.0640 C   0  0  0  0  0  0  0  0  0  0  0  0
  -29.4220  -19.1310   19.9320 C   0  0  0  0  0  0  0  0  0  0  0  0
  -30.2600  -17.9630   17.9680 C   0  0  0  0  0  0  0  0  0  0  0  0
  -28.9930  -20.2570   20.5580 F   0  0  0  0  0  0  0  0  0  0  0  0
  -30.6300  -17.9230   16.6630 F   0  0  0  0  0  0  0  0  0  0  0  0
  -30.6940  -14.4490   20.5090 C   0  0  0  0  0  0  0  0  0  0  0  0
  -30.3860  -12.3060   19.3760 C   0  0  0  0  0  2  0  0  0  0  0  0
  -29.4630  -12.5600   18.1640 C   0  0  0  0  0  2  0  0  0  0  0  0
  -27.9820  -12.4420   18.5740 C   0  0  0  0  0  2  0  0  0  0  0  0
  -27.6430  -13.2640   19.8470 C   0  0  0  0  0  3  0  0  0  0  0  0
  -28.6810  -13.0110   20.9650 C   0  0  0  0  0  2  0  0  0  0  0  0
  -30.0200  -13.2750   20.4160 N   0  0  0  0  0  0  0  0  0  0  0  0
  -31.8580  -14.5990   20.1290 O   0  0  0  0  0  0  0  0  0  0  0  0
  -29.9300  -15.5120   20.8110 N   0  0  0  0  0  0  0  0  0  0  0  0
  -29.0980  -15.3130   21.3460 H   0  0  0  0  0  0  0  0  0  0  0  0
  -25.2370  -13.8910   20.5180 C   0  0  0  0  0  0  0  0  0  0  0  0
  -24.1600  -13.1260   20.8750 C   0  0  0  0  0  0  0  0  0  0  0  0
  -24.6140  -11.7720   20.8580 C   0  0  0  0  0  0  0  0  0  0  0  0
  -26.2810  -13.0030   20.3060 N   0  0  0  0  0  0  0  0  0  0  0  0
  -25.9070  -11.7240   20.5680 N   0  0  0  0  0  0  0  0  0  0  0  0
  -23.8790  -10.5140   21.0450 C   0  0  0  0  0  0  0  0  0  0  0  0
  -24.2890   -9.5550   21.9970 C   0  0  0  0  0  3  0  0  0  0  0  0
  -23.5570   -8.3610   22.1700 C   0  0  0  0  0  3  0  0  0  0  0  0
  -22.4010   -8.1170   21.3900 C   0  0  0  0  0  0  0  0  0  0  0  0
  -22.0110   -9.0650   20.4290 C   0  0  0  0  0  3  0  0  0  0  0  0
  -22.7430  -10.2520   20.2540 C   0  0  0  0  0  3  0  0  0  0  0  0
  -21.6430   -6.9740   21.4710 O   0  0  0  0  0  0  0  0  0  0  0  0
  -21.5620   -6.2450   22.6310 C   0  0  0  0  0  0  0  0  0  0  0  0
  -21.0860   -6.8100   23.8340 C   0  0  0  0  0  3  0  0  0  0  0  0
  -20.9520   -6.0060   24.9840 C   0  0  0  0  0  3  0  0  0  0  0  0
  -21.2850   -4.6390   24.9310 C   0  0  0  0  0  0  0  0  0  0  0  0
  -21.7550   -4.0740   23.7330 C   0  0  0  0  0  3  0  0  0  0  0  0
  -21.8890   -4.8750   22.5850 C   0  0  0  0  0  0  0  0  0  0  0  0
  -22.3220   -4.3210   21.4260 F   0  0  0  0  0  0  0  0  0  0  0  0
  -21.1500   -3.8650   26.0330 F   0  0  0  0  0  0  0  0  0  0  0  0
  -22.7610  -13.6110   21.1260 C   0  0  0  0  0  0  0  0  0  0  0  0
  -22.0160  -12.9210   21.9830 N   0  0  0  0  0  0  0  0  0  0  0  0
  -22.3360  -14.6380   20.5980 O   0  0  0  0  0  0  0  0  0  0  0  0
  -22.3710  -12.0910   22.4320 H   0  0  0  0  0  0  0  0  0  0  0  0
  -21.0770  -13.2300   22.1940 H   0  0  0  0  0  0  0  0  0  0  0  0
  -25.4130  -15.2600   20.3360 N   0  0  0  0  0  0  0  0  0  0  0  0
  -24.6490  -15.9180   20.4350 H   0  0  0  0  0  0  0  0  0  0  0  0
  -26.2680  -15.6900   20.0070 H   0  0  0  0  0  0  0  0  0  0  0  0
  -28.5390  -22.4410   17.0920 C   0  0  0  0  0  2  0  0  0  0  0  0
  -29.4700  -23.6490   17.3240 C   0  0  0  0  0  2  0  0  0  0  0  0
  -28.9410  -24.6430   18.3680 C   0  0  0  0  0  2  0  0  0  0  0  0
  -29.9610  -25.7480   18.6960 C   0  0  0  0  0  2  0  0  0  0  0  0
  -29.3070  -27.0530   19.1640 C   0  0  0  0  0  2  0  0  0  0  0  0
  -28.5150  -26.8090   20.3190 O   0  0  0  0  0  0  0  0  0  0  0  0
  -24.5940  -31.9240   23.3150 C   0  0  0  0  0  0  0  0  0  0  0  0
  -27.3420  -27.5120   20.3260 C   0  0  0  0  0  0  0  0  0  0  0  0
  -23.4300  -30.4930   21.6640 C   0  0  0  0  0  3  0  0  0  0  0  0
  -24.9260  -28.9570   20.2850 C   0  0  0  0  0  0  0  0  0  0  0  0
  -25.9510  -30.8860   21.5050 C   0  0  0  0  0  2  0  0  0  0  0  0
  -26.0630  -29.5100   20.8880 C   0  0  0  0  0  0  0  0  0  0  0  0
  -27.2760  -28.7910   20.9150 C   0  0  0  0  0  3  0  0  0  0  0  0
  -26.1920  -26.9550   19.7320 C   0  0  0  0  0  3  0  0  0  0  0  0
  -24.9820  -27.6750   19.7070 C   0  0  0  0  0  3  0  0  0  0  0  0
  -23.6710  -29.7990   20.2960 C   0  0  0  0  0  2  0  0  0  0  0  0
  -24.6750  -31.1160   22.2200 N   0  0  0  0  0  0  0  0  0  0  0  0
  -23.5020  -32.1900   23.8340 O   0  0  0  0  0  0  0  0  0  0  0  0
  -22.7730  -29.4760   22.6230 C   0  0  0  0  0  0  0  0  0  0  0  0
  -21.4540  -29.2800   22.4730 N   0  0  0  0  0  0  0  0  0  0  0  0
  -23.4480  -28.8640   23.4560 O   0  0  0  0  0  0  0  0  0  0  0  0
  -20.9710  -29.8250   21.7730 H   0  0  0  0  0  0  0  0  0  0  0  0
  -18.0790  -28.0770   22.9290 C   0  0  0  0  0  0  0  0  0  0  0  0
  -20.6310  -28.3430   23.2370 C   0  0  0  0  0  3  0  0  0  0  0  0
  -20.7470  -26.9100   22.6680 C   0  0  0  0  0  2  0  0  0  0  0  0
  -19.6610  -26.5790   21.6400 C   0  0  0  0  0  2  0  0  0  0  0  0
  -18.2700  -26.7240   22.2630 C   0  0  0  0  0  2  0  0  0  0  0  0
  -19.1890  -28.8450   23.3710 C   0  0  0  0  0  0  0  0  0  0  0  0
  -18.9590  -30.1110   23.9510 C   0  0  0  0  0  3  0  0  0  0  0  0
  -17.6510  -30.6110   24.0940 C   0  0  0  0  0  3  0  0  0  0  0  0
  -16.5540  -29.8400   23.6680 C   0  0  0  0  0  3  0  0  0  0  0  0
  -16.7700  -28.5760   23.0920 C   0  0  0  0  0  3  0  0  0  0  0  0
  -25.8650  -32.5710   23.9510 C   0  0  0  0  0  3  0  0  0  0  0  0
  -25.5470  -33.9750   24.2410 N   0  0  0  0  0  0  0  0  0  0  0  0
  -25.8990  -35.0100   23.4650 C   0  0  0  0  0  0  0  0  0  0  0  0
  -26.5940  -34.8830   22.4540 O   0  0  0  0  0  0  0  0  0  0  0  0
  -24.9340  -34.1480   25.0240 H   0  0  0  0  0  0  0  0  0  0  0  0
  -24.1810  -36.7910   23.0170 C   0  0  0  0  0  1  0  0  0  0  0  0
  -25.3960  -36.4070   23.8760 C   0  0  0  0  0  3  0  0  0  0  0  0
  -27.5020  -37.3130   24.7550 C   0  0  0  0  0  1  0  0  0  0  0  0
  -26.4320  -37.4570   23.7720 N   0  0  0  0  0  0  0  0  0  0  0  0
  -26.0210  -38.3810   23.8840 H   0  0  0  0  0  0  0  0  0  0  0  0
  -26.3580  -31.8280   25.2530 C   0  0  1  0  0  0  0  0  0  0  0  0
  -25.2420  -31.6050   26.3010 C   0  0  0  0  0  1  0  0  0  0  0  0
  -26.9550  -30.4460   24.8970 C   0  0  0  0  0  1  0  0  0  0  0  0
  -27.4910  -32.6390   25.9230 C   0  0  0  0  0  1  0  0  0  0  0  0
  1  2  1  0
  1  7  1  0
  2  4  1  0
  3  1  2  0
  6  8  2  0
  7  9  1  0
  8  5  1  0
  8 21  1  0
  9 11  1  0
  9  5  2  0
 10  7  2  0
 10  6  1  0
 12 10  1  0
 13 21  1  0
 14 19  1  0
 15 16  1  0
 15 14  1  0
 17 16  1  0
 17 26  1  0
 17 18  1  0
 19 13  1  0
 19 18  1  0
 20 13  2  0
 21 22  1  0
 23 24  2  0
 24 43  1  0
 25 24  1  0
 25 28  1  0
 26 23  1  0
 26 27  1  0
 27 25  2  0
 28 29  1  0
 29 30  2  0
 31 34  1  0
 31 30  1  0
 32 31  2  0
 33 32  1  0
 33 28  2  0
 34 35  1  0
 35 36  1  0
 36 37  2  0
 38 37  1  0
 38 42  1  0
 39 38  2  0
 40 35  2  0
 40 39  1  0
 41 40  1  0
 43 44  1  0
 44 47  1  0
 44 46  1  0
 45 43  2  0
 48 49  1  0
 48 23  1  0
 50 48  1  0
 51 52  1  0
 51  2  1  0
 52 53  1  0
 53 54  1  0
 54 55  1  0
 55 56  1  0
 56 58  1  0
 57 68  2  0
 58 63  1  0
 59 67  1  0
 59 69  1  0
 60 66  1  0
 60 62  1  0
 61 67  1  0
 62 63  2  0
 62 61  1  0
 64 58  2  0
 65 64  1  0
 65 60  2  0
 66 59  1  0
 67 57  1  0
 69 71  2  0
 70 69  1  0
 72 70  1  0
 73 82  2  0
 73 78  1  0
 74 70  1  0
 74 78  1  0
 75 74  1  0
 76 77  1  0
 76 75  1  0
 77 73  1  0
 78 79  2  0
 79 80  1  0
 81 80  2  0
 82 81  1  0
 83 57  1  0
 83 84  1  0
 83 93  1  0
 84 87  1  0
 85 89  1  0
 85 84  1  0
 86 85  2  0
 89 88  1  0
 91 89  1  0
 91 92  1  0
 91 90  1  0
 93 96  1  1
 93 94  1  0
 95 93  1  0
M  ISO  4  13 100  21 100  55 101  56 101
M  END
>  <TORSDO>  (1) 
F 22

>  <SCORE>  (1) 
-12.981

>  <name>  (1) 
0

>  <ligand_id>  (1) 
0

>  <original_smiles>  (1) 
[H]c1c([H])c([H])c2c(c1[H])C([H])([H])C([H])([H])C([H])([H])C2([H])N([H])C(=O)C1([H])N(C(=O)C([H])(N([H])C(=O)C([H])(N([H])C([H])([H])[H])C([H])([H])[H])C(C([H])([H])[H])(C([H])([H])[H])C([H])([H])[H])C([H])([H])c2c([H])c(OC([H])([H])C([H])([H])C([H])([H])C([H])([H])C([H])([H])N([H])C(=O)c3c(F)c([H])c(N([H])C(=O)N4C([H])([H])C([H])([H])C([H])([H])C([H])(n5nc(-c6c([H])c([H])c(Oc7c([H])c([H])c(F)c([H])c7F)c([H])c6[H])c(C(=O)N([H])[H])c5N([H])[H])C4([H])[H])c([H])c3F)c([H])c([H])c2C1([H])[H]

>  <smiles>  (1) 
[H]c1c([H])c([H])c2c(c1[H])C([H])([H])C([H])([H])C([H])([H])C2([H])N([H])C(=O)C1([H])N(C(=O)C([H])(N([H])C(=O)C([H])(N([H])C([H])([H])[H])C([H])([H])[H])C(C([H])([H])[H])(C([H])([H])[H])C([H])([H])[H])C([H])([H])c2c([H])c(OC([H])([H])C([H])([H])C([H])([H])C([H])([H])C([H])([H])N([H])C(=O)c3c(F)c([H])c(N([H])C(=O)N4C([H])([H])C([H])([H])C([H])([H])C([H])(n5nc(-c6c([H])c([H])c(Oc7c([H])c([H])c(F)c([H])c7F)c([H])c6[H])c(C(=O)N([H])[H])c5N([H])[H])C4([H])[H])c([H])c3F)c([H])c([H])c2C1([H])[H]

$$$$
1:0:0
     RDKit          3D

 94102  0  0  1  0  0  0  0  0999 V2000
  -29.5640  -22.0100   19.8100 C   0  0  0  0  0  2  0  0  0  0  0  0
  -30.0150  -24.1940   20.9330 C   0  0  0  0  0  0  0  0  0  0  0  0
  -29.3370  -23.0380   20.8380 N   0  0  0  0  0  0  0  0  0  0  0  0
  -31.0610  -24.3890   20.3130 O   0  0  0  0  0  0  0  0  0  0  0  0
  -28.4830  -22.9600   21.3760 H   0  0  0  0  0  0  0  0  0  0  0  0
  -29.4390  -25.2910   21.8460 C   0  0  0  0  0  2  0  0  0  0  0  0
  -29.4030  -26.7080   21.2190 C   0  0  0  0  0  2  0  0  0  0  0  0
  -28.4970  -26.7550   20.1110 O   0  0  0  0  0  0  0  0  0  0  0  0
  -24.5970  -31.8960   23.2360 C   0  0  0  0  0  0  0  0  0  0  0  0
  -27.3470  -27.5180   20.1860 C   0  0  0  0  0  0  0  0  0  0  0  0
  -23.4270  -30.4970   21.5610 C   0  0  0  0  0  3  0  0  0  0  0  0
  -24.9230  -28.9790   20.1580 C   0  0  0  0  0  0  0  0  0  0  0  0
  -25.9490  -30.8840   21.4120 C   0  0  0  0  0  2  0  0  0  0  0  0
  -26.0610  -29.5180   20.7740 C   0  0  0  0  0  0  0  0  0  0  0  0
  -27.2740  -28.7950   20.7920 C   0  0  0  0  0  3  0  0  0  0  0  0
  -26.1960  -26.9950   19.5620 C   0  0  0  0  0  3  0  0  0  0  0  0
  -24.9840  -27.7130   19.5500 C   0  0  0  0  0  3  0  0  0  0  0  0
  -23.6690  -29.8230   20.1820 C   0  0  0  0  0  2  0  0  0  0  0  0
  -24.6740  -31.1070   22.1290 N   0  0  0  0  0  0  0  0  0  0  0  0
  -23.5060  -32.1560   23.7640 O   0  0  0  0  0  0  0  0  0  0  0  0
  -22.7700  -29.4650   22.5040 C   0  0  0  0  0  0  0  0  0  0  0  0
  -21.4460  -29.2780   22.3610 N   0  0  0  0  0  0  0  0  0  0  0  0
  -23.4470  -28.8330   23.3190 O   0  0  0  0  0  0  0  0  0  0  0  0
  -20.9590  -29.8390   21.6770 H   0  0  0  0  0  0  0  0  0  0  0  0
  -18.0690  -28.0930   22.8340 C   0  0  0  0  0  0  0  0  0  0  0  0
  -20.6270  -28.3310   23.1160 C   0  0  0  0  0  3  0  0  0  0  0  0
  -20.7230  -26.9100   22.5160 C   0  0  0  0  0  2  0  0  0  0  0  0
  -19.6240  -26.6110   21.4920 C   0  0  0  0  0  2  0  0  0  0  0  0
  -18.2400  -26.7560   22.1330 C   0  0  0  0  0  2  0  0  0  0  0  0
  -19.1910  -28.8400   23.2810 C   0  0  0  0  0  0  0  0  0  0  0  0
  -18.9800  -30.0950   23.8920 C   0  0  0  0  0  3  0  0  0  0  0  0
  -17.6790  -30.6030   24.0630 C   0  0  0  0  0  3  0  0  0  0  0  0
  -16.5710  -29.8530   23.6350 C   0  0  0  0  0  3  0  0  0  0  0  0
  -16.7670  -28.6000   23.0250 C   0  0  0  0  0  3  0  0  0  0  0  0
  -25.8710  -32.5330   23.8770 C   0  0  0  0  0  3  0  0  0  0  0  0
  -25.5550  -33.9290   24.1970 N   0  0  0  0  0  0  0  0  0  0  0  0
  -25.8960  -34.9800   23.4370 C   0  0  0  0  0  0  0  0  0  0  0  0
  -26.5820  -34.8740   22.4160 O   0  0  0  0  0  0  0  0  0  0  0  0
  -24.9500  -34.0860   24.9890 H   0  0  0  0  0  0  0  0  0  0  0  0
  -24.1700  -36.7650   23.0440 C   0  0  0  0  0  1  0  0  0  0  0  0
  -25.3970  -36.3670   23.8810 C   0  0  0  0  0  3  0  0  0  0  0  0
  -27.5090  -37.2640   24.7550 C   0  0  0  0  0  1  0  0  0  0  0  0
  -26.4280  -37.4230   23.7860 N   0  0  0  0  0  0  0  0  0  0  0  0
  -26.0150  -38.3430   23.9200 H   0  0  0  0  0  0  0  0  0  0  0  0
  -26.3740  -31.7630   25.1610 C   0  0  1  0  0  0  0  0  0  0  0  0
  -25.2660  -31.5190   26.2100 C   0  0  0  0  0  1  0  0  0  0  0  0
  -26.9750  -30.3900   24.7790 C   0  0  0  0  0  1  0  0  0  0  0  0
  -27.5050  -32.5670   25.8440 C   0  0  0  0  0  1  0  0  0  0  0  0
  -30.7930  -21.0860   20.0410 C   0  0  0  0  0  2  0  0  0  0  0  0
  -30.1800  -16.5340   21.0060 C   0  0  0  0  0  0  0  0  0  0  0  0
  -31.6220  -16.6840   21.5170 C   0  0  0  0  0  2  0  0  0  0  0  0
  -29.2590  -17.7080   21.3270 C   0  0  0  0  0  2  0  0  0  0  0  0
  -31.9670  -18.0600   22.1340 C   0  0  0  0  0  2  0  0  0  0  0  0
  -29.5240  -18.9690   20.4580 C   0  0  0  0  0  2  0  0  0  0  0  0
  -31.9390  -19.2250   21.1190 C   0  0  0  0  0  2  0  0  0  0  0  0
  -29.6690  -15.5390   20.3680 N   0  0  0  0  0  0  0  0  0  0  0  0
  -30.6120  -19.8860   20.9250 N   0  0  1  0  0  4  0  0  0  0  0  0
  -30.3280  -20.2440   21.8260 H   0  0  0  0  0  0  0  0  0  0  0  0
  -30.4330  -14.5330   19.7790 C   0  0  0  0  0  0  0  0  0  0  0  0
  -30.1070  -12.3480   18.6830 C   0  0  0  0  0  2  0  0  0  0  0  0
  -29.0490  -12.5450   17.5760 C   0  0  0  0  0  2  0  0  0  0  0  0
  -27.6210  -12.3710   18.1390 C   0  0  0  0  0  2  0  0  0  0  0  0
  -27.3870  -13.1770   19.4450 C   0  0  0  0  0  3  0  0  0  0  0  0
  -28.5560  -12.9770   20.4360 C   0  0  0  0  0  2  0  0  0  0  0  0
  -29.8120  -13.3230   19.7440 N   0  0  0  0  0  0  0  0  0  0  0  0
  -31.4990  -14.7170   19.1890 O   0  0  0  0  0  0  0  0  0  0  0  0
  -25.0840  -13.7040   20.4630 C   0  0  0  0  0  0  0  0  0  0  0  0
  -24.0730  -12.8980   20.9140 C   0  0  0  0  0  0  0  0  0  0  0  0
  -24.5380  -11.5580   20.7530 C   0  0  0  0  0  0  0  0  0  0  0  0
  -26.1010  -12.8540   20.0590 N   0  0  0  0  0  0  0  0  0  0  0  0
  -25.7800  -11.5530   20.2850 N   0  0  0  0  0  0  0  0  0  0  0  0
  -23.8510  -10.2740   20.9610 C   0  0  0  0  0  0  0  0  0  0  0  0
  -24.3440   -9.3120   21.8680 C   0  0  0  0  0  3  0  0  0  0  0  0
  -23.6560   -8.0950   22.0640 C   0  0  0  0  0  3  0  0  0  0  0  0
  -22.4620   -7.8310   21.3520 C   0  0  0  0  0  0  0  0  0  0  0  0
  -21.9880   -8.7840   20.4340 C   0  0  0  0  0  3  0  0  0  0  0  0
  -22.6770   -9.9930   20.2350 C   0  0  0  0  0  3  0  0  0  0  0  0
  -21.7400   -6.6680   21.4600 O   0  0  0  0  0  0  0  0  0  0  0  0
  -21.6910   -5.9560   22.6320 C   0  0  0  0  0  0  0  0  0  0  0  0
  -21.1920   -6.5200   23.8260 C   0  0  0  0  0  3  0  0  0  0  0  0
  -21.0950   -5.7310   24.9900 C   0  0  0  0  0  3  0  0  0  0  0  0
  -21.4840   -4.3780   24.9590 C   0  0  0  0  0  0  0  0  0  0  0  0
  -21.9730   -3.8130   23.7680 C   0  0  0  0  0  3  0  0  0  0  0  0
  -22.0740   -4.5990   22.6070 C   0  0  0  0  0  0  0  0  0  0  0  0
  -22.5280   -4.0440   21.4560 F   0  0  0  0  0  0  0  0  0  0  0  0
  -21.3820   -3.6160   26.0730 F   0  0  0  0  0  0  0  0  0  0  0  0
  -22.7150  -13.3400   21.3790 C   0  0  0  0  0  0  0  0  0  0  0  0
  -22.1060  -12.5930   22.2930 N   0  0  0  0  0  0  0  0  0  0  0  0
  -22.2050  -14.3810   20.9650 O   0  0  0  0  0  0  0  0  0  0  0  0
  -22.5360  -11.7510   22.6490 H   0  0  0  0  0  0  0  0  0  0  0  0
  -21.1950  -12.8600   22.6380 H   0  0  0  0  0  0  0  0  0  0  0  0
  -25.2170  -15.0850   20.3470 N   0  0  0  0  0  0  0  0  0  0  0  0
  -24.4770  -15.7290   20.6020 H   0  0  0  0  0  0  0  0  0  0  0  0
  -26.0480  -15.5420   19.9900 H   0  0  0  0  0  0  0  0  0  0  0  0
  1 49  1  0
  1  3  1  0
  2  6  1  0
  3  2  1  0
  3  5  1  0
  4  2  2  0
  7  6  1  0
  8 10  1  0
  8  7  1  0
  9 20  2  0
 10 15  1  0
 11 19  1  0
 11 21  1  0
 12 18  1  0
 12 14  1  0
 13 19  1  0
 14 15  2  0
 14 13  1  0
 16 10  2  0
 17 16  1  0
 17 12  2  0
 18 11  1  0
 19  9  1  0
 21 23  2  0
 22 21  1  0
 24 22  1  0
 25 34  2  0
 25 30  1  0
 26 22  1  0
 26 30  1  0
 27 26  1  0
 28 29  1  0
 28 27  1  0
 29 25  1  0
 30 31  2  0
 31 32  1  0
 33 32  2  0
 34 33  1  0
 35  9  1  0
 35 36  1  0
 35 45  1  0
 36 39  1  0
 37 41  1  0
 37 36  1  0
 38 37  2  0
 41 40  1  0
 43 41  1  0
 43 44  1  0
 43 42  1  0
 45 48  1  1
 45 46  1  0
 47 45  1  0
 49 57  1  0
 50 52  1  0
 50 51  1  0
 51 53  1  0
 54 57  1  0
 54 52  1  0
 55 53  1  0
 56 50  2  0
 57 55  1  0
 57 58  1  1
 59 56  1  0
 60 65  1  0
 61 62  1  0
 61 60  1  0
 63 62  1  0
 63 70  1  0
 63 64  1  0
 65 59  1  0
 65 64  1  0
 66 59  2  0
 67 68  2  0
 68 87  1  0
 69 68  1  0
 69 72  1  0
 70 71  1  0
 70 67  1  0
 71 69  2  0
 72 73  1  0
 73 74  2  0
 75 78  1  0
 75 74  1  0
 76 75  2  0
 77 76  1  0
 77 72  2  0
 78 79  1  0
 79 80  1  0
 80 81  2  0
 82 81  1  0
 82 86  1  0
 83 82  2  0
 84 79  2  0
 84 83  1  0
 85 84  1  0
 87 88  1  0
 88 91  1  0
 88 90  1  0
 89 87  2  0
 92 67  1  0
 92 93  1  0
 94 92  1  0
M  ISO  4   7 101   8 101  56 100  59 100
M  END
>  <TORSDO>  (2) 
F 21

>  <SCORE>  (2) 
-12.311

>  <name>  (2) 
1

>  <ligand_id>  (2) 
1

>  <original_smiles>  (2) 
[H]c1c([H])c([H])c2c(c1[H])C([H])([H])C([H])([H])C([H])([H])C2([H])N([H])C(=O)C1([H])N(C(=O)C([H])(N([H])C(=O)C([H])(N([H])C([H])([H])[H])C([H])([H])[H])C(C([H])([H])[H])(C([H])([H])[H])C([H])([H])[H])C([H])([H])c2c([H])c(OC([H])([H])C([H])([H])C(=O)N([H])C([H])([H])C([H])([H])[N+]3([H])C([H])([H])C([H])([H])C(=NC(=O)N4C([H])([H])C([H])([H])C([H])([H])C([H])(n5nc(-c6c([H])c([H])c(Oc7c([H])c([H])c(F)c([H])c7F)c([H])c6[H])c(C(=O)N([H])[H])c5N([H])[H])C4([H])[H])C([H])([H])C([H])([H])C3([H])[H])c([H])c([H])c2C1([H])[H]

>  <smiles>  (2) 
[H]c1c([H])c([H])c2c(c1[H])C([H])([H])C([H])([H])C([H])([H])C2([H])N([H])C(=O)C1([H])N(C(=O)C([H])(N([H])C(=O)C([H])(N([H])C([H])([H])[H])C([H])([H])[H])C(C([H])([H])[H])(C([H])([H])[H])C([H])([H])[H])C([H])([H])c2c([H])c(OC([H])([H])C([H])([H])C(=O)N([H])C([H])([H])C([H])([H])[N+]3([H])C([H])([H])C([H])([H])C(=NC(=O)N4C([H])([H])C([H])([H])C([H])([H])C([H])(n5nc(-c6c([H])c([H])c(Oc7c([H])c([H])c(F)c([H])c7F)c([H])c6[H])c(C(=O)N([H])[H])c5N([H])[H])C4([H])[H])C([H])([H])C([H])([H])C3([H])[H])c([H])c([H])c2C1([H])[H]

$$$$
2:0:0
     RDKit          3D

 94102  0  0  1  0  0  0  0  0999 V2000
  -28.2250  -22.3690   19.4060 C   0  0  0  0  0  3  0  0  0  0  0  0
  -30.3480  -23.1110   20.1230 C   0  0  0  0  0  3  0  0  0  0  0  0
  -28.6890  -20.9920   19.4220 C   0  0  0  0  0  3  0  0  0  0  0  0
  -30.8140  -21.7360   20.1390 C   0  0  0  0  0  3  0  0  0  0  0  0
  -29.0120  -23.5040   19.7990 C   0  0  0  0  0  0  0  0  0  0  0  0
  -30.0000  -20.5890   19.8420 C   0  0  0  0  0  0  0  0  0  0  0  0
  -28.3390  -24.9350   20.2260 C   0  0  0  0  0  2  0  0  0  0  0  0
  -28.6010  -26.3600   19.7140 O   0  0  0  0  0  0  0  0  0  0  0  0
  -24.5220  -31.5530   22.9380 C   0  0  0  0  0  0  0  0  0  0  0  0
  -27.4830  -27.2570   19.7080 C   0  0  0  0  0  0  0  0  0  0  0  0
  -23.4390  -30.1380   21.2340 C   0  0  0  0  0  3  0  0  0  0  0  0
  -25.0140  -28.7660   19.7440 C   0  0  0  0  0  0  0  0  0  0  0  0
  -25.9570  -30.6390   21.0840 C   0  0  0  0  0  2  0  0  0  0  0  0
  -26.1490  -29.2920   20.3740 C   0  0  0  0  0  0  0  0  0  0  0  0
  -27.3880  -28.5530   20.3440 C   0  0  0  0  0  3  0  0  0  0  0  0
  -26.3220  -26.8330   19.0270 C   0  0  0  0  0  3  0  0  0  0  0  0
  -25.1080  -27.5470   19.0570 C   0  0  0  0  0  3  0  0  0  0  0  0
  -23.7130  -29.5450   19.8280 C   0  0  0  0  0  2  0  0  0  0  0  0
  -24.6560  -30.7960   21.8070 N   0  0  0  0  0  0  0  0  0  0  0  0
  -23.4180  -31.7180   23.4790 O   0  0  0  0  0  0  0  0  0  0  0  0
  -22.8530  -29.0310   22.1480 C   0  0  0  0  0  0  0  0  0  0  0  0
  -21.5500  -28.7370   21.9940 N   0  0  0  0  0  0  0  0  0  0  0  0
  -23.5730  -28.4430   22.9580 O   0  0  0  0  0  0  0  0  0  0  0  0
  -21.0210  -29.2690   21.3170 H   0  0  0  0  0  0  0  0  0  0  0  0
  -18.3170  -27.1440   22.3430 C   0  0  0  0  0  0  0  0  0  0  0  0
  -20.8140  -27.6980   22.7180 C   0  0  0  0  0  3  0  0  0  0  0  0
  -21.1060  -26.2960   22.1330 C   0  0  0  0  0  2  0  0  0  0  0  0
  -20.0900  -25.8630   21.0700 C   0  0  0  0  0  2  0  0  0  0  0  0
  -18.6760  -25.8370   21.6590 C   0  0  0  0  0  2  0  0  0  0  0  0
  -19.3210  -28.0250   22.8280 C   0  0  0  0  0  0  0  0  0  0  0  0
  -18.9320  -29.2420   23.4280 C   0  0  0  0  0  3  0  0  0  0  0  0
  -17.5720  -29.5840   23.5500 C   0  0  0  0  0  3  0  0  0  0  0  0
  -16.5830  -28.7020   23.0810 C   0  0  0  0  0  3  0  0  0  0  0  0
  -16.9550  -27.4840   22.4840 C   0  0  0  0  0  3  0  0  0  0  0  0
  -25.7450  -32.2650   23.5920 C   0  0  0  0  0  3  0  0  0  0  0  0
  -25.3200  -33.6200   23.9750 N   0  0  0  0  0  0  0  0  0  0  0  0
  -25.6000  -34.7330   23.2850 C   0  0  0  0  0  0  0  0  0  0  0  0
  -26.3120  -34.7300   22.2760 O   0  0  0  0  0  0  0  0  0  0  0  0
  -24.6860  -33.6880   24.7580 H   0  0  0  0  0  0  0  0  0  0  0  0
  -23.7650  -36.4230   22.9500 C   0  0  0  0  0  1  0  0  0  0  0  0
  -24.9990  -36.0590   23.7920 C   0  0  0  0  0  3  0  0  0  0  0  0
  -27.0340  -37.0390   24.7560 C   0  0  0  0  0  1  0  0  0  0  0  0
  -25.9590  -37.1850   23.7770 N   0  0  0  0  0  0  0  0  0  0  0  0
  -25.4840  -38.0650   23.9560 H   0  0  0  0  0  0  0  0  0  0  0  0
  -26.3150  -31.4910   24.8440 C   0  0  1  0  0  0  0  0  0  0  0  0
  -25.2410  -31.1360   25.8980 C   0  0  0  0  0  1  0  0  0  0  0  0
  -27.0010  -30.1740   24.4130 C   0  0  0  0  0  1  0  0  0  0  0  0
  -27.4000  -32.3460   25.5380 C   0  0  0  0  0  1  0  0  0  0  0  0
  -30.4320  -19.0560   20.2550 C   0  0  0  0  0  3  0  0  0  0  0  0
  -29.6870  -18.6710   21.5630 C   0  0  0  0  0  2  0  0  0  0  0  0
  -30.4770  -18.9620   22.8590 C   0  0  0  0  0  2  0  0  0  0  0  0
  -30.7450  -20.3970   23.0750 N   0  0  0  0  0  4  0  0  0  0  0  0
  -31.2700  -20.7910   22.3160 H   0  0  0  0  0  0  0  0  0  0  0  0
  -31.2810  -20.5140   23.9180 H   0  0  0  0  0  0  0  0  0  0  0  0
  -29.8880  -20.9100   23.1800 H   0  0  0  0  0  0  0  0  0  0  0  0
  -30.5870  -17.7340   19.2630 C   0  0  0  0  0  2  0  0  0  0  0  0
  -31.1870  -15.1010   19.6360 C   0  0  0  0  0  0  0  0  0  0  0  0
  -30.9660  -12.7130   18.8750 C   0  0  0  0  0  2  0  0  0  0  0  0
  -29.9680  -12.6440   17.6940 C   0  0  0  0  0  2  0  0  0  0  0  0
  -28.5210  -12.5070   18.2050 C   0  0  0  0  0  2  0  0  0  0  0  0
  -28.2020  -13.5070   19.3480 C   0  0  0  0  0  3  0  0  0  0  0  0
  -29.3130  -13.5490   20.4190 C   0  0  0  0  0  2  0  0  0  0  0  0
  -30.5730  -13.8620   19.7330 N   0  0  0  0  0  0  0  0  0  0  0  0
  -32.3490  -15.1560   19.2240 O   0  0  0  0  0  0  0  0  0  0  0  0
  -30.4180  -16.2660   19.7860 N   0  0  0  0  0  0  0  0  0  0  0  0
  -29.4940  -16.0650   20.1360 H   0  0  0  0  0  0  0  0  0  0  0  0
  -25.9170  -14.1940   20.2810 C   0  0  0  0  0  0  0  0  0  0  0  0
  -24.8370  -13.4660   20.7010 C   0  0  0  0  0  0  0  0  0  0  0  0
  -25.2170  -12.0930   20.5840 C   0  0  0  0  0  0  0  0  0  0  0  0
  -26.8860  -13.2690   19.9310 N   0  0  0  0  0  0  0  0  0  0  0  0
  -26.4780  -11.9970   20.1780 N   0  0  0  0  0  0  0  0  0  0  0  0
  -24.4320  -10.8670   20.7790 C   0  0  0  0  0  0  0  0  0  0  0  0
  -24.8260   -9.8770   21.7060 C   0  0  0  0  0  3  0  0  0  0  0  0
  -24.0440   -8.7160   21.8900 C   0  0  0  0  0  3  0  0  0  0  0  0
  -22.8540   -8.5380   21.1450 C   0  0  0  0  0  0  0  0  0  0  0  0
  -22.4790   -9.5150   20.2060 C   0  0  0  0  0  3  0  0  0  0  0  0
  -23.2600  -10.6670   20.0210 C   0  0  0  0  0  3  0  0  0  0  0  0
  -22.0440   -7.4330   21.2390 O   0  0  0  0  0  0  0  0  0  0  0  0
  -21.9000   -6.7420   22.4160 C   0  0  0  0  0  0  0  0  0  0  0  0
  -21.4420   -7.3690   23.5960 C   0  0  0  0  0  3  0  0  0  0  0  0
  -21.2410   -6.6070   24.7650 C   0  0  0  0  0  3  0  0  0  0  0  0
  -21.4910   -5.2210   24.7540 C   0  0  0  0  0  0  0  0  0  0  0  0
  -21.9420   -4.5960   23.5790 C   0  0  0  0  0  3  0  0  0  0  0  0
  -22.1440   -5.3540   22.4130 C   0  0  0  0  0  0  0  0  0  0  0  0
  -22.5590   -4.7430   21.2770 F   0  0  0  0  0  0  0  0  0  0  0  0
  -21.2920   -4.4880   25.8750 F   0  0  0  0  0  0  0  0  0  0  0  0
  -23.4940  -14.0100   21.0920 C   0  0  0  0  0  0  0  0  0  0  0  0
  -22.8030  -13.3350   22.0030 N   0  0  0  0  0  0  0  0  0  0  0  0
  -23.0730  -15.0670   20.6260 O   0  0  0  0  0  0  0  0  0  0  0  0
  -23.1610  -12.4760   22.3940 H   0  0  0  0  0  0  0  0  0  0  0  0
  -21.9040  -13.6780   22.3110 H   0  0  0  0  0  0  0  0  0  0  0  0
  -26.1500  -15.5600   20.1430 N   0  0  0  0  0  0  0  0  0  0  0  0
  -25.4170  -16.2430   20.3080 H   0  0  0  0  0  0  0  0  0  0  0  0
  -26.9630  -15.9550   19.6920 H   0  0  0  0  0  0  0  0  0  0  0  0
  1  3  2  0
  1  5  1  0
  2  4  1  0
  3  6  1  0
  5  2  2  0
  5  7  1  0
  6  4  2  0
  6 49  1  0
  8  7  1  0
  9 20  2  0
 10  8  1  0
 10 15  1  0
 11 19  1  0
 11 21  1  0
 12 18  1  0
 12 14  1  0
 13 19  1  0
 14 13  1  0
 15 14  2  0
 16 17  1  0
 16 10  2  0
 17 12  2  0
 18 11  1  0
 19  9  1  0
 21 23  2  0
 22 21  1  0
 24 22  1  0
 25 34  2  0
 25 30  1  0
 26 22  1  0
 26 30  1  0
 27 26  1  0
 28 29  1  0
 28 27  1  0
 29 25  1  0
 30 31  2  0
 31 32  1  0
 33 32  2  0
 34 33  1  0
 35  9  1  0
 35 36  1  0
 35 45  1  0
 36 39  1  0
 37 41  1  0
 37 36  1  0
 38 37  2  0
 41 40  1  0
 43 41  1  0
 43 44  1  0
 43 42  1  0
 45 48  1  1
 45 46  1  0
 47 45  1  0
 49 56  1  0
 49 50  1  0
 50 51  1  0
 51 52  1  0
 52 55  1  0
 52 54  1  0
 53 52  1  0
 56 65  1  0
 57 63  1  0
 57 65  1  0
 58 63  1  0
 59 60  1  0
 59 58  1  0
 61 60  1  0
 61 70  1  0
 61 62  1  0
 63 62  1  0
 64 57  2  0
 65 66  1  0
 67 68  2  0
 68 87  1  0
 69 68  1  0
 69 72  1  0
 70 71  1  0
 70 67  1  0
 71 69  2  0
 72 73  1  0
 73 74  2  0
 75 78  1  0
 75 74  1  0
 76 75  2  0
 77 76  1  0
 77 72  2  0
 78 79  1  0
 79 80  1  0
 80 81  2  0
 82 81  1  0
 82 86  1  0
 83 82  2  0
 84 79  2  0
 84 83  1  0
 85 84  1  0
 87 88  1  0
 88 91  1  0
 88 90  1  0
 89 87  2  0
 92 67  1  0
 92 93  1  0
 94 92  1  0
M  ISO  4   7 101   8 101  57 100  65 100
M  END
>  <TORSDO>  (3) 
F 22

>  <SCORE>  (3) 
-11.134

>  <name>  (3) 
2

>  <ligand_id>  (3) 
2

>  <original_smiles>  (3) 
[H]c1c([H])c([H])c2c(c1[H])C([H])([H])C([H])([H])C([H])([H])C2([H])N([H])C(=O)C1([H])N(C(=O)C([H])(N([H])C(=O)C([H])(N([H])C([H])([H])[H])C([H])([H])[H])C(C([H])([H])[H])(C([H])([H])[H])C([H])([H])[H])C([H])([H])c2c([H])c(OC([H])([H])c3c([H])c([H])c(C([H])(C([H])([H])N([H])C(=O)N4C([H])([H])C([H])([H])C([H])([H])C([H])(n5nc(-c6c([H])c([H])c(Oc7c([H])c([H])c(F)c([H])c7F)c([H])c6[H])c(C(=O)N([H])[H])c5N([H])[H])C4([H])[H])C([H])([H])C([H])([H])[N+]([H])([H])[H])c([H])c3[H])c([H])c([H])c2C1([H])[H]

>  <smiles>  (3) 
[H]c1c([H])c([H])c2c(c1[H])C([H])([H])C([H])([H])C([H])([H])C2([H])N([H])C(=O)C1([H])N(C(=O)C([H])(N([H])C(=O)C([H])(N([H])C([H])([H])[H])C([H])([H])[H])C(C([H])([H])[H])(C([H])([H])[H])C([H])([H])[H])C([H])([H])c2c([H])c(OC([H])([H])c3c([H])c([H])c(C([H])(C([H])([H])N([H])C(=O)N4C([H])([H])C([H])([H])C([H])([H])C([H])(n5nc(-c6c([H])c([H])c(Oc7c([H])c([H])c(F)c([H])c7F)c([H])c6[H])c(C(=O)N([H])[H])c5N([H])[H])C4([H])[H])C([H])([H])C([H])([H])[N+]([H])([H])[H])c([H])c3[H])c([H])c([H])c2C1([H])[H]

$$$$
3:0:0
     RDKit          3D

 94102  0  0  1  0  0  0  0  0999 V2000
  -28.7820  -21.4650   22.0680 C   0  0  0  0  0  2  0  0  0  0  0  0
  -30.4620  -20.5950   20.3080 C   0  0  0  0  0  2  0  0  0  0  0  0
  -30.9830  -19.2000   19.9410 C   0  0  0  0  0  2  0  0  0  0  0  0
  -29.5290  -19.0170   21.8360 C   0  0  0  0  0  2  0  0  0  0  0  0
  -29.1810  -20.3250   21.1030 C   0  0  0  0  0  3  0  0  0  0  0  0
  -30.4630  -18.2610   20.9650 N   0  0  2  0  0  4  0  0  0  0  0  0
  -29.9150  -17.5710   20.4720 H   0  0  0  0  0  0  0  0  0  0  0  0
  -31.5000  -17.5190   21.7280 C   0  0  0  0  0  2  0  0  0  0  0  0
  -32.1690  -16.3750   20.9390 C   0  0  0  0  0  2  0  0  0  0  0  0
  -31.4180  -14.5150   19.4700 C   0  0  0  0  0  0  0  0  0  0  0  0
  -30.8810  -12.3120   18.5010 C   0  0  0  0  0  2  0  0  0  0  0  0
  -29.8210  -12.3920   17.3900 C   0  0  0  0  0  2  0  0  0  0  0  0
  -28.4040  -12.3290   17.9860 C   0  0  0  0  0  2  0  0  0  0  0  0
  -28.2070  -13.3350   19.1500 C   0  0  0  0  0  3  0  0  0  0  0  0
  -29.3620  -13.2320   20.1720 C   0  0  0  0  0  2  0  0  0  0  0  0
  -30.6420  -13.4010   19.4600 N   0  0  0  0  0  0  0  0  0  0  0  0
  -32.3120  -14.7280   18.6460 O   0  0  0  0  0  0  0  0  0  0  0  0
  -31.2330  -15.3240   20.5220 N   0  0  0  0  0  0  0  0  0  0  0  0
  -30.5290  -15.0300   21.1830 H   0  0  0  0  0  0  0  0  0  0  0  0
  -25.9740  -14.1140   20.1710 C   0  0  0  0  0  0  0  0  0  0  0  0
  -24.8990  -13.4180   20.6560 C   0  0  0  0  0  0  0  0  0  0  0  0
  -25.2360  -12.0360   20.5340 C   0  0  0  0  0  0  0  0  0  0  0  0
  -26.9040  -13.1590   19.7890 N   0  0  0  0  0  0  0  0  0  0  0  0
  -26.4680  -11.9020   20.0610 N   0  0  0  0  0  0  0  0  0  0  0  0
  -24.4340  -10.8300   20.7850 C   0  0  0  0  0  0  0  0  0  0  0  0
  -24.8290   -9.8670   21.7390 C   0  0  0  0  0  3  0  0  0  0  0  0
  -24.0330   -8.7260   21.9750 C   0  0  0  0  0  3  0  0  0  0  0  0
  -22.8260   -8.5410   21.2600 C   0  0  0  0  0  0  0  0  0  0  0  0
  -22.4490   -9.4920   20.2950 C   0  0  0  0  0  3  0  0  0  0  0  0
  -23.2460  -10.6240   20.0560 C   0  0  0  0  0  3  0  0  0  0  0  0
  -22.0030   -7.4510   21.4040 O   0  0  0  0  0  0  0  0  0  0  0  0
  -21.8470   -6.8210   22.6140 C   0  0  0  0  0  0  0  0  0  0  0  0
  -21.3730   -7.5070   23.7540 C   0  0  0  0  0  3  0  0  0  0  0  0
  -21.1620   -6.8060   24.9590 C   0  0  0  0  0  3  0  0  0  0  0  0
  -21.4140   -5.4220   25.0230 C   0  0  0  0  0  0  0  0  0  0  0  0
  -21.8800   -4.7380   23.8870 C   0  0  0  0  0  3  0  0  0  0  0  0
  -22.0930   -5.4360   22.6850 C   0  0  0  0  0  0  0  0  0  0  0  0
  -22.5220   -4.7680   21.5870 F   0  0  0  0  0  0  0  0  0  0  0  0
  -21.2040   -4.7480   26.1770 F   0  0  0  0  0  0  0  0  0  0  0  0
  -23.5930  -13.9980   21.1180 C   0  0  0  0  0  0  0  0  0  0  0  0
  -22.9310  -13.3400   22.0640 N   0  0  0  0  0  0  0  0  0  0  0  0
  -23.1750  -15.0670   20.6760 O   0  0  0  0  0  0  0  0  0  0  0  0
  -23.2830  -12.4730   22.4420 H   0  0  0  0  0  0  0  0  0  0  0  0
  -22.0570  -13.7100   22.4150 H   0  0  0  0  0  0  0  0  0  0  0  0
  -26.2310  -15.4710   20.0050 N   0  0  0  0  0  0  0  0  0  0  0  0
  -25.5340  -16.1790   20.2100 H   0  0  0  0  0  0  0  0  0  0  0  0
  -27.0530  -15.8450   19.5480 H   0  0  0  0  0  0  0  0  0  0  0  0
  -28.3900  -22.7170   21.3760 N   0  0  0  0  0  4  0  0  0  0  0  0
  -27.4110  -22.6580   21.1460 H   0  0  0  0  0  0  0  0  0  0  0  0
  -28.9090  -22.7970   20.5160 H   0  0  0  0  0  0  0  0  0  0  0  0
  -28.6410  -23.9270   22.1940 C   0  0  0  0  0  2  0  0  0  0  0  0
  -28.1260  -25.2440   21.5780 C   0  0  0  0  0  2  0  0  0  0  0  0
  -28.7290  -25.6270   20.2070 C   0  0  0  0  0  2  0  0  0  0  0  0
  -28.7020  -27.0390   19.9870 O   0  0  0  0  0  0  0  0  0  0  0  0
  -24.6730  -31.8910   23.2170 C   0  0  0  0  0  0  0  0  0  0  0  0
  -27.4830  -27.6760   19.9940 C   0  0  0  0  0  0  0  0  0  0  0  0
  -23.5190  -30.5040   21.5230 C   0  0  0  0  0  3  0  0  0  0  0  0
  -25.0270  -29.0670   20.0530 C   0  0  0  0  0  0  0  0  0  0  0  0
  -26.0270  -30.9660   21.3420 C   0  0  0  0  0  2  0  0  0  0  0  0
  -26.1610  -29.6230   20.6580 C   0  0  0  0  0  0  0  0  0  0  0  0
  -27.3920  -28.9360   20.6190 C   0  0  0  0  0  3  0  0  0  0  0  0
  -26.3330  -27.1220   19.3910 C   0  0  0  0  0  3  0  0  0  0  0  0
  -25.1060  -27.8130   19.4180 C   0  0  0  0  0  3  0  0  0  0  0  0
  -23.7530  -29.8760   20.1220 C   0  0  0  0  0  2  0  0  0  0  0  0
  -24.7570  -31.1330   22.0870 N   0  0  0  0  0  0  0  0  0  0  0  0
  -23.5830  -32.1060   23.7640 O   0  0  0  0  0  0  0  0  0  0  0  0
  -22.9030  -29.4300   22.4470 C   0  0  0  0  0  0  0  0  0  0  0  0
  -21.5940  -29.1840   22.2850 N   0  0  0  0  0  0  0  0  0  0  0  0
  -23.6020  -28.8200   23.2610 O   0  0  0  0  0  0  0  0  0  0  0  0
  -21.0910  -29.7320   21.6010 H   0  0  0  0  0  0  0  0  0  0  0  0
  -18.2800  -27.7930   22.6500 C   0  0  0  0  0  0  0  0  0  0  0  0
  -20.8090  -28.1890   23.0140 C   0  0  0  0  0  3  0  0  0  0  0  0
  -21.0120  -26.7760   22.4200 C   0  0  0  0  0  2  0  0  0  0  0  0
  -19.9640  -26.4100   21.3650 C   0  0  0  0  0  2  0  0  0  0  0  0
  -18.5560  -26.4660   21.9640 C   0  0  0  0  0  2  0  0  0  0  0  0
  -19.3390  -28.6090   23.1290 C   0  0  0  0  0  0  0  0  0  0  0  0
  -19.0300  -29.8500   23.7290 C   0  0  0  0  0  3  0  0  0  0  0  0
  -17.6940  -30.2750   23.8560 C   0  0  0  0  0  3  0  0  0  0  0  0
  -16.6490  -29.4550   23.3950 C   0  0  0  0  0  3  0  0  0  0  0  0
  -16.9430  -28.2170   22.7970 C   0  0  0  0  0  3  0  0  0  0  0  0
  -25.9370  -32.5420   23.8630 C   0  0  0  0  0  3  0  0  0  0  0  0
  -25.5980  -33.9320   24.1930 N   0  0  0  0  0  0  0  0  0  0  0  0
  -25.9210  -34.9910   23.4380 C   0  0  0  0  0  0  0  0  0  0  0  0
  -26.6050  -34.9030   22.4160 O   0  0  0  0  0  0  0  0  0  0  0  0
  -24.9880  -34.0740   24.9840 H   0  0  0  0  0  0  0  0  0  0  0  0
  -24.1620  -36.7490   23.0630 C   0  0  0  0  0  1  0  0  0  0  0  0
  -25.4010  -36.3690   23.8900 C   0  0  0  0  0  3  0  0  0  0  0  0
  -27.5060  -37.2950   24.7480 C   0  0  0  0  0  1  0  0  0  0  0  0
  -26.4130  -37.4430   23.7910 N   0  0  0  0  0  0  0  0  0  0  0  0
  -25.9880  -38.3550   23.9330 H   0  0  0  0  0  0  0  0  0  0  0  0
  -26.4490  -31.7720   25.1420 C   0  0  1  0  0  0  0  0  0  0  0  0
  -25.3380  -31.4750   26.1760 C   0  0  0  0  0  1  0  0  0  0  0  0
  -27.0970  -30.4260   24.7430 C   0  0  0  0  0  1  0  0  0  0  0  0
  -27.5480  -32.6000   25.8470 C   0  0  0  0  0  1  0  0  0  0  0  0
  2  5  1  0
  3  2  1  0
  3  6  1  0
  5  4  1  0
  5  1  1  0
  6  8  1  0
  6  4  1  0
  6  7  1  6
  9  8  1  0
 10 18  1  0
 11 16  1  0
 12 13  1  0
 12 11  1  0
 14 13  1  0
 14 23  1  0
 14 15  1  0
 16 10  1  0
 16 15  1  0
 17 10  2  0
 18  9  1  0
 18 19  1  0
 20 21  2  0
 21 40  1  0
 22 21  1  0
 22 25  1  0
 23 24  1  0
 23 20  1  0
 24 22  2  0
 25 26  1  0
 26 27  2  0
 28 31  1  0
 28 27  1  0
 29 28  2  0
 30 29  1  0
 30 25  2  0
 31 32  1  0
 32 37  2  0
 32 33  1  0
 33 34  2  0
 34 35  1  0
 35 39  1  0
 36 35  2  0
 37 36  1  0
 38 37  1  0
 40 41  1  0
 41 44  1  0
 41 43  1  0
 42 40  2  0
 45 20  1  0
 45 46  1  0
 47 45  1  0
 48  1  1  0
 48 51  1  0
 49 48  1  0
 50 48  1  0
 52 51  1  0
 53 52  1  0
 54 56  1  0
 54 53  1  0
 55 66  2  0
 56 61  1  0
 57 65  1  0
 57 67  1  0
 58 64  1  0
 58 60  1  0
 59 65  1  0
 60 59  1  0
 61 60  2  0
 62 63  1  0
 62 56  2  0
 63 58  2  0
 64 57  1  0
 65 55  1  0
 67 69  2  0
 68 67  1  0
 70 68  1  0
 71 80  2  0
 71 76  1  0
 72 68  1  0
 72 76  1  0
 73 72  1  0
 74 75  1  0
 74 73  1  0
 75 71  1  0
 76 77  2  0
 77 78  1  0
 79 78  2  0
 80 79  1  0
 81 55  1  0
 81 82  1  0
 81 91  1  0
 82 85  1  0
 83 87  1  0
 83 82  1  0
 84 83  2  0
 87 86  1  0
 89 87  1  0
 89 90  1  0
 89 88  1  0
 91 94  1  1
 91 92  1  0
 93 91  1  0
M  ISO  4  10 100  18 100  53 101  54 101
M  END
>  <TORSDO>  (4) 
F 23

>  <SCORE>  (4) 
-10.267

>  <name>  (4) 
3

>  <ligand_id>  (4) 
3

>  <original_smiles>  (4) 
[H]c1c([H])c([H])c2c(c1[H])C([H])([H])C([H])([H])C([H])([H])C2([H])N([H])C(=O)C1([H])N(C(=O)C([H])(N([H])C(=O)C([H])(N([H])C([H])([H])[H])C([H])([H])[H])C(C([H])([H])[H])(C([H])([H])[H])C([H])([H])[H])C([H])([H])c2c([H])c(OC([H])([H])C([H])([H])C([H])([H])[N+]([H])([H])C([H])([H])C3([H])C([H])([H])C([H])([H])[N+]([H])(C([H])([H])C([H])([H])N([H])C(=O)N4C([H])([H])C([H])([H])C([H])([H])C([H])(n5nc(-c6c([H])c([H])c(Oc7c([H])c([H])c(F)c([H])c7F)c([H])c6[H])c(C(=O)N([H])[H])c5N([H])[H])C4([H])[H])C3([H])[H])c([H])c([H])c2C1([H])[H]

>  <smiles>  (4) 
[H]c1c([H])c([H])c2c(c1[H])C([H])([H])C([H])([H])C([H])([H])C2([H])N([H])C(=O)C1([H])N(C(=O)C([H])(N([H])C(=O)C([H])(N([H])C([H])([H])[H])C([H])([H])[H])C(C([H])([H])[H])(C([H])([H])[H])C([H])([H])[H])C([H])([H])c2c([H])c(OC([H])([H])C([H])([H])C([H])([H])[N+]([H])([H])C([H])([H])C3([H])C([H])([H])C([H])([H])[N+]([H])(C([H])([H])C([H])([H])N([H])C(=O)N4C([H])([H])C([H])([H])C([H])([H])C([H])(n5nc(-c6c([H])c([H])c(Oc7c([H])c([H])c(F)c([H])c7F)c([H])c6[H])c(C(=O)N([H])[H])c5N([H])[H])C4([H])[H])C3([H])[H])c([H])c([H])c2C1([H])[H]

$$$$
4:0:0
     RDKit          3D

 96104  0  0  1  0  0  0  0  0999 V2000
  -31.5190  -21.6680   21.8090 C   0  0  0  0  0  0  0  0  0  0  0  0
  -31.0520  -20.7380   22.9180 C   0  0  0  0  0  2  0  0  0  0  0  0
  -29.7700  -19.9650   22.5420 C   0  0  0  0  0  2  0  0  0  0  0  0
  -30.7550  -19.8220   20.2440 C   0  0  0  0  0  2  0  0  0  0  0  0
  -30.9630  -21.3560   20.4180 C   0  0  0  0  0  3  0  0  0  0  0  0
  -32.3090  -22.6320   22.0290 N   0  0  0  0  0  0  0  0  0  0  0  0
  -29.9100  -19.1660   21.2910 N   0  0  1  0  0  4  0  0  0  0  0  0
  -32.5820  -22.6980   23.0040 H   0  0  0  0  0  0  0  0  0  0  0  0
  -28.9750  -19.1430   20.9090 H   0  0  0  0  0  0  0  0  0  0  0  0
  -29.7410  -23.4310   19.7140 C   0  0  0  0  0  0  0  0  0  0  0  0
  -29.7540  -22.1570   20.1460 N   0  0  0  0  0  0  0  0  0  0  0  0
  -30.7640  -24.0300   19.3780 O   0  0  0  0  0  0  0  0  0  0  0  0
  -28.8560  -21.7450   20.3610 H   0  0  0  0  0  0  0  0  0  0  0  0
  -28.3840  -24.1480   19.6460 C   0  0  0  0  0  2  0  0  0  0  0  0
  -28.2470  -25.3090   20.6590 C   0  0  0  0  0  2  0  0  0  0  0  0
  -28.3400  -26.6110   20.0660 O   0  0  0  0  0  0  0  0  0  0  0  0
  -24.5030  -31.7170   23.1910 C   0  0  0  0  0  0  0  0  0  0  0  0
  -27.1680  -27.3320   20.0660 C   0  0  0  0  0  0  0  0  0  0  0  0
  -23.3030  -30.3370   21.5240 C   0  0  0  0  0  3  0  0  0  0  0  0
  -24.7660  -28.8150   20.0890 C   0  0  0  0  0  0  0  0  0  0  0  0
  -25.8270  -30.7050   21.3370 C   0  0  0  0  0  2  0  0  0  0  0  0
  -25.9200  -29.3420   20.6840 C   0  0  0  0  0  0  0  0  0  0  0  0
  -27.1260  -28.6090   20.6680 C   0  0  0  0  0  3  0  0  0  0  0  0
  -26.0010  -26.8120   19.4690 C   0  0  0  0  0  3  0  0  0  0  0  0
  -24.8000  -27.5480   19.4800 C   0  0  0  0  0  3  0  0  0  0  0  0
  -23.5190  -29.6700   20.1370 C   0  0  0  0  0  2  0  0  0  0  0  0
  -24.5630  -30.9320   22.0780 N   0  0  0  0  0  0  0  0  0  0  0  0
  -23.4200  -31.9820   23.7300 O   0  0  0  0  0  0  0  0  0  0  0  0
  -22.6460  -29.3050   22.4670 C   0  0  0  0  0  0  0  0  0  0  0  0
  -21.3270  -29.1140   22.3170 N   0  0  0  0  0  0  0  0  0  0  0  0
  -23.3230  -28.6780   23.2870 O   0  0  0  0  0  0  0  0  0  0  0  0
  -20.8410  -29.6730   21.6300 H   0  0  0  0  0  0  0  0  0  0  0  0
  -17.9560  -27.8850   22.7390 C   0  0  0  0  0  0  0  0  0  0  0  0
  -20.5040  -28.1650   23.0680 C   0  0  0  0  0  3  0  0  0  0  0  0
  -20.6350  -26.7370   22.4890 C   0  0  0  0  0  2  0  0  0  0  0  0
  -19.5580  -26.4080   21.4490 C   0  0  0  0  0  2  0  0  0  0  0  0
  -18.1620  -26.5380   22.0640 C   0  0  0  0  0  2  0  0  0  0  0  0
  -19.0590  -28.6550   23.1950 C   0  0  0  0  0  0  0  0  0  0  0  0
  -18.8160  -29.9150   23.7830 C   0  0  0  0  0  3  0  0  0  0  0  0
  -17.5030  -30.4040   23.9200 C   0  0  0  0  0  3  0  0  0  0  0  0
  -16.4150  -29.6310   23.4810 C   0  0  0  0  0  3  0  0  0  0  0  0
  -16.6430  -28.3720   22.8960 C   0  0  0  0  0  3  0  0  0  0  0  0
  -25.7870  -32.3370   23.8260 C   0  0  0  0  0  3  0  0  0  0  0  0
  -25.4870  -33.7370   24.1550 N   0  0  0  0  0  0  0  0  0  0  0  0
  -25.8460  -34.7880   23.4050 C   0  0  0  0  0  0  0  0  0  0  0  0
  -26.5370  -34.6790   22.3880 O   0  0  0  0  0  0  0  0  0  0  0  0
  -24.8760  -33.8950   24.9440 H   0  0  0  0  0  0  0  0  0  0  0  0
  -24.1540  -36.6050   23.0040 C   0  0  0  0  0  1  0  0  0  0  0  0
  -25.3620  -36.1800   23.8540 C   0  0  0  0  0  3  0  0  0  0  0  0
  -27.4760  -37.0340   24.7640 C   0  0  0  0  0  1  0  0  0  0  0  0
  -26.4120  -37.2190   23.7820 N   0  0  0  0  0  0  0  0  0  0  0  0
  -26.0120  -38.1440   23.9180 H   0  0  0  0  0  0  0  0  0  0  0  0
  -26.2890  -31.5560   25.1010 C   0  0  1  0  0  0  0  0  0  0  0  0
  -25.1850  -31.3160   26.1570 C   0  0  0  0  0  1  0  0  0  0  0  0
  -26.8670  -30.1770   24.7020 C   0  0  0  0  0  1  0  0  0  0  0  0
  -27.4380  -32.3390   25.7800 C   0  0  0  0  0  1  0  0  0  0  0  0
  -30.2330  -17.7300   21.5710 C   0  0  0  0  0  2  0  0  0  0  0  0
  -30.1920  -16.8010   20.3320 C   0  0  0  0  0  2  0  0  0  0  0  0
  -30.8390  -14.3770   20.1730 C   0  0  0  0  0  0  0  0  0  0  0  0
  -30.4910  -12.2300   19.0190 C   0  0  0  0  0  2  0  0  0  0  0  0
  -29.5110  -12.4900   17.8550 C   0  0  0  0  0  2  0  0  0  0  0  0
  -28.0440  -12.3960   18.3270 C   0  0  0  0  0  2  0  0  0  0  0  0
  -27.7740  -13.1980   19.6300 C   0  0  0  0  0  3  0  0  0  0  0  0
  -28.8640  -12.9060   20.6890 C   0  0  0  0  0  2  0  0  0  0  0  0
  -30.1770  -13.1940   20.0840 N   0  0  0  0  0  0  0  0  0  0  0  0
  -31.9370  -14.5850   19.6500 O   0  0  0  0  0  0  0  0  0  0  0  0
  -30.0990  -15.3760   20.6840 N   0  0  0  0  0  0  0  0  0  0  0  0
  -29.2310  -15.0800   21.1060 H   0  0  0  0  0  0  0  0  0  0  0  0
  -25.4130  -13.8510   20.4220 C   0  0  0  0  0  0  0  0  0  0  0  0
  -24.3420  -13.0980   20.8240 C   0  0  0  0  0  0  0  0  0  0  0  0
  -24.7720  -11.7370   20.7610 C   0  0  0  0  0  0  0  0  0  0  0  0
  -26.4320  -12.9490   20.1480 N   0  0  0  0  0  0  0  0  0  0  0  0
  -26.0490  -11.6720   20.4070 N   0  0  0  0  0  0  0  0  0  0  0  0
  -24.0250  -10.4890   20.9670 C   0  0  0  0  0  0  0  0  0  0  0  0
  -24.4430   -9.5280   21.9150 C   0  0  0  0  0  3  0  0  0  0  0  0
  -23.7020   -8.3430   22.1050 C   0  0  0  0  0  3  0  0  0  0  0  0
  -22.5270   -8.1110   21.3510 C   0  0  0  0  0  0  0  0  0  0  0  0
  -22.1260   -9.0610   20.3950 C   0  0  0  0  0  3  0  0  0  0  0  0
  -22.8700  -10.2380   20.2010 C   0  0  0  0  0  3  0  0  0  0  0  0
  -21.7560   -6.9780   21.4530 O   0  0  0  0  0  0  0  0  0  0  0  0
  -21.6600   -6.2750   22.6260 C   0  0  0  0  0  0  0  0  0  0  0  0
  -21.1730   -6.8680   23.8120 C   0  0  0  0  0  3  0  0  0  0  0  0
  -21.0260   -6.0920   24.9780 C   0  0  0  0  0  3  0  0  0  0  0  0
  -21.3530   -4.7220   24.9590 C   0  0  0  0  0  0  0  0  0  0  0  0
  -21.8330   -4.1280   23.7770 C   0  0  0  0  0  3  0  0  0  0  0  0
  -21.9820   -4.9040   22.6140 C   0  0  0  0  0  0  0  0  0  0  0  0
  -22.4230   -4.3230   21.4720 F   0  0  0  0  0  0  0  0  0  0  0  0
  -21.2040   -3.9730   26.0760 F   0  0  0  0  0  0  0  0  0  0  0  0
  -22.9670  -13.6010   21.1540 C   0  0  0  0  0  0  0  0  0  0  0  0
  -22.2570  -12.9090   22.0390 N   0  0  0  0  0  0  0  0  0  0  0  0
  -22.5310  -14.6420   20.6630 O   0  0  0  0  0  0  0  0  0  0  0  0
  -22.6210  -12.0680   22.4610 H   0  0  0  0  0  0  0  0  0  0  0  0
  -21.3350  -13.2290   22.3010 H   0  0  0  0  0  0  0  0  0  0  0  0
  -25.5970  -15.2190   20.2480 N   0  0  0  0  0  0  0  0  0  0  0  0
  -24.8390  -15.8800   20.3800 H   0  0  0  0  0  0  0  0  0  0  0  0
  -26.4320  -15.6460   19.8690 H   0  0  0  0  0  0  0  0  0  0  0  0
  1  6  2  0
  1  2  1  0
  3  2  1  0
  4  5  1  0
  4  7  1  0
  5 11  1  0
  5  1  1  0
  6  8  1  0
  7 57  1  0
  7  3  1  0
  7  9  1  6
 10 11  1  0
 11 13  1  0
 12 10  2  0
 14 10  1  0
 14 15  1  0
 16 18  1  0
 16 15  1  0
 17 28  2  0
 18 23  1  0
 19 27  1  0
 19 29  1  0
 20 26  1  0
 20 22  1  0
 21 27  1  0
 22 21  1  0
 23 22  2  0
 24 25  1  0
 24 18  2  0
 25 20  2  0
 26 19  1  0
 27 17  1  0
 29 31  2  0
 30 29  1  0
 32 30  1  0
 33 42  2  0
 33 38  1  0
 34 30  1  0
 34 38  1  0
 35 34  1  0
 36 37  1  0
 36 35  1  0
 37 33  1  0
 38 39  2  0
 39 40  1  0
 41 40  2  0
 42 41  1  0
 43 17  1  0
 43 44  1  0
 43 53  1  0
 44 47  1  0
 45 49  1  0
 45 44  1  0
 46 45  2  0
 49 48  1  0
 51 49  1  0
 51 52  1  0
 51 50  1  0
 53 56  1  1
 53 54  1  0
 55 53  1  0
 58 67  1  0
 58 57  1  0
 59 67  1  0
 60 65  1  0
 61 62  1  0
 61 60  1  0
 63 62  1  0
 63 72  1  0
 63 64  1  0
 65 59  1  0
 65 64  1  0
 66 59  2  0
 67 68  1  0
 69 70  2  0
 70 89  1  0
 71 70  1  0
 71 74  1  0
 72 73  1  0
 72 69  1  0
 73 71  2  0
 74 75  1  0
 75 76  2  0
 77 80  1  0
 77 76  1  0
 78 77  2  0
 79 78  1  0
 79 74  2  0
 80 81  1  0
 81 82  1  0
 82 83  2  0
 84 83  1  0
 84 88  1  0
 85 84  2  0
 86 81  2  0
 86 85  1  0
 87 86  1  0
 89 90  1  0
 90 93  1  0
 90 92  1  0
 91 89  2  0
 94 95  1  0
 94 69  1  0
 96 94  1  0
M  ISO  4  15 101  16 101  59 100  67 100
M  END
>  <TORSDO>  (5) 
F 21

>  <SCORE>  (5) 
-11.965

>  <name>  (5) 
4

>  <ligand_id>  (5) 
4

>  <original_smiles>  (5) 
[H]N=C1C([H])([H])C([H])([H])[N+]([H])(C([H])([H])C([H])([H])N([H])C(=O)N2C([H])([H])C([H])([H])C([H])([H])C([H])(n3nc(-c4c([H])c([H])c(Oc5c([H])c([H])c(F)c([H])c5F)c([H])c4[H])c(C(=O)N([H])[H])c3N([H])[H])C2([H])[H])C([H])([H])C1([H])N([H])C(=O)C([H])([H])C([H])([H])Oc1c([H])c([H])c2c(c1[H])C([H])([H])N(C(=O)C([H])(N([H])C(=O)C([H])(N([H])C([H])([H])[H])C([H])([H])[H])C(C([H])([H])[H])(C([H])([H])[H])C([H])([H])[H])C([H])(C(=O)N([H])C1([H])c3c([H])c([H])c([H])c([H])c3C([H])([H])C([H])([H])C1([H])[H])C2([H])[H]

>  <smiles>  (5) 
[H]N=C1C([H])([H])C([H])([H])[N+]([H])(C([H])([H])C([H])([H])N([H])C(=O)N2C([H])([H])C([H])([H])C([H])([H])C([H])(n3nc(-c4c([H])c([H])c(Oc5c([H])c([H])c(F)c([H])c5F)c([H])c4[H])c(C(=O)N([H])[H])c3N([H])[H])C2([H])[H])C([H])([H])C1([H])N([H])C(=O)C([H])([H])C([H])([H])Oc1c([H])c([H])c2c(c1[H])C([H])([H])N(C(=O)C([H])(N([H])C(=O)C([H])(N([H])C([H])([H])[H])C([H])([H])[H])C(C([H])([H])[H])(C([H])([H])[H])C([H])([H])[H])C([H])(C(=O)N([H])C1([H])c3c([H])c([H])c([H])c([H])c3C([H])([H])C([H])([H])C1([H])[H])C2([H])[H]

$$$$
5:0:0
     RDKit          3D

 95103  0  0  1  0  0  0  0  0999 V2000
  -29.4180  -20.1780   20.6980 C   0  0  0  0  0  2  0  0  0  0  0  0
  -31.7190  -17.6030   18.8070 C   0  0  0  0  0  3  0  0  0  0  0  0
  -30.8620  -20.2460   18.6120 C   0  0  0  0  0  3  0  0  0  0  0  0
  -30.8080  -18.0800   19.7850 C   0  0  0  0  0  0  0  0  0  0  0  0
  -30.3810  -19.4670   19.7000 C   0  0  0  0  0  0  0  0  0  0  0  0
  -32.2020  -18.4130   17.7670 C   0  0  0  0  0  0  0  0  0  0  0  0
  -31.7630  -19.7400   17.6660 C   0  0  0  0  0  0  0  0  0  0  0  0
  -33.0960  -17.9240   16.8750 F   0  0  0  0  0  0  0  0  0  0  0  0
  -32.2160  -20.5370   16.6690 F   0  0  0  0  0  0  0  0  0  0  0  0
  -30.4470  -17.0940   20.9390 C   0  0  0  0  0  2  0  0  0  0  0  0
  -30.6930  -14.5750   20.4300 C   0  0  0  0  0  0  0  0  0  0  0  0
  -30.3640  -12.3830   19.3360 C   0  0  0  0  0  2  0  0  0  0  0  0
  -29.4190  -12.5320   18.1260 C   0  0  0  0  0  2  0  0  0  0  0  0
  -27.9510  -12.3870   18.5740 C   0  0  0  0  0  2  0  0  0  0  0  0
  -27.6040  -13.2700   19.8020 C   0  0  0  0  0  3  0  0  0  0  0  0
  -28.6690  -13.1290   20.9120 C   0  0  0  0  0  2  0  0  0  0  0  0
  -29.9820  -13.4150   20.3120 N   0  0  0  0  0  0  0  0  0  0  0  0
  -31.8940  -14.6310   20.1690 O   0  0  0  0  0  0  0  0  0  0  0  0
  -29.9770  -15.7100   20.6310 N   0  0  0  0  0  0  0  0  0  0  0  0
  -28.9810  -15.5700   20.7180 H   0  0  0  0  0  0  0  0  0  0  0  0
  -25.2100  -13.8910   20.4970 C   0  0  0  0  0  0  0  0  0  0  0  0
  -24.1370  -13.1270   20.8620 C   0  0  0  0  0  0  0  0  0  0  0  0
  -24.5940  -11.7720   20.8540 C   0  0  0  0  0  0  0  0  0  0  0  0
  -26.2540  -13.0040   20.2890 N   0  0  0  0  0  0  0  0  0  0  0  0
  -25.8890  -11.7270   20.5620 N   0  0  0  0  0  0  0  0  0  0  0  0
  -23.8590  -10.5140   21.0450 C   0  0  0  0  0  0  0  0  0  0  0  0
  -24.2870   -9.5450   21.9800 C   0  0  0  0  0  3  0  0  0  0  0  0
  -23.5540   -8.3520   22.1610 C   0  0  0  0  0  3  0  0  0  0  0  0
  -22.3780   -8.1210   21.4100 C   0  0  0  0  0  0  0  0  0  0  0  0
  -21.9680   -9.0780   20.4650 C   0  0  0  0  0  3  0  0  0  0  0  0
  -22.7010  -10.2630   20.2810 C   0  0  0  0  0  3  0  0  0  0  0  0
  -21.6150   -6.9820   21.5010 O   0  0  0  0  0  0  0  0  0  0  0  0
  -21.5770   -6.2320   22.6480 C   0  0  0  0  0  0  0  0  0  0  0  0
  -21.1900   -6.7860   23.8880 C   0  0  0  0  0  3  0  0  0  0  0  0
  -21.0980   -5.9630   25.0290 C   0  0  0  0  0  3  0  0  0  0  0  0
  -21.3820   -4.5880   24.9310 C   0  0  0  0  0  0  0  0  0  0  0  0
  -21.7630   -4.0350   23.6970 C   0  0  0  0  0  3  0  0  0  0  0  0
  -21.8580   -4.8540   22.5580 C   0  0  0  0  0  0  0  0  0  0  0  0
  -22.2040   -4.3110   21.3660 F   0  0  0  0  0  0  0  0  0  0  0  0
  -21.2880   -3.7960   26.0240 F   0  0  0  0  0  0  0  0  0  0  0  0
  -22.7380  -13.6100   21.1160 C   0  0  0  0  0  0  0  0  0  0  0  0
  -21.9980  -12.9270   21.9810 N   0  0  0  0  0  0  0  0  0  0  0  0
  -22.3080  -14.6310   20.5770 O   0  0  0  0  0  0  0  0  0  0  0  0
  -22.3580  -12.1030   22.4390 H   0  0  0  0  0  0  0  0  0  0  0  0
  -21.0590  -13.2340   22.1920 H   0  0  0  0  0  0  0  0  0  0  0  0
  -25.3780  -15.2620   20.3040 N   0  0  0  0  0  0  0  0  0  0  0  0
  -24.6020  -15.9110   20.3770 H   0  0  0  0  0  0  0  0  0  0  0  0
  -26.2280  -15.6980   19.9710 H   0  0  0  0  0  0  0  0  0  0  0  0
  -29.6560  -21.6390   20.9950 N   0  0  0  0  0  4  0  0  0  0  0  0
  -30.6440  -21.8220   21.0220 H   0  0  0  0  0  0  0  0  0  0  0  0
  -29.3230  -21.7560   21.9390 H   0  0  0  0  0  0  0  0  0  0  0  0
  -28.9090  -22.6750   20.2000 C   0  0  0  0  0  2  0  0  0  0  0  0
  -29.1960  -24.1770   20.5800 C   0  0  0  0  0  2  0  0  0  0  0  0
  -28.1940  -25.1720   19.9100 C   0  0  0  0  0  2  0  0  0  0  0  0
  -28.3330  -26.5900   20.2180 O   0  0  0  0  0  0  0  0  0  0  0  0
  -24.5880  -31.8910   23.2460 C   0  0  0  0  0  0  0  0  0  0  0  0
  -27.1870  -27.3830   20.1580 C   0  0  0  0  0  0  0  0  0  0  0  0
  -23.3730  -30.4950   21.6110 C   0  0  0  0  0  3  0  0  0  0  0  0
  -24.8110  -28.9500   20.1760 C   0  0  0  0  0  0  0  0  0  0  0  0
  -25.9050  -30.8250   21.4100 C   0  0  0  0  0  2  0  0  0  0  0  0
  -25.9790  -29.4510   20.7640 C   0  0  0  0  0  0  0  0  0  0  0  0
  -27.1700  -28.6760   20.7480 C   0  0  0  0  0  3  0  0  0  0  0  0
  -25.9970  -26.9300   19.5380 C   0  0  0  0  0  3  0  0  0  0  0  0
  -24.8150  -27.6930   19.5610 C   0  0  0  0  0  3  0  0  0  0  0  0
  -23.5720  -29.8160   20.2320 C   0  0  0  0  0  2  0  0  0  0  0  0
  -24.6410  -31.0860   22.1470 N   0  0  0  0  0  0  0  0  0  0  0  0
  -23.5090  -32.1690   23.7860 O   0  0  0  0  0  0  0  0  0  0  0  0
  -22.7170  -29.4750   22.5720 C   0  0  0  0  0  0  0  0  0  0  0  0
  -21.3920  -29.2980   22.4450 N   0  0  0  0  0  0  0  0  0  0  0  0
  -23.3990  -28.8480   23.3870 O   0  0  0  0  0  0  0  0  0  0  0  0
  -20.9020  -29.8600   21.7640 H   0  0  0  0  0  0  0  0  0  0  0  0
  -18.0150  -28.1050   22.9440 C   0  0  0  0  0  0  0  0  0  0  0  0
  -20.5710  -28.3620   23.2170 C   0  0  0  0  0  3  0  0  0  0  0  0
  -20.6700  -26.9280   22.6450 C   0  0  0  0  0  2  0  0  0  0  0  0
  -19.5680  -26.6040   21.6290 C   0  0  0  0  0  2  0  0  0  0  0  0
  -18.1880  -26.7540   22.2720 C   0  0  0  0  0  2  0  0  0  0  0  0
  -19.1330  -28.8670   23.3730 C   0  0  0  0  0  0  0  0  0  0  0  0
  -18.9160  -30.1330   23.9570 C   0  0  0  0  0  3  0  0  0  0  0  0
  -17.6110  -30.6370   24.1180 C   0  0  0  0  0  3  0  0  0  0  0  0
  -16.5060  -29.8730   23.7070 C   0  0  0  0  0  3  0  0  0  0  0  0
  -16.7100  -28.6080   23.1260 C   0  0  0  0  0  3  0  0  0  0  0  0
  -25.8760  -32.5150   23.8650 C   0  0  0  0  0  3  0  0  0  0  0  0
  -25.5740  -33.9140   24.1960 N   0  0  0  0  0  0  0  0  0  0  0  0
  -25.9070  -34.9660   23.4340 C   0  0  0  0  0  0  0  0  0  0  0  0
  -26.5740  -34.8600   22.4010 O   0  0  0  0  0  0  0  0  0  0  0  0
  -24.9780  -34.0700   24.9960 H   0  0  0  0  0  0  0  0  0  0  0  0
  -24.1820  -36.7650   23.0880 C   0  0  0  0  0  1  0  0  0  0  0  0
  -25.4280  -36.3570   23.8910 C   0  0  0  0  0  3  0  0  0  0  0  0
  -27.5730  -37.2320   24.7040 C   0  0  0  0  0  1  0  0  0  0  0  0
  -26.4630  -37.4080   23.7710 N   0  0  0  0  0  0  0  0  0  0  0  0
  -26.0600  -38.3280   23.9270 H   0  0  0  0  0  0  0  0  0  0  0  0
  -26.3940  -31.7410   25.1390 C   0  0  1  0  0  0  0  0  0  0  0  0
  -25.3070  -31.5050   26.2140 C   0  0  0  0  0  1  0  0  0  0  0  0
  -26.9690  -30.3630   24.7400 C   0  0  0  0  0  1  0  0  0  0  0  0
  -27.5530  -32.5340   25.7920 C   0  0  0  0  0  1  0  0  0  0  0  0
  1 49  1  0
  2  4  1  0
  3  5  1  0
  4 10  1  0
  5  4  2  0
  5  1  1  0
  6  2  2  0
  7  6  1  0
  7  3  2  0
  8  6  1  0
  9  7  1  0
 11 19  1  0
 12 17  1  0
 13 14  1  0
 13 12  1  0
 15 14  1  0
 15 24  1  0
 15 16  1  0
 17 11  1  0
 17 16  1  0
 18 11  2  0
 19 20  1  0
 19 10  1  0
 21 22  2  0
 22 41  1  0
 23 22  1  0
 23 26  1  0
 24 21  1  0
 24 25  1  0
 25 23  2  0
 26 27  1  0
 27 28  2  0
 29 32  1  0
 29 28  1  0
 30 29  2  0
 31 30  1  0
 31 26  2  0
 32 33  1  0
 33 34  1  0
 34 35  2  0
 36 35  1  0
 36 40  1  0
 37 36  2  0
 38 33  2  0
 38 37  1  0
 39 38  1  0
 41 42  1  0
 42 45  1  0
 42 44  1  0
 43 41  2  0
 46 47  1  0
 46 21  1  0
 48 46  1  0
 49 50  1  0
 49 51  1  0
 52 53  1  0
 52 49  1  0
 54 55  1  0
 54 53  1  0
 56 67  2  0
 57 55  1  0
 57 62  1  0
 58 66  1  0
 58 68  1  0
 59 65  1  0
 59 61  1  0
 60 66  1  0
 61 60  1  0
 62 61  2  0
 63 64  1  0
 63 57  2  0
 64 59  2  0
 65 58  1  0
 66 56  1  0
 68 70  2  0
 69 68  1  0
 71 69  1  0
 72 81  2  0
 72 77  1  0
 73 69  1  0
 73 77  1  0
 74 73  1  0
 75 76  1  0
 75 74  1  0
 76 72  1  0
 77 78  2  0
 78 79  1  0
 80 79  2  0
 81 80  1  0
 82 56  1  0
 82 83  1  0
 82 92  1  0
 83 86  1  0
 84 88  1  0
 84 83  1  0
 85 84  2  0
 88 87  1  0
 90 88  1  0
 90 91  1  0
 90 89  1  0
 92 95  1  1
 92 93  1  0
 94 92  1  0
M  ISO  4  11 100  19 100  54 101  55 101
M  END
>  <TORSDO>  (6) 
F 22

>  <SCORE>  (6) 
-13.160

>  <name>  (6) 
5

>  <ligand_id>  (6) 
5

>  <original_smiles>  (6) 
[H]c1c([H])c([H])c2c(c1[H])C([H])([H])C([H])([H])C([H])([H])C2([H])N([H])C(=O)C1([H])N(C(=O)C([H])(N([H])C(=O)C([H])(N([H])C([H])([H])[H])C([H])([H])[H])C(C([H])([H])[H])(C([H])([H])[H])C([H])([H])[H])C([H])([H])c2c([H])c(OC([H])([H])C([H])([H])C([H])([H])[N+]([H])([H])C([H])([H])c3c([H])c(F)c(F)c([H])c3C([H])([H])N([H])C(=O)N3C([H])([H])C([H])([H])C([H])([H])C([H])(n4nc(-c5c([H])c([H])c(Oc6c([H])c([H])c(F)c([H])c6F)c([H])c5[H])c(C(=O)N([H])[H])c4N([H])[H])C3([H])[H])c([H])c([H])c2C1([H])[H]

>  <smiles>  (6) 
[H]c1c([H])c([H])c2c(c1[H])C([H])([H])C([H])([H])C([H])([H])C2([H])N([H])C(=O)C1([H])N(C(=O)C([H])(N([H])C(=O)C([H])(N([H])C([H])([H])[H])C([H])([H])[H])C(C([H])([H])[H])(C([H])([H])[H])C([H])([H])[H])C([H])([H])c2c([H])c(OC([H])([H])C([H])([H])C([H])([H])[N+]([H])([H])C([H])([H])c3c([H])c(F)c(F)c([H])c3C([H])([H])N([H])C(=O)N3C([H])([H])C([H])([H])C([H])([H])C([H])(n4nc(-c5c([H])c([H])c(Oc6c([H])c([H])c(F)c([H])c6F)c([H])c5[H])c(C(=O)N([H])[H])c4N([H])[H])C3([H])[H])c([H])c([H])c2C1([H])[H]

$$$$
7:0:0
     RDKit          3D

 93101  0  0  1  0  0  0  0  0999 V2000
  -28.7650  -24.0620   20.3880 C   0  0  0  0  0  0  0  0  0  0  0  0
  -28.8490  -22.8610   19.8720 N   0  0  0  0  0  2  0  0  0  0  0  0
  -28.9100  -24.3970   21.7160 N   0  0  0  0  0  4  0  0  0  0  0  0
  -28.8500  -25.3570   22.0360 H   0  0  0  0  0  0  0  0  0  0  0  0
  -29.0770  -23.7620   22.4830 H   0  0  0  0  0  0  0  0  0  0  0  0
  -28.5320  -25.3230   19.4890 C   0  0  0  0  0  2  0  0  0  0  0  0
  -28.3910  -26.6120   20.1780 O   0  0  0  0  0  0  0  0  0  0  0  0
  -24.6000  -31.8800   23.2290 C   0  0  0  0  0  0  0  0  0  0  0  0
  -27.2190  -27.3710   20.1360 C   0  0  0  0  0  0  0  0  0  0  0  0
  -23.3890  -30.4800   21.5930 C   0  0  0  0  0  3  0  0  0  0  0  0
  -24.8340  -28.9410   20.1570 C   0  0  0  0  0  0  0  0  0  0  0  0
  -25.9220  -30.8190   21.3900 C   0  0  0  0  0  2  0  0  0  0  0  0
  -26.0010  -29.4440   20.7430 C   0  0  0  0  0  0  0  0  0  0  0  0
  -27.1920  -28.6680   20.7260 C   0  0  0  0  0  3  0  0  0  0  0  0
  -26.0190  -26.9000   19.5520 C   0  0  0  0  0  3  0  0  0  0  0  0
  -24.8430  -27.6720   19.5580 C   0  0  0  0  0  3  0  0  0  0  0  0
  -23.5940  -29.8070   20.2110 C   0  0  0  0  0  2  0  0  0  0  0  0
  -24.6560  -31.0760   22.1280 N   0  0  0  0  0  0  0  0  0  0  0  0
  -23.5200  -32.1540   23.7710 O   0  0  0  0  0  0  0  0  0  0  0  0
  -22.7390  -29.4590   22.5550 C   0  0  0  0  0  0  0  0  0  0  0  0
  -21.4130  -29.2790   22.4350 N   0  0  0  0  0  0  0  0  0  0  0  0
  -23.4250  -28.8320   23.3660 O   0  0  0  0  0  0  0  0  0  0  0  0
  -20.9200  -29.8370   21.7530 H   0  0  0  0  0  0  0  0  0  0  0  0
  -18.0400  -28.0840   22.9510 C   0  0  0  0  0  0  0  0  0  0  0  0
  -20.6000  -28.3400   23.2080 C   0  0  0  0  0  3  0  0  0  0  0  0
  -20.6970  -26.9100   22.6280 C   0  0  0  0  0  2  0  0  0  0  0  0
  -19.5890  -26.5910   21.6190 C   0  0  0  0  0  2  0  0  0  0  0  0
  -18.2110  -26.7360   22.2720 C   0  0  0  0  0  2  0  0  0  0  0  0
  -19.1620  -28.8440   23.3770 C   0  0  0  0  0  0  0  0  0  0  0  0
  -18.9480  -30.1060   23.9710 C   0  0  0  0  0  3  0  0  0  0  0  0
  -17.6450  -30.6090   24.1460 C   0  0  0  0  0  3  0  0  0  0  0  0
  -16.5370  -29.8450   23.7370 C   0  0  0  0  0  3  0  0  0  0  0  0
  -16.7360  -28.5860   23.1460 C   0  0  0  0  0  3  0  0  0  0  0  0
  -25.8860  -32.5140   23.8440 C   0  0  0  0  0  3  0  0  0  0  0  0
  -26.4110  -31.7420   25.1160 C   0  0  1  0  0  0  0  0  0  0  0  0
  -25.3240  -31.5010   26.1890 C   0  0  0  0  0  1  0  0  0  0  0  0
  -26.9940  -30.3660   24.7180 C   0  0  0  0  0  1  0  0  0  0  0  0
  -27.5640  -32.5370   25.7740 C   0  0  0  0  0  1  0  0  0  0  0  0
  -25.5760  -33.9110   24.1770 N   0  0  0  0  0  0  0  0  0  0  0  0
  -25.9080  -34.9660   23.4200 C   0  0  0  0  0  0  0  0  0  0  0  0
  -26.5760  -34.8650   22.3880 O   0  0  0  0  0  0  0  0  0  0  0  0
  -24.9830  -34.0630   24.9800 H   0  0  0  0  0  0  0  0  0  0  0  0
  -24.1790  -36.7580   23.0700 C   0  0  0  0  0  1  0  0  0  0  0  0
  -25.4190  -36.3520   23.8810 C   0  0  0  0  0  3  0  0  0  0  0  0
  -27.5530  -37.2350   24.7170 C   0  0  0  0  0  1  0  0  0  0  0  0
  -26.4530  -37.4060   23.7720 N   0  0  0  0  0  0  0  0  0  0  0  0
  -26.0460  -38.3260   23.9210 H   0  0  0  0  0  0  0  0  0  0  0  0
  -29.1860  -21.6810   20.7160 C   0  0  0  0  0  2  0  0  0  0  0  0
  -28.9970  -20.2950   19.9780 C   0  0  0  0  0  2  0  0  0  0  0  0
  -30.7280  -14.6260   20.3100 C   0  0  0  0  0  0  0  0  0  0  0  0
  -30.4560  -12.4030   19.2580 C   0  0  0  0  0  2  0  0  0  0  0  0
  -29.5200  -12.5420   18.0390 C   0  0  0  0  0  2  0  0  0  0  0  0
  -28.0450  -12.4050   18.4670 C   0  0  0  0  0  2  0  0  0  0  0  0
  -27.6930  -13.2700   19.7080 C   0  0  0  0  0  3  0  0  0  0  0  0
  -28.7520  -13.1100   20.8210 C   0  0  0  0  0  2  0  0  0  0  0  0
  -30.0520  -13.4390   20.2290 N   0  0  0  0  0  0  0  0  0  0  0  0
  -31.9320  -14.6700   20.0390 O   0  0  0  0  0  0  0  0  0  0  0  0
  -31.1270  -17.8770   19.1520 C   0  0  0  0  0  2  0  0  0  0  0  0
  -30.2830  -16.5950   18.9000 C   0  0  0  0  0  2  0  0  0  0  0  0
  -29.1060  -16.4570   21.0850 C   0  0  0  0  0  2  0  0  0  0  0  0
  -30.8870  -18.6790   20.4580 C   0  0  0  0  0  2  0  0  0  0  0  0
  -28.5300  -17.8900   20.7090 C   0  0  0  0  0  2  0  0  0  0  0  0
  -29.9890  -15.7730   20.0940 N   0  0  0  0  0  0  0  0  0  0  0  0
  -29.4740  -19.0630   20.7240 N   0  0  2  0  0  4  0  0  0  0  0  0
  -29.4770  -19.3550   21.6910 H   0  0  0  0  0  0  0  0  0  0  0  0
  -25.2990  -13.8820   20.4070 C   0  0  0  0  0  0  0  0  0  0  0  0
  -24.2300  -13.1150   20.7820 C   0  0  0  0  0  0  0  0  0  0  0  0
  -24.6900  -11.7630   20.7700 C   0  0  0  0  0  0  0  0  0  0  0  0
  -26.3430  -12.9970   20.1920 N   0  0  0  0  0  0  0  0  0  0  0  0
  -25.9820  -11.7180   20.4710 N   0  0  0  0  0  0  0  0  0  0  0  0
  -23.9610  -10.5030   20.9700 C   0  0  0  0  0  0  0  0  0  0  0  0
  -24.3850   -9.5460   21.9180 C   0  0  0  0  0  3  0  0  0  0  0  0
  -23.6570   -8.3530   22.1050 C   0  0  0  0  0  3  0  0  0  0  0  0
  -22.4890   -8.1070   21.3420 C   0  0  0  0  0  0  0  0  0  0  0  0
  -22.0850   -9.0530   20.3830 C   0  0  0  0  0  3  0  0  0  0  0  0
  -22.8150  -10.2370   20.1940 C   0  0  0  0  0  3  0  0  0  0  0  0
  -21.7330   -6.9640   21.4370 O   0  0  0  0  0  0  0  0  0  0  0  0
  -21.6660   -6.2400   22.6010 C   0  0  0  0  0  0  0  0  0  0  0  0
  -21.2250   -6.8150   23.8120 C   0  0  0  0  0  3  0  0  0  0  0  0
  -21.1060   -6.0180   24.9680 C   0  0  0  0  0  3  0  0  0  0  0  0
  -21.4160   -4.6460   24.9130 C   0  0  0  0  0  0  0  0  0  0  0  0
  -21.8500   -4.0700   23.7060 C   0  0  0  0  0  3  0  0  0  0  0  0
  -21.9720   -4.8640   22.5520 C   0  0  0  0  0  0  0  0  0  0  0  0
  -22.3700   -4.3010   21.3870 F   0  0  0  0  0  0  0  0  0  0  0  0
  -21.2950   -3.8780   26.0210 F   0  0  0  0  0  0  0  0  0  0  0  0
  -22.8310  -13.5970   21.0370 C   0  0  0  0  0  0  0  0  0  0  0  0
  -22.0980  -12.9150   21.9080 N   0  0  0  0  0  0  0  0  0  0  0  0
  -22.3980  -14.6150   20.4980 O   0  0  0  0  0  0  0  0  0  0  0  0
  -22.4610  -12.0930   22.3670 H   0  0  0  0  0  0  0  0  0  0  0  0
  -21.1580  -13.2200   22.1220 H   0  0  0  0  0  0  0  0  0  0  0  0
  -25.4650  -15.2480   20.2060 N   0  0  0  0  0  0  0  0  0  0  0  0
  -24.6840  -15.8930   20.2670 H   0  0  0  0  0  0  0  0  0  0  0  0
  -26.2880  -15.6590   19.7850 H   0  0  0  0  0  0  0  0  0  0  0  0
  1  3  2  0
  2  1  1  0
  2 48  1  0
  3  4  1  0
  3  5  1  0
  6  7  1  0
  6  1  1  0
  8 19  2  0
  9  7  1  0
  9 14  1  0
 10 18  1  0
 10 20  1  0
 11 17  1  0
 11 13  1  0
 12 18  1  0
 13 12  1  0
 14 13  2  0
 15 16  1  0
 15  9  2  0
 16 11  2  0
 17 10  1  0
 18  8  1  0
 20 22  2  0
 21 20  1  0
 23 21  1  0
 24 33  2  0
 24 29  1  0
 25 21  1  0
 25 29  1  0
 26 25  1  0
 27 28  1  0
 27 26  1  0
 28 24  1  0
 29 30  2  0
 30 31  1  0
 32 31  2  0
 33 32  1  0
 34  8  1  0
 34 39  1  0
 34 35  1  0
 35 38  1  1
 35 36  1  0
 37 35  1  0
 39 42  1  0
 40 44  1  0
 40 39  1  0
 41 40  2  0
 44 43  1  0
 46 44  1  0
 46 47  1  0
 46 45  1  0
 49 48  1  0
 49 64  1  0
 51 56  1  0
 52 53  1  0
 52 51  1  0
 54 53  1  0
 54 69  1  0
 54 55  1  0
 56 50  1  0
 56 55  1  0
 57 50  2  0
 58 61  1  0
 59 58  1  0
 59 63  1  0
 61 64  1  0
 62 64  1  0
 62 60  1  0
 63 50  1  0
 63 60  1  0
 64 65  1  1
 66 67  2  0
 67 86  1  0
 68 67  1  0
 68 71  1  0
 69 66  1  0
 69 70  1  0
 70 68  2  0
 71 72  1  0
 72 73  2  0
 74 77  1  0
 74 73  1  0
 75 74  2  0
 76 75  1  0
 76 71  2  0
 77 78  1  0
 78 79  1  0
 79 80  2  0
 81 80  1  0
 81 85  1  0
 82 81  2  0
 83 78  2  0
 83 82  1  0
 84 83  1  0
 86 87  1  0
 87 90  1  0
 87 89  1  0
 88 86  2  0
 91 92  1  0
 91 66  1  0
 93 91  1  0
M  ISO  4   6 101   7 101  50 100  63 100
M  END
>  <TORSDO>  (7) 
F 19

>  <SCORE>  (7) 
-14.261

>  <name>  (7) 
7

>  <ligand_id>  (7) 
7

>  <original_smiles>  (7) 
[H]c1c([H])c([H])c2c(c1[H])C([H])([H])C([H])([H])C([H])([H])C2([H])N([H])C(=O)C1([H])N(C(=O)C([H])(N([H])C(=O)C([H])(N([H])C([H])([H])[H])C([H])([H])[H])C(C([H])([H])[H])(C([H])([H])[H])C([H])([H])[H])C([H])([H])c2c([H])c(OC([H])([H])C(=NC([H])([H])C([H])([H])[N+]3([H])C([H])([H])C([H])([H])N(C(=O)N4C([H])([H])C([H])([H])C([H])([H])C([H])(n5nc(-c6c([H])c([H])c(Oc7c([H])c([H])c(F)c([H])c7F)c([H])c6[H])c(C(=O)N([H])[H])c5N([H])[H])C4([H])[H])C([H])([H])C([H])([H])C3([H])[H])N([H])[H])c([H])c([H])c2C1([H])[H]

>  <smiles>  (7) 
[H]c1c([H])c([H])c2c(c1[H])C([H])([H])C([H])([H])C([H])([H])C2([H])N([H])C(=O)C1([H])N(C(=O)C([H])(N([H])C(=O)C([H])(N([H])C([H])([H])[H])C([H])([H])[H])C(C([H])([H])[H])(C([H])([H])[H])C([H])([H])[H])C([H])([H])c2c([H])c(OC([H])([H])C(=NC([H])([H])C([H])([H])[N+]3([H])C([H])([H])C([H])([H])N(C(=O)N4C([H])([H])C([H])([H])C([H])([H])C([H])(n5nc(-c6c([H])c([H])c(Oc7c([H])c([H])c(F)c([H])c7F)c([H])c6[H])c(C(=O)N([H])[H])c5N([H])[H])C4([H])[H])C([H])([H])C([H])([H])C3([H])[H])N([H])[H])c([H])c([H])c2C1([H])[H]

$$$$
8:0:0
     RDKit          3D

 94102  0  0  1  0  0  0  0  0999 V2000
  -29.6460  -20.9600   21.1440 C   0  0  0  0  0  0  0  0  0  0  0  0
  -28.4210  -20.8290   21.2520 O   0  0  0  0  0  0  0  0  0  0  0  0
  -30.5940  -19.7580   21.3150 C   0  0  0  0  0  2  0  0  0  0  0  0
  -30.6410  -14.5240   20.0530 C   0  0  0  0  0  0  0  0  0  0  0  0
  -30.2160  -12.4220   18.8370 C   0  0  0  0  0  2  0  0  0  0  0  0
  -29.2180  -12.7200   17.7020 C   0  0  0  0  0  2  0  0  0  0  0  0
  -27.7690  -12.5880   18.2120 C   0  0  0  0  0  2  0  0  0  0  0  0
  -27.5240  -13.3550   19.5400 C   0  0  0  0  0  3  0  0  0  0  0  0
  -28.6420  -13.0640   20.5640 C   0  0  0  0  0  2  0  0  0  0  0  0
  -29.9280  -13.3700   19.9240 N   0  0  0  0  0  0  0  0  0  0  0  0
  -31.7420  -14.6800   19.5220 O   0  0  0  0  0  0  0  0  0  0  0  0
  -29.8430  -16.7310   19.5010 C   0  0  0  0  0  2  0  0  0  0  0  0
  -29.8820  -15.9810   21.8790 C   0  0  0  0  0  2  0  0  0  0  0  0
  -29.2470  -18.0260   20.0880 C   0  0  0  0  0  2  0  0  0  0  0  0
  -30.5230  -17.3720   22.1550 C   0  0  0  0  0  3  0  0  0  0  0  0
  -32.0560  -17.3040   21.9390 C   0  0  0  0  0  1  0  0  0  0  0  0
  -29.9340  -15.6050   20.4560 N   0  0  0  0  0  0  0  0  0  0  0  0
  -29.8450  -18.4660   21.3820 N   0  0  1  0  0  4  0  0  0  0  0  0
  -29.0350  -18.7190   21.9300 H   0  0  0  0  0  0  0  0  0  0  0  0
  -25.1620  -13.9450   20.3800 C   0  0  0  0  0  0  0  0  0  0  0  0
  -24.1210  -13.1640   20.7990 C   0  0  0  0  0  0  0  0  0  0  0  0
  -24.5840  -11.8130   20.7280 C   0  0  0  0  0  0  0  0  0  0  0  0
  -26.1980  -13.0700   20.0840 N   0  0  0  0  0  0  0  0  0  0  0  0
  -25.8550  -11.7840   20.3500 N   0  0  0  0  0  0  0  0  0  0  0  0
  -23.8760  -10.5450   20.9490 C   0  0  0  0  0  0  0  0  0  0  0  0
  -24.3400   -9.5900   21.8790 C   0  0  0  0  0  3  0  0  0  0  0  0
  -23.6270   -8.3880   22.0840 C   0  0  0  0  0  3  0  0  0  0  0  0
  -22.4390   -8.1320   21.3590 C   0  0  0  0  0  0  0  0  0  0  0  0
  -21.9970   -9.0760   20.4140 C   0  0  0  0  0  3  0  0  0  0  0  0
  -22.7080  -10.2700   20.2080 C   0  0  0  0  0  3  0  0  0  0  0  0
  -21.6960   -6.9820   21.4750 O   0  0  0  0  0  0  0  0  0  0  0  0
  -21.6540   -6.2680   22.6460 C   0  0  0  0  0  0  0  0  0  0  0  0
  -21.2310   -6.8510   23.8590 C   0  0  0  0  0  3  0  0  0  0  0  0
  -21.1390   -6.0630   25.0240 C   0  0  0  0  0  3  0  0  0  0  0  0
  -21.4580   -4.6930   24.9760 C   0  0  0  0  0  0  0  0  0  0  0  0
  -21.8720   -4.1080   23.7670 C   0  0  0  0  0  3  0  0  0  0  0  0
  -21.9680   -4.8920   22.6050 C   0  0  0  0  0  0  0  0  0  0  0  0
  -22.3540   -4.3210   21.4380 F   0  0  0  0  0  0  0  0  0  0  0  0
  -21.3570   -3.9360   26.0920 F   0  0  0  0  0  0  0  0  0  0  0  0
  -22.7390  -13.6310   21.1560 C   0  0  0  0  0  0  0  0  0  0  0  0
  -22.0690  -12.9240   22.0610 N   0  0  0  0  0  0  0  0  0  0  0  0
  -22.2620  -14.6540   20.6640 O   0  0  0  0  0  0  0  0  0  0  0  0
  -22.4730  -12.1000   22.4760 H   0  0  0  0  0  0  0  0  0  0  0  0
  -21.1420  -13.2150   22.3450 H   0  0  0  0  0  0  0  0  0  0  0  0
  -25.3080  -15.3190   20.2100 N   0  0  0  0  0  0  0  0  0  0  0  0
  -24.5230  -15.9460   20.3390 H   0  0  0  0  0  0  0  0  0  0  0  0
  -26.1140  -15.7700   19.7980 H   0  0  0  0  0  0  0  0  0  0  0  0
  -30.2820  -22.3270   20.8190 C   0  0  0  0  0  2  0  0  0  0  0  0
  -29.2090  -23.3390   20.6580 N   0  0  0  0  0  4  0  0  0  0  0  0
  -28.7970  -23.5000   21.5640 H   0  0  0  0  0  0  0  0  0  0  0  0
  -28.4990  -22.8930   20.0970 H   0  0  0  0  0  0  0  0  0  0  0  0
  -29.6110  -24.6390   20.0420 C   0  0  0  0  0  2  0  0  0  0  0  0
  -28.3840  -25.4650   19.5790 C   0  0  0  0  0  2  0  0  0  0  0  0
  -28.3740  -26.7980   20.1200 O   0  0  0  0  0  0  0  0  0  0  0  0
  -24.5340  -31.9340   23.2390 C   0  0  0  0  0  0  0  0  0  0  0  0
  -27.1850  -27.5080   20.1080 C   0  0  0  0  0  0  0  0  0  0  0  0
  -23.3250  -30.5310   21.6010 C   0  0  0  0  0  3  0  0  0  0  0  0
  -24.7760  -29.0070   20.1620 C   0  0  0  0  0  0  0  0  0  0  0  0
  -25.8510  -30.8940   21.3970 C   0  0  0  0  0  2  0  0  0  0  0  0
  -25.9360  -29.5270   20.7490 C   0  0  0  0  0  0  0  0  0  0  0  0
  -27.1390  -28.7820   20.7260 C   0  0  0  0  0  3  0  0  0  0  0  0
  -26.0020  -27.0150   19.5050 C   0  0  0  0  0  3  0  0  0  0  0  0
  -24.8040  -27.7490   19.5440 C   0  0  0  0  0  3  0  0  0  0  0  0
  -23.5270  -29.8580   20.2200 C   0  0  0  0  0  2  0  0  0  0  0  0
  -24.5860  -31.1350   22.1360 N   0  0  0  0  0  0  0  0  0  0  0  0
  -23.4550  -32.2010   23.7870 O   0  0  0  0  0  0  0  0  0  0  0  0
  -22.6850  -29.5030   22.5610 C   0  0  0  0  0  0  0  0  0  0  0  0
  -21.3620  -29.3090   22.4330 N   0  0  0  0  0  0  0  0  0  0  0  0
  -23.3740  -28.8860   23.3780 O   0  0  0  0  0  0  0  0  0  0  0  0
  -20.8660  -29.8570   21.7430 H   0  0  0  0  0  0  0  0  0  0  0  0
  -18.0010  -28.0760   22.9170 C   0  0  0  0  0  0  0  0  0  0  0  0
  -20.5530  -28.3640   23.2030 C   0  0  0  0  0  3  0  0  0  0  0  0
  -20.6740  -26.9310   22.6330 C   0  0  0  0  0  2  0  0  0  0  0  0
  -19.5840  -26.5930   21.6130 C   0  0  0  0  0  2  0  0  0  0  0  0
  -18.1960  -26.7260   22.2450 C   0  0  0  0  0  2  0  0  0  0  0  0
  -19.1070  -28.8520   23.3510 C   0  0  0  0  0  0  0  0  0  0  0  0
  -18.8720  -30.1160   23.9350 C   0  0  0  0  0  3  0  0  0  0  0  0
  -17.5610  -30.6020   24.0920 C   0  0  0  0  0  3  0  0  0  0  0  0
  -16.4680  -29.8230   23.6760 C   0  0  0  0  0  3  0  0  0  0  0  0
  -16.6890  -28.5610   23.0950 C   0  0  0  0  0  3  0  0  0  0  0  0
  -25.8220  -32.5670   23.8530 C   0  0  0  0  0  3  0  0  0  0  0  0
  -25.5160  -33.9670   24.1730 N   0  0  0  0  0  0  0  0  0  0  0  0
  -25.8570  -35.0140   23.4100 C   0  0  0  0  0  0  0  0  0  0  0  0
  -26.5320  -34.9020   22.3810 O   0  0  0  0  0  0  0  0  0  0  0  0
  -24.9160  -34.1280   24.9700 H   0  0  0  0  0  0  0  0  0  0  0  0
  -24.1370  -36.8090   23.0300 C   0  0  0  0  0  1  0  0  0  0  0  0
  -25.3700  -36.4060   23.8550 C   0  0  0  0  0  3  0  0  0  0  0  0
  -27.5010  -37.2840   24.7000 C   0  0  0  0  0  1  0  0  0  0  0  0
  -26.4080  -37.4540   23.7470 N   0  0  0  0  0  0  0  0  0  0  0  0
  -26.0040  -38.3760   23.8890 H   0  0  0  0  0  0  0  0  0  0  0  0
  -26.3420  -31.8040   25.1330 C   0  0  1  0  0  0  0  0  0  0  0  0
  -25.2490  -31.5720   26.2040 C   0  0  0  0  0  1  0  0  0  0  0  0
  -26.9270  -30.4250   24.7470 C   0  0  0  0  0  1  0  0  0  0  0  0
  -27.4930  -32.6030   25.7890 C   0  0  0  0  0  1  0  0  0  0  0  0
  1  2  2  0
  1  3  1  0
  3 18  1  0
  4 17  1  0
  5 10  1  0
  6  7  1  0
  6  5  1  0
  8  7  1  0
  8 23  1  0
  8  9  1  0
 10  4  1  0
 10  9  1  0
 11  4  2  0
 12 14  1  0
 12 17  1  0
 13 15  1  0
 14 18  1  0
 15 16  1  0
 17 13  1  0
 18 19  1  1
 18 15  1  0
 20 21  2  0
 21 40  1  0
 22 21  1  0
 22 25  1  0
 23 24  1  0
 23 20  1  0
 24 22  2  0
 25 26  1  0
 26 27  2  0
 28 31  1  0
 28 27  1  0
 29 28  2  0
 30 29  1  0
 30 25  2  0
 31 32  1  0
 32 33  1  0
 33 34  2  0
 35 34  1  0
 35 39  1  0
 36 35  2  0
 37 32  2  0
 37 36  1  0
 38 37  1  0
 40 41  1  0
 41 44  1  0
 41 43  1  0
 42 40  2  0
 45 46  1  0
 45 20  1  0
 47 45  1  0
 48  1  1  0
 49 48  1  0
 49 50  1  0
 51 49  1  0
 52 49  1  0
 53 52  1  0
 53 54  1  0
 55 66  2  0
 56 54  1  0
 56 61  1  0
 57 65  1  0
 57 67  1  0
 58 64  1  0
 58 60  1  0
 59 65  1  0
 60 59  1  0
 61 60  2  0
 62 63  1  0
 62 56  2  0
 63 58  2  0
 64 57  1  0
 65 55  1  0
 67 69  2  0
 68 67  1  0
 70 68  1  0
 71 80  2  0
 71 76  1  0
 72 68  1  0
 72 76  1  0
 73 72  1  0
 74 75  1  0
 74 73  1  0
 75 71  1  0
 76 77  2  0
 77 78  1  0
 79 78  2  0
 80 79  1  0
 81 55  1  0
 81 82  1  0
 81 91  1  0
 82 85  1  0
 83 87  1  0
 83 82  1  0
 84 83  2  0
 87 86  1  0
 89 87  1  0
 89 90  1  0
 89 88  1  0
 91 94  1  1
 91 92  1  0
 93 91  1  0
M  ISO  4   4 100  17 100  53 101  54 101
M  END
>  <TORSDO>  (8) 
F 21

>  <SCORE>  (8) 
-12.494

>  <name>  (8) 
8

>  <ligand_id>  (8) 
8

>  <original_smiles>  (8) 
[H]c1c([H])c([H])c2c(c1[H])C([H])([H])C([H])([H])C([H])([H])C2([H])N([H])C(=O)C1([H])N(C(=O)C([H])(N([H])C(=O)C([H])(N([H])C([H])([H])[H])C([H])([H])[H])C(C([H])([H])[H])(C([H])([H])[H])C([H])([H])[H])C([H])([H])c2c([H])c(OC([H])([H])C([H])([H])[N+]([H])([H])C([H])([H])C(=O)C([H])([H])[N+]3([H])C([H])([H])C([H])([H])N(C(=O)N4C([H])([H])C([H])([H])C([H])([H])C([H])(n5nc(-c6c([H])c([H])c(Oc7c([H])c([H])c(F)c([H])c7F)c([H])c6[H])c(C(=O)N([H])[H])c5N([H])[H])C4([H])[H])C([H])([H])C3([H])C([H])([H])[H])c([H])c([H])c2C1([H])[H]

>  <smiles>  (8) 
[H]c1c([H])c([H])c2c(c1[H])C([H])([H])C([H])([H])C([H])([H])C2([H])N([H])C(=O)C1([H])N(C(=O)C([H])(N([H])C(=O)C([H])(N([H])C([H])([H])[H])C([H])([H])[H])C(C([H])([H])[H])(C([H])([H])[H])C([H])([H])[H])C([H])([H])c2c([H])c(OC([H])([H])C([H])([H])[N+]([H])([H])C([H])([H])C(=O)C([H])([H])[N+]3([H])C([H])([H])C([H])([H])N(C(=O)N4C([H])([H])C([H])([H])C([H])([H])C([H])(n5nc(-c6c([H])c([H])c(Oc7c([H])c([H])c(F)c([H])c7F)c([H])c6[H])c(C(=O)N([H])[H])c5N([H])[H])C4([H])[H])C([H])([H])C3([H])C([H])([H])[H])c([H])c([H])c2C1([H])[H]

$$$$
9:0:0
     RDKit          3D

 93102  0  0  1  0  0  0  0  0999 V2000
  -31.1140  -22.4400   20.7160 C   0  0  0  0  0  2  0  0  0  0  0  0
  -30.2370  -23.0950   21.7830 C   0  0  0  0  0  2  0  0  0  0  0  0
  -29.8140  -21.8440   20.1450 C   0  0  0  0  0  3  0  0  0  0  0  0
  -29.1250  -22.9760   20.8370 N   0  0  0  0  0  0  0  0  0  0  0  0
  -28.3020  -19.7430   19.7430 C   0  0  0  0  0  2  0  0  0  0  0  0
  -28.4600  -18.2440   20.0500 C   0  0  0  0  0  2  0  0  0  0  0  0
  -29.3720  -20.4120   20.6150 C   0  0  0  0  0  3  0  0  0  0  0  0
  -29.9700  -18.0550   20.2910 C   0  0  0  0  0  3  0  0  0  0  0  0
  -30.4770  -19.4120   20.6510 N   0  0  0  0  0  4  0  0  0  0  0  0
  -30.9210  -19.4130   21.5550 H   0  0  0  0  0  0  0  0  0  0  0  0
  -31.1680  -19.6700   19.9640 H   0  0  0  0  0  0  0  0  0  0  0  0
  -30.3580  -16.9470   21.3300 C   0  0  0  0  0  2  0  0  0  0  0  0
  -30.6140  -14.5480   20.5170 C   0  0  0  0  0  0  0  0  0  0  0  0
  -30.3470  -12.3770   19.3630 C   0  0  0  0  0  2  0  0  0  0  0  0
  -29.4030  -12.5600   18.1570 C   0  0  0  0  0  2  0  0  0  0  0  0
  -27.9270  -12.4150   18.5810 C   0  0  0  0  0  2  0  0  0  0  0  0
  -27.5800  -13.2490   19.8450 C   0  0  0  0  0  3  0  0  0  0  0  0
  -28.6360  -13.0410   20.9530 C   0  0  0  0  0  2  0  0  0  0  0  0
  -29.9540  -13.3630   20.3830 N   0  0  0  0  0  0  0  0  0  0  0  0
  -31.7520  -14.7320   20.0780 O   0  0  0  0  0  0  0  0  0  0  0  0
  -29.8940  -15.5690   21.0340 N   0  0  0  0  0  0  0  0  0  0  0  0
  -28.9550  -15.3380   21.3200 H   0  0  0  0  0  0  0  0  0  0  0  0
  -25.1790  -13.8470   20.5470 C   0  0  0  0  0  0  0  0  0  0  0  0
  -24.1130  -13.0710   20.9150 C   0  0  0  0  0  0  0  0  0  0  0  0
  -24.5800  -11.7220   20.8890 C   0  0  0  0  0  0  0  0  0  0  0  0
  -26.2290  -12.9700   20.3210 N   0  0  0  0  0  0  0  0  0  0  0  0
  -25.8710  -11.6870   20.5850 N   0  0  0  0  0  0  0  0  0  0  0  0
  -23.8580  -10.4570   21.0780 C   0  0  0  0  0  0  0  0  0  0  0  0
  -24.3000   -9.4860   22.0030 C   0  0  0  0  0  3  0  0  0  0  0  0
  -23.5780   -8.2860   22.1810 C   0  0  0  0  0  3  0  0  0  0  0  0
  -22.3980   -8.0500   21.4340 C   0  0  0  0  0  0  0  0  0  0  0  0
  -21.9760   -9.0100   20.4970 C   0  0  0  0  0  3  0  0  0  0  0  0
  -22.6990  -10.2010   20.3170 C   0  0  0  0  0  3  0  0  0  0  0  0
  -21.6460   -6.9040   21.5220 O   0  0  0  0  0  0  0  0  0  0  0  0
  -21.6200   -6.1460   22.6650 C   0  0  0  0  0  0  0  0  0  0  0  0
  -21.2220   -6.6860   23.9090 C   0  0  0  0  0  3  0  0  0  0  0  0
  -21.1420   -5.8540   25.0430 C   0  0  0  0  0  3  0  0  0  0  0  0
  -21.4510   -4.4850   24.9380 C   0  0  0  0  0  0  0  0  0  0  0  0
  -21.8410   -3.9450   23.6990 C   0  0  0  0  0  3  0  0  0  0  0  0
  -21.9230   -4.7730   22.5660 C   0  0  0  0  0  0  0  0  0  0  0  0
  -22.2780   -4.2430   21.3710 F   0  0  0  0  0  0  0  0  0  0  0  0
  -21.3680   -3.6850   26.0260 F   0  0  0  0  0  0  0  0  0  0  0  0
  -22.7120  -13.5440   21.1800 C   0  0  0  0  0  0  0  0  0  0  0  0
  -21.9800  -12.8420   22.0400 N   0  0  0  0  0  0  0  0  0  0  0  0
  -22.2730  -14.5690   20.6610 O   0  0  0  0  0  0  0  0  0  0  0  0
  -22.3440  -12.0100   22.4800 H   0  0  0  0  0  0  0  0  0  0  0  0
  -21.0390  -13.1380   22.2560 H   0  0  0  0  0  0  0  0  0  0  0  0
  -25.3370  -15.2190   20.3640 N   0  0  0  0  0  0  0  0  0  0  0  0
  -24.5610  -15.8650   20.4610 H   0  0  0  0  0  0  0  0  0  0  0  0
  -26.1760  -15.6610   20.0130 H   0  0  0  0  0  0  0  0  0  0  0  0
  -28.9890  -24.2270   20.0400 C   0  0  0  0  0  2  0  0  0  0  0  0
  -28.2760  -25.3790   20.8170 C   0  0  0  0  0  2  0  0  0  0  0  0
  -28.3790  -26.6780   20.1860 O   0  0  0  0  0  0  0  0  0  0  0  0
  -24.5870  -31.9100   23.2480 C   0  0  0  0  0  0  0  0  0  0  0  0
  -27.2270  -27.4400   20.1900 C   0  0  0  0  0  0  0  0  0  0  0  0
  -23.3820  -30.5030   21.6100 C   0  0  0  0  0  3  0  0  0  0  0  0
  -24.8380  -28.9590   20.1900 C   0  0  0  0  0  0  0  0  0  0  0  0
  -25.9090  -30.8590   21.4090 C   0  0  0  0  0  2  0  0  0  0  0  0
  -25.9970  -29.4830   20.7760 C   0  0  0  0  0  0  0  0  0  0  0  0
  -27.1990  -28.7320   20.7700 C   0  0  0  0  0  3  0  0  0  0  0  0
  -26.0540  -26.9400   19.5900 C   0  0  0  0  0  3  0  0  0  0  0  0
  -24.8620  -27.6890   19.5920 C   0  0  0  0  0  3  0  0  0  0  0  0
  -23.5930  -29.8190   20.2330 C   0  0  0  0  0  2  0  0  0  0  0  0
  -24.6450  -31.1060   22.1480 N   0  0  0  0  0  0  0  0  0  0  0  0
  -23.5060  -32.1830   23.7870 O   0  0  0  0  0  0  0  0  0  0  0  0
  -22.7310  -29.4840   22.5740 C   0  0  0  0  0  0  0  0  0  0  0  0
  -21.4070  -29.3000   22.4460 N   0  0  0  0  0  0  0  0  0  0  0  0
  -23.4160  -28.8630   23.3920 O   0  0  0  0  0  0  0  0  0  0  0  0
  -20.9160  -29.8520   21.7560 H   0  0  0  0  0  0  0  0  0  0  0  0
  -18.0330  -28.1030   22.9440 C   0  0  0  0  0  0  0  0  0  0  0  0
  -20.5910  -28.3630   23.2190 C   0  0  0  0  0  3  0  0  0  0  0  0
  -20.6960  -26.9310   22.6470 C   0  0  0  0  0  2  0  0  0  0  0  0
  -19.5960  -26.6060   21.6310 C   0  0  0  0  0  2  0  0  0  0  0  0
  -18.2130  -26.7530   22.2720 C   0  0  0  0  0  2  0  0  0  0  0  0
  -19.1520  -28.8670   23.3740 C   0  0  0  0  0  0  0  0  0  0  0  0
  -18.9320  -30.1330   23.9600 C   0  0  0  0  0  3  0  0  0  0  0  0
  -17.6260  -30.6340   24.1220 C   0  0  0  0  0  3  0  0  0  0  0  0
  -16.5220  -29.8670   23.7100 C   0  0  0  0  0  3  0  0  0  0  0  0
  -16.7270  -28.6040   23.1260 C   0  0  0  0  0  3  0  0  0  0  0  0
  -25.8730  -32.5450   23.8660 C   0  0  0  0  0  3  0  0  0  0  0  0
  -26.3920  -31.7750   25.1420 C   0  0  1  0  0  0  0  0  0  0  0  0
  -25.3030  -31.5310   26.2110 C   0  0  0  0  0  1  0  0  0  0  0  0
  -26.9780  -30.3990   24.7440 C   0  0  0  0  0  1  0  0  0  0  0  0
  -27.5430  -32.5700   25.8030 C   0  0  0  0  0  1  0  0  0  0  0  0
  -25.5640  -33.9440   24.1930 N   0  0  0  0  0  0  0  0  0  0  0  0
  -25.8960  -34.9940   23.4300 C   0  0  0  0  0  0  0  0  0  0  0  0
  -26.5690  -34.8870   22.3990 O   0  0  0  0  0  0  0  0  0  0  0  0
  -24.9710  -34.1010   24.9950 H   0  0  0  0  0  0  0  0  0  0  0  0
  -24.1680  -36.7810   23.0590 C   0  0  0  0  0  1  0  0  0  0  0  0
  -25.4040  -36.3820   23.8800 C   0  0  0  0  0  3  0  0  0  0  0  0
  -27.5370  -37.2660   24.7150 C   0  0  0  0  0  1  0  0  0  0  0  0
  -26.4340  -37.4370   23.7720 N   0  0  0  0  0  0  0  0  0  0  0  0
  -26.0250  -38.3540   23.9290 H   0  0  0  0  0  0  0  0  0  0  0  0
  1  2  1  0
  3  7  1  0
  3  1  1  0
  3  4  1  0
  4  2  1  0
  5  6  1  0
  6  8  1  0
  7  5  1  0
  7  9  1  0
  8  9  1  0
  8 12  1  0
  9 10  1  0
 11  9  1  0
 13 21  1  0
 14 19  1  0
 15 16  1  0
 15 14  1  0
 17 16  1  0
 17 26  1  0
 17 18  1  0
 19 13  1  0
 19 18  1  0
 20 13  2  0
 21 22  1  0
 21 12  1  0
 23 24  2  0
 24 43  1  0
 25 24  1  0
 25 28  1  0
 26 23  1  0
 26 27  1  0
 27 25  2  0
 28 29  1  0
 29 30  2  0
 31 34  1  0
 31 30  1  0
 32 31  2  0
 33 32  1  0
 33 28  2  0
 34 35  1  0
 35 36  1  0
 36 37  2  0
 38 37  1  0
 38 42  1  0
 39 38  2  0
 40 35  2  0
 40 39  1  0
 41 40  1  0
 43 44  1  0
 44 47  1  0
 44 46  1  0
 45 43  2  0
 48 49  1  0
 48 23  1  0
 50 48  1  0
 51 52  1  0
 51  4  1  0
 53 55  1  0
 53 52  1  0
 54 65  2  0
 55 60  1  0
 56 64  1  0
 56 66  1  0
 57 63  1  0
 57 59  1  0
 58 64  1  0
 59 58  1  0
 60 59  2  0
 61 62  1  0
 61 55  2  0
 62 57  2  0
 63 56  1  0
 64 54  1  0
 66 68  2  0
 67 66  1  0
 69 67  1  0
 70 79  2  0
 70 75  1  0
 71 67  1  0
 71 75  1  0
 72 71  1  0
 73 74  1  0
 73 72  1  0
 74 70  1  0
 75 76  2  0
 76 77  1  0
 78 77  2  0
 79 78  1  0
 80 54  1  0
 80 85  1  0
 80 81  1  0
 81 84  1  1
 81 82  1  0
 83 81  1  0
 85 88  1  0
 86 90  1  0
 86 85  1  0
 87 86  2  0
 90 89  1  0
 92 90  1  0
 92 93  1  0
 92 91  1  0
M  ISO  4  13 100  21 100  52 101  53 101
M  END
>  <TORSDO>  (9) 
F 20

>  <SCORE>  (9) 
-14.200

>  <name>  (9) 
9

>  <ligand_id>  (9) 
9

>  <original_smiles>  (9) 
[H]c1c([H])c([H])c2c(c1[H])C([H])([H])C([H])([H])C([H])([H])C2([H])N([H])C(=O)C1([H])N(C(=O)C([H])(N([H])C(=O)C([H])(N([H])C([H])([H])[H])C([H])([H])[H])C(C([H])([H])[H])(C([H])([H])[H])C([H])([H])[H])C([H])([H])c2c([H])c(OC([H])([H])C([H])([H])N3C([H])([H])C([H])([H])C3([H])C3([H])C([H])([H])C([H])([H])C([H])(C([H])([H])N([H])C(=O)N4C([H])([H])C([H])([H])C([H])([H])C([H])(n5nc(-c6c([H])c([H])c(Oc7c([H])c([H])c(F)c([H])c7F)c([H])c6[H])c(C(=O)N([H])[H])c5N([H])[H])C4([H])[H])[N+]3([H])[H])c([H])c([H])c2C1([H])[H]

>  <smiles>  (9) 
[H]c1c([H])c([H])c2c(c1[H])C([H])([H])C([H])([H])C([H])([H])C2([H])N([H])C(=O)C1([H])N(C(=O)C([H])(N([H])C(=O)C([H])(N([H])C([H])([H])[H])C([H])([H])[H])C(C([H])([H])[H])(C([H])([H])[H])C([H])([H])[H])C([H])([H])c2c([H])c(OC([H])([H])C([H])([H])N3C([H])([H])C([H])([H])C3([H])C3([H])C([H])([H])C([H])([H])C([H])(C([H])([H])N([H])C(=O)N4C([H])([H])C([H])([H])C([H])([H])C([H])(n5nc(-c6c([H])c([H])c(Oc7c([H])c([H])c(F)c([H])c7F)c([H])c6[H])c(C(=O)N([H])[H])c5N([H])[H])C4([H])[H])[N+]3([H])[H])c([H])c([H])c2C1([H])[H]

$$$$
10:0:0
     RDKit          3D

 94102  0  0  1  0  0  0  0  0999 V2000
  -28.6170  -22.9550   20.1110 C   0  0  0  0  0  2  0  0  0  0  0  0
  -29.4570  -24.1370   20.4300 N   0  0  0  0  0  4  0  0  0  0  0  0
  -29.0260  -24.6960   21.1500 H   0  0  0  0  0  0  0  0  0  0  0  0
  -30.3100  -23.7520   20.8140 H   0  0  0  0  0  0  0  0  0  0  0  0
  -29.8370  -25.0180   19.2950 C   0  0  0  0  0  2  0  0  0  0  0  0
  -28.7300  -26.0110   18.9250 C   0  0  0  0  0  2  0  0  0  0  0  0
  -28.4170  -26.7800   20.0890 O   0  0  0  0  0  0  0  0  0  0  0  0
  -24.5980  -31.8850   23.2250 C   0  0  0  0  0  0  0  0  0  0  0  0
  -27.2260  -27.4690   20.1000 C   0  0  0  0  0  0  0  0  0  0  0  0
  -23.3780  -30.4800   21.5970 C   0  0  0  0  0  3  0  0  0  0  0  0
  -24.8200  -28.9480   20.1600 C   0  0  0  0  0  0  0  0  0  0  0  0
  -25.8990  -30.8440   21.3790 C   0  0  0  0  0  2  0  0  0  0  0  0
  -25.9800  -29.4750   20.7400 C   0  0  0  0  0  0  0  0  0  0  0  0
  -27.1820  -28.7360   20.7190 C   0  0  0  0  0  3  0  0  0  0  0  0
  -26.0360  -26.9380   19.5470 C   0  0  0  0  0  3  0  0  0  0  0  0
  -24.8390  -27.6750   19.5700 C   0  0  0  0  0  3  0  0  0  0  0  0
  -23.5730  -29.7970   20.2170 C   0  0  0  0  0  2  0  0  0  0  0  0
  -24.6430  -31.0850   22.1230 N   0  0  0  0  0  0  0  0  0  0  0  0
  -23.5220  -32.1590   23.7720 O   0  0  0  0  0  0  0  0  0  0  0  0
  -22.7420  -29.4560   22.5630 C   0  0  0  0  0  0  0  0  0  0  0  0
  -21.4170  -29.2710   22.4460 N   0  0  0  0  0  0  0  0  0  0  0  0
  -23.4340  -28.8320   23.3720 O   0  0  0  0  0  0  0  0  0  0  0  0
  -20.9210  -29.8250   21.7620 H   0  0  0  0  0  0  0  0  0  0  0  0
  -18.0490  -28.0730   22.9600 C   0  0  0  0  0  0  0  0  0  0  0  0
  -20.6060  -28.3330   23.2210 C   0  0  0  0  0  3  0  0  0  0  0  0
  -20.7110  -26.9010   22.6470 C   0  0  0  0  0  2  0  0  0  0  0  0
  -19.6050  -26.5750   21.6380 C   0  0  0  0  0  2  0  0  0  0  0  0
  -18.2240  -26.7230   22.2850 C   0  0  0  0  0  2  0  0  0  0  0  0
  -19.1680  -28.8370   23.3840 C   0  0  0  0  0  0  0  0  0  0  0  0
  -18.9510  -30.1020   23.9690 C   0  0  0  0  0  3  0  0  0  0  0  0
  -17.6470  -30.6030   24.1380 C   0  0  0  0  0  3  0  0  0  0  0  0
  -16.5410  -29.8330   23.7350 C   0  0  0  0  0  3  0  0  0  0  0  0
  -16.7440  -28.5710   23.1510 C   0  0  0  0  0  3  0  0  0  0  0  0
  -25.8900  -32.5180   23.8290 C   0  0  0  0  0  3  0  0  0  0  0  0
  -25.5830  -33.9120   24.1720 N   0  0  0  0  0  0  0  0  0  0  0  0
  -25.9010  -34.9700   23.4140 C   0  0  0  0  0  0  0  0  0  0  0  0
  -26.5590  -34.8740   22.3740 O   0  0  0  0  0  0  0  0  0  0  0  0
  -25.0010  -34.0630   24.9840 H   0  0  0  0  0  0  0  0  0  0  0  0
  -24.1600  -36.7520   23.0890 C   0  0  0  0  0  1  0  0  0  0  0  0
  -25.4130  -36.3530   23.8850 C   0  0  0  0  0  3  0  0  0  0  0  0
  -27.5550  -37.2380   24.6930 C   0  0  0  0  0  1  0  0  0  0  0  0
  -26.4380  -37.4120   23.7670 N   0  0  0  0  0  0  0  0  0  0  0  0
  -26.0300  -38.3280   23.9320 H   0  0  0  0  0  0  0  0  0  0  0  0
  -26.4310  -31.7390   25.0910 C   0  0  1  0  0  0  0  0  0  0  0  0
  -25.3550  -31.4920   26.1740 C   0  0  0  0  0  1  0  0  0  0  0  0
  -27.0110  -30.3660   24.6800 C   0  0  0  0  0  1  0  0  0  0  0  0
  -27.5910  -32.5330   25.7410 C   0  0  0  0  0  1  0  0  0  0  0  0
  -29.0310  -21.7400   20.9770 C   0  0  0  0  0  3  0  0  0  0  0  0
  -30.3660  -21.7450   21.0620 F   0  0  0  0  0  0  0  0  0  0  0  0
  -28.6100  -20.3560   20.4200 C   0  0  0  0  0  2  0  0  0  0  0  0
  -29.3190  -19.2440   21.1100 N   0  0  0  0  0  4  0  0  0  0  0  0
  -30.3040  -19.4700   21.0850 H   0  0  0  0  0  0  0  0  0  0  0  0
  -29.0380  -19.2460   22.0800 H   0  0  0  0  0  0  0  0  0  0  0  0
  -30.6640  -14.5250   20.3760 C   0  0  0  0  0  0  0  0  0  0  0  0
  -30.3840  -12.3260   19.3340 C   0  0  0  0  0  2  0  0  0  0  0  0
  -29.4330  -12.4980   18.1320 C   0  0  0  0  0  2  0  0  0  0  0  0
  -27.9650  -12.3530   18.5800 C   0  0  0  0  0  2  0  0  0  0  0  0
  -27.6190  -13.2180   19.8220 C   0  0  0  0  0  3  0  0  0  0  0  0
  -28.6900  -13.0730   20.9270 C   0  0  0  0  0  2  0  0  0  0  0  0
  -30.0030  -13.3400   20.3260 N   0  0  0  0  0  0  0  0  0  0  0  0
  -31.8650  -14.6400   20.1240 O   0  0  0  0  0  0  0  0  0  0  0  0
  -29.3870  -17.6920   19.0820 C   0  0  0  0  0  2  0  0  0  0  0  0
  -29.6350  -16.1860   18.9330 C   0  0  0  0  0  2  0  0  0  0  0  0
  -29.9690  -16.7640   21.1930 C   0  0  0  0  0  2  0  0  0  0  0  0
  -29.0950  -17.8710   20.5680 C   0  0  0  0  0  3  0  0  0  0  0  0
  -29.8620  -15.6160   20.2790 N   0  0  0  0  0  0  0  0  0  0  0  0
  -25.2330  -13.8370   20.5390 C   0  0  0  0  0  0  0  0  0  0  0  0
  -24.1610  -13.0670   20.9050 C   0  0  0  0  0  0  0  0  0  0  0  0
  -24.6200  -11.7160   20.8790 C   0  0  0  0  0  0  0  0  0  0  0  0
  -26.2730  -12.9510   20.3130 N   0  0  0  0  0  0  0  0  0  0  0  0
  -25.9100  -11.6710   20.5750 N   0  0  0  0  0  0  0  0  0  0  0  0
  -23.8940  -10.4580   21.0710 C   0  0  0  0  0  0  0  0  0  0  0  0
  -24.3420   -9.4820   21.9890 C   0  0  0  0  0  3  0  0  0  0  0  0
  -23.6160   -8.2850   22.1710 C   0  0  0  0  0  3  0  0  0  0  0  0
  -22.4270   -8.0580   21.4390 C   0  0  0  0  0  0  0  0  0  0  0  0
  -21.9950   -9.0250   20.5130 C   0  0  0  0  0  3  0  0  0  0  0  0
  -22.7220  -10.2120   20.3280 C   0  0  0  0  0  3  0  0  0  0  0  0
  -21.6650   -6.9180   21.5370 O   0  0  0  0  0  0  0  0  0  0  0  0
  -21.6610   -6.1520   22.6750 C   0  0  0  0  0  0  0  0  0  0  0  0
  -21.3030   -6.6870   23.9330 C   0  0  0  0  0  3  0  0  0  0  0  0
  -21.2410   -5.8480   25.0630 C   0  0  0  0  0  3  0  0  0  0  0  0
  -21.5240   -4.4740   24.9380 C   0  0  0  0  0  0  0  0  0  0  0  0
  -21.8750   -3.9400   23.6850 C   0  0  0  0  0  3  0  0  0  0  0  0
  -21.9390   -4.7760   22.5580 C   0  0  0  0  0  0  0  0  0  0  0  0
  -22.2530   -4.2510   21.3490 F   0  0  0  0  0  0  0  0  0  0  0  0
  -21.4600   -3.6670   26.0210 F   0  0  0  0  0  0  0  0  0  0  0  0
  -22.7650  -13.5510   21.1680 C   0  0  0  0  0  0  0  0  0  0  0  0
  -22.0330  -12.8630   22.0370 N   0  0  0  0  0  0  0  0  0  0  0  0
  -22.3290  -14.5730   20.6400 O   0  0  0  0  0  0  0  0  0  0  0  0
  -22.3950  -12.0400   22.4910 H   0  0  0  0  0  0  0  0  0  0  0  0
  -21.0960  -13.1740   22.2550 H   0  0  0  0  0  0  0  0  0  0  0  0
  -25.3980  -15.2080   20.3620 N   0  0  0  0  0  0  0  0  0  0  0  0
  -24.6280  -15.8600   20.4820 H   0  0  0  0  0  0  0  0  0  0  0  0
  -26.2600  -15.6530   20.0770 H   0  0  0  0  0  0  0  0  0  0  0  0
  1  2  1  0
  1 48  1  0
  2  4  1  0
  2  3  1  0
  5  2  1  0
  6  5  1  0
  6  7  1  0
  7  9  1  0
  8 19  2  0
  9 14  1  0
 10 18  1  0
 10 20  1  0
 11 17  1  0
 11 13  1  0
 12 18  1  0
 13 12  1  0
 14 13  2  0
 15 16  1  0
 15  9  2  0
 16 11  2  0
 17 10  1  0
 18  8  1  0
 20 22  2  0
 21 20  1  0
 23 21  1  0
 24 33  2  0
 24 29  1  0
 25 21  1  0
 25 29  1  0
 26 25  1  0
 27 28  1  0
 27 26  1  0
 28 24  1  0
 29 30  2  0
 30 31  1  0
 32 31  2  0
 33 32  1  0
 34  8  1  0
 34 35  1  0
 34 44  1  0
 35 38  1  0
 36 40  1  0
 36 35  1  0
 37 36  2  0
 40 39  1  0
 42 40  1  0
 42 43  1  0
 42 41  1  0
 44 47  1  1
 44 45  1  0
 46 44  1  0
 48 49  1  0
 50 48  1  0
 50 51  1  0
 51 53  1  0
 52 51  1  0
 55 60  1  0
 56 57  1  0
 56 55  1  0
 58 57  1  0
 58 70  1  0
 58 59  1  0
 60 54  1  0
 60 59  1  0
 61 54  2  0
 62 65  1  0
 63 62  1  0
 63 66  1  0
 65 51  1  0
 65 64  1  0
 66 54  1  0
 66 64  1  0
 67 68  2  0
 68 87  1  0
 69 68  1  0
 69 72  1  0
 70 67  1  0
 70 71  1  0
 71 69  2  0
 72 73  1  0
 73 74  2  0
 75 78  1  0
 75 74  1  0
 76 75  2  0
 77 76  1  0
 77 72  2  0
 78 79  1  0
 79 80  1  0
 80 81  2  0
 82 81  1  0
 82 86  1  0
 83 82  2  0
 84 79  2  0
 84 83  1  0
 85 84  1  0
 87 88  1  0
 88 91  1  0
 88 90  1  0
 89 87  2  0
 92 93  1  0
 92 67  1  0
 94 92  1  0
M  ISO  4   6 101   7 101  54 100  66 100
M  END
>  <TORSDO>  (10) 
F 22

>  <SCORE>  (10) 
-13.240

>  <name>  (10) 
10

>  <ligand_id>  (10) 
10

>  <original_smiles>  (10) 
[H]c1c([H])c([H])c2c(c1[H])C([H])([H])C([H])([H])C([H])([H])C2([H])N([H])C(=O)C1([H])N(C(=O)C([H])(N([H])C(=O)C([H])(N([H])C([H])([H])[H])C([H])([H])[H])C(C([H])([H])[H])(C([H])([H])[H])C([H])([H])[H])C([H])([H])c2c([H])c(OC([H])([H])C([H])([H])[N+]([H])([H])C([H])([H])C([H])(F)C([H])([H])[N+]([H])([H])C3([H])C([H])([H])N(C(=O)N4C([H])([H])C([H])([H])C([H])([H])C([H])(n5nc(-c6c([H])c([H])c(Oc7c([H])c([H])c(F)c([H])c7F)c([H])c6[H])c(C(=O)N([H])[H])c5N([H])[H])C4([H])[H])C([H])([H])C3([H])[H])c([H])c([H])c2C1([H])[H]

>  <smiles>  (10) 
[H]c1c([H])c([H])c2c(c1[H])C([H])([H])C([H])([H])C([H])([H])C2([H])N([H])C(=O)C1([H])N(C(=O)C([H])(N([H])C(=O)C([H])(N([H])C([H])([H])[H])C([H])([H])[H])C(C([H])([H])[H])(C([H])([H])[H])C([H])([H])[H])C([H])([H])c2c([H])c(OC([H])([H])C([H])([H])[N+]([H])([H])C([H])([H])C([H])(F)C([H])([H])[N+]([H])([H])C3([H])C([H])([H])N(C(=O)N4C([H])([H])C([H])([H])C([H])([H])C([H])(n5nc(-c6c([H])c([H])c(Oc7c([H])c([H])c(F)c([H])c7F)c([H])c6[H])c(C(=O)N([H])[H])c5N([H])[H])C4([H])[H])C([H])([H])C3([H])[H])c([H])c([H])c2C1([H])[H]

$$$$
11:0:0
     RDKit          3D

100109  0  0  1  0  0  0  0  0999 V2000
  -28.1070  -22.8340   18.7840 C   0  0  0  0  0  0  0  0  0  0  0  0
  -27.6270  -23.6240   17.5630 C   0  0  0  0  0  2  0  0  0  0  0  0
  -30.6180  -22.8620   18.4920 C   0  0  0  0  0  2  0  0  0  0  0  0
  -28.3440  -24.9740   17.2830 C   0  0  0  0  0  2  0  0  0  0  0  0
  -30.6010  -23.9350   17.3860 C   0  0  0  0  0  2  0  0  0  0  0  0
  -29.3580  -21.9670   18.5750 C   0  0  0  0  0  3  0  0  0  0  0  0
  -29.7500  -25.0970   17.7640 N   0  0  1  0  0  4  0  0  0  0  0  0
  -27.5400  -22.9200   19.8750 O   0  0  0  0  0  0  0  0  0  0  0  0
  -29.7230  -25.1100   18.7750 H   0  0  0  0  0  0  0  0  0  0  0  0
  -29.5760  -20.8530   19.6340 C   0  0  0  0  0  2  0  0  0  0  0  0
  -28.5370  -19.7000   19.6760 C   0  0  0  0  0  2  0  0  0  0  0  0
  -30.7690  -14.4290   20.0790 C   0  0  0  0  0  0  0  0  0  0  0  0
  -30.3890  -12.2790   18.9430 C   0  0  0  0  0  2  0  0  0  0  0  0
  -29.3970  -12.5120   17.7830 C   0  0  0  0  0  2  0  0  0  0  0  0
  -27.9390  -12.3910   18.2750 C   0  0  0  0  0  2  0  0  0  0  0  0
  -27.6690  -13.1990   19.5770 C   0  0  0  0  0  3  0  0  0  0  0  0
  -28.7800  -12.9550   20.6210 C   0  0  0  0  0  2  0  0  0  0  0  0
  -30.0620  -13.2700   19.9810 N   0  0  0  0  0  0  0  0  0  0  0  0
  -31.9570  -14.4820   19.7470 O   0  0  0  0  0  0  0  0  0  0  0  0
  -30.4700  -16.5070   18.9220 C   0  0  0  0  0  2  0  0  0  0  0  0
  -29.5270  -16.2640   21.1980 C   0  0  0  0  0  2  0  0  0  0  0  0
  -29.5000  -17.6660   18.6550 C   0  0  0  0  0  2  0  0  0  0  0  0
  -28.6090  -17.4870   20.9040 C   0  0  0  0  0  2  0  0  0  0  0  0
  -30.0340  -15.5750   19.9890 N   0  0  0  0  0  0  0  0  0  0  0  0
  -29.2220  -18.3960   19.9070 N   0  0  2  0  0  4  0  0  0  0  0  0
  -30.1150  -18.6480   20.3030 H   0  0  0  0  0  0  0  0  0  0  0  0
  -25.3150  -13.7940   20.4090 C   0  0  0  0  0  0  0  0  0  0  0  0
  -24.2620  -13.0200   20.8190 C   0  0  0  0  0  0  0  0  0  0  0  0
  -24.7180  -11.6680   20.7450 C   0  0  0  0  0  0  0  0  0  0  0  0
  -26.3440  -12.9150   20.1190 N   0  0  0  0  0  0  0  0  0  0  0  0
  -25.9920  -11.6300   20.3790 N   0  0  0  0  0  0  0  0  0  0  0  0
  -23.9950  -10.4060   20.9480 C   0  0  0  0  0  0  0  0  0  0  0  0
  -24.4410   -9.4430   21.8810 C   0  0  0  0  0  3  0  0  0  0  0  0
  -23.7200   -8.2430   22.0700 C   0  0  0  0  0  3  0  0  0  0  0  0
  -22.5400   -8.0010   21.3280 C   0  0  0  0  0  0  0  0  0  0  0  0
  -22.1130   -8.9530   20.3850 C   0  0  0  0  0  3  0  0  0  0  0  0
  -22.8350  -10.1440   20.1940 C   0  0  0  0  0  3  0  0  0  0  0  0
  -21.7860   -6.8570   21.4290 O   0  0  0  0  0  0  0  0  0  0  0  0
  -21.7160   -6.1420   22.5980 C   0  0  0  0  0  0  0  0  0  0  0  0
  -21.2520   -6.7210   23.8000 C   0  0  0  0  0  3  0  0  0  0  0  0
  -21.1340   -5.9300   24.9610 C   0  0  0  0  0  3  0  0  0  0  0  0
  -21.4660   -4.5620   24.9190 C   0  0  0  0  0  0  0  0  0  0  0  0
  -21.9200   -3.9850   23.7230 C   0  0  0  0  0  3  0  0  0  0  0  0
  -22.0420   -4.7710   22.5650 C   0  0  0  0  0  0  0  0  0  0  0  0
  -22.4600   -4.2030   21.4070 F   0  0  0  0  0  0  0  0  0  0  0  0
  -21.3460   -3.8020   26.0330 F   0  0  0  0  0  0  0  0  0  0  0  0
  -22.8800  -13.5000   21.1580 C   0  0  0  0  0  0  0  0  0  0  0  0
  -22.1920  -12.7930   22.0480 N   0  0  0  0  0  0  0  0  0  0  0  0
  -22.4240  -14.5320   20.6690 O   0  0  0  0  0  0  0  0  0  0  0  0
  -22.5790  -11.9580   22.4600 H   0  0  0  0  0  0  0  0  0  0  0  0
  -21.2660  -13.0910   22.3190 H   0  0  0  0  0  0  0  0  0  0  0  0
  -25.4740  -15.1660   20.2330 N   0  0  0  0  0  0  0  0  0  0  0  0
  -24.6840  -15.7970   20.3120 H   0  0  0  0  0  0  0  0  0  0  0  0
  -26.2480  -15.5550   19.7160 H   0  0  0  0  0  0  0  0  0  0  0  0
  -30.3820  -26.4010   17.4180 C   0  0  0  0  0  2  0  0  0  0  0  0
  -29.7980  -27.6130   18.1850 C   0  0  0  0  0  3  0  0  0  0  0  0
  -30.6230  -28.7350   17.9110 O   0  0  0  0  0  0  0  0  0  0  0  0
  -30.3440  -29.4520   18.4740 H   0  0  0  0  0  0  0  0  0  0  0  0
  -29.7240  -27.4070   19.7200 C   0  0  0  0  0  2  0  0  0  0  0  0
  -28.5190  -26.7190   20.0760 O   0  0  0  0  0  0  0  0  0  0  0  0
  -24.6320  -31.8560   23.1960 C   0  0  0  0  0  0  0  0  0  0  0  0
  -27.3550  -27.4580   20.1410 C   0  0  0  0  0  0  0  0  0  0  0  0
  -23.4450  -30.4350   21.5510 C   0  0  0  0  0  3  0  0  0  0  0  0
  -24.9250  -28.8990   20.1530 C   0  0  0  0  0  0  0  0  0  0  0  0
  -25.9630  -30.8240   21.3660 C   0  0  0  0  0  2  0  0  0  0  0  0
  -26.0690  -29.4510   20.7390 C   0  0  0  0  0  0  0  0  0  0  0  0
  -27.2820  -28.7380   20.7400 C   0  0  0  0  0  3  0  0  0  0  0  0
  -26.1820  -26.8950   19.5980 C   0  0  0  0  0  3  0  0  0  0  0  0
  -24.9730  -27.6150   19.5820 C   0  0  0  0  0  3  0  0  0  0  0  0
  -23.6710  -29.7410   20.1800 C   0  0  0  0  0  2  0  0  0  0  0  0
  -24.6990  -31.0520   22.0980 N   0  0  0  0  0  0  0  0  0  0  0  0
  -23.5470  -32.1250   23.7280 O   0  0  0  0  0  0  0  0  0  0  0  0
  -22.7920  -29.4210   22.5150 C   0  0  0  0  0  0  0  0  0  0  0  0
  -21.4650  -29.2530   22.3940 N   0  0  0  0  0  0  0  0  0  0  0  0
  -23.4740  -28.7820   23.3200 O   0  0  0  0  0  0  0  0  0  0  0  0
  -20.9770  -29.8180   21.7130 H   0  0  0  0  0  0  0  0  0  0  0  0
  -18.0750  -28.1280   22.9280 C   0  0  0  0  0  0  0  0  0  0  0  0
  -20.6420  -28.3220   23.1640 C   0  0  0  0  0  3  0  0  0  0  0  0
  -20.7020  -26.8980   22.5620 C   0  0  0  0  0  2  0  0  0  0  0  0
  -19.5780  -26.6170   21.5620 C   0  0  0  0  0  2  0  0  0  0  0  0
  -18.2110  -26.7830   22.2300 C   0  0  0  0  0  2  0  0  0  0  0  0
  -19.2180  -28.8570   23.3520 C   0  0  0  0  0  0  0  0  0  0  0  0
  -19.0370  -30.1200   23.9610 C   0  0  0  0  0  3  0  0  0  0  0  0
  -17.7470  -30.6460   24.1550 C   0  0  0  0  0  3  0  0  0  0  0  0
  -16.6190  -29.9100   23.7510 C   0  0  0  0  0  3  0  0  0  0  0  0
  -16.7850  -28.6540   23.1410 C   0  0  0  0  0  3  0  0  0  0  0  0
  -25.9120  -32.4930   23.8220 C   0  0  0  0  0  3  0  0  0  0  0  0
  -25.5940  -33.8850   24.1620 N   0  0  0  0  0  0  0  0  0  0  0  0
  -25.9170  -34.9450   23.4090 C   0  0  0  0  0  0  0  0  0  0  0  0
  -26.5880  -34.8530   22.3770 O   0  0  0  0  0  0  0  0  0  0  0  0
  -24.9980  -34.0300   24.9640 H   0  0  0  0  0  0  0  0  0  0  0  0
  -24.1730  -36.7220   23.0630 C   0  0  0  0  0  1  0  0  0  0  0  0
  -25.4170  -36.3250   23.8740 C   0  0  0  0  0  3  0  0  0  0  0  0
  -27.5420  -37.2240   24.7190 C   0  0  0  0  0  1  0  0  0  0  0  0
  -26.4410  -37.3870   23.7710 N   0  0  0  0  0  0  0  0  0  0  0  0
  -26.0290  -38.3040   23.9210 H   0  0  0  0  0  0  0  0  0  0  0  0
  -26.4410  -31.7120   25.0880 C   0  0  1  0  0  0  0  0  0  0  0  0
  -25.3530  -31.4470   26.1530 C   0  0  0  0  0  1  0  0  0  0  0  0
  -27.0360  -30.3450   24.6750 C   0  0  0  0  0  1  0  0  0  0  0  0
  -27.5850  -32.5100   25.7570 C   0  0  0  0  0  1  0  0  0  0  0  0
  1  8  2  0
  2  1  1  0
  3  6  1  0
  4  2  1  0
  4  7  1  0
  5  7  1  0
  5  3  1  0
  6  1  1  0
  6 10  1  0
  7  9  1  1
 10 11  1  0
 11 25  1  0
 13 18  1  0
 14 15  1  0
 14 13  1  0
 16 15  1  0
 16 30  1  0
 16 17  1  0
 18 12  1  0
 18 17  1  0
 19 12  2  0
 20 24  1  0
 22 20  1  0
 22 25  1  0
 23 21  1  0
 24 12  1  0
 24 21  1  0
 25 26  1  1
 25 23  1  0
 27 28  2  0
 28 47  1  0
 29 28  1  0
 29 32  1  0
 30 31  1  0
 30 27  1  0
 31 29  2  0
 32 33  1  0
 33 34  2  0
 35 38  1  0
 35 34  1  0
 36 35  2  0
 37 36  1  0
 37 32  2  0
 38 39  1  0
 39 40  1  0
 40 41  2  0
 42 41  1  0
 42 46  1  0
 43 42  2  0
 44 39  2  0
 44 43  1  0
 45 44  1  0
 47 48  1  0
 48 51  1  0
 48 50  1  0
 49 47  2  0
 52 53  1  0
 52 27  1  0
 54 52  1  0
 55  7  1  0
 56 55  1  0
 56 59  1  0
 57 56  1  0
 57 58  1  0
 59 60  1  0
 60 62  1  0
 61 72  2  0
 62 67  1  0
 63 71  1  0
 63 73  1  0
 64 70  1  0
 64 66  1  0
 65 71  1  0
 66 67  2  0
 66 65  1  0
 68 62  2  0
 69 68  1  0
 69 64  2  0
 70 63  1  0
 71 61  1  0
 73 75  2  0
 74 73  1  0
 76 74  1  0
 77 86  2  0
 77 82  1  0
 78 74  1  0
 78 82  1  0
 79 78  1  0
 80 81  1  0
 80 79  1  0
 81 77  1  0
 82 83  2  0
 83 84  1  0
 85 84  2  0
 86 85  1  0
 87 61  1  0
 87 88  1  0
 87 97  1  0
 88 91  1  0
 89 93  1  0
 89 88  1  0
 90 89  2  0
 93 92  1  0
 95 93  1  0
 95 96  1  0
 95 94  1  0
 97100  1  1
 97 98  1  0
 99 97  1  0
M  ISO  4  12 100  24 100  59 101  60 101
M  END
>  <TORSDO>  (11) 
F 22

>  <SCORE>  (11) 
-12.941

>  <name>  (11) 
11

>  <ligand_id>  (11) 
11

>  <original_smiles>  (11) 
[H]OC([H])(C([H])([H])Oc1c([H])c([H])c2c(c1[H])C([H])([H])N(C(=O)C([H])(N([H])C(=O)C([H])(N([H])C([H])([H])[H])C([H])([H])[H])C(C([H])([H])[H])(C([H])([H])[H])C([H])([H])[H])C([H])(C(=O)N([H])C1([H])c3c([H])c([H])c([H])c([H])c3C([H])([H])C([H])([H])C1([H])[H])C2([H])[H])C([H])([H])[N+]1([H])C([H])([H])C([H])([H])C(=O)C([H])(C([H])([H])C([H])([H])[N+]2([H])C([H])([H])C([H])([H])N(C(=O)N3C([H])([H])C([H])([H])C([H])([H])C([H])(n4nc(-c5c([H])c([H])c(Oc6c([H])c([H])c(F)c([H])c6F)c([H])c5[H])c(C(=O)N([H])[H])c4N([H])[H])C3([H])[H])C([H])([H])C2([H])[H])C([H])([H])C1([H])[H]

>  <smiles>  (11) 
[H]OC([H])(C([H])([H])Oc1c([H])c([H])c2c(c1[H])C([H])([H])N(C(=O)C([H])(N([H])C(=O)C([H])(N([H])C([H])([H])[H])C([H])([H])[H])C(C([H])([H])[H])(C([H])([H])[H])C([H])([H])[H])C([H])(C(=O)N([H])C1([H])c3c([H])c([H])c([H])c([H])c3C([H])([H])C([H])([H])C1([H])[H])C2([H])[H])C([H])([H])[N+]1([H])C([H])([H])C([H])([H])C(=O)C([H])(C([H])([H])C([H])([H])[N+]2([H])C([H])([H])C([H])([H])N(C(=O)N3C([H])([H])C([H])([H])C([H])([H])C([H])(n4nc(-c5c([H])c([H])c(Oc6c([H])c([H])c(F)c([H])c6F)c([H])c5[H])c(C(=O)N([H])[H])c4N([H])[H])C3([H])[H])C([H])([H])C2([H])[H])C([H])([H])C1([H])[H]

$$$$
12:0:0
     RDKit          3D

 95103  0  0  1  0  0  0  0  0999 V2000
  -27.6740  -21.4690   21.7930 N   0  0  0  0  0  4  0  0  0  0  0  0
  -26.7500  -21.2180   22.1110 H   0  0  0  0  0  0  0  0  0  0  0  0
  -28.2800  -21.4540   22.5940 H   0  0  0  0  0  0  0  0  0  0  0  0
  -27.5900  -22.8370   21.2350 C   0  0  0  0  0  2  0  0  0  0  0  0
  -27.5730  -23.9420   22.3220 C   0  0  0  0  0  2  0  0  0  0  0  0
  -28.8330  -24.6900   22.3730 N   0  0  0  0  0  0  0  0  0  0  0  0
  -29.6080  -24.1540   21.9890 H   0  0  0  0  0  0  0  0  0  0  0  0
  -28.7500  -26.0080   21.7330 C   0  0  0  0  0  2  0  0  0  0  0  0
  -28.6530  -25.9540   20.1880 C   0  0  0  0  0  2  0  0  0  0  0  0
  -28.5890  -27.2680   19.6320 O   0  0  0  0  0  0  0  0  0  0  0  0
  -24.5220  -31.8970   23.1380 C   0  0  0  0  0  0  0  0  0  0  0  0
  -27.3660  -27.8870   19.7060 C   0  0  0  0  0  0  0  0  0  0  0  0
  -23.3650  -30.5410   21.4200 C   0  0  0  0  0  3  0  0  0  0  0  0
  -24.8790  -29.2070   19.8660 C   0  0  0  0  0  0  0  0  0  0  0  0
  -25.8520  -31.0870   21.1960 C   0  0  0  0  0  2  0  0  0  0  0  0
  -26.0110  -29.7720   20.4640 C   0  0  0  0  0  0  0  0  0  0  0  0
  -27.2580  -29.1220   20.3770 C   0  0  0  0  0  3  0  0  0  0  0  0
  -26.2180  -27.3250   19.1030 C   0  0  0  0  0  3  0  0  0  0  0  0
  -24.9730  -27.9790   19.1840 C   0  0  0  0  0  3  0  0  0  0  0  0
  -23.5850  -29.9770   19.9900 C   0  0  0  0  0  2  0  0  0  0  0  0
  -24.5990  -31.1850   21.9780 N   0  0  0  0  0  0  0  0  0  0  0  0
  -23.4390  -32.0590   23.7180 O   0  0  0  0  0  0  0  0  0  0  0  0
  -22.8040  -29.4140   22.3170 C   0  0  0  0  0  0  0  0  0  0  0  0
  -21.4910  -29.1530   22.1990 N   0  0  0  0  0  0  0  0  0  0  0  0
  -23.5450  -28.7770   23.0710 O   0  0  0  0  0  0  0  0  0  0  0  0
  -20.9500  -29.7290   21.5680 H   0  0  0  0  0  0  0  0  0  0  0  0
  -18.2150  -27.7050   22.6550 C   0  0  0  0  0  0  0  0  0  0  0  0
  -20.7530  -28.1130   22.9150 C   0  0  0  0  0  3  0  0  0  0  0  0
  -20.9400  -26.7350   22.2420 C   0  0  0  0  0  2  0  0  0  0  0  0
  -19.8470  -26.4070   21.2200 C   0  0  0  0  0  2  0  0  0  0  0  0
  -18.4690  -26.4170   21.8890 C   0  0  0  0  0  2  0  0  0  0  0  0
  -19.2860  -28.5090   23.1230 C   0  0  0  0  0  0  0  0  0  0  0  0
  -18.9960  -29.7130   23.8000 C   0  0  0  0  0  3  0  0  0  0  0  0
  -17.6640  -30.1150   24.0110 C   0  0  0  0  0  3  0  0  0  0  0  0
  -16.6050  -29.3090   23.5580 C   0  0  0  0  0  3  0  0  0  0  0  0
  -16.8820  -28.1040   22.8870 C   0  0  0  0  0  3  0  0  0  0  0  0
  -25.7820  -32.5610   23.7780 C   0  0  0  0  0  3  0  0  0  0  0  0
  -26.3270  -31.7820   25.0360 C   0  0  1  0  0  0  0  0  0  0  0  0
  -25.2440  -31.4810   26.0980 C   0  0  0  0  0  1  0  0  0  0  0  0
  -26.9580  -30.4370   24.6110 C   0  0  0  0  0  1  0  0  0  0  0  0
  -27.4450  -32.6040   25.7190 C   0  0  0  0  0  1  0  0  0  0  0  0
  -25.4230  -33.9400   24.1310 N   0  0  0  0  0  0  0  0  0  0  0  0
  -25.7310  -35.0180   23.3970 C   0  0  0  0  0  0  0  0  0  0  0  0
  -26.4210  -34.9580   22.3750 O   0  0  0  0  0  0  0  0  0  0  0  0
  -24.8090  -34.0580   24.9250 H   0  0  0  0  0  0  0  0  0  0  0  0
  -23.9520  -36.7600   23.0470 C   0  0  0  0  0  1  0  0  0  0  0  0
  -25.1910  -36.3790   23.8740 C   0  0  0  0  0  3  0  0  0  0  0  0
  -27.2780  -37.3160   24.7650 C   0  0  0  0  0  1  0  0  0  0  0  0
  -26.1900  -37.4670   23.8010 N   0  0  0  0  0  0  0  0  0  0  0  0
  -25.7510  -38.3700   23.9580 H   0  0  0  0  0  0  0  0  0  0  0  0
  -28.1110  -20.4310   20.8320 C   0  0  0  0  0  2  0  0  0  0  0  0
  -29.5760  -19.9890   21.0510 C   0  0  0  0  0  2  0  0  0  0  0  0
  -30.9530  -20.6140   19.1900 C   0  0  0  0  0  1  0  0  0  0  0  0
  -30.1410  -19.5380   19.7710 N   0  0  0  0  0  0  0  0  0  0  0  0
  -31.3640  -14.9180   20.4700 C   0  0  0  0  0  0  0  0  0  0  0  0
  -31.0440  -12.6360   19.6820 C   0  0  0  0  0  2  0  0  0  0  0  0
  -30.2260  -12.7180   18.3660 C   0  0  0  0  0  2  0  0  0  0  0  0
  -28.7430  -13.1330   18.5690 C   0  0  0  0  0  2  0  0  0  0  0  0
  -28.3420  -13.1710   20.0450 C   0  0  0  0  0  3  0  0  0  0  0  0
  -29.3130  -13.6890   21.1060 C   0  0  0  0  0  2  0  0  0  0  0  0
  -30.6590  -13.7710   20.5290 N   0  0  0  0  0  0  0  0  0  0  0  0
  -32.5920  -14.9630   20.3750 O   0  0  0  0  0  0  0  0  0  0  0  0
  -31.0420  -17.7440   18.3770 C   0  0  0  0  0  2  0  0  0  0  0  0
  -30.9090  -16.2320   18.4840 C   0  0  0  0  0  2  0  0  0  0  0  0
  -30.2850  -17.1350   20.5910 C   0  0  0  0  0  2  0  0  0  0  0  0
  -30.9230  -18.2940   19.8030 C   0  0  0  0  0  3  0  0  0  0  0  0
  -30.6450  -15.9050   19.8910 N   0  0  0  0  0  0  0  0  0  0  0  0
  -25.9460  -14.2510   20.4850 C   0  0  0  0  0  0  0  0  0  0  0  0
  -24.7850  -13.5710   20.7670 C   0  0  0  0  0  0  0  0  0  0  0  0
  -25.1300  -12.1870   20.7690 C   0  0  0  0  0  0  0  0  0  0  0  0
  -26.9200  -13.2520   20.3470 N   0  0  0  0  0  0  0  0  0  0  0  0
  -26.4030  -12.0310   20.5490 N   0  0  0  0  0  0  0  0  0  0  0  0
  -24.3530  -10.9670   20.9170 C   0  0  0  0  0  0  0  0  0  0  0  0
  -24.7240   -9.9850   21.8630 C   0  0  0  0  0  3  0  0  0  0  0  0
  -23.9680   -8.8020   21.9830 C   0  0  0  0  0  3  0  0  0  0  0  0
  -22.8360   -8.6030   21.1570 C   0  0  0  0  0  0  0  0  0  0  0  0
  -22.4970   -9.5730   20.1980 C   0  0  0  0  0  3  0  0  0  0  0  0
  -23.2520  -10.7490   20.0710 C   0  0  0  0  0  3  0  0  0  0  0  0
  -22.0540   -7.4780   21.1890 O   0  0  0  0  0  0  0  0  0  0  0  0
  -21.9020   -6.7450   22.3370 C   0  0  0  0  0  0  0  0  0  0  0  0
  -21.3940   -7.3160   23.5240 C   0  0  0  0  0  3  0  0  0  0  0  0
  -21.1880   -6.5080   24.6590 C   0  0  0  0  0  3  0  0  0  0  0  0
  -21.4820   -5.1320   24.6110 C   0  0  0  0  0  0  0  0  0  0  0  0
  -21.9820   -4.5630   23.4260 C   0  0  0  0  0  3  0  0  0  0  0  0
  -22.1930   -5.3690   22.2940 C   0  0  0  0  0  0  0  0  0  0  0  0
  -22.6640   -4.8140   21.1510 F   0  0  0  0  0  0  0  0  0  0  0  0
  -21.2730   -4.3510   25.6970 F   0  0  0  0  0  0  0  0  0  0  0  0
  -23.4020  -14.1220   20.9630 C   0  0  0  0  0  0  0  0  0  0  0  0
  -22.5950  -13.4580   21.7850 N   0  0  0  0  0  0  0  0  0  0  0  0
  -23.0440  -15.1660   20.4210 O   0  0  0  0  0  0  0  0  0  0  0  0
  -22.8920  -12.6050   22.2370 H   0  0  0  0  0  0  0  0  0  0  0  0
  -21.6660  -13.8090   21.9740 H   0  0  0  0  0  0  0  0  0  0  0  0
  -26.2350  -15.6090   20.3400 N   0  0  0  0  0  0  0  0  0  0  0  0
  -25.5240  -16.3250   20.4450 H   0  0  0  0  0  0  0  0  0  0  0  0
  -27.1600  -15.9760   20.1570 H   0  0  0  0  0  0  0  0  0  0  0  0
  1  2  1  0
  1  3  1  0
  4  1  1  0
  4  5  1  0
  5  6  1  0
  7  6  1  0
  8  6  1  0
  9  8  1  0
 10 12  1  0
 10  9  1  0
 11 22  2  0
 12 17  1  0
 13 21  1  0
 13 23  1  0
 14 20  1  0
 14 16  1  0
 15 21  1  0
 16 15  1  0
 17 16  2  0
 18 19  1  0
 18 12  2  0
 19 14  2  0
 20 13  1  0
 21 11  1  0
 23 25  2  0
 24 23  1  0
 26 24  1  0
 27 36  2  0
 27 32  1  0
 28 24  1  0
 28 32  1  0
 29 28  1  0
 30 31  1  0
 30 29  1  0
 31 27  1  0
 32 33  2  0
 33 34  1  0
 35 34  2  0
 36 35  1  0
 37 11  1  0
 37 42  1  0
 37 38  1  0
 38 41  1  1
 38 39  1  0
 40 38  1  0
 42 45  1  0
 43 47  1  0
 43 42  1  0
 44 43  2  0
 47 46  1  0
 49 47  1  0
 49 50  1  0
 49 48  1  0
 51 52  1  0
 51  1  1  0
 53 54  1  0
 54 52  1  0
 55 61  1  0
 56 61  1  0
 57 58  1  0
 57 56  1  0
 59 58  1  0
 59 71  1  0
 59 60  1  0
 61 60  1  0
 62 55  2  0
 63 64  1  0
 63 66  1  0
 64 67  1  0
 66 54  1  0
 66 65  1  0
 67 55  1  0
 67 65  1  0
 68 69  2  0
 69 70  1  0
 69 88  1  0
 70 73  1  0
 71 68  1  0
 71 72  1  0
 72 70  2  0
 73 74  1  0
 74 75  2  0
 76 79  1  0
 76 75  1  0
 77 76  2  0
 78 77  1  0
 78 73  2  0
 79 80  1  0
 80 81  1  0
 81 82  2  0
 83 82  1  0
 83 87  1  0
 84 83  2  0
 85 80  2  0
 85 84  1  0
 86 85  1  0
 88 89  1  0
 89 92  1  0
 89 91  1  0
 90 88  2  0
 93 94  1  0
 93 68  1  0
 95 93  1  0
M  ISO  4   9 101  10 101  55 100  67 100
M  END
>  <TORSDO>  (12) 
F 24

>  <SCORE>  (12) 
-10.939

>  <name>  (12) 
12

>  <ligand_id>  (12) 
12

>  <original_smiles>  (12) 
[H]c1c([H])c([H])c2c(c1[H])C([H])([H])C([H])([H])C([H])([H])C2([H])N([H])C(=O)C1([H])N(C(=O)C([H])(N([H])C(=O)C([H])(N([H])C([H])([H])[H])C([H])([H])[H])C(C([H])([H])[H])(C([H])([H])[H])C([H])([H])[H])C([H])([H])c2c([H])c(OC([H])([H])C([H])([H])N([H])C([H])([H])C([H])([H])[N+]([H])([H])C([H])([H])C([H])([H])N(C([H])([H])[H])C3([H])C([H])([H])N(C(=O)N4C([H])([H])C([H])([H])C([H])([H])C([H])(n5nc(-c6c([H])c([H])c(Oc7c([H])c([H])c(F)c([H])c7F)c([H])c6[H])c(C(=O)N([H])[H])c5N([H])[H])C4([H])[H])C([H])([H])C3([H])[H])c([H])c([H])c2C1([H])[H]

>  <smiles>  (12) 
[H]c1c([H])c([H])c2c(c1[H])C([H])([H])C([H])([H])C([H])([H])C2([H])N([H])C(=O)C1([H])N(C(=O)C([H])(N([H])C(=O)C([H])(N([H])C([H])([H])[H])C([H])([H])[H])C(C([H])([H])[H])(C([H])([H])[H])C([H])([H])[H])C([H])([H])c2c([H])c(OC([H])([H])C([H])([H])N([H])C([H])([H])C([H])([H])[N+]([H])([H])C([H])([H])C([H])([H])N(C([H])([H])[H])C3([H])C([H])([H])N(C(=O)N4C([H])([H])C([H])([H])C([H])([H])C([H])(n5nc(-c6c([H])c([H])c(Oc7c([H])c([H])c(F)c([H])c7F)c([H])c6[H])c(C(=O)N([H])[H])c5N([H])[H])C4([H])[H])C([H])([H])C3([H])[H])c([H])c([H])c2C1([H])[H]

$$$$
13:0:0
     RDKit          3D

 92100  0  0  1  0  0  0  0  0999 V2000
  -29.5870  -18.5080   20.7960 C   0  0  0  0  0  3  0  0  0  0  0  0
  -29.9510  -18.5420   18.0410 C   0  0  0  0  0  3  0  0  0  0  0  0
  -29.8670  -17.2440   20.1260 C   0  0  0  0  0  0  0  0  0  0  0  0
  -29.5010  -19.7950   20.1150 C   0  0  0  0  0  0  0  0  0  0  0  0
  -30.0190  -17.3130   18.7200 C   0  0  0  0  0  0  0  0  0  0  0  0
  -29.7210  -19.7570   18.7110 C   0  0  0  0  0  0  0  0  0  0  0  0
  -30.1860  -16.1850   17.9900 F   0  0  0  0  0  0  0  0  0  0  0  0
  -29.7440  -20.8920   17.9690 F   0  0  0  0  0  0  0  0  0  0  0  0
  -30.6410  -14.7950   20.4680 C   0  0  0  0  0  0  0  0  0  0  0  0
  -30.4660  -12.5230   19.4650 C   0  0  0  0  0  2  0  0  0  0  0  0
  -29.5520  -12.6090   18.2220 C   0  0  0  0  0  2  0  0  0  0  0  0
  -28.0710  -12.4550   18.6190 C   0  0  0  0  0  2  0  0  0  0  0  0
  -27.6820  -13.3310   19.8390 C   0  0  0  0  0  3  0  0  0  0  0  0
  -28.7150  -13.2160   20.9820 C   0  0  0  0  0  2  0  0  0  0  0  0
  -30.0280  -13.5640   20.4230 N   0  0  0  0  0  0  0  0  0  0  0  0
  -31.8240  -14.9110   20.1320 O   0  0  0  0  0  0  0  0  0  0  0  0
  -29.8710  -15.9060   20.7700 N   0  0  0  0  0  0  0  0  0  0  0  0
  -29.0210  -15.6840   21.2640 H   0  0  0  0  0  0  0  0  0  0  0  0
  -25.2740  -13.9260   20.4960 C   0  0  0  0  0  0  0  0  0  0  0  0
  -24.1990  -13.1520   20.8460 C   0  0  0  0  0  0  0  0  0  0  0  0
  -24.6670  -11.8040   20.8440 C   0  0  0  0  0  0  0  0  0  0  0  0
  -26.3240  -13.0460   20.2970 N   0  0  0  0  0  0  0  0  0  0  0  0
  -25.9650  -11.7660   20.5700 N   0  0  0  0  0  0  0  0  0  0  0  0
  -23.9400  -10.5400   21.0310 C   0  0  0  0  0  0  0  0  0  0  0  0
  -24.3570   -9.5810   21.9800 C   0  0  0  0  0  3  0  0  0  0  0  0
  -23.6310   -8.3830   22.1540 C   0  0  0  0  0  3  0  0  0  0  0  0
  -22.4730   -8.1360   21.3780 C   0  0  0  0  0  0  0  0  0  0  0  0
  -22.0740   -9.0840   20.4190 C   0  0  0  0  0  3  0  0  0  0  0  0
  -22.8020  -10.2730   20.2440 C   0  0  0  0  0  3  0  0  0  0  0  0
  -21.7190   -6.9890   21.4610 O   0  0  0  0  0  0  0  0  0  0  0  0
  -21.6530   -6.2540   22.6170 C   0  0  0  0  0  0  0  0  0  0  0  0
  -21.2010   -6.8130   23.8310 C   0  0  0  0  0  3  0  0  0  0  0  0
  -21.0820   -6.0040   24.9800 C   0  0  0  0  0  3  0  0  0  0  0  0
  -21.4070   -4.6350   24.9120 C   0  0  0  0  0  0  0  0  0  0  0  0
  -21.8530   -4.0750   23.7020 C   0  0  0  0  0  3  0  0  0  0  0  0
  -21.9730   -4.8830   22.5570 C   0  0  0  0  0  0  0  0  0  0  0  0
  -22.3820   -4.3330   21.3880 F   0  0  0  0  0  0  0  0  0  0  0  0
  -21.2870   -3.8550   26.0120 F   0  0  0  0  0  0  0  0  0  0  0  0
  -22.7940  -13.6310   21.0710 C   0  0  0  0  0  0  0  0  0  0  0  0
  -22.0430  -12.9480   21.9300 N   0  0  0  0  0  0  0  0  0  0  0  0
  -22.3670  -14.6450   20.5210 O   0  0  0  0  0  0  0  0  0  0  0  0
  -22.3970  -12.1270   22.3980 H   0  0  0  0  0  0  0  0  0  0  0  0
  -21.1010  -13.2550   22.1200 H   0  0  0  0  0  0  0  0  0  0  0  0
  -25.4460  -15.2940   20.3120 N   0  0  0  0  0  0  0  0  0  0  0  0
  -24.6930  -15.9610   20.4340 H   0  0  0  0  0  0  0  0  0  0  0  0
  -26.3100  -15.7250   20.0110 H   0  0  0  0  0  0  0  0  0  0  0  0
  -29.2520  -21.0570   20.7960 N   0  0  0  0  0  0  0  0  0  0  0  0
  -29.1930  -20.9810   21.8070 H   0  0  0  0  0  0  0  0  0  0  0  0
  -28.5140  -22.2620   20.2320 C   0  0  0  0  0  2  0  0  0  0  0  0
  -28.8960  -23.7540   20.7170 C   0  0  0  0  0  3  0  0  0  0  0  0
  -27.9570  -24.9590   20.2040 C   0  0  0  0  0  3  0  0  0  0  0  0
  -28.2490  -26.4220   20.3840 O   0  0  0  0  0  0  0  0  0  0  0  0
  -24.5780  -31.9470   23.2740 C   0  0  0  0  0  0  0  0  0  0  0  0
  -27.1690  -27.3260   20.2770 C   0  0  0  0  0  0  0  0  0  0  0  0
  -23.3720  -30.5450   21.6410 C   0  0  0  0  0  3  0  0  0  0  0  0
  -24.8210  -28.9820   20.2240 C   0  0  0  0  0  0  0  0  0  0  0  0
  -25.9180  -30.8430   21.4660 C   0  0  0  0  0  2  0  0  0  0  0  0
  -25.9910  -29.4580   20.8290 C   0  0  0  0  0  0  0  0  0  0  0  0
  -27.1650  -28.6410   20.8490 C   0  0  0  0  0  3  0  0  0  0  0  0
  -25.9820  -26.9290   19.6190 C   0  0  0  0  0  3  0  0  0  0  0  0
  -24.8230  -27.7250   19.6050 C   0  0  0  0  0  3  0  0  0  0  0  0
  -23.5880  -29.8610   20.2640 C   0  0  0  0  0  2  0  0  0  0  0  0
  -24.6410  -31.1310   22.1830 N   0  0  0  0  0  0  0  0  0  0  0  0
  -23.4940  -32.2330   23.8030 O   0  0  0  0  0  0  0  0  0  0  0  0
  -22.7080  -29.5340   22.6070 C   0  0  0  0  0  0  0  0  0  0  0  0
  -21.3820  -29.3530   22.4750 N   0  0  0  0  0  0  0  0  0  0  0  0
  -23.3830  -28.9130   23.4340 O   0  0  0  0  0  0  0  0  0  0  0  0
  -20.8930  -29.9070   21.7850 H   0  0  0  0  0  0  0  0  0  0  0  0
  -18.0060  -28.1490   22.9630 C   0  0  0  0  0  0  0  0  0  0  0  0
  -20.5620  -28.4200   23.2510 C   0  0  0  0  0  3  0  0  0  0  0  0
  -20.6720  -26.9860   22.6850 C   0  0  0  0  0  2  0  0  0  0  0  0
  -19.5780  -26.6540   21.6660 C   0  0  0  0  0  2  0  0  0  0  0  0
  -18.1910  -26.7960   22.3000 C   0  0  0  0  0  2  0  0  0  0  0  0
  -19.1190  -28.9190   23.3950 C   0  0  0  0  0  0  0  0  0  0  0  0
  -18.8920  -30.1880   23.9700 C   0  0  0  0  0  3  0  0  0  0  0  0
  -17.5870  -30.6890   24.1200 C   0  0  0  0  0  3  0  0  0  0  0  0
  -16.4880  -29.9160   23.7070 C   0  0  0  0  0  3  0  0  0  0  0  0
  -16.6970  -28.6490   23.1330 C   0  0  0  0  0  3  0  0  0  0  0  0
  -25.8610  -32.5810   23.8940 C   0  0  0  0  0  3  0  0  0  0  0  0
  -26.3660  -31.8240   25.1820 C   0  0  1  0  0  0  0  0  0  0  0  0
  -25.2670  -31.6040   26.2480 C   0  0  0  0  0  1  0  0  0  0  0  0
  -26.9450  -30.4380   24.8110 C   0  0  0  0  0  1  0  0  0  0  0  0
  -27.5170  -32.6210   25.8400 C   0  0  0  0  0  1  0  0  0  0  0  0
  -25.5540  -33.9840   24.2060 N   0  0  0  0  0  0  0  0  0  0  0  0
  -25.8940  -35.0280   23.4380 C   0  0  0  0  0  0  0  0  0  0  0  0
  -26.5710  -34.9100   22.4120 O   0  0  0  0  0  0  0  0  0  0  0  0
  -24.9550  -34.1490   25.0020 H   0  0  0  0  0  0  0  0  0  0  0  0
  -24.1850  -36.8320   23.0450 C   0  0  0  0  0  1  0  0  0  0  0  0
  -25.4110  -36.4260   23.8770 C   0  0  0  0  0  3  0  0  0  0  0  0
  -27.5400  -37.3040   24.7290 C   0  0  0  0  0  1  0  0  0  0  0  0
  -26.4530  -37.4700   23.7690 N   0  0  0  0  0  0  0  0  0  0  0  0
  -26.0510  -38.3940   23.8980 H   0  0  0  0  0  0  0  0  0  0  0  0
  2  6  2  0
  2  5  1  0
  3 17  1  0
  3  1  1  0
  4  1  2  0
  4 47  1  0
  5  3  2  0
  6  4  1  0
  7  5  1  0
  8  6  1  0
  9 17  1  0
 10 15  1  0
 11 12  1  0
 11 10  1  0
 13 12  1  0
 13 22  1  0
 13 14  1  0
 15  9  1  0
 15 14  1  0
 16  9  2  0
 17 18  1  0
 19 20  2  0
 20 39  1  0
 21 20  1  0
 21 24  1  0
 22 19  1  0
 22 23  1  0
 23 21  2  0
 24 25  1  0
 25 26  2  0
 27 30  1  0
 27 26  1  0
 28 27  2  0
 29 28  1  0
 29 24  2  0
 30 31  1  0
 31 32  1  0
 32 33  2  0
 34 33  1  0
 34 38  1  0
 35 34  2  0
 36 31  2  0
 36 35  1  0
 37 36  1  0
 39 40  1  0
 40 43  1  0
 40 42  1  0
 41 39  2  0
 44 45  1  0
 44 19  1  0
 46 44  1  0
 47 48  1  0
 49 50  1  0
 49 47  1  0
 51 52  1  0
 51 50  2  0
 53 64  2  0
 54 52  1  0
 54 59  1  0
 55 63  1  0
 55 65  1  0
 56 62  1  0
 56 58  1  0
 57 63  1  0
 58 59  2  0
 58 57  1  0
 60 54  2  0
 61 60  1  0
 61 56  2  0
 62 55  1  0
 63 53  1  0
 65 67  2  0
 66 65  1  0
 68 66  1  0
 69 78  2  0
 69 74  1  0
 70 66  1  0
 70 74  1  0
 71 70  1  0
 72 73  1  0
 72 71  1  0
 73 69  1  0
 74 75  2  0
 75 76  1  0
 77 76  2  0
 78 77  1  0
 79 53  1  0
 79 84  1  0
 79 80  1  0
 80 83  1  1
 80 81  1  0
 82 80  1  0
 84 87  1  0
 85 89  1  0
 85 84  1  0
 86 85  2  0
 89 88  1  0
 91 89  1  0
 91 92  1  0
 91 90  1  0
M  ISO  4   9 100  17 100  51 101  52 101
M  END
>  <TORSDO>  (13) 
F 20

>  <SCORE>  (13) 
-13.548

>  <name>  (13) 
13

>  <ligand_id>  (13) 
13

>  <original_smiles>  (13) 
[H]c1c([H])c([H])c2c(c1[H])C([H])([H])C([H])([H])C([H])([H])C2([H])N([H])C(=O)C1([H])N(C(=O)C([H])(N([H])C(=O)C([H])(N([H])C([H])([H])[H])C([H])([H])[H])C(C([H])([H])[H])(C([H])([H])[H])C([H])([H])[H])C([H])([H])c2c([H])c(OC([H])([H])C([H])([H])C([H])([H])N([H])c3c([H])c(N([H])C(=O)N4C([H])([H])C([H])([H])C([H])([H])C([H])(n5nc(-c6c([H])c([H])c(Oc7c([H])c([H])c(F)c([H])c7F)c([H])c6[H])c(C(=O)N([H])[H])c5N([H])[H])C4([H])[H])c(F)c([H])c3F)c([H])c([H])c2C1([H])[H]

>  <smiles>  (13) 
[H]c1c([H])c([H])c2c(c1[H])C([H])([H])C([H])([H])C([H])([H])C2([H])N([H])C(=O)C1([H])N(C(=O)C([H])(N([H])C(=O)C([H])(N([H])C([H])([H])[H])C([H])([H])[H])C(C([H])([H])[H])(C([H])([H])[H])C([H])([H])[H])C([H])([H])c2c([H])c(OC([H])([H])C([H])([H])C([H])([H])N([H])c3c([H])c(N([H])C(=O)N4C([H])([H])C([H])([H])C([H])([H])C([H])(n5nc(-c6c([H])c([H])c(Oc7c([H])c([H])c(F)c([H])c7F)c([H])c6[H])c(C(=O)N([H])[H])c5N([H])[H])C4([H])[H])c(F)c([H])c3F)c([H])c([H])c2C1([H])[H]

$$$$
14:0:0
     RDKit          3D

 95103  0  0  1  0  0  0  0  0999 V2000
  -28.6470  -21.2700   20.1600 C   0  0  0  0  0  3  0  0  0  0  0  0
  -30.7260  -14.6680   20.0170 C   0  0  0  0  0  0  0  0  0  0  0  0
  -30.3260  -12.4690   18.9280 C   0  0  0  0  0  2  0  0  0  0  0  0
  -29.3170  -12.6040   17.7720 C   0  0  0  0  0  2  0  0  0  0  0  0
  -27.8840  -12.4150   18.2990 C   0  0  0  0  0  2  0  0  0  0  0  0
  -27.6000  -13.2650   19.5640 C   0  0  0  0  0  3  0  0  0  0  0  0
  -28.7370  -13.1570   20.6100 C   0  0  0  0  0  2  0  0  0  0  0  0
  -29.9910  -13.5070   19.9350 N   0  0  0  0  0  0  0  0  0  0  0  0
  -31.8770  -14.6610   19.5670 O   0  0  0  0  0  0  0  0  0  0  0  0
  -29.7890  -20.2800   20.6430 C   0  0  0  0  0  0  0  0  0  0  0  0
  -30.7120  -18.1470   21.5710 C   0  0  0  0  0  2  0  0  0  0  0  0
  -28.5450  -17.9690   20.6470 C   0  0  0  0  0  2  0  0  0  0  0  0
  -31.2250  -16.9390   20.7600 C   0  0  0  0  0  2  0  0  0  0  0  0
  -28.8830  -16.4650   20.2170 C   0  0  0  0  0  2  0  0  0  0  0  0
  -29.6800  -18.9040   20.8400 N   0  0  0  0  0  0  0  0  0  0  0  0
  -30.2240  -15.8700   20.5190 N   0  0  0  0  0  0  0  0  0  0  0  0
  -30.8630  -20.8420   20.8920 O   0  0  0  0  0  0  0  0  0  0  0  0
  -25.2720  -13.8320   20.4800 C   0  0  0  0  0  0  0  0  0  0  0  0
  -24.2360  -13.0440   20.8960 C   0  0  0  0  0  0  0  0  0  0  0  0
  -24.6960  -11.6960   20.7850 C   0  0  0  0  0  0  0  0  0  0  0  0
  -26.2960  -12.9630   20.1420 N   0  0  0  0  0  0  0  0  0  0  0  0
  -25.9620  -11.6720   20.3890 N   0  0  0  0  0  0  0  0  0  0  0  0
  -23.9850  -10.4250   20.9760 C   0  0  0  0  0  0  0  0  0  0  0  0
  -24.4390   -9.4560   21.8970 C   0  0  0  0  0  3  0  0  0  0  0  0
  -23.7260   -8.2510   22.0760 C   0  0  0  0  0  3  0  0  0  0  0  0
  -22.5450   -8.0070   21.3340 C   0  0  0  0  0  0  0  0  0  0  0  0
  -22.1120   -8.9670   20.4010 C   0  0  0  0  0  3  0  0  0  0  0  0
  -22.8250  -10.1630   20.2200 C   0  0  0  0  0  3  0  0  0  0  0  0
  -21.8020   -6.8560   21.4240 O   0  0  0  0  0  0  0  0  0  0  0  0
  -21.7180   -6.1430   22.5940 C   0  0  0  0  0  0  0  0  0  0  0  0
  -21.2110   -6.7150   23.7810 C   0  0  0  0  0  3  0  0  0  0  0  0
  -21.0790   -5.9260   24.9410 C   0  0  0  0  0  3  0  0  0  0  0  0
  -21.4430   -4.5660   24.9140 C   0  0  0  0  0  0  0  0  0  0  0  0
  -21.9430   -3.9940   23.7310 C   0  0  0  0  0  3  0  0  0  0  0  0
  -22.0770   -4.7800   22.5730 C   0  0  0  0  0  0  0  0  0  0  0  0
  -22.5400   -4.2190   21.4300 F   0  0  0  0  0  0  0  0  0  0  0  0
  -21.3080   -3.8050   26.0260 F   0  0  0  0  0  0  0  0  0  0  0  0
  -22.8600  -13.5070   21.2790 C   0  0  0  0  0  0  0  0  0  0  0  0
  -22.1930  -12.7800   22.1670 N   0  0  0  0  0  0  0  0  0  0  0  0
  -22.3890  -14.5490   20.8240 O   0  0  0  0  0  0  0  0  0  0  0  0
  -22.5880  -11.9350   22.5550 H   0  0  0  0  0  0  0  0  0  0  0  0
  -21.2730  -13.0720   22.4670 H   0  0  0  0  0  0  0  0  0  0  0  0
  -25.4180  -15.2090   20.3340 N   0  0  0  0  0  0  0  0  0  0  0  0
  -24.6500  -15.8470   20.5120 H   0  0  0  0  0  0  0  0  0  0  0  0
  -26.2230  -15.6620   19.9260 H   0  0  0  0  0  0  0  0  0  0  0  0
  -29.1430  -22.7100   20.1540 N   0  0  0  0  0  4  0  0  0  0  0  0
  -29.9220  -22.6960   20.8020 H   0  0  0  0  0  0  0  0  0  0  0  0
  -29.5590  -22.8340   19.2450 H   0  0  0  0  0  0  0  0  0  0  0  0
  -28.2500  -23.9060   20.4730 C   0  0  0  0  0  2  0  0  0  0  0  0
  -28.5700  -25.2370   19.6530 C   0  0  0  0  0  2  0  0  0  0  0  0
  -28.4180  -26.5740   20.2580 O   0  0  0  0  0  0  0  0  0  0  0  0
  -24.6100  -31.8740   23.2280 C   0  0  0  0  0  0  0  0  0  0  0  0
  -27.2560  -27.3450   20.1790 C   0  0  0  0  0  0  0  0  0  0  0  0
  -23.4140  -30.4660   21.5870 C   0  0  0  0  0  3  0  0  0  0  0  0
  -24.8730  -28.9190   20.1630 C   0  0  0  0  0  0  0  0  0  0  0  0
  -25.9470  -30.8060   21.4010 C   0  0  0  0  0  2  0  0  0  0  0  0
  -26.0330  -29.4280   20.7600 C   0  0  0  0  0  0  0  0  0  0  0  0
  -27.2230  -28.6490   20.7600 C   0  0  0  0  0  3  0  0  0  0  0  0
  -26.0730  -26.8740   19.5680 C   0  0  0  0  0  3  0  0  0  0  0  0
  -24.8940  -27.6490   19.5620 C   0  0  0  0  0  3  0  0  0  0  0  0
  -23.6310  -29.7850   20.2080 C   0  0  0  0  0  2  0  0  0  0  0  0
  -24.6760  -31.0670   22.1290 N   0  0  0  0  0  0  0  0  0  0  0  0
  -23.5270  -32.1450   23.7640 O   0  0  0  0  0  0  0  0  0  0  0  0
  -22.7590  -29.4480   22.5500 C   0  0  0  0  0  0  0  0  0  0  0  0
  -21.4320  -29.2720   22.4290 N   0  0  0  0  0  0  0  0  0  0  0  0
  -23.4420  -28.8210   23.3630 O   0  0  0  0  0  0  0  0  0  0  0  0
  -20.9420  -29.8290   21.7440 H   0  0  0  0  0  0  0  0  0  0  0  0
  -18.0550  -28.0900   22.9520 C   0  0  0  0  0  0  0  0  0  0  0  0
  -20.6170  -28.3340   23.2010 C   0  0  0  0  0  3  0  0  0  0  0  0
  -20.7060  -26.9060   22.6150 C   0  0  0  0  0  2  0  0  0  0  0  0
  -19.5930  -26.5960   21.6080 C   0  0  0  0  0  2  0  0  0  0  0  0
  -18.2180  -26.7450   22.2650 C   0  0  0  0  0  2  0  0  0  0  0  0
  -19.1820  -28.8430   23.3770 C   0  0  0  0  0  0  0  0  0  0  0  0
  -18.9760  -30.1040   23.9790 C   0  0  0  0  0  3  0  0  0  0  0  0
  -17.6750  -30.6120   24.1590 C   0  0  0  0  0  3  0  0  0  0  0  0
  -16.5630  -29.8550   23.7510 C   0  0  0  0  0  3  0  0  0  0  0  0
  -16.7540  -28.5970   23.1530 C   0  0  0  0  0  3  0  0  0  0  0  0
  -25.8910  -32.5130   23.8510 C   0  0  0  0  0  3  0  0  0  0  0  0
  -25.5750  -33.9100   24.1810 N   0  0  0  0  0  0  0  0  0  0  0  0
  -25.8970  -34.9650   23.4220 C   0  0  0  0  0  0  0  0  0  0  0  0
  -26.5610  -34.8650   22.3860 O   0  0  0  0  0  0  0  0  0  0  0  0
  -24.9840  -34.0600   24.9860 H   0  0  0  0  0  0  0  0  0  0  0  0
  -24.1590  -36.7510   23.0720 C   0  0  0  0  0  1  0  0  0  0  0  0
  -25.4040  -36.3500   23.8810 C   0  0  0  0  0  3  0  0  0  0  0  0
  -27.5320  -37.2480   24.7130 C   0  0  0  0  0  1  0  0  0  0  0  0
  -26.4300  -37.4080   23.7680 N   0  0  0  0  0  0  0  0  0  0  0  0
  -26.0190  -38.3270   23.9130 H   0  0  0  0  0  0  0  0  0  0  0  0
  -26.4130  -31.7450   25.1260 C   0  0  1  0  0  0  0  0  0  0  0  0
  -25.3210  -31.4990   26.1940 C   0  0  0  0  0  1  0  0  0  0  0  0
  -27.0050  -30.3710   24.7340 C   0  0  0  0  0  1  0  0  0  0  0  0
  -27.5580  -32.5450   25.7900 C   0  0  0  0  0  1  0  0  0  0  0  0
  -29.0380  -21.4310   17.5940 C   0  0  0  0  0  1  0  0  0  0  0  0
  -28.1190  -20.9200   18.7300 C   0  0  0  0  0  3  0  0  0  0  0  0
  -25.9260  -20.6450   17.3970 C   0  0  0  0  0  1  0  0  0  0  0  0
  -26.6610  -21.3890   18.5220 C   0  0  0  0  0  2  0  0  0  0  0  0
  1 10  1  0
  2 16  1  0
  3  8  1  0
  4  5  1  0
  4  3  1  0
  6  5  1  0
  6 21  1  0
  6  7  1  0
  8  2  1  0
  8  7  1  0
  9  2  2  0
 10 15  1  0
 10 17  2  0
 12 15  1  0
 13 11  1  0
 14 16  1  0
 14 12  1  0
 15 11  1  0
 16 13  1  0
 18 19  2  0
 19 38  1  0
 20 19  1  0
 20 23  1  0
 21 22  1  0
 21 18  1  0
 22 20  2  0
 23 24  1  0
 24 25  2  0
 26 29  1  0
 26 25  1  0
 27 26  2  0
 28 27  1  0
 28 23  2  0
 29 30  1  0
 30 31  1  0
 31 32  2  0
 33 32  1  0
 33 37  1  0
 34 33  2  0
 35 30  2  0
 35 34  1  0
 36 35  1  0
 38 39  1  0
 39 42  1  0
 39 41  1  0
 40 38  2  0
 43 18  1  0
 43 44  1  0
 45 43  1  0
 46  1  1  0
 46 49  1  0
 46 47  1  0
 48 46  1  0
 50 51  1  0
 50 49  1  0
 52 63  2  0
 53 51  1  0
 53 58  1  0
 54 62  1  0
 54 64  1  0
 55 61  1  0
 55 57  1  0
 56 62  1  0
 57 58  2  0
 57 56  1  0
 59 53  2  0
 60 59  1  0
 60 55  2  0
 61 54  1  0
 62 52  1  0
 64 66  2  0
 65 64  1  0
 67 65  1  0
 68 77  2  0
 68 73  1  0
 69 65  1  0
 69 73  1  0
 70 69  1  0
 71 72  1  0
 71 70  1  0
 72 68  1  0
 73 74  2  0
 74 75  1  0
 76 75  2  0
 77 76  1  0
 78 52  1  0
 78 79  1  0
 78 88  1  0
 79 82  1  0
 80 84  1  0
 80 79  1  0
 81 80  2  0
 84 83  1  0
 86 84  1  0
 86 87  1  0
 86 85  1  0
 88 91  1  1
 88 89  1  0
 90 88  1  0
 93 92  1  0
 93  1  1  0
 94 95  1  0
 95 93  1  0
M  ISO  4   2 100  16 100  50 101  51 101
M  END
>  <TORSDO>  (14) 
F 21

>  <SCORE>  (14) 
-13.716

>  <name>  (14) 
14

>  <ligand_id>  (14) 
14

>  <original_smiles>  (14) 
[H]c1c([H])c([H])c2c(c1[H])C([H])([H])C([H])([H])C([H])([H])C2([H])N([H])C(=O)C1([H])N(C(=O)C([H])(N([H])C(=O)C([H])(N([H])C([H])([H])[H])C([H])([H])[H])C(C([H])([H])[H])(C([H])([H])[H])C([H])([H])[H])C([H])([H])c2c([H])c(OC([H])([H])C([H])([H])[N+]([H])([H])C([H])(C(=O)N3C([H])([H])C([H])([H])N(C(=O)N4C([H])([H])C([H])([H])C([H])([H])C([H])(n5nc(-c6c([H])c([H])c(Oc7c([H])c([H])c(F)c([H])c7F)c([H])c6[H])c(C(=O)N([H])[H])c5N([H])[H])C4([H])[H])C([H])([H])C3([H])[H])C([H])(C([H])([H])[H])C([H])([H])C([H])([H])[H])c([H])c([H])c2C1([H])[H]

>  <smiles>  (14) 
[H]c1c([H])c([H])c2c(c1[H])C([H])([H])C([H])([H])C([H])([H])C2([H])N([H])C(=O)C1([H])N(C(=O)C([H])(N([H])C(=O)C([H])(N([H])C([H])([H])[H])C([H])([H])[H])C(C([H])([H])[H])(C([H])([H])[H])C([H])([H])[H])C([H])([H])c2c([H])c(OC([H])([H])C([H])([H])[N+]([H])([H])C([H])(C(=O)N3C([H])([H])C([H])([H])N(C(=O)N4C([H])([H])C([H])([H])C([H])([H])C([H])(n5nc(-c6c([H])c([H])c(Oc7c([H])c([H])c(F)c([H])c7F)c([H])c6[H])c(C(=O)N([H])[H])c5N([H])[H])C4([H])[H])C([H])([H])C3([H])[H])C([H])(C([H])([H])[H])C([H])([H])C([H])([H])[H])c([H])c([H])c2C1([H])[H]

$$$$
15:0:0
     RDKit          3D

 95103  0  0  1  0  0  0  0  0999 V2000
  -29.0310  -20.6100   20.6010 C   0  0  0  0  0  3  0  0  0  0  0  0
  -28.1470  -21.4260   21.2060 C   0  0  0  0  0  3  0  0  0  0  0  0
  -31.4610  -19.9880   21.0210 C   0  0  0  0  0  2  0  0  0  0  0  0
  -32.1460  -18.6860   21.4200 C   0  0  0  0  0  2  0  0  0  0  0  0
  -29.9930  -19.6920   21.3410 C   0  0  0  0  0  3  0  0  0  0  0  0
  -31.1330  -17.6090   20.9930 C   0  0  0  0  0  3  0  0  0  0  0  0
  -29.8010  -18.2560   21.0370 N   0  0  0  0  0  4  0  0  0  0  0  0
  -29.3550  -18.1370   20.1430 H   0  0  0  0  0  0  0  0  0  0  0  0
  -29.2190  -17.8320   21.7420 H   0  0  0  0  0  0  0  0  0  0  0  0
  -31.2150  -16.3190   21.8460 C   0  0  0  0  0  2  0  0  0  0  0  0
  -30.7960  -14.4240   20.3030 C   0  0  0  0  0  0  0  0  0  0  0  0
  -30.3720  -12.3680   19.0110 C   0  0  0  0  0  2  0  0  0  0  0  0
  -29.3910  -12.6200   17.8510 C   0  0  0  0  0  2  0  0  0  0  0  0
  -27.9360  -12.4720   18.3320 C   0  0  0  0  0  2  0  0  0  0  0  0
  -27.6500  -13.2800   19.6240 C   0  0  0  0  0  3  0  0  0  0  0  0
  -28.7340  -13.0180   20.6920 C   0  0  0  0  0  2  0  0  0  0  0  0
  -30.0540  -13.3060   20.1000 N   0  0  0  0  0  0  0  0  0  0  0  0
  -31.7900  -14.7100   19.6310 O   0  0  0  0  0  0  0  0  0  0  0  0
  -30.4160  -15.2040   21.3260 N   0  0  0  0  0  0  0  0  0  0  0  0
  -29.6160  -14.8980   21.8600 H   0  0  0  0  0  0  0  0  0  0  0  0
  -25.2690  -13.8840   20.4040 C   0  0  0  0  0  0  0  0  0  0  0  0
  -24.2120  -13.1090   20.8030 C   0  0  0  0  0  0  0  0  0  0  0  0
  -24.6730  -11.7570   20.7480 C   0  0  0  0  0  0  0  0  0  0  0  0
  -26.3090  -13.0040   20.1390 N   0  0  0  0  0  0  0  0  0  0  0  0
  -25.9540  -11.7200   20.4010 N   0  0  0  0  0  0  0  0  0  0  0  0
  -23.9530  -10.4930   20.9550 C   0  0  0  0  0  0  0  0  0  0  0  0
  -24.3940   -9.5390   21.9000 C   0  0  0  0  0  3  0  0  0  0  0  0
  -23.6750   -8.3400   22.0930 C   0  0  0  0  0  3  0  0  0  0  0  0
  -22.5020   -8.0870   21.3440 C   0  0  0  0  0  0  0  0  0  0  0  0
  -22.0810   -9.0290   20.3890 C   0  0  0  0  0  3  0  0  0  0  0  0
  -22.8000  -10.2210   20.1940 C   0  0  0  0  0  3  0  0  0  0  0  0
  -21.7550   -6.9390   21.4470 O   0  0  0  0  0  0  0  0  0  0  0  0
  -21.6920   -6.2240   22.6150 C   0  0  0  0  0  0  0  0  0  0  0  0
  -21.2310   -6.8000   23.8190 C   0  0  0  0  0  3  0  0  0  0  0  0
  -21.1170   -6.0100   24.9800 C   0  0  0  0  0  3  0  0  0  0  0  0
  -21.4520   -4.6430   24.9380 C   0  0  0  0  0  0  0  0  0  0  0  0
  -21.9040   -4.0650   23.7380 C   0  0  0  0  0  3  0  0  0  0  0  0
  -22.0200   -4.8530   22.5800 C   0  0  0  0  0  0  0  0  0  0  0  0
  -22.4370   -4.2870   21.4220 F   0  0  0  0  0  0  0  0  0  0  0  0
  -21.3350   -3.8820   26.0510 F   0  0  0  0  0  0  0  0  0  0  0  0
  -22.8240  -13.5840   21.1190 C   0  0  0  0  0  0  0  0  0  0  0  0
  -22.1200  -12.8770   21.9970 N   0  0  0  0  0  0  0  0  0  0  0  0
  -22.3730  -14.6160   20.6250 O   0  0  0  0  0  0  0  0  0  0  0  0
  -22.4950  -12.0410   22.4190 H   0  0  0  0  0  0  0  0  0  0  0  0
  -21.1870  -13.1740   22.2490 H   0  0  0  0  0  0  0  0  0  0  0  0
  -25.4310  -15.2540   20.2300 N   0  0  0  0  0  0  0  0  0  0  0  0
  -24.6680  -15.9110   20.3610 H   0  0  0  0  0  0  0  0  0  0  0  0
  -26.2760  -15.6910   19.8810 H   0  0  0  0  0  0  0  0  0  0  0  0
  -27.2080  -22.3810   20.4830 C   0  0  0  0  0  2  0  0  0  0  0  0
  -27.3510  -23.7820   20.9480 N   0  0  0  0  0  4  0  0  0  0  0  0
  -27.1320  -23.8030   21.9330 H   0  0  0  0  0  0  0  0  0  0  0  0
  -26.6430  -24.3250   20.4780 H   0  0  0  0  0  0  0  0  0  0  0  0
  -28.6740  -24.4170   20.7190 C   0  0  0  0  0  2  0  0  0  0  0  0
  -28.7260  -25.8940   21.1820 C   0  0  0  0  0  2  0  0  0  0  0  0
  -28.4920  -26.8020   20.1010 O   0  0  0  0  0  0  0  0  0  0  0  0
  -24.5820  -31.9020   23.2080 C   0  0  0  0  0  0  0  0  0  0  0  0
  -27.3150  -27.5080   20.1620 C   0  0  0  0  0  0  0  0  0  0  0  0
  -23.4130  -30.4880   21.5490 C   0  0  0  0  0  3  0  0  0  0  0  0
  -24.9010  -28.9650   20.1520 C   0  0  0  0  0  0  0  0  0  0  0  0
  -25.9340  -30.8830   21.3780 C   0  0  0  0  0  2  0  0  0  0  0  0
  -26.0430  -29.5110   20.7500 C   0  0  0  0  0  0  0  0  0  0  0  0
  -27.2570  -28.7870   20.7550 C   0  0  0  0  0  3  0  0  0  0  0  0
  -26.1600  -26.9690   19.5590 C   0  0  0  0  0  3  0  0  0  0  0  0
  -24.9510  -27.6910   19.5580 C   0  0  0  0  0  3  0  0  0  0  0  0
  -23.6490  -29.8120   20.1740 C   0  0  0  0  0  2  0  0  0  0  0  0
  -24.6600  -31.1070   22.1050 N   0  0  0  0  0  0  0  0  0  0  0  0
  -23.4910  -32.1570   23.7360 O   0  0  0  0  0  0  0  0  0  0  0  0
  -22.7620  -29.4590   22.5000 C   0  0  0  0  0  0  0  0  0  0  0  0
  -21.4390  -29.2680   22.3630 N   0  0  0  0  0  0  0  0  0  0  0  0
  -23.4450  -28.8310   23.3140 O   0  0  0  0  0  0  0  0  0  0  0  0
  -20.9500  -29.8190   21.6710 H   0  0  0  0  0  0  0  0  0  0  0  0
  -18.0660  -28.0750   22.8570 C   0  0  0  0  0  0  0  0  0  0  0  0
  -20.6250  -28.3220   23.1250 C   0  0  0  0  0  3  0  0  0  0  0  0
  -20.7230  -26.8980   22.5300 C   0  0  0  0  0  2  0  0  0  0  0  0
  -19.6170  -26.5910   21.5140 C   0  0  0  0  0  2  0  0  0  0  0  0
  -18.2370  -26.7330   22.1620 C   0  0  0  0  0  2  0  0  0  0  0  0
  -19.1880  -28.8270   23.2930 C   0  0  0  0  0  0  0  0  0  0  0  0
  -18.9740  -30.0840   23.9000 C   0  0  0  0  0  3  0  0  0  0  0  0
  -17.6710  -30.5870   24.0750 C   0  0  0  0  0  3  0  0  0  0  0  0
  -16.5640  -29.8300   23.6560 C   0  0  0  0  0  3  0  0  0  0  0  0
  -16.7620  -28.5750   23.0530 C   0  0  0  0  0  3  0  0  0  0  0  0
  -25.8530  -32.5490   23.8430 C   0  0  0  0  0  3  0  0  0  0  0  0
  -25.5260  -33.9430   24.1680 N   0  0  0  0  0  0  0  0  0  0  0  0
  -25.8620  -34.9970   23.4110 C   0  0  0  0  0  0  0  0  0  0  0  0
  -26.5550  -34.8980   22.3930 O   0  0  0  0  0  0  0  0  0  0  0  0
  -24.9190  -34.0950   24.9590 H   0  0  0  0  0  0  0  0  0  0  0  0
  -24.1290  -36.7760   23.0130 C   0  0  0  0  0  1  0  0  0  0  0  0
  -25.3520  -36.3790   23.8560 C   0  0  0  0  0  3  0  0  0  0  0  0
  -27.4550  -37.2810   24.7500 C   0  0  0  0  0  1  0  0  0  0  0  0
  -26.3800  -37.4410   23.7740 N   0  0  0  0  0  0  0  0  0  0  0  0
  -25.9600  -38.3560   23.9130 H   0  0  0  0  0  0  0  0  0  0  0  0
  -26.3670  -31.7790   25.1210 C   0  0  1  0  0  0  0  0  0  0  0  0
  -25.2630  -31.5190   26.1730 C   0  0  0  0  0  1  0  0  0  0  0  0
  -26.9750  -30.4110   24.7290 C   0  0  0  0  0  1  0  0  0  0  0  0
  -27.5000  -32.5860   25.7970 C   0  0  0  0  0  1  0  0  0  0  0  0
  1  2  2  0
  3  5  1  0
  3  4  1  0
  5  1  1  0
  6  7  1  0
  6  4  1  0
  6 10  1  0
  7  5  1  0
  7  9  1  0
  8  7  1  0
 11 19  1  0
 12 17  1  0
 13 14  1  0
 13 12  1  0
 15 14  1  0
 15 24  1  0
 15 16  1  0
 17 11  1  0
 17 16  1  0
 18 11  2  0
 19 10  1  0
 19 20  1  0
 21 22  2  0
 22 41  1  0
 23 22  1  0
 23 26  1  0
 24 25  1  0
 24 21  1  0
 25 23  2  0
 26 27  1  0
 27 28  2  0
 29 32  1  0
 29 28  1  0
 30 29  2  0
 31 30  1  0
 31 26  2  0
 32 33  1  0
 33 34  1  0
 34 35  2  0
 36 35  1  0
 36 40  1  0
 37 36  2  0
 38 33  2  0
 38 37  1  0
 39 38  1  0
 41 42  1  0
 42 45  1  0
 42 44  1  0
 43 41  2  0
 46 47  1  0
 46 21  1  0
 48 46  1  0
 49 50  1  0
 49  2  1  0
 50 51  1  0
 52 50  1  0
 53 50  1  0
 53 54  1  0
 55 57  1  0
 55 54  1  0
 56 67  2  0
 57 62  1  0
 58 66  1  0
 58 68  1  0
 59 65  1  0
 59 61  1  0
 60 66  1  0
 61 62  2  0
 61 60  1  0
 63 57  2  0
 64 63  1  0
 64 59  2  0
 65 58  1  0
 66 56  1  0
 68 70  2  0
 69 68  1  0
 71 69  1  0
 72 81  2  0
 72 77  1  0
 73 69  1  0
 73 77  1  0
 74 73  1  0
 75 76  1  0
 75 74  1  0
 76 72  1  0
 77 78  2  0
 78 79  1  0
 80 79  2  0
 81 80  1  0
 82 56  1  0
 82 83  1  0
 82 92  1  0
 83 86  1  0
 84 88  1  0
 84 83  1  0
 85 84  2  0
 88 87  1  0
 90 88  1  0
 90 91  1  0
 90 89  1  0
 92 95  1  1
 92 93  1  0
 94 92  1  0
M  ISO  4  11 100  19 100  54 101  55 101
M  END
>  <TORSDO>  (15) 
F 22

>  <SCORE>  (15) 
-13.249

>  <name>  (15) 
15

>  <ligand_id>  (15) 
15

>  <original_smiles>  (15) 
[H]C(=C([H])C1([H])C([H])([H])C([H])([H])C([H])(C([H])([H])N([H])C(=O)N2C([H])([H])C([H])([H])C([H])([H])C([H])(n3nc(-c4c([H])c([H])c(Oc5c([H])c([H])c(F)c([H])c5F)c([H])c4[H])c(C(=O)N([H])[H])c3N([H])[H])C2([H])[H])[N+]1([H])[H])C([H])([H])[N+]([H])([H])C([H])([H])C([H])([H])Oc1c([H])c([H])c2c(c1[H])C([H])([H])N(C(=O)C([H])(N([H])C(=O)C([H])(N([H])C([H])([H])[H])C([H])([H])[H])C(C([H])([H])[H])(C([H])([H])[H])C([H])([H])[H])C([H])(C(=O)N([H])C1([H])c3c([H])c([H])c([H])c([H])c3C([H])([H])C([H])([H])C1([H])[H])C2([H])[H]

>  <smiles>  (15) 
[H]C(=C([H])C1([H])C([H])([H])C([H])([H])C([H])(C([H])([H])N([H])C(=O)N2C([H])([H])C([H])([H])C([H])([H])C([H])(n3nc(-c4c([H])c([H])c(Oc5c([H])c([H])c(F)c([H])c5F)c([H])c4[H])c(C(=O)N([H])[H])c3N([H])[H])C2([H])[H])[N+]1([H])[H])C([H])([H])[N+]([H])([H])C([H])([H])C([H])([H])Oc1c([H])c([H])c2c(c1[H])C([H])([H])N(C(=O)C([H])(N([H])C(=O)C([H])(N([H])C([H])([H])[H])C([H])([H])[H])C(C([H])([H])[H])(C([H])([H])[H])C([H])([H])[H])C([H])(C(=O)N([H])C1([H])c3c([H])c([H])c([H])c([H])c3C([H])([H])C([H])([H])C1([H])[H])C2([H])[H]

$$$$
16:0:0
     RDKit          3D

 99107  0  0  1  0  0  0  0  0999 V2000
  -31.5680  -21.8750   21.6590 N   0  0  0  0  0  0  0  0  0  0  0  0
  -32.4570  -22.2990   21.9100 H   0  0  0  0  0  0  0  0  0  0  0  0
  -30.5490  -22.9190   21.5780 C   0  0  0  0  0  2  0  0  0  0  0  0
  -30.9010  -23.9550   20.4930 C   0  0  0  0  0  2  0  0  0  0  0  0
  -29.9900  -25.1170   20.5430 N   0  0  0  0  0  4  0  0  0  0  0  0
  -29.9570  -25.4530   21.4930 H   0  0  0  0  0  0  0  0  0  0  0  0
  -29.0610  -24.8110   20.2980 H   0  0  0  0  0  0  0  0  0  0  0  0
  -30.3640  -26.2410   19.6510 C   0  0  0  0  0  2  0  0  0  0  0  0
  -29.3600  -27.3970   19.7630 C   0  0  0  0  0  2  0  0  0  0  0  0
  -28.1110  -26.9240   19.2670 O   0  0  0  0  0  0  0  0  0  0  0  0
  -24.4800  -31.7750   23.0830 C   0  0  0  0  0  0  0  0  0  0  0  0
  -26.9810  -27.6850   19.4700 C   0  0  0  0  0  0  0  0  0  0  0  0
  -23.1810  -30.5020   21.4030 C   0  0  0  0  0  3  0  0  0  0  0  0
  -24.5570  -29.1130   19.7660 C   0  0  0  0  0  0  0  0  0  0  0  0
  -25.6780  -30.9260   21.0750 C   0  0  0  0  0  2  0  0  0  0  0  0
  -25.7410  -29.6150   20.3220 C   0  0  0  0  0  0  0  0  0  0  0  0
  -26.9530  -28.9110   20.1780 C   0  0  0  0  0  3  0  0  0  0  0  0
  -25.7790  -27.1890   18.9240 C   0  0  0  0  0  3  0  0  0  0  0  0
  -24.5690  -27.8940   19.0670 C   0  0  0  0  0  3  0  0  0  0  0  0
  -23.3080  -29.9420   19.9600 C   0  0  0  0  0  2  0  0  0  0  0  0
  -24.4680  -31.0760   21.9120 N   0  0  0  0  0  0  0  0  0  0  0  0
  -23.4340  -31.9840   23.7130 O   0  0  0  0  0  0  0  0  0  0  0  0
  -22.6020  -29.3940   22.3110 C   0  0  0  0  0  0  0  0  0  0  0  0
  -21.2820  -29.1700   22.2110 N   0  0  0  0  0  0  0  0  0  0  0  0
  -23.3350  -28.7410   23.0570 O   0  0  0  0  0  0  0  0  0  0  0  0
  -20.7490  -29.7540   21.5800 H   0  0  0  0  0  0  0  0  0  0  0  0
  -17.9800  -27.7860   22.6800 C   0  0  0  0  0  0  0  0  0  0  0  0
  -20.5240  -28.1520   22.9380 C   0  0  0  0  0  3  0  0  0  0  0  0
  -20.6890  -26.7630   22.2830 C   0  0  0  0  0  2  0  0  0  0  0  0
  -19.5910  -26.4410   21.2660 C   0  0  0  0  0  2  0  0  0  0  0  0
  -18.2120  -26.4850   21.9300 C   0  0  0  0  0  2  0  0  0  0  0  0
  -19.0650  -28.5770   23.1400 C   0  0  0  0  0  0  0  0  0  0  0  0
  -18.7950  -29.7960   23.7990 C   0  0  0  0  0  3  0  0  0  0  0  0
  -17.4700  -30.2250   24.0040 C   0  0  0  0  0  3  0  0  0  0  0  0
  -16.3980  -29.4300   23.5620 C   0  0  0  0  0  3  0  0  0  0  0  0
  -16.6530  -28.2120   22.9060 C   0  0  0  0  0  3  0  0  0  0  0  0
  -25.8000  -32.3640   23.6730 C   0  0  0  0  0  3  0  0  0  0  0  0
  -25.5260  -33.7500   24.0730 N   0  0  0  0  0  0  0  0  0  0  0  0
  -25.8650  -34.8290   23.3540 C   0  0  0  0  0  0  0  0  0  0  0  0
  -26.5140  -34.7600   22.3060 O   0  0  0  0  0  0  0  0  0  0  0  0
  -24.9520  -33.8800   24.8930 H   0  0  0  0  0  0  0  0  0  0  0  0
  -24.1680  -36.6660   23.1060 C   0  0  0  0  0  1  0  0  0  0  0  0
  -25.4110  -36.2030   23.8810 C   0  0  0  0  0  3  0  0  0  0  0  0
  -27.5730  -37.0090   24.7230 C   0  0  0  0  0  1  0  0  0  0  0  0
  -26.4630  -37.2400   23.8010 N   0  0  0  0  0  0  0  0  0  0  0  0
  -26.0770  -38.1600   23.9960 H   0  0  0  0  0  0  0  0  0  0  0  0
  -26.3650  -31.5310   24.8880 C   0  0  1  0  0  0  0  0  0  0  0  0
  -25.3160  -31.2490   25.9880 C   0  0  0  0  0  1  0  0  0  0  0  0
  -26.9220  -30.1730   24.4040 C   0  0  0  0  0  1  0  0  0  0  0  0
  -27.5460  -32.2890   25.5390 C   0  0  0  0  0  1  0  0  0  0  0  0
  -31.2890  -20.9450   22.7590 C   0  0  0  0  0  3  0  0  0  0  0  0
  -30.0910  -18.7090   22.8940 C   0  0  0  0  0  3  0  0  0  0  0  0
  -31.8170  -18.9770   21.2030 C   0  0  0  0  0  3  0  0  0  0  0  0
  -29.8930  -17.3790   22.4810 C   0  0  0  0  0  3  0  0  0  0  0  0
  -31.6220  -17.6440   20.7890 C   0  0  0  0  0  3  0  0  0  0  0  0
  -31.0570  -19.5190   22.2620 C   0  0  0  0  0  0  0  0  0  0  0  0
  -30.6540  -16.8300   21.4280 C   0  0  0  0  0  0  0  0  0  0  0  0
  -30.8700  -14.6880   20.1200 C   0  0  0  0  0  0  0  0  0  0  0  0
  -30.5410  -12.5570   18.9120 C   0  0  0  0  0  2  0  0  0  0  0  0
  -29.5240  -12.7340   17.7690 C   0  0  0  0  0  2  0  0  0  0  0  0
  -28.0830  -12.5460   18.2800 C   0  0  0  0  0  2  0  0  0  0  0  0
  -27.7920  -13.3770   19.5570 C   0  0  0  0  0  3  0  0  0  0  0  0
  -28.9080  -13.1710   20.6030 C   0  0  0  0  0  2  0  0  0  0  0  0
  -30.2030  -13.5110   19.9780 N   0  0  0  0  0  0  0  0  0  0  0  0
  -31.8500  -14.9870   19.4310 O   0  0  0  0  0  0  0  0  0  0  0  0
  -30.3810  -15.4740   21.0920 N   0  0  0  0  0  0  0  0  0  0  0  0
  -29.6200  -15.0500   21.5980 H   0  0  0  0  0  0  0  0  0  0  0  0
  -25.4340  -13.9230   20.4420 C   0  0  0  0  0  0  0  0  0  0  0  0
  -24.4010  -13.1210   20.8450 C   0  0  0  0  0  0  0  0  0  0  0  0
  -24.8720  -11.7780   20.7210 C   0  0  0  0  0  0  0  0  0  0  0  0
  -26.4720  -13.0670   20.1060 N   0  0  0  0  0  0  0  0  0  0  0  0
  -26.1380  -11.7690   20.3260 N   0  0  0  0  0  0  0  0  0  0  0  0
  -24.1740  -10.4980   20.9010 C   0  0  0  0  0  0  0  0  0  0  0  0
  -24.5950   -9.5570   21.8660 C   0  0  0  0  0  3  0  0  0  0  0  0
  -23.8970   -8.3420   22.0310 C   0  0  0  0  0  3  0  0  0  0  0  0
  -22.7640   -8.0580   21.2320 C   0  0  0  0  0  0  0  0  0  0  0  0
  -22.3620   -8.9890   20.2580 C   0  0  0  0  0  3  0  0  0  0  0  0
  -23.0620  -10.1960   20.0900 C   0  0  0  0  0  3  0  0  0  0  0  0
  -22.0400   -6.8920   21.3060 O   0  0  0  0  0  0  0  0  0  0  0  0
  -21.8320   -6.2480   22.4990 C   0  0  0  0  0  0  0  0  0  0  0  0
  -21.1850   -6.8800   23.5830 C   0  0  0  0  0  3  0  0  0  0  0  0
  -20.9300   -6.1590   24.7680 C   0  0  0  0  0  3  0  0  0  0  0  0
  -21.3100   -4.8070   24.8650 C   0  0  0  0  0  0  0  0  0  0  0  0
  -21.9500   -4.1750   23.7840 C   0  0  0  0  0  3  0  0  0  0  0  0
  -22.2070   -4.8940   22.6030 C   0  0  0  0  0  0  0  0  0  0  0  0
  -22.8040   -4.2750   21.5560 F   0  0  0  0  0  0  0  0  0  0  0  0
  -21.0580   -4.1120   25.9990 F   0  0  0  0  0  0  0  0  0  0  0  0
  -23.0200  -13.5650   21.2340 C   0  0  0  0  0  0  0  0  0  0  0  0
  -22.3660  -12.8280   22.1250 N   0  0  0  0  0  0  0  0  0  0  0  0
  -22.5310  -14.6020   20.7840 O   0  0  0  0  0  0  0  0  0  0  0  0
  -22.7750  -11.9900   22.5100 H   0  0  0  0  0  0  0  0  0  0  0  0
  -21.4430  -13.1060   22.4260 H   0  0  0  0  0  0  0  0  0  0  0  0
  -25.5740  -15.3030   20.3160 N   0  0  0  0  0  0  0  0  0  0  0  0
  -24.8140  -15.9460   20.5030 H   0  0  0  0  0  0  0  0  0  0  0  0
  -26.4050  -15.7620   19.9630 H   0  0  0  0  0  0  0  0  0  0  0  0
  -32.4380  -21.0260   23.7990 C   0  0  1  0  0  0  0  0  0  0  0  0
  -32.2840  -20.1030   24.7490 F   0  0  0  0  0  0  0  0  0  0  0  0
  -33.6230  -20.8570   23.2110 F   0  0  0  0  0  0  0  0  0  0  0  0
  -32.4270  -22.2300   24.3730 F   0  0  0  0  0  0  0  0  0  0  0  0
  1  2  1  0
  3  1  1  0
  4  5  1  0
  4  3  1  0
  5  6  1  0
  7  5  1  0
  8  9  1  0
  8  5  1  0
 10 12  1  0
 10  9  1  0
 11 22  2  0
 12 17  1  0
 13 21  1  0
 13 23  1  0
 14 20  1  0
 14 16  1  0
 15 21  1  0
 16 15  1  0
 17 16  2  0
 18 19  1  0
 18 12  2  0
 19 14  2  0
 20 13  1  0
 21 11  1  0
 23 25  2  0
 24 23  1  0
 26 24  1  0
 27 36  2  0
 27 32  1  0
 28 24  1  0
 28 32  1  0
 29 28  1  0
 30 31  1  0
 30 29  1  0
 31 27  1  0
 32 33  2  0
 33 34  1  0
 35 34  2  0
 36 35  1  0
 37 11  1  0
 37 38  1  0
 37 47  1  0
 38 41  1  0
 39 43  1  0
 39 38  1  0
 40 39  2  0
 43 42  1  0
 45 43  1  0
 45 46  1  0
 45 44  1  0
 47 50  1  1
 47 48  1  0
 49 47  1  0
 51  1  1  0
 51 96  1  0
 53 56  1  0
 54 52  1  0
 55 53  2  0
 55 57  1  0
 56 51  1  0
 56 52  2  0
 57 54  2  0
 58 66  1  0
 59 64  1  0
 60 61  1  0
 60 59  1  0
 62 61  1  0
 62 71  1  0
 62 63  1  0
 64 58  1  0
 64 63  1  0
 65 58  2  0
 66 57  1  0
 66 67  1  0
 68 69  2  0
 69 88  1  0
 70 69  1  0
 70 73  1  0
 71 72  1  0
 71 68  1  0
 72 70  2  0
 73 74  1  0
 74 75  2  0
 76 79  1  0
 76 75  1  0
 77 76  2  0
 78 77  1  0
 78 73  2  0
 79 80  1  0
 80 85  2  0
 80 81  1  0
 81 82  2  0
 82 83  1  0
 83 87  1  0
 84 83  2  0
 85 84  1  0
 86 85  1  0
 88 89  1  0
 89 92  1  0
 89 91  1  0
 90 88  2  0
 93 68  1  0
 93 94  1  0
 95 93  1  0
 96 99  1  1
 96 97  1  0
 98 96  1  0
M  ISO  4   9 101  10 101  58 100  66 100
M  END
>  <TORSDO>  (16) 
F 24

>  <SCORE>  (16) 
-9.765

>  <name>  (16) 
16

>  <ligand_id>  (16) 
16

>  <original_smiles>  (16) 
[H]c1c([H])c([H])c2c(c1[H])C([H])([H])C([H])([H])C([H])([H])C2([H])N([H])C(=O)C1([H])N(C(=O)C([H])(N([H])C(=O)C([H])(N([H])C([H])([H])[H])C([H])([H])[H])C(C([H])([H])[H])(C([H])([H])[H])C([H])([H])[H])C([H])([H])c2c([H])c(OC([H])([H])C([H])([H])[N+]([H])([H])C([H])([H])C([H])([H])N([H])C([H])(c3c([H])c([H])c(N([H])C(=O)N4C([H])([H])C([H])([H])C([H])([H])C([H])(n5nc(-c6c([H])c([H])c(Oc7c([H])c([H])c(F)c([H])c7F)c([H])c6[H])c(C(=O)N([H])[H])c5N([H])[H])C4([H])[H])c([H])c3[H])C(F)(F)F)c([H])c([H])c2C1([H])[H]

>  <smiles>  (16) 
[H]c1c([H])c([H])c2c(c1[H])C([H])([H])C([H])([H])C([H])([H])C2([H])N([H])C(=O)C1([H])N(C(=O)C([H])(N([H])C(=O)C([H])(N([H])C([H])([H])[H])C([H])([H])[H])C(C([H])([H])[H])(C([H])([H])[H])C([H])([H])[H])C([H])([H])c2c([H])c(OC([H])([H])C([H])([H])[N+]([H])([H])C([H])([H])C([H])([H])N([H])C([H])(c3c([H])c([H])c(N([H])C(=O)N4C([H])([H])C([H])([H])C([H])([H])C([H])(n5nc(-c6c([H])c([H])c(Oc7c([H])c([H])c(F)c([H])c7F)c([H])c6[H])c(C(=O)N([H])[H])c5N([H])[H])C4([H])[H])c([H])c3[H])C(F)(F)F)c([H])c([H])c2C1([H])[H]

$$$$
17:0:0
     RDKit          3D

 91 99  0  0  1  0  0  0  0  0999 V2000
  -30.2120  -21.6050   20.6070 C   0  0  0  0  0  2  0  0  0  0  0  0
  -28.9250  -17.9120   20.1480 C   0  0  0  0  0  2  0  0  0  0  0  0
  -30.7910  -17.8900   21.7640 C   0  0  0  0  0  2  0  0  0  0  0  0
  -29.2170  -19.4140   19.8220 C   0  0  0  0  0  2  0  0  0  0  0  0
  -31.0730  -19.3930   21.4270 C   0  0  0  0  0  2  0  0  0  0  0  0
  -30.1870  -17.1150   20.5680 C   0  0  0  0  0  3  0  0  0  0  0  0
  -29.8810  -20.1610   20.9350 N   0  0  1  0  0  4  0  0  0  0  0  0
  -29.2300  -20.2140   21.7060 H   0  0  0  0  0  0  0  0  0  0  0  0
  -30.6320  -14.5910   20.4610 C   0  0  0  0  0  0  0  0  0  0  0  0
  -30.3660  -12.3900   19.3600 C   0  0  0  0  0  2  0  0  0  0  0  0
  -29.4280  -12.5670   18.1440 C   0  0  0  0  0  2  0  0  0  0  0  0
  -27.9540  -12.4110   18.5670 C   0  0  0  0  0  2  0  0  0  0  0  0
  -27.6010  -13.2540   19.8230 C   0  0  0  0  0  3  0  0  0  0  0  0
  -28.6580  -13.0760   20.9390 C   0  0  0  0  0  2  0  0  0  0  0  0
  -29.9760  -13.3940   20.3690 N   0  0  0  0  0  0  0  0  0  0  0  0
  -31.7780  -14.7400   20.0310 O   0  0  0  0  0  0  0  0  0  0  0  0
  -29.8910  -15.6700   20.8390 N   0  0  0  0  0  0  0  0  0  0  0  0
  -28.9650  -15.4550   21.1770 H   0  0  0  0  0  0  0  0  0  0  0  0
  -25.2010  -13.8470   20.5300 C   0  0  0  0  0  0  0  0  0  0  0  0
  -24.1320  -13.0700   20.8930 C   0  0  0  0  0  0  0  0  0  0  0  0
  -24.5960  -11.7200   20.8570 C   0  0  0  0  0  0  0  0  0  0  0  0
  -26.2480  -12.9690   20.2990 N   0  0  0  0  0  0  0  0  0  0  0  0
  -25.8870  -11.6850   20.5510 N   0  0  0  0  0  0  0  0  0  0  0  0
  -23.8670  -10.4570   21.0390 C   0  0  0  0  0  0  0  0  0  0  0  0
  -24.2900   -9.4920   21.9810 C   0  0  0  0  0  3  0  0  0  0  0  0
  -23.5660   -8.2920   22.1520 C   0  0  0  0  0  3  0  0  0  0  0  0
  -22.4050   -8.0480   21.3810 C   0  0  0  0  0  0  0  0  0  0  0  0
  -21.9990   -9.0030   20.4310 C   0  0  0  0  0  3  0  0  0  0  0  0
  -22.7250  -10.1930   20.2580 C   0  0  0  0  0  3  0  0  0  0  0  0
  -21.6520   -6.9010   21.4630 O   0  0  0  0  0  0  0  0  0  0  0  0
  -21.5780   -6.1670   22.6190 C   0  0  0  0  0  0  0  0  0  0  0  0
  -21.0980   -6.7250   23.8250 C   0  0  0  0  0  3  0  0  0  0  0  0
  -20.9730   -5.9170   24.9730 C   0  0  0  0  0  3  0  0  0  0  0  0
  -21.3170   -4.5530   24.9170 C   0  0  0  0  0  0  0  0  0  0  0  0
  -21.7900   -3.9950   23.7170 C   0  0  0  0  0  3  0  0  0  0  0  0
  -21.9170   -4.8000   22.5700 C   0  0  0  0  0  0  0  0  0  0  0  0
  -22.3520   -4.2500   21.4100 F   0  0  0  0  0  0  0  0  0  0  0  0
  -21.1900   -3.7750   26.0180 F   0  0  0  0  0  0  0  0  0  0  0  0
  -22.7330  -13.5450   21.1620 C   0  0  0  0  0  0  0  0  0  0  0  0
  -22.0010  -12.8450   22.0210 N   0  0  0  0  0  0  0  0  0  0  0  0
  -22.2960  -14.5710   20.6450 O   0  0  0  0  0  0  0  0  0  0  0  0
  -22.3640  -12.0130   22.4640 H   0  0  0  0  0  0  0  0  0  0  0  0
  -21.0610  -13.1450   22.2400 H   0  0  0  0  0  0  0  0  0  0  0  0
  -25.3660  -15.2180   20.3600 N   0  0  0  0  0  0  0  0  0  0  0  0
  -24.5980  -15.8720   20.4560 H   0  0  0  0  0  0  0  0  0  0  0  0
  -26.2170  -15.6520   20.0260 H   0  0  0  0  0  0  0  0  0  0  0  0
  -29.0280  -22.6360   20.7200 C   0  0  0  0  0  3  0  0  0  0  0  0
  -28.4880  -22.4770   21.9300 F   0  0  0  0  0  0  0  0  0  0  0  0
  -29.3740  -24.1700   20.5230 C   0  0  0  0  0  3  0  0  0  0  0  0
  -28.1400  -25.1480   20.5700 C   0  0  0  0  0  3  0  0  0  0  0  0
  -28.3610  -26.5720   20.2850 O   0  0  0  0  0  0  0  0  0  0  0  0
  -24.6040  -31.9190   23.2650 C   0  0  0  0  0  0  0  0  0  0  0  0
  -27.2230  -27.3820   20.2370 C   0  0  0  0  0  0  0  0  0  0  0  0
  -23.3990  -30.5200   21.6250 C   0  0  0  0  0  3  0  0  0  0  0  0
  -24.8490  -28.9650   20.2110 C   0  0  0  0  0  0  0  0  0  0  0  0
  -25.9350  -30.8430   21.4440 C   0  0  0  0  0  2  0  0  0  0  0  0
  -26.0140  -29.4650   20.8070 C   0  0  0  0  0  0  0  0  0  0  0  0
  -27.2030  -28.6860   20.8110 C   0  0  0  0  0  3  0  0  0  0  0  0
  -26.0390  -26.9290   19.6090 C   0  0  0  0  0  3  0  0  0  0  0  0
  -24.8620  -27.7010   19.6030 C   0  0  0  0  0  3  0  0  0  0  0  0
  -23.6120  -29.8370   20.2490 C   0  0  0  0  0  2  0  0  0  0  0  0
  -24.6640  -31.1110   22.1680 N   0  0  0  0  0  0  0  0  0  0  0  0
  -23.5220  -32.2010   23.7980 O   0  0  0  0  0  0  0  0  0  0  0  0
  -22.7330  -29.5090   22.5870 C   0  0  0  0  0  0  0  0  0  0  0  0
  -21.4050  -29.3350   22.4580 N   0  0  0  0  0  0  0  0  0  0  0  0
  -23.4070  -28.8800   23.4070 O   0  0  0  0  0  0  0  0  0  0  0  0
  -20.9220  -29.8930   21.7660 H   0  0  0  0  0  0  0  0  0  0  0  0
  -18.0170  -28.1750   22.9620 C   0  0  0  0  0  0  0  0  0  0  0  0
  -20.5800  -28.4070   23.2280 C   0  0  0  0  0  3  0  0  0  0  0  0
  -20.6630  -26.9740   22.6510 C   0  0  0  0  0  2  0  0  0  0  0  0
  -19.5570  -26.6640   21.6380 C   0  0  0  0  0  2  0  0  0  0  0  0
  -18.1780  -26.8250   22.2840 C   0  0  0  0  0  2  0  0  0  0  0  0
  -19.1460  -28.9240   23.3900 C   0  0  0  0  0  0  0  0  0  0  0  0
  -18.9410  -30.1890   23.9820 C   0  0  0  0  0  3  0  0  0  0  0  0
  -17.6430  -30.7050   24.1520 C   0  0  0  0  0  3  0  0  0  0  0  0
  -16.5300  -29.9520   23.7410 C   0  0  0  0  0  3  0  0  0  0  0  0
  -16.7180  -28.6900   23.1510 C   0  0  0  0  0  3  0  0  0  0  0  0
  -25.8900  -32.5460   23.8890 C   0  0  0  0  0  3  0  0  0  0  0  0
  -26.4020  -31.7730   25.1660 C   0  0  1  0  0  0  0  0  0  0  0  0
  -25.3070  -31.5350   26.2320 C   0  0  0  0  0  1  0  0  0  0  0  0
  -26.9850  -30.3950   24.7770 C   0  0  0  0  0  1  0  0  0  0  0  0
  -27.5530  -32.5640   25.8310 C   0  0  0  0  0  1  0  0  0  0  0  0
  -25.5850  -33.9460   24.2190 N   0  0  0  0  0  0  0  0  0  0  0  0
  -25.9130  -34.9960   23.4530 C   0  0  0  0  0  0  0  0  0  0  0  0
  -26.5730  -34.8880   22.4150 O   0  0  0  0  0  0  0  0  0  0  0  0
  -25.0010  -34.1020   25.0260 H   0  0  0  0  0  0  0  0  0  0  0  0
  -24.1820  -36.7890   23.1070 C   0  0  0  0  0  1  0  0  0  0  0  0
  -25.4300  -36.3860   23.9090 C   0  0  0  0  0  3  0  0  0  0  0  0
  -27.5700  -37.2730   24.7220 C   0  0  0  0  0  1  0  0  0  0  0  0
  -26.4620  -37.4380   23.7850 N   0  0  0  0  0  0  0  0  0  0  0  0
  -26.0570  -38.3600   23.9270 H   0  0  0  0  0  0  0  0  0  0  0  0
  1 47  1  0
  1  7  1  0
  2  6  1  0
  4  2  1  0
  4  7  1  0
  5  3  1  0
  6 17  1  0
  6  3  1  0
  7  5  1  0
  7  8  1  1
  9 17  1  0
 10 15  1  0
 11 12  1  0
 11 10  1  0
 13 12  1  0
 13 22  1  0
 13 14  1  0
 15  9  1  0
 15 14  1  0
 16  9  2  0
 17 18  1  0
 19 20  2  0
 20 39  1  0
 21 20  1  0
 21 24  1  0
 22 19  1  0
 22 23  1  0
 23 21  2  0
 24 25  1  0
 25 26  2  0
 27 30  1  0
 27 26  1  0
 28 27  2  0
 29 28  1  0
 29 24  2  0
 30 31  1  0
 31 32  1  0
 32 33  2  0
 34 33  1  0
 34 38  1  0
 35 34  2  0
 36 31  2  0
 36 35  1  0
 37 36  1  0
 39 40  1  0
 40 43  1  0
 40 42  1  0
 41 39  2  0
 44 45  1  0
 44 19  1  0
 46 44  1  0
 47 48  1  0
 49 50  2  0
 49 47  1  0
 51 50  1  0
 52 63  2  0
 53 51  1  0
 53 58  1  0
 54 62  1  0
 54 64  1  0
 55 61  1  0
 55 57  1  0
 56 62  1  0
 57 58  2  0
 57 56  1  0
 59 53  2  0
 60 59  1  0
 60 55  2  0
 61 54  1  0
 62 52  1  0
 64 66  2  0
 65 64  1  0
 67 65  1  0
 68 77  2  0
 68 73  1  0
 69 65  1  0
 69 73  1  0
 70 69  1  0
 71 72  1  0
 71 70  1  0
 72 68  1  0
 73 74  2  0
 74 75  1  0
 76 75  2  0
 77 76  1  0
 78 52  1  0
 78 83  1  0
 78 79  1  0
 79 82  1  1
 79 80  1  0
 81 79  1  0
 83 86  1  0
 84 88  1  0
 84 83  1  0
 85 84  2  0
 88 87  1  0
 90 88  1  0
 90 91  1  0
 90 89  1  0
M  ISO  4   9 100  17 100  50 101  51 101
M  END
>  <TORSDO>  (17) 
F 20

>  <SCORE>  (17) 
-14.067

>  <name>  (17) 
17

>  <ligand_id>  (17) 
17

>  <original_smiles>  (17) 
[H]c1c([H])c([H])c2c(c1[H])C([H])([H])C([H])([H])C([H])([H])C2([H])N([H])C(=O)C1([H])N(C(=O)C([H])(N([H])C(=O)C([H])(N([H])C([H])([H])[H])C([H])([H])[H])C(C([H])([H])[H])(C([H])([H])[H])C([H])([H])[H])C([H])([H])c2c([H])c(OC([H])([H])C([H])([H])C([H])(F)C([H])([H])[N+]3([H])C([H])([H])C([H])([H])C([H])(N([H])C(=O)N4C([H])([H])C([H])([H])C([H])([H])C([H])(n5nc(-c6c([H])c([H])c(Oc7c([H])c([H])c(F)c([H])c7F)c([H])c6[H])c(C(=O)N([H])[H])c5N([H])[H])C4([H])[H])C([H])([H])C3([H])[H])c([H])c([H])c2C1([H])[H]

>  <smiles>  (17) 
[H]c1c([H])c([H])c2c(c1[H])C([H])([H])C([H])([H])C([H])([H])C2([H])N([H])C(=O)C1([H])N(C(=O)C([H])(N([H])C(=O)C([H])(N([H])C([H])([H])[H])C([H])([H])[H])C(C([H])([H])[H])(C([H])([H])[H])C([H])([H])[H])C([H])([H])c2c([H])c(OC([H])([H])C([H])([H])C([H])(F)C([H])([H])[N+]3([H])C([H])([H])C([H])([H])C([H])(N([H])C(=O)N4C([H])([H])C([H])([H])C([H])([H])C([H])(n5nc(-c6c([H])c([H])c(Oc7c([H])c([H])c(F)c([H])c7F)c([H])c6[H])c(C(=O)N([H])[H])c5N([H])[H])C4([H])[H])C([H])([H])C3([H])[H])c([H])c([H])c2C1([H])[H]

$$$$
18:0:0
     RDKit          3D

 96105  0  0  1  0  0  0  0  0999 V2000
  -29.2710  -18.9800   20.8390 C   0  0  0  0  0  2  0  0  0  0  0  0
  -30.8710  -20.4220   19.8220 C   0  0  0  0  0  2  0  0  0  0  0  0
  -29.6580  -20.5010   20.7550 C   0  0  0  0  0  3  0  0  0  0  0  0
  -29.8280  -18.2670   19.5640 C   0  0  0  0  0  3  0  0  0  0  0  0
  -30.5650  -19.3450   18.8610 N   0  0  0  0  0  4  0  0  0  0  0  0
  -31.4020  -18.9930   18.4240 H   0  0  0  0  0  0  0  0  0  0  0  0
  -29.9680  -19.7180   18.1380 H   0  0  0  0  0  0  0  0  0  0  0  0
  -28.6230  -21.5210   20.1710 C   0  0  0  0  0  0  0  0  0  0  0  0
  -28.6420  -22.8020   20.6180 N   0  0  0  0  0  0  0  0  0  0  0  0
  -27.8790  -21.1660   19.2560 O   0  0  0  0  0  0  0  0  0  0  0  0
  -29.2400  -22.9910   21.4110 H   0  0  0  0  0  0  0  0  0  0  0  0
  -28.0590  -24.0040   19.9540 C   0  0  0  0  0  2  0  0  0  0  0  0
  -28.2290  -25.3300   20.7820 C   0  0  0  0  0  2  0  0  0  0  0  0
  -28.2510  -26.6140   20.0890 O   0  0  0  0  0  0  0  0  0  0  0  0
  -24.5410  -31.9070   23.2270 C   0  0  0  0  0  0  0  0  0  0  0  0
  -27.1090  -27.3960   20.1300 C   0  0  0  0  0  0  0  0  0  0  0  0
  -23.3150  -30.5170   21.5930 C   0  0  0  0  0  3  0  0  0  0  0  0
  -24.7420  -28.9660   20.1530 C   0  0  0  0  0  0  0  0  0  0  0  0
  -25.8500  -30.8400   21.3850 C   0  0  0  0  0  2  0  0  0  0  0  0
  -25.9150  -29.4680   20.7340 C   0  0  0  0  0  0  0  0  0  0  0  0
  -27.1050  -28.6930   20.7090 C   0  0  0  0  0  3  0  0  0  0  0  0
  -25.9220  -26.9200   19.5380 C   0  0  0  0  0  3  0  0  0  0  0  0
  -24.7460  -27.6970   19.5490 C   0  0  0  0  0  3  0  0  0  0  0  0
  -23.5100  -29.8440   20.2090 C   0  0  0  0  0  2  0  0  0  0  0  0
  -24.5870  -31.1060   22.1240 N   0  0  0  0  0  0  0  0  0  0  0  0
  -23.4620  -32.1870   23.7710 O   0  0  0  0  0  0  0  0  0  0  0  0
  -22.6610  -29.4980   22.5540 C   0  0  0  0  0  0  0  0  0  0  0  0
  -21.3350  -29.3220   22.4310 N   0  0  0  0  0  0  0  0  0  0  0  0
  -23.3470  -28.8700   23.3650 O   0  0  0  0  0  0  0  0  0  0  0  0
  -20.8460  -29.8760   21.7470 H   0  0  0  0  0  0  0  0  0  0  0  0
  -17.9560  -28.1430   22.9500 C   0  0  0  0  0  0  0  0  0  0  0  0
  -20.5180  -28.3850   23.2040 C   0  0  0  0  0  3  0  0  0  0  0  0
  -20.6060  -26.9570   22.6180 C   0  0  0  0  0  2  0  0  0  0  0  0
  -19.4940  -26.6460   21.6130 C   0  0  0  0  0  2  0  0  0  0  0  0
  -18.1180  -26.7970   22.2660 C   0  0  0  0  0  2  0  0  0  0  0  0
  -19.0830  -28.8960   23.3740 C   0  0  0  0  0  0  0  0  0  0  0  0
  -18.8770  -30.1600   23.9700 C   0  0  0  0  0  3  0  0  0  0  0  0
  -17.5750  -30.6680   24.1470 C   0  0  0  0  0  3  0  0  0  0  0  0
  -16.4630  -29.9130   23.7380 C   0  0  0  0  0  3  0  0  0  0  0  0
  -16.6550  -28.6500   23.1460 C   0  0  0  0  0  3  0  0  0  0  0  0
  -25.8320  -32.5300   23.8400 C   0  0  0  0  0  3  0  0  0  0  0  0
  -25.5370  -33.9310   24.1730 N   0  0  0  0  0  0  0  0  0  0  0  0
  -25.8810  -34.9810   23.4150 C   0  0  0  0  0  0  0  0  0  0  0  0
  -26.5520  -34.8710   22.3850 O   0  0  0  0  0  0  0  0  0  0  0  0
  -24.9440  -34.0920   24.9730 H   0  0  0  0  0  0  0  0  0  0  0  0
  -24.1760  -36.7910   23.0460 C   0  0  0  0  0  1  0  0  0  0  0  0
  -25.4040  -36.3740   23.8710 C   0  0  0  0  0  3  0  0  0  0  0  0
  -27.5390  -37.2280   24.7310 C   0  0  0  0  0  1  0  0  0  0  0  0
  -26.4510  -37.4140   23.7730 N   0  0  0  0  0  0  0  0  0  0  0  0
  -26.0570  -38.3420   23.9130 H   0  0  0  0  0  0  0  0  0  0  0  0
  -26.3530  -31.7550   25.1120 C   0  0  1  0  0  0  0  0  0  0  0  0
  -25.2620  -31.5250   26.1830 C   0  0  0  0  0  1  0  0  0  0  0  0
  -26.9280  -30.3750   24.7160 C   0  0  0  0  0  1  0  0  0  0  0  0
  -27.5140  -32.5420   25.7650 C   0  0  0  0  0  1  0  0  0  0  0  0
  -30.7540  -16.9740   19.6530 C   0  0  0  0  0  3  0  0  0  0  0  0
  -30.9900  -14.6880   20.6550 C   0  0  0  0  0  0  0  0  0  0  0  0
  -30.7340  -12.4780   19.6250 C   0  0  0  0  0  2  0  0  0  0  0  0
  -29.8530  -12.6300   18.3660 C   0  0  0  0  0  2  0  0  0  0  0  0
  -28.3640  -12.5040   18.7330 C   0  0  0  0  0  2  0  0  0  0  0  0
  -27.9620  -13.3910   19.9390 C   0  0  0  0  0  3  0  0  0  0  0  0
  -28.9640  -13.2570   21.1100 C   0  0  0  0  0  2  0  0  0  0  0  0
  -30.3060  -13.5150   20.5790 N   0  0  0  0  0  0  0  0  0  0  0  0
  -32.2130  -14.7340   20.5390 O   0  0  0  0  0  0  0  0  0  0  0  0
  -30.2530  -15.8150   20.4540 N   0  0  0  0  0  0  0  0  0  0  0  0
  -29.2560  -15.7360   20.5810 H   0  0  0  0  0  0  0  0  0  0  0  0
  -25.5440  -14.0200   20.5310 C   0  0  0  0  0  0  0  0  0  0  0  0
  -24.4550  -13.2600   20.8610 C   0  0  0  0  0  0  0  0  0  0  0  0
  -24.9120  -11.9060   20.8830 C   0  0  0  0  0  0  0  0  0  0  0  0
  -26.5920  -13.1300   20.3660 N   0  0  0  0  0  0  0  0  0  0  0  0
  -26.2150  -11.8560   20.6460 N   0  0  0  0  0  0  0  0  0  0  0  0
  -24.1710  -10.6500   21.0560 C   0  0  0  0  0  0  0  0  0  0  0  0
  -24.5540   -9.6920   22.0210 C   0  0  0  0  0  3  0  0  0  0  0  0
  -23.8110   -8.5030   22.1800 C   0  0  0  0  0  3  0  0  0  0  0  0
  -22.6720   -8.2620   21.3760 C   0  0  0  0  0  0  0  0  0  0  0  0
  -22.3090   -9.2090   20.4020 C   0  0  0  0  0  3  0  0  0  0  0  0
  -23.0520  -10.3900   20.2400 C   0  0  0  0  0  3  0  0  0  0  0  0
  -21.9050   -7.1240   21.4450 O   0  0  0  0  0  0  0  0  0  0  0  0
  -21.7960   -6.4000   22.6060 C   0  0  0  0  0  0  0  0  0  0  0  0
  -21.3190   -6.9770   23.8030 C   0  0  0  0  0  3  0  0  0  0  0  0
  -21.1580   -6.1770   24.9530 C   0  0  0  0  0  3  0  0  0  0  0  0
  -21.4640   -4.8040   24.9040 C   0  0  0  0  0  0  0  0  0  0  0  0
  -21.9370   -4.2290   23.7120 C   0  0  0  0  0  3  0  0  0  0  0  0
  -22.1000   -5.0240   22.5640 C   0  0  0  0  0  0  0  0  0  0  0  0
  -22.5350   -4.4610   21.4110 F   0  0  0  0  0  0  0  0  0  0  0  0
  -21.3020   -4.0350   26.0050 F   0  0  0  0  0  0  0  0  0  0  0  0
  -23.0490  -13.7500   21.0430 C   0  0  0  0  0  0  0  0  0  0  0  0
  -22.2720  -13.0920   21.8950 N   0  0  0  0  0  0  0  0  0  0  0  0
  -22.6450  -14.7570   20.4610 O   0  0  0  0  0  0  0  0  0  0  0  0
  -22.6080  -12.2810   22.3940 H   0  0  0  0  0  0  0  0  0  0  0  0
  -21.3260  -13.4080   22.0510 H   0  0  0  0  0  0  0  0  0  0  0  0
  -25.7220  -15.3860   20.3340 N   0  0  0  0  0  0  0  0  0  0  0  0
  -24.9420  -16.0330   20.3830 H   0  0  0  0  0  0  0  0  0  0  0  0
  -26.5710  -15.8170   19.9950 H   0  0  0  0  0  0  0  0  0  0  0  0
  -32.1900  -17.1180   17.3920 C   0  0  0  0  0  2  0  0  0  0  0  0
  -32.2030  -15.6610   17.7590 C   0  0  0  0  0  2  0  0  0  0  0  0
  -31.0430  -16.5350   18.2010 C   0  0  0  0  0  3  0  0  0  0  0  0
  2  3  1  0
  3  8  1  0
  3  1  1  0
  4 55  1  0
  4  1  1  0
  5  4  1  0
  5  2  1  0
  6  5  1  0
  7  5  1  0
  8  9  1  0
  9 11  1  0
 10  8  2  0
 12  9  1  0
 12 13  1  0
 14 16  1  0
 14 13  1  0
 15 26  2  0
 16 21  1  0
 17 25  1  0
 17 27  1  0
 18 24  1  0
 18 20  1  0
 19 25  1  0
 20 19  1  0
 21 20  2  0
 22 23  1  0
 22 16  2  0
 23 18  2  0
 24 17  1  0
 25 15  1  0
 27 29  2  0
 28 27  1  0
 30 28  1  0
 31 40  2  0
 31 36  1  0
 32 28  1  0
 32 36  1  0
 33 32  1  0
 34 35  1  0
 34 33  1  0
 35 31  1  0
 36 37  2  0
 37 38  1  0
 39 38  2  0
 40 39  1  0
 41 15  1  0
 41 42  1  0
 41 51  1  0
 42 45  1  0
 43 47  1  0
 43 42  1  0
 44 43  2  0
 47 46  1  0
 49 47  1  0
 49 50  1  0
 49 48  1  0
 51 54  1  1
 51 52  1  0
 53 51  1  0
 55 64  1  0
 57 62  1  0
 58 59  1  0
 58 57  1  0
 60 59  1  0
 60 69  1  0
 60 61  1  0
 62 56  1  0
 62 61  1  0
 63 56  2  0
 64 65  1  0
 64 56  1  0
 66 67  2  0
 67 68  1  0
 67 86  1  0
 68 71  1  0
 69 66  1  0
 69 70  1  0
 70 68  2  0
 71 72  1  0
 72 73  2  0
 74 77  1  0
 74 73  1  0
 75 74  2  0
 76 75  1  0
 76 71  2  0
 77 78  1  0
 78 79  1  0
 79 80  2  0
 81 80  1  0
 81 85  1  0
 82 81  2  0
 83 78  2  0
 83 82  1  0
 84 83  1  0
 86 87  1  0
 87 90  1  0
 87 89  1  0
 88 86  2  0
 91 92  1  0
 91 66  1  0
 93 91  1  0
 94 95  1  0
 94 96  1  0
 95 96  1  0
 96 55  1  0
M  ISO  4  13 101  14 101  56 100  64 100
M  END
>  <TORSDO>  (18) 
F 21

>  <SCORE>  (18) 
-13.312

>  <name>  (18) 
18

>  <ligand_id>  (18) 
18

>  <original_smiles>  (18) 
[H]c1c([H])c([H])c2c(c1[H])C([H])([H])C([H])([H])C([H])([H])C2([H])N([H])C(=O)C1([H])N(C(=O)C([H])(N([H])C(=O)C([H])(N([H])C([H])([H])[H])C([H])([H])[H])C(C([H])([H])[H])(C([H])([H])[H])C([H])([H])[H])C([H])([H])c2c([H])c(OC([H])([H])C([H])([H])N([H])C(=O)C3([H])C([H])([H])C([H])(C([H])(N([H])C(=O)N4C([H])([H])C([H])([H])C([H])([H])C([H])(n5nc(-c6c([H])c([H])c(Oc7c([H])c([H])c(F)c([H])c7F)c([H])c6[H])c(C(=O)N([H])[H])c5N([H])[H])C4([H])[H])C4([H])C([H])([H])C4([H])[H])[N+]([H])([H])C3([H])[H])c([H])c([H])c2C1([H])[H]

>  <smiles>  (18) 
[H]c1c([H])c([H])c2c(c1[H])C([H])([H])C([H])([H])C([H])([H])C2([H])N([H])C(=O)C1([H])N(C(=O)C([H])(N([H])C(=O)C([H])(N([H])C([H])([H])[H])C([H])([H])[H])C(C([H])([H])[H])(C([H])([H])[H])C([H])([H])[H])C([H])([H])c2c([H])c(OC([H])([H])C([H])([H])N([H])C(=O)C3([H])C([H])([H])C([H])(C([H])(N([H])C(=O)N4C([H])([H])C([H])([H])C([H])([H])C([H])(n5nc(-c6c([H])c([H])c(Oc7c([H])c([H])c(F)c([H])c7F)c([H])c6[H])c(C(=O)N([H])[H])c5N([H])[H])C4([H])[H])C4([H])C([H])([H])C4([H])[H])[N+]([H])([H])C3([H])[H])c([H])c([H])c2C1([H])[H]

$$$$
19:0:0
     RDKit          3D

 99107  0  0  1  0  0  0  0  0999 V2000
  -28.4480  -17.8510   20.5310 C   0  0  0  0  0  3  0  0  0  0  0  0
  -27.3450  -19.2340   18.8810 C   0  0  0  0  0  3  0  0  0  0  0  0
  -29.5010  -18.7880   20.7020 C   0  0  0  0  0  0  0  0  0  0  0  0
  -29.4080  -20.0510   19.9710 C   0  0  0  0  0  0  0  0  0  0  0  0
  -27.3860  -18.0640   19.6410 C   0  0  0  0  0  0  0  0  0  0  0  0
  -28.3400  -20.2090   19.0480 C   0  0  0  0  0  0  0  0  0  0  0  0
  -26.4080  -17.1360   19.5150 F   0  0  0  0  0  0  0  0  0  0  0  0
  -28.2450  -21.3440   18.3110 F   0  0  0  0  0  0  0  0  0  0  0  0
  -30.3640  -21.2900   20.0440 C   0  0  0  0  0  2  0  0  0  0  0  0
  -29.6940  -22.5450   20.5560 N   0  0  0  0  0  4  0  0  0  0  0  0
  -29.8040  -22.5860   21.5590 H   0  0  0  0  0  0  0  0  0  0  0  0
  -28.7110  -22.3860   20.3700 H   0  0  0  0  0  0  0  0  0  0  0  0
  -30.0490  -23.8870   19.9550 C   0  0  0  0  0  2  0  0  0  0  0  0
  -29.2560  -25.0970   20.5880 C   0  0  0  0  0  2  0  0  0  0  0  0
  -29.2820  -26.3820   19.8870 O   0  0  0  0  0  0  0  0  0  0  0  0
  -24.9230  -31.1200   23.0640 C   0  0  0  0  0  0  0  0  0  0  0  0
  -28.0830  -27.0860   19.8630 C   0  0  0  0  0  0  0  0  0  0  0  0
  -23.9240  -29.7280   21.2810 C   0  0  0  0  0  3  0  0  0  0  0  0
  -25.5750  -28.4190   19.8360 C   0  0  0  0  0  0  0  0  0  0  0  0
  -26.4200  -30.3100   21.2320 C   0  0  0  0  0  2  0  0  0  0  0  0
  -26.6600  -28.9930   20.5100 C   0  0  0  0  0  0  0  0  0  0  0  0
  -27.9220  -28.3400   20.5130 C   0  0  0  0  0  3  0  0  0  0  0  0
  -26.9810  -26.5450   19.1710 C   0  0  0  0  0  3  0  0  0  0  0  0
  -25.7340  -27.1990   19.1580 C   0  0  0  0  0  3  0  0  0  0  0  0
  -24.2570  -29.1640   19.8740 C   0  0  0  0  0  2  0  0  0  0  0  0
  -25.1040  -30.3990   21.9190 N   0  0  0  0  0  0  0  0  0  0  0  0
  -23.7990  -31.2600   23.5650 O   0  0  0  0  0  0  0  0  0  0  0  0
  -23.3260  -28.5930   22.1440 C   0  0  0  0  0  0  0  0  0  0  0  0
  -22.0300  -28.3030   21.9410 N   0  0  0  0  0  0  0  0  0  0  0  0
  -24.0260  -27.9790   22.9530 O   0  0  0  0  0  0  0  0  0  0  0  0
  -21.5210  -28.8590   21.2690 H   0  0  0  0  0  0  0  0  0  0  0  0
  -18.7520  -26.8050   22.2270 C   0  0  0  0  0  0  0  0  0  0  0  0
  -21.2700  -27.2460   22.6110 C   0  0  0  0  0  3  0  0  0  0  0  0
  -21.5080  -25.8760   21.9370 C   0  0  0  0  0  2  0  0  0  0  0  0
  -20.4680  -25.5430   20.8620 C   0  0  0  0  0  2  0  0  0  0  0  0
  -19.0600  -25.5290   21.4630 C   0  0  0  0  0  2  0  0  0  0  0  0
  -19.7900  -27.6190   22.7520 C   0  0  0  0  0  0  0  0  0  0  0  0
  -19.4480  -28.8140   23.4240 C   0  0  0  0  0  3  0  0  0  0  0  0
  -18.1020  -29.1940   23.5770 C   0  0  0  0  0  3  0  0  0  0  0  0
  -17.0780  -28.3760   23.0690 C   0  0  0  0  0  3  0  0  0  0  0  0
  -17.4040  -27.1840   22.3990 C   0  0  0  0  0  3  0  0  0  0  0  0
  -26.1170  -31.8220   23.7840 C   0  0  0  0  0  3  0  0  0  0  0  0
  -25.6820  -33.1790   24.1420 N   0  0  0  0  0  0  0  0  0  0  0  0
  -26.0060  -34.2860   23.4600 C   0  0  0  0  0  0  0  0  0  0  0  0
  -26.7710  -34.2740   22.4910 O   0  0  0  0  0  0  0  0  0  0  0  0
  -25.0100  -33.2560   24.8920 H   0  0  0  0  0  0  0  0  0  0  0  0
  -24.2020  -35.9800   23.0140 C   0  0  0  0  0  1  0  0  0  0  0  0
  -25.3850  -35.6160   23.9270 C   0  0  0  0  0  3  0  0  0  0  0  0
  -27.3650  -36.5930   25.0010 C   0  0  0  0  0  1  0  0  0  0  0  0
  -26.3500  -36.7360   23.9610 N   0  0  0  0  0  0  0  0  0  0  0  0
  -25.8700  -37.6210   24.1080 H   0  0  0  0  0  0  0  0  0  0  0  0
  -26.6170  -31.0420   25.0630 C   0  0  1  0  0  0  0  0  0  0  0  0
  -25.4860  -30.6910   26.0570 C   0  0  0  0  0  1  0  0  0  0  0  0
  -27.3190  -29.7250   24.6590 C   0  0  0  0  0  1  0  0  0  0  0  0
  -27.6700  -31.8910   25.8140 C   0  0  0  0  0  1  0  0  0  0  0  0
  -30.6590  -18.3520   21.6590 C   0  0  0  0  0  3  0  0  0  0  0  0
  -30.8530  -19.3990   22.6760 N   0  0  0  0  0  4  0  0  0  0  0  0
  -30.0020  -19.5650   23.1840 H   0  0  0  0  0  0  0  0  0  0  0  0
  -31.1730  -20.2580   22.2750 H   0  0  0  0  0  0  0  0  0  0  0  0
  -31.5530  -19.0990   23.3320 H   0  0  0  0  0  0  0  0  0  0  0  0
  -30.5230  -16.9790   22.4710 C   0  0  0  0  0  2  0  0  0  0  0  0
  -30.6960  -14.7030   21.3690 C   0  0  0  0  0  0  0  0  0  0  0  0
  -30.5600  -12.6060   20.0570 C   0  0  0  0  0  2  0  0  0  0  0  0
  -29.7260  -12.8380   18.7800 C   0  0  0  0  0  2  0  0  0  0  0  0
  -28.2270  -12.6230   19.0660 C   0  0  0  0  0  2  0  0  0  0  0  0
  -27.7450  -13.3720   20.3370 C   0  0  0  0  0  3  0  0  0  0  0  0
  -28.7050  -13.1460   21.5260 C   0  0  0  0  0  2  0  0  0  0  0  0
  -30.0540  -13.5310   21.0870 N   0  0  0  0  0  0  0  0  0  0  0  0
  -31.8790  -14.8780   21.0700 O   0  0  0  0  0  0  0  0  0  0  0  0
  -29.9570  -15.7290   21.8710 N   0  0  0  0  0  0  0  0  0  0  0  0
  -28.9720  -15.5530   21.9990 H   0  0  0  0  0  0  0  0  0  0  0  0
  -25.2640  -13.8510   20.8000 C   0  0  0  0  0  0  0  0  0  0  0  0
  -24.2020  -13.0250   21.0510 C   0  0  0  0  0  0  0  0  0  0  0  0
  -24.7290  -11.6970   21.0610 C   0  0  0  0  0  0  0  0  0  0  0  0
  -26.3670  -13.0240   20.6750 N   0  0  0  0  0  0  0  0  0  0  0  0
  -26.0450  -11.7220   20.8930 N   0  0  0  0  0  0  0  0  0  0  0  0
  -24.0470  -10.3990   21.1620 C   0  0  0  0  0  0  0  0  0  0  0  0
  -24.4570   -9.4200   22.0940 C   0  0  0  0  0  3  0  0  0  0  0  0
  -23.7750   -8.1890   22.1850 C   0  0  0  0  0  3  0  0  0  0  0  0
  -22.6680   -7.9260   21.3430 C   0  0  0  0  0  0  0  0  0  0  0  0
  -22.2790   -8.8950   20.4020 C   0  0  0  0  0  3  0  0  0  0  0  0
  -22.9620  -10.1180   20.3080 C   0  0  0  0  0  3  0  0  0  0  0  0
  -21.9610   -6.7480   21.3450 O   0  0  0  0  0  0  0  0  0  0  0  0
  -21.8970   -5.9470   22.4570 C   0  0  0  0  0  0  0  0  0  0  0  0
  -21.4320   -6.4330   23.6990 C   0  0  0  0  0  3  0  0  0  0  0  0
  -21.3170   -5.5590   24.7980 C   0  0  0  0  0  3  0  0  0  0  0  0
  -21.6560   -4.1990   24.6560 C   0  0  0  0  0  0  0  0  0  0  0  0
  -22.1150   -3.7130   23.4190 C   0  0  0  0  0  3  0  0  0  0  0  0
  -22.2320   -4.5850   22.3220 C   0  0  0  0  0  0  0  0  0  0  0  0
  -22.6530   -4.1070   21.1270 F   0  0  0  0  0  0  0  0  0  0  0  0
  -21.5390   -3.3580   25.7100 F   0  0  0  0  0  0  0  0  0  0  0  0
  -22.7630  -13.4330   21.1730 C   0  0  0  0  0  0  0  0  0  0  0  0
  -21.9890  -12.7160   21.9820 N   0  0  0  0  0  0  0  0  0  0  0  0
  -22.3250  -14.4210   20.5850 O   0  0  0  0  0  0  0  0  0  0  0  0
  -22.3520  -11.9170   22.4790 H   0  0  0  0  0  0  0  0  0  0  0  0
  -21.0190  -12.9720   22.1060 H   0  0  0  0  0  0  0  0  0  0  0  0
  -25.3820  -15.2290   20.6450 N   0  0  0  0  0  0  0  0  0  0  0  0
  -24.5810  -15.8470   20.7030 H   0  0  0  0  0  0  0  0  0  0  0  0
  -26.2350  -15.7080   20.3900 H   0  0  0  0  0  0  0  0  0  0  0  0
  1  3  1  0
  2  6  2  0
  2  5  1  0
  3 56  1  0
  4  9  1  0
  4  3  2  0
  5  1  2  0
  6  4  1  0
  7  5  1  0
  8  6  1  0
  9 10  1  0
 10 11  1  0
 12 10  1  0
 13 10  1  0
 13 14  1  0
 15 14  1  0
 16 27  2  0
 17 15  1  0
 17 22  1  0
 18 26  1  0
 18 28  1  0
 19 25  1  0
 19 21  1  0
 20 26  1  0
 21 22  2  0
 21 20  1  0
 23 17  2  0
 24 23  1  0
 24 19  2  0
 25 18  1  0
 26 16  1  0
 28 30  2  0
 29 28  1  0
 31 29  1  0
 32 41  2  0
 32 37  1  0
 33 29  1  0
 33 37  1  0
 34 33  1  0
 35 36  1  0
 35 34  1  0
 36 32  1  0
 37 38  2  0
 38 39  1  0
 40 39  2  0
 41 40  1  0
 42 16  1  0
 42 43  1  0
 42 52  1  0
 43 46  1  0
 44 48  1  0
 44 43  1  0
 45 44  2  0
 48 47  1  0
 48 50  1  0
 50 51  1  0
 50 49  1  0
 52 55  1  1
 52 53  1  0
 54 52  1  0
 56 61  1  0
 56 57  1  0
 57 58  1  0
 57 60  1  0
 59 57  1  0
 62 70  1  0
 63 68  1  0
 64 65  1  0
 64 63  1  0
 66 65  1  0
 66 75  1  0
 66 67  1  0
 68 62  1  0
 68 67  1  0
 69 62  2  0
 70 71  1  0
 70 61  1  0
 72 73  2  0
 73 74  1  0
 73 92  1  0
 74 77  1  0
 75 72  1  0
 75 76  1  0
 76 74  2  0
 77 78  1  0
 78 79  2  0
 80 83  1  0
 80 79  1  0
 81 80  2  0
 82 81  1  0
 82 77  2  0
 83 84  1  0
 84 85  1  0
 85 86  2  0
 87 86  1  0
 87 91  1  0
 88 87  2  0
 89 84  2  0
 89 88  1  0
 90 89  1  0
 92 93  1  0
 93 96  1  0
 93 95  1  0
 94 92  2  0
 97 98  1  0
 97 72  1  0
 99 97  1  0
M  ISO  4  14 101  15 101  62 100  70 100
M  END
>  <TORSDO>  (19) 
F 23

>  <SCORE>  (19) 
-11.160

>  <name>  (19) 
19

>  <ligand_id>  (19) 
19

>  <original_smiles>  (19) 
[H]c1c([H])c([H])c2c(c1[H])C([H])([H])C([H])([H])C([H])([H])C2([H])N([H])C(=O)C1([H])N(C(=O)C([H])(N([H])C(=O)C([H])(N([H])C([H])([H])[H])C([H])([H])[H])C(C([H])([H])[H])(C([H])([H])[H])C([H])([H])[H])C([H])([H])c2c([H])c(OC([H])([H])C([H])([H])[N+]([H])([H])C([H])([H])c3c(F)c([H])c(F)c([H])c3C([H])(C([H])([H])N([H])C(=O)N3C([H])([H])C([H])([H])C([H])([H])C([H])(n4nc(-c5c([H])c([H])c(Oc6c([H])c([H])c(F)c([H])c6F)c([H])c5[H])c(C(=O)N([H])[H])c4N([H])[H])C3([H])[H])[N+]([H])([H])[H])c([H])c([H])c2C1([H])[H]

>  <smiles>  (19) 
[H]c1c([H])c([H])c2c(c1[H])C([H])([H])C([H])([H])C([H])([H])C2([H])N([H])C(=O)C1([H])N(C(=O)C([H])(N([H])C(=O)C([H])(N([H])C([H])([H])[H])C([H])([H])[H])C(C([H])([H])[H])(C([H])([H])[H])C([H])([H])[H])C([H])([H])c2c([H])c(OC([H])([H])C([H])([H])[N+]([H])([H])C([H])([H])c3c(F)c([H])c(F)c([H])c3C([H])(C([H])([H])N([H])C(=O)N3C([H])([H])C([H])([H])C([H])([H])C([H])(n4nc(-c5c([H])c([H])c(Oc6c([H])c([H])c(F)c([H])c6F)c([H])c5[H])c(C(=O)N([H])[H])c4N([H])[H])C3([H])[H])[N+]([H])([H])[H])c([H])c([H])c2C1([H])[H]

$$$$
20:0:0
     RDKit          3D

 95100  0  0  1  0  0  0  0  0999 V2000
  -23.7260  -26.5470   24.4270 C   0  0  0  0  0  2  0  0  0  0  0  0
  -22.3400  -27.7630   24.6580 N   0  0  0  0  0  4  0  0  0  0  0  0
  -22.2970  -27.9060   25.6530 H   0  0  0  0  0  0  0  0  0  0  0  0
  -21.5410  -27.1710   24.4950 H   0  0  0  0  0  0  0  0  0  0  0  0
  -21.7900  -29.4060   23.9230 C   0  0  0  0  0  1  0  0  0  0  0  0
  -22.6820  -30.4570   22.2120 C   0  0  0  0  0 15  0  0  0  0  0  0
  -24.7910  -30.7700   21.9260 C   0  0  0  0  0 15  0  0  0  0  0  0
  -26.2990  -30.7590   23.0680 O   0  0  0  0  0  1  0  0  0  0  0  0
  -24.2640  -28.1210   27.3390 C   0  0  0  0  0  0  0  0  0  0  0  0
  -27.0840  -31.6230   23.9520 C   0  0  0  0  0  3  0  0  0  0  0  0
  -24.2460  -29.2370   25.1410 C   0  0  0  0  0  3  0  0  0  0  0  0
  -24.8070  -31.6760   25.0250 C   0  0  0  0  0  3  0  0  0  0  0  0
  -25.4180  -30.3060   27.0040 C   0  0  0  0  0  2  0  0  0  0  0  0
  -25.8160  -31.2090   25.8600 C   0  0  0  0  0  3  0  0  0  0  0  0
  -27.1060  -31.3300   25.3510 C   0  0  0  0  0  2  0  0  0  0  0  0
  -26.4760  -32.7980   23.6450 C   0  0  0  0  0  2  0  0  0  0  0  0
  -25.1270  -32.6400   24.0190 C   0  0  0  0  0  2  0  0  0  0  0  0
  -23.6490  -30.7320   25.0050 C   0  0  0  0  0  2  0  0  0  0  0  0
  -24.6530  -29.1400   26.5300 N   0  0  0  0  0  0  0  0  0  0  0  0
  -23.4180  -27.2700   27.0280 O   0  0  0  0  0  0  0  0  0  0  0  0
  -25.4290  -28.5470   24.0440 C   0  0  0  0  0  0  0  0  0  0  0  0
  -25.2760  -28.0210   22.5540 N   0  0  0  0  0  0  0  0  0  0  0  0
  -26.3720  -28.1540   24.6400 O   0  0  0  0  0  0  0  0  0  0  0  0
  -26.2250  -27.9520   22.2050 H   0  0  0  0  0  0  0  0  0  0  0  0
  -21.8680  -26.1030   20.3360 C   0  0  0  0  0  0  0  0  0  0  0  0
  -24.2480  -26.9870   21.5000 C   0  0  0  0  0  3  0  0  0  0  0  0
  -24.4820  -27.5610   20.1700 C   0  0  0  0  0  2  0  0  0  0  0  0
  -23.2340  -28.0160   19.4770 C   0  0  0  0  0  2  0  0  0  0  0  0
  -22.3680  -26.8190   19.1280 C   0  0  0  0  0  2  0  0  0  0  0  0
  -22.6870  -26.1120   21.5170 C   0  0  0  0  0  0  0  0  0  0  0  0
  -22.0640  -25.1400   22.4400 C   0  0  0  0  0  3  0  0  0  0  0  0
  -20.7590  -24.5560   22.3570 C   0  0  0  0  0  3  0  0  0  0  0  0
  -20.0230  -24.6770   21.1790 C   0  0  0  0  0  3  0  0  0  0  0  0
  -20.6290  -25.4110   20.1590 C   0  0  0  0  0  3  0  0  0  0  0  0
  -24.9560  -27.9570   28.7000 C   0  0  0  0  0  3  0  0  0  0  0  0
  -23.9940  -27.3280   29.6080 N   0  0  0  0  0  0  0  0  0  0  0  0
  -23.2170  -28.0060   30.4600 C   0  0  0  0  0  0  0  0  0  0  0  0
  -23.2970  -29.2310   30.6080 O   0  0  0  0  0  0  0  0  0  0  0  0
  -23.8830  -26.3260   29.5370 H   0  0  0  0  0  0  0  0  0  0  0  0
  -20.7900  -27.4070   30.7250 C   0  0  0  0  0  1  0  0  0  0  0  0
  -22.2040  -27.1950   31.2930 C   0  0  0  0  0  3  0  0  0  0  0  0
  -23.4660  -27.1660   33.4010 C   0  0  0  0  0  1  0  0  0  0  0  0
  -22.2200  -27.5400   32.7310 N   0  0  0  0  0  0  0  0  0  0  0  0
  -21.4440  -27.1100   33.2270 H   0  0  0  0  0  0  0  0  0  0  0  0
  -26.2720  -27.1030   28.5740 C   0  0  1  0  0  0  0  0  0  0  0  0
  -26.0880  -25.7640   27.8140 C   0  0  0  0  0  1  0  0  0  0  0  0
  -27.4070  -27.9040   27.8930 C   0  0  0  0  0  1  0  0  0  0  0  0
  -26.8060  -26.7970   29.9880 C   0  0  0  0  0  1  0  0  0  0  0  0
  -25.6330  -24.5030   23.4980 C   0  0  0  0  0  2  0  0  0  0  0  0
  -26.6890  -25.0820   22.5830 C   0  0  0  0  0  3  0  0  0  0  0  0
  -24.9280  -25.7870   23.0850 C   0  0  0  0  0  3  0  0  0  0  0  0
  -27.6300  -23.7600   21.6320 C   0  0  0  0  0  0  0  0  0  0  0  0
  -29.1060  -23.3420   21.3390 N   0  0  0  0  0  0  0  0  0  0  0  0
  -26.8690  -22.9490   21.1100 O   0  0  0  0  0  0  0  0  0  0  0  0
  -29.7390  -24.0420   21.7060 H   0  0  0  0  0  0  0  0  0  0  0  0
  -30.0280  -22.0340   20.5280 C   0  0  0  0  0  2  0  0  0  0  0  0
  -31.7670  -21.1310   20.5130 C   0  0  0  0  0  2  0  0  0  0  0  0
  -33.9530  -19.1870   19.1580 C   0  0  0  0  0  0  0  0  0  0  0  0
  -36.1310  -18.2150   17.8820 C   0  0  0  0  0  2  0  0  0  0  0  0
  -37.3650  -19.1750   17.8480 C   0  0  0  0  0  2  0  0  0  0  0  0
  -37.1820  -20.2590   16.7750 C   0  0  0  0  0  2  0  0  0  0  0  0
  -35.7310  -20.7830   16.8010 C   0  0  0  0  0  3  0  0  0  0  0  0
  -34.6640  -19.6850   16.7470 C   0  0  0  0  0  2  0  0  0  0  0  0
  -34.8110  -18.9980   18.0080 N   0  0  0  0  0  0  0  0  0  0  0  0
  -34.2590  -18.2830   19.9830 O   0  0  0  0  0  0  0  0  0  0  0  0
  -32.9100  -20.3380   19.3830 N   0  0  0  0  0  0  0  0  0  0  0  0
  -32.9300  -20.9010   18.5340 H   0  0  0  0  0  0  0  0  0  0  0  0
  -34.9050  -23.0230   16.0090 C   0  0  0  0  0  0  0  0  0  0  0  0
  -34.8450  -23.5950   14.7750 C   0  0  0  0  0  0  0  0  0  0  0  0
  -35.3420  -22.6150   13.8570 C   0  0  0  0  0  0  0  0  0  0  0  0
  -35.4460  -21.7730   15.8040 N   0  0  0  0  0  0  0  0  0  0  0  0
  -35.6410  -21.4930   14.4960 N   0  0  0  0  0  0  0  0  0  0  0  0
  -35.6090  -22.7030   12.4230 C   0  0  0  0  0  0  0  0  0  0  0  0
  -35.0880  -21.7580   11.5110 C   0  0  0  0  0  3  0  0  0  0  0  0
  -35.3470  -21.8860   10.1300 C   0  0  0  0  0  3  0  0  0  0  0  0
  -36.1310  -22.9620    9.6510 C   0  0  0  0  0  0  0  0  0  0  0  0
  -36.6660  -23.8850   10.5670 C   0  0  0  0  0  3  0  0  0  0  0  0
  -36.4130  -23.7540   11.9420 C   0  0  0  0  0  3  0  0  0  0  0  0
  -36.4560  -23.1520    8.3290 O   0  0  0  0  0  0  0  0  0  0  0  0
  -35.6680  -22.6660    7.3170 C   0  0  0  0  0  0  0  0  0  0  0  0
  -34.3030  -23.0080    7.2070 C   0  0  0  0  0  3  0  0  0  0  0  0
  -33.5480  -22.5420    6.1110 C   0  0  0  0  0  3  0  0  0  0  0  0
  -34.1580  -21.7460    5.1230 C   0  0  0  0  0  0  0  0  0  0  0  0
  -35.5180  -21.4090    5.2310 C   0  0  0  0  0  3  0  0  0  0  0  0
  -36.2730  -21.8720    6.3220 C   0  0  0  0  0  0  0  0  0  0  0  0
  -37.5890  -21.5610    6.4090 F   0  0  0  0  0  0  0  0  0  0  0  0
  -33.4340  -21.3040    4.0680 F   0  0  0  0  0  0  0  0  0  0  0  0
  -34.4350  -25.0040   14.4720 C   0  0  0  0  0  0  0  0  0  0  0  0
  -33.9050  -25.2430   13.2820 N   0  0  0  0  0  0  0  0  0  0  0  0
  -34.5420  -25.8910   15.3200 O   0  0  0  0  0  0  0  0  0  0  0  0
  -33.8030  -24.5050   12.6000 H   0  0  0  0  0  0  0  0  0  0  0  0
  -33.5980  -26.1760   13.0490 H   0  0  0  0  0  0  0  0  0  0  0  0
  -34.5610  -23.4610   17.2900 N   0  0  0  0  0  0  0  0  0  0  0  0
  -34.2310  -24.4050   17.4590 H   0  0  0  0  0  0  0  0  0  0  0  0
  -34.6870  -22.9320   18.1400 H   0  0  0  0  0  0  0  0  0  0  0  0
  1  2  1  0
  2  3  1  0
  4  2  1  0
  5  2  1  0
 10  8  1  0
 10 15  1  0
 11 21  1  0
 11 19  1  0
 12 17  1  0
 12 14  1  0
 14 15  1  0
 14 13  1  0
 16 10  1  0
 16 17  1  0
 18 12  1  0
 18 11  1  0
 19 13  1  0
 19  9  1  0
 20  9  2  0
 21 23  2  0
 22 21  1  0
 24 22  1  0
 25 30  1  0
 26 30  1  0
 26 22  1  0
 27 26  1  0
 28 27  1  0
 29 28  1  0
 29 25  1  0
 30 31  2  0
 32 31  1  0
 33 32  2  0
 34 25  2  0
 34 33  1  0
 35  9  1  0
 35 36  1  0
 36 37  1  0
 37 38  2  0
 37 41  1  0
 39 36  1  0
 41 40  1  0
 41 43  1  0
 43 44  1  0
 43 42  1  0
 45 35  1  0
 45 48  1  1
 46 45  1  0
 47 45  1  0
 50 52  1  0
 50 51  1  0
 50 49  1  0
 51 49  1  0
 51  1  1  0
 53 52  1  0
 53 55  1  0
 54 52  2  0
 56 53  1  0
 57 56  1  0
 58 66  1  0
 58 65  2  0
 59 64  1  0
 60 59  1  0
 61 62  1  0
 61 60  1  0
 62 71  1  0
 63 62  1  0
 63 64  1  0
 64 58  1  0
 66 57  1  0
 67 66  1  0
 68 93  1  0
 69 68  2  0
 70 72  2  0
 70 69  1  0
 71 68  1  0
 72 71  1  0
 73 70  1  0
 74 73  2  0
 75 74  1  0
 76 75  2  0
 76 77  1  0
 77 78  2  0
 78 73  1  0
 79 76  1  0
 80 79  1  0
 81 80  1  0
 82 81  2  0
 83 84  2  0
 83 82  1  0
 84 85  1  0
 85 86  1  0
 85 80  2  0
 87 83  1  0
 88 69  1  0
 88 90  2  0
 89 88  1  0
 91 89  1  0
 92 89  1  0
 93 94  1  0
 93 95  1  0
M  ISO  4   7 101   8 101  58 100  66 100
M  END
>  <TORSDO>  (20) 
F 24

>  <SCORE>  (20) 
-4.099

>  <name>  (20) 
20

>  <ligand_id>  (20) 
20

>  <original_smiles>  (20) 
[H]c1c([H])c([H])c2c(c1[H])C([H])([H])C([H])([H])C([H])([H])C2([H])N([H])C(=O)C1([H])N(C(=O)C([H])(N([H])C(=O)C([H])(N([H])C([H])([H])[H])C([H])([H])[H])C(C([H])([H])[H])(C([H])([H])[H])C([H])([H])[H])C([H])([H])c2c([H])c(OC([H])([H])C([H])([H])C([H])([H])[N+]([H])([H])C([H])([H])C3([H])C([H])([H])C3([H])C(=O)N([H])C([H])([H])C([H])([H])N([H])C(=O)N3C([H])([H])C([H])([H])C([H])([H])C([H])(n4nc(-c5c([H])c([H])c(Oc6c([H])c([H])c(F)c([H])c6F)c([H])c5[H])c(C(=O)N([H])[H])c4N([H])[H])C3([H])[H])c([H])c([H])c2C1([H])[H]

>  <smiles>  (20) 
[H]c1c([H])c([H])c2c(c1[H])C([H])([H])C([H])([H])C([H])([H])C2([H])N([H])C(=O)C1([H])N(C(=O)C([H])(N([H])C(=O)C([H])(N([H])C([H])([H])[H])C([H])([H])[H])C(C([H])([H])[H])(C([H])([H])[H])C([H])([H])[H])C([H])([H])c2c([H])c(OC([H])([H])C([H])([H])C([H])([H])[N+]([H])([H])C([H])([H])C3([H])C([H])([H])C3([H])C(=O)N([H])C([H])([H])C([H])([H])N([H])C(=O)N3C([H])([H])C([H])([H])C([H])([H])C([H])(n4nc(-c5c([H])c([H])c(Oc6c([H])c([H])c(F)c([H])c6F)c([H])c5[H])c(C(=O)N([H])[H])c4N([H])[H])C3([H])[H])c([H])c([H])c2C1([H])[H]

$$$$
21:0:0
     RDKit          3D

 94102  0  0  1  0  0  0  0  0999 V2000
  -28.9980  -20.5260   21.2130 C   0  0  0  0  0  2  0  0  0  0  0  0
  -30.0610  -18.7600   19.7800 C   0  0  0  0  0  2  0  0  0  0  0  0
  -29.7060  -18.3340   22.1460 C   0  0  0  0  0  2  0  0  0  0  0  0
  -31.3200  -16.7590   20.8710 C   0  0  0  0  0  3  0  0  0  0  0  0
  -31.2830  -17.8220   19.7320 C   0  0  0  0  0  3  0  0  0  0  0  0
  -30.9060  -17.3710   22.2320 C   0  0  0  0  0  3  0  0  0  0  0  0
  -29.9510  -19.3820   21.1220 N   0  0  2  0  0  4  0  0  0  0  0  0
  -32.3620  -18.5970   19.8570 F   0  0  0  0  0  0  0  0  0  0  0  0
  -31.9340  -18.0780   22.7050 F   0  0  0  0  0  0  0  0  0  0  0  0
  -30.8710  -19.7440   21.3360 H   0  0  0  0  0  0  0  0  0  0  0  0
  -31.1120  -14.5140   19.8050 C   0  0  0  0  0  0  0  0  0  0  0  0
  -30.6720  -12.3400   18.7290 C   0  0  0  0  0  2  0  0  0  0  0  0
  -29.6520  -12.5020   17.5860 C   0  0  0  0  0  2  0  0  0  0  0  0
  -28.2140  -12.3950   18.1240 C   0  0  0  0  0  2  0  0  0  0  0  0
  -27.9700  -13.2950   19.3650 C   0  0  0  0  0  3  0  0  0  0  0  0
  -29.0960  -13.1170   20.4090 C   0  0  0  0  0  2  0  0  0  0  0  0
  -30.3850  -13.3690   19.7410 N   0  0  0  0  0  0  0  0  0  0  0  0
  -32.1550  -14.6810   19.1680 O   0  0  0  0  0  0  0  0  0  0  0  0
  -30.6110  -15.5030   20.5660 N   0  0  0  0  0  0  0  0  0  0  0  0
  -29.7450  -15.3070   21.0460 H   0  0  0  0  0  0  0  0  0  0  0  0
  -25.6530  -13.9640   20.2610 C   0  0  0  0  0  0  0  0  0  0  0  0
  -24.5950  -13.2180   20.7100 C   0  0  0  0  0  0  0  0  0  0  0  0
  -25.0140  -11.8550   20.6360 C   0  0  0  0  0  0  0  0  0  0  0  0
  -26.6510  -13.0550   19.9460 N   0  0  0  0  0  0  0  0  0  0  0  0
  -26.2740  -11.7820   20.2260 N   0  0  0  0  0  0  0  0  0  0  0  0
  -24.2680  -10.6120   20.8750 C   0  0  0  0  0  0  0  0  0  0  0  0
  -24.7060   -9.6600   21.8220 C   0  0  0  0  0  3  0  0  0  0  0  0
  -23.9630   -8.4810   22.0480 C   0  0  0  0  0  3  0  0  0  0  0  0
  -22.7690   -8.2450   21.3260 C   0  0  0  0  0  0  0  0  0  0  0  0
  -22.3500   -9.1850   20.3680 C   0  0  0  0  0  3  0  0  0  0  0  0
  -23.0940  -10.3560   20.1400 C   0  0  0  0  0  3  0  0  0  0  0  0
  -21.9970   -7.1180   21.4600 O   0  0  0  0  0  0  0  0  0  0  0  0
  -21.9050   -6.4450   22.6530 C   0  0  0  0  0  0  0  0  0  0  0  0
  -21.4350   -7.0720   23.8270 C   0  0  0  0  0  3  0  0  0  0  0  0
  -21.2920   -6.3260   25.0140 C   0  0  0  0  0  3  0  0  0  0  0  0
  -21.6070   -4.9530   25.0270 C   0  0  0  0  0  0  0  0  0  0  0  0
  -22.0700   -4.3270   23.8560 C   0  0  0  0  0  3  0  0  0  0  0  0
  -22.2160   -5.0700   22.6720 C   0  0  0  0  0  0  0  0  0  0  0  0
  -22.6420   -4.4570   21.5420 F   0  0  0  0  0  0  0  0  0  0  0  0
  -21.4620   -4.2350   26.1650 F   0  0  0  0  0  0  0  0  0  0  0  0
  -23.2380  -13.7320   21.0940 C   0  0  0  0  0  0  0  0  0  0  0  0
  -22.5660  -13.0570   22.0200 N   0  0  0  0  0  0  0  0  0  0  0  0
  -22.7860  -14.7680   20.6070 O   0  0  0  0  0  0  0  0  0  0  0  0
  -22.9460  -12.2190   22.4330 H   0  0  0  0  0  0  0  0  0  0  0  0
  -21.6580  -13.3840   22.3190 H   0  0  0  0  0  0  0  0  0  0  0  0
  -25.8430  -15.3300   20.0780 N   0  0  0  0  0  0  0  0  0  0  0  0
  -25.1000  -16.0020   20.2350 H   0  0  0  0  0  0  0  0  0  0  0  0
  -26.6660  -15.7400   19.6540 H   0  0  0  0  0  0  0  0  0  0  0  0
  -29.4740  -21.8230   20.5040 C   0  0  0  0  0  2  0  0  0  0  0  0
  -28.6460  -23.0600   20.9260 C   0  0  0  0  0  2  0  0  0  0  0  0
  -29.0390  -24.4050   20.2630 C   0  0  0  0  0  3  0  0  0  0  0  0
  -30.3400  -24.6260   20.4620 F   0  0  0  0  0  0  0  0  0  0  0  0
  -28.2340  -25.5860   20.8540 C   0  0  0  0  0  2  0  0  0  0  0  0
  -28.3990  -26.8220   20.1410 O   0  0  0  0  0  0  0  0  0  0  0  0
  -24.5910  -31.9040   23.3490 C   0  0  0  0  0  0  0  0  0  0  0  0
  -27.2550  -27.5850   20.1330 C   0  0  0  0  0  0  0  0  0  0  0  0
  -23.3920  -30.5510   21.6610 C   0  0  0  0  0  3  0  0  0  0  0  0
  -24.8560  -29.0690   20.1850 C   0  0  0  0  0  0  0  0  0  0  0  0
  -25.9160  -30.9310   21.4750 C   0  0  0  0  0  2  0  0  0  0  0  0
  -26.0100  -29.5830   20.7910 C   0  0  0  0  0  0  0  0  0  0  0  0
  -27.2170  -28.8490   20.7610 C   0  0  0  0  0  3  0  0  0  0  0  0
  -26.0900  -27.0850   19.5140 C   0  0  0  0  0  3  0  0  0  0  0  0
  -24.8890  -27.8190   19.5430 C   0  0  0  0  0  3  0  0  0  0  0  0
  -23.6060  -29.9160   20.2600 C   0  0  0  0  0  2  0  0  0  0  0  0
  -24.6510  -31.1410   22.2210 N   0  0  0  0  0  0  0  0  0  0  0  0
  -23.5090  -32.1540   23.8960 O   0  0  0  0  0  0  0  0  0  0  0  0
  -22.7450  -29.4960   22.5860 C   0  0  0  0  0  0  0  0  0  0  0  0
  -21.4310  -29.2750   22.4160 N   0  0  0  0  0  0  0  0  0  0  0  0
  -23.4230  -28.8790   23.4140 O   0  0  0  0  0  0  0  0  0  0  0  0
  -20.9450  -29.8270   21.7230 H   0  0  0  0  0  0  0  0  0  0  0  0
  -18.0960  -27.9260   22.7410 C   0  0  0  0  0  0  0  0  0  0  0  0
  -20.6200  -28.3030   23.1490 C   0  0  0  0  0  3  0  0  0  0  0  0
  -20.8200  -26.8770   22.5860 C   0  0  0  0  0  2  0  0  0  0  0  0
  -19.7900  -26.5000   21.5170 C   0  0  0  0  0  2  0  0  0  0  0  0
  -18.3710  -26.5830   22.0860 C   0  0  0  0  0  2  0  0  0  0  0  0
  -19.1530  -28.7410   23.2260 C   0  0  0  0  0  0  0  0  0  0  0  0
  -18.8450  -29.9960   23.7950 C   0  0  0  0  0  3  0  0  0  0  0  0
  -17.5120  -30.4370   23.8860 C   0  0  0  0  0  3  0  0  0  0  0  0
  -16.4680  -29.6200   23.4190 C   0  0  0  0  0  3  0  0  0  0  0  0
  -16.7600  -28.3660   22.8520 C   0  0  0  0  0  3  0  0  0  0  0  0
  -25.8750  -32.5190   23.9890 C   0  0  0  0  0  3  0  0  0  0  0  0
  -25.5800  -33.9220   24.3100 N   0  0  0  0  0  0  0  0  0  0  0  0
  -25.9480  -34.9670   23.5580 C   0  0  0  0  0  0  0  0  0  0  0  0
  -26.6430  -34.8520   22.5440 O   0  0  0  0  0  0  0  0  0  0  0  0
  -24.9650  -34.0870   25.0940 H   0  0  0  0  0  0  0  0  0  0  0  0
  -24.2570  -36.7840   23.1520 C   0  0  0  0  0  1  0  0  0  0  0  0
  -25.4690  -36.3630   23.9990 C   0  0  0  0  0  3  0  0  0  0  0  0
  -27.5920  -37.2170   24.8900 C   0  0  0  0  0  1  0  0  0  0  0  0
  -26.5200  -37.4000   23.9140 N   0  0  0  0  0  0  0  0  0  0  0  0
  -26.1240  -38.3270   24.0490 H   0  0  0  0  0  0  0  0  0  0  0  0
  -26.3630  -31.7420   25.2730 C   0  0  1  0  0  0  0  0  0  0  0  0
  -25.2500  -31.5120   26.3210 C   0  0  0  0  0  1  0  0  0  0  0  0
  -26.9420  -30.3600   24.8870 C   0  0  0  0  0  1  0  0  0  0  0  0
  -27.5100  -32.5260   25.9560 C   0  0  0  0  0  1  0  0  0  0  0  0
  2  7  1  0
  3  6  1  0
  4 19  1  0
  4  6  1  0
  5  2  1  0
  5  8  1  0
  5  4  1  0
  6  9  1  0
  7  1  1  0
  7 10  1  1
  7  3  1  0
 11 19  1  0
 12 17  1  0
 13 14  1  0
 13 12  1  0
 15 14  1  0
 15 24  1  0
 15 16  1  0
 17 11  1  0
 17 16  1  0
 18 11  2  0
 19 20  1  0
 21 22  2  0
 22 41  1  0
 23 22  1  0
 23 26  1  0
 24 25  1  0
 24 21  1  0
 25 23  2  0
 26 27  1  0
 27 28  2  0
 29 32  1  0
 29 28  1  0
 30 29  2  0
 31 30  1  0
 31 26  2  0
 32 33  1  0
 33 38  2  0
 33 34  1  0
 34 35  2  0
 35 36  1  0
 36 40  1  0
 37 36  2  0
 38 37  1  0
 39 38  1  0
 41 42  1  0
 42 45  1  0
 42 44  1  0
 43 41  2  0
 46 47  1  0
 46 21  1  0
 48 46  1  0
 49 50  1  0
 49  1  1  0
 51 52  1  0
 51 53  1  0
 51 50  1  0
 54 53  1  0
 55 66  2  0
 56 54  1  0
 56 61  1  0
 57 65  1  0
 57 67  1  0
 58 64  1  0
 58 60  1  0
 59 65  1  0
 60 59  1  0
 61 60  2  0
 62 63  1  0
 62 56  2  0
 63 58  2  0
 64 57  1  0
 65 55  1  0
 67 69  2  0
 68 67  1  0
 70 68  1  0
 71 80  2  0
 71 76  1  0
 72 68  1  0
 72 76  1  0
 73 72  1  0
 74 75  1  0
 74 73  1  0
 75 71  1  0
 76 77  2  0
 77 78  1  0
 79 78  2  0
 80 79  1  0
 81 55  1  0
 81 82  1  0
 81 91  1  0
 82 85  1  0
 83 87  1  0
 83 82  1  0
 84 83  2  0
 87 86  1  0
 89 87  1  0
 89 90  1  0
 89 88  1  0
 91 94  1  1
 91 92  1  0
 93 91  1  0
M  ISO  4  11 100  19 100  53 101  54 101
M  END
>  <TORSDO>  (21) 
F 21

>  <SCORE>  (21) 
-11.963

>  <name>  (21) 
21

>  <ligand_id>  (21) 
21

>  <original_smiles>  (21) 
[H]c1c([H])c([H])c2c(c1[H])C([H])([H])C([H])([H])C([H])([H])C2([H])N([H])C(=O)C1([H])N(C(=O)C([H])(N([H])C(=O)C([H])(N([H])C([H])([H])[H])C([H])([H])[H])C(C([H])([H])[H])(C([H])([H])[H])C([H])([H])[H])C([H])([H])c2c([H])c(OC([H])([H])C([H])(F)C([H])([H])C([H])([H])C([H])([H])[N+]3([H])C([H])([H])C([H])(F)C([H])(N([H])C(=O)N4C([H])([H])C([H])([H])C([H])([H])C([H])(n5nc(-c6c([H])c([H])c(Oc7c([H])c([H])c(F)c([H])c7F)c([H])c6[H])c(C(=O)N([H])[H])c5N([H])[H])C4([H])[H])C([H])(F)C3([H])[H])c([H])c([H])c2C1([H])[H]

>  <smiles>  (21) 
[H]c1c([H])c([H])c2c(c1[H])C([H])([H])C([H])([H])C([H])([H])C2([H])N([H])C(=O)C1([H])N(C(=O)C([H])(N([H])C(=O)C([H])(N([H])C([H])([H])[H])C([H])([H])[H])C(C([H])([H])[H])(C([H])([H])[H])C([H])([H])[H])C([H])([H])c2c([H])c(OC([H])([H])C([H])(F)C([H])([H])C([H])([H])C([H])([H])[N+]3([H])C([H])([H])C([H])(F)C([H])(N([H])C(=O)N4C([H])([H])C([H])([H])C([H])([H])C([H])(n5nc(-c6c([H])c([H])c(Oc7c([H])c([H])c(F)c([H])c7F)c([H])c6[H])c(C(=O)N([H])[H])c5N([H])[H])C4([H])[H])C([H])(F)C3([H])[H])c([H])c([H])c2C1([H])[H]

$$$$
22:0:0
     RDKit          3D

 99108  0  0  1  0  0  0  0  0999 V2000
  -30.2880  -21.7960   19.6660 C   0  0  0  0  0  3  0  0  0  0  0  0
  -31.1630  -21.9470   18.6610 C   0  0  0  0  0  3  0  0  0  0  0  0
  -30.2590  -22.9380   17.9720 C   0  0  0  0  0  2  0  0  0  0  0  0
  -29.5060  -22.9530   19.2470 N   0  0  2  0  0  4  0  0  0  0  0  0
  -28.5480  -22.6640   19.1080 H   0  0  0  0  0  0  0  0  0  0  0  0
  -30.0120  -20.5960   20.4770 C   0  0  0  0  0  0  0  0  0  0  0  0
  -30.4980  -19.4320   19.9860 N   0  0  0  0  0  0  0  0  0  0  0  0
  -29.3570  -20.6040   21.5220 O   0  0  0  0  0  0  0  0  0  0  0  0
  -30.9460  -19.4870   19.0800 H   0  0  0  0  0  0  0  0  0  0  0  0
  -30.9810  -14.5310   19.6140 C   0  0  0  0  0  0  0  0  0  0  0  0
  -30.4680  -12.4350   18.4090 C   0  0  0  0  0  2  0  0  0  0  0  0
  -29.3970  -12.6890   17.3290 C   0  0  0  0  0  2  0  0  0  0  0  0
  -27.9810  -12.5450   17.9220 C   0  0  0  0  0  2  0  0  0  0  0  0
  -27.8090  -13.3160   19.2590 C   0  0  0  0  0  3  0  0  0  0  0  0
  -28.9900  -13.0180   20.2140 C   0  0  0  0  0  2  0  0  0  0  0  0
  -30.2210  -13.3940   19.5060 N   0  0  0  0  0  0  0  0  0  0  0  0
  -32.0830  -14.5890   19.0580 O   0  0  0  0  0  0  0  0  0  0  0  0
  -31.1310  -17.0020   19.7740 C   0  0  0  0  0  2  0  0  0  0  0  0
  -29.3670  -16.0040   21.0120 C   0  0  0  0  0  2  0  0  0  0  0  0
  -30.5150  -18.1120   20.6550 C   0  0  0  0  0  3  0  0  0  0  0  0
  -29.1390  -17.5260   20.9600 C   0  0  0  0  0  3  0  0  0  0  0  0
  -30.4360  -15.7170   20.0440 N   0  0  0  0  0  0  0  0  0  0  0  0
  -25.5230  -13.9320   20.2660 C   0  0  0  0  0  0  0  0  0  0  0  0
  -24.4890  -13.1610   20.7210 C   0  0  0  0  0  0  0  0  0  0  0  0
  -24.9130  -11.8050   20.5730 C   0  0  0  0  0  0  0  0  0  0  0  0
  -26.5150  -13.0450   19.8760 N   0  0  0  0  0  0  0  0  0  0  0  0
  -26.1570  -11.7580   20.1160 N   0  0  0  0  0  0  0  0  0  0  0  0
  -24.1850  -10.5470   20.7840 C   0  0  0  0  0  0  0  0  0  0  0  0
  -24.6160   -9.5960   21.7350 C   0  0  0  0  0  3  0  0  0  0  0  0
  -23.8900   -8.4030   21.9340 C   0  0  0  0  0  3  0  0  0  0  0  0
  -22.7180   -8.1520   21.1810 C   0  0  0  0  0  0  0  0  0  0  0  0
  -22.3060   -9.0900   20.2180 C   0  0  0  0  0  3  0  0  0  0  0  0
  -23.0340  -10.2750   20.0180 C   0  0  0  0  0  3  0  0  0  0  0  0
  -21.9640   -7.0080   21.2880 O   0  0  0  0  0  0  0  0  0  0  0  0
  -21.7990   -6.3640   22.4880 C   0  0  0  0  0  0  0  0  0  0  0  0
  -21.2340   -7.0100   23.6100 C   0  0  0  0  0  3  0  0  0  0  0  0
  -21.0190   -6.2920   24.8020 C   0  0  0  0  0  3  0  0  0  0  0  0
  -21.3580   -4.9270   24.8740 C   0  0  0  0  0  0  0  0  0  0  0  0
  -21.9170   -4.2810   23.7570 C   0  0  0  0  0  3  0  0  0  0  0  0
  -22.1330   -4.9970   22.5670 C   0  0  0  0  0  0  0  0  0  0  0  0
  -22.6500   -4.3650   21.4850 F   0  0  0  0  0  0  0  0  0  0  0  0
  -21.1450   -4.2340   26.0150 F   0  0  0  0  0  0  0  0  0  0  0  0
  -23.1420  -13.6480   21.1720 C   0  0  0  0  0  0  0  0  0  0  0  0
  -22.5190  -12.9490   22.1150 N   0  0  0  0  0  0  0  0  0  0  0  0
  -22.6540  -14.6840   20.7220 O   0  0  0  0  0  0  0  0  0  0  0  0
  -22.9280  -12.1110   22.5030 H   0  0  0  0  0  0  0  0  0  0  0  0
  -21.6180  -13.2560   22.4520 H   0  0  0  0  0  0  0  0  0  0  0  0
  -25.6890  -15.3080   20.1230 N   0  0  0  0  0  0  0  0  0  0  0  0
  -24.9030  -15.9310   20.2690 H   0  0  0  0  0  0  0  0  0  0  0  0
  -26.4010  -15.7080   19.5270 H   0  0  0  0  0  0  0  0  0  0  0  0
  -28.5010  -18.0740   22.1690 N   0  0  0  0  0  4  0  0  0  0  0  0
  -27.5220  -17.8500   22.1920 H   0  0  0  0  0  0  0  0  0  0  0  0
  -28.6070  -19.0800   22.1580 H   0  0  0  0  0  0  0  0  0  0  0  0
  -28.9350  -17.7250   23.0050 H   0  0  0  0  0  0  0  0  0  0  0  0
  -31.8250  -21.0280   17.9350 O   0  0  0  0  0  0  0  0  0  0  0  0
  -32.5330  -20.6940   18.4780 H   0  0  0  0  0  0  0  0  0  0  0  0
  -29.5590  -24.2570   19.9870 C   0  0  0  0  0  2  0  0  0  0  0  0
  -28.4550  -25.2160   19.4670 C   0  0  0  0  0  2  0  0  0  0  0  0
  -28.5090  -26.5850   19.9440 O   0  0  0  0  0  0  0  0  0  0  0  0
  -24.6210  -31.6880   23.0770 C   0  0  0  0  0  0  0  0  0  0  0  0
  -27.3360  -27.3290   19.9020 C   0  0  0  0  0  0  0  0  0  0  0  0
  -23.4400  -30.3010   21.4050 C   0  0  0  0  0  3  0  0  0  0  0  0
  -24.9190  -28.8240   19.9440 C   0  0  0  0  0  0  0  0  0  0  0  0
  -25.9640  -30.7000   21.2200 C   0  0  0  0  0  2  0  0  0  0  0  0
  -26.0710  -29.3410   20.5530 C   0  0  0  0  0  0  0  0  0  0  0  0
  -27.2780  -28.5980   20.5350 C   0  0  0  0  0  3  0  0  0  0  0  0
  -26.1640  -26.8550   19.2620 C   0  0  0  0  0  3  0  0  0  0  0  0
  -24.9630  -27.5810   19.2980 C   0  0  0  0  0  3  0  0  0  0  0  0
  -23.6610  -29.6590   20.0100 C   0  0  0  0  0  2  0  0  0  0  0  0
  -24.6930  -30.9120   21.9580 N   0  0  0  0  0  0  0  0  0  0  0  0
  -23.5340  -31.9290   23.6210 O   0  0  0  0  0  0  0  0  0  0  0  0
  -22.8080  -29.2460   22.3440 C   0  0  0  0  0  0  0  0  0  0  0  0
  -21.4860  -29.0470   22.2190 N   0  0  0  0  0  0  0  0  0  0  0  0
  -23.5060  -28.6120   23.1410 O   0  0  0  0  0  0  0  0  0  0  0  0
  -20.9850  -29.6130   21.5480 H   0  0  0  0  0  0  0  0  0  0  0  0
  -18.1240  -27.8160   22.7240 C   0  0  0  0  0  0  0  0  0  0  0  0
  -20.6850  -28.0790   22.9680 C   0  0  0  0  0  3  0  0  0  0  0  0
  -20.7850  -26.6690   22.3410 C   0  0  0  0  0  2  0  0  0  0  0  0
  -19.6700  -26.3740   21.3340 C   0  0  0  0  0  2  0  0  0  0  0  0
  -18.2970  -26.4900   22.0030 C   0  0  0  0  0  2  0  0  0  0  0  0
  -19.2450  -28.5690   23.1630 C   0  0  0  0  0  0  0  0  0  0  0  0
  -19.0300  -29.8120   23.7950 C   0  0  0  0  0  3  0  0  0  0  0  0
  -17.7250  -30.3000   23.9970 C   0  0  0  0  0  3  0  0  0  0  0  0
  -16.6190  -29.5450   23.5720 C   0  0  0  0  0  3  0  0  0  0  0  0
  -16.8190  -28.3040   22.9430 C   0  0  0  0  0  3  0  0  0  0  0  0
  -25.8960  -32.3290   23.7090 C   0  0  0  0  0  3  0  0  0  0  0  0
  -25.5480  -33.6980   24.1100 N   0  0  0  0  0  0  0  0  0  0  0  0
  -25.8150  -34.7930   23.3870 C   0  0  0  0  0  0  0  0  0  0  0  0
  -26.4540  -34.7590   22.3310 O   0  0  0  0  0  0  0  0  0  0  0  0
  -24.9780  -33.7950   24.9370 H   0  0  0  0  0  0  0  0  0  0  0  0
  -24.0060  -36.5270   23.1700 C   0  0  0  0  0  1  0  0  0  0  0  0
  -25.2920  -36.1410   23.9190 C   0  0  0  0  0  3  0  0  0  0  0  0
  -27.4170  -37.0820   24.7130 C   0  0  0  0  0  1  0  0  0  0  0  0
  -26.2770  -37.2390   23.8130 N   0  0  0  0  0  0  0  0  0  0  0  0
  -25.8400  -38.1360   24.0070 H   0  0  0  0  0  0  0  0  0  0  0  0
  -26.4540  -31.5130   24.9390 C   0  0  1  0  0  0  0  0  0  0  0  0
  -25.3860  -31.1840   26.0070 C   0  0  0  0  0  1  0  0  0  0  0  0
  -27.0810  -30.1790   24.4690 C   0  0  0  0  0  1  0  0  0  0  0  0
  -27.5820  -32.3150   25.6280 C   0  0  0  0  0  1  0  0  0  0  0  0
  1  6  1  0
  2 55  1  0
  2  1  1  0
  3  2  1  0
  3  4  1  0
  4  1  1  0
  4 57  1  0
  4  5  1  6
  6  8  2  0
  7  6  1  0
  9  7  1  0
 10 22  1  0
 11 16  1  0
 12 13  1  0
 12 11  1  0
 14 13  1  0
 14 26  1  0
 14 15  1  0
 16 10  1  0
 16 15  1  0
 17 10  2  0
 18 22  1  0
 18 20  1  0
 20  7  1  0
 20 21  1  0
 21 19  1  0
 21 51  1  0
 22 19  1  0
 23 24  2  0
 24 43  1  0
 25 24  1  0
 25 28  1  0
 26 27  1  0
 26 23  1  0
 27 25  2  0
 28 29  1  0
 29 30  2  0
 31 34  1  0
 31 30  1  0
 32 31  2  0
 33 32  1  0
 33 28  2  0
 34 35  1  0
 35 40  2  0
 35 36  1  0
 36 37  2  0
 37 38  1  0
 38 42  1  0
 39 38  2  0
 40 39  1  0
 41 40  1  0
 43 44  1  0
 44 47  1  0
 44 46  1  0
 45 43  2  0
 48 23  1  0
 48 49  1  0
 50 48  1  0
 51 52  1  0
 51 54  1  0
 53 51  1  0
 55 56  1  0
 58 59  1  0
 58 57  1  0
 60 71  2  0
 61 59  1  0
 61 66  1  0
 62 70  1  0
 62 72  1  0
 63 69  1  0
 63 65  1  0
 64 70  1  0
 65 64  1  0
 66 65  2  0
 67 68  1  0
 67 61  2  0
 68 63  2  0
 69 62  1  0
 70 60  1  0
 72 74  2  0
 73 72  1  0
 75 73  1  0
 76 85  2  0
 76 81  1  0
 77 73  1  0
 77 81  1  0
 78 77  1  0
 79 80  1  0
 79 78  1  0
 80 76  1  0
 81 82  2  0
 82 83  1  0
 84 83  2  0
 85 84  1  0
 86 60  1  0
 86 87  1  0
 86 96  1  0
 87 90  1  0
 88 92  1  0
 88 87  1  0
 89 88  2  0
 92 91  1  0
 94 92  1  0
 94 95  1  0
 94 93  1  0
 96 99  1  1
 96 97  1  0
 98 96  1  0
M  ISO  4  10 100  22 100  58 101  59 101
M  END
>  <TORSDO>  (22) 
F 21

>  <SCORE>  (22) 
-10.313

>  <name>  (22) 
22

>  <ligand_id>  (22) 
22

>  <original_smiles>  (22) 
[H]OC1=C(C(=O)N([H])C2([H])C([H])([H])N(C(=O)N3C([H])([H])C([H])([H])C([H])([H])C([H])(n4nc(-c5c([H])c([H])c(Oc6c([H])c([H])c(F)c([H])c6F)c([H])c5[H])c(C(=O)N([H])[H])c4N([H])[H])C3([H])[H])C([H])([H])C2([H])[N+]([H])([H])[H])[N+]([H])(C([H])([H])C([H])([H])Oc2c([H])c([H])c3c(c2[H])C([H])([H])N(C(=O)C([H])(N([H])C(=O)C([H])(N([H])C([H])([H])[H])C([H])([H])[H])C(C([H])([H])[H])(C([H])([H])[H])C([H])([H])[H])C([H])(C(=O)N([H])C2([H])c4c([H])c([H])c([H])c([H])c4C([H])([H])C([H])([H])C2([H])[H])C3([H])[H])C1([H])[H]

>  <smiles>  (22) 
[H]OC1=C(C(=O)N([H])C2([H])C([H])([H])N(C(=O)N3C([H])([H])C([H])([H])C([H])([H])C([H])(n4nc(-c5c([H])c([H])c(Oc6c([H])c([H])c(F)c([H])c6F)c([H])c5[H])c(C(=O)N([H])[H])c4N([H])[H])C3([H])[H])C([H])([H])C2([H])[N+]([H])([H])[H])[N+]([H])(C([H])([H])C([H])([H])Oc2c([H])c([H])c3c(c2[H])C([H])([H])N(C(=O)C([H])(N([H])C(=O)C([H])(N([H])C([H])([H])[H])C([H])([H])[H])C(C([H])([H])[H])(C([H])([H])[H])C([H])([H])[H])C([H])(C(=O)N([H])C2([H])c4c([H])c([H])c([H])c([H])c4C([H])([H])C([H])([H])C2([H])[H])C3([H])[H])C1([H])[H]

$$$$
23:0:0
     RDKit          3D

 93101  0  0  1  0  0  0  0  0999 V2000
  -30.8600  -23.0470   21.2140 N   0  0  0  0  0  4  0  0  0  0  0  0
  -31.6350  -23.4220   20.6920 H   0  0  0  0  0  0  0  0  0  0  0  0
  -31.0810  -23.1230   22.1930 H   0  0  0  0  0  0  0  0  0  0  0  0
  -30.7300  -21.6040   20.9190 C   0  0  0  0  0  2  0  0  0  0  0  0
  -31.8040  -20.7890   21.6690 C   0  0  0  0  0  2  0  0  0  0  0  0
  -30.4770  -18.7030   22.2600 C   0  0  0  0  0  3  0  0  0  0  0  0
  -32.4560  -18.4650   20.8660 C   0  0  0  0  0  3  0  0  0  0  0  0
  -30.2260  -17.3210   22.1500 C   0  0  0  0  0  3  0  0  0  0  0  0
  -32.2120  -17.0830   20.7670 C   0  0  0  0  0  3  0  0  0  0  0  0
  -31.5740  -19.2880   21.5920 C   0  0  0  0  0  0  0  0  0  0  0  0
  -31.0670  -16.5030   21.3690 C   0  0  0  0  0  0  0  0  0  0  0  0
  -30.9410  -14.3820   20.1250 C   0  0  0  0  0  0  0  0  0  0  0  0
  -30.4080  -12.3350   18.8680 C   0  0  0  0  0  2  0  0  0  0  0  0
  -29.4080  -12.6250   17.7350 C   0  0  0  0  0  2  0  0  0  0  0  0
  -27.9670  -12.4870   18.2520 C   0  0  0  0  0  2  0  0  0  0  0  0
  -27.7260  -13.2980   19.5510 C   0  0  0  0  0  3  0  0  0  0  0  0
  -28.8430  -13.0440   20.5950 C   0  0  0  0  0  2  0  0  0  0  0  0
  -30.1600  -13.2800   19.9700 N   0  0  0  0  0  0  0  0  0  0  0  0
  -31.8690  -14.6360   19.3550 O   0  0  0  0  0  0  0  0  0  0  0  0
  -30.7070  -15.1320   21.2120 N   0  0  0  0  0  0  0  0  0  0  0  0
  -29.9880  -14.7780   21.8240 H   0  0  0  0  0  0  0  0  0  0  0  0
  -25.3690  -13.9090   20.3940 C   0  0  0  0  0  0  0  0  0  0  0  0
  -24.3180  -13.1380   20.8150 C   0  0  0  0  0  0  0  0  0  0  0  0
  -24.7670  -11.7840   20.7420 C   0  0  0  0  0  0  0  0  0  0  0  0
  -26.3970  -13.0270   20.1000 N   0  0  0  0  0  0  0  0  0  0  0  0
  -26.0390  -11.7430   20.3640 N   0  0  0  0  0  0  0  0  0  0  0  0
  -24.0430  -10.5220   20.9570 C   0  0  0  0  0  0  0  0  0  0  0  0
  -24.4820   -9.5720   21.9060 C   0  0  0  0  0  3  0  0  0  0  0  0
  -23.7580   -8.3770   22.1080 C   0  0  0  0  0  3  0  0  0  0  0  0
  -22.5820   -8.1240   21.3620 C   0  0  0  0  0  0  0  0  0  0  0  0
  -22.1630   -9.0630   20.4040 C   0  0  0  0  0  3  0  0  0  0  0  0
  -22.8870  -10.2500   20.1990 C   0  0  0  0  0  3  0  0  0  0  0  0
  -21.8300   -6.9800   21.4720 O   0  0  0  0  0  0  0  0  0  0  0  0
  -21.7400   -6.2890   22.6530 C   0  0  0  0  0  0  0  0  0  0  0  0
  -21.2690   -6.8960   23.8380 C   0  0  0  0  0  3  0  0  0  0  0  0
  -21.1280   -6.1330   25.0140 C   0  0  0  0  0  3  0  0  0  0  0  0
  -21.4450   -4.7620   25.0050 C   0  0  0  0  0  0  0  0  0  0  0  0
  -21.9090   -4.1530   23.8270 C   0  0  0  0  0  3  0  0  0  0  0  0
  -22.0530   -4.9140   22.6530 C   0  0  0  0  0  0  0  0  0  0  0  0
  -22.4800   -4.3180   21.5140 F   0  0  0  0  0  0  0  0  0  0  0  0
  -21.3010   -4.0250   26.1320 F   0  0  0  0  0  0  0  0  0  0  0  0
  -22.9410  -13.6200   21.1710 C   0  0  0  0  0  0  0  0  0  0  0  0
  -22.2640  -12.9250   22.0790 N   0  0  0  0  0  0  0  0  0  0  0  0
  -22.4750  -14.6480   20.6810 O   0  0  0  0  0  0  0  0  0  0  0  0
  -22.6540  -12.0910   22.4960 H   0  0  0  0  0  0  0  0  0  0  0  0
  -21.3420  -13.2290   22.3600 H   0  0  0  0  0  0  0  0  0  0  0  0
  -25.5300  -15.2820   20.2240 N   0  0  0  0  0  0  0  0  0  0  0  0
  -24.7740  -15.9400   20.3810 H   0  0  0  0  0  0  0  0  0  0  0  0
  -26.3680  -15.7200   19.8620 H   0  0  0  0  0  0  0  0  0  0  0  0
  -29.6520  -23.8680   20.9810 C   0  0  0  0  0  2  0  0  0  0  0  0
  -29.8490  -25.2760   21.5810 C   0  0  0  0  0  2  0  0  0  0  0  0
  -28.6210  -26.1950   21.5190 C   0  0  0  0  0  2  0  0  0  0  0  0
  -28.4130  -26.7230   20.2100 O   0  0  0  0  0  0  0  0  0  0  0  0
  -24.6130  -31.8930   23.2320 C   0  0  0  0  0  0  0  0  0  0  0  0
  -27.2790  -27.4900   20.1640 C   0  0  0  0  0  0  0  0  0  0  0  0
  -23.4140  -30.4820   21.5920 C   0  0  0  0  0  3  0  0  0  0  0  0
  -24.8780  -28.9580   20.1620 C   0  0  0  0  0  0  0  0  0  0  0  0
  -25.9330  -30.8690   21.3880 C   0  0  0  0  0  2  0  0  0  0  0  0
  -26.0260  -29.4990   20.7550 C   0  0  0  0  0  0  0  0  0  0  0  0
  -27.2320  -28.7680   20.7580 C   0  0  0  0  0  3  0  0  0  0  0  0
  -26.1240  -26.9550   19.5630 C   0  0  0  0  0  3  0  0  0  0  0  0
  -24.9200  -27.6870   19.5620 C   0  0  0  0  0  3  0  0  0  0  0  0
  -23.6260  -29.8030   20.2120 C   0  0  0  0  0  2  0  0  0  0  0  0
  -24.6710  -31.0950   22.1300 N   0  0  0  0  0  0  0  0  0  0  0  0
  -23.5300  -32.1570   23.7730 O   0  0  0  0  0  0  0  0  0  0  0  0
  -22.7720  -29.4570   22.5540 C   0  0  0  0  0  0  0  0  0  0  0  0
  -21.4470  -29.2770   22.4350 N   0  0  0  0  0  0  0  0  0  0  0  0
  -23.4630  -28.8290   23.3620 O   0  0  0  0  0  0  0  0  0  0  0  0
  -20.9530  -29.8370   21.7540 H   0  0  0  0  0  0  0  0  0  0  0  0
  -18.0730  -28.1010   22.9500 C   0  0  0  0  0  0  0  0  0  0  0  0
  -20.6330  -28.3390   23.2070 C   0  0  0  0  0  3  0  0  0  0  0  0
  -20.7250  -26.9110   22.6200 C   0  0  0  0  0  2  0  0  0  0  0  0
  -19.6130  -26.6030   21.6130 C   0  0  0  0  0  2  0  0  0  0  0  0
  -18.2350  -26.7540   22.2660 C   0  0  0  0  0  2  0  0  0  0  0  0
  -19.1980  -28.8520   23.3770 C   0  0  0  0  0  0  0  0  0  0  0  0
  -18.9930  -30.1150   23.9740 C   0  0  0  0  0  3  0  0  0  0  0  0
  -17.6920  -30.6250   24.1510 C   0  0  0  0  0  3  0  0  0  0  0  0
  -16.5790  -29.8690   23.7420 C   0  0  0  0  0  3  0  0  0  0  0  0
  -16.7700  -28.6100   23.1440 C   0  0  0  0  0  3  0  0  0  0  0  0
  -25.8990  -32.5310   23.8510 C   0  0  0  0  0  3  0  0  0  0  0  0
  -25.5870  -33.9310   24.1700 N   0  0  0  0  0  0  0  0  0  0  0  0
  -25.9240  -34.9790   23.4060 C   0  0  0  0  0  0  0  0  0  0  0  0
  -26.6010  -34.8680   22.3790 O   0  0  0  0  0  0  0  0  0  0  0  0
  -24.9880  -34.0910   24.9670 H   0  0  0  0  0  0  0  0  0  0  0  0
  -24.1960  -36.7620   23.0260 C   0  0  0  0  0  1  0  0  0  0  0  0
  -25.4310  -36.3680   23.8510 C   0  0  0  0  0  3  0  0  0  0  0  0
  -27.5580  -37.2580   24.6920 C   0  0  0  0  0  1  0  0  0  0  0  0
  -26.4630  -37.4220   23.7400 N   0  0  0  0  0  0  0  0  0  0  0  0
  -26.0540  -38.3430   23.8780 H   0  0  0  0  0  0  0  0  0  0  0  0
  -26.4180  -31.7660   25.1290 C   0  0  1  0  0  0  0  0  0  0  0  0
  -25.3230  -31.5300   26.1960 C   0  0  0  0  0  1  0  0  0  0  0  0
  -27.0040  -30.3900   24.7330 C   0  0  0  0  0  1  0  0  0  0  0  0
  -27.5640  -32.5650   25.7910 C   0  0  0  0  0  1  0  0  0  0  0  0
  1  3  1  0
  2  1  1  0
  4  1  1  0
  4  5  1  0
  7 10  1  0
  8  6  1  0
  9  7  2  0
  9 11  1  0
 10  5  1  0
 10  6  2  0
 11  8  2  0
 12 20  1  0
 13 18  1  0
 14 15  1  0
 14 13  1  0
 16 15  1  0
 16 25  1  0
 16 17  1  0
 18 12  1  0
 18 17  1  0
 19 12  2  0
 20 11  1  0
 20 21  1  0
 22 23  2  0
 23 42  1  0
 24 23  1  0
 24 27  1  0
 25 26  1  0
 25 22  1  0
 26 24  2  0
 27 28  1  0
 28 29  2  0
 30 33  1  0
 30 29  1  0
 31 30  2  0
 32 31  1  0
 32 27  2  0
 33 34  1  0
 34 35  1  0
 35 36  2  0
 37 36  1  0
 37 41  1  0
 38 37  2  0
 39 34  2  0
 39 38  1  0
 40 39  1  0
 42 43  1  0
 43 46  1  0
 43 45  1  0
 44 42  2  0
 47 48  1  0
 47 22  1  0
 49 47  1  0
 50  1  1  0
 50 51  1  0
 52 51  1  0
 53 52  1  0
 54 65  2  0
 55 53  1  0
 55 60  1  0
 56 64  1  0
 56 66  1  0
 57 63  1  0
 57 59  1  0
 58 64  1  0
 59 60  2  0
 59 58  1  0
 61 55  2  0
 62 61  1  0
 62 57  2  0
 63 56  1  0
 64 54  1  0
 66 68  2  0
 67 66  1  0
 69 67  1  0
 70 79  2  0
 70 75  1  0
 71 67  1  0
 71 75  1  0
 72 71  1  0
 73 74  1  0
 73 72  1  0
 74 70  1  0
 75 76  2  0
 76 77  1  0
 78 77  2  0
 79 78  1  0
 80 54  1  0
 80 81  1  0
 80 90  1  0
 81 84  1  0
 82 86  1  0
 82 81  1  0
 83 82  2  0
 86 85  1  0
 88 86  1  0
 88 89  1  0
 88 87  1  0
 90 93  1  1
 90 91  1  0
 92 90  1  0
M  ISO  4  12 100  20 100  52 101  53 101
M  END
>  <TORSDO>  (23) 
F 22

>  <SCORE>  (23) 
-12.855

>  <name>  (23) 
23

>  <ligand_id>  (23) 
23

>  <original_smiles>  (23) 
[H]c1c([H])c([H])c2c(c1[H])C([H])([H])C([H])([H])C([H])([H])C2([H])N([H])C(=O)C1([H])N(C(=O)C([H])(N([H])C(=O)C([H])(N([H])C([H])([H])[H])C([H])([H])[H])C(C([H])([H])[H])(C([H])([H])[H])C([H])([H])[H])C([H])([H])c2c([H])c(OC([H])([H])C([H])([H])C([H])([H])[N+]([H])([H])C([H])([H])C([H])([H])c3c([H])c([H])c(N([H])C(=O)N4C([H])([H])C([H])([H])C([H])([H])C([H])(n5nc(-c6c([H])c([H])c(Oc7c([H])c([H])c(F)c([H])c7F)c([H])c6[H])c(C(=O)N([H])[H])c5N([H])[H])C4([H])[H])c([H])c3[H])c([H])c([H])c2C1([H])[H]

>  <smiles>  (23) 
[H]c1c([H])c([H])c2c(c1[H])C([H])([H])C([H])([H])C([H])([H])C2([H])N([H])C(=O)C1([H])N(C(=O)C([H])(N([H])C(=O)C([H])(N([H])C([H])([H])[H])C([H])([H])[H])C(C([H])([H])[H])(C([H])([H])[H])C([H])([H])[H])C([H])([H])c2c([H])c(OC([H])([H])C([H])([H])C([H])([H])[N+]([H])([H])C([H])([H])C([H])([H])c3c([H])c([H])c(N([H])C(=O)N4C([H])([H])C([H])([H])C([H])([H])C([H])(n5nc(-c6c([H])c([H])c(Oc7c([H])c([H])c(F)c([H])c7F)c([H])c6[H])c(C(=O)N([H])[H])c5N([H])[H])C4([H])[H])c([H])c3[H])c([H])c([H])c2C1([H])[H]

$$$$
24:0:0
     RDKit          3D

 95103  0  0  1  0  0  0  0  0999 V2000
  -29.7250  -22.1690   24.4520 C   0  0  0  0  0  1  0  0  0  0  0  0
  -29.6070  -21.6530   22.9980 C   0  0  0  0  0  3  0  0  0  0  0  0
  -30.9550  -21.0910   22.4270 C   0  0  0  0  0  2  0  0  0  0  0  0
  -29.5990  -18.0230   20.5680 C   0  0  0  0  0  2  0  0  0  0  0  0
  -32.0610  -17.5600   21.3650 C   0  0  0  0  0  2  0  0  0  0  0  0
  -29.9330  -19.5120   20.7500 C   0  0  0  0  0  2  0  0  0  0  0  0
  -32.1810  -19.0930   21.5500 C   0  0  0  0  0  2  0  0  0  0  0  0
  -30.8510  -17.0920   20.4890 C   0  0  0  0  0  3  0  0  0  0  0  0
  -30.8640  -19.6970   21.8920 N   0  0  1  0  0  4  0  0  0  0  0  0
  -30.5080  -19.1470   22.6600 H   0  0  0  0  0  0  0  0  0  0  0  0
  -30.9970  -14.6440   20.0230 C   0  0  0  0  0  0  0  0  0  0  0  0
  -30.5470  -12.5810   18.7230 C   0  0  0  0  0  2  0  0  0  0  0  0
  -29.5210  -12.8770   17.6080 C   0  0  0  0  0  2  0  0  0  0  0  0
  -28.0750  -12.7300   18.1240 C   0  0  0  0  0  2  0  0  0  0  0  0
  -27.8520  -13.4710   19.4680 C   0  0  0  0  0  3  0  0  0  0  0  0
  -28.9720  -13.0990   20.4530 C   0  0  0  0  0  2  0  0  0  0  0  0
  -30.2670  -13.4920   19.8540 N   0  0  0  0  0  0  0  0  0  0  0  0
  -32.0170  -14.8460   19.3480 O   0  0  0  0  0  0  0  0  0  0  0  0
  -29.9100  -15.4760   22.1210 C   0  0  0  0  0  1  0  0  0  0  0  0
  -30.4860  -15.6680   20.7770 N   0  0  0  0  0  0  0  0  0  0  0  0
  -25.5130  -14.0750   20.3560 C   0  0  0  0  0  0  0  0  0  0  0  0
  -24.4650  -13.3000   20.7730 C   0  0  0  0  0  0  0  0  0  0  0  0
  -24.9090  -11.9460   20.6690 C   0  0  0  0  0  0  0  0  0  0  0  0
  -26.5310  -13.1930   20.0280 N   0  0  0  0  0  0  0  0  0  0  0  0
  -26.1730  -11.9040   20.2650 N   0  0  0  0  0  0  0  0  0  0  0  0
  -24.1850  -10.6850   20.8760 C   0  0  0  0  0  0  0  0  0  0  0  0
  -24.6170   -9.7360   21.8290 C   0  0  0  0  0  3  0  0  0  0  0  0
  -23.8980   -8.5370   22.0260 C   0  0  0  0  0  3  0  0  0  0  0  0
  -22.7310   -8.2800   21.2690 C   0  0  0  0  0  0  0  0  0  0  0  0
  -22.3140   -9.2190   20.3090 C   0  0  0  0  0  3  0  0  0  0  0  0
  -23.0350  -10.4080   20.1120 C   0  0  0  0  0  3  0  0  0  0  0  0
  -21.9860   -7.1300   21.3700 O   0  0  0  0  0  0  0  0  0  0  0  0
  -21.8610   -6.4550   22.5570 C   0  0  0  0  0  0  0  0  0  0  0  0
  -21.3530   -7.0770   23.7190 C   0  0  0  0  0  3  0  0  0  0  0  0
  -21.1790   -6.3280   24.8990 C   0  0  0  0  0  3  0  0  0  0  0  0
  -21.5000   -4.9580   24.9200 C   0  0  0  0  0  0  0  0  0  0  0  0
  -22.0020   -4.3360   23.7630 C   0  0  0  0  0  3  0  0  0  0  0  0
  -22.1800   -5.0830   22.5850 C   0  0  0  0  0  0  0  0  0  0  0  0
  -22.6460   -4.4740   21.4680 F   0  0  0  0  0  0  0  0  0  0  0  0
  -21.3230   -4.2370   26.0500 F   0  0  0  0  0  0  0  0  0  0  0  0
  -23.0960  -13.7800   21.1580 C   0  0  0  0  0  0  0  0  0  0  0  0
  -22.4390  -13.0870   22.0800 N   0  0  0  0  0  0  0  0  0  0  0  0
  -22.6190  -14.8100   20.6800 O   0  0  0  0  0  0  0  0  0  0  0  0
  -22.8330  -12.2490   22.4820 H   0  0  0  0  0  0  0  0  0  0  0  0
  -21.5280  -13.3990   22.3860 H   0  0  0  0  0  0  0  0  0  0  0  0
  -25.6780  -15.4490   20.2080 N   0  0  0  0  0  0  0  0  0  0  0  0
  -24.9170  -16.1000   20.3710 H   0  0  0  0  0  0  0  0  0  0  0  0
  -26.5160  -15.8960   19.8550 H   0  0  0  0  0  0  0  0  0  0  0  0
  -28.8780  -22.6750   22.0730 C   0  0  0  0  0  2  0  0  0  0  0  0
  -29.4410  -24.0510   22.0740 N   0  0  0  0  0  4  0  0  0  0  0  0
  -29.2600  -24.4740   22.9750 H   0  0  0  0  0  0  0  0  0  0  0  0
  -30.4420  -24.0150   21.9480 H   0  0  0  0  0  0  0  0  0  0  0  0
  -28.8560  -24.9210   21.0200 C   0  0  0  0  0  2  0  0  0  0  0  0
  -29.3870  -26.3690   21.0480 C   0  0  0  0  0  2  0  0  0  0  0  0
  -28.8950  -27.0610   19.9020 O   0  0  0  0  0  0  0  0  0  0  0  0
  -24.7960  -31.7580   23.3990 C   0  0  0  0  0  0  0  0  0  0  0  0
  -27.6930  -27.7150   20.0390 C   0  0  0  0  0  0  0  0  0  0  0  0
  -23.6850  -30.4610   21.6040 C   0  0  0  0  0  3  0  0  0  0  0  0
  -25.2380  -29.1030   20.1050 C   0  0  0  0  0  0  0  0  0  0  0  0
  -26.1950  -30.9330   21.5140 C   0  0  0  0  0  2  0  0  0  0  0  0
  -26.3540  -29.6190   20.7770 C   0  0  0  0  0  0  0  0  0  0  0  0
  -27.5850  -28.9300   20.7450 C   0  0  0  0  0  3  0  0  0  0  0  0
  -26.5670  -27.2040   19.3650 C   0  0  0  0  0  3  0  0  0  0  0  0
  -25.3380  -27.8920   19.3960 C   0  0  0  0  0  3  0  0  0  0  0  0
  -23.9610  -29.9090   20.1800 C   0  0  0  0  0  2  0  0  0  0  0  0
  -24.9060  -31.0610   22.2320 N   0  0  0  0  0  0  0  0  0  0  0  0
  -23.6890  -31.9470   23.9280 O   0  0  0  0  0  0  0  0  0  0  0  0
  -23.0470  -29.3400   22.4530 C   0  0  0  0  0  0  0  0  0  0  0  0
  -21.7350  -29.1170   22.2630 N   0  0  0  0  0  0  0  0  0  0  0  0
  -23.7280  -28.6750   23.2370 O   0  0  0  0  0  0  0  0  0  0  0  0
  -21.2490  -29.7110   21.6070 H   0  0  0  0  0  0  0  0  0  0  0  0
  -18.4020  -27.7550   22.5270 C   0  0  0  0  0  0  0  0  0  0  0  0
  -20.9330  -28.0910   22.9260 C   0  0  0  0  0  3  0  0  0  0  0  0
  -21.1160  -26.7160   22.2420 C   0  0  0  0  0  2  0  0  0  0  0  0
  -20.0700  -26.4330   21.1590 C   0  0  0  0  0  2  0  0  0  0  0  0
  -18.6620  -26.4720   21.7570 C   0  0  0  0  0  2  0  0  0  0  0  0
  -19.4680  -28.5250   23.0610 C   0  0  0  0  0  0  0  0  0  0  0  0
  -19.1730  -29.7310   23.7320 C   0  0  0  0  0  3  0  0  0  0  0  0
  -17.8410  -30.1620   23.8800 C   0  0  0  0  0  3  0  0  0  0  0  0
  -16.7880  -29.3870   23.3640 C   0  0  0  0  0  3  0  0  0  0  0  0
  -17.0710  -28.1860   22.6930 C   0  0  0  0  0  3  0  0  0  0  0  0
  -26.0420  -32.3740   24.1080 C   0  0  0  0  0  3  0  0  0  0  0  0
  -25.7020  -33.7530   24.4780 N   0  0  0  0  0  0  0  0  0  0  0  0
  -26.0660  -34.8380   23.7790 C   0  0  0  0  0  0  0  0  0  0  0  0
  -26.7930  -34.7830   22.7850 O   0  0  0  0  0  0  0  0  0  0  0  0
  -25.0580  -33.8690   25.2450 H   0  0  0  0  0  0  0  0  0  0  0  0
  -24.3390  -36.6280   23.3990 C   0  0  0  0  0  1  0  0  0  0  0  0
  -25.5360  -36.2000   24.2650 C   0  0  0  0  0  3  0  0  0  0  0  0
  -27.6100  -37.0740   25.2540 C   0  0  0  0  0  1  0  0  0  0  0  0
  -26.5620  -37.2660   24.2560 N   0  0  0  0  0  0  0  0  0  0  0  0
  -26.1370  -38.1760   24.4120 H   0  0  0  0  0  0  0  0  0  0  0  0
  -26.5080  -31.5520   25.3720 C   0  0  1  0  0  0  0  0  0  0  0  0
  -25.3680  -31.2550   26.3730 C   0  0  0  0  0  1  0  0  0  0  0  0
  -27.1330  -30.2030   24.9490 C   0  0  0  0  0  1  0  0  0  0  0  0
  -27.6100  -32.3320   26.1250 C   0  0  0  0  0  1  0  0  0  0  0  0
  2  1  1  0
  3  2  1  0
  4  6  1  0
  5  7  1  0
  6  9  1  0
  7  9  1  0
  8  4  1  0
  8 20  1  0
  8  5  1  0
  9  3  1  0
  9 10  1  1
 11 20  1  0
 12 17  1  0
 13 14  1  0
 13 12  1  0
 15 14  1  0
 15 24  1  0
 15 16  1  0
 17 11  1  0
 17 16  1  0
 18 11  2  0
 20 19  1  0
 21 22  2  0
 22 41  1  0
 23 22  1  0
 23 26  1  0
 24 25  1  0
 24 21  1  0
 25 23  2  0
 26 27  1  0
 27 28  2  0
 29 32  1  0
 29 28  1  0
 30 29  2  0
 31 30  1  0
 31 26  2  0
 32 33  1  0
 33 38  2  0
 33 34  1  0
 34 35  2  0
 35 36  1  0
 36 40  1  0
 37 36  2  0
 38 37  1  0
 39 38  1  0
 41 42  1  0
 42 45  1  0
 42 44  1  0
 43 41  2  0
 46 21  1  0
 46 47  1  0
 48 46  1  0
 49 50  1  0
 49  2  1  0
 50 51  1  0
 52 50  1  0
 53 54  1  0
 53 50  1  0
 55 57  1  0
 55 54  1  0
 56 67  2  0
 57 62  1  0
 58 66  1  0
 58 68  1  0
 59 65  1  0
 59 61  1  0
 60 66  1  0
 61 60  1  0
 62 61  2  0
 63 64  1  0
 63 57  2  0
 64 59  2  0
 65 58  1  0
 66 56  1  0
 68 70  2  0
 69 68  1  0
 71 69  1  0
 72 81  2  0
 72 77  1  0
 73 69  1  0
 73 77  1  0
 74 73  1  0
 75 76  1  0
 75 74  1  0
 76 72  1  0
 77 78  2  0
 78 79  1  0
 80 79  2  0
 81 80  1  0
 82 56  1  0
 82 83  1  0
 82 92  1  0
 83 86  1  0
 84 88  1  0
 84 83  1  0
 85 84  2  0
 88 87  1  0
 90 88  1  0
 90 91  1  0
 90 89  1  0
 92 95  1  1
 92 93  1  0
 94 92  1  0
M  ISO  4  11 100  20 100  54 101  55 101
M  END
>  <TORSDO>  (24) 
F 22

>  <SCORE>  (24) 
-11.508

>  <name>  (24) 
24

>  <ligand_id>  (24) 
24

>  <original_smiles>  (24) 
[H]c1c([H])c([H])c2c(c1[H])C([H])([H])C([H])([H])C([H])([H])C2([H])N([H])C(=O)C1([H])N(C(=O)C([H])(N([H])C(=O)C([H])(N([H])C([H])([H])[H])C([H])([H])[H])C(C([H])([H])[H])(C([H])([H])[H])C([H])([H])[H])C([H])([H])c2c([H])c(OC([H])([H])C([H])([H])[N+]([H])([H])C([H])([H])C([H])(C([H])([H])[H])C([H])([H])[N+]3([H])C([H])([H])C([H])([H])C([H])(N(C(=O)N4C([H])([H])C([H])([H])C([H])([H])C([H])(n5nc(-c6c([H])c([H])c(Oc7c([H])c([H])c(F)c([H])c7F)c([H])c6[H])c(C(=O)N([H])[H])c5N([H])[H])C4([H])[H])C([H])([H])[H])C([H])([H])C3([H])[H])c([H])c([H])c2C1([H])[H]

>  <smiles>  (24) 
[H]c1c([H])c([H])c2c(c1[H])C([H])([H])C([H])([H])C([H])([H])C2([H])N([H])C(=O)C1([H])N(C(=O)C([H])(N([H])C(=O)C([H])(N([H])C([H])([H])[H])C([H])([H])[H])C(C([H])([H])[H])(C([H])([H])[H])C([H])([H])[H])C([H])([H])c2c([H])c(OC([H])([H])C([H])([H])[N+]([H])([H])C([H])([H])C([H])(C([H])([H])[H])C([H])([H])[N+]3([H])C([H])([H])C([H])([H])C([H])(N(C(=O)N4C([H])([H])C([H])([H])C([H])([H])C([H])(n5nc(-c6c([H])c([H])c(Oc7c([H])c([H])c(F)c([H])c7F)c([H])c6[H])c(C(=O)N([H])[H])c5N([H])[H])C4([H])[H])C([H])([H])[H])C([H])([H])C3([H])[H])c([H])c([H])c2C1([H])[H]

$$$$
25:0:0
     RDKit          3D

 94102  0  0  1  0  0  0  0  0999 V2000
  -28.4570  -21.3360   22.9410 C   0  0  0  0  0  2  0  0  0  0  0  0
  -28.9230  -23.6150   22.0290 C   0  0  0  0  0  0  0  0  0  0  0  0
  -28.3900  -22.3920   21.9360 N   0  0  0  0  0  0  0  0  0  0  0  0
  -29.5910  -23.9710   22.9990 O   0  0  0  0  0  0  0  0  0  0  0  0
  -27.8560  -22.1890   21.0990 H   0  0  0  0  0  0  0  0  0  0  0  0
  -28.6680  -24.5490   20.8440 C   0  0  0  0  0  2  0  0  0  0  0  0
  -28.7220  -26.0410   21.2020 C   0  0  0  0  0  2  0  0  0  0  0  0
  -28.4130  -26.7800   20.0260 O   0  0  0  0  0  0  0  0  0  0  0  0
  -24.6090  -31.8710   23.2120 C   0  0  0  0  0  0  0  0  0  0  0  0
  -27.2410  -27.4840   20.0890 C   0  0  0  0  0  0  0  0  0  0  0  0
  -23.3950  -30.4930   21.5510 C   0  0  0  0  0  3  0  0  0  0  0  0
  -24.8430  -28.9590   20.1190 C   0  0  0  0  0  0  0  0  0  0  0  0
  -25.9170  -30.8500   21.3570 C   0  0  0  0  0  2  0  0  0  0  0  0
  -25.9980  -29.4830   20.7160 C   0  0  0  0  0  0  0  0  0  0  0  0
  -27.2000  -28.7490   20.7080 C   0  0  0  0  0  3  0  0  0  0  0  0
  -26.0780  -26.9580   19.4910 C   0  0  0  0  0  3  0  0  0  0  0  0
  -24.8760  -27.6910   19.5080 C   0  0  0  0  0  3  0  0  0  0  0  0
  -23.6010  -29.8200   20.1660 C   0  0  0  0  0  2  0  0  0  0  0  0
  -24.6590  -31.0860   22.0990 N   0  0  0  0  0  0  0  0  0  0  0  0
  -23.5300  -32.1430   23.7540 O   0  0  0  0  0  0  0  0  0  0  0  0
  -22.7380  -29.4690   22.5020 C   0  0  0  0  0  0  0  0  0  0  0  0
  -21.4120  -29.3040   22.3760 N   0  0  0  0  0  0  0  0  0  0  0  0
  -23.4180  -28.8240   23.3050 O   0  0  0  0  0  0  0  0  0  0  0  0
  -20.9260  -29.8740   21.6980 H   0  0  0  0  0  0  0  0  0  0  0  0
  -18.0260  -28.1380   22.8500 C   0  0  0  0  0  0  0  0  0  0  0  0
  -20.5850  -28.3650   23.1340 C   0  0  0  0  0  3  0  0  0  0  0  0
  -20.6770  -26.9390   22.5420 C   0  0  0  0  0  2  0  0  0  0  0  0
  -19.5740  -26.6390   21.5220 C   0  0  0  0  0  2  0  0  0  0  0  0
  -18.1920  -26.7930   22.1620 C   0  0  0  0  0  2  0  0  0  0  0  0
  -19.1520  -28.8830   23.2920 C   0  0  0  0  0  0  0  0  0  0  0  0
  -18.9450  -30.1440   23.8920 C   0  0  0  0  0  3  0  0  0  0  0  0
  -17.6460  -30.6590   24.0570 C   0  0  0  0  0  3  0  0  0  0  0  0
  -16.5350  -29.9090   23.6320 C   0  0  0  0  0  3  0  0  0  0  0  0
  -16.7260  -28.6510   23.0340 C   0  0  0  0  0  3  0  0  0  0  0  0
  -25.9000  -32.4840   23.8410 C   0  0  0  0  0  3  0  0  0  0  0  0
  -25.5870  -33.8640   24.2360 N   0  0  0  0  0  0  0  0  0  0  0  0
  -25.9020  -34.9490   23.5150 C   0  0  0  0  0  0  0  0  0  0  0  0
  -26.5590  -34.8940   22.4710 O   0  0  0  0  0  0  0  0  0  0  0  0
  -25.0040  -33.9810   25.0520 H   0  0  0  0  0  0  0  0  0  0  0  0
  -24.1480  -36.7320   23.2640 C   0  0  0  0  0  1  0  0  0  0  0  0
  -25.4100  -36.3130   24.0340 C   0  0  0  0  0  3  0  0  0  0  0  0
  -27.5580  -37.1820   24.8470 C   0  0  0  0  0  1  0  0  0  0  0  0
  -26.4300  -37.3820   23.9410 N   0  0  0  0  0  0  0  0  0  0  0  0
  -26.0190  -38.2900   24.1420 H   0  0  0  0  0  0  0  0  0  0  0  0
  -26.4450  -31.6610   25.0720 C   0  0  1  0  0  0  0  0  0  0  0  0
  -25.3740  -31.3680   26.1480 C   0  0  0  0  0  1  0  0  0  0  0  0
  -27.0280  -30.3080   24.6020 C   0  0  0  0  0  1  0  0  0  0  0  0
  -27.6050  -32.4310   25.7460 C   0  0  0  0  0  1  0  0  0  0  0  0
  -29.8620  -20.6980   23.0640 C   0  0  0  0  0  2  0  0  0  0  0  0
  -29.6520  -17.4580   21.0500 C   0  0  0  0  0  2  0  0  0  0  0  0
  -30.5880  -16.9260   23.3310 C   0  0  0  0  0  2  0  0  0  0  0  0
  -29.8840  -18.9490   21.3390 C   0  0  0  0  0  2  0  0  0  0  0  0
  -30.7980  -18.4390   23.5620 C   0  0  0  0  0  2  0  0  0  0  0  0
  -30.6310  -16.5650   21.8330 C   0  0  0  0  0  3  0  0  0  0  0  0
  -29.8090  -19.2400   22.7950 N   0  0  1  0  0  4  0  0  0  0  0  0
  -28.9020  -18.9410   23.1190 H   0  0  0  0  0  0  0  0  0  0  0  0
  -30.7620  -14.3580   20.6770 C   0  0  0  0  0  0  0  0  0  0  0  0
  -30.4210  -12.2780   19.3980 C   0  0  0  0  0  2  0  0  0  0  0  0
  -29.4880  -12.5230   18.1970 C   0  0  0  0  0  2  0  0  0  0  0  0
  -28.0120  -12.3830   18.6110 C   0  0  0  0  0  2  0  0  0  0  0  0
  -27.6720  -13.2000   19.8860 C   0  0  0  0  0  3  0  0  0  0  0  0
  -28.7090  -12.9270   21.0000 C   0  0  0  0  0  2  0  0  0  0  0  0
  -30.0560  -13.2170   20.4680 N   0  0  0  0  0  0  0  0  0  0  0  0
  -31.7770  -14.6580   20.0400 O   0  0  0  0  0  0  0  0  0  0  0  0
  -30.2640  -15.1650   21.6230 N   0  0  0  0  0  0  0  0  0  0  0  0
  -29.4700  -14.8070   22.1330 H   0  0  0  0  0  0  0  0  0  0  0  0
  -25.2630  -13.8150   20.5670 C   0  0  0  0  0  0  0  0  0  0  0  0
  -24.1870  -13.0430   20.9160 C   0  0  0  0  0  0  0  0  0  0  0  0
  -24.6410  -11.6900   20.8720 C   0  0  0  0  0  0  0  0  0  0  0  0
  -26.3080  -12.9310   20.3400 N   0  0  0  0  0  0  0  0  0  0  0  0
  -25.9330  -11.6470   20.5760 N   0  0  0  0  0  0  0  0  0  0  0  0
  -23.9070  -10.4290   21.0400 C   0  0  0  0  0  0  0  0  0  0  0  0
  -24.3620   -9.4210   21.9180 C   0  0  0  0  0  3  0  0  0  0  0  0
  -23.6290   -8.2240   22.0760 C   0  0  0  0  0  3  0  0  0  0  0  0
  -22.4270   -8.0280   21.3550 C   0  0  0  0  0  0  0  0  0  0  0  0
  -21.9910   -9.0260   20.4650 C   0  0  0  0  0  3  0  0  0  0  0  0
  -22.7240  -10.2130   20.3050 C   0  0  0  0  0  3  0  0  0  0  0  0
  -21.6640   -6.8880   21.4240 O   0  0  0  0  0  0  0  0  0  0  0  0
  -21.6850   -6.0740   22.5280 C   0  0  0  0  0  0  0  0  0  0  0  0
  -21.4010   -6.5640   23.8220 C   0  0  0  0  0  3  0  0  0  0  0  0
  -21.3660   -5.6790   24.9180 C   0  0  0  0  0  3  0  0  0  0  0  0
  -21.6040   -4.3050   24.7220 C   0  0  0  0  0  0  0  0  0  0  0  0
  -21.8820   -3.8150   23.4340 C   0  0  0  0  0  3  0  0  0  0  0  0
  -21.9190   -4.6970   22.3400 C   0  0  0  0  0  0  0  0  0  0  0  0
  -22.1660   -4.2150   21.0980 F   0  0  0  0  0  0  0  0  0  0  0  0
  -21.5630   -3.4540   25.7740 F   0  0  0  0  0  0  0  0  0  0  0  0
  -22.7890  -13.5240   21.1810 C   0  0  0  0  0  0  0  0  0  0  0  0
  -22.0530  -12.8240   22.0370 N   0  0  0  0  0  0  0  0  0  0  0  0
  -22.3580  -14.5550   20.6670 O   0  0  0  0  0  0  0  0  0  0  0  0
  -22.4130  -11.9900   22.4760 H   0  0  0  0  0  0  0  0  0  0  0  0
  -21.1140  -13.1270   22.2560 H   0  0  0  0  0  0  0  0  0  0  0  0
  -25.4370  -15.1860   20.4080 N   0  0  0  0  0  0  0  0  0  0  0  0
  -24.6730  -15.8450   20.5130 H   0  0  0  0  0  0  0  0  0  0  0  0
  -26.2940  -15.6210   20.0880 H   0  0  0  0  0  0  0  0  0  0  0  0
  1 49  1  0
  2  4  2  0
  3  2  1  0
  3  1  1  0
  5  3  1  0
  6  7  1  0
  6  2  1  0
  8 10  1  0
  8  7  1  0
  9 20  2  0
 10 15  1  0
 11 19  1  0
 11 21  1  0
 12 18  1  0
 12 14  1  0
 13 19  1  0
 14 13  1  0
 15 14  2  0
 16 17  1  0
 16 10  2  0
 17 12  2  0
 18 11  1  0
 19  9  1  0
 21 23  2  0
 22 21  1  0
 24 22  1  0
 25 34  2  0
 25 30  1  0
 26 22  1  0
 26 30  1  0
 27 26  1  0
 28 29  1  0
 28 27  1  0
 29 25  1  0
 30 31  2  0
 31 32  1  0
 33 32  2  0
 34 33  1  0
 35  9  1  0
 35 36  1  0
 35 45  1  0
 36 39  1  0
 37 41  1  0
 37 36  1  0
 38 37  2  0
 41 40  1  0
 43 41  1  0
 43 44  1  0
 43 42  1  0
 45 48  1  1
 45 46  1  0
 47 45  1  0
 50 52  1  0
 50 54  1  0
 51 53  1  0
 52 55  1  0
 54 65  1  0
 54 51  1  0
 55 49  1  0
 55 56  1  1
 55 53  1  0
 57 65  1  0
 58 63  1  0
 59 60  1  0
 59 58  1  0
 61 60  1  0
 61 70  1  0
 61 62  1  0
 63 57  1  0
 63 62  1  0
 64 57  2  0
 65 66  1  0
 67 68  2  0
 68 87  1  0
 69 68  1  0
 69 72  1  0
 70 67  1  0
 70 71  1  0
 71 69  2  0
 72 73  1  0
 73 74  2  0
 75 78  1  0
 75 74  1  0
 76 75  2  0
 77 76  1  0
 77 72  2  0
 78 79  1  0
 79 80  1  0
 80 81  2  0
 82 81  1  0
 82 86  1  0
 83 82  2  0
 84 79  2  0
 84 83  1  0
 85 84  1  0
 87 88  1  0
 88 91  1  0
 88 90  1  0
 89 87  2  0
 92 93  1  0
 92 67  1  0
 94 92  1  0
M  ISO  4   7 101   8 101  57 100  65 100
M  END
>  <TORSDO>  (25) 
F 21

>  <SCORE>  (25) 
-9.275

>  <name>  (25) 
25

>  <ligand_id>  (25) 
25

>  <original_smiles>  (25) 
[H]c1c([H])c([H])c2c(c1[H])C([H])([H])C([H])([H])C([H])([H])C2([H])N([H])C(=O)C1([H])N(C(=O)C([H])(N([H])C(=O)C([H])(N([H])C([H])([H])[H])C([H])([H])[H])C(C([H])([H])[H])(C([H])([H])[H])C([H])([H])[H])C([H])([H])c2c([H])c(OC([H])([H])C([H])([H])C(=O)N([H])C([H])([H])C([H])([H])[N+]3([H])C([H])([H])C([H])([H])C([H])(N([H])C(=O)N4C([H])([H])C([H])([H])C([H])([H])C([H])(n5nc(-c6c([H])c([H])c(Oc7c([H])c([H])c(F)c([H])c7F)c([H])c6[H])c(C(=O)N([H])[H])c5N([H])[H])C4([H])[H])C([H])([H])C3([H])[H])c([H])c([H])c2C1([H])[H]

>  <smiles>  (25) 
[H]c1c([H])c([H])c2c(c1[H])C([H])([H])C([H])([H])C([H])([H])C2([H])N([H])C(=O)C1([H])N(C(=O)C([H])(N([H])C(=O)C([H])(N([H])C([H])([H])[H])C([H])([H])[H])C(C([H])([H])[H])(C([H])([H])[H])C([H])([H])[H])C([H])([H])c2c([H])c(OC([H])([H])C([H])([H])C(=O)N([H])C([H])([H])C([H])([H])[N+]3([H])C([H])([H])C([H])([H])C([H])(N([H])C(=O)N4C([H])([H])C([H])([H])C([H])([H])C([H])(n5nc(-c6c([H])c([H])c(Oc7c([H])c([H])c(F)c([H])c7F)c([H])c6[H])c(C(=O)N([H])[H])c5N([H])[H])C4([H])[H])C([H])([H])C3([H])[H])c([H])c([H])c2C1([H])[H]

$$$$
26:0:0
     RDKit          3D

 94102  0  0  1  0  0  0  0  0999 V2000
  -30.4160  -18.0930   21.3190 C   0  0  0  0  0  2  0  0  0  0  0  0
  -28.6920  -17.6840   19.6560 C   0  0  0  0  0  2  0  0  0  0  0  0
  -30.4100  -19.6280   20.9650 C   0  0  0  0  0  2  0  0  0  0  0  0
  -28.7110  -19.1830   19.2240 C   0  0  0  0  0  2  0  0  0  0  0  0
  -30.0670  -17.1360   20.1330 C   0  0  2  0  0  0  0  0  0  0  0  0
  -29.1670  -20.1290   20.2900 N   0  0  2  0  0  4  0  0  0  0  0  0
  -28.4330  -20.1390   20.9840 H   0  0  0  0  0  0  0  0  0  0  0  0
  -30.7000  -14.6080   20.4510 C   0  0  0  0  0  0  0  0  0  0  0  0
  -30.4430  -12.4060   19.3750 C   0  0  0  0  0  2  0  0  0  0  0  0
  -29.5200  -12.5730   18.1480 C   0  0  0  0  0  2  0  0  0  0  0  0
  -28.0390  -12.4430   18.5540 C   0  0  0  0  0  2  0  0  0  0  0  0
  -27.6760  -13.2980   19.7970 C   0  0  0  0  0  3  0  0  0  0  0  0
  -28.7160  -13.1220   20.9270 C   0  0  0  0  0  2  0  0  0  0  0  0
  -30.0430  -13.4160   20.3690 N   0  0  0  0  0  0  0  0  0  0  0  0
  -31.8900  -14.7140   20.1560 O   0  0  0  0  0  0  0  0  0  0  0  0
  -29.8930  -15.7020   20.5750 N   0  0  0  0  0  0  0  0  0  0  0  0
  -28.9520  -15.4600   20.8410 H   0  0  0  0  0  0  0  0  0  0  0  0
  -25.2670  -13.9070   20.4560 C   0  0  0  0  0  0  0  0  0  0  0  0
  -24.1940  -13.1380   20.8160 C   0  0  0  0  0  0  0  0  0  0  0  0
  -24.6580  -11.7870   20.8150 C   0  0  0  0  0  0  0  0  0  0  0  0
  -26.3170  -13.0250   20.2590 N   0  0  0  0  0  0  0  0  0  0  0  0
  -25.9550  -11.7460   20.5360 N   0  0  0  0  0  0  0  0  0  0  0  0
  -23.9300  -10.5260   21.0070 C   0  0  0  0  0  0  0  0  0  0  0  0
  -24.3500   -9.5680   21.9550 C   0  0  0  0  0  3  0  0  0  0  0  0
  -23.6230   -8.3710   22.1350 C   0  0  0  0  0  3  0  0  0  0  0  0
  -22.4630   -8.1230   21.3640 C   0  0  0  0  0  0  0  0  0  0  0  0
  -22.0620   -9.0700   20.4050 C   0  0  0  0  0  3  0  0  0  0  0  0
  -22.7890  -10.2580   20.2240 C   0  0  0  0  0  3  0  0  0  0  0  0
  -21.7090   -6.9790   21.4520 O   0  0  0  0  0  0  0  0  0  0  0  0
  -21.6490   -6.2430   22.6090 C   0  0  0  0  0  0  0  0  0  0  0  0
  -21.2190   -6.8080   23.8290 C   0  0  0  0  0  3  0  0  0  0  0  0
  -21.1070   -5.9980   24.9780 C   0  0  0  0  0  3  0  0  0  0  0  0
  -21.4140   -4.6260   24.9060 C   0  0  0  0  0  0  0  0  0  0  0  0
  -21.8370   -4.0610   23.6890 C   0  0  0  0  0  3  0  0  0  0  0  0
  -21.9510   -4.8680   22.5440 C   0  0  0  0  0  0  0  0  0  0  0  0
  -22.3380   -4.3150   21.3680 F   0  0  0  0  0  0  0  0  0  0  0  0
  -21.2990   -3.8470   26.0060 F   0  0  0  0  0  0  0  0  0  0  0  0
  -22.7900  -13.6160   21.0500 C   0  0  0  0  0  0  0  0  0  0  0  0
  -22.0440  -12.9330   21.9100 N   0  0  0  0  0  0  0  0  0  0  0  0
  -22.3620  -14.6320   20.5040 O   0  0  0  0  0  0  0  0  0  0  0  0
  -22.4020  -12.1110   22.3750 H   0  0  0  0  0  0  0  0  0  0  0  0
  -21.1010  -13.2370   22.1090 H   0  0  0  0  0  0  0  0  0  0  0  0
  -25.4320  -15.2750   20.2590 N   0  0  0  0  0  0  0  0  0  0  0  0
  -24.6510  -15.9190   20.3300 H   0  0  0  0  0  0  0  0  0  0  0  0
  -26.2680  -15.7050   19.8900 H   0  0  0  0  0  0  0  0  0  0  0  0
  -31.1110  -17.2450   18.9770 C   0  0  0  0  0  0  0  0  0  0  0  0
  -30.7680  -16.6270   17.6250 C   0  0  0  0  0  1  0  0  0  0  0  0
  -32.1970  -17.8060   19.1330 O   0  0  0  0  0  0  0  0  0  0  0  0
  -29.2880  -21.5420   19.7530 C   0  0  0  0  0  2  0  0  0  0  0  0
  -28.8050  -22.7130   20.6770 C   0  0  0  0  0  2  0  0  0  0  0  0
  -28.9110  -24.1450   20.0300 C   0  0  0  0  0  3  0  0  0  0  0  0
  -30.2040  -24.3910   19.8120 F   0  0  0  0  0  0  0  0  0  0  0  0
  -28.3170  -25.3330   20.8620 C   0  0  0  0  0  2  0  0  0  0  0  0
  -28.4320  -26.6550   20.2560 O   0  0  0  0  0  0  0  0  0  0  0  0
  -24.6190  -31.9250   23.2520 C   0  0  0  0  0  0  0  0  0  0  0  0
  -27.2830  -27.4300   20.2370 C   0  0  0  0  0  0  0  0  0  0  0  0
  -23.4250  -30.5060   21.6160 C   0  0  0  0  0  3  0  0  0  0  0  0
  -24.8920  -28.9590   20.2090 C   0  0  0  0  0  0  0  0  0  0  0  0
  -25.9540  -30.8640   21.4270 C   0  0  0  0  0  2  0  0  0  0  0  0
  -26.0490  -29.4850   20.7980 C   0  0  0  0  0  0  0  0  0  0  0  0
  -27.2500  -28.7320   20.8000 C   0  0  0  0  0  3  0  0  0  0  0  0
  -26.1100  -26.9300   19.6330 C   0  0  0  0  0  3  0  0  0  0  0  0
  -24.9200  -27.6820   19.6200 C   0  0  0  0  0  3  0  0  0  0  0  0
  -23.6450  -29.8170   20.2430 C   0  0  0  0  0  2  0  0  0  0  0  0
  -24.6840  -31.1150   22.1560 N   0  0  0  0  0  0  0  0  0  0  0  0
  -23.5340  -32.1980   23.7850 O   0  0  0  0  0  0  0  0  0  0  0  0
  -22.7720  -29.4920   22.5830 C   0  0  0  0  0  0  0  0  0  0  0  0
  -21.4470  -29.3040   22.4520 N   0  0  0  0  0  0  0  0  0  0  0  0
  -23.4530  -28.8760   23.4070 O   0  0  0  0  0  0  0  0  0  0  0  0
  -20.9590  -29.8530   21.7580 H   0  0  0  0  0  0  0  0  0  0  0  0
  -18.0780  -28.0920   22.9360 C   0  0  0  0  0  0  0  0  0  0  0  0
  -20.6310  -28.3690   23.2260 C   0  0  0  0  0  3  0  0  0  0  0  0
  -20.7480  -26.9330   22.6650 C   0  0  0  0  0  2  0  0  0  0  0  0
  -19.6560  -26.5930   21.6450 C   0  0  0  0  0  2  0  0  0  0  0  0
  -18.2690  -26.7360   22.2750 C   0  0  0  0  0  2  0  0  0  0  0  0
  -19.1870  -28.8650   23.3680 C   0  0  0  0  0  0  0  0  0  0  0  0
  -18.9570  -30.1320   23.9450 C   0  0  0  0  0  3  0  0  0  0  0  0
  -17.6470  -30.6280   24.0940 C   0  0  0  0  0  3  0  0  0  0  0  0
  -16.5520  -29.8510   23.6800 C   0  0  0  0  0  3  0  0  0  0  0  0
  -16.7680  -28.5860   23.1070 C   0  0  0  0  0  3  0  0  0  0  0  0
  -25.8980  -32.5670   23.8730 C   0  0  0  0  0  3  0  0  0  0  0  0
  -25.5820  -33.9650   24.1950 N   0  0  0  0  0  0  0  0  0  0  0  0
  -25.9150  -35.0150   23.4320 C   0  0  0  0  0  0  0  0  0  0  0  0
  -26.5910  -34.9090   22.4060 O   0  0  0  0  0  0  0  0  0  0  0  0
  -24.9830  -34.1210   24.9920 H   0  0  0  0  0  0  0  0  0  0  0  0
  -24.1830  -36.8000   23.0560 C   0  0  0  0  0  1  0  0  0  0  0  0
  -25.4190  -36.4040   23.8800 C   0  0  0  0  0  3  0  0  0  0  0  0
  -27.5450  -37.2990   24.7200 C   0  0  0  0  0  1  0  0  0  0  0  0
  -26.4490  -37.4600   23.7690 N   0  0  0  0  0  0  0  0  0  0  0  0
  -26.0380  -38.3790   23.9100 H   0  0  0  0  0  0  0  0  0  0  0  0
  -26.4180  -31.8040   25.1530 C   0  0  1  0  0  0  0  0  0  0  0  0
  -25.3270  -31.5660   26.2220 C   0  0  0  0  0  1  0  0  0  0  0  0
  -27.0070  -30.4280   24.7660 C   0  0  0  0  0  1  0  0  0  0  0  0
  -27.5660  -32.6060   25.8120 C   0  0  0  0  0  1  0  0  0  0  0  0
  2  5  1  0
  3  1  1  0
  4  2  1  0
  4  6  1  0
  5 46  1  0
  5 16  1  1
  5  1  1  0
  6  3  1  0
  6  7  1  1
  8 16  1  0
  9 14  1  0
 10 11  1  0
 10  9  1  0
 12 11  1  0
 12 21  1  0
 12 13  1  0
 14  8  1  0
 14 13  1  0
 15  8  2  0
 16 17  1  0
 18 19  2  0
 19 38  1  0
 20 19  1  0
 20 23  1  0
 21 18  1  0
 21 22  1  0
 22 20  2  0
 23 24  1  0
 24 25  2  0
 26 29  1  0
 26 25  1  0
 27 26  2  0
 28 27  1  0
 28 23  2  0
 29 30  1  0
 30 31  1  0
 31 32  2  0
 33 32  1  0
 33 37  1  0
 34 33  2  0
 35 30  2  0
 35 34  1  0
 36 35  1  0
 38 39  1  0
 39 42  1  0
 39 41  1  0
 40 38  2  0
 43 44  1  0
 43 18  1  0
 45 43  1  0
 46 48  2  0
 47 46  1  0
 49  6  1  0
 49 50  1  0
 51 52  1  0
 51 50  1  0
 51 53  1  0
 54 53  1  0
 55 66  2  0
 56 54  1  0
 56 61  1  0
 57 65  1  0
 57 67  1  0
 58 64  1  0
 58 60  1  0
 59 65  1  0
 60 61  2  0
 60 59  1  0
 62 56  2  0
 63 62  1  0
 63 58  2  0
 64 57  1  0
 65 55  1  0
 67 69  2  0
 68 67  1  0
 70 68  1  0
 71 80  2  0
 71 76  1  0
 72 68  1  0
 72 76  1  0
 73 72  1  0
 74 75  1  0
 74 73  1  0
 75 71  1  0
 76 77  2  0
 77 78  1  0
 79 78  2  0
 80 79  1  0
 81 55  1  0
 81 82  1  0
 81 91  1  0
 82 85  1  0
 83 87  1  0
 83 82  1  0
 84 83  2  0
 87 86  1  0
 89 87  1  0
 89 90  1  0
 89 88  1  0
 91 94  1  1
 91 92  1  0
 93 91  1  0
M  ISO  4   8 100  16 100  53 101  54 101
M  END
>  <TORSDO>  (26) 
F 21

>  <SCORE>  (26) 
-13.279

>  <name>  (26) 
26

>  <ligand_id>  (26) 
26

>  <original_smiles>  (26) 
[H]c1c([H])c([H])c2c(c1[H])C([H])([H])C([H])([H])C([H])([H])C2([H])N([H])C(=O)C1([H])N(C(=O)C([H])(N([H])C(=O)C([H])(N([H])C([H])([H])[H])C([H])([H])[H])C(C([H])([H])[H])(C([H])([H])[H])C([H])([H])[H])C([H])([H])c2c([H])c(OC([H])([H])C([H])(F)C([H])([H])C([H])([H])[N+]3([H])C([H])([H])C([H])([H])C(C(=O)C([H])([H])[H])(N([H])C(=O)N4C([H])([H])C([H])([H])C([H])([H])C([H])(n5nc(-c6c([H])c([H])c(Oc7c([H])c([H])c(F)c([H])c7F)c([H])c6[H])c(C(=O)N([H])[H])c5N([H])[H])C4([H])[H])C([H])([H])C3([H])[H])c([H])c([H])c2C1([H])[H]

>  <smiles>  (26) 
[H]c1c([H])c([H])c2c(c1[H])C([H])([H])C([H])([H])C([H])([H])C2([H])N([H])C(=O)C1([H])N(C(=O)C([H])(N([H])C(=O)C([H])(N([H])C([H])([H])[H])C([H])([H])[H])C(C([H])([H])[H])(C([H])([H])[H])C([H])([H])[H])C([H])([H])c2c([H])c(OC([H])([H])C([H])(F)C([H])([H])C([H])([H])[N+]3([H])C([H])([H])C([H])([H])C(C(=O)C([H])([H])[H])(N([H])C(=O)N4C([H])([H])C([H])([H])C([H])([H])C([H])(n5nc(-c6c([H])c([H])c(Oc7c([H])c([H])c(F)c([H])c7F)c([H])c6[H])c(C(=O)N([H])[H])c5N([H])[H])C4([H])[H])C([H])([H])C3([H])[H])c([H])c([H])c2C1([H])[H]

$$$$
27:0:0
     RDKit          3D

 92100  0  0  1  0  0  0  0  0999 V2000
  -28.5970  -22.3190   18.3830 N   0  0  0  0  0  4  0  0  0  0  0  0
  -27.8200  -22.4770   17.7630 H   0  0  0  0  0  0  0  0  0  0  0  0
  -29.4080  -22.2290   17.7930 H   0  0  0  0  0  0  0  0  0  0  0  0
  -27.8320  -20.9350   20.4280 C   0  0  0  0  0  2  0  0  0  0  0  0
  -28.0060  -19.4520   20.7440 C   0  0  0  0  0  2  0  0  0  0  0  0
  -29.5240  -19.9920   19.0150 C   0  0  0  0  0  2  0  0  0  0  0  0
  -28.3350  -20.9800   18.9940 C   0  0  0  0  0  3  0  0  0  0  0  0
  -29.2930  -19.0720   20.1470 N   0  0  0  0  0  0  0  0  0  0  0  0
  -29.3110  -17.6380   19.8080 C   0  0  0  0  0  2  0  0  0  0  0  0
  -30.5600  -16.9040   20.3570 C   0  0  0  0  0  2  0  0  0  0  0  0
  -31.0610  -14.4300   20.0740 C   0  0  0  0  0  0  0  0  0  0  0  0
  -30.7330  -12.2190   19.0360 C   0  0  0  0  0  2  0  0  0  0  0  0
  -29.7650  -12.4040   17.8490 C   0  0  0  0  0  2  0  0  0  0  0  0
  -28.2950  -12.3280   18.3130 C   0  0  0  0  0  2  0  0  0  0  0  0
  -28.0100  -13.2150   19.5550 C   0  0  0  0  0  3  0  0  0  0  0  0
  -29.0830  -12.9810   20.6440 C   0  0  0  0  0  2  0  0  0  0  0  0
  -30.3990  -13.2420   20.0370 N   0  0  0  0  0  0  0  0  0  0  0  0
  -32.1900  -14.5920   19.6040 O   0  0  0  0  0  0  0  0  0  0  0  0
  -30.3000  -15.4630   20.4780 N   0  0  0  0  0  0  0  0  0  0  0  0
  -29.3820  -15.2080   20.8080 H   0  0  0  0  0  0  0  0  0  0  0  0
  -25.6630  -13.9380   20.3270 C   0  0  0  0  0  0  0  0  0  0  0  0
  -24.5680  -13.2150   20.7220 C   0  0  0  0  0  0  0  0  0  0  0  0
  -24.9660  -11.8440   20.6730 C   0  0  0  0  0  0  0  0  0  0  0  0
  -26.6590  -13.0070   20.0700 N   0  0  0  0  0  0  0  0  0  0  0  0
  -26.2450  -11.7440   20.3390 N   0  0  0  0  0  0  0  0  0  0  0  0
  -24.1870  -10.6170   20.8770 C   0  0  0  0  0  0  0  0  0  0  0  0
  -24.5670   -9.6510   21.8340 C   0  0  0  0  0  3  0  0  0  0  0  0
  -23.7910   -8.4860   22.0200 C   0  0  0  0  0  3  0  0  0  0  0  0
  -22.6240   -8.2800   21.2480 C   0  0  0  0  0  0  0  0  0  0  0  0
  -22.2640   -9.2340   20.2800 C   0  0  0  0  0  3  0  0  0  0  0  0
  -23.0390  -10.3900   20.0920 C   0  0  0  0  0  3  0  0  0  0  0  0
  -21.8230   -7.1680   21.3450 O   0  0  0  0  0  0  0  0  0  0  0  0
  -21.6890   -6.4760   22.5220 C   0  0  0  0  0  0  0  0  0  0  0  0
  -21.1970   -7.0900   23.6940 C   0  0  0  0  0  3  0  0  0  0  0  0
  -21.0060   -6.3260   24.8620 C   0  0  0  0  0  3  0  0  0  0  0  0
  -21.2980   -4.9490   24.8600 C   0  0  0  0  0  0  0  0  0  0  0  0
  -21.7840   -4.3340   23.6930 C   0  0  0  0  0  3  0  0  0  0  0  0
  -21.9750   -5.0960   22.5260 C   0  0  0  0  0  0  0  0  0  0  0  0
  -22.4220   -4.4930   21.3980 F   0  0  0  0  0  0  0  0  0  0  0  0
  -21.1100   -4.2140   25.9810 F   0  0  0  0  0  0  0  0  0  0  0  0
  -23.2020  -13.7560   21.0340 C   0  0  0  0  0  0  0  0  0  0  0  0
  -22.4650  -13.0910   21.9190 N   0  0  0  0  0  0  0  0  0  0  0  0
  -22.8000  -14.8040   20.5320 O   0  0  0  0  0  0  0  0  0  0  0  0
  -22.8060  -12.2460   22.3490 H   0  0  0  0  0  0  0  0  0  0  0  0
  -21.5520  -13.4410   22.1700 H   0  0  0  0  0  0  0  0  0  0  0  0
  -25.8830  -15.2990   20.1420 N   0  0  0  0  0  0  0  0  0  0  0  0
  -25.1310  -15.9740   20.2260 H   0  0  0  0  0  0  0  0  0  0  0  0
  -26.7150  -15.6840   19.7140 H   0  0  0  0  0  0  0  0  0  0  0  0
  -28.7320  -23.5540   19.2120 C   0  0  0  0  0  2  0  0  0  0  0  0
  -28.5060  -24.8210   18.3410 C   0  0  0  0  0  2  0  0  0  0  0  0
  -28.9390  -26.2060   18.9030 C   0  0  0  0  0  2  0  0  0  0  0  0
  -28.3740  -26.6870   20.1330 O   0  0  0  0  0  0  0  0  0  0  0  0
  -24.5990  -31.9050   23.2000 C   0  0  0  0  0  0  0  0  0  0  0  0
  -27.2220  -27.4460   20.0940 C   0  0  0  0  0  0  0  0  0  0  0  0
  -23.3860  -30.5010   21.5640 C   0  0  0  0  0  3  0  0  0  0  0  0
  -24.8310  -28.9630   20.1350 C   0  0  0  0  0  0  0  0  0  0  0  0
  -25.9140  -30.8500   21.3610 C   0  0  0  0  0  2  0  0  0  0  0  0
  -25.9930  -29.4790   20.7190 C   0  0  0  0  0  0  0  0  0  0  0  0
  -27.1880  -28.7230   20.7070 C   0  0  0  0  0  3  0  0  0  0  0  0
  -26.0360  -26.9380   19.5220 C   0  0  0  0  0  3  0  0  0  0  0  0
  -24.8460  -27.6880   19.5400 C   0  0  0  0  0  3  0  0  0  0  0  0
  -23.5900  -29.8240   20.1840 C   0  0  0  0  0  2  0  0  0  0  0  0
  -24.6520  -31.1020   22.0990 N   0  0  0  0  0  0  0  0  0  0  0  0
  -23.5210  -32.1810   23.7430 O   0  0  0  0  0  0  0  0  0  0  0  0
  -22.7350  -29.4840   22.5310 C   0  0  0  0  0  0  0  0  0  0  0  0
  -21.4090  -29.3090   22.4130 N   0  0  0  0  0  0  0  0  0  0  0  0
  -23.4190  -28.8570   23.3450 O   0  0  0  0  0  0  0  0  0  0  0  0
  -20.9200  -29.8510   21.7140 H   0  0  0  0  0  0  0  0  0  0  0  0
  -18.0290  -28.1490   22.9500 C   0  0  0  0  0  0  0  0  0  0  0  0
  -20.5920  -28.3780   23.1920 C   0  0  0  0  0  3  0  0  0  0  0  0
  -20.6730  -26.9460   22.6120 C   0  0  0  0  0  2  0  0  0  0  0  0
  -19.5570  -26.6340   21.6080 C   0  0  0  0  0  2  0  0  0  0  0  0
  -18.1810  -26.8010   22.2630 C   0  0  0  0  0  2  0  0  0  0  0  0
  -19.1610  -28.8970   23.3710 C   0  0  0  0  0  0  0  0  0  0  0  0
  -18.9640  -30.1610   23.9680 C   0  0  0  0  0  3  0  0  0  0  0  0
  -17.6650  -30.6740   24.1530 C   0  0  0  0  0  3  0  0  0  0  0  0
  -16.5490  -29.9240   23.7480 C   0  0  0  0  0  3  0  0  0  0  0  0
  -16.7300  -28.6630   23.1540 C   0  0  0  0  0  3  0  0  0  0  0  0
  -25.8890  -32.5340   23.8140 C   0  0  0  0  0  3  0  0  0  0  0  0
  -25.5820  -33.9320   24.1500 N   0  0  0  0  0  0  0  0  0  0  0  0
  -25.9100  -34.9860   23.3900 C   0  0  0  0  0  0  0  0  0  0  0  0
  -26.5750  -34.8840   22.3560 O   0  0  0  0  0  0  0  0  0  0  0  0
  -24.9940  -34.0830   24.9550 H   0  0  0  0  0  0  0  0  0  0  0  0
  -24.1830  -36.7820   23.0450 C   0  0  0  0  0  1  0  0  0  0  0  0
  -25.4230  -36.3740   23.8540 C   0  0  0  0  0  3  0  0  0  0  0  0
  -27.5570  -37.2550   24.6920 C   0  0  0  0  0  1  0  0  0  0  0  0
  -26.4580  -37.4250   23.7450 N   0  0  0  0  0  0  0  0  0  0  0  0
  -26.0530  -38.3470   23.8930 H   0  0  0  0  0  0  0  0  0  0  0  0
  -26.4180  -31.7600   25.0840 C   0  0  1  0  0  0  0  0  0  0  0  0
  -25.3310  -31.5160   26.1560 C   0  0  0  0  0  1  0  0  0  0  0  0
  -27.0010  -30.3860   24.6830 C   0  0  0  0  0  1  0  0  0  0  0  0
  -27.5710  -32.5550   25.7410 C   0  0  0  0  0  1  0  0  0  0  0  0
  1 49  1  0
  2  1  1  0
  3  1  1  0
  4  5  1  0
  6  8  1  0
  7  1  1  0
  7  6  1  0
  7  4  1  0
  8  5  1  0
  9  8  1  0
  9 10  1  0
 10 19  1  0
 11 19  1  0
 12 17  1  0
 13 14  1  0
 13 12  1  0
 15 14  1  0
 15 24  1  0
 15 16  1  0
 17 11  1  0
 17 16  1  0
 18 11  2  0
 19 20  1  0
 21 22  2  0
 22 41  1  0
 23 22  1  0
 23 26  1  0
 24 21  1  0
 24 25  1  0
 25 23  2  0
 26 27  1  0
 27 28  2  0
 29 32  1  0
 29 28  1  0
 30 29  2  0
 31 30  1  0
 31 26  2  0
 32 33  1  0
 33 38  2  0
 33 34  1  0
 34 35  2  0
 36 35  1  0
 36 40  1  0
 37 36  2  0
 38 37  1  0
 39 38  1  0
 41 42  1  0
 42 45  1  0
 42 44  1  0
 43 41  2  0
 46 47  1  0
 46 21  1  0
 48 46  1  0
 50 51  1  0
 50 49  1  0
 51 52  1  0
 53 64  2  0
 54 52  1  0
 54 59  1  0
 55 63  1  0
 55 65  1  0
 56 62  1  0
 56 58  1  0
 57 63  1  0
 58 57  1  0
 59 58  2  0
 60 61  1  0
 60 54  2  0
 61 56  2  0
 62 55  1  0
 63 53  1  0
 65 67  2  0
 66 65  1  0
 68 66  1  0
 69 78  2  0
 69 74  1  0
 70 66  1  0
 70 74  1  0
 71 70  1  0
 72 73  1  0
 72 71  1  0
 73 69  1  0
 74 75  2  0
 75 76  1  0
 77 76  2  0
 78 77  1  0
 79 53  1  0
 79 80  1  0
 79 89  1  0
 80 83  1  0
 81 85  1  0
 81 80  1  0
 82 81  2  0
 85 84  1  0
 87 85  1  0
 87 88  1  0
 87 86  1  0
 89 92  1  1
 89 90  1  0
 91 89  1  0
M  ISO  4  11 100  19 100  51 101  52 101
M  END
>  <TORSDO>  (27) 
F 22

>  <SCORE>  (27) 
-12.508

>  <name>  (27) 
27

>  <ligand_id>  (27) 
27

>  <original_smiles>  (27) 
[H]c1c([H])c([H])c2c(c1[H])C([H])([H])C([H])([H])C([H])([H])C2([H])N([H])C(=O)C1([H])N(C(=O)C([H])(N([H])C(=O)C([H])(N([H])C([H])([H])[H])C([H])([H])[H])C(C([H])([H])[H])(C([H])([H])[H])C([H])([H])[H])C([H])([H])c2c([H])c(OC([H])([H])C([H])([H])C([H])([H])[N+]([H])([H])C3([H])C([H])([H])N(C([H])([H])C([H])([H])N([H])C(=O)N4C([H])([H])C([H])([H])C([H])([H])C([H])(n5nc(-c6c([H])c([H])c(Oc7c([H])c([H])c(F)c([H])c7F)c([H])c6[H])c(C(=O)N([H])[H])c5N([H])[H])C4([H])[H])C([H])([H])C3([H])[H])c([H])c([H])c2C1([H])[H]

>  <smiles>  (27) 
[H]c1c([H])c([H])c2c(c1[H])C([H])([H])C([H])([H])C([H])([H])C2([H])N([H])C(=O)C1([H])N(C(=O)C([H])(N([H])C(=O)C([H])(N([H])C([H])([H])[H])C([H])([H])[H])C(C([H])([H])[H])(C([H])([H])[H])C([H])([H])[H])C([H])([H])c2c([H])c(OC([H])([H])C([H])([H])C([H])([H])[N+]([H])([H])C3([H])C([H])([H])N(C([H])([H])C([H])([H])N([H])C(=O)N4C([H])([H])C([H])([H])C([H])([H])C([H])(n5nc(-c6c([H])c([H])c(Oc7c([H])c([H])c(F)c([H])c7F)c([H])c6[H])c(C(=O)N([H])[H])c5N([H])[H])C4([H])[H])C([H])([H])C3([H])[H])c([H])c([H])c2C1([H])[H]

$$$$
28:0:0
     RDKit          3D

 95103  0  0  1  0  0  0  0  0999 V2000
  -27.8280  -22.2030   20.6220 N   0  0  0  0  0  4  0  0  0  0  0  0
  -28.2440  -21.9260   21.4950 H   0  0  0  0  0  0  0  0  0  0  0  0
  -26.9450  -22.6380   20.8500 H   0  0  0  0  0  0  0  0  0  0  0  0
  -27.5590  -21.0300   19.7660 C   0  0  0  0  0  2  0  0  0  0  0  0
  -28.2850  -19.8120   20.3310 C   0  0  0  0  0  0  0  0  0  0  0  0
  -27.7210  -19.0460   21.1160 O   0  0  0  0  0  0  0  0  0  0  0  0
  -29.7050  -19.5250   19.8360 C   0  0  0  0  0  2  0  0  0  0  0  0
  -31.5170  -14.2250   20.0890 C   0  0  0  0  0  0  0  0  0  0  0  0
  -31.2300  -11.8330   19.5860 C   0  0  0  0  0  2  0  0  0  0  0  0
  -30.2930  -11.6820   18.3660 C   0  0  0  0  0  2  0  0  0  0  0  0
  -28.8120  -11.6870   18.7950 C   0  0  0  0  0  2  0  0  0  0  0  0
  -28.4720  -12.8660   19.7440 C   0  0  0  0  0  3  0  0  0  0  0  0
  -29.5010  -12.8980   20.8940 C   0  0  0  0  0  2  0  0  0  0  0  0
  -30.8380  -13.0610   20.2950 N   0  0  0  0  0  0  0  0  0  0  0  0
  -32.6650  -14.2490   19.6320 O   0  0  0  0  0  0  0  0  0  0  0  0
  -29.9970  -15.9350   21.0780 C   0  0  0  0  0  2  0  0  0  0  0  0
  -30.7180  -16.0390   18.6610 C   0  0  0  0  0  2  0  0  0  0  0  0
  -30.1110  -17.4640   21.1420 C   0  0  0  0  0  2  0  0  0  0  0  0
  -30.8300  -17.5630   18.8110 C   0  0  0  0  0  2  0  0  0  0  0  0
  -30.7270  -15.3170   19.9520 N   0  0  0  0  0  0  0  0  0  0  0  0
  -29.8590  -18.0550   19.8120 N   0  0  2  0  0  4  0  0  0  0  0  0
  -28.9530  -17.7090   19.5310 H   0  0  0  0  0  0  0  0  0  0  0  0
  -26.1870  -13.7880   20.4930 C   0  0  0  0  0  0  0  0  0  0  0  0
  -25.0320  -13.1640   20.8770 C   0  0  0  0  0  0  0  0  0  0  0  0
  -25.3040  -11.7630   20.8130 C   0  0  0  0  0  0  0  0  0  0  0  0
  -27.1000  -12.7780   20.2360 N   0  0  0  0  0  0  0  0  0  0  0  0
  -26.5710  -11.5540   20.4780 N   0  0  0  0  0  0  0  0  0  0  0  0
  -24.4180  -10.6080   20.9940 C   0  0  0  0  0  0  0  0  0  0  0  0
  -24.7360   -9.5730   21.9000 C   0  0  0  0  0  3  0  0  0  0  0  0
  -23.8620   -8.4780   22.0700 C   0  0  0  0  0  3  0  0  0  0  0  0
  -22.6540   -8.4150   21.3360 C   0  0  0  0  0  0  0  0  0  0  0  0
  -22.3520   -9.4360   20.4180 C   0  0  0  0  0  3  0  0  0  0  0  0
  -23.2280  -10.5220   20.2450 C   0  0  0  0  0  3  0  0  0  0  0  0
  -21.7550   -7.3780   21.4170 O   0  0  0  0  0  0  0  0  0  0  0  0
  -21.6190   -6.6330   22.5600 C   0  0  0  0  0  0  0  0  0  0  0  0
  -21.2680   -7.2210   23.7960 C   0  0  0  0  0  3  0  0  0  0  0  0
  -21.0690   -6.4080   24.9290 C   0  0  0  0  0  3  0  0  0  0  0  0
  -21.2120   -5.0110   24.8300 C   0  0  0  0  0  0  0  0  0  0  0  0
  -21.5580   -4.4250   23.5990 C   0  0  0  0  0  3  0  0  0  0  0  0
  -21.7560   -5.2340   22.4670 C   0  0  0  0  0  0  0  0  0  0  0  0
  -22.0670   -4.6620   21.2780 F   0  0  0  0  0  0  0  0  0  0  0  0
  -21.0140   -4.2300   25.9170 F   0  0  0  0  0  0  0  0  0  0  0  0
  -23.7150  -13.8170   21.1850 C   0  0  0  0  0  0  0  0  0  0  0  0
  -22.9340  -13.2360   22.0890 N   0  0  0  0  0  0  0  0  0  0  0  0
  -23.3910  -14.8810   20.6550 O   0  0  0  0  0  0  0  0  0  0  0  0
  -23.2010  -12.3740   22.5410 H   0  0  0  0  0  0  0  0  0  0  0  0
  -22.0510  -13.6630   22.3360 H   0  0  0  0  0  0  0  0  0  0  0  0
  -26.5310  -15.1260   20.3200 N   0  0  0  0  0  0  0  0  0  0  0  0
  -25.8030  -15.8320   20.3200 H   0  0  0  0  0  0  0  0  0  0  0  0
  -27.3410  -15.3990   19.7810 H   0  0  0  0  0  0  0  0  0  0  0  0
  -28.6570  -23.2320   19.9630 C   0  0  0  0  0  2  0  0  0  0  0  0
  -28.4120  -24.5980   20.5910 C   0  0  0  0  0  3  0  0  0  0  0  0
  -27.0900  -24.7010   20.7620 F   0  0  0  0  0  0  0  0  0  0  0  0
  -28.9740  -25.7360   19.7160 C   0  0  0  0  0  2  0  0  0  0  0  0
  -28.8510  -27.0060   20.3580 O   0  0  0  0  0  0  0  0  0  0  0  0
  -24.7910  -32.0100   23.3360 C   0  0  0  0  0  0  0  0  0  0  0  0
  -27.6370  -27.6580   20.3180 C   0  0  0  0  0  0  0  0  0  0  0  0
  -23.6880  -30.5790   21.6740 C   0  0  0  0  0  3  0  0  0  0  0  0
  -25.1980  -29.0920   20.2740 C   0  0  0  0  0  0  0  0  0  0  0  0
  -26.1960  -31.0070   21.5390 C   0  0  0  0  0  2  0  0  0  0  0  0
  -26.3250  -29.6420   20.8950 C   0  0  0  0  0  0  0  0  0  0  0  0
  -27.5430  -28.9330   20.9190 C   0  0  0  0  0  3  0  0  0  0  0  0
  -26.4820  -27.1200   19.6910 C   0  0  0  0  0  3  0  0  0  0  0  0
  -25.2690  -27.8260   19.6740 C   0  0  0  0  0  3  0  0  0  0  0  0
  -23.9340  -29.9150   20.2920 C   0  0  0  0  0  2  0  0  0  0  0  0
  -24.9110  -31.2110   22.2430 N   0  0  0  0  0  0  0  0  0  0  0  0
  -23.6830  -32.2550   23.8350 O   0  0  0  0  0  0  0  0  0  0  0  0
  -23.0430  -29.5450   22.6170 C   0  0  0  0  0  0  0  0  0  0  0  0
  -21.7380  -29.4120   22.4170 N   0  0  0  0  0  0  0  0  0  0  0  0
  -23.6940  -28.8920   23.4340 O   0  0  0  0  0  0  0  0  0  0  0  0
  -21.3440  -30.0760   21.7660 H   0  0  0  0  0  0  0  0  0  0  0  0
  -18.3490  -27.8850   22.7600 C   0  0  0  0  0  0  0  0  0  0  0  0
  -20.8110  -28.3690   22.7740 C   0  0  0  0  0  3  0  0  0  0  0  0
  -21.1220  -26.8820   22.5530 C   0  0  0  0  0  2  0  0  0  0  0  0
  -20.0580  -26.3040   21.5930 C   0  0  0  0  0  2  0  0  0  0  0  0
  -18.6190  -26.5220   22.1150 C   0  0  0  0  0  2  0  0  0  0  0  0
  -19.4050  -28.7280   23.1830 C   0  0  0  0  0  0  0  0  0  0  0  0
  -19.1270  -29.9720   23.7860 C   0  0  0  0  0  3  0  0  0  0  0  0
  -17.7950  -30.4000   23.9270 C   0  0  0  0  0  3  0  0  0  0  0  0
  -16.7420  -29.5800   23.4750 C   0  0  0  0  0  3  0  0  0  0  0  0
  -17.0200  -28.3220   22.9090 C   0  0  0  0  0  3  0  0  0  0  0  0
  -26.0370  -32.6730   23.9930 C   0  0  0  0  0  3  0  0  0  0  0  0
  -26.5210  -31.9250   25.2940 C   0  0  1  0  0  0  0  0  0  0  0  0
  -25.3750  -31.5970   26.2800 C   0  0  0  0  0  1  0  0  0  0  0  0
  -27.2370  -30.6000   24.9410 C   0  0  0  0  0  1  0  0  0  0  0  0
  -27.5540  -32.7990   26.0400 C   0  0  0  0  0  1  0  0  0  0  0  0
  -25.6840  -34.0670   24.2850 N   0  0  0  0  0  0  0  0  0  0  0  0
  -25.9700  -35.1050   23.4870 C   0  0  0  0  0  0  0  0  0  0  0  0
  -26.6330  -34.9910   22.4500 O   0  0  0  0  0  0  0  0  0  0  0  0
  -25.0970  -34.2310   25.0910 H   0  0  0  0  0  0  0  0  0  0  0  0
  -24.1630  -36.8130   23.1220 C   0  0  0  0  0  1  0  0  0  0  0  0
  -25.4420  -36.4880   23.9100 C   0  0  0  0  0  3  0  0  0  0  0  0
  -27.5610  -37.4870   24.6460 C   0  0  0  0  0  1  0  0  0  0  0  0
  -26.4290  -37.5730   23.7260 N   0  0  0  0  0  0  0  0  0  0  0  0
  -25.9900  -38.4820   23.8460 H   0  0  0  0  0  0  0  0  0  0  0  0
  1  3  1  0
  1  2  1  0
  4  5  1  0
  4  1  1  0
  5  6  2  0
  7  5  1  0
  8 14  1  0
  9 14  1  0
 10 11  1  0
 10  9  1  0
 12 11  1  0
 12 26  1  0
 12 13  1  0
 14 13  1  0
 15  8  2  0
 16 18  1  0
 17 19  1  0
 17 20  1  0
 19 21  1  0
 20  8  1  0
 20 16  1  0
 21  7  1  0
 21 18  1  0
 21 22  1  6
 23 24  2  0
 24 43  1  0
 25 24  1  0
 25 28  1  0
 26 27  1  0
 26 23  1  0
 27 25  2  0
 28 29  1  0
 29 30  2  0
 31 34  1  0
 31 30  1  0
 32 31  2  0
 33 32  1  0
 33 28  2  0
 34 35  1  0
 35 36  1  0
 36 37  2  0
 38 37  1  0
 38 42  1  0
 39 38  2  0
 40 35  2  0
 40 39  1  0
 41 40  1  0
 43 44  1  0
 44 47  1  0
 44 46  1  0
 45 43  2  0
 48 23  1  0
 49 48  1  0
 50 48  1  0
 51 52  1  0
 51  1  1  0
 52 53  1  0
 54 55  1  0
 54 52  1  0
 56 67  2  0
 57 55  1  0
 57 62  1  0
 58 66  1  0
 58 68  1  0
 59 65  1  0
 59 61  1  0
 60 66  1  0
 61 62  2  0
 61 60  1  0
 63 57  2  0
 64 63  1  0
 64 59  2  0
 65 58  1  0
 66 56  1  0
 68 70  2  0
 69 68  1  0
 71 69  1  0
 72 81  2  0
 72 77  1  0
 73 69  1  0
 73 77  1  0
 74 73  1  0
 75 76  1  0
 75 74  1  0
 76 72  1  0
 77 78  2  0
 78 79  1  0
 80 79  2  0
 81 80  1  0
 82 56  1  0
 82 87  1  0
 82 83  1  0
 83 86  1  1
 83 84  1  0
 85 83  1  0
 87 90  1  0
 88 92  1  0
 88 87  1  0
 89 88  2  0
 92 91  1  0
 94 95  1  0
 94 92  1  0
 94 93  1  0
M  ISO  4   8 100  20 100  54 101  55 101
M  END
>  <TORSDO>  (28) 
F 22

>  <SCORE>  (28) 
-12.060

>  <name>  (28) 
28

>  <ligand_id>  (28) 
28

>  <original_smiles>  (28) 
[H]c1c([H])c([H])c2c(c1[H])C([H])([H])C([H])([H])C([H])([H])C2([H])N([H])C(=O)C1([H])N(C(=O)C([H])(N([H])C(=O)C([H])(N([H])C([H])([H])[H])C([H])([H])[H])C(C([H])([H])[H])(C([H])([H])[H])C([H])([H])[H])C([H])([H])c2c([H])c(OC([H])([H])C([H])(F)C([H])([H])[N+]([H])([H])C([H])([H])C(=O)C([H])([H])[N+]3([H])C([H])([H])C([H])([H])N(C(=O)N4C([H])([H])C([H])([H])C([H])([H])C([H])(n5nc(-c6c([H])c([H])c(Oc7c([H])c([H])c(F)c([H])c7F)c([H])c6[H])c(C(=O)N([H])[H])c5N([H])[H])C4([H])[H])C([H])([H])C3([H])[H])c([H])c([H])c2C1([H])[H]

>  <smiles>  (28) 
[H]c1c([H])c([H])c2c(c1[H])C([H])([H])C([H])([H])C([H])([H])C2([H])N([H])C(=O)C1([H])N(C(=O)C([H])(N([H])C(=O)C([H])(N([H])C([H])([H])[H])C([H])([H])[H])C(C([H])([H])[H])(C([H])([H])[H])C([H])([H])[H])C([H])([H])c2c([H])c(OC([H])([H])C([H])(F)C([H])([H])[N+]([H])([H])C([H])([H])C(=O)C([H])([H])[N+]3([H])C([H])([H])C([H])([H])N(C(=O)N4C([H])([H])C([H])([H])C([H])([H])C([H])(n5nc(-c6c([H])c([H])c(Oc7c([H])c([H])c(F)c([H])c7F)c([H])c6[H])c(C(=O)N([H])[H])c5N([H])[H])C4([H])[H])C([H])([H])C3([H])[H])c([H])c([H])c2C1([H])[H]

$$$$
29:0:0
     RDKit          3D

 93101  0  0  1  0  0  0  0  0999 V2000
  -29.5810  -23.7810   21.5790 C   0  0  0  0  0  0  0  0  0  0  0  0
  -29.4870  -22.4350   21.6480 N   0  0  0  0  0  0  0  0  0  0  0  0
  -29.5370  -24.4130   22.6330 O   0  0  0  0  0  0  0  0  0  0  0  0
  -29.4050  -22.1000   22.5990 H   0  0  0  0  0  0  0  0  0  0  0  0
  -27.8760  -20.9280   20.4300 C   0  0  0  0  0  2  0  0  0  0  0  0
  -27.9680  -19.4470   20.0610 C   0  0  0  0  0  2  0  0  0  0  0  0
  -30.0540  -20.0540   21.0680 C   0  0  0  0  0  2  0  0  0  0  0  0
  -29.3360  -21.3680   20.6370 C   0  0  0  0  0  3  0  0  0  0  0  0
  -29.1580  -18.9130   20.7500 N   0  0  2  0  0  4  0  0  0  0  0  0
  -28.8250  -18.5920   21.6470 H   0  0  0  0  0  0  0  0  0  0  0  0
  -29.7160  -17.7030   20.0800 C   0  0  0  0  0  2  0  0  0  0  0  0
  -30.7530  -16.9160   20.9210 C   0  0  0  0  0  2  0  0  0  0  0  0
  -31.1990  -14.4870   20.2140 C   0  0  0  0  0  0  0  0  0  0  0  0
  -30.8380  -12.2990   19.1080 C   0  0  0  0  0  2  0  0  0  0  0  0
  -29.8830  -12.5280   17.9150 C   0  0  0  0  0  2  0  0  0  0  0  0
  -28.4080  -12.4330   18.3530 C   0  0  0  0  0  2  0  0  0  0  0  0
  -28.1230  -13.3160   19.5960 C   0  0  0  0  0  3  0  0  0  0  0  0
  -29.1750  -13.0760   20.7020 C   0  0  0  0  0  2  0  0  0  0  0  0
  -30.5120  -13.3180   20.1200 N   0  0  0  0  0  0  0  0  0  0  0  0
  -32.2940  -14.6840   19.6760 O   0  0  0  0  0  0  0  0  0  0  0  0
  -30.5150  -15.4650   20.8240 N   0  0  0  0  0  0  0  0  0  0  0  0
  -29.6330  -15.1380   21.1990 H   0  0  0  0  0  0  0  0  0  0  0  0
  -25.7810  -14.0690   20.3400 C   0  0  0  0  0  0  0  0  0  0  0  0
  -24.6730  -13.3600   20.7240 C   0  0  0  0  0  0  0  0  0  0  0  0
  -25.0460  -11.9820   20.6590 C   0  0  0  0  0  0  0  0  0  0  0  0
  -26.7630  -13.1260   20.0870 N   0  0  0  0  0  0  0  0  0  0  0  0
  -26.3240  -11.8650   20.3300 N   0  0  0  0  0  0  0  0  0  0  0  0
  -24.2440  -10.7660   20.8410 C   0  0  0  0  0  0  0  0  0  0  0  0
  -24.6220   -9.7560   21.7520 C   0  0  0  0  0  3  0  0  0  0  0  0
  -23.8200   -8.6070   21.9200 C   0  0  0  0  0  3  0  0  0  0  0  0
  -22.6250   -8.4590   21.1750 C   0  0  0  0  0  0  0  0  0  0  0  0
  -22.2660   -9.4570   20.2520 C   0  0  0  0  0  3  0  0  0  0  0  0
  -23.0710  -10.5970   20.0860 C   0  0  0  0  0  3  0  0  0  0  0  0
  -21.7960   -7.3650   21.2510 O   0  0  0  0  0  0  0  0  0  0  0  0
  -21.6990   -6.6160   22.3950 C   0  0  0  0  0  0  0  0  0  0  0  0
  -21.3230   -7.1880   23.6280 C   0  0  0  0  0  3  0  0  0  0  0  0
  -21.1660   -6.3680   24.7630 C   0  0  0  0  0  3  0  0  0  0  0  0
  -21.3780   -4.9790   24.6630 C   0  0  0  0  0  0  0  0  0  0  0  0
  -21.7510   -4.4090   23.4330 C   0  0  0  0  0  3  0  0  0  0  0  0
  -21.9070   -5.2270   22.3000 C   0  0  0  0  0  0  0  0  0  0  0  0
  -22.2440   -4.6680   21.1120 F   0  0  0  0  0  0  0  0  0  0  0  0
  -21.2190   -4.1900   25.7520 F   0  0  0  0  0  0  0  0  0  0  0  0
  -23.3160  -13.9200   21.0260 C   0  0  0  0  0  0  0  0  0  0  0  0
  -22.5640  -13.2630   21.9010 N   0  0  0  0  0  0  0  0  0  0  0  0
  -22.9280  -14.9710   20.5140 O   0  0  0  0  0  0  0  0  0  0  0  0
  -22.8920  -12.4100   22.3290 H   0  0  0  0  0  0  0  0  0  0  0  0
  -21.6520  -13.6200   22.1390 H   0  0  0  0  0  0  0  0  0  0  0  0
  -26.0220  -15.4270   20.1650 N   0  0  0  0  0  0  0  0  0  0  0  0
  -25.2350  -16.0660   20.2100 H   0  0  0  0  0  0  0  0  0  0  0  0
  -26.7460  -15.7350   19.5300 H   0  0  0  0  0  0  0  0  0  0  0  0
  -29.8320  -24.5660   20.2740 C   0  0  0  0  0  2  0  0  0  0  0  0
  -28.6410  -25.4360   19.7700 C   0  0  0  0  0  2  0  0  0  0  0  0
  -28.6150  -26.8110   20.2190 O   0  0  0  0  0  0  0  0  0  0  0  0
  -24.6640  -31.9240   23.2310 C   0  0  0  0  0  0  0  0  0  0  0  0
  -27.4200  -27.5200   20.1630 C   0  0  0  0  0  0  0  0  0  0  0  0
  -23.4930  -30.5060   21.5770 C   0  0  0  0  0  3  0  0  0  0  0  0
  -24.9880  -29.0040   20.1510 C   0  0  0  0  0  0  0  0  0  0  0  0
  -26.0160  -30.9070   21.3980 C   0  0  0  0  0  2  0  0  0  0  0  0
  -26.1330  -29.5400   20.7540 C   0  0  0  0  0  0  0  0  0  0  0  0
  -27.3460  -28.8070   20.7540 C   0  0  0  0  0  3  0  0  0  0  0  0
  -26.2500  -27.0130   19.5420 C   0  0  0  0  0  3  0  0  0  0  0  0
  -25.0460  -27.7430   19.5380 C   0  0  0  0  0  3  0  0  0  0  0  0
  -23.7180  -29.8290   20.1980 C   0  0  0  0  0  2  0  0  0  0  0  0
  -24.7410  -31.1290   22.1260 N   0  0  0  0  0  0  0  0  0  0  0  0
  -23.5750  -32.1730   23.7690 O   0  0  0  0  0  0  0  0  0  0  0  0
  -22.8550  -29.4750   22.5340 C   0  0  0  0  0  0  0  0  0  0  0  0
  -21.5310  -29.2810   22.4100 N   0  0  0  0  0  0  0  0  0  0  0  0
  -23.5480  -28.8450   23.3360 O   0  0  0  0  0  0  0  0  0  0  0  0
  -21.0310  -29.8350   21.7310 H   0  0  0  0  0  0  0  0  0  0  0  0
  -18.1770  -28.0500   22.9110 C   0  0  0  0  0  0  0  0  0  0  0  0
  -20.7340  -28.3230   23.1720 C   0  0  0  0  0  3  0  0  0  0  0  0
  -20.8490  -26.9050   22.5620 C   0  0  0  0  0  2  0  0  0  0  0  0
  -19.7440  -26.5990   21.5470 C   0  0  0  0  0  2  0  0  0  0  0  0
  -18.3610  -26.7210   22.1970 C   0  0  0  0  0  2  0  0  0  0  0  0
  -19.2920  -28.8130   23.3470 C   0  0  0  0  0  0  0  0  0  0  0  0
  -19.0680  -30.0650   23.9570 C   0  0  0  0  0  3  0  0  0  0  0  0
  -17.7590  -30.5530   24.1390 C   0  0  0  0  0  3  0  0  0  0  0  0
  -16.6590  -29.7850   23.7260 C   0  0  0  0  0  3  0  0  0  0  0  0
  -16.8680  -28.5350   23.1150 C   0  0  0  0  0  3  0  0  0  0  0  0
  -25.9330  -32.5790   23.8610 C   0  0  0  0  0  3  0  0  0  0  0  0
  -25.5990  -33.9730   24.1800 N   0  0  0  0  0  0  0  0  0  0  0  0
  -25.9350  -35.0290   23.4270 C   0  0  0  0  0  0  0  0  0  0  0  0
  -26.6260  -34.9320   22.4080 O   0  0  0  0  0  0  0  0  0  0  0  0
  -24.9840  -34.1230   24.9660 H   0  0  0  0  0  0  0  0  0  0  0  0
  -24.1900  -36.7980   23.0360 C   0  0  0  0  0  1  0  0  0  0  0  0
  -25.4200  -36.4100   23.8710 C   0  0  0  0  0  3  0  0  0  0  0  0
  -27.5280  -37.3210   24.7380 C   0  0  0  0  0  1  0  0  0  0  0  0
  -26.4400  -37.4770   23.7780 N   0  0  0  0  0  0  0  0  0  0  0  0
  -26.0200  -38.3900   23.9210 H   0  0  0  0  0  0  0  0  0  0  0  0
  -26.4530  -31.8220   25.1440 C   0  0  1  0  0  0  0  0  0  0  0  0
  -25.3570  -31.5700   26.2050 C   0  0  0  0  0  1  0  0  0  0  0  0
  -27.0630  -30.4540   24.7620 C   0  0  0  0  0  1  0  0  0  0  0  0
  -27.5800  -32.6420   25.8150 C   0  0  0  0  0  1  0  0  0  0  0  0
  1  2  1  0
  1  3  2  0
  2  4  1  0
  5  8  1  0
  6  5  1  0
  6  9  1  0
  8  7  1  0
  8  2  1  0
  9  7  1  0
  9 10  1  1
 11  9  1  0
 11 12  1  0
 13 21  1  0
 14 19  1  0
 15 16  1  0
 15 14  1  0
 17 16  1  0
 17 26  1  0
 17 18  1  0
 19 13  1  0
 19 18  1  0
 20 13  2  0
 21 12  1  0
 21 22  1  0
 23 24  2  0
 24 43  1  0
 25 24  1  0
 25 28  1  0
 26 27  1  0
 26 23  1  0
 27 25  2  0
 28 29  1  0
 29 30  2  0
 31 34  1  0
 31 30  1  0
 32 31  2  0
 33 32  1  0
 33 28  2  0
 34 35  1  0
 35 36  1  0
 36 37  2  0
 38 37  1  0
 38 42  1  0
 39 38  2  0
 40 35  2  0
 40 39  1  0
 41 40  1  0
 43 44  1  0
 44 47  1  0
 44 46  1  0
 45 43  2  0
 48 49  1  0
 48 23  1  0
 50 48  1  0
 51  1  1  0
 52 53  1  0
 52 51  1  0
 54 65  2  0
 55 53  1  0
 55 60  1  0
 56 64  1  0
 56 66  1  0
 57 63  1  0
 57 59  1  0
 58 64  1  0
 59 60  2  0
 59 58  1  0
 61 55  2  0
 62 61  1  0
 62 57  2  0
 63 56  1  0
 64 54  1  0
 66 68  2  0
 67 66  1  0
 69 67  1  0
 70 79  2  0
 70 75  1  0
 71 67  1  0
 71 75  1  0
 72 71  1  0
 73 74  1  0
 73 72  1  0
 74 70  1  0
 75 76  2  0
 76 77  1  0
 78 77  2  0
 79 78  1  0
 80 54  1  0
 80 81  1  0
 80 90  1  0
 81 84  1  0
 82 86  1  0
 82 81  1  0
 83 82  2  0
 86 85  1  0
 88 86  1  0
 88 89  1  0
 88 87  1  0
 90 93  1  1
 90 91  1  0
 92 90  1  0
M  ISO  4  13 100  21 100  52 101  53 101
M  END
>  <TORSDO>  (29) 
F 21

>  <SCORE>  (29) 
-13.416

>  <name>  (29) 
29

>  <ligand_id>  (29) 
29

>  <original_smiles>  (29) 
[H]c1c([H])c([H])c2c(c1[H])C([H])([H])C([H])([H])C([H])([H])C2([H])N([H])C(=O)C1([H])N(C(=O)C([H])(N([H])C(=O)C([H])(N([H])C([H])([H])[H])C([H])([H])[H])C(C([H])([H])[H])(C([H])([H])[H])C([H])([H])[H])C([H])([H])c2c([H])c(OC([H])([H])C([H])([H])C(=O)N([H])C3([H])C([H])([H])C([H])([H])[N+]([H])(C([H])([H])C([H])([H])N([H])C(=O)N4C([H])([H])C([H])([H])C([H])([H])C([H])(n5nc(-c6c([H])c([H])c(Oc7c([H])c([H])c(F)c([H])c7F)c([H])c6[H])c(C(=O)N([H])[H])c5N([H])[H])C4([H])[H])C3([H])[H])c([H])c([H])c2C1([H])[H]

>  <smiles>  (29) 
[H]c1c([H])c([H])c2c(c1[H])C([H])([H])C([H])([H])C([H])([H])C2([H])N([H])C(=O)C1([H])N(C(=O)C([H])(N([H])C(=O)C([H])(N([H])C([H])([H])[H])C([H])([H])[H])C(C([H])([H])[H])(C([H])([H])[H])C([H])([H])[H])C([H])([H])c2c([H])c(OC([H])([H])C([H])([H])C(=O)N([H])C3([H])C([H])([H])C([H])([H])[N+]([H])(C([H])([H])C([H])([H])N([H])C(=O)N4C([H])([H])C([H])([H])C([H])([H])C([H])(n5nc(-c6c([H])c([H])c(Oc7c([H])c([H])c(F)c([H])c7F)c([H])c6[H])c(C(=O)N([H])[H])c5N([H])[H])C4([H])[H])C3([H])[H])c([H])c([H])c2C1([H])[H]

$$$$
30:0:0
     RDKit          3D

 97105  0  0  1  0  0  0  0  0999 V2000
  -26.4710  -23.0120   21.4590 C   0  0  0  0  0  1  0  0  0  0  0  0
  -27.1340  -23.1030   20.0470 C   0  0  2  0  0  0  0  0  0  0  0  0
  -27.8190  -21.7110   19.7510 C   0  0  0  0  0  2  0  0  0  0  0  0
  -29.1090  -21.2910   20.5170 C   0  0  0  0  0  2  0  0  0  0  0  0
  -29.8190  -17.7240   19.1480 C   0  0  0  0  0  2  0  0  0  0  0  0
  -30.1950  -17.7570   21.6400 C   0  0  0  0  0  2  0  0  0  0  0  0
  -29.8100  -19.2760   19.1750 C   0  0  0  0  0  2  0  0  0  0  0  0
  -30.2140  -19.3050   21.5740 C   0  0  0  0  0  2  0  0  0  0  0  0
  -30.6110  -17.0820   20.3140 C   0  0  0  0  0  3  0  0  0  0  0  0
  -29.3390  -19.8080   20.4830 N   0  0  1  0  0  4  0  0  0  0  0  0
  -28.4310  -19.4040   20.6580 H   0  0  0  0  0  0  0  0  0  0  0  0
  -31.0340  -14.6150   19.8760 C   0  0  0  0  0  0  0  0  0  0  0  0
  -30.7340  -12.3410   18.9610 C   0  0  0  0  0  2  0  0  0  0  0  0
  -29.7600  -12.4120   17.7660 C   0  0  0  0  0  2  0  0  0  0  0  0
  -28.2950  -12.3230   18.2410 C   0  0  0  0  0  2  0  0  0  0  0  0
  -27.9850  -13.2910   19.4160 C   0  0  0  0  0  3  0  0  0  0  0  0
  -29.0660  -13.1770   20.5150 C   0  0  0  0  0  2  0  0  0  0  0  0
  -30.3790  -13.4250   19.8890 N   0  0  0  0  0  0  0  0  0  0  0  0
  -32.1200  -14.7890   19.3130 O   0  0  0  0  0  0  0  0  0  0  0  0
  -30.3380  -15.6380   20.4010 N   0  0  0  0  0  0  0  0  0  0  0  0
  -29.4720  -15.3660   20.8440 H   0  0  0  0  0  0  0  0  0  0  0  0
  -25.6510  -13.9950   20.2420 C   0  0  0  0  0  0  0  0  0  0  0  0
  -24.5690  -13.2670   20.6580 C   0  0  0  0  0  0  0  0  0  0  0  0
  -24.9680  -11.8960   20.5940 C   0  0  0  0  0  0  0  0  0  0  0  0
  -26.6430  -13.0710   19.9540 N   0  0  0  0  0  0  0  0  0  0  0  0
  -26.2390  -11.8040   20.2220 N   0  0  0  0  0  0  0  0  0  0  0  0
  -24.1970  -10.6650   20.8100 C   0  0  0  0  0  0  0  0  0  0  0  0
  -24.5800   -9.7170   21.7840 C   0  0  0  0  0  3  0  0  0  0  0  0
  -23.8140   -8.5500   21.9870 C   0  0  0  0  0  3  0  0  0  0  0  0
  -22.6490   -8.3230   21.2150 C   0  0  0  0  0  0  0  0  0  0  0  0
  -22.2840   -9.2590   20.2310 C   0  0  0  0  0  3  0  0  0  0  0  0
  -23.0520  -10.4180   20.0260 C   0  0  0  0  0  3  0  0  0  0  0  0
  -21.8580   -7.2040   21.3230 O   0  0  0  0  0  0  0  0  0  0  0  0
  -21.6940   -6.5510   22.5190 C   0  0  0  0  0  0  0  0  0  0  0  0
  -21.1820   -7.2040   23.6620 C   0  0  0  0  0  3  0  0  0  0  0  0
  -20.9660   -6.4780   24.8500 C   0  0  0  0  0  3  0  0  0  0  0  0
  -21.2510   -5.1000   24.8950 C   0  0  0  0  0  0  0  0  0  0  0  0
  -21.7570   -4.4470   23.7570 C   0  0  0  0  0  3  0  0  0  0  0  0
  -21.9740   -5.1710   22.5710 C   0  0  0  0  0  0  0  0  0  0  0  0
  -22.4410   -4.5330   21.4710 F   0  0  0  0  0  0  0  0  0  0  0  0
  -21.0370   -4.3990   26.0320 F   0  0  0  0  0  0  0  0  0  0  0  0
  -23.2090  -13.8010   21.0010 C   0  0  0  0  0  0  0  0  0  0  0  0
  -22.5030  -13.1380   21.9080 N   0  0  0  0  0  0  0  0  0  0  0  0
  -22.7860  -14.8420   20.5010 O   0  0  0  0  0  0  0  0  0  0  0  0
  -22.8620  -12.2960   22.3320 H   0  0  0  0  0  0  0  0  0  0  0  0
  -21.5920  -13.4780   22.1840 H   0  0  0  0  0  0  0  0  0  0  0  0
  -25.8730  -15.3590   20.0690 N   0  0  0  0  0  0  0  0  0  0  0  0
  -25.1450  -16.0480   20.2210 H   0  0  0  0  0  0  0  0  0  0  0  0
  -26.7240  -15.7520   19.6890 H   0  0  0  0  0  0  0  0  0  0  0  0
  -28.1790  -24.3040   20.0630 C   0  0  0  0  0  2  0  0  0  0  0  0
  -28.4060  -25.6190   19.2140 C   0  0  0  0  0  2  0  0  0  0  0  0
  -28.3130  -26.8700   19.9340 O   0  0  0  0  0  0  0  0  0  0  0  0
  -24.5480  -31.9510   23.2150 C   0  0  0  0  0  0  0  0  0  0  0  0
  -27.1320  -27.5930   19.9540 C   0  0  0  0  0  0  0  0  0  0  0  0
  -23.3180  -30.6010   21.5510 C   0  0  0  0  0  3  0  0  0  0  0  0
  -24.7430  -29.1160   20.0600 C   0  0  0  0  0  0  0  0  0  0  0  0
  -25.8440  -30.9630   21.3250 C   0  0  0  0  0  2  0  0  0  0  0  0
  -25.9130  -29.6100   20.6450 C   0  0  0  0  0  0  0  0  0  0  0  0
  -27.1080  -28.8560   20.5940 C   0  0  0  0  0  3  0  0  0  0  0  0
  -25.9360  -27.1290   19.3600 C   0  0  0  0  0  3  0  0  0  0  0  0
  -24.7480  -27.8740   19.4150 C   0  0  0  0  0  3  0  0  0  0  0  0
  -23.5040  -29.9740   20.1480 C   0  0  0  0  0  2  0  0  0  0  0  0
  -24.5900  -31.1860   22.0890 N   0  0  0  0  0  0  0  0  0  0  0  0
  -23.4740  -32.2060   23.7760 O   0  0  0  0  0  0  0  0  0  0  0  0
  -22.6830  -29.5470   22.4910 C   0  0  0  0  0  0  0  0  0  0  0  0
  -21.3660  -29.3310   22.3460 N   0  0  0  0  0  0  0  0  0  0  0  0
  -23.3710  -28.9280   23.3060 O   0  0  0  0  0  0  0  0  0  0  0  0
  -20.8710  -29.8820   21.6590 H   0  0  0  0  0  0  0  0  0  0  0  0
  -18.0270  -28.0040   22.7360 C   0  0  0  0  0  0  0  0  0  0  0  0
  -20.5620  -28.3620   23.0940 C   0  0  0  0  0  3  0  0  0  0  0  0
  -20.7390  -26.9350   22.5240 C   0  0  0  0  0  2  0  0  0  0  0  0
  -19.6850  -26.5710   21.4740 C   0  0  0  0  0  2  0  0  0  0  0  0
  -18.2780  -26.6620   22.0690 C   0  0  0  0  0  2  0  0  0  0  0  0
  -19.0990  -28.8100   23.2020 C   0  0  0  0  0  0  0  0  0  0  0  0
  -18.8100  -30.0670   23.7780 C   0  0  0  0  0  3  0  0  0  0  0  0
  -17.4820  -30.5180   23.8930 C   0  0  0  0  0  3  0  0  0  0  0  0
  -16.4230  -29.7070   23.4510 C   0  0  0  0  0  3  0  0  0  0  0  0
  -16.6970  -28.4520   22.8750 C   0  0  0  0  0  3  0  0  0  0  0  0
  -25.8430  -32.5620   23.8330 C   0  0  0  0  0  3  0  0  0  0  0  0
  -26.3670  -31.7680   25.0920 C   0  0  1  0  0  0  0  0  0  0  0  0
  -25.2810  -31.5170   26.1650 C   0  0  0  0  0  1  0  0  0  0  0  0
  -26.9360  -30.3940   24.6680 C   0  0  0  0  0  1  0  0  0  0  0  0
  -27.5300  -32.5410   25.7540 C   0  0  0  0  0  1  0  0  0  0  0  0
  -25.5480  -33.9580   24.1840 N   0  0  0  0  0  0  0  0  0  0  0  0
  -25.8880  -35.0180   23.4380 C   0  0  0  0  0  0  0  0  0  0  0  0
  -26.5580  -34.9230   22.4060 O   0  0  0  0  0  0  0  0  0  0  0  0
  -24.9520  -34.1060   24.9850 H   0  0  0  0  0  0  0  0  0  0  0  0
  -24.1760  -36.8280   23.1110 C   0  0  0  0  0  1  0  0  0  0  0  0
  -25.4140  -36.4030   23.9160 C   0  0  0  0  0  3  0  0  0  0  0  0
  -27.5580  -37.2570   24.7550 C   0  0  0  0  0  1  0  0  0  0  0  0
  -26.4560  -37.4470   23.8150 N   0  0  0  0  0  0  0  0  0  0  0  0
  -26.0600  -38.3710   23.9710 H   0  0  0  0  0  0  0  0  0  0  0  0
  -26.0510  -23.2920   18.9130 C   0  0  0  0  0  2  0  0  0  0  0  0
  -24.6670  -22.9500   19.2980 N   0  0  0  0  0  4  0  0  0  0  0  0
  -24.5800  -21.9850   19.5640 H   0  0  0  0  0  0  0  0  0  0  0  0
  -24.0490  -23.1120   18.5220 H   0  0  0  0  0  0  0  0  0  0  0  0
  -24.3620  -23.5300   20.0590 H   0  0  0  0  0  0  0  0  0  0  0  0
  2 50  1  0
  2  1  1  1
  3  2  1  0
  3  4  1  0
  5  7  1  0
  5  9  1  0
  7 10  1  0
  8  6  1  0
  9 20  1  0
  9  6  1  0
 10  4  1  0
 10 11  1  1
 10  8  1  0
 12 18  1  0
 12 20  1  0
 13 18  1  0
 14 15  1  0
 14 13  1  0
 16 15  1  0
 16 25  1  0
 16 17  1  0
 18 17  1  0
 19 12  2  0
 20 21  1  0
 22 23  2  0
 23 42  1  0
 24 23  1  0
 24 27  1  0
 25 26  1  0
 25 22  1  0
 26 24  2  0
 27 28  1  0
 28 29  2  0
 30 33  1  0
 30 29  1  0
 31 30  2  0
 32 31  1  0
 32 27  2  0
 33 34  1  0
 34 39  2  0
 34 35  1  0
 35 36  2  0
 36 37  1  0
 37 41  1  0
 38 37  2  0
 39 38  1  0
 40 39  1  0
 42 43  1  0
 43 46  1  0
 43 45  1  0
 44 42  2  0
 47 48  1  0
 47 22  1  0
 49 47  1  0
 51 52  1  0
 51 50  1  0
 52 54  1  0
 53 64  2  0
 54 59  1  0
 55 63  1  0
 55 65  1  0
 56 62  1  0
 56 58  1  0
 57 63  1  0
 58 57  1  0
 59 58  2  0
 60 61  1  0
 60 54  2  0
 61 56  2  0
 62 55  1  0
 63 53  1  0
 65 67  2  0
 66 65  1  0
 68 66  1  0
 69 78  2  0
 69 74  1  0
 70 66  1  0
 70 74  1  0
 71 70  1  0
 72 73  1  0
 72 71  1  0
 73 69  1  0
 74 75  2  0
 75 76  1  0
 77 76  2  0
 78 77  1  0
 79 53  1  0
 79 84  1  0
 79 80  1  0
 80 83  1  1
 80 81  1  0
 82 80  1  0
 84 87  1  0
 85 89  1  0
 85 84  1  0
 86 85  2  0
 89 88  1  0
 91 89  1  0
 91 92  1  0
 91 90  1  0
 93 94  1  0
 93  2  1  0
 94 95  1  0
 94 97  1  0
 96 94  1  0
M  ISO  4  12 100  20 100  51 101  52 101
M  END
>  <TORSDO>  (30) 
F 23

>  <SCORE>  (30) 
-12.650

>  <name>  (30) 
30

>  <ligand_id>  (30) 
30

>  <original_smiles>  (30) 
[H]c1c([H])c([H])c2c(c1[H])C([H])([H])C([H])([H])C([H])([H])C2([H])N([H])C(=O)C1([H])N(C(=O)C([H])(N([H])C(=O)C([H])(N([H])C([H])([H])[H])C([H])([H])[H])C(C([H])([H])[H])(C([H])([H])[H])C([H])([H])[H])C([H])([H])c2c([H])c(OC([H])([H])C([H])([H])C(C([H])([H])[H])(C([H])([H])C([H])([H])[N+]3([H])C([H])([H])C([H])([H])C([H])(N([H])C(=O)N4C([H])([H])C([H])([H])C([H])([H])C([H])(n5nc(-c6c([H])c([H])c(Oc7c([H])c([H])c(F)c([H])c7F)c([H])c6[H])c(C(=O)N([H])[H])c5N([H])[H])C4([H])[H])C([H])([H])C3([H])[H])C([H])([H])[N+]([H])([H])[H])c([H])c([H])c2C1([H])[H]

>  <smiles>  (30) 
[H]c1c([H])c([H])c2c(c1[H])C([H])([H])C([H])([H])C([H])([H])C2([H])N([H])C(=O)C1([H])N(C(=O)C([H])(N([H])C(=O)C([H])(N([H])C([H])([H])[H])C([H])([H])[H])C(C([H])([H])[H])(C([H])([H])[H])C([H])([H])[H])C([H])([H])c2c([H])c(OC([H])([H])C([H])([H])C(C([H])([H])[H])(C([H])([H])C([H])([H])[N+]3([H])C([H])([H])C([H])([H])C([H])(N([H])C(=O)N4C([H])([H])C([H])([H])C([H])([H])C([H])(n5nc(-c6c([H])c([H])c(Oc7c([H])c([H])c(F)c([H])c7F)c([H])c6[H])c(C(=O)N([H])[H])c5N([H])[H])C4([H])[H])C([H])([H])C3([H])[H])C([H])([H])[N+]([H])([H])[H])c([H])c([H])c2C1([H])[H]

$$$$
31:0:0
     RDKit          3D

 92100  0  0  1  0  0  0  0  0999 V2000
  -28.4020  -20.8950   21.1660 C   0  0  0  0  0  2  0  0  0  0  0  0
  -27.4580  -22.9810   21.4890 C   0  0  0  0  0  3  0  0  0  0  0  0
  -28.4990  -22.2640   21.6280 N   0  0  0  0  0  0  0  0  0  0  0  0
  -27.4030  -24.4360   21.9110 C   0  0  0  0  0  2  0  0  0  0  0  0
  -28.5590  -25.2710   21.3310 C   0  0  0  0  0  2  0  0  0  0  0  0
  -28.4350  -25.5550   19.8210 C   0  0  0  0  0  2  0  0  0  0  0  0
  -28.3580  -26.9610   19.6010 O   0  0  0  0  0  0  0  0  0  0  0  0
  -24.6000  -31.8770   23.0770 C   0  0  0  0  0  0  0  0  0  0  0  0
  -27.1440  -27.5930   19.7250 C   0  0  0  0  0  0  0  0  0  0  0  0
  -23.3340  -30.5470   21.4160 C   0  0  0  0  0  3  0  0  0  0  0  0
  -24.7360  -29.0640   19.8900 C   0  0  0  0  0  0  0  0  0  0  0  0
  -25.8470  -30.9220   21.1460 C   0  0  0  0  0  2  0  0  0  0  0  0
  -25.9100  -29.5760   20.4560 C   0  0  0  0  0  0  0  0  0  0  0  0
  -27.1140  -28.8490   20.3680 C   0  0  0  0  0  3  0  0  0  0  0  0
  -25.9510  -27.0810   19.1650 C   0  0  0  0  0  3  0  0  0  0  0  0
  -24.7500  -27.8140   19.2460 C   0  0  0  0  0  3  0  0  0  0  0  0
  -23.4960  -29.9200   20.0060 C   0  0  0  0  0  2  0  0  0  0  0  0
  -24.6140  -31.1260   21.9400 N   0  0  0  0  0  0  0  0  0  0  0  0
  -23.5390  -32.1260   23.6650 O   0  0  0  0  0  0  0  0  0  0  0  0
  -22.7130  -29.4880   22.3530 C   0  0  0  0  0  0  0  0  0  0  0  0
  -21.3840  -29.3220   22.2690 N   0  0  0  0  0  0  0  0  0  0  0  0
  -23.4240  -28.8190   23.1100 O   0  0  0  0  0  0  0  0  0  0  0  0
  -20.8730  -29.9130   21.6280 H   0  0  0  0  0  0  0  0  0  0  0  0
  -18.0210  -28.1400   22.8470 C   0  0  0  0  0  0  0  0  0  0  0  0
  -20.5890  -28.3560   23.0260 C   0  0  0  0  0  3  0  0  0  0  0  0
  -20.6490  -26.9530   22.3800 C   0  0  0  0  0  2  0  0  0  0  0  0
  -19.5050  -26.6950   21.3940 C   0  0  0  0  0  2  0  0  0  0  0  0
  -18.1520  -26.8230   22.0980 C   0  0  0  0  0  2  0  0  0  0  0  0
  -19.1650  -28.8670   23.2670 C   0  0  0  0  0  0  0  0  0  0  0  0
  -18.9870  -30.1030   23.9270 C   0  0  0  0  0  3  0  0  0  0  0  0
  -17.6960  -30.6110   24.1680 C   0  0  0  0  0  3  0  0  0  0  0  0
  -16.5660  -29.8790   23.7640 C   0  0  0  0  0  3  0  0  0  0  0  0
  -16.7290  -28.6450   23.1110 C   0  0  0  0  0  3  0  0  0  0  0  0
  -25.9100  -32.4750   23.6810 C   0  0  0  0  0  3  0  0  0  0  0  0
  -25.6140  -33.8500   24.1040 N   0  0  0  0  0  0  0  0  0  0  0  0
  -25.9260  -34.9440   23.3960 C   0  0  0  0  0  0  0  0  0  0  0  0
  -26.5630  -34.9010   22.3400 O   0  0  0  0  0  0  0  0  0  0  0  0
  -25.0470  -33.9570   24.9310 H   0  0  0  0  0  0  0  0  0  0  0  0
  -24.1860  -36.7490   23.1930 C   0  0  0  0  0  1  0  0  0  0  0  0
  -25.4510  -36.3030   23.9440 C   0  0  0  0  0  3  0  0  0  0  0  0
  -27.6110  -37.1430   24.7570 C   0  0  0  0  0  1  0  0  0  0  0  0
  -26.4790  -37.3630   23.8600 N   0  0  0  0  0  0  0  0  0  0  0  0
  -26.0780  -38.2720   24.0730 H   0  0  0  0  0  0  0  0  0  0  0  0
  -26.4830  -31.6280   24.8840 C   0  0  1  0  0  0  0  0  0  0  0  0
  -25.4350  -31.3060   25.9740 C   0  0  0  0  0  1  0  0  0  0  0  0
  -27.0660  -30.2860   24.3790 C   0  0  0  0  0  1  0  0  0  0  0  0
  -27.6510  -32.3940   25.5530 C   0  0  0  0  0  1  0  0  0  0  0  0
  -29.7310  -20.1430   21.3960 C   0  0  0  0  0  2  0  0  0  0  0  0
  -28.9440  -16.5130   21.0610 C   0  0  0  0  0  2  0  0  0  0  0  0
  -28.5050  -17.9820   21.1450 C   0  0  0  0  0  2  0  0  0  0  0  0
  -30.8710  -17.9360   21.0100 C   0  0  0  0  0  2  0  0  0  0  0  0
  -30.3730  -16.5790   20.5120 C   0  0  0  0  0  3  0  0  0  0  0  0
  -29.6910  -18.7960   20.7860 N   0  0  2  0  0  4  0  0  0  0  0  0
  -29.6530  -18.9390   19.7870 H   0  0  0  0  0  0  0  0  0  0  0  0
  -31.6050  -14.5530   19.9630 C   0  0  0  0  0  0  0  0  0  0  0  0
  -31.2190  -12.3500   18.9210 C   0  0  0  0  0  2  0  0  0  0  0  0
  -30.2630  -12.4920   17.7180 C   0  0  0  0  0  2  0  0  0  0  0  0
  -28.7870  -12.4550   18.1650 C   0  0  0  0  0  2  0  0  0  0  0  0
  -28.5020  -13.4150   19.3480 C   0  0  0  0  0  3  0  0  0  0  0  0
  -29.5460  -13.2000   20.4680 C   0  0  0  0  0  2  0  0  0  0  0  0
  -30.9000  -13.3940   19.9030 N   0  0  0  0  0  0  0  0  0  0  0  0
  -32.5770  -14.8170   19.2500 O   0  0  0  0  0  0  0  0  0  0  0  0
  -31.1550  -15.4050   20.8910 N   0  0  0  0  0  0  0  0  0  0  0  0
  -30.7310  -14.9080   21.6600 H   0  0  0  0  0  0  0  0  0  0  0  0
  -26.1570  -14.2220   20.0640 C   0  0  0  0  0  0  0  0  0  0  0  0
  -25.0450  -13.5400   20.4800 C   0  0  0  0  0  0  0  0  0  0  0  0
  -25.4040  -12.1570   20.4700 C   0  0  0  0  0  0  0  0  0  0  0  0
  -27.1340  -13.2600   19.8440 N   0  0  0  0  0  0  0  0  0  0  0  0
  -26.6810  -12.0150   20.1380 N   0  0  0  0  0  0  0  0  0  0  0  0
  -24.5940  -10.9540   20.7010 C   0  0  0  0  0  0  0  0  0  0  0  0
  -24.9300  -10.0180   21.7020 C   0  0  0  0  0  3  0  0  0  0  0  0
  -24.1260   -8.8780   21.9170 C   0  0  0  0  0  3  0  0  0  0  0  0
  -22.9710   -8.6670   21.1280 C   0  0  0  0  0  0  0  0  0  0  0  0
  -22.6530   -9.5910   20.1170 C   0  0  0  0  0  3  0  0  0  0  0  0
  -23.4580  -10.7220   19.9000 C   0  0  0  0  0  3  0  0  0  0  0  0
  -22.1440   -7.5760   21.2470 O   0  0  0  0  0  0  0  0  0  0  0  0
  -21.9420   -6.9540   22.4520 C   0  0  0  0  0  0  0  0  0  0  0  0
  -21.4560   -7.6530   23.5790 C   0  0  0  0  0  3  0  0  0  0  0  0
  -21.1990   -6.9620   24.7790 C   0  0  0  0  0  3  0  0  0  0  0  0
  -21.4180   -5.5730   24.8530 C   0  0  0  0  0  0  0  0  0  0  0  0
  -21.8980   -4.8750   23.7320 C   0  0  0  0  0  3  0  0  0  0  0  0
  -22.1580   -5.5640   22.5340 C   0  0  0  0  0  0  0  0  0  0  0  0
  -22.6000   -4.8830   21.4490 F   0  0  0  0  0  0  0  0  0  0  0  0
  -21.1620   -4.9060   26.0040 F   0  0  0  0  0  0  0  0  0  0  0  0
  -23.6910  -14.1220   20.7720 C   0  0  0  0  0  0  0  0  0  0  0  0
  -22.9490  -13.5160   21.6910 N   0  0  0  0  0  0  0  0  0  0  0  0
  -23.3040  -15.1500   20.2160 O   0  0  0  0  0  0  0  0  0  0  0  0
  -23.2780  -12.6830   22.1580 H   0  0  0  0  0  0  0  0  0  0  0  0
  -22.0420  -13.8890   21.9320 H   0  0  0  0  0  0  0  0  0  0  0  0
  -26.4070  -15.5690   19.8290 N   0  0  0  0  0  0  0  0  0  0  0  0
  -25.6480  -16.2410   19.8350 H   0  0  0  0  0  0  0  0  0  0  0  0
  -27.2080  -15.8860   19.2980 H   0  0  0  0  0  0  0  0  0  0  0  0
  1 48  1  0
  1  3  1  0
  2  3  2  0
  2  4  1  0
  5  4  1  0
  6  5  1  0
  7  9  1  0
  7  6  1  0
  8 19  2  0
  9 14  1  0
 10 18  1  0
 10 20  1  0
 11 17  1  0
 11 13  1  0
 12 18  1  0
 13 12  1  0
 14 13  2  0
 15 16  1  0
 15  9  2  0
 16 11  2  0
 17 10  1  0
 18  8  1  0
 20 22  2  0
 21 20  1  0
 23 21  1  0
 24 33  2  0
 24 29  1  0
 25 21  1  0
 25 29  1  0
 26 25  1  0
 27 28  1  0
 27 26  1  0
 28 24  1  0
 29 30  2  0
 30 31  1  0
 32 31  2  0
 33 32  1  0
 34  8  1  0
 34 35  1  0
 34 44  1  0
 35 38  1  0
 36 40  1  0
 36 35  1  0
 37 36  2  0
 40 39  1  0
 42 40  1  0
 42 43  1  0
 42 41  1  0
 44 47  1  1
 44 45  1  0
 46 44  1  0
 49 50  1  0
 52 63  1  0
 52 51  1  0
 52 49  1  0
 53 51  1  0
 53 50  1  0
 53 48  1  0
 53 54  1  6
 55 63  1  0
 56 61  1  0
 57 58  1  0
 57 56  1  0
 59 58  1  0
 59 68  1  0
 59 60  1  0
 61 55  1  0
 61 60  1  0
 62 55  2  0
 63 64  1  0
 65 66  2  0
 66 85  1  0
 67 66  1  0
 67 70  1  0
 68 65  1  0
 68 69  1  0
 69 67  2  0
 70 71  1  0
 71 72  2  0
 73 76  1  0
 73 72  1  0
 74 73  2  0
 75 74  1  0
 75 70  2  0
 76 77  1  0
 77 82  2  0
 77 78  1  0
 78 79  2  0
 79 80  1  0
 80 84  1  0
 81 80  2  0
 82 81  1  0
 83 82  1  0
 85 86  1  0
 86 89  1  0
 86 88  1  0
 87 85  2  0
 90 91  1  0
 90 65  1  0
 92 90  1  0
M  ISO  4   6 101   7 101  55 100  63 100
M  END
>  <TORSDO>  (31) 
F 22

>  <SCORE>  (31) 
-11.366

>  <name>  (31) 
31

>  <ligand_id>  (31) 
31

>  <original_smiles>  (31) 
[H]C(=NC([H])([H])C([H])([H])[N+]1([H])C([H])([H])C([H])([H])C([H])(N([H])C(=O)N2C([H])([H])C([H])([H])C([H])([H])C([H])(n3nc(-c4c([H])c([H])c(Oc5c([H])c([H])c(F)c([H])c5F)c([H])c4[H])c(C(=O)N([H])[H])c3N([H])[H])C2([H])[H])C1([H])[H])C([H])([H])C([H])([H])C([H])([H])Oc1c([H])c([H])c2c(c1[H])C([H])([H])N(C(=O)C([H])(N([H])C(=O)C([H])(N([H])C([H])([H])[H])C([H])([H])[H])C(C([H])([H])[H])(C([H])([H])[H])C([H])([H])[H])C([H])(C(=O)N([H])C1([H])c3c([H])c([H])c([H])c([H])c3C([H])([H])C([H])([H])C1([H])[H])C2([H])[H]

>  <smiles>  (31) 
[H]C(=NC([H])([H])C([H])([H])[N+]1([H])C([H])([H])C([H])([H])C([H])(N([H])C(=O)N2C([H])([H])C([H])([H])C([H])([H])C([H])(n3nc(-c4c([H])c([H])c(Oc5c([H])c([H])c(F)c([H])c5F)c([H])c4[H])c(C(=O)N([H])[H])c3N([H])[H])C2([H])[H])C1([H])[H])C([H])([H])C([H])([H])C([H])([H])Oc1c([H])c([H])c2c(c1[H])C([H])([H])N(C(=O)C([H])(N([H])C(=O)C([H])(N([H])C([H])([H])[H])C([H])([H])[H])C(C([H])([H])[H])(C([H])([H])[H])C([H])([H])[H])C([H])(C(=O)N([H])C1([H])c3c([H])c([H])c([H])c([H])c3C([H])([H])C([H])([H])C1([H])[H])C2([H])[H]

$$$$
32:0:0
     RDKit          3D

 96104  0  0  1  0  0  0  0  0999 V2000
  -30.7740  -21.6840   20.5390 C   0  0  0  0  0  3  0  0  0  0  0  0
  -31.3360  -22.7380   19.9200 C   0  0  0  0  0  3  0  0  0  0  0  0
  -31.3960  -20.2940   20.5700 C   0  0  0  0  0  2  0  0  0  0  0  0
  -30.1620  -19.1700   18.7710 C   0  0  0  0  0  3  0  0  0  0  0  0
  -30.5000  -19.2260   20.0830 N   0  0  0  0  0  0  0  0  0  0  0  0
  -30.4490  -20.0290   17.9310 O   0  0  0  0  0  0  0  0  0  0  0  0
  -30.8840  -14.4630   20.1630 C   0  0  0  0  0  0  0  0  0  0  0  0
  -30.4310  -12.3660   18.9470 C   0  0  0  0  0  2  0  0  0  0  0  0
  -29.4540  -12.6260   17.7840 C   0  0  0  0  0  2  0  0  0  0  0  0
  -27.9940  -12.4930   18.2600 C   0  0  0  0  0  2  0  0  0  0  0  0
  -27.7250  -13.2770   19.5690 C   0  0  0  0  0  3  0  0  0  0  0  0
  -28.8250  -12.9960   20.6230 C   0  0  0  0  0  2  0  0  0  0  0  0
  -30.1140  -13.3420   20.0120 N   0  0  0  0  0  0  0  0  0  0  0  0
  -32.0130  -14.5050   19.6660 O   0  0  0  0  0  0  0  0  0  0  0  0
  -31.1830  -16.8590   20.5220 C   0  0  0  0  0  2  0  0  0  0  0  0
  -29.1410  -15.9820   21.3700 C   0  0  0  0  0  2  0  0  0  0  0  0
  -30.3520  -18.0620   20.9940 C   0  0  0  0  0  3  0  0  0  0  0  0
  -28.9410  -17.4940   21.2230 C   0  0  0  0  0  3  0  0  0  0  0  0
  -30.3750  -15.6350   20.6540 N   0  0  0  0  0  0  0  0  0  0  0  0
  -28.1000  -17.6790   20.2050 F   0  0  0  0  0  0  0  0  0  0  0  0
  -25.3540  -13.8950   20.3480 C   0  0  0  0  0  0  0  0  0  0  0  0
  -24.2990  -13.1250   20.7570 C   0  0  0  0  0  0  0  0  0  0  0  0
  -24.7570  -11.7730   20.7190 C   0  0  0  0  0  0  0  0  0  0  0  0
  -26.3910  -13.0100   20.0940 N   0  0  0  0  0  0  0  0  0  0  0  0
  -26.0370  -11.7290   20.3710 N   0  0  0  0  0  0  0  0  0  0  0  0
  -24.0360  -10.5130   20.9360 C   0  0  0  0  0  0  0  0  0  0  0  0
  -24.4830   -9.5570   21.8760 C   0  0  0  0  0  3  0  0  0  0  0  0
  -23.7610   -8.3620   22.0790 C   0  0  0  0  0  3  0  0  0  0  0  0
  -22.5790   -8.1130   21.3420 C   0  0  0  0  0  0  0  0  0  0  0  0
  -22.1520   -9.0550   20.3910 C   0  0  0  0  0  3  0  0  0  0  0  0
  -22.8730  -10.2420   20.1860 C   0  0  0  0  0  3  0  0  0  0  0  0
  -21.8280   -6.9670   21.4540 O   0  0  0  0  0  0  0  0  0  0  0  0
  -21.7770   -6.2540   22.6240 C   0  0  0  0  0  0  0  0  0  0  0  0
  -21.3570   -6.8410   23.8370 C   0  0  0  0  0  3  0  0  0  0  0  0
  -21.2490   -6.0530   25.0020 C   0  0  0  0  0  3  0  0  0  0  0  0
  -21.5530   -4.6790   24.9520 C   0  0  0  0  0  0  0  0  0  0  0  0
  -21.9660   -4.0910   23.7430 C   0  0  0  0  0  3  0  0  0  0  0  0
  -22.0730   -4.8760   22.5820 C   0  0  0  0  0  0  0  0  0  0  0  0
  -22.4510   -4.3010   21.4150 F   0  0  0  0  0  0  0  0  0  0  0  0
  -21.4420   -3.9200   26.0670 F   0  0  0  0  0  0  0  0  0  0  0  0
  -22.9130  -13.6070   21.0730 C   0  0  0  0  0  0  0  0  0  0  0  0
  -22.2160  -12.9180   21.9710 N   0  0  0  0  0  0  0  0  0  0  0  0
  -22.4570  -14.6300   20.5630 O   0  0  0  0  0  0  0  0  0  0  0  0
  -22.5960  -12.0910   22.4060 H   0  0  0  0  0  0  0  0  0  0  0  0
  -21.2900  -13.2250   22.2300 H   0  0  0  0  0  0  0  0  0  0  0  0
  -25.5070  -15.2640   20.1520 N   0  0  0  0  0  0  0  0  0  0  0  0
  -24.7270  -15.9060   20.2500 H   0  0  0  0  0  0  0  0  0  0  0  0
  -26.3410  -15.7130   19.7940 H   0  0  0  0  0  0  0  0  0  0  0  0
  -30.7480  -24.1330   19.8670 C   0  0  0  0  0  2  0  0  0  0  0  0
  -31.6010  -25.0820   20.6150 N   0  0  0  0  0  4  0  0  0  0  0  0
  -32.5270  -25.0140   20.2250 H   0  0  0  0  0  0  0  0  0  0  0  0
  -31.6700  -24.8070   21.5810 H   0  0  0  0  0  0  0  0  0  0  0  0
  -31.2070  -26.5080   20.5220 C   0  0  0  0  0  2  0  0  0  0  0  0
  -30.2810  -26.9840   21.6610 C   0  0  0  0  0  2  0  0  0  0  0  0
  -28.8460  -26.4420   21.6040 C   0  0  0  0  0  2  0  0  0  0  0  0
  -28.2840  -26.6380   20.3040 O   0  0  0  0  0  0  0  0  0  0  0  0
  -24.5210  -31.8850   23.2580 C   0  0  0  0  0  0  0  0  0  0  0  0
  -27.1500  -27.4090   20.2740 C   0  0  0  0  0  0  0  0  0  0  0  0
  -23.3110  -30.4680   21.6290 C   0  0  0  0  0  3  0  0  0  0  0  0
  -24.7600  -28.9010   20.2300 C   0  0  0  0  0  0  0  0  0  0  0  0
  -25.8330  -30.8160   21.4340 C   0  0  0  0  0  2  0  0  0  0  0  0
  -25.9100  -29.4370   20.8210 C   0  0  0  0  0  0  0  0  0  0  0  0
  -27.1070  -28.6980   20.8470 C   0  0  0  0  0  3  0  0  0  0  0  0
  -25.9960  -26.8840   19.6620 C   0  0  0  0  0  3  0  0  0  0  0  0
  -24.7940  -27.6200   19.6480 C   0  0  0  0  0  3  0  0  0  0  0  0
  -23.5200  -29.7640   20.2590 C   0  0  0  0  0  2  0  0  0  0  0  0
  -24.5720  -31.0720   22.1650 N   0  0  0  0  0  0  0  0  0  0  0  0
  -23.4410  -32.1740   23.7900 O   0  0  0  0  0  0  0  0  0  0  0  0
  -22.6470  -29.4680   22.6010 C   0  0  0  0  0  0  0  0  0  0  0  0
  -21.3230  -29.2930   22.4650 N   0  0  0  0  0  0  0  0  0  0  0  0
  -23.3190  -28.8510   23.4310 O   0  0  0  0  0  0  0  0  0  0  0  0
  -20.8420  -29.8420   21.7650 H   0  0  0  0  0  0  0  0  0  0  0  0
  -17.9350  -28.1320   22.9510 C   0  0  0  0  0  0  0  0  0  0  0  0
  -20.4920  -28.3760   23.2430 C   0  0  0  0  0  3  0  0  0  0  0  0
  -20.5890  -26.9340   22.6940 C   0  0  0  0  0  2  0  0  0  0  0  0
  -19.4940  -26.6000   21.6760 C   0  0  0  0  0  2  0  0  0  0  0  0
  -18.1080  -26.7700   22.3030 C   0  0  0  0  0  2  0  0  0  0  0  0
  -19.0550  -28.8930   23.3790 C   0  0  0  0  0  0  0  0  0  0  0  0
  -18.8400  -30.1700   23.9440 C   0  0  0  0  0  3  0  0  0  0  0  0
  -17.5400  -30.6840   24.0850 C   0  0  0  0  0  3  0  0  0  0  0  0
  -16.4340  -29.9200   23.6740 C   0  0  0  0  0  3  0  0  0  0  0  0
  -16.6320  -28.6460   23.1140 C   0  0  0  0  0  3  0  0  0  0  0  0
  -25.8150  -32.5100   23.8700 C   0  0  0  0  0  3  0  0  0  0  0  0
  -25.5200  -33.9120   24.1900 N   0  0  0  0  0  0  0  0  0  0  0  0
  -25.8660  -34.9550   23.4230 C   0  0  0  0  0  0  0  0  0  0  0  0
  -26.5470  -34.8370   22.4000 O   0  0  0  0  0  0  0  0  0  0  0  0
  -24.9260  -34.0790   24.9880 H   0  0  0  0  0  0  0  0  0  0  0  0
  -24.1650  -36.7650   23.0330 C   0  0  0  0  0  1  0  0  0  0  0  0
  -25.3870  -36.3490   23.8670 C   0  0  0  0  0  3  0  0  0  0  0  0
  -27.5160  -37.2140   24.7330 C   0  0  0  0  0  1  0  0  0  0  0  0
  -26.4320  -37.3900   23.7700 N   0  0  0  0  0  0  0  0  0  0  0  0
  -26.0320  -38.3140   23.9080 H   0  0  0  0  0  0  0  0  0  0  0  0
  -26.3320  -31.7380   25.1480 C   0  0  1  0  0  0  0  0  0  0  0  0
  -25.2430  -31.5110   26.2220 C   0  0  0  0  0  1  0  0  0  0  0  0
  -26.9020  -30.3530   24.7570 C   0  0  0  0  0  1  0  0  0  0  0  0
  -27.4920  -32.5250   25.8010 C   0  0  0  0  0  1  0  0  0  0  0  0
  1  3  1  0
  2  1  2  0
  4  5  1  0
  5  3  1  0
  6  4  2  0
  7 19  1  0
  8 13  1  0
  9 10  1  0
  9  8  1  0
 11 10  1  0
 11 24  1  0
 11 12  1  0
 13  7  1  0
 13 12  1  0
 14  7  2  0
 15 19  1  0
 15 17  1  0
 17  5  1  0
 17 18  1  0
 18 20  1  0
 18 16  1  0
 19 16  1  0
 21 22  2  0
 22 41  1  0
 23 22  1  0
 23 26  1  0
 24 21  1  0
 24 25  1  0
 25 23  2  0
 26 27  1  0
 27 28  2  0
 29 32  1  0
 29 28  1  0
 30 29  2  0
 31 30  1  0
 31 26  2  0
 32 33  1  0
 33 34  1  0
 34 35  2  0
 36 35  1  0
 36 40  1  0
 37 36  2  0
 38 33  2  0
 38 37  1  0
 39 38  1  0
 41 42  1  0
 42 45  1  0
 42 44  1  0
 43 41  2  0
 46 47  1  0
 46 21  1  0
 48 46  1  0
 49  2  1  0
 49 50  1  0
 50 52  1  0
 51 50  1  0
 53 50  1  0
 53 54  1  0
 55 54  1  0
 56 55  1  0
 57 68  2  0
 58 56  1  0
 58 63  1  0
 59 67  1  0
 59 69  1  0
 60 66  1  0
 60 62  1  0
 61 67  1  0
 62 63  2  0
 62 61  1  0
 64 58  2  0
 65 64  1  0
 65 60  2  0
 66 59  1  0
 67 57  1  0
 69 71  2  0
 70 69  1  0
 72 70  1  0
 73 82  2  0
 73 78  1  0
 74 70  1  0
 74 78  1  0
 75 74  1  0
 76 77  1  0
 76 75  1  0
 77 73  1  0
 78 79  2  0
 79 80  1  0
 81 80  2  0
 82 81  1  0
 83 57  1  0
 83 84  1  0
 83 93  1  0
 84 87  1  0
 85 89  1  0
 85 84  1  0
 86 85  2  0
 89 88  1  0
 91 89  1  0
 91 92  1  0
 91 90  1  0
 93 96  1  1
 93 94  1  0
 95 93  1  0
M  ISO  4   7 100  19 100  55 101  56 101
M  END
>  <TORSDO>  (32) 
F 23

>  <SCORE>  (32) 
-12.609

>  <name>  (32) 
32

>  <ligand_id>  (32) 
32

>  <original_smiles>  (32) 
[H]C(=O)N(C([H])([H])C([H])=C([H])C([H])([H])[N+]([H])([H])C([H])([H])C([H])([H])C([H])([H])Oc1c([H])c([H])c2c(c1[H])C([H])([H])N(C(=O)C([H])(N([H])C(=O)C([H])(N([H])C([H])([H])[H])C([H])([H])[H])C(C([H])([H])[H])(C([H])([H])[H])C([H])([H])[H])C([H])(C(=O)N([H])C1([H])c3c([H])c([H])c([H])c([H])c3C([H])([H])C([H])([H])C1([H])[H])C2([H])[H])C1([H])C([H])([H])N(C(=O)N2C([H])([H])C([H])([H])C([H])([H])C([H])(n3nc(-c4c([H])c([H])c(Oc5c([H])c([H])c(F)c([H])c5F)c([H])c4[H])c(C(=O)N([H])[H])c3N([H])[H])C2([H])[H])C([H])([H])C1([H])F

>  <smiles>  (32) 
[H]C(=O)N(C([H])([H])C([H])=C([H])C([H])([H])[N+]([H])([H])C([H])([H])C([H])([H])C([H])([H])Oc1c([H])c([H])c2c(c1[H])C([H])([H])N(C(=O)C([H])(N([H])C(=O)C([H])(N([H])C([H])([H])[H])C([H])([H])[H])C(C([H])([H])[H])(C([H])([H])[H])C([H])([H])[H])C([H])(C(=O)N([H])C1([H])c3c([H])c([H])c([H])c([H])c3C([H])([H])C([H])([H])C1([H])[H])C2([H])[H])C1([H])C([H])([H])N(C(=O)N2C([H])([H])C([H])([H])C([H])([H])C([H])(n3nc(-c4c([H])c([H])c(Oc5c([H])c([H])c(F)c([H])c5F)c([H])c4[H])c(C(=O)N([H])[H])c3N([H])[H])C2([H])[H])C([H])([H])C1([H])F

$$$$
33:0:0
     RDKit          3D

 92100  0  0  1  0  0  0  0  0999 V2000
  -29.6500  -21.2240   18.9460 C   0  0  0  0  0  3  0  0  0  0  0  0
  -29.4940  -20.5540   20.2040 C   0  0  0  0  0  0  0  0  0  0  0  0
  -28.9100  -23.5410   19.7510 C   0  0  0  0  0  0  0  0  0  0  0  0
  -29.3640  -22.6340   18.7300 C   0  0  0  0  0  0  0  0  0  0  0  0
  -29.1030  -21.4840   21.2310 C   0  0  0  0  0  0  0  0  0  0  0  0
  -28.8260  -22.8900   21.0200 C   0  0  0  0  0  0  0  0  0  0  0  0
  -29.4560  -23.0990   17.4610 F   0  0  0  0  0  0  0  0  0  0  0  0
  -28.9320  -21.0180   22.4920 F   0  0  0  0  0  0  0  0  0  0  0  0
  -28.3760  -23.6120   22.0750 F   0  0  0  0  0  0  0  0  0  0  0  0
  -29.5100  -18.9680   20.4820 C   0  0  0  0  0  0  0  0  0  0  0  0
  -28.6270  -18.5060   21.2100 O   0  0  0  0  0  0  0  0  0  0  0  0
  -30.5380  -17.8220   19.9600 C   0  0  0  0  0  2  0  0  0  0  0  0
  -30.9440  -15.1410   20.0180 C   0  0  0  0  0  0  0  0  0  0  0  0
  -30.7270  -12.8210   19.0590 C   0  0  0  0  0  2  0  0  0  0  0  0
  -29.7540  -12.8360   17.8570 C   0  0  0  0  0  2  0  0  0  0  0  0
  -28.3000  -12.6570   18.3340 C   0  0  0  0  0  2  0  0  0  0  0  0
  -27.9540  -13.5680   19.5410 C   0  0  0  0  0  3  0  0  0  0  0  0
  -29.0470  -13.5320   20.6330 C   0  0  0  0  0  2  0  0  0  0  0  0
  -30.3150  -13.9040   19.9910 N   0  0  0  0  0  0  0  0  0  0  0  0
  -32.1200  -15.2070   19.6500 O   0  0  0  0  0  0  0  0  0  0  0  0
  -30.2060  -16.3150   20.2390 N   0  0  0  0  0  0  0  0  0  0  0  0
  -29.2580  -16.1690   20.5550 H   0  0  0  0  0  0  0  0  0  0  0  0
  -25.6160  -14.1720   20.3950 C   0  0  0  0  0  0  0  0  0  0  0  0
  -24.5460  -13.4070   20.7720 C   0  0  0  0  0  0  0  0  0  0  0  0
  -24.9750  -12.0490   20.6620 C   0  0  0  0  0  0  0  0  0  0  0  0
  -26.6280  -13.2820   20.0760 N   0  0  0  0  0  0  0  0  0  0  0  0
  -26.2520  -11.9950   20.3010 N   0  0  0  0  0  0  0  0  0  0  0  0
  -24.2230  -10.7960   20.8230 C   0  0  0  0  0  0  0  0  0  0  0  0
  -24.6200   -9.8110   21.7540 C   0  0  0  0  0  3  0  0  0  0  0  0
  -23.8690   -8.6250   21.9060 C   0  0  0  0  0  3  0  0  0  0  0  0
  -22.7060   -8.4160   21.1250 C   0  0  0  0  0  0  0  0  0  0  0  0
  -22.3290   -9.3900   20.1840 C   0  0  0  0  0  3  0  0  0  0  0  0
  -23.0810  -10.5670   20.0310 C   0  0  0  0  0  3  0  0  0  0  0  0
  -21.9290   -7.2850   21.1860 O   0  0  0  0  0  0  0  0  0  0  0  0
  -21.7790   -6.5770   22.3520 C   0  0  0  0  0  0  0  0  0  0  0  0
  -21.2230   -7.1590   23.5120 C   0  0  0  0  0  3  0  0  0  0  0  0
  -21.0230   -6.3760   24.6660 C   0  0  0  0  0  3  0  0  0  0  0  0
  -21.3670   -5.0120   24.6610 C   0  0  0  0  0  0  0  0  0  0  0  0
  -21.9160   -4.4290   23.5050 C   0  0  0  0  0  3  0  0  0  0  0  0
  -22.1180   -5.2090   22.3530 C   0  0  0  0  0  0  0  0  0  0  0  0
  -22.6270   -4.6360   21.2350 F   0  0  0  0  0  0  0  0  0  0  0  0
  -21.1670   -4.2570   25.7660 F   0  0  0  0  0  0  0  0  0  0  0  0
  -23.1730  -13.9050   21.1170 C   0  0  0  0  0  0  0  0  0  0  0  0
  -22.4670  -13.1980   21.9910 N   0  0  0  0  0  0  0  0  0  0  0  0
  -22.7380  -14.9560   20.6470 O   0  0  0  0  0  0  0  0  0  0  0  0
  -22.8330  -12.3480   22.3930 H   0  0  0  0  0  0  0  0  0  0  0  0
  -21.5460  -13.5120   22.2640 H   0  0  0  0  0  0  0  0  0  0  0  0
  -25.8070  -15.5460   20.2720 N   0  0  0  0  0  0  0  0  0  0  0  0
  -25.0640  -16.2120   20.4530 H   0  0  0  0  0  0  0  0  0  0  0  0
  -26.6540  -15.9820   19.9310 H   0  0  0  0  0  0  0  0  0  0  0  0
  -28.1580  -24.9610   19.4240 C   0  0  0  0  0  2  0  0  0  0  0  0
  -28.4650  -26.4130   19.8490 O   0  0  0  0  0  0  0  0  0  0  0  0
  -24.6920  -31.7690   23.1800 C   0  0  0  0  0  0  0  0  0  0  0  0
  -27.3920  -27.3750   19.8240 C   0  0  0  0  0  0  0  0  0  0  0  0
  -23.5180  -30.4340   21.4730 C   0  0  0  0  0  3  0  0  0  0  0  0
  -25.0000  -29.0210   19.9320 C   0  0  0  0  0  0  0  0  0  0  0  0
  -26.0570  -30.8100   21.2950 C   0  0  0  0  0  2  0  0  0  0  0  0
  -26.1710  -29.4680   20.5580 C   0  0  0  0  0  0  0  0  0  0  0  0
  -27.3650  -28.6590   20.4980 C   0  0  0  0  0  3  0  0  0  0  0  0
  -26.1930  -27.0450   19.1430 C   0  0  0  0  0  3  0  0  0  0  0  0
  -25.0220  -27.8220   19.2110 C   0  0  0  0  0  3  0  0  0  0  0  0
  -23.7420  -29.8610   20.0510 C   0  0  0  0  0  2  0  0  0  0  0  0
  -24.7750  -31.0230   22.0390 N   0  0  0  0  0  0  0  0  0  0  0  0
  -23.6040  -31.9810   23.7390 O   0  0  0  0  0  0  0  0  0  0  0  0
  -22.8930  -29.3420   22.3760 C   0  0  0  0  0  0  0  0  0  0  0  0
  -21.5760  -29.1110   22.2360 N   0  0  0  0  0  0  0  0  0  0  0  0
  -23.5950  -28.7070   23.1680 O   0  0  0  0  0  0  0  0  0  0  0  0
  -21.0640  -29.6790   21.5750 H   0  0  0  0  0  0  0  0  0  0  0  0
  -18.2600  -27.7140   22.6510 C   0  0  0  0  0  0  0  0  0  0  0  0
  -20.8000  -28.0980   22.9550 C   0  0  0  0  0  3  0  0  0  0  0  0
  -20.9810  -26.7000   22.3160 C   0  0  0  0  0  2  0  0  0  0  0  0
  -19.9040  -26.3670   21.2780 C   0  0  0  0  0  2  0  0  0  0  0  0
  -18.5120  -26.4090   21.9150 C   0  0  0  0  0  2  0  0  0  0  0  0
  -19.3330  -28.5140   23.1250 C   0  0  0  0  0  0  0  0  0  0  0  0
  -19.0420  -29.7340   23.7740 C   0  0  0  0  0  3  0  0  0  0  0  0
  -17.7110  -30.1540   23.9530 C   0  0  0  0  0  3  0  0  0  0  0  0
  -16.6520  -29.3520   23.4940 C   0  0  0  0  0  3  0  0  0  0  0  0
  -16.9270  -28.1330   22.8480 C   0  0  0  0  0  3  0  0  0  0  0  0
  -25.9570  -32.4100   23.8280 C   0  0  0  0  0  3  0  0  0  0  0  0
  -26.4660  -31.6270   25.1000 C   0  0  1  0  0  0  0  0  0  0  0  0
  -25.3630  -31.3610   26.1520 C   0  0  0  0  0  1  0  0  0  0  0  0
  -27.0710  -30.2610   24.7010 C   0  0  0  0  0  1  0  0  0  0  0  0
  -27.5980  -32.4260   25.7880 C   0  0  0  0  0  1  0  0  0  0  0  0
  -25.6230  -33.7990   24.1800 N   0  0  0  0  0  0  0  0  0  0  0  0
  -25.9170  -34.8700   23.4300 C   0  0  0  0  0  0  0  0  0  0  0  0
  -26.5660  -34.7920   22.3820 O   0  0  0  0  0  0  0  0  0  0  0  0
  -25.0450  -33.9320   24.9960 H   0  0  0  0  0  0  0  0  0  0  0  0
  -24.1340  -36.6240   23.1520 C   0  0  0  0  0  1  0  0  0  0  0  0
  -25.4130  -36.2420   23.9160 C   0  0  0  0  0  3  0  0  0  0  0  0
  -27.5450  -37.1810   24.6920 C   0  0  0  0  0  1  0  0  0  0  0  0
  -26.4150  -37.3220   23.7780 N   0  0  0  0  0  0  0  0  0  0  0  0
  -25.9890  -38.2310   23.9380 H   0  0  0  0  0  0  0  0  0  0  0  0
  1  2  1  0
  2 10  1  0
  2  5  2  0
  3  6  2  0
  4  1  2  0
  4  3  1  0
  5  8  1  0
  6  5  1  0
  6  9  1  0
  7  4  1  0
 10 11  2  0
 12 21  1  0
 12 10  1  0
 13 21  1  0
 14 19  1  0
 15 16  1  0
 15 14  1  0
 17 16  1  0
 17 26  1  0
 17 18  1  0
 19 13  1  0
 19 18  1  0
 20 13  2  0
 21 22  1  0
 23 24  2  0
 24 43  1  0
 25 24  1  0
 25 28  1  0
 26 27  1  0
 26 23  1  0
 27 25  2  0
 28 29  1  0
 29 30  2  0
 31 34  1  0
 31 30  1  0
 32 31  2  0
 33 32  1  0
 33 28  2  0
 34 35  1  0
 35 40  2  0
 35 36  1  0
 36 37  2  0
 38 37  1  0
 38 42  1  0
 39 38  2  0
 40 39  1  0
 41 40  1  0
 43 44  1  0
 44 47  1  0
 44 46  1  0
 45 43  2  0
 48 23  1  0
 48 49  1  0
 50 48  1  0
 51  3  1  0
 51 52  1  0
 53 64  2  0
 54 52  1  0
 54 59  1  0
 55 63  1  0
 55 65  1  0
 56 62  1  0
 56 58  1  0
 57 63  1  0
 58 57  1  0
 59 58  2  0
 60 61  1  0
 60 54  2  0
 61 56  2  0
 62 55  1  0
 63 53  1  0
 65 67  2  0
 66 65  1  0
 68 66  1  0
 69 78  2  0
 69 74  1  0
 70 66  1  0
 70 74  1  0
 71 70  1  0
 72 73  1  0
 72 71  1  0
 73 69  1  0
 74 75  2  0
 75 76  1  0
 77 76  2  0
 78 77  1  0
 79 53  1  0
 79 84  1  0
 79 80  1  0
 80 83  1  1
 80 81  1  0
 82 80  1  0
 84 87  1  0
 85 89  1  0
 85 84  1  0
 86 85  2  0
 89 88  1  0
 91 89  1  0
 91 92  1  0
 91 90  1  0
M  ISO  4  13 100  21 100  51 101  52 101
M  END
>  <TORSDO>  (33) 
F 19

>  <SCORE>  (33) 
-13.283

>  <name>  (33) 
33

>  <ligand_id>  (33) 
33

>  <original_smiles>  (33) 
[H]c1c([H])c([H])c2c(c1[H])C([H])([H])C([H])([H])C([H])([H])C2([H])N([H])C(=O)C1([H])N(C(=O)C([H])(N([H])C(=O)C([H])(N([H])C([H])([H])[H])C([H])([H])[H])C(C([H])([H])[H])(C([H])([H])[H])C([H])([H])[H])C([H])([H])c2c([H])c(OC([H])([H])c3c(F)c([H])c(C(=O)C([H])([H])N([H])C(=O)N4C([H])([H])C([H])([H])C([H])([H])C([H])(n5nc(-c6c([H])c([H])c(Oc7c([H])c([H])c(F)c([H])c7F)c([H])c6[H])c(C(=O)N([H])[H])c5N([H])[H])C4([H])[H])c(F)c3F)c([H])c([H])c2C1([H])[H]

>  <smiles>  (33) 
[H]c1c([H])c([H])c2c(c1[H])C([H])([H])C([H])([H])C([H])([H])C2([H])N([H])C(=O)C1([H])N(C(=O)C([H])(N([H])C(=O)C([H])(N([H])C([H])([H])[H])C([H])([H])[H])C(C([H])([H])[H])(C([H])([H])[H])C([H])([H])[H])C([H])([H])c2c([H])c(OC([H])([H])c3c(F)c([H])c(C(=O)C([H])([H])N([H])C(=O)N4C([H])([H])C([H])([H])C([H])([H])C([H])(n5nc(-c6c([H])c([H])c(Oc7c([H])c([H])c(F)c([H])c7F)c([H])c6[H])c(C(=O)N([H])[H])c5N([H])[H])C4([H])[H])c(F)c3F)c([H])c([H])c2C1([H])[H]

$$$$
34:0:0
     RDKit          3D

 94103  0  0  1  0  0  0  0  0999 V2000
  -31.4550  -22.5290   21.3600 C   0  0  0  0  0  2  0  0  0  0  0  0
  -30.5300  -23.5030   22.0850 C   0  0  0  0  0  2  0  0  0  0  0  0
  -30.2290  -22.0260   20.5980 C   0  0  0  0  0  3  0  0  0  0  0  0
  -29.4680  -23.1860   21.1200 N   0  0  2  0  0  4  0  0  0  0  0  0
  -28.6500  -22.7950   21.5740 H   0  0  0  0  0  0  0  0  0  0  0  0
  -29.6610  -20.6810   21.1260 C   0  0  0  0  0  0  0  0  0  0  0  0
  -30.3400  -19.5320   20.8990 N   0  0  0  0  0  0  0  0  0  0  0  0
  -28.5820  -20.6890   21.7260 O   0  0  0  0  0  0  0  0  0  0  0  0
  -31.2100  -19.5850   20.3860 H   0  0  0  0  0  0  0  0  0  0  0  0
  -30.7060  -14.6250   20.3680 C   0  0  0  0  0  0  0  0  0  0  0  0
  -30.3750  -12.4280   19.2770 C   0  0  0  0  0  2  0  0  0  0  0  0
  -29.4340  -12.5480   18.0620 C   0  0  0  0  0  2  0  0  0  0  0  0
  -27.9670  -12.3590   18.4960 C   0  0  0  0  0  2  0  0  0  0  0  0
  -27.5970  -13.2370   19.7140 C   0  0  0  0  0  3  0  0  0  0  0  0
  -28.6670  -13.1500   20.8350 C   0  0  0  0  0  2  0  0  0  0  0  0
  -29.9800  -13.4660   20.2470 N   0  0  0  0  0  0  0  0  0  0  0  0
  -31.8910  -14.6660   20.0340 O   0  0  0  0  0  0  0  0  0  0  0  0
  -30.8260  -17.0090   21.1530 C   0  0  0  0  0  2  0  0  0  0  0  0
  -28.8100  -16.2300   20.1930 C   0  0  0  0  0  2  0  0  0  0  0  0
  -29.8110  -18.1830   21.2020 C   0  0  0  0  0  3  0  0  0  0  0  0
  -28.7680  -17.7550   20.1820 C   0  0  0  0  0  3  0  0  0  0  0  0
  -30.0860  -15.7830   20.7570 N   0  0  0  0  0  0  0  0  0  0  0  0
  -29.1190  -18.1680   18.9610 F   0  0  0  0  0  0  0  0  0  0  0  0
  -25.2080  -13.8680   20.4160 C   0  0  0  0  0  0  0  0  0  0  0  0
  -24.1400  -13.1020   20.7950 C   0  0  0  0  0  0  0  0  0  0  0  0
  -24.6050  -11.7510   20.7880 C   0  0  0  0  0  0  0  0  0  0  0  0
  -26.2520  -12.9780   20.2050 N   0  0  0  0  0  0  0  0  0  0  0  0
  -25.8970  -11.7060   20.4940 N   0  0  0  0  0  0  0  0  0  0  0  0
  -23.8840  -10.4920   20.9870 C   0  0  0  0  0  0  0  0  0  0  0  0
  -24.3140   -9.5440   21.9390 C   0  0  0  0  0  3  0  0  0  0  0  0
  -23.5970   -8.3440   22.1240 C   0  0  0  0  0  3  0  0  0  0  0  0
  -22.4360   -8.0840   21.3580 C   0  0  0  0  0  0  0  0  0  0  0  0
  -22.0250   -9.0220   20.3940 C   0  0  0  0  0  3  0  0  0  0  0  0
  -22.7440  -10.2150   20.2060 C   0  0  0  0  0  3  0  0  0  0  0  0
  -21.6900   -6.9360   21.4550 O   0  0  0  0  0  0  0  0  0  0  0  0
  -21.6320   -6.2120   22.6180 C   0  0  0  0  0  0  0  0  0  0  0  0
  -21.1840   -6.7810   23.8310 C   0  0  0  0  0  3  0  0  0  0  0  0
  -21.0740   -5.9800   24.9850 C   0  0  0  0  0  3  0  0  0  0  0  0
  -21.4060   -4.6130   24.9280 C   0  0  0  0  0  0  0  0  0  0  0  0
  -21.8500   -4.0440   23.7200 C   0  0  0  0  0  3  0  0  0  0  0  0
  -21.9590   -4.8420   22.5680 C   0  0  0  0  0  0  0  0  0  0  0  0
  -22.3650   -4.2860   21.4010 F   0  0  0  0  0  0  0  0  0  0  0  0
  -21.2940   -3.8400   26.0330 F   0  0  0  0  0  0  0  0  0  0  0  0
  -22.7390  -13.5800   21.0420 C   0  0  0  0  0  0  0  0  0  0  0  0
  -22.0020  -12.8940   21.9090 N   0  0  0  0  0  0  0  0  0  0  0  0
  -22.3040  -14.5960   20.5020 O   0  0  0  0  0  0  0  0  0  0  0  0
  -22.3630  -12.0720   22.3720 H   0  0  0  0  0  0  0  0  0  0  0  0
  -21.0620  -13.1970   22.1150 H   0  0  0  0  0  0  0  0  0  0  0  0
  -25.3690  -15.2360   20.2080 N   0  0  0  0  0  0  0  0  0  0  0  0
  -24.6010  -15.8920   20.3010 H   0  0  0  0  0  0  0  0  0  0  0  0
  -26.2060  -15.6540   19.8270 H   0  0  0  0  0  0  0  0  0  0  0  0
  -29.1350  -24.2960   20.1640 C   0  0  0  0  0  2  0  0  0  0  0  0
  -28.2840  -25.4380   20.7990 C   0  0  0  0  0  2  0  0  0  0  0  0
  -28.3520  -26.6870   20.0670 O   0  0  0  0  0  0  0  0  0  0  0  0
  -24.5820  -31.8800   23.1920 C   0  0  0  0  0  0  0  0  0  0  0  0
  -27.2000  -27.4470   20.0790 C   0  0  0  0  0  0  0  0  0  0  0  0
  -23.3640  -30.4920   21.5500 C   0  0  0  0  0  3  0  0  0  0  0  0
  -24.8090  -28.9650   20.1030 C   0  0  0  0  0  0  0  0  0  0  0  0
  -25.8900  -30.8540   21.3330 C   0  0  0  0  0  2  0  0  0  0  0  0
  -25.9740  -29.4860   20.6810 C   0  0  0  0  0  0  0  0  0  0  0  0
  -27.1760  -28.7390   20.6560 C   0  0  0  0  0  3  0  0  0  0  0  0
  -26.0160  -26.9420   19.4960 C   0  0  0  0  0  3  0  0  0  0  0  0
  -24.8250  -27.6920   19.5040 C   0  0  0  0  0  3  0  0  0  0  0  0
  -23.5640  -29.8250   20.1620 C   0  0  0  0  0  2  0  0  0  0  0  0
  -24.6320  -31.0890   22.0840 N   0  0  0  0  0  0  0  0  0  0  0  0
  -23.5040  -32.1470   23.7430 O   0  0  0  0  0  0  0  0  0  0  0  0
  -22.7220  -29.4610   22.5070 C   0  0  0  0  0  0  0  0  0  0  0  0
  -21.3960  -29.2800   22.3910 N   0  0  0  0  0  0  0  0  0  0  0  0
  -23.4140  -28.8280   23.3070 O   0  0  0  0  0  0  0  0  0  0  0  0
  -20.8990  -29.8450   21.7170 H   0  0  0  0  0  0  0  0  0  0  0  0
  -18.0250  -28.0900   22.9230 C   0  0  0  0  0  0  0  0  0  0  0  0
  -20.5880  -28.3370   23.1630 C   0  0  0  0  0  3  0  0  0  0  0  0
  -20.6760  -26.9120   22.5690 C   0  0  0  0  0  2  0  0  0  0  0  0
  -19.5590  -26.6040   21.5660 C   0  0  0  0  0  2  0  0  0  0  0  0
  -18.1870  -26.7480   22.2290 C   0  0  0  0  0  2  0  0  0  0  0  0
  -19.1530  -28.8420   23.3480 C   0  0  0  0  0  0  0  0  0  0  0  0
  -18.9490  -30.0990   23.9570 C   0  0  0  0  0  3  0  0  0  0  0  0
  -17.6480  -30.6060   24.1430 C   0  0  0  0  0  3  0  0  0  0  0  0
  -16.5350  -29.8510   23.7340 C   0  0  0  0  0  3  0  0  0  0  0  0
  -16.7240  -28.5950   23.1330 C   0  0  0  0  0  3  0  0  0  0  0  0
  -25.8710  -32.5090   23.8070 C   0  0  0  0  0  3  0  0  0  0  0  0
  -26.4000  -31.7330   25.0750 C   0  0  1  0  0  0  0  0  0  0  0  0
  -25.3180  -31.4910   26.1510 C   0  0  0  0  0  1  0  0  0  0  0  0
  -26.9800  -30.3580   24.6690 C   0  0  0  0  0  1  0  0  0  0  0  0
  -27.5560  -32.5250   25.7310 C   0  0  0  0  0  1  0  0  0  0  0  0
  -25.5650  -33.9060   24.1440 N   0  0  0  0  0  0  0  0  0  0  0  0
  -25.9010  -34.9620   23.3900 C   0  0  0  0  0  0  0  0  0  0  0  0
  -26.5720  -34.8620   22.3590 O   0  0  0  0  0  0  0  0  0  0  0  0
  -24.9720  -34.0570   24.9460 H   0  0  0  0  0  0  0  0  0  0  0  0
  -24.1850  -36.7640   23.0320 C   0  0  0  0  0  1  0  0  0  0  0  0
  -25.4150  -36.3480   23.8550 C   0  0  0  0  0  3  0  0  0  0  0  0
  -27.5450  -37.2130   24.7170 C   0  0  0  0  0  1  0  0  0  0  0  0
  -26.4530  -37.3960   23.7620 N   0  0  0  0  0  0  0  0  0  0  0  0
  -26.0500  -38.3170   23.9150 H   0  0  0  0  0  0  0  0  0  0  0  0
  1  2  1  0
  3  4  1  0
  3  6  1  0
  3  1  1  0
  4  5  1  1
  4  2  1  0
  6  8  2  0
  7  6  1  0
  9  7  1  0
 10 22  1  0
 11 16  1  0
 12 13  1  0
 12 11  1  0
 14 13  1  0
 14 27  1  0
 14 15  1  0
 16 10  1  0
 16 15  1  0
 17 10  2  0
 18 20  1  0
 19 22  1  0
 20  7  1  0
 21 23  1  0
 21 19  1  0
 21 20  1  0
 22 18  1  0
 24 25  2  0
 25 44  1  0
 26 25  1  0
 26 29  1  0
 27 24  1  0
 27 28  1  0
 28 26  2  0
 29 30  1  0
 30 31  2  0
 32 35  1  0
 32 31  1  0
 33 32  2  0
 34 33  1  0
 34 29  2  0
 35 36  1  0
 36 37  1  0
 37 38  2  0
 39 38  1  0
 39 43  1  0
 40 39  2  0
 41 36  2  0
 41 40  1  0
 42 41  1  0
 44 45  1  0
 45 48  1  0
 45 47  1  0
 46 44  2  0
 49 50  1  0
 49 24  1  0
 51 49  1  0
 52 53  1  0
 52  4  1  0
 54 56  1  0
 54 53  1  0
 55 66  2  0
 56 61  1  0
 57 65  1  0
 57 67  1  0
 58 64  1  0
 58 60  1  0
 59 65  1  0
 60 59  1  0
 61 60  2  0
 62 63  1  0
 62 56  2  0
 63 58  2  0
 64 57  1  0
 65 55  1  0
 67 69  2  0
 68 67  1  0
 70 68  1  0
 71 80  2  0
 71 76  1  0
 72 68  1  0
 72 76  1  0
 73 72  1  0
 74 75  1  0
 74 73  1  0
 75 71  1  0
 76 77  2  0
 77 78  1  0
 79 78  2  0
 80 79  1  0
 81 55  1  0
 81 86  1  0
 81 82  1  0
 82 85  1  1
 82 83  1  0
 84 82  1  0
 86 89  1  0
 87 91  1  0
 87 86  1  0
 88 87  2  0
 91 90  1  0
 93 91  1  0
 93 94  1  0
 93 92  1  0
M  ISO  4  10 100  22 100  53 101  54 101
M  END
>  <TORSDO>  (34) 
F 19

>  <SCORE>  (34) 
-13.978

>  <name>  (34) 
34

>  <ligand_id>  (34) 
34

>  <original_smiles>  (34) 
[H]c1c([H])c([H])c2c(c1[H])C([H])([H])C([H])([H])C([H])([H])C2([H])N([H])C(=O)C1([H])N(C(=O)C([H])(N([H])C(=O)C([H])(N([H])C([H])([H])[H])C([H])([H])[H])C(C([H])([H])[H])(C([H])([H])[H])C([H])([H])[H])C([H])([H])c2c([H])c(OC([H])([H])C([H])([H])[N+]3([H])C([H])([H])C([H])([H])C3([H])C(=O)N([H])C3([H])C([H])([H])N(C(=O)N4C([H])([H])C([H])([H])C([H])([H])C([H])(n5nc(-c6c([H])c([H])c(Oc7c([H])c([H])c(F)c([H])c7F)c([H])c6[H])c(C(=O)N([H])[H])c5N([H])[H])C4([H])[H])C([H])([H])C3([H])F)c([H])c([H])c2C1([H])[H]

>  <smiles>  (34) 
[H]c1c([H])c([H])c2c(c1[H])C([H])([H])C([H])([H])C([H])([H])C2([H])N([H])C(=O)C1([H])N(C(=O)C([H])(N([H])C(=O)C([H])(N([H])C([H])([H])[H])C([H])([H])[H])C(C([H])([H])[H])(C([H])([H])[H])C([H])([H])[H])C([H])([H])c2c([H])c(OC([H])([H])C([H])([H])[N+]3([H])C([H])([H])C([H])([H])C3([H])C(=O)N([H])C3([H])C([H])([H])N(C(=O)N4C([H])([H])C([H])([H])C([H])([H])C([H])(n5nc(-c6c([H])c([H])c(Oc7c([H])c([H])c(F)c([H])c7F)c([H])c6[H])c(C(=O)N([H])[H])c5N([H])[H])C4([H])[H])C([H])([H])C3([H])F)c([H])c([H])c2C1([H])[H]

$$$$
35:0:0
     RDKit          3D

 94102  0  0  1  0  0  0  0  0999 V2000
  -29.5550  -21.3150   21.1180 N   0  0  0  0  0  4  0  0  0  0  0  0
  -29.1430  -21.0880   20.2270 H   0  0  0  0  0  0  0  0  0  0  0  0
  -30.5240  -21.5530   20.9710 H   0  0  0  0  0  0  0  0  0  0  0  0
  -29.5510  -20.1100   21.9760 C   0  0  0  0  0  2  0  0  0  0  0  0
  -32.3620  -17.1030   20.5630 C   0  0  0  0  0  3  0  0  0  0  0  0
  -32.7720  -18.4370   20.7430 C   0  0  0  0  0  3  0  0  0  0  0  0
  -30.1050  -17.7040   21.2750 C   0  0  0  0  0  3  0  0  0  0  0  0
  -30.5150  -19.0460   21.4600 C   0  0  0  0  0  0  0  0  0  0  0  0
  -31.0200  -16.7290   20.8100 C   0  0  0  0  0  0  0  0  0  0  0  0
  -31.8530  -19.4030   21.1870 C   0  0  0  0  0  0  0  0  0  0  0  0
  -32.2460  -20.6910   21.3370 F   0  0  0  0  0  0  0  0  0  0  0  0
  -31.1070  -14.4210   19.8820 C   0  0  0  0  0  0  0  0  0  0  0  0
  -30.7340  -12.1970   18.8760 C   0  0  0  0  0  2  0  0  0  0  0  0
  -29.7360  -12.2940   17.7060 C   0  0  0  0  0  2  0  0  0  0  0  0
  -28.2860  -12.1880   18.2140 C   0  0  0  0  0  2  0  0  0  0  0  0
  -28.0040  -13.1340   19.4100 C   0  0  0  0  0  3  0  0  0  0  0  0
  -29.1040  -13.0040   20.4860 C   0  0  0  0  0  2  0  0  0  0  0  0
  -30.4070  -13.2560   19.8430 N   0  0  0  0  0  0  0  0  0  0  0  0
  -32.1350  -14.6000   19.2210 O   0  0  0  0  0  0  0  0  0  0  0  0
  -30.5700  -15.3860   20.6510 N   0  0  0  0  0  0  0  0  0  0  0  0
  -29.6820  -15.1530   21.0680 H   0  0  0  0  0  0  0  0  0  0  0  0
  -25.6720  -13.8190   20.2630 C   0  0  0  0  0  0  0  0  0  0  0  0
  -24.6050  -13.0800   20.6960 C   0  0  0  0  0  0  0  0  0  0  0  0
  -25.0190  -11.7150   20.6350 C   0  0  0  0  0  0  0  0  0  0  0  0
  -26.6730  -12.9050   19.9680 N   0  0  0  0  0  0  0  0  0  0  0  0
  -26.2840  -11.6340   20.2450 N   0  0  0  0  0  0  0  0  0  0  0  0
  -24.2660  -10.4760   20.8690 C   0  0  0  0  0  0  0  0  0  0  0  0
  -24.6200   -9.5800   21.9020 C   0  0  0  0  0  3  0  0  0  0  0  0
  -23.8690   -8.4050   22.1190 C   0  0  0  0  0  3  0  0  0  0  0  0
  -22.7500   -8.1160   21.3010 C   0  0  0  0  0  0  0  0  0  0  0  0
  -22.4160   -9.0000   20.2600 C   0  0  0  0  0  3  0  0  0  0  0  0
  -23.1670  -10.1670   20.0420 C   0  0  0  0  0  3  0  0  0  0  0  0
  -21.9780   -6.9860   21.4220 O   0  0  0  0  0  0  0  0  0  0  0  0
  -21.7150   -6.4210   22.6440 C   0  0  0  0  0  0  0  0  0  0  0  0
  -21.0500   -7.1330   23.6670 C   0  0  0  0  0  3  0  0  0  0  0  0
  -20.7390   -6.4910   24.8820 C   0  0  0  0  0  3  0  0  0  0  0  0
  -21.0810   -5.1400   25.0740 C   0  0  0  0  0  0  0  0  0  0  0  0
  -21.7380   -4.4280   24.0550 C   0  0  0  0  0  3  0  0  0  0  0  0
  -22.0510   -5.0670   22.8420 C   0  0  0  0  0  0  0  0  0  0  0  0
  -22.6660   -4.3710   21.8550 F   0  0  0  0  0  0  0  0  0  0  0  0
  -20.7740   -4.5200   26.2380 F   0  0  0  0  0  0  0  0  0  0  0  0
  -23.2430  -13.6010   21.0580 C   0  0  0  0  0  0  0  0  0  0  0  0
  -22.5480  -12.9220   21.9630 N   0  0  0  0  0  0  0  0  0  0  0  0
  -22.8090  -14.6450   20.5730 O   0  0  0  0  0  0  0  0  0  0  0  0
  -22.9130  -12.0760   22.3740 H   0  0  0  0  0  0  0  0  0  0  0  0
  -21.6370  -13.2520   22.2470 H   0  0  0  0  0  0  0  0  0  0  0  0
  -25.8710  -15.1840   20.0770 N   0  0  0  0  0  0  0  0  0  0  0  0
  -25.1310  -15.8620   20.2260 H   0  0  0  0  0  0  0  0  0  0  0  0
  -26.7120  -15.5930   19.6890 H   0  0  0  0  0  0  0  0  0  0  0  0
  -28.8760  -22.4980   21.6910 C   0  0  0  0  0  2  0  0  0  0  0  0
  -29.1390  -23.7310   20.8390 C   0  0  0  0  0  3  0  0  0  0  0  0
  -28.1960  -24.4950   20.2580 C   0  0  0  0  0  3  0  0  0  0  0  0
  -28.4960  -25.7070   19.3900 C   0  0  0  0  0  2  0  0  0  0  0  0
  -28.3600  -26.9330   20.1070 O   0  0  0  0  0  0  0  0  0  0  0  0
  -24.6280  -31.9900   23.3910 C   0  0  0  0  0  0  0  0  0  0  0  0
  -27.1560  -27.6040   20.1410 C   0  0  0  0  0  0  0  0  0  0  0  0
  -23.3680  -30.6440   21.7400 C   0  0  0  0  0  3  0  0  0  0  0  0
  -24.7700  -29.1200   20.2510 C   0  0  0  0  0  0  0  0  0  0  0  0
  -25.8920  -30.9770   21.4980 C   0  0  0  0  0  2  0  0  0  0  0  0
  -25.9430  -29.6220   20.8260 C   0  0  0  0  0  0  0  0  0  0  0  0
  -27.1340  -28.8670   20.7720 C   0  0  0  0  0  3  0  0  0  0  0  0
  -25.9580  -27.1060   19.5750 C   0  0  0  0  0  3  0  0  0  0  0  0
  -24.7700  -27.8600   19.6300 C   0  0  0  0  0  3  0  0  0  0  0  0
  -23.5380  -29.9910   20.3420 C   0  0  0  0  0  2  0  0  0  0  0  0
  -24.6490  -31.2180   22.2680 N   0  0  0  0  0  0  0  0  0  0  0  0
  -23.5620  -32.2640   23.9590 O   0  0  0  0  0  0  0  0  0  0  0  0
  -22.7260  -29.6090   22.6890 C   0  0  0  0  0  0  0  0  0  0  0  0
  -21.4140  -29.3780   22.5180 N   0  0  0  0  0  0  0  0  0  0  0  0
  -23.4040  -29.0150   23.5320 O   0  0  0  0  0  0  0  0  0  0  0  0
  -20.9300  -29.9100   21.8080 H   0  0  0  0  0  0  0  0  0  0  0  0
  -18.0990  -27.9750   22.8170 C   0  0  0  0  0  0  0  0  0  0  0  0
  -20.6050  -28.4180   23.2670 C   0  0  0  0  0  3  0  0  0  0  0  0
  -20.8460  -26.9760   22.7650 C   0  0  0  0  0  2  0  0  0  0  0  0
  -19.8500  -26.5370   21.6880 C   0  0  0  0  0  2  0  0  0  0  0  0
  -18.4160  -26.6140   22.2200 C   0  0  0  0  0  2  0  0  0  0  0  0
  -19.1290  -28.8280   23.2950 C   0  0  0  0  0  0  0  0  0  0  0  0
  -18.7830  -30.0960   23.8090 C   0  0  0  0  0  3  0  0  0  0  0  0
  -17.4410  -30.5150   23.8490 C   0  0  0  0  0  3  0  0  0  0  0  0
  -16.4230  -29.6600   23.3900 C   0  0  0  0  0  3  0  0  0  0  0  0
  -16.7530  -28.3920   22.8810 C   0  0  0  0  0  3  0  0  0  0  0  0
  -25.9360  -32.5850   24.0000 C   0  0  0  0  0  3  0  0  0  0  0  0
  -25.6750  -33.9960   24.3110 N   0  0  0  0  0  0  0  0  0  0  0  0
  -26.0260  -35.0250   23.5290 C   0  0  0  0  0  0  0  0  0  0  0  0
  -26.6770  -34.8830   22.4890 O   0  0  0  0  0  0  0  0  0  0  0  0
  -25.0880  -34.1810   25.1110 H   0  0  0  0  0  0  0  0  0  0  0  0
  -24.3280  -36.8490   23.1920 C   0  0  0  0  0  1  0  0  0  0  0  0
  -25.5890  -36.4340   23.9690 C   0  0  0  0  0  3  0  0  0  0  0  0
  -27.7660  -37.2920   24.7100 C   0  0  0  0  0  1  0  0  0  0  0  0
  -26.6420  -37.4570   23.7920 N   0  0  0  0  0  0  0  0  0  0  0  0
  -26.2630  -38.3920   23.9180 H   0  0  0  0  0  0  0  0  0  0  0  0
  -26.4330  -31.8130   25.2830 C   0  0  1  0  0  0  0  0  0  0  0  0
  -25.3300  -31.5930   26.3430 C   0  0  0  0  0  1  0  0  0  0  0  0
  -27.0050  -30.4280   24.9000 C   0  0  0  0  0  1  0  0  0  0  0  0
  -27.5850  -32.5990   25.9530 C   0  0  0  0  0  1  0  0  0  0  0  0
  1 50  1  0
  1  4  1  0
  2  1  1  0
  3  1  1  0
  5  6  2  0
  5  9  1  0
  6 10  1  0
  7  8  1  0
  8  4  1  0
  9  7  2  0
 10 11  1  0
 10  8  2  0
 12 20  1  0
 13 18  1  0
 14 15  1  0
 14 13  1  0
 16 15  1  0
 16 25  1  0
 16 17  1  0
 18 12  1  0
 18 17  1  0
 19 12  2  0
 20  9  1  0
 20 21  1  0
 22 23  2  0
 23 42  1  0
 24 23  1  0
 24 27  1  0
 25 26  1  0
 25 22  1  0
 26 24  2  0
 27 28  1  0
 28 29  2  0
 30 33  1  0
 30 29  1  0
 31 30  2  0
 32 31  1  0
 32 27  2  0
 33 34  1  0
 34 39  2  0
 34 35  1  0
 35 36  2  0
 36 37  1  0
 37 41  1  0
 38 37  2  0
 39 38  1  0
 40 39  1  0
 42 43  1  0
 43 46  1  0
 43 45  1  0
 44 42  2  0
 47 48  1  0
 47 22  1  0
 49 47  1  0
 51 50  1  0
 52 51  2  0
 53 54  1  0
 53 52  1  0
 54 56  1  0
 55 66  2  0
 56 61  1  0
 57 65  1  0
 57 67  1  0
 58 64  1  0
 58 60  1  0
 59 65  1  0
 60 59  1  0
 61 60  2  0
 62 63  1  0
 62 56  2  0
 63 58  2  0
 64 57  1  0
 65 55  1  0
 67 69  2  0
 68 67  1  0
 70 68  1  0
 71 80  2  0
 71 76  1  0
 72 68  1  0
 72 76  1  0
 73 72  1  0
 74 75  1  0
 74 73  1  0
 75 71  1  0
 76 77  2  0
 77 78  1  0
 79 78  2  0
 80 79  1  0
 81 55  1  0
 81 82  1  0
 81 91  1  0
 82 85  1  0
 83 87  1  0
 83 82  1  0
 84 83  2  0
 87 86  1  0
 89 90  1  0
 89 87  1  0
 89 88  1  0
 91 94  1  1
 91 92  1  0
 93 91  1  0
M  ISO  4  12 100  20 100  53 101  54 101
M  END
>  <TORSDO>  (35) 
F 21

>  <SCORE>  (35) 
-12.186

>  <name>  (35) 
35

>  <ligand_id>  (35) 
35

>  <original_smiles>  (35) 
[H]C(=C([H])C([H])([H])[N+]([H])([H])C([H])([H])c1c([H])c(N([H])C(=O)N2C([H])([H])C([H])([H])C([H])([H])C([H])(n3nc(-c4c([H])c([H])c(Oc5c([H])c([H])c(F)c([H])c5F)c([H])c4[H])c(C(=O)N([H])[H])c3N([H])[H])C2([H])[H])c([H])c([H])c1F)C([H])([H])Oc1c([H])c([H])c2c(c1[H])C([H])([H])N(C(=O)C([H])(N([H])C(=O)C([H])(N([H])C([H])([H])[H])C([H])([H])[H])C(C([H])([H])[H])(C([H])([H])[H])C([H])([H])[H])C([H])(C(=O)N([H])C1([H])c3c([H])c([H])c([H])c([H])c3C([H])([H])C([H])([H])C1([H])[H])C2([H])[H]

>  <smiles>  (35) 
[H]C(=C([H])C([H])([H])[N+]([H])([H])C([H])([H])c1c([H])c(N([H])C(=O)N2C([H])([H])C([H])([H])C([H])([H])C([H])(n3nc(-c4c([H])c([H])c(Oc5c([H])c([H])c(F)c([H])c5F)c([H])c4[H])c(C(=O)N([H])[H])c3N([H])[H])C2([H])[H])c([H])c([H])c1F)C([H])([H])Oc1c([H])c([H])c2c(c1[H])C([H])([H])N(C(=O)C([H])(N([H])C(=O)C([H])(N([H])C([H])([H])[H])C([H])([H])[H])C(C([H])([H])[H])(C([H])([H])[H])C([H])([H])[H])C([H])(C(=O)N([H])C1([H])c3c([H])c([H])c([H])c([H])c3C([H])([H])C([H])([H])C1([H])[H])C2([H])[H]

$$$$
36:0:0
     RDKit          3D

 92100  0  0  1  0  0  0  0  0999 V2000
  -28.5450  -20.8860   20.2340 C   0  0  0  0  0  2  0  0  0  0  0  0
  -31.5170  -17.7490   20.8560 C   0  0  0  0  0  2  0  0  0  0  0  0
  -29.2410  -18.3590   20.5100 C   0  0  0  0  0  3  0  0  0  0  0  0
  -30.1490  -17.3210   20.6260 C   0  0  0  0  0  0  0  0  0  0  0  0
  -31.9010  -19.0760   20.7500 C   0  0  0  0  0  0  0  0  0  0  0  0
  -30.9040  -20.1220   20.3880 C   0  0  0  0  0  0  0  0  0  0  0  0
  -29.5840  -19.7760   20.4820 N   0  0  0  0  0  0  0  0  0  0  0  0
  -33.0730  -19.4840   20.9410 O   0  0  0  0  0  0  0  0  0  0  0  0
  -31.2450  -21.2480   20.0020 O   0  0  0  0  0  0  0  0  0  0  0  0
  -30.5880  -14.7570   20.3610 C   0  0  0  0  0  0  0  0  0  0  0  0
  -30.3710  -12.4850   19.3340 C   0  0  0  0  0  2  0  0  0  0  0  0
  -29.4220  -12.5450   18.1180 C   0  0  0  0  0  2  0  0  0  0  0  0
  -27.9620  -12.3700   18.5700 C   0  0  0  0  0  2  0  0  0  0  0  0
  -27.5960  -13.2690   19.7800 C   0  0  0  0  0  3  0  0  0  0  0  0
  -28.6590  -13.1880   20.8950 C   0  0  0  0  0  2  0  0  0  0  0  0
  -29.9480  -13.5400   20.2850 N   0  0  0  0  0  0  0  0  0  0  0  0
  -31.7790  -14.8160   20.0350 O   0  0  0  0  0  0  0  0  0  0  0  0
  -29.8110  -15.8990   20.5800 N   0  0  0  0  0  0  0  0  0  0  0  0
  -28.8270  -15.6960   20.6730 H   0  0  0  0  0  0  0  0  0  0  0  0
  -25.2120  -13.8520   20.5200 C   0  0  0  0  0  0  0  0  0  0  0  0
  -24.1510  -13.0750   20.8930 C   0  0  0  0  0  0  0  0  0  0  0  0
  -24.6190  -11.7260   20.8620 C   0  0  0  0  0  0  0  0  0  0  0  0
  -26.2590  -12.9780   20.2760 N   0  0  0  0  0  0  0  0  0  0  0  0
  -25.9090  -11.6930   20.5460 N   0  0  0  0  0  0  0  0  0  0  0  0
  -23.9020  -10.4610   21.0510 C   0  0  0  0  0  0  0  0  0  0  0  0
  -24.3430   -9.4900   21.9760 C   0  0  0  0  0  3  0  0  0  0  0  0
  -23.6220   -8.2870   22.1510 C   0  0  0  0  0  3  0  0  0  0  0  0
  -22.4440   -8.0500   21.4050 C   0  0  0  0  0  0  0  0  0  0  0  0
  -22.0240   -9.0100   20.4680 C   0  0  0  0  0  3  0  0  0  0  0  0
  -22.7450  -10.2030   20.2890 C   0  0  0  0  0  3  0  0  0  0  0  0
  -21.6950   -6.9010   21.4960 O   0  0  0  0  0  0  0  0  0  0  0  0
  -21.6630   -6.1560   22.6470 C   0  0  0  0  0  0  0  0  0  0  0  0
  -21.2460   -6.7020   23.8810 C   0  0  0  0  0  3  0  0  0  0  0  0
  -21.1560   -5.8800   25.0210 C   0  0  0  0  0  3  0  0  0  0  0  0
  -21.4750   -4.5120   24.9310 C   0  0  0  0  0  0  0  0  0  0  0  0
  -21.8890   -3.9650   23.7030 C   0  0  0  0  0  3  0  0  0  0  0  0
  -21.9810   -4.7860   22.5650 C   0  0  0  0  0  0  0  0  0  0  0  0
  -22.3580   -4.2490   21.3790 F   0  0  0  0  0  0  0  0  0  0  0  0
  -21.3840   -3.7200   26.0240 F   0  0  0  0  0  0  0  0  0  0  0  0
  -22.7550  -13.5450   21.1700 C   0  0  0  0  0  0  0  0  0  0  0  0
  -22.0330  -12.8430   22.0370 N   0  0  0  0  0  0  0  0  0  0  0  0
  -22.3110  -14.5710   20.6520 O   0  0  0  0  0  0  0  0  0  0  0  0
  -22.4020  -12.0150   22.4760 H   0  0  0  0  0  0  0  0  0  0  0  0
  -21.0960  -13.1400   22.2650 H   0  0  0  0  0  0  0  0  0  0  0  0
  -25.3690  -15.2240   20.3390 N   0  0  0  0  0  0  0  0  0  0  0  0
  -24.5950  -15.8690   20.4540 H   0  0  0  0  0  0  0  0  0  0  0  0
  -26.1920  -15.6700   19.9530 H   0  0  0  0  0  0  0  0  0  0  0  0
  -28.6360  -22.3440   20.9700 C   0  0  0  0  0  3  0  0  0  0  0  0
  -27.9860  -22.2170   22.1320 F   0  0  0  0  0  0  0  0  0  0  0  0
  -28.0880  -23.6930   20.2510 C   0  0  0  0  0  2  0  0  0  0  0  0
  -28.3140  -25.1340   20.9480 C   0  0  0  0  0  2  0  0  0  0  0  0
  -28.3400  -26.4440   20.2260 O   0  0  0  0  0  0  0  0  0  0  0  0
  -24.6120  -31.8860   23.2270 C   0  0  0  0  0  0  0  0  0  0  0  0
  -27.2250  -27.2940   20.2360 C   0  0  0  0  0  0  0  0  0  0  0  0
  -23.4150  -30.4800   21.5860 C   0  0  0  0  0  3  0  0  0  0  0  0
  -24.8740  -28.9180   20.1780 C   0  0  0  0  0  0  0  0  0  0  0  0
  -25.9550  -30.7960   21.4130 C   0  0  0  0  0  2  0  0  0  0  0  0
  -26.0400  -29.4120   20.7770 C   0  0  0  0  0  0  0  0  0  0  0  0
  -27.2240  -28.6130   20.7900 C   0  0  0  0  0  3  0  0  0  0  0  0
  -26.0440  -26.8460   19.6180 C   0  0  0  0  0  3  0  0  0  0  0  0
  -24.8780  -27.6410   19.5880 C   0  0  0  0  0  3  0  0  0  0  0  0
  -23.6390  -29.7970   20.2100 C   0  0  0  0  0  2  0  0  0  0  0  0
  -24.6790  -31.0740   22.1330 N   0  0  0  0  0  0  0  0  0  0  0  0
  -23.5270  -32.1620   23.7600 O   0  0  0  0  0  0  0  0  0  0  0  0
  -22.7530  -29.4670   22.5500 C   0  0  0  0  0  0  0  0  0  0  0  0
  -21.4270  -29.2860   22.4200 N   0  0  0  0  0  0  0  0  0  0  0  0
  -23.4310  -28.8440   23.3720 O   0  0  0  0  0  0  0  0  0  0  0  0
  -20.9390  -29.8390   21.7290 H   0  0  0  0  0  0  0  0  0  0  0  0
  -18.0530  -28.0880   22.9280 C   0  0  0  0  0  0  0  0  0  0  0  0
  -20.6100  -28.3510   23.1950 C   0  0  0  0  0  3  0  0  0  0  0  0
  -20.7130  -26.9180   22.6230 C   0  0  0  0  0  2  0  0  0  0  0  0
  -19.6120  -26.5910   21.6100 C   0  0  0  0  0  2  0  0  0  0  0  0
  -18.2300  -26.7360   22.2550 C   0  0  0  0  0  2  0  0  0  0  0  0
  -19.1700  -28.8520   23.3550 C   0  0  0  0  0  0  0  0  0  0  0  0
  -18.9500  -30.1150   23.9470 C   0  0  0  0  0  3  0  0  0  0  0  0
  -17.6450  -30.6160   24.1090 C   0  0  0  0  0  3  0  0  0  0  0  0
  -16.5420  -29.8510   23.6950 C   0  0  0  0  0  3  0  0  0  0  0  0
  -16.7460  -28.5870   23.1130 C   0  0  0  0  0  3  0  0  0  0  0  0
  -25.8920  -32.5260   23.8490 C   0  0  0  0  0  3  0  0  0  0  0  0
  -26.4090  -31.7620   25.1300 C   0  0  1  0  0  0  0  0  0  0  0  0
  -25.3140  -31.5280   26.1970 C   0  0  0  0  0  1  0  0  0  0  0  0
  -26.9970  -30.3820   24.7500 C   0  0  0  0  0  1  0  0  0  0  0  0
  -27.5550  -32.5650   25.7900 C   0  0  0  0  0  1  0  0  0  0  0  0
  -25.5760  -33.9230   24.1720 N   0  0  0  0  0  0  0  0  0  0  0  0
  -25.9090  -34.9770   23.4140 C   0  0  0  0  0  0  0  0  0  0  0  0
  -26.5810  -34.8740   22.3840 O   0  0  0  0  0  0  0  0  0  0  0  0
  -24.9760  -34.0760   24.9700 H   0  0  0  0  0  0  0  0  0  0  0  0
  -24.1790  -36.7690   23.0490 C   0  0  0  0  0  1  0  0  0  0  0  0
  -25.4160  -36.3650   23.8670 C   0  0  0  0  0  3  0  0  0  0  0  0
  -27.5460  -37.2530   24.7100 C   0  0  0  0  0  1  0  0  0  0  0  0
  -26.4470  -37.4200   23.7620 N   0  0  0  0  0  0  0  0  0  0  0  0
  -26.0390  -38.3390   23.9090 H   0  0  0  0  0  0  0  0  0  0  0  0
  1  7  1  0
  1 48  1  0
  3  4  2  0
  4  2  1  0
  5  2  1  0
  5  8  2  0
  6  7  1  0
  6  5  1  0
  7  3  1  0
  9  6  2  0
 10 18  1  0
 11 16  1  0
 12 13  1  0
 12 11  1  0
 14 13  1  0
 14 23  1  0
 14 15  1  0
 16 10  1  0
 16 15  1  0
 17 10  2  0
 18  4  1  0
 18 19  1  0
 20 21  2  0
 21 40  1  0
 22 21  1  0
 22 25  1  0
 23 20  1  0
 23 24  1  0
 24 22  2  0
 25 26  1  0
 26 27  2  0
 28 31  1  0
 28 27  1  0
 29 28  2  0
 30 29  1  0
 30 25  2  0
 31 32  1  0
 32 33  1  0
 33 34  2  0
 35 34  1  0
 35 39  1  0
 36 35  2  0
 37 32  2  0
 37 36  1  0
 38 37  1  0
 40 41  1  0
 41 44  1  0
 41 43  1  0
 42 40  2  0
 45 46  1  0
 45 20  1  0
 47 45  1  0
 48 49  1  0
 50 51  1  0
 50 48  1  0
 52 54  1  0
 52 51  1  0
 53 64  2  0
 54 59  1  0
 55 63  1  0
 55 65  1  0
 56 62  1  0
 56 58  1  0
 57 63  1  0
 58 59  2  0
 58 57  1  0
 60 54  2  0
 61 60  1  0
 61 56  2  0
 62 55  1  0
 63 53  1  0
 65 67  2  0
 66 65  1  0
 68 66  1  0
 69 78  2  0
 69 74  1  0
 70 66  1  0
 70 74  1  0
 71 70  1  0
 72 73  1  0
 72 71  1  0
 73 69  1  0
 74 75  2  0
 75 76  1  0
 77 76  2  0
 78 77  1  0
 79 53  1  0
 79 84  1  0
 79 80  1  0
 80 83  1  1
 80 81  1  0
 82 80  1  0
 84 87  1  0
 85 89  1  0
 85 84  1  0
 86 85  2  0
 89 88  1  0
 91 89  1  0
 91 92  1  0
 91 90  1  0
M  ISO  4  10 100  18 100  51 101  52 101
M  END
>  <TORSDO>  (36) 
F 20

>  <SCORE>  (36) 
-14.248

>  <name>  (36) 
36

>  <ligand_id>  (36) 
36

>  <original_smiles>  (36) 
[H]c1c([H])c([H])c2c(c1[H])C([H])([H])C([H])([H])C([H])([H])C2([H])N([H])C(=O)C1([H])N(C(=O)C([H])(N([H])C(=O)C([H])(N([H])C([H])([H])[H])C([H])([H])[H])C(C([H])([H])[H])(C([H])([H])[H])C([H])([H])[H])C([H])([H])c2c([H])c(OC([H])([H])C([H])([H])C([H])(F)C([H])([H])n3c([H])c(N([H])C(=O)N4C([H])([H])C([H])([H])C([H])([H])C([H])(n5nc(-c6c([H])c([H])c(Oc7c([H])c([H])c(F)c([H])c7F)c([H])c6[H])c(C(=O)N([H])[H])c5N([H])[H])C4([H])[H])c([H])c([O-])c3=O)c([H])c([H])c2C1([H])[H]

>  <smiles>  (36) 
[H]c1c([H])c([H])c2c(c1[H])C([H])([H])C([H])([H])C([H])([H])C2([H])N([H])C(=O)C1([H])N(C(=O)C([H])(N([H])C(=O)C([H])(N([H])C([H])([H])[H])C([H])([H])[H])C(C([H])([H])[H])(C([H])([H])[H])C([H])([H])[H])C([H])([H])c2c([H])c(OC([H])([H])C([H])([H])C([H])(F)C([H])([H])n3c([H])c(N([H])C(=O)N4C([H])([H])C([H])([H])C([H])([H])C([H])(n5nc(-c6c([H])c([H])c(Oc7c([H])c([H])c(F)c([H])c7F)c([H])c6[H])c(C(=O)N([H])[H])c5N([H])[H])C4([H])[H])c([H])c([O-])c3=O)c([H])c([H])c2C1([H])[H]

$$$$
37:0:0
     RDKit          3D

 92101  0  0  1  0  0  0  0  0999 V2000
  -28.1720  -19.2230   21.1060 C   0  0  0  0  0  2  0  0  0  0  0  0
  -30.6700  -18.3640   21.2930 C   0  0  0  0  0  2  0  0  0  0  0  0
  -28.7590  -20.6620   20.9640 C   0  0  0  0  0  2  0  0  0  0  0  0
  -30.3830  -19.9840   19.1440 C   0  0  0  0  0  2  0  0  0  0  0  0
  -29.1740  -18.0400   21.1430 C   0  0  0  0  0  3  0  0  0  0  0  0
  -30.6460  -18.5040   19.7700 C   0  0  0  0  0  3  0  0  0  0  0  0
  -29.5920  -17.3120   19.8230 C   0  0  0  0  0  3  0  0  0  0  0  0
  -29.2710  -20.9510   19.6010 N   0  0  2  0  0  4  0  0  0  0  0  0
  -28.4850  -20.7140   19.0140 H   0  0  0  0  0  0  0  0  0  0  0  0
  -30.7560  -14.8130   19.7040 C   0  0  0  0  0  0  0  0  0  0  0  0
  -30.5590  -12.5130   18.7350 C   0  0  0  0  0  2  0  0  0  0  0  0
  -29.5060  -12.5680   17.6020 C   0  0  0  0  0  2  0  0  0  0  0  0
  -28.0810  -12.3870   18.1610 C   0  0  0  0  0  2  0  0  0  0  0  0
  -27.8140  -13.2750   19.4050 C   0  0  0  0  0  3  0  0  0  0  0  0
  -28.9680  -13.1670   20.4270 C   0  0  0  0  0  2  0  0  0  0  0  0
  -30.2100  -13.5480   19.7350 N   0  0  0  0  0  0  0  0  0  0  0  0
  -31.8480  -15.0100   19.1600 O   0  0  0  0  0  0  0  0  0  0  0  0
  -29.9300  -15.8360   20.1430 N   0  0  0  0  0  0  0  0  0  0  0  0
  -29.1720  -15.4150   20.6600 H   0  0  0  0  0  0  0  0  0  0  0  0
  -25.5220  -13.8780   20.3940 C   0  0  0  0  0  0  0  0  0  0  0  0
  -24.4810  -13.1060   20.8330 C   0  0  0  0  0  0  0  0  0  0  0  0
  -24.9060  -11.7510   20.6890 C   0  0  0  0  0  0  0  0  0  0  0  0
  -26.5160  -12.9910   20.0100 N   0  0  0  0  0  0  0  0  0  0  0  0
  -26.1570  -11.7040   20.2470 N   0  0  0  0  0  0  0  0  0  0  0  0
  -24.1730  -10.4940   20.8900 C   0  0  0  0  0  0  0  0  0  0  0  0
  -24.6180   -9.5200   21.8110 C   0  0  0  0  0  3  0  0  0  0  0  0
  -23.8850   -8.3270   22.0010 C   0  0  0  0  0  3  0  0  0  0  0  0
  -22.6940   -8.1020   21.2700 C   0  0  0  0  0  0  0  0  0  0  0  0
  -22.2690   -9.0640   20.3390 C   0  0  0  0  0  3  0  0  0  0  0  0
  -23.0020  -10.2480   20.1460 C   0  0  0  0  0  3  0  0  0  0  0  0
  -21.9330   -6.9630   21.3710 O   0  0  0  0  0  0  0  0  0  0  0  0
  -21.8220   -6.2710   22.5510 C   0  0  0  0  0  0  0  0  0  0  0  0
  -21.2990   -6.8700   23.7180 C   0  0  0  0  0  3  0  0  0  0  0  0
  -21.1390   -6.1040   24.8910 C   0  0  0  0  0  3  0  0  0  0  0  0
  -21.4910   -4.7400   24.8960 C   0  0  0  0  0  0  0  0  0  0  0  0
  -22.0070   -4.1420   23.7320 C   0  0  0  0  0  3  0  0  0  0  0  0
  -22.1690   -4.9050   22.5620 C   0  0  0  0  0  0  0  0  0  0  0  0
  -22.6470   -4.3190   21.4380 F   0  0  0  0  0  0  0  0  0  0  0  0
  -21.3300   -4.0030   26.0180 F   0  0  0  0  0  0  0  0  0  0  0  0
  -23.1300  -13.5950   21.2710 C   0  0  0  0  0  0  0  0  0  0  0  0
  -22.4790  -12.8690   22.1740 N   0  0  0  0  0  0  0  0  0  0  0  0
  -22.6650  -14.6520   20.8490 O   0  0  0  0  0  0  0  0  0  0  0  0
  -22.8700  -12.0120   22.5370 H   0  0  0  0  0  0  0  0  0  0  0  0
  -21.5770  -13.1780   22.5090 H   0  0  0  0  0  0  0  0  0  0  0  0
  -25.6990  -15.2520   20.2680 N   0  0  0  0  0  0  0  0  0  0  0  0
  -24.9580  -15.9110   20.4830 H   0  0  0  0  0  0  0  0  0  0  0  0
  -26.5110  -15.6930   19.8560 H   0  0  0  0  0  0  0  0  0  0  0  0
  -29.5230  -22.4510   19.2650 C   0  0  0  0  0  2  0  0  0  0  0  0
  -28.5620  -23.6790   19.7590 C   0  0  0  0  0  3  0  0  0  0  0  0
  -27.2920  -23.2920   19.6190 F   0  0  0  0  0  0  0  0  0  0  0  0
  -28.6940  -25.1380   19.0410 C   0  0  0  0  0  2  0  0  0  0  0  0
  -28.5310  -26.4800   19.7020 O   0  0  0  0  0  0  0  0  0  0  0  0
  -24.7010  -31.6260   23.0430 C   0  0  0  0  0  0  0  0  0  0  0  0
  -27.3760  -27.2940   19.6730 C   0  0  0  0  0  0  0  0  0  0  0  0
  -23.5060  -30.3010   21.3350 C   0  0  0  0  0  3  0  0  0  0  0  0
  -24.9710  -28.8670   19.7910 C   0  0  0  0  0  0  0  0  0  0  0  0
  -26.0350  -30.6820   21.1380 C   0  0  0  0  0  2  0  0  0  0  0  0
  -26.1350  -29.3440   20.4040 C   0  0  0  0  0  0  0  0  0  0  0  0
  -27.3340  -28.5670   20.3360 C   0  0  0  0  0  3  0  0  0  0  0  0
  -26.1830  -26.8740   19.0430 C   0  0  0  0  0  3  0  0  0  0  0  0
  -24.9990  -27.6420   19.1030 C   0  0  0  0  0  3  0  0  0  0  0  0
  -23.7150  -29.7120   19.9140 C   0  0  0  0  0  2  0  0  0  0  0  0
  -24.7670  -30.8860   21.8960 N   0  0  0  0  0  0  0  0  0  0  0  0
  -23.6210  -31.8450   23.6090 O   0  0  0  0  0  0  0  0  0  0  0  0
  -22.8780  -29.2170   22.2430 C   0  0  0  0  0  0  0  0  0  0  0  0
  -21.5520  -29.0250   22.1320 N   0  0  0  0  0  0  0  0  0  0  0  0
  -23.5820  -28.5530   23.0080 O   0  0  0  0  0  0  0  0  0  0  0  0
  -21.0410  -29.6150   21.4900 H   0  0  0  0  0  0  0  0  0  0  0  0
  -18.2050  -27.7460   22.6300 C   0  0  0  0  0  0  0  0  0  0  0  0
  -20.7660  -28.0240   22.8540 C   0  0  0  0  0  3  0  0  0  0  0  0
  -20.8720  -26.6380   22.1780 C   0  0  0  0  0  2  0  0  0  0  0  0
  -19.7490  -26.3700   21.1710 C   0  0  0  0  0  2  0  0  0  0  0  0
  -18.3820  -26.4490   21.8570 C   0  0  0  0  0  2  0  0  0  0  0  0
  -19.3240  -28.4930   23.0840 C   0  0  0  0  0  0  0  0  0  0  0  0
  -19.1020  -29.7070   23.7690 C   0  0  0  0  0  3  0  0  0  0  0  0
  -17.7950  -30.1750   24.0030 C   0  0  0  0  0  3  0  0  0  0  0  0
  -16.6910  -29.4240   23.5630 C   0  0  0  0  0  3  0  0  0  0  0  0
  -16.8970  -28.2110   22.8830 C   0  0  0  0  0  3  0  0  0  0  0  0
  -25.9780  -32.2500   23.6870 C   0  0  0  0  0  3  0  0  0  0  0  0
  -26.5150  -31.4290   24.9240 C   0  0  1  0  0  0  0  0  0  0  0  0
  -25.4340  -31.1270   25.9880 C   0  0  0  0  0  1  0  0  0  0  0  0
  -27.1140  -30.0780   24.4670 C   0  0  0  0  0  1  0  0  0  0  0  0
  -27.6610  -32.2070   25.6140 C   0  0  0  0  0  1  0  0  0  0  0  0
  -25.6480  -33.6250   24.0880 N   0  0  0  0  0  0  0  0  0  0  0  0
  -25.9610  -34.7210   23.3820 C   0  0  0  0  0  0  0  0  0  0  0  0
  -26.6250  -34.6790   22.3440 O   0  0  0  0  0  0  0  0  0  0  0  0
  -25.0570  -33.7300   24.8990 H   0  0  0  0  0  0  0  0  0  0  0  0
  -24.1990  -36.5010   23.1380 C   0  0  0  0  0  1  0  0  0  0  0  0
  -25.4570  -36.0780   23.9130 C   0  0  0  0  0  3  0  0  0  0  0  0
  -27.5830  -36.9630   24.7660 C   0  0  0  0  0  1  0  0  0  0  0  0
  -26.4700  -37.1520   23.8390 N   0  0  0  0  0  0  0  0  0  0  0  0
  -26.0490  -38.0580   24.0300 H   0  0  0  0  0  0  0  0  0  0  0  0
  3  1  1  0
  4  8  1  0
  5  1  1  0
  5  2  1  0
  6  4  1  0
  6  7  1  0
  6  2  1  0
  7 18  1  0
  7  5  1  0
  8  3  1  0
  8  9  1  6
 10 16  1  0
 10 18  1  0
 11 16  1  0
 12 13  1  0
 12 11  1  0
 14 13  1  0
 14 23  1  0
 14 15  1  0
 16 15  1  0
 17 10  2  0
 18 19  1  0
 20 21  2  0
 21 40  1  0
 22 21  1  0
 22 25  1  0
 23 24  1  0
 23 20  1  0
 24 22  2  0
 25 26  1  0
 26 27  2  0
 28 31  1  0
 28 27  1  0
 29 28  2  0
 30 29  1  0
 30 25  2  0
 31 32  1  0
 32 37  2  0
 32 33  1  0
 33 34  2  0
 34 35  1  0
 35 39  1  0
 36 35  2  0
 37 36  1  0
 38 37  1  0
 40 41  1  0
 41 44  1  0
 41 43  1  0
 42 40  2  0
 45 20  1  0
 45 46  1  0
 47 45  1  0
 48  8  1  0
 48 49  1  0
 49 50  1  0
 51 52  1  0
 51 49  1  0
 53 64  2  0
 54 52  1  0
 54 59  1  0
 55 63  1  0
 55 65  1  0
 56 62  1  0
 56 58  1  0
 57 63  1  0
 58 57  1  0
 59 58  2  0
 60 61  1  0
 60 54  2  0
 61 56  2  0
 62 55  1  0
 63 53  1  0
 65 67  2  0
 66 65  1  0
 68 66  1  0
 69 78  2  0
 69 74  1  0
 70 66  1  0
 70 74  1  0
 71 70  1  0
 72 73  1  0
 72 71  1  0
 73 69  1  0
 74 75  2  0
 75 76  1  0
 77 76  2  0
 78 77  1  0
 79 53  1  0
 79 84  1  0
 79 80  1  0
 80 83  1  1
 80 81  1  0
 82 80  1  0
 84 87  1  0
 85 89  1  0
 85 84  1  0
 86 85  2  0
 89 88  1  0
 91 89  1  0
 91 92  1  0
 91 90  1  0
M  ISO  4  10 100  18 100  51 101  52 101
M  END
>  <TORSDO>  (37) 
F 19

>  <SCORE>  (37) 
-12.395

>  <name>  (37) 
37

>  <ligand_id>  (37) 
37

>  <original_smiles>  (37) 
[H]c1c([H])c([H])c2c(c1[H])C([H])([H])C([H])([H])C([H])([H])C2([H])N([H])C(=O)C1([H])N(C(=O)C([H])(N([H])C(=O)C([H])(N([H])C([H])([H])[H])C([H])([H])[H])C(C([H])([H])[H])(C([H])([H])[H])C([H])([H])[H])C([H])([H])c2c([H])c(OC([H])([H])C([H])(F)C([H])([H])[N+]3([H])C([H])([H])C([H])([H])C4([H])C([H])([H])C([H])(C4([H])N([H])C(=O)N4C([H])([H])C([H])([H])C([H])([H])C([H])(n5nc(-c6c([H])c([H])c(Oc7c([H])c([H])c(F)c([H])c7F)c([H])c6[H])c(C(=O)N([H])[H])c5N([H])[H])C4([H])[H])C3([H])[H])c([H])c([H])c2C1([H])[H]

>  <smiles>  (37) 
[H]c1c([H])c([H])c2c(c1[H])C([H])([H])C([H])([H])C([H])([H])C2([H])N([H])C(=O)C1([H])N(C(=O)C([H])(N([H])C(=O)C([H])(N([H])C([H])([H])[H])C([H])([H])[H])C(C([H])([H])[H])(C([H])([H])[H])C([H])([H])[H])C([H])([H])c2c([H])c(OC([H])([H])C([H])(F)C([H])([H])[N+]3([H])C([H])([H])C([H])([H])C4([H])C([H])([H])C([H])(C4([H])N([H])C(=O)N4C([H])([H])C([H])([H])C([H])([H])C([H])(n5nc(-c6c([H])c([H])c(Oc7c([H])c([H])c(F)c([H])c7F)c([H])c6[H])c(C(=O)N([H])[H])c5N([H])[H])C4([H])[H])C3([H])[H])c([H])c([H])c2C1([H])[H]

$$$$
38:0:0
     RDKit          3D

 97106  0  0  1  0  0  0  0  0999 V2000
  -28.8330  -22.3050   20.8300 C   0  0  0  0  0  3  0  0  0  0  0  0
  -30.5560  -23.9940   19.3960 C   0  0  0  0  0  3  0  0  0  0  0  0
  -30.1460  -21.8590   20.5420 C   0  0  0  0  0  0  0  0  0  0  0  0
  -29.2460  -24.4390   19.6860 C   0  0  0  0  0  0  0  0  0  0  0  0
  -31.0010  -22.7200   19.8160 C   0  0  0  0  0  0  0  0  0  0  0  0
  -28.3850  -23.5760   20.4000 C   0  0  0  0  0  0  0  0  0  0  0  0
  -32.2570  -22.3230   19.5110 F   0  0  0  0  0  0  0  0  0  0  0  0
  -27.1130  -23.9540   20.6670 F   0  0  0  0  0  0  0  0  0  0  0  0
  -30.6450  -20.4890   21.0400 C   0  0  0  0  0  2  0  0  0  0  0  0
  -29.7280  -16.8230   18.7990 C   0  0  0  0  0  2  0  0  0  0  0  0
  -30.4220  -17.9910   20.9660 C   0  0  0  0  0  2  0  0  0  0  0  0
  -30.2860  -19.2950   18.8740 C   0  0  0  0  0  2  0  0  0  0  0  0
  -29.5930  -16.8330   20.3420 C   0  0  0  0  0  3  0  0  0  0  0  0
  -29.4150  -18.2110   18.2200 C   0  0  0  0  0  3  0  0  0  0  0  0
  -30.0590  -19.3070   20.3420 N   0  0  2  0  0  4  0  0  0  0  0  0
  -28.1310  -18.5030   18.4430 F   0  0  0  0  0  0  0  0  0  0  0  0
  -29.0580  -19.3930   20.4420 H   0  0  0  0  0  0  0  0  0  0  0  0
  -30.6210  -14.5130   20.5950 C   0  0  0  0  0  0  0  0  0  0  0  0
  -30.4160  -12.3460   19.4510 C   0  0  0  0  0  2  0  0  0  0  0  0
  -29.4960  -12.5730   18.2310 C   0  0  0  0  0  2  0  0  0  0  0  0
  -28.0080  -12.4320   18.6170 C   0  0  0  0  0  2  0  0  0  0  0  0
  -27.6430  -13.2350   19.8930 C   0  0  0  0  0  3  0  0  0  0  0  0
  -28.6750  -12.9750   21.0200 C   0  0  0  0  0  2  0  0  0  0  0  0
  -30.0130  -13.3000   20.4950 N   0  0  0  0  0  0  0  0  0  0  0  0
  -31.7510  -14.7510   20.1610 O   0  0  0  0  0  0  0  0  0  0  0  0
  -29.7760  -15.4970   20.9530 N   0  0  0  0  0  0  0  0  0  0  0  0
  -28.9530  -15.1420   21.4190 H   0  0  0  0  0  0  0  0  0  0  0  0
  -25.2180  -13.8360   20.5150 C   0  0  0  0  0  0  0  0  0  0  0  0
  -24.1450  -13.0610   20.8630 C   0  0  0  0  0  0  0  0  0  0  0  0
  -24.6180  -11.7120   20.8630 C   0  0  0  0  0  0  0  0  0  0  0  0
  -26.2770  -12.9590   20.3310 N   0  0  0  0  0  0  0  0  0  0  0  0
  -25.9160  -11.6770   20.5950 N   0  0  0  0  0  0  0  0  0  0  0  0
  -23.8970  -10.4470   21.0500 C   0  0  0  0  0  0  0  0  0  0  0  0
  -24.3210   -9.4890   21.9980 C   0  0  0  0  0  3  0  0  0  0  0  0
  -23.6010   -8.2890   22.1710 C   0  0  0  0  0  3  0  0  0  0  0  0
  -22.4430   -8.0360   21.3970 C   0  0  0  0  0  0  0  0  0  0  0  0
  -22.0400   -8.9830   20.4380 C   0  0  0  0  0  3  0  0  0  0  0  0
  -22.7610  -10.1750   20.2630 C   0  0  0  0  0  3  0  0  0  0  0  0
  -21.6970   -6.8860   21.4780 O   0  0  0  0  0  0  0  0  0  0  0  0
  -21.6410   -6.1450   22.6300 C   0  0  0  0  0  0  0  0  0  0  0  0
  -21.1960   -6.6980   23.8520 C   0  0  0  0  0  3  0  0  0  0  0  0
  -21.0880   -5.8820   24.9960 C   0  0  0  0  0  3  0  0  0  0  0  0
  -21.4140   -4.5160   24.9210 C   0  0  0  0  0  0  0  0  0  0  0  0
  -21.8520   -3.9620   23.7050 C   0  0  0  0  0  3  0  0  0  0  0  0
  -21.9620   -4.7730   22.5630 C   0  0  0  0  0  0  0  0  0  0  0  0
  -22.3640   -4.2290   21.3900 F   0  0  0  0  0  0  0  0  0  0  0  0
  -21.3030   -3.7310   26.0190 F   0  0  0  0  0  0  0  0  0  0  0  0
  -22.7370  -13.5290   21.0900 C   0  0  0  0  0  0  0  0  0  0  0  0
  -21.9930  -12.8350   21.9430 N   0  0  0  0  0  0  0  0  0  0  0  0
  -22.3040  -14.5460   20.5490 O   0  0  0  0  0  0  0  0  0  0  0  0
  -22.3570  -12.0130   22.4010 H   0  0  0  0  0  0  0  0  0  0  0  0
  -21.0470  -13.1280   22.1410 H   0  0  0  0  0  0  0  0  0  0  0  0
  -25.3770  -15.2060   20.3230 N   0  0  0  0  0  0  0  0  0  0  0  0
  -24.5980  -15.8520   20.3920 H   0  0  0  0  0  0  0  0  0  0  0  0
  -26.2200  -15.6430   19.9740 H   0  0  0  0  0  0  0  0  0  0  0  0
  -28.7560  -25.7950   19.1600 C   0  0  0  0  0  2  0  0  0  0  0  0
  -28.4510  -26.7610   20.1850 O   0  0  0  0  0  0  0  0  0  0  0  0
  -24.5890  -31.9000   23.2630 C   0  0  0  0  0  0  0  0  0  0  0  0
  -27.2560  -27.4610   20.1610 C   0  0  0  0  0  0  0  0  0  0  0  0
  -23.3850  -30.4930   21.6240 C   0  0  0  0  0  3  0  0  0  0  0  0
  -24.8430  -28.9580   20.1980 C   0  0  0  0  0  0  0  0  0  0  0  0
  -25.9110  -30.8560   21.4240 C   0  0  0  0  0  2  0  0  0  0  0  0
  -26.0000  -29.4850   20.7830 C   0  0  0  0  0  0  0  0  0  0  0  0
  -27.2050  -28.7430   20.7650 C   0  0  0  0  0  3  0  0  0  0  0  0
  -26.0650  -26.9390   19.6030 C   0  0  0  0  0  3  0  0  0  0  0  0
  -24.8700  -27.6820   19.6110 C   0  0  0  0  0  3  0  0  0  0  0  0
  -23.5970  -29.8130   20.2440 C   0  0  0  0  0  2  0  0  0  0  0  0
  -24.6470  -31.0980   22.1620 N   0  0  0  0  0  0  0  0  0  0  0  0
  -23.5080  -32.1700   23.8040 O   0  0  0  0  0  0  0  0  0  0  0  0
  -22.7390  -29.4700   22.5870 C   0  0  0  0  0  0  0  0  0  0  0  0
  -21.4150  -29.2840   22.4620 N   0  0  0  0  0  0  0  0  0  0  0  0
  -23.4250  -28.8500   23.4040 O   0  0  0  0  0  0  0  0  0  0  0  0
  -20.9240  -29.8370   21.7720 H   0  0  0  0  0  0  0  0  0  0  0  0
  -18.0440  -28.0760   22.9590 C   0  0  0  0  0  0  0  0  0  0  0  0
  -20.6010  -28.3450   23.2340 C   0  0  0  0  0  3  0  0  0  0  0  0
  -20.7100  -26.9130   22.6630 C   0  0  0  0  0  2  0  0  0  0  0  0
  -19.6110  -26.5820   21.6490 C   0  0  0  0  0  2  0  0  0  0  0  0
  -18.2260  -26.7250   22.2890 C   0  0  0  0  0  2  0  0  0  0  0  0
  -19.1600  -28.8440   23.3890 C   0  0  0  0  0  0  0  0  0  0  0  0
  -18.9350  -30.1090   23.9750 C   0  0  0  0  0  3  0  0  0  0  0  0
  -17.6290  -30.6050   24.1380 C   0  0  0  0  0  3  0  0  0  0  0  0
  -16.5280  -29.8350   23.7240 C   0  0  0  0  0  3  0  0  0  0  0  0
  -16.7370  -28.5740   23.1390 C   0  0  0  0  0  3  0  0  0  0  0  0
  -25.8740  -32.5360   23.8790 C   0  0  0  0  0  3  0  0  0  0  0  0
  -26.3910  -31.7740   25.1600 C   0  0  1  0  0  0  0  0  0  0  0  0
  -25.2980  -31.5440   26.2290 C   0  0  0  0  0  1  0  0  0  0  0  0
  -26.9740  -30.3930   24.7760 C   0  0  0  0  0  1  0  0  0  0  0  0
  -27.5400  -32.5740   25.8170 C   0  0  0  0  0  1  0  0  0  0  0  0
  -25.5640  -33.9370   24.1980 N   0  0  0  0  0  0  0  0  0  0  0  0
  -25.9010  -34.9830   23.4320 C   0  0  0  0  0  0  0  0  0  0  0  0
  -26.5770  -34.8730   22.4050 O   0  0  0  0  0  0  0  0  0  0  0  0
  -24.9620  -34.0960   24.9920 H   0  0  0  0  0  0  0  0  0  0  0  0
  -24.1790  -36.7760   23.0480 C   0  0  0  0  0  1  0  0  0  0  0  0
  -25.4110  -36.3750   23.8750 C   0  0  0  0  0  3  0  0  0  0  0  0
  -27.5400  -37.2610   24.7210 C   0  0  0  0  0  1  0  0  0  0  0  0
  -26.4460  -37.4260   23.7670 N   0  0  0  0  0  0  0  0  0  0  0  0
  -26.0400  -38.3470   23.9060 H   0  0  0  0  0  0  0  0  0  0  0  0
  2  4  2  0
  2  5  1  0
  3  1  1  0
  3  9  1  0
  4  6  1  0
  5  3  2  0
  6  8  1  0
  6  1  2  0
  7  5  1  0
 10 13  1  0
 12 15  1  0
 13 26  1  0
 13 11  1  0
 14 16  1  0
 14 10  1  0
 14 12  1  0
 15 17  1  6
 15 11  1  0
 15  9  1  0
 18 26  1  0
 19 24  1  0
 20 21  1  0
 20 19  1  0
 22 21  1  0
 22 31  1  0
 22 23  1  0
 24 18  1  0
 24 23  1  0
 25 18  2  0
 26 27  1  0
 28 29  2  0
 29 30  1  0
 29 48  1  0
 30 33  1  0
 31 28  1  0
 31 32  1  0
 32 30  2  0
 33 34  1  0
 34 35  2  0
 36 39  1  0
 36 35  1  0
 37 36  2  0
 38 37  1  0
 38 33  2  0
 39 40  1  0
 40 41  1  0
 41 42  2  0
 43 42  1  0
 43 47  1  0
 44 43  2  0
 45 40  2  0
 45 44  1  0
 46 45  1  0
 48 49  1  0
 49 52  1  0
 49 51  1  0
 50 48  2  0
 53 54  1  0
 53 28  1  0
 55 53  1  0
 56  4  1  0
 56 57  1  0
 58 69  2  0
 59 57  1  0
 59 64  1  0
 60 68  1  0
 60 70  1  0
 61 67  1  0
 61 63  1  0
 62 68  1  0
 63 62  1  0
 64 63  2  0
 65 66  1  0
 65 59  2  0
 66 61  2  0
 67 60  1  0
 68 58  1  0
 70 72  2  0
 71 70  1  0
 73 71  1  0
 74 83  2  0
 74 79  1  0
 75 71  1  0
 75 79  1  0
 76 75  1  0
 77 78  1  0
 77 76  1  0
 78 74  1  0
 79 80  2  0
 80 81  1  0
 82 81  2  0
 83 82  1  0
 84 58  1  0
 84 89  1  0
 84 85  1  0
 85 88  1  1
 85 86  1  0
 87 85  1  0
 89 92  1  0
 90 94  1  0
 90 89  1  0
 91 90  2  0
 94 93  1  0
 96 94  1  0
 96 97  1  0
 96 95  1  0
M  ISO  4  18 100  26 100  56 101  57 101
M  END
>  <TORSDO>  (38) 
F 19

>  <SCORE>  (38) 
-14.475

>  <name>  (38) 
38

>  <ligand_id>  (38) 
38

>  <original_smiles>  (38) 
[H]c1c([H])c([H])c2c(c1[H])C([H])([H])C([H])([H])C([H])([H])C2([H])N([H])C(=O)C1([H])N(C(=O)C([H])(N([H])C(=O)C([H])(N([H])C([H])([H])[H])C([H])([H])[H])C(C([H])([H])[H])(C([H])([H])[H])C([H])([H])[H])C([H])([H])c2c([H])c(OC([H])([H])c3c([H])c(F)c(C([H])([H])[N+]4([H])C([H])([H])C([H])(F)C([H])([H])C([H])(N([H])C(=O)N5C([H])([H])C([H])([H])C([H])([H])C([H])(n6nc(-c7c([H])c([H])c(Oc8c([H])c([H])c(F)c([H])c8F)c([H])c7[H])c(C(=O)N([H])[H])c6N([H])[H])C5([H])[H])C4([H])[H])c([H])c3F)c([H])c([H])c2C1([H])[H]

>  <smiles>  (38) 
[H]c1c([H])c([H])c2c(c1[H])C([H])([H])C([H])([H])C([H])([H])C2([H])N([H])C(=O)C1([H])N(C(=O)C([H])(N([H])C(=O)C([H])(N([H])C([H])([H])[H])C([H])([H])[H])C(C([H])([H])[H])(C([H])([H])[H])C([H])([H])[H])C([H])([H])c2c([H])c(OC([H])([H])c3c([H])c(F)c(C([H])([H])[N+]4([H])C([H])([H])C([H])(F)C([H])([H])C([H])(N([H])C(=O)N5C([H])([H])C([H])([H])C([H])([H])C([H])(n6nc(-c7c([H])c([H])c(Oc8c([H])c([H])c(F)c([H])c8F)c([H])c7[H])c(C(=O)N([H])[H])c6N([H])[H])C5([H])[H])C4([H])[H])c([H])c3F)c([H])c([H])c2C1([H])[H]

$$$$
39:0:0
     RDKit          3D

 95104  0  0  1  0  0  0  0  0999 V2000
  -29.0780  -22.1510   17.5760 C   0  0  0  0  0  2  0  0  0  0  0  0
  -30.3940  -21.7680   18.2640 C   0  0  0  0  0  2  0  0  0  0  0  0
  -28.0680  -22.2990   18.7180 C   0  0  0  0  0  2  0  0  0  0  0  0
  -30.0550  -21.5770   19.7620 C   0  0  0  0  0  3  0  0  0  0  0  0
  -28.8730  -22.5110   19.9470 N   0  0  1  0  0  4  0  0  0  0  0  0
  -28.3250  -22.1920   20.7380 H   0  0  0  0  0  0  0  0  0  0  0  0
  -31.1120  -17.8170   20.1230 C   0  0  0  0  0  3  0  0  0  0  0  0
  -28.7710  -17.9210   20.6550 C   0  0  0  0  0  3  0  0  0  0  0  0
  -29.9530  -20.0310   20.0830 C   0  0  0  0  0  0  0  0  0  0  0  0
  -29.9270  -17.1120   20.4570 C   0  0  0  0  0  0  0  0  0  0  0  0
  -31.1220  -19.2280   19.9540 C   0  0  0  0  0  0  0  0  0  0  0  0
  -28.7770  -19.3380   20.4760 C   0  0  0  0  0  0  0  0  0  0  0  0
  -32.3010  -19.8230   19.6460 F   0  0  0  0  0  0  0  0  0  0  0  0
  -27.6330  -20.0330   20.6900 F   0  0  0  0  0  0  0  0  0  0  0  0
  -30.6070  -14.6240   20.1660 C   0  0  0  0  0  0  0  0  0  0  0  0
  -30.3330  -12.4190   19.0550 C   0  0  0  0  0  2  0  0  0  0  0  0
  -29.3430  -12.6150   17.8840 C   0  0  0  0  0  2  0  0  0  0  0  0
  -27.8870  -12.4500   18.3680 C   0  0  0  0  0  2  0  0  0  0  0  0
  -27.5890  -13.2680   19.6530 C   0  0  0  0  0  3  0  0  0  0  0  0
  -28.6940  -13.0670   20.7160 C   0  0  0  0  0  2  0  0  0  0  0  0
  -29.9840  -13.4070   20.0950 N   0  0  0  0  0  0  0  0  0  0  0  0
  -31.7420  -14.7910   19.7100 O   0  0  0  0  0  0  0  0  0  0  0  0
  -29.8330  -15.6590   20.6180 N   0  0  0  0  0  0  0  0  0  0  0  0
  -28.9530  -15.3390   20.9930 H   0  0  0  0  0  0  0  0  0  0  0  0
  -25.2330  -13.8570   20.4890 C   0  0  0  0  0  0  0  0  0  0  0  0
  -24.1770  -13.0810   20.8820 C   0  0  0  0  0  0  0  0  0  0  0  0
  -24.6310  -11.7280   20.7990 C   0  0  0  0  0  0  0  0  0  0  0  0
  -26.2610  -12.9780   20.1850 N   0  0  0  0  0  0  0  0  0  0  0  0
  -25.9060  -11.6900   20.4320 N   0  0  0  0  0  0  0  0  0  0  0  0
  -23.9070  -10.4660   20.9940 C   0  0  0  0  0  0  0  0  0  0  0  0
  -24.3450   -9.5010   21.9280 C   0  0  0  0  0  3  0  0  0  0  0  0
  -23.6210   -8.3040   22.1130 C   0  0  0  0  0  3  0  0  0  0  0  0
  -22.4470   -8.0610   21.3640 C   0  0  0  0  0  0  0  0  0  0  0  0
  -22.0260   -9.0150   20.4200 C   0  0  0  0  0  3  0  0  0  0  0  0
  -22.7510  -10.2040   20.2340 C   0  0  0  0  0  3  0  0  0  0  0  0
  -21.6970   -6.9140   21.4550 O   0  0  0  0  0  0  0  0  0  0  0  0
  -21.6140   -6.1980   22.6230 C   0  0  0  0  0  0  0  0  0  0  0  0
  -21.1010   -6.7660   23.8100 C   0  0  0  0  0  3  0  0  0  0  0  0
  -20.9690   -5.9760   24.9690 C   0  0  0  0  0  3  0  0  0  0  0  0
  -21.3380   -4.6180   24.9430 C   0  0  0  0  0  0  0  0  0  0  0  0
  -21.8450   -4.0490   23.7610 C   0  0  0  0  0  3  0  0  0  0  0  0
  -21.9800   -4.8370   22.6040 C   0  0  0  0  0  0  0  0  0  0  0  0
  -22.4470   -4.2790   21.4620 F   0  0  0  0  0  0  0  0  0  0  0  0
  -21.2050   -3.8560   26.0540 F   0  0  0  0  0  0  0  0  0  0  0  0
  -22.7960  -13.5580   21.2220 C   0  0  0  0  0  0  0  0  0  0  0  0
  -22.1050  -12.8490   22.1070 N   0  0  0  0  0  0  0  0  0  0  0  0
  -22.3400  -14.5960   20.7410 O   0  0  0  0  0  0  0  0  0  0  0  0
  -22.4880  -12.0110   22.5180 H   0  0  0  0  0  0  0  0  0  0  0  0
  -21.1790  -13.1500   22.3770 H   0  0  0  0  0  0  0  0  0  0  0  0
  -25.3980  -15.2320   20.3470 N   0  0  0  0  0  0  0  0  0  0  0  0
  -24.6440  -15.8850   20.5310 H   0  0  0  0  0  0  0  0  0  0  0  0
  -26.2360  -15.6810   20.0030 H   0  0  0  0  0  0  0  0  0  0  0  0
  -29.2480  -23.9850   20.1900 C   0  0  0  0  0  3  0  0  0  0  0  0
  -28.1490  -25.0880   19.8840 C   0  0  0  0  0  3  0  0  0  0  0  0
  -28.3670  -26.5140   20.1970 O   0  0  0  0  0  0  0  0  0  0  0  0
  -24.6430  -31.8610   23.2580 C   0  0  0  0  0  0  0  0  0  0  0  0
  -27.2470  -27.3580   20.1390 C   0  0  0  0  0  0  0  0  0  0  0  0
  -23.4370  -30.4930   21.5940 C   0  0  0  0  0  3  0  0  0  0  0  0
  -24.8840  -28.9660   20.1490 C   0  0  0  0  0  0  0  0  0  0  0  0
  -25.9790  -30.8110   21.4220 C   0  0  0  0  0  2  0  0  0  0  0  0
  -26.0540  -29.4460   20.7520 C   0  0  0  0  0  0  0  0  0  0  0  0
  -27.2390  -28.6530   20.7380 C   0  0  0  0  0  3  0  0  0  0  0  0
  -26.0490  -26.9330   19.5100 C   0  0  0  0  0  3  0  0  0  0  0  0
  -24.8820  -27.7140   19.5220 C   0  0  0  0  0  3  0  0  0  0  0  0
  -23.6530  -29.8450   20.2030 C   0  0  0  0  0  2  0  0  0  0  0  0
  -24.7050  -31.0700   22.1490 N   0  0  0  0  0  0  0  0  0  0  0  0
  -23.5600  -32.1370   23.7930 O   0  0  0  0  0  0  0  0  0  0  0  0
  -22.7680  -29.4610   22.5340 C   0  0  0  0  0  0  0  0  0  0  0  0
  -21.4430  -29.2920   22.4000 N   0  0  0  0  0  0  0  0  0  0  0  0
  -23.4410  -28.8190   23.3450 O   0  0  0  0  0  0  0  0  0  0  0  0
  -20.9590  -29.8640   21.7210 H   0  0  0  0  0  0  0  0  0  0  0  0
  -18.0520  -28.1280   22.8850 C   0  0  0  0  0  0  0  0  0  0  0  0
  -20.6140  -28.3480   23.1530 C   0  0  0  0  0  3  0  0  0  0  0  0
  -20.6960  -26.9280   22.5470 C   0  0  0  0  0  2  0  0  0  0  0  0
  -19.5870  -26.6400   21.5310 C   0  0  0  0  0  2  0  0  0  0  0  0
  -18.2080  -26.7910   22.1820 C   0  0  0  0  0  2  0  0  0  0  0  0
  -19.1810  -28.8670   23.3280 C   0  0  0  0  0  0  0  0  0  0  0  0
  -18.9800  -30.1200   23.9450 C   0  0  0  0  0  3  0  0  0  0  0  0
  -17.6830  -30.6340   24.1270 C   0  0  0  0  0  3  0  0  0  0  0  0
  -16.5680  -29.8920   23.7010 C   0  0  0  0  0  3  0  0  0  0  0  0
  -16.7530  -28.6410   23.0870 C   0  0  0  0  0  3  0  0  0  0  0  0
  -25.9270  -32.4750   23.8950 C   0  0  0  0  0  3  0  0  0  0  0  0
  -26.4330  -31.6860   25.1650 C   0  0  1  0  0  0  0  0  0  0  0  0
  -25.3330  -31.4440   26.2250 C   0  0  0  0  0  1  0  0  0  0  0  0
  -27.0120  -30.3110   24.7600 C   0  0  0  0  0  1  0  0  0  0  0  0
  -27.5840  -32.4680   25.8420 C   0  0  0  0  0  1  0  0  0  0  0  0
  -25.6290  -33.8730   24.2370 N   0  0  0  0  0  0  0  0  0  0  0  0
  -25.9360  -34.9260   23.4710 C   0  0  0  0  0  0  0  0  0  0  0  0
  -26.5730  -34.8260   22.4190 O   0  0  0  0  0  0  0  0  0  0  0  0
  -25.0650  -34.0270   25.0600 H   0  0  0  0  0  0  0  0  0  0  0  0
  -24.1840  -36.7100   23.1900 C   0  0  0  0  0  1  0  0  0  0  0  0
  -25.4620  -36.3140   23.9460 C   0  0  0  0  0  3  0  0  0  0  0  0
  -27.6240  -37.2160   24.6860 C   0  0  0  0  0  1  0  0  0  0  0  0
  -26.4850  -37.3720   23.7850 N   0  0  0  0  0  0  0  0  0  0  0  0
  -26.0800  -38.2910   23.9410 H   0  0  0  0  0  0  0  0  0  0  0  0
  1  2  1  0
  1  3  1  0
  2  4  1  0
  3  5  1  0
  4  5  1  0
  4  9  1  0
  5 53  1  0
  5  6  1  1
  7 10  1  0
  9 12  2  0
 10 23  1  0
 10  8  2  0
 11  9  1  0
 11  7  2  0
 12  8  1  0
 12 14  1  0
 13 11  1  0
 15 23  1  0
 16 21  1  0
 17 18  1  0
 17 16  1  0
 19 18  1  0
 19 28  1  0
 19 20  1  0
 21 15  1  0
 21 20  1  0
 22 15  2  0
 23 24  1  0
 25 26  2  0
 26 45  1  0
 27 26  1  0
 27 30  1  0
 28 29  1  0
 28 25  1  0
 29 27  2  0
 30 31  1  0
 31 32  2  0
 33 36  1  0
 33 32  1  0
 34 33  2  0
 35 34  1  0
 35 30  2  0
 36 37  1  0
 37 38  1  0
 38 39  2  0
 40 39  1  0
 40 44  1  0
 41 40  2  0
 42 37  2  0
 42 41  1  0
 43 42  1  0
 45 46  1  0
 46 49  1  0
 46 48  1  0
 47 45  2  0
 50 25  1  0
 50 51  1  0
 52 50  1  0
 54 53  2  0
 54 55  1  0
 56 67  2  0
 57 55  1  0
 57 62  1  0
 58 66  1  0
 58 68  1  0
 59 65  1  0
 59 61  1  0
 60 66  1  0
 61 60  1  0
 62 61  2  0
 63 64  1  0
 63 57  2  0
 64 59  2  0
 65 58  1  0
 66 56  1  0
 68 70  2  0
 69 68  1  0
 71 69  1  0
 72 81  2  0
 72 77  1  0
 73 69  1  0
 73 77  1  0
 74 73  1  0
 75 76  1  0
 75 74  1  0
 76 72  1  0
 77 78  2  0
 78 79  1  0
 80 79  2  0
 81 80  1  0
 82 56  1  0
 82 87  1  0
 82 83  1  0
 83 86  1  1
 83 84  1  0
 85 83  1  0
 87 90  1  0
 88 92  1  0
 88 87  1  0
 89 88  2  0
 92 91  1  0
 94 95  1  0
 94 92  1  0
 94 93  1  0
M  ISO  4  15 100  23 100  54 101  55 101
M  END
>  <TORSDO>  (39) 
F 19

>  <SCORE>  (39) 
-14.395

>  <name>  (39) 
39

>  <ligand_id>  (39) 
39

>  <original_smiles>  (39) 
[H]c1c([H])c([H])c2c(c1[H])C([H])([H])C([H])([H])C([H])([H])C2([H])N([H])C(=O)C1([H])N(C(=O)C([H])(N([H])C(=O)C([H])(N([H])C([H])([H])[H])C([H])([H])[H])C(C([H])([H])[H])(C([H])([H])[H])C([H])([H])[H])C([H])([H])c2c([H])c(OC([H])([H])C([H])([H])[N+]3([H])C([H])([H])C([H])([H])C([H])([H])C3([H])c3c(F)c([H])c(N([H])C(=O)N4C([H])([H])C([H])([H])C([H])([H])C([H])(n5nc(-c6c([H])c([H])c(Oc7c([H])c([H])c(F)c([H])c7F)c([H])c6[H])c(C(=O)N([H])[H])c5N([H])[H])C4([H])[H])c([H])c3F)c([H])c([H])c2C1([H])[H]

>  <smiles>  (39) 
[H]c1c([H])c([H])c2c(c1[H])C([H])([H])C([H])([H])C([H])([H])C2([H])N([H])C(=O)C1([H])N(C(=O)C([H])(N([H])C(=O)C([H])(N([H])C([H])([H])[H])C([H])([H])[H])C(C([H])([H])[H])(C([H])([H])[H])C([H])([H])[H])C([H])([H])c2c([H])c(OC([H])([H])C([H])([H])[N+]3([H])C([H])([H])C([H])([H])C([H])([H])C3([H])c3c(F)c([H])c(N([H])C(=O)N4C([H])([H])C([H])([H])C([H])([H])C([H])(n5nc(-c6c([H])c([H])c(Oc7c([H])c([H])c(F)c([H])c7F)c([H])c6[H])c(C(=O)N([H])[H])c5N([H])[H])C4([H])[H])c([H])c3F)c([H])c([H])c2C1([H])[H]

$$$$
40:0:0
     RDKit          3D

 97106  0  0  1  0  0  0  0  0999 V2000
  -31.5790  -22.5740   20.2250 C   0  0  0  0  0  3  0  0  0  0  0  0
  -33.3590  -20.7900   21.0260 C   0  0  0  0  0  2  0  0  0  0  0  0
  -32.1160  -19.9890   20.7290 C   0  0  0  0  0  3  0  0  0  0  0  0
  -31.9920  -21.4430   21.1690 C   0  0  0  0  0  3  0  0  0  0  0  0
  -30.9110  -17.9830   23.7740 C   0  0  0  0  0  3  0  0  0  0  0  0
  -31.4590  -19.0200   22.9980 C   0  0  0  0  0  3  0  0  0  0  0  0
  -30.5310  -16.7730   23.1640 C   0  0  0  0  0  3  0  0  0  0  0  0
  -31.3120  -17.6120   21.0150 C   0  0  0  0  0  3  0  0  0  0  0  0
  -31.6340  -18.8600   21.6050 C   0  0  0  0  0  0  0  0  0  0  0  0
  -30.7510  -16.5680   21.7850 C   0  0  0  0  0  0  0  0  0  0  0  0
  -30.7810  -14.6170   20.1890 C   0  0  0  0  0  0  0  0  0  0  0  0
  -30.5450  -12.4210   19.0580 C   0  0  0  0  0  2  0  0  0  0  0  0
  -29.5310  -12.4660   17.8980 C   0  0  0  0  0  2  0  0  0  0  0  0
  -28.0850  -12.2880   18.4100 C   0  0  0  0  0  2  0  0  0  0  0  0
  -27.7580  -13.2060   19.6160 C   0  0  0  0  0  3  0  0  0  0  0  0
  -28.8640  -13.0620   20.6810 C   0  0  0  0  0  2  0  0  0  0  0  0
  -30.1530  -13.4200   20.0590 N   0  0  0  0  0  0  0  0  0  0  0  0
  -31.7270  -14.9680   19.4630 O   0  0  0  0  0  0  0  0  0  0  0  0
  -30.3120  -15.3420   21.2190 N   0  0  0  0  0  0  0  0  0  0  0  0
  -29.5580  -14.8860   21.7140 H   0  0  0  0  0  0  0  0  0  0  0  0
  -25.4010  -13.7900   20.5010 C   0  0  0  0  0  0  0  0  0  0  0  0
  -24.3670  -13.0000   20.9290 C   0  0  0  0  0  0  0  0  0  0  0  0
  -24.8370  -11.6540   20.8360 C   0  0  0  0  0  0  0  0  0  0  0  0
  -26.4360  -12.9220   20.1770 N   0  0  0  0  0  0  0  0  0  0  0  0
  -26.1010  -11.6330   20.4290 N   0  0  0  0  0  0  0  0  0  0  0  0
  -24.1370  -10.3820   21.0510 C   0  0  0  0  0  0  0  0  0  0  0  0
  -24.5260   -9.4860   22.0730 C   0  0  0  0  0  3  0  0  0  0  0  0
  -23.8240   -8.2760   22.2700 C   0  0  0  0  0  3  0  0  0  0  0  0
  -22.7190   -7.9540   21.4470 C   0  0  0  0  0  0  0  0  0  0  0  0
  -22.3500   -8.8420   20.4180 C   0  0  0  0  0  3  0  0  0  0  0  0
  -23.0520  -10.0420   20.2210 C   0  0  0  0  0  3  0  0  0  0  0  0
  -21.9950   -6.7920   21.5470 O   0  0  0  0  0  0  0  0  0  0  0  0
  -21.7820   -6.1830   22.7580 C   0  0  0  0  0  0  0  0  0  0  0  0
  -21.1220   -6.8430   23.8180 C   0  0  0  0  0  3  0  0  0  0  0  0
  -20.8570   -6.1550   25.0200 C   0  0  0  0  0  3  0  0  0  0  0  0
  -21.2440   -4.8080   25.1630 C   0  0  0  0  0  0  0  0  0  0  0  0
  -21.8980   -4.1510   24.1050 C   0  0  0  0  0  3  0  0  0  0  0  0
  -22.1640   -4.8360   22.9080 C   0  0  0  0  0  0  0  0  0  0  0  0
  -22.7740   -4.1880   21.8850 F   0  0  0  0  0  0  0  0  0  0  0  0
  -20.9880   -4.1490   26.3170 F   0  0  0  0  0  0  0  0  0  0  0  0
  -22.9860  -13.4630   21.3120 C   0  0  0  0  0  0  0  0  0  0  0  0
  -22.3430  -12.7830   22.2560 N   0  0  0  0  0  0  0  0  0  0  0  0
  -22.4860  -14.4690   20.8140 O   0  0  0  0  0  0  0  0  0  0  0  0
  -22.7610  -11.9800   22.7010 H   0  0  0  0  0  0  0  0  0  0  0  0
  -21.4270  -13.0870   22.5570 H   0  0  0  0  0  0  0  0  0  0  0  0
  -25.5390  -15.1650   20.3490 N   0  0  0  0  0  0  0  0  0  0  0  0
  -24.7860  -15.8100   20.5610 H   0  0  0  0  0  0  0  0  0  0  0  0
  -26.3680  -15.6310   20.0040 H   0  0  0  0  0  0  0  0  0  0  0  0
  -32.3660  -23.7120   20.5670 O   0  0  0  0  0  0  0  0  0  0  0  0
  -33.2690  -23.5100   20.3380 H   0  0  0  0  0  0  0  0  0  0  0  0
  -30.0660  -22.9630   20.2610 C   0  0  0  0  0  2  0  0  0  0  0  0
  -29.9390  -24.4460   20.2710 N   0  0  0  0  0  4  0  0  0  0  0  0
  -29.4430  -24.7740   21.0850 H   0  0  0  0  0  0  0  0  0  0  0  0
  -30.9250  -24.6580   20.4330 H   0  0  0  0  0  0  0  0  0  0  0  0
  -29.5260  -25.1450   19.0190 C   0  0  0  0  0  2  0  0  0  0  0  0
  -28.1720  -25.8950   19.1120 C   0  0  0  0  0  2  0  0  0  0  0  0
  -28.2690  -27.2110   19.6950 O   0  0  0  0  0  0  0  0  0  0  0  0
  -24.7200  -32.0520   23.5470 C   0  0  0  0  0  0  0  0  0  0  0  0
  -27.1050  -27.9550   19.8200 C   0  0  0  0  0  0  0  0  0  0  0  0
  -23.4050  -30.9000   21.7970 C   0  0  0  0  0  3  0  0  0  0  0  0
  -24.7530  -29.5180   20.1320 C   0  0  0  0  0  0  0  0  0  0  0  0
  -25.9360  -31.2100   21.5410 C   0  0  0  0  0  2  0  0  0  0  0  0
  -25.9520  -29.9320   20.7250 C   0  0  0  0  0  0  0  0  0  0  0  0
  -27.1270  -29.1600   20.5670 C   0  0  0  0  0  3  0  0  0  0  0  0
  -25.8760  -27.5570   19.2370 C   0  0  0  0  0  3  0  0  0  0  0  0
  -24.7110  -28.3280   19.3890 C   0  0  0  0  0  3  0  0  0  0  0  0
  -23.5430  -30.4000   20.3350 C   0  0  0  0  0  2  0  0  0  0  0  0
  -24.7060  -31.3950   22.3520 N   0  0  0  0  0  0  0  0  0  0  0  0
  -23.6720  -32.2780   24.1660 O   0  0  0  0  0  0  0  0  0  0  0  0
  -22.7670  -29.7790   22.6480 C   0  0  0  0  0  0  0  0  0  0  0  0
  -21.4470  -29.5840   22.4920 N   0  0  0  0  0  0  0  0  0  0  0  0
  -23.4560  -29.0920   23.4080 O   0  0  0  0  0  0  0  0  0  0  0  0
  -20.9500  -30.1960   21.8600 H   0  0  0  0  0  0  0  0  0  0  0  0
  -18.1040  -28.2400   22.7810 C   0  0  0  0  0  0  0  0  0  0  0  0
  -20.6420  -28.5620   23.1600 C   0  0  0  0  0  3  0  0  0  0  0  0
  -20.8120  -27.1820   22.4860 C   0  0  0  0  0  2  0  0  0  0  0  0
  -19.7560  -26.9000   21.4100 C   0  0  0  0  0  2  0  0  0  0  0  0
  -18.3500  -26.9530   22.0130 C   0  0  0  0  0  2  0  0  0  0  0  0
  -19.1820  -29.0030   23.3070 C   0  0  0  0  0  0  0  0  0  0  0  0
  -18.9000  -30.2100   23.9850 C   0  0  0  0  0  3  0  0  0  0  0  0
  -17.5750  -30.6550   24.1410 C   0  0  0  0  0  3  0  0  0  0  0  0
  -16.5120  -29.8890   23.6320 C   0  0  0  0  0  3  0  0  0  0  0  0
  -16.7770  -28.6830   22.9600 C   0  0  0  0  0  3  0  0  0  0  0  0
  -26.0500  -32.5680   24.1820 C   0  0  0  0  0  3  0  0  0  0  0  0
  -25.8210  -33.9520   24.6180 N   0  0  0  0  0  0  0  0  0  0  0  0
  -26.2380  -35.0370   23.9540 C   0  0  0  0  0  0  0  0  0  0  0  0
  -26.9250  -34.9740   22.9300 O   0  0  0  0  0  0  0  0  0  0  0  0
  -25.2180  -34.0800   25.4180 H   0  0  0  0  0  0  0  0  0  0  0  0
  -24.6740  -36.9870   23.6700 C   0  0  0  0  0  1  0  0  0  0  0  0
  -25.8250  -36.4120   24.5110 C   0  0  0  0  0  3  0  0  0  0  0  0
  -27.9560  -37.0480   25.5540 C   0  0  0  0  0  1  0  0  0  0  0  0
  -26.9380  -37.3860   24.5620 N   0  0  0  0  0  0  0  0  0  0  0  0
  -26.5890  -38.3170   24.7690 H   0  0  0  0  0  0  0  0  0  0  0  0
  -26.5510  -31.6790   25.3860 C   0  0  1  0  0  0  0  0  0  0  0  0
  -25.4570  -31.3830   26.4380 C   0  0  0  0  0  1  0  0  0  0  0  0
  -27.0950  -30.3240   24.8780 C   0  0  0  0  0  1  0  0  0  0  0  0
  -27.7220  -32.3880   26.1080 C   0  0  0  0  0  1  0  0  0  0  0  0
  1 51  1  0
  1 49  1  0
  2  4  1  0
  3  2  1  0
  3  4  1  0
  3  9  1  0
  4  1  1  0
  6  5  2  0
  7  5  1  0
  8  9  2  0
  8 10  1  0
  9  6  1  0
 10  7  2  0
 11 19  1  0
 12 17  1  0
 13 14  1  0
 13 12  1  0
 15 14  1  0
 15 24  1  0
 15 16  1  0
 17 11  1  0
 17 16  1  0
 18 11  2  0
 19 20  1  0
 19 10  1  0
 21 22  2  0
 22 41  1  0
 23 22  1  0
 23 26  1  0
 24 25  1  0
 24 21  1  0
 25 23  2  0
 26 27  1  0
 27 28  2  0
 29 32  1  0
 29 28  1  0
 30 29  2  0
 31 30  1  0
 31 26  2  0
 32 33  1  0
 33 38  2  0
 33 34  1  0
 34 35  2  0
 35 36  1  0
 36 40  1  0
 37 36  2  0
 38 37  1  0
 39 38  1  0
 41 42  1  0
 42 45  1  0
 42 44  1  0
 43 41  2  0
 46 21  1  0
 46 47  1  0
 48 46  1  0
 50 49  1  0
 51 52  1  0
 52 54  1  0
 52 53  1  0
 55 56  1  0
 55 52  1  0
 56 57  1  0
 57 59  1  0
 58 69  2  0
 59 64  1  0
 60 68  1  0
 60 70  1  0
 61 67  1  0
 61 63  1  0
 62 68  1  0
 63 62  1  0
 64 63  2  0
 65 66  1  0
 65 59  2  0
 66 61  2  0
 67 60  1  0
 68 58  1  0
 70 72  2  0
 71 70  1  0
 73 71  1  0
 74 83  2  0
 74 79  1  0
 75 71  1  0
 75 79  1  0
 76 75  1  0
 77 78  1  0
 77 76  1  0
 78 74  1  0
 79 80  2  0
 80 81  1  0
 82 81  2  0
 83 82  1  0
 84 58  1  0
 84 85  1  0
 84 94  1  0
 85 88  1  0
 86 90  1  0
 86 85  1  0
 87 86  2  0
 90 89  1  0
 90 92  1  0
 92 93  1  0
 92 91  1  0
 94 97  1  1
 94 95  1  0
 96 94  1  0
M  ISO  4  11 100  19 100  56 101  57 101
M  END
>  <TORSDO>  (40) 
F 23

>  <SCORE>  (40) 
-10.945

>  <name>  (40) 
40

>  <ligand_id>  (40) 
40

>  <original_smiles>  (40) 
[H]OC([H])(C1([H])C([H])([H])C1([H])c1c([H])c([H])c([H])c(N([H])C(=O)N2C([H])([H])C([H])([H])C([H])([H])C([H])(n3nc(-c4c([H])c([H])c(Oc5c([H])c([H])c(F)c([H])c5F)c([H])c4[H])c(C(=O)N([H])[H])c3N([H])[H])C2([H])[H])c1[H])C([H])([H])[N+]([H])([H])C([H])([H])C([H])([H])Oc1c([H])c([H])c2c(c1[H])C([H])([H])N(C(=O)C([H])(N([H])C(=O)C([H])(N([H])C([H])([H])[H])C([H])([H])[H])C(C([H])([H])[H])(C([H])([H])[H])C([H])([H])[H])C([H])(C(=O)N([H])C1([H])c3c([H])c([H])c([H])c([H])c3C([H])([H])C([H])([H])C1([H])[H])C2([H])[H]

>  <smiles>  (40) 
[H]OC([H])(C1([H])C([H])([H])C1([H])c1c([H])c([H])c([H])c(N([H])C(=O)N2C([H])([H])C([H])([H])C([H])([H])C([H])(n3nc(-c4c([H])c([H])c(Oc5c([H])c([H])c(F)c([H])c5F)c([H])c4[H])c(C(=O)N([H])[H])c3N([H])[H])C2([H])[H])c1[H])C([H])([H])[N+]([H])([H])C([H])([H])C([H])([H])Oc1c([H])c([H])c2c(c1[H])C([H])([H])N(C(=O)C([H])(N([H])C(=O)C([H])(N([H])C([H])([H])[H])C([H])([H])[H])C(C([H])([H])[H])(C([H])([H])[H])C([H])([H])[H])C([H])(C(=O)N([H])C1([H])c3c([H])c([H])c([H])c([H])c3C([H])([H])C([H])([H])C1([H])[H])C2([H])[H]

$$$$
41:0:0
     RDKit          3D

 98107  0  0  1  0  0  0  0  0999 V2000
  -27.6180  -22.2920   17.0310 C   0  0  0  0  0  2  0  0  0  0  0  0
  -28.1450  -21.3200   19.3320 C   0  0  0  0  0  2  0  0  0  0  0  0
  -28.8560  -23.1680   17.3010 C   0  0  0  0  0  2  0  0  0  0  0  0
  -28.0910  -22.8060   19.6630 C   0  0  0  0  0  2  0  0  0  0  0  0
  -27.6370  -21.0120   17.9030 C   0  0  0  0  0  3  0  0  0  0  0  0
  -28.9270  -23.6140   18.7220 N   0  0  2  0  0  4  0  0  0  0  0  0
  -29.8870  -23.4510   18.9990 H   0  0  0  0  0  0  0  0  0  0  0  0
  -28.5030  -19.9300   17.2370 C   0  0  0  0  0  2  0  0  0  0  0  0
  -28.7140  -18.6410   18.0680 C   0  0  0  0  0  2  0  0  0  0  0  0
  -32.2000  -17.5180   17.2790 C   0  0  0  0  0  2  0  0  0  0  0  0
  -31.6150  -16.3480   18.0650 C   0  0  0  0  0  2  0  0  0  0  0  0
  -30.9880  -18.3990   17.0290 C   0  0  0  0  0  2  0  0  0  0  0  0
  -30.3510  -16.8950   18.7720 C   0  0  0  0  0  3  0  0  0  0  0  0
  -30.1450  -18.2670   18.2410 N   0  0  2  0  0  4  0  0  0  0  0  0
  -30.5470  -18.8650   18.9550 H   0  0  0  0  0  0  0  0  0  0  0  0
  -30.8690  -14.8010   21.2170 C   0  0  0  0  0  0  0  0  0  0  0  0
  -30.7260  -12.5850   20.2130 C   0  0  0  0  0  2  0  0  0  0  0  0
  -29.9440  -12.7200   18.8900 C   0  0  0  0  0  2  0  0  0  0  0  0
  -28.4280  -12.5850   19.1340 C   0  0  0  0  0  2  0  0  0  0  0  0
  -27.9160  -13.4710   20.3000 C   0  0  0  0  0  3  0  0  0  0  0  0
  -28.8330  -13.3540   21.5400 C   0  0  0  0  0  2  0  0  0  0  0  0
  -30.2190  -13.6160   21.1230 N   0  0  0  0  0  0  0  0  0  0  0  0
  -32.0960  -14.9050   21.1600 O   0  0  0  0  0  0  0  0  0  0  0  0
  -30.5040  -16.9310   20.3050 C   0  0  0  0  0  0  0  0  0  0  0  0
  -30.0670  -15.8490   20.9720 N   0  0  0  0  0  0  0  0  0  0  0  0
  -31.0260  -17.9090   20.8510 O   0  0  0  0  0  0  0  0  0  0  0  0
  -29.1470  -15.5180   20.7340 H   0  0  0  0  0  0  0  0  0  0  0  0
  -25.4370  -14.0470   20.6860 C   0  0  0  0  0  0  0  0  0  0  0  0
  -24.3480  -13.2610   20.9440 C   0  0  0  0  0  0  0  0  0  0  0  0
  -24.8360  -11.9210   21.0240 C   0  0  0  0  0  0  0  0  0  0  0  0
  -26.5210  -13.1840   20.6210 N   0  0  0  0  0  0  0  0  0  0  0  0
  -26.1560  -11.9040   20.8850 N   0  0  0  0  0  0  0  0  0  0  0  0
  -24.1180  -10.6500   21.1680 C   0  0  0  0  0  0  0  0  0  0  0  0
  -24.4690   -9.7130   22.1630 C   0  0  0  0  0  3  0  0  0  0  0  0
  -23.7510   -8.5050   22.2960 C   0  0  0  0  0  3  0  0  0  0  0  0
  -22.6700   -8.2240   21.4290 C   0  0  0  0  0  0  0  0  0  0  0  0
  -22.3370   -9.1510   20.4230 C   0  0  0  0  0  3  0  0  0  0  0  0
  -23.0570  -10.3500   20.2900 C   0  0  0  0  0  3  0  0  0  0  0  0
  -21.9320   -7.0640   21.4650 O   0  0  0  0  0  0  0  0  0  0  0  0
  -21.7660   -6.3530   22.6250 C   0  0  0  0  0  0  0  0  0  0  0  0
  -21.1800   -6.9280   23.7740 C   0  0  0  0  0  3  0  0  0  0  0  0
  -20.9650   -6.1410   24.9240 C   0  0  0  0  0  3  0  0  0  0  0  0
  -21.3240   -4.7810   24.9240 C   0  0  0  0  0  0  0  0  0  0  0  0
  -21.9020   -4.2050   23.7790 C   0  0  0  0  0  3  0  0  0  0  0  0
  -22.1190   -4.9890   22.6320 C   0  0  0  0  0  0  0  0  0  0  0  0
  -22.6550   -4.4240   21.5230 F   0  0  0  0  0  0  0  0  0  0  0  0
  -21.1110   -4.0220   26.0240 F   0  0  0  0  0  0  0  0  0  0  0  0
  -22.9180  -13.7120   21.0190 C   0  0  0  0  0  0  0  0  0  0  0  0
  -22.1080  -13.0510   21.8400 N   0  0  0  0  0  0  0  0  0  0  0  0
  -22.5220  -14.6880   20.3830 O   0  0  0  0  0  0  0  0  0  0  0  0
  -22.4390  -12.2650   22.3790 H   0  0  0  0  0  0  0  0  0  0  0  0
  -21.1430  -13.3360   21.9290 H   0  0  0  0  0  0  0  0  0  0  0  0
  -25.5950  -15.4130   20.4800 N   0  0  0  0  0  0  0  0  0  0  0  0
  -24.8040  -16.0480   20.4800 H   0  0  0  0  0  0  0  0  0  0  0  0
  -26.4680  -15.8780   20.2750 H   0  0  0  0  0  0  0  0  0  0  0  0
  -28.7160  -25.0740   18.8400 C   0  0  0  0  0  2  0  0  0  0  0  0
  -28.5200  -25.5560   20.2840 C   0  0  0  0  0  2  0  0  0  0  0  0
  -28.4660  -26.9610   20.2780 O   0  0  0  0  0  0  0  0  0  0  0  0
  -24.5530  -31.9390   23.3080 C   0  0  0  0  0  0  0  0  0  0  0  0
  -27.2360  -27.5700   20.2460 C   0  0  0  0  0  0  0  0  0  0  0  0
  -23.3550  -30.5460   21.6520 C   0  0  0  0  0  3  0  0  0  0  0  0
  -24.8160  -29.0160   20.2380 C   0  0  0  0  0  0  0  0  0  0  0  0
  -25.8710  -30.9350   21.4510 C   0  0  0  0  0  2  0  0  0  0  0  0
  -25.9650  -29.5680   20.8160 C   0  0  0  0  0  0  0  0  0  0  0  0
  -27.1760  -28.8570   20.8060 C   0  0  0  0  0  3  0  0  0  0  0  0
  -26.0610  -27.0000   19.6910 C   0  0  0  0  0  3  0  0  0  0  0  0
  -24.8540  -27.7270   19.6780 C   0  0  0  0  0  3  0  0  0  0  0  0
  -23.5690  -29.8690   20.2700 C   0  0  0  0  0  2  0  0  0  0  0  0
  -24.6130  -31.1530   22.1970 N   0  0  0  0  0  0  0  0  0  0  0  0
  -23.4700  -32.2010   23.8470 O   0  0  0  0  0  0  0  0  0  0  0  0
  -22.7020  -29.5170   22.6040 C   0  0  0  0  0  0  0  0  0  0  0  0
  -21.3890  -29.2960   22.4310 N   0  0  0  0  0  0  0  0  0  0  0  0
  -23.3750  -28.9200   23.4480 O   0  0  0  0  0  0  0  0  0  0  0  0
  -20.9120  -29.8310   21.7180 H   0  0  0  0  0  0  0  0  0  0  0  0
  -18.0370  -27.9940   22.7900 C   0  0  0  0  0  0  0  0  0  0  0  0
  -20.5690  -28.3480   23.1810 C   0  0  0  0  0  3  0  0  0  0  0  0
  -20.7500  -26.9080   22.6460 C   0  0  0  0  0  2  0  0  0  0  0  0
  -19.7110  -26.5230   21.5870 C   0  0  0  0  0  2  0  0  0  0  0  0
  -18.2940  -26.6370   22.1560 C   0  0  0  0  0  2  0  0  0  0  0  0
  -19.1070  -28.8040   23.2560 C   0  0  0  0  0  0  0  0  0  0  0  0
  -18.8170  -30.0730   23.8020 C   0  0  0  0  0  3  0  0  0  0  0  0
  -17.4900  -30.5350   23.8860 C   0  0  0  0  0  3  0  0  0  0  0  0
  -16.4350  -29.7210   23.4400 C   0  0  0  0  0  3  0  0  0  0  0  0
  -16.7090  -28.4520   22.8970 C   0  0  0  0  0  3  0  0  0  0  0  0
  -25.8350  -32.5670   23.9380 C   0  0  0  0  0  3  0  0  0  0  0  0
  -25.5370  -33.9730   24.2420 N   0  0  0  0  0  0  0  0  0  0  0  0
  -25.8850  -35.0070   23.4650 C   0  0  0  0  0  0  0  0  0  0  0  0
  -26.5670  -34.8790   22.4450 O   0  0  0  0  0  0  0  0  0  0  0  0
  -24.9380  -34.1470   25.0360 H   0  0  0  0  0  0  0  0  0  0  0  0
  -24.1690  -36.8010   23.0570 C   0  0  0  0  0  1  0  0  0  0  0  0
  -25.4010  -36.4090   23.8890 C   0  0  0  0  0  3  0  0  0  0  0  0
  -27.5340  -37.2970   24.7190 C   0  0  0  0  0  1  0  0  0  0  0  0
  -26.4430  -37.4520   23.7610 N   0  0  0  0  0  0  0  0  0  0  0  0
  -26.0410  -38.3780   23.8840 H   0  0  0  0  0  0  0  0  0  0  0  0
  -26.3250  -31.8100   25.2340 C   0  0  1  0  0  0  0  0  0  0  0  0
  -25.2110  -31.5830   26.2850 C   0  0  0  0  0  1  0  0  0  0  0  0
  -26.9140  -30.4290   24.8610 C   0  0  0  0  0  1  0  0  0  0  0  0
  -27.4670  -32.6080   25.9050 C   0  0  0  0  0  1  0  0  0  0  0  0
  1  3  1  0
  1  5  1  0
  2  4  1  0
  3  6  1  0
  5  8  1  0
  5  2  1  0
  6 56  1  0
  6  7  1  1
  6  4  1  0
  8  9  1  0
  9 14  1  0
 10 11  1  0
 11 13  1  0
 12 10  1  0
 12 14  1  0
 13 24  1  0
 14 13  1  0
 14 15  1  1
 17 22  1  0
 18 19  1  0
 18 17  1  0
 20 19  1  0
 20 31  1  0
 20 21  1  0
 22 16  1  0
 22 21  1  0
 23 16  2  0
 24 26  2  0
 24 25  1  0
 25 16  1  0
 27 25  1  0
 28 29  2  0
 29 48  1  0
 29 30  1  0
 30 33  1  0
 31 28  1  0
 31 32  1  0
 32 30  2  0
 33 34  1  0
 34 35  2  0
 36 39  1  0
 36 35  1  0
 37 36  2  0
 38 37  1  0
 38 33  2  0
 39 40  1  0
 40 45  2  0
 40 41  1  0
 41 42  2  0
 43 42  1  0
 43 47  1  0
 44 43  2  0
 45 44  1  0
 46 45  1  0
 48 49  1  0
 49 52  1  0
 49 51  1  0
 50 48  2  0
 53 54  1  0
 53 28  1  0
 55 53  1  0
 56 57  1  0
 58 57  1  0
 59 70  2  0
 60 58  1  0
 60 65  1  0
 61 69  1  0
 61 71  1  0
 62 68  1  0
 62 64  1  0
 63 69  1  0
 64 63  1  0
 65 64  2  0
 66 60  2  0
 67 66  1  0
 67 62  2  0
 68 61  1  0
 69 59  1  0
 71 73  2  0
 72 71  1  0
 74 72  1  0
 75 84  2  0
 75 80  1  0
 76 72  1  0
 76 80  1  0
 77 76  1  0
 78 79  1  0
 78 77  1  0
 79 75  1  0
 80 81  2  0
 81 82  1  0
 83 82  2  0
 84 83  1  0
 85 59  1  0
 85 86  1  0
 85 95  1  0
 86 89  1  0
 87 91  1  0
 87 86  1  0
 88 87  2  0
 91 90  1  0
 93 94  1  0
 93 91  1  0
 93 92  1  0
 95 98  1  1
 95 96  1  0
 97 95  1  0
M  ISO  4  16 100  25 100  57 101  58 101
M  END
>  <TORSDO>  (41) 
F 21

>  <SCORE>  (41) 
-12.757

>  <name>  (41) 
41

>  <ligand_id>  (41) 
41

>  <original_smiles>  (41) 
[H]c1c([H])c([H])c2c(c1[H])C([H])([H])C([H])([H])C([H])([H])C2([H])N([H])C(=O)C1([H])N(C(=O)C([H])(N([H])C(=O)C([H])(N([H])C([H])([H])[H])C([H])([H])[H])C(C([H])([H])[H])(C([H])([H])[H])C([H])([H])[H])C([H])([H])c2c([H])c(OC([H])([H])C([H])([H])[N+]3([H])C([H])([H])C([H])([H])C([H])(C([H])([H])C([H])([H])[N+]4([H])C([H])([H])C([H])([H])C([H])([H])C4([H])C(=O)N([H])C(=O)N4C([H])([H])C([H])([H])C([H])([H])C([H])(n5nc(-c6c([H])c([H])c(Oc7c([H])c([H])c(F)c([H])c7F)c([H])c6[H])c(C(=O)N([H])[H])c5N([H])[H])C4([H])[H])C([H])([H])C3([H])[H])c([H])c([H])c2C1([H])[H]

>  <smiles>  (41) 
[H]c1c([H])c([H])c2c(c1[H])C([H])([H])C([H])([H])C([H])([H])C2([H])N([H])C(=O)C1([H])N(C(=O)C([H])(N([H])C(=O)C([H])(N([H])C([H])([H])[H])C([H])([H])[H])C(C([H])([H])[H])(C([H])([H])[H])C([H])([H])[H])C([H])([H])c2c([H])c(OC([H])([H])C([H])([H])[N+]3([H])C([H])([H])C([H])([H])C([H])(C([H])([H])C([H])([H])[N+]4([H])C([H])([H])C([H])([H])C([H])([H])C4([H])C(=O)N([H])C(=O)N4C([H])([H])C([H])([H])C([H])([H])C([H])(n5nc(-c6c([H])c([H])c(Oc7c([H])c([H])c(F)c([H])c7F)c([H])c6[H])c(C(=O)N([H])[H])c5N([H])[H])C4([H])[H])C([H])([H])C3([H])[H])c([H])c([H])c2C1([H])[H]

$$$$
42:0:0
     RDKit          3D

 97106  0  0  1  0  0  0  0  0999 V2000
  -28.7990  -20.8750   19.7120 C   0  0  0  0  0  2  0  0  0  0  0  0
  -26.6960  -20.8290   18.3700 C   0  0  0  0  0  2  0  0  0  0  0  0
  -28.6260  -22.3770   19.9380 C   0  0  0  0  0  2  0  0  0  0  0  0
  -26.5040  -22.3200   18.6780 C   0  0  0  0  0  2  0  0  0  0  0  0
  -28.1840  -20.4510   18.3580 C   0  0  0  0  0  3  0  0  0  0  0  0
  -27.1900  -22.7560   19.9280 N   0  0  2  0  0  4  0  0  0  0  0  0
  -26.7330  -22.3030   20.7060 H   0  0  0  0  0  0  0  0  0  0  0  0
  -28.3630  -18.9670   17.9710 C   0  0  0  0  0  2  0  0  0  0  0  0
  -31.1870  -16.6670   18.8090 C   0  0  0  0  0  2  0  0  0  0  0  0
  -30.3420  -17.4550   17.8050 C   0  0  0  0  0  2  0  0  0  0  0  0
  -29.2020  -17.5830   19.8470 C   0  0  0  0  0  2  0  0  0  0  0  0
  -30.4830  -16.8320   20.1850 C   0  0  0  0  0  3  0  0  0  0  0  0
  -29.5330  -18.3580   18.6380 N   0  0  2  0  0  4  0  0  0  0  0  0
  -30.1510  -19.1070   18.9100 H   0  0  0  0  0  0  0  0  0  0  0  0
  -30.9550  -14.5260   20.8920 C   0  0  0  0  0  0  0  0  0  0  0  0
  -30.6700  -12.4040   19.7380 C   0  0  0  0  0  2  0  0  0  0  0  0
  -29.8010  -12.6610   18.4880 C   0  0  0  0  0  2  0  0  0  0  0  0
  -28.3040  -12.5440   18.8330 C   0  0  0  0  0  2  0  0  0  0  0  0
  -27.9020  -13.3640   20.0890 C   0  0  0  0  0  3  0  0  0  0  0  0
  -28.8970  -13.1250   21.2520 C   0  0  0  0  0  2  0  0  0  0  0  0
  -30.2650  -13.3710   20.7610 N   0  0  0  0  0  0  0  0  0  0  0  0
  -32.1520  -14.6610   20.6330 O   0  0  0  0  0  0  0  0  0  0  0  0
  -30.1620  -15.5930   20.8930 N   0  0  0  0  0  0  0  0  0  0  0  0
  -29.1930  -15.4160   21.1140 H   0  0  0  0  0  0  0  0  0  0  0  0
  -25.4590  -13.9650   20.6470 C   0  0  0  0  0  0  0  0  0  0  0  0
  -24.3760  -13.1880   20.9600 C   0  0  0  0  0  0  0  0  0  0  0  0
  -24.8480  -11.8400   20.9650 C   0  0  0  0  0  0  0  0  0  0  0  0
  -26.5230  -13.0900   20.4880 N   0  0  0  0  0  0  0  0  0  0  0  0
  -26.1540  -11.8080   20.7370 N   0  0  0  0  0  0  0  0  0  0  0  0
  -24.1210  -10.5740   21.1180 C   0  0  0  0  0  0  0  0  0  0  0  0
  -24.4980   -9.6180   22.0860 C   0  0  0  0  0  3  0  0  0  0  0  0
  -23.7730   -8.4160   22.2260 C   0  0  0  0  0  3  0  0  0  0  0  0
  -22.6560   -8.1610   21.3950 C   0  0  0  0  0  0  0  0  0  0  0  0
  -22.2990   -9.1030   20.4160 C   0  0  0  0  0  3  0  0  0  0  0  0
  -23.0250  -10.2990   20.2750 C   0  0  0  0  0  3  0  0  0  0  0  0
  -21.9090   -7.0080   21.4430 O   0  0  0  0  0  0  0  0  0  0  0  0
  -21.7770   -6.2830   22.5990 C   0  0  0  0  0  0  0  0  0  0  0  0
  -21.2190   -6.8420   23.7700 C   0  0  0  0  0  3  0  0  0  0  0  0
  -21.0360   -6.0410   24.9140 C   0  0  0  0  0  3  0  0  0  0  0  0
  -21.4030   -4.6820   24.8890 C   0  0  0  0  0  0  0  0  0  0  0  0
  -21.9550   -4.1230   23.7230 C   0  0  0  0  0  3  0  0  0  0  0  0
  -22.1380   -4.9220   22.5810 C   0  0  0  0  0  0  0  0  0  0  0  0
  -22.6510   -4.3720   21.4530 F   0  0  0  0  0  0  0  0  0  0  0  0
  -21.2210   -3.9090   25.9860 F   0  0  0  0  0  0  0  0  0  0  0  0
  -22.9620  -13.6580   21.1430 C   0  0  0  0  0  0  0  0  0  0  0  0
  -22.1850  -12.9610   21.9670 N   0  0  0  0  0  0  0  0  0  0  0  0
  -22.5490  -14.6770   20.5930 O   0  0  0  0  0  0  0  0  0  0  0  0
  -22.5280  -12.1340   22.4340 H   0  0  0  0  0  0  0  0  0  0  0  0
  -21.2340  -13.2580   22.1310 H   0  0  0  0  0  0  0  0  0  0  0  0
  -25.6210  -15.3350   20.4640 N   0  0  0  0  0  0  0  0  0  0  0  0
  -24.8280  -15.9670   20.4980 H   0  0  0  0  0  0  0  0  0  0  0  0
  -26.4600  -15.7710   20.1160 H   0  0  0  0  0  0  0  0  0  0  0  0
  -27.0110  -24.2100   20.0870 C   0  0  0  0  0  2  0  0  0  0  0  0
  -27.5390  -24.8710   21.3830 C   0  0  0  0  0  3  0  0  0  0  0  0
  -26.4870  -25.1840   22.1430 F   0  0  0  0  0  0  0  0  0  0  0  0
  -28.3780  -26.1500   21.1210 C   0  0  0  0  0  2  0  0  0  0  0  0
  -28.0200  -26.8470   19.9230 O   0  0  0  0  0  0  0  0  0  0  0  0
  -24.4860  -31.9870   23.3070 C   0  0  0  0  0  0  0  0  0  0  0  0
  -26.8820  -27.6030   20.0110 C   0  0  0  0  0  0  0  0  0  0  0  0
  -23.1700  -30.6550   21.6890 C   0  0  0  0  0  3  0  0  0  0  0  0
  -24.5230  -29.1280   20.1660 C   0  0  0  0  0  0  0  0  0  0  0  0
  -25.6910  -30.9640   21.3930 C   0  0  0  0  0  2  0  0  0  0  0  0
  -25.7120  -29.6070   20.7330 C   0  0  0  0  0  0  0  0  0  0  0  0
  -26.8920  -28.8400   20.6790 C   0  0  0  0  0  3  0  0  0  0  0  0
  -25.6970  -27.1660   19.3790 C   0  0  0  0  0  3  0  0  0  0  0  0
  -24.5060  -27.8970   19.4940 C   0  0  0  0  0  3  0  0  0  0  0  0
  -23.3030  -30.0090   20.2850 C   0  0  0  0  0  2  0  0  0  0  0  0
  -24.4680  -31.2170   22.1850 N   0  0  0  0  0  0  0  0  0  0  0  0
  -23.4390  -32.2700   23.9050 O   0  0  0  0  0  0  0  0  0  0  0  0
  -22.5430  -29.6210   22.6510 C   0  0  0  0  0  0  0  0  0  0  0  0
  -21.2220  -29.4150   22.5240 N   0  0  0  0  0  0  0  0  0  0  0  0
  -23.2370  -29.0070   23.4660 O   0  0  0  0  0  0  0  0  0  0  0  0
  -20.7240  -29.9630   21.8380 H   0  0  0  0  0  0  0  0  0  0  0  0
  -17.8760  -28.1400   22.9840 C   0  0  0  0  0  0  0  0  0  0  0  0
  -20.4210  -28.4690   23.2980 C   0  0  0  0  0  3  0  0  0  0  0  0
  -20.5710  -27.0300   22.7510 C   0  0  0  0  0  2  0  0  0  0  0  0
  -19.4970  -26.6590   21.7230 C   0  0  0  0  0  2  0  0  0  0  0  0
  -18.1010  -26.7820   22.3390 C   0  0  0  0  0  2  0  0  0  0  0  0
  -18.9670  -28.9370   23.4190 C   0  0  0  0  0  0  0  0  0  0  0  0
  -18.7050  -30.2080   23.9780 C   0  0  0  0  0  3  0  0  0  0  0  0
  -17.3850  -30.6780   24.1080 C   0  0  0  0  0  3  0  0  0  0  0  0
  -16.3080  -29.8770   23.6910 C   0  0  0  0  0  3  0  0  0  0  0  0
  -16.5560  -28.6090   23.1340 C   0  0  0  0  0  3  0  0  0  0  0  0
  -25.8200  -32.5660   23.8770 C   0  0  0  0  0  3  0  0  0  0  0  0
  -25.5760  -33.9720   24.2210 N   0  0  0  0  0  0  0  0  0  0  0  0
  -25.9130  -35.0120   23.4470 C   0  0  0  0  0  0  0  0  0  0  0  0
  -26.5370  -34.8870   22.3890 O   0  0  0  0  0  0  0  0  0  0  0  0
  -25.0240  -34.1460   25.0470 H   0  0  0  0  0  0  0  0  0  0  0  0
  -24.2450  -36.8660   23.1390 C   0  0  0  0  0  1  0  0  0  0  0  0
  -25.4890  -36.4150   23.9190 C   0  0  0  0  0  3  0  0  0  0  0  0
  -27.6730  -37.2170   24.7030 C   0  0  0  0  0  1  0  0  0  0  0  0
  -26.5570  -37.4280   23.7840 N   0  0  0  0  0  0  0  0  0  0  0  0
  -26.1900  -38.3630   23.9390 H   0  0  0  0  0  0  0  0  0  0  0  0
  -26.3620  -31.7690   25.1270 C   0  0  1  0  0  0  0  0  0  0  0  0
  -25.3020  -31.5600   26.2320 C   0  0  0  0  0  1  0  0  0  0  0  0
  -26.8870  -30.3760   24.7030 C   0  0  0  0  0  1  0  0  0  0  0  0
  -27.5590  -32.5240   25.7490 C   0  0  0  0  0  1  0  0  0  0  0  0
  1  3  1  0
  2  4  1  0
  4  6  1  0
  5  8  1  0
  5  2  1  0
  5  1  1  0
  6  3  1  0
  6 53  1  0
  6  7  1  1
  8 13  1  0
  9 12  1  0
 10 13  1  0
 10  9  1  0
 11 12  1  0
 12 23  1  0
 13 14  1  1
 13 11  1  0
 15 23  1  0
 16 21  1  0
 17 18  1  0
 17 16  1  0
 19 18  1  0
 19 28  1  0
 19 20  1  0
 21 15  1  0
 21 20  1  0
 22 15  2  0
 23 24  1  0
 25 26  2  0
 26 27  1  0
 26 45  1  0
 27 30  1  0
 28 25  1  0
 28 29  1  0
 29 27  2  0
 30 31  1  0
 31 32  2  0
 33 36  1  0
 33 32  1  0
 34 33  2  0
 35 34  1  0
 35 30  2  0
 36 37  1  0
 37 38  1  0
 38 39  2  0
 40 39  1  0
 40 44  1  0
 41 40  2  0
 42 37  2  0
 42 41  1  0
 43 42  1  0
 45 46  1  0
 46 49  1  0
 46 48  1  0
 47 45  2  0
 50 51  1  0
 50 25  1  0
 52 50  1  0
 53 54  1  0
 54 55  1  0
 56 54  1  0
 57 59  1  0
 57 56  1  0
 58 69  2  0
 59 64  1  0
 60 68  1  0
 60 70  1  0
 61 67  1  0
 61 63  1  0
 62 68  1  0
 63 62  1  0
 64 63  2  0
 65 66  1  0
 65 59  2  0
 66 61  2  0
 67 60  1  0
 68 58  1  0
 70 72  2  0
 71 70  1  0
 73 71  1  0
 74 83  2  0
 74 79  1  0
 75 71  1  0
 75 79  1  0
 76 75  1  0
 77 78  1  0
 77 76  1  0
 78 74  1  0
 79 80  2  0
 80 81  1  0
 82 81  2  0
 83 82  1  0
 84 58  1  0
 84 85  1  0
 84 94  1  0
 85 88  1  0
 86 90  1  0
 86 85  1  0
 87 86  2  0
 90 89  1  0
 92 90  1  0
 92 93  1  0
 92 91  1  0
 94 97  1  1
 94 95  1  0
 96 94  1  0
M  ISO  4  15 100  23 100  56 101  57 101
M  END
>  <TORSDO>  (42) 
F 21

>  <SCORE>  (42) 
-13.435

>  <name>  (42) 
42

>  <ligand_id>  (42) 
42

>  <original_smiles>  (42) 
[H]c1c([H])c([H])c2c(c1[H])C([H])([H])C([H])([H])C([H])([H])C2([H])N([H])C(=O)C1([H])N(C(=O)C([H])(N([H])C(=O)C([H])(N([H])C([H])([H])[H])C([H])([H])[H])C(C([H])([H])[H])(C([H])([H])[H])C([H])([H])[H])C([H])([H])c2c([H])c(OC([H])([H])C([H])(F)C([H])([H])[N+]3([H])C([H])([H])C([H])([H])C([H])(C([H])([H])[N+]4([H])C([H])([H])C([H])([H])C([H])(N([H])C(=O)N5C([H])([H])C([H])([H])C([H])([H])C([H])(n6nc(-c7c([H])c([H])c(Oc8c([H])c([H])c(F)c([H])c8F)c([H])c7[H])c(C(=O)N([H])[H])c6N([H])[H])C5([H])[H])C4([H])[H])C([H])([H])C3([H])[H])c([H])c([H])c2C1([H])[H]

>  <smiles>  (42) 
[H]c1c([H])c([H])c2c(c1[H])C([H])([H])C([H])([H])C([H])([H])C2([H])N([H])C(=O)C1([H])N(C(=O)C([H])(N([H])C(=O)C([H])(N([H])C([H])([H])[H])C([H])([H])[H])C(C([H])([H])[H])(C([H])([H])[H])C([H])([H])[H])C([H])([H])c2c([H])c(OC([H])([H])C([H])(F)C([H])([H])[N+]3([H])C([H])([H])C([H])([H])C([H])(C([H])([H])[N+]4([H])C([H])([H])C([H])([H])C([H])(N([H])C(=O)N5C([H])([H])C([H])([H])C([H])([H])C([H])(n6nc(-c7c([H])c([H])c(Oc8c([H])c([H])c(F)c([H])c8F)c([H])c7[H])c(C(=O)N([H])[H])c6N([H])[H])C5([H])[H])C4([H])[H])C([H])([H])C3([H])[H])c([H])c([H])c2C1([H])[H]

$$$$
43:0:0
     RDKit          3D

 90 98  0  0  1  0  0  0  0  0999 V2000
  -28.3640  -18.8880   20.3280 C   0  0  0  0  0  3  0  0  0  0  0  0
  -30.6550  -19.0900   20.2600 C   0  0  0  0  0  3  0  0  0  0  0  0
  -29.2590  -21.3480   20.2700 C   0  0  0  0  0  0  0  0  0  0  0  0
  -29.5970  -18.0990   20.3200 C   0  0  0  0  0  0  0  0  0  0  0  0
  -28.1930  -20.3650   20.3060 C   0  0  0  0  0  0  0  0  0  0  0  0
  -30.4990  -20.5680   20.2390 C   0  0  0  0  0  0  0  0  0  0  0  0
  -26.9240  -20.8400   20.3390 F   0  0  0  0  0  0  0  0  0  0  0  0
  -31.6520  -21.2800   20.2090 F   0  0  0  0  0  0  0  0  0  0  0  0
  -30.4720  -15.3000   20.2560 C   0  0  0  0  0  0  0  0  0  0  0  0
  -30.4560  -12.8730   19.3720 C   0  0  0  0  0  2  0  0  0  0  0  0
  -29.5250  -12.7200   18.1430 C   0  0  0  0  0  2  0  0  0  0  0  0
  -28.0710  -12.4600   18.5820 C   0  0  0  0  0  2  0  0  0  0  0  0
  -27.6360  -13.4040   19.7320 C   0  0  0  0  0  3  0  0  0  0  0  0
  -28.6930  -13.5010   20.8540 C   0  0  0  0  0  2  0  0  0  0  0  0
  -29.9320  -13.9910   20.2280 N   0  0  0  0  0  0  0  0  0  0  0  0
  -31.6830  -15.3560   19.9940 O   0  0  0  0  0  0  0  0  0  0  0  0
  -29.6230  -16.4910   20.3860 N   0  0  0  0  0  0  0  0  0  0  0  0
  -28.6910  -16.1470   20.5570 H   0  0  0  0  0  0  0  0  0  0  0  0
  -25.2670  -13.9670   20.4990 C   0  0  0  0  0  0  0  0  0  0  0  0
  -24.2060  -13.1900   20.8740 C   0  0  0  0  0  0  0  0  0  0  0  0
  -24.6690  -11.8380   20.8250 C   0  0  0  0  0  0  0  0  0  0  0  0
  -26.3070  -13.0910   20.2410 N   0  0  0  0  0  0  0  0  0  0  0  0
  -25.9590  -11.8040   20.5060 N   0  0  0  0  0  0  0  0  0  0  0  0
  -23.9390  -10.5770   21.0050 C   0  0  0  0  0  0  0  0  0  0  0  0
  -24.3600   -9.6070   21.9410 C   0  0  0  0  0  3  0  0  0  0  0  0
  -23.6280   -8.4120   22.1110 C   0  0  0  0  0  3  0  0  0  0  0  0
  -22.4620   -8.1770   21.3450 C   0  0  0  0  0  0  0  0  0  0  0  0
  -22.0620   -9.1350   20.3970 C   0  0  0  0  0  3  0  0  0  0  0  0
  -22.7940  -10.3220   20.2240 C   0  0  0  0  0  3  0  0  0  0  0  0
  -21.7030   -7.0330   21.4250 O   0  0  0  0  0  0  0  0  0  0  0  0
  -21.6180   -6.3060   22.5850 C   0  0  0  0  0  0  0  0  0  0  0  0
  -21.1050   -6.8630   23.7780 C   0  0  0  0  0  3  0  0  0  0  0  0
  -20.9690   -6.0590   24.9280 C   0  0  0  0  0  3  0  0  0  0  0  0
  -21.3350   -4.7000   24.8850 C   0  0  0  0  0  0  0  0  0  0  0  0
  -21.8400   -4.1440   23.6970 C   0  0  0  0  0  3  0  0  0  0  0  0
  -21.9780   -4.9440   22.5490 C   0  0  0  0  0  0  0  0  0  0  0  0
  -22.4450   -4.3980   21.4010 F   0  0  0  0  0  0  0  0  0  0  0  0
  -21.1990   -3.9250   25.9870 F   0  0  0  0  0  0  0  0  0  0  0  0
  -22.8110  -13.6690   21.1530 C   0  0  0  0  0  0  0  0  0  0  0  0
  -22.0870  -12.9740   22.0220 N   0  0  0  0  0  0  0  0  0  0  0  0
  -22.3730  -14.6950   20.6350 O   0  0  0  0  0  0  0  0  0  0  0  0
  -22.4560  -12.1460   22.4660 H   0  0  0  0  0  0  0  0  0  0  0  0
  -21.1490  -13.2730   22.2480 H   0  0  0  0  0  0  0  0  0  0  0  0
  -25.4250  -15.3390   20.3210 N   0  0  0  0  0  0  0  0  0  0  0  0
  -24.6340  -15.9680   20.3930 H   0  0  0  0  0  0  0  0  0  0  0  0
  -26.2190  -15.7560   19.8550 H   0  0  0  0  0  0  0  0  0  0  0  0
  -29.2360  -23.0840   20.3940 C   0  0  0  0  0  3  0  0  0  0  0  0
  -29.6310  -23.2970   21.6520 F   0  0  0  0  0  0  0  0  0  0  0  0
  -28.1210  -24.4300   20.1070 C   0  0  0  0  0  2  0  0  0  0  0  0
  -28.3140  -26.0410   20.3040 O   0  0  0  0  0  0  0  0  0  0  0  0
  -24.6790  -31.8880   23.3050 C   0  0  0  0  0  0  0  0  0  0  0  0
  -27.2760  -27.0950   20.2470 C   0  0  0  0  0  0  0  0  0  0  0  0
  -23.4980  -30.5110   21.6400 C   0  0  0  0  0  3  0  0  0  0  0  0
  -24.9600  -28.9310   20.2070 C   0  0  0  0  0  0  0  0  0  0  0  0
  -26.0610  -30.7420   21.5090 C   0  0  0  0  0  2  0  0  0  0  0  0
  -26.1400  -29.3450   20.8360 C   0  0  0  0  0  0  0  0  0  0  0  0
  -27.2930  -28.4480   20.8310 C   0  0  0  0  0  3  0  0  0  0  0  0
  -26.0630  -26.8150   19.5780 C   0  0  0  0  0  3  0  0  0  0  0  0
  -24.9430  -27.6850   19.5590 C   0  0  0  0  0  3  0  0  0  0  0  0
  -23.7350  -29.8420   20.2580 C   0  0  0  0  0  2  0  0  0  0  0  0
  -24.7670  -31.0730   22.2060 N   0  0  0  0  0  0  0  0  0  0  0  0
  -23.5880  -32.1700   23.8230 O   0  0  0  0  0  0  0  0  0  0  0  0
  -22.8010  -29.5030   22.5880 C   0  0  0  0  0  0  0  0  0  0  0  0
  -21.4730  -29.3360   22.4500 N   0  0  0  0  0  0  0  0  0  0  0  0
  -23.4600  -28.8710   23.4170 O   0  0  0  0  0  0  0  0  0  0  0  0
  -20.9940  -29.8960   21.7570 H   0  0  0  0  0  0  0  0  0  0  0  0
  -18.0860  -28.1260   22.9250 C   0  0  0  0  0  0  0  0  0  0  0  0
  -20.6450  -28.3880   23.2030 C   0  0  0  0  0  3  0  0  0  0  0  0
  -20.7480  -26.9650   22.6080 C   0  0  0  0  0  2  0  0  0  0  0  0
  -19.6510  -26.6570   21.5850 C   0  0  0  0  0  2  0  0  0  0  0  0
  -18.2660  -26.7900   22.2260 C   0  0  0  0  0  2  0  0  0  0  0  0
  -19.2030  -28.8840   23.3700 C   0  0  0  0  0  0  0  0  0  0  0  0
  -18.9790  -30.1340   23.9870 C   0  0  0  0  0  3  0  0  0  0  0  0
  -17.6720  -30.6280   24.1600 C   0  0  0  0  0  3  0  0  0  0  0  0
  -16.5710  -29.8680   23.7300 C   0  0  0  0  0  3  0  0  0  0  0  0
  -16.7780  -28.6190   23.1180 C   0  0  0  0  0  3  0  0  0  0  0  0
  -25.9470  -32.5220   23.9550 C   0  0  0  0  0  3  0  0  0  0  0  0
  -25.6410  -33.9280   24.2710 N   0  0  0  0  0  0  0  0  0  0  0  0
  -25.9570  -34.9760   23.4970 C   0  0  0  0  0  0  0  0  0  0  0  0
  -26.6010  -34.8590   22.4520 O   0  0  0  0  0  0  0  0  0  0  0  0
  -25.0620  -34.0910   25.0820 H   0  0  0  0  0  0  0  0  0  0  0  0
  -24.2090  -36.7640   23.1910 C   0  0  0  0  0  1  0  0  0  0  0  0
  -25.4860  -36.3720   23.9530 C   0  0  0  0  0  3  0  0  0  0  0  0
  -27.6450  -37.2870   24.6850 C   0  0  0  0  0  1  0  0  0  0  0  0
  -26.5100  -37.4250   23.7770 N   0  0  0  0  0  0  0  0  0  0  0  0
  -26.1050  -38.3490   23.9110 H   0  0  0  0  0  0  0  0  0  0  0  0
  -26.4210  -31.7630   25.2560 C   0  0  1  0  0  0  0  0  0  0  0  0
  -25.2980  -31.5530   26.2990 C   0  0  0  0  0  1  0  0  0  0  0  0
  -26.9980  -30.3730   24.9060 C   0  0  0  0  0  1  0  0  0  0  0  0
  -27.5620  -32.5540   25.9370 C   0  0  0  0  0  1  0  0  0  0  0  0
  2  4  2  0
  3  5  1  0
  3 47  1  0
  4  1  1  0
  4 17  1  0
  5  1  2  0
  5  7  1  0
  6  2  1  0
  6  3  2  0
  8  6  1  0
  9 17  1  0
 10 15  1  0
 11 12  1  0
 11 10  1  0
 13 12  1  0
 13 22  1  0
 13 14  1  0
 15  9  1  0
 15 14  1  0
 16  9  2  0
 17 18  1  0
 19 20  2  0
 20 39  1  0
 21 20  1  0
 21 24  1  0
 22 19  1  0
 22 23  1  0
 23 21  2  0
 24 25  1  0
 25 26  2  0
 27 30  1  0
 27 26  1  0
 28 27  2  0
 29 28  1  0
 29 24  2  0
 30 31  1  0
 31 32  1  0
 32 33  2  0
 34 33  1  0
 34 38  1  0
 35 34  2  0
 36 31  2  0
 36 35  1  0
 37 36  1  0
 39 40  1  0
 40 43  1  0
 40 42  1  0
 41 39  2  0
 44 45  1  0
 44 19  1  0
 46 44  1  0
 47 48  1  0
 49 50  1  0
 49 47  1  0
 51 62  2  0
 52 50  1  0
 52 57  1  0
 53 61  1  0
 53 63  1  0
 54 60  1  0
 54 56  1  0
 55 61  1  0
 56 55  1  0
 57 56  2  0
 58 52  2  0
 59 58  1  0
 59 54  2  0
 60 53  1  0
 61 51  1  0
 63 65  2  0
 64 63  1  0
 66 64  1  0
 67 76  2  0
 67 72  1  0
 68 64  1  0
 68 72  1  0
 69 68  1  0
 70 71  1  0
 70 69  1  0
 71 67  1  0
 72 73  2  0
 73 74  1  0
 75 74  2  0
 76 75  1  0
 77 51  1  0
 77 78  1  0
 77 87  1  0
 78 81  1  0
 79 83  1  0
 79 78  1  0
 80 79  2  0
 83 82  1  0
 85 86  1  0
 85 83  1  0
 85 84  1  0
 87 90  1  1
 87 88  1  0
 89 87  1  0
M  ISO  4   9 100  17 100  49 101  50 101
M  END
>  <TORSDO>  (43) 
F 18

>  <SCORE>  (43) 
-15.444

>  <name>  (43) 
43

>  <ligand_id>  (43) 
43

>  <original_smiles>  (43) 
[H]c1c([H])c([H])c2c(c1[H])C([H])([H])C([H])([H])C([H])([H])C2([H])N([H])C(=O)C1([H])N(C(=O)C([H])(N([H])C(=O)C([H])(N([H])C([H])([H])[H])C([H])([H])[H])C(C([H])([H])[H])(C([H])([H])[H])C([H])([H])[H])C([H])([H])c2c([H])c(OC([H])([H])C([H])(F)c3c(F)c([H])c(N([H])C(=O)N4C([H])([H])C([H])([H])C([H])([H])C([H])(n5nc(-c6c([H])c([H])c(Oc7c([H])c([H])c(F)c([H])c7F)c([H])c6[H])c(C(=O)N([H])[H])c5N([H])[H])C4([H])[H])c([H])c3F)c([H])c([H])c2C1([H])[H]

>  <smiles>  (43) 
[H]c1c([H])c([H])c2c(c1[H])C([H])([H])C([H])([H])C([H])([H])C2([H])N([H])C(=O)C1([H])N(C(=O)C([H])(N([H])C(=O)C([H])(N([H])C([H])([H])[H])C([H])([H])[H])C(C([H])([H])[H])(C([H])([H])[H])C([H])([H])[H])C([H])([H])c2c([H])c(OC([H])([H])C([H])(F)c3c(F)c([H])c(N([H])C(=O)N4C([H])([H])C([H])([H])C([H])([H])C([H])(n5nc(-c6c([H])c([H])c(Oc7c([H])c([H])c(F)c([H])c7F)c([H])c6[H])c(C(=O)N([H])[H])c5N([H])[H])C4([H])[H])c([H])c3F)c([H])c([H])c2C1([H])[H]

$$$$
44:0:0
     RDKit          3D

 93101  0  0  1  0  0  0  0  0999 V2000
  -29.8470  -21.7420   20.7750 N   0  0  0  0  0  0  0  0  0  0  0  0
  -30.8100  -22.0700   20.7830 H   0  0  0  0  0  0  0  0  0  0  0  0
  -30.7480  -19.3920   20.8300 C   0  0  0  0  0  2  0  0  0  0  0  0
  -28.4190  -19.6900   20.2660 C   0  0  0  0  0  2  0  0  0  0  0  0
  -29.7920  -20.4010   20.1550 C   0  0  0  0  0  3  0  0  0  0  0  0
  -30.1130  -18.0120   20.5510 C   0  0  0  0  0  3  0  0  0  0  0  0
  -28.6680  -18.2810   20.6570 N   0  0  0  0  0  4  0  0  0  0  0  0
  -28.1310  -17.6500   20.0870 H   0  0  0  0  0  0  0  0  0  0  0  0
  -28.3820  -18.1760   21.6160 H   0  0  0  0  0  0  0  0  0  0  0  0
  -30.6060  -16.8440   21.4640 C   0  0  0  0  0  2  0  0  0  0  0  0
  -30.6790  -14.5080   20.5040 C   0  0  0  0  0  0  0  0  0  0  0  0
  -30.3590  -12.3610   19.3210 C   0  0  0  0  0  2  0  0  0  0  0  0
  -29.4140  -12.5620   18.1190 C   0  0  0  0  0  2  0  0  0  0  0  0
  -27.9420  -12.4200   18.5540 C   0  0  0  0  0  2  0  0  0  0  0  0
  -27.6080  -13.2540   19.8190 C   0  0  0  0  0  3  0  0  0  0  0  0
  -28.6660  -13.0350   20.9250 C   0  0  0  0  0  2  0  0  0  0  0  0
  -29.9890  -13.3430   20.3540 N   0  0  0  0  0  0  0  0  0  0  0  0
  -31.7870  -14.6950   19.9950 O   0  0  0  0  0  0  0  0  0  0  0  0
  -30.0440  -15.5060   21.1580 N   0  0  0  0  0  0  0  0  0  0  0  0
  -29.1430  -15.2730   21.5490 H   0  0  0  0  0  0  0  0  0  0  0  0
  -25.2100  -13.8630   20.5260 C   0  0  0  0  0  0  0  0  0  0  0  0
  -24.1430  -13.0930   20.9010 C   0  0  0  0  0  0  0  0  0  0  0  0
  -24.6030  -11.7410   20.8740 C   0  0  0  0  0  0  0  0  0  0  0  0
  -26.2550  -12.9810   20.2990 N   0  0  0  0  0  0  0  0  0  0  0  0
  -25.8930  -11.7000   20.5650 N   0  0  0  0  0  0  0  0  0  0  0  0
  -23.8760  -10.4800   21.0670 C   0  0  0  0  0  0  0  0  0  0  0  0
  -24.3200   -9.5050   21.9870 C   0  0  0  0  0  3  0  0  0  0  0  0
  -23.5940   -8.3090   22.1670 C   0  0  0  0  0  3  0  0  0  0  0  0
  -22.4080   -8.0790   21.4300 C   0  0  0  0  0  0  0  0  0  0  0  0
  -21.9830   -9.0430   20.5000 C   0  0  0  0  0  3  0  0  0  0  0  0
  -22.7090  -10.2310   20.3160 C   0  0  0  0  0  3  0  0  0  0  0  0
  -21.6520   -6.9360   21.5220 O   0  0  0  0  0  0  0  0  0  0  0  0
  -21.6320   -6.1760   22.6640 C   0  0  0  0  0  0  0  0  0  0  0  0
  -21.2530   -6.7170   23.9120 C   0  0  0  0  0  3  0  0  0  0  0  0
  -21.1790   -5.8840   25.0470 C   0  0  0  0  0  3  0  0  0  0  0  0
  -21.4740   -4.5120   24.9350 C   0  0  0  0  0  0  0  0  0  0  0  0
  -21.8470   -3.9710   23.6920 C   0  0  0  0  0  3  0  0  0  0  0  0
  -21.9220   -4.8010   22.5590 C   0  0  0  0  0  0  0  0  0  0  0  0
  -22.2610   -4.2710   21.3590 F   0  0  0  0  0  0  0  0  0  0  0  0
  -21.3960   -3.7100   26.0220 F   0  0  0  0  0  0  0  0  0  0  0  0
  -22.7460  -13.5730   21.1720 C   0  0  0  0  0  0  0  0  0  0  0  0
  -22.0180  -12.8810   22.0410 N   0  0  0  0  0  0  0  0  0  0  0  0
  -22.3090  -14.5960   20.6470 O   0  0  0  0  0  0  0  0  0  0  0  0
  -22.3830  -12.0540   22.4880 H   0  0  0  0  0  0  0  0  0  0  0  0
  -21.0810  -13.1840   22.2640 H   0  0  0  0  0  0  0  0  0  0  0  0
  -25.3750  -15.2320   20.3370 N   0  0  0  0  0  0  0  0  0  0  0  0
  -24.5880  -15.8700   20.3900 H   0  0  0  0  0  0  0  0  0  0  0  0
  -26.1810  -15.6310   19.8760 H   0  0  0  0  0  0  0  0  0  0  0  0
  -29.0680  -22.7480   20.0200 C   0  0  0  0  0  2  0  0  0  0  0  0
  -29.2120  -24.2390   20.4430 C   0  0  0  0  0  0  0  0  0  0  0  0
  -30.1020  -24.6020   21.2210 O   0  0  0  0  0  0  0  0  0  0  0  0
  -28.1910  -25.2260   19.8280 C   0  0  0  0  0  2  0  0  0  0  0  0
  -28.3510  -26.6180   20.2180 O   0  0  0  0  0  0  0  0  0  0  0  0
  -24.5930  -31.9030   23.2420 C   0  0  0  0  0  0  0  0  0  0  0  0
  -27.2040  -27.4060   20.1650 C   0  0  0  0  0  0  0  0  0  0  0  0
  -23.3820  -30.5090   21.6020 C   0  0  0  0  0  3  0  0  0  0  0  0
  -24.8270  -28.9680   20.1730 C   0  0  0  0  0  0  0  0  0  0  0  0
  -25.9160  -30.8400   21.4130 C   0  0  0  0  0  2  0  0  0  0  0  0
  -25.9930  -29.4670   20.7690 C   0  0  0  0  0  0  0  0  0  0  0  0
  -27.1820  -28.6940   20.7640 C   0  0  0  0  0  3  0  0  0  0  0  0
  -26.0170  -26.9500   19.5400 C   0  0  0  0  0  3  0  0  0  0  0  0
  -24.8370  -27.7110   19.5560 C   0  0  0  0  0  3  0  0  0  0  0  0
  -23.5900  -29.8360   20.2210 C   0  0  0  0  0  2  0  0  0  0  0  0
  -24.6490  -31.0990   22.1430 N   0  0  0  0  0  0  0  0  0  0  0  0
  -23.5120  -32.1820   23.7800 O   0  0  0  0  0  0  0  0  0  0  0  0
  -22.7230  -29.4890   22.5590 C   0  0  0  0  0  0  0  0  0  0  0  0
  -21.3980  -29.3140   22.4310 N   0  0  0  0  0  0  0  0  0  0  0  0
  -23.4020  -28.8580   23.3740 O   0  0  0  0  0  0  0  0  0  0  0  0
  -20.9110  -29.8750   21.7460 H   0  0  0  0  0  0  0  0  0  0  0  0
  -18.0150  -28.1410   22.9290 C   0  0  0  0  0  0  0  0  0  0  0  0
  -20.5740  -28.3810   23.2010 C   0  0  0  0  0  3  0  0  0  0  0  0
  -20.6670  -26.9500   22.6240 C   0  0  0  0  0  2  0  0  0  0  0  0
  -19.5630  -26.6360   21.6100 C   0  0  0  0  0  2  0  0  0  0  0  0
  -18.1820  -26.7900   22.2550 C   0  0  0  0  0  2  0  0  0  0  0  0
  -19.1390  -28.8950   23.3610 C   0  0  0  0  0  0  0  0  0  0  0  0
  -18.9280  -30.1600   23.9510 C   0  0  0  0  0  3  0  0  0  0  0  0
  -17.6280  -30.6700   24.1150 C   0  0  0  0  0  3  0  0  0  0  0  0
  -16.5180  -29.9140   23.7020 C   0  0  0  0  0  3  0  0  0  0  0  0
  -16.7130  -28.6500   23.1150 C   0  0  0  0  0  3  0  0  0  0  0  0
  -25.8810  -32.5280   23.8630 C   0  0  0  0  0  3  0  0  0  0  0  0
  -25.5780  -33.9260   24.1930 N   0  0  0  0  0  0  0  0  0  0  0  0
  -25.9100  -34.9770   23.4310 C   0  0  0  0  0  0  0  0  0  0  0  0
  -26.5750  -34.8700   22.3970 O   0  0  0  0  0  0  0  0  0  0  0  0
  -24.9880  -34.0840   24.9970 H   0  0  0  0  0  0  0  0  0  0  0  0
  -24.1820  -36.7710   23.0840 C   0  0  0  0  0  1  0  0  0  0  0  0
  -25.4280  -36.3670   23.8890 C   0  0  0  0  0  3  0  0  0  0  0  0
  -27.5700  -37.2470   24.7010 C   0  0  0  0  0  1  0  0  0  0  0  0
  -26.4620  -37.4170   23.7670 N   0  0  0  0  0  0  0  0  0  0  0  0
  -26.0580  -38.3390   23.9160 H   0  0  0  0  0  0  0  0  0  0  0  0
  -26.3960  -31.7520   25.1370 C   0  0  1  0  0  0  0  0  0  0  0  0
  -25.3050  -31.5180   26.2060 C   0  0  0  0  0  1  0  0  0  0  0  0
  -26.9720  -30.3720   24.7410 C   0  0  0  0  0  1  0  0  0  0  0  0
  -27.5520  -32.5400   25.7970 C   0  0  0  0  0  1  0  0  0  0  0  0
  1  2  1  0
  4  7  1  0
  5  4  1  0
  5  1  1  0
  5  3  1  0
  6  7  1  0
  6  3  1  0
  6 10  1  0
  7  9  1  0
  8  7  1  0
 11 19  1  0
 12 17  1  0
 13 14  1  0
 13 12  1  0
 15 14  1  0
 15 24  1  0
 15 16  1  0
 17 11  1  0
 17 16  1  0
 18 11  2  0
 19 10  1  0
 19 20  1  0
 21 22  2  0
 22 41  1  0
 23 22  1  0
 23 26  1  0
 24 21  1  0
 24 25  1  0
 25 23  2  0
 26 27  1  0
 27 28  2  0
 29 32  1  0
 29 28  1  0
 30 29  2  0
 31 30  1  0
 31 26  2  0
 32 33  1  0
 33 34  1  0
 34 35  2  0
 36 35  1  0
 36 40  1  0
 37 36  2  0
 38 33  2  0
 38 37  1  0
 39 38  1  0
 41 42  1  0
 42 45  1  0
 42 44  1  0
 43 41  2  0
 46 47  1  0
 46 21  1  0
 48 46  1  0
 49 50  1  0
 49  1  1  0
 50 51  2  0
 52 53  1  0
 52 50  1  0
 54 65  2  0
 55 53  1  0
 55 60  1  0
 56 64  1  0
 56 66  1  0
 57 63  1  0
 57 59  1  0
 58 64  1  0
 59 58  1  0
 60 59  2  0
 61 62  1  0
 61 55  2  0
 62 57  2  0
 63 56  1  0
 64 54  1  0
 66 68  2  0
 67 66  1  0
 69 67  1  0
 70 79  2  0
 70 75  1  0
 71 67  1  0
 71 75  1  0
 72 71  1  0
 73 74  1  0
 73 72  1  0
 74 70  1  0
 75 76  2  0
 76 77  1  0
 78 77  2  0
 79 78  1  0
 80 54  1  0
 80 81  1  0
 80 90  1  0
 81 84  1  0
 82 86  1  0
 82 81  1  0
 83 82  2  0
 86 85  1  0
 88 86  1  0
 88 89  1  0
 88 87  1  0
 90 93  1  1
 90 91  1  0
 92 90  1  0
M  ISO  4  11 100  19 100  52 101  53 101
M  END
>  <TORSDO>  (44) 
F 21

>  <SCORE>  (44) 
-13.849

>  <name>  (44) 
44

>  <ligand_id>  (44) 
44

>  <original_smiles>  (44) 
[H]c1c([H])c([H])c2c(c1[H])C([H])([H])C([H])([H])C([H])([H])C2([H])N([H])C(=O)C1([H])N(C(=O)C([H])(N([H])C(=O)C([H])(N([H])C([H])([H])[H])C([H])([H])[H])C(C([H])([H])[H])(C([H])([H])[H])C([H])([H])[H])C([H])([H])c2c([H])c(OC([H])([H])C(=O)C([H])([H])N([H])C3([H])C([H])([H])C([H])(C([H])([H])N([H])C(=O)N4C([H])([H])C([H])([H])C([H])([H])C([H])(n5nc(-c6c([H])c([H])c(Oc7c([H])c([H])c(F)c([H])c7F)c([H])c6[H])c(C(=O)N([H])[H])c5N([H])[H])C4([H])[H])[N+]([H])([H])C3([H])[H])c([H])c([H])c2C1([H])[H]

>  <smiles>  (44) 
[H]c1c([H])c([H])c2c(c1[H])C([H])([H])C([H])([H])C([H])([H])C2([H])N([H])C(=O)C1([H])N(C(=O)C([H])(N([H])C(=O)C([H])(N([H])C([H])([H])[H])C([H])([H])[H])C(C([H])([H])[H])(C([H])([H])[H])C([H])([H])[H])C([H])([H])c2c([H])c(OC([H])([H])C(=O)C([H])([H])N([H])C3([H])C([H])([H])C([H])(C([H])([H])N([H])C(=O)N4C([H])([H])C([H])([H])C([H])([H])C([H])(n5nc(-c6c([H])c([H])c(Oc7c([H])c([H])c(F)c([H])c7F)c([H])c6[H])c(C(=O)N([H])[H])c5N([H])[H])C4([H])[H])[N+]([H])([H])C3([H])[H])c([H])c([H])c2C1([H])[H]

$$$$
45:0:0
     RDKit          3D

 96104  0  0  1  0  0  0  0  0999 V2000
  -29.7580  -21.9000   20.9030 C   0  0  0  0  0  0  0  0  0  0  0  0
  -30.1820  -20.9350   21.7430 N   0  0  0  0  0  0  0  0  0  0  0  0
  -29.5130  -21.7090   19.7090 O   0  0  0  0  0  0  0  0  0  0  0  0
  -30.2870  -21.2300   22.7050 H   0  0  0  0  0  0  0  0  0  0  0  0
  -30.2460  -18.6720   22.6220 C   0  0  0  0  0  3  0  0  0  0  0  0
  -30.5800  -18.9640   20.2340 C   0  0  0  0  0  3  0  0  0  0  0  0
  -30.3440  -17.2730   22.4650 C   0  0  0  0  0  3  0  0  0  0  0  0
  -30.6880  -17.5620   20.0790 C   0  0  0  0  0  3  0  0  0  0  0  0
  -30.3330  -19.5340   21.5080 C   0  0  0  0  0  0  0  0  0  0  0  0
  -30.5520  -16.7000   21.1930 C   0  0  0  0  0  0  0  0  0  0  0  0
  -30.9960  -14.4710   20.1300 C   0  0  0  0  0  0  0  0  0  0  0  0
  -30.6050  -12.3720   18.8830 C   0  0  0  0  0  2  0  0  0  0  0  0
  -29.5880  -12.6160   17.7490 C   0  0  0  0  0  2  0  0  0  0  0  0
  -28.1420  -12.4740   18.2630 C   0  0  0  0  0  2  0  0  0  0  0  0
  -27.8920  -13.2750   19.5670 C   0  0  0  0  0  3  0  0  0  0  0  0
  -29.0040  -12.9940   20.5990 C   0  0  0  0  0  2  0  0  0  0  0  0
  -30.3090  -13.3050   19.9810 N   0  0  0  0  0  0  0  0  0  0  0  0
  -31.9930  -14.7520   19.4560 O   0  0  0  0  0  0  0  0  0  0  0  0
  -30.5290  -15.2760   21.1010 N   0  0  0  0  0  0  0  0  0  0  0  0
  -29.8910  -14.8180   21.7340 H   0  0  0  0  0  0  0  0  0  0  0  0
  -25.5460  -13.8820   20.4370 C   0  0  0  0  0  0  0  0  0  0  0  0
  -24.4930  -13.1090   20.8480 C   0  0  0  0  0  0  0  0  0  0  0  0
  -24.9360  -11.7550   20.7480 C   0  0  0  0  0  0  0  0  0  0  0  0
  -26.5650  -13.0000   20.1160 N   0  0  0  0  0  0  0  0  0  0  0  0
  -26.2040  -11.7140   20.3570 N   0  0  0  0  0  0  0  0  0  0  0  0
  -24.2100  -10.4940   20.9490 C   0  0  0  0  0  0  0  0  0  0  0  0
  -24.6350   -9.5410   21.9000 C   0  0  0  0  0  3  0  0  0  0  0  0
  -23.9110   -8.3440   22.0870 C   0  0  0  0  0  3  0  0  0  0  0  0
  -22.7480   -8.0910   21.3220 C   0  0  0  0  0  0  0  0  0  0  0  0
  -22.3400   -9.0340   20.3620 C   0  0  0  0  0  3  0  0  0  0  0  0
  -23.0650  -10.2230   20.1740 C   0  0  0  0  0  3  0  0  0  0  0  0
  -21.9960   -6.9440   21.4170 O   0  0  0  0  0  0  0  0  0  0  0  0
  -21.8460   -6.2780   22.6060 C   0  0  0  0  0  0  0  0  0  0  0  0
  -21.3010   -6.9060   23.7470 C   0  0  0  0  0  3  0  0  0  0  0  0
  -21.0980   -6.1650   24.9280 C   0  0  0  0  0  3  0  0  0  0  0  0
  -21.4320   -4.7980   24.9710 C   0  0  0  0  0  0  0  0  0  0  0  0
  -21.9690   -4.1700   23.8330 C   0  0  0  0  0  3  0  0  0  0  0  0
  -22.1730   -4.9070   22.6540 C   0  0  0  0  0  0  0  0  0  0  0  0
  -22.6710   -4.2930   21.5540 F   0  0  0  0  0  0  0  0  0  0  0  0
  -21.2300   -4.0840   26.1020 F   0  0  0  0  0  0  0  0  0  0  0  0
  -23.1220  -13.5910   21.2230 C   0  0  0  0  0  0  0  0  0  0  0  0
  -22.4500  -12.8880   22.1280 N   0  0  0  0  0  0  0  0  0  0  0  0
  -22.6550  -14.6260   20.7470 O   0  0  0  0  0  0  0  0  0  0  0  0
  -22.8410  -12.0510   22.5360 H   0  0  0  0  0  0  0  0  0  0  0  0
  -21.5320  -13.1920   22.4200 H   0  0  0  0  0  0  0  0  0  0  0  0
  -25.7140  -15.2550   20.2930 N   0  0  0  0  0  0  0  0  0  0  0  0
  -24.9620  -15.9130   20.4700 H   0  0  0  0  0  0  0  0  0  0  0  0
  -26.5560  -15.6990   19.9500 H   0  0  0  0  0  0  0  0  0  0  0  0
  -29.5330  -23.3010   21.5110 C   0  0  0  0  0  2  0  0  0  0  0  0
  -29.0990  -24.4190   20.5060 C   0  0  0  0  0  3  0  0  0  0  0  0
  -27.9390  -24.0060   19.6790 N   0  0  0  0  0  4  0  0  0  0  0  0
  -27.1120  -23.8570   20.2330 H   0  0  0  0  0  0  0  0  0  0  0  0
  -28.1640  -23.1470   19.2010 H   0  0  0  0  0  0  0  0  0  0  0  0
  -27.7460  -24.7050   18.9810 H   0  0  0  0  0  0  0  0  0  0  0  0
  -28.8020  -25.7730   21.1970 C   0  0  0  0  0  2  0  0  0  0  0  0
  -28.7190  -26.8280   20.2270 O   0  0  0  0  0  0  0  0  0  0  0  0
  -24.6930  -31.8580   23.2680 C   0  0  0  0  0  0  0  0  0  0  0  0
  -27.5340  -27.5260   20.2330 C   0  0  0  0  0  0  0  0  0  0  0  0
  -23.5600  -30.4260   21.5980 C   0  0  0  0  0  3  0  0  0  0  0  0
  -25.0920  -28.9400   20.2000 C   0  0  0  0  0  0  0  0  0  0  0  0
  -26.0730  -30.8700   21.4470 C   0  0  0  0  0  2  0  0  0  0  0  0
  -26.2170  -29.5030   20.8140 C   0  0  0  0  0  0  0  0  0  0  0  0
  -27.4430  -28.8010   20.8320 C   0  0  0  0  0  3  0  0  0  0  0  0
  -26.3970  -26.9780   19.6070 C   0  0  0  0  0  3  0  0  0  0  0  0
  -25.1740  -27.6740   19.5970 C   0  0  0  0  0  3  0  0  0  0  0  0
  -23.8190  -29.7550   20.2210 C   0  0  0  0  0  2  0  0  0  0  0  0
  -24.7910  -31.0660   22.1640 N   0  0  0  0  0  0  0  0  0  0  0  0
  -23.5940  -32.0930   23.7920 O   0  0  0  0  0  0  0  0  0  0  0  0
  -22.9270  -29.3800   22.5430 C   0  0  0  0  0  0  0  0  0  0  0  0
  -21.6160  -29.1390   22.3740 N   0  0  0  0  0  0  0  0  0  0  0  0
  -23.6110  -28.7880   23.3810 O   0  0  0  0  0  0  0  0  0  0  0  0
  -21.1240  -29.6710   21.6710 H   0  0  0  0  0  0  0  0  0  0  0  0
  -18.2920  -27.7750   22.7410 C   0  0  0  0  0  0  0  0  0  0  0  0
  -20.8190  -28.1680   23.1210 C   0  0  0  0  0  3  0  0  0  0  0  0
  -21.0220  -26.7380   22.5660 C   0  0  0  0  0  2  0  0  0  0  0  0
  -19.9820  -26.3460   21.5110 C   0  0  0  0  0  2  0  0  0  0  0  0
  -18.5670  -26.4280   22.0920 C   0  0  0  0  0  2  0  0  0  0  0  0
  -19.3510  -28.5980   23.2090 C   0  0  0  0  0  0  0  0  0  0  0  0
  -19.0410  -29.8570   23.7690 C   0  0  0  0  0  3  0  0  0  0  0  0
  -17.7060  -30.2930   23.8700 C   0  0  0  0  0  3  0  0  0  0  0  0
  -16.6630  -29.4660   23.4210 C   0  0  0  0  0  3  0  0  0  0  0  0
  -16.9560  -28.2090   22.8620 C   0  0  0  0  0  3  0  0  0  0  0  0
  -25.9480  -32.5250   23.9130 C   0  0  0  0  0  3  0  0  0  0  0  0
  -25.6000  -33.9190   24.2190 N   0  0  0  0  0  0  0  0  0  0  0  0
  -25.9210  -34.9670   23.4490 C   0  0  0  0  0  0  0  0  0  0  0  0
  -26.6120  -34.8640   22.4310 O   0  0  0  0  0  0  0  0  0  0  0  0
  -24.9910  -34.0710   25.0090 H   0  0  0  0  0  0  0  0  0  0  0  0
  -24.1550  -36.7090   23.0340 C   0  0  0  0  0  1  0  0  0  0  0  0
  -25.3910  -36.3490   23.8750 C   0  0  0  0  0  3  0  0  0  0  0  0
  -27.4840  -37.3020   24.7320 C   0  0  0  0  0  1  0  0  0  0  0  0
  -26.3980  -37.4260   23.7630 N   0  0  0  0  0  0  0  0  0  0  0  0
  -25.9670  -38.3380   23.8870 H   0  0  0  0  0  0  0  0  0  0  0  0
  -26.4540  -31.7780   25.2070 C   0  0  1  0  0  0  0  0  0  0  0  0
  -25.3390  -31.5150   26.2470 C   0  0  0  0  0  1  0  0  0  0  0  0
  -27.0900  -30.4170   24.8380 C   0  0  0  0  0  1  0  0  0  0  0  0
  -27.5600  -32.6120   25.8960 C   0  0  0  0  0  1  0  0  0  0  0  0
  1 49  1  0
  1  2  1  0
  2  4  1  0
  3  1  2  0
  6  9  1  0
  7  5  1  0
  8  6  2  0
  8 10  1  0
  9  2  1  0
  9  5  2  0
 10  7  2  0
 11 19  1  0
 12 17  1  0
 13 14  1  0
 13 12  1  0
 15 14  1  0
 15 24  1  0
 15 16  1  0
 17 11  1  0
 17 16  1  0
 18 11  2  0
 19 10  1  0
 19 20  1  0
 21 22  2  0
 22 41  1  0
 23 22  1  0
 23 26  1  0
 24 25  1  0
 24 21  1  0
 25 23  2  0
 26 27  1  0
 27 28  2  0
 29 32  1  0
 29 28  1  0
 30 29  2  0
 31 30  1  0
 31 26  2  0
 32 33  1  0
 33 38  2  0
 33 34  1  0
 34 35  2  0
 35 36  1  0
 36 40  1  0
 37 36  2  0
 38 37  1  0
 39 38  1  0
 41 42  1  0
 42 45  1  0
 42 44  1  0
 43 41  2  0
 46 21  1  0
 46 47  1  0
 48 46  1  0
 50 55  1  0
 50 49  1  0
 51 52  1  0
 51 50  1  0
 53 51  1  0
 54 51  1  0
 56 58  1  0
 56 55  1  0
 57 68  2  0
 58 63  1  0
 59 67  1  0
 59 69  1  0
 60 66  1  0
 60 62  1  0
 61 67  1  0
 62 63  2  0
 62 61  1  0
 64 58  2  0
 65 64  1  0
 65 60  2  0
 66 59  1  0
 67 57  1  0
 69 71  2  0
 70 69  1  0
 72 70  1  0
 73 82  2  0
 73 78  1  0
 74 70  1  0
 74 78  1  0
 75 74  1  0
 76 77  1  0
 76 75  1  0
 77 73  1  0
 78 79  2  0
 79 80  1  0
 81 80  2  0
 82 81  1  0
 83 57  1  0
 83 84  1  0
 83 93  1  0
 84 87  1  0
 85 89  1  0
 85 84  1  0
 86 85  2  0
 89 88  1  0
 91 89  1  0
 91 92  1  0
 91 90  1  0
 93 96  1  1
 93 94  1  0
 95 93  1  0
M  ISO  4  11 100  19 100  55 101  56 101
M  END
>  <TORSDO>  (45) 
F 21

>  <SCORE>  (45) 
-12.656

>  <name>  (45) 
45

>  <ligand_id>  (45) 
45

>  <original_smiles>  (45) 
[H]c1c([H])c([H])c2c(c1[H])C([H])([H])C([H])([H])C([H])([H])C2([H])N([H])C(=O)C1([H])N(C(=O)C([H])(N([H])C(=O)C([H])(N([H])C([H])([H])[H])C([H])([H])[H])C(C([H])([H])[H])(C([H])([H])[H])C([H])([H])[H])C([H])([H])c2c([H])c(OC([H])([H])C([H])(C([H])([H])C(=O)N([H])c3c([H])c([H])c(N([H])C(=O)N4C([H])([H])C([H])([H])C([H])([H])C([H])(n5nc(-c6c([H])c([H])c(Oc7c([H])c([H])c(F)c([H])c7F)c([H])c6[H])c(C(=O)N([H])[H])c5N([H])[H])C4([H])[H])c([H])c3[H])[N+]([H])([H])[H])c([H])c([H])c2C1([H])[H]

>  <smiles>  (45) 
[H]c1c([H])c([H])c2c(c1[H])C([H])([H])C([H])([H])C([H])([H])C2([H])N([H])C(=O)C1([H])N(C(=O)C([H])(N([H])C(=O)C([H])(N([H])C([H])([H])[H])C([H])([H])[H])C(C([H])([H])[H])(C([H])([H])[H])C([H])([H])[H])C([H])([H])c2c([H])c(OC([H])([H])C([H])(C([H])([H])C(=O)N([H])c3c([H])c([H])c(N([H])C(=O)N4C([H])([H])C([H])([H])C([H])([H])C([H])(n5nc(-c6c([H])c([H])c(Oc7c([H])c([H])c(F)c([H])c7F)c([H])c6[H])c(C(=O)N([H])[H])c5N([H])[H])C4([H])[H])c([H])c3[H])[N+]([H])([H])[H])c([H])c([H])c2C1([H])[H]

$$$$
46:0:0
     RDKit          3D

 96104  0  0  1  0  0  0  0  0999 V2000
  -29.3940  -21.2090   20.7600 C   0  0  0  0  0  3  0  0  0  0  0  0
  -30.8030  -17.9260   19.7410 C   0  0  0  0  0  3  0  0  0  0  0  0
  -28.3470  -18.7800   20.8880 C   0  0  0  0  0  0  0  0  0  0  0  0
  -29.1270  -17.6990   21.6590 C   0  0  0  0  0  2  0  0  0  0  0  0
  -30.2300  -16.9740   20.8280 C   0  0  0  0  0  3  0  0  0  0  0  0
  -29.1880  -19.7850   20.0370 C   0  0  0  0  0  3  0  0  0  0  0  0
  -30.4060  -19.1350   19.4720 N   0  0  0  0  0  0  0  0  0  0  0  0
  -27.1160  -18.8100   20.9430 O   0  0  0  0  0  0  0  0  0  0  0  0
  -30.5870  -14.5590   19.9310 C   0  0  0  0  0  0  0  0  0  0  0  0
  -30.2780  -12.4180   18.7110 C   0  0  0  0  0  2  0  0  0  0  0  0
  -29.2240  -12.6180   17.6020 C   0  0  0  0  0  2  0  0  0  0  0  0
  -27.7980  -12.4110   18.1520 C   0  0  0  0  0  2  0  0  0  0  0  0
  -27.5470  -13.1860   19.4720 C   0  0  0  0  0  3  0  0  0  0  0  0
  -28.7020  -12.9680   20.4740 C   0  0  0  0  0  2  0  0  0  0  0  0
  -29.9520  -13.3550   19.8000 N   0  0  0  0  0  0  0  0  0  0  0  0
  -31.7240  -14.7500   19.4920 O   0  0  0  0  0  0  0  0  0  0  0  0
  -29.8300  -15.5850   20.4140 N   0  0  0  0  0  0  0  0  0  0  0  0
  -28.8850  -15.3190   20.6420 H   0  0  0  0  0  0  0  0  0  0  0  0
  -25.2050  -13.7020   20.3940 C   0  0  0  0  0  0  0  0  0  0  0  0
  -24.1920  -12.8900   20.8310 C   0  0  0  0  0  0  0  0  0  0  0  0
  -24.6870  -11.5550   20.7320 C   0  0  0  0  0  0  0  0  0  0  0  0
  -26.2500  -12.8570   20.0580 N   0  0  0  0  0  0  0  0  0  0  0  0
  -25.9490  -11.5600   20.3220 N   0  0  0  0  0  0  0  0  0  0  0  0
  -24.0120  -10.2680   20.9500 C   0  0  0  0  0  0  0  0  0  0  0  0
  -24.4710   -9.3450   21.9150 C   0  0  0  0  0  3  0  0  0  0  0  0
  -23.7930   -8.1230   22.1170 C   0  0  0  0  0  3  0  0  0  0  0  0
  -22.6440   -7.8160   21.3530 C   0  0  0  0  0  0  0  0  0  0  0  0
  -22.2030   -8.7270   20.3760 C   0  0  0  0  0  3  0  0  0  0  0  0
  -22.8830   -9.9400   20.1730 C   0  0  0  0  0  3  0  0  0  0  0  0
  -21.9380   -6.6420   21.4610 O   0  0  0  0  0  0  0  0  0  0  0  0
  -21.8070   -5.9900   22.6620 C   0  0  0  0  0  0  0  0  0  0  0  0
  -21.2130   -6.6070   23.7840 C   0  0  0  0  0  3  0  0  0  0  0  0
  -21.0340   -5.8790   24.9760 C   0  0  0  0  0  3  0  0  0  0  0  0
  -21.4380   -4.5320   25.0460 C   0  0  0  0  0  0  0  0  0  0  0  0
  -22.0260   -3.9140   23.9290 C   0  0  0  0  0  3  0  0  0  0  0  0
  -22.2050   -4.6400   22.7380 C   0  0  0  0  0  0  0  0  0  0  0  0
  -22.7520   -4.0330   21.6570 F   0  0  0  0  0  0  0  0  0  0  0  0
  -21.2590   -3.8280   26.1890 F   0  0  0  0  0  0  0  0  0  0  0  0
  -22.8080  -13.3230   21.2220 C   0  0  0  0  0  0  0  0  0  0  0  0
  -22.1770  -12.5990   22.1400 N   0  0  0  0  0  0  0  0  0  0  0  0
  -22.2950  -14.3350   20.7480 O   0  0  0  0  0  0  0  0  0  0  0  0
  -22.6040  -11.7790   22.5450 H   0  0  0  0  0  0  0  0  0  0  0  0
  -21.2520  -12.8680   22.4440 H   0  0  0  0  0  0  0  0  0  0  0  0
  -25.3150  -15.0800   20.2350 N   0  0  0  0  0  0  0  0  0  0  0  0
  -24.5310  -15.7010   20.4100 H   0  0  0  0  0  0  0  0  0  0  0  0
  -26.1060  -15.5540   19.8220 H   0  0  0  0  0  0  0  0  0  0  0  0
  -29.3280  -22.4290   19.8540 N   0  0  0  0  0  4  0  0  0  0  0  0
  -28.5360  -22.2820   19.2470 H   0  0  0  0  0  0  0  0  0  0  0  0
  -30.1430  -22.4090   19.2610 H   0  0  0  0  0  0  0  0  0  0  0  0
  -29.1940  -23.8250   20.4690 C   0  0  0  0  0  3  0  0  0  0  0  0
  -28.5790  -24.9510   19.5270 C   0  0  0  0  0  3  0  0  0  0  0  0
  -28.6140  -26.3850   19.9340 O   0  0  0  0  0  0  0  0  0  0  0  0
  -24.6580  -31.5680   23.0040 C   0  0  0  0  0  0  0  0  0  0  0  0
  -27.4640  -27.1920   19.8510 C   0  0  0  0  0  0  0  0  0  0  0  0
  -23.5230  -30.1680   21.3170 C   0  0  0  0  0  3  0  0  0  0  0  0
  -25.0410  -28.7240   19.8550 C   0  0  0  0  0  0  0  0  0  0  0  0
  -26.0470  -30.5900   21.1630 C   0  0  0  0  0  2  0  0  0  0  0  0
  -26.1820  -29.2310   20.4860 C   0  0  0  0  0  0  0  0  0  0  0  0
  -27.3900  -28.4720   20.4860 C   0  0  0  0  0  3  0  0  0  0  0  0
  -26.3050  -26.7650   19.1560 C   0  0  0  0  0  3  0  0  0  0  0  0
  -25.1030  -27.4970   19.1810 C   0  0  0  0  0  3  0  0  0  0  0  0
  -23.7700  -29.5470   19.9180 C   0  0  0  0  0  2  0  0  0  0  0  0
  -24.7610  -30.7940   21.8860 N   0  0  0  0  0  0  0  0  0  0  0  0
  -23.5590  -31.7870   23.5360 O   0  0  0  0  0  0  0  0  0  0  0  0
  -22.8980  -29.0980   22.2430 C   0  0  0  0  0  0  0  0  0  0  0  0
  -21.5820  -28.8670   22.0980 N   0  0  0  0  0  0  0  0  0  0  0  0
  -23.5950  -28.4800   23.0540 O   0  0  0  0  0  0  0  0  0  0  0  0
  -21.0740  -29.4220   21.4230 H   0  0  0  0  0  0  0  0  0  0  0  0
  -18.2510  -27.5290   22.5550 C   0  0  0  0  0  0  0  0  0  0  0  0
  -20.7980  -27.8750   22.8360 C   0  0  0  0  0  3  0  0  0  0  0  0
  -20.9530  -26.4670   22.2160 C   0  0  0  0  0  2  0  0  0  0  0  0
  -19.8630  -26.1350   21.1910 C   0  0  0  0  0  2  0  0  0  0  0  0
  -18.4770  -26.2090   21.8370 C   0  0  0  0  0  2  0  0  0  0  0  0
  -19.3410  -28.3180   23.0110 C   0  0  0  0  0  0  0  0  0  0  0  0
  -19.0760  -29.5530   23.6410 C   0  0  0  0  0  3  0  0  0  0  0  0
  -17.7540  -29.9990   23.8190 C   0  0  0  0  0  3  0  0  0  0  0  0
  -16.6790  -29.2090   23.3790 C   0  0  0  0  0  3  0  0  0  0  0  0
  -16.9270  -27.9750   22.7520 C   0  0  0  0  0  3  0  0  0  0  0  0
  -25.9110  -32.2350   23.6520 C   0  0  0  0  0  3  0  0  0  0  0  0
  -25.5280  -33.5970   24.0480 N   0  0  0  0  0  0  0  0  0  0  0  0
  -25.8000  -34.7010   23.3380 C   0  0  0  0  0  0  0  0  0  0  0  0
  -26.4680  -34.6820   22.3010 O   0  0  0  0  0  0  0  0  0  0  0  0
  -24.9220  -33.6780   24.8500 H   0  0  0  0  0  0  0  0  0  0  0  0
  -23.9790  -36.4170   23.0770 C   0  0  0  0  0  1  0  0  0  0  0  0
  -25.2450  -36.0390   23.8620 C   0  0  0  0  0  3  0  0  0  0  0  0
  -27.3340  -37.0030   24.7260 C   0  0  0  0  0  1  0  0  0  0  0  0
  -26.2230  -37.1480   23.7880 N   0  0  0  0  0  0  0  0  0  0  0  0
  -25.7700  -38.0400   23.9690 H   0  0  0  0  0  0  0  0  0  0  0  0
  -26.4670  -31.4310   24.8900 C   0  0  1  0  0  0  0  0  0  0  0  0
  -25.3880  -31.0900   25.9440 C   0  0  0  0  0  1  0  0  0  0  0  0
  -27.1220  -30.1040   24.4360 C   0  0  0  0  0  1  0  0  0  0  0  0
  -27.5730  -32.2550   25.5890 C   0  0  0  0  0  1  0  0  0  0  0  0
  -30.6470  -21.2220   21.6770 C   0  0  0  0  0  2  0  0  0  0  0  0
  -31.4400  -21.5160   23.9150 C   0  0  0  0  0  1  0  0  0  0  0  0
  -30.3690  -21.8300   22.9780 N   0  0  0  0  0  0  0  0  0  0  0  0
  -29.4960  -21.4530   23.3440 H   0  0  0  0  0  0  0  0  0  0  0  0
  1 93  1  0
  2  5  1  0
  3  8  2  0
  3  4  1  0
  5 17  1  0
  5  4  1  0
  6  1  1  0
  6  3  1  0
  7  2  2  0
  7  6  1  0
  9 17  1  0
 10 15  1  0
 11 12  1  0
 11 10  1  0
 13 12  1  0
 13 22  1  0
 13 14  1  0
 15  9  1  0
 15 14  1  0
 16  9  2  0
 17 18  1  0
 19 20  2  0
 20 39  1  0
 21 20  1  0
 21 24  1  0
 22 23  1  0
 22 19  1  0
 23 21  2  0
 24 25  1  0
 25 26  2  0
 27 30  1  0
 27 26  1  0
 28 27  2  0
 29 28  1  0
 29 24  2  0
 30 31  1  0
 31 36  2  0
 31 32  1  0
 32 33  2  0
 33 34  1  0
 34 38  1  0
 35 34  2  0
 36 35  1  0
 37 36  1  0
 39 40  1  0
 40 43  1  0
 40 42  1  0
 41 39  2  0
 44 19  1  0
 44 45  1  0
 46 44  1  0
 47 50  1  0
 47  1  1  0
 48 47  1  0
 49 47  1  0
 51 52  1  0
 51 50  2  0
 53 64  2  0
 54 52  1  0
 54 59  1  0
 55 63  1  0
 55 65  1  0
 56 62  1  0
 56 58  1  0
 57 63  1  0
 58 59  2  0
 58 57  1  0
 60 61  1  0
 60 54  2  0
 61 56  2  0
 62 55  1  0
 63 53  1  0
 65 67  2  0
 66 65  1  0
 68 66  1  0
 69 78  2  0
 69 74  1  0
 70 66  1  0
 70 74  1  0
 71 70  1  0
 72 73  1  0
 72 71  1  0
 73 69  1  0
 74 75  2  0
 75 76  1  0
 77 76  2  0
 78 77  1  0
 79 53  1  0
 79 80  1  0
 79 89  1  0
 80 83  1  0
 81 85  1  0
 81 80  1  0
 82 81  2  0
 85 84  1  0
 87 85  1  0
 87 88  1  0
 87 86  1  0
 89 92  1  1
 89 90  1  0
 91 89  1  0
 93 95  1  0
 95 96  1  0
 95 94  1  0
M  ISO  4   9 100  17 100  51 101  52 101
M  END
>  <TORSDO>  (46) 
F 22

>  <SCORE>  (46) 
-11.007

>  <name>  (46) 
46

>  <ligand_id>  (46) 
46

>  <original_smiles>  (46) 
[H]C1=NC([H])(C([H])(C([H])([H])N([H])C([H])([H])[H])[N+]([H])([H])C([H])([H])C([H])([H])Oc2c([H])c([H])c3c(c2[H])C([H])([H])N(C(=O)C([H])(N([H])C(=O)C([H])(N([H])C([H])([H])[H])C([H])([H])[H])C(C([H])([H])[H])(C([H])([H])[H])C([H])([H])[H])C([H])(C(=O)N([H])C2([H])c4c([H])c([H])c([H])c([H])c4C([H])([H])C([H])([H])C2([H])[H])C3([H])[H])C(=O)C([H])([H])C1([H])N([H])C(=O)N1C([H])([H])C([H])([H])C([H])([H])C([H])(n2nc(-c3c([H])c([H])c(Oc4c([H])c([H])c(F)c([H])c4F)c([H])c3[H])c(C(=O)N([H])[H])c2N([H])[H])C1([H])[H]

>  <smiles>  (46) 
[H]C1=NC([H])(C([H])(C([H])([H])N([H])C([H])([H])[H])[N+]([H])([H])C([H])([H])C([H])([H])Oc2c([H])c([H])c3c(c2[H])C([H])([H])N(C(=O)C([H])(N([H])C(=O)C([H])(N([H])C([H])([H])[H])C([H])([H])[H])C(C([H])([H])[H])(C([H])([H])[H])C([H])([H])[H])C([H])(C(=O)N([H])C2([H])c4c([H])c([H])c([H])c([H])c4C([H])([H])C([H])([H])C2([H])[H])C3([H])[H])C(=O)C([H])([H])C1([H])N([H])C(=O)N1C([H])([H])C([H])([H])C([H])([H])C([H])(n2nc(-c3c([H])c([H])c(Oc4c([H])c([H])c(F)c([H])c4F)c([H])c3[H])c(C(=O)N([H])[H])c2N([H])[H])C1([H])[H]

$$$$
47:0:0
     RDKit          3D

 96104  0  0  1  0  0  0  0  0999 V2000
  -28.5310  -20.1160   21.7140 C   0  0  0  0  0  2  0  0  0  0  0  0
  -29.4090  -19.9790   19.3150 C   0  0  0  0  0  2  0  0  0  0  0  0
  -29.0760  -21.5640   21.7860 C   0  0  0  0  0  2  0  0  0  0  0  0
  -28.7730  -21.3840   19.3190 C   0  0  0  0  0  2  0  0  0  0  0  0
  -29.2490  -19.2300   20.6650 C   0  0  0  0  0  3  0  0  0  0  0  0
  -29.2630  -22.2100   20.4520 N   0  0  2  0  0  4  0  0  0  0  0  0
  -28.6760  -23.0320   20.4470 H   0  0  0  0  0  0  0  0  0  0  0  0
  -30.6010  -18.7060   21.1830 C   0  0  0  0  0  0  0  0  0  0  0  0
  -30.7600  -17.3790   21.2460 N   0  0  0  0  0  0  0  0  0  0  0  0
  -31.4830  -19.4950   21.5230 O   0  0  0  0  0  0  0  0  0  0  0  0
  -29.9880  -16.8000   20.9430 H   0  0  0  0  0  0  0  0  0  0  0  0
  -31.9530  -16.6890   21.7340 C   0  0  0  0  0  2  0  0  0  0  0  0
  -31.8600  -15.1780   21.4750 C   0  0  0  0  0  2  0  0  0  0  0  0
  -31.8780  -13.8230   19.4400 C   0  0  0  0  0  0  0  0  0  0  0  0
  -31.2310  -11.5550   18.7220 C   0  0  0  0  0  2  0  0  0  0  0  0
  -30.1700  -11.6250   17.6060 C   0  0  0  0  0  2  0  0  0  0  0  0
  -28.7540  -11.7180   18.2050 C   0  0  0  0  0  2  0  0  0  0  0  0
  -28.6410  -12.8180   19.2920 C   0  0  0  0  0  3  0  0  0  0  0  0
  -29.7910  -12.6960   20.3110 C   0  0  0  0  0  2  0  0  0  0  0  0
  -31.0720  -12.7370   19.5820 N   0  0  0  0  0  0  0  0  0  0  0  0
  -32.8410  -13.8620   18.6710 O   0  0  0  0  0  0  0  0  0  0  0  0
  -31.4990  -14.9310   20.0810 N   0  0  0  0  0  0  0  0  0  0  0  0
  -31.6960  -15.7530   19.5290 H   0  0  0  0  0  0  0  0  0  0  0  0
  -26.5670  -13.8340   20.4370 C   0  0  0  0  0  0  0  0  0  0  0  0
  -25.4080  -13.2670   20.8970 C   0  0  0  0  0  0  0  0  0  0  0  0
  -25.5320  -11.8650   20.6570 C   0  0  0  0  0  0  0  0  0  0  0  0
  -27.3350  -12.7860   19.9520 N   0  0  0  0  0  0  0  0  0  0  0  0
  -26.7210  -11.5890   20.1390 N   0  0  0  0  0  0  0  0  0  0  0  0
  -24.5650  -10.7750   20.8390 C   0  0  0  0  0  0  0  0  0  0  0  0
  -24.8690   -9.6410   21.6250 C   0  0  0  0  0  3  0  0  0  0  0  0
  -23.9170   -8.6150   21.7990 C   0  0  0  0  0  3  0  0  0  0  0  0
  -22.6440   -8.7160   21.1880 C   0  0  0  0  0  0  0  0  0  0  0  0
  -22.3560   -9.8350   20.3870 C   0  0  0  0  0  3  0  0  0  0  0  0
  -23.3070  -10.8540   20.2100 C   0  0  0  0  0  3  0  0  0  0  0  0
  -21.6650   -7.7560   21.2800 O   0  0  0  0  0  0  0  0  0  0  0  0
  -21.5200   -6.9830   22.4030 C   0  0  0  0  0  0  0  0  0  0  0  0
  -21.2930   -7.5510   23.6760 C   0  0  0  0  0  3  0  0  0  0  0  0
  -21.0790   -6.7170   24.7920 C   0  0  0  0  0  3  0  0  0  0  0  0
  -21.0810   -5.3170   24.6350 C   0  0  0  0  0  0  0  0  0  0  0  0
  -21.3020   -4.7500   23.3680 C   0  0  0  0  0  3  0  0  0  0  0  0
  -21.5170   -5.5820   22.2550 C   0  0  0  0  0  0  0  0  0  0  0  0
  -21.7070   -5.0290   21.0320 F   0  0  0  0  0  0  0  0  0  0  0  0
  -20.8670   -4.5150   25.7050 F   0  0  0  0  0  0  0  0  0  0  0  0
  -24.2120  -13.9940   21.4400 C   0  0  0  0  0  0  0  0  0  0  0  0
  -23.4850  -13.3750   22.3640 N   0  0  0  0  0  0  0  0  0  0  0  0
  -23.9420  -15.1380   21.0800 O   0  0  0  0  0  0  0  0  0  0  0  0
  -23.7160  -12.4440   22.6780 H   0  0  0  0  0  0  0  0  0  0  0  0
  -22.6820  -13.8410   22.7640 H   0  0  0  0  0  0  0  0  0  0  0  0
  -27.0220  -15.1470   20.3750 N   0  0  0  0  0  0  0  0  0  0  0  0
  -26.4420  -15.9300   20.6560 H   0  0  0  0  0  0  0  0  0  0  0  0
  -27.8970  -15.4290   19.9540 H   0  0  0  0  0  0  0  0  0  0  0  0
  -30.6400  -22.7260   20.2350 C   0  0  0  0  0  2  0  0  0  0  0  0
  -30.9610  -23.8910   21.1570 C   0  0  0  0  0  3  0  0  0  0  0  0
  -31.4830  -25.0590   20.7430 C   0  0  0  0  0  3  0  0  0  0  0  0
  -31.8330  -26.2160   21.6560 C   0  0  0  0  0  2  0  0  0  0  0  0
  -31.6650  -27.4620   20.9920 O   0  0  0  0  0  0  0  0  0  0  0  0
  -27.4060  -31.0500   25.4170 C   0  0  0  0  0  0  0  0  0  0  0  0
  -30.4580  -28.0730   21.2000 C   0  0  0  0  0  0  0  0  0  0  0  0
  -26.3870  -30.3330   23.2780 C   0  0  0  0  0  3  0  0  0  0  0  0
  -28.0070  -29.4190   21.5340 C   0  0  0  0  0  0  0  0  0  0  0  0
  -28.9000  -30.7650   23.4460 C   0  0  0  0  0  2  0  0  0  0  0  0
  -29.0890  -29.7150   22.3730 C   0  0  0  0  0  0  0  0  0  0  0  0
  -30.3180  -29.0460   22.2090 C   0  0  0  0  0  3  0  0  0  0  0  0
  -29.3670  -27.7760   20.3600 C   0  0  0  0  0  3  0  0  0  0  0  0
  -28.1380  -28.4450   20.5260 C   0  0  0  0  0  3  0  0  0  0  0  0
  -26.7300  -30.1940   21.7690 C   0  0  0  0  0  2  0  0  0  0  0  0
  -27.5770  -30.7080   24.1080 N   0  0  0  0  0  0  0  0  0  0  0  0
  -26.2770  -31.1010   25.9230 O   0  0  0  0  0  0  0  0  0  0  0  0
  -25.7020  -29.0290   23.7460 C   0  0  0  0  0  0  0  0  0  0  0  0
  -24.4980  -28.7620   23.2130 N   0  0  0  0  0  0  0  0  0  0  0  0
  -26.2600  -28.2720   24.5430 O   0  0  0  0  0  0  0  0  0  0  0  0
  -24.1050  -29.4380   22.5710 H   0  0  0  0  0  0  0  0  0  0  0  0
  -21.4850  -27.0290   22.2330 C   0  0  0  0  0  0  0  0  0  0  0  0
  -23.6860  -27.5750   23.4750 C   0  0  0  0  0  3  0  0  0  0  0  0
  -24.2740  -26.3320   22.7670 C   0  0  0  0  0  2  0  0  0  0  0  0
  -23.6720  -26.0860   21.3810 C   0  0  0  0  0  2  0  0  0  0  0  0
  -22.1570  -25.8950   21.4780 C   0  0  0  0  0  2  0  0  0  0  0  0
  -22.2070  -27.8280   23.1590 C   0  0  0  0  0  0  0  0  0  0  0  0
  -21.5450  -28.8920   23.8080 C   0  0  0  0  0  3  0  0  0  0  0  0
  -20.1870  -29.1590   23.5490 C   0  0  0  0  0  3  0  0  0  0  0  0
  -19.4720  -28.3550   22.6450 C   0  0  0  0  0  3  0  0  0  0  0  0
  -20.1200  -27.2900   21.9920 C   0  0  0  0  0  3  0  0  0  0  0  0
  -28.6160  -31.4190   26.3320 C   0  0  0  0  0  3  0  0  0  0  0  0
  -28.3590  -32.7540   26.8870 N   0  0  0  0  0  0  0  0  0  0  0  0
  -28.9170  -33.8850   26.4340 C   0  0  0  0  0  0  0  0  0  0  0  0
  -29.7690  -33.9020   25.5400 O   0  0  0  0  0  0  0  0  0  0  0  0
  -27.6340  -32.8230   27.5850 H   0  0  0  0  0  0  0  0  0  0  0  0
  -27.4610  -35.9140   26.1410 C   0  0  0  0  0  1  0  0  0  0  0  0
  -28.4570  -35.2090   27.0750 C   0  0  0  0  0  3  0  0  0  0  0  0
  -30.4300  -35.6350   28.4730 C   0  0  0  0  0  1  0  0  0  0  0  0
  -29.5730  -36.1250   27.3970 N   0  0  0  0  0  0  0  0  0  0  0  0
  -29.2210  -37.0400   27.6640 H   0  0  0  0  0  0  0  0  0  0  0  0
  -28.8660  -30.3720   27.4870 C   0  0  1  0  0  0  0  0  0  0  0  0
  -27.5910  -30.0100   28.2820 C   0  0  0  0  0  1  0  0  0  0  0  0
  -29.4550  -29.0610   26.9150 C   0  0  0  0  0  1  0  0  0  0  0  0
  -29.9100  -30.9290   28.4830 C   0  0  0  0  0  1  0  0  0  0  0  0
  1  3  1  0
  2  4  1  0
  2  5  1  0
  4  6  1  0
  5  8  1  0
  5  1  1  0
  6  3  1  0
  6  7  1  1
  8  9  1  0
  8 10  2  0
  9 12  1  0
 11  9  1  0
 13 12  1  0
 14 20  1  0
 14 22  1  0
 15 20  1  0
 16 17  1  0
 16 15  1  0
 18 17  1  0
 18 27  1  0
 18 19  1  0
 20 19  1  0
 21 14  2  0
 22 13  1  0
 23 22  1  0
 24 25  2  0
 25 44  1  0
 26 29  1  0
 26 25  1  0
 27 28  1  0
 27 24  1  0
 28 26  2  0
 29 30  1  0
 30 31  2  0
 32 35  1  0
 32 31  1  0
 33 32  2  0
 34 33  1  0
 34 29  2  0
 35 36  1  0
 36 37  1  0
 37 38  2  0
 39 38  1  0
 39 43  1  0
 40 39  2  0
 41 36  2  0
 41 40  1  0
 42 41  1  0
 44 45  1  0
 45 47  1  0
 45 48  1  0
 46 44  2  0
 49 24  1  0
 49 50  1  0
 51 49  1  0
 52  6  1  0
 52 53  1  0
 54 53  2  0
 54 55  1  0
 56 58  1  0
 56 55  1  0
 57 68  2  0
 58 63  1  0
 59 69  1  0
 59 67  1  0
 60 66  1  0
 60 62  1  0
 61 67  1  0
 62 61  1  0
 63 62  2  0
 64 65  1  0
 64 58  2  0
 65 60  2  0
 66 59  1  0
 67 57  1  0
 69 71  2  0
 70 69  1  0
 72 70  1  0
 73 78  1  0
 74 70  1  0
 75 74  1  0
 76 77  1  0
 76 75  1  0
 77 73  1  0
 78 74  1  0
 78 79  2  0
 80 79  1  0
 81 80  2  0
 82 73  2  0
 82 81  1  0
 83 57  1  0
 83 84  1  0
 83 93  1  0
 84 87  1  0
 85 84  1  0
 85 89  1  0
 86 85  2  0
 89 88  1  0
 89 91  1  0
 91 92  1  0
 91 90  1  0
 93 94  1  1
 93 96  1  0
 95 93  1  0
M  ISO  4  14 100  22 100  55 101  56 101
M  END
>  <TORSDO>  (47) 
F 22

>  <SCORE>  (47) 
-6.747

>  <name>  (47) 
47

>  <ligand_id>  (47) 
47

>  <original_smiles>  (47) 
[H]C(=C([H])C([H])([H])[N+]1([H])C([H])([H])C([H])([H])C([H])(C(=O)N([H])C([H])([H])C([H])([H])N([H])C(=O)N2C([H])([H])C([H])([H])C([H])([H])C([H])(n3nc(-c4c([H])c([H])c(Oc5c([H])c([H])c(F)c([H])c5F)c([H])c4[H])c(C(=O)N([H])[H])c3N([H])[H])C2([H])[H])C([H])([H])C1([H])[H])C([H])([H])Oc1c([H])c([H])c2c(c1[H])C([H])([H])N(C(=O)C([H])(N([H])C(=O)C([H])(N([H])C([H])([H])[H])C([H])([H])[H])C(C([H])([H])[H])(C([H])([H])[H])C([H])([H])[H])C([H])(C(=O)N([H])C1([H])c3c([H])c([H])c([H])c([H])c3C([H])([H])C([H])([H])C1([H])[H])C2([H])[H]

>  <smiles>  (47) 
[H]C(=C([H])C([H])([H])[N+]1([H])C([H])([H])C([H])([H])C([H])(C(=O)N([H])C([H])([H])C([H])([H])N([H])C(=O)N2C([H])([H])C([H])([H])C([H])([H])C([H])(n3nc(-c4c([H])c([H])c(Oc5c([H])c([H])c(F)c([H])c5F)c([H])c4[H])c(C(=O)N([H])[H])c3N([H])[H])C2([H])[H])C([H])([H])C1([H])[H])C([H])([H])Oc1c([H])c([H])c2c(c1[H])C([H])([H])N(C(=O)C([H])(N([H])C(=O)C([H])(N([H])C([H])([H])[H])C([H])([H])[H])C(C([H])([H])[H])(C([H])([H])[H])C([H])([H])[H])C([H])(C(=O)N([H])C1([H])c3c([H])c([H])c([H])c([H])c3C([H])([H])C([H])([H])C1([H])[H])C2([H])[H]

$$$$
48:0:0
     RDKit          3D

 93101  0  0  1  0  0  0  0  0999 V2000
  -29.4640  -21.6710   19.3230 C   0  0  0  0  0  0  0  0  0  0  0  0
  -29.8760  -22.9420   19.5620 N   0  0  0  0  0  0  0  0  0  0  0  0
  -28.3210  -21.4240   18.9360 O   0  0  0  0  0  0  0  0  0  0  0  0
  -30.8330  -23.0640   19.8640 H   0  0  0  0  0  0  0  0  0  0  0  0
  -30.4440  -20.4790   19.5290 C   0  0  0  0  0  2  0  0  0  0  0  0
  -27.9280  -18.0450   21.0410 C   0  0  0  0  0  2  0  0  0  0  0  0
  -28.7790  -16.7830   21.2120 C   0  0  0  0  0  2  0  0  0  0  0  0
  -28.8370  -19.2740   20.9620 C   0  0  0  0  0  2  0  0  0  0  0  0
  -30.6130  -17.9310   19.8550 C   0  0  0  0  0  2  0  0  0  0  0  0
  -29.7760  -16.6020   20.0420 C   0  0  0  0  0  3  0  0  0  0  0  0
  -29.7430  -19.1740   19.7860 N   0  0  2  0  0  4  0  0  0  0  0  0
  -29.1340  -19.0690   18.9840 H   0  0  0  0  0  0  0  0  0  0  0  0
  -30.9540  -14.3450   19.4170 C   0  0  0  0  0  0  0  0  0  0  0  0
  -30.6160  -12.0560   18.5060 C   0  0  0  0  0  2  0  0  0  0  0  0
  -29.5280  -12.0880   17.4080 C   0  0  0  0  0  2  0  0  0  0  0  0
  -28.1130  -12.0090   18.0140 C   0  0  0  0  0  2  0  0  0  0  0  0
  -27.9180  -12.9930   19.1980 C   0  0  0  0  0  3  0  0  0  0  0  0
  -29.0840  -12.8520   20.2030 C   0  0  0  0  0  2  0  0  0  0  0  0
  -30.3470  -13.1240   19.4830 N   0  0  0  0  0  0  0  0  0  0  0  0
  -31.8910  -14.5890   18.6480 O   0  0  0  0  0  0  0  0  0  0  0  0
  -30.4390  -15.2790   20.2570 N   0  0  0  0  0  0  0  0  0  0  0  0
  -30.0160  -14.8050   21.0420 H   0  0  0  0  0  0  0  0  0  0  0  0
  -25.7210  -13.7630   20.3060 C   0  0  0  0  0  0  0  0  0  0  0  0
  -24.6350  -13.0680   20.7670 C   0  0  0  0  0  0  0  0  0  0  0  0
  -24.9320  -11.6870   20.5500 C   0  0  0  0  0  0  0  0  0  0  0  0
  -26.6180  -12.8080   19.8460 N   0  0  0  0  0  0  0  0  0  0  0  0
  -26.1520  -11.5490   20.0450 N   0  0  0  0  0  0  0  0  0  0  0  0
  -24.1020  -10.4890   20.7390 C   0  0  0  0  0  0  0  0  0  0  0  0
  -24.4110   -9.5320   21.7320 C   0  0  0  0  0  3  0  0  0  0  0  0
  -23.5890   -8.3990   21.9100 C   0  0  0  0  0  3  0  0  0  0  0  0
  -22.4480   -8.2140   21.0960 C   0  0  0  0  0  0  0  0  0  0  0  0
  -22.1540   -9.1610   20.0990 C   0  0  0  0  0  3  0  0  0  0  0  0
  -22.9750  -10.2860   19.9180 C   0  0  0  0  0  3  0  0  0  0  0  0
  -21.6050   -7.1320   21.1810 O   0  0  0  0  0  0  0  0  0  0  0  0
  -21.2440   -6.5910   22.3890 C   0  0  0  0  0  0  0  0  0  0  0  0
  -20.5960   -7.3560   23.3820 C   0  0  0  0  0  3  0  0  0  0  0  0
  -20.1800   -6.7450   24.5820 C   0  0  0  0  0  3  0  0  0  0  0  0
  -20.4040   -5.3710   24.7870 C   0  0  0  0  0  0  0  0  0  0  0  0
  -21.0470   -4.6060   23.7970 C   0  0  0  0  0  3  0  0  0  0  0  0
  -21.4630   -5.2140   22.6000 C   0  0  0  0  0  0  0  0  0  0  0  0
  -22.0620   -4.4680   21.6400 F   0  0  0  0  0  0  0  0  0  0  0  0
  -19.9990   -4.7830   25.9350 F   0  0  0  0  0  0  0  0  0  0  0  0
  -23.3530  -13.6490   21.2920 C   0  0  0  0  0  0  0  0  0  0  0  0
  -22.7070  -12.9690   22.2320 N   0  0  0  0  0  0  0  0  0  0  0  0
  -22.9420  -14.7410   20.9000 O   0  0  0  0  0  0  0  0  0  0  0  0
  -23.0490  -12.0830   22.5740 H   0  0  0  0  0  0  0  0  0  0  0  0
  -21.8560  -13.3470   22.6210 H   0  0  0  0  0  0  0  0  0  0  0  0
  -26.0110  -15.1190   20.2230 N   0  0  0  0  0  0  0  0  0  0  0  0
  -25.3440  -15.8260   20.5110 H   0  0  0  0  0  0  0  0  0  0  0  0
  -26.8420  -15.5060   19.7960 H   0  0  0  0  0  0  0  0  0  0  0  0
  -29.1060  -24.1990   19.3270 C   0  0  0  0  0  2  0  0  0  0  0  0
  -29.2410  -25.2720   20.4630 C   0  0  0  0  0  2  0  0  0  0  0  0
  -29.1770  -26.6680   20.0750 O   0  0  0  0  0  0  0  0  0  0  0  0
  -24.8700  -31.5170   23.1590 C   0  0  0  0  0  0  0  0  0  0  0  0
  -27.9530  -27.3200   20.0870 C   0  0  0  0  0  0  0  0  0  0  0  0
  -23.8450  -30.1030   21.4090 C   0  0  0  0  0  3  0  0  0  0  0  0
  -25.4640  -28.6910   20.0240 C   0  0  0  0  0  0  0  0  0  0  0  0
  -26.3510  -30.6100   21.3590 C   0  0  0  0  0  2  0  0  0  0  0  0
  -26.5580  -29.2630   20.6860 C   0  0  0  0  0  0  0  0  0  0  0  0
  -27.8070  -28.5890   20.7030 C   0  0  0  0  0  3  0  0  0  0  0  0
  -26.8400  -26.7670   19.4200 C   0  0  0  0  0  3  0  0  0  0  0  0
  -25.6020  -27.4440   19.3850 C   0  0  0  0  0  3  0  0  0  0  0  0
  -24.1690  -29.4760   20.0280 C   0  0  0  0  0  2  0  0  0  0  0  0
  -25.0390  -30.7590   22.0370 N   0  0  0  0  0  0  0  0  0  0  0  0
  -23.7460  -31.7060   23.6460 O   0  0  0  0  0  0  0  0  0  0  0  0
  -23.1980  -29.0210   22.3040 C   0  0  0  0  0  0  0  0  0  0  0  0
  -21.8940  -28.7730   22.0970 N   0  0  0  0  0  0  0  0  0  0  0  0
  -23.8670  -28.4040   23.1350 O   0  0  0  0  0  0  0  0  0  0  0  0
  -21.4150  -29.3210   21.3980 H   0  0  0  0  0  0  0  0  0  0  0  0
  -18.5740  -27.3780   22.3680 C   0  0  0  0  0  0  0  0  0  0  0  0
  -21.0960  -27.7590   22.7850 C   0  0  0  0  0  3  0  0  0  0  0  0
  -21.3090  -26.3690   22.1360 C   0  0  0  0  0  2  0  0  0  0  0  0
  -20.2790  -26.0460   21.0500 C   0  0  0  0  0  2  0  0  0  0  0  0
  -18.8610  -26.0820   21.6270 C   0  0  0  0  0  2  0  0  0  0  0  0
  -19.6230  -28.1720   22.9000 C   0  0  0  0  0  0  0  0  0  0  0  0
  -19.3040  -29.3850   23.5500 C   0  0  0  0  0  3  0  0  0  0  0  0
  -17.9680  -29.8070   23.6730 C   0  0  0  0  0  3  0  0  0  0  0  0
  -16.9310  -29.0110   23.1540 C   0  0  0  0  0  3  0  0  0  0  0  0
  -17.2340  -27.7980   22.5130 C   0  0  0  0  0  3  0  0  0  0  0  0
  -26.0770  -32.2020   23.8730 C   0  0  0  0  0  3  0  0  0  0  0  0
  -26.5490  -31.4350   25.1680 C   0  0  1  0  0  0  0  0  0  0  0  0
  -25.4040  -31.1070   26.1530 C   0  0  0  0  0  1  0  0  0  0  0  0
  -27.2410  -30.1050   24.7880 C   0  0  0  0  0  1  0  0  0  0  0  0
  -27.6020  -32.2780   25.9240 C   0  0  0  0  0  1  0  0  0  0  0  0
  -25.6770  -33.5770   24.2060 N   0  0  0  0  0  0  0  0  0  0  0  0
  -25.9880  -34.6580   23.4800 C   0  0  0  0  0  0  0  0  0  0  0  0
  -26.7180  -34.6060   22.4870 O   0  0  0  0  0  0  0  0  0  0  0  0
  -25.0330  -33.6870   24.9770 H   0  0  0  0  0  0  0  0  0  0  0  0
  -24.1900  -36.3610   23.0550 C   0  0  0  0  0  1  0  0  0  0  0  0
  -25.4050  -36.0110   23.9290 C   0  0  0  0  0  3  0  0  0  0  0  0
  -27.4350  -37.0000   24.8920 C   0  0  0  0  0  1  0  0  0  0  0  0
  -26.3860  -37.1190   23.8830 N   0  0  0  0  0  0  0  0  0  0  0  0
  -25.9230  -38.0150   24.0100 H   0  0  0  0  0  0  0  0  0  0  0  0
  1  5  1  0
  1  2  1  0
  2  4  1  0
  3  1  2  0
  5 11  1  0
  6  7  1  0
  8  6  1  0
  9 10  1  0
 10 21  1  0
 10  7  1  0
 11  9  1  0
 11  8  1  0
 11 12  1  6
 13 19  1  0
 13 21  1  0
 14 19  1  0
 15 16  1  0
 15 14  1  0
 17 16  1  0
 17 26  1  0
 17 18  1  0
 19 18  1  0
 20 13  2  0
 21 22  1  0
 23 24  2  0
 24 43  1  0
 25 28  1  0
 25 24  1  0
 26 27  1  0
 26 23  1  0
 27 25  2  0
 28 29  1  0
 29 30  2  0
 31 34  1  0
 31 30  1  0
 32 31  2  0
 33 32  1  0
 33 28  2  0
 34 35  1  0
 35 40  2  0
 35 36  1  0
 36 37  2  0
 37 38  1  0
 38 42  1  0
 39 38  2  0
 40 39  1  0
 41 40  1  0
 43 44  1  0
 44 46  1  0
 44 47  1  0
 45 43  2  0
 48 23  1  0
 48 49  1  0
 50 48  1  0
 51  2  1  0
 51 52  1  0
 53 55  1  0
 53 52  1  0
 54 65  2  0
 55 60  1  0
 56 64  1  0
 56 66  1  0
 57 63  1  0
 57 59  1  0
 58 64  1  0
 59 60  2  0
 59 58  1  0
 61 55  2  0
 62 61  1  0
 62 57  2  0
 63 56  1  0
 64 54  1  0
 66 68  2  0
 67 66  1  0
 69 67  1  0
 70 79  2  0
 70 75  1  0
 71 67  1  0
 71 75  1  0
 72 71  1  0
 73 74  1  0
 73 72  1  0
 74 70  1  0
 75 76  2  0
 76 77  1  0
 78 77  2  0
 79 78  1  0
 80 54  1  0
 80 85  1  0
 80 81  1  0
 81 84  1  1
 81 82  1  0
 83 81  1  0
 85 88  1  0
 86 90  1  0
 86 85  1  0
 87 86  2  0
 90 89  1  0
 92 90  1  0
 92 93  1  0
 92 91  1  0
M  ISO  4  13 100  21 100  52 101  53 101
M  END
>  <TORSDO>  (48) 
F 20

>  <SCORE>  (48) 
-10.006

>  <name>  (48) 
48

>  <ligand_id>  (48) 
48

>  <original_smiles>  (48) 
[H]c1c([H])c([H])c2c(c1[H])C([H])([H])C([H])([H])C([H])([H])C2([H])N([H])C(=O)C1([H])N(C(=O)C([H])(N([H])C(=O)C([H])(N([H])C([H])([H])[H])C([H])([H])[H])C(C([H])([H])[H])(C([H])([H])[H])C([H])([H])[H])C([H])([H])c2c([H])c(OC([H])([H])C([H])([H])N([H])C(=O)C([H])([H])[N+]3([H])C([H])([H])C([H])([H])C([H])([H])C([H])(N([H])C(=O)N4C([H])([H])C([H])([H])C([H])([H])C([H])(n5nc(-c6c([H])c([H])c(Oc7c([H])c([H])c(F)c([H])c7F)c([H])c6[H])c(C(=O)N([H])[H])c5N([H])[H])C4([H])[H])C3([H])[H])c([H])c([H])c2C1([H])[H]

>  <smiles>  (48) 
[H]c1c([H])c([H])c2c(c1[H])C([H])([H])C([H])([H])C([H])([H])C2([H])N([H])C(=O)C1([H])N(C(=O)C([H])(N([H])C(=O)C([H])(N([H])C([H])([H])[H])C([H])([H])[H])C(C([H])([H])[H])(C([H])([H])[H])C([H])([H])[H])C([H])([H])c2c([H])c(OC([H])([H])C([H])([H])N([H])C(=O)C([H])([H])[N+]3([H])C([H])([H])C([H])([H])C([H])([H])C([H])(N([H])C(=O)N4C([H])([H])C([H])([H])C([H])([H])C([H])(n5nc(-c6c([H])c([H])c(Oc7c([H])c([H])c(F)c([H])c7F)c([H])c6[H])c(C(=O)N([H])[H])c5N([H])[H])C4([H])[H])C3([H])[H])c([H])c([H])c2C1([H])[H]

$$$$
49:0:0
     RDKit          3D

 91 99  0  0  1  0  0  0  0  0999 V2000
  -31.2510  -21.5960   18.6350 C   0  0  0  0  0  2  0  0  0  0  0  0
  -31.4870  -21.6780   20.1540 C   0  0  0  0  0  2  0  0  0  0  0  0
  -30.0090  -20.7480   18.2960 C   0  0  0  0  0  2  0  0  0  0  0  0
  -30.2700  -22.2670   20.9130 C   0  0  0  0  0  2  0  0  0  0  0  0
  -29.0220  -20.5800   19.4850 C   0  0  0  0  0  3  0  0  0  0  0  0
  -28.9500  -21.9740   20.2720 N   0  0  2  0  0  4  0  0  0  0  0  0
  -28.3130  -21.8020   21.0370 H   0  0  0  0  0  0  0  0  0  0  0  0
  -29.2690  -19.0760   20.2730 C   0  0  0  0  0  3  0  0  0  0  0  0
  -28.1780  -18.8610   21.0080 F   0  0  0  0  0  0  0  0  0  0  0  0
  -29.6640  -17.5950   19.5450 C   0  0  0  0  0  2  0  0  0  0  0  0
  -30.4230  -14.9710   19.9970 C   0  0  0  0  0  0  0  0  0  0  0  0
  -30.2860  -12.6130   19.1000 C   0  0  0  0  0  2  0  0  0  0  0  0
  -29.3180  -12.6210   17.8960 C   0  0  0  0  0  2  0  0  0  0  0  0
  -27.8710  -12.3850   18.3680 C   0  0  0  0  0  2  0  0  0  0  0  0
  -27.5100  -13.2910   19.5730 C   0  0  0  0  0  3  0  0  0  0  0  0
  -28.5970  -13.3040   20.6660 C   0  0  0  0  0  2  0  0  0  0  0  0
  -29.8530  -13.7020   20.0220 N   0  0  0  0  0  0  0  0  0  0  0  0
  -31.5980  -15.0560   19.6210 O   0  0  0  0  0  0  0  0  0  0  0  0
  -29.6190  -16.1320   20.1690 N   0  0  0  0  0  0  0  0  0  0  0  0
  -28.7140  -15.9010   20.5530 H   0  0  0  0  0  0  0  0  0  0  0  0
  -25.1640  -13.8540   20.4060 C   0  0  0  0  0  0  0  0  0  0  0  0
  -24.1260  -13.0710   20.8190 C   0  0  0  0  0  0  0  0  0  0  0  0
  -24.5980  -11.7240   20.7700 C   0  0  0  0  0  0  0  0  0  0  0  0
  -26.2010  -12.9830   20.1230 N   0  0  0  0  0  0  0  0  0  0  0  0
  -25.8760  -11.6960   20.4090 N   0  0  0  0  0  0  0  0  0  0  0  0
  -23.8920  -10.4580   20.9870 C   0  0  0  0  0  0  0  0  0  0  0  0
  -24.3580   -9.5000   21.9130 C   0  0  0  0  0  3  0  0  0  0  0  0
  -23.6510   -8.2960   22.1170 C   0  0  0  0  0  3  0  0  0  0  0  0
  -22.4590   -8.0460   21.3990 C   0  0  0  0  0  0  0  0  0  0  0  0
  -22.0090   -8.9930   20.4620 C   0  0  0  0  0  3  0  0  0  0  0  0
  -22.7170  -10.1850   20.2570 C   0  0  0  0  0  3  0  0  0  0  0  0
  -21.7130   -6.8980   21.5150 O   0  0  0  0  0  0  0  0  0  0  0  0
  -21.6970   -6.1630   22.6720 C   0  0  0  0  0  0  0  0  0  0  0  0
  -21.2890   -6.7200   23.9030 C   0  0  0  0  0  3  0  0  0  0  0  0
  -21.2250   -5.9100   25.0560 C   0  0  0  0  0  3  0  0  0  0  0  0
  -21.5560   -4.5440   24.9740 C   0  0  0  0  0  0  0  0  0  0  0  0
  -21.9500   -3.9860   23.7470 C   0  0  0  0  0  3  0  0  0  0  0  0
  -22.0170   -4.7940   22.5990 C   0  0  0  0  0  0  0  0  0  0  0  0
  -22.3820   -4.2450   21.4140 F   0  0  0  0  0  0  0  0  0  0  0  0
  -21.4810   -3.7660   26.0770 F   0  0  0  0  0  0  0  0  0  0  0  0
  -22.7380  -13.5390   21.1470 C   0  0  0  0  0  0  0  0  0  0  0  0
  -22.0510  -12.8360   22.0360 N   0  0  0  0  0  0  0  0  0  0  0  0
  -22.2760  -14.5660   20.6480 O   0  0  0  0  0  0  0  0  0  0  0  0
  -22.4360  -11.9970   22.4490 H   0  0  0  0  0  0  0  0  0  0  0  0
  -21.1250  -13.1320   22.3080 H   0  0  0  0  0  0  0  0  0  0  0  0
  -25.3060  -15.2280   20.2190 N   0  0  0  0  0  0  0  0  0  0  0  0
  -24.5120  -15.8520   20.3130 H   0  0  0  0  0  0  0  0  0  0  0  0
  -26.1280  -15.6910   19.8540 H   0  0  0  0  0  0  0  0  0  0  0  0
  -28.3900  -23.3210   19.6140 C   0  0  0  0  0  2  0  0  0  0  0  0
  -28.0790  -24.7280   20.4960 C   0  0  0  0  0  2  0  0  0  0  0  0
  -28.2590  -26.2260   20.1100 O   0  0  0  0  0  0  0  0  0  0  0  0
  -24.6540  -31.8610   23.2370 C   0  0  0  0  0  0  0  0  0  0  0  0
  -27.1900  -27.1830   20.1450 C   0  0  0  0  0  0  0  0  0  0  0  0
  -23.4330  -30.4910   21.5930 C   0  0  0  0  0  3  0  0  0  0  0  0
  -24.8640  -28.9200   20.1460 C   0  0  0  0  0  0  0  0  0  0  0  0
  -25.9820  -30.7540   21.3990 C   0  0  0  0  0  2  0  0  0  0  0  0
  -26.0500  -29.3650   20.7430 C   0  0  0  0  0  0  0  0  0  0  0  0
  -27.2170  -28.5170   20.7220 C   0  0  0  0  0  3  0  0  0  0  0  0
  -25.9770  -26.8290   19.5200 C   0  0  0  0  0  3  0  0  0  0  0  0
  -24.8390  -27.6630   19.5180 C   0  0  0  0  0  3  0  0  0  0  0  0
  -23.6400  -29.8250   20.2060 C   0  0  0  0  0  2  0  0  0  0  0  0
  -24.7130  -31.0530   22.1340 N   0  0  0  0  0  0  0  0  0  0  0  0
  -23.5780  -32.1410   23.7820 O   0  0  0  0  0  0  0  0  0  0  0  0
  -22.7560  -29.4770   22.5500 C   0  0  0  0  0  0  0  0  0  0  0  0
  -21.4290  -29.3100   22.4250 N   0  0  0  0  0  0  0  0  0  0  0  0
  -23.4300  -28.8450   23.3680 O   0  0  0  0  0  0  0  0  0  0  0  0
  -20.9440  -29.8660   21.7320 H   0  0  0  0  0  0  0  0  0  0  0  0
  -18.0530  -28.1120   22.9310 C   0  0  0  0  0  0  0  0  0  0  0  0
  -20.6100  -28.3710   23.1960 C   0  0  0  0  0  3  0  0  0  0  0  0
  -20.7150  -26.9450   22.6100 C   0  0  0  0  0  2  0  0  0  0  0  0
  -19.6100  -26.6250   21.5970 C   0  0  0  0  0  2  0  0  0  0  0  0
  -18.2290  -26.7680   22.2430 C   0  0  0  0  0  2  0  0  0  0  0  0
  -19.1710  -28.8700   23.3650 C   0  0  0  0  0  0  0  0  0  0  0  0
  -18.9580  -30.1290   23.9690 C   0  0  0  0  0  3  0  0  0  0  0  0
  -17.6550  -30.6310   24.1450 C   0  0  0  0  0  3  0  0  0  0  0  0
  -16.5490  -29.8720   23.7280 C   0  0  0  0  0  3  0  0  0  0  0  0
  -16.7470  -28.6170   23.1250 C   0  0  0  0  0  3  0  0  0  0  0  0
  -25.9430  -32.4850   23.8530 C   0  0  0  0  0  3  0  0  0  0  0  0
  -26.4540  -31.7020   25.1230 C   0  0  1  0  0  0  0  0  0  0  0  0
  -25.3640  -31.4680   26.1930 C   0  0  0  0  0  1  0  0  0  0  0  0
  -27.0290  -30.3190   24.7310 C   0  0  0  0  0  1  0  0  0  0  0  0
  -27.6070  -32.4870   25.7890 C   0  0  0  0  0  1  0  0  0  0  0  0
  -25.6390  -33.8830   24.1980 N   0  0  0  0  0  0  0  0  0  0  0  0
  -25.9620  -34.9440   23.4480 C   0  0  0  0  0  0  0  0  0  0  0  0
  -26.6200  -34.8510   22.4080 O   0  0  0  0  0  0  0  0  0  0  0  0
  -25.0490  -34.0280   25.0020 H   0  0  0  0  0  0  0  0  0  0  0  0
  -24.2370  -36.7540   23.1370 C   0  0  0  0  0  1  0  0  0  0  0  0
  -25.4820  -36.3290   23.9290 C   0  0  0  0  0  3  0  0  0  0  0  0
  -27.6250  -37.2040   24.7480 C   0  0  0  0  0  1  0  0  0  0  0  0
  -26.5150  -37.3820   23.8170 N   0  0  0  0  0  0  0  0  0  0  0  0
  -26.1080  -38.3000   23.9790 H   0  0  0  0  0  0  0  0  0  0  0  0
  1  2  1  0
  2  4  1  0
  3  1  1  0
  3  5  1  0
  5  6  1  0
  5  8  1  0
  6  4  1  0
  6  7  1  1
  8  9  1  0
 10 19  1  0
 10  8  1  0
 11 17  1  0
 11 19  1  0
 12 17  1  0
 13 14  1  0
 13 12  1  0
 15 14  1  0
 15 24  1  0
 15 16  1  0
 17 16  1  0
 18 11  2  0
 19 20  1  0
 21 22  2  0
 22 41  1  0
 23 22  1  0
 23 26  1  0
 24 21  1  0
 24 25  1  0
 25 23  2  0
 26 27  1  0
 27 28  2  0
 29 32  1  0
 29 28  1  0
 30 29  2  0
 31 30  1  0
 31 26  2  0
 32 33  1  0
 33 34  1  0
 34 35  2  0
 36 35  1  0
 36 40  1  0
 37 36  2  0
 38 33  2  0
 38 37  1  0
 39 38  1  0
 41 42  1  0
 42 45  1  0
 42 44  1  0
 43 41  2  0
 46 47  1  0
 46 21  1  0
 48 46  1  0
 49  6  1  0
 49 50  1  0
 51 53  1  0
 51 50  1  0
 52 63  2  0
 53 58  1  0
 54 62  1  0
 54 64  1  0
 55 61  1  0
 55 57  1  0
 56 62  1  0
 57 56  1  0
 58 57  2  0
 59 53  2  0
 60 59  1  0
 60 55  2  0
 61 54  1  0
 62 52  1  0
 64 66  2  0
 65 64  1  0
 67 65  1  0
 68 77  2  0
 68 73  1  0
 69 65  1  0
 69 73  1  0
 70 69  1  0
 71 72  1  0
 71 70  1  0
 72 68  1  0
 73 74  2  0
 74 75  1  0
 76 75  2  0
 77 76  1  0
 78 52  1  0
 78 83  1  0
 78 79  1  0
 79 82  1  1
 79 80  1  0
 81 79  1  0
 83 86  1  0
 84 88  1  0
 84 83  1  0
 85 84  2  0
 88 87  1  0
 90 88  1  0
 90 91  1  0
 90 89  1  0
M  ISO  4  11 100  19 100  50 101  51 101
M  END
>  <TORSDO>  (49) 
F 20

>  <SCORE>  (49) 
-14.640

>  <name>  (49) 
49

>  <ligand_id>  (49) 
49

>  <original_smiles>  (49) 
[H]c1c([H])c([H])c2c(c1[H])C([H])([H])C([H])([H])C([H])([H])C2([H])N([H])C(=O)C1([H])N(C(=O)C([H])(N([H])C(=O)C([H])(N([H])C([H])([H])[H])C([H])([H])[H])C(C([H])([H])[H])(C([H])([H])[H])C([H])([H])[H])C([H])([H])c2c([H])c(OC([H])([H])C([H])([H])[N+]3([H])C([H])([H])C([H])([H])C([H])([H])C([H])([H])C3([H])C([H])(F)C([H])([H])N([H])C(=O)N3C([H])([H])C([H])([H])C([H])([H])C([H])(n4nc(-c5c([H])c([H])c(Oc6c([H])c([H])c(F)c([H])c6F)c([H])c5[H])c(C(=O)N([H])[H])c4N([H])[H])C3([H])[H])c([H])c([H])c2C1([H])[H]

>  <smiles>  (49) 
[H]c1c([H])c([H])c2c(c1[H])C([H])([H])C([H])([H])C([H])([H])C2([H])N([H])C(=O)C1([H])N(C(=O)C([H])(N([H])C(=O)C([H])(N([H])C([H])([H])[H])C([H])([H])[H])C(C([H])([H])[H])(C([H])([H])[H])C([H])([H])[H])C([H])([H])c2c([H])c(OC([H])([H])C([H])([H])[N+]3([H])C([H])([H])C([H])([H])C([H])([H])C([H])([H])C3([H])C([H])(F)C([H])([H])N([H])C(=O)N3C([H])([H])C([H])([H])C([H])([H])C([H])(n4nc(-c5c([H])c([H])c(Oc6c([H])c([H])c(F)c([H])c6F)c([H])c5[H])c(C(=O)N([H])[H])c4N([H])[H])C3([H])[H])c([H])c([H])c2C1([H])[H]

$$$$
50:0:0
     RDKit          3D

 93101  0  0  1  0  0  0  0  0999 V2000
  -28.8860  -23.4650   20.1150 C   0  0  0  0  0  3  0  0  0  0  0  0
  -30.3330  -23.7600   20.0540 N   0  0  0  0  0  4  0  0  0  0  0  0
  -30.7210  -23.8970   20.9720 H   0  0  0  0  0  0  0  0  0  0  0  0
  -30.4930  -24.6000   19.5250 H   0  0  0  0  0  0  0  0  0  0  0  0
  -30.8340  -23.0140   19.6040 H   0  0  0  0  0  0  0  0  0  0  0  0
  -28.6460  -22.0250   20.9050 C   0  0  0  0  0  2  0  0  0  0  0  0
  -28.1160  -19.5310   20.1110 C   0  0  0  0  0  3  0  0  0  0  0  0
  -28.3470  -18.1100   20.0720 C   0  0  0  0  0  3  0  0  0  0  0  0
  -30.5850  -18.4320   20.7710 C   0  0  0  0  0  3  0  0  0  0  0  0
  -29.0870  -20.4950   20.5220 C   0  0  0  0  0  0  0  0  0  0  0  0
  -29.5790  -17.4700   20.4200 C   0  0  0  0  0  0  0  0  0  0  0  0
  -30.3470  -19.8700   20.8340 C   0  0  0  0  0  0  0  0  0  0  0  0
  -31.3520  -20.6640   21.2730 F   0  0  0  0  0  0  0  0  0  0  0  0
  -30.5060  -14.8840   20.3160 C   0  0  0  0  0  0  0  0  0  0  0  0
  -30.4050  -12.5660   19.3220 C   0  0  0  0  0  2  0  0  0  0  0  0
  -29.4520  -12.5810   18.1030 C   0  0  0  0  0  2  0  0  0  0  0  0
  -27.9870  -12.3800   18.5410 C   0  0  0  0  0  2  0  0  0  0  0  0
  -27.6020  -13.2740   19.7470 C   0  0  0  0  0  3  0  0  0  0  0  0
  -28.6670  -13.2110   20.8640 C   0  0  0  0  0  2  0  0  0  0  0  0
  -29.9480  -13.6160   20.2660 N   0  0  0  0  0  0  0  0  0  0  0  0
  -31.6940  -15.0300   20.0100 O   0  0  0  0  0  0  0  0  0  0  0  0
  -29.6150  -15.9540   20.5040 N   0  0  0  0  0  0  0  0  0  0  0  0
  -28.6950  -15.5700   20.6450 H   0  0  0  0  0  0  0  0  0  0  0  0
  -25.2160  -13.8600   20.4850 C   0  0  0  0  0  0  0  0  0  0  0  0
  -24.1540  -13.0840   20.8620 C   0  0  0  0  0  0  0  0  0  0  0  0
  -24.6200  -11.7350   20.8320 C   0  0  0  0  0  0  0  0  0  0  0  0
  -26.2610  -12.9830   20.2450 N   0  0  0  0  0  0  0  0  0  0  0  0
  -25.9100  -11.7000   20.5180 N   0  0  0  0  0  0  0  0  0  0  0  0
  -23.8980  -10.4710   21.0260 C   0  0  0  0  0  0  0  0  0  0  0  0
  -24.3350   -9.5060   21.9600 C   0  0  0  0  0  3  0  0  0  0  0  0
  -23.6110   -8.3080   22.1420 C   0  0  0  0  0  3  0  0  0  0  0  0
  -22.4370   -8.0670   21.3900 C   0  0  0  0  0  0  0  0  0  0  0  0
  -22.0200   -9.0200   20.4450 C   0  0  0  0  0  3  0  0  0  0  0  0
  -22.7440  -10.2100   20.2610 C   0  0  0  0  0  3  0  0  0  0  0  0
  -21.6860   -6.9190   21.4810 O   0  0  0  0  0  0  0  0  0  0  0  0
  -21.6430   -6.1770   22.6340 C   0  0  0  0  0  0  0  0  0  0  0  0
  -21.2220   -6.7300   23.8620 C   0  0  0  0  0  3  0  0  0  0  0  0
  -21.1270   -5.9140   25.0060 C   0  0  0  0  0  3  0  0  0  0  0  0
  -21.4440   -4.5440   24.9240 C   0  0  0  0  0  0  0  0  0  0  0  0
  -21.8590   -3.9900   23.7000 C   0  0  0  0  0  3  0  0  0  0  0  0
  -21.9550   -4.8040   22.5570 C   0  0  0  0  0  0  0  0  0  0  0  0
  -22.3350   -4.2610   21.3760 F   0  0  0  0  0  0  0  0  0  0  0  0
  -21.3460   -3.7580   26.0210 F   0  0  0  0  0  0  0  0  0  0  0  0
  -22.7560  -13.5600   21.1350 C   0  0  0  0  0  0  0  0  0  0  0  0
  -22.0300  -12.8630   22.0020 N   0  0  0  0  0  0  0  0  0  0  0  0
  -22.3160  -14.5830   20.6130 O   0  0  0  0  0  0  0  0  0  0  0  0
  -22.3990  -12.0360   22.4460 H   0  0  0  0  0  0  0  0  0  0  0  0
  -21.0930  -13.1640   22.2260 H   0  0  0  0  0  0  0  0  0  0  0  0
  -25.3720  -15.2300   20.2990 N   0  0  0  0  0  0  0  0  0  0  0  0
  -24.5910  -15.8710   20.3910 H   0  0  0  0  0  0  0  0  0  0  0  0
  -26.1850  -15.6600   19.8810 H   0  0  0  0  0  0  0  0  0  0  0  0
  -28.0730  -24.8240   20.6380 C   0  0  0  0  0  2  0  0  0  0  0  0
  -28.3010  -26.2820   20.2070 O   0  0  0  0  0  0  0  0  0  0  0  0
  -24.6230  -31.8750   23.2250 C   0  0  0  0  0  0  0  0  0  0  0  0
  -27.2190  -27.2160   20.1930 C   0  0  0  0  0  0  0  0  0  0  0  0
  -23.4240  -30.4800   21.5820 C   0  0  0  0  0  3  0  0  0  0  0  0
  -24.8750  -28.9130   20.1610 C   0  0  0  0  0  0  0  0  0  0  0  0
  -25.9730  -30.7650   21.4140 C   0  0  0  0  0  2  0  0  0  0  0  0
  -26.0510  -29.3770   20.7650 C   0  0  0  0  0  0  0  0  0  0  0  0
  -27.2260  -28.5450   20.7630 C   0  0  0  0  0  3  0  0  0  0  0  0
  -26.0200  -26.8400   19.5500 C   0  0  0  0  0  3  0  0  0  0  0  0
  -24.8690  -27.6550   19.5380 C   0  0  0  0  0  3  0  0  0  0  0  0
  -23.6450  -29.8030   20.2040 C   0  0  0  0  0  2  0  0  0  0  0  0
  -24.6930  -31.0600   22.1300 N   0  0  0  0  0  0  0  0  0  0  0  0
  -23.5380  -32.1560   23.7550 O   0  0  0  0  0  0  0  0  0  0  0  0
  -22.7490  -29.4690   22.5420 C   0  0  0  0  0  0  0  0  0  0  0  0
  -21.4210  -29.2960   22.4140 N   0  0  0  0  0  0  0  0  0  0  0  0
  -23.4220  -28.8420   23.3640 O   0  0  0  0  0  0  0  0  0  0  0  0
  -20.9360  -29.8540   21.7250 H   0  0  0  0  0  0  0  0  0  0  0  0
  -18.0410  -28.0960   22.9060 C   0  0  0  0  0  0  0  0  0  0  0  0
  -20.5990  -28.3600   23.1830 C   0  0  0  0  0  3  0  0  0  0  0  0
  -20.7040  -26.9270   22.6100 C   0  0  0  0  0  2  0  0  0  0  0  0
  -19.6050  -26.6020   21.5920 C   0  0  0  0  0  2  0  0  0  0  0  0
  -18.2210  -26.7460   22.2310 C   0  0  0  0  0  2  0  0  0  0  0  0
  -19.1580  -28.8600   23.3380 C   0  0  0  0  0  0  0  0  0  0  0  0
  -18.9340  -30.1230   23.9300 C   0  0  0  0  0  3  0  0  0  0  0  0
  -17.6270  -30.6210   24.0930 C   0  0  0  0  0  3  0  0  0  0  0  0
  -16.5260  -29.8540   23.6750 C   0  0  0  0  0  3  0  0  0  0  0  0
  -16.7340  -28.5930   23.0870 C   0  0  0  0  0  3  0  0  0  0  0  0
  -25.9030  -32.5080   23.8530 C   0  0  0  0  0  3  0  0  0  0  0  0
  -26.4100  -31.7390   25.1340 C   0  0  1  0  0  0  0  0  0  0  0  0
  -25.3120  -31.5100   26.1990 C   0  0  0  0  0  1  0  0  0  0  0  0
  -26.9880  -30.3570   24.7540 C   0  0  0  0  0  1  0  0  0  0  0  0
  -27.5610  -32.5300   25.7980 C   0  0  0  0  0  1  0  0  0  0  0  0
  -25.5930  -33.9070   24.1830 N   0  0  0  0  0  0  0  0  0  0  0  0
  -25.9270  -34.9620   23.4270 C   0  0  0  0  0  0  0  0  0  0  0  0
  -26.5960  -34.8590   22.3960 O   0  0  0  0  0  0  0  0  0  0  0  0
  -24.9980  -34.0600   24.9840 H   0  0  0  0  0  0  0  0  0  0  0  0
  -24.2030  -36.7630   23.0790 C   0  0  0  0  0  1  0  0  0  0  0  0
  -25.4430  -36.3510   23.8890 C   0  0  0  0  0  3  0  0  0  0  0  0
  -27.5810  -37.2300   24.7200 C   0  0  0  0  0  1  0  0  0  0  0  0
  -26.4790  -37.4020   23.7780 N   0  0  0  0  0  0  0  0  0  0  0  0
  -26.0750  -38.3230   23.9270 H   0  0  0  0  0  0  0  0  0  0  0  0
  1 52  1  0
  1  6  1  0
  2  1  1  0
  2  3  1  0
  4  2  1  0
  5  2  1  0
  7 10  1  0
  8  7  2  0
  8 11  1  0
  9 12  1  0
 10 12  2  0
 10  6  1  0
 11 22  1  0
 11  9  2  0
 12 13  1  0
 14 22  1  0
 15 20  1  0
 16 17  1  0
 16 15  1  0
 18 17  1  0
 18 27  1  0
 18 19  1  0
 20 14  1  0
 20 19  1  0
 21 14  2  0
 22 23  1  0
 24 25  2  0
 25 44  1  0
 26 25  1  0
 26 29  1  0
 27 24  1  0
 27 28  1  0
 28 26  2  0
 29 30  1  0
 30 31  2  0
 32 35  1  0
 32 31  1  0
 33 32  2  0
 34 33  1  0
 34 29  2  0
 35 36  1  0
 36 37  1  0
 37 38  2  0
 39 38  1  0
 39 43  1  0
 40 39  2  0
 41 36  2  0
 41 40  1  0
 42 41  1  0
 44 45  1  0
 45 48  1  0
 45 47  1  0
 46 44  2  0
 49 50  1  0
 49 24  1  0
 51 49  1  0
 53 52  1  0
 54 65  2  0
 55 53  1  0
 55 60  1  0
 56 64  1  0
 56 66  1  0
 57 63  1  0
 57 59  1  0
 58 64  1  0
 59 58  1  0
 60 59  2  0
 61 55  2  0
 62 61  1  0
 62 57  2  0
 63 56  1  0
 64 54  1  0
 66 68  2  0
 67 66  1  0
 69 67  1  0
 70 79  2  0
 70 75  1  0
 71 67  1  0
 71 75  1  0
 72 71  1  0
 73 74  1  0
 73 72  1  0
 74 70  1  0
 75 76  2  0
 76 77  1  0
 78 77  2  0
 79 78  1  0
 80 54  1  0
 80 85  1  0
 80 81  1  0
 81 84  1  1
 81 82  1  0
 83 81  1  0
 85 88  1  0
 86 90  1  0
 86 85  1  0
 87 86  2  0
 90 89  1  0
 92 90  1  0
 92 93  1  0
 92 91  1  0
M  ISO  4  14 100  22 100  52 101  53 101
M  END
>  <TORSDO>  (50) 
F 20

>  <SCORE>  (50) 
-14.302

>  <name>  (50) 
50

>  <ligand_id>  (50) 
50

>  <original_smiles>  (50) 
[H]c1c([H])c([H])c2c(c1[H])C([H])([H])C([H])([H])C([H])([H])C2([H])N([H])C(=O)C1([H])N(C(=O)C([H])(N([H])C(=O)C([H])(N([H])C([H])([H])[H])C([H])([H])[H])C(C([H])([H])[H])(C([H])([H])[H])C([H])([H])[H])C([H])([H])c2c([H])c(OC([H])([H])C([H])(C([H])([H])c3c([H])c([H])c(N([H])C(=O)N4C([H])([H])C([H])([H])C([H])([H])C([H])(n5nc(-c6c([H])c([H])c(Oc7c([H])c([H])c(F)c([H])c7F)c([H])c6[H])c(C(=O)N([H])[H])c5N([H])[H])C4([H])[H])c([H])c3F)[N+]([H])([H])[H])c([H])c([H])c2C1([H])[H]

>  <smiles>  (50) 
[H]c1c([H])c([H])c2c(c1[H])C([H])([H])C([H])([H])C([H])([H])C2([H])N([H])C(=O)C1([H])N(C(=O)C([H])(N([H])C(=O)C([H])(N([H])C([H])([H])[H])C([H])([H])[H])C(C([H])([H])[H])(C([H])([H])[H])C([H])([H])[H])C([H])([H])c2c([H])c(OC([H])([H])C([H])(C([H])([H])c3c([H])c([H])c(N([H])C(=O)N4C([H])([H])C([H])([H])C([H])([H])C([H])(n5nc(-c6c([H])c([H])c(Oc7c([H])c([H])c(F)c([H])c7F)c([H])c6[H])c(C(=O)N([H])[H])c5N([H])[H])C4([H])[H])c([H])c3F)[N+]([H])([H])[H])c([H])c([H])c2C1([H])[H]

$$$$
51:0:0
     RDKit          3D

 94102  0  0  1  0  0  0  0  0999 V2000
  -29.6760  -21.8180   20.1110 C   0  0  0  0  0  3  0  0  0  0  0  0
  -30.0130  -18.9420   19.8300 C   0  0  0  0  0  3  0  0  0  0  0  0
  -30.9230  -17.7150   21.7220 C   0  0  0  0  0  3  0  0  0  0  0  0
  -29.8830  -20.2290   20.5950 C   0  0  0  0  0  0  0  0  0  0  0  0
  -30.5470  -17.6450   20.3650 C   0  0  0  0  0  0  0  0  0  0  0  0
  -30.7490  -18.8850   22.4920 C   0  0  0  0  0  0  0  0  0  0  0  0
  -30.2340  -20.0860   21.9530 C   0  0  0  0  0  0  0  0  0  0  0  0
  -31.0990  -18.8600   23.8000 F   0  0  0  0  0  0  0  0  0  0  0  0
  -30.1300  -21.1600   22.7690 F   0  0  0  0  0  0  0  0  0  0  0  0
  -31.2880  -15.0130   19.9160 C   0  0  0  0  0  0  0  0  0  0  0  0
  -31.0410  -12.6670   18.9500 C   0  0  0  0  0  2  0  0  0  0  0  0
  -30.0580  -12.6400   17.7570 C   0  0  0  0  0  2  0  0  0  0  0  0
  -28.6070  -12.4950   18.2550 C   0  0  0  0  0  2  0  0  0  0  0  0
  -28.2820  -13.4610   19.4250 C   0  0  0  0  0  3  0  0  0  0  0  0
  -29.3740  -13.4340   20.5130 C   0  0  0  0  0  2  0  0  0  0  0  0
  -30.6310  -13.7880   19.8390 N   0  0  0  0  0  0  0  0  0  0  0  0
  -32.5160  -15.0010   19.7500 O   0  0  0  0  0  0  0  0  0  0  0  0
  -30.5440  -16.2230   19.7600 N   0  0  0  0  0  0  0  0  0  0  0  0
  -29.6570  -16.0070   19.3330 H   0  0  0  0  0  0  0  0  0  0  0  0
  -25.9650  -14.1780   20.2380 C   0  0  0  0  0  0  0  0  0  0  0  0
  -24.8650  -13.4630   20.6230 C   0  0  0  0  0  0  0  0  0  0  0  0
  -25.2550  -12.0880   20.5900 C   0  0  0  0  0  0  0  0  0  0  0  0
  -26.9490  -13.2410   19.9660 N   0  0  0  0  0  0  0  0  0  0  0  0
  -26.5330  -11.9810   20.2540 N   0  0  0  0  0  0  0  0  0  0  0  0
  -24.4690  -10.8670   20.8040 C   0  0  0  0  0  0  0  0  0  0  0  0
  -24.8370   -9.9160   21.7820 C   0  0  0  0  0  3  0  0  0  0  0  0
  -24.0530   -8.7610   21.9860 C   0  0  0  0  0  3  0  0  0  0  0  0
  -22.8900   -8.5460   21.2070 C   0  0  0  0  0  0  0  0  0  0  0  0
  -22.5410   -9.4860   20.2210 C   0  0  0  0  0  3  0  0  0  0  0  0
  -23.3260  -10.6320   20.0160 C   0  0  0  0  0  3  0  0  0  0  0  0
  -22.0830   -7.4390   21.3150 O   0  0  0  0  0  0  0  0  0  0  0  0
  -21.9190   -6.7830   22.5080 C   0  0  0  0  0  0  0  0  0  0  0  0
  -21.4360   -7.4400   23.6600 C   0  0  0  0  0  3  0  0  0  0  0  0
  -21.2150   -6.7130   24.8460 C   0  0  0  0  0  3  0  0  0  0  0  0
  -21.4650   -5.3290   24.8790 C   0  0  0  0  0  0  0  0  0  0  0  0
  -21.9420   -4.6700   23.7330 C   0  0  0  0  0  3  0  0  0  0  0  0
  -22.1640   -5.3950   22.5480 C   0  0  0  0  0  0  0  0  0  0  0  0
  -22.6020   -4.7530   21.4400 F   0  0  0  0  0  0  0  0  0  0  0  0
  -21.2460   -4.6280   26.0170 F   0  0  0  0  0  0  0  0  0  0  0  0
  -23.5000  -14.0140   20.9240 C   0  0  0  0  0  0  0  0  0  0  0  0
  -22.7670  -13.3780   21.8320 N   0  0  0  0  0  0  0  0  0  0  0  0
  -23.0970  -15.0460   20.3900 O   0  0  0  0  0  0  0  0  0  0  0  0
  -23.1050  -12.5400   22.2840 H   0  0  0  0  0  0  0  0  0  0  0  0
  -21.8550  -13.7370   22.0790 H   0  0  0  0  0  0  0  0  0  0  0  0
  -26.2070  -15.5390   20.0780 N   0  0  0  0  0  0  0  0  0  0  0  0
  -25.5220  -16.2340   20.3550 H   0  0  0  0  0  0  0  0  0  0  0  0
  -27.1290  -15.9310   19.9480 H   0  0  0  0  0  0  0  0  0  0  0  0
  -30.2780  -21.9960   18.7810 N   0  0  0  0  0  4  0  0  0  0  0  0
  -29.7740  -21.4870   18.0780 H   0  0  0  0  0  0  0  0  0  0  0  0
  -31.2340  -21.6920   18.7870 H   0  0  0  0  0  0  0  0  0  0  0  0
  -30.2580  -22.9720   18.5480 H   0  0  0  0  0  0  0  0  0  0  0  0
  -28.3600  -22.9030   20.2840 C   0  0  0  0  0  2  0  0  0  0  0  0
  -28.3180  -24.4720   20.9530 C   0  0  0  0  0  2  0  0  0  0  0  0
  -28.3450  -25.9230   20.3350 O   0  0  0  0  0  0  0  0  0  0  0  0
  -24.6210  -31.6760   23.1230 C   0  0  0  0  0  0  0  0  0  0  0  0
  -27.2610  -26.8770   20.3060 C   0  0  0  0  0  0  0  0  0  0  0  0
  -23.4640  -30.2440   21.4710 C   0  0  0  0  0  3  0  0  0  0  0  0
  -24.9490  -28.6330   20.1200 C   0  0  0  0  0  0  0  0  0  0  0  0
  -26.0200  -30.5000   21.3900 C   0  0  0  0  0  2  0  0  0  0  0  0
  -26.1020  -29.0910   20.7680 C   0  0  0  0  0  0  0  0  0  0  0  0
  -27.2600  -28.2310   20.8340 C   0  0  0  0  0  3  0  0  0  0  0  0
  -26.0810  -26.5130   19.6260 C   0  0  0  0  0  3  0  0  0  0  0  0
  -24.9550  -27.3630   19.5160 C   0  0  0  0  0  3  0  0  0  0  0  0
  -23.7320  -29.5390   20.1090 C   0  0  0  0  0  2  0  0  0  0  0  0
  -24.7160  -30.8400   22.0430 N   0  0  0  0  0  0  0  0  0  0  0  0
  -23.5250  -31.9580   23.6290 O   0  0  0  0  0  0  0  0  0  0  0  0
  -22.7720  -29.2580   22.4490 C   0  0  0  0  0  0  0  0  0  0  0  0
  -21.4450  -29.0930   22.3180 N   0  0  0  0  0  0  0  0  0  0  0  0
  -23.4340  -28.6400   23.2850 O   0  0  0  0  0  0  0  0  0  0  0  0
  -20.9680  -29.6440   21.6190 H   0  0  0  0  0  0  0  0  0  0  0  0
  -18.0510  -27.8900   22.8060 C   0  0  0  0  0  0  0  0  0  0  0  0
  -20.6080  -28.1680   23.1000 C   0  0  0  0  0  3  0  0  0  0  0  0
  -20.7200  -26.7240   22.5550 C   0  0  0  0  0  2  0  0  0  0  0  0
  -19.6310  -26.3760   21.5360 C   0  0  0  0  0  2  0  0  0  0  0  0
  -18.2400  -26.5270   22.1590 C   0  0  0  0  0  2  0  0  0  0  0  0
  -19.1620  -28.6640   23.2360 C   0  0  0  0  0  0  0  0  0  0  0  0
  -18.9290  -29.9330   23.8100 C   0  0  0  0  0  3  0  0  0  0  0  0
  -17.6190  -30.4270   23.9580 C   0  0  0  0  0  3  0  0  0  0  0  0
  -16.5230  -29.6540   23.5420 C   0  0  0  0  0  3  0  0  0  0  0  0
  -16.7380  -28.3880   22.9710 C   0  0  0  0  0  3  0  0  0  0  0  0
  -25.8860  -32.3310   23.7570 C   0  0  0  0  0  3  0  0  0  0  0  0
  -26.3990  -31.5690   25.0380 C   0  0  1  0  0  0  0  0  0  0  0  0
  -25.2960  -31.3250   26.0950 C   0  0  0  0  0  1  0  0  0  0  0  0
  -27.0080  -30.1980   24.6660 C   0  0  0  0  0  1  0  0  0  0  0  0
  -27.5340  -32.3820   25.7060 C   0  0  0  0  0  1  0  0  0  0  0  0
  -25.5430  -33.7210   24.0930 N   0  0  0  0  0  0  0  0  0  0  0  0
  -25.8820  -34.7930   23.3670 C   0  0  0  0  0  0  0  0  0  0  0  0
  -26.5800  -34.7170   22.3520 O   0  0  0  0  0  0  0  0  0  0  0  0
  -24.9320  -33.8460   24.8830 H   0  0  0  0  0  0  0  0  0  0  0  0
  -24.1400  -36.5770   23.0140 C   0  0  0  0  0  1  0  0  0  0  0  0
  -25.3700  -36.1670   23.8410 C   0  0  0  0  0  3  0  0  0  0  0  0
  -27.4740  -37.0680   24.7320 C   0  0  0  0  0  1  0  0  0  0  0  0
  -26.3860  -37.2380   23.7710 N   0  0  0  0  0  0  0  0  0  0  0  0
  -25.9650  -38.1490   23.9300 H   0  0  0  0  0  0  0  0  0  0  0  0
  1 52  1  0
  1  4  1  0
  2  5  2  0
  2  4  1  0
  3  6  2  0
  4  7  2  0
  5  3  1  0
  6  8  1  0
  7  6  1  0
  7  9  1  0
 11 16  1  0
 12 13  1  0
 12 11  1  0
 14 13  1  0
 14 23  1  0
 14 15  1  0
 16 10  1  0
 16 15  1  0
 17 10  2  0
 18 10  1  0
 18  5  1  0
 19 18  1  0
 20 21  2  0
 21 40  1  0
 22 21  1  0
 22 25  1  0
 23 20  1  0
 23 24  1  0
 24 22  2  0
 25 26  1  0
 26 27  2  0
 28 31  1  0
 28 27  1  0
 29 28  2  0
 30 29  1  0
 30 25  2  0
 31 32  1  0
 32 37  2  0
 32 33  1  0
 33 34  2  0
 34 35  1  0
 35 39  1  0
 36 35  2  0
 37 36  1  0
 38 37  1  0
 40 41  1  0
 41 44  1  0
 41 43  1  0
 42 40  2  0
 45 20  1  0
 45 46  1  0
 47 45  1  0
 48 50  1  0
 48  1  1  0
 49 48  1  0
 51 48  1  0
 52 53  1  0
 54 53  1  0
 55 66  2  0
 56 54  1  0
 56 61  1  0
 57 65  1  0
 57 67  1  0
 58 60  1  0
 59 65  1  0
 60 61  2  0
 60 59  1  0
 62 56  2  0
 63 62  1  0
 63 58  2  0
 64 58  1  0
 64 57  1  0
 65 55  1  0
 67 69  2  0
 68 67  1  0
 70 68  1  0
 71 80  2  0
 71 76  1  0
 72 68  1  0
 72 76  1  0
 73 72  1  0
 74 75  1  0
 74 73  1  0
 75 71  1  0
 76 77  2  0
 77 78  1  0
 79 78  2  0
 80 79  1  0
 81 55  1  0
 81 86  1  0
 81 82  1  0
 82 85  1  1
 82 83  1  0
 84 82  1  0
 86 89  1  0
 87 91  1  0
 87 86  1  0
 88 87  2  0
 91 90  1  0
 93 91  1  0
 93 94  1  0
 93 92  1  0
M  ISO  4  10 100  18 100  53 101  54 101
M  END
>  <TORSDO>  (51) 
F 20

>  <SCORE>  (51) 
-13.997

>  <name>  (51) 
51

>  <ligand_id>  (51) 
51

>  <original_smiles>  (51) 
[H]c1c([H])c([H])c2c(c1[H])C([H])([H])C([H])([H])C([H])([H])C2([H])N([H])C(=O)C1([H])N(C(=O)C([H])(N([H])C(=O)C([H])(N([H])C([H])([H])[H])C([H])([H])[H])C(C([H])([H])[H])(C([H])([H])[H])C([H])([H])[H])C([H])([H])c2c([H])c(OC([H])([H])C([H])([H])C([H])(c3c([H])c(N([H])C(=O)N4C([H])([H])C([H])([H])C([H])([H])C([H])(n5nc(-c6c([H])c([H])c(Oc7c([H])c([H])c(F)c([H])c7F)c([H])c6[H])c(C(=O)N([H])[H])c5N([H])[H])C4([H])[H])c([H])c(F)c3F)[N+]([H])([H])[H])c([H])c([H])c2C1([H])[H]

>  <smiles>  (51) 
[H]c1c([H])c([H])c2c(c1[H])C([H])([H])C([H])([H])C([H])([H])C2([H])N([H])C(=O)C1([H])N(C(=O)C([H])(N([H])C(=O)C([H])(N([H])C([H])([H])[H])C([H])([H])[H])C(C([H])([H])[H])(C([H])([H])[H])C([H])([H])[H])C([H])([H])c2c([H])c(OC([H])([H])C([H])([H])C([H])(c3c([H])c(N([H])C(=O)N4C([H])([H])C([H])([H])C([H])([H])C([H])(n5nc(-c6c([H])c([H])c(Oc7c([H])c([H])c(F)c([H])c7F)c([H])c6[H])c(C(=O)N([H])[H])c5N([H])[H])C4([H])[H])c([H])c(F)c3F)[N+]([H])([H])[H])c([H])c([H])c2C1([H])[H]

$$$$
52:0:0
     RDKit          3D

 97106  0  0  1  0  0  0  0  0999 V2000
  -26.3630  -20.1030   19.6820 C   0  0  0  0  0  2  0  0  0  0  0  0
  -27.2030  -20.0230   20.9570 C   0  0  0  0  0  2  0  0  0  0  0  0
  -27.0560  -21.1690   18.8310 C   0  0  0  0  0  2  0  0  0  0  0  0
  -28.5820  -20.5660   20.5460 C   0  0  0  0  0  3  0  0  0  0  0  0
  -28.0630  -21.7060   19.7450 N   0  0  0  0  0  0  0  0  0  0  0  0
  -30.9420  -18.7120   18.0810 C   0  0  0  0  0  3  0  0  0  0  0  0
  -30.1840  -19.7270   18.6980 C   0  0  0  0  0  3  0  0  0  0  0  0
  -30.9690  -17.4100   18.6110 C   0  0  0  0  0  3  0  0  0  0  0  0
  -29.4990  -18.1310   20.4030 C   0  0  0  0  0  3  0  0  0  0  0  0
  -29.4360  -19.4570   19.8650 C   0  0  0  0  0  0  0  0  0  0  0  0
  -30.2500  -17.0860   19.7880 C   0  0  0  0  0  0  0  0  0  0  0  0
  -30.9570  -14.6660   19.9770 C   0  0  0  0  0  0  0  0  0  0  0  0
  -30.6670  -12.4350   18.9760 C   0  0  0  0  0  2  0  0  0  0  0  0
  -29.6910  -12.5790   17.7870 C   0  0  0  0  0  2  0  0  0  0  0  0
  -28.2280  -12.4560   18.2620 C   0  0  0  0  0  2  0  0  0  0  0  0
  -27.9220  -13.3390   19.5020 C   0  0  0  0  0  3  0  0  0  0  0  0
  -29.0100  -13.1780   20.5860 C   0  0  0  0  0  2  0  0  0  0  0  0
  -30.3120  -13.4650   19.9670 N   0  0  0  0  0  0  0  0  0  0  0  0
  -32.1100  -14.7870   19.5550 O   0  0  0  0  0  0  0  0  0  0  0  0
  -30.2010  -15.7420   20.3220 N   0  0  0  0  0  0  0  0  0  0  0  0
  -29.3710  -15.5150   20.8490 H   0  0  0  0  0  0  0  0  0  0  0  0
  -25.5640  -13.9720   20.3100 C   0  0  0  0  0  0  0  0  0  0  0  0
  -24.4990  -13.2110   20.7100 C   0  0  0  0  0  0  0  0  0  0  0  0
  -24.9360  -11.8520   20.6450 C   0  0  0  0  0  0  0  0  0  0  0  0
  -26.5840  -13.0760   20.0280 N   0  0  0  0  0  0  0  0  0  0  0  0
  -26.2140  -11.7960   20.2890 N   0  0  0  0  0  0  0  0  0  0  0  0
  -24.1960  -10.5980   20.8440 C   0  0  0  0  0  0  0  0  0  0  0  0
  -24.5820   -9.6650   21.8310 C   0  0  0  0  0  3  0  0  0  0  0  0
  -23.8460   -8.4740   22.0190 C   0  0  0  0  0  3  0  0  0  0  0  0
  -22.7080   -8.2110   21.2170 C   0  0  0  0  0  0  0  0  0  0  0  0
  -22.3410   -9.1350   20.2230 C   0  0  0  0  0  3  0  0  0  0  0  0
  -23.0780  -10.3170   20.0350 C   0  0  0  0  0  3  0  0  0  0  0  0
  -21.9450   -7.0730   21.3100 O   0  0  0  0  0  0  0  0  0  0  0  0
  -21.7550   -6.4310   22.5070 C   0  0  0  0  0  0  0  0  0  0  0  0
  -21.1750   -7.0810   23.6190 C   0  0  0  0  0  3  0  0  0  0  0  0
  -20.9360   -6.3620   24.8080 C   0  0  0  0  0  3  0  0  0  0  0  0
  -21.2640   -4.9950   24.8840 C   0  0  0  0  0  0  0  0  0  0  0  0
  -21.8370   -4.3450   23.7760 C   0  0  0  0  0  3  0  0  0  0  0  0
  -22.0780   -5.0620   22.5900 C   0  0  0  0  0  0  0  0  0  0  0  0
  -22.6100   -4.4260   21.5190 F   0  0  0  0  0  0  0  0  0  0  0  0
  -21.0270   -4.3030   26.0220 F   0  0  0  0  0  0  0  0  0  0  0  0
  -23.1200  -13.7070   21.0410 C   0  0  0  0  0  0  0  0  0  0  0  0
  -22.4130  -13.0120   21.9260 N   0  0  0  0  0  0  0  0  0  0  0  0
  -22.6810  -14.7470   20.5530 O   0  0  0  0  0  0  0  0  0  0  0  0
  -22.7800  -12.1680   22.3410 H   0  0  0  0  0  0  0  0  0  0  0  0
  -21.4930  -13.3290   22.1930 H   0  0  0  0  0  0  0  0  0  0  0  0
  -25.7440  -15.3420   20.1430 N   0  0  0  0  0  0  0  0  0  0  0  0
  -24.9880  -16.0020   20.2840 H   0  0  0  0  0  0  0  0  0  0  0  0
  -26.5820  -15.7710   19.7710 H   0  0  0  0  0  0  0  0  0  0  0  0
  -28.8880  -22.8160   19.2130 C   0  0  0  0  0  2  0  0  0  0  0  0
  -28.5250  -24.2140   19.8450 C   0  0  0  0  0  3  0  0  0  0  0  0
  -27.1860  -24.1540   20.4640 N   0  0  0  0  0  4  0  0  0  0  0  0
  -26.4550  -24.1800   19.7770 H   0  0  0  0  0  0  0  0  0  0  0  0
  -27.0560  -24.8880   21.1390 H   0  0  0  0  0  0  0  0  0  0  0  0
  -27.1380  -23.2580   20.9230 H   0  0  0  0  0  0  0  0  0  0  0  0
  -28.6490  -25.4360   18.8650 C   0  0  0  0  0  2  0  0  0  0  0  0
  -28.5400  -26.7540   19.4660 O   0  0  0  0  0  0  0  0  0  0  0  0
  -24.6840  -31.5860   23.0350 C   0  0  0  0  0  0  0  0  0  0  0  0
  -27.3380  -27.4500   19.5170 C   0  0  0  0  0  0  0  0  0  0  0  0
  -23.4650  -30.3000   21.3110 C   0  0  0  0  0  3  0  0  0  0  0  0
  -24.9120  -28.9190   19.7240 C   0  0  0  0  0  0  0  0  0  0  0  0
  -25.9790  -30.7230   21.0820 C   0  0  0  0  0  2  0  0  0  0  0  0
  -26.0740  -29.4070   20.3290 C   0  0  0  0  0  0  0  0  0  0  0  0
  -27.2850  -28.6780   20.2280 C   0  0  0  0  0  3  0  0  0  0  0  0
  -26.1500  -26.9930   18.8980 C   0  0  0  0  0  3  0  0  0  0  0  0
  -24.9460  -27.7130   19.0080 C   0  0  0  0  0  3  0  0  0  0  0  0
  -23.6530  -29.7450   19.8740 C   0  0  0  0  0  2  0  0  0  0  0  0
  -24.7290  -30.8810   21.8680 N   0  0  0  0  0  0  0  0  0  0  0  0
  -23.6110  -31.7860   23.6230 O   0  0  0  0  0  0  0  0  0  0  0  0
  -22.8590  -29.1860   22.1960 C   0  0  0  0  0  0  0  0  0  0  0  0
  -21.5350  -28.9890   22.0910 N   0  0  0  0  0  0  0  0  0  0  0  0
  -23.5780  -28.5040   22.9330 O   0  0  0  0  0  0  0  0  0  0  0  0
  -21.0160  -29.5930   21.4700 H   0  0  0  0  0  0  0  0  0  0  0  0
  -18.1990  -27.6820   22.5670 C   0  0  0  0  0  0  0  0  0  0  0  0
  -20.7590  -27.9720   22.7980 C   0  0  0  0  0  3  0  0  0  0  0  0
  -20.8730  -26.5970   22.0970 C   0  0  0  0  0  2  0  0  0  0  0  0
  -19.7520  -26.3390   21.0860 C   0  0  0  0  0  2  0  0  0  0  0  0
  -18.3850  -26.3990   21.7750 C   0  0  0  0  0  2  0  0  0  0  0  0
  -19.3140  -28.4280   23.0330 C   0  0  0  0  0  0  0  0  0  0  0  0
  -19.0860  -29.6320   23.7360 C   0  0  0  0  0  3  0  0  0  0  0  0
  -17.7770  -30.0900   23.9740 C   0  0  0  0  0  3  0  0  0  0  0  0
  -16.6770  -29.3400   23.5220 C   0  0  0  0  0  3  0  0  0  0  0  0
  -16.8890  -28.1380   22.8250 C   0  0  0  0  0  3  0  0  0  0  0  0
  -25.9710  -32.1910   23.6770 C   0  0  0  0  0  3  0  0  0  0  0  0
  -25.6440  -33.5480   24.1340 N   0  0  0  0  0  0  0  0  0  0  0  0
  -25.9270  -34.6680   23.4550 C   0  0  0  0  0  0  0  0  0  0  0  0
  -26.5660  -34.6670   22.3980 O   0  0  0  0  0  0  0  0  0  0  0  0
  -25.0780  -33.6230   24.9660 H   0  0  0  0  0  0  0  0  0  0  0  0
  -24.1430  -36.4330   23.3040 C   0  0  0  0  0  1  0  0  0  0  0  0
  -25.4210  -36.0000   24.0400 C   0  0  0  0  0  3  0  0  0  0  0  0
  -27.5590  -36.8760   24.8700 C   0  0  0  0  0  1  0  0  0  0  0  0
  -26.4230  -37.0870   23.9790 N   0  0  0  0  0  0  0  0  0  0  0  0
  -25.9990  -37.9820   24.2090 H   0  0  0  0  0  0  0  0  0  0  0  0
  -26.5390  -31.3230   24.8670 C   0  0  1  0  0  0  0  0  0  0  0  0
  -25.4830  -30.9770   25.9420 C   0  0  0  0  0  1  0  0  0  0  0  0
  -27.1260  -29.9940   24.3380 C   0  0  0  0  0  1  0  0  0  0  0  0
  -27.6990  -32.0760   25.5590 C   0  0  0  0  0  1  0  0  0  0  0  0
  1  2  1  0
  3  1  1  0
  3  5  1  0
  4 10  1  0
  4  2  1  0
  5  4  1  0
  6  8  2  0
  6  7  1  0
  7 10  2  0
  8 11  1  0
 10  9  1  0
 11 20  1  0
 11  9  2  0
 12 20  1  0
 13 18  1  0
 14 15  1  0
 14 13  1  0
 16 15  1  0
 16 25  1  0
 16 17  1  0
 18 12  1  0
 18 17  1  0
 19 12  2  0
 20 21  1  0
 22 23  2  0
 23 42  1  0
 24 23  1  0
 24 27  1  0
 25 26  1  0
 25 22  1  0
 26 24  2  0
 27 28  1  0
 28 29  2  0
 30 33  1  0
 30 29  1  0
 31 30  2  0
 32 31  1  0
 32 27  2  0
 33 34  1  0
 34 39  2  0
 34 35  1  0
 35 36  2  0
 36 37  1  0
 37 41  1  0
 38 37  2  0
 39 38  1  0
 40 39  1  0
 42 43  1  0
 43 46  1  0
 43 45  1  0
 44 42  2  0
 47 48  1  0
 47 22  1  0
 49 47  1  0
 50  5  1  0
 50 51  1  0
 51 56  1  0
 51 52  1  0
 52 55  1  0
 52 54  1  0
 53 52  1  0
 56 57  1  0
 57 59  1  0
 58 69  2  0
 59 64  1  0
 60 68  1  0
 60 70  1  0
 61 67  1  0
 61 63  1  0
 62 68  1  0
 63 62  1  0
 64 63  2  0
 65 66  1  0
 65 59  2  0
 66 61  2  0
 67 60  1  0
 68 58  1  0
 70 72  2  0
 71 70  1  0
 73 71  1  0
 74 83  2  0
 74 79  1  0
 75 71  1  0
 75 79  1  0
 76 75  1  0
 77 78  1  0
 77 76  1  0
 78 74  1  0
 79 80  2  0
 80 81  1  0
 82 81  2  0
 83 82  1  0
 84 58  1  0
 84 85  1  0
 84 94  1  0
 85 88  1  0
 86 90  1  0
 86 85  1  0
 87 86  2  0
 90 89  1  0
 92 90  1  0
 92 93  1  0
 92 91  1  0
 94 97  1  1
 94 95  1  0
 96 94  1  0
M  ISO  4  12 100  20 100  56 101  57 101
M  END
>  <TORSDO>  (52) 
F 21

>  <SCORE>  (52) 
-10.569

>  <name>  (52) 
52

>  <ligand_id>  (52) 
52

>  <original_smiles>  (52) 
[H]c1c([H])c([H])c2c(c1[H])C([H])([H])C([H])([H])C([H])([H])C2([H])N([H])C(=O)C1([H])N(C(=O)C([H])(N([H])C(=O)C([H])(N([H])C([H])([H])[H])C([H])([H])[H])C(C([H])([H])[H])(C([H])([H])[H])C([H])([H])[H])C([H])([H])c2c([H])c(OC([H])([H])C([H])(C([H])([H])N3C([H])([H])C([H])([H])C([H])([H])C3([H])c3c([H])c([H])c([H])c(N([H])C(=O)N4C([H])([H])C([H])([H])C([H])([H])C([H])(n5nc(-c6c([H])c([H])c(Oc7c([H])c([H])c(F)c([H])c7F)c([H])c6[H])c(C(=O)N([H])[H])c5N([H])[H])C4([H])[H])c3[H])[N+]([H])([H])[H])c([H])c([H])c2C1([H])[H]

>  <smiles>  (52) 
[H]c1c([H])c([H])c2c(c1[H])C([H])([H])C([H])([H])C([H])([H])C2([H])N([H])C(=O)C1([H])N(C(=O)C([H])(N([H])C(=O)C([H])(N([H])C([H])([H])[H])C([H])([H])[H])C(C([H])([H])[H])(C([H])([H])[H])C([H])([H])[H])C([H])([H])c2c([H])c(OC([H])([H])C([H])(C([H])([H])N3C([H])([H])C([H])([H])C([H])([H])C3([H])c3c([H])c([H])c([H])c(N([H])C(=O)N4C([H])([H])C([H])([H])C([H])([H])C([H])(n5nc(-c6c([H])c([H])c(Oc7c([H])c([H])c(F)c([H])c7F)c([H])c6[H])c(C(=O)N([H])[H])c5N([H])[H])C4([H])[H])c3[H])[N+]([H])([H])[H])c([H])c([H])c2C1([H])[H]

$$$$
53:0:0
     RDKit          3D

 93 95  0  0  1  0  0  0  0  0999 V2000
  -31.7650  -24.2000   22.3630 N   0  0  0  0  0  4  0  0  0  0  0  0
  -32.5940  -24.3880   22.9080 H   0  0  0  0  0  0  0  0  0  0  0  0
  -31.1020  -23.8230   23.0190 H   0  0  0  0  0  0  0  0  0  0  0  0
  -32.2210  -23.1930   21.3650 C   0  0  0  0  0  2  0  0  0  0  0  0
  -31.1750  -22.1370   20.8700 C   0  0  0  0  0  2  0  0  0  0  0  0
  -29.5920  -22.4350   21.0110 C   0  0  0  0  0  1  0  0  0  0  0  0
  -27.8390  -24.1340   19.7340 O   0  0  0  0  0  0  0  0  0  0  0  0
  -24.6620  -31.6130   22.8390 C   0  0  0  0  0  0  0  0  0  0  0  0
  -27.1600  -25.8490   19.8340 C   0  0  0  0  0  3  0  0  0  0  0  0
  -23.5150  -30.2240   21.1790 C   0  0  0  0  0  3  0  0  0  0  0  0
  -24.9800  -28.4290   19.7990 C   0  0  0  0  0  0  0  0  0  0  0  0
  -26.1190  -30.1070   21.1840 C   0  0  0  0  0  2  0  0  0  0  0  0
  -26.1770  -28.5950   20.5020 C   0  0  0  0  0  0  0  0  0  0  0  0
  -27.2010  -27.3660   20.4810 C   0  0  0  0  0  3  0  0  0  0  0  0
  -25.9420  -26.1390   19.0720 C   0  0  0  0  0  3  0  0  0  0  0  0
  -24.9530  -27.2270   19.0560 C   0  0  0  0  0  3  0  0  0  0  0  0
  -23.8100  -29.4810   19.8280 C   0  0  0  0  0  2  0  0  0  0  0  0
  -24.8000  -30.7000   21.7880 N   0  0  0  0  0  0  0  0  0  0  0  0
  -23.5510  -31.9500   23.2960 O   0  0  0  0  0  0  0  0  0  0  0  0
  -22.7020  -29.3180   22.1480 C   0  0  0  0  0  0  0  0  0  0  0  0
  -21.3550  -29.2770   22.0520 N   0  0  0  0  0  0  0  0  0  0  0  0
  -23.3100  -28.6370   22.9770 O   0  0  0  0  0  0  0  0  0  0  0  0
  -20.9030  -29.8740   21.3740 H   0  0  0  0  0  0  0  0  0  0  0  0
  -17.8980  -28.2780   22.6910 C   0  0  0  0  0  0  0  0  0  0  0  0
  -20.4850  -28.3560   22.8060 C   0  0  0  0  0  3  0  0  0  0  0  0
  -20.4430  -26.9640   22.1310 C   0  0  0  0  0  2  0  0  0  0  0  0
  -19.2680  -26.8010   21.1620 C   0  0  0  0  0  2  0  0  0  0  0  0
  -17.9380  -26.9840   21.8960 C   0  0  0  0  0  2  0  0  0  0  0  0
  -19.0920  -28.9320   23.1030 C   0  0  0  0  0  0  0  0  0  0  0  0
  -18.9900  -30.1430   23.8210 C   0  0  0  0  0  3  0  0  0  0  0  0
  -17.7320  -30.6990   24.1240 C   0  0  0  0  0  3  0  0  0  0  0  0
  -16.5570  -30.0440   23.7210 C   0  0  0  0  0  3  0  0  0  0  0  0
  -16.6420  -28.8340   23.0080 C   0  0  0  0  0  3  0  0  0  0  0  0
  -25.8850  -32.2890   23.5360 C   0  0  0  0  0  3  0  0  0  0  0  0
  -25.5230  -33.6770   23.9320 N   0  0  0  0  0  0  0  0  0  0  0  0
  -25.9050  -34.8010   23.3070 C   0  0  0  0  0  0  0  0  0  0  0  0
  -26.6350  -34.7860   22.3140 O   0  0  0  0  0  0  0  0  0  0  0  0
  -24.8750  -33.7620   24.7000 H   0  0  0  0  0  0  0  0  0  0  0  0
  -24.2010  -36.6510   23.0490 C   0  0  0  0  0  1  0  0  0  0  0  0
  -25.4080  -36.1570   23.8650 C   0  0  0  0  0  3  0  0  0  0  0  0
  -27.5060  -36.9800   24.8530 C   0  0  0  0  0  1  0  0  0  0  0  0
  -26.4460  -37.2150   23.8760 N   0  0  0  0  0  0  0  0  0  0  0  0
  -26.0330  -38.1220   24.0680 H   0  0  0  0  0  0  0  0  0  0  0  0
  -26.3640  -31.5060   24.8220 C   0  0  1  0  0  0  0  0  0  0  0  0
  -25.2400  -31.2490   25.8550 C   0  0  0  0  0  1  0  0  0  0  0  0
  -26.9690  -30.1350   24.4520 C   0  0  0  0  0  1  0  0  0  0  0  0
  -27.4880  -32.2970   25.5330 C   0  0  0  0  0  1  0  0  0  0  0  0
  -31.3540  -25.5310   21.8310 C   0  0  0  0  0  2  0  0  0  0  0  0
  -29.8440  -25.7600   21.5220 C   0  0  0  0  0  2  0  0  0  0  0  0
  -28.9830  -20.5040   19.2070 C   0  0  0  0  0  1  0  0  0  0  0  0
  -27.9280  -23.7760   21.0940 C   0  0  0  0  0  3  0  0  0  0  0  0
  -27.6660  -21.9100   20.1480 C   0  0  0  0  0 15  0  0  0  0  0  0
  -29.7260  -22.2030   18.1420 C   0  0  0  0  0 15  0  0  0  0  0  0
  -30.2840  -24.2840   18.8980 C   0  0  0  0  0 15  0  0  0  0  0  0
  -29.2050  -18.7490   19.4720 N   0  0  0  0  0  1  0  0  0  0  0  0
  -29.2220  -24.8020   20.6030 N   0  0  0  0  0  0  0  0  0  0  0  0
  -27.2250  -24.0530   22.0660 O   0  0  0  0  0  1  0  0  0  0  0  0
  -30.0120  -16.9300   19.4450 C   0  0  0  0  0  2  0  0  0  0  0  0
  -30.4950  -14.0120   19.1060 C   0  0  0  0  0  2  0  0  0  0  0  0
  -29.7940  -12.9670   18.1180 C   0  0  0  0  0  2  0  0  0  0  0  0
  -28.5030  -12.3790   18.6860 C   0  0  0  0  0  2  0  0  0  0  0  0
  -27.7940  -13.4990   19.4560 C   0  0  0  0  0  3  0  0  0  0  0  0
  -28.6920  -14.4220   20.3820 C   0  0  0  0  0  2  0  0  0  0  0  0
  -29.6730  -15.3340   19.5990 N   0  0  0  0  0  0  0  0  0  0  0  0
  -31.2420  -16.6530   19.2640 O   0  0  0  0  0  1  0  0  0  0  0  0
  -25.4610  -13.9400   20.2770 C   0  0  0  0  0  0  0  0  0  0  0  0
  -24.4230  -13.1620   20.6960 C   0  0  0  0  0  0  0  0  0  0  0  0
  -24.9060  -11.8160   20.6970 C   0  0  0  0  0  0  0  0  0  0  0  0
  -26.5200  -13.0890   20.0470 N   0  0  0  0  0  0  0  0  0  0  0  0
  -26.1980  -11.7930   20.3460 N   0  0  0  0  0  0  0  0  0  0  0  0
  -24.1720  -10.5610   20.9540 C   0  0  0  0  0  0  0  0  0  0  0  0
  -24.5560   -9.6690   21.9810 C   0  0  0  0  0  3  0  0  0  0  0  0
  -23.8130   -8.4920   22.2290 C   0  0  0  0  0  3  0  0  0  0  0  0
  -22.6660   -8.1970   21.4530 C   0  0  0  0  0  0  0  0  0  0  0  0
  -22.2970   -9.0770   20.4190 C   0  0  0  0  0  3  0  0  0  0  0  0
  -23.0400  -10.2440   20.1700 C   0  0  0  0  0  3  0  0  0  0  0  0
  -21.9000   -7.0650   21.6050 O   0  0  0  0  0  0  0  0  0  0  0  0
  -21.7540   -6.4470   22.8210 C   0  0  0  0  0  0  0  0  0  0  0  0
  -21.2200   -7.1230   23.9390 C   0  0  0  0  0  3  0  0  0  0  0  0
  -21.0240   -6.4320   25.1530 C   0  0  0  0  0  3  0  0  0  0  0  0
  -21.3490   -5.0660   25.2480 C   0  0  0  0  0  0  0  0  0  0  0  0
  -21.8730   -4.3890   24.1330 C   0  0  0  0  0  3  0  0  0  0  0  0
  -22.0710   -5.0760   22.9230 C   0  0  0  0  0  0  0  0  0  0  0  0
  -22.5580   -4.4130   21.8470 F   0  0  0  0  0  0  0  0  0  0  0  0
  -21.1540   -4.4000   26.4110 F   0  0  0  0  0  0  0  0  0  0  0  0
  -23.0320  -13.6480   20.9730 C   0  0  0  0  0  0  0  0  0  0  0  0
  -22.3270  -13.0000   21.8920 N   0  0  0  0  0  0  0  0  0  0  0  0
  -22.5850  -14.6470   20.4120 O   0  0  0  0  0  0  0  0  0  0  0  0
  -22.7040  -12.1950   22.3710 H   0  0  0  0  0  0  0  0  0  0  0  0
  -21.3940  -13.3120   22.1210 H   0  0  0  0  0  0  0  0  0  0  0  0
  -25.5920  -15.3040   20.0340 N   0  0  0  0  0  0  0  0  0  0  0  0
  -24.8150  -15.9480   20.1340 H   0  0  0  0  0  0  0  0  0  0  0  0
  -26.4320  -15.7470   19.6840 H   0  0  0  0  0  0  0  0  0  0  0  0
  1  2  1  0
  1  3  1  0
  4  1  1  0
  5  6  1  0
  5  4  1  0
  7 56  1  0
  7 51  1  0
  8 19  2  0
  9 14  1  0
 10 18  1  0
 10 20  1  0
 11 17  1  0
 11 13  1  0
 12 18  1  0
 13 12  1  0
 14 13  2  0
 15  9  2  0
 16 15  1  0
 16 11  2  0
 17 10  1  0
 18  8  1  0
 20 22  2  0
 21 20  1  0
 23 21  1  0
 24 33  2  0
 24 29  1  0
 25 21  1  0
 25 29  1  0
 26 25  1  0
 27 28  1  0
 27 26  1  0
 28 24  1  0
 29 30  2  0
 30 31  1  0
 32 31  2  0
 33 32  1  0
 34  8  1  0
 34 35  1  0
 34 44  1  0
 35 38  1  0
 36 40  1  0
 36 35  1  0
 37 36  2  0
 40 39  1  0
 40 42  1  0
 42 43  1  0
 42 41  1  0
 44 47  1  1
 44 45  1  0
 46 44  1  0
 48  1  1  0
 49 48  1  0
 50 55  1  0
 51 57  1  0
 56 51  1  0
 56 49  1  0
 58 64  1  0
 59 64  1  0
 60 61  1  0
 60 59  1  0
 62 61  1  0
 62 69  1  0
 62 63  1  0
 64 63  1  0
 65 58  1  0
 66 67  2  0
 67 68  1  0
 67 86  1  0
 68 71  1  0
 69 66  1  0
 69 70  1  0
 70 68  2  0
 71 72  1  0
 72 73  2  0
 74 77  1  0
 74 73  1  0
 75 74  2  0
 76 75  1  0
 76 71  2  0
 77 78  1  0
 78 83  2  0
 78 79  1  0
 79 80  2  0
 80 81  1  0
 81 85  1  0
 82 81  2  0
 83 82  1  0
 84 83  1  0
 86 87  1  0
 87 90  1  0
 87 89  1  0
 88 86  2  0
 91 92  1  0
 91 66  1  0
 93 91  1  0
M  ISO  4   6 101   7 101  55 100  58 100
M  END
>  <TORSDO>  (53) 
F 22

>  <SCORE>  (53) 
-10.164

>  <name>  (53) 
53

>  <ligand_id>  (53) 
53

>  <original_smiles>  (53) 
[H]c1c([H])c([H])c2c(c1[H])C([H])([H])C([H])([H])C([H])([H])C2([H])N([H])C(=O)C1([H])N(C(=O)C([H])(N([H])C(=O)C([H])(N([H])C([H])([H])[H])C([H])([H])[H])C(C([H])([H])[H])(C([H])([H])[H])C([H])([H])[H])C([H])([H])c2c([H])c(OC([H])([H])C([H])([H])C([H])([H])[N+]([H])([H])C([H])([H])C([H])([H])N3C(=O)C([H])([H])C(=NC(=O)N4C([H])([H])C([H])([H])C([H])([H])C([H])(n5nc(-c6c([H])c([H])c(Oc7c([H])c([H])c(F)c([H])c7F)c([H])c6[H])c(C(=O)N([H])[H])c5N([H])[H])C4([H])[H])C([H])([H])C3([H])[H])c([H])c([H])c2C1([H])[H]

>  <smiles>  (53) 
[H]c1c([H])c([H])c2c(c1[H])C([H])([H])C([H])([H])C([H])([H])C2([H])N([H])C(=O)C1([H])N(C(=O)C([H])(N([H])C(=O)C([H])(N([H])C([H])([H])[H])C([H])([H])[H])C(C([H])([H])[H])(C([H])([H])[H])C([H])([H])[H])C([H])([H])c2c([H])c(OC([H])([H])C([H])([H])C([H])([H])[N+]([H])([H])C([H])([H])C([H])([H])N3C(=O)C([H])([H])C(=NC(=O)N4C([H])([H])C([H])([H])C([H])([H])C([H])(n5nc(-c6c([H])c([H])c(Oc7c([H])c([H])c(F)c([H])c7F)c([H])c6[H])c(C(=O)N([H])[H])c5N([H])[H])C4([H])[H])C([H])([H])C3([H])[H])c([H])c([H])c2C1([H])[H]

$$$$
54:0:0
     RDKit          3D

 98107  0  0  1  0  0  0  0  0999 V2000
  -30.2070  -22.1200   15.0090 C   0  0  0  0  0  2  0  0  0  0  0  0
  -29.8060  -23.5890   16.7010 C   0  0  0  0  0  2  0  0  0  0  0  0
  -30.0740  -21.2030   16.2430 C   0  0  0  0  0  3  0  0  0  0  0  0
  -29.7010  -22.2010   17.3620 C   0  0  0  0  0  3  0  0  0  0  0  0
  -30.6640  -23.4070   15.5330 N   0  0  0  0  0  0  0  0  0  0  0  0
  -32.0980  -19.8210   15.5340 C   0  0  0  0  0  3  0  0  0  0  0  0
  -31.6760  -20.0350   17.9150 C   0  0  0  0  0  3  0  0  0  0  0  0
  -33.2630  -19.0730   15.8020 C   0  0  0  0  0  3  0  0  0  0  0  0
  -32.8500  -19.3040   18.1870 C   0  0  0  0  0  3  0  0  0  0  0  0
  -31.2920  -20.3230   16.5830 C   0  0  0  0  0  0  0  0  0  0  0  0
  -33.6660  -18.8390   17.1340 C   0  0  0  0  0  0  0  0  0  0  0  0
  -35.2950  -17.8540   18.6480 C   0  0  0  0  0  0  0  0  0  0  0  0
  -36.8120  -18.6220   20.4410 C   0  0  0  0  0  2  0  0  0  0  0  0
  -36.1460  -19.6680   21.3530 C   0  0  0  0  0  2  0  0  0  0  0  0
  -36.3140  -21.0820   20.7670 C   0  0  0  0  0  2  0  0  0  0  0  0
  -35.9180  -21.1550   19.2680 C   0  0  0  0  0  3  0  0  0  0  0  0
  -36.5870  -20.0190   18.4680 C   0  0  0  0  0  2  0  0  0  0  0  0
  -36.2230  -18.7410   19.0980 N   0  0  0  0  0  0  0  0  0  0  0  0
  -34.9450  -16.8630   19.2970 O   0  0  0  0  0  0  0  0  0  0  0  0
  -34.8060  -18.0380   17.4100 N   0  0  0  0  0  0  0  0  0  0  0  0
  -34.6640  -17.1190   17.0150 H   0  0  0  0  0  0  0  0  0  0  0  0
  -35.3700  -23.3970   18.1310 C   0  0  0  0  0  0  0  0  0  0  0  0
  -36.1440  -24.4840   17.8320 C   0  0  0  0  0  0  0  0  0  0  0  0
  -37.4680  -24.1550   18.2590 C   0  0  0  0  0  0  0  0  0  0  0  0
  -36.2240  -22.4670   18.7020 N   0  0  0  0  0  0  0  0  0  0  0  0
  -37.5040  -22.9160   18.7290 N   0  0  0  0  0  0  0  0  0  0  0  0
  -38.6900  -24.9680   18.2960 C   0  0  0  0  0  0  0  0  0  0  0  0
  -39.4650  -25.1900   17.1370 C   0  0  0  0  0  3  0  0  0  0  0  0
  -40.6280  -25.9900   17.1940 C   0  0  0  0  0  3  0  0  0  0  0  0
  -41.0220  -26.5800   18.4180 C   0  0  0  0  0  0  0  0  0  0  0  0
  -40.2590  -26.3370   19.5740 C   0  0  0  0  0  3  0  0  0  0  0  0
  -39.1070  -25.5380   19.5160 C   0  0  0  0  0  3  0  0  0  0  0  0
  -42.1500  -27.3480   18.5740 O   0  0  0  0  0  0  0  0  0  0  0  0
  -42.2420  -28.6080   18.0400 C   0  0  0  0  0  0  0  0  0  0  0  0
  -41.5760  -29.7110   18.6160 C   0  0  0  0  0  3  0  0  0  0  0  0
  -41.7520  -31.0000   18.0740 C   0  0  0  0  0  3  0  0  0  0  0  0
  -42.6010  -31.1890   16.9670 C   0  0  0  0  0  0  0  0  0  0  0  0
  -43.2710  -30.0940   16.3980 C   0  0  0  0  0  3  0  0  0  0  0  0
  -43.0930  -28.8060   16.9340 C   0  0  0  0  0  0  0  0  0  0  0  0
  -43.7570  -27.7560   16.3940 F   0  0  0  0  0  0  0  0  0  0  0  0
  -42.7780  -32.4290   16.4520 F   0  0  0  0  0  0  0  0  0  0  0  0
  -35.6700  -25.7930   17.2690 C   0  0  0  0  0  0  0  0  0  0  0  0
  -36.3700  -26.3200   16.2710 N   0  0  0  0  0  0  0  0  0  0  0  0
  -34.6440  -26.3330   17.6790 O   0  0  0  0  0  0  0  0  0  0  0  0
  -37.2000  -25.8660   15.9200 H   0  0  0  0  0  0  0  0  0  0  0  0
  -36.0700  -27.1870   15.8490 H   0  0  0  0  0  0  0  0  0  0  0  0
  -34.0140  -23.1290   17.9850 N   0  0  0  0  0  0  0  0  0  0  0  0
  -33.3650  -23.8010   17.5930 H   0  0  0  0  0  0  0  0  0  0  0  0
  -33.5830  -22.2370   18.1990 H   0  0  0  0  0  0  0  0  0  0  0  0
  -28.3400  -21.9640   17.8830 N   0  0  0  0  0  4  0  0  0  0  0  0
  -27.6600  -21.9780   17.1440 H   0  0  0  0  0  0  0  0  0  0  0  0
  -28.0940  -22.6760   18.5480 H   0  0  0  0  0  0  0  0  0  0  0  0
  -28.2920  -21.0770   18.3500 H   0  0  0  0  0  0  0  0  0  0  0  0
  -30.5540  -24.4660   14.5140 C   0  0  0  0  0  2  0  0  0  0  0  0
  -31.4560  -25.7130   14.7340 C   0  0  0  0  0  3  0  0  0  0  0  0
  -32.3310  -25.4370   15.7070 F   0  0  0  0  0  0  0  0  0  0  0  0
  -30.6490  -26.9820   15.1170 C   0  0  0  0  0  2  0  0  0  0  0  0
  -31.3850  -28.2090   14.9540 O   0  0  0  0  0  0  0  0  0  0  0  0
  -37.1490  -31.7560   17.1560 C   0  0  0  0  0  0  0  0  0  0  0  0
  -32.0380  -28.7680   16.0380 C   0  0  0  0  0  0  0  0  0  0  0  0
  -35.6880  -30.8720   18.9440 C   0  0  0  0  0  3  0  0  0  0  0  0
  -33.4170  -29.9970   18.1900 C   0  0  0  0  0  0  0  0  0  0  0  0
  -34.7270  -31.4640   16.6460 C   0  0  0  0  0  2  0  0  0  0  0  0
  -33.6840  -30.3890   16.8730 C   0  0  0  0  0  0  0  0  0  0  0  0
  -32.9940  -29.7830   15.7990 C   0  0  0  0  0  3  0  0  0  0  0  0
  -31.7990  -28.3760   17.3780 C   0  0  0  0  0  3  0  0  0  0  0  0
  -32.4760  -28.9870   18.4470 C   0  0  0  0  0  3  0  0  0  0  0  0
  -34.1860  -30.6960   19.2870 C   0  0  0  0  0  2  0  0  0  0  0  0
  -35.9030  -31.3650   17.5440 N   0  0  0  0  0  0  0  0  0  0  0  0
  -38.0980  -31.7550   17.9520 O   0  0  0  0  0  0  0  0  0  0  0  0
  -36.4230  -29.5470   19.2450 C   0  0  0  0  0  0  0  0  0  0  0  0
  -36.6960  -29.2980   20.5360 N   0  0  0  0  0  0  0  0  0  0  0  0
  -36.7080  -28.7610   18.3370 O   0  0  0  0  0  0  0  0  0  0  0  0
  -36.4320  -29.9970   21.2170 H   0  0  0  0  0  0  0  0  0  0  0  0
  -37.9580  -27.7580   23.5510 C   0  0  0  0  0  0  0  0  0  0  0  0
  -37.3430  -28.0990   21.0640 C   0  0  0  0  0  3  0  0  0  0  0  0
  -36.3180  -26.9590   21.2630 C   0  0  0  0  0  2  0  0  0  0  0  0
  -35.7380  -26.9100   22.6810 C   0  0  0  0  0  2  0  0  0  0  0  0
  -36.8570  -26.7220   23.7090 C   0  0  0  0  0  2  0  0  0  0  0  0
  -38.1770  -28.4160   22.3120 C   0  0  0  0  0  0  0  0  0  0  0  0
  -39.1900  -29.3950   22.2230 C   0  0  0  0  0  3  0  0  0  0  0  0
  -39.9810  -29.7150   23.3420 C   0  0  0  0  0  3  0  0  0  0  0  0
  -39.7740  -29.0490   24.5630 C   0  0  0  0  0  3  0  0  0  0  0  0
  -38.7680  -28.0700   24.6640 C   0  0  0  0  0  3  0  0  0  0  0  0
  -37.4350  -32.2490   15.7020 C   0  0  0  0  0  3  0  0  0  0  0  0
  -38.3980  -33.3540   15.7920 N   0  0  0  0  0  0  0  0  0  0  0  0
  -38.0790  -34.6160   16.1130 C   0  0  0  0  0  0  0  0  0  0  0  0
  -36.9150  -34.9870   16.2900 O   0  0  0  0  0  0  0  0  0  0  0  0
  -39.3760  -33.1110   15.7180 H   0  0  0  0  0  0  0  0  0  0  0  0
  -39.1690  -36.2900   17.6390 C   0  0  0  0  0  1  0  0  0  0  0  0
  -39.2330  -35.6250   16.2550 C   0  0  0  0  0  3  0  0  0  0  0  0
  -40.2510  -36.4370   14.1740 C   0  0  0  0  0  1  0  0  0  0  0  0
  -39.2390  -36.6640   15.2040 N   0  0  0  0  0  0  0  0  0  0  0  0
  -39.3950  -37.5840   15.6070 H   0  0  0  0  0  0  0  0  0  0  0  0
  -37.9830  -31.1110   14.7550 C   0  0  1  0  0  0  0  0  0  0  0  0
  -39.5170  -30.9300   14.8180 C   0  0  0  0  0  1  0  0  0  0  0  0
  -37.3360  -29.7500   15.1060 C   0  0  0  0  0  1  0  0  0  0  0  0
  -37.5970  -31.4180   13.2890 C   0  0  0  0  0  1  0  0  0  0  0  0
  1  5  1  0
  1  3  1  0
  2  4  1  0
  3 10  1  0
  3  4  1  0
  4 50  1  0
  5  2  1  0
  6  8  2  0
  6 10  1  0
  7  9  1  0
  8 11  1  0
 10  7  2  0
 11 20  1  0
 11  9  2  0
 12 18  1  0
 12 19  2  0
 13 14  1  0
 15 14  1  0
 16 17  1  0
 16 15  1  0
 17 18  1  0
 18 13  1  0
 20 12  1  0
 21 20  1  0
 22 25  1  0
 23 22  2  0
 23 24  1  0
 24 27  1  0
 24 26  2  0
 25 26  1  0
 25 16  1  0
 27 32  1  0
 28 29  1  0
 28 27  2  0
 29 30  2  0
 30 33  1  0
 30 31  1  0
 32 31  2  0
 34 33  1  0
 34 35  1  0
 36 35  2  0
 37 36  1  0
 38 39  1  0
 38 37  2  0
 39 34  2  0
 40 39  1  0
 41 37  1  0
 42 44  2  0
 42 23  1  0
 43 42  1  0
 45 43  1  0
 46 43  1  0
 47 22  1  0
 47 49  1  0
 48 47  1  0
 50 53  1  0
 50 52  1  0
 51 50  1  0
 54 55  1  0
 54  5  1  0
 55 57  1  0
 55 56  1  0
 58 57  1  0
 58 60  1  0
 59 69  1  0
 59 70  2  0
 60 66  1  0
 61 71  1  0
 61 68  1  0
 62 67  1  0
 62 68  1  0
 63 64  1  0
 63 69  1  0
 64 62  2  0
 65 60  2  0
 65 64  1  0
 66 67  2  0
 69 61  1  0
 71 72  1  0
 72 74  1  0
 73 71  2  0
 75 79  1  0
 75 84  1  0
 76 72  1  0
 76 77  1  0
 76 80  1  0
 77 78  1  0
 78 79  1  0
 80 75  2  0
 81 80  1  0
 81 82  2  0
 82 83  1  0
 83 84  2  0
 85 86  1  0
 85 59  1  0
 86 87  1  0
 87 91  1  0
 87 88  2  0
 89 86  1  0
 91 90  1  0
 92 93  1  0
 93 94  1  0
 93 91  1  0
 95 96  1  6
 95 97  1  0
 95 85  1  0
 98 95  1  0
M  ISO  4  12 100  20 100  57 101  58 101
M  END
>  <TORSDO>  (54) 
F 21

>  <SCORE>  (54) 
-2.750

>  <name>  (54) 
54

>  <ligand_id>  (54) 
54

>  <original_smiles>  (54) 
[H]c1c([H])c([H])c2c(c1[H])C([H])([H])C([H])([H])C([H])([H])C2([H])N([H])C(=O)C1([H])N(C(=O)C([H])(N([H])C(=O)C([H])(N([H])C([H])([H])[H])C([H])([H])[H])C(C([H])([H])[H])(C([H])([H])[H])C([H])([H])[H])C([H])([H])c2c([H])c(OC([H])([H])C([H])(F)C([H])([H])N3C([H])([H])C([H])(c4c([H])c([H])c(N([H])C(=O)N5C([H])([H])C([H])([H])C([H])([H])C([H])(n6nc(-c7c([H])c([H])c(Oc8c([H])c([H])c(F)c([H])c8F)c([H])c7[H])c(C(=O)N([H])[H])c6N([H])[H])C5([H])[H])c([H])c4[H])C([H])([N+]([H])([H])[H])C3([H])[H])c([H])c([H])c2C1([H])[H]

>  <smiles>  (54) 
[H]c1c([H])c([H])c2c(c1[H])C([H])([H])C([H])([H])C([H])([H])C2([H])N([H])C(=O)C1([H])N(C(=O)C([H])(N([H])C(=O)C([H])(N([H])C([H])([H])[H])C([H])([H])[H])C(C([H])([H])[H])(C([H])([H])[H])C([H])([H])[H])C([H])([H])c2c([H])c(OC([H])([H])C([H])(F)C([H])([H])N3C([H])([H])C([H])(c4c([H])c([H])c(N([H])C(=O)N5C([H])([H])C([H])([H])C([H])([H])C([H])(n6nc(-c7c([H])c([H])c(Oc8c([H])c([H])c(F)c([H])c8F)c([H])c7[H])c(C(=O)N([H])[H])c6N([H])[H])C5([H])[H])c([H])c4[H])C([H])([N+]([H])([H])[H])C3([H])[H])c([H])c([H])c2C1([H])[H]

$$$$
55:0:0
     RDKit          3D

 97105  0  0  1  0  0  0  0  0999 V2000
  -28.4780  -18.9930   20.2110 N   0  0  0  0  0  0  0  0  0  0  0  0
  -28.0190  -18.0160   17.8320 C   0  0  0  0  0  0  0  0  0  0  0  0
  -28.5310  -20.3460   18.0210 C   0  0  0  0  0  2  0  0  0  0  0  0
  -28.4510  -19.9070   16.5510 C   0  0  0  0  0  2  0  0  0  0  0  0
  -27.9160  -19.1810   18.8240 C   0  0  0  0  0  3  0  0  0  0  0  0
  -28.2960  -18.4650   16.6140 N   0  0  0  0  0  0  0  0  0  0  0  0
  -27.8390  -16.8360   18.1310 O   0  0  0  0  0  0  0  0  0  0  0  0
  -28.3610  -17.8680   15.7990 H   0  0  0  0  0  0  0  0  0  0  0  0
  -29.2080  -17.7080   20.3860 C   0  0  0  0  0  2  0  0  0  0  0  0
  -30.3870  -17.7220   21.3920 C   0  0  0  0  0  2  0  0  0  0  0  0
  -30.6380  -16.3970   22.1700 C   0  0  0  0  0  2  0  0  0  0  0  0
  -30.7040  -14.2920   20.7640 C   0  0  0  0  0  0  0  0  0  0  0  0
  -30.3920  -12.2180   19.4470 C   0  0  0  0  0  2  0  0  0  0  0  0
  -29.4670  -12.4880   18.2440 C   0  0  0  0  0  2  0  0  0  0  0  0
  -27.9850  -12.3470   18.6470 C   0  0  0  0  0  2  0  0  0  0  0  0
  -27.6430  -13.1260   19.9460 C   0  0  0  0  0  3  0  0  0  0  0  0
  -28.6760  -12.8210   21.0520 C   0  0  0  0  0  2  0  0  0  0  0  0
  -30.0130  -13.1460   20.5230 N   0  0  0  0  0  0  0  0  0  0  0  0
  -31.8000  -14.5360   20.2520 O   0  0  0  0  0  0  0  0  0  0  0  0
  -30.0850  -15.1700   21.5760 N   0  0  0  0  0  0  0  0  0  0  0  0
  -29.1920  -14.8620   21.9310 H   0  0  0  0  0  0  0  0  0  0  0  0
  -25.2320  -13.7330   20.6030 C   0  0  0  0  0  0  0  0  0  0  0  0
  -24.1560  -12.9670   20.9560 C   0  0  0  0  0  0  0  0  0  0  0  0
  -24.6180  -11.6130   20.9390 C   0  0  0  0  0  0  0  0  0  0  0  0
  -26.2810  -12.8510   20.3940 N   0  0  0  0  0  0  0  0  0  0  0  0
  -25.9130  -11.5720   20.6530 N   0  0  0  0  0  0  0  0  0  0  0  0
  -23.8890  -10.3530   21.1190 C   0  0  0  0  0  0  0  0  0  0  0  0
  -24.3300   -9.3680   22.0290 C   0  0  0  0  0  3  0  0  0  0  0  0
  -23.6010   -8.1710   22.1970 C   0  0  0  0  0  3  0  0  0  0  0  0
  -22.4160   -7.9510   21.4550 C   0  0  0  0  0  0  0  0  0  0  0  0
  -21.9950   -8.9250   20.5330 C   0  0  0  0  0  3  0  0  0  0  0  0
  -22.7240  -10.1130   20.3630 C   0  0  0  0  0  3  0  0  0  0  0  0
  -21.6570   -6.8080   21.5330 O   0  0  0  0  0  0  0  0  0  0  0  0
  -21.6230   -6.0430   22.6720 C   0  0  0  0  0  0  0  0  0  0  0  0
  -21.2170   -6.5750   23.9150 C   0  0  0  0  0  3  0  0  0  0  0  0
  -21.1300   -5.7380   25.0450 C   0  0  0  0  0  3  0  0  0  0  0  0
  -21.4390   -4.3680   24.9330 C   0  0  0  0  0  0  0  0  0  0  0  0
  -21.8380   -3.8360   23.6950 C   0  0  0  0  0  3  0  0  0  0  0  0
  -21.9260   -4.6710   22.5660 C   0  0  0  0  0  0  0  0  0  0  0  0
  -22.2910   -4.1470   21.3710 F   0  0  0  0  0  0  0  0  0  0  0  0
  -21.3490   -3.5630   26.0170 F   0  0  0  0  0  0  0  0  0  0  0  0
  -22.7530  -13.4450   21.2000 C   0  0  0  0  0  0  0  0  0  0  0  0
  -22.0130  -12.7660   22.0700 N   0  0  0  0  0  0  0  0  0  0  0  0
  -22.3210  -14.4590   20.6520 O   0  0  0  0  0  0  0  0  0  0  0  0
  -22.3710  -11.9410   22.5290 H   0  0  0  0  0  0  0  0  0  0  0  0
  -21.0700  -13.0680   22.2680 H   0  0  0  0  0  0  0  0  0  0  0  0
  -25.4110  -15.1000   20.4200 N   0  0  0  0  0  0  0  0  0  0  0  0
  -24.6690  -15.7750   20.5540 H   0  0  0  0  0  0  0  0  0  0  0  0
  -26.2790  -15.5200   20.1160 H   0  0  0  0  0  0  0  0  0  0  0  0
  -29.1680  -20.2020   20.7280 C   0  0  0  0  0  2  0  0  0  0  0  0
  -28.3580  -21.5330   20.5600 C   0  0  0  0  0  2  0  0  0  0  0  0
  -28.9620  -22.7550   21.1460 N   0  0  0  0  0  4  0  0  0  0  0  0
  -29.9500  -22.7760   20.9440 H   0  0  0  0  0  0  0  0  0  0  0  0
  -28.8610  -22.6960   22.1480 H   0  0  0  0  0  0  0  0  0  0  0  0
  -28.3460  -24.0210   20.6480 C   0  0  0  0  0  2  0  0  0  0  0  0
  -28.7520  -25.2810   21.4510 C   0  0  0  0  0  2  0  0  0  0  0  0
  -28.6690  -26.5080   20.7140 O   0  0  0  0  0  0  0  0  0  0  0  0
  -24.6970  -31.8380   23.3220 C   0  0  0  0  0  0  0  0  0  0  0  0
  -27.4720  -27.1870   20.7080 C   0  0  0  0  0  0  0  0  0  0  0  0
  -23.5600  -30.3080   21.7420 C   0  0  0  0  0  3  0  0  0  0  0  0
  -25.0730  -28.6660   20.5110 C   0  0  0  0  0  0  0  0  0  0  0  0
  -26.0900  -30.6650   21.6160 C   0  0  0  0  0  2  0  0  0  0  0  0
  -26.2040  -29.2460   21.1010 C   0  0  0  0  0  0  0  0  0  0  0  0
  -27.4070  -28.5110   21.1960 C   0  0  0  0  0  3  0  0  0  0  0  0
  -26.3260  -26.6180   20.1140 C   0  0  0  0  0  3  0  0  0  0  0  0
  -25.1270  -27.3490   20.0220 C   0  0  0  0  0  3  0  0  0  0  0  0
  -23.8270  -29.5210   20.4330 C   0  0  0  0  0  2  0  0  0  0  0  0
  -24.7990  -30.9580   22.2860 N   0  0  0  0  0  0  0  0  0  0  0  0
  -23.5950  -32.1460   23.7940 O   0  0  0  0  0  0  0  0  0  0  0  0
  -22.8700  -29.3630   22.7520 C   0  0  0  0  0  0  0  0  0  0  0  0
  -21.5670  -29.1140   22.5430 N   0  0  0  0  0  0  0  0  0  0  0  0
  -23.5080  -28.8480   23.6730 O   0  0  0  0  0  0  0  0  0  0  0  0
  -21.1150  -29.5820   21.7690 H   0  0  0  0  0  0  0  0  0  0  0  0
  -18.1970  -27.8630   22.9120 C   0  0  0  0  0  0  0  0  0  0  0  0
  -20.7220  -28.2240   23.3370 C   0  0  0  0  0  3  0  0  0  0  0  0
  -20.9030  -26.7520   22.9010 C   0  0  0  0  0  2  0  0  0  0  0  0
  -19.8850  -26.3060   21.8480 C   0  0  0  0  0  2  0  0  0  0  0  0
  -18.4560  -26.4640   22.3790 C   0  0  0  0  0  2  0  0  0  0  0  0
  -19.2630  -28.6950   23.3470 C   0  0  0  0  0  0  0  0  0  0  0  0
  -18.9710  -29.9990   23.8010 C   0  0  0  0  0  3  0  0  0  0  0  0
  -17.6470  -30.4720   23.8300 C   0  0  0  0  0  3  0  0  0  0  0  0
  -16.5930  -29.6380   23.4150 C   0  0  0  0  0  3  0  0  0  0  0  0
  -16.8700  -28.3360   22.9610 C   0  0  0  0  0  3  0  0  0  0  0  0
  -25.9560  -32.5160   23.9470 C   0  0  0  0  0  3  0  0  0  0  0  0
  -26.4670  -31.7950   25.2550 C   0  0  1  0  0  0  0  0  0  0  0  0
  -25.3490  -31.5070   26.2840 C   0  0  0  0  0  1  0  0  0  0  0  0
  -27.1460  -30.4500   24.9040 C   0  0  0  0  0  1  0  0  0  0  0  0
  -27.5440  -32.6650   25.9480 C   0  0  0  0  0  1  0  0  0  0  0  0
  -25.6140  -33.9160   24.2250 N   0  0  0  0  0  0  0  0  0  0  0  0
  -25.9150  -34.9460   23.4230 C   0  0  0  0  0  0  0  0  0  0  0  0
  -26.5830  -34.8180   22.3920 O   0  0  0  0  0  0  0  0  0  0  0  0
  -25.0220  -34.0860   25.0240 H   0  0  0  0  0  0  0  0  0  0  0  0
  -24.1200  -36.6620   23.0250 C   0  0  0  0  0  1  0  0  0  0  0  0
  -25.3910  -36.3380   23.8260 C   0  0  0  0  0  3  0  0  0  0  0  0
  -27.5130  -37.3250   24.5650 C   0  0  0  0  0  1  0  0  0  0  0  0
  -26.3850  -37.4180   23.6410 N   0  0  0  0  0  0  0  0  0  0  0  0
  -25.9530  -38.3300   23.7600 H   0  0  0  0  0  0  0  0  0  0  0  0
  1  9  1  0
  1 50  1  0
  2  7  2  0
  2  5  1  0
  3  5  1  0
  4  6  1  0
  4  3  1  0
  5  1  1  0
  6  2  1  0
  8  6  1  0
  9 10  1  0
 10 11  1  0
 12 20  1  0
 13 18  1  0
 14 15  1  0
 14 13  1  0
 16 15  1  0
 16 25  1  0
 16 17  1  0
 18 12  1  0
 18 17  1  0
 19 12  2  0
 20 21  1  0
 20 11  1  0
 22 23  2  0
 23 42  1  0
 24 23  1  0
 24 27  1  0
 25 22  1  0
 25 26  1  0
 26 24  2  0
 27 28  1  0
 28 29  2  0
 30 33  1  0
 30 29  1  0
 31 30  2  0
 32 31  1  0
 32 27  2  0
 33 34  1  0
 34 35  1  0
 35 36  2  0
 37 36  1  0
 37 41  1  0
 38 37  2  0
 39 34  2  0
 39 38  1  0
 40 39  1  0
 42 43  1  0
 43 46  1  0
 43 45  1  0
 44 42  2  0
 47 48  1  0
 47 22  1  0
 49 47  1  0
 51 50  1  0
 51 52  1  0
 52 54  1  0
 53 52  1  0
 55 52  1  0
 55 56  1  0
 57 56  1  0
 58 69  2  0
 59 57  1  0
 59 64  1  0
 60 68  1  0
 60 70  1  0
 61 63  1  0
 62 68  1  0
 63 64  2  0
 63 62  1  0
 65 59  2  0
 66 65  1  0
 66 61  2  0
 67 61  1  0
 67 60  1  0
 68 58  1  0
 70 72  2  0
 71 70  1  0
 73 71  1  0
 74 83  2  0
 74 79  1  0
 75 71  1  0
 75 79  1  0
 76 75  1  0
 77 78  1  0
 77 76  1  0
 78 74  1  0
 79 80  2  0
 80 81  1  0
 82 81  2  0
 83 82  1  0
 84 58  1  0
 84 89  1  0
 84 85  1  0
 85 88  1  1
 85 86  1  0
 87 85  1  0
 89 92  1  0
 90 94  1  0
 90 89  1  0
 91 90  2  0
 94 93  1  0
 96 97  1  0
 96 94  1  0
 96 95  1  0
M  ISO  4  12 100  20 100  56 101  57 101
M  END
>  <TORSDO>  (55) 
F 25

>  <SCORE>  (55) 
-12.014

>  <name>  (55) 
55

>  <ligand_id>  (55) 
55

>  <original_smiles>  (55) 
[H]c1c([H])c([H])c2c(c1[H])C([H])([H])C([H])([H])C([H])([H])C2([H])N([H])C(=O)C1([H])N(C(=O)C([H])(N([H])C(=O)C([H])(N([H])C([H])([H])[H])C([H])([H])[H])C(C([H])([H])[H])(C([H])([H])[H])C([H])([H])[H])C([H])([H])c2c([H])c(OC([H])([H])C([H])([H])[N+]([H])([H])C([H])([H])C([H])([H])N(C([H])([H])C([H])([H])C([H])([H])N([H])C(=O)N3C([H])([H])C([H])([H])C([H])([H])C([H])(n4nc(-c5c([H])c([H])c(Oc6c([H])c([H])c(F)c([H])c6F)c([H])c5[H])c(C(=O)N([H])[H])c4N([H])[H])C3([H])[H])C3([H])C(=O)N([H])C([H])([H])C3([H])[H])c([H])c([H])c2C1([H])[H]

>  <smiles>  (55) 
[H]c1c([H])c([H])c2c(c1[H])C([H])([H])C([H])([H])C([H])([H])C2([H])N([H])C(=O)C1([H])N(C(=O)C([H])(N([H])C(=O)C([H])(N([H])C([H])([H])[H])C([H])([H])[H])C(C([H])([H])[H])(C([H])([H])[H])C([H])([H])[H])C([H])([H])c2c([H])c(OC([H])([H])C([H])([H])[N+]([H])([H])C([H])([H])C([H])([H])N(C([H])([H])C([H])([H])C([H])([H])N([H])C(=O)N3C([H])([H])C([H])([H])C([H])([H])C([H])(n4nc(-c5c([H])c([H])c(Oc6c([H])c([H])c(F)c([H])c6F)c([H])c5[H])c(C(=O)N([H])[H])c4N([H])[H])C3([H])[H])C3([H])C(=O)N([H])C([H])([H])C3([H])[H])c([H])c([H])c2C1([H])[H]

$$$$
56:0:0
     RDKit          3D

 91 99  0  0  1  0  0  0  0  0999 V2000
  -31.0480  -19.5450   20.7140 C   0  0  0  0  0  2  0  0  0  0  0  0
  -28.7390  -18.6920   20.8280 C   0  0  0  0  0  2  0  0  0  0  0  0
  -30.5370  -20.8830   20.0860 C   0  0  0  0  0  2  0  0  0  0  0  0
  -28.2460  -20.0330   20.1910 C   0  0  0  0  0  2  0  0  0  0  0  0
  -30.1710  -18.2960   20.4090 C   0  0  0  0  0  3  0  0  0  0  0  0
  -29.1280  -21.2240   20.4440 N   0  0  2  0  0  4  0  0  0  0  0  0
  -29.0920  -21.4120   21.4360 H   0  0  0  0  0  0  0  0  0  0  0  0
  -30.7330  -16.9960   21.1130 C   0  0  0  0  0  2  0  0  0  0  0  0
  -30.7160  -14.6000   20.2640 C   0  0  0  0  0  0  0  0  0  0  0  0
  -30.3540  -12.4450   19.0990 C   0  0  0  0  0  2  0  0  0  0  0  0
  -29.3890  -12.6430   17.9130 C   0  0  0  0  0  2  0  0  0  0  0  0
  -27.9260  -12.4990   18.3740 C   0  0  0  0  0  2  0  0  0  0  0  0
  -27.6150  -13.3230   19.6530 C   0  0  0  0  0  3  0  0  0  0  0  0
  -28.7000  -13.1320   20.7370 C   0  0  0  0  0  2  0  0  0  0  0  0
  -30.0030  -13.4410   20.1290 N   0  0  0  0  0  0  0  0  0  0  0  0
  -31.8500  -14.7140   19.7970 O   0  0  0  0  0  0  0  0  0  0  0  0
  -30.0930  -15.6790   20.8120 N   0  0  0  0  0  0  0  0  0  0  0  0
  -29.1540  -15.5340   21.1490 H   0  0  0  0  0  0  0  0  0  0  0  0
  -25.2280  -13.9100   20.4030 C   0  0  0  0  0  0  0  0  0  0  0  0
  -24.1710  -13.1320   20.7910 C   0  0  0  0  0  0  0  0  0  0  0  0
  -24.6410  -11.7820   20.7610 C   0  0  0  0  0  0  0  0  0  0  0  0
  -26.2750  -13.0350   20.1610 N   0  0  0  0  0  0  0  0  0  0  0  0
  -25.9280  -11.7510   20.4360 N   0  0  0  0  0  0  0  0  0  0  0  0
  -23.9250  -10.5160   20.9690 C   0  0  0  0  0  0  0  0  0  0  0  0
  -24.3640   -9.5680   21.9190 C   0  0  0  0  0  3  0  0  0  0  0  0
  -23.6470   -8.3680   22.1160 C   0  0  0  0  0  3  0  0  0  0  0  0
  -22.4770   -8.1080   21.3630 C   0  0  0  0  0  0  0  0  0  0  0  0
  -22.0580   -9.0450   20.4030 C   0  0  0  0  0  3  0  0  0  0  0  0
  -22.7740  -10.2370   20.2050 C   0  0  0  0  0  3  0  0  0  0  0  0
  -21.7310   -6.9580   21.4680 O   0  0  0  0  0  0  0  0  0  0  0  0
  -21.6720   -6.2430   22.6370 C   0  0  0  0  0  0  0  0  0  0  0  0
  -21.2160   -6.8190   23.8420 C   0  0  0  0  0  3  0  0  0  0  0  0
  -21.1060   -6.0300   25.0040 C   0  0  0  0  0  3  0  0  0  0  0  0
  -21.4410   -4.6630   24.9620 C   0  0  0  0  0  0  0  0  0  0  0  0
  -21.8890   -4.0860   23.7610 C   0  0  0  0  0  3  0  0  0  0  0  0
  -22.0010   -4.8730   22.6010 C   0  0  0  0  0  0  0  0  0  0  0  0
  -22.4130   -4.3060   21.4420 F   0  0  0  0  0  0  0  0  0  0  0  0
  -21.3280   -3.9030   26.0750 F   0  0  0  0  0  0  0  0  0  0  0  0
  -22.7740  -13.6020   21.0810 C   0  0  0  0  0  0  0  0  0  0  0  0
  -22.0620  -12.9020   21.9570 N   0  0  0  0  0  0  0  0  0  0  0  0
  -22.3220  -14.6230   20.5640 O   0  0  0  0  0  0  0  0  0  0  0  0
  -22.4390  -12.0750   22.3960 H   0  0  0  0  0  0  0  0  0  0  0  0
  -21.1240  -13.1960   22.1920 H   0  0  0  0  0  0  0  0  0  0  0  0
  -25.3810  -15.2810   20.2120 N   0  0  0  0  0  0  0  0  0  0  0  0
  -24.6120  -15.9320   20.3280 H   0  0  0  0  0  0  0  0  0  0  0  0
  -26.2230  -15.7190   19.8620 H   0  0  0  0  0  0  0  0  0  0  0  0
  -28.6050  -22.4800   19.7720 C   0  0  0  0  0  2  0  0  0  0  0  0
  -28.9950  -23.8880   20.3840 C   0  0  0  0  0  3  0  0  0  0  0  0
  -28.8000  -23.8150   21.7030 F   0  0  0  0  0  0  0  0  0  0  0  0
  -28.1270  -25.0750   19.8040 C   0  0  0  0  0  2  0  0  0  0  0  0
  -28.3580  -26.4880   20.1720 O   0  0  0  0  0  0  0  0  0  0  0  0
  -24.6500  -31.8680   23.2130 C   0  0  0  0  0  0  0  0  0  0  0  0
  -27.2510  -27.3490   20.1040 C   0  0  0  0  0  0  0  0  0  0  0  0
  -23.4440  -30.4790   21.5670 C   0  0  0  0  0  3  0  0  0  0  0  0
  -24.8910  -28.9570   20.1200 C   0  0  0  0  0  0  0  0  0  0  0  0
  -25.9850  -30.7990   21.3920 C   0  0  0  0  0  2  0  0  0  0  0  0
  -26.0600  -29.4320   20.7280 C   0  0  0  0  0  0  0  0  0  0  0  0
  -27.2420  -28.6350   20.7220 C   0  0  0  0  0  3  0  0  0  0  0  0
  -26.0650  -26.9460   19.4410 C   0  0  0  0  0  3  0  0  0  0  0  0
  -24.8950  -27.7180   19.4690 C   0  0  0  0  0  3  0  0  0  0  0  0
  -23.6550  -29.8270   20.1780 C   0  0  0  0  0  2  0  0  0  0  0  0
  -24.7100  -31.0650   22.1110 N   0  0  0  0  0  0  0  0  0  0  0  0
  -23.5680  -32.1410   23.7500 O   0  0  0  0  0  0  0  0  0  0  0  0
  -22.7880  -29.4490   22.5190 C   0  0  0  0  0  0  0  0  0  0  0  0
  -21.4600  -29.2750   22.4010 N   0  0  0  0  0  0  0  0  0  0  0  0
  -23.4710  -28.8130   23.3280 O   0  0  0  0  0  0  0  0  0  0  0  0
  -20.9700  -29.8370   21.7210 H   0  0  0  0  0  0  0  0  0  0  0  0
  -18.0780  -28.1040   22.9240 C   0  0  0  0  0  0  0  0  0  0  0  0
  -20.6420  -28.3350   23.1700 C   0  0  0  0  0  3  0  0  0  0  0  0
  -20.7240  -26.9100   22.5760 C   0  0  0  0  0  2  0  0  0  0  0  0
  -19.6080  -26.6110   21.5710 C   0  0  0  0  0  2  0  0  0  0  0  0
  -18.2330  -26.7630   22.2290 C   0  0  0  0  0  2  0  0  0  0  0  0
  -19.2100  -28.8500   23.3520 C   0  0  0  0  0  0  0  0  0  0  0  0
  -19.0100  -30.1080   23.9600 C   0  0  0  0  0  3  0  0  0  0  0  0
  -17.7120  -30.6180   24.1490 C   0  0  0  0  0  3  0  0  0  0  0  0
  -16.5950  -29.8690   23.7400 C   0  0  0  0  0  3  0  0  0  0  0  0
  -16.7790  -28.6150   23.1310 C   0  0  0  0  0  3  0  0  0  0  0  0
  -25.9350  -32.4970   23.8330 C   0  0  0  0  0  3  0  0  0  0  0  0
  -26.4500  -31.7250   25.1090 C   0  0  1  0  0  0  0  0  0  0  0  0
  -25.3550  -31.4870   26.1750 C   0  0  0  0  0  1  0  0  0  0  0  0
  -27.0360  -30.3470   24.7230 C   0  0  0  0  0  1  0  0  0  0  0  0
  -27.6020  -32.5180   25.7690 C   0  0  0  0  0  1  0  0  0  0  0  0
  -25.6250  -33.8950   24.1620 N   0  0  0  0  0  0  0  0  0  0  0  0
  -25.9530  -34.9480   23.4010 C   0  0  0  0  0  0  0  0  0  0  0  0
  -26.6180  -34.8450   22.3660 O   0  0  0  0  0  0  0  0  0  0  0  0
  -25.0290  -34.0500   24.9630 H   0  0  0  0  0  0  0  0  0  0  0  0
  -24.2170  -36.7350   23.0580 C   0  0  0  0  0  1  0  0  0  0  0  0
  -25.4650  -36.3340   23.8620 C   0  0  0  0  0  3  0  0  0  0  0  0
  -27.6060  -37.2160   24.6770 C   0  0  0  0  0  1  0  0  0  0  0  0
  -26.4920  -37.3930   23.7490 N   0  0  0  0  0  0  0  0  0  0  0  0
  -26.0830  -38.3080   23.9200 H   0  0  0  0  0  0  0  0  0  0  0  0
  3  6  1  0
  3  1  1  0
  4  6  1  0
  4  2  1  0
  5  1  1  0
  5  2  1  0
  5  8  1  0
  6  7  1  1
  9 17  1  0
 10 15  1  0
 11 12  1  0
 11 10  1  0
 13 12  1  0
 13 22  1  0
 13 14  1  0
 15  9  1  0
 15 14  1  0
 16  9  2  0
 17  8  1  0
 17 18  1  0
 19 20  2  0
 20 39  1  0
 21 20  1  0
 21 24  1  0
 22 19  1  0
 22 23  1  0
 23 21  2  0
 24 25  1  0
 25 26  2  0
 27 30  1  0
 27 26  1  0
 28 27  2  0
 29 28  1  0
 29 24  2  0
 30 31  1  0
 31 32  1  0
 32 33  2  0
 34 33  1  0
 34 38  1  0
 35 34  2  0
 36 31  2  0
 36 35  1  0
 37 36  1  0
 39 40  1  0
 40 43  1  0
 40 42  1  0
 41 39  2  0
 44 45  1  0
 44 19  1  0
 46 44  1  0
 47 48  1  0
 47  6  1  0
 48 49  1  0
 50 51  1  0
 50 48  1  0
 52 63  2  0
 53 51  1  0
 53 58  1  0
 54 62  1  0
 54 64  1  0
 55 61  1  0
 55 57  1  0
 56 62  1  0
 57 56  1  0
 58 57  2  0
 59 60  1  0
 59 53  2  0
 60 55  2  0
 61 54  1  0
 62 52  1  0
 64 66  2  0
 65 64  1  0
 67 65  1  0
 68 77  2  0
 68 73  1  0
 69 65  1  0
 69 73  1  0
 70 69  1  0
 71 72  1  0
 71 70  1  0
 72 68  1  0
 73 74  2  0
 74 75  1  0
 76 75  2  0
 77 76  1  0
 78 52  1  0
 78 83  1  0
 78 79  1  0
 79 82  1  1
 79 80  1  0
 81 79  1  0
 83 86  1  0
 84 88  1  0
 84 83  1  0
 85 84  2  0
 88 87  1  0
 90 88  1  0
 90 91  1  0
 90 89  1  0
M  ISO  4   9 100  17 100  50 101  51 101
M  END
>  <TORSDO>  (56) 
F 20

>  <SCORE>  (56) 
-13.717

>  <name>  (56) 
56

>  <ligand_id>  (56) 
56

>  <original_smiles>  (56) 
[H]c1c([H])c([H])c2c(c1[H])C([H])([H])C([H])([H])C([H])([H])C2([H])N([H])C(=O)C1([H])N(C(=O)C([H])(N([H])C(=O)C([H])(N([H])C([H])([H])[H])C([H])([H])[H])C(C([H])([H])[H])(C([H])([H])[H])C([H])([H])[H])C([H])([H])c2c([H])c(OC([H])([H])C([H])(F)C([H])([H])[N+]3([H])C([H])([H])C([H])([H])C([H])(C([H])([H])N([H])C(=O)N4C([H])([H])C([H])([H])C([H])([H])C([H])(n5nc(-c6c([H])c([H])c(Oc7c([H])c([H])c(F)c([H])c7F)c([H])c6[H])c(C(=O)N([H])[H])c5N([H])[H])C4([H])[H])C([H])([H])C3([H])[H])c([H])c([H])c2C1([H])[H]

>  <smiles>  (56) 
[H]c1c([H])c([H])c2c(c1[H])C([H])([H])C([H])([H])C([H])([H])C2([H])N([H])C(=O)C1([H])N(C(=O)C([H])(N([H])C(=O)C([H])(N([H])C([H])([H])[H])C([H])([H])[H])C(C([H])([H])[H])(C([H])([H])[H])C([H])([H])[H])C([H])([H])c2c([H])c(OC([H])([H])C([H])(F)C([H])([H])[N+]3([H])C([H])([H])C([H])([H])C([H])(C([H])([H])N([H])C(=O)N4C([H])([H])C([H])([H])C([H])([H])C([H])(n5nc(-c6c([H])c([H])c(Oc7c([H])c([H])c(F)c([H])c7F)c([H])c6[H])c(C(=O)N([H])[H])c5N([H])[H])C4([H])[H])C([H])([H])C3([H])[H])c([H])c([H])c2C1([H])[H]

$$$$
57:0:0
     RDKit          3D

 91 99  0  0  1  0  0  0  0  0999 V2000
  -29.6850  -21.0830   20.2300 C   0  0  0  0  0  2  0  0  0  0  0  0
  -29.2190  -19.7310   20.7750 N   0  0  0  0  0  4  0  0  0  0  0  0
  -29.3680  -19.7620   21.7710 H   0  0  0  0  0  0  0  0  0  0  0  0
  -28.2220  -19.6790   20.6310 H   0  0  0  0  0  0  0  0  0  0  0  0
  -30.5920  -14.7410   20.3680 C   0  0  0  0  0  0  0  0  0  0  0  0
  -30.3820  -12.4770   19.3590 C   0  0  0  0  0  2  0  0  0  0  0  0
  -29.4390  -12.5670   18.1400 C   0  0  0  0  0  2  0  0  0  0  0  0
  -27.9660  -12.4140   18.5730 C   0  0  0  0  0  2  0  0  0  0  0  0
  -27.5990  -13.2860   19.8030 C   0  0  0  0  0  3  0  0  0  0  0  0
  -28.6650  -13.1920   20.9160 C   0  0  0  0  0  2  0  0  0  0  0  0
  -29.9580  -13.5260   20.3080 N   0  0  0  0  0  0  0  0  0  0  0  0
  -31.8060  -14.8260   20.1580 O   0  0  0  0  0  0  0  0  0  0  0  0
  -29.8320  -17.1170   21.1240 C   0  0  0  0  0  2  0  0  0  0  0  0
  -29.5360  -16.4080   18.9080 C   0  0  0  0  0  2  0  0  0  0  0  0
  -29.8170  -18.4310   20.2230 C   0  0  0  0  0  3  0  0  0  0  0  0
  -29.0750  -17.8800   19.0160 C   0  0  0  0  0  3  0  0  0  0  0  0
  -29.8010  -15.8770   20.2630 N   0  0  0  0  0  0  0  0  0  0  0  0
  -27.7630  -17.9070   19.2680 F   0  0  0  0  0  0  0  0  0  0  0  0
  -25.2130  -13.8840   20.5200 C   0  0  0  0  0  0  0  0  0  0  0  0
  -24.1450  -13.1110   20.8840 C   0  0  0  0  0  0  0  0  0  0  0  0
  -24.6090  -11.7590   20.8620 C   0  0  0  0  0  0  0  0  0  0  0  0
  -26.2570  -13.0020   20.2930 N   0  0  0  0  0  0  0  0  0  0  0  0
  -25.9000  -11.7200   20.5610 N   0  0  0  0  0  0  0  0  0  0  0  0
  -23.8830  -10.4970   21.0500 C   0  0  0  0  0  0  0  0  0  0  0  0
  -24.3150   -9.5270   21.9820 C   0  0  0  0  0  3  0  0  0  0  0  0
  -23.5890   -8.3310   22.1590 C   0  0  0  0  0  3  0  0  0  0  0  0
  -22.4160   -8.0940   21.4020 C   0  0  0  0  0  0  0  0  0  0  0  0
  -22.0030   -9.0510   20.4590 C   0  0  0  0  0  3  0  0  0  0  0  0
  -22.7300  -10.2400   20.2810 C   0  0  0  0  0  3  0  0  0  0  0  0
  -21.6610   -6.9500   21.4880 O   0  0  0  0  0  0  0  0  0  0  0  0
  -21.6170   -6.2010   22.6370 C   0  0  0  0  0  0  0  0  0  0  0  0
  -21.1960   -6.7490   23.8680 C   0  0  0  0  0  3  0  0  0  0  0  0
  -21.1000   -5.9280   25.0090 C   0  0  0  0  0  3  0  0  0  0  0  0
  -21.4150   -4.5580   24.9190 C   0  0  0  0  0  0  0  0  0  0  0  0
  -21.8300   -4.0090   23.6930 C   0  0  0  0  0  3  0  0  0  0  0  0
  -21.9280   -4.8290   22.5540 C   0  0  0  0  0  0  0  0  0  0  0  0
  -22.3080   -4.2900   21.3700 F   0  0  0  0  0  0  0  0  0  0  0  0
  -21.3160   -3.7660   26.0120 F   0  0  0  0  0  0  0  0  0  0  0  0
  -22.7450  -13.5880   21.1450 C   0  0  0  0  0  0  0  0  0  0  0  0
  -22.0120  -12.8910   22.0060 N   0  0  0  0  0  0  0  0  0  0  0  0
  -22.3100  -14.6120   20.6200 O   0  0  0  0  0  0  0  0  0  0  0  0
  -22.3770  -12.0630   22.4510 H   0  0  0  0  0  0  0  0  0  0  0  0
  -21.0720  -13.1920   22.2250 H   0  0  0  0  0  0  0  0  0  0  0  0
  -25.3790  -15.2550   20.3410 N   0  0  0  0  0  0  0  0  0  0  0  0
  -24.6110  -15.9090   20.4460 H   0  0  0  0  0  0  0  0  0  0  0  0
  -26.2330  -15.6970   20.0270 H   0  0  0  0  0  0  0  0  0  0  0  0
  -28.7120  -22.3010   20.5520 C   0  0  0  0  0  0  0  0  0  0  0  0
  -27.5730  -22.0490   20.9550 O   0  0  0  0  0  0  0  0  0  0  0  0
  -29.1540  -23.8250   20.3640 C   0  0  0  0  0  3  0  0  0  0  0  0
  -28.0170  -24.9500   20.1860 C   0  0  0  0  0  3  0  0  0  0  0  0
  -28.2950  -26.4240   20.2480 O   0  0  0  0  0  0  0  0  0  0  0  0
  -24.6030  -31.9030   23.2530 C   0  0  0  0  0  0  0  0  0  0  0  0
  -27.1930  -27.3100   20.1970 C   0  0  0  0  0  0  0  0  0  0  0  0
  -23.3940  -30.5070   21.6170 C   0  0  0  0  0  3  0  0  0  0  0  0
  -24.8390  -28.9540   20.1890 C   0  0  0  0  0  0  0  0  0  0  0  0
  -25.9370  -30.8110   21.4320 C   0  0  0  0  0  2  0  0  0  0  0  0
  -26.0120  -29.4310   20.7850 C   0  0  0  0  0  0  0  0  0  0  0  0
  -27.1940  -28.6200   20.7770 C   0  0  0  0  0  3  0  0  0  0  0  0
  -25.9900  -26.9020   19.5700 C   0  0  0  0  0  3  0  0  0  0  0  0
  -24.8320  -27.6970   19.5700 C   0  0  0  0  0  3  0  0  0  0  0  0
  -23.6060  -29.8340   20.2370 C   0  0  0  0  0  2  0  0  0  0  0  0
  -24.6650  -31.0910   22.1570 N   0  0  0  0  0  0  0  0  0  0  0  0
  -23.5200  -32.1830   23.7890 O   0  0  0  0  0  0  0  0  0  0  0  0
  -22.7290  -29.4930   22.5790 C   0  0  0  0  0  0  0  0  0  0  0  0
  -21.4030  -29.3140   22.4520 N   0  0  0  0  0  0  0  0  0  0  0  0
  -23.4060  -28.8690   23.4010 O   0  0  0  0  0  0  0  0  0  0  0  0
  -20.9160  -29.8700   21.7630 H   0  0  0  0  0  0  0  0  0  0  0  0
  -18.0240  -28.1180   22.9510 C   0  0  0  0  0  0  0  0  0  0  0  0
  -20.5810  -28.3810   23.2250 C   0  0  0  0  0  3  0  0  0  0  0  0
  -20.6850  -26.9470   22.6570 C   0  0  0  0  0  2  0  0  0  0  0  0
  -19.5860  -26.6180   21.6420 C   0  0  0  0  0  2  0  0  0  0  0  0
  -18.2030  -26.7660   22.2820 C   0  0  0  0  0  2  0  0  0  0  0  0
  -19.1410  -28.8840   23.3800 C   0  0  0  0  0  0  0  0  0  0  0  0
  -18.9190  -30.1490   23.9660 C   0  0  0  0  0  3  0  0  0  0  0  0
  -17.6140  -30.6490   24.1270 C   0  0  0  0  0  3  0  0  0  0  0  0
  -16.5110  -29.8810   23.7150 C   0  0  0  0  0  3  0  0  0  0  0  0
  -16.7170  -28.6180   23.1320 C   0  0  0  0  0  3  0  0  0  0  0  0
  -25.8870  -32.5340   23.8730 C   0  0  0  0  0  3  0  0  0  0  0  0
  -26.4000  -31.7660   25.1520 C   0  0  1  0  0  0  0  0  0  0  0  0
  -25.3080  -31.5350   26.2220 C   0  0  0  0  0  1  0  0  0  0  0  0
  -26.9770  -30.3830   24.7650 C   0  0  0  0  0  1  0  0  0  0  0  0
  -27.5540  -32.5570   25.8110 C   0  0  0  0  0  1  0  0  0  0  0  0
  -25.5820  -33.9350   24.1990 N   0  0  0  0  0  0  0  0  0  0  0  0
  -25.9130  -34.9850   23.4350 C   0  0  0  0  0  0  0  0  0  0  0  0
  -26.5790  -34.8760   22.4010 O   0  0  0  0  0  0  0  0  0  0  0  0
  -24.9930  -34.0930   25.0030 H   0  0  0  0  0  0  0  0  0  0  0  0
  -24.1910  -36.7850   23.0800 C   0  0  0  0  0  1  0  0  0  0  0  0
  -25.4310  -36.3770   23.8900 C   0  0  0  0  0  3  0  0  0  0  0  0
  -27.5700  -37.2570   24.7160 C   0  0  0  0  0  1  0  0  0  0  0  0
  -26.4680  -37.4270   23.7730 N   0  0  0  0  0  0  0  0  0  0  0  0
  -26.0650  -38.3480   23.9190 H   0  0  0  0  0  0  0  0  0  0  0  0
  1 47  1  0
  1  2  1  0
  2  3  1  0
  4  2  1  0
  6 11  1  0
  7  8  1  0
  7  6  1  0
  9  8  1  0
  9 22  1  0
  9 10  1  0
 11  5  1  0
 11 10  1  0
 12  5  2  0
 14 16  1  0
 14 17  1  0
 15  2  1  0
 15 13  1  0
 16 18  1  0
 16 15  1  0
 17  5  1  0
 17 13  1  0
 19 20  2  0
 20 39  1  0
 21 20  1  0
 21 24  1  0
 22 19  1  0
 22 23  1  0
 23 21  2  0
 24 25  1  0
 25 26  2  0
 27 30  1  0
 27 26  1  0
 28 27  2  0
 29 28  1  0
 29 24  2  0
 30 31  1  0
 31 32  1  0
 32 33  2  0
 34 33  1  0
 34 38  1  0
 35 34  2  0
 36 31  2  0
 36 35  1  0
 37 36  1  0
 39 40  1  0
 40 43  1  0
 40 42  1  0
 41 39  2  0
 44 45  1  0
 44 19  1  0
 46 44  1  0
 47 48  2  0
 49 47  1  0
 50 51  1  0
 50 49  2  0
 52 63  2  0
 53 51  1  0
 53 58  1  0
 54 62  1  0
 54 64  1  0
 55 61  1  0
 55 57  1  0
 56 62  1  0
 57 56  1  0
 58 57  2  0
 59 53  2  0
 60 59  1  0
 60 55  2  0
 61 54  1  0
 62 52  1  0
 64 66  2  0
 65 64  1  0
 67 65  1  0
 68 77  2  0
 68 73  1  0
 69 65  1  0
 69 73  1  0
 70 69  1  0
 71 72  1  0
 71 70  1  0
 72 68  1  0
 73 74  2  0
 74 75  1  0
 76 75  2  0
 77 76  1  0
 78 52  1  0
 78 83  1  0
 78 79  1  0
 79 82  1  1
 79 80  1  0
 81 79  1  0
 83 86  1  0
 84 88  1  0
 84 83  1  0
 85 84  2  0
 88 87  1  0
 90 88  1  0
 90 91  1  0
 90 89  1  0
M  ISO  4   5 100  17 100  50 101  51 101
M  END
>  <TORSDO>  (57) 
F 20

>  <SCORE>  (57) 
-13.996

>  <name>  (57) 
57

>  <ligand_id>  (57) 
57

>  <original_smiles>  (57) 
[H]c1c([H])c([H])c2c(c1[H])C([H])([H])C([H])([H])C([H])([H])C2([H])N([H])C(=O)C1([H])N(C(=O)C([H])(N([H])C(=O)C([H])(N([H])C([H])([H])[H])C([H])([H])[H])C(C([H])([H])[H])(C([H])([H])[H])C([H])([H])[H])C([H])([H])c2c([H])c(OC([H])([H])C([H])([H])C(=O)C([H])([H])[N+]([H])([H])C3([H])C([H])([H])N(C(=O)N4C([H])([H])C([H])([H])C([H])([H])C([H])(n5nc(-c6c([H])c([H])c(Oc7c([H])c([H])c(F)c([H])c7F)c([H])c6[H])c(C(=O)N([H])[H])c5N([H])[H])C4([H])[H])C([H])([H])C3([H])F)c([H])c([H])c2C1([H])[H]

>  <smiles>  (57) 
[H]c1c([H])c([H])c2c(c1[H])C([H])([H])C([H])([H])C([H])([H])C2([H])N([H])C(=O)C1([H])N(C(=O)C([H])(N([H])C(=O)C([H])(N([H])C([H])([H])[H])C([H])([H])[H])C(C([H])([H])[H])(C([H])([H])[H])C([H])([H])[H])C([H])([H])c2c([H])c(OC([H])([H])C([H])([H])C(=O)C([H])([H])[N+]([H])([H])C3([H])C([H])([H])N(C(=O)N4C([H])([H])C([H])([H])C([H])([H])C([H])(n5nc(-c6c([H])c([H])c(Oc7c([H])c([H])c(F)c([H])c7F)c([H])c6[H])c(C(=O)N([H])[H])c5N([H])[H])C4([H])[H])C([H])([H])C3([H])F)c([H])c([H])c2C1([H])[H]

$$$$
58:0:0
     RDKit          3D

 95103  0  0  1  0  0  0  0  0999 V2000
  -31.0210  -21.0360   20.8630 C   0  0  0  0  0  3  0  0  0  0  0  0
  -30.2880  -22.0060   20.2790 C   0  0  0  0  0  3  0  0  0  0  0  0
  -29.2040  -17.6510   20.8750 C   0  0  0  0  0  3  0  0  0  0  0  0
  -31.5690  -17.3150   21.3150 C   0  0  0  0  0  3  0  0  0  0  0  0
  -30.7020  -19.5950   21.0020 C   0  0  0  0  0  0  0  0  0  0  0  0
  -30.2850  -16.7700   21.0860 C   0  0  0  0  0  0  0  0  0  0  0  0
  -29.4080  -19.0460   20.8130 C   0  0  0  0  0  0  0  0  0  0  0  0
  -31.7710  -18.7080   21.2750 C   0  0  0  0  0  0  0  0  0  0  0  0
  -28.3390  -19.8440   20.5730 F   0  0  0  0  0  0  0  0  0  0  0  0
  -33.0210  -19.1930   21.4800 F   0  0  0  0  0  0  0  0  0  0  0  0
  -30.6580  -14.4540   20.3170 C   0  0  0  0  0  0  0  0  0  0  0  0
  -30.2900  -12.3770   19.0370 C   0  0  0  0  0  2  0  0  0  0  0  0
  -29.3060  -12.6560   17.8830 C   0  0  0  0  0  2  0  0  0  0  0  0
  -27.8470  -12.5040   18.3600 C   0  0  0  0  0  2  0  0  0  0  0  0
  -27.5640  -13.2850   19.6710 C   0  0  0  0  0  3  0  0  0  0  0  0
  -28.6520  -12.9810   20.7270 C   0  0  0  0  0  2  0  0  0  0  0  0
  -29.9660  -13.2980   20.1370 N   0  0  0  0  0  0  0  0  0  0  0  0
  -31.7310  -14.6880   19.7510 O   0  0  0  0  0  0  0  0  0  0  0  0
  -30.0430  -15.3660   21.0900 N   0  0  0  0  0  0  0  0  0  0  0  0
  -29.1540  -15.0620   21.4570 H   0  0  0  0  0  0  0  0  0  0  0  0
  -25.1790  -13.8800   20.4460 C   0  0  0  0  0  0  0  0  0  0  0  0
  -24.1250  -13.0990   20.8370 C   0  0  0  0  0  0  0  0  0  0  0  0
  -24.5910  -11.7500   20.7830 C   0  0  0  0  0  0  0  0  0  0  0  0
  -26.2230  -13.0050   20.1810 N   0  0  0  0  0  0  0  0  0  0  0  0
  -25.8730  -11.7190   20.4400 N   0  0  0  0  0  0  0  0  0  0  0  0
  -23.8780  -10.4830   20.9890 C   0  0  0  0  0  0  0  0  0  0  0  0
  -24.3340   -9.5180   21.9140 C   0  0  0  0  0  3  0  0  0  0  0  0
  -23.6230   -8.3140   22.1040 C   0  0  0  0  0  3  0  0  0  0  0  0
  -22.4390   -8.0670   21.3690 C   0  0  0  0  0  0  0  0  0  0  0  0
  -22.0020   -9.0210   20.4310 C   0  0  0  0  0  3  0  0  0  0  0  0
  -22.7150  -10.2160   20.2400 C   0  0  0  0  0  3  0  0  0  0  0  0
  -21.6950   -6.9160   21.4690 O   0  0  0  0  0  0  0  0  0  0  0  0
  -21.6650   -6.1780   22.6240 C   0  0  0  0  0  0  0  0  0  0  0  0
  -21.2500   -6.7340   23.8550 C   0  0  0  0  0  3  0  0  0  0  0  0
  -21.1670   -5.9210   25.0030 C   0  0  0  0  0  3  0  0  0  0  0  0
  -21.4870   -4.5520   24.9220 C   0  0  0  0  0  0  0  0  0  0  0  0
  -21.8950   -3.9950   23.6960 C   0  0  0  0  0  3  0  0  0  0  0  0
  -21.9800   -4.8060   22.5510 C   0  0  0  0  0  0  0  0  0  0  0  0
  -22.3540   -4.2600   21.3680 F   0  0  0  0  0  0  0  0  0  0  0  0
  -21.4010   -3.7680   26.0210 F   0  0  0  0  0  0  0  0  0  0  0  0
  -22.7320  -13.5680   21.1490 C   0  0  0  0  0  0  0  0  0  0  0  0
  -22.0290  -12.8620   22.0280 N   0  0  0  0  0  0  0  0  0  0  0  0
  -22.2760  -14.5950   20.6490 O   0  0  0  0  0  0  0  0  0  0  0  0
  -22.4110  -12.0310   22.4550 H   0  0  0  0  0  0  0  0  0  0  0  0
  -21.0970  -13.1610   22.2790 H   0  0  0  0  0  0  0  0  0  0  0  0
  -25.3320  -15.2530   20.2800 N   0  0  0  0  0  0  0  0  0  0  0  0
  -24.5650  -15.8990   20.4340 H   0  0  0  0  0  0  0  0  0  0  0  0
  -26.1720  -15.7060   19.9450 H   0  0  0  0  0  0  0  0  0  0  0  0
  -30.7580  -23.4450   20.1380 C   0  0  0  0  0  2  0  0  0  0  0  0
  -29.9120  -24.4130   20.8710 N   0  0  0  0  0  4  0  0  0  0  0  0
  -29.7910  -24.1020   21.8230 H   0  0  0  0  0  0  0  0  0  0  0  0
  -29.0010  -24.4390   20.4400 H   0  0  0  0  0  0  0  0  0  0  0  0
  -30.4670  -25.7910   20.8620 C   0  0  0  0  0  2  0  0  0  0  0  0
  -29.3930  -26.8620   21.1020 C   0  0  0  0  0  2  0  0  0  0  0  0
  -28.4040  -26.7000   20.0920 O   0  0  0  0  0  0  0  0  0  0  0  0
  -24.5850  -31.8790   23.2320 C   0  0  0  0  0  0  0  0  0  0  0  0
  -27.2690  -27.4750   20.1610 C   0  0  0  0  0  0  0  0  0  0  0  0
  -23.3880  -30.4730   21.5830 C   0  0  0  0  0  3  0  0  0  0  0  0
  -24.8540  -28.9410   20.1660 C   0  0  0  0  0  0  0  0  0  0  0  0
  -25.9060  -30.8510   21.3900 C   0  0  0  0  0  2  0  0  0  0  0  0
  -26.0020  -29.4780   20.7630 C   0  0  0  0  0  0  0  0  0  0  0  0
  -27.2110  -28.7500   20.7700 C   0  0  0  0  0  3  0  0  0  0  0  0
  -26.1080  -26.9500   19.5590 C   0  0  0  0  0  3  0  0  0  0  0  0
  -24.9000  -27.6720   19.5660 C   0  0  0  0  0  3  0  0  0  0  0  0
  -23.6050  -29.7900   20.2050 C   0  0  0  0  0  2  0  0  0  0  0  0
  -24.6440  -31.0820   22.1280 N   0  0  0  0  0  0  0  0  0  0  0  0
  -23.5030  -32.1480   23.7700 O   0  0  0  0  0  0  0  0  0  0  0  0
  -22.7370  -29.4510   22.5420 C   0  0  0  0  0  0  0  0  0  0  0  0
  -21.4140  -29.2690   22.4120 N   0  0  0  0  0  0  0  0  0  0  0  0
  -23.4210  -28.8220   23.3560 O   0  0  0  0  0  0  0  0  0  0  0  0
  -20.9250  -29.8290   21.7260 H   0  0  0  0  0  0  0  0  0  0  0  0
  -18.0360  -28.0920   22.9070 C   0  0  0  0  0  0  0  0  0  0  0  0
  -20.5950  -28.3300   23.1770 C   0  0  0  0  0  3  0  0  0  0  0  0
  -20.6870  -26.9030   22.5910 C   0  0  0  0  0  2  0  0  0  0  0  0
  -19.5820  -26.5940   21.5760 C   0  0  0  0  0  2  0  0  0  0  0  0
  -18.2030  -26.7450   22.2230 C   0  0  0  0  0  2  0  0  0  0  0  0
  -19.1600  -28.8420   23.3410 C   0  0  0  0  0  0  0  0  0  0  0  0
  -18.9510  -30.1050   23.9370 C   0  0  0  0  0  3  0  0  0  0  0  0
  -17.6510  -30.6140   24.1080 C   0  0  0  0  0  3  0  0  0  0  0  0
  -16.5410  -29.8600   23.6940 C   0  0  0  0  0  3  0  0  0  0  0  0
  -16.7340  -28.6000   23.0970 C   0  0  0  0  0  3  0  0  0  0  0  0
  -25.8710  -32.5090   23.8570 C   0  0  0  0  0  3  0  0  0  0  0  0
  -25.5650  -33.9080   24.1810 N   0  0  0  0  0  0  0  0  0  0  0  0
  -25.9080  -34.9570   23.4220 C   0  0  0  0  0  0  0  0  0  0  0  0
  -26.5880  -34.8490   22.3970 O   0  0  0  0  0  0  0  0  0  0  0  0
  -24.9620  -34.0660   24.9740 H   0  0  0  0  0  0  0  0  0  0  0  0
  -24.1920  -36.7530   23.0380 C   0  0  0  0  0  1  0  0  0  0  0  0
  -25.4190  -36.3460   23.8680 C   0  0  0  0  0  3  0  0  0  0  0  0
  -27.5460  -37.2230   24.7270 C   0  0  0  0  0  1  0  0  0  0  0  0
  -26.4560  -37.3960   23.7700 N   0  0  0  0  0  0  0  0  0  0  0  0
  -26.0520  -38.3170   23.9140 H   0  0  0  0  0  0  0  0  0  0  0  0
  -26.3890  -31.7370   25.1310 C   0  0  1  0  0  0  0  0  0  0  0  0
  -25.2980  -31.5000   26.2020 C   0  0  0  0  0  1  0  0  0  0  0  0
  -26.9700  -30.3600   24.7340 C   0  0  0  0  0  1  0  0  0  0  0  0
  -27.5400  -32.5320   25.7930 C   0  0  0  0  0  1  0  0  0  0  0  0
  1  5  1  0
  2  1  2  0
  3  6  1  0
  5  8  2  0
  6 19  1  0
  6  4  2  0
  7  3  2  0
  7  5  1  0
  8  4  1  0
  8 10  1  0
  9  7  1  0
 11 19  1  0
 12 17  1  0
 13 14  1  0
 13 12  1  0
 15 14  1  0
 15 24  1  0
 15 16  1  0
 17 11  1  0
 17 16  1  0
 18 11  2  0
 19 20  1  0
 21 22  2  0
 22 41  1  0
 23 22  1  0
 23 26  1  0
 24 25  1  0
 24 21  1  0
 25 23  2  0
 26 27  1  0
 27 28  2  0
 29 32  1  0
 29 28  1  0
 30 29  2  0
 31 30  1  0
 31 26  2  0
 32 33  1  0
 33 34  1  0
 34 35  2  0
 36 35  1  0
 36 40  1  0
 37 36  2  0
 38 33  2  0
 38 37  1  0
 39 38  1  0
 41 42  1  0
 42 45  1  0
 42 44  1  0
 43 41  2  0
 46 47  1  0
 46 21  1  0
 48 46  1  0
 49  2  1  0
 49 50  1  0
 50 51  1  0
 52 50  1  0
 53 50  1  0
 53 54  1  0
 55 57  1  0
 55 54  1  0
 56 67  2  0
 57 62  1  0
 58 66  1  0
 58 68  1  0
 59 65  1  0
 59 61  1  0
 60 66  1  0
 61 62  2  0
 61 60  1  0
 63 64  1  0
 63 57  2  0
 64 59  2  0
 65 58  1  0
 66 56  1  0
 68 70  2  0
 69 68  1  0
 71 69  1  0
 72 81  2  0
 72 77  1  0
 73 69  1  0
 73 77  1  0
 74 73  1  0
 75 76  1  0
 75 74  1  0
 76 72  1  0
 77 78  2  0
 78 79  1  0
 80 79  2  0
 81 80  1  0
 82 56  1  0
 82 83  1  0
 82 92  1  0
 83 86  1  0
 84 88  1  0
 84 83  1  0
 85 84  2  0
 88 87  1  0
 90 88  1  0
 90 91  1  0
 90 89  1  0
 92 95  1  1
 92 93  1  0
 94 92  1  0
M  ISO  4  11 100  19 100  54 101  55 101
M  END
>  <TORSDO>  (58) 
F 21

>  <SCORE>  (58) 
-13.826

>  <name>  (58) 
58

>  <ligand_id>  (58) 
58

>  <original_smiles>  (58) 
[H]C(=C([H])C([H])([H])[N+]([H])([H])C([H])([H])C([H])([H])Oc1c([H])c([H])c2c(c1[H])C([H])([H])N(C(=O)C([H])(N([H])C(=O)C([H])(N([H])C([H])([H])[H])C([H])([H])[H])C(C([H])([H])[H])(C([H])([H])[H])C([H])([H])[H])C([H])(C(=O)N([H])C1([H])c3c([H])c([H])c([H])c([H])c3C([H])([H])C([H])([H])C1([H])[H])C2([H])[H])c1c(F)c([H])c(N([H])C(=O)N2C([H])([H])C([H])([H])C([H])([H])C([H])(n3nc(-c4c([H])c([H])c(Oc5c([H])c([H])c(F)c([H])c5F)c([H])c4[H])c(C(=O)N([H])[H])c3N([H])[H])C2([H])[H])c([H])c1F

>  <smiles>  (58) 
[H]C(=C([H])C([H])([H])[N+]([H])([H])C([H])([H])C([H])([H])Oc1c([H])c([H])c2c(c1[H])C([H])([H])N(C(=O)C([H])(N([H])C(=O)C([H])(N([H])C([H])([H])[H])C([H])([H])[H])C(C([H])([H])[H])(C([H])([H])[H])C([H])([H])[H])C([H])(C(=O)N([H])C1([H])c3c([H])c([H])c([H])c([H])c3C([H])([H])C([H])([H])C1([H])[H])C2([H])[H])c1c(F)c([H])c(N([H])C(=O)N2C([H])([H])C([H])([H])C([H])([H])C([H])(n3nc(-c4c([H])c([H])c(Oc5c([H])c([H])c(F)c([H])c5F)c([H])c4[H])c(C(=O)N([H])[H])c3N([H])[H])C2([H])[H])c([H])c1F

$$$$
59:0:0
     RDKit          3D

102110  0  0  1  0  0  0  0  0999 V2000
  -31.1650  -18.9230   17.9620 C   0  0  0  0  0  2  0  0  0  0  0  0
  -30.2200  -20.0980   18.3270 C   0  0  0  0  0  2  0  0  0  0  0  0
  -30.8050  -21.5060   18.0470 C   0  0  0  0  0  2  0  0  0  0  0  0
  -29.7810  -22.5780   18.0480 N   0  0  0  0  0  4  0  0  0  0  0  0
  -30.1850  -23.4120   17.6420 H   0  0  0  0  0  0  0  0  0  0  0  0
  -28.9980  -22.3380   17.4620 H   0  0  0  0  0  0  0  0  0  0  0  0
  -29.3170  -23.0690   19.3630 C   0  0  0  0  0  2  0  0  0  0  0  0
  -29.1140  -24.5850   19.2180 C   0  0  0  0  0  0  0  0  0  0  0  0
  -29.4830  -25.1730   18.1930 O   0  0  0  0  0  0  0  0  0  0  0  0
  -28.4860  -25.3420   20.3960 C   0  0  0  0  0  2  0  0  0  0  0  0
  -28.5130  -26.7590   20.1630 O   0  0  0  0  0  0  0  0  0  0  0  0
  -24.6510  -31.8700   23.2220 C   0  0  0  0  0  0  0  0  0  0  0  0
  -27.3130  -27.4360   20.1640 C   0  0  0  0  0  0  0  0  0  0  0  0
  -23.4440  -30.4520   21.5950 C   0  0  0  0  0  3  0  0  0  0  0  0
  -24.8990  -28.9100   20.1740 C   0  0  0  0  0  0  0  0  0  0  0  0
  -25.9650  -30.8290   21.3750 C   0  0  0  0  0  2  0  0  0  0  0  0
  -26.0540  -29.4550   20.7480 C   0  0  0  0  0  0  0  0  0  0  0  0
  -27.2650  -28.7280   20.7300 C   0  0  0  0  0  3  0  0  0  0  0  0
  -26.1400  -26.8980   19.5860 C   0  0  0  0  0  3  0  0  0  0  0  0
  -24.9360  -27.6310   19.5900 C   0  0  0  0  0  3  0  0  0  0  0  0
  -23.6490  -29.7590   20.2210 C   0  0  0  0  0  2  0  0  0  0  0  0
  -24.7060  -31.0640   22.1230 N   0  0  0  0  0  0  0  0  0  0  0  0
  -23.5700  -32.1400   23.7660 O   0  0  0  0  0  0  0  0  0  0  0  0
  -22.8020  -29.4350   22.5650 C   0  0  0  0  0  0  0  0  0  0  0  0
  -21.4780  -29.2530   22.4490 N   0  0  0  0  0  0  0  0  0  0  0  0
  -23.4950  -28.8080   23.3720 O   0  0  0  0  0  0  0  0  0  0  0  0
  -20.9850  -29.8090   21.7650 H   0  0  0  0  0  0  0  0  0  0  0  0
  -18.1070  -28.0650   22.9750 C   0  0  0  0  0  0  0  0  0  0  0  0
  -20.6670  -28.3170   23.2260 C   0  0  0  0  0  3  0  0  0  0  0  0
  -20.7620  -26.8860   22.6490 C   0  0  0  0  0  2  0  0  0  0  0  0
  -19.6500  -26.5660   21.6440 C   0  0  0  0  0  2  0  0  0  0  0  0
  -18.2750  -26.7150   22.3000 C   0  0  0  0  0  2  0  0  0  0  0  0
  -19.2310  -28.8250   23.3960 C   0  0  0  0  0  0  0  0  0  0  0  0
  -19.0200  -30.0900   23.9860 C   0  0  0  0  0  3  0  0  0  0  0  0
  -17.7180  -30.5960   24.1600 C   0  0  0  0  0  3  0  0  0  0  0  0
  -16.6080  -29.8320   23.7560 C   0  0  0  0  0  3  0  0  0  0  0  0
  -16.8040  -28.5690   23.1700 C   0  0  0  0  0  3  0  0  0  0  0  0
  -25.9360  -32.5090   23.8340 C   0  0  0  0  0  3  0  0  0  0  0  0
  -25.6190  -33.9020   24.1770 N   0  0  0  0  0  0  0  0  0  0  0  0
  -25.9350  -34.9600   23.4200 C   0  0  0  0  0  0  0  0  0  0  0  0
  -26.5950  -34.8670   22.3810 O   0  0  0  0  0  0  0  0  0  0  0  0
  -25.0290  -34.0440   24.9830 H   0  0  0  0  0  0  0  0  0  0  0  0
  -24.1820  -36.7330   23.0920 C   0  0  0  0  0  1  0  0  0  0  0  0
  -25.4380  -36.3420   23.8870 C   0  0  0  0  0  3  0  0  0  0  0  0
  -27.5770  -37.2440   24.6890 C   0  0  0  0  0  1  0  0  0  0  0  0
  -26.4590  -37.4050   23.7630 N   0  0  0  0  0  0  0  0  0  0  0  0
  -26.0470  -38.3210   23.9170 H   0  0  0  0  0  0  0  0  0  0  0  0
  -26.4730  -31.7330   25.0990 C   0  0  1  0  0  0  0  0  0  0  0  0
  -25.3970  -31.4770   26.1790 C   0  0  0  0  0  1  0  0  0  0  0  0
  -27.0620  -30.3640   24.6840 C   0  0  0  0  0  1  0  0  0  0  0  0
  -27.6270  -32.5310   25.7510 C   0  0  0  0  0  1  0  0  0  0  0  0
  -32.4130  -18.7140   18.8570 C   0  0  0  0  0  2  0  0  0  0  0  0
  -32.3050  -17.5860   19.8160 N   0  0  0  0  0  4  0  0  0  0  0  0
  -32.1980  -16.7040   19.3250 H   0  0  0  0  0  0  0  0  0  0  0  0
  -33.1850  -17.5120   20.3020 H   0  0  0  0  0  0  0  0  0  0  0  0
  -30.5600  -17.1480   23.0960 C   0  0  0  0  0  2  0  0  0  0  0  0
  -31.3990  -18.8980   21.7420 C   0  0  0  0  0  2  0  0  0  0  0  0
  -31.2400  -16.5420   21.8480 C   0  0  0  0  0  3  0  0  0  0  0  0
  -31.2270  -17.6890   20.8240 C   0  0  0  0  0  3  0  0  0  0  0  0
  -30.5620  -18.6020   22.8970 N   0  0  0  0  0  0  0  0  0  0  0  0
  -31.1430  -14.3840   20.5980 C   0  0  0  0  0  0  0  0  0  0  0  0
  -30.7950  -12.2450   19.4200 C   0  0  0  0  0  2  0  0  0  0  0  0
  -29.8970  -12.4510   18.1840 C   0  0  0  0  0  2  0  0  0  0  0  0
  -28.4070  -12.3690   18.5660 C   0  0  0  0  0  2  0  0  0  0  0  0
  -28.0610  -13.2540   19.7930 C   0  0  0  0  0  3  0  0  0  0  0  0
  -29.0620  -13.0020   20.9420 C   0  0  0  0  0  2  0  0  0  0  0  0
  -30.4200  -13.2490   20.4250 N   0  0  0  0  0  0  0  0  0  0  0  0
  -32.2160  -14.6100   20.0320 O   0  0  0  0  0  0  0  0  0  0  0  0
  -30.5940  -15.2990   21.4110 N   0  0  0  0  0  0  0  0  0  0  0  0
  -29.6880  -15.0740   21.7950 H   0  0  0  0  0  0  0  0  0  0  0  0
  -25.6670  -13.9830   20.3980 C   0  0  0  0  0  0  0  0  0  0  0  0
  -24.5560  -13.2650   20.7480 C   0  0  0  0  0  0  0  0  0  0  0  0
  -24.9610  -11.8960   20.7670 C   0  0  0  0  0  0  0  0  0  0  0  0
  -26.6810  -13.0530   20.2250 N   0  0  0  0  0  0  0  0  0  0  0  0
  -26.2570  -11.7930   20.4990 N   0  0  0  0  0  0  0  0  0  0  0  0
  -24.1750  -10.6690   20.9610 C   0  0  0  0  0  0  0  0  0  0  0  0
  -24.5390   -9.7040   21.9250 C   0  0  0  0  0  3  0  0  0  0  0  0
  -23.7570   -8.5430   22.1050 C   0  0  0  0  0  3  0  0  0  0  0  0
  -22.5970   -8.3390   21.3190 C   0  0  0  0  0  0  0  0  0  0  0  0
  -22.2540   -9.2910   20.3430 C   0  0  0  0  0  3  0  0  0  0  0  0
  -23.0360  -10.4440   20.1620 C   0  0  0  0  0  3  0  0  0  0  0  0
  -21.7940   -7.2290   21.4060 O   0  0  0  0  0  0  0  0  0  0  0  0
  -21.6760   -6.5160   22.5720 C   0  0  0  0  0  0  0  0  0  0  0  0
  -21.2530   -7.1210   23.7750 C   0  0  0  0  0  3  0  0  0  0  0  0
  -21.0770   -6.3360   24.9330 C   0  0  0  0  0  3  0  0  0  0  0  0
  -21.3170   -4.9500   24.8890 C   0  0  0  0  0  0  0  0  0  0  0  0
  -21.7340   -4.3460   23.6900 C   0  0  0  0  0  3  0  0  0  0  0  0
  -21.9110   -5.1270   22.5350 C   0  0  0  0  0  0  0  0  0  0  0  0
  -22.2930   -4.5360   21.3770 F   0  0  0  0  0  0  0  0  0  0  0  0
  -21.1410   -4.1950   25.9990 F   0  0  0  0  0  0  0  0  0  0  0  0
  -23.1710  -13.8070   20.9640 C   0  0  0  0  0  0  0  0  0  0  0  0
  -22.3910  -13.1680   21.8300 N   0  0  0  0  0  0  0  0  0  0  0  0
  -22.7900  -14.8320   20.4010 O   0  0  0  0  0  0  0  0  0  0  0  0
  -22.7120  -12.3380   22.3040 H   0  0  0  0  0  0  0  0  0  0  0  0
  -21.4600  -13.5120   22.0190 H   0  0  0  0  0  0  0  0  0  0  0  0
  -25.8960  -15.3400   20.1940 N   0  0  0  0  0  0  0  0  0  0  0  0
  -25.1500  -16.0250   20.2600 H   0  0  0  0  0  0  0  0  0  0  0  0
  -26.7740  -15.7400   19.8880 H   0  0  0  0  0  0  0  0  0  0  0  0
  -30.9540  -19.3680   24.0840 C   0  0  0  0  0  2  0  0  0  0  0  0
  -30.5840  -20.8550   23.9320 C   0  0  0  0  0  3  0  0  0  0  0  0
  -31.3260  -21.4670   23.0090 F   0  0  0  0  0  0  0  0  0  0  0  0
  -30.7500  -21.4820   25.0970 F   0  0  0  0  0  0  0  0  0  0  0  0
  1  2  1  0
  1 52  1  0
  3  4  1  0
  3  2  1  0
  4  7  1  0
  5  4  1  0
  6  4  1  0
  8  7  1  0
  8 10  1  0
  9  8  2  0
 11 13  1  0
 11 10  1  0
 12 23  2  0
 13 18  1  0
 14 22  1  0
 14 24  1  0
 15 21  1  0
 15 17  1  0
 16 22  1  0
 17 16  1  0
 18 17  2  0
 19 20  1  0
 19 13  2  0
 20 15  2  0
 21 14  1  0
 22 12  1  0
 24 26  2  0
 25 24  1  0
 27 25  1  0
 28 37  2  0
 28 33  1  0
 29 25  1  0
 29 33  1  0
 30 29  1  0
 31 32  1  0
 31 30  1  0
 32 28  1  0
 33 34  2  0
 34 35  1  0
 36 35  2  0
 37 36  1  0
 38 12  1  0
 38 39  1  0
 38 48  1  0
 39 42  1  0
 40 44  1  0
 40 39  1  0
 41 40  2  0
 44 43  1  0
 46 44  1  0
 46 47  1  0
 46 45  1  0
 48 51  1  1
 48 49  1  0
 50 48  1  0
 52 53  1  0
 53 55  1  0
 54 53  1  0
 57 60  1  0
 58 69  1  0
 58 56  1  0
 59 53  1  0
 59 57  1  0
 59 58  1  0
 60 56  1  0
 60 99  1  0
 61 69  1  0
 62 67  1  0
 63 64  1  0
 63 62  1  0
 65 64  1  0
 65 74  1  0
 65 66  1  0
 67 61  1  0
 67 66  1  0
 68 61  2  0
 69 70  1  0
 71 72  2  0
 72 73  1  0
 72 91  1  0
 73 76  1  0
 74 71  1  0
 74 75  1  0
 75 73  2  0
 76 77  1  0
 77 78  2  0
 79 82  1  0
 79 78  1  0
 80 79  2  0
 81 80  1  0
 81 76  2  0
 82 83  1  0
 83 84  1  0
 84 85  2  0
 86 85  1  0
 86 90  1  0
 87 86  2  0
 88 83  2  0
 88 87  1  0
 89 88  1  0
 91 92  1  0
 92 95  1  0
 92 94  1  0
 93 91  2  0
 96 97  1  0
 96 71  1  0
 98 96  1  0
100 99  1  0
100102  1  0
101100  1  0
M  ISO  4  10 101  11 101  61 100  69 100
M  END
>  <TORSDO>  (59) 
F 27

>  <SCORE>  (59) 
-11.042

>  <name>  (59) 
59

>  <ligand_id>  (59) 
59

>  <original_smiles>  (59) 
[H]c1c([H])c([H])c2c(c1[H])C([H])([H])C([H])([H])C([H])([H])C2([H])N([H])C(=O)C1([H])N(C(=O)C([H])(N([H])C(=O)C([H])(N([H])C([H])([H])[H])C([H])([H])[H])C(C([H])([H])[H])(C([H])([H])[H])C([H])([H])[H])C([H])([H])c2c([H])c(OC([H])([H])C(=O)C([H])([H])[N+]([H])([H])C([H])([H])C([H])([H])C([H])([H])C([H])([H])[N+]([H])([H])C3([H])C([H])([H])N(C([H])([H])C([H])(F)F)C([H])([H])C3([H])N([H])C(=O)N3C([H])([H])C([H])([H])C([H])([H])C([H])(n4nc(-c5c([H])c([H])c(Oc6c([H])c([H])c(F)c([H])c6F)c([H])c5[H])c(C(=O)N([H])[H])c4N([H])[H])C3([H])[H])c([H])c([H])c2C1([H])[H]

>  <smiles>  (59) 
[H]c1c([H])c([H])c2c(c1[H])C([H])([H])C([H])([H])C([H])([H])C2([H])N([H])C(=O)C1([H])N(C(=O)C([H])(N([H])C(=O)C([H])(N([H])C([H])([H])[H])C([H])([H])[H])C(C([H])([H])[H])(C([H])([H])[H])C([H])([H])[H])C([H])([H])c2c([H])c(OC([H])([H])C(=O)C([H])([H])[N+]([H])([H])C([H])([H])C([H])([H])C([H])([H])C([H])([H])[N+]([H])([H])C3([H])C([H])([H])N(C([H])([H])C([H])(F)F)C([H])([H])C3([H])N([H])C(=O)N3C([H])([H])C([H])([H])C([H])([H])C([H])(n4nc(-c5c([H])c([H])c(Oc6c([H])c([H])c(F)c([H])c6F)c([H])c5[H])c(C(=O)N([H])[H])c4N([H])[H])C3([H])[H])c([H])c([H])c2C1([H])[H]

$$$$
60:0:0
     RDKit          3D

 99108  0  0  1  0  0  0  0  0999 V2000
  -29.5800  -20.4010   18.4360 C   0  0  0  0  0  2  0  0  0  0  0  0
  -30.1890  -21.7550   18.0320 C   0  0  0  0  0  2  0  0  0  0  0  0
  -31.1570  -22.0610   20.1910 C   0  0  0  0  0  2  0  0  0  0  0  0
  -30.3630  -19.7190   19.5770 C   0  0  0  0  0  3  0  0  0  0  0  0
  -30.5670  -20.7360   20.7290 C   0  0  0  0  0  3  0  0  0  0  0  0
  -30.2560  -22.6530   19.1910 N   0  0  0  0  0  0  0  0  0  0  0  0
  -27.6160  -17.3280   20.7910 C   0  0  0  0  0  3  0  0  0  0  0  0
  -28.2840  -18.4850   20.3600 C   0  0  0  0  0  3  0  0  0  0  0  0
  -28.3130  -16.1140   20.8950 C   0  0  0  0  0  3  0  0  0  0  0  0
  -30.3570  -17.2080   20.1250 C   0  0  0  0  0  3  0  0  0  0  0  0
  -29.6600  -18.4400   20.0350 C   0  0  0  0  0  0  0  0  0  0  0  0
  -29.6790  -16.0380   20.5500 C   0  0  0  0  0  0  0  0  0  0  0  0
  -30.6790  -13.9880   19.6580 C   0  0  0  0  0  0  0  0  0  0  0  0
  -30.2570  -11.8300   18.5240 C   0  0  0  0  0  2  0  0  0  0  0  0
  -29.1750  -12.0130   17.4400 C   0  0  0  0  0  2  0  0  0  0  0  0
  -27.7570  -11.8950   18.0360 C   0  0  0  0  0  2  0  0  0  0  0  0
  -27.5730  -12.7540   19.3130 C   0  0  0  0  0  3  0  0  0  0  0  0
  -28.7400  -12.5120   20.2930 C   0  0  0  0  0  2  0  0  0  0  0  0
  -30.0100  -12.8050   19.5950 N   0  0  0  0  0  0  0  0  0  0  0  0
  -31.6040  -14.2950   18.8960 O   0  0  0  0  0  0  0  0  0  0  0  0
  -30.2960  -14.7670   20.6770 N   0  0  0  0  0  0  0  0  0  0  0  0
  -29.8500  -14.2020   21.3830 H   0  0  0  0  0  0  0  0  0  0  0  0
  -25.2800  -13.4030   20.2980 C   0  0  0  0  0  0  0  0  0  0  0  0
  -24.2500  -12.6480   20.7930 C   0  0  0  0  0  0  0  0  0  0  0  0
  -24.6820  -11.2890   20.7090 C   0  0  0  0  0  0  0  0  0  0  0  0
  -26.2770  -12.5050   19.9450 N   0  0  0  0  0  0  0  0  0  0  0  0
  -25.9240  -11.2290   20.2460 N   0  0  0  0  0  0  0  0  0  0  0  0
  -23.9660  -10.0380   20.9930 C   0  0  0  0  0  0  0  0  0  0  0  0
  -24.4660   -9.0950   21.9170 C   0  0  0  0  0  3  0  0  0  0  0  0
  -23.7520   -7.9070   22.1850 C   0  0  0  0  0  3  0  0  0  0  0  0
  -22.5230   -7.6550   21.5290 C   0  0  0  0  0  0  0  0  0  0  0  0
  -22.0420   -8.5890   20.5930 C   0  0  0  0  0  3  0  0  0  0  0  0
  -22.7560   -9.7670   20.3230 C   0  0  0  0  0  3  0  0  0  0  0  0
  -21.7720   -6.5180   21.7060 O   0  0  0  0  0  0  0  0  0  0  0  0
  -21.7750   -5.8310   22.8940 C   0  0  0  0  0  0  0  0  0  0  0  0
  -21.4030   -6.4440   24.1110 C   0  0  0  0  0  3  0  0  0  0  0  0
  -21.3540   -5.6830   25.2950 C   0  0  0  0  0  3  0  0  0  0  0  0
  -21.6670   -4.3100   25.2640 C   0  0  0  0  0  0  0  0  0  0  0  0
  -22.0320   -3.6970   24.0530 C   0  0  0  0  0  3  0  0  0  0  0  0
  -22.0830   -4.4560   22.8700 C   0  0  0  0  0  0  0  0  0  0  0  0
  -22.4170   -3.8550   21.7020 F   0  0  0  0  0  0  0  0  0  0  0  0
  -21.6110   -3.5780   26.4010 F   0  0  0  0  0  0  0  0  0  0  0  0
  -22.9040  -13.1480   21.2360 C   0  0  0  0  0  0  0  0  0  0  0  0
  -22.2860  -12.4710   22.1990 N   0  0  0  0  0  0  0  0  0  0  0  0
  -22.4160  -14.1720   20.7650 O   0  0  0  0  0  0  0  0  0  0  0  0
  -22.6950  -11.6440   22.6040 H   0  0  0  0  0  0  0  0  0  0  0  0
  -21.3900  -12.7920   22.5390 H   0  0  0  0  0  0  0  0  0  0  0  0
  -25.4450  -14.7710   20.1040 N   0  0  0  0  0  0  0  0  0  0  0  0
  -24.7190  -15.4420   20.3320 H   0  0  0  0  0  0  0  0  0  0  0  0
  -26.2810  -15.2040   19.7330 H   0  0  0  0  0  0  0  0  0  0  0  0
  -31.3930  -20.1800   21.8140 N   0  0  0  0  0  4  0  0  0  0  0  0
  -32.3200  -19.9700   21.4930 H   0  0  0  0  0  0  0  0  0  0  0  0
  -30.9750  -19.3380   22.1650 H   0  0  0  0  0  0  0  0  0  0  0  0
  -31.4560  -20.8330   22.5750 H   0  0  0  0  0  0  0  0  0  0  0  0
  -30.7400  -23.9640   18.7440 C   0  0  0  0  0  2  0  0  0  0  0  0
  -30.3390  -25.1260   19.6800 C   0  0  0  0  0  3  0  0  0  0  0  0
  -31.0690  -26.1850   19.3230 F   0  0  0  0  0  0  0  0  0  0  0  0
  -28.8540  -25.5160   19.5820 C   0  0  0  0  0  2  0  0  0  0  0  0
  -28.6220  -26.6310   20.4370 O   0  0  0  0  0  0  0  0  0  0  0  0
  -24.5990  -31.7340   23.2780 C   0  0  0  0  0  0  0  0  0  0  0  0
  -27.4070  -27.2780   20.3770 C   0  0  0  0  0  0  0  0  0  0  0  0
  -23.4670  -30.2950   21.6100 C   0  0  0  0  0  3  0  0  0  0  0  0
  -24.9870  -28.7390   20.2800 C   0  0  0  0  0  0  0  0  0  0  0  0
  -25.9960  -30.6660   21.5180 C   0  0  0  0  0  2  0  0  0  0  0  0
  -26.1120  -29.2850   20.9090 C   0  0  0  0  0  0  0  0  0  0  0  0
  -27.3180  -28.5580   20.9620 C   0  0  0  0  0  3  0  0  0  0  0  0
  -26.2580  -26.7290   19.7580 C   0  0  0  0  0  3  0  0  0  0  0  0
  -25.0520  -27.4560   19.7090 C   0  0  0  0  0  3  0  0  0  0  0  0
  -23.7390  -29.5910   20.2530 C   0  0  0  0  0  2  0  0  0  0  0  0
  -24.7020  -30.9170   22.1930 N   0  0  0  0  0  0  0  0  0  0  0  0
  -23.4960  -32.0090   23.7710 O   0  0  0  0  0  0  0  0  0  0  0  0
  -22.7840  -29.2880   22.5620 C   0  0  0  0  0  0  0  0  0  0  0  0
  -21.4680  -29.0910   22.3780 N   0  0  0  0  0  0  0  0  0  0  0  0
  -23.4360  -28.6850   23.4190 O   0  0  0  0  0  0  0  0  0  0  0  0
  -21.0040  -29.6280   21.6590 H   0  0  0  0  0  0  0  0  0  0  0  0
  -18.0840  -27.8860   22.7530 C   0  0  0  0  0  0  0  0  0  0  0  0
  -20.6260  -28.1630   23.1310 C   0  0  0  0  0  3  0  0  0  0  0  0
  -20.7600  -26.7220   22.5880 C   0  0  0  0  0  2  0  0  0  0  0  0
  -19.7060  -26.3740   21.5320 C   0  0  0  0  0  2  0  0  0  0  0  0
  -18.2960  -26.5250   22.1100 C   0  0  0  0  0  2  0  0  0  0  0  0
  -19.1790  -28.6620   23.2180 C   0  0  0  0  0  0  0  0  0  0  0  0
  -18.9290  -29.9350   23.7730 C   0  0  0  0  0  3  0  0  0  0  0  0
  -17.6170  -30.4340   23.8690 C   0  0  0  0  0  3  0  0  0  0  0  0
  -16.5360  -29.6560   23.4220 C   0  0  0  0  0  3  0  0  0  0  0  0
  -16.7690  -28.3840   22.8700 C   0  0  0  0  0  3  0  0  0  0  0  0
  -25.8580  -32.3810   23.9360 C   0  0  0  0  0  3  0  0  0  0  0  0
  -25.5170  -33.7730   24.2630 N   0  0  0  0  0  0  0  0  0  0  0  0
  -25.8410  -34.8320   23.5100 C   0  0  0  0  0  0  0  0  0  0  0  0
  -26.5300  -34.7440   22.4890 O   0  0  0  0  0  0  0  0  0  0  0  0
  -24.9080  -33.9130   25.0550 H   0  0  0  0  0  0  0  0  0  0  0  0
  -24.0780  -36.5870   23.1340 C   0  0  0  0  0  1  0  0  0  0  0  0
  -25.3170  -36.2100   23.9610 C   0  0  0  0  0  3  0  0  0  0  0  0
  -27.4200  -37.1430   24.8170 C   0  0  0  0  0  1  0  0  0  0  0  0
  -26.3260  -37.2860   23.8610 N   0  0  0  0  0  0  0  0  0  0  0  0
  -25.8970  -38.1960   24.0040 H   0  0  0  0  0  0  0  0  0  0  0  0
  -26.3550  -31.6130   25.2220 C   0  0  1  0  0  0  0  0  0  0  0  0
  -25.2370  -31.3410   26.2540 C   0  0  0  0  0  1  0  0  0  0  0  0
  -26.9840  -30.2520   24.8380 C   0  0  0  0  0  1  0  0  0  0  0  0
  -27.4640  -32.4290   25.9250 C   0  0  0  0  0  1  0  0  0  0  0  0
  1  4  1  0
  2  1  1  0
  2  6  1  0
  3  5  1  0
  4 11  1  0
  4  5  1  0
  5 51  1  0
  6  3  1  0
  7  9  1  0
  8  7  2  0
 10 12  1  0
 11 10  2  0
 11  8  1  0
 12 21  1  0
 12  9  2  0
 13 21  1  0
 14 19  1  0
 15 16  1  0
 15 14  1  0
 17 16  1  0
 17 26  1  0
 17 18  1  0
 19 13  1  0
 19 18  1  0
 20 13  2  0
 21 22  1  0
 23 24  2  0
 24 43  1  0
 25 24  1  0
 25 28  1  0
 26 27  1  0
 26 23  1  0
 27 25  2  0
 28 29  1  0
 29 30  2  0
 31 34  1  0
 31 30  1  0
 32 31  2  0
 33 32  1  0
 33 28  2  0
 34 35  1  0
 35 36  1  0
 36 37  2  0
 38 37  1  0
 38 42  1  0
 39 38  2  0
 40 35  2  0
 40 39  1  0
 41 40  1  0
 43 44  1  0
 44 47  1  0
 44 46  1  0
 45 43  2  0
 48 23  1  0
 48 49  1  0
 50 48  1  0
 51 53  1  0
 51 54  1  0
 52 51  1  0
 55  6  1  0
 55 56  1  0
 56 57  1  0
 58 56  1  0
 58 59  1  0
 60 71  2  0
 61 59  1  0
 61 66  1  0
 62 70  1  0
 62 72  1  0
 63 65  1  0
 64 70  1  0
 65 66  2  0
 65 64  1  0
 67 61  2  0
 68 67  1  0
 68 63  2  0
 69 63  1  0
 69 62  1  0
 70 60  1  0
 72 74  2  0
 73 72  1  0
 75 73  1  0
 76 85  2  0
 76 81  1  0
 77 73  1  0
 77 81  1  0
 78 77  1  0
 79 80  1  0
 79 78  1  0
 80 76  1  0
 81 82  2  0
 82 83  1  0
 84 83  2  0
 85 84  1  0
 86 60  1  0
 86 87  1  0
 86 96  1  0
 87 90  1  0
 88 92  1  0
 88 87  1  0
 89 88  2  0
 92 91  1  0
 94 92  1  0
 94 95  1  0
 94 93  1  0
 96 99  1  1
 96 97  1  0
 98 96  1  0
M  ISO  4  13 100  21 100  58 101  59 101
M  END
>  <TORSDO>  (60) 
F 21

>  <SCORE>  (60) 
-12.088

>  <name>  (60) 
60

>  <ligand_id>  (60) 
60

>  <original_smiles>  (60) 
[H]c1c([H])c([H])c2c(c1[H])C([H])([H])C([H])([H])C([H])([H])C2([H])N([H])C(=O)C1([H])N(C(=O)C([H])(N([H])C(=O)C([H])(N([H])C([H])([H])[H])C([H])([H])[H])C(C([H])([H])[H])(C([H])([H])[H])C([H])([H])[H])C([H])([H])c2c([H])c(OC([H])([H])C([H])(F)C([H])([H])N3C([H])([H])C([H])([H])C([H])(c4c([H])c([H])c([H])c(N([H])C(=O)N5C([H])([H])C([H])([H])C([H])([H])C([H])(n6nc(-c7c([H])c([H])c(Oc8c([H])c([H])c(F)c([H])c8F)c([H])c7[H])c(C(=O)N([H])[H])c6N([H])[H])C5([H])[H])c4[H])C([H])([N+]([H])([H])[H])C3([H])[H])c([H])c([H])c2C1([H])[H]

>  <smiles>  (60) 
[H]c1c([H])c([H])c2c(c1[H])C([H])([H])C([H])([H])C([H])([H])C2([H])N([H])C(=O)C1([H])N(C(=O)C([H])(N([H])C(=O)C([H])(N([H])C([H])([H])[H])C([H])([H])[H])C(C([H])([H])[H])(C([H])([H])[H])C([H])([H])[H])C([H])([H])c2c([H])c(OC([H])([H])C([H])(F)C([H])([H])N3C([H])([H])C([H])([H])C([H])(c4c([H])c([H])c([H])c(N([H])C(=O)N5C([H])([H])C([H])([H])C([H])([H])C([H])(n6nc(-c7c([H])c([H])c(Oc8c([H])c([H])c(F)c([H])c8F)c([H])c7[H])c(C(=O)N([H])[H])c6N([H])[H])C5([H])[H])c4[H])C([H])([N+]([H])([H])[H])C3([H])[H])c([H])c([H])c2C1([H])[H]

$$$$
62:0:0
     RDKit          3D

 93101  0  0  1  0  0  0  0  0999 V2000
  -30.8520  -21.0910   20.0380 C   0  0  0  0  0  2  0  0  0  0  0  0
  -28.4110  -21.3040   20.6090 C   0  0  0  0  0  2  0  0  0  0  0  0
  -30.9030  -19.7810   20.8400 C   0  0  0  0  0  2  0  0  0  0  0  0
  -28.5270  -19.9960   21.4150 C   0  0  0  0  0  2  0  0  0  0  0  0
  -29.7570  -22.0560   20.5450 C   0  0  0  0  0  3  0  0  0  0  0  0
  -29.5730  -19.1150   20.8420 N   0  0  2  0  0  4  0  0  0  0  0  0
  -29.3190  -18.9970   19.8720 H   0  0  0  0  0  0  0  0  0  0  0  0
  -29.6900  -23.3220   19.6580 C   0  0  0  0  0  3  0  0  0  0  0  0
  -30.9320  -23.7850   19.4950 F   0  0  0  0  0  0  0  0  0  0  0  0
  -28.8210  -24.4720   20.2100 C   0  0  0  0  0  3  0  0  0  0  0  0
  -29.2950  -24.8150   21.4120 F   0  0  0  0  0  0  0  0  0  0  0  0
  -28.8150  -25.7000   19.2790 C   0  0  0  0  0  2  0  0  0  0  0  0
  -28.5370  -26.8840   20.0190 O   0  0  0  0  0  0  0  0  0  0  0  0
  -24.5270  -31.8120   23.1150 C   0  0  0  0  0  0  0  0  0  0  0  0
  -27.2950  -27.4760   20.0120 C   0  0  0  0  0  0  0  0  0  0  0  0
  -23.3630  -30.4070   21.4450 C   0  0  0  0  0  3  0  0  0  0  0  0
  -24.8560  -28.9040   20.0270 C   0  0  0  0  0  0  0  0  0  0  0  0
  -25.8800  -30.8180   21.2750 C   0  0  0  0  0  2  0  0  0  0  0  0
  -25.9930  -29.4550   20.6270 C   0  0  0  0  0  0  0  0  0  0  0  0
  -27.2090  -28.7450   20.6210 C   0  0  0  0  0  3  0  0  0  0  0  0
  -26.1320  -26.9120   19.4380 C   0  0  0  0  0  3  0  0  0  0  0  0
  -24.9170  -27.6270   19.4380 C   0  0  0  0  0  3  0  0  0  0  0  0
  -23.5980  -29.7410   20.0610 C   0  0  0  0  0  2  0  0  0  0  0  0
  -24.6080  -31.0270   22.0050 N   0  0  0  0  0  0  0  0  0  0  0  0
  -23.4370  -32.0570   23.6480 O   0  0  0  0  0  0  0  0  0  0  0  0
  -22.7220  -29.3640   22.3880 C   0  0  0  0  0  0  0  0  0  0  0  0
  -21.3970  -29.1860   22.2680 N   0  0  0  0  0  0  0  0  0  0  0  0
  -23.4120  -28.7180   23.1800 O   0  0  0  0  0  0  0  0  0  0  0  0
  -20.9000  -29.7610   21.6010 H   0  0  0  0  0  0  0  0  0  0  0  0
  -18.0170  -28.0270   22.8070 C   0  0  0  0  0  0  0  0  0  0  0  0
  -20.5840  -28.2340   23.0260 C   0  0  0  0  0  3  0  0  0  0  0  0
  -20.6490  -26.8240   22.3980 C   0  0  0  0  0  2  0  0  0  0  0  0
  -19.5200  -26.5560   21.3980 C   0  0  0  0  0  2  0  0  0  0  0  0
  -18.1560  -26.7010   22.0780 C   0  0  0  0  0  2  0  0  0  0  0  0
  -19.1580  -28.7560   23.2370 C   0  0  0  0  0  0  0  0  0  0  0  0
  -18.9740  -30.0010   23.8750 C   0  0  0  0  0  3  0  0  0  0  0  0
  -17.6830  -30.5180   24.0880 C   0  0  0  0  0  3  0  0  0  0  0  0
  -16.5560  -29.7860   23.6740 C   0  0  0  0  0  3  0  0  0  0  0  0
  -16.7250  -28.5430   23.0380 C   0  0  0  0  0  3  0  0  0  0  0  0
  -25.7970  -32.4580   23.7550 C   0  0  0  0  0  3  0  0  0  0  0  0
  -25.4580  -33.8420   24.1100 N   0  0  0  0  0  0  0  0  0  0  0  0
  -25.7720  -34.9150   23.3710 C   0  0  0  0  0  0  0  0  0  0  0  0
  -26.4500  -34.8430   22.3420 O   0  0  0  0  0  0  0  0  0  0  0  0
  -24.8610  -33.9720   24.9140 H   0  0  0  0  0  0  0  0  0  0  0  0
  -24.0080  -36.6720   23.0310 C   0  0  0  0  0  1  0  0  0  0  0  0
  -25.2500  -36.2830   23.8490 C   0  0  0  0  0  3  0  0  0  0  0  0
  -27.3550  -37.1970   24.7200 C   0  0  0  0  0  1  0  0  0  0  0  0
  -26.2600  -37.3600   23.7670 N   0  0  0  0  0  0  0  0  0  0  0  0
  -25.8330  -38.2680   23.9260 H   0  0  0  0  0  0  0  0  0  0  0  0
  -26.3260  -31.6720   25.0170 C   0  0  1  0  0  0  0  0  0  0  0  0
  -25.2360  -31.3870   26.0760 C   0  0  0  0  0  1  0  0  0  0  0  0
  -26.9420  -30.3190   24.5940 C   0  0  0  0  0  1  0  0  0  0  0  0
  -27.4580  -32.4760   25.7000 C   0  0  0  0  0  1  0  0  0  0  0  0
  -29.5520  -17.7390   21.4080 C   0  0  0  0  0  2  0  0  0  0  0  0
  -30.3980  -16.7660   20.5670 C   0  0  0  0  0  2  0  0  0  0  0  0
  -30.7320  -14.3950   20.1410 C   0  0  0  0  0  0  0  0  0  0  0  0
  -30.3110  -12.3130   18.9070 C   0  0  0  0  0  2  0  0  0  0  0  0
  -29.3040  -12.5930   17.7720 C   0  0  0  0  0  2  0  0  0  0  0  0
  -27.8520  -12.4790   18.2800 C   0  0  0  0  0  2  0  0  0  0  0  0
  -27.6120  -13.2590   19.6010 C   0  0  0  0  0  3  0  0  0  0  0  0
  -28.7230  -12.9490   20.6320 C   0  0  0  0  0  2  0  0  0  0  0  0
  -30.0240  -13.2430   20.0070 N   0  0  0  0  0  0  0  0  0  0  0  0
  -31.7810  -14.6250   19.5310 O   0  0  0  0  0  0  0  0  0  0  0  0
  -30.1300  -15.3570   20.8460 N   0  0  0  0  0  0  0  0  0  0  0  0
  -29.2890  -15.1090   21.3480 H   0  0  0  0  0  0  0  0  0  0  0  0
  -25.2580  -13.8690   20.4580 C   0  0  0  0  0  0  0  0  0  0  0  0
  -24.2050  -13.0940   20.8670 C   0  0  0  0  0  0  0  0  0  0  0  0
  -24.6500  -11.7410   20.7720 C   0  0  0  0  0  0  0  0  0  0  0  0
  -26.2810  -12.9860   20.1450 N   0  0  0  0  0  0  0  0  0  0  0  0
  -25.9190  -11.7000   20.3880 N   0  0  0  0  0  0  0  0  0  0  0  0
  -23.9250  -10.4800   20.9700 C   0  0  0  0  0  0  0  0  0  0  0  0
  -24.3680   -9.5100   21.8960 C   0  0  0  0  0  3  0  0  0  0  0  0
  -23.6430   -8.3130   22.0820 C   0  0  0  0  0  3  0  0  0  0  0  0
  -22.4610   -8.0770   21.3420 C   0  0  0  0  0  0  0  0  0  0  0  0
  -22.0370   -9.0350   20.4020 C   0  0  0  0  0  3  0  0  0  0  0  0
  -22.7630  -10.2230   20.2150 C   0  0  0  0  0  3  0  0  0  0  0  0
  -21.7080   -6.9320   21.4360 O   0  0  0  0  0  0  0  0  0  0  0  0
  -21.6300   -6.2160   22.6040 C   0  0  0  0  0  0  0  0  0  0  0  0
  -21.1540   -6.7930   23.8030 C   0  0  0  0  0  3  0  0  0  0  0  0
  -21.0250   -6.0020   24.9610 C   0  0  0  0  0  3  0  0  0  0  0  0
  -21.3630   -4.6360   24.9240 C   0  0  0  0  0  0  0  0  0  0  0  0
  -21.8310   -4.0590   23.7310 C   0  0  0  0  0  3  0  0  0  0  0  0
  -21.9620   -4.8460   22.5730 C   0  0  0  0  0  0  0  0  0  0  0  0
  -22.3930   -4.2800   21.4200 F   0  0  0  0  0  0  0  0  0  0  0  0
  -21.2320   -3.8740   26.0340 F   0  0  0  0  0  0  0  0  0  0  0  0
  -22.8300  -13.5750   21.2330 C   0  0  0  0  0  0  0  0  0  0  0  0
  -22.1430  -12.8580   22.1150 N   0  0  0  0  0  0  0  0  0  0  0  0
  -22.3730  -14.6210   20.7710 O   0  0  0  0  0  0  0  0  0  0  0  0
  -22.5280  -12.0130   22.5120 H   0  0  0  0  0  0  0  0  0  0  0  0
  -21.2200  -13.1550   22.3950 H   0  0  0  0  0  0  0  0  0  0  0  0
  -25.4230  -15.2410   20.3080 N   0  0  0  0  0  0  0  0  0  0  0  0
  -24.6630  -15.8930   20.4760 H   0  0  0  0  0  0  0  0  0  0  0  0
  -26.2440  -15.6820   19.9140 H   0  0  0  0  0  0  0  0  0  0  0  0
  1  5  1  0
  1  3  1  0
  2  4  1  0
  3  6  1  0
  5  8  1  0
  5  2  1  0
  6 54  1  0
  6  4  1  0
  6  7  1  6
  8  9  1  0
  8 10  1  0
 10 11  1  0
 12 13  1  0
 12 10  1  0
 14 25  2  0
 15 13  1  0
 15 20  1  0
 16 24  1  0
 16 26  1  0
 17 23  1  0
 17 19  1  0
 18 24  1  0
 19 18  1  0
 20 19  2  0
 21 15  2  0
 22 21  1  0
 22 17  2  0
 23 16  1  0
 24 14  1  0
 26 28  2  0
 27 26  1  0
 29 27  1  0
 30 39  2  0
 30 35  1  0
 31 27  1  0
 31 35  1  0
 32 31  1  0
 33 34  1  0
 33 32  1  0
 34 30  1  0
 35 36  2  0
 36 37  1  0
 38 37  2  0
 39 38  1  0
 40 14  1  0
 40 41  1  0
 40 50  1  0
 41 44  1  0
 42 46  1  0
 42 41  1  0
 43 42  2  0
 46 45  1  0
 48 46  1  0
 48 49  1  0
 48 47  1  0
 50 53  1  1
 50 51  1  0
 52 50  1  0
 55 64  1  0
 55 54  1  0
 56 64  1  0
 57 62  1  0
 58 59  1  0
 58 57  1  0
 60 59  1  0
 60 69  1  0
 60 61  1  0
 62 56  1  0
 62 61  1  0
 63 56  2  0
 64 65  1  0
 66 67  2  0
 67 86  1  0
 68 67  1  0
 68 71  1  0
 69 70  1  0
 69 66  1  0
 70 68  2  0
 71 72  1  0
 72 73  2  0
 74 77  1  0
 74 73  1  0
 75 74  2  0
 76 75  1  0
 76 71  2  0
 77 78  1  0
 78 79  1  0
 79 80  2  0
 81 80  1  0
 81 85  1  0
 82 81  2  0
 83 78  2  0
 83 82  1  0
 84 83  1  0
 86 87  1  0
 87 90  1  0
 87 89  1  0
 88 86  2  0
 91 66  1  0
 91 92  1  0
 93 91  1  0
M  ISO  4  12 101  13 101  56 100  64 100
M  END
>  <TORSDO>  (61) 
F 21

>  <SCORE>  (61) 
-12.715

>  <name>  (61) 
62

>  <ligand_id>  (61) 
62

>  <original_smiles>  (61) 
[H]c1c([H])c([H])c2c(c1[H])C([H])([H])C([H])([H])C([H])([H])C2([H])N([H])C(=O)C1([H])N(C(=O)C([H])(N([H])C(=O)C([H])(N([H])C([H])([H])[H])C([H])([H])[H])C(C([H])([H])[H])(C([H])([H])[H])C([H])([H])[H])C([H])([H])c2c([H])c(OC([H])([H])C([H])(F)C([H])(F)C3([H])C([H])([H])C([H])([H])[N+]([H])(C([H])([H])C([H])([H])N([H])C(=O)N4C([H])([H])C([H])([H])C([H])([H])C([H])(n5nc(-c6c([H])c([H])c(Oc7c([H])c([H])c(F)c([H])c7F)c([H])c6[H])c(C(=O)N([H])[H])c5N([H])[H])C4([H])[H])C([H])([H])C3([H])[H])c([H])c([H])c2C1([H])[H]

>  <smiles>  (61) 
[H]c1c([H])c([H])c2c(c1[H])C([H])([H])C([H])([H])C([H])([H])C2([H])N([H])C(=O)C1([H])N(C(=O)C([H])(N([H])C(=O)C([H])(N([H])C([H])([H])[H])C([H])([H])[H])C(C([H])([H])[H])(C([H])([H])[H])C([H])([H])[H])C([H])([H])c2c([H])c(OC([H])([H])C([H])(F)C([H])(F)C3([H])C([H])([H])C([H])([H])[N+]([H])(C([H])([H])C([H])([H])N([H])C(=O)N4C([H])([H])C([H])([H])C([H])([H])C([H])(n5nc(-c6c([H])c([H])c(Oc7c([H])c([H])c(F)c([H])c7F)c([H])c6[H])c(C(=O)N([H])[H])c5N([H])[H])C4([H])[H])C([H])([H])C3([H])[H])c([H])c([H])c2C1([H])[H]

$$$$
63:0:0
     RDKit          3D

 93102  0  0  1  0  0  0  0  0999 V2000
  -29.7990  -20.7760   19.2970 C   0  0  0  0  0  3  0  0  0  0  0  0
  -29.4050  -22.1930   19.1300 C   0  0  0  0  0  3  0  0  0  0  0  0
  -28.6480  -20.6650   21.2610 C   0  0  0  0  0  3  0  0  0  0  0  0
  -29.4870  -19.8470   20.3860 C   0  0  0  0  0  0  0  0  0  0  0  0
  -28.5890  -22.9870   20.0260 C   0  0  0  0  0  0  0  0  0  0  0  0
  -28.2220  -22.0780   21.1000 C   0  0  0  0  0  0  0  0  0  0  0  0
  -27.3690  -22.5580   22.0380 F   0  0  0  0  0  0  0  0  0  0  0  0
  -30.5790  -15.3960   20.6700 C   0  0  0  0  0  0  0  0  0  0  0  0
  -30.6030  -12.9380   19.9220 C   0  0  0  0  0  2  0  0  0  0  0  0
  -29.7620  -12.6120   18.6630 C   0  0  0  0  0  2  0  0  0  0  0  0
  -28.2920  -12.3660   19.0450 C   0  0  0  0  0  2  0  0  0  0  0  0
  -27.7510  -13.4320   20.0290 C   0  0  0  0  0  3  0  0  0  0  0  0
  -28.7130  -13.6750   21.2100 C   0  0  0  0  0  2  0  0  0  0  0  0
  -29.9850  -14.1150   20.6190 N   0  0  0  0  0  0  0  0  0  0  0  0
  -31.8110  -15.3670   20.7680 O   0  0  0  0  0  0  0  0  0  0  0  0
  -31.5320  -18.4630   20.1660 C   0  0  0  0  0  0  0  0  0  0  0  0
  -30.9960  -17.2600   18.0470 C   0  0  0  0  0  2  0  0  0  0  0  0
  -29.8070  -16.5330   18.7410 C   0  0  0  0  0  2  0  0  0  0  0  0
  -30.0800  -18.2280   20.6670 C   0  0  0  0  0  3  0  0  0  0  0  0
  -31.8860  -17.9750   18.9690 N   0  0  0  0  0  0  0  0  0  0  0  0
  -29.8960  -16.6310   20.2310 N   0  0  0  0  0  0  0  0  0  0  0  0
  -32.3560  -19.0360   20.8820 O   0  0  0  0  0  0  0  0  0  0  0  0
  -32.8540  -18.0860   18.6890 H   0  0  0  0  0  0  0  0  0  0  0  0
  -25.3340  -14.0230   20.6000 C   0  0  0  0  0  0  0  0  0  0  0  0
  -24.2440  -13.2540   20.9030 C   0  0  0  0  0  0  0  0  0  0  0  0
  -24.7100  -11.9040   20.9380 C   0  0  0  0  0  0  0  0  0  0  0  0
  -26.3890  -13.1430   20.4580 N   0  0  0  0  0  0  0  0  0  0  0  0
  -26.0210  -11.8660   20.7350 N   0  0  0  0  0  0  0  0  0  0  0  0
  -23.9730  -10.6440   21.0960 C   0  0  0  0  0  0  0  0  0  0  0  0
  -24.3330   -9.6950   22.0770 C   0  0  0  0  0  3  0  0  0  0  0  0
  -23.5950   -8.5000   22.2240 C   0  0  0  0  0  3  0  0  0  0  0  0
  -22.4840   -8.2450   21.3860 C   0  0  0  0  0  0  0  0  0  0  0  0
  -22.1460   -9.1840   20.3950 C   0  0  0  0  0  3  0  0  0  0  0  0
  -22.8830  -10.3700   20.2490 C   0  0  0  0  0  3  0  0  0  0  0  0
  -21.7260   -7.1030   21.4400 O   0  0  0  0  0  0  0  0  0  0  0  0
  -21.5840   -6.3830   22.6010 C   0  0  0  0  0  0  0  0  0  0  0  0
  -21.0480   -6.9590   23.7730 C   0  0  0  0  0  3  0  0  0  0  0  0
  -20.8590   -6.1680   24.9240 C   0  0  0  0  0  3  0  0  0  0  0  0
  -21.1930   -4.8010   24.9020 C   0  0  0  0  0  0  0  0  0  0  0  0
  -21.7180   -4.2230   23.7330 C   0  0  0  0  0  3  0  0  0  0  0  0
  -21.9120   -5.0120   22.5870 C   0  0  0  0  0  0  0  0  0  0  0  0
  -22.4010   -4.4470   21.4560 F   0  0  0  0  0  0  0  0  0  0  0  0
  -21.0040   -4.0370   26.0030 F   0  0  0  0  0  0  0  0  0  0  0  0
  -22.8280  -13.7310   21.0520 C   0  0  0  0  0  0  0  0  0  0  0  0
  -22.0410  -13.0620   21.8880 N   0  0  0  0  0  0  0  0  0  0  0  0
  -22.4280  -14.7350   20.4640 O   0  0  0  0  0  0  0  0  0  0  0  0
  -22.3760  -12.2460   22.3790 H   0  0  0  0  0  0  0  0  0  0  0  0
  -21.0900  -13.3650   22.0380 H   0  0  0  0  0  0  0  0  0  0  0  0
  -25.5140  -15.3900   20.4000 N   0  0  0  0  0  0  0  0  0  0  0  0
  -24.7500  -16.0560   20.4470 H   0  0  0  0  0  0  0  0  0  0  0  0
  -26.4010  -15.8150   20.1560 H   0  0  0  0  0  0  0  0  0  0  0  0
  -27.8440  -24.5060   19.6910 C   0  0  0  0  0  2  0  0  0  0  0  0
  -28.2120  -26.0680   19.8990 O   0  0  0  0  0  0  0  0  0  0  0  0
  -24.5840  -31.8640   23.0360 C   0  0  0  0  0  0  0  0  0  0  0  0
  -27.1940  -27.1440   19.8710 C   0  0  0  0  0  0  0  0  0  0  0  0
  -23.3940  -30.4760   21.3890 C   0  0  0  0  0  3  0  0  0  0  0  0
  -24.8540  -28.9480   19.9090 C   0  0  0  0  0  0  0  0  0  0  0  0
  -25.9510  -30.7580   21.2050 C   0  0  0  0  0  2  0  0  0  0  0  0
  -26.0430  -29.3710   20.5160 C   0  0  0  0  0  0  0  0  0  0  0  0
  -27.2100  -28.4850   20.4850 C   0  0  0  0  0  3  0  0  0  0  0  0
  -25.9700  -26.8670   19.2220 C   0  0  0  0  0  3  0  0  0  0  0  0
  -24.8350  -27.7120   19.2510 C   0  0  0  0  0  3  0  0  0  0  0  0
  -23.6140  -29.8300   19.9960 C   0  0  0  0  0  2  0  0  0  0  0  0
  -24.6660  -31.0550   21.9310 N   0  0  0  0  0  0  0  0  0  0  0  0
  -23.4960  -32.1190   23.5780 O   0  0  0  0  0  0  0  0  0  0  0  0
  -22.7400  -29.4420   22.3380 C   0  0  0  0  0  0  0  0  0  0  0  0
  -21.4140  -29.2540   22.2310 N   0  0  0  0  0  0  0  0  0  0  0  0
  -23.4350  -28.8080   23.1390 O   0  0  0  0  0  0  0  0  0  0  0  0
  -20.9060  -29.8090   21.5580 H   0  0  0  0  0  0  0  0  0  0  0  0
  -18.0610  -27.9900   22.7890 C   0  0  0  0  0  0  0  0  0  0  0  0
  -20.6240  -28.2810   22.9940 C   0  0  0  0  0  3  0  0  0  0  0  0
  -20.7300  -26.8690   22.3710 C   0  0  0  0  0  2  0  0  0  0  0  0
  -19.6050  -26.5650   21.3770 C   0  0  0  0  0  2  0  0  0  0  0  0
  -18.2390  -26.6680   22.0620 C   0  0  0  0  0  2  0  0  0  0  0  0
  -19.1810  -28.7560   23.2120 C   0  0  0  0  0  0  0  0  0  0  0  0
  -18.9590  -29.9920   23.8550 C   0  0  0  0  0  3  0  0  0  0  0  0
  -17.6510  -30.4670   24.0740 C   0  0  0  0  0  3  0  0  0  0  0  0
  -16.5480  -29.6990   23.6650 C   0  0  0  0  0  3  0  0  0  0  0  0
  -16.7540  -28.4610   23.0280 C   0  0  0  0  0  3  0  0  0  0  0  0
  -25.8500  -32.5180   23.6660 C   0  0  0  0  0  3  0  0  0  0  0  0
  -25.5010  -33.8950   24.0540 N   0  0  0  0  0  0  0  0  0  0  0  0
  -25.7900  -34.9910   23.3370 C   0  0  0  0  0  0  0  0  0  0  0  0
  -26.4410  -34.9460   22.2900 O   0  0  0  0  0  0  0  0  0  0  0  0
  -24.9140  -34.0030   24.8690 H   0  0  0  0  0  0  0  0  0  0  0  0
  -24.0140  -36.7560   23.0830 C   0  0  0  0  0  1  0  0  0  0  0  0
  -25.2770  -36.3470   23.8600 C   0  0  0  0  0  3  0  0  0  0  0  0
  -27.4030  -37.2560   24.6940 C   0  0  0  0  0  1  0  0  0  0  0  0
  -26.2830  -37.4280   23.7690 N   0  0  0  0  0  0  0  0  0  0  0  0
  -25.8600  -38.3330   23.9500 H   0  0  0  0  0  0  0  0  0  0  0  0
  -26.4000  -31.7230   24.9160 C   0  0  1  0  0  0  0  0  0  0  0  0
  -25.3270  -31.4290   25.9920 C   0  0  0  0  0  1  0  0  0  0  0  0
  -27.0120  -30.3700   24.4860 C   0  0  0  0  0  1  0  0  0  0  0  0
  -27.5420  -32.5240   25.5830 C   0  0  0  0  0  1  0  0  0  0  0  0
  1  4  1  0
  2  1  2  0
  2  5  1  0
  4  3  2  0
  5  6  2  0
  6  3  1  0
  6  7  1  0
  8 15  2  0
  9 14  1  0
 10 11  1  0
 10  9  1  0
 12 11  1  0
 12 27  1  0
 12 13  1  0
 14  8  1  0
 14 13  1  0
 16 19  1  0
 16 22  2  0
 17 18  1  0
 17 20  1  0
 18 21  1  0
 19  4  1  0
 20 16  1  0
 21 19  1  0
 21  8  1  0
 23 20  1  0
 24 25  2  0
 25 26  1  0
 25 44  1  0
 26 29  1  0
 27 24  1  0
 27 28  1  0
 28 26  2  0
 29 30  1  0
 30 31  2  0
 32 35  1  0
 32 31  1  0
 33 32  2  0
 34 33  1  0
 34 29  2  0
 35 36  1  0
 36 37  1  0
 37 38  2  0
 39 38  1  0
 39 43  1  0
 40 39  2  0
 41 36  2  0
 41 40  1  0
 42 41  1  0
 44 45  1  0
 45 48  1  0
 45 47  1  0
 46 44  2  0
 49 50  1  0
 49 24  1  0
 51 49  1  0
 52 53  1  0
 52  5  1  0
 54 65  2  0
 55 53  1  0
 55 60  1  0
 56 64  1  0
 56 66  1  0
 57 63  1  0
 57 59  1  0
 58 64  1  0
 59 58  1  0
 60 59  2  0
 61 62  1  0
 61 55  2  0
 62 57  2  0
 63 56  1  0
 64 54  1  0
 66 68  2  0
 67 66  1  0
 69 67  1  0
 70 79  2  0
 70 75  1  0
 71 67  1  0
 71 75  1  0
 72 71  1  0
 73 74  1  0
 73 72  1  0
 74 70  1  0
 75 76  2  0
 76 77  1  0
 78 77  2  0
 79 78  1  0
 80 54  1  0
 80 81  1  0
 80 90  1  0
 81 84  1  0
 82 86  1  0
 82 81  1  0
 83 82  2  0
 86 85  1  0
 88 86  1  0
 88 89  1  0
 88 87  1  0
 90 93  1  1
 90 91  1  0
 92 90  1  0
M  ISO  4   8 100  21 100  52 101  53 101
M  END
>  <TORSDO>  (62) 
F 17

>  <SCORE>  (62) 
-15.871

>  <name>  (62) 
63

>  <ligand_id>  (62) 
63

>  <original_smiles>  (62) 
[H]c1c([H])c([H])c2c(c1[H])C([H])([H])C([H])([H])C([H])([H])C2([H])N([H])C(=O)C1([H])N(C(=O)C([H])(N([H])C(=O)C([H])(N([H])C([H])([H])[H])C([H])([H])[H])C(C([H])([H])[H])(C([H])([H])[H])C([H])([H])[H])C([H])([H])c2c([H])c(OC([H])([H])c3c([H])c([H])c(C4([H])C(=O)N([H])C([H])([H])C([H])([H])N4C(=O)N4C([H])([H])C([H])([H])C([H])([H])C([H])(n5nc(-c6c([H])c([H])c(Oc7c([H])c([H])c(F)c([H])c7F)c([H])c6[H])c(C(=O)N([H])[H])c5N([H])[H])C4([H])[H])c([H])c3F)c([H])c([H])c2C1([H])[H]

>  <smiles>  (62) 
[H]c1c([H])c([H])c2c(c1[H])C([H])([H])C([H])([H])C([H])([H])C2([H])N([H])C(=O)C1([H])N(C(=O)C([H])(N([H])C(=O)C([H])(N([H])C([H])([H])[H])C([H])([H])[H])C(C([H])([H])[H])(C([H])([H])[H])C([H])([H])[H])C([H])([H])c2c([H])c(OC([H])([H])c3c([H])c([H])c(C4([H])C(=O)N([H])C([H])([H])C([H])([H])N4C(=O)N4C([H])([H])C([H])([H])C([H])([H])C([H])(n5nc(-c6c([H])c([H])c(Oc7c([H])c([H])c(F)c([H])c7F)c([H])c6[H])c(C(=O)N([H])[H])c5N([H])[H])C4([H])[H])c([H])c3F)c([H])c([H])c2C1([H])[H]

$$$$
64:0:0
     RDKit          3D

 90 98  0  0  1  0  0  0  0  0999 V2000
  -29.1050  -19.6190   20.6580 C   0  0  0  0  0  3  0  0  0  0  0  0
  -29.6880  -21.0470   18.8090 C   0  0  0  0  0  3  0  0  0  0  0  0
  -29.0790  -21.0740   20.0830 C   0  0  0  0  0  0  0  0  0  0  0  0
  -29.6660  -18.2860   20.0650 C   0  0  0  0  0  0  0  0  0  0  0  0
  -30.2340  -19.8740   18.2120 C   0  0  0  0  0  0  0  0  0  0  0  0
  -30.2300  -18.5720   18.7970 C   0  0  0  0  0  0  0  0  0  0  0  0
  -30.7970  -20.0080   16.9870 F   0  0  0  0  0  0  0  0  0  0  0  0
  -30.7580  -17.5560   18.0720 F   0  0  0  0  0  0  0  0  0  0  0  0
  -30.3900  -15.4110   20.2560 C   0  0  0  0  0  0  0  0  0  0  0  0
  -30.4010  -12.9350   19.4200 C   0  0  0  0  0  2  0  0  0  0  0  0
  -29.4910  -12.6980   18.1850 C   0  0  0  0  0  2  0  0  0  0  0  0
  -28.0460  -12.4060   18.6220 C   0  0  0  0  0  2  0  0  0  0  0  0
  -27.5810  -13.3710   19.7410 C   0  0  0  0  0  3  0  0  0  0  0  0
  -28.6230  -13.5510   20.8680 C   0  0  0  0  0  2  0  0  0  0  0  0
  -29.8470  -14.0830   20.2440 N   0  0  0  0  0  0  0  0  0  0  0  0
  -31.5970  -15.4010   19.9690 O   0  0  0  0  0  0  0  0  0  0  0  0
  -29.6390  -16.6950   20.4960 N   0  0  0  0  0  0  0  0  0  0  0  0
  -28.7820  -16.4740   20.9800 H   0  0  0  0  0  0  0  0  0  0  0  0
  -25.2090  -13.9110   20.4920 C   0  0  0  0  0  0  0  0  0  0  0  0
  -24.1510  -13.1280   20.8600 C   0  0  0  0  0  0  0  0  0  0  0  0
  -24.6250  -11.7800   20.8290 C   0  0  0  0  0  0  0  0  0  0  0  0
  -26.2570  -13.0420   20.2480 N   0  0  0  0  0  0  0  0  0  0  0  0
  -25.9180  -11.7530   20.5200 N   0  0  0  0  0  0  0  0  0  0  0  0
  -23.9030  -10.5150   21.0170 C   0  0  0  0  0  0  0  0  0  0  0  0
  -24.3290   -9.5510   21.9590 C   0  0  0  0  0  3  0  0  0  0  0  0
  -23.6030   -8.3540   22.1360 C   0  0  0  0  0  3  0  0  0  0  0  0
  -22.4370   -8.1100   21.3730 C   0  0  0  0  0  0  0  0  0  0  0  0
  -22.0300   -9.0610   20.4210 C   0  0  0  0  0  3  0  0  0  0  0  0
  -22.7570  -10.2500   20.2410 C   0  0  0  0  0  3  0  0  0  0  0  0
  -21.6840   -6.9640   21.4590 O   0  0  0  0  0  0  0  0  0  0  0  0
  -21.6170   -6.2320   22.6180 C   0  0  0  0  0  0  0  0  0  0  0  0
  -21.1570   -6.7940   23.8290 C   0  0  0  0  0  3  0  0  0  0  0  0
  -21.0390   -5.9870   24.9780 C   0  0  0  0  0  3  0  0  0  0  0  0
  -21.3690   -4.6210   24.9180 C   0  0  0  0  0  0  0  0  0  0  0  0
  -21.8230   -4.0580   23.7120 C   0  0  0  0  0  3  0  0  0  0  0  0
  -21.9420   -4.8620   22.5640 C   0  0  0  0  0  0  0  0  0  0  0  0
  -22.3590   -4.3100   21.3990 F   0  0  0  0  0  0  0  0  0  0  0  0
  -21.2490   -3.8440   26.0210 F   0  0  0  0  0  0  0  0  0  0  0  0
  -22.7520  -13.5980   21.1230 C   0  0  0  0  0  0  0  0  0  0  0  0
  -22.0210  -12.8980   21.9830 N   0  0  0  0  0  0  0  0  0  0  0  0
  -22.3160  -14.6260   20.6040 O   0  0  0  0  0  0  0  0  0  0  0  0
  -22.3880  -12.0680   22.4250 H   0  0  0  0  0  0  0  0  0  0  0  0
  -21.0810  -13.1960   22.2020 H   0  0  0  0  0  0  0  0  0  0  0  0
  -25.3650  -15.2820   20.3140 N   0  0  0  0  0  0  0  0  0  0  0  0
  -24.5910  -15.9300   20.4210 H   0  0  0  0  0  0  0  0  0  0  0  0
  -26.2020  -15.7240   19.9560 H   0  0  0  0  0  0  0  0  0  0  0  0
  -28.6200  -22.6620   20.6610 C   0  0  0  0  0  0  0  0  0  0  0  0
  -28.5880  -22.7480   21.8920 O   0  0  0  0  0  0  0  0  0  0  0  0
  -28.1340  -24.1910   19.8770 C   0  0  0  0  0  2  0  0  0  0  0  0
  -28.1760  -25.7890   20.4010 O   0  0  0  0  0  0  0  0  0  0  0  0
  -24.6120  -31.8620   23.2320 C   0  0  0  0  0  0  0  0  0  0  0  0
  -27.1880  -26.9210   20.2640 C   0  0  0  0  0  0  0  0  0  0  0  0
  -23.4330  -30.4570   21.5900 C   0  0  0  0  0  3  0  0  0  0  0  0
  -24.8950  -28.8380   20.1840 C   0  0  0  0  0  0  0  0  0  0  0  0
  -26.0020  -30.6500   21.4730 C   0  0  0  0  0  2  0  0  0  0  0  0
  -26.0760  -29.2330   20.8220 C   0  0  0  0  0  0  0  0  0  0  0  0
  -27.2110  -28.2940   20.8410 C   0  0  0  0  0  3  0  0  0  0  0  0
  -25.9800  -26.6980   19.5610 C   0  0  0  0  0  3  0  0  0  0  0  0
  -24.8760  -27.5930   19.5320 C   0  0  0  0  0  3  0  0  0  0  0  0
  -23.6760  -29.7640   20.2190 C   0  0  0  0  0  2  0  0  0  0  0  0
  -24.7050  -31.0190   22.1520 N   0  0  0  0  0  0  0  0  0  0  0  0
  -23.5170  -32.1570   23.7410 O   0  0  0  0  0  0  0  0  0  0  0  0
  -22.7260  -29.4710   22.5570 C   0  0  0  0  0  0  0  0  0  0  0  0
  -21.3950  -29.3160   22.4300 N   0  0  0  0  0  0  0  0  0  0  0  0
  -23.3830  -28.8450   23.3920 O   0  0  0  0  0  0  0  0  0  0  0  0
  -20.9160  -29.8710   21.7340 H   0  0  0  0  0  0  0  0  0  0  0  0
  -18.0020  -28.1310   22.9410 C   0  0  0  0  0  0  0  0  0  0  0  0
  -20.5640  -28.3840   23.2010 C   0  0  0  0  0  3  0  0  0  0  0  0
  -20.6560  -26.9510   22.6250 C   0  0  0  0  0  2  0  0  0  0  0  0
  -19.5500  -26.6360   21.6110 C   0  0  0  0  0  2  0  0  0  0  0  0
  -18.1710  -26.7850   22.2580 C   0  0  0  0  0  2  0  0  0  0  0  0
  -19.1250  -28.8900   23.3690 C   0  0  0  0  0  0  0  0  0  0  0  0
  -18.9100  -30.1480   23.9720 C   0  0  0  0  0  3  0  0  0  0  0  0
  -17.6070  -30.6490   24.1490 C   0  0  0  0  0  3  0  0  0  0  0  0
  -16.4990  -29.8900   23.7330 C   0  0  0  0  0  3  0  0  0  0  0  0
  -16.6980  -28.6330   23.1360 C   0  0  0  0  0  3  0  0  0  0  0  0
  -25.8760  -32.5100   23.8740 C   0  0  0  0  0  3  0  0  0  0  0  0
  -25.5590  -33.9170   24.1850 N   0  0  0  0  0  0  0  0  0  0  0  0
  -25.9070  -34.9690   23.4310 C   0  0  0  0  0  0  0  0  0  0  0  0
  -26.5900  -34.8580   22.4100 O   0  0  0  0  0  0  0  0  0  0  0  0
  -24.9530  -34.0760   24.9750 H   0  0  0  0  0  0  0  0  0  0  0  0
  -24.1950  -36.7790   23.0560 C   0  0  0  0  0  1  0  0  0  0  0  0
  -25.4260  -36.3650   23.8790 C   0  0  0  0  0  3  0  0  0  0  0  0
  -27.5550  -37.2460   24.7310 C   0  0  0  0  0  1  0  0  0  0  0  0
  -26.4660  -37.4120   23.7720 N   0  0  0  0  0  0  0  0  0  0  0  0
  -26.0630  -38.3350   23.9060 H   0  0  0  0  0  0  0  0  0  0  0  0
  -26.3580  -31.7650   25.1800 C   0  0  1  0  0  0  0  0  0  0  0  0
  -25.2400  -31.5600   26.2300 C   0  0  0  0  0  1  0  0  0  0  0  0
  -26.9400  -30.3740   24.8420 C   0  0  0  0  0  1  0  0  0  0  0  0
  -27.4990  -32.5660   25.8490 C   0  0  0  0  0  1  0  0  0  0  0  0
  2  3  2  0
  3  1  1  0
  3 47  1  0
  4 17  1  0
  4  1  2  0
  5  6  2  0
  5  2  1  0
  6  4  1  0
  7  5  1  0
  8  6  1  0
  9 17  1  0
 10 15  1  0
 11 12  1  0
 11 10  1  0
 13 12  1  0
 13 22  1  0
 13 14  1  0
 15  9  1  0
 15 14  1  0
 16  9  2  0
 17 18  1  0
 19 20  2  0
 20 39  1  0
 21 20  1  0
 21 24  1  0
 22 19  1  0
 22 23  1  0
 23 21  2  0
 24 25  1  0
 25 26  2  0
 27 30  1  0
 27 26  1  0
 28 27  2  0
 29 28  1  0
 29 24  2  0
 30 31  1  0
 31 32  1  0
 32 33  2  0
 34 33  1  0
 34 38  1  0
 35 34  2  0
 36 31  2  0
 36 35  1  0
 37 36  1  0
 39 40  1  0
 40 43  1  0
 40 42  1  0
 41 39  2  0
 44 45  1  0
 44 19  1  0
 46 44  1  0
 47 48  2  0
 49 50  1  0
 49 47  1  0
 51 62  2  0
 52 50  1  0
 52 57  1  0
 53 61  1  0
 53 63  1  0
 54 60  1  0
 54 56  1  0
 55 61  1  0
 56 57  2  0
 56 55  1  0
 58 52  2  0
 59 58  1  0
 59 54  2  0
 60 53  1  0
 61 51  1  0
 63 65  2  0
 64 63  1  0
 66 64  1  0
 67 76  2  0
 67 72  1  0
 68 64  1  0
 68 72  1  0
 69 68  1  0
 70 71  1  0
 70 69  1  0
 71 67  1  0
 72 73  2  0
 73 74  1  0
 75 74  2  0
 76 75  1  0
 77 51  1  0
 77 78  1  0
 77 87  1  0
 78 81  1  0
 79 83  1  0
 79 78  1  0
 80 79  2  0
 83 82  1  0
 85 83  1  0
 85 86  1  0
 85 84  1  0
 87 90  1  1
 87 88  1  0
 89 87  1  0
M  ISO  4   9 100  17 100  49 101  50 101
M  END
>  <TORSDO>  (63) 
F 18

>  <SCORE>  (63) 
-16.276

>  <name>  (63) 
64

>  <ligand_id>  (63) 
64

>  <original_smiles>  (63) 
[H]c1c([H])c([H])c2c(c1[H])C([H])([H])C([H])([H])C([H])([H])C2([H])N([H])C(=O)C1([H])N(C(=O)C([H])(N([H])C(=O)C([H])(N([H])C([H])([H])[H])C([H])([H])[H])C(C([H])([H])[H])(C([H])([H])[H])C([H])([H])[H])C([H])([H])c2c([H])c(OC([H])([H])C(=O)c3c([H])c(F)c(F)c(N([H])C(=O)N4C([H])([H])C([H])([H])C([H])([H])C([H])(n5nc(-c6c([H])c([H])c(Oc7c([H])c([H])c(F)c([H])c7F)c([H])c6[H])c(C(=O)N([H])[H])c5N([H])[H])C4([H])[H])c3[H])c([H])c([H])c2C1([H])[H]

>  <smiles>  (63) 
[H]c1c([H])c([H])c2c(c1[H])C([H])([H])C([H])([H])C([H])([H])C2([H])N([H])C(=O)C1([H])N(C(=O)C([H])(N([H])C(=O)C([H])(N([H])C([H])([H])[H])C([H])([H])[H])C(C([H])([H])[H])(C([H])([H])[H])C([H])([H])[H])C([H])([H])c2c([H])c(OC([H])([H])C(=O)c3c([H])c(F)c(F)c(N([H])C(=O)N4C([H])([H])C([H])([H])C([H])([H])C([H])(n5nc(-c6c([H])c([H])c(Oc7c([H])c([H])c(F)c([H])c7F)c([H])c6[H])c(C(=O)N([H])[H])c5N([H])[H])C4([H])[H])c3[H])c([H])c([H])c2C1([H])[H]

$$$$
65:0:0
     RDKit          3D

 94102  0  0  1  0  0  0  0  0999 V2000
  -28.6070  -21.6700   19.7420 C   0  0  0  0  0  2  0  0  0  0  0  0
  -28.4290  -24.1410   19.9300 C   0  0  0  0  0  0  0  0  0  0  0  0
  -28.7100  -22.9390   20.5000 N   0  0  0  0  0  0  0  0  0  0  0  0
  -28.2620  -24.2370   18.7110 O   0  0  0  0  0  0  0  0  0  0  0  0
  -28.8600  -22.8970   21.5000 H   0  0  0  0  0  0  0  0  0  0  0  0
  -28.2690  -25.4080   20.8150 C   0  0  0  0  0  2  0  0  0  0  0  0
  -28.2740  -26.6440   20.0500 O   0  0  0  0  0  0  0  0  0  0  0  0
  -24.5630  -31.8650   23.2130 C   0  0  0  0  0  0  0  0  0  0  0  0
  -27.1160  -27.4010   20.0800 C   0  0  0  0  0  0  0  0  0  0  0  0
  -23.3160  -30.4820   21.5840 C   0  0  0  0  0  3  0  0  0  0  0  0
  -24.7340  -28.9380   20.1250 C   0  0  0  0  0  0  0  0  0  0  0  0
  -25.8400  -30.8230   21.3380 C   0  0  0  0  0  2  0  0  0  0  0  0
  -25.9070  -29.4520   20.6920 C   0  0  0  0  0  0  0  0  0  0  0  0
  -27.1040  -28.6950   20.6580 C   0  0  0  0  0  3  0  0  0  0  0  0
  -25.9270  -26.9050   19.5060 C   0  0  0  0  0  3  0  0  0  0  0  0
  -24.7410  -27.6660   19.5250 C   0  0  0  0  0  3  0  0  0  0  0  0
  -23.4970  -29.8060   20.1980 C   0  0  0  0  0  2  0  0  0  0  0  0
  -24.5930  -31.0720   22.1050 N   0  0  0  0  0  0  0  0  0  0  0  0
  -23.4940  -32.1410   23.7750 O   0  0  0  0  0  0  0  0  0  0  0  0
  -22.6740  -29.4620   22.5520 C   0  0  0  0  0  0  0  0  0  0  0  0
  -21.3470  -29.2830   22.4420 N   0  0  0  0  0  0  0  0  0  0  0  0
  -23.3660  -28.8340   23.3570 O   0  0  0  0  0  0  0  0  0  0  0  0
  -20.8490  -29.8410   21.7630 H   0  0  0  0  0  0  0  0  0  0  0  0
  -17.9810  -28.0740   22.9590 C   0  0  0  0  0  0  0  0  0  0  0  0
  -20.5400  -28.3440   23.2180 C   0  0  0  0  0  3  0  0  0  0  0  0
  -20.6460  -26.9110   22.6440 C   0  0  0  0  0  2  0  0  0  0  0  0
  -19.5400  -26.5820   21.6360 C   0  0  0  0  0  2  0  0  0  0  0  0
  -18.1610  -26.7230   22.2860 C   0  0  0  0  0  2  0  0  0  0  0  0
  -19.0990  -28.8420   23.3810 C   0  0  0  0  0  0  0  0  0  0  0  0
  -18.8770  -30.1070   23.9680 C   0  0  0  0  0  3  0  0  0  0  0  0
  -17.5710  -30.6030   24.1380 C   0  0  0  0  0  3  0  0  0  0  0  0
  -16.4680  -29.8320   23.7310 C   0  0  0  0  0  3  0  0  0  0  0  0
  -16.6740  -28.5690   23.1470 C   0  0  0  0  0  3  0  0  0  0  0  0
  -25.8640  -32.4820   23.8140 C   0  0  0  0  0  3  0  0  0  0  0  0
  -25.5750  -33.8820   24.1540 N   0  0  0  0  0  0  0  0  0  0  0  0
  -25.9210  -34.9340   23.4010 C   0  0  0  0  0  0  0  0  0  0  0  0
  -26.5870  -34.8280   22.3670 O   0  0  0  0  0  0  0  0  0  0  0  0
  -24.9850  -34.0400   24.9580 H   0  0  0  0  0  0  0  0  0  0  0  0
  -24.2220  -36.7550   23.0530 C   0  0  0  0  0  1  0  0  0  0  0  0
  -25.4520  -36.3260   23.8680 C   0  0  0  0  0  3  0  0  0  0  0  0
  -27.5960  -37.1710   24.7160 C   0  0  0  0  0  1  0  0  0  0  0  0
  -26.5020  -37.3640   23.7680 N   0  0  0  0  0  0  0  0  0  0  0  0
  -26.1090  -38.2890   23.9200 H   0  0  0  0  0  0  0  0  0  0  0  0
  -26.3980  -31.7000   25.0760 C   0  0  1  0  0  0  0  0  0  0  0  0
  -25.3240  -31.4710   26.1650 C   0  0  0  0  0  1  0  0  0  0  0  0
  -26.9570  -30.3190   24.6640 C   0  0  0  0  0  1  0  0  0  0  0  0
  -27.5720  -32.4790   25.7180 C   0  0  0  0  0  1  0  0  0  0  0  0
  -28.8330  -20.2750   20.4590 C   0  0  0  0  0  2  0  0  0  0  0  0
  -28.7150  -19.1380   19.4720 N   0  0  1  0  0  4  0  0  0  0  0  0
  -29.4810  -19.3250   18.8410 H   0  0  0  0  0  0  0  0  0  0  0  0
  -30.9610  -14.6470   20.7900 C   0  0  0  0  0  0  0  0  0  0  0  0
  -30.8190  -12.3000   20.0330 C   0  0  0  0  0  2  0  0  0  0  0  0
  -30.0040  -12.2290   18.7210 C   0  0  0  0  0  2  0  0  0  0  0  0
  -28.4770  -12.2550   18.9840 C   0  0  0  0  0  2  0  0  0  0  0  0
  -28.0100  -13.2290   20.1060 C   0  0  0  0  0  3  0  0  0  0  0  0
  -28.9650  -13.2000   21.3200 C   0  0  0  0  0  2  0  0  0  0  0  0
  -30.3260  -13.4380   20.8200 N   0  0  0  0  0  0  0  0  0  0  0  0
  -32.1900  -14.7510   20.7790 O   0  0  0  0  0  0  0  0  0  0  0  0
  -29.0660  -16.8630   18.5500 C   0  0  0  0  0  2  0  0  0  0  0  0
  -30.0350  -15.7370   18.8560 C   0  0  0  0  0  2  0  0  0  0  0  0
  -30.1720  -17.1330   20.6590 C   0  0  0  0  0  2  0  0  0  0  0  0
  -28.9580  -17.6850   19.8360 C   0  0  0  0  0  3  0  0  0  0  0  0
  -30.1860  -15.6770   20.3130 N   0  0  0  0  0  0  0  0  0  0  0  0
  -25.5870  -13.9160   20.6100 C   0  0  0  0  0  0  0  0  0  0  0  0
  -24.4700  -13.1810   20.9000 C   0  0  0  0  0  0  0  0  0  0  0  0
  -24.8960  -11.8190   20.9430 C   0  0  0  0  0  0  0  0  0  0  0  0
  -26.6210  -13.0010   20.4890 N   0  0  0  0  0  0  0  0  0  0  0  0
  -26.2060  -11.7380   20.7570 N   0  0  0  0  0  0  0  0  0  0  0  0
  -24.1240  -10.5790   21.0930 C   0  0  0  0  0  0  0  0  0  0  0  0
  -24.4870   -9.5960   22.0390 C   0  0  0  0  0  3  0  0  0  0  0  0
  -23.7190   -8.4200   22.1790 C   0  0  0  0  0  3  0  0  0  0  0  0
  -22.5740   -8.2220   21.3700 C   0  0  0  0  0  0  0  0  0  0  0  0
  -22.2320   -9.1930   20.4130 C   0  0  0  0  0  3  0  0  0  0  0  0
  -23.0000  -10.3590   20.2720 C   0  0  0  0  0  3  0  0  0  0  0  0
  -21.7820   -7.1000   21.4190 O   0  0  0  0  0  0  0  0  0  0  0  0
  -21.6870   -6.3360   22.5540 C   0  0  0  0  0  0  0  0  0  0  0  0
  -21.2570   -6.8780   23.7840 C   0  0  0  0  0  3  0  0  0  0  0  0
  -21.1080   -6.0420   24.9080 C   0  0  0  0  0  3  0  0  0  0  0  0
  -21.3770   -4.6650   24.8040 C   0  0  0  0  0  0  0  0  0  0  0  0
  -21.7990   -4.1210   23.5780 C   0  0  0  0  0  3  0  0  0  0  0  0
  -21.9520   -4.9540   22.4560 C   0  0  0  0  0  0  0  0  0  0  0  0
  -22.3390   -4.4220   21.2710 F   0  0  0  0  0  0  0  0  0  0  0  0
  -21.2250   -3.8600   25.8810 F   0  0  0  0  0  0  0  0  0  0  0  0
  -23.0670  -13.6990   21.0300 C   0  0  0  0  0  0  0  0  0  0  0  0
  -22.2510  -13.0570   21.8580 N   0  0  0  0  0  0  0  0  0  0  0  0
  -22.7000  -14.7100   20.4320 O   0  0  0  0  0  0  0  0  0  0  0  0
  -22.5560  -12.2410   22.3670 H   0  0  0  0  0  0  0  0  0  0  0  0
  -21.3060  -13.3880   21.9880 H   0  0  0  0  0  0  0  0  0  0  0  0
  -25.8030  -15.2770   20.4140 N   0  0  0  0  0  0  0  0  0  0  0  0
  -25.0490  -15.9540   20.4480 H   0  0  0  0  0  0  0  0  0  0  0  0
  -26.6870  -15.6710   20.1330 H   0  0  0  0  0  0  0  0  0  0  0  0
  -27.4840  -19.2300   18.6100 C   0  0  0  0  0  2  0  0  0  0  0  0
  -24.9360  -19.0400   18.4600 C   0  0  0  0  0  1  0  0  0  0  0  0
  -26.1470  -19.1890   19.3880 C   0  0  0  0  0  2  0  0  0  0  0  0
  1 48  1  0
  1  3  1  0
  2  3  1  0
  2  6  1  0
  3  5  1  0
  4  2  2  0
  7  9  1  0
  7  6  1  0
  8 19  2  0
  9 14  1  0
 10 18  1  0
 10 20  1  0
 11 17  1  0
 11 13  1  0
 12 18  1  0
 13 12  1  0
 14 13  2  0
 15 16  1  0
 15  9  2  0
 16 11  2  0
 17 10  1  0
 18  8  1  0
 20 22  2  0
 21 20  1  0
 23 21  1  0
 24 33  2  0
 24 29  1  0
 25 21  1  0
 25 29  1  0
 26 25  1  0
 27 28  1  0
 27 26  1  0
 28 24  1  0
 29 30  2  0
 30 31  1  0
 32 31  2  0
 33 32  1  0
 34  8  1  0
 34 35  1  0
 34 44  1  0
 35 38  1  0
 36 40  1  0
 36 35  1  0
 37 36  2  0
 40 39  1  0
 42 40  1  0
 42 43  1  0
 42 41  1  0
 44 47  1  1
 44 45  1  0
 46 44  1  0
 49 48  1  0
 49 50  1  6
 51 57  1  0
 52 57  1  0
 53 54  1  0
 53 52  1  0
 55 54  1  0
 55 67  1  0
 55 56  1  0
 57 56  1  0
 58 51  2  0
 59 60  1  0
 59 62  1  0
 60 63  1  0
 62 49  1  0
 62 61  1  0
 63 61  1  0
 63 51  1  0
 64 65  2  0
 65 66  1  0
 65 84  1  0
 66 69  1  0
 67 64  1  0
 67 68  1  0
 68 66  2  0
 69 70  1  0
 70 71  2  0
 72 75  1  0
 72 71  1  0
 73 72  2  0
 74 73  1  0
 74 69  2  0
 75 76  1  0
 76 77  1  0
 77 78  2  0
 79 78  1  0
 79 83  1  0
 80 79  2  0
 81 76  2  0
 81 80  1  0
 82 81  1  0
 84 85  1  0
 85 88  1  0
 85 87  1  0
 86 84  2  0
 89 90  1  0
 89 64  1  0
 91 89  1  0
 92 94  1  0
 92 49  1  0
 93 94  1  0
M  ISO  4   6 101   7 101  51 100  63 100
M  END
>  <TORSDO>  (64) 
F 22

>  <SCORE>  (64) 
-11.364

>  <name>  (64) 
65

>  <ligand_id>  (64) 
65

>  <original_smiles>  (64) 
[H]c1c([H])c([H])c2c(c1[H])C([H])([H])C([H])([H])C([H])([H])C2([H])N([H])C(=O)C1([H])N(C(=O)C([H])(N([H])C(=O)C([H])(N([H])C([H])([H])[H])C([H])([H])[H])C(C([H])([H])[H])(C([H])([H])[H])C([H])([H])[H])C([H])([H])c2c([H])c(OC([H])([H])C(=O)N([H])C([H])([H])C([H])([H])[N+]([H])(C([H])([H])C([H])([H])C([H])([H])[H])C3([H])C([H])([H])N(C(=O)N4C([H])([H])C([H])([H])C([H])([H])C([H])(n5nc(-c6c([H])c([H])c(Oc7c([H])c([H])c(F)c([H])c7F)c([H])c6[H])c(C(=O)N([H])[H])c5N([H])[H])C4([H])[H])C([H])([H])C3([H])[H])c([H])c([H])c2C1([H])[H]

>  <smiles>  (64) 
[H]c1c([H])c([H])c2c(c1[H])C([H])([H])C([H])([H])C([H])([H])C2([H])N([H])C(=O)C1([H])N(C(=O)C([H])(N([H])C(=O)C([H])(N([H])C([H])([H])[H])C([H])([H])[H])C(C([H])([H])[H])(C([H])([H])[H])C([H])([H])[H])C([H])([H])c2c([H])c(OC([H])([H])C(=O)N([H])C([H])([H])C([H])([H])[N+]([H])(C([H])([H])C([H])([H])C([H])([H])[H])C3([H])C([H])([H])N(C(=O)N4C([H])([H])C([H])([H])C([H])([H])C([H])(n5nc(-c6c([H])c([H])c(Oc7c([H])c([H])c(F)c([H])c7F)c([H])c6[H])c(C(=O)N([H])[H])c5N([H])[H])C4([H])[H])C([H])([H])C3([H])[H])c([H])c([H])c2C1([H])[H]

$$$$
66:0:0
     RDKit          3D

 97106  0  0  1  0  0  0  0  0999 V2000
  -23.7720  -22.3610   19.0450 C   0  0  0  0  0  2  0  0  0  0  0  0
  -24.6610  -21.2320   19.5570 C   0  0  0  0  0  2  0  0  0  0  0  0
  -24.6360  -23.6180   19.2020 C   0  0  0  0  0  2  0  0  0  0  0  0
  -26.0620  -21.6900   19.1410 C   0  0  0  0  0  3  0  0  0  0  0  0
  -26.0510  -23.1640   19.2830 N   0  0  1  0  0  4  0  0  0  0  0  0
  -26.3510  -23.4020   20.2200 H   0  0  0  0  0  0  0  0  0  0  0  0
  -27.2070  -21.0280   19.9400 C   0  0  0  0  0  2  0  0  0  0  0  0
  -27.4120  -19.5580   19.5420 C   0  0  0  0  0  2  0  0  0  0  0  0
  -28.4260  -18.8710   20.3780 N   0  0  0  0  0  4  0  0  0  0  0  0
  -29.1790  -19.5040   20.5950 H   0  0  0  0  0  0  0  0  0  0  0  0
  -27.9840  -18.5990   21.2420 H   0  0  0  0  0  0  0  0  0  0  0  0
  -31.2610  -14.8000   19.9720 C   0  0  0  0  0  0  0  0  0  0  0  0
  -30.9010  -12.5720   19.0160 C   0  0  0  0  0  2  0  0  0  0  0  0
  -29.9490  -12.7210   17.8110 C   0  0  0  0  0  2  0  0  0  0  0  0
  -28.4760  -12.6550   18.2650 C   0  0  0  0  0  2  0  0  0  0  0  0
  -28.1720  -13.5820   19.4730 C   0  0  0  0  0  3  0  0  0  0  0  0
  -29.2430  -13.4070   20.5780 C   0  0  0  0  0  2  0  0  0  0  0  0
  -30.5600  -13.6360   19.9670 N   0  0  0  0  0  0  0  0  0  0  0  0
  -32.4520  -14.8540   19.6530 O   0  0  0  0  0  0  0  0  0  0  0  0
  -29.9990  -17.9710   18.6190 C   0  0  0  0  0  2  0  0  0  0  0  0
  -30.7010  -16.6270   18.4390 C   0  0  0  0  0  2  0  0  0  0  0  0
  -29.7670  -16.7170   20.6360 C   0  0  0  0  0  2  0  0  0  0  0  0
  -28.9920  -17.6720   19.7230 C   0  0  0  0  0  3  0  0  0  0  0  0
  -30.4910  -15.8720   19.6830 N   0  0  0  0  0  0  0  0  0  0  0  0
  -25.8170  -14.2940   20.2330 C   0  0  0  0  0  0  0  0  0  0  0  0
  -24.7260  -13.5680   20.6310 C   0  0  0  0  0  0  0  0  0  0  0  0
  -25.1270  -12.1990   20.5860 C   0  0  0  0  0  0  0  0  0  0  0  0
  -26.8190  -13.3690   19.9810 N   0  0  0  0  0  0  0  0  0  0  0  0
  -26.4070  -12.1040   20.2500 N   0  0  0  0  0  0  0  0  0  0  0  0
  -24.3500  -10.9690   20.7840 C   0  0  0  0  0  0  0  0  0  0  0  0
  -24.7280  -10.0040   21.7430 C   0  0  0  0  0  3  0  0  0  0  0  0
  -23.9540   -8.8390   21.9270 C   0  0  0  0  0  3  0  0  0  0  0  0
  -22.7880   -8.6310   21.1540 C   0  0  0  0  0  0  0  0  0  0  0  0
  -22.4290   -9.5850   20.1850 C   0  0  0  0  0  3  0  0  0  0  0  0
  -23.2030  -10.7420   19.9980 C   0  0  0  0  0  3  0  0  0  0  0  0
  -21.9880   -7.5180   21.2500 O   0  0  0  0  0  0  0  0  0  0  0  0
  -21.8440   -6.8360   22.4320 C   0  0  0  0  0  0  0  0  0  0  0  0
  -21.3750   -7.4660   23.6040 C   0  0  0  0  0  3  0  0  0  0  0  0
  -21.1740   -6.7110   24.7770 C   0  0  0  0  0  3  0  0  0  0  0  0
  -21.4340   -5.3280   24.7780 C   0  0  0  0  0  0  0  0  0  0  0  0
  -21.8970   -4.6970   23.6100 C   0  0  0  0  0  3  0  0  0  0  0  0
  -22.0990   -5.4490   22.4400 C   0  0  0  0  0  0  0  0  0  0  0  0
  -22.5250   -4.8320   21.3110 F   0  0  0  0  0  0  0  0  0  0  0  0
  -21.2340   -4.6000   25.9030 F   0  0  0  0  0  0  0  0  0  0  0  0
  -23.3560  -14.1080   20.9290 C   0  0  0  0  0  0  0  0  0  0  0  0
  -22.6240  -13.4570   21.8260 N   0  0  0  0  0  0  0  0  0  0  0  0
  -22.9480  -15.1420   20.4030 O   0  0  0  0  0  0  0  0  0  0  0  0
  -22.9650  -12.6190   22.2730 H   0  0  0  0  0  0  0  0  0  0  0  0
  -21.7070  -13.8020   22.0700 H   0  0  0  0  0  0  0  0  0  0  0  0
  -26.0250  -15.6540   20.0350 N   0  0  0  0  0  0  0  0  0  0  0  0
  -25.2010  -16.2460   20.0230 H   0  0  0  0  0  0  0  0  0  0  0  0
  -26.7060  -15.9250   19.3400 H   0  0  0  0  0  0  0  0  0  0  0  0
  -27.0070  -23.8840   18.3990 C   0  0  0  0  0  2  0  0  0  0  0  0
  -28.0100  -24.7200   19.2250 C   0  0  0  0  0  3  0  0  0  0  0  0
  -27.4710  -24.9930   20.4190 F   0  0  0  0  0  0  0  0  0  0  0  0
  -28.4810  -26.0080   18.4980 C   0  0  0  0  0  2  0  0  0  0  0  0
  -28.4370  -27.1840   19.3130 O   0  0  0  0  0  0  0  0  0  0  0  0
  -24.7310  -31.6840   23.3630 C   0  0  0  0  0  0  0  0  0  0  0  0
  -27.2370  -27.8550   19.4630 C   0  0  0  0  0  0  0  0  0  0  0  0
  -23.4480  -30.5570   21.5760 C   0  0  0  0  0  3  0  0  0  0  0  0
  -24.8300  -29.2930   19.8500 C   0  0  0  0  0  0  0  0  0  0  0  0
  -25.9590  -30.9700   21.3200 C   0  0  0  0  0  2  0  0  0  0  0  0
  -26.0130  -29.7250   20.4640 C   0  0  0  0  0  0  0  0  0  0  0  0
  -27.2130  -29.0050   20.2800 C   0  0  0  0  0  3  0  0  0  0  0  0
  -26.0320  -27.4430   18.8470 C   0  0  0  0  0  3  0  0  0  0  0  0
  -24.8300  -28.1440   19.0470 C   0  0  0  0  0  3  0  0  0  0  0  0
  -23.5850  -30.1130   20.0960 C   0  0  0  0  0  2  0  0  0  0  0  0
  -24.7330  -31.0740   22.1460 N   0  0  0  0  0  0  0  0  0  0  0  0
  -23.6780  -31.8530   23.9930 O   0  0  0  0  0  0  0  0  0  0  0  0
  -22.8530  -29.3830   22.3850 C   0  0  0  0  0  0  0  0  0  0  0  0
  -21.5360  -29.1680   22.2400 N   0  0  0  0  0  0  0  0  0  0  0  0
  -23.5710  -28.6740   23.0940 O   0  0  0  0  0  0  0  0  0  0  0  0
  -21.0150  -29.7930   21.6400 H   0  0  0  0  0  0  0  0  0  0  0  0
  -18.2380  -27.7190   22.5080 C   0  0  0  0  0  0  0  0  0  0  0  0
  -20.7680  -28.0950   22.8710 C   0  0  0  0  0  3  0  0  0  0  0  0
  -20.9740  -26.7550   22.1250 C   0  0  0  0  0  2  0  0  0  0  0  0
  -19.9070  -26.4930   21.0580 C   0  0  0  0  0  2  0  0  0  0  0  0
  -18.5140  -26.4670   21.6950 C   0  0  0  0  0  2  0  0  0  0  0  0
  -19.2980  -28.4930   23.0490 C   0  0  0  0  0  0  0  0  0  0  0  0
  -18.9930  -29.6700   23.7650 C   0  0  0  0  0  3  0  0  0  0  0  0
  -17.6560  -30.0730   23.9500 C   0  0  0  0  0  3  0  0  0  0  0  0
  -16.6100  -29.2920   23.4280 C   0  0  0  0  0  3  0  0  0  0  0  0
  -16.9010  -28.1170   22.7130 C   0  0  0  0  0  3  0  0  0  0  0  0
  -26.0450  -32.2200   24.0100 C   0  0  0  0  0  3  0  0  0  0  0  0
  -25.7860  -33.5920   24.4610 N   0  0  0  0  0  0  0  0  0  0  0  0
  -26.1510  -34.6950   23.7930 C   0  0  0  0  0  0  0  0  0  0  0  0
  -26.8160  -34.6590   22.7530 O   0  0  0  0  0  0  0  0  0  0  0  0
  -25.1970  -33.6960   25.2750 H   0  0  0  0  0  0  0  0  0  0  0  0
  -24.4830  -36.5650   23.6000 C   0  0  0  0  0  1  0  0  0  0  0  0
  -25.7100  -36.0530   24.3710 C   0  0  0  0  0  3  0  0  0  0  0  0
  -27.8720  -36.7890   25.2690 C   0  0  0  0  0  1  0  0  0  0  0  0
  -26.7770  -37.0770   24.3470 N   0  0  0  0  0  0  0  0  0  0  0  0
  -26.4020  -37.9940   24.5760 H   0  0  0  0  0  0  0  0  0  0  0  0
  -26.5580  -31.3250   25.2030 C   0  0  1  0  0  0  0  0  0  0  0  0
  -25.4780  -31.0320   26.2710 C   0  0  0  0  0  1  0  0  0  0  0  0
  -27.0840  -29.9690   24.6800 C   0  0  0  0  0  1  0  0  0  0  0  0
  -27.7490  -32.0210   25.9040 C   0  0  0  0  0  1  0  0  0  0  0  0
  1  3  1  0
  1  2  1  0
  3  5  1  0
  4  5  1  0
  4  2  1  0
  4  7  1  0
  5  6  1  1
  8  7  1  0
  8  9  1  0
  9 10  1  0
  9 11  1  0
 13 18  1  0
 14 15  1  0
 14 13  1  0
 16 15  1  0
 16 28  1  0
 16 17  1  0
 18 12  1  0
 18 17  1  0
 19 12  2  0
 20 23  1  0
 21 20  1  0
 21 24  1  0
 23  9  1  0
 23 22  1  0
 24 12  1  0
 24 22  1  0
 25 26  2  0
 26 45  1  0
 27 26  1  0
 27 30  1  0
 28 25  1  0
 28 29  1  0
 29 27  2  0
 30 31  1  0
 31 32  2  0
 33 36  1  0
 33 32  1  0
 34 33  2  0
 35 34  1  0
 35 30  2  0
 36 37  1  0
 37 42  2  0
 37 38  1  0
 38 39  2  0
 39 40  1  0
 40 44  1  0
 41 40  2  0
 42 41  1  0
 43 42  1  0
 45 46  1  0
 46 49  1  0
 46 48  1  0
 47 45  2  0
 50 25  1  0
 51 50  1  0
 52 50  1  0
 53 54  1  0
 53  5  1  0
 54 55  1  0
 56 54  1  0
 56 57  1  0
 57 59  1  0
 58 69  2  0
 59 64  1  0
 60 68  1  0
 60 70  1  0
 61 67  1  0
 61 63  1  0
 62 68  1  0
 63 62  1  0
 64 63  2  0
 65 66  1  0
 65 59  2  0
 66 61  2  0
 67 60  1  0
 68 58  1  0
 70 72  2  0
 71 70  1  0
 73 71  1  0
 74 83  2  0
 74 79  1  0
 75 71  1  0
 75 79  1  0
 76 75  1  0
 77 78  1  0
 77 76  1  0
 78 74  1  0
 79 80  2  0
 80 81  1  0
 82 81  2  0
 83 82  1  0
 84 58  1  0
 84 85  1  0
 84 94  1  0
 85 88  1  0
 86 90  1  0
 86 85  1  0
 87 86  2  0
 90 89  1  0
 92 90  1  0
 92 93  1  0
 92 91  1  0
 94 97  1  1
 94 95  1  0
 96 94  1  0
M  ISO  4  12 100  24 100  56 101  57 101
M  END
>  <TORSDO>  (65) 
F 22

>  <SCORE>  (65) 
-10.047

>  <name>  (65) 
66

>  <ligand_id>  (65) 
66

>  <original_smiles>  (65) 
[H]c1c([H])c([H])c2c(c1[H])C([H])([H])C([H])([H])C([H])([H])C2([H])N([H])C(=O)C1([H])N(C(=O)C([H])(N([H])C(=O)C([H])(N([H])C([H])([H])[H])C([H])([H])[H])C(C([H])([H])[H])(C([H])([H])[H])C([H])([H])[H])C([H])([H])c2c([H])c(OC([H])([H])C([H])(F)C([H])([H])[N+]3([H])C([H])([H])C([H])([H])C([H])([H])C3([H])C([H])([H])C([H])([H])[N+]([H])([H])C3([H])C([H])([H])N(C(=O)N4C([H])([H])C([H])([H])C([H])([H])C([H])(n5nc(-c6c([H])c([H])c(Oc7c([H])c([H])c(F)c([H])c7F)c([H])c6[H])c(C(=O)N([H])[H])c5N([H])[H])C4([H])[H])C([H])([H])C3([H])[H])c([H])c([H])c2C1([H])[H]

>  <smiles>  (65) 
[H]c1c([H])c([H])c2c(c1[H])C([H])([H])C([H])([H])C([H])([H])C2([H])N([H])C(=O)C1([H])N(C(=O)C([H])(N([H])C(=O)C([H])(N([H])C([H])([H])[H])C([H])([H])[H])C(C([H])([H])[H])(C([H])([H])[H])C([H])([H])[H])C([H])([H])c2c([H])c(OC([H])([H])C([H])(F)C([H])([H])[N+]3([H])C([H])([H])C([H])([H])C([H])([H])C3([H])C([H])([H])C([H])([H])[N+]([H])([H])C3([H])C([H])([H])N(C(=O)N4C([H])([H])C([H])([H])C([H])([H])C([H])(n5nc(-c6c([H])c([H])c(Oc7c([H])c([H])c(F)c([H])c7F)c([H])c6[H])c(C(=O)N([H])[H])c5N([H])[H])C4([H])[H])C([H])([H])C3([H])[H])c([H])c([H])c2C1([H])[H]

$$$$
67:0:0
     RDKit          3D

 96105  0  0  1  0  0  0  0  0999 V2000
  -28.3580  -22.1560   22.9520 C   0  0  0  0  0  2  0  0  0  0  0  0
  -27.7420  -23.4960   22.5390 C   0  0  0  0  0  2  0  0  0  0  0  0
  -29.7570  -23.3480   21.3350 C   0  0  0  0  0  2  0  0  0  0  0  0
  -29.7300  -22.1090   22.2560 C   0  0  0  0  0  3  0  0  0  0  0  0
  -28.3620  -23.8380   21.2430 N   0  0  2  0  0  4  0  0  0  0  0  0
  -27.8910  -23.2720   20.5510 H   0  0  0  0  0  0  0  0  0  0  0  0
  -29.1250  -20.4260   20.4390 C   0  0  0  0  0  3  0  0  0  0  0  0
  -29.3470  -19.2210   19.7500 C   0  0  0  0  0  3  0  0  0  0  0  0
  -31.0030  -19.9230   21.9050 C   0  0  0  0  0  3  0  0  0  0  0  0
  -29.9560  -20.7920   21.5180 C   0  0  0  0  0  0  0  0  0  0  0  0
  -30.3960  -18.3570   20.1260 C   0  0  0  0  0  0  0  0  0  0  0  0
  -31.2260  -18.7150   21.2140 C   0  0  0  0  0  0  0  0  0  0  0  0
  -32.2540  -17.9190   21.5900 F   0  0  0  0  0  0  0  0  0  0  0  0
  -31.8140  -17.3450   18.3130 C   0  0  0  0  0  1  0  0  0  0  0  0
  -30.6400  -17.1090   19.2880 C   0  0  0  0  0  3  0  0  0  0  0  0
  -31.4350  -14.7760   19.9090 C   0  0  0  0  0  0  0  0  0  0  0  0
  -31.0670  -12.5600   18.9460 C   0  0  0  0  0  2  0  0  0  0  0  0
  -30.0890  -12.7490   17.7650 C   0  0  0  0  0  2  0  0  0  0  0  0
  -28.6280  -12.6680   18.2510 C   0  0  0  0  0  2  0  0  0  0  0  0
  -28.3510  -13.5650   19.4870 C   0  0  0  0  0  3  0  0  0  0  0  0
  -29.4460  -13.3780   20.5660 C   0  0  0  0  0  2  0  0  0  0  0  0
  -30.7590  -13.6000   19.9360 N   0  0  0  0  0  0  0  0  0  0  0  0
  -32.5930  -14.8750   19.4990 O   0  0  0  0  0  0  0  0  0  0  0  0
  -30.6360  -15.8450   20.0500 N   0  0  0  0  0  0  0  0  0  0  0  0
  -29.7460  -15.6250   20.4700 H   0  0  0  0  0  0  0  0  0  0  0  0
  -26.0180  -14.2610   20.3270 C   0  0  0  0  0  0  0  0  0  0  0  0
  -24.9370  -13.5260   20.7300 C   0  0  0  0  0  0  0  0  0  0  0  0
  -25.3360  -12.1570   20.6470 C   0  0  0  0  0  0  0  0  0  0  0  0
  -27.0110  -13.3410   20.0250 N   0  0  0  0  0  0  0  0  0  0  0  0
  -26.6070  -12.0700   20.2740 N   0  0  0  0  0  0  0  0  0  0  0  0
  -24.5660  -10.9220   20.8410 C   0  0  0  0  0  0  0  0  0  0  0  0
  -24.9320   -9.9720   21.8200 C   0  0  0  0  0  3  0  0  0  0  0  0
  -24.1660   -8.8000   22.0010 C   0  0  0  0  0  3  0  0  0  0  0  0
  -23.0210   -8.5710   21.2020 C   0  0  0  0  0  0  0  0  0  0  0  0
  -22.6740   -9.5090   20.2140 C   0  0  0  0  0  3  0  0  0  0  0  0
  -23.4390  -10.6720   20.0320 C   0  0  0  0  0  3  0  0  0  0  0  0
  -22.2310   -7.4500   21.2900 O   0  0  0  0  0  0  0  0  0  0  0  0
  -22.0070   -6.8190   22.4870 C   0  0  0  0  0  0  0  0  0  0  0  0
  -21.4200   -7.4890   23.5830 C   0  0  0  0  0  3  0  0  0  0  0  0
  -21.1430   -6.7840   24.7720 C   0  0  0  0  0  3  0  0  0  0  0  0
  -21.4450   -5.4120   24.8660 C   0  0  0  0  0  0  0  0  0  0  0  0
  -22.0250   -4.7430   23.7730 C   0  0  0  0  0  3  0  0  0  0  0  0
  -22.3030   -5.4450   22.5870 C   0  0  0  0  0  0  0  0  0  0  0  0
  -22.8430   -4.7910   21.5310 F   0  0  0  0  0  0  0  0  0  0  0  0
  -21.1720   -4.7330   26.0040 F   0  0  0  0  0  0  0  0  0  0  0  0
  -23.5760  -14.0540   21.0830 C   0  0  0  0  0  0  0  0  0  0  0  0
  -22.8670  -13.3780   21.9800 N   0  0  0  0  0  0  0  0  0  0  0  0
  -23.1510  -15.1020   20.5980 O   0  0  0  0  0  0  0  0  0  0  0  0
  -23.2240  -12.5300   22.3970 H   0  0  0  0  0  0  0  0  0  0  0  0
  -21.9550  -13.7130   22.2550 H   0  0  0  0  0  0  0  0  0  0  0  0
  -26.2330  -15.6290   20.1730 N   0  0  0  0  0  0  0  0  0  0  0  0
  -25.4990  -16.3090   20.3360 H   0  0  0  0  0  0  0  0  0  0  0  0
  -27.0760  -16.0420   19.7980 H   0  0  0  0  0  0  0  0  0  0  0  0
  -28.2020  -25.2670   20.8560 C   0  0  0  0  0  2  0  0  0  0  0  0
  -28.5200  -25.5470   19.3660 C   0  0  0  0  0  2  0  0  0  0  0  0
  -28.4490  -26.9470   19.0730 O   0  0  0  0  0  0  0  0  0  0  0  0
  -24.6440  -31.5190   22.9360 C   0  0  0  0  0  0  0  0  0  0  0  0
  -27.2340  -27.5800   19.2130 C   0  0  0  0  0  0  0  0  0  0  0  0
  -23.3790  -30.2590   21.2220 C   0  0  0  0  0  3  0  0  0  0  0  0
  -24.7880  -28.9550   19.5460 C   0  0  0  0  0  0  0  0  0  0  0  0
  -25.8680  -30.7530   20.9060 C   0  0  0  0  0  2  0  0  0  0  0  0
  -25.9610  -29.4680   20.1100 C   0  0  0  0  0  0  0  0  0  0  0  0
  -27.1860  -28.7910   19.9360 C   0  0  0  0  0  3  0  0  0  0  0  0
  -26.0410  -27.0750   18.6450 C   0  0  0  0  0  3  0  0  0  0  0  0
  -24.8220  -27.7580   18.8100 C   0  0  0  0  0  3  0  0  0  0  0  0
  -23.5190  -29.7470   19.7640 C   0  0  0  0  0  2  0  0  0  0  0  0
  -24.6520  -30.8510   21.7480 N   0  0  0  0  0  0  0  0  0  0  0  0
  -23.5930  -31.6810   23.5710 O   0  0  0  0  0  0  0  0  0  0  0  0
  -22.8340  -29.1090   22.0970 C   0  0  0  0  0  0  0  0  0  0  0  0
  -21.5130  -28.8750   22.0200 N   0  0  0  0  0  0  0  0  0  0  0  0
  -23.5910  -28.4330   22.7990 O   0  0  0  0  0  0  0  0  0  0  0  0
  -20.9600  -29.4780   21.4270 H   0  0  0  0  0  0  0  0  0  0  0  0
  -18.2290  -27.4690   22.5540 C   0  0  0  0  0  0  0  0  0  0  0  0
  -20.7840  -27.8210   22.7250 C   0  0  0  0  0  3  0  0  0  0  0  0
  -20.9170  -26.4670   21.9910 C   0  0  0  0  0  2  0  0  0  0  0  0
  -19.7760  -26.2000   21.0050 C   0  0  0  0  0  2  0  0  0  0  0  0
  -18.4270  -26.2090   21.7290 C   0  0  0  0  0  2  0  0  0  0  0  0
  -19.3360  -28.2350   23.0090 C   0  0  0  0  0  0  0  0  0  0  0  0
  -19.0950  -29.4160   23.7420 C   0  0  0  0  0  3  0  0  0  0  0  0
  -17.7810  -29.8340   24.0240 C   0  0  0  0  0  3  0  0  0  0  0  0
  -16.6900  -29.0630   23.5870 C   0  0  0  0  0  3  0  0  0  0  0  0
  -16.9150  -27.8830   22.8580 C   0  0  0  0  0  3  0  0  0  0  0  0
  -25.9460  -32.1300   23.5420 C   0  0  0  0  0  3  0  0  0  0  0  0
  -26.5500  -31.2660   24.7170 C   0  0  1  0  0  0  0  0  0  0  0  0
  -25.5220  -30.9030   25.8130 C   0  0  0  0  0  1  0  0  0  0  0  0
  -27.1480  -29.9480   24.1730 C   0  0  0  0  0  1  0  0  0  0  0  0
  -27.7130  -32.0350   25.3870 C   0  0  0  0  0  1  0  0  0  0  0  0
  -25.6260  -33.4850   24.0040 N   0  0  0  0  0  0  0  0  0  0  0  0
  -25.9140  -34.6060   23.3300 C   0  0  0  0  0  0  0  0  0  0  0  0
  -26.5530  -34.6060   22.2730 O   0  0  0  0  0  0  0  0  0  0  0  0
  -25.0560  -33.5580   24.8350 H   0  0  0  0  0  0  0  0  0  0  0  0
  -24.1470  -36.3880   23.1800 C   0  0  0  0  0  1  0  0  0  0  0  0
  -25.4170  -35.9390   23.9200 C   0  0  0  0  0  3  0  0  0  0  0  0
  -27.5550  -36.7900   24.7750 C   0  0  0  0  0  1  0  0  0  0  0  0
  -26.4280  -37.0180   23.8750 N   0  0  0  0  0  0  0  0  0  0  0  0
  -26.0090  -37.9140   24.1110 H   0  0  0  0  0  0  0  0  0  0  0  0
  2  1  1  0
  3  4  1  0
  4 10  1  0
  4  1  1  0
  5  3  1  0
  5  2  1  0
  5  6  1  6
  7 10  1  0
  8 11  1  0
  8  7  2  0
 10  9  2  0
 11 12  2  0
 12 13  1  0
 12  9  1  0
 15 14  1  0
 15 24  1  0
 15 11  1  0
 16 22  1  0
 16 24  1  0
 17 22  1  0
 18 19  1  0
 18 17  1  0
 20 19  1  0
 20 29  1  0
 20 21  1  0
 22 21  1  0
 23 16  2  0
 24 25  1  0
 26 27  2  0
 27 46  1  0
 28 27  1  0
 28 31  1  0
 29 30  1  0
 29 26  1  0
 30 28  2  0
 31 32  1  0
 32 33  2  0
 34 37  1  0
 34 33  1  0
 35 34  2  0
 36 35  1  0
 36 31  2  0
 37 38  1  0
 38 43  2  0
 38 39  1  0
 39 40  2  0
 40 41  1  0
 41 45  1  0
 42 41  2  0
 43 42  1  0
 44 43  1  0
 46 47  1  0
 47 50  1  0
 47 49  1  0
 48 46  2  0
 51 26  1  0
 51 52  1  0
 53 51  1  0
 54  5  1  0
 55 54  1  0
 56 58  1  0
 56 55  1  0
 57 68  2  0
 58 63  1  0
 59 67  1  0
 59 69  1  0
 60 66  1  0
 60 62  1  0
 61 67  1  0
 62 61  1  0
 63 62  2  0
 64 65  1  0
 64 58  2  0
 65 60  2  0
 66 59  1  0
 67 57  1  0
 69 71  2  0
 70 69  1  0
 72 70  1  0
 73 82  2  0
 73 78  1  0
 74 70  1  0
 74 78  1  0
 75 74  1  0
 76 77  1  0
 76 75  1  0
 77 73  1  0
 78 79  2  0
 79 80  1  0
 81 80  2  0
 82 81  1  0
 83 57  1  0
 83 88  1  0
 83 84  1  0
 84 87  1  1
 84 85  1  0
 86 84  1  0
 88 91  1  0
 89 93  1  0
 89 88  1  0
 90 89  2  0
 93 92  1  0
 95 93  1  0
 95 96  1  0
 95 94  1  0
M  ISO  4  16 100  24 100  55 101  56 101
M  END
>  <TORSDO>  (66) 
F 20

>  <SCORE>  (66) 
-10.627

>  <name>  (66) 
67

>  <ligand_id>  (66) 
67

>  <original_smiles>  (66) 
[H]c1c([H])c([H])c2c(c1[H])C([H])([H])C([H])([H])C([H])([H])C2([H])N([H])C(=O)C1([H])N(C(=O)C([H])(N([H])C(=O)C([H])(N([H])C([H])([H])[H])C([H])([H])[H])C(C([H])([H])[H])(C([H])([H])[H])C([H])([H])[H])C([H])([H])c2c([H])c(OC([H])([H])C([H])([H])[N+]3([H])C([H])([H])C([H])([H])C([H])(c4c([H])c([H])c(C([H])(N([H])C(=O)N5C([H])([H])C([H])([H])C([H])([H])C([H])(n6nc(-c7c([H])c([H])c(Oc8c([H])c([H])c(F)c([H])c8F)c([H])c7[H])c(C(=O)N([H])[H])c6N([H])[H])C5([H])[H])C([H])([H])[H])c(F)c4[H])C3([H])[H])c([H])c([H])c2C1([H])[H]

>  <smiles>  (66) 
[H]c1c([H])c([H])c2c(c1[H])C([H])([H])C([H])([H])C([H])([H])C2([H])N([H])C(=O)C1([H])N(C(=O)C([H])(N([H])C(=O)C([H])(N([H])C([H])([H])[H])C([H])([H])[H])C(C([H])([H])[H])(C([H])([H])[H])C([H])([H])[H])C([H])([H])c2c([H])c(OC([H])([H])C([H])([H])[N+]3([H])C([H])([H])C([H])([H])C([H])(c4c([H])c([H])c(C([H])(N([H])C(=O)N5C([H])([H])C([H])([H])C([H])([H])C([H])(n6nc(-c7c([H])c([H])c(Oc8c([H])c([H])c(F)c([H])c8F)c([H])c7[H])c(C(=O)N([H])[H])c6N([H])[H])C5([H])[H])C([H])([H])[H])c(F)c4[H])C3([H])[H])c([H])c([H])c2C1([H])[H]

$$$$
68:0:0
     RDKit          3D

 94103  0  0  1  0  0  0  0  0999 V2000
  -31.9760  -21.6970   22.6920 C   0  0  0  0  0  2  0  0  0  0  0  0
  -32.0780  -21.0420   21.3230 C   0  0  0  0  0  2  0  0  0  0  0  0
  -30.9150  -22.7730   22.4550 C   0  0  0  0  0  2  0  0  0  0  0  0
  -30.6210  -21.0380   20.8220 C   0  0  0  0  0  3  0  0  0  0  0  0
  -30.0000  -22.2680   21.3910 N   0  0  2  0  0  4  0  0  0  0  0  0
  -29.1610  -21.8950   21.8250 H   0  0  0  0  0  0  0  0  0  0  0  0
  -29.8420  -19.8000   21.3090 C   0  0  0  0  0  0  0  0  0  0  0  0
  -30.3890  -18.5980   21.0780 N   0  0  0  0  0  0  0  0  0  0  0  0
  -28.7680  -19.9460   21.8980 O   0  0  0  0  0  0  0  0  0  0  0  0
  -31.2700  -18.5820   20.5810 H   0  0  0  0  0  0  0  0  0  0  0  0
  -30.7750  -14.3850   20.2500 C   0  0  0  0  0  0  0  0  0  0  0  0
  -30.3760  -12.3100   18.9830 C   0  0  0  0  0  2  0  0  0  0  0  0
  -29.3890  -12.5910   17.8320 C   0  0  0  0  0  2  0  0  0  0  0  0
  -27.9320  -12.4580   18.3150 C   0  0  0  0  0  2  0  0  0  0  0  0
  -27.6620  -13.2460   19.6240 C   0  0  0  0  0  3  0  0  0  0  0  0
  -28.7520  -12.9450   20.6780 C   0  0  0  0  0  2  0  0  0  0  0  0
  -30.0630  -13.2410   20.0760 N   0  0  0  0  0  0  0  0  0  0  0  0
  -31.8530  -14.6030   19.6890 O   0  0  0  0  0  0  0  0  0  0  0  0
  -29.4530  -16.4160   20.3710 C   0  0  0  0  0  2  0  0  0  0  0  0
  -30.9570  -16.2920   21.8150 C   0  0  0  0  0  2  0  0  0  0  0  0
  -29.8620  -17.3110   21.5280 C   0  0  0  0  0  3  0  0  0  0  0  0
  -30.1870  -15.3190   21.0240 N   0  0  0  0  0  0  0  0  0  0  0  0
  -25.2950  -13.8750   20.4210 C   0  0  0  0  0  0  0  0  0  0  0  0
  -24.2320  -13.1090   20.8200 C   0  0  0  0  0  0  0  0  0  0  0  0
  -24.6790  -11.7530   20.7560 C   0  0  0  0  0  0  0  0  0  0  0  0
  -26.3230  -12.9850   20.1440 N   0  0  0  0  0  0  0  0  0  0  0  0
  -25.9560  -11.7040   20.4020 N   0  0  0  0  0  0  0  0  0  0  0  0
  -23.9480  -10.4970   20.9580 C   0  0  0  0  0  0  0  0  0  0  0  0
  -24.3910   -9.5240   21.8810 C   0  0  0  0  0  3  0  0  0  0  0  0
  -23.6620   -8.3300   22.0690 C   0  0  0  0  0  3  0  0  0  0  0  0
  -22.4740   -8.1000   21.3340 C   0  0  0  0  0  0  0  0  0  0  0  0
  -22.0510   -9.0620   20.4000 C   0  0  0  0  0  3  0  0  0  0  0  0
  -22.7810  -10.2470   20.2100 C   0  0  0  0  0  3  0  0  0  0  0  0
  -21.7150   -6.9600   21.4330 O   0  0  0  0  0  0  0  0  0  0  0  0
  -21.6700   -6.2240   22.5900 C   0  0  0  0  0  0  0  0  0  0  0  0
  -21.2550   -6.7890   23.8160 C   0  0  0  0  0  3  0  0  0  0  0  0
  -21.1550   -5.9790   24.9650 C   0  0  0  0  0  3  0  0  0  0  0  0
  -21.4590   -4.6070   24.8900 C   0  0  0  0  0  0  0  0  0  0  0  0
  -21.8670   -4.0420   23.6680 C   0  0  0  0  0  3  0  0  0  0  0  0
  -21.9680   -4.8490   22.5200 C   0  0  0  0  0  0  0  0  0  0  0  0
  -22.3400   -4.2940   21.3410 F   0  0  0  0  0  0  0  0  0  0  0  0
  -21.3550   -3.8270   25.9910 F   0  0  0  0  0  0  0  0  0  0  0  0
  -22.8500  -13.5960   21.1470 C   0  0  0  0  0  0  0  0  0  0  0  0
  -22.1480  -12.8970   22.0310 N   0  0  0  0  0  0  0  0  0  0  0  0
  -22.4030  -14.6310   20.6550 O   0  0  0  0  0  0  0  0  0  0  0  0
  -22.5210  -12.0590   22.4520 H   0  0  0  0  0  0  0  0  0  0  0  0
  -21.2200  -13.2030   22.2920 H   0  0  0  0  0  0  0  0  0  0  0  0
  -25.4660  -15.2450   20.2510 N   0  0  0  0  0  0  0  0  0  0  0  0
  -24.7090  -15.9060   20.3950 H   0  0  0  0  0  0  0  0  0  0  0  0
  -26.3040  -15.6770   19.8850 H   0  0  0  0  0  0  0  0  0  0  0  0
  -29.6120  -23.2890   20.3650 C   0  0  0  0  0  2  0  0  0  0  0  0
  -28.6240  -24.4220   20.8300 C   0  0  0  0  0  2  0  0  0  0  0  0
  -28.9010  -25.9710   20.8400 C   0  0  0  0  0  2  0  0  0  0  0  0
  -28.4160  -26.6920   19.6990 O   0  0  0  0  0  0  0  0  0  0  0  0
  -24.4920  -31.6410   23.0270 C   0  0  0  0  0  0  0  0  0  0  0  0
  -27.2250  -27.3560   19.8380 C   0  0  0  0  0  0  0  0  0  0  0  0
  -23.3100  -30.2580   21.3500 C   0  0  0  0  0  3  0  0  0  0  0  0
  -24.7930  -28.7810   19.8950 C   0  0  0  0  0  0  0  0  0  0  0  0
  -25.8230  -30.6800   21.1540 C   0  0  0  0  0  2  0  0  0  0  0  0
  -25.9380  -29.3240   20.4970 C   0  0  0  0  0  0  0  0  0  0  0  0
  -27.1590  -28.6150   20.4710 C   0  0  0  0  0  3  0  0  0  0  0  0
  -26.0720  -26.8200   19.2360 C   0  0  0  0  0  3  0  0  0  0  0  0
  -24.8520  -27.5250   19.2670 C   0  0  0  0  0  3  0  0  0  0  0  0
  -23.5340  -29.6160   19.9550 C   0  0  0  0  0  2  0  0  0  0  0  0
  -24.5610  -30.8720   21.9040 N   0  0  0  0  0  0  0  0  0  0  0  0
  -23.4070  -31.8760   23.5770 O   0  0  0  0  0  0  0  0  0  0  0  0
  -22.6830  -29.1990   22.2860 C   0  0  0  0  0  0  0  0  0  0  0  0
  -21.3570  -29.0150   22.1770 N   0  0  0  0  0  0  0  0  0  0  0  0
  -23.3860  -28.5470   23.0620 O   0  0  0  0  0  0  0  0  0  0  0  0
  -20.8510  -29.5960   21.5240 H   0  0  0  0  0  0  0  0  0  0  0  0
  -17.9960  -27.8090   22.7090 C   0  0  0  0  0  0  0  0  0  0  0  0
  -20.5600  -28.0470   22.9280 C   0  0  0  0  0  3  0  0  0  0  0  0
  -20.6440  -26.6410   22.2880 C   0  0  0  0  0  2  0  0  0  0  0  0
  -19.5150  -26.3650   21.2910 C   0  0  0  0  0  2  0  0  0  0  0  0
  -18.1500  -26.4880   21.9750 C   0  0  0  0  0  2  0  0  0  0  0  0
  -19.1270  -28.5470   23.1450 C   0  0  0  0  0  0  0  0  0  0  0  0
  -18.9310  -29.7860   23.7900 C   0  0  0  0  0  3  0  0  0  0  0  0
  -17.6330  -30.2870   24.0100 C   0  0  0  0  0  3  0  0  0  0  0  0
  -16.5150  -29.5440   23.5920 C   0  0  0  0  0  3  0  0  0  0  0  0
  -16.6980  -28.3090   22.9470 C   0  0  0  0  0  3  0  0  0  0  0  0
  -25.7670  -32.2820   23.6590 C   0  0  0  0  0  3  0  0  0  0  0  0
  -26.3180  -31.4750   24.8990 C   0  0  1  0  0  0  0  0  0  0  0  0
  -25.2450  -31.1770   25.9710 C   0  0  0  0  0  1  0  0  0  0  0  0
  -26.9240  -30.1280   24.4430 C   0  0  0  0  0  1  0  0  0  0  0  0
  -27.4600  -32.2700   25.5760 C   0  0  0  0  0  1  0  0  0  0  0  0
  -25.4280  -33.6580   24.0400 N   0  0  0  0  0  0  0  0  0  0  0  0
  -25.7330  -34.7430   23.3170 C   0  0  0  0  0  0  0  0  0  0  0  0
  -26.4020  -34.6920   22.2800 O   0  0  0  0  0  0  0  0  0  0  0  0
  -24.8350  -33.7710   24.8500 H   0  0  0  0  0  0  0  0  0  0  0  0
  -23.9670  -36.5060   23.0260 C   0  0  0  0  0  1  0  0  0  0  0  0
  -25.2160  -36.1020   23.8250 C   0  0  0  0  0  3  0  0  0  0  0  0
  -27.3280  -37.0020   24.6950 C   0  0  0  0  0  1  0  0  0  0  0  0
  -26.2250  -37.1800   23.7530 N   0  0  0  0  0  0  0  0  0  0  0  0
  -25.7990  -38.0850   23.9330 H   0  0  0  0  0  0  0  0  0  0  0  0
  2  1  1  0
  3  1  1  0
  4  7  1  0
  4  2  1  0
  4  5  1  0
  5  6  1  1
  5  3  1  0
  7  9  2  0
  8  7  1  0
 10  8  1  0
 11 22  1  0
 12 17  1  0
 13 14  1  0
 13 12  1  0
 15 14  1  0
 15 26  1  0
 15 16  1  0
 17 11  1  0
 17 16  1  0
 18 11  2  0
 19 22  1  0
 19 21  1  0
 21  8  1  0
 21 20  1  0
 22 20  1  0
 23 24  2  0
 24 43  1  0
 25 24  1  0
 25 28  1  0
 26 27  1  0
 26 23  1  0
 27 25  2  0
 28 29  1  0
 29 30  2  0
 31 34  1  0
 31 30  1  0
 32 31  2  0
 33 32  1  0
 33 28  2  0
 34 35  1  0
 35 36  1  0
 36 37  2  0
 38 37  1  0
 38 42  1  0
 39 38  2  0
 40 35  2  0
 40 39  1  0
 41 40  1  0
 43 44  1  0
 44 47  1  0
 44 46  1  0
 45 43  2  0
 48 49  1  0
 48 23  1  0
 50 48  1  0
 51 52  1  0
 51  5  1  0
 52 53  1  0
 54 56  1  0
 54 53  1  0
 55 66  2  0
 56 61  1  0
 57 65  1  0
 57 67  1  0
 58 64  1  0
 58 60  1  0
 59 65  1  0
 60 59  1  0
 61 60  2  0
 62 63  1  0
 62 56  2  0
 63 58  2  0
 64 57  1  0
 65 55  1  0
 67 69  2  0
 68 67  1  0
 70 68  1  0
 71 80  2  0
 71 76  1  0
 72 68  1  0
 72 76  1  0
 73 72  1  0
 74 75  1  0
 74 73  1  0
 75 71  1  0
 76 77  2  0
 77 78  1  0
 79 78  2  0
 80 79  1  0
 81 55  1  0
 81 86  1  0
 81 82  1  0
 82 85  1  1
 82 83  1  0
 84 82  1  0
 86 89  1  0
 87 91  1  0
 87 86  1  0
 88 87  2  0
 91 90  1  0
 93 91  1  0
 93 94  1  0
 93 92  1  0
M  ISO  4  11 100  22 100  53 101  54 101
M  END
>  <TORSDO>  (67) 
F 20

>  <SCORE>  (67) 
-12.353

>  <name>  (67) 
68

>  <ligand_id>  (67) 
68

>  <original_smiles>  (67) 
[H]c1c([H])c([H])c2c(c1[H])C([H])([H])C([H])([H])C([H])([H])C2([H])N([H])C(=O)C1([H])N(C(=O)C([H])(N([H])C(=O)C([H])(N([H])C([H])([H])[H])C([H])([H])[H])C(C([H])([H])[H])(C([H])([H])[H])C([H])([H])[H])C([H])([H])c2c([H])c(OC([H])([H])C([H])([H])C([H])([H])[N+]3([H])C([H])([H])C([H])([H])C([H])([H])C3([H])C(=O)N([H])C3([H])C([H])([H])N(C(=O)N4C([H])([H])C([H])([H])C([H])([H])C([H])(n5nc(-c6c([H])c([H])c(Oc7c([H])c([H])c(F)c([H])c7F)c([H])c6[H])c(C(=O)N([H])[H])c5N([H])[H])C4([H])[H])C3([H])[H])c([H])c([H])c2C1([H])[H]

>  <smiles>  (67) 
[H]c1c([H])c([H])c2c(c1[H])C([H])([H])C([H])([H])C([H])([H])C2([H])N([H])C(=O)C1([H])N(C(=O)C([H])(N([H])C(=O)C([H])(N([H])C([H])([H])[H])C([H])([H])[H])C(C([H])([H])[H])(C([H])([H])[H])C([H])([H])[H])C([H])([H])c2c([H])c(OC([H])([H])C([H])([H])C([H])([H])[N+]3([H])C([H])([H])C([H])([H])C([H])([H])C3([H])C(=O)N([H])C3([H])C([H])([H])N(C(=O)N4C([H])([H])C([H])([H])C([H])([H])C([H])(n5nc(-c6c([H])c([H])c(Oc7c([H])c([H])c(F)c([H])c7F)c([H])c6[H])c(C(=O)N([H])[H])c5N([H])[H])C4([H])[H])C3([H])[H])c([H])c([H])c2C1([H])[H]

$$$$
69:0:0
     RDKit          3D

100108  0  0  1  0  0  0  0  0999 V2000
  -27.7380  -20.8760   19.4700 C   0  0  0  0  0  3  0  0  0  0  0  0
  -28.2560  -18.4700   19.6200 C   0  0  0  0  0  3  0  0  0  0  0  0
  -29.6480  -20.1170   20.7470 C   0  0  0  0  0  3  0  0  0  0  0  0
  -27.4340  -19.5280   19.1630 C   0  0  0  0  0  0  0  0  0  0  0  0
  -28.8300  -21.2240   20.2880 C   0  0  0  0  0  0  0  0  0  0  0  0
  -29.4000  -18.7260   20.4090 C   0  0  0  0  0  0  0  0  0  0  0  0
  -26.2280  -19.2360   18.2860 C   0  0  0  0  0  2  0  0  0  0  0  0
  -26.3350  -19.9310   16.9170 C   0  0  0  0  0  2  0  0  0  0  0  0
  -27.6130  -19.6200   16.2550 N   0  0  0  0  0  4  0  0  0  0  0  0
  -28.3640  -19.8800   16.8720 H   0  0  0  0  0  0  0  0  0  0  0  0
  -27.7000  -20.1440   15.4020 H   0  0  0  0  0  0  0  0  0  0  0  0
  -27.6880  -18.6390   16.0470 H   0  0  0  0  0  0  0  0  0  0  0  0
  -29.1370  -22.7630   20.5860 C   0  0  0  0  0  2  0  0  0  0  0  0
  -28.0840  -23.9580   20.2470 C   0  0  0  0  0  3  0  0  0  0  0  0
  -26.6360  -23.5540   20.6700 C   0  0  0  0  0  2  0  0  0  0  0  0
  -26.4990  -23.2500   22.1140 N   0  0  0  0  0  4  0  0  0  0  0  0
  -27.1150  -22.5040   22.3860 H   0  0  0  0  0  0  0  0  0  0  0  0
  -25.5610  -22.9460   22.3070 H   0  0  0  0  0  0  0  0  0  0  0  0
  -26.6860  -24.0520   22.6890 H   0  0  0  0  0  0  0  0  0  0  0  0
  -28.3730  -25.4640   20.7960 C   0  0  0  0  0  2  0  0  0  0  0  0
  -28.3570  -26.7240   20.0060 O   0  0  0  0  0  0  0  0  0  0  0  0
  -24.5500  -31.9860   23.2440 C   0  0  0  0  0  0  0  0  0  0  0  0
  -27.2320  -27.5610   20.0610 C   0  0  0  0  0  0  0  0  0  0  0  0
  -23.3750  -30.6280   21.5490 C   0  0  0  0  0  3  0  0  0  0  0  0
  -24.8550  -29.1410   20.0840 C   0  0  0  0  0  0  0  0  0  0  0  0
  -25.9090  -30.9910   21.3890 C   0  0  0  0  0  2  0  0  0  0  0  0
  -26.0120  -29.6310   20.7020 C   0  0  0  0  0  0  0  0  0  0  0  0
  -27.2100  -28.8530   20.6750 C   0  0  0  0  0  3  0  0  0  0  0  0
  -26.0560  -27.1250   19.4260 C   0  0  0  0  0  3  0  0  0  0  0  0
  -24.8780  -27.8960   19.4350 C   0  0  0  0  0  3  0  0  0  0  0  0
  -23.6060  -30.0000   20.1500 C   0  0  0  0  0  2  0  0  0  0  0  0
  -24.6310  -31.2190   22.1170 N   0  0  0  0  0  0  0  0  0  0  0  0
  -23.4600  -32.2310   23.7810 O   0  0  0  0  0  0  0  0  0  0  0  0
  -22.7240  -29.5710   22.4720 C   0  0  0  0  0  0  0  0  0  0  0  0
  -21.4070  -29.3550   22.3120 N   0  0  0  0  0  0  0  0  0  0  0  0
  -23.4010  -28.9450   23.2910 O   0  0  0  0  0  0  0  0  0  0  0  0
  -20.9140  -29.9130   21.6270 H   0  0  0  0  0  0  0  0  0  0  0  0
  -18.0590  -28.0450   22.7060 C   0  0  0  0  0  0  0  0  0  0  0  0
  -20.6020  -28.3760   23.0440 C   0  0  0  0  0  3  0  0  0  0  0  0
  -20.7620  -26.9630   22.4390 C   0  0  0  0  0  2  0  0  0  0  0  0
  -19.6940  -26.6290   21.3900 C   0  0  0  0  0  2  0  0  0  0  0  0
  -18.2930  -26.7190   22.0030 C   0  0  0  0  0  2  0  0  0  0  0  0
  -19.1430  -28.8290   23.1800 C   0  0  0  0  0  0  0  0  0  0  0  0
  -18.8720  -30.0720   23.7960 C   0  0  0  0  0  3  0  0  0  0  0  0
  -17.5500  -30.5290   23.9430 C   0  0  0  0  0  3  0  0  0  0  0  0
  -16.4800  -29.7420   23.4860 C   0  0  0  0  0  3  0  0  0  0  0  0
  -16.7350  -28.5000   22.8730 C   0  0  0  0  0  3  0  0  0  0  0  0
  -25.8200  -32.6180   23.8940 C   0  0  0  0  0  3  0  0  0  0  0  0
  -26.3170  -31.8350   25.1710 C   0  0  1  0  0  0  0  0  0  0  0  0
  -25.2040  -31.5770   26.2140 C   0  0  0  0  0  1  0  0  0  0  0  0
  -26.9170  -30.4660   24.7760 C   0  0  0  0  0  1  0  0  0  0  0  0
  -27.4470  -32.6300   25.8660 C   0  0  0  0  0  1  0  0  0  0  0  0
  -25.5010  -34.0130   24.2340 N   0  0  0  0  0  0  0  0  0  0  0  0
  -25.8320  -35.0740   23.4850 C   0  0  0  0  0  0  0  0  0  0  0  0
  -26.5060  -34.9830   22.4550 O   0  0  0  0  0  0  0  0  0  0  0  0
  -24.8980  -34.1570   25.0290 H   0  0  0  0  0  0  0  0  0  0  0  0
  -24.0940  -36.8590   23.1430 C   0  0  0  0  0  1  0  0  0  0  0  0
  -25.3370  -36.4550   23.9510 C   0  0  0  0  0  3  0  0  0  0  0  0
  -27.4620  -37.3500   24.7930 C   0  0  0  0  0  1  0  0  0  0  0  0
  -26.3630  -37.5150   23.8450 N   0  0  0  0  0  0  0  0  0  0  0  0
  -25.9510  -38.4320   23.9970 H   0  0  0  0  0  0  0  0  0  0  0  0
  -30.3770  -17.5310   20.7940 C   0  0  0  0  0  2  0  0  0  0  0  0
  -30.7450  -14.9670   20.5000 C   0  0  0  0  0  0  0  0  0  0  0  0
  -30.6060  -12.7050   19.4560 C   0  0  0  0  0  2  0  0  0  0  0  0
  -29.7010  -12.7890   18.2030 C   0  0  0  0  0  2  0  0  0  0  0  0
  -28.2200  -12.6080   18.5960 C   0  0  0  0  0  2  0  0  0  0  0  0
  -27.8080  -13.4760   19.8170 C   0  0  0  0  0  3  0  0  0  0  0  0
  -28.8370  -13.3660   20.9580 C   0  0  0  0  0  2  0  0  0  0  0  0
  -30.1420  -13.7360   20.4040 N   0  0  0  0  0  0  0  0  0  0  0  0
  -31.9280  -15.1000   20.1730 O   0  0  0  0  0  0  0  0  0  0  0  0
  -29.9560  -16.0670   20.7710 N   0  0  0  0  0  0  0  0  0  0  0  0
  -29.0080  -15.8680   21.0450 H   0  0  0  0  0  0  0  0  0  0  0  0
  -25.3970  -14.0340   20.5000 C   0  0  0  0  0  0  0  0  0  0  0  0
  -24.3340  -13.2460   20.8440 C   0  0  0  0  0  0  0  0  0  0  0  0
  -24.8170  -11.9000   20.8210 C   0  0  0  0  0  0  0  0  0  0  0  0
  -26.4560  -13.1700   20.2770 N   0  0  0  0  0  0  0  0  0  0  0  0
  -26.1150  -11.8820   20.5390 N   0  0  0  0  0  0  0  0  0  0  0  0
  -24.1090  -10.6250   20.9930 C   0  0  0  0  0  0  0  0  0  0  0  0
  -24.5350   -9.6650   21.9390 C   0  0  0  0  0  3  0  0  0  0  0  0
  -23.8210   -8.4580   22.1010 C   0  0  0  0  0  3  0  0  0  0  0  0
  -22.6720   -8.2020   21.3120 C   0  0  0  0  0  0  0  0  0  0  0  0
  -22.2720   -9.1510   20.3530 C   0  0  0  0  0  3  0  0  0  0  0  0
  -22.9860  -10.3480   20.1900 C   0  0  0  0  0  3  0  0  0  0  0  0
  -21.9320   -7.0460   21.3790 O   0  0  0  0  0  0  0  0  0  0  0  0
  -21.8510   -6.3070   22.5350 C   0  0  0  0  0  0  0  0  0  0  0  0
  -21.3420   -6.8560   23.7310 C   0  0  0  0  0  3  0  0  0  0  0  0
  -21.2110   -6.0440   24.8780 C   0  0  0  0  0  3  0  0  0  0  0  0
  -21.5790   -4.6860   24.8250 C   0  0  0  0  0  0  0  0  0  0  0  0
  -22.0800   -4.1370   23.6320 C   0  0  0  0  0  3  0  0  0  0  0  0
  -22.2140   -4.9460   22.4890 C   0  0  0  0  0  0  0  0  0  0  0  0
  -22.6770   -4.4070   21.3360 F   0  0  0  0  0  0  0  0  0  0  0  0
  -21.4460   -3.9060   25.9220 F   0  0  0  0  0  0  0  0  0  0  0  0
  -22.9230  -13.7010   21.0840 C   0  0  0  0  0  0  0  0  0  0  0  0
  -22.1870  -13.0030   21.9420 N   0  0  0  0  0  0  0  0  0  0  0  0
  -22.4800  -14.7180   20.5510 O   0  0  0  0  0  0  0  0  0  0  0  0
  -22.5600  -12.1870   22.4040 H   0  0  0  0  0  0  0  0  0  0  0  0
  -21.2420  -13.2910   22.1440 H   0  0  0  0  0  0  0  0  0  0  0  0
  -25.5420  -15.4070   20.3280 N   0  0  0  0  0  0  0  0  0  0  0  0
  -24.7730  -16.0590   20.4410 H   0  0  0  0  0  0  0  0  0  0  0  0
  -26.3920  -15.8550   20.0190 H   0  0  0  0  0  0  0  0  0  0  0  0
  1  5  1  0
  2  6  2  0
  4  1  2  0
  4  2  1  0
  5 13  1  0
  5  3  2  0
  6  3  1  0
  6 62  1  0
  7  4  1  0
  8  7  1  0
  9 10  1  0
  9  8  1  0
 11  9  1  0
 12  9  1  0
 14 13  1  0
 14 15  1  0
 14 20  1  0
 15 16  1  0
 16 18  1  0
 16 17  1  0
 16 19  1  0
 21 23  1  0
 21 20  1  0
 22 33  2  0
 23 28  1  0
 24 32  1  0
 24 34  1  0
 25 31  1  0
 25 27  1  0
 26 32  1  0
 27 26  1  0
 28 27  2  0
 29 30  1  0
 29 23  2  0
 30 25  2  0
 31 24  1  0
 32 22  1  0
 34 36  2  0
 35 34  1  0
 37 35  1  0
 38 47  2  0
 38 43  1  0
 39 35  1  0
 39 43  1  0
 40 39  1  0
 41 42  1  0
 41 40  1  0
 42 38  1  0
 43 44  2  0
 44 45  1  0
 46 45  2  0
 47 46  1  0
 48 22  1  0
 48 53  1  0
 48 49  1  0
 49 52  1  1
 49 50  1  0
 51 49  1  0
 53 56  1  0
 54 58  1  0
 54 53  1  0
 55 54  2  0
 58 57  1  0
 60 58  1  0
 60 61  1  0
 60 59  1  0
 63 71  1  0
 64 69  1  0
 65 66  1  0
 65 64  1  0
 67 66  1  0
 67 76  1  0
 67 68  1  0
 69 63  1  0
 69 68  1  0
 70 63  2  0
 71 62  1  0
 71 72  1  0
 73 74  2  0
 74 93  1  0
 75 74  1  0
 75 78  1  0
 76 73  1  0
 76 77  1  0
 77 75  2  0
 78 79  1  0
 79 80  2  0
 81 84  1  0
 81 80  1  0
 82 81  2  0
 83 82  1  0
 83 78  2  0
 84 85  1  0
 85 86  1  0
 86 87  2  0
 88 87  1  0
 88 92  1  0
 89 88  2  0
 90 85  2  0
 90 89  1  0
 91 90  1  0
 93 94  1  0
 94 97  1  0
 94 96  1  0
 95 93  2  0
 98 99  1  0
 98 73  1  0
100 98  1  0
M  ISO  4  20 101  21 101  63 100  71 100
M  END
>  <TORSDO>  (68) 
F 25

>  <SCORE>  (68) 
-12.024

>  <name>  (68) 
69

>  <ligand_id>  (68) 
69

>  <original_smiles>  (68) 
[H]c1c([H])c([H])c2c(c1[H])C([H])([H])C([H])([H])C([H])([H])C2([H])N([H])C(=O)C1([H])N(C(=O)C([H])(N([H])C(=O)C([H])(N([H])C([H])([H])[H])C([H])([H])[H])C(C([H])([H])[H])(C([H])([H])[H])C([H])([H])[H])C([H])([H])c2c([H])c(OC([H])([H])C([H])(C([H])([H])c3c([H])c(C([H])([H])N([H])C(=O)N4C([H])([H])C([H])([H])C([H])([H])C([H])(n5nc(-c6c([H])c([H])c(Oc7c([H])c([H])c(F)c([H])c7F)c([H])c6[H])c(C(=O)N([H])[H])c5N([H])[H])C4([H])[H])c([H])c(C([H])([H])C([H])([H])[N+]([H])([H])[H])c3[H])C([H])([H])[N+]([H])([H])[H])c([H])c([H])c2C1([H])[H]

>  <smiles>  (68) 
[H]c1c([H])c([H])c2c(c1[H])C([H])([H])C([H])([H])C([H])([H])C2([H])N([H])C(=O)C1([H])N(C(=O)C([H])(N([H])C(=O)C([H])(N([H])C([H])([H])[H])C([H])([H])[H])C(C([H])([H])[H])(C([H])([H])[H])C([H])([H])[H])C([H])([H])c2c([H])c(OC([H])([H])C([H])(C([H])([H])c3c([H])c(C([H])([H])N([H])C(=O)N4C([H])([H])C([H])([H])C([H])([H])C([H])(n5nc(-c6c([H])c([H])c(Oc7c([H])c([H])c(F)c([H])c7F)c([H])c6[H])c(C(=O)N([H])[H])c5N([H])[H])C4([H])[H])c([H])c(C([H])([H])C([H])([H])[N+]([H])([H])[H])c3[H])C([H])([H])[N+]([H])([H])[H])c([H])c([H])c2C1([H])[H]

$$$$
70:0:0
     RDKit          3D

 98107  0  0  1  0  0  0  0  0999 V2000
  -31.6840  -21.3490   19.9240 C   0  0  0  0  0  2  0  0  0  0  0  0
  -29.5390  -21.5730   21.2990 C   0  0  0  0  0  2  0  0  0  0  0  0
  -31.9910  -22.8160   20.2810 C   0  0  0  0  0  2  0  0  0  0  0  0
  -29.9530  -23.0220   21.6080 C   0  0  0  0  0  2  0  0  0  0  0  0
  -30.7260  -20.6550   20.9270 C   0  0  0  0  0  3  0  0  0  0  0  0
  -30.7370  -23.5860   20.4820 N   0  0  1  0  0  4  0  0  0  0  0  0
  -30.1820  -23.4480   19.6520 H   0  0  0  0  0  0  0  0  0  0  0  0
  -29.5020  -19.3400   19.1420 C   0  0  0  0  0  3  0  0  0  0  0  0
  -28.9370  -18.1650   18.6310 C   0  0  0  0  0  3  0  0  0  0  0  0
  -30.3000  -18.1220   21.1040 C   0  0  0  0  0  3  0  0  0  0  0  0
  -30.1870  -19.3350   20.3780 C   0  0  0  0  0  0  0  0  0  0  0  0
  -29.7220  -16.9330   20.5930 C   0  0  0  0  0  0  0  0  0  0  0  0
  -29.0390  -16.9680   19.3550 C   0  0  0  0  0  0  0  0  0  0  0  0
  -28.4550  -15.8600   18.8490 F   0  0  0  0  0  0  0  0  0  0  0  0
  -30.5650  -14.7070   20.9780 C   0  0  0  0  0  0  0  0  0  0  0  0
  -30.4470  -12.5030   19.9110 C   0  0  0  0  0  2  0  0  0  0  0  0
  -29.5690  -12.6250   18.6490 C   0  0  0  0  0  2  0  0  0  0  0  0
  -28.0760  -12.4440   18.9940 C   0  0  0  0  0  2  0  0  0  0  0  0
  -27.6210  -13.2880   20.2160 C   0  0  0  0  0  3  0  0  0  0  0  0
  -28.6210  -13.1470   21.3860 C   0  0  0  0  0  2  0  0  0  0  0  0
  -29.9650  -13.4900   20.8870 N   0  0  0  0  0  0  0  0  0  0  0  0
  -31.7240  -14.9210   20.6140 O   0  0  0  0  0  0  0  0  0  0  0  0
  -29.7620  -15.7180   21.3340 N   0  0  0  0  0  0  0  0  0  0  0  0
  -28.8680  -15.4160   21.6900 H   0  0  0  0  0  0  0  0  0  0  0  0
  -25.1650  -13.8040   20.7920 C   0  0  0  0  0  0  0  0  0  0  0  0
  -24.1070  -12.9890   21.0970 C   0  0  0  0  0  0  0  0  0  0  0  0
  -24.6210  -11.6560   21.0780 C   0  0  0  0  0  0  0  0  0  0  0  0
  -26.2540  -12.9620   20.6150 N   0  0  0  0  0  0  0  0  0  0  0  0
  -25.9260  -11.6670   20.8430 N   0  0  0  0  0  0  0  0  0  0  0  0
  -23.9370  -10.3650   21.2160 C   0  0  0  0  0  0  0  0  0  0  0  0
  -24.3540   -9.4040   22.1630 C   0  0  0  0  0  3  0  0  0  0  0  0
  -23.6670   -8.1770   22.2890 C   0  0  0  0  0  3  0  0  0  0  0  0
  -22.5500   -7.9010   21.4640 C   0  0  0  0  0  0  0  0  0  0  0  0
  -22.1550   -8.8510   20.5050 C   0  0  0  0  0  3  0  0  0  0  0  0
  -22.8430  -10.0690   20.3780 C   0  0  0  0  0  3  0  0  0  0  0  0
  -21.8410   -6.7250   21.4970 O   0  0  0  0  0  0  0  0  0  0  0  0
  -21.7560   -5.9690   22.6380 C   0  0  0  0  0  0  0  0  0  0  0  0
  -21.1940   -6.4780   23.8290 C   0  0  0  0  0  3  0  0  0  0  0  0
  -21.0620   -5.6450   24.9580 C   0  0  0  0  0  3  0  0  0  0  0  0
  -21.4800   -4.3020   24.8950 C   0  0  0  0  0  0  0  0  0  0  0  0
  -22.0360   -3.7930   23.7090 C   0  0  0  0  0  3  0  0  0  0  0  0
  -22.1700   -4.6240   22.5830 C   0  0  0  0  0  0  0  0  0  0  0  0
  -22.6860   -4.1230   21.4350 F   0  0  0  0  0  0  0  0  0  0  0  0
  -21.3460   -3.4980   25.9770 F   0  0  0  0  0  0  0  0  0  0  0  0
  -22.6800  -13.4100   21.2960 C   0  0  0  0  0  0  0  0  0  0  0  0
  -21.9290  -12.6730   22.1080 N   0  0  0  0  0  0  0  0  0  0  0  0
  -22.2330  -14.4280   20.7680 O   0  0  0  0  0  0  0  0  0  0  0  0
  -22.3010  -11.8500   22.5580 H   0  0  0  0  0  0  0  0  0  0  0  0
  -20.9720  -12.9410   22.2880 H   0  0  0  0  0  0  0  0  0  0  0  0
  -25.2900  -15.1800   20.6300 N   0  0  0  0  0  0  0  0  0  0  0  0
  -24.4930  -15.8060   20.6910 H   0  0  0  0  0  0  0  0  0  0  0  0
  -26.1270  -15.6340   20.2890 H   0  0  0  0  0  0  0  0  0  0  0  0
  -30.9430  -25.0570   20.5630 C   0  0  0  0  0  2  0  0  0  0  0  0
  -30.5110  -25.7700   19.2540 C   0  0  0  0  0  3  0  0  0  0  0  0
  -31.1620  -27.0260   19.1270 O   0  0  0  0  0  0  0  0  0  0  0  0
  -30.7210  -27.6250   19.7250 H   0  0  0  0  0  0  0  0  0  0  0  0
  -28.9950  -26.0400   19.1430 C   0  0  0  0  0  2  0  0  0  0  0  0
  -28.6530  -26.9020   20.2220 O   0  0  0  0  0  0  0  0  0  0  0  0
  -24.7030  -31.9120   23.2860 C   0  0  0  0  0  0  0  0  0  0  0  0
  -27.4410  -27.5510   20.1920 C   0  0  0  0  0  0  0  0  0  0  0  0
  -23.5250  -30.5020   21.6250 C   0  0  0  0  0  3  0  0  0  0  0  0
  -25.0110  -28.9890   20.2070 C   0  0  0  0  0  0  0  0  0  0  0  0
  -26.0410  -30.9020   21.4470 C   0  0  0  0  0  2  0  0  0  0  0  0
  -26.1490  -29.5330   20.8100 C   0  0  0  0  0  0  0  0  0  0  0  0
  -27.3610  -28.8140   20.8120 C   0  0  0  0  0  3  0  0  0  0  0  0
  -26.2850  -27.0040   19.5910 C   0  0  0  0  0  3  0  0  0  0  0  0
  -25.0690  -27.7190   19.6000 C   0  0  0  0  0  3  0  0  0  0  0  0
  -23.7540  -29.8280   20.2440 C   0  0  0  0  0  2  0  0  0  0  0  0
  -24.7730  -31.1200   22.1790 N   0  0  0  0  0  0  0  0  0  0  0  0
  -23.6150  -32.1680   23.8200 O   0  0  0  0  0  0  0  0  0  0  0  0
  -22.8810  -29.4690   22.5780 C   0  0  0  0  0  0  0  0  0  0  0  0
  -21.5590  -29.2770   22.4440 N   0  0  0  0  0  0  0  0  0  0  0  0
  -23.5680  -28.8430   23.3890 O   0  0  0  0  0  0  0  0  0  0  0  0
  -21.0670  -29.8380   21.7620 H   0  0  0  0  0  0  0  0  0  0  0  0
  -18.1900  -28.0700   22.9340 C   0  0  0  0  0  0  0  0  0  0  0  0
  -20.7470  -28.3280   23.2050 C   0  0  0  0  0  3  0  0  0  0  0  0
  -20.8500  -26.9040   22.6120 C   0  0  0  0  0  2  0  0  0  0  0  0
  -19.7490  -26.5930   21.5940 C   0  0  0  0  0  2  0  0  0  0  0  0
  -18.3670  -26.7290   22.2410 C   0  0  0  0  0  2  0  0  0  0  0  0
  -19.3080  -28.8280   23.3720 C   0  0  0  0  0  0  0  0  0  0  0  0
  -19.0890  -30.0830   23.9790 C   0  0  0  0  0  3  0  0  0  0  0  0
  -17.7850  -30.5820   24.1520 C   0  0  0  0  0  3  0  0  0  0  0  0
  -16.6810  -29.8210   23.7290 C   0  0  0  0  0  3  0  0  0  0  0  0
  -16.8850  -28.5670   23.1270 C   0  0  0  0  0  3  0  0  0  0  0  0
  -25.9770  -32.5560   23.9180 C   0  0  0  0  0  3  0  0  0  0  0  0
  -25.6580  -33.9550   24.2290 N   0  0  0  0  0  0  0  0  0  0  0  0
  -25.9870  -34.9990   23.4560 C   0  0  0  0  0  0  0  0  0  0  0  0
  -26.6620  -34.8860   22.4280 O   0  0  0  0  0  0  0  0  0  0  0  0
  -25.0600  -34.1170   25.0260 H   0  0  0  0  0  0  0  0  0  0  0  0
  -24.2520  -36.7770   23.0630 C   0  0  0  0  0  1  0  0  0  0  0  0
  -25.4870  -36.3900   23.8920 C   0  0  0  0  0  3  0  0  0  0  0  0
  -27.6050  -37.3010   24.7380 C   0  0  0  0  0  1  0  0  0  0  0  0
  -26.5150  -37.4480   23.7760 N   0  0  0  0  0  0  0  0  0  0  0  0
  -26.1010  -38.3670   23.9030 H   0  0  0  0  0  0  0  0  0  0  0  0
  -26.4840  -31.7980   25.2070 C   0  0  1  0  0  0  0  0  0  0  0  0
  -25.3810  -31.5640   26.2640 C   0  0  0  0  0  1  0  0  0  0  0  0
  -27.0790  -30.4220   24.8300 C   0  0  0  0  0  1  0  0  0  0  0  0
  -27.6220  -32.6050   25.8770 C   0  0  0  0  0  1  0  0  0  0  0  0
  1  3  1  0
  1  5  1  0
  2  4  1  0
  3  6  1  0
  5 11  1  0
  5  2  1  0
  6 53  1  0
  6  4  1  0
  6  7  1  6
  8 11  1  0
  9  8  2  0
  9 13  1  0
 11 10  2  0
 12 10  1  0
 12 23  1  0
 13 12  2  0
 14 13  1  0
 15 23  1  0
 16 21  1  0
 17 18  1  0
 17 16  1  0
 19 18  1  0
 19 28  1  0
 19 20  1  0
 21 15  1  0
 21 20  1  0
 22 15  2  0
 23 24  1  0
 25 26  2  0
 26 45  1  0
 27 26  1  0
 27 30  1  0
 28 25  1  0
 28 29  1  0
 29 27  2  0
 30 31  1  0
 31 32  2  0
 33 36  1  0
 33 32  1  0
 34 33  2  0
 35 34  1  0
 35 30  2  0
 36 37  1  0
 37 38  1  0
 38 39  2  0
 40 39  1  0
 40 44  1  0
 41 40  2  0
 42 37  2  0
 42 41  1  0
 43 42  1  0
 45 46  1  0
 46 49  1  0
 46 48  1  0
 47 45  2  0
 50 51  1  0
 50 25  1  0
 52 50  1  0
 54 57  1  0
 54 53  1  0
 55 54  1  0
 55 56  1  0
 57 58  1  0
 59 70  2  0
 60 58  1  0
 60 65  1  0
 61 69  1  0
 61 71  1  0
 62 68  1  0
 62 64  1  0
 63 69  1  0
 64 65  2  0
 64 63  1  0
 66 67  1  0
 66 60  2  0
 67 62  2  0
 68 61  1  0
 69 59  1  0
 71 73  2  0
 72 71  1  0
 74 72  1  0
 75 84  2  0
 75 80  1  0
 76 72  1  0
 76 80  1  0
 77 76  1  0
 78 79  1  0
 78 77  1  0
 79 75  1  0
 80 81  2  0
 81 82  1  0
 83 82  2  0
 84 83  1  0
 85 59  1  0
 85 86  1  0
 85 95  1  0
 86 89  1  0
 87 91  1  0
 87 86  1  0
 88 87  2  0
 91 90  1  0
 93 91  1  0
 93 94  1  0
 93 92  1  0
 95 98  1  1
 95 96  1  0
 97 95  1  0
M  ISO  4  15 100  23 100  57 101  58 101
M  END
>  <TORSDO>  (69) 
F 21

>  <SCORE>  (69) 
-13.913

>  <name>  (69) 
70

>  <ligand_id>  (69) 
70

>  <original_smiles>  (69) 
[H]OC([H])(C([H])([H])Oc1c([H])c([H])c2c(c1[H])C([H])([H])N(C(=O)C([H])(N([H])C(=O)C([H])(N([H])C([H])([H])[H])C([H])([H])[H])C(C([H])([H])[H])(C([H])([H])[H])C([H])([H])[H])C([H])(C(=O)N([H])C1([H])c3c([H])c([H])c([H])c([H])c3C([H])([H])C([H])([H])C1([H])[H])C2([H])[H])C([H])([H])[N+]1([H])C([H])([H])C([H])([H])C([H])(c2c([H])c([H])c(F)c(N([H])C(=O)N3C([H])([H])C([H])([H])C([H])([H])C([H])(n4nc(-c5c([H])c([H])c(Oc6c([H])c([H])c(F)c([H])c6F)c([H])c5[H])c(C(=O)N([H])[H])c4N([H])[H])C3([H])[H])c2[H])C([H])([H])C1([H])[H]

>  <smiles>  (69) 
[H]OC([H])(C([H])([H])Oc1c([H])c([H])c2c(c1[H])C([H])([H])N(C(=O)C([H])(N([H])C(=O)C([H])(N([H])C([H])([H])[H])C([H])([H])[H])C(C([H])([H])[H])(C([H])([H])[H])C([H])([H])[H])C([H])(C(=O)N([H])C1([H])c3c([H])c([H])c([H])c([H])c3C([H])([H])C([H])([H])C1([H])[H])C2([H])[H])C([H])([H])[N+]1([H])C([H])([H])C([H])([H])C([H])(c2c([H])c([H])c(F)c(N([H])C(=O)N3C([H])([H])C([H])([H])C([H])([H])C([H])(n4nc(-c5c([H])c([H])c(Oc6c([H])c([H])c(F)c([H])c6F)c([H])c5[H])c(C(=O)N([H])[H])c4N([H])[H])C3([H])[H])c2[H])C([H])([H])C1([H])[H]

$$$$
71:0:0
     RDKit          3D

 90 98  0  0  1  0  0  0  0  0999 V2000
  -31.5640  -20.2770   20.2210 C   0  0  0  0  0  2  0  0  0  0  0  0
  -31.0960  -21.5580   20.8920 C   0  0  0  0  0  2  0  0  0  0  0  0
  -30.1130  -19.9550   19.8690 C   0  0  0  0  0  3  0  0  0  0  0  0
  -29.6920  -21.2210   20.6140 N   0  0  2  0  0  4  0  0  0  0  0  0
  -29.2250  -20.9570   21.4710 H   0  0  0  0  0  0  0  0  0  0  0  0
  -29.6220  -18.5520   20.4080 C   0  0  0  0  0  0  0  0  0  0  0  0
  -28.6670  -18.3790   21.1690 O   0  0  0  0  0  0  0  0  0  0  0  0
  -30.4310  -17.2670   19.9290 C   0  0  0  0  0  2  0  0  0  0  0  0
  -30.6470  -14.7130   20.0080 C   0  0  0  0  0  0  0  0  0  0  0  0
  -30.3350  -12.4800   18.9600 C   0  0  0  0  0  2  0  0  0  0  0  0
  -29.3440  -12.6160   17.7840 C   0  0  0  0  0  2  0  0  0  0  0  0
  -27.8940  -12.4510   18.2820 C   0  0  0  0  0  2  0  0  0  0  0  0
  -27.5910  -13.3030   19.5450 C   0  0  0  0  0  3  0  0  0  0  0  0
  -28.7050  -13.1810   20.6080 C   0  0  0  0  0  2  0  0  0  0  0  0
  -29.9790  -13.5130   19.9570 N   0  0  0  0  0  0  0  0  0  0  0  0
  -31.8050  -14.7950   19.5900 O   0  0  0  0  0  0  0  0  0  0  0  0
  -29.9510  -15.8680   20.2890 N   0  0  0  0  0  0  0  0  0  0  0  0
  -28.9980  -15.7830   20.6110 H   0  0  0  0  0  0  0  0  0  0  0  0
  -25.2360  -13.8710   20.3940 C   0  0  0  0  0  0  0  0  0  0  0  0
  -24.1950  -13.0890   20.8110 C   0  0  0  0  0  0  0  0  0  0  0  0
  -24.6630  -11.7400   20.7460 C   0  0  0  0  0  0  0  0  0  0  0  0
  -26.2730  -13.0020   20.0980 N   0  0  0  0  0  0  0  0  0  0  0  0
  -25.9360  -11.7130   20.3730 N   0  0  0  0  0  0  0  0  0  0  0  0
  -23.9530  -10.4720   20.9620 C   0  0  0  0  0  0  0  0  0  0  0  0
  -24.4140   -9.5130   21.8910 C   0  0  0  0  0  3  0  0  0  0  0  0
  -23.7020   -8.3110   22.0930 C   0  0  0  0  0  3  0  0  0  0  0  0
  -22.5140   -8.0590   21.3680 C   0  0  0  0  0  0  0  0  0  0  0  0
  -22.0710   -9.0060   20.4280 C   0  0  0  0  0  3  0  0  0  0  0  0
  -22.7850  -10.1990   20.2230 C   0  0  0  0  0  3  0  0  0  0  0  0
  -21.7700   -6.9080   21.4800 O   0  0  0  0  0  0  0  0  0  0  0  0
  -21.7360   -6.1850   22.6460 C   0  0  0  0  0  0  0  0  0  0  0  0
  -21.2960   -6.7520   23.8620 C   0  0  0  0  0  3  0  0  0  0  0  0
  -21.2100   -5.9520   25.0200 C   0  0  0  0  0  3  0  0  0  0  0  0
  -21.5550   -4.5880   24.9630 C   0  0  0  0  0  0  0  0  0  0  0  0
  -21.9900   -4.0220   23.7530 C   0  0  0  0  0  3  0  0  0  0  0  0
  -22.0780   -4.8180   22.5960 C   0  0  0  0  0  0  0  0  0  0  0  0
  -22.4760   -4.2620   21.4270 F   0  0  0  0  0  0  0  0  0  0  0  0
  -21.4650   -3.8200   26.0740 F   0  0  0  0  0  0  0  0  0  0  0  0
  -22.8110  -13.5570   21.1520 C   0  0  0  0  0  0  0  0  0  0  0  0
  -22.1270  -12.8500   22.0440 N   0  0  0  0  0  0  0  0  0  0  0  0
  -22.3460  -14.5860   20.6630 O   0  0  0  0  0  0  0  0  0  0  0  0
  -22.5140  -12.0180   22.4640 H   0  0  0  0  0  0  0  0  0  0  0  0
  -21.2000  -13.1480   22.3140 H   0  0  0  0  0  0  0  0  0  0  0  0
  -25.3810  -15.2450   20.2200 N   0  0  0  0  0  0  0  0  0  0  0  0
  -24.6100  -15.8870   20.3740 H   0  0  0  0  0  0  0  0  0  0  0  0
  -26.2040  -15.6980   19.8440 H   0  0  0  0  0  0  0  0  0  0  0  0
  -28.9430  -22.3590   19.9050 C   0  0  0  0  0  2  0  0  0  0  0  0
  -29.1040  -23.8720   20.4650 C   0  0  0  0  0  3  0  0  0  0  0  0
  -28.1640  -25.0210   19.8670 C   0  0  0  0  0  3  0  0  0  0  0  0
  -28.3790  -26.4600   20.1970 O   0  0  0  0  0  0  0  0  0  0  0  0
  -24.6740  -31.8530   23.2670 C   0  0  0  0  0  0  0  0  0  0  0  0
  -27.2820  -27.3430   20.1260 C   0  0  0  0  0  0  0  0  0  0  0  0
  -23.4790  -30.5070   21.5790 C   0  0  0  0  0  3  0  0  0  0  0  0
  -24.9340  -28.9880   20.1270 C   0  0  0  0  0  0  0  0  0  0  0  0
  -26.0240  -30.8070   21.4350 C   0  0  0  0  0  2  0  0  0  0  0  0
  -26.1000  -29.4460   20.7530 C   0  0  0  0  0  0  0  0  0  0  0  0
  -27.2750  -28.6330   20.7470 C   0  0  0  0  0  3  0  0  0  0  0  0
  -26.0970  -26.9560   19.4560 C   0  0  0  0  0  3  0  0  0  0  0  0
  -24.9350  -27.7490   19.4700 C   0  0  0  0  0  3  0  0  0  0  0  0
  -23.7040  -29.8700   20.1840 C   0  0  0  0  0  2  0  0  0  0  0  0
  -24.7440  -31.0710   22.1500 N   0  0  0  0  0  0  0  0  0  0  0  0
  -23.5880  -32.1250   23.7980 O   0  0  0  0  0  0  0  0  0  0  0  0
  -22.7990  -29.4680   22.5040 C   0  0  0  0  0  0  0  0  0  0  0  0
  -21.4690  -29.3240   22.3800 N   0  0  0  0  0  0  0  0  0  0  0  0
  -23.4690  -28.7970   23.2950 O   0  0  0  0  0  0  0  0  0  0  0  0
  -20.9870  -29.9180   21.7200 H   0  0  0  0  0  0  0  0  0  0  0  0
  -18.0680  -28.1980   22.8720 C   0  0  0  0  0  0  0  0  0  0  0  0
  -20.6350  -28.3780   23.1230 C   0  0  0  0  0  3  0  0  0  0  0  0
  -20.6920  -26.9670   22.4910 C   0  0  0  0  0  2  0  0  0  0  0  0
  -19.5710  -26.7150   21.4770 C   0  0  0  0  0  2  0  0  0  0  0  0
  -18.2000  -26.8720   22.1420 C   0  0  0  0  0  2  0  0  0  0  0  0
  -19.2120  -28.9110   23.3200 C   0  0  0  0  0  0  0  0  0  0  0  0
  -19.0320  -30.1560   23.9620 C   0  0  0  0  0  3  0  0  0  0  0  0
  -17.7430  -30.6840   24.1630 C   0  0  0  0  0  3  0  0  0  0  0  0
  -16.6150  -29.9650   23.7330 C   0  0  0  0  0  3  0  0  0  0  0  0
  -16.7780  -28.7250   23.0920 C   0  0  0  0  0  3  0  0  0  0  0  0
  -25.9560  -32.4610   23.9160 C   0  0  0  0  0  3  0  0  0  0  0  0
  -25.6570  -33.8560   24.2670 N   0  0  0  0  0  0  0  0  0  0  0  0
  -26.0060  -34.9180   23.5290 C   0  0  0  0  0  0  0  0  0  0  0  0
  -26.6810  -34.8260   22.5000 O   0  0  0  0  0  0  0  0  0  0  0  0
  -25.0590  -34.0040   25.0660 H   0  0  0  0  0  0  0  0  0  0  0  0
  -24.2990  -36.7350   23.1950 C   0  0  0  0  0  1  0  0  0  0  0  0
  -25.5300  -36.3020   24.0080 C   0  0  0  0  0  3  0  0  0  0  0  0
  -27.6630  -37.1570   24.8740 C   0  0  0  0  0  1  0  0  0  0  0  0
  -26.5730  -37.3470   23.9210 N   0  0  0  0  0  0  0  0  0  0  0  0
  -26.1720  -38.2690   24.0780 H   0  0  0  0  0  0  0  0  0  0  0  0
  -26.4470  -31.6610   25.1870 C   0  0  1  0  0  0  0  0  0  0  0  0
  -25.3380  -31.4190   26.2360 C   0  0  0  0  0  1  0  0  0  0  0  0
  -27.0220  -30.2850   24.7820 C   0  0  0  0  0  1  0  0  0  0  0  0
  -27.5940  -32.4340   25.8810 C   0  0  0  0  0  1  0  0  0  0  0  0
  1  2  1  0
  3  1  1  0
  3  6  1  0
  3  4  1  0
  4  2  1  0
  4  5  1  1
  6  7  2  0
  8 17  1  0
  8  6  1  0
  9 17  1  0
 10 15  1  0
 11 12  1  0
 11 10  1  0
 13 12  1  0
 13 22  1  0
 13 14  1  0
 15  9  1  0
 15 14  1  0
 16  9  2  0
 17 18  1  0
 19 20  2  0
 20 39  1  0
 21 20  1  0
 21 24  1  0
 22 23  1  0
 22 19  1  0
 23 21  2  0
 24 25  1  0
 25 26  2  0
 27 30  1  0
 27 26  1  0
 28 27  2  0
 29 28  1  0
 29 24  2  0
 30 31  1  0
 31 32  1  0
 32 33  2  0
 34 33  1  0
 34 38  1  0
 35 34  2  0
 36 31  2  0
 36 35  1  0
 37 36  1  0
 39 40  1  0
 40 43  1  0
 40 42  1  0
 41 39  2  0
 44 45  1  0
 44 19  1  0
 46 44  1  0
 47 48  1  0
 47  4  1  0
 49 50  1  0
 49 48  2  0
 51 62  2  0
 52 50  1  0
 52 57  1  0
 53 61  1  0
 53 63  1  0
 54 60  1  0
 54 56  1  0
 55 61  1  0
 56 55  1  0
 57 56  2  0
 58 59  1  0
 58 52  2  0
 59 54  2  0
 60 53  1  0
 61 51  1  0
 63 65  2  0
 64 63  1  0
 66 64  1  0
 67 76  2  0
 67 72  1  0
 68 64  1  0
 68 72  1  0
 69 68  1  0
 70 71  1  0
 70 69  1  0
 71 67  1  0
 72 73  2  0
 73 74  1  0
 75 74  2  0
 76 75  1  0
 77 51  1  0
 77 78  1  0
 77 87  1  0
 78 81  1  0
 79 83  1  0
 79 78  1  0
 80 79  2  0
 83 82  1  0
 85 83  1  0
 85 86  1  0
 85 84  1  0
 87 90  1  1
 87 88  1  0
 89 87  1  0
M  ISO  4   9 100  17 100  49 101  50 101
M  END
>  <TORSDO>  (70) 
F 21

>  <SCORE>  (70) 
-13.056

>  <name>  (70) 
71

>  <ligand_id>  (70) 
71

>  <original_smiles>  (70) 
[H]c1c([H])c([H])c2c(c1[H])C([H])([H])C([H])([H])C([H])([H])C2([H])N([H])C(=O)C1([H])N(C(=O)C([H])(N([H])C(=O)C([H])(N([H])C([H])([H])[H])C([H])([H])[H])C(C([H])([H])[H])(C([H])([H])[H])C([H])([H])[H])C([H])([H])c2c([H])c(OC([H])([H])C([H])([H])C([H])([H])[N+]3([H])C([H])([H])C([H])([H])C3([H])C(=O)C([H])([H])N([H])C(=O)N3C([H])([H])C([H])([H])C([H])([H])C([H])(n4nc(-c5c([H])c([H])c(Oc6c([H])c([H])c(F)c([H])c6F)c([H])c5[H])c(C(=O)N([H])[H])c4N([H])[H])C3([H])[H])c([H])c([H])c2C1([H])[H]

>  <smiles>  (70) 
[H]c1c([H])c([H])c2c(c1[H])C([H])([H])C([H])([H])C([H])([H])C2([H])N([H])C(=O)C1([H])N(C(=O)C([H])(N([H])C(=O)C([H])(N([H])C([H])([H])[H])C([H])([H])[H])C(C([H])([H])[H])(C([H])([H])[H])C([H])([H])[H])C([H])([H])c2c([H])c(OC([H])([H])C([H])([H])C([H])([H])[N+]3([H])C([H])([H])C([H])([H])C3([H])C(=O)C([H])([H])N([H])C(=O)N3C([H])([H])C([H])([H])C([H])([H])C([H])(n4nc(-c5c([H])c([H])c(Oc6c([H])c([H])c(F)c([H])c6F)c([H])c5[H])c(C(=O)N([H])[H])c4N([H])[H])C3([H])[H])c([H])c([H])c2C1([H])[H]

$$$$
72:0:0
     RDKit          3D

 92101  0  0  1  0  0  0  0  0999 V2000
  -27.4140  -21.5260   21.4750 C   0  0  0  0  0  2  0  0  0  0  0  0
  -26.9370  -22.8370   20.8730 C   0  0  0  0  0  2  0  0  0  0  0  0
  -28.8370  -21.8910   21.0650 C   0  0  0  0  0  3  0  0  0  0  0  0
  -28.3140  -23.1680   20.4780 N   0  0  2  0  0  4  0  0  0  0  0  0
  -28.4030  -23.1250   19.4740 H   0  0  0  0  0  0  0  0  0  0  0  0
  -29.5450  -20.9650   20.0360 C   0  0  0  0  0  2  0  0  0  0  0  0
  -29.5930  -18.4470   20.4820 C   0  0  0  0  0  0  0  0  0  0  0  0
  -30.1160  -19.6950   20.5630 N   0  0  0  0  0  0  0  0  0  0  0  0
  -28.3800  -18.2460   20.3890 O   0  0  0  0  0  0  0  0  0  0  0  0
  -31.1120  -19.7230   20.7290 H   0  0  0  0  0  0  0  0  0  0  0  0
  -31.0010  -14.8410   20.4460 C   0  0  0  0  0  0  0  0  0  0  0  0
  -30.7490  -12.6300   19.4150 C   0  0  0  0  0  2  0  0  0  0  0  0
  -29.8280  -12.8000   18.1850 C   0  0  0  0  0  2  0  0  0  0  0  0
  -28.3460  -12.6620   18.5850 C   0  0  0  0  0  2  0  0  0  0  0  0
  -27.9750  -13.5340   19.8140 C   0  0  0  0  0  3  0  0  0  0  0  0
  -29.0130  -13.3710   20.9450 C   0  0  0  0  0  2  0  0  0  0  0  0
  -30.3410  -13.6520   20.3880 N   0  0  0  0  0  0  0  0  0  0  0  0
  -32.2200  -14.9230   20.2780 O   0  0  0  0  0  0  0  0  0  0  0  0
  -30.4800  -16.6700   19.0150 C   0  0  0  0  0  2  0  0  0  0  0  0
  -30.6240  -17.3420   20.3340 C   0  0  0  0  0  3  0  0  0  0  0  0
  -30.2210  -15.9330   20.2190 N   0  0  0  0  0  0  0  0  0  0  0  0
  -25.5730  -14.1530   20.4830 C   0  0  0  0  0  0  0  0  0  0  0  0
  -24.4910  -13.3880   20.8230 C   0  0  0  0  0  0  0  0  0  0  0  0
  -24.9430  -12.0340   20.8050 C   0  0  0  0  0  0  0  0  0  0  0  0
  -26.6170  -13.2640   20.2740 N   0  0  0  0  0  0  0  0  0  0  0  0
  -26.2390  -11.9840   20.5290 N   0  0  0  0  0  0  0  0  0  0  0  0
  -24.2050  -10.7760   20.9770 C   0  0  0  0  0  0  0  0  0  0  0  0
  -24.5850   -9.8260   21.9500 C   0  0  0  0  0  3  0  0  0  0  0  0
  -23.8470   -8.6330   22.1120 C   0  0  0  0  0  3  0  0  0  0  0  0
  -22.7160   -8.3830   21.2970 C   0  0  0  0  0  0  0  0  0  0  0  0
  -22.3540   -9.3250   20.3190 C   0  0  0  0  0  3  0  0  0  0  0  0
  -23.0920  -10.5090   20.1560 C   0  0  0  0  0  3  0  0  0  0  0  0
  -21.9550   -7.2390   21.3630 O   0  0  0  0  0  0  0  0  0  0  0  0
  -21.8210   -6.5330   22.5300 C   0  0  0  0  0  0  0  0  0  0  0  0
  -21.2670   -7.1100   23.6950 C   0  0  0  0  0  3  0  0  0  0  0  0
  -21.0800   -6.3260   24.8490 C   0  0  0  0  0  3  0  0  0  0  0  0
  -21.4390   -4.9640   24.8420 C   0  0  0  0  0  0  0  0  0  0  0  0
  -21.9860   -4.3870   23.6830 C   0  0  0  0  0  3  0  0  0  0  0  0
  -22.1740   -5.1670   22.5300 C   0  0  0  0  0  0  0  0  0  0  0  0
  -22.6810   -4.6000   21.4090 F   0  0  0  0  0  0  0  0  0  0  0  0
  -21.2540   -4.2090   25.9510 F   0  0  0  0  0  0  0  0  0  0  0  0
  -23.0890  -13.8810   21.0540 C   0  0  0  0  0  0  0  0  0  0  0  0
  -22.3290  -13.1990   21.9040 N   0  0  0  0  0  0  0  0  0  0  0  0
  -22.6750  -14.9050   20.5160 O   0  0  0  0  0  0  0  0  0  0  0  0
  -22.6710  -12.3670   22.3590 H   0  0  0  0  0  0  0  0  0  0  0  0
  -21.3880  -13.5120   22.0900 H   0  0  0  0  0  0  0  0  0  0  0  0
  -25.7580  -15.5200   20.3140 N   0  0  0  0  0  0  0  0  0  0  0  0
  -25.0210  -16.1940   20.4780 H   0  0  0  0  0  0  0  0  0  0  0  0
  -26.6510  -15.9490   20.1020 H   0  0  0  0  0  0  0  0  0  0  0  0
  -28.8030  -24.4970   20.9940 C   0  0  0  0  0  2  0  0  0  0  0  0
  -28.9100  -25.5930   19.8820 C   0  0  0  0  0  2  0  0  0  0  0  0
  -28.7810  -26.9670   20.3470 O   0  0  0  0  0  0  0  0  0  0  0  0
  -24.6400  -31.9880   23.2940 C   0  0  0  0  0  0  0  0  0  0  0  0
  -27.5710  -27.6510   20.2810 C   0  0  0  0  0  0  0  0  0  0  0  0
  -23.5590  -30.5700   21.5840 C   0  0  0  0  0  3  0  0  0  0  0  0
  -25.1270  -29.1100   20.2090 C   0  0  0  0  0  0  0  0  0  0  0  0
  -26.0820  -31.0150   21.5050 C   0  0  0  0  0  2  0  0  0  0  0  0
  -26.2460  -29.6560   20.8490 C   0  0  0  0  0  0  0  0  0  0  0  0
  -27.4660  -28.9360   20.8770 C   0  0  0  0  0  3  0  0  0  0  0  0
  -26.4190  -27.1300   19.6410 C   0  0  0  0  0  3  0  0  0  0  0  0
  -25.2130  -27.8480   19.6050 C   0  0  0  0  0  3  0  0  0  0  0  0
  -23.8550  -29.9250   20.2060 C   0  0  0  0  0  2  0  0  0  0  0  0
  -24.7750  -31.2080   22.1850 N   0  0  0  0  0  0  0  0  0  0  0  0
  -23.5280  -32.2100   23.7920 O   0  0  0  0  0  0  0  0  0  0  0  0
  -22.9040  -29.5090   22.4990 C   0  0  0  0  0  0  0  0  0  0  0  0
  -21.5930  -29.2840   22.3150 N   0  0  0  0  0  0  0  0  0  0  0  0
  -23.5770  -28.8940   23.3300 O   0  0  0  0  0  0  0  0  0  0  0  0
  -21.1070  -29.8360   21.6220 H   0  0  0  0  0  0  0  0  0  0  0  0
  -18.2370  -27.9920   22.6810 C   0  0  0  0  0  0  0  0  0  0  0  0
  -20.7800  -28.3020   23.0360 C   0  0  0  0  0  3  0  0  0  0  0  0
  -20.9320  -26.8910   22.4210 C   0  0  0  0  0  2  0  0  0  0  0  0
  -19.8690  -26.5730   21.3660 C   0  0  0  0  0  2  0  0  0  0  0  0
  -18.4660  -26.6660   21.9720 C   0  0  0  0  0  2  0  0  0  0  0  0
  -19.3240  -28.7660   23.1660 C   0  0  0  0  0  0  0  0  0  0  0  0
  -19.0570  -30.0090   23.7840 C   0  0  0  0  0  3  0  0  0  0  0  0
  -17.7370  -30.4750   23.9210 C   0  0  0  0  0  3  0  0  0  0  0  0
  -16.6630  -29.6960   23.4530 C   0  0  0  0  0  3  0  0  0  0  0  0
  -16.9150  -28.4550   22.8400 C   0  0  0  0  0  3  0  0  0  0  0  0
  -25.8740  -32.6580   23.9760 C   0  0  0  0  0  3  0  0  0  0  0  0
  -26.3220  -31.9260   25.3020 C   0  0  1  0  0  0  0  0  0  0  0  0
  -25.1660  -31.6880   26.2990 C   0  0  0  0  0  1  0  0  0  0  0  0
  -26.9630  -30.5540   24.9810 C   0  0  0  0  0  1  0  0  0  0  0  0
  -27.4020  -32.7670   26.0210 C   0  0  0  0  0  1  0  0  0  0  0  0
  -25.5200  -34.0560   24.2480 N   0  0  0  0  0  0  0  0  0  0  0  0
  -25.8810  -35.0930   23.4810 C   0  0  0  0  0  0  0  0  0  0  0  0
  -26.6140  -34.9770   22.4960 O   0  0  0  0  0  0  0  0  0  0  0  0
  -24.8740  -34.2180   25.0050 H   0  0  0  0  0  0  0  0  0  0  0  0
  -24.1470  -36.8430   22.9700 C   0  0  0  0  0  1  0  0  0  0  0  0
  -25.3400  -36.4810   23.8690 C   0  0  0  0  0  3  0  0  0  0  0  0
  -27.3940  -37.4340   24.8210 C   0  0  0  0  0  1  0  0  0  0  0  0
  -26.3600  -37.5520   23.7960 N   0  0  0  0  0  0  0  0  0  0  0  0
  -25.9270  -38.4680   23.8880 H   0  0  0  0  0  0  0  0  0  0  0  0
  2  1  1  0
  3  6  1  0
  3  1  1  0
  4  2  1  0
  4 50  1  0
  4  3  1  0
  4  5  1  6
  6  8  1  0
  7  8  1  0
  8 10  1  0
  9  7  2  0
 12 17  1  0
 13 14  1  0
 13 12  1  0
 15 14  1  0
 15 25  1  0
 15 16  1  0
 17 11  1  0
 17 16  1  0
 18 11  2  0
 19 21  1  0
 19 20  1  0
 20  7  1  0
 21 20  1  0
 21 11  1  0
 22 23  2  0
 23 42  1  0
 24 23  1  0
 24 27  1  0
 25 22  1  0
 25 26  1  0
 26 24  2  0
 27 28  1  0
 28 29  2  0
 30 33  1  0
 30 29  1  0
 31 30  2  0
 32 31  1  0
 32 27  2  0
 33 34  1  0
 34 35  1  0
 35 36  2  0
 37 36  1  0
 37 41  1  0
 38 37  2  0
 39 34  2  0
 39 38  1  0
 40 39  1  0
 42 43  1  0
 43 46  1  0
 43 45  1  0
 44 42  2  0
 47 48  1  0
 47 22  1  0
 49 47  1  0
 51 52  1  0
 51 50  1  0
 53 64  2  0
 54 52  1  0
 54 59  1  0
 55 63  1  0
 55 65  1  0
 56 58  1  0
 57 63  1  0
 58 59  2  0
 58 57  1  0
 60 54  2  0
 61 60  1  0
 61 56  2  0
 62 56  1  0
 62 55  1  0
 63 53  1  0
 65 67  2  0
 66 65  1  0
 68 66  1  0
 69 78  2  0
 69 74  1  0
 70 66  1  0
 70 74  1  0
 71 70  1  0
 72 73  1  0
 72 71  1  0
 73 69  1  0
 74 75  2  0
 75 76  1  0
 77 76  2  0
 78 77  1  0
 79 53  1  0
 79 84  1  0
 79 80  1  0
 80 83  1  1
 80 81  1  0
 82 80  1  0
 84 87  1  0
 85 89  1  0
 85 84  1  0
 86 85  2  0
 89 88  1  0
 91 89  1  0
 91 92  1  0
 91 90  1  0
M  ISO  4  11 100  21 100  51 101  52 101
M  END
>  <TORSDO>  (71) 
F 20

>  <SCORE>  (71) 
-13.061

>  <name>  (71) 
72

>  <ligand_id>  (71) 
72

>  <original_smiles>  (71) 
[H]c1c([H])c([H])c2c(c1[H])C([H])([H])C([H])([H])C([H])([H])C2([H])N([H])C(=O)C1([H])N(C(=O)C([H])(N([H])C(=O)C([H])(N([H])C([H])([H])[H])C([H])([H])[H])C(C([H])([H])[H])(C([H])([H])[H])C([H])([H])[H])C([H])([H])c2c([H])c(OC([H])([H])C([H])([H])[N+]3([H])C([H])([H])C([H])([H])C3([H])C([H])([H])N([H])C(=O)C3([H])N(C(=O)N4C([H])([H])C([H])([H])C([H])([H])C([H])(n5nc(-c6c([H])c([H])c(Oc7c([H])c([H])c(F)c([H])c7F)c([H])c6[H])c(C(=O)N([H])[H])c5N([H])[H])C4([H])[H])C3([H])[H])c([H])c([H])c2C1([H])[H]

>  <smiles>  (71) 
[H]c1c([H])c([H])c2c(c1[H])C([H])([H])C([H])([H])C([H])([H])C2([H])N([H])C(=O)C1([H])N(C(=O)C([H])(N([H])C(=O)C([H])(N([H])C([H])([H])[H])C([H])([H])[H])C(C([H])([H])[H])(C([H])([H])[H])C([H])([H])[H])C([H])([H])c2c([H])c(OC([H])([H])C([H])([H])[N+]3([H])C([H])([H])C([H])([H])C3([H])C([H])([H])N([H])C(=O)C3([H])N(C(=O)N4C([H])([H])C([H])([H])C([H])([H])C([H])(n5nc(-c6c([H])c([H])c(Oc7c([H])c([H])c(F)c([H])c7F)c([H])c6[H])c(C(=O)N([H])[H])c5N([H])[H])C4([H])[H])C3([H])[H])c([H])c([H])c2C1([H])[H]

$$$$
73:0:0
     RDKit          3D

 91 99  0  0  1  0  0  0  0  0999 V2000
  -28.6890  -22.8310   19.8700 N   0  0  0  0  0  4  0  0  0  0  0  0
  -27.8080  -22.6350   19.4190 H   0  0  0  0  0  0  0  0  0  0  0  0
  -29.3880  -22.8560   19.1440 H   0  0  0  0  0  0  0  0  0  0  0  0
  -30.4980  -21.4800   21.0250 C   0  0  0  0  0  2  0  0  0  0  0  0
  -30.7860  -19.9900   20.7440 C   0  0  0  0  0  2  0  0  0  0  0  0
  -28.5680  -20.2830   20.2500 C   0  0  0  0  0  2  0  0  0  0  0  0
  -28.9930  -21.6800   20.7800 C   0  0  0  0  0  3  0  0  0  0  0  0
  -29.4900  -19.3380   20.9000 N   0  0  0  0  0  0  0  0  0  0  0  0
  -29.4140  -17.9480   20.3980 C   0  0  0  0  0  2  0  0  0  0  0  0
  -30.3050  -16.9380   21.1890 C   0  0  0  0  0  2  0  0  0  0  0  0
  -30.6450  -14.5130   20.4740 C   0  0  0  0  0  0  0  0  0  0  0  0
  -30.3700  -12.3390   19.3260 C   0  0  0  0  0  2  0  0  0  0  0  0
  -29.4180  -12.5250   18.1250 C   0  0  0  0  0  2  0  0  0  0  0  0
  -27.9460  -12.3840   18.5630 C   0  0  0  0  0  2  0  0  0  0  0  0
  -27.6120  -13.2250   19.8240 C   0  0  0  0  0  3  0  0  0  0  0  0
  -28.6730  -13.0060   20.9270 C   0  0  0  0  0  2  0  0  0  0  0  0
  -29.9890  -13.3250   20.3510 N   0  0  0  0  0  0  0  0  0  0  0  0
  -31.7750  -14.7020   20.0150 O   0  0  0  0  0  0  0  0  0  0  0  0
  -29.9180  -15.5230   21.0010 N   0  0  0  0  0  0  0  0  0  0  0  0
  -28.9970  -15.2680   21.3230 H   0  0  0  0  0  0  0  0  0  0  0  0
  -25.2180  -13.8400   20.5380 C   0  0  0  0  0  0  0  0  0  0  0  0
  -24.1500  -13.0710   20.9130 C   0  0  0  0  0  0  0  0  0  0  0  0
  -24.6070  -11.7190   20.8850 C   0  0  0  0  0  0  0  0  0  0  0  0
  -26.2600  -12.9550   20.3070 N   0  0  0  0  0  0  0  0  0  0  0  0
  -25.8960  -11.6740   20.5720 N   0  0  0  0  0  0  0  0  0  0  0  0
  -23.8780  -10.4590   21.0800 C   0  0  0  0  0  0  0  0  0  0  0  0
  -24.3290   -9.4790   21.9900 C   0  0  0  0  0  3  0  0  0  0  0  0
  -23.6020   -8.2830   22.1730 C   0  0  0  0  0  3  0  0  0  0  0  0
  -22.4090   -8.0600   21.4450 C   0  0  0  0  0  0  0  0  0  0  0  0
  -21.9760   -9.0290   20.5240 C   0  0  0  0  0  3  0  0  0  0  0  0
  -22.7050  -10.2150   20.3380 C   0  0  0  0  0  3  0  0  0  0  0  0
  -21.6510   -6.9170   21.5400 O   0  0  0  0  0  0  0  0  0  0  0  0
  -21.6460   -6.1480   22.6760 C   0  0  0  0  0  0  0  0  0  0  0  0
  -21.2990   -6.6820   23.9360 C   0  0  0  0  0  3  0  0  0  0  0  0
  -21.2400   -5.8400   25.0640 C   0  0  0  0  0  3  0  0  0  0  0  0
  -21.5180   -4.4650   24.9350 C   0  0  0  0  0  0  0  0  0  0  0  0
  -21.8590   -3.9320   23.6780 C   0  0  0  0  0  3  0  0  0  0  0  0
  -21.9200   -4.7710   22.5520 C   0  0  0  0  0  0  0  0  0  0  0  0
  -22.2280   -4.2480   21.3410 F   0  0  0  0  0  0  0  0  0  0  0  0
  -21.4540   -3.6550   26.0170 F   0  0  0  0  0  0  0  0  0  0  0  0
  -22.7540  -13.5530   21.1880 C   0  0  0  0  0  0  0  0  0  0  0  0
  -22.0280  -12.8620   22.0600 N   0  0  0  0  0  0  0  0  0  0  0  0
  -22.3160  -14.5770   20.6650 O   0  0  0  0  0  0  0  0  0  0  0  0
  -22.3950  -12.0330   22.5040 H   0  0  0  0  0  0  0  0  0  0  0  0
  -21.0920  -13.1670   22.2870 H   0  0  0  0  0  0  0  0  0  0  0  0
  -25.3860  -15.2090   20.3560 N   0  0  0  0  0  0  0  0  0  0  0  0
  -24.6190  -15.8640   20.4610 H   0  0  0  0  0  0  0  0  0  0  0  0
  -26.2310  -15.6420   20.0050 H   0  0  0  0  0  0  0  0  0  0  0  0
  -28.5720  -24.1820   20.5210 C   0  0  0  0  0  2  0  0  0  0  0  0
  -28.5610  -25.3810   19.5170 C   0  0  0  0  0  2  0  0  0  0  0  0
  -28.4240  -26.6860   20.1390 O   0  0  0  0  0  0  0  0  0  0  0  0
  -24.6190  -31.8830   23.2280 C   0  0  0  0  0  0  0  0  0  0  0  0
  -27.2270  -27.3950   20.1300 C   0  0  0  0  0  0  0  0  0  0  0  0
  -23.3980  -30.4820   21.5990 C   0  0  0  0  0  3  0  0  0  0  0  0
  -24.8340  -28.9350   20.1650 C   0  0  0  0  0  0  0  0  0  0  0  0
  -25.9260  -30.8250   21.3810 C   0  0  0  0  0  2  0  0  0  0  0  0
  -26.0010  -29.4490   20.7420 C   0  0  0  0  0  0  0  0  0  0  0  0
  -27.1950  -28.6870   20.7200 C   0  0  0  0  0  3  0  0  0  0  0  0
  -26.0280  -26.8980   19.5650 C   0  0  0  0  0  3  0  0  0  0  0  0
  -24.8450  -27.6610   19.5760 C   0  0  0  0  0  3  0  0  0  0  0  0
  -23.5950  -29.8020   20.2180 C   0  0  0  0  0  2  0  0  0  0  0  0
  -24.6670  -31.0800   22.1270 N   0  0  0  0  0  0  0  0  0  0  0  0
  -23.5420  -32.1590   23.7740 O   0  0  0  0  0  0  0  0  0  0  0  0
  -22.7500  -29.4650   22.5650 C   0  0  0  0  0  0  0  0  0  0  0  0
  -21.4240  -29.2860   22.4470 N   0  0  0  0  0  0  0  0  0  0  0  0
  -23.4370  -28.8380   23.3770 O   0  0  0  0  0  0  0  0  0  0  0  0
  -20.9310  -29.8430   21.7640 H   0  0  0  0  0  0  0  0  0  0  0  0
  -18.0510  -28.0940   22.9600 C   0  0  0  0  0  0  0  0  0  0  0  0
  -20.6100  -28.3510   23.2240 C   0  0  0  0  0  3  0  0  0  0  0  0
  -20.7100  -26.9190   22.6520 C   0  0  0  0  0  2  0  0  0  0  0  0
  -19.6050  -26.5930   21.6420 C   0  0  0  0  0  2  0  0  0  0  0  0
  -18.2250  -26.7420   22.2890 C   0  0  0  0  0  2  0  0  0  0  0  0
  -19.1720  -28.8570   23.3840 C   0  0  0  0  0  0  0  0  0  0  0  0
  -18.9550  -30.1240   23.9710 C   0  0  0  0  0  3  0  0  0  0  0  0
  -17.6510  -30.6260   24.1400 C   0  0  0  0  0  3  0  0  0  0  0  0
  -16.5460  -29.8600   23.7330 C   0  0  0  0  0  3  0  0  0  0  0  0
  -16.7460  -28.5960   23.1490 C   0  0  0  0  0  3  0  0  0  0  0  0
  -25.9100  -32.5120   23.8380 C   0  0  0  0  0  3  0  0  0  0  0  0
  -25.6040  -33.9070   24.1830 N   0  0  0  0  0  0  0  0  0  0  0  0
  -25.9240  -34.9650   23.4270 C   0  0  0  0  0  0  0  0  0  0  0  0
  -26.5810  -34.8710   22.3870 O   0  0  0  0  0  0  0  0  0  0  0  0
  -25.0220  -34.0540   24.9950 H   0  0  0  0  0  0  0  0  0  0  0  0
  -24.1830  -36.7530   23.1100 C   0  0  0  0  0  1  0  0  0  0  0  0
  -25.4380  -36.3480   23.9000 C   0  0  0  0  0  3  0  0  0  0  0  0
  -27.5830  -37.2330   24.7030 C   0  0  0  0  0  1  0  0  0  0  0  0
  -26.4650  -37.4060   23.7790 N   0  0  0  0  0  0  0  0  0  0  0  0
  -26.0580  -38.3240   23.9420 H   0  0  0  0  0  0  0  0  0  0  0  0
  -26.4460  -31.7310   25.1000 C   0  0  1  0  0  0  0  0  0  0  0  0
  -25.3690  -31.4840   26.1810 C   0  0  0  0  0  1  0  0  0  0  0  0
  -27.0240  -30.3580   24.6850 C   0  0  0  0  0  1  0  0  0  0  0  0
  -27.6060  -32.5200   25.7520 C   0  0  0  0  0  1  0  0  0  0  0  0
  1 49  1  0
  2  1  1  0
  3  1  1  0
  5  8  1  0
  5  4  1  0
  6  7  1  0
  6  8  1  0
  7  1  1  0
  7  4  1  0
  9  8  1  0
  9 10  1  0
 11 19  1  0
 12 17  1  0
 13 14  1  0
 13 12  1  0
 15 14  1  0
 15 24  1  0
 15 16  1  0
 17 11  1  0
 17 16  1  0
 18 11  2  0
 19 10  1  0
 19 20  1  0
 21 22  2  0
 22 41  1  0
 23 22  1  0
 23 26  1  0
 24 21  1  0
 24 25  1  0
 25 23  2  0
 26 27  1  0
 27 28  2  0
 29 32  1  0
 29 28  1  0
 30 29  2  0
 31 30  1  0
 31 26  2  0
 32 33  1  0
 33 34  1  0
 34 35  2  0
 36 35  1  0
 36 40  1  0
 37 36  2  0
 38 33  2  0
 38 37  1  0
 39 38  1  0
 41 42  1  0
 42 45  1  0
 42 44  1  0
 43 41  2  0
 46 47  1  0
 46 21  1  0
 48 46  1  0
 50 51  1  0
 50 49  1  0
 52 63  2  0
 53 51  1  0
 53 58  1  0
 54 62  1  0
 54 64  1  0
 55 61  1  0
 55 57  1  0
 56 62  1  0
 57 56  1  0
 58 57  2  0
 59 60  1  0
 59 53  2  0
 60 55  2  0
 61 54  1  0
 62 52  1  0
 64 66  2  0
 65 64  1  0
 67 65  1  0
 68 77  2  0
 68 73  1  0
 69 65  1  0
 69 73  1  0
 70 69  1  0
 71 72  1  0
 71 70  1  0
 72 68  1  0
 73 74  2  0
 74 75  1  0
 76 75  2  0
 77 76  1  0
 78 52  1  0
 78 79  1  0
 78 88  1  0
 79 82  1  0
 80 84  1  0
 80 79  1  0
 81 80  2  0
 84 83  1  0
 86 84  1  0
 86 87  1  0
 86 85  1  0
 88 91  1  1
 88 89  1  0
 90 88  1  0
M  ISO  4  11 100  19 100  50 101  51 101
M  END
>  <TORSDO>  (72) 
F 21

>  <SCORE>  (72) 
-13.501

>  <name>  (72) 
73

>  <ligand_id>  (72) 
73

>  <original_smiles>  (72) 
[H]c1c([H])c([H])c2c(c1[H])C([H])([H])C([H])([H])C([H])([H])C2([H])N([H])C(=O)C1([H])N(C(=O)C([H])(N([H])C(=O)C([H])(N([H])C([H])([H])[H])C([H])([H])[H])C(C([H])([H])[H])(C([H])([H])[H])C([H])([H])[H])C([H])([H])c2c([H])c(OC([H])([H])C([H])([H])[N+]([H])([H])C3([H])C([H])([H])N(C([H])([H])C([H])([H])N([H])C(=O)N4C([H])([H])C([H])([H])C([H])([H])C([H])(n5nc(-c6c([H])c([H])c(Oc7c([H])c([H])c(F)c([H])c7F)c([H])c6[H])c(C(=O)N([H])[H])c5N([H])[H])C4([H])[H])C([H])([H])C3([H])[H])c([H])c([H])c2C1([H])[H]

>  <smiles>  (72) 
[H]c1c([H])c([H])c2c(c1[H])C([H])([H])C([H])([H])C([H])([H])C2([H])N([H])C(=O)C1([H])N(C(=O)C([H])(N([H])C(=O)C([H])(N([H])C([H])([H])[H])C([H])([H])[H])C(C([H])([H])[H])(C([H])([H])[H])C([H])([H])[H])C([H])([H])c2c([H])c(OC([H])([H])C([H])([H])[N+]([H])([H])C3([H])C([H])([H])N(C([H])([H])C([H])([H])N([H])C(=O)N4C([H])([H])C([H])([H])C([H])([H])C([H])(n5nc(-c6c([H])c([H])c(Oc7c([H])c([H])c(F)c([H])c7F)c([H])c6[H])c(C(=O)N([H])[H])c5N([H])[H])C4([H])[H])C([H])([H])C3([H])[H])c([H])c([H])c2C1([H])[H]

$$$$
74:0:0
     RDKit          3D

 88 96  0  0  1  0  0  0  0  0999 V2000
  -30.3810  -20.9850   20.1060 C   0  0  0  0  0  3  0  0  0  0  0  0
  -29.9550  -22.4060   20.0450 C   0  0  0  0  0  3  0  0  0  0  0  0
  -28.1960  -20.2710   20.1550 C   0  0  0  0  0  3  0  0  0  0  0  0
  -29.5580  -19.7760   20.1580 C   0  0  0  0  0  0  0  0  0  0  0  0
  -28.5900  -22.8980   20.0410 C   0  0  0  0  0  0  0  0  0  0  0  0
  -27.7580  -21.6910   20.0950 C   0  0  0  0  0  0  0  0  0  0  0  0
  -26.4190  -21.8890   20.0560 F   0  0  0  0  0  0  0  0  0  0  0  0
  -30.2490  -18.1820   20.2170 C   0  0  0  0  0  2  0  0  0  0  0  0
  -30.4970  -15.3320   20.1400 C   0  0  0  0  0  0  0  0  0  0  0  0
  -30.4030  -12.9290   19.2070 C   0  0  0  0  0  2  0  0  0  0  0  0
  -29.4590  -12.7780   17.9890 C   0  0  0  0  0  2  0  0  0  0  0  0
  -28.0150  -12.5190   18.4520 C   0  0  0  0  0  2  0  0  0  0  0  0
  -27.5960  -13.4600   19.6100 C   0  0  0  0  0  3  0  0  0  0  0  0
  -28.6660  -13.5650   20.7180 C   0  0  0  0  0  2  0  0  0  0  0  0
  -29.8960  -14.0510   20.0710 N   0  0  0  0  0  0  0  0  0  0  0  0
  -31.7090  -15.3220   19.8920 O   0  0  0  0  0  0  0  0  0  0  0  0
  -29.7780  -16.6090   20.2770 N   0  0  0  0  0  0  0  0  0  0  0  0
  -28.7870  -16.4900   20.4240 H   0  0  0  0  0  0  0  0  0  0  0  0
  -25.2280  -14.0080   20.3840 C   0  0  0  0  0  0  0  0  0  0  0  0
  -24.1750  -13.2250   20.7680 C   0  0  0  0  0  0  0  0  0  0  0  0
  -24.6520  -11.8780   20.7410 C   0  0  0  0  0  0  0  0  0  0  0  0
  -26.2740  -13.1390   20.1350 N   0  0  0  0  0  0  0  0  0  0  0  0
  -25.9410  -11.8520   20.4180 N   0  0  0  0  0  0  0  0  0  0  0  0
  -23.9380  -10.6110   20.9430 C   0  0  0  0  0  0  0  0  0  0  0  0
  -24.3650   -9.6650   21.9000 C   0  0  0  0  0  3  0  0  0  0  0  0
  -23.6470   -8.4640   22.0900 C   0  0  0  0  0  3  0  0  0  0  0  0
  -22.4870   -8.2020   21.3240 C   0  0  0  0  0  0  0  0  0  0  0  0
  -22.0780   -9.1380   20.3570 C   0  0  0  0  0  3  0  0  0  0  0  0
  -22.7970  -10.3280   20.1660 C   0  0  0  0  0  3  0  0  0  0  0  0
  -21.7410   -7.0520   21.4240 O   0  0  0  0  0  0  0  0  0  0  0  0
  -21.6710   -6.3380   22.5930 C   0  0  0  0  0  0  0  0  0  0  0  0
  -21.1700   -6.9060   23.7840 C   0  0  0  0  0  3  0  0  0  0  0  0
  -21.0510   -6.1150   24.9450 C   0  0  0  0  0  3  0  0  0  0  0  0
  -21.4230   -4.7590   24.9150 C   0  0  0  0  0  0  0  0  0  0  0  0
  -21.9170   -4.1900   23.7280 C   0  0  0  0  0  3  0  0  0  0  0  0
  -22.0390   -4.9780   22.5700 C   0  0  0  0  0  0  0  0  0  0  0  0
  -22.4950   -4.4190   21.4230 F   0  0  0  0  0  0  0  0  0  0  0  0
  -21.3020   -3.9970   26.0270 F   0  0  0  0  0  0  0  0  0  0  0  0
  -22.7770  -13.6930   21.0450 C   0  0  0  0  0  0  0  0  0  0  0  0
  -22.0600  -12.9970   21.9190 N   0  0  0  0  0  0  0  0  0  0  0  0
  -22.3290  -14.7130   20.5210 O   0  0  0  0  0  0  0  0  0  0  0  0
  -22.4370  -12.1730   22.3650 H   0  0  0  0  0  0  0  0  0  0  0  0
  -21.1210  -13.2910   22.1480 H   0  0  0  0  0  0  0  0  0  0  0  0
  -25.3740  -15.3790   20.1960 N   0  0  0  0  0  0  0  0  0  0  0  0
  -24.5990  -16.0220   20.3040 H   0  0  0  0  0  0  0  0  0  0  0  0
  -26.2040  -15.8210   19.8200 H   0  0  0  0  0  0  0  0  0  0  0  0
  -27.9200  -24.4800   19.7810 C   0  0  0  0  0  2  0  0  0  0  0  0
  -28.2740  -26.0250   20.1400 O   0  0  0  0  0  0  0  0  0  0  0  0
  -24.6560  -31.8530   23.2300 C   0  0  0  0  0  0  0  0  0  0  0  0
  -27.2710  -27.1180   20.0860 C   0  0  0  0  0  0  0  0  0  0  0  0
  -23.4800  -30.4920   21.5500 C   0  0  0  0  0  3  0  0  0  0  0  0
  -24.9490  -28.9530   20.0880 C   0  0  0  0  0  0  0  0  0  0  0  0
  -26.0430  -30.7430   21.4150 C   0  0  0  0  0  2  0  0  0  0  0  0
  -26.1310  -29.3570   20.7220 C   0  0  0  0  0  0  0  0  0  0  0  0
  -27.2880  -28.4600   20.7020 C   0  0  0  0  0  3  0  0  0  0  0  0
  -26.0590  -26.8650   19.4030 C   0  0  0  0  0  3  0  0  0  0  0  0
  -24.9360  -27.7270   19.4090 C   0  0  0  0  0  3  0  0  0  0  0  0
  -23.7200  -29.8530   20.1550 C   0  0  0  0  0  2  0  0  0  0  0  0
  -24.7470  -31.0540   22.1200 N   0  0  0  0  0  0  0  0  0  0  0  0
  -23.5620  -32.1160   23.7550 O   0  0  0  0  0  0  0  0  0  0  0  0
  -22.7950  -29.4600   22.4820 C   0  0  0  0  0  0  0  0  0  0  0  0
  -21.4660  -29.2910   22.3520 N   0  0  0  0  0  0  0  0  0  0  0  0
  -23.4650  -28.8130   23.2910 O   0  0  0  0  0  0  0  0  0  0  0  0
  -20.9790  -29.8650   21.6780 H   0  0  0  0  0  0  0  0  0  0  0  0
  -18.0860  -28.0710   22.8460 C   0  0  0  0  0  0  0  0  0  0  0  0
  -20.6480  -28.3270   23.0960 C   0  0  0  0  0  3  0  0  0  0  0  0
  -20.7430  -26.9170   22.4690 C   0  0  0  0  0  2  0  0  0  0  0  0
  -19.6320  -26.6320   21.4540 C   0  0  0  0  0  2  0  0  0  0  0  0
  -18.2560  -26.7490   22.1160 C   0  0  0  0  0  2  0  0  0  0  0  0
  -19.2080  -28.8190   23.2930 C   0  0  0  0  0  0  0  0  0  0  0  0
  -18.9920  -30.0550   23.9390 C   0  0  0  0  0  3  0  0  0  0  0  0
  -17.6870  -30.5450   24.1400 C   0  0  0  0  0  3  0  0  0  0  0  0
  -16.5800  -29.7950   23.7080 C   0  0  0  0  0  3  0  0  0  0  0  0
  -16.7800  -28.5590   23.0670 C   0  0  0  0  0  3  0  0  0  0  0  0
  -25.9200  -32.4890   23.8830 C   0  0  0  0  0  3  0  0  0  0  0  0
  -25.6030  -33.8890   24.2130 N   0  0  0  0  0  0  0  0  0  0  0  0
  -25.9140  -34.9470   23.4510 C   0  0  0  0  0  0  0  0  0  0  0  0
  -26.5620  -34.8460   22.4050 O   0  0  0  0  0  0  0  0  0  0  0  0
  -25.0230  -34.0400   25.0260 H   0  0  0  0  0  0  0  0  0  0  0  0
  -24.1530  -36.7230   23.1620 C   0  0  0  0  0  1  0  0  0  0  0  0
  -25.4330  -36.3350   23.9190 C   0  0  0  0  0  3  0  0  0  0  0  0
  -27.5860  -37.2590   24.6580 C   0  0  0  0  0  1  0  0  0  0  0  0
  -26.4480  -37.3990   23.7530 N   0  0  0  0  0  0  0  0  0  0  0  0
  -26.0370  -38.3160   23.9020 H   0  0  0  0  0  0  0  0  0  0  0  0
  -26.4000  -31.7210   25.1770 C   0  0  1  0  0  0  0  0  0  0  0  0
  -25.2790  -31.4930   26.2180 C   0  0  0  0  0  1  0  0  0  0  0  0
  -26.9870  -30.3390   24.8120 C   0  0  0  0  0  1  0  0  0  0  0  0
  -27.5360  -32.5140   25.8650 C   0  0  0  0  0  1  0  0  0  0  0  0
  1  4  1  0
  2  1  2  0
  3  4  2  0
  4  8  1  0
  5  2  1  0
  5  6  2  0
  6  3  1  0
  7  6  1  0
  8 17  1  0
  9 17  1  0
 10 15  1  0
 11 12  1  0
 11 10  1  0
 13 12  1  0
 13 22  1  0
 13 14  1  0
 15  9  1  0
 15 14  1  0
 16  9  2  0
 17 18  1  0
 19 20  2  0
 20 39  1  0
 21 20  1  0
 21 24  1  0
 22 19  1  0
 22 23  1  0
 23 21  2  0
 24 25  1  0
 25 26  2  0
 27 30  1  0
 27 26  1  0
 28 27  2  0
 29 28  1  0
 29 24  2  0
 30 31  1  0
 31 32  1  0
 32 33  2  0
 34 33  1  0
 34 38  1  0
 35 34  2  0
 36 31  2  0
 36 35  1  0
 37 36  1  0
 39 40  1  0
 40 43  1  0
 40 42  1  0
 41 39  2  0
 44 45  1  0
 44 19  1  0
 46 44  1  0
 47  5  1  0
 47 48  1  0
 49 60  2  0
 50 48  1  0
 50 55  1  0
 51 59  1  0
 51 61  1  0
 52 58  1  0
 52 54  1  0
 53 59  1  0
 54 53  1  0
 55 54  2  0
 56 57  1  0
 56 50  2  0
 57 52  2  0
 58 51  1  0
 59 49  1  0
 61 63  2  0
 62 61  1  0
 64 62  1  0
 65 74  2  0
 65 70  1  0
 66 62  1  0
 66 70  1  0
 67 66  1  0
 68 69  1  0
 68 67  1  0
 69 65  1  0
 70 71  2  0
 71 72  1  0
 73 72  2  0
 74 73  1  0
 75 49  1  0
 75 76  1  0
 75 85  1  0
 76 79  1  0
 77 81  1  0
 77 76  1  0
 78 77  2  0
 81 80  1  0
 83 84  1  0
 83 81  1  0
 83 82  1  0
 85 88  1  1
 85 86  1  0
 87 85  1  0
M  ISO  4   9 100  17 100  47 101  48 101
M  END
>  <TORSDO>  (73) 
F 18

>  <SCORE>  (73) 
-15.644

>  <name>  (73) 
74

>  <ligand_id>  (73) 
74

>  <original_smiles>  (73) 
[H]c1c([H])c([H])c2c(c1[H])C([H])([H])C([H])([H])C([H])([H])C2([H])N([H])C(=O)C1([H])N(C(=O)C([H])(N([H])C(=O)C([H])(N([H])C([H])([H])[H])C([H])([H])[H])C(C([H])([H])[H])(C([H])([H])[H])C([H])([H])[H])C([H])([H])c2c([H])c(OC([H])([H])c3c([H])c([H])c(C([H])([H])N([H])C(=O)N4C([H])([H])C([H])([H])C([H])([H])C([H])(n5nc(-c6c([H])c([H])c(Oc7c([H])c([H])c(F)c([H])c7F)c([H])c6[H])c(C(=O)N([H])[H])c5N([H])[H])C4([H])[H])c([H])c3F)c([H])c([H])c2C1([H])[H]

>  <smiles>  (73) 
[H]c1c([H])c([H])c2c(c1[H])C([H])([H])C([H])([H])C([H])([H])C2([H])N([H])C(=O)C1([H])N(C(=O)C([H])(N([H])C(=O)C([H])(N([H])C([H])([H])[H])C([H])([H])[H])C(C([H])([H])[H])(C([H])([H])[H])C([H])([H])[H])C([H])([H])c2c([H])c(OC([H])([H])c3c([H])c([H])c(C([H])([H])N([H])C(=O)N4C([H])([H])C([H])([H])C([H])([H])C([H])(n5nc(-c6c([H])c([H])c(Oc7c([H])c([H])c(F)c([H])c7F)c([H])c6[H])c(C(=O)N([H])[H])c5N([H])[H])C4([H])[H])c([H])c3F)c([H])c([H])c2C1([H])[H]

$$$$
75:0:0
     RDKit          3D

 91 99  0  0  1  0  0  0  0  0999 V2000
  -29.9600  -21.5450   19.9370 C   0  0  0  0  0  3  0  0  0  0  0  0
  -29.8160  -17.7270   19.0890 C   0  0  0  0  0  2  0  0  0  0  0  0
  -29.7250  -17.9500   21.5440 C   0  0  0  0  0  2  0  0  0  0  0  0
  -30.1440  -19.2470   18.9800 C   0  0  0  0  0  2  0  0  0  0  0  0
  -30.0360  -19.4820   21.4130 C   0  0  0  0  0  2  0  0  0  0  0  0
  -30.3280  -17.0900   20.4020 C   0  0  0  0  0  3  0  0  0  0  0  0
  -29.6130  -20.0780   20.1070 N   0  0  1  0  0  4  0  0  0  0  0  0
  -28.6070  -20.0130   20.0560 H   0  0  0  0  0  0  0  0  0  0  0  0
  -30.7150  -14.5760   20.0590 C   0  0  0  0  0  0  0  0  0  0  0  0
  -30.3780  -12.4040   18.9240 C   0  0  0  0  0  2  0  0  0  0  0  0
  -29.3660  -12.6080   17.7750 C   0  0  0  0  0  2  0  0  0  0  0  0
  -27.9210  -12.4560   18.2880 C   0  0  0  0  0  2  0  0  0  0  0  0
  -27.6530  -13.2760   19.5780 C   0  0  0  0  0  3  0  0  0  0  0  0
  -28.7730  -13.0600   20.6210 C   0  0  0  0  0  2  0  0  0  0  0  0
  -30.0550  -13.3850   19.9770 N   0  0  0  0  0  0  0  0  0  0  0  0
  -31.8400  -14.7370   19.5780 O   0  0  0  0  0  0  0  0  0  0  0  0
  -29.9890  -15.6360   20.5070 N   0  0  0  0  0  0  0  0  0  0  0  0
  -29.0760  -15.4070   20.8700 H   0  0  0  0  0  0  0  0  0  0  0  0
  -25.3110  -13.8730   20.4550 C   0  0  0  0  0  0  0  0  0  0  0  0
  -24.2610  -13.0970   20.8650 C   0  0  0  0  0  0  0  0  0  0  0  0
  -24.7060  -11.7440   20.7620 C   0  0  0  0  0  0  0  0  0  0  0  0
  -26.3320  -12.9920   20.1320 N   0  0  0  0  0  0  0  0  0  0  0  0
  -25.9750  -11.7040   20.3750 N   0  0  0  0  0  0  0  0  0  0  0  0
  -23.9810  -10.4810   20.9550 C   0  0  0  0  0  0  0  0  0  0  0  0
  -24.4170   -9.5130   21.8860 C   0  0  0  0  0  3  0  0  0  0  0  0
  -23.6920   -8.3150   22.0660 C   0  0  0  0  0  3  0  0  0  0  0  0
  -22.5160   -8.0780   21.3150 C   0  0  0  0  0  0  0  0  0  0  0  0
  -22.1000   -9.0340   20.3730 C   0  0  0  0  0  3  0  0  0  0  0  0
  -22.8250  -10.2230   20.1900 C   0  0  0  0  0  3  0  0  0  0  0  0
  -21.7630   -6.9330   21.4050 O   0  0  0  0  0  0  0  0  0  0  0  0
  -21.6650   -6.2240   22.5770 C   0  0  0  0  0  0  0  0  0  0  0  0
  -21.1560   -6.8070   23.7580 C   0  0  0  0  0  3  0  0  0  0  0  0
  -21.0080   -6.0240   24.9200 C   0  0  0  0  0  3  0  0  0  0  0  0
  -21.3580   -4.6610   24.9030 C   0  0  0  0  0  0  0  0  0  0  0  0
  -21.8600   -4.0790   23.7250 C   0  0  0  0  0  3  0  0  0  0  0  0
  -22.0100   -4.8580   22.5650 C   0  0  0  0  0  0  0  0  0  0  0  0
  -22.4740   -4.2880   21.4270 F   0  0  0  0  0  0  0  0  0  0  0  0
  -21.2090   -3.9070   26.0170 F   0  0  0  0  0  0  0  0  0  0  0  0
  -22.8870  -13.5760   21.2360 C   0  0  0  0  0  0  0  0  0  0  0  0
  -22.2030  -12.8540   22.1180 N   0  0  0  0  0  0  0  0  0  0  0  0
  -22.4300  -14.6230   20.7800 O   0  0  0  0  0  0  0  0  0  0  0  0
  -22.5870  -12.0060   22.5070 H   0  0  0  0  0  0  0  0  0  0  0  0
  -21.2840  -13.1560   22.4080 H   0  0  0  0  0  0  0  0  0  0  0  0
  -25.4780  -15.2470   20.3110 N   0  0  0  0  0  0  0  0  0  0  0  0
  -24.7210  -15.9010   20.4810 H   0  0  0  0  0  0  0  0  0  0  0  0
  -26.3010  -15.6880   19.9210 H   0  0  0  0  0  0  0  0  0  0  0  0
  -28.9690  -22.6150   20.5300 C   0  0  0  0  0  3  0  0  0  0  0  0
  -29.3000  -24.1230   20.1830 C   0  0  0  0  0  3  0  0  0  0  0  0
  -30.4900  -24.4140   20.7140 F   0  0  0  0  0  0  0  0  0  0  0  0
  -28.2620  -25.1950   20.6790 C   0  0  0  0  0  2  0  0  0  0  0  0
  -28.4590  -26.5810   20.2380 O   0  0  0  0  0  0  0  0  0  0  0  0
  -24.6220  -31.8750   23.2120 C   0  0  0  0  0  0  0  0  0  0  0  0
  -27.3220  -27.3830   20.1960 C   0  0  0  0  0  0  0  0  0  0  0  0
  -23.4500  -30.4630   21.5560 C   0  0  0  0  0  3  0  0  0  0  0  0
  -24.9350  -28.9310   20.1530 C   0  0  0  0  0  0  0  0  0  0  0  0
  -25.9840  -30.8200   21.4020 C   0  0  0  0  0  2  0  0  0  0  0  0
  -26.0860  -29.4450   20.7630 C   0  0  0  0  0  0  0  0  0  0  0  0
  -27.2860  -28.6820   20.7760 C   0  0  0  0  0  3  0  0  0  0  0  0
  -26.1550  -26.9150   19.5530 C   0  0  0  0  0  3  0  0  0  0  0  0
  -24.9680  -27.6690   19.5400 C   0  0  0  0  0  3  0  0  0  0  0  0
  -23.6870  -29.7880   20.1810 C   0  0  0  0  0  2  0  0  0  0  0  0
  -24.7030  -31.0690   22.1140 N   0  0  0  0  0  0  0  0  0  0  0  0
  -23.5300  -32.1430   23.7330 O   0  0  0  0  0  0  0  0  0  0  0  0
  -22.7890  -29.4400   22.5080 C   0  0  0  0  0  0  0  0  0  0  0  0
  -21.4630  -29.2680   22.3780 N   0  0  0  0  0  0  0  0  0  0  0  0
  -23.4650  -28.8050   23.3210 O   0  0  0  0  0  0  0  0  0  0  0  0
  -20.9760  -29.8320   21.6950 H   0  0  0  0  0  0  0  0  0  0  0  0
  -18.0750  -28.1100   22.8870 C   0  0  0  0  0  0  0  0  0  0  0  0
  -20.6390  -28.3300   23.1410 C   0  0  0  0  0  3  0  0  0  0  0  0
  -20.7160  -26.9060   22.5420 C   0  0  0  0  0  2  0  0  0  0  0  0
  -19.6020  -26.6130   21.5330 C   0  0  0  0  0  2  0  0  0  0  0  0
  -18.2280  -26.7680   22.1910 C   0  0  0  0  0  2  0  0  0  0  0  0
  -19.2070  -28.8500   23.3200 C   0  0  0  0  0  0  0  0  0  0  0  0
  -19.0110  -30.1070   23.9310 C   0  0  0  0  0  3  0  0  0  0  0  0
  -17.7150  -30.6240   24.1140 C   0  0  0  0  0  3  0  0  0  0  0  0
  -16.5970  -29.8800   23.6990 C   0  0  0  0  0  3  0  0  0  0  0  0
  -16.7780  -28.6250   23.0910 C   0  0  0  0  0  3  0  0  0  0  0  0
  -25.8930  -32.5170   23.8490 C   0  0  0  0  0  3  0  0  0  0  0  0
  -26.3990  -31.7500   25.1320 C   0  0  1  0  0  0  0  0  0  0  0  0
  -25.2940  -31.5000   26.1840 C   0  0  0  0  0  1  0  0  0  0  0  0
  -27.0020  -30.3790   24.7460 C   0  0  0  0  0  1  0  0  0  0  0  0
  -27.5320  -32.5560   25.8110 C   0  0  0  0  0  1  0  0  0  0  0  0
  -25.5690  -33.9130   24.1740 N   0  0  0  0  0  0  0  0  0  0  0  0
  -25.9020  -34.9670   23.4180 C   0  0  0  0  0  0  0  0  0  0  0  0
  -26.5870  -34.8680   22.3950 O   0  0  0  0  0  0  0  0  0  0  0  0
  -24.9630  -34.0630   24.9680 H   0  0  0  0  0  0  0  0  0  0  0  0
  -24.1730  -36.7510   23.0290 C   0  0  0  0  0  1  0  0  0  0  0  0
  -25.3980  -36.3520   23.8680 C   0  0  0  0  0  3  0  0  0  0  0  0
  -27.5070  -37.2480   24.7510 C   0  0  0  0  0  1  0  0  0  0  0  0
  -26.4280  -37.4110   23.7790 N   0  0  0  0  0  0  0  0  0  0  0  0
  -26.0130  -38.3280   23.9150 H   0  0  0  0  0  0  0  0  0  0  0  0
  1  7  1  0
  1 47  2  0
  2  6  1  0
  4  2  1  0
  4  7  1  0
  5  3  1  0
  6 17  1  0
  6  3  1  0
  7  5  1  0
  7  8  1  1
  9 17  1  0
 10 15  1  0
 11 12  1  0
 11 10  1  0
 13 12  1  0
 13 22  1  0
 13 14  1  0
 15  9  1  0
 15 14  1  0
 16  9  2  0
 17 18  1  0
 19 20  2  0
 20 39  1  0
 21 20  1  0
 21 24  1  0
 22 23  1  0
 22 19  1  0
 23 21  2  0
 24 25  1  0
 25 26  2  0
 27 30  1  0
 27 26  1  0
 28 27  2  0
 29 28  1  0
 29 24  2  0
 30 31  1  0
 31 32  1  0
 32 33  2  0
 34 33  1  0
 34 38  1  0
 35 34  2  0
 36 31  2  0
 36 35  1  0
 37 36  1  0
 39 40  1  0
 40 43  1  0
 40 42  1  0
 41 39  2  0
 44 19  1  0
 44 45  1  0
 46 44  1  0
 48 47  1  0
 48 50  1  0
 48 49  1  0
 51 50  1  0
 52 63  2  0
 53 51  1  0
 53 58  1  0
 54 62  1  0
 54 64  1  0
 55 61  1  0
 55 57  1  0
 56 62  1  0
 57 58  2  0
 57 56  1  0
 59 53  2  0
 60 59  1  0
 60 55  2  0
 61 54  1  0
 62 52  1  0
 64 66  2  0
 65 64  1  0
 67 65  1  0
 68 77  2  0
 68 73  1  0
 69 65  1  0
 69 73  1  0
 70 69  1  0
 71 72  1  0
 71 70  1  0
 72 68  1  0
 73 74  2  0
 74 75  1  0
 76 75  2  0
 77 76  1  0
 78 52  1  0
 78 83  1  0
 78 79  1  0
 79 82  1  1
 79 80  1  0
 81 79  1  0
 83 86  1  0
 84 88  1  0
 84 83  1  0
 85 84  2  0
 88 87  1  0
 90 88  1  0
 90 91  1  0
 90 89  1  0
M  ISO  4   9 100  17 100  50 101  51 101
M  END
>  <TORSDO>  (74) 
F 20

>  <SCORE>  (74) 
-13.375

>  <name>  (74) 
75

>  <ligand_id>  (74) 
75

>  <original_smiles>  (74) 
[H]c1c([H])c([H])c2c(c1[H])C([H])([H])C([H])([H])C([H])([H])C2([H])N([H])C(=O)C1([H])N(C(=O)C([H])(N([H])C(=O)C([H])(N([H])C([H])([H])[H])C([H])([H])[H])C(C([H])([H])[H])(C([H])([H])[H])C([H])([H])[H])C([H])([H])c2c([H])c(OC([H])([H])C([H])(F)C([H])([H])C([H])([H])[N+]3([H])C([H])([H])C([H])([H])C([H])(N([H])C(=O)N4C([H])([H])C([H])([H])C([H])([H])C([H])(n5nc(-c6c([H])c([H])c(Oc7c([H])c([H])c(F)c([H])c7F)c([H])c6[H])c(C(=O)N([H])[H])c5N([H])[H])C4([H])[H])C([H])([H])C3([H])[H])c([H])c([H])c2C1([H])[H]

>  <smiles>  (74) 
[H]c1c([H])c([H])c2c(c1[H])C([H])([H])C([H])([H])C([H])([H])C2([H])N([H])C(=O)C1([H])N(C(=O)C([H])(N([H])C(=O)C([H])(N([H])C([H])([H])[H])C([H])([H])[H])C(C([H])([H])[H])(C([H])([H])[H])C([H])([H])[H])C([H])([H])c2c([H])c(OC([H])([H])C([H])(F)C([H])([H])C([H])([H])[N+]3([H])C([H])([H])C([H])([H])C([H])(N([H])C(=O)N4C([H])([H])C([H])([H])C([H])([H])C([H])(n5nc(-c6c([H])c([H])c(Oc7c([H])c([H])c(F)c([H])c7F)c([H])c6[H])c(C(=O)N([H])[H])c5N([H])[H])C4([H])[H])C([H])([H])C3([H])[H])c([H])c([H])c2C1([H])[H]

$$$$
76:0:0
     RDKit          3D

 94102  0  0  1  0  0  0  0  0999 V2000
  -28.4220  -21.3550   19.9900 C   0  0  0  0  0  2  0  0  0  0  0  0
  -29.2770  -19.1080   18.9110 C   0  0  0  0  0  3  0  0  0  0  0  0
  -29.9620  -18.0450   21.3950 C   0  0  0  0  0  3  0  0  0  0  0  0
  -29.2070  -19.9840   20.0330 C   0  0  0  0  0  0  0  0  0  0  0  0
  -29.9580  -17.1490   20.2910 C   0  0  0  0  0  0  0  0  0  0  0  0
  -29.6370  -17.7260   19.0310 C   0  0  0  0  0  0  0  0  0  0  0  0
  -29.6020  -19.4200   21.2730 C   0  0  0  0  0  0  0  0  0  0  0  0
  -29.5660  -16.9380   17.9330 F   0  0  0  0  0  0  0  0  0  0  0  0
  -29.5510  -20.1800   22.3920 F   0  0  0  0  0  0  0  0  0  0  0  0
  -30.8060  -14.7130   19.9490 C   0  0  0  0  0  0  0  0  0  0  0  0
  -30.5840  -12.4440   18.9460 C   0  0  0  0  0  2  0  0  0  0  0  0
  -29.5690  -12.5310   17.7830 C   0  0  0  0  0  2  0  0  0  0  0  0
  -28.1250  -12.3640   18.2960 C   0  0  0  0  0  2  0  0  0  0  0  0
  -27.8270  -13.2530   19.5320 C   0  0  0  0  0  3  0  0  0  0  0  0
  -28.9440  -13.1210   20.5910 C   0  0  0  0  0  2  0  0  0  0  0  0
  -30.2200  -13.4720   19.9440 N   0  0  0  0  0  0  0  0  0  0  0  0
  -31.9000  -14.9100   19.4130 O   0  0  0  0  0  0  0  0  0  0  0  0
  -30.0860  -15.7110   20.5470 N   0  0  0  0  0  0  0  0  0  0  0  0
  -29.3740  -15.3460   21.1610 H   0  0  0  0  0  0  0  0  0  0  0  0
  -25.4860  -13.8600   20.4060 C   0  0  0  0  0  0  0  0  0  0  0  0
  -24.4370  -13.0880   20.8310 C   0  0  0  0  0  0  0  0  0  0  0  0
  -24.8870  -11.7340   20.7490 C   0  0  0  0  0  0  0  0  0  0  0  0
  -26.5070  -12.9750   20.0930 N   0  0  0  0  0  0  0  0  0  0  0  0
  -26.1540  -11.6910   20.3570 N   0  0  0  0  0  0  0  0  0  0  0  0
  -24.1640  -10.4740   20.9660 C   0  0  0  0  0  0  0  0  0  0  0  0
  -24.5760   -9.5460   21.9490 C   0  0  0  0  0  3  0  0  0  0  0  0
  -23.8550   -8.3510   22.1510 C   0  0  0  0  0  3  0  0  0  0  0  0
  -22.7070   -8.0730   21.3710 C   0  0  0  0  0  0  0  0  0  0  0  0
  -22.3140   -8.9890   20.3800 C   0  0  0  0  0  3  0  0  0  0  0  0
  -23.0360  -10.1760   20.1750 C   0  0  0  0  0  3  0  0  0  0  0  0
  -21.9600   -6.9250   21.4800 O   0  0  0  0  0  0  0  0  0  0  0  0
  -21.7760   -6.2970   22.6860 C   0  0  0  0  0  0  0  0  0  0  0  0
  -21.1860   -6.9560   23.7870 C   0  0  0  0  0  3  0  0  0  0  0  0
  -20.9540   -6.2520   24.9850 C   0  0  0  0  0  3  0  0  0  0  0  0
  -21.3010   -4.8900   25.0820 C   0  0  0  0  0  0  0  0  0  0  0  0
  -21.8820   -4.2320   23.9850 C   0  0  0  0  0  3  0  0  0  0  0  0
  -22.1170   -4.9330   22.7890 C   0  0  0  0  0  0  0  0  0  0  0  0
  -22.6580   -4.2890   21.7280 F   0  0  0  0  0  0  0  0  0  0  0  0
  -21.0690   -4.2130   26.2310 F   0  0  0  0  0  0  0  0  0  0  0  0
  -23.0650  -13.5710   21.1990 C   0  0  0  0  0  0  0  0  0  0  0  0
  -22.3970  -12.8760   22.1140 N   0  0  0  0  0  0  0  0  0  0  0  0
  -22.5950  -14.5980   20.7120 O   0  0  0  0  0  0  0  0  0  0  0  0
  -22.7900  -12.0450   22.5300 H   0  0  0  0  0  0  0  0  0  0  0  0
  -21.4780  -13.1810   22.4040 H   0  0  0  0  0  0  0  0  0  0  0  0
  -25.6500  -15.2320   20.2410 N   0  0  0  0  0  0  0  0  0  0  0  0
  -24.8970  -15.8890   20.4100 H   0  0  0  0  0  0  0  0  0  0  0  0
  -26.4820  -15.6690   19.8650 H   0  0  0  0  0  0  0  0  0  0  0  0
  -29.0610  -22.7260   19.7910 N   0  0  0  0  0  4  0  0  0  0  0  0
  -29.6550  -22.6640   18.9790 H   0  0  0  0  0  0  0  0  0  0  0  0
  -29.6670  -22.9030   20.5780 H   0  0  0  0  0  0  0  0  0  0  0  0
  -27.0550  -23.5590   18.5330 C   0  0  0  0  0  1  0  0  0  0  0  0
  -28.0990  -23.9230   19.6270 C   0  0  0  0  0  3  0  0  0  0  0  0
  -28.7430  -25.3640   19.2890 C   0  0  0  0  0  2  0  0  0  0  0  0
  -28.4890  -26.6200   20.0420 O   0  0  0  0  0  0  0  0  0  0  0  0
  -24.5510  -31.7840   23.1550 C   0  0  0  0  0  0  0  0  0  0  0  0
  -27.3230  -27.3990   19.9770 C   0  0  0  0  0  0  0  0  0  0  0  0
  -23.3930  -30.3820   21.4840 C   0  0  0  0  0  3  0  0  0  0  0  0
  -24.8950  -28.9200   20.0180 C   0  0  0  0  0  0  0  0  0  0  0  0
  -25.9190  -30.7950   21.3060 C   0  0  0  0  0  2  0  0  0  0  0  0
  -26.0450  -29.4360   20.6260 C   0  0  0  0  0  0  0  0  0  0  0  0
  -27.2550  -28.6830   20.6040 C   0  0  0  0  0  3  0  0  0  0  0  0
  -26.1460  -26.9360   19.3580 C   0  0  0  0  0  3  0  0  0  0  0  0
  -24.9460  -27.6730   19.3780 C   0  0  0  0  0  3  0  0  0  0  0  0
  -23.6280  -29.7470   20.0880 C   0  0  0  0  0  2  0  0  0  0  0  0
  -24.6400  -31.0030   22.0390 N   0  0  0  0  0  0  0  0  0  0  0  0
  -23.4600  -32.0110   23.6970 O   0  0  0  0  0  0  0  0  0  0  0  0
  -22.7700  -29.3200   22.4210 C   0  0  0  0  0  0  0  0  0  0  0  0
  -21.4570  -29.0800   22.2720 N   0  0  0  0  0  0  0  0  0  0  0  0
  -23.4670  -28.7170   23.2410 O   0  0  0  0  0  0  0  0  0  0  0  0
  -20.9510  -29.6210   21.5840 H   0  0  0  0  0  0  0  0  0  0  0  0
  -18.1360  -27.7110   22.6990 C   0  0  0  0  0  0  0  0  0  0  0  0
  -20.6730  -28.0940   23.0180 C   0  0  0  0  0  3  0  0  0  0  0  0
  -20.8560  -26.6760   22.4290 C   0  0  0  0  0  2  0  0  0  0  0  0
  -19.7900  -26.3110   21.3920 C   0  0  0  0  0  2  0  0  0  0  0  0
  -18.3920  -26.3790   22.0130 C   0  0  0  0  0  2  0  0  0  0  0  0
  -19.2070  -28.5220   23.1570 C   0  0  0  0  0  0  0  0  0  0  0  0
  -18.9150  -29.7660   23.7580 C   0  0  0  0  0  3  0  0  0  0  0  0
  -17.5840  -30.2000   23.9050 C   0  0  0  0  0  3  0  0  0  0  0  0
  -16.5270  -29.3850   23.4640 C   0  0  0  0  0  3  0  0  0  0  0  0
  -16.8030  -28.1430   22.8670 C   0  0  0  0  0  3  0  0  0  0  0  0
  -25.8130  -32.4460   23.7900 C   0  0  0  0  0  3  0  0  0  0  0  0
  -26.3500  -31.6720   25.0560 C   0  0  1  0  0  0  0  0  0  0  0  0
  -25.2610  -31.3820   26.1160 C   0  0  0  0  0  1  0  0  0  0  0  0
  -26.9770  -30.3190   24.6450 C   0  0  0  0  0  1  0  0  0  0  0  0
  -27.4720  -32.4910   25.7350 C   0  0  0  0  0  1  0  0  0  0  0  0
  -25.4590  -33.8290   24.1420 N   0  0  0  0  0  0  0  0  0  0  0  0
  -25.7510  -34.9020   23.3960 C   0  0  0  0  0  0  0  0  0  0  0  0
  -26.4170  -34.8360   22.3590 O   0  0  0  0  0  0  0  0  0  0  0  0
  -24.8660  -33.9520   24.9490 H   0  0  0  0  0  0  0  0  0  0  0  0
  -23.9550  -36.6360   23.0880 C   0  0  0  0  0  1  0  0  0  0  0  0
  -25.2220  -36.2670   23.8770 C   0  0  0  0  0  3  0  0  0  0  0  0
  -27.3340  -37.2220   24.6890 C   0  0  0  0  0  1  0  0  0  0  0  0
  -26.2140  -37.3570   23.7600 N   0  0  0  0  0  0  0  0  0  0  0  0
  -25.7780  -38.2610   23.9200 H   0  0  0  0  0  0  0  0  0  0  0  0
  1  4  1  0
  2  6  2  0
  2  4  1  0
  4  7  2  0
  5 18  1  0
  5  3  2  0
  6  5  1  0
  7  3  1  0
  7  9  1  0
  8  6  1  0
 10 18  1  0
 11 16  1  0
 12 13  1  0
 12 11  1  0
 14 13  1  0
 14 23  1  0
 14 15  1  0
 16 10  1  0
 16 15  1  0
 17 10  2  0
 18 19  1  0
 20 21  2  0
 21 40  1  0
 22 21  1  0
 22 25  1  0
 23 24  1  0
 23 20  1  0
 24 22  2  0
 25 26  1  0
 26 27  2  0
 28 31  1  0
 28 27  1  0
 29 28  2  0
 30 29  1  0
 30 25  2  0
 31 32  1  0
 32 37  2  0
 32 33  1  0
 33 34  2  0
 34 35  1  0
 35 39  1  0
 36 35  2  0
 37 36  1  0
 38 37  1  0
 40 41  1  0
 41 44  1  0
 41 43  1  0
 42 40  2  0
 45 20  1  0
 45 46  1  0
 47 45  1  0
 48  1  1  0
 48 50  1  0
 49 48  1  0
 52 51  1  0
 52 48  1  0
 53 52  1  0
 53 54  1  0
 55 66  2  0
 56 54  1  0
 56 61  1  0
 57 65  1  0
 57 67  1  0
 58 64  1  0
 58 60  1  0
 59 65  1  0
 60 59  1  0
 61 60  2  0
 62 63  1  0
 62 56  2  0
 63 58  2  0
 64 57  1  0
 65 55  1  0
 67 69  2  0
 68 67  1  0
 70 68  1  0
 71 80  2  0
 71 76  1  0
 72 68  1  0
 72 76  1  0
 73 72  1  0
 74 75  1  0
 74 73  1  0
 75 71  1  0
 76 77  2  0
 77 78  1  0
 79 78  2  0
 80 79  1  0
 81 55  1  0
 81 86  1  0
 81 82  1  0
 82 85  1  1
 82 83  1  0
 84 82  1  0
 86 89  1  0
 87 91  1  0
 87 86  1  0
 88 87  2  0
 91 90  1  0
 93 91  1  0
 93 94  1  0
 93 92  1  0
M  ISO  4  10 100  18 100  53 101  54 101
M  END
>  <TORSDO>  (75) 
F 20

>  <SCORE>  (75) 
-12.635

>  <name>  (75) 
76

>  <ligand_id>  (75) 
76

>  <original_smiles>  (75) 
[H]c1c([H])c([H])c2c(c1[H])C([H])([H])C([H])([H])C([H])([H])C2([H])N([H])C(=O)C1([H])N(C(=O)C([H])(N([H])C(=O)C([H])(N([H])C([H])([H])[H])C([H])([H])[H])C(C([H])([H])[H])(C([H])([H])[H])C([H])([H])[H])C([H])([H])c2c([H])c(OC([H])([H])C([H])(C([H])([H])[H])[N+]([H])([H])C([H])([H])c3c([H])c(F)c(N([H])C(=O)N4C([H])([H])C([H])([H])C([H])([H])C([H])(n5nc(-c6c([H])c([H])c(Oc7c([H])c([H])c(F)c([H])c7F)c([H])c6[H])c(C(=O)N([H])[H])c5N([H])[H])C4([H])[H])c([H])c3F)c([H])c([H])c2C1([H])[H]

>  <smiles>  (75) 
[H]c1c([H])c([H])c2c(c1[H])C([H])([H])C([H])([H])C([H])([H])C2([H])N([H])C(=O)C1([H])N(C(=O)C([H])(N([H])C(=O)C([H])(N([H])C([H])([H])[H])C([H])([H])[H])C(C([H])([H])[H])(C([H])([H])[H])C([H])([H])[H])C([H])([H])c2c([H])c(OC([H])([H])C([H])(C([H])([H])[H])[N+]([H])([H])C([H])([H])c3c([H])c(F)c(N([H])C(=O)N4C([H])([H])C([H])([H])C([H])([H])C([H])(n5nc(-c6c([H])c([H])c(Oc7c([H])c([H])c(F)c([H])c7F)c([H])c6[H])c(C(=O)N([H])[H])c5N([H])[H])C4([H])[H])c([H])c3F)c([H])c([H])c2C1([H])[H]

$$$$
77:0:0
     RDKit          3D

 88 96  0  0  1  0  0  0  0  0999 V2000
  -27.8940  -20.9890   19.5120 C   0  0  0  0  0  3  0  0  0  0  0  0
  -29.9650  -19.9190   20.8410 C   0  0  0  0  0  3  0  0  0  0  0  0
  -28.5200  -22.1740   20.1600 C   0  0  0  0  0  0  0  0  0  0  0  0
  -29.2980  -18.7430   20.1870 C   0  0  0  0  0  0  0  0  0  0  0  0
  -28.2140  -19.5050   19.5220 C   0  0  0  0  0  0  0  0  0  0  0  0
  -29.6270  -21.4280   20.8420 C   0  0  0  0  0  0  0  0  0  0  0  0
  -27.3520  -18.7400   18.8100 F   0  0  0  0  0  0  0  0  0  0  0  0
  -30.4500  -22.1900   21.6020 F   0  0  0  0  0  0  0  0  0  0  0  0
  -30.2630  -15.7180   20.2050 C   0  0  0  0  0  0  0  0  0  0  0  0
  -30.3860  -13.1840   19.3710 C   0  0  0  0  0  2  0  0  0  0  0  0
  -29.4730  -12.7830   18.1760 C   0  0  0  0  0  2  0  0  0  0  0  0
  -28.0530  -12.4250   18.6490 C   0  0  0  0  0  2  0  0  0  0  0  0
  -27.5550  -13.4170   19.7260 C   0  0  0  0  0  3  0  0  0  0  0  0
  -28.6050  -13.7180   20.8190 C   0  0  0  0  0  2  0  0  0  0  0  0
  -29.7640  -14.3480   20.1410 N   0  0  0  0  0  0  0  0  0  0  0  0
  -31.4990  -15.6930   20.0490 O   0  0  0  0  0  0  0  0  0  0  0  0
  -29.4270  -17.0220   20.2120 N   0  0  0  0  0  0  0  0  0  0  0  0
  -28.4830  -16.6750   20.1270 H   0  0  0  0  0  0  0  0  0  0  0  0
  -25.2060  -13.9250   20.5550 C   0  0  0  0  0  0  0  0  0  0  0  0
  -24.1570  -13.1330   20.9270 C   0  0  0  0  0  0  0  0  0  0  0  0
  -24.6340  -11.7880   20.8590 C   0  0  0  0  0  0  0  0  0  0  0  0
  -26.2500  -13.0660   20.2690 N   0  0  0  0  0  0  0  0  0  0  0  0
  -25.9210  -11.7700   20.5210 N   0  0  0  0  0  0  0  0  0  0  0  0
  -23.9150  -10.5160   21.0350 C   0  0  0  0  0  0  0  0  0  0  0  0
  -24.3400   -9.5490   21.9710 C   0  0  0  0  0  3  0  0  0  0  0  0
  -23.6190   -8.3460   22.1360 C   0  0  0  0  0  3  0  0  0  0  0  0
  -22.4550   -8.1040   21.3690 C   0  0  0  0  0  0  0  0  0  0  0  0
  -22.0490   -9.0600   20.4210 C   0  0  0  0  0  3  0  0  0  0  0  0
  -22.7700  -10.2540   20.2540 C   0  0  0  0  0  3  0  0  0  0  0  0
  -21.7040   -6.9560   21.4450 O   0  0  0  0  0  0  0  0  0  0  0  0
  -21.6120   -6.2330   22.6080 C   0  0  0  0  0  0  0  0  0  0  0  0
  -21.0670   -6.7850   23.7880 C   0  0  0  0  0  3  0  0  0  0  0  0
  -20.9280   -5.9850   24.9410 C   0  0  0  0  0  3  0  0  0  0  0  0
  -21.3170   -4.6330   24.9120 C   0  0  0  0  0  0  0  0  0  0  0  0
  -21.8540   -4.0800   23.7360 C   0  0  0  0  0  3  0  0  0  0  0  0
  -21.9980   -4.8770   22.5870 C   0  0  0  0  0  0  0  0  0  0  0  0
  -22.4960   -4.3310   21.4490 F   0  0  0  0  0  0  0  0  0  0  0  0
  -21.1780   -3.8630   26.0170 F   0  0  0  0  0  0  0  0  0  0  0  0
  -22.7610  -13.5980   21.2260 C   0  0  0  0  0  0  0  0  0  0  0  0
  -22.0490  -12.8900   22.0970 N   0  0  0  0  0  0  0  0  0  0  0  0
  -22.3120  -14.6250   20.7210 O   0  0  0  0  0  0  0  0  0  0  0  0
  -22.4310  -12.0640   22.5310 H   0  0  0  0  0  0  0  0  0  0  0  0
  -21.1120  -13.1810   22.3290 H   0  0  0  0  0  0  0  0  0  0  0  0
  -25.3510  -15.3010   20.4000 N   0  0  0  0  0  0  0  0  0  0  0  0
  -24.5710  -15.9390   20.5170 H   0  0  0  0  0  0  0  0  0  0  0  0
  -26.1720  -15.7460   20.0150 H   0  0  0  0  0  0  0  0  0  0  0  0
  -27.7970  -23.9000   20.1220 C   0  0  0  0  0  2  0  0  0  0  0  0
  -28.1150  -25.6070   20.3040 O   0  0  0  0  0  0  0  0  0  0  0  0
  -24.6400  -31.8990   23.2580 C   0  0  0  0  0  0  0  0  0  0  0  0
  -27.1530  -26.8260   20.2580 C   0  0  0  0  0  0  0  0  0  0  0  0
  -23.4450  -30.5020   21.6300 C   0  0  0  0  0  3  0  0  0  0  0  0
  -24.8860  -28.8550   20.2110 C   0  0  0  0  0  0  0  0  0  0  0  0
  -26.0230  -30.6420   21.4970 C   0  0  0  0  0  2  0  0  0  0  0  0
  -26.0830  -29.2110   20.8400 C   0  0  0  0  0  0  0  0  0  0  0  0
  -27.2040  -28.2250   20.8300 C   0  0  0  0  0  3  0  0  0  0  0  0
  -25.9160  -26.6760   19.5800 C   0  0  0  0  0  3  0  0  0  0  0  0
  -24.8380  -27.6130   19.5570 C   0  0  0  0  0  3  0  0  0  0  0  0
  -23.6790  -29.8030   20.2600 C   0  0  0  0  0  2  0  0  0  0  0  0
  -24.7270  -31.0460   22.1800 N   0  0  0  0  0  0  0  0  0  0  0  0
  -23.5500  -32.2000   23.7730 O   0  0  0  0  0  0  0  0  0  0  0  0
  -22.7300  -29.5250   22.6040 C   0  0  0  0  0  0  0  0  0  0  0  0
  -21.3990  -29.3610   22.4690 N   0  0  0  0  0  0  0  0  0  0  0  0
  -23.3830  -28.9140   23.4510 O   0  0  0  0  0  0  0  0  0  0  0  0
  -20.9210  -29.9000   21.7610 H   0  0  0  0  0  0  0  0  0  0  0  0
  -18.0170  -28.1300   22.9670 C   0  0  0  0  0  0  0  0  0  0  0  0
  -20.5740  -28.4270   23.2450 C   0  0  0  0  0  3  0  0  0  0  0  0
  -20.6930  -26.9900   22.6880 C   0  0  0  0  0  2  0  0  0  0  0  0
  -19.6010  -26.6450   21.6700 C   0  0  0  0  0  2  0  0  0  0  0  0
  -18.2130  -26.7790   22.3010 C   0  0  0  0  0  2  0  0  0  0  0  0
  -19.1250  -28.9100   23.3960 C   0  0  0  0  0  0  0  0  0  0  0  0
  -18.8850  -30.1720   23.9850 C   0  0  0  0  0  3  0  0  0  0  0  0
  -17.5720  -30.6560   24.1450 C   0  0  0  0  0  3  0  0  0  0  0  0
  -16.4800  -29.8740   23.7310 C   0  0  0  0  0  3  0  0  0  0  0  0
  -16.7030  -28.6130   23.1470 C   0  0  0  0  0  3  0  0  0  0  0  0
  -25.9070  -32.5480   23.8930 C   0  0  0  0  0  3  0  0  0  0  0  0
  -25.5950  -33.9540   24.2130 N   0  0  0  0  0  0  0  0  0  0  0  0
  -25.9230  -35.0090   23.4550 C   0  0  0  0  0  0  0  0  0  0  0  0
  -26.5810  -34.8990   22.4170 O   0  0  0  0  0  0  0  0  0  0  0  0
  -25.0060  -34.1110   25.0170 H   0  0  0  0  0  0  0  0  0  0  0  0
  -24.2000  -36.8190   23.1360 C   0  0  0  0  0  1  0  0  0  0  0  0
  -25.4570  -36.4060   23.9180 C   0  0  0  0  0  3  0  0  0  0  0  0
  -27.6040  -37.2990   24.7090 C   0  0  0  0  0  1  0  0  0  0  0  0
  -26.4940  -37.4530   23.7730 N   0  0  0  0  0  0  0  0  0  0  0  0
  -26.0950  -38.3790   23.9010 H   0  0  0  0  0  0  0  0  0  0  0  0
  -26.3940  -31.7990   25.1980 C   0  0  1  0  0  0  0  0  0  0  0  0
  -25.2810  -31.5960   26.2550 C   0  0  0  0  0  1  0  0  0  0  0  0
  -26.9690  -30.4050   24.8590 C   0  0  0  0  0  1  0  0  0  0  0  0
  -27.5440  -32.5940   25.8610 C   0  0  0  0  0  1  0  0  0  0  0  0
  1  5  2  0
  1  3  1  0
  2  6  1  0
  3  6  2  0
  4 17  1  0
  4  2  2  0
  5  4  1  0
  6  8  1  0
  7  5  1  0
  9 17  1  0
 10 15  1  0
 11 12  1  0
 11 10  1  0
 13 12  1  0
 13 22  1  0
 13 14  1  0
 15  9  1  0
 15 14  1  0
 16  9  2  0
 18 17  1  0
 19 20  2  0
 20 39  1  0
 21 20  1  0
 21 24  1  0
 22 23  1  0
 22 19  1  0
 23 21  2  0
 24 25  1  0
 25 26  2  0
 27 30  1  0
 27 26  1  0
 28 27  2  0
 29 28  1  0
 29 24  2  0
 30 31  1  0
 31 32  1  0
 32 33  2  0
 34 33  1  0
 34 38  1  0
 35 34  2  0
 36 31  2  0
 36 35  1  0
 37 36  1  0
 39 40  1  0
 40 43  1  0
 40 42  1  0
 41 39  2  0
 44 45  1  0
 44 19  1  0
 46 44  1  0
 47  3  1  0
 47 48  1  0
 49 60  2  0
 50 48  1  0
 50 55  1  0
 51 59  1  0
 51 61  1  0
 52 58  1  0
 52 54  1  0
 53 59  1  0
 54 53  1  0
 55 54  2  0
 56 50  2  0
 57 56  1  0
 57 52  2  0
 58 51  1  0
 59 49  1  0
 61 63  2  0
 62 61  1  0
 64 62  1  0
 65 74  2  0
 65 70  1  0
 66 62  1  0
 66 70  1  0
 67 66  1  0
 68 69  1  0
 68 67  1  0
 69 65  1  0
 70 71  2  0
 71 72  1  0
 73 72  2  0
 74 73  1  0
 75 49  1  0
 75 76  1  0
 75 85  1  0
 76 79  1  0
 77 81  1  0
 77 76  1  0
 78 77  2  0
 81 80  1  0
 83 84  1  0
 83 81  1  0
 83 82  1  0
 85 88  1  1
 85 86  1  0
 87 85  1  0
M  ISO  4   9 100  17 100  47 101  48 101
M  END
>  <TORSDO>  (76) 
F 17

>  <SCORE>  (76) 
-16.814

>  <name>  (76) 
77

>  <ligand_id>  (76) 
77

>  <original_smiles>  (76) 
[H]c1c([H])c([H])c2c(c1[H])C([H])([H])C([H])([H])C([H])([H])C2([H])N([H])C(=O)C1([H])N(C(=O)C([H])(N([H])C(=O)C([H])(N([H])C([H])([H])[H])C([H])([H])[H])C(C([H])([H])[H])(C([H])([H])[H])C([H])([H])[H])C([H])([H])c2c([H])c(OC([H])([H])c3c([H])c(F)c(N([H])C(=O)N4C([H])([H])C([H])([H])C([H])([H])C([H])(n5nc(-c6c([H])c([H])c(Oc7c([H])c([H])c(F)c([H])c7F)c([H])c6[H])c(C(=O)N([H])[H])c5N([H])[H])C4([H])[H])c([H])c3F)c([H])c([H])c2C1([H])[H]

>  <smiles>  (76) 
[H]c1c([H])c([H])c2c(c1[H])C([H])([H])C([H])([H])C([H])([H])C2([H])N([H])C(=O)C1([H])N(C(=O)C([H])(N([H])C(=O)C([H])(N([H])C([H])([H])[H])C([H])([H])[H])C(C([H])([H])[H])(C([H])([H])[H])C([H])([H])[H])C([H])([H])c2c([H])c(OC([H])([H])c3c([H])c(F)c(N([H])C(=O)N4C([H])([H])C([H])([H])C([H])([H])C([H])(n5nc(-c6c([H])c([H])c(Oc7c([H])c([H])c(F)c([H])c7F)c([H])c6[H])c(C(=O)N([H])[H])c5N([H])[H])C4([H])[H])c([H])c3F)c([H])c([H])c2C1([H])[H]

$$$$
78:0:0
     RDKit          3D

 91 99  0  0  1  0  0  0  0  0999 V2000
  -28.6230  -21.8800   20.4020 C   0  0  0  0  0  3  0  0  0  0  0  0
  -29.7240  -23.4700   18.9460 C   0  0  0  0  0  3  0  0  0  0  0  0
  -28.8000  -23.3120   19.9980 C   0  0  0  0  0  0  0  0  0  0  0  0
  -29.3010  -20.6820   19.8130 C   0  0  0  0  0  0  0  0  0  0  0  0
  -30.4000  -22.3670   18.3620 C   0  0  0  0  0  0  0  0  0  0  0  0
  -30.1980  -21.0250   18.7760 C   0  0  0  0  0  0  0  0  0  0  0  0
  -31.2570  -22.6080   17.3400 F   0  0  0  0  0  0  0  0  0  0  0  0
  -30.8670  -20.0450   18.1250 F   0  0  0  0  0  0  0  0  0  0  0  0
  -29.0290  -19.0610   20.0940 C   0  0  0  0  0  3  0  0  0  0  0  0
  -28.3800  -18.9450   21.2550 F   0  0  0  0  0  0  0  0  0  0  0  0
  -30.1380  -17.7720   20.0250 C   0  0  0  0  0  2  0  0  0  0  0  0
  -30.5890  -15.0510   20.1190 C   0  0  0  0  0  0  0  0  0  0  0  0
  -30.4940  -12.6730   19.2310 C   0  0  0  0  0  2  0  0  0  0  0  0
  -29.5390  -12.6030   18.0180 C   0  0  0  0  0  2  0  0  0  0  0  0
  -28.0800  -12.4080   18.4750 C   0  0  0  0  0  2  0  0  0  0  0  0
  -27.6950  -13.3230   19.6670 C   0  0  0  0  0  3  0  0  0  0  0  0
  -28.7760  -13.3520   20.7690 C   0  0  0  0  0  2  0  0  0  0  0  0
  -30.0190  -13.7770   20.1140 N   0  0  0  0  0  0  0  0  0  0  0  0
  -31.7900  -15.1220   19.8360 O   0  0  0  0  0  0  0  0  0  0  0  0
  -29.7960  -16.2300   20.2290 N   0  0  0  0  0  0  0  0  0  0  0  0
  -28.8170  -16.0520   20.4040 H   0  0  0  0  0  0  0  0  0  0  0  0
  -25.3250  -13.8850   20.4530 C   0  0  0  0  0  0  0  0  0  0  0  0
  -24.2740  -13.1030   20.8420 C   0  0  0  0  0  0  0  0  0  0  0  0
  -24.7450  -11.7560   20.7940 C   0  0  0  0  0  0  0  0  0  0  0  0
  -26.3700  -13.0140   20.1930 N   0  0  0  0  0  0  0  0  0  0  0  0
  -26.0290  -11.7260   20.4610 N   0  0  0  0  0  0  0  0  0  0  0  0
  -24.0280  -10.4890   20.9860 C   0  0  0  0  0  0  0  0  0  0  0  0
  -24.4560   -9.5400   21.9380 C   0  0  0  0  0  3  0  0  0  0  0  0
  -23.7430   -8.3360   22.1200 C   0  0  0  0  0  3  0  0  0  0  0  0
  -22.5880   -8.0730   21.3450 C   0  0  0  0  0  0  0  0  0  0  0  0
  -22.1750   -9.0130   20.3860 C   0  0  0  0  0  3  0  0  0  0  0  0
  -22.8910  -10.2090   20.2040 C   0  0  0  0  0  3  0  0  0  0  0  0
  -21.8390   -6.9240   21.4360 O   0  0  0  0  0  0  0  0  0  0  0  0
  -21.7430   -6.2150   22.6040 C   0  0  0  0  0  0  0  0  0  0  0  0
  -21.2110   -6.7880   23.7810 C   0  0  0  0  0  3  0  0  0  0  0  0
  -21.0710   -6.0050   24.9430 C   0  0  0  0  0  3  0  0  0  0  0  0
  -21.4470   -4.6480   24.9310 C   0  0  0  0  0  0  0  0  0  0  0  0
  -21.9690   -4.0750   23.7560 C   0  0  0  0  0  3  0  0  0  0  0  0
  -22.1130   -4.8550   22.5990 C   0  0  0  0  0  0  0  0  0  0  0  0
  -22.5990   -4.2930   21.4640 F   0  0  0  0  0  0  0  0  0  0  0  0
  -21.3050   -3.8930   26.0430 F   0  0  0  0  0  0  0  0  0  0  0  0
  -22.8800  -13.5730   21.1360 C   0  0  0  0  0  0  0  0  0  0  0  0
  -22.1610  -12.8650   22.0000 N   0  0  0  0  0  0  0  0  0  0  0  0
  -22.4360  -14.6080   20.6390 O   0  0  0  0  0  0  0  0  0  0  0  0
  -22.5300  -12.0260   22.4220 H   0  0  0  0  0  0  0  0  0  0  0  0
  -21.2310  -13.1700   22.2460 H   0  0  0  0  0  0  0  0  0  0  0  0
  -25.4680  -15.2590   20.2730 N   0  0  0  0  0  0  0  0  0  0  0  0
  -24.6680  -15.8780   20.3460 H   0  0  0  0  0  0  0  0  0  0  0  0
  -26.2830  -15.7050   19.8740 H   0  0  0  0  0  0  0  0  0  0  0  0
  -28.0030  -24.6610   20.5630 C   0  0  0  0  0  2  0  0  0  0  0  0
  -28.3040  -26.1750   20.2690 O   0  0  0  0  0  0  0  0  0  0  0  0
  -24.6120  -31.8890   23.2640 C   0  0  0  0  0  0  0  0  0  0  0  0
  -27.2500  -27.1720   20.2580 C   0  0  0  0  0  0  0  0  0  0  0  0
  -23.4360  -30.4780   21.6200 C   0  0  0  0  0  3  0  0  0  0  0  0
  -24.9110  -28.9120   20.2040 C   0  0  0  0  0  0  0  0  0  0  0  0
  -25.9900  -30.7590   21.4750 C   0  0  0  0  0  2  0  0  0  0  0  0
  -26.0820  -29.3610   20.8330 C   0  0  0  0  0  0  0  0  0  0  0  0
  -27.2550  -28.5080   20.8410 C   0  0  0  0  0  3  0  0  0  0  0  0
  -26.0600  -26.8380   19.5820 C   0  0  0  0  0  3  0  0  0  0  0  0
  -24.9190  -27.6700   19.5530 C   0  0  0  0  0  3  0  0  0  0  0  0
  -23.6700  -29.7920   20.2460 C   0  0  0  0  0  2  0  0  0  0  0  0
  -24.7000  -31.0660   22.1740 N   0  0  0  0  0  0  0  0  0  0  0  0
  -23.5210  -32.1660   23.7860 O   0  0  0  0  0  0  0  0  0  0  0  0
  -22.7580  -29.4720   22.5840 C   0  0  0  0  0  0  0  0  0  0  0  0
  -21.4320  -29.2960   22.4530 N   0  0  0  0  0  0  0  0  0  0  0  0
  -23.4300  -28.8530   23.4110 O   0  0  0  0  0  0  0  0  0  0  0  0
  -20.9480  -29.8410   21.7530 H   0  0  0  0  0  0  0  0  0  0  0  0
  -18.0510  -28.1000   22.9580 C   0  0  0  0  0  0  0  0  0  0  0  0
  -20.6110  -28.3580   23.2200 C   0  0  0  0  0  3  0  0  0  0  0  0
  -20.7100  -26.9300   22.6390 C   0  0  0  0  0  2  0  0  0  0  0  0
  -19.6020  -26.6110   21.6280 C   0  0  0  0  0  2  0  0  0  0  0  0
  -18.2250  -26.7560   22.2760 C   0  0  0  0  0  2  0  0  0  0  0  0
  -19.1700  -28.8630   23.3870 C   0  0  0  0  0  0  0  0  0  0  0  0
  -18.9480  -30.1210   23.9880 C   0  0  0  0  0  3  0  0  0  0  0  0
  -17.6420  -30.6150   24.1690 C   0  0  0  0  0  3  0  0  0  0  0  0
  -16.5380  -29.8500   23.7530 C   0  0  0  0  0  3  0  0  0  0  0  0
  -16.7450  -28.5960   23.1510 C   0  0  0  0  0  3  0  0  0  0  0  0
  -25.8790  -32.5400   23.8990 C   0  0  0  0  0  3  0  0  0  0  0  0
  -26.3700  -31.7940   25.2000 C   0  0  1  0  0  0  0  0  0  0  0  0
  -25.2540  -31.5700   26.2480 C   0  0  0  0  0  1  0  0  0  0  0  0
  -26.9640  -30.4120   24.8490 C   0  0  0  0  0  1  0  0  0  0  0  0
  -27.5030  -32.6060   25.8710 C   0  0  0  0  0  1  0  0  0  0  0  0
  -25.5600  -33.9430   24.2080 N   0  0  0  0  0  0  0  0  0  0  0  0
  -25.9050  -34.9930   23.4500 C   0  0  0  0  0  0  0  0  0  0  0  0
  -26.5940  -34.8810   22.4320 O   0  0  0  0  0  0  0  0  0  0  0  0
  -24.9520  -34.1030   24.9990 H   0  0  0  0  0  0  0  0  0  0  0  0
  -24.1980  -36.7970   23.0400 C   0  0  0  0  0  1  0  0  0  0  0  0
  -25.4130  -36.3870   23.8880 C   0  0  0  0  0  3  0  0  0  0  0  0
  -27.5200  -37.2740   24.7860 C   0  0  0  0  0  1  0  0  0  0  0  0
  -26.4530  -37.4350   23.8020 N   0  0  0  0  0  0  0  0  0  0  0  0
  -26.0450  -38.3580   23.9270 H   0  0  0  0  0  0  0  0  0  0  0  0
  2  3  2  0
  3  1  1  0
  3 50  1  0
  4  9  1  0
  4  1  2  0
  5  6  2  0
  5  2  1  0
  6  4  1  0
  7  5  1  0
  8  6  1  0
  9 10  1  0
 11  9  1  0
 11 20  1  0
 12 20  1  0
 13 18  1  0
 14 15  1  0
 14 13  1  0
 16 15  1  0
 16 25  1  0
 16 17  1  0
 18 12  1  0
 18 17  1  0
 19 12  2  0
 20 21  1  0
 22 23  2  0
 23 42  1  0
 24 23  1  0
 24 27  1  0
 25 22  1  0
 25 26  1  0
 26 24  2  0
 27 28  1  0
 28 29  2  0
 30 33  1  0
 30 29  1  0
 31 30  2  0
 32 31  1  0
 32 27  2  0
 33 34  1  0
 34 35  1  0
 35 36  2  0
 37 36  1  0
 37 41  1  0
 38 37  2  0
 39 34  2  0
 39 38  1  0
 40 39  1  0
 42 43  1  0
 43 46  1  0
 43 45  1  0
 44 42  2  0
 47 48  1  0
 47 22  1  0
 49 47  1  0
 51 50  1  0
 52 63  2  0
 53 51  1  0
 53 58  1  0
 54 62  1  0
 54 64  1  0
 55 61  1  0
 55 57  1  0
 56 62  1  0
 57 58  2  0
 57 56  1  0
 59 53  2  0
 60 59  1  0
 60 55  2  0
 61 54  1  0
 62 52  1  0
 64 66  2  0
 65 64  1  0
 67 65  1  0
 68 77  2  0
 68 73  1  0
 69 65  1  0
 69 73  1  0
 70 69  1  0
 71 72  1  0
 71 70  1  0
 72 68  1  0
 73 74  2  0
 74 75  1  0
 76 75  2  0
 77 76  1  0
 78 52  1  0
 78 83  1  0
 78 79  1  0
 79 82  1  1
 79 80  1  0
 81 79  1  0
 83 86  1  0
 84 88  1  0
 84 83  1  0
 85 84  2  0
 88 87  1  0
 90 88  1  0
 90 91  1  0
 90 89  1  0
M  ISO  4  12 100  20 100  50 101  51 101
M  END
>  <TORSDO>  (77) 
F 19

>  <SCORE>  (77) 
-14.485

>  <name>  (77) 
78

>  <ligand_id>  (77) 
78

>  <original_smiles>  (77) 
[H]c1c([H])c([H])c2c(c1[H])C([H])([H])C([H])([H])C([H])([H])C2([H])N([H])C(=O)C1([H])N(C(=O)C([H])(N([H])C(=O)C([H])(N([H])C([H])([H])[H])C([H])([H])[H])C(C([H])([H])[H])(C([H])([H])[H])C([H])([H])[H])C([H])([H])c2c([H])c(OC([H])([H])c3c([H])c(F)c(F)c(C([H])(F)C([H])([H])N([H])C(=O)N4C([H])([H])C([H])([H])C([H])([H])C([H])(n5nc(-c6c([H])c([H])c(Oc7c([H])c([H])c(F)c([H])c7F)c([H])c6[H])c(C(=O)N([H])[H])c5N([H])[H])C4([H])[H])c3[H])c([H])c([H])c2C1([H])[H]

>  <smiles>  (77) 
[H]c1c([H])c([H])c2c(c1[H])C([H])([H])C([H])([H])C([H])([H])C2([H])N([H])C(=O)C1([H])N(C(=O)C([H])(N([H])C(=O)C([H])(N([H])C([H])([H])[H])C([H])([H])[H])C(C([H])([H])[H])(C([H])([H])[H])C([H])([H])[H])C([H])([H])c2c([H])c(OC([H])([H])c3c([H])c(F)c(F)c(C([H])(F)C([H])([H])N([H])C(=O)N4C([H])([H])C([H])([H])C([H])([H])C([H])(n5nc(-c6c([H])c([H])c(Oc7c([H])c([H])c(F)c([H])c7F)c([H])c6[H])c(C(=O)N([H])[H])c5N([H])[H])C4([H])[H])c3[H])c([H])c([H])c2C1([H])[H]

$$$$
79:0:0
     RDKit          3D

 99108  0  0  1  0  0  0  0  0999 V2000
  -27.9050  -21.8610   22.3290 C   0  0  0  0  0  2  0  0  0  0  0  0
  -29.3850  -21.8510   22.7240 C   0  0  0  0  0  2  0  0  0  0  0  0
  -27.8790  -22.1580   20.8220 C   0  0  0  0  0  2  0  0  0  0  0  0
  -30.1540  -21.7250   21.3980 C   0  0  0  0  0  3  0  0  0  0  0  0
  -29.2800  -22.4010   20.3880 N   0  0  2  0  0  4  0  0  0  0  0  0
  -29.4440  -21.9750   19.4870 H   0  0  0  0  0  0  0  0  0  0  0  0
  -30.5570  -20.2440   21.1150 C   0  0  0  0  0  0  0  0  0  0  0  0
  -29.6410  -19.3600   20.6720 N   0  0  0  0  0  0  0  0  0  0  0  0
  -31.7110  -19.8830   21.3520 O   0  0  0  0  0  0  0  0  0  0  0  0
  -28.7150  -19.7060   20.4660 H   0  0  0  0  0  0  0  0  0  0  0  0
  -29.7440  -17.8880   20.7290 C   0  0  0  0  0  2  0  0  0  0  0  0
  -31.4850  -14.8260   19.6340 C   0  0  0  0  0  0  0  0  0  0  0  0
  -31.2200  -12.4870   18.9350 C   0  0  0  0  0  2  0  0  0  0  0  0
  -30.2330  -12.4660   17.7470 C   0  0  0  0  0  2  0  0  0  0  0  0
  -28.7790  -12.3800   18.2530 C   0  0  0  0  0  2  0  0  0  0  0  0
  -28.4620  -13.4260   19.3550 C   0  0  0  0  0  3  0  0  0  0  0  0
  -29.5600  -13.4340   20.4450 C   0  0  0  0  0  2  0  0  0  0  0  0
  -30.8560  -13.6330   19.7770 N   0  0  0  0  0  0  0  0  0  0  0  0
  -32.6530  -14.9500   19.2480 O   0  0  0  0  0  0  0  0  0  0  0  0
  -30.4020  -16.4270   18.1660 C   0  0  0  0  0  2  0  0  0  0  0  0
  -31.2300  -17.6490   18.5400 C   0  0  0  0  0  3  0  0  0  0  0  0
  -30.9570  -17.2700   19.9940 C   0  0  0  0  0  3  0  0  0  0  0  0
  -30.6470  -15.8900   19.5240 N   0  0  0  0  0  0  0  0  0  0  0  0
  -26.1650  -14.1630   20.2440 C   0  0  0  0  0  0  0  0  0  0  0  0
  -25.0760  -13.4450   20.6660 C   0  0  0  0  0  0  0  0  0  0  0  0
  -25.4500  -12.0700   20.5700 C   0  0  0  0  0  0  0  0  0  0  0  0
  -27.1330  -13.2250   19.9220 N   0  0  0  0  0  0  0  0  0  0  0  0
  -26.7110  -11.9590   20.1760 N   0  0  0  0  0  0  0  0  0  0  0  0
  -24.6610  -10.8480   20.7760 C   0  0  0  0  0  0  0  0  0  0  0  0
  -24.9920   -9.9180   21.7850 C   0  0  0  0  0  3  0  0  0  0  0  0
  -24.2100   -8.7600   21.9760 C   0  0  0  0  0  3  0  0  0  0  0  0
  -23.0810   -8.5240   21.1560 C   0  0  0  0  0  0  0  0  0  0  0  0
  -22.7700   -9.4400   20.1360 C   0  0  0  0  0  3  0  0  0  0  0  0
  -23.5540  -10.5900   19.9440 C   0  0  0  0  0  3  0  0  0  0  0  0
  -22.2770   -7.4130   21.2510 O   0  0  0  0  0  0  0  0  0  0  0  0
  -21.9780   -6.8450   22.4630 C   0  0  0  0  0  0  0  0  0  0  0  0
  -21.3460   -7.5730   23.4940 C   0  0  0  0  0  3  0  0  0  0  0  0
  -20.9950   -6.9290   24.6970 C   0  0  0  0  0  3  0  0  0  0  0  0
  -21.2660   -5.5570   24.8680 C   0  0  0  0  0  0  0  0  0  0  0  0
  -21.8910   -4.8290   23.8400 C   0  0  0  0  0  3  0  0  0  0  0  0
  -22.2430   -5.4710   22.6390 C   0  0  0  0  0  0  0  0  0  0  0  0
  -22.8260   -4.7600   21.6440 F   0  0  0  0  0  0  0  0  0  0  0  0
  -20.9220   -4.9360   26.0200 F   0  0  0  0  0  0  0  0  0  0  0  0
  -23.7320  -13.9980   21.0410 C   0  0  0  0  0  0  0  0  0  0  0  0
  -23.0350  -13.3420   21.9630 N   0  0  0  0  0  0  0  0  0  0  0  0
  -23.3130  -15.0470   20.5550 O   0  0  0  0  0  0  0  0  0  0  0  0
  -23.3860  -12.4920   22.3790 H   0  0  0  0  0  0  0  0  0  0  0  0
  -22.1360  -13.6970   22.2580 H   0  0  0  0  0  0  0  0  0  0  0  0
  -26.4040  -15.5250   20.0910 N   0  0  0  0  0  0  0  0  0  0  0  0
  -25.6930  -16.2220   20.2770 H   0  0  0  0  0  0  0  0  0  0  0  0
  -27.2540  -15.9150   19.7090 H   0  0  0  0  0  0  0  0  0  0  0  0
  -32.6590  -17.5700   18.1610 N   0  0  0  0  0  4  0  0  0  0  0  0
  -32.7850  -17.6730   17.1690 H   0  0  0  0  0  0  0  0  0  0  0  0
  -33.0330  -16.6720   18.4420 H   0  0  0  0  0  0  0  0  0  0  0  0
  -33.1920  -18.2890   18.6160 H   0  0  0  0  0  0  0  0  0  0  0  0
  -29.5980  -23.8640   20.2630 C   0  0  0  0  0  2  0  0  0  0  0  0
  -28.8330  -24.6520   19.1570 C   0  0  0  0  0  2  0  0  0  0  0  0
  -29.1350  -26.1710   19.1920 C   0  0  0  0  0  2  0  0  0  0  0  0
  -28.4210  -26.8900   18.1830 O   0  0  0  0  0  0  0  0  0  0  0  0
  -24.7100  -30.9210   22.7760 C   0  0  0  0  0  0  0  0  0  0  0  0
  -27.2220  -27.4500   18.5560 C   0  0  0  0  0  0  0  0  0  0  0  0
  -23.3930  -29.7590   21.0340 C   0  0  0  0  0  3  0  0  0  0  0  0
  -24.7480  -28.6700   19.1630 C   0  0  0  0  0  0  0  0  0  0  0  0
  -25.8370  -30.3880   20.6180 C   0  0  0  0  0  2  0  0  0  0  0  0
  -25.9330  -29.1790   19.7130 C   0  0  0  0  0  0  0  0  0  0  0  0
  -27.1720  -28.5730   19.4130 C   0  0  0  0  0  3  0  0  0  0  0  0
  -26.0260  -26.9520   18.0080 C   0  0  0  0  0  3  0  0  0  0  0  0
  -24.7870  -27.5510   18.3110 C   0  0  0  0  0  3  0  0  0  0  0  0
  -23.4620  -29.3800   19.5290 C   0  0  0  0  0  2  0  0  0  0  0  0
  -24.6720  -30.3610   21.5340 N   0  0  0  0  0  0  0  0  0  0  0  0
  -23.6980  -30.9770   23.4870 O   0  0  0  0  0  0  0  0  0  0  0  0
  -22.9500  -28.5130   21.8340 C   0  0  0  0  0  0  0  0  0  0  0  0
  -21.6660  -28.1420   21.7040 N   0  0  0  0  0  0  0  0  0  0  0  0
  -23.7580  -27.8870   22.5240 O   0  0  0  0  0  0  0  0  0  0  0  0
  -21.0640  -28.7150   21.1300 H   0  0  0  0  0  0  0  0  0  0  0  0
  -18.5900  -26.2630   21.9320 C   0  0  0  0  0  0  0  0  0  0  0  0
  -21.0420  -26.9780   22.3310 C   0  0  0  0  0  3  0  0  0  0  0  0
  -21.4330  -25.6720   21.6020 C   0  0  0  0  0  2  0  0  0  0  0  0
  -20.4330  -25.2650   20.5140 C   0  0  0  0  0  2  0  0  0  0  0  0
  -19.0380  -25.0630   21.1150 C   0  0  0  0  0  2  0  0  0  0  0  0
  -19.5290  -27.1700   22.4890 C   0  0  0  0  0  0  0  0  0  0  0  0
  -19.0570  -28.2890   23.2080 C   0  0  0  0  0  3  0  0  0  0  0  0
  -17.6780  -28.5060   23.3770 C   0  0  0  0  0  3  0  0  0  0  0  0
  -16.7520  -27.5960   22.8370 C   0  0  0  0  0  3  0  0  0  0  0  0
  -17.2080  -26.4760   22.1220 C   0  0  0  0  0  3  0  0  0  0  0  0
  -26.0240  -31.5360   23.3540 C   0  0  0  0  0  3  0  0  0  0  0  0
  -25.6820  -32.8390   23.9370 N   0  0  0  0  0  0  0  0  0  0  0  0
  -25.9190  -34.0200   23.3520 C   0  0  0  0  0  0  0  0  0  0  0  0
  -26.5210  -34.1280   22.2790 O   0  0  0  0  0  0  0  0  0  0  0  0
  -25.1300  -32.8250   24.7840 H   0  0  0  0  0  0  0  0  0  0  0  0
  -24.0990  -35.7580   23.4100 C   0  0  0  0  0  1  0  0  0  0  0  0
  -25.4030  -35.2830   24.0700 C   0  0  0  0  0  3  0  0  0  0  0  0
  -27.5450  -36.1170   24.9300 C   0  0  0  0  0  1  0  0  0  0  0  0
  -26.3830  -36.3900   24.0890 N   0  0  0  0  0  0  0  0  0  0  0  0
  -25.9480  -37.2480   24.4150 H   0  0  0  0  0  0  0  0  0  0  0  0
  -26.7260  -30.6120   24.4260 C   0  0  1  0  0  0  0  0  0  0  0  0
  -25.7760  -30.1210   25.5430 C   0  0  0  0  0  1  0  0  0  0  0  0
  -27.3470  -29.3690   23.7480 C   0  0  0  0  0  1  0  0  0  0  0  0
  -27.8920  -31.3790   25.0960 C   0  0  0  0  0  1  0  0  0  0  0  0
  1  2  1  0
  3  1  1  0
  4  7  1  0
  4  2  1  0
  5  3  1  0
  5  4  1  0
  5  6  1  6
  7  9  2  0
  8 11  1  0
  8  7  1  0
 10  8  1  0
 12 18  1  0
 13 18  1  0
 14 15  1  0
 14 13  1  0
 16 15  1  0
 16 27  1  0
 16 17  1  0
 18 17  1  0
 19 12  2  0
 20 21  1  0
 20 23  1  0
 21 52  1  0
 21 22  1  0
 22 11  1  0
 23 12  1  0
 23 22  1  0
 24 25  2  0
 25 44  1  0
 26 25  1  0
 26 29  1  0
 27 28  1  0
 27 24  1  0
 28 26  2  0
 29 30  1  0
 30 31  2  0
 32 35  1  0
 32 31  1  0
 33 32  2  0
 34 33  1  0
 34 29  2  0
 35 36  1  0
 36 41  2  0
 36 37  1  0
 37 38  2  0
 38 39  1  0
 39 43  1  0
 40 39  2  0
 41 40  1  0
 42 41  1  0
 44 45  1  0
 45 48  1  0
 45 47  1  0
 46 44  2  0
 49 24  1  0
 49 50  1  0
 51 49  1  0
 52 54  1  0
 52 55  1  0
 53 52  1  0
 56  5  1  0
 57 58  1  0
 57 56  1  0
 59 61  1  0
 59 58  1  0
 60 71  2  0
 61 66  1  0
 62 70  1  0
 62 72  1  0
 63 69  1  0
 63 65  1  0
 64 70  1  0
 65 64  1  0
 66 65  2  0
 67 68  1  0
 67 61  2  0
 68 63  2  0
 69 62  1  0
 70 60  1  0
 72 74  2  0
 73 72  1  0
 75 73  1  0
 76 85  2  0
 76 81  1  0
 77 73  1  0
 77 81  1  0
 78 77  1  0
 79 80  1  0
 79 78  1  0
 80 76  1  0
 81 82  2  0
 82 83  1  0
 84 83  2  0
 85 84  1  0
 86 60  1  0
 86 87  1  0
 86 96  1  0
 87 90  1  0
 88 87  1  0
 88 92  1  0
 89 88  2  0
 92 91  1  0
 92 94  1  0
 94 95  1  0
 94 93  1  0
 96 99  1  1
 96 97  1  0
 98 96  1  0
M  ISO  4  12 100  23 100  58 101  59 101
M  END
>  <TORSDO>  (78) 
F 22

>  <SCORE>  (78) 
-9.062

>  <name>  (78) 
79

>  <ligand_id>  (78) 
79

>  <original_smiles>  (78) 
[H]c1c([H])c([H])c2c(c1[H])C([H])([H])C([H])([H])C([H])([H])C2([H])N([H])C(=O)C1([H])N(C(=O)C([H])(N([H])C(=O)C([H])(N([H])C([H])([H])[H])C([H])([H])[H])C(C([H])([H])[H])(C([H])([H])[H])C([H])([H])[H])C([H])([H])c2c([H])c(OC([H])([H])C([H])([H])C([H])([H])[N+]3([H])C([H])([H])C([H])([H])C([H])([H])C3([H])C(=O)N([H])C([H])([H])C3([H])N(C(=O)N4C([H])([H])C([H])([H])C([H])([H])C([H])(n5nc(-c6c([H])c([H])c(Oc7c([H])c([H])c(F)c([H])c7F)c([H])c6[H])c(C(=O)N([H])[H])c5N([H])[H])C4([H])[H])C([H])([H])C3([H])[N+]([H])([H])[H])c([H])c([H])c2C1([H])[H]

>  <smiles>  (78) 
[H]c1c([H])c([H])c2c(c1[H])C([H])([H])C([H])([H])C([H])([H])C2([H])N([H])C(=O)C1([H])N(C(=O)C([H])(N([H])C(=O)C([H])(N([H])C([H])([H])[H])C([H])([H])[H])C(C([H])([H])[H])(C([H])([H])[H])C([H])([H])[H])C([H])([H])c2c([H])c(OC([H])([H])C([H])([H])C([H])([H])[N+]3([H])C([H])([H])C([H])([H])C([H])([H])C3([H])C(=O)N([H])C([H])([H])C3([H])N(C(=O)N4C([H])([H])C([H])([H])C([H])([H])C([H])(n5nc(-c6c([H])c([H])c(Oc7c([H])c([H])c(F)c([H])c7F)c([H])c6[H])c(C(=O)N([H])[H])c5N([H])[H])C4([H])[H])C([H])([H])C3([H])[N+]([H])([H])[H])c([H])c([H])c2C1([H])[H]

$$$$
80:0:0
     RDKit          3D

 93101  0  0  1  0  0  0  0  0999 V2000
  -28.8860  -23.4650   20.1150 C   0  0  0  0  0  3  0  0  0  0  0  0
  -30.3330  -23.7600   20.0540 N   0  0  0  0  0  4  0  0  0  0  0  0
  -30.7210  -23.8970   20.9720 H   0  0  0  0  0  0  0  0  0  0  0  0
  -30.4930  -24.6000   19.5250 H   0  0  0  0  0  0  0  0  0  0  0  0
  -30.8340  -23.0140   19.6040 H   0  0  0  0  0  0  0  0  0  0  0  0
  -28.6460  -22.0250   20.9050 C   0  0  0  0  0  2  0  0  0  0  0  0
  -28.1160  -19.5310   20.1110 C   0  0  0  0  0  3  0  0  0  0  0  0
  -28.3470  -18.1100   20.0720 C   0  0  0  0  0  3  0  0  0  0  0  0
  -30.5850  -18.4320   20.7710 C   0  0  0  0  0  3  0  0  0  0  0  0
  -29.0870  -20.4950   20.5220 C   0  0  0  0  0  0  0  0  0  0  0  0
  -29.5790  -17.4700   20.4200 C   0  0  0  0  0  0  0  0  0  0  0  0
  -30.3470  -19.8700   20.8340 C   0  0  0  0  0  0  0  0  0  0  0  0
  -31.3520  -20.6640   21.2730 F   0  0  0  0  0  0  0  0  0  0  0  0
  -30.5060  -14.8840   20.3160 C   0  0  0  0  0  0  0  0  0  0  0  0
  -30.4050  -12.5660   19.3220 C   0  0  0  0  0  2  0  0  0  0  0  0
  -29.4520  -12.5810   18.1030 C   0  0  0  0  0  2  0  0  0  0  0  0
  -27.9870  -12.3800   18.5410 C   0  0  0  0  0  2  0  0  0  0  0  0
  -27.6020  -13.2740   19.7470 C   0  0  0  0  0  3  0  0  0  0  0  0
  -28.6670  -13.2110   20.8640 C   0  0  0  0  0  2  0  0  0  0  0  0
  -29.9480  -13.6160   20.2660 N   0  0  0  0  0  0  0  0  0  0  0  0
  -31.6940  -15.0300   20.0100 O   0  0  0  0  0  0  0  0  0  0  0  0
  -29.6150  -15.9540   20.5040 N   0  0  0  0  0  0  0  0  0  0  0  0
  -28.6950  -15.5700   20.6450 H   0  0  0  0  0  0  0  0  0  0  0  0
  -25.2160  -13.8600   20.4850 C   0  0  0  0  0  0  0  0  0  0  0  0
  -24.1540  -13.0840   20.8620 C   0  0  0  0  0  0  0  0  0  0  0  0
  -24.6200  -11.7350   20.8320 C   0  0  0  0  0  0  0  0  0  0  0  0
  -26.2610  -12.9830   20.2450 N   0  0  0  0  0  0  0  0  0  0  0  0
  -25.9100  -11.7000   20.5180 N   0  0  0  0  0  0  0  0  0  0  0  0
  -23.8980  -10.4710   21.0260 C   0  0  0  0  0  0  0  0  0  0  0  0
  -24.3350   -9.5060   21.9600 C   0  0  0  0  0  3  0  0  0  0  0  0
  -23.6110   -8.3080   22.1420 C   0  0  0  0  0  3  0  0  0  0  0  0
  -22.4370   -8.0670   21.3900 C   0  0  0  0  0  0  0  0  0  0  0  0
  -22.0200   -9.0200   20.4450 C   0  0  0  0  0  3  0  0  0  0  0  0
  -22.7440  -10.2100   20.2610 C   0  0  0  0  0  3  0  0  0  0  0  0
  -21.6860   -6.9190   21.4810 O   0  0  0  0  0  0  0  0  0  0  0  0
  -21.6430   -6.1770   22.6340 C   0  0  0  0  0  0  0  0  0  0  0  0
  -21.2220   -6.7300   23.8620 C   0  0  0  0  0  3  0  0  0  0  0  0
  -21.1270   -5.9140   25.0060 C   0  0  0  0  0  3  0  0  0  0  0  0
  -21.4440   -4.5440   24.9240 C   0  0  0  0  0  0  0  0  0  0  0  0
  -21.8590   -3.9900   23.7000 C   0  0  0  0  0  3  0  0  0  0  0  0
  -21.9550   -4.8040   22.5570 C   0  0  0  0  0  0  0  0  0  0  0  0
  -22.3350   -4.2610   21.3760 F   0  0  0  0  0  0  0  0  0  0  0  0
  -21.3460   -3.7580   26.0210 F   0  0  0  0  0  0  0  0  0  0  0  0
  -22.7560  -13.5600   21.1350 C   0  0  0  0  0  0  0  0  0  0  0  0
  -22.0300  -12.8630   22.0020 N   0  0  0  0  0  0  0  0  0  0  0  0
  -22.3160  -14.5830   20.6130 O   0  0  0  0  0  0  0  0  0  0  0  0
  -22.3990  -12.0360   22.4460 H   0  0  0  0  0  0  0  0  0  0  0  0
  -21.0930  -13.1640   22.2260 H   0  0  0  0  0  0  0  0  0  0  0  0
  -25.3720  -15.2300   20.2990 N   0  0  0  0  0  0  0  0  0  0  0  0
  -24.5910  -15.8710   20.3910 H   0  0  0  0  0  0  0  0  0  0  0  0
  -26.1850  -15.6600   19.8810 H   0  0  0  0  0  0  0  0  0  0  0  0
  -28.0730  -24.8240   20.6380 C   0  0  0  0  0  2  0  0  0  0  0  0
  -28.3010  -26.2820   20.2070 O   0  0  0  0  0  0  0  0  0  0  0  0
  -24.6230  -31.8750   23.2250 C   0  0  0  0  0  0  0  0  0  0  0  0
  -27.2190  -27.2160   20.1930 C   0  0  0  0  0  0  0  0  0  0  0  0
  -23.4240  -30.4800   21.5820 C   0  0  0  0  0  3  0  0  0  0  0  0
  -24.8750  -28.9130   20.1610 C   0  0  0  0  0  0  0  0  0  0  0  0
  -25.9730  -30.7650   21.4140 C   0  0  0  0  0  2  0  0  0  0  0  0
  -26.0510  -29.3770   20.7650 C   0  0  0  0  0  0  0  0  0  0  0  0
  -27.2260  -28.5450   20.7630 C   0  0  0  0  0  3  0  0  0  0  0  0
  -26.0200  -26.8400   19.5500 C   0  0  0  0  0  3  0  0  0  0  0  0
  -24.8690  -27.6550   19.5380 C   0  0  0  0  0  3  0  0  0  0  0  0
  -23.6450  -29.8030   20.2040 C   0  0  0  0  0  2  0  0  0  0  0  0
  -24.6930  -31.0600   22.1300 N   0  0  0  0  0  0  0  0  0  0  0  0
  -23.5380  -32.1560   23.7550 O   0  0  0  0  0  0  0  0  0  0  0  0
  -22.7490  -29.4690   22.5420 C   0  0  0  0  0  0  0  0  0  0  0  0
  -21.4210  -29.2960   22.4140 N   0  0  0  0  0  0  0  0  0  0  0  0
  -23.4220  -28.8420   23.3640 O   0  0  0  0  0  0  0  0  0  0  0  0
  -20.9360  -29.8540   21.7250 H   0  0  0  0  0  0  0  0  0  0  0  0
  -18.0410  -28.0960   22.9060 C   0  0  0  0  0  0  0  0  0  0  0  0
  -20.5990  -28.3600   23.1830 C   0  0  0  0  0  3  0  0  0  0  0  0
  -20.7040  -26.9270   22.6100 C   0  0  0  0  0  2  0  0  0  0  0  0
  -19.6050  -26.6020   21.5920 C   0  0  0  0  0  2  0  0  0  0  0  0
  -18.2210  -26.7460   22.2310 C   0  0  0  0  0  2  0  0  0  0  0  0
  -19.1580  -28.8600   23.3380 C   0  0  0  0  0  0  0  0  0  0  0  0
  -18.9340  -30.1230   23.9300 C   0  0  0  0  0  3  0  0  0  0  0  0
  -17.6270  -30.6210   24.0930 C   0  0  0  0  0  3  0  0  0  0  0  0
  -16.5260  -29.8540   23.6750 C   0  0  0  0  0  3  0  0  0  0  0  0
  -16.7340  -28.5930   23.0870 C   0  0  0  0  0  3  0  0  0  0  0  0
  -25.9030  -32.5080   23.8530 C   0  0  0  0  0  3  0  0  0  0  0  0
  -26.4100  -31.7390   25.1340 C   0  0  1  0  0  0  0  0  0  0  0  0
  -25.3120  -31.5100   26.1990 C   0  0  0  0  0  1  0  0  0  0  0  0
  -26.9880  -30.3570   24.7540 C   0  0  0  0  0  1  0  0  0  0  0  0
  -27.5610  -32.5300   25.7980 C   0  0  0  0  0  1  0  0  0  0  0  0
  -25.5930  -33.9070   24.1830 N   0  0  0  0  0  0  0  0  0  0  0  0
  -25.9270  -34.9620   23.4270 C   0  0  0  0  0  0  0  0  0  0  0  0
  -26.5960  -34.8590   22.3960 O   0  0  0  0  0  0  0  0  0  0  0  0
  -24.9980  -34.0600   24.9840 H   0  0  0  0  0  0  0  0  0  0  0  0
  -24.2030  -36.7630   23.0790 C   0  0  0  0  0  1  0  0  0  0  0  0
  -25.4430  -36.3510   23.8890 C   0  0  0  0  0  3  0  0  0  0  0  0
  -27.5810  -37.2300   24.7200 C   0  0  0  0  0  1  0  0  0  0  0  0
  -26.4790  -37.4020   23.7780 N   0  0  0  0  0  0  0  0  0  0  0  0
  -26.0750  -38.3230   23.9270 H   0  0  0  0  0  0  0  0  0  0  0  0
  1 52  1  0
  1  6  1  0
  2  1  1  0
  2  3  1  0
  4  2  1  0
  5  2  1  0
  7 10  1  0
  8  7  2  0
  8 11  1  0
  9 12  1  0
 10 12  2  0
 10  6  1  0
 11 22  1  0
 11  9  2  0
 12 13  1  0
 14 22  1  0
 15 20  1  0
 16 17  1  0
 16 15  1  0
 18 17  1  0
 18 27  1  0
 18 19  1  0
 20 14  1  0
 20 19  1  0
 21 14  2  0
 22 23  1  0
 24 25  2  0
 25 44  1  0
 26 25  1  0
 26 29  1  0
 27 24  1  0
 27 28  1  0
 28 26  2  0
 29 30  1  0
 30 31  2  0
 32 35  1  0
 32 31  1  0
 33 32  2  0
 34 33  1  0
 34 29  2  0
 35 36  1  0
 36 37  1  0
 37 38  2  0
 39 38  1  0
 39 43  1  0
 40 39  2  0
 41 36  2  0
 41 40  1  0
 42 41  1  0
 44 45  1  0
 45 48  1  0
 45 47  1  0
 46 44  2  0
 49 50  1  0
 49 24  1  0
 51 49  1  0
 53 52  1  0
 54 65  2  0
 55 53  1  0
 55 60  1  0
 56 64  1  0
 56 66  1  0
 57 63  1  0
 57 59  1  0
 58 64  1  0
 59 58  1  0
 60 59  2  0
 61 55  2  0
 62 61  1  0
 62 57  2  0
 63 56  1  0
 64 54  1  0
 66 68  2  0
 67 66  1  0
 69 67  1  0
 70 79  2  0
 70 75  1  0
 71 67  1  0
 71 75  1  0
 72 71  1  0
 73 74  1  0
 73 72  1  0
 74 70  1  0
 75 76  2  0
 76 77  1  0
 78 77  2  0
 79 78  1  0
 80 54  1  0
 80 85  1  0
 80 81  1  0
 81 84  1  1
 81 82  1  0
 83 81  1  0
 85 88  1  0
 86 90  1  0
 86 85  1  0
 87 86  2  0
 90 89  1  0
 92 90  1  0
 92 93  1  0
 92 91  1  0
M  ISO  4  14 100  22 100  52 101  53 101
M  END
>  <TORSDO>  (79) 
F 20

>  <SCORE>  (79) 
-14.302

>  <name>  (79) 
80

>  <ligand_id>  (79) 
80

>  <original_smiles>  (79) 
[H]c1c([H])c([H])c2c(c1[H])C([H])([H])C([H])([H])C([H])([H])C2([H])N([H])C(=O)C1([H])N(C(=O)C([H])(N([H])C(=O)C([H])(N([H])C([H])([H])[H])C([H])([H])[H])C(C([H])([H])[H])(C([H])([H])[H])C([H])([H])[H])C([H])([H])c2c([H])c(OC([H])([H])C([H])(C([H])([H])c3c([H])c([H])c(N([H])C(=O)N4C([H])([H])C([H])([H])C([H])([H])C([H])(n5nc(-c6c([H])c([H])c(Oc7c([H])c([H])c(F)c([H])c7F)c([H])c6[H])c(C(=O)N([H])[H])c5N([H])[H])C4([H])[H])c([H])c3F)[N+]([H])([H])[H])c([H])c([H])c2C1([H])[H]

>  <smiles>  (79) 
[H]c1c([H])c([H])c2c(c1[H])C([H])([H])C([H])([H])C([H])([H])C2([H])N([H])C(=O)C1([H])N(C(=O)C([H])(N([H])C(=O)C([H])(N([H])C([H])([H])[H])C([H])([H])[H])C(C([H])([H])[H])(C([H])([H])[H])C([H])([H])[H])C([H])([H])c2c([H])c(OC([H])([H])C([H])(C([H])([H])c3c([H])c([H])c(N([H])C(=O)N4C([H])([H])C([H])([H])C([H])([H])C([H])(n5nc(-c6c([H])c([H])c(Oc7c([H])c([H])c(F)c([H])c7F)c([H])c6[H])c(C(=O)N([H])[H])c5N([H])[H])C4([H])[H])c([H])c3F)[N+]([H])([H])[H])c([H])c([H])c2C1([H])[H]

$$$$
81:0:0
     RDKit          3D

 94102  0  0  1  0  0  0  0  0999 V2000
  -30.9200  -17.5570   19.1350 C   0  0  0  0  0  3  0  0  0  0  0  0
  -30.4010  -19.9600   19.1650 C   0  0  0  0  0  3  0  0  0  0  0  0
  -29.2130  -18.4160   20.6280 C   0  0  0  0  0  3  0  0  0  0  0  0
  -31.1400  -18.8670   18.6480 C   0  0  0  0  0  0  0  0  0  0  0  0
  -29.9790  -17.2700   20.1570 C   0  0  0  0  0  0  0  0  0  0  0  0
  -29.4040  -19.7800   20.1520 C   0  0  0  0  0  0  0  0  0  0  0  0
  -30.5680  -14.7250   20.3960 C   0  0  0  0  0  0  0  0  0  0  0  0
  -30.3650  -12.4660   19.3690 C   0  0  0  0  0  2  0  0  0  0  0  0
  -29.4400  -12.6180   18.1440 C   0  0  0  0  0  2  0  0  0  0  0  0
  -27.9680  -12.4270   18.5610 C   0  0  0  0  0  2  0  0  0  0  0  0
  -27.5940  -13.2780   19.8080 C   0  0  0  0  0  3  0  0  0  0  0  0
  -28.6470  -13.1480   20.9270 C   0  0  0  0  0  2  0  0  0  0  0  0
  -29.9500  -13.4950   20.3520 N   0  0  0  0  0  0  0  0  0  0  0  0
  -31.7650  -14.8080   20.0870 O   0  0  0  0  0  0  0  0  0  0  0  0
  -29.7890  -15.8550   20.6130 N   0  0  0  0  0  0  0  0  0  0  0  0
  -28.9060  -15.6580   21.0590 H   0  0  0  0  0  0  0  0  0  0  0  0
  -25.2040  -13.8560   20.5290 C   0  0  0  0  0  0  0  0  0  0  0  0
  -24.1440  -13.0780   20.9020 C   0  0  0  0  0  0  0  0  0  0  0  0
  -24.6080  -11.7300   20.8690 C   0  0  0  0  0  0  0  0  0  0  0  0
  -26.2510  -12.9810   20.2880 N   0  0  0  0  0  0  0  0  0  0  0  0
  -25.8990  -11.6950   20.5610 N   0  0  0  0  0  0  0  0  0  0  0  0
  -23.8810  -10.4670   21.0570 C   0  0  0  0  0  0  0  0  0  0  0  0
  -24.3240   -9.4950   21.9800 C   0  0  0  0  0  3  0  0  0  0  0  0
  -23.6000   -8.2970   22.1630 C   0  0  0  0  0  3  0  0  0  0  0  0
  -22.4190   -8.0630   21.4200 C   0  0  0  0  0  0  0  0  0  0  0  0
  -21.9940   -9.0230   20.4870 C   0  0  0  0  0  3  0  0  0  0  0  0
  -22.7170  -10.2120   20.3030 C   0  0  0  0  0  3  0  0  0  0  0  0
  -21.6630   -6.9200   21.5150 O   0  0  0  0  0  0  0  0  0  0  0  0
  -21.6360   -6.1620   22.6590 C   0  0  0  0  0  0  0  0  0  0  0  0
  -21.2440   -6.7040   23.9020 C   0  0  0  0  0  3  0  0  0  0  0  0
  -21.1670   -5.8730   25.0390 C   0  0  0  0  0  3  0  0  0  0  0  0
  -21.4690   -4.5010   24.9320 C   0  0  0  0  0  0  0  0  0  0  0  0
  -21.8510   -3.9600   23.6930 C   0  0  0  0  0  3  0  0  0  0  0  0
  -21.9330   -4.7870   22.5590 C   0  0  0  0  0  0  0  0  0  0  0  0
  -22.2820   -4.2560   21.3620 F   0  0  0  0  0  0  0  0  0  0  0  0
  -21.3860   -3.7020   26.0190 F   0  0  0  0  0  0  0  0  0  0  0  0
  -22.7430  -13.5530   21.1700 C   0  0  0  0  0  0  0  0  0  0  0  0
  -22.0110  -12.8590   22.0360 N   0  0  0  0  0  0  0  0  0  0  0  0
  -22.3070  -14.5740   20.6430 O   0  0  0  0  0  0  0  0  0  0  0  0
  -22.3750  -12.0370   22.4960 H   0  0  0  0  0  0  0  0  0  0  0  0
  -21.0700  -13.1610   22.2480 H   0  0  0  0  0  0  0  0  0  0  0  0
  -25.3650  -15.2280   20.3520 N   0  0  0  0  0  0  0  0  0  0  0  0
  -24.5920  -15.8740   20.4780 H   0  0  0  0  0  0  0  0  0  0  0  0
  -26.2090  -15.6740   20.0090 H   0  0  0  0  0  0  0  0  0  0  0  0
  -32.1870  -19.1200   17.5600 C   0  0  1  0  0  0  0  0  0  0  0  0
  -32.7370  -17.9920   17.1070 F   0  0  0  0  0  0  0  0  0  0  0  0
  -31.6410  -19.7540   16.5210 F   0  0  0  0  0  0  0  0  0  0  0  0
  -33.1600  -19.8900   18.0480 F   0  0  0  0  0  0  0  0  0  0  0  0
  -28.6050  -20.9200   20.5670 N   0  0  0  0  0  0  0  0  0  0  0  0
  -27.8230  -20.6670   21.1710 H   0  0  0  0  0  0  0  0  0  0  0  0
  -29.1020  -22.3390   20.8030 C   0  0  0  0  0  2  0  0  0  0  0  0
  -28.3690  -23.6230   20.1280 C   0  0  0  0  0  2  0  0  0  0  0  0
  -28.2220  -25.0300   20.9340 C   0  0  0  0  0  2  0  0  0  0  0  0
  -28.3480  -26.3930   20.3110 O   0  0  0  0  0  0  0  0  0  0  0  0
  -24.6090  -31.8830   23.2500 C   0  0  0  0  0  0  0  0  0  0  0  0
  -27.2400  -27.2620   20.2940 C   0  0  0  0  0  0  0  0  0  0  0  0
  -23.4230  -30.4650   21.6170 C   0  0  0  0  0  3  0  0  0  0  0  0
  -24.8840  -28.8940   20.2220 C   0  0  0  0  0  0  0  0  0  0  0  0
  -25.9630  -30.7830   21.4450 C   0  0  0  0  0  2  0  0  0  0  0  0
  -26.0510  -29.3930   20.8190 C   0  0  0  0  0  0  0  0  0  0  0  0
  -27.2350  -28.5900   20.8370 C   0  0  0  0  0  3  0  0  0  0  0  0
  -26.0530  -26.8190   19.6750 C   0  0  0  0  0  3  0  0  0  0  0  0
  -24.8890  -27.6150   19.6390 C   0  0  0  0  0  3  0  0  0  0  0  0
  -23.6450  -29.7690   20.2490 C   0  0  0  0  0  2  0  0  0  0  0  0
  -24.6850  -31.0600   22.1610 N   0  0  0  0  0  0  0  0  0  0  0  0
  -23.5190  -32.1640   23.7740 O   0  0  0  0  0  0  0  0  0  0  0  0
  -22.7540  -29.4590   22.5820 C   0  0  0  0  0  0  0  0  0  0  0  0
  -21.4300  -29.2760   22.4410 N   0  0  0  0  0  0  0  0  0  0  0  0
  -23.4240  -28.8450   23.4150 O   0  0  0  0  0  0  0  0  0  0  0  0
  -20.9500  -29.8190   21.7380 H   0  0  0  0  0  0  0  0  0  0  0  0
  -18.0490  -28.0770   22.9130 C   0  0  0  0  0  0  0  0  0  0  0  0
  -20.6030  -28.3430   23.2090 C   0  0  0  0  0  3  0  0  0  0  0  0
  -20.7140  -26.9080   22.6430 C   0  0  0  0  0  2  0  0  0  0  0  0
  -19.6230  -26.5760   21.6200 C   0  0  0  0  0  2  0  0  0  0  0  0
  -18.2340  -26.7230   22.2470 C   0  0  0  0  0  2  0  0  0  0  0  0
  -19.1610  -28.8440   23.3500 C   0  0  0  0  0  0  0  0  0  0  0  0
  -18.9350  -30.1110   23.9280 C   0  0  0  0  0  3  0  0  0  0  0  0
  -17.6280  -30.6110   24.0790 C   0  0  0  0  0  3  0  0  0  0  0  0
  -16.5290  -29.8430   23.6580 C   0  0  0  0  0  3  0  0  0  0  0  0
  -16.7400  -28.5770   23.0800 C   0  0  0  0  0  3  0  0  0  0  0  0
  -25.8840  -32.5210   23.8830 C   0  0  0  0  0  3  0  0  0  0  0  0
  -25.5680  -33.9220   24.1980 N   0  0  0  0  0  0  0  0  0  0  0  0
  -25.9090  -34.9710   23.4390 C   0  0  0  0  0  0  0  0  0  0  0  0
  -26.5910  -34.8620   22.4150 O   0  0  0  0  0  0  0  0  0  0  0  0
  -24.9530  -34.0790   24.9850 H   0  0  0  0  0  0  0  0  0  0  0  0
  -24.1790  -36.7600   23.0630 C   0  0  0  0  0  1  0  0  0  0  0  0
  -25.4150  -36.3620   23.8840 C   0  0  0  0  0  3  0  0  0  0  0  0
  -27.5450  -37.2540   24.7210 C   0  0  0  0  0  1  0  0  0  0  0  0
  -26.4480  -37.4160   23.7720 N   0  0  0  0  0  0  0  0  0  0  0  0
  -26.0380  -38.3380   23.9130 H   0  0  0  0  0  0  0  0  0  0  0  0
  -26.3790  -31.7640   25.1760 C   0  0  1  0  0  0  0  0  0  0  0  0
  -25.2680  -31.5440   26.2310 C   0  0  0  0  0  1  0  0  0  0  0  0
  -26.9630  -30.3800   24.8070 C   0  0  0  0  0  1  0  0  0  0  0  0
  -27.5210  -32.5630   25.8460 C   0  0  0  0  0  1  0  0  0  0  0  0
  1  5  1  0
  2  6  2  0
  4  1  2  0
  4  2  1  0
  5 15  1  0
  5  3  2  0
  6 49  1  0
  6  3  1  0
  7 15  1  0
  8 13  1  0
  9 10  1  0
  9  8  1  0
 11 10  1  0
 11 20  1  0
 11 12  1  0
 13  7  1  0
 13 12  1  0
 14  7  2  0
 15 16  1  0
 17 18  2  0
 18 37  1  0
 19 18  1  0
 19 22  1  0
 20 17  1  0
 20 21  1  0
 21 19  2  0
 22 23  1  0
 23 24  2  0
 25 28  1  0
 25 24  1  0
 26 25  2  0
 27 26  1  0
 27 22  2  0
 28 29  1  0
 29 30  1  0
 30 31  2  0
 32 31  1  0
 32 36  1  0
 33 32  2  0
 34 29  2  0
 34 33  1  0
 35 34  1  0
 37 38  1  0
 38 41  1  0
 38 40  1  0
 39 37  2  0
 42 43  1  0
 42 17  1  0
 44 42  1  0
 45 48  1  1
 45  4  1  0
 46 45  1  0
 47 45  1  0
 49 51  1  0
 49 50  1  0
 52 51  1  0
 52 53  1  0
 54 53  1  0
 55 66  2  0
 56 54  1  0
 56 61  1  0
 57 65  1  0
 57 67  1  0
 58 64  1  0
 58 60  1  0
 59 65  1  0
 60 61  2  0
 60 59  1  0
 62 56  2  0
 63 62  1  0
 63 58  2  0
 64 57  1  0
 65 55  1  0
 67 69  2  0
 68 67  1  0
 70 68  1  0
 71 80  2  0
 71 76  1  0
 72 68  1  0
 72 76  1  0
 73 72  1  0
 74 75  1  0
 74 73  1  0
 75 71  1  0
 76 77  2  0
 77 78  1  0
 79 78  2  0
 80 79  1  0
 81 55  1  0
 81 82  1  0
 81 91  1  0
 82 85  1  0
 83 87  1  0
 83 82  1  0
 84 83  2  0
 87 86  1  0
 89 87  1  0
 89 90  1  0
 89 88  1  0
 91 94  1  1
 91 92  1  0
 93 91  1  0
M  ISO  4   7 100  15 100  53 101  54 101
M  END
>  <TORSDO>  (80) 
F 21

>  <SCORE>  (80) 
-13.624

>  <name>  (80) 
81

>  <ligand_id>  (80) 
81

>  <original_smiles>  (80) 
[H]c1c([H])c([H])c2c(c1[H])C([H])([H])C([H])([H])C([H])([H])C2([H])N([H])C(=O)C1([H])N(C(=O)C([H])(N([H])C(=O)C([H])(N([H])C([H])([H])[H])C([H])([H])[H])C(C([H])([H])[H])(C([H])([H])[H])C([H])([H])[H])C([H])([H])c2c([H])c(OC([H])([H])C([H])([H])C([H])([H])N([H])c3c([H])c(N([H])C(=O)N4C([H])([H])C([H])([H])C([H])([H])C([H])(n5nc(-c6c([H])c([H])c(Oc7c([H])c([H])c(F)c([H])c7F)c([H])c6[H])c(C(=O)N([H])[H])c5N([H])[H])C4([H])[H])c([H])c(C(F)(F)F)c3[H])c([H])c([H])c2C1([H])[H]

>  <smiles>  (80) 
[H]c1c([H])c([H])c2c(c1[H])C([H])([H])C([H])([H])C([H])([H])C2([H])N([H])C(=O)C1([H])N(C(=O)C([H])(N([H])C(=O)C([H])(N([H])C([H])([H])[H])C([H])([H])[H])C(C([H])([H])[H])(C([H])([H])[H])C([H])([H])[H])C([H])([H])c2c([H])c(OC([H])([H])C([H])([H])C([H])([H])N([H])c3c([H])c(N([H])C(=O)N4C([H])([H])C([H])([H])C([H])([H])C([H])(n5nc(-c6c([H])c([H])c(Oc7c([H])c([H])c(F)c([H])c7F)c([H])c6[H])c(C(=O)N([H])[H])c5N([H])[H])C4([H])[H])c([H])c(C(F)(F)F)c3[H])c([H])c([H])c2C1([H])[H]

$$$$
82:0:0
     RDKit          3D

 93101  0  0  1  0  0  0  0  0999 V2000
  -29.4620  -22.0250   21.1170 C   0  0  0  0  0  2  0  0  0  0  0  0
  -29.5450  -23.4840   21.6210 C   0  0  2  0  0  0  0  0  0  0  0  0
  -30.8320  -23.8110   21.7590 F   0  0  0  0  0  0  0  0  0  0  0  0
  -28.9540  -23.5610   22.8140 F   0  0  0  0  0  0  0  0  0  0  0  0
  -28.8810  -24.5050   20.6680 C   0  0  0  0  0  2  0  0  0  0  0  0
  -28.8960  -25.9530   21.1990 C   0  0  0  0  0  2  0  0  0  0  0  0
  -28.6590  -26.8750   20.1350 O   0  0  0  0  0  0  0  0  0  0  0  0
  -24.6520  -31.8760   23.2570 C   0  0  0  0  0  0  0  0  0  0  0  0
  -27.4640  -27.5460   20.1950 C   0  0  0  0  0  0  0  0  0  0  0  0
  -23.5030  -30.4400   21.5990 C   0  0  0  0  0  3  0  0  0  0  0  0
  -25.0180  -28.9470   20.1920 C   0  0  0  0  0  0  0  0  0  0  0  0
  -26.0140  -30.8840   21.4240 C   0  0  0  0  0  2  0  0  0  0  0  0
  -26.1500  -29.5150   20.7920 C   0  0  0  0  0  0  0  0  0  0  0  0
  -27.3780  -28.8190   20.7970 C   0  0  0  0  0  3  0  0  0  0  0  0
  -26.3220  -26.9800   19.5960 C   0  0  0  0  0  3  0  0  0  0  0  0
  -25.0960  -27.6750   19.5950 C   0  0  0  0  0  3  0  0  0  0  0  0
  -23.7460  -29.7650   20.2220 C   0  0  0  0  0  2  0  0  0  0  0  0
  -24.7390  -31.0820   22.1530 N   0  0  0  0  0  0  0  0  0  0  0  0
  -23.5590  -32.1140   23.7900 O   0  0  0  0  0  0  0  0  0  0  0  0
  -22.8750  -29.4000   22.5530 C   0  0  0  0  0  0  0  0  0  0  0  0
  -21.5660  -29.1490   22.3860 N   0  0  0  0  0  0  0  0  0  0  0  0
  -23.5620  -28.8190   23.3970 O   0  0  0  0  0  0  0  0  0  0  0  0
  -21.0730  -29.6730   21.6770 H   0  0  0  0  0  0  0  0  0  0  0  0
  -18.2500  -27.7660   22.7590 C   0  0  0  0  0  0  0  0  0  0  0  0
  -20.7720  -28.1800   23.1400 C   0  0  0  0  0  3  0  0  0  0  0  0
  -20.9860  -26.7460   22.6020 C   0  0  0  0  0  2  0  0  0  0  0  0
  -19.9530  -26.3380   21.5470 C   0  0  0  0  0  2  0  0  0  0  0  0
  -18.5370  -26.4150   22.1250 C   0  0  0  0  0  2  0  0  0  0  0  0
  -19.3010  -28.6000   23.2210 C   0  0  0  0  0  0  0  0  0  0  0  0
  -18.9830  -29.8610   23.7710 C   0  0  0  0  0  3  0  0  0  0  0  0
  -17.6450  -30.2880   23.8650 C   0  0  0  0  0  3  0  0  0  0  0  0
  -16.6070  -29.4500   23.4210 C   0  0  0  0  0  3  0  0  0  0  0  0
  -16.9110  -28.1910   22.8730 C   0  0  0  0  0  3  0  0  0  0  0  0
  -25.9150  -32.5420   23.8900 C   0  0  0  0  0  3  0  0  0  0  0  0
  -25.5810  -33.9440   24.1750 N   0  0  0  0  0  0  0  0  0  0  0  0
  -25.9100  -34.9770   23.3890 C   0  0  0  0  0  0  0  0  0  0  0  0
  -26.5990  -34.8540   22.3720 O   0  0  0  0  0  0  0  0  0  0  0  0
  -24.9740  -34.1140   24.9640 H   0  0  0  0  0  0  0  0  0  0  0  0
  -24.1550  -36.7230   22.9520 C   0  0  0  0  0  1  0  0  0  0  0  0
  -25.3910  -36.3700   23.7940 C   0  0  0  0  0  3  0  0  0  0  0  0
  -27.4970  -37.3200   24.6240 C   0  0  0  0  0  1  0  0  0  0  0  0
  -26.4060  -37.4380   23.6600 N   0  0  0  0  0  0  0  0  0  0  0  0
  -25.9830  -38.3550   23.7720 H   0  0  0  0  0  0  0  0  0  0  0  0
  -26.4160  -31.8100   25.1950 C   0  0  1  0  0  0  0  0  0  0  0  0
  -25.3040  -31.5750   26.2430 C   0  0  0  0  0  1  0  0  0  0  0  0
  -27.0330  -30.4350   24.8470 C   0  0  0  0  0  1  0  0  0  0  0  0
  -27.5370  -32.6400   25.8640 C   0  0  0  0  0  1  0  0  0  0  0  0
  -30.3660  -21.0500   21.9140 C   0  0  0  0  0  2  0  0  0  0  0  0
  -30.2600  -17.7490   19.8980 C   0  0  0  0  0  2  0  0  0  0  0  0
  -30.5440  -17.2300   22.3360 C   0  0  0  0  0  2  0  0  0  0  0  0
  -30.5570  -19.2340   20.2080 C   0  0  0  0  0  2  0  0  0  0  0  0
  -30.8290  -18.7250   22.5910 C   0  0  0  0  0  2  0  0  0  0  0  0
  -30.9290  -16.7930   20.9090 C   0  0  0  0  0  3  0  0  0  0  0  0
  -30.1610  -19.6070   21.5950 N   0  0  1  0  0  4  0  0  0  0  0  0
  -29.1700  -19.4370   21.6820 H   0  0  0  0  0  0  0  0  0  0  0  0
  -31.0820  -14.4730   19.9290 C   0  0  0  0  0  0  0  0  0  0  0  0
  -30.6900  -12.3110   18.8010 C   0  0  0  0  0  2  0  0  0  0  0  0
  -29.6900  -12.4980   17.6410 C   0  0  0  0  0  2  0  0  0  0  0  0
  -28.2360  -12.3960   18.1440 C   0  0  0  0  0  2  0  0  0  0  0  0
  -27.9750  -13.2770   19.3950 C   0  0  0  0  0  3  0  0  0  0  0  0
  -29.0730  -13.0440   20.4570 C   0  0  0  0  0  2  0  0  0  0  0  0
  -30.3810  -13.3130   19.8310 N   0  0  0  0  0  0  0  0  0  0  0  0
  -32.1290  -14.6930   19.3130 O   0  0  0  0  0  0  0  0  0  0  0  0
  -30.5020  -15.4070   20.6980 N   0  0  0  0  0  0  0  0  0  0  0  0
  -29.6510  -15.1140   21.1560 H   0  0  0  0  0  0  0  0  0  0  0  0
  -25.6420  -13.9650   20.2440 C   0  0  0  0  0  0  0  0  0  0  0  0
  -24.5670  -13.2270   20.6600 C   0  0  0  0  0  0  0  0  0  0  0  0
  -24.9720  -11.8600   20.5790 C   0  0  0  0  0  0  0  0  0  0  0  0
  -26.6380  -13.0500   19.9400 N   0  0  0  0  0  0  0  0  0  0  0  0
  -26.2410  -11.7770   20.1970 N   0  0  0  0  0  0  0  0  0  0  0  0
  -24.2100  -10.6220   20.7900 C   0  0  0  0  0  0  0  0  0  0  0  0
  -24.6200   -9.6540   21.7330 C   0  0  0  0  0  3  0  0  0  0  0  0
  -23.8620   -8.4810   21.9300 C   0  0  0  0  0  3  0  0  0  0  0  0
  -22.6790   -8.2680   21.1830 C   0  0  0  0  0  0  0  0  0  0  0  0
  -22.2870   -9.2240   20.2300 C   0  0  0  0  0  3  0  0  0  0  0  0
  -23.0470  -10.3890   20.0310 C   0  0  0  0  0  3  0  0  0  0  0  0
  -21.8920   -7.1460   21.2890 O   0  0  0  0  0  0  0  0  0  0  0  0
  -21.7610   -6.4690   22.4750 C   0  0  0  0  0  0  0  0  0  0  0  0
  -21.2830   -7.0990   23.6450 C   0  0  0  0  0  3  0  0  0  0  0  0
  -21.0980   -6.3480   24.8230 C   0  0  0  0  0  3  0  0  0  0  0  0
  -21.3790   -4.9680   24.8320 C   0  0  0  0  0  0  0  0  0  0  0  0
  -21.8500   -4.3390   23.6660 C   0  0  0  0  0  3  0  0  0  0  0  0
  -22.0370   -5.0870   22.4900 C   0  0  0  0  0  0  0  0  0  0  0  0
  -22.4700   -4.4700   21.3650 F   0  0  0  0  0  0  0  0  0  0  0  0
  -21.1940   -4.2460   25.9610 F   0  0  0  0  0  0  0  0  0  0  0  0
  -23.2080  -13.7520   21.0220 C   0  0  0  0  0  0  0  0  0  0  0  0
  -22.5110  -13.0760   21.9300 N   0  0  0  0  0  0  0  0  0  0  0  0
  -22.7730  -14.7960   20.5340 O   0  0  0  0  0  0  0  0  0  0  0  0
  -22.8740  -12.2310   22.3450 H   0  0  0  0  0  0  0  0  0  0  0  0
  -21.6010  -13.4100   22.2140 H   0  0  0  0  0  0  0  0  0  0  0  0
  -25.8500  -15.3320   20.0820 N   0  0  0  0  0  0  0  0  0  0  0  0
  -25.1150  -16.0120   20.2420 H   0  0  0  0  0  0  0  0  0  0  0  0
  -26.6980  -15.7450   19.7130 H   0  0  0  0  0  0  0  0  0  0  0  0
  1  2  1  0
  1 48  1  0
  2  3  1  1
  2  4  1  0
  5  6  1  0
  5  2  1  0
  7  9  1  0
  7  6  1  0
  8 19  2  0
  9 14  1  0
 10 18  1  0
 10 20  1  0
 11 17  1  0
 11 13  1  0
 12 18  1  0
 13 14  2  0
 13 12  1  0
 15  9  2  0
 16 15  1  0
 16 11  2  0
 17 10  1  0
 18  8  1  0
 20 22  2  0
 21 20  1  0
 23 21  1  0
 24 33  2  0
 24 29  1  0
 25 21  1  0
 25 29  1  0
 26 25  1  0
 27 28  1  0
 27 26  1  0
 28 24  1  0
 29 30  2  0
 30 31  1  0
 32 31  2  0
 33 32  1  0
 34  8  1  0
 34 35  1  0
 34 44  1  0
 35 38  1  0
 36 40  1  0
 36 35  1  0
 37 36  2  0
 40 39  1  0
 42 43  1  0
 42 40  1  0
 42 41  1  0
 44 47  1  1
 44 45  1  0
 46 44  1  0
 49 51  1  0
 49 53  1  0
 50 52  1  0
 51 54  1  0
 53 64  1  0
 53 50  1  0
 54 55  1  6
 54 48  1  0
 54 52  1  0
 56 64  1  0
 57 62  1  0
 58 59  1  0
 58 57  1  0
 60 59  1  0
 60 69  1  0
 60 61  1  0
 62 56  1  0
 62 61  1  0
 63 56  2  0
 64 65  1  0
 66 67  2  0
 67 86  1  0
 68 67  1  0
 68 71  1  0
 69 70  1  0
 69 66  1  0
 70 68  2  0
 71 72  1  0
 72 73  2  0
 74 77  1  0
 74 73  1  0
 75 74  2  0
 76 75  1  0
 76 71  2  0
 77 78  1  0
 78 83  2  0
 78 79  1  0
 79 80  2  0
 80 81  1  0
 81 85  1  0
 82 81  2  0
 83 82  1  0
 84 83  1  0
 86 87  1  0
 87 90  1  0
 87 89  1  0
 88 86  2  0
 91 92  1  0
 91 66  1  0
 93 91  1  0
M  ISO  4   6 101   7 101  56 100  64 100
M  END
>  <TORSDO>  (81) 
F 21

>  <SCORE>  (81) 
-13.128

>  <name>  (81) 
82

>  <ligand_id>  (81) 
82

>  <original_smiles>  (81) 
[H]c1c([H])c([H])c2c(c1[H])C([H])([H])C([H])([H])C([H])([H])C2([H])N([H])C(=O)C1([H])N(C(=O)C([H])(N([H])C(=O)C([H])(N([H])C([H])([H])[H])C([H])([H])[H])C(C([H])([H])[H])(C([H])([H])[H])C([H])([H])[H])C([H])([H])c2c([H])c(OC([H])([H])C([H])([H])C(F)(F)C([H])([H])C([H])([H])[N+]3([H])C([H])([H])C([H])([H])C([H])(N([H])C(=O)N4C([H])([H])C([H])([H])C([H])([H])C([H])(n5nc(-c6c([H])c([H])c(Oc7c([H])c([H])c(F)c([H])c7F)c([H])c6[H])c(C(=O)N([H])[H])c5N([H])[H])C4([H])[H])C([H])([H])C3([H])[H])c([H])c([H])c2C1([H])[H]

>  <smiles>  (81) 
[H]c1c([H])c([H])c2c(c1[H])C([H])([H])C([H])([H])C([H])([H])C2([H])N([H])C(=O)C1([H])N(C(=O)C([H])(N([H])C(=O)C([H])(N([H])C([H])([H])[H])C([H])([H])[H])C(C([H])([H])[H])(C([H])([H])[H])C([H])([H])[H])C([H])([H])c2c([H])c(OC([H])([H])C([H])([H])C(F)(F)C([H])([H])C([H])([H])[N+]3([H])C([H])([H])C([H])([H])C([H])(N([H])C(=O)N4C([H])([H])C([H])([H])C([H])([H])C([H])(n5nc(-c6c([H])c([H])c(Oc7c([H])c([H])c(F)c([H])c7F)c([H])c6[H])c(C(=O)N([H])[H])c5N([H])[H])C4([H])[H])C([H])([H])C3([H])[H])c([H])c([H])c2C1([H])[H]

$$$$
83:0:0
     RDKit          3D

 93102  0  0  1  0  0  0  0  0999 V2000
  -30.8450  -22.4230   21.1630 C   0  0  0  0  0  2  0  0  0  0  0  0
  -30.3610  -23.8900   21.1600 C   0  0  0  0  0  2  0  0  0  0  0  0
  -29.5510  -21.6250   20.9500 C   0  0  0  0  0  3  0  0  0  0  0  0
  -29.2470  -23.9330   20.0930 C   0  0  0  0  0  3  0  0  0  0  0  0
  -28.7620  -22.4950   20.0180 N   0  0  0  0  0  4  0  0  0  0  0  0
  -27.7830  -22.4160   20.2450 H   0  0  0  0  0  0  0  0  0  0  0  0
  -28.8850  -22.1540   19.0780 H   0  0  0  0  0  0  0  0  0  0  0  0
  -28.5790  -19.2180   20.9970 C   0  0  0  0  0  3  0  0  0  0  0  0
  -30.8660  -19.3980   20.2890 C   0  0  0  0  0  3  0  0  0  0  0  0
  -28.6780  -17.8000   20.9470 C   0  0  0  0  0  3  0  0  0  0  0  0
  -30.9680  -17.9690   20.2360 C   0  0  0  0  0  3  0  0  0  0  0  0
  -29.6710  -20.0680   20.6900 C   0  0  0  0  0  0  0  0  0  0  0  0
  -29.8730  -17.1280   20.5830 C   0  0  0  0  0  0  0  0  0  0  0  0
  -30.6340  -14.6720   20.0770 C   0  0  0  0  0  0  0  0  0  0  0  0
  -30.3690  -12.4760   18.9320 C   0  0  0  0  0  2  0  0  0  0  0  0
  -29.3510  -12.6510   17.7830 C   0  0  0  0  0  2  0  0  0  0  0  0
  -27.9030  -12.4850   18.2910 C   0  0  0  0  0  2  0  0  0  0  0  0
  -27.6260  -13.3010   19.5810 C   0  0  0  0  0  3  0  0  0  0  0  0
  -28.7460  -13.0790   20.6240 C   0  0  0  0  0  2  0  0  0  0  0  0
  -30.0250  -13.4460   19.9910 N   0  0  0  0  0  0  0  0  0  0  0  0
  -31.7540  -14.8730   19.5960 O   0  0  0  0  0  0  0  0  0  0  0  0
  -29.8530  -15.6660   20.6040 N   0  0  0  0  0  0  0  0  0  0  0  0
  -29.0090  -15.2820   21.0010 H   0  0  0  0  0  0  0  0  0  0  0  0
  -25.2770  -13.8970   20.4400 C   0  0  0  0  0  0  0  0  0  0  0  0
  -24.2280  -13.1190   20.8500 C   0  0  0  0  0  0  0  0  0  0  0  0
  -24.6800  -11.7670   20.7610 C   0  0  0  0  0  0  0  0  0  0  0  0
  -26.3030  -13.0170   20.1300 N   0  0  0  0  0  0  0  0  0  0  0  0
  -25.9510  -11.7300   20.3800 N   0  0  0  0  0  0  0  0  0  0  0  0
  -23.9580  -10.5040   20.9610 C   0  0  0  0  0  0  0  0  0  0  0  0
  -24.3970   -9.5430   21.8990 C   0  0  0  0  0  3  0  0  0  0  0  0
  -23.6770   -8.3440   22.0870 C   0  0  0  0  0  3  0  0  0  0  0  0
  -22.5030   -8.0970   21.3350 C   0  0  0  0  0  0  0  0  0  0  0  0
  -22.0840   -9.0450   20.3870 C   0  0  0  0  0  3  0  0  0  0  0  0
  -22.8050  -10.2360   20.1970 C   0  0  0  0  0  3  0  0  0  0  0  0
  -21.7530   -6.9490   21.4320 O   0  0  0  0  0  0  0  0  0  0  0  0
  -21.6520   -6.2540   22.6100 C   0  0  0  0  0  0  0  0  0  0  0  0
  -21.1570   -6.8520   23.7880 C   0  0  0  0  0  3  0  0  0  0  0  0
  -21.0040   -6.0820   24.9580 C   0  0  0  0  0  3  0  0  0  0  0  0
  -21.3350   -4.7130   24.9490 C   0  0  0  0  0  0  0  0  0  0  0  0
  -21.8220   -4.1150   23.7750 C   0  0  0  0  0  3  0  0  0  0  0  0
  -21.9770   -4.8810   22.6070 C   0  0  0  0  0  0  0  0  0  0  0  0
  -22.4280   -4.2950   21.4730 F   0  0  0  0  0  0  0  0  0  0  0  0
  -21.1800   -3.9710   26.0710 F   0  0  0  0  0  0  0  0  0  0  0  0
  -22.8490  -13.5950   21.2100 C   0  0  0  0  0  0  0  0  0  0  0  0
  -22.1710  -12.8870   22.1070 N   0  0  0  0  0  0  0  0  0  0  0  0
  -22.3850  -14.6290   20.7320 O   0  0  0  0  0  0  0  0  0  0  0  0
  -22.5610  -12.0500   22.5140 H   0  0  0  0  0  0  0  0  0  0  0  0
  -21.2500  -13.1880   22.3900 H   0  0  0  0  0  0  0  0  0  0  0  0
  -25.4380  -15.2710   20.2850 N   0  0  0  0  0  0  0  0  0  0  0  0
  -24.6740  -15.9200   20.4420 H   0  0  0  0  0  0  0  0  0  0  0  0
  -26.2570  -15.7130   19.8880 H   0  0  0  0  0  0  0  0  0  0  0  0
  -28.1130  -25.0380   20.2930 C   0  0  0  0  0  2  0  0  0  0  0  0
  -28.3690  -26.4850   20.0560 O   0  0  0  0  0  0  0  0  0  0  0  0
  -24.6090  -31.8250   23.1610 C   0  0  0  0  0  0  0  0  0  0  0  0
  -27.2510  -27.3370   20.0280 C   0  0  0  0  0  0  0  0  0  0  0  0
  -23.4180  -30.4540   21.4910 C   0  0  0  0  0  3  0  0  0  0  0  0
  -24.8800  -28.9440   20.0420 C   0  0  0  0  0  0  0  0  0  0  0  0
  -25.9580  -30.7860   21.3260 C   0  0  0  0  0  2  0  0  0  0  0  0
  -26.0450  -29.4210   20.6530 C   0  0  0  0  0  0  0  0  0  0  0  0
  -27.2340  -28.6300   20.6380 C   0  0  0  0  0  3  0  0  0  0  0  0
  -26.0630  -26.9280   19.3750 C   0  0  0  0  0  3  0  0  0  0  0  0
  -24.8920  -27.7020   19.3940 C   0  0  0  0  0  3  0  0  0  0  0  0
  -23.6400  -29.8110   20.0990 C   0  0  0  0  0  2  0  0  0  0  0  0
  -24.6810  -31.0370   22.0490 N   0  0  0  0  0  0  0  0  0  0  0  0
  -23.5240  -32.0880   23.6960 O   0  0  0  0  0  0  0  0  0  0  0  0
  -22.7570  -29.4140   22.4280 C   0  0  0  0  0  0  0  0  0  0  0  0
  -21.4280  -29.2500   22.3090 N   0  0  0  0  0  0  0  0  0  0  0  0
  -23.4390  -28.7580   23.2200 O   0  0  0  0  0  0  0  0  0  0  0  0
  -20.9390  -29.8310   21.6420 H   0  0  0  0  0  0  0  0  0  0  0  0
  -18.0380  -28.1100   22.8470 C   0  0  0  0  0  0  0  0  0  0  0  0
  -20.6080  -28.3010   23.0610 C   0  0  0  0  0  3  0  0  0  0  0  0
  -20.6620  -26.8920   22.4250 C   0  0  0  0  0  2  0  0  0  0  0  0
  -19.5270  -26.6360   21.4280 C   0  0  0  0  0  2  0  0  0  0  0  0
  -18.1660  -26.7860   22.1130 C   0  0  0  0  0  2  0  0  0  0  0  0
  -19.1840  -28.8290   23.2780 C   0  0  0  0  0  0  0  0  0  0  0  0
  -19.0100  -30.0710   23.9260 C   0  0  0  0  0  3  0  0  0  0  0  0
  -17.7220  -30.5940   24.1460 C   0  0  0  0  0  3  0  0  0  0  0  0
  -16.5900  -29.8710   23.7310 C   0  0  0  0  0  3  0  0  0  0  0  0
  -16.7500  -28.6310   23.0880 C   0  0  0  0  0  3  0  0  0  0  0  0
  -25.8880  -32.4500   23.8000 C   0  0  0  0  0  3  0  0  0  0  0  0
  -25.5710  -33.8410   24.1540 N   0  0  0  0  0  0  0  0  0  0  0  0
  -25.8810  -34.9070   23.4030 C   0  0  0  0  0  0  0  0  0  0  0  0
  -26.5330  -34.8230   22.3590 O   0  0  0  0  0  0  0  0  0  0  0  0
  -24.9890  -33.9800   24.9670 H   0  0  0  0  0  0  0  0  0  0  0  0
  -24.1200  -36.6800   23.1160 C   0  0  0  0  0  1  0  0  0  0  0  0
  -25.3890  -36.2840   23.8880 C   0  0  0  0  0  3  0  0  0  0  0  0
  -27.5330  -37.1900   24.6700 C   0  0  0  0  0  1  0  0  0  0  0  0
  -26.4050  -37.3520   23.7570 N   0  0  0  0  0  0  0  0  0  0  0  0
  -25.9910  -38.2650   23.9230 H   0  0  0  0  0  0  0  0  0  0  0  0
  -26.4010  -31.6580   25.0650 C   0  0  1  0  0  0  0  0  0  0  0  0
  -25.3010  -31.3950   26.1210 C   0  0  0  0  0  1  0  0  0  0  0  0
  -26.9940  -30.2920   24.6520 C   0  0  0  0  0  1  0  0  0  0  0  0
  -27.5420  -32.4460   25.7480 C   0  0  0  0  0  1  0  0  0  0  0  0
  2  1  1  0
  3 12  1  0
  3  1  1  0
  4 52  1  0
  4  2  1  0
  5  4  1  0
  5  6  1  0
  5  3  1  0
  7  5  1  0
  9 12  1  0
 10  8  1  0
 11  9  2  0
 11 13  1  0
 12  8  2  0
 13 22  1  0
 13 10  2  0
 14 22  1  0
 15 20  1  0
 16 17  1  0
 16 15  1  0
 18 17  1  0
 18 27  1  0
 18 19  1  0
 20 14  1  0
 20 19  1  0
 21 14  2  0
 22 23  1  0
 24 25  2  0
 25 44  1  0
 26 25  1  0
 26 29  1  0
 27 28  1  0
 27 24  1  0
 28 26  2  0
 29 30  1  0
 30 31  2  0
 32 35  1  0
 32 31  1  0
 33 32  2  0
 34 33  1  0
 34 29  2  0
 35 36  1  0
 36 37  1  0
 37 38  2  0
 39 38  1  0
 39 43  1  0
 40 39  2  0
 41 36  2  0
 41 40  1  0
 42 41  1  0
 44 45  1  0
 45 48  1  0
 45 47  1  0
 46 44  2  0
 49 24  1  0
 49 50  1  0
 51 49  1  0
 53 52  1  0
 54 65  2  0
 55 53  1  0
 55 60  1  0
 56 64  1  0
 56 66  1  0
 57 63  1  0
 57 59  1  0
 58 64  1  0
 59 58  1  0
 60 59  2  0
 61 62  1  0
 61 55  2  0
 62 57  2  0
 63 56  1  0
 64 54  1  0
 66 68  2  0
 67 66  1  0
 69 67  1  0
 70 79  2  0
 70 75  1  0
 71 67  1  0
 71 75  1  0
 72 71  1  0
 73 74  1  0
 73 72  1  0
 74 70  1  0
 75 76  2  0
 76 77  1  0
 78 77  2  0
 79 78  1  0
 80 54  1  0
 80 81  1  0
 80 90  1  0
 81 84  1  0
 82 86  1  0
 82 81  1  0
 83 82  2  0
 86 85  1  0
 88 86  1  0
 88 89  1  0
 88 87  1  0
 90 93  1  1
 90 91  1  0
 92 90  1  0
M  ISO  4  14 100  22 100  52 101  53 101
M  END
>  <TORSDO>  (82) 
F 18

>  <SCORE>  (82) 
-14.125

>  <name>  (82) 
83

>  <ligand_id>  (82) 
83

>  <original_smiles>  (82) 
[H]c1c([H])c([H])c2c(c1[H])C([H])([H])C([H])([H])C([H])([H])C2([H])N([H])C(=O)C1([H])N(C(=O)C([H])(N([H])C(=O)C([H])(N([H])C([H])([H])[H])C([H])([H])[H])C(C([H])([H])[H])(C([H])([H])[H])C([H])([H])[H])C([H])([H])c2c([H])c(OC([H])([H])C3([H])C([H])([H])C([H])([H])C([H])(c4c([H])c([H])c(N([H])C(=O)N5C([H])([H])C([H])([H])C([H])([H])C([H])(n6nc(-c7c([H])c([H])c(Oc8c([H])c([H])c(F)c([H])c8F)c([H])c7[H])c(C(=O)N([H])[H])c6N([H])[H])C5([H])[H])c([H])c4[H])[N+]3([H])[H])c([H])c([H])c2C1([H])[H]

>  <smiles>  (82) 
[H]c1c([H])c([H])c2c(c1[H])C([H])([H])C([H])([H])C([H])([H])C2([H])N([H])C(=O)C1([H])N(C(=O)C([H])(N([H])C(=O)C([H])(N([H])C([H])([H])[H])C([H])([H])[H])C(C([H])([H])[H])(C([H])([H])[H])C([H])([H])[H])C([H])([H])c2c([H])c(OC([H])([H])C3([H])C([H])([H])C([H])([H])C([H])(c4c([H])c([H])c(N([H])C(=O)N5C([H])([H])C([H])([H])C([H])([H])C([H])(n6nc(-c7c([H])c([H])c(Oc8c([H])c([H])c(F)c([H])c8F)c([H])c7[H])c(C(=O)N([H])[H])c6N([H])[H])C5([H])[H])c([H])c4[H])[N+]3([H])[H])c([H])c([H])c2C1([H])[H]

$$$$
84:0:0
     RDKit          3D

104112  0  0  1  0  0  0  0  0999 V2000
  -26.4390  -18.4900   19.2260 N   0  0  0  0  0  0  0  0  0  0  0  0
  -27.5100  -18.0410   20.1220 C   0  0  0  0  0  2  0  0  0  0  0  0
  -28.8560  -18.0860   19.3620 C   0  0  0  0  0  2  0  0  0  0  0  0
  -31.9860  -14.3600   19.2860 C   0  0  0  0  0  0  0  0  0  0  0  0
  -31.5460  -11.9680   18.8600 C   0  0  0  0  0  2  0  0  0  0  0  0
  -30.5070  -11.7930   17.7340 C   0  0  0  0  0  2  0  0  0  0  0  0
  -29.0840  -11.7920   18.3200 C   0  0  0  0  0  2  0  0  0  0  0  0
  -28.8380  -12.9910   19.2700 C   0  0  0  0  0  3  0  0  0  0  0  0
  -29.9850  -13.1450   20.2900 C   0  0  0  0  0  2  0  0  0  0  0  0
  -31.2590  -13.2350   19.5570 N   0  0  0  0  0  0  0  0  0  0  0  0
  -32.9890  -14.3170   18.5660 O   0  0  0  0  0  0  0  0  0  0  0  0
  -31.3750  -18.0780   19.3070 C   0  0  0  0  0  2  0  0  0  0  0  0
  -31.5780  -16.6860   18.6720 C   0  0  0  0  0  2  0  0  0  0  0  0
  -31.4030  -15.9970   21.0340 C   0  0  0  0  0  2  0  0  0  0  0  0
  -30.1370  -18.1130   20.2280 C   0  0  0  0  0  3  0  0  0  0  0  0
  -30.2050  -16.9580   21.2760 C   0  0  0  0  0  3  0  0  0  0  0  0
  -31.4500  -15.5620   19.6280 N   0  0  0  0  0  0  0  0  0  0  0  0
  -26.7590  -13.9000   20.4680 C   0  0  0  0  0  0  0  0  0  0  0  0
  -25.6150  -13.2980   20.9210 C   0  0  0  0  0  0  0  0  0  0  0  0
  -25.7710  -11.9080   20.6320 C   0  0  0  0  0  0  0  0  0  0  0  0
  -27.5440  -12.8920   19.9400 N   0  0  0  0  0  0  0  0  0  0  0  0
  -26.9620  -11.6760   20.0930 N   0  0  0  0  0  0  0  0  0  0  0  0
  -24.8290  -10.7910   20.7810 C   0  0  0  0  0  0  0  0  0  0  0  0
  -25.1080   -9.7010   21.6330 C   0  0  0  0  0  3  0  0  0  0  0  0
  -24.1810   -8.6470   21.7720 C   0  0  0  0  0  3  0  0  0  0  0  0
  -22.9600   -8.6790   21.0580 C   0  0  0  0  0  0  0  0  0  0  0  0
  -22.6960   -9.7570   20.1960 C   0  0  0  0  0  3  0  0  0  0  0  0
  -23.6210  -10.8030   20.0540 C   0  0  0  0  0  3  0  0  0  0  0  0
  -22.0110   -7.6880   21.1120 O   0  0  0  0  0  0  0  0  0  0  0  0
  -21.7770   -6.9800   22.2630 C   0  0  0  0  0  0  0  0  0  0  0  0
  -21.3440   -7.6090   23.4490 C   0  0  0  0  0  3  0  0  0  0  0  0
  -21.0450   -6.8350   24.5870 C   0  0  0  0  0  3  0  0  0  0  0  0
  -21.1680   -5.4320   24.5390 C   0  0  0  0  0  0  0  0  0  0  0  0
  -21.5960   -4.8040   23.3560 C   0  0  0  0  0  3  0  0  0  0  0  0
  -21.8940   -5.5760   22.2210 C   0  0  0  0  0  0  0  0  0  0  0  0
  -22.2820   -4.9630   21.0760 F   0  0  0  0  0  0  0  0  0  0  0  0
  -20.8730   -4.6890   25.6310 F   0  0  0  0  0  0  0  0  0  0  0  0
  -24.4090  -13.9850   21.4940 C   0  0  0  0  0  0  0  0  0  0  0  0
  -23.6860  -13.3070   22.3790 N   0  0  0  0  0  0  0  0  0  0  0  0
  -24.1310  -15.1470   21.1990 O   0  0  0  0  0  0  0  0  0  0  0  0
  -23.9370  -12.3670   22.6430 H   0  0  0  0  0  0  0  0  0  0  0  0
  -22.8730  -13.7370   22.7970 H   0  0  0  0  0  0  0  0  0  0  0  0
  -27.1940  -15.2130   20.4510 N   0  0  0  0  0  0  0  0  0  0  0  0
  -26.5860  -15.9660   20.7400 H   0  0  0  0  0  0  0  0  0  0  0  0
  -28.0510  -15.5340   20.0250 H   0  0  0  0  0  0  0  0  0  0  0  0
  -30.2400  -17.4850   22.6510 N   0  0  0  0  0  4  0  0  0  0  0  0
  -31.0960  -17.9830   22.8210 H   0  0  0  0  0  0  0  0  0  0  0  0
  -30.1700  -16.7400   23.3210 H   0  0  0  0  0  0  0  0  0  0  0  0
  -29.4750  -18.1140   22.8170 H   0  0  0  0  0  0  0  0  0  0  0  0
  -26.1180  -19.9160   19.2960 C   0  0  0  0  0  2  0  0  0  0  0  0
  -26.5380  -20.5760   17.9690 C   0  0  0  0  0  2  0  0  0  0  0  0
  -26.4480  -22.1090   17.9660 C   0  0  0  0  0  2  0  0  0  0  0  0
  -27.6080  -22.8220   18.5730 N   0  0  0  0  0  4  0  0  0  0  0  0
  -28.4580  -22.5270   18.1200 H   0  0  0  0  0  0  0  0  0  0  0  0
  -27.6780  -22.6000   19.5530 H   0  0  0  0  0  0  0  0  0  0  0  0
  -27.4440  -24.2810   18.3950 C   0  0  0  0  0  2  0  0  0  0  0  0
  -28.4840  -25.2250   19.0550 C   0  0  0  0  0  2  0  0  0  0  0  0
  -28.4040  -26.6060   18.6200 O   0  0  0  0  0  0  0  0  0  0  0  0
  -24.4930  -30.8510   22.8160 C   0  0  0  0  0  0  0  0  0  0  0  0
  -27.2050  -27.2620   18.8200 C   0  0  0  0  0  0  0  0  0  0  0  0
  -23.2720  -29.6460   21.0400 C   0  0  0  0  0  3  0  0  0  0  0  0
  -24.7160  -28.5320   19.2710 C   0  0  0  0  0  0  0  0  0  0  0  0
  -25.7430  -30.2560   20.7490 C   0  0  0  0  0  2  0  0  0  0  0  0
  -25.8770  -29.0300   19.8730 C   0  0  0  0  0  0  0  0  0  0  0  0
  -27.1230  -28.3920   19.6670 C   0  0  0  0  0  3  0  0  0  0  0  0
  -26.0350  -26.8650   18.1360 C   0  0  0  0  0  3  0  0  0  0  0  0
  -24.7890  -27.4410   18.4000 C   0  0  0  0  0  3  0  0  0  0  0  0
  -23.4150  -29.2410   19.5520 C   0  0  0  0  0  2  0  0  0  0  0  0
  -24.5250  -30.2570   21.5910 N   0  0  0  0  0  0  0  0  0  0  0  0
  -23.4430  -30.9140   23.4720 O   0  0  0  0  0  0  0  0  0  0  0  0
  -22.7890  -28.4130   21.8420 C   0  0  0  0  0  0  0  0  0  0  0  0
  -21.5030  -28.0620   21.6870 N   0  0  0  0  0  0  0  0  0  0  0  0
  -23.5680  -27.7820   22.5630 O   0  0  0  0  0  0  0  0  0  0  0  0
  -20.9330  -28.6130   21.0610 H   0  0  0  0  0  0  0  0  0  0  0  0
  -18.3540  -26.3040   21.9670 C   0  0  0  0  0  0  0  0  0  0  0  0
  -20.8380  -26.9270   22.3240 C   0  0  0  0  0  3  0  0  0  0  0  0
  -21.1730  -25.6100   21.5820 C   0  0  0  0  0  2  0  0  0  0  0  0
  -20.1300  -25.2410   20.5190 C   0  0  0  0  0  2  0  0  0  0  0  0
  -18.7490  -25.0820   21.1580 C   0  0  0  0  0  2  0  0  0  0  0  0
  -19.3350  -27.1770   22.5060 C   0  0  0  0  0  0  0  0  0  0  0  0
  -18.9140  -28.3170   23.2280 C   0  0  0  0  0  3  0  0  0  0  0  0
  -17.5460  -28.5820   23.4210 C   0  0  0  0  0  3  0  0  0  0  0  0
  -16.5790  -27.7050   22.8970 C   0  0  0  0  0  3  0  0  0  0  0  0
  -16.9840  -26.5730   22.1680 C   0  0  0  0  0  3  0  0  0  0  0  0
  -25.7730  -31.4870   23.4420 C   0  0  0  0  0  3  0  0  0  0  0  0
  -25.4040  -32.8210   23.9350 N   0  0  0  0  0  0  0  0  0  0  0  0
  -25.6780  -33.9670   23.2960 C   0  0  0  0  0  0  0  0  0  0  0  0
  -26.3430  -34.0130   22.2580 O   0  0  0  0  0  0  0  0  0  0  0  0
  -24.8190  -32.8510   24.7580 H   0  0  0  0  0  0  0  0  0  0  0  0
  -23.8810  -35.7190   23.1290 C   0  0  0  0  0  1  0  0  0  0  0  0
  -25.1290  -35.2710   23.9090 C   0  0  0  0  0  3  0  0  0  0  0  0
  -27.2150  -36.1320   24.8730 C   0  0  0  0  0  1  0  0  0  0  0  0
  -26.1190  -36.3700   23.9380 N   0  0  0  0  0  0  0  0  0  0  0  0
  -25.6750  -37.2520   24.1860 H   0  0  0  0  0  0  0  0  0  0  0  0
  -26.3910  -30.6160   24.6030 C   0  0  1  0  0  0  0  0  0  0  0  0
  -25.3750  -30.2130   25.6960 C   0  0  0  0  0  1  0  0  0  0  0  0
  -27.0150  -29.3170   24.0410 C   0  0  0  0  0  1  0  0  0  0  0  0
  -27.5380  -31.3940   25.2850 C   0  0  0  0  0  1  0  0  0  0  0  0
  -25.3210  -17.5680   18.9770 C   0  0  0  0  0  2  0  0  0  0  0  0
  -24.1770  -17.5660   20.0190 C   0  0  0  0  0  2  0  0  0  0  0  0
  -22.8600  -17.7740   19.3940 N   0  0  0  0  0  4  0  0  0  0  0  0
  -22.8270  -18.6390   18.8870 H   0  0  0  0  0  0  0  0  0  0  0  0
  -22.1410  -17.7870   20.0940 H   0  0  0  0  0  0  0  0  0  0  0  0
  -22.6570  -17.0210   18.7590 H   0  0  0  0  0  0  0  0  0  0  0  0
  1 50  1  0
  1  2  1  0
  3  2  1  0
  4 10  1  0
  4 17  1  0
  5 10  1  0
  6  7  1  0
  6  5  1  0
  8  7  1  0
  8 21  1  0
  8  9  1  0
 10  9  1  0
 11  4  2  0
 12 15  1  0
 13 12  1  0
 13 17  1  0
 14 16  1  0
 15  3  1  0
 15 16  1  0
 16 46  1  0
 17 14  1  0
 18 19  2  0
 19 38  1  0
 20 23  1  0
 20 19  1  0
 21 22  1  0
 21 18  1  0
 22 20  2  0
 23 24  1  0
 24 25  2  0
 26 29  1  0
 26 25  1  0
 27 26  2  0
 28 27  1  0
 28 23  2  0
 29 30  1  0
 30 31  1  0
 31 32  2  0
 33 32  1  0
 33 37  1  0
 34 33  2  0
 35 30  2  0
 35 34  1  0
 36 35  1  0
 38 39  1  0
 39 41  1  0
 39 42  1  0
 40 38  2  0
 43 18  1  0
 43 44  1  0
 45 43  1  0
 46 49  1  0
 46 47  1  0
 46 48  1  0
 51 50  1  0
 52 51  1  0
 52 53  1  0
 53 55  1  0
 54 53  1  0
 56 53  1  0
 56 57  1  0
 58 60  1  0
 58 57  1  0
 59 70  2  0
 60 65  1  0
 61 69  1  0
 61 71  1  0
 62 68  1  0
 62 64  1  0
 63 69  1  0
 64 63  1  0
 65 64  2  0
 66 67  1  0
 66 60  2  0
 67 62  2  0
 68 61  1  0
 69 59  1  0
 71 73  2  0
 72 71  1  0
 74 72  1  0
 75 84  2  0
 75 80  1  0
 76 72  1  0
 76 80  1  0
 77 76  1  0
 78 79  1  0
 78 77  1  0
 79 75  1  0
 80 81  2  0
 81 82  1  0
 83 82  2  0
 84 83  1  0
 85 59  1  0
 85 86  1  0
 85 95  1  0
 86 89  1  0
 87 91  1  0
 87 86  1  0
 88 87  2  0
 91 90  1  0
 91 93  1  0
 93 94  1  0
 93 92  1  0
 95 98  1  1
 95 96  1  0
 97 95  1  0
 99  1  1  0
 99100  1  0
101100  1  0
101103  1  0
102101  1  0
104101  1  0
M  ISO  4   4 100  17 100  57 101  58 101
M  END
>  <TORSDO>  (83) 
F 28

>  <SCORE>  (83) 
-4.363

>  <name>  (83) 
84

>  <ligand_id>  (83) 
84

>  <original_smiles>  (83) 
[H]c1c([H])c([H])c2c(c1[H])C([H])([H])C([H])([H])C([H])([H])C2([H])N([H])C(=O)C1([H])N(C(=O)C([H])(N([H])C(=O)C([H])(N([H])C([H])([H])[H])C([H])([H])[H])C(C([H])([H])[H])(C([H])([H])[H])C([H])([H])[H])C([H])([H])c2c([H])c(OC([H])([H])C([H])([H])[N+]([H])([H])C([H])([H])C([H])([H])C([H])([H])N(C([H])([H])C([H])([H])C3([H])C([H])([H])C([H])([H])N(C(=O)N4C([H])([H])C([H])([H])C([H])([H])C([H])(n5nc(-c6c([H])c([H])c(Oc7c([H])c([H])c(F)c([H])c7F)c([H])c6[H])c(C(=O)N([H])[H])c5N([H])[H])C4([H])[H])C([H])([H])C3([H])[N+]([H])([H])[H])C([H])([H])C([H])([H])[N+]([H])([H])[H])c([H])c([H])c2C1([H])[H]

>  <smiles>  (83) 
[H]c1c([H])c([H])c2c(c1[H])C([H])([H])C([H])([H])C([H])([H])C2([H])N([H])C(=O)C1([H])N(C(=O)C([H])(N([H])C(=O)C([H])(N([H])C([H])([H])[H])C([H])([H])[H])C(C([H])([H])[H])(C([H])([H])[H])C([H])([H])[H])C([H])([H])c2c([H])c(OC([H])([H])C([H])([H])[N+]([H])([H])C([H])([H])C([H])([H])C([H])([H])N(C([H])([H])C([H])([H])C3([H])C([H])([H])C([H])([H])N(C(=O)N4C([H])([H])C([H])([H])C([H])([H])C([H])(n5nc(-c6c([H])c([H])c(Oc7c([H])c([H])c(F)c([H])c7F)c([H])c6[H])c(C(=O)N([H])[H])c5N([H])[H])C4([H])[H])C([H])([H])C3([H])[N+]([H])([H])[H])C([H])([H])C([H])([H])[N+]([H])([H])[H])c([H])c([H])c2C1([H])[H]

$$$$
85:0:0
     RDKit          3D

 95103  0  0  1  0  0  0  0  0999 V2000
  -30.4500  -22.5040   23.0970 C   0  0  0  0  0  2  0  0  0  0  0  0
  -29.8920  -21.0630   23.1080 C   0  0  0  0  0  2  0  0  0  0  0  0
  -32.2830  -19.1630   20.7180 C   0  0  0  0  0  2  0  0  0  0  0  0
  -31.0370  -17.5320   22.1190 C   0  0  0  0  0  2  0  0  0  0  0  0
  -31.3850  -20.2960   21.2420 C   0  0  0  0  0  2  0  0  0  0  0  0
  -30.1510  -18.6720   22.6500 C   0  0  0  0  0  2  0  0  0  0  0  0
  -31.5230  -17.8320   20.6920 C   0  0  0  0  0  3  0  0  0  0  0  0
  -30.8120  -20.0080   22.5890 N   0  0  2  0  0  4  0  0  0  0  0  0
  -31.5910  -19.9730   23.2300 H   0  0  0  0  0  0  0  0  0  0  0  0
  -32.3680  -16.6880   20.1070 C   0  0  0  0  0  2  0  0  0  0  0  0
  -31.6950  -14.5150   19.0930 C   0  0  0  0  0  0  0  0  0  0  0  0
  -31.2800  -12.1360   18.6190 C   0  0  0  0  0  2  0  0  0  0  0  0
  -30.2180  -11.8960   17.5350 C   0  0  0  0  0  2  0  0  0  0  0  0
  -28.8100  -11.8730   18.1540 C   0  0  0  0  0  2  0  0  0  0  0  0
  -28.5420  -13.1030   19.0570 C   0  0  0  0  0  3  0  0  0  0  0  0
  -29.6990  -13.3250   20.0600 C   0  0  0  0  0  2  0  0  0  0  0  0
  -30.9760  -13.3890   19.3240 N   0  0  0  0  0  0  0  0  0  0  0  0
  -32.5050  -14.6280   18.1680 O   0  0  0  0  0  0  0  0  0  0  0  0
  -31.5980  -15.4470   20.0520 N   0  0  0  0  0  0  0  0  0  0  0  0
  -30.9740  -15.2450   20.8200 H   0  0  0  0  0  0  0  0  0  0  0  0
  -26.4070  -13.9870   20.2040 C   0  0  0  0  0  0  0  0  0  0  0  0
  -25.3040  -13.3440   20.6990 C   0  0  0  0  0  0  0  0  0  0  0  0
  -25.5340  -11.9490   20.4970 C   0  0  0  0  0  0  0  0  0  0  0  0
  -27.2520  -12.9890   19.7380 N   0  0  0  0  0  0  0  0  0  0  0  0
  -26.7350  -11.7530   19.9680 N   0  0  0  0  0  0  0  0  0  0  0  0
  -24.6580  -10.7920   20.7230 C   0  0  0  0  0  0  0  0  0  0  0  0
  -25.0030   -9.7710   21.6350 C   0  0  0  0  0  3  0  0  0  0  0  0
  -24.1350   -8.6780   21.8490 C   0  0  0  0  0  3  0  0  0  0  0  0
  -22.9050   -8.6010   21.1510 C   0  0  0  0  0  0  0  0  0  0  0  0
  -22.5780   -9.6090   20.2270 C   0  0  0  0  0  3  0  0  0  0  0  0
  -23.4460  -10.6930   20.0110 C   0  0  0  0  0  3  0  0  0  0  0  0
  -22.0110   -7.5640   21.2760 O   0  0  0  0  0  0  0  0  0  0  0  0
  -21.8030   -6.9340   22.4770 C   0  0  0  0  0  0  0  0  0  0  0  0
  -21.3830   -7.6410   23.6260 C   0  0  0  0  0  3  0  0  0  0  0  0
  -21.1130   -6.9440   24.8210 C   0  0  0  0  0  3  0  0  0  0  0  0
  -21.2530   -5.5440   24.8670 C   0  0  0  0  0  0  0  0  0  0  0  0
  -21.6650   -4.8380   23.7220 C   0  0  0  0  0  3  0  0  0  0  0  0
  -21.9370   -5.5320   22.5300 C   0  0  0  0  0  0  0  0  0  0  0  0
  -22.3130   -4.8460   21.4240 F   0  0  0  0  0  0  0  0  0  0  0  0
  -20.9860   -4.8720   26.0130 F   0  0  0  0  0  0  0  0  0  0  0  0
  -24.0610  -13.9910   21.2410 C   0  0  0  0  0  0  0  0  0  0  0  0
  -23.4010  -13.3450   22.1970 N   0  0  0  0  0  0  0  0  0  0  0  0
  -23.6940  -15.0990   20.8520 O   0  0  0  0  0  0  0  0  0  0  0  0
  -23.7120  -12.4460   22.5320 H   0  0  0  0  0  0  0  0  0  0  0  0
  -22.5690  -13.7560   22.5980 H   0  0  0  0  0  0  0  0  0  0  0  0
  -26.7570  -15.3290   20.0940 N   0  0  0  0  0  0  0  0  0  0  0  0
  -26.1340  -16.0770   20.3770 H   0  0  0  0  0  0  0  0  0  0  0  0
  -27.6090  -15.6650   19.6600 H   0  0  0  0  0  0  0  0  0  0  0  0
  -29.3520  -23.5650   23.2850 C   0  0  0  0  0  2  0  0  0  0  0  0
  -29.8230  -24.9060   22.8680 N   0  0  0  0  0  4  0  0  0  0  0  0
  -30.6980  -24.7830   22.3830 H   0  0  0  0  0  0  0  0  0  0  0  0
  -30.0130  -25.4680   23.6860 H   0  0  0  0  0  0  0  0  0  0  0  0
  -28.8920  -25.6110   21.9570 C   0  0  0  0  0  2  0  0  0  0  0  0
  -29.5700  -26.7350   21.1530 C   0  0  0  0  0  2  0  0  0  0  0  0
  -28.8430  -26.9290   19.9430 O   0  0  0  0  0  0  0  0  0  0  0  0
  -24.7570  -31.7990   23.1880 C   0  0  0  0  0  0  0  0  0  0  0  0
  -27.6470  -27.5940   20.0380 C   0  0  0  0  0  0  0  0  0  0  0  0
  -23.6250  -30.3560   21.5220 C   0  0  0  0  0  3  0  0  0  0  0  0
  -25.1610  -28.9230   20.0780 C   0  0  0  0  0  0  0  0  0  0  0  0
  -26.1190  -30.8690   21.3270 C   0  0  0  0  0  2  0  0  0  0  0  0
  -26.2810  -29.5120   20.6790 C   0  0  0  0  0  0  0  0  0  0  0  0
  -27.5250  -28.8520   20.6670 C   0  0  0  0  0  3  0  0  0  0  0  0
  -26.5170  -27.0110   19.4300 C   0  0  0  0  0  3  0  0  0  0  0  0
  -25.2700  -27.6660   19.4560 C   0  0  0  0  0  3  0  0  0  0  0  0
  -23.8680  -29.7070   20.1330 C   0  0  0  0  0  2  0  0  0  0  0  0
  -24.8500  -31.0230   22.0720 N   0  0  0  0  0  0  0  0  0  0  0  0
  -23.6650  -32.0030   23.7360 O   0  0  0  0  0  0  0  0  0  0  0  0
  -23.0330  -29.2880   22.4660 C   0  0  0  0  0  0  0  0  0  0  0  0
  -21.7320  -29.0010   22.2990 N   0  0  0  0  0  0  0  0  0  0  0  0
  -23.7400  -28.7190   23.3010 O   0  0  0  0  0  0  0  0  0  0  0  0
  -21.2220  -29.5200   21.5990 H   0  0  0  0  0  0  0  0  0  0  0  0
  -18.4600  -27.5110   22.6490 C   0  0  0  0  0  0  0  0  0  0  0  0
  -20.9670  -28.0010   23.0440 C   0  0  0  0  0  3  0  0  0  0  0  0
  -21.2270  -26.5790   22.4940 C   0  0  0  0  0  2  0  0  0  0  0  0
  -20.2110  -26.1480   21.4320 C   0  0  0  0  0  2  0  0  0  0  0  0
  -18.7900  -26.1750   22.0060 C   0  0  0  0  0  2  0  0  0  0  0  0
  -19.4830  -28.3760   23.1200 C   0  0  0  0  0  0  0  0  0  0  0  0
  -19.1250  -29.6240   23.6770 C   0  0  0  0  0  3  0  0  0  0  0  0
  -17.7750  -30.0090   23.7690 C   0  0  0  0  0  3  0  0  0  0  0  0
  -16.7640  -29.1420   23.3170 C   0  0  0  0  0  3  0  0  0  0  0  0
  -17.1070  -27.8960   22.7630 C   0  0  0  0  0  3  0  0  0  0  0  0
  -26.0110  -32.4830   23.8200 C   0  0  0  0  0  3  0  0  0  0  0  0
  -25.6450  -33.8670   24.1460 N   0  0  0  0  0  0  0  0  0  0  0  0
  -25.9530  -34.9320   23.3930 C   0  0  0  0  0  0  0  0  0  0  0  0
  -26.6510  -34.8570   22.3770 O   0  0  0  0  0  0  0  0  0  0  0  0
  -25.0310  -33.9970   24.9370 H   0  0  0  0  0  0  0  0  0  0  0  0
  -24.1720  -36.6560   22.9870 C   0  0  0  0  0  1  0  0  0  0  0  0
  -25.4000  -36.2980   23.8370 C   0  0  0  0  0  3  0  0  0  0  0  0
  -27.4740  -37.2570   24.7350 C   0  0  0  0  0  1  0  0  0  0  0  0
  -26.3970  -37.3880   23.7580 N   0  0  0  0  0  0  0  0  0  0  0  0
  -25.9520  -38.2920   23.8990 H   0  0  0  0  0  0  0  0  0  0  0  0
  -26.5540  -31.7330   25.0970 C   0  0  1  0  0  0  0  0  0  0  0  0
  -25.4600  -31.4310   26.1480 C   0  0  0  0  0  1  0  0  0  0  0  0
  -27.2170  -30.3950   24.6980 C   0  0  0  0  0  1  0  0  0  0  0  0
  -27.6490  -32.5860   25.7810 C   0  0  0  0  0  1  0  0  0  0  0  0
  1  2  1  0
  1 49  1  0
  3  5  1  0
  4  6  1  0
  5  8  1  0
  7 10  1  0
  7  3  1  0
  7  4  1  0
  8  6  1  0
  8  2  1  0
  8  9  1  1
 11 17  1  0
 11 19  1  0
 12 17  1  0
 13 14  1  0
 13 12  1  0
 15 14  1  0
 15 24  1  0
 15 16  1  0
 17 16  1  0
 18 11  2  0
 19 10  1  0
 19 20  1  0
 21 22  2  0
 22 41  1  0
 23 22  1  0
 23 26  1  0
 24 25  1  0
 24 21  1  0
 25 23  2  0
 26 27  1  0
 27 28  2  0
 29 32  1  0
 29 28  1  0
 30 29  2  0
 31 30  1  0
 31 26  2  0
 32 33  1  0
 33 38  2  0
 33 34  1  0
 34 35  2  0
 35 36  1  0
 36 40  1  0
 37 36  2  0
 38 37  1  0
 39 38  1  0
 41 42  1  0
 42 44  1  0
 42 45  1  0
 43 41  2  0
 46 21  1  0
 46 47  1  0
 48 46  1  0
 50 49  1  0
 50 52  1  0
 51 50  1  0
 53 50  1  0
 54 53  1  0
 55 57  1  0
 55 54  1  0
 56 67  2  0
 57 62  1  0
 58 66  1  0
 58 68  1  0
 59 65  1  0
 59 61  1  0
 60 66  1  0
 61 60  1  0
 62 61  2  0
 63 64  1  0
 63 57  2  0
 64 59  2  0
 65 58  1  0
 66 56  1  0
 68 70  2  0
 69 68  1  0
 71 69  1  0
 72 81  2  0
 72 77  1  0
 73 69  1  0
 73 77  1  0
 74 73  1  0
 75 76  1  0
 75 74  1  0
 76 72  1  0
 77 78  2  0
 78 79  1  0
 80 79  2  0
 81 80  1  0
 82 56  1  0
 82 83  1  0
 82 92  1  0
 83 86  1  0
 84 88  1  0
 84 83  1  0
 85 84  2  0
 88 87  1  0
 90 88  1  0
 90 91  1  0
 90 89  1  0
 92 95  1  1
 92 93  1  0
 94 92  1  0
M  ISO  4  11 100  19 100  54 101  55 101
M  END
>  <TORSDO>  (84) 
F 23

>  <SCORE>  (84) 
-10.367

>  <name>  (84) 
85

>  <ligand_id>  (84) 
85

>  <original_smiles>  (84) 
[H]c1c([H])c([H])c2c(c1[H])C([H])([H])C([H])([H])C([H])([H])C2([H])N([H])C(=O)C1([H])N(C(=O)C([H])(N([H])C(=O)C([H])(N([H])C([H])([H])[H])C([H])([H])[H])C(C([H])([H])[H])(C([H])([H])[H])C([H])([H])[H])C([H])([H])c2c([H])c(OC([H])([H])C([H])([H])[N+]([H])([H])C([H])([H])C([H])([H])C([H])([H])[N+]3([H])C([H])([H])C([H])([H])C([H])(C([H])([H])N([H])C(=O)N4C([H])([H])C([H])([H])C([H])([H])C([H])(n5nc(-c6c([H])c([H])c(Oc7c([H])c([H])c(F)c([H])c7F)c([H])c6[H])c(C(=O)N([H])[H])c5N([H])[H])C4([H])[H])C([H])([H])C3([H])[H])c([H])c([H])c2C1([H])[H]

>  <smiles>  (84) 
[H]c1c([H])c([H])c2c(c1[H])C([H])([H])C([H])([H])C([H])([H])C2([H])N([H])C(=O)C1([H])N(C(=O)C([H])(N([H])C(=O)C([H])(N([H])C([H])([H])[H])C([H])([H])[H])C(C([H])([H])[H])(C([H])([H])[H])C([H])([H])[H])C([H])([H])c2c([H])c(OC([H])([H])C([H])([H])[N+]([H])([H])C([H])([H])C([H])([H])C([H])([H])[N+]3([H])C([H])([H])C([H])([H])C([H])(C([H])([H])N([H])C(=O)N4C([H])([H])C([H])([H])C([H])([H])C([H])(n5nc(-c6c([H])c([H])c(Oc7c([H])c([H])c(F)c([H])c7F)c([H])c6[H])c(C(=O)N([H])[H])c5N([H])[H])C4([H])[H])C([H])([H])C3([H])[H])c([H])c([H])c2C1([H])[H]

$$$$
86:0:0
     RDKit          3D

 97105  0  0  1  0  0  0  0  0999 V2000
  -30.7920  -22.5310   17.0180 C   0  0  0  0  0  2  0  0  0  0  0  0
  -30.1400  -23.4470   17.9760 N   0  0  0  0  0  4  0  0  0  0  0  0
  -30.0800  -23.0250   18.8910 H   0  0  0  0  0  0  0  0  0  0  0  0
  -29.2050  -23.6330   17.6500 H   0  0  0  0  0  0  0  0  0  0  0  0
  -30.8350  -24.7380   18.1480 C   0  0  0  0  0  2  0  0  0  0  0  0
  -30.2140  -25.5380   19.2990 C   0  0  0  0  0  3  0  0  0  0  0  0
  -30.1960  -24.7570   20.3850 F   0  0  0  0  0  0  0  0  0  0  0  0
  -28.7930  -26.0560   19.0160 C   0  0  0  0  0  2  0  0  0  0  0  0
  -28.4430  -26.8840   20.1090 O   0  0  0  0  0  0  0  0  0  0  0  0
  -24.6080  -31.9200   23.2120 C   0  0  0  0  0  0  0  0  0  0  0  0
  -27.2370  -27.5370   20.0810 C   0  0  0  0  0  0  0  0  0  0  0  0
  -23.3810  -30.5190   21.5790 C   0  0  0  0  0  3  0  0  0  0  0  0
  -24.8210  -28.9920   20.1310 C   0  0  0  0  0  0  0  0  0  0  0  0
  -25.8950  -30.9000   21.3420 C   0  0  0  0  0  2  0  0  0  0  0  0
  -25.9760  -29.5300   20.7090 C   0  0  0  0  0  0  0  0  0  0  0  0
  -27.1800  -28.8020   20.6950 C   0  0  0  0  0  3  0  0  0  0  0  0
  -26.0660  -26.9960   19.5000 C   0  0  0  0  0  3  0  0  0  0  0  0
  -24.8580  -27.7200   19.5290 C   0  0  0  0  0  3  0  0  0  0  0  0
  -23.5730  -29.8420   20.1940 C   0  0  0  0  0  2  0  0  0  0  0  0
  -24.6480  -31.1270   22.1040 N   0  0  0  0  0  0  0  0  0  0  0  0
  -23.5360  -32.1870   23.7690 O   0  0  0  0  0  0  0  0  0  0  0  0
  -22.7490  -29.4930   22.5450 C   0  0  0  0  0  0  0  0  0  0  0  0
  -21.4240  -29.3100   22.4370 N   0  0  0  0  0  0  0  0  0  0  0  0
  -23.4480  -28.8650   23.3460 O   0  0  0  0  0  0  0  0  0  0  0  0
  -20.9230  -29.8700   21.7620 H   0  0  0  0  0  0  0  0  0  0  0  0
  -18.0610  -28.1050   22.9630 C   0  0  0  0  0  0  0  0  0  0  0  0
  -20.6190  -28.3700   23.2150 C   0  0  0  0  0  3  0  0  0  0  0  0
  -20.7220  -26.9390   22.6380 C   0  0  0  0  0  2  0  0  0  0  0  0
  -19.6130  -26.6130   21.6330 C   0  0  0  0  0  2  0  0  0  0  0  0
  -18.2360  -26.7540   22.2890 C   0  0  0  0  0  2  0  0  0  0  0  0
  -19.1810  -28.8700   23.3840 C   0  0  0  0  0  0  0  0  0  0  0  0
  -18.9630  -30.1340   23.9740 C   0  0  0  0  0  3  0  0  0  0  0  0
  -17.6590  -30.6340   24.1480 C   0  0  0  0  0  3  0  0  0  0  0  0
  -16.5540  -29.8650   23.7430 C   0  0  0  0  0  3  0  0  0  0  0  0
  -16.7550  -28.6030   23.1550 C   0  0  0  0  0  3  0  0  0  0  0  0
  -25.9040  -32.5500   23.8140 C   0  0  0  0  0  3  0  0  0  0  0  0
  -25.5940  -33.9420   24.1660 N   0  0  0  0  0  0  0  0  0  0  0  0
  -25.9120  -35.0040   23.4130 C   0  0  0  0  0  0  0  0  0  0  0  0
  -26.5680  -34.9150   22.3710 O   0  0  0  0  0  0  0  0  0  0  0  0
  -25.0100  -34.0850   24.9760 H   0  0  0  0  0  0  0  0  0  0  0  0
  -24.1700  -36.7900   23.1000 C   0  0  0  0  0  1  0  0  0  0  0  0
  -25.4230  -36.3850   23.8920 C   0  0  0  0  0  3  0  0  0  0  0  0
  -27.5680  -37.2670   24.6990 C   0  0  0  0  0  1  0  0  0  0  0  0
  -26.4480  -37.4430   23.7760 N   0  0  0  0  0  0  0  0  0  0  0  0
  -26.0410  -38.3600   23.9460 H   0  0  0  0  0  0  0  0  0  0  0  0
  -26.4540  -31.7640   25.0660 C   0  0  1  0  0  0  0  0  0  0  0  0
  -25.3880  -31.5040   26.1560 C   0  0  0  0  0  1  0  0  0  0  0  0
  -27.0350  -30.3970   24.6360 C   0  0  0  0  0  1  0  0  0  0  0  0
  -27.6160  -32.5540   25.7130 C   0  0  0  0  0  1  0  0  0  0  0  0
  -29.9100  -21.3160   16.6580 C   0  0  0  0  0  2  0  0  0  0  0  0
  -29.7250  -20.1980   17.7270 C   0  0  0  0  0  2  0  0  0  0  0  0
  -30.9300  -19.3780   18.0950 N   0  0  1  0  0  4  0  0  0  0  0  0
  -31.5160  -19.9640   18.6700 H   0  0  0  0  0  0  0  0  0  0  0  0
  -30.6200  -14.8340   21.0080 C   0  0  0  0  0  0  0  0  0  0  0  0
  -30.5430  -12.5180   20.2280 C   0  0  0  0  0  2  0  0  0  0  0  0
  -29.7420  -12.4700   18.9100 C   0  0  0  0  0  2  0  0  0  0  0  0
  -28.2220  -12.3840   19.1780 C   0  0  0  0  0  2  0  0  0  0  0  0
  -27.7010  -13.3330   20.2980 C   0  0  0  0  0  3  0  0  0  0  0  0
  -28.6480  -13.3530   21.5170 C   0  0  0  0  0  2  0  0  0  0  0  0
  -30.0060  -13.6240   21.0240 N   0  0  0  0  0  0  0  0  0  0  0  0
  -31.8450  -14.9720   21.0160 O   0  0  0  0  0  0  0  0  0  0  0  0
  -29.6620  -17.1980   18.3120 C   0  0  0  0  0  2  0  0  0  0  0  0
  -30.0450  -18.4600   20.3550 C   0  0  0  0  0  2  0  0  0  0  0  0
  -29.7990  -15.8480   19.0000 C   0  0  0  0  0  2  0  0  0  0  0  0
  -29.8530  -17.1590   21.2010 C   0  0  0  0  0  2  0  0  0  0  0  0
  -30.6290  -18.1870   18.9600 C   0  0  0  0  0  3  0  0  0  0  0  0
  -29.8700  -15.8480   20.4890 N   0  0  0  0  0  0  0  0  0  0  0  0
  -25.2350  -13.8850   20.7540 C   0  0  0  0  0  0  0  0  0  0  0  0
  -24.1580  -13.0870   21.0290 C   0  0  0  0  0  0  0  0  0  0  0  0
  -24.6610  -11.7520   21.0860 C   0  0  0  0  0  0  0  0  0  0  0  0
  -26.3230  -13.0300   20.6610 N   0  0  0  0  0  0  0  0  0  0  0  0
  -25.9760  -11.7450   20.9220 N   0  0  0  0  0  0  0  0  0  0  0  0
  -23.9620  -10.4700   21.2270 C   0  0  0  0  0  0  0  0  0  0  0  0
  -24.3560   -9.5200   22.1920 C   0  0  0  0  0  3  0  0  0  0  0  0
  -23.6570   -8.3010   22.3240 C   0  0  0  0  0  3  0  0  0  0  0  0
  -22.5500   -8.0260   21.4870 C   0  0  0  0  0  0  0  0  0  0  0  0
  -22.1770   -8.9650   20.5090 C   0  0  0  0  0  3  0  0  0  0  0  0
  -22.8780  -10.1750   20.3760 C   0  0  0  0  0  3  0  0  0  0  0  0
  -21.8260   -6.8600   21.5260 O   0  0  0  0  0  0  0  0  0  0  0  0
  -21.7400   -6.1050   22.6680 C   0  0  0  0  0  0  0  0  0  0  0  0
  -21.2540   -6.6400   23.8810 C   0  0  0  0  0  3  0  0  0  0  0  0
  -21.1220   -5.8110   25.0130 C   0  0  0  0  0  3  0  0  0  0  0  0
  -21.4600   -4.4460   24.9300 C   0  0  0  0  0  0  0  0  0  0  0  0
  -21.9380   -3.9120   23.7210 C   0  0  0  0  0  3  0  0  0  0  0  0
  -22.0750   -4.7380   22.5930 C   0  0  0  0  0  0  0  0  0  0  0  0
  -22.5160   -4.2140   21.4230 F   0  0  0  0  0  0  0  0  0  0  0  0
  -21.3260   -3.6450   26.0140 F   0  0  0  0  0  0  0  0  0  0  0  0
  -22.7270  -13.5240   21.1400 C   0  0  0  0  0  0  0  0  0  0  0  0
  -21.9340  -12.8300   21.9480 N   0  0  0  0  0  0  0  0  0  0  0  0
  -22.3140  -14.5210   20.5460 O   0  0  0  0  0  0  0  0  0  0  0  0
  -22.2790  -12.0270   22.4530 H   0  0  0  0  0  0  0  0  0  0  0  0
  -20.9700  -13.1090   22.0680 H   0  0  0  0  0  0  0  0  0  0  0  0
  -25.3740  -15.2560   20.5570 N   0  0  0  0  0  0  0  0  0  0  0  0
  -24.5840  -15.8920   20.5830 H   0  0  0  0  0  0  0  0  0  0  0  0
  -26.2460  -15.7150   20.3260 H   0  0  0  0  0  0  0  0  0  0  0  0
  -33.1710  -19.6710   16.9840 C   0  0  0  0  0  1  0  0  0  0  0  0
  -31.8040  -18.9750   16.9490 C   0  0  0  0  0  2  0  0  0  0  0  0
  1  2  1  0
  2  5  1  0
  2  3  1  0
  4  2  1  0
  5  6  1  0
  6  7  1  0
  8  6  1  0
  8  9  1  0
 10 21  2  0
 11  9  1  0
 11 16  1  0
 12 20  1  0
 12 22  1  0
 13 19  1  0
 13 15  1  0
 14 20  1  0
 15 14  1  0
 16 15  2  0
 17 18  1  0
 17 11  2  0
 18 13  2  0
 19 12  1  0
 20 10  1  0
 22 24  2  0
 23 22  1  0
 25 23  1  0
 26 35  2  0
 26 31  1  0
 27 23  1  0
 27 31  1  0
 28 27  1  0
 29 30  1  0
 29 28  1  0
 30 26  1  0
 31 32  2  0
 32 33  1  0
 34 33  2  0
 35 34  1  0
 36 10  1  0
 36 37  1  0
 36 46  1  0
 37 40  1  0
 38 42  1  0
 38 37  1  0
 39 38  2  0
 42 41  1  0
 44 42  1  0
 44 45  1  0
 44 43  1  0
 46 49  1  1
 46 47  1  0
 48 46  1  0
 50  1  1  0
 50 51  1  0
 51 52  1  0
 52 53  1  1
 54 61  2  0
 54 60  1  0
 55 60  1  0
 56 57  1  0
 56 55  1  0
 58 57  1  0
 58 71  1  0
 58 59  1  0
 60 59  1  0
 62 66  1  0
 62 64  1  0
 63 65  1  0
 64 67  1  0
 66 52  1  0
 66 63  1  0
 67 54  1  0
 67 65  1  0
 68 69  2  0
 69 70  1  0
 69 88  1  0
 70 73  1  0
 71 68  1  0
 71 72  1  0
 72 70  2  0
 73 74  1  0
 74 75  2  0
 76 79  1  0
 76 75  1  0
 77 76  2  0
 78 77  1  0
 78 73  2  0
 79 80  1  0
 80 81  1  0
 81 82  2  0
 83 82  1  0
 83 87  1  0
 84 83  2  0
 85 80  2  0
 85 84  1  0
 86 85  1  0
 88 89  1  0
 89 92  1  0
 89 91  1  0
 90 88  2  0
 93 94  1  0
 93 68  1  0
 95 93  1  0
 97 96  1  0
 97 52  1  0
M  ISO  4   8 101   9 101  54 100  67 100
M  END
>  <TORSDO>  (85) 
F 24

>  <SCORE>  (85) 
-11.976

>  <name>  (85) 
86

>  <ligand_id>  (85) 
86

>  <original_smiles>  (85) 
[H]c1c([H])c([H])c2c(c1[H])C([H])([H])C([H])([H])C([H])([H])C2([H])N([H])C(=O)C1([H])N(C(=O)C([H])(N([H])C(=O)C([H])(N([H])C([H])([H])[H])C([H])([H])[H])C(C([H])([H])[H])(C([H])([H])[H])C([H])([H])[H])C([H])([H])c2c([H])c(OC([H])([H])C([H])(F)C([H])([H])[N+]([H])([H])C([H])([H])C([H])([H])C([H])([H])[N+]([H])(C([H])([H])C([H])([H])[H])C3([H])C([H])([H])C([H])([H])N(C(=O)N4C([H])([H])C([H])([H])C([H])([H])C([H])(n5nc(-c6c([H])c([H])c(Oc7c([H])c([H])c(F)c([H])c7F)c([H])c6[H])c(C(=O)N([H])[H])c5N([H])[H])C4([H])[H])C([H])([H])C3([H])[H])c([H])c([H])c2C1([H])[H]

>  <smiles>  (85) 
[H]c1c([H])c([H])c2c(c1[H])C([H])([H])C([H])([H])C([H])([H])C2([H])N([H])C(=O)C1([H])N(C(=O)C([H])(N([H])C(=O)C([H])(N([H])C([H])([H])[H])C([H])([H])[H])C(C([H])([H])[H])(C([H])([H])[H])C([H])([H])[H])C([H])([H])c2c([H])c(OC([H])([H])C([H])(F)C([H])([H])[N+]([H])([H])C([H])([H])C([H])([H])C([H])([H])[N+]([H])(C([H])([H])C([H])([H])[H])C3([H])C([H])([H])C([H])([H])N(C(=O)N4C([H])([H])C([H])([H])C([H])([H])C([H])(n5nc(-c6c([H])c([H])c(Oc7c([H])c([H])c(F)c([H])c7F)c([H])c6[H])c(C(=O)N([H])[H])c5N([H])[H])C4([H])[H])C([H])([H])C3([H])[H])c([H])c([H])c2C1([H])[H]

$$$$
87:0:0
     RDKit          3D

 95104  0  0  1  0  0  0  0  0999 V2000
  -29.7610  -22.1700   21.9650 C   0  0  0  0  0  2  0  0  0  0  0  0
  -29.6420  -20.7110   22.5140 C   0  0  0  0  0  2  0  0  0  0  0  0
  -30.1770  -18.1610   21.8340 C   0  0  0  0  0  2  0  0  0  0  0  0
  -29.5510  -21.1760   19.6120 C   0  0  0  0  0  2  0  0  0  0  0  0
  -29.6110  -18.4960   19.5070 C   0  0  0  0  0  2  0  0  0  0  0  0
  -29.1240  -22.4230   20.5570 C   0  0  0  0  0  3  0  0  0  0  0  0
  -30.3700  -17.4660   20.4580 C   0  0  0  0  0  3  0  0  0  0  0  0
  -30.1770  -19.6810   21.4930 C   0  0  0  0  0  3  0  0  0  0  0  0
  -29.4030  -19.8010   20.2560 N   0  0  1  0  0  4  0  0  0  0  0  0
  -28.4350  -19.7510   20.5390 H   0  0  0  0  0  0  0  0  0  0  0  0
  -30.8020  -14.8730   20.0900 C   0  0  0  0  0  0  0  0  0  0  0  0
  -30.5730  -12.6170   19.0530 C   0  0  0  0  0  2  0  0  0  0  0  0
  -29.5800  -12.7180   17.8720 C   0  0  0  0  0  2  0  0  0  0  0  0
  -28.1310  -12.5230   18.3640 C   0  0  0  0  0  2  0  0  0  0  0  0
  -27.8060  -13.3880   19.6120 C   0  0  0  0  0  3  0  0  0  0  0  0
  -28.9150  -13.2790   20.6830 C   0  0  0  0  0  2  0  0  0  0  0  0
  -30.1850  -13.6460   20.0410 N   0  0  0  0  0  0  0  0  0  0  0  0
  -31.9640  -15.0050   19.6960 O   0  0  0  0  0  0  0  0  0  0  0  0
  -30.0260  -15.9740   20.3990 N   0  0  0  0  0  0  0  0  0  0  0  0
  -29.0720  -15.7430   20.6330 H   0  0  0  0  0  0  0  0  0  0  0  0
  -25.4570  -13.9570   20.4790 C   0  0  0  0  0  0  0  0  0  0  0  0
  -24.4090  -13.1720   20.8770 C   0  0  0  0  0  0  0  0  0  0  0  0
  -24.8670  -11.8220   20.7750 C   0  0  0  0  0  0  0  0  0  0  0  0
  -26.4860  -13.0840   20.1580 N   0  0  0  0  0  0  0  0  0  0  0  0
  -26.1380  -11.7930   20.3970 N   0  0  0  0  0  0  0  0  0  0  0  0
  -24.1490  -10.5560   20.9570 C   0  0  0  0  0  0  0  0  0  0  0  0
  -24.5630   -9.5990   21.9100 C   0  0  0  0  0  3  0  0  0  0  0  0
  -23.8420   -8.3970   22.0780 C   0  0  0  0  0  3  0  0  0  0  0  0
  -22.6930   -8.1430   21.2920 C   0  0  0  0  0  0  0  0  0  0  0  0
  -22.3000   -9.0880   20.3280 C   0  0  0  0  0  3  0  0  0  0  0  0
  -23.0220  -10.2810   20.1580 C   0  0  0  0  0  3  0  0  0  0  0  0
  -21.9450   -6.9940   21.3690 O   0  0  0  0  0  0  0  0  0  0  0  0
  -21.7800   -6.3180   22.5520 C   0  0  0  0  0  0  0  0  0  0  0  0
  -21.1750   -6.9220   23.6750 C   0  0  0  0  0  3  0  0  0  0  0  0
  -20.9640   -6.1700   24.8490 C   0  0  0  0  0  3  0  0  0  0  0  0
  -21.3470   -4.8170   24.8980 C   0  0  0  0  0  0  0  0  0  0  0  0
  -21.9430   -4.2130   23.7770 C   0  0  0  0  0  3  0  0  0  0  0  0
  -22.1580   -4.9610   22.6070 C   0  0  0  0  0  0  0  0  0  0  0  0
  -22.7140   -4.3690   21.5230 F   0  0  0  0  0  0  0  0  0  0  0  0
  -21.1360   -4.0930   26.0220 F   0  0  0  0  0  0  0  0  0  0  0  0
  -23.0290  -13.6410   21.2380 C   0  0  0  0  0  0  0  0  0  0  0  0
  -22.3390  -12.9120   22.1060 N   0  0  0  0  0  0  0  0  0  0  0  0
  -22.5750  -14.6920   20.7870 O   0  0  0  0  0  0  0  0  0  0  0  0
  -22.7170  -12.0580   22.4930 H   0  0  0  0  0  0  0  0  0  0  0  0
  -21.4160  -13.2090   22.3900 H   0  0  0  0  0  0  0  0  0  0  0  0
  -25.6140  -15.3330   20.3390 N   0  0  0  0  0  0  0  0  0  0  0  0
  -24.8430  -15.9760   20.4800 H   0  0  0  0  0  0  0  0  0  0  0  0
  -26.4340  -15.7800   19.9470 H   0  0  0  0  0  0  0  0  0  0  0  0
  -29.3760  -23.9810   20.0890 C   0  0  0  0  0  3  0  0  0  0  0  0
  -29.9840  -24.0700   18.7340 N   0  0  0  0  0  4  0  0  0  0  0  0
  -29.3570  -23.7730   18.0040 H   0  0  0  0  0  0  0  0  0  0  0  0
  -30.8380  -23.5430   18.6610 H   0  0  0  0  0  0  0  0  0  0  0  0
  -30.2320  -25.0270   18.5410 H   0  0  0  0  0  0  0  0  0  0  0  0
  -28.1600  -25.0460   20.1890 C   0  0  0  0  0  2  0  0  0  0  0  0
  -28.3910  -26.5330   20.1210 O   0  0  0  0  0  0  0  0  0  0  0  0
  -24.6170  -31.9240   23.2230 C   0  0  0  0  0  0  0  0  0  0  0  0
  -27.2700  -27.3970   20.1000 C   0  0  0  0  0  0  0  0  0  0  0  0
  -23.4250  -30.5250   21.5780 C   0  0  0  0  0  3  0  0  0  0  0  0
  -24.8870  -29.0090   20.1230 C   0  0  0  0  0  0  0  0  0  0  0  0
  -25.9620  -30.8680   21.3870 C   0  0  0  0  0  2  0  0  0  0  0  0
  -26.0590  -29.4970   20.7200 C   0  0  0  0  0  0  0  0  0  0  0  0
  -27.2530  -28.7060   20.6940 C   0  0  0  0  0  3  0  0  0  0  0  0
  -26.0680  -26.9800   19.4790 C   0  0  0  0  0  3  0  0  0  0  0  0
  -24.8970  -27.7560   19.4950 C   0  0  0  0  0  3  0  0  0  0  0  0
  -23.6410  -29.8690   20.1900 C   0  0  0  0  0  2  0  0  0  0  0  0
  -24.6870  -31.1230   22.1200 N   0  0  0  0  0  0  0  0  0  0  0  0
  -23.5320  -32.1840   23.7650 O   0  0  0  0  0  0  0  0  0  0  0  0
  -22.7810  -29.4860   22.5300 C   0  0  0  0  0  0  0  0  0  0  0  0
  -21.4630  -29.2680   22.3840 N   0  0  0  0  0  0  0  0  0  0  0  0
  -23.4660  -28.8790   23.3580 O   0  0  0  0  0  0  0  0  0  0  0  0
  -20.9650  -29.8120   21.6950 H   0  0  0  0  0  0  0  0  0  0  0  0
  -18.1190  -27.9600   22.8280 C   0  0  0  0  0  0  0  0  0  0  0  0
  -20.6620  -28.3050   23.1440 C   0  0  0  0  0  3  0  0  0  0  0  0
  -20.8210  -26.8750   22.5750 C   0  0  0  0  0  2  0  0  0  0  0  0
  -19.7480  -26.5120   21.5430 C   0  0  0  0  0  2  0  0  0  0  0  0
  -18.3510  -26.6120   22.1630 C   0  0  0  0  0  2  0  0  0  0  0  0
  -19.2040  -28.7600   23.2750 C   0  0  0  0  0  0  0  0  0  0  0  0
  -18.9360  -30.0140   23.8590 C   0  0  0  0  0  3  0  0  0  0  0  0
  -17.6130  -30.4760   24.0000 C   0  0  0  0  0  3  0  0  0  0  0  0
  -16.5420  -29.6720   23.5770 C   0  0  0  0  0  3  0  0  0  0  0  0
  -16.7940  -28.4170   22.9950 C   0  0  0  0  0  3  0  0  0  0  0  0
  -25.8970  -32.5660   23.8420 C   0  0  0  0  0  3  0  0  0  0  0  0
  -26.4220  -31.8000   25.1180 C   0  0  1  0  0  0  0  0  0  0  0  0
  -25.3250  -31.5270   26.1710 C   0  0  0  0  0  1  0  0  0  0  0  0
  -27.0440  -30.4420   24.7190 C   0  0  0  0  0  1  0  0  0  0  0  0
  -27.5440  -32.6200   25.7990 C   0  0  0  0  0  1  0  0  0  0  0  0
  -25.5750  -33.9610   24.1780 N   0  0  0  0  0  0  0  0  0  0  0  0
  -25.8990  -35.0200   23.4250 C   0  0  0  0  0  0  0  0  0  0  0  0
  -26.5710  -34.9280   22.3930 O   0  0  0  0  0  0  0  0  0  0  0  0
  -24.9760  -34.1060   24.9780 H   0  0  0  0  0  0  0  0  0  0  0  0
  -24.1680  -36.8100   23.0690 C   0  0  0  0  0  1  0  0  0  0  0  0
  -25.3990  -36.4010   23.8930 C   0  0  0  0  0  3  0  0  0  0  0  0
  -27.5120  -37.2900   24.7680 C   0  0  0  0  0  1  0  0  0  0  0  0
  -26.4290  -37.4590   23.8070 N   0  0  0  0  0  0  0  0  0  0  0  0
  -26.0200  -38.3770   23.9570 H   0  0  0  0  0  0  0  0  0  0  0  0
  1  2  1  0
  4  9  1  0
  4  6  1  0
  5  9  1  0
  5  7  1  0
  6 49  1  0
  6  1  1  0
  7 19  1  0
  7  3  1  0
  8  3  1  0
  8  2  1  0
  9 10  1  1
  9  8  1  0
 11 19  1  0
 12 17  1  0
 13 14  1  0
 13 12  1  0
 15 14  1  0
 15 24  1  0
 15 16  1  0
 17 11  1  0
 17 16  1  0
 18 11  2  0
 19 20  1  0
 21 22  2  0
 22 41  1  0
 23 22  1  0
 23 26  1  0
 24 25  1  0
 24 21  1  0
 25 23  2  0
 26 27  1  0
 27 28  2  0
 29 32  1  0
 29 28  1  0
 30 29  2  0
 31 30  1  0
 31 26  2  0
 32 33  1  0
 33 38  2  0
 33 34  1  0
 34 35  2  0
 35 36  1  0
 36 40  1  0
 37 36  2  0
 38 37  1  0
 39 38  1  0
 41 42  1  0
 42 45  1  0
 42 44  1  0
 43 41  2  0
 46 21  1  0
 46 47  1  0
 48 46  1  0
 49 54  1  0
 50 49  1  0
 51 50  1  0
 52 50  1  0
 53 50  1  0
 55 54  1  0
 56 67  2  0
 57 55  1  0
 57 62  1  0
 58 66  1  0
 58 68  1  0
 59 65  1  0
 59 61  1  0
 60 66  1  0
 61 60  1  0
 62 61  2  0
 63 64  1  0
 63 57  2  0
 64 59  2  0
 65 58  1  0
 66 56  1  0
 68 70  2  0
 69 68  1  0
 71 69  1  0
 72 81  2  0
 72 77  1  0
 73 69  1  0
 73 77  1  0
 74 73  1  0
 75 76  1  0
 75 74  1  0
 76 72  1  0
 77 78  2  0
 78 79  1  0
 80 79  2  0
 81 80  1  0
 82 56  1  0
 82 87  1  0
 82 83  1  0
 83 86  1  1
 83 84  1  0
 85 83  1  0
 87 90  1  0
 88 92  1  0
 88 87  1  0
 89 88  2  0
 92 91  1  0
 94 92  1  0
 94 95  1  0
 94 93  1  0
M  ISO  4  11 100  19 100  54 101  55 101
M  END
>  <TORSDO>  (86) 
F 19

>  <SCORE>  (86) 
-13.594

>  <name>  (86) 
87

>  <ligand_id>  (86) 
87

>  <original_smiles>  (86) 
[H]c1c([H])c([H])c2c(c1[H])C([H])([H])C([H])([H])C([H])([H])C2([H])N([H])C(=O)C1([H])N(C(=O)C([H])(N([H])C(=O)C([H])(N([H])C([H])([H])[H])C([H])([H])[H])C(C([H])([H])[H])(C([H])([H])[H])C([H])([H])[H])C([H])([H])c2c([H])c(OC([H])([H])C([H])(C3([H])C([H])([H])C([H])([H])C4([H])C([H])([H])C([H])(N([H])C(=O)N5C([H])([H])C([H])([H])C([H])([H])C([H])(n6nc(-c7c([H])c([H])c(Oc8c([H])c([H])c(F)c([H])c8F)c([H])c7[H])c(C(=O)N([H])[H])c6N([H])[H])C5([H])[H])C([H])([H])[N+]4([H])C3([H])[H])[N+]([H])([H])[H])c([H])c([H])c2C1([H])[H]

>  <smiles>  (86) 
[H]c1c([H])c([H])c2c(c1[H])C([H])([H])C([H])([H])C([H])([H])C2([H])N([H])C(=O)C1([H])N(C(=O)C([H])(N([H])C(=O)C([H])(N([H])C([H])([H])[H])C([H])([H])[H])C(C([H])([H])[H])(C([H])([H])[H])C([H])([H])[H])C([H])([H])c2c([H])c(OC([H])([H])C([H])(C3([H])C([H])([H])C([H])([H])C4([H])C([H])([H])C([H])(N([H])C(=O)N5C([H])([H])C([H])([H])C([H])([H])C([H])(n6nc(-c7c([H])c([H])c(Oc8c([H])c([H])c(F)c([H])c8F)c([H])c7[H])c(C(=O)N([H])[H])c6N([H])[H])C5([H])[H])C([H])([H])[N+]4([H])C3([H])[H])[N+]([H])([H])[H])c([H])c([H])c2C1([H])[H]

$$$$
88:0:0
     RDKit          3D

 94102  0  0  1  0  0  0  0  0999 V2000
  -30.1870  -22.6560   20.8250 C   0  0  0  0  0  0  0  0  0  0  0  0
  -30.5740  -21.7010   21.6820 N   0  0  0  0  0  0  0  0  0  0  0  0
  -30.9740  -23.2210   20.0650 O   0  0  0  0  0  0  0  0  0  0  0  0
  -29.8670  -21.3520   22.3170 H   0  0  0  0  0  0  0  0  0  0  0  0
  -28.6900  -22.9970   20.8150 C   0  0  0  0  0  2  0  0  0  0  0  0
  -28.3120  -24.3100   20.0890 C   0  0  0  0  0  2  0  0  0  0  0  0
  -28.5110  -25.5770   20.9420 C   0  0  0  0  0  2  0  0  0  0  0  0
  -28.4250  -26.7660   20.1580 O   0  0  0  0  0  0  0  0  0  0  0  0
  -24.5830  -31.8880   23.2620 C   0  0  0  0  0  0  0  0  0  0  0  0
  -27.2330  -27.4490   20.2060 C   0  0  0  0  0  0  0  0  0  0  0  0
  -23.3730  -30.4750   21.6310 C   0  0  0  0  0  3  0  0  0  0  0  0
  -24.8250  -28.9250   20.2190 C   0  0  0  0  0  0  0  0  0  0  0  0
  -25.8930  -30.8420   21.4200 C   0  0  0  0  0  2  0  0  0  0  0  0
  -25.9810  -29.4650   20.7970 C   0  0  0  0  0  0  0  0  0  0  0  0
  -27.1870  -28.7340   20.7870 C   0  0  0  0  0  3  0  0  0  0  0  0
  -26.0620  -26.9140   19.6270 C   0  0  0  0  0  3  0  0  0  0  0  0
  -24.8590  -27.6470   19.6330 C   0  0  0  0  0  3  0  0  0  0  0  0
  -23.5790  -29.7800   20.2570 C   0  0  0  0  0  2  0  0  0  0  0  0
  -24.6350  -31.0830   22.1630 N   0  0  0  0  0  0  0  0  0  0  0  0
  -23.5040  -32.1630   23.8050 O   0  0  0  0  0  0  0  0  0  0  0  0
  -22.7250  -29.4610   22.6000 C   0  0  0  0  0  0  0  0  0  0  0  0
  -21.4030  -29.2690   22.4690 N   0  0  0  0  0  0  0  0  0  0  0  0
  -23.4090  -28.8460   23.4230 O   0  0  0  0  0  0  0  0  0  0  0  0
  -20.9110  -29.8160   21.7760 H   0  0  0  0  0  0  0  0  0  0  0  0
  -18.0350  -28.0550   22.9550 C   0  0  0  0  0  0  0  0  0  0  0  0
  -20.5870  -28.3350   23.2450 C   0  0  0  0  0  3  0  0  0  0  0  0
  -20.7070  -26.8980   22.6880 C   0  0  0  0  0  2  0  0  0  0  0  0
  -19.6160  -26.5550   21.6680 C   0  0  0  0  0  2  0  0  0  0  0  0
  -18.2280  -26.6980   22.2980 C   0  0  0  0  0  2  0  0  0  0  0  0
  -19.1450  -28.8300   23.3850 C   0  0  0  0  0  0  0  0  0  0  0  0
  -18.9120  -30.1000   23.9570 C   0  0  0  0  0  3  0  0  0  0  0  0
  -17.6020  -30.5940   24.1040 C   0  0  0  0  0  3  0  0  0  0  0  0
  -16.5070  -29.8160   23.6910 C   0  0  0  0  0  3  0  0  0  0  0  0
  -16.7240  -28.5490   23.1230 C   0  0  0  0  0  3  0  0  0  0  0  0
  -25.8720  -32.5210   23.8750 C   0  0  0  0  0  3  0  0  0  0  0  0
  -25.5670  -33.9220   24.1980 N   0  0  0  0  0  0  0  0  0  0  0  0
  -25.9010  -34.9680   23.4300 C   0  0  0  0  0  0  0  0  0  0  0  0
  -26.5710  -34.8570   22.4000 O   0  0  0  0  0  0  0  0  0  0  0  0
  -24.9750  -34.0830   24.9990 H   0  0  0  0  0  0  0  0  0  0  0  0
  -24.1770  -36.7600   23.0600 C   0  0  0  0  0  1  0  0  0  0  0  0
  -25.4140  -36.3600   23.8780 C   0  0  0  0  0  3  0  0  0  0  0  0
  -27.5500  -37.2430   24.7070 C   0  0  0  0  0  1  0  0  0  0  0  0
  -26.4490  -37.4100   23.7610 N   0  0  0  0  0  0  0  0  0  0  0  0
  -26.0440  -38.3310   23.9060 H   0  0  0  0  0  0  0  0  0  0  0  0
  -26.3970  -31.7550   25.1510 C   0  0  1  0  0  0  0  0  0  0  0  0
  -25.3090  -31.5210   26.2250 C   0  0  0  0  0  1  0  0  0  0  0  0
  -26.9770  -30.3770   24.7580 C   0  0  0  0  0  1  0  0  0  0  0  0
  -27.5510  -32.5510   25.8030 C   0  0  0  0  0  1  0  0  0  0  0  0
  -31.9480  -21.2110   21.8570 C   0  0  0  0  0  2  0  0  0  0  0  0
  -32.2160  -19.8480   21.1700 C   0  0  0  0  0  2  0  0  0  0  0  0
  -30.3760  -17.0660   22.9140 C   0  0  0  0  0  2  0  0  0  0  0  0
  -31.0270  -18.4620   22.8950 C   0  0  0  0  0  2  0  0  0  0  0  0
  -31.2960  -17.5500   20.7390 C   0  0  0  0  0  2  0  0  0  0  0  0
  -30.2370  -16.6860   21.4360 C   0  0  0  0  0  3  0  0  0  0  0  0
  -31.1780  -18.8300   21.4670 N   0  0  2  0  0  4  0  0  0  0  0  0
  -30.3000  -19.2300   21.1710 H   0  0  0  0  0  0  0  0  0  0  0  0
  -30.7790  -14.4760   20.2630 C   0  0  0  0  0  0  0  0  0  0  0  0
  -30.4090  -12.4460   18.9030 C   0  0  0  0  0  2  0  0  0  0  0  0
  -29.4050  -12.7530   17.7730 C   0  0  0  0  0  2  0  0  0  0  0  0
  -27.9470  -12.6110   18.2570 C   0  0  0  0  0  2  0  0  0  0  0  0
  -27.6900  -13.3540   19.5950 C   0  0  0  0  0  3  0  0  0  0  0  0
  -28.7820  -12.9840   20.6230 C   0  0  0  0  0  2  0  0  0  0  0  0
  -30.1000  -13.3200   20.0430 N   0  0  0  0  0  0  0  0  0  0  0  0
  -31.7750  -14.8220   19.6230 O   0  0  0  0  0  0  0  0  0  0  0  0
  -30.2170  -15.2390   21.2100 N   0  0  0  0  0  0  0  0  0  0  0  0
  -29.4720  -14.7600   21.6940 H   0  0  0  0  0  0  0  0  0  0  0  0
  -25.3030  -13.9590   20.3660 C   0  0  0  0  0  0  0  0  0  0  0  0
  -24.2510  -13.1840   20.7720 C   0  0  0  0  0  0  0  0  0  0  0  0
  -24.7160  -11.8350   20.7260 C   0  0  0  0  0  0  0  0  0  0  0  0
  -26.3470  -13.0810   20.1080 N   0  0  0  0  0  0  0  0  0  0  0  0
  -25.9950  -11.7980   20.3750 N   0  0  0  0  0  0  0  0  0  0  0  0
  -24.0020  -10.5700   20.9410 C   0  0  0  0  0  0  0  0  0  0  0  0
  -24.4570   -9.6170   21.8790 C   0  0  0  0  0  3  0  0  0  0  0  0
  -23.7420   -8.4170   22.0810 C   0  0  0  0  0  3  0  0  0  0  0  0
  -22.5610   -8.1620   21.3440 C   0  0  0  0  0  0  0  0  0  0  0  0
  -22.1270   -9.1040   20.3960 C   0  0  0  0  0  3  0  0  0  0  0  0
  -22.8420  -10.2960   20.1920 C   0  0  0  0  0  3  0  0  0  0  0  0
  -21.8160   -7.0120   21.4550 O   0  0  0  0  0  0  0  0  0  0  0  0
  -21.7670   -6.2960   22.6240 C   0  0  0  0  0  0  0  0  0  0  0  0
  -21.3430   -6.8810   23.8370 C   0  0  0  0  0  3  0  0  0  0  0  0
  -21.2400   -6.0920   25.0000 C   0  0  0  0  0  3  0  0  0  0  0  0
  -21.5490   -4.7190   24.9500 C   0  0  0  0  0  0  0  0  0  0  0  0
  -21.9650   -4.1340   23.7410 C   0  0  0  0  0  3  0  0  0  0  0  0
  -22.0710   -4.9200   22.5810 C   0  0  0  0  0  0  0  0  0  0  0  0
  -22.4510   -4.3480   21.4130 F   0  0  0  0  0  0  0  0  0  0  0  0
  -21.4430   -3.9590   26.0650 F   0  0  0  0  0  0  0  0  0  0  0  0
  -22.8620  -13.6540   21.0930 C   0  0  0  0  0  0  0  0  0  0  0  0
  -22.1730  -12.9640   21.9950 N   0  0  0  0  0  0  0  0  0  0  0  0
  -22.3950  -14.6690   20.5780 O   0  0  0  0  0  0  0  0  0  0  0  0
  -22.5630  -12.1440   22.4350 H   0  0  0  0  0  0  0  0  0  0  0  0
  -21.2440  -13.2620   22.2520 H   0  0  0  0  0  0  0  0  0  0  0  0
  -25.4500  -15.3310   20.1770 N   0  0  0  0  0  0  0  0  0  0  0  0
  -24.6730  -15.9720   20.2920 H   0  0  0  0  0  0  0  0  0  0  0  0
  -26.2700  -15.7710   19.7780 H   0  0  0  0  0  0  0  0  0  0  0  0
  1  2  1  0
  2 49  1  0
  2  4  1  0
  3  1  2  0
  5  1  1  0
  6  5  1  0
  6  7  1  0
  8 10  1  0
  8  7  1  0
  9 20  2  0
 10 15  1  0
 11 19  1  0
 11 21  1  0
 12 18  1  0
 12 14  1  0
 13 19  1  0
 14 13  1  0
 15 14  2  0
 16 17  1  0
 16 10  2  0
 17 12  2  0
 18 11  1  0
 19  9  1  0
 21 23  2  0
 22 21  1  0
 24 22  1  0
 25 34  2  0
 25 30  1  0
 26 22  1  0
 26 30  1  0
 27 26  1  0
 28 29  1  0
 28 27  1  0
 29 25  1  0
 30 31  2  0
 31 32  1  0
 33 32  2  0
 34 33  1  0
 35  9  1  0
 35 36  1  0
 35 45  1  0
 36 39  1  0
 37 41  1  0
 37 36  1  0
 38 37  2  0
 41 40  1  0
 43 41  1  0
 43 44  1  0
 43 42  1  0
 45 48  1  1
 45 46  1  0
 47 45  1  0
 50 55  1  0
 50 49  1  0
 52 51  1  0
 53 54  1  0
 53 55  1  0
 54 65  1  0
 54 51  1  0
 55 52  1  0
 55 56  1  6
 57 65  1  0
 58 63  1  0
 59 60  1  0
 59 58  1  0
 61 60  1  0
 61 70  1  0
 61 62  1  0
 63 57  1  0
 63 62  1  0
 64 57  2  0
 65 66  1  0
 67 68  2  0
 68 87  1  0
 69 68  1  0
 69 72  1  0
 70 67  1  0
 70 71  1  0
 71 69  2  0
 72 73  1  0
 73 74  2  0
 75 78  1  0
 75 74  1  0
 76 75  2  0
 77 76  1  0
 77 72  2  0
 78 79  1  0
 79 80  1  0
 80 81  2  0
 82 81  1  0
 82 86  1  0
 83 82  2  0
 84 79  2  0
 84 83  1  0
 85 84  1  0
 87 88  1  0
 88 91  1  0
 88 90  1  0
 89 87  2  0
 92 93  1  0
 92 67  1  0
 94 92  1  0
M  ISO  4   7 101   8 101  57 100  65 100
M  END
>  <TORSDO>  (87) 
F 22

>  <SCORE>  (87) 
-12.623

>  <name>  (87) 
88

>  <ligand_id>  (87) 
88

>  <original_smiles>  (87) 
[H]c1c([H])c([H])c2c(c1[H])C([H])([H])C([H])([H])C([H])([H])C2([H])N([H])C(=O)C1([H])N(C(=O)C([H])(N([H])C(=O)C([H])(N([H])C([H])([H])[H])C([H])([H])[H])C(C([H])([H])[H])(C([H])([H])[H])C([H])([H])[H])C([H])([H])c2c([H])c(OC([H])([H])C([H])([H])C([H])([H])C(=O)N([H])C([H])([H])C([H])([H])[N+]3([H])C([H])([H])C([H])([H])C([H])(N([H])C(=O)N4C([H])([H])C([H])([H])C([H])([H])C([H])(n5nc(-c6c([H])c([H])c(Oc7c([H])c([H])c(F)c([H])c7F)c([H])c6[H])c(C(=O)N([H])[H])c5N([H])[H])C4([H])[H])C3([H])[H])c([H])c([H])c2C1([H])[H]

>  <smiles>  (87) 
[H]c1c([H])c([H])c2c(c1[H])C([H])([H])C([H])([H])C([H])([H])C2([H])N([H])C(=O)C1([H])N(C(=O)C([H])(N([H])C(=O)C([H])(N([H])C([H])([H])[H])C([H])([H])[H])C(C([H])([H])[H])(C([H])([H])[H])C([H])([H])[H])C([H])([H])c2c([H])c(OC([H])([H])C([H])([H])C([H])([H])C(=O)N([H])C([H])([H])C([H])([H])[N+]3([H])C([H])([H])C([H])([H])C([H])(N([H])C(=O)N4C([H])([H])C([H])([H])C([H])([H])C([H])(n5nc(-c6c([H])c([H])c(Oc7c([H])c([H])c(F)c([H])c7F)c([H])c6[H])c(C(=O)N([H])[H])c5N([H])[H])C4([H])[H])C3([H])[H])c([H])c([H])c2C1([H])[H]

$$$$
89:0:0
     RDKit          3D

 94102  0  0  1  0  0  0  0  0999 V2000
  -30.4250  -21.6700   22.4640 C   0  0  0  0  0  2  0  0  0  0  0  0
  -28.0740  -22.0740   22.0470 C   0  0  0  0  0  1  0  0  0  0  0  0
  -29.4430  -22.3800   21.6160 N   0  0  0  0  0  0  0  0  0  0  0  0
  -29.6770  -23.8340   21.7760 C   0  0  0  0  0  2  0  0  0  0  0  0
  -28.9660  -24.7730   20.7580 C   0  0  0  0  0  3  0  0  0  0  0  0
  -27.6410  -24.6280   20.8070 F   0  0  0  0  0  0  0  0  0  0  0  0
  -29.2830  -26.2690   21.0170 C   0  0  0  0  0  2  0  0  0  0  0  0
  -28.9150  -27.1020   19.9150 O   0  0  0  0  0  0  0  0  0  0  0  0
  -24.7230  -31.8070   23.2930 C   0  0  0  0  0  0  0  0  0  0  0  0
  -27.7090  -27.7530   20.0120 C   0  0  0  0  0  0  0  0  0  0  0  0
  -23.6510  -30.4710   21.5060 C   0  0  0  0  0  3  0  0  0  0  0  0
  -25.2350  -29.1150   20.0370 C   0  0  0  0  0  0  0  0  0  0  0  0
  -26.1570  -30.9720   21.4340 C   0  0  0  0  0  2  0  0  0  0  0  0
  -26.3390  -29.6540   20.7130 C   0  0  0  0  0  0  0  0  0  0  0  0
  -27.5790  -28.9770   20.7050 C   0  0  0  0  0  3  0  0  0  0  0  0
  -26.5950  -27.2230   19.3310 C   0  0  0  0  0  3  0  0  0  0  0  0
  -25.3550  -27.8950   19.3480 C   0  0  0  0  0  3  0  0  0  0  0  0
  -23.9460  -29.9030   20.0920 C   0  0  0  0  0  2  0  0  0  0  0  0
  -24.8590  -31.0960   22.1380 N   0  0  0  0  0  0  0  0  0  0  0  0
  -23.6110  -31.9830   23.8090 O   0  0  0  0  0  0  0  0  0  0  0  0
  -23.0200  -29.3510   22.3650 C   0  0  0  0  0  0  0  0  0  0  0  0
  -21.7060  -29.1360   22.1960 N   0  0  0  0  0  0  0  0  0  0  0  0
  -23.7120  -28.6840   23.1380 O   0  0  0  0  0  0  0  0  0  0  0  0
  -21.2080  -29.7300   21.5480 H   0  0  0  0  0  0  0  0  0  0  0  0
  -18.3590  -27.8270   22.5620 C   0  0  0  0  0  0  0  0  0  0  0  0
  -20.9100  -28.1100   22.8680 C   0  0  0  0  0  3  0  0  0  0  0  0
  -21.0450  -26.7460   22.1520 C   0  0  0  0  0  2  0  0  0  0  0  0
  -19.9520  -26.5030   21.1070 C   0  0  0  0  0  2  0  0  0  0  0  0
  -18.5660  -26.5550   21.7580 C   0  0  0  0  0  2  0  0  0  0  0  0
  -19.4610  -28.5660   23.0700 C   0  0  0  0  0  0  0  0  0  0  0  0
  -19.2150  -29.7600   23.7810 C   0  0  0  0  0  3  0  0  0  0  0  0
  -17.8990  -30.2160   23.9900 C   0  0  0  0  0  3  0  0  0  0  0  0
  -16.8130  -29.4720   23.4990 C   0  0  0  0  0  3  0  0  0  0  0  0
  -17.0430  -28.2800   22.7900 C   0  0  0  0  0  3  0  0  0  0  0  0
  -25.9520  -32.4520   24.0060 C   0  0  0  0  0  3  0  0  0  0  0  0
  -25.5840  -33.8270   24.3650 N   0  0  0  0  0  0  0  0  0  0  0  0
  -25.9160  -34.9120   23.6520 C   0  0  0  0  0  0  0  0  0  0  0  0
  -26.6330  -34.8620   22.6490 O   0  0  0  0  0  0  0  0  0  0  0  0
  -24.9500  -33.9390   25.1430 H   0  0  0  0  0  0  0  0  0  0  0  0
  -24.1380  -36.6510   23.2790 C   0  0  0  0  0  1  0  0  0  0  0  0
  -25.3630  -36.2690   24.1260 C   0  0  0  0  0  3  0  0  0  0  0  0
  -27.4280  -37.2070   25.0650 C   0  0  0  0  0  1  0  0  0  0  0  0
  -26.3610  -37.3600   24.0800 N   0  0  0  0  0  0  0  0  0  0  0  0
  -25.9160  -38.2600   24.2320 H   0  0  0  0  0  0  0  0  0  0  0  0
  -26.4230  -31.6490   25.2800 C   0  0  1  0  0  0  0  0  0  0  0  0
  -25.2820  -31.3380   26.2750 C   0  0  0  0  0  1  0  0  0  0  0  0
  -27.0740  -30.3060   24.8690 C   0  0  0  0  0  1  0  0  0  0  0  0
  -27.5110  -32.4520   26.0340 C   0  0  0  0  0  1  0  0  0  0  0  0
  -30.2390  -20.1360   22.6770 C   0  0  0  0  0  2  0  0  0  0  0  0
  -29.5630  -19.3040   20.4060 C   0  0  0  0  0  2  0  0  0  0  0  0
  -30.8300  -17.8690   21.8320 C   0  0  0  0  0  2  0  0  0  0  0  0
  -29.3210  -17.8330   19.9990 C   0  0  0  0  0  3  0  0  0  0  0  0
  -30.5480  -17.0920   20.5420 C   0  0  0  0  0  3  0  0  0  0  0  0
  -29.0690  -17.6230   18.4990 C   0  0  0  0  0  1  0  0  0  0  0  0
  -30.5670  -19.2910   21.4980 N   0  0  2  0  0  4  0  0  0  0  0  0
  -31.4220  -19.6510   21.1010 H   0  0  0  0  0  0  0  0  0  0  0  0
  -31.0100  -14.6530   20.1790 C   0  0  0  0  0  0  0  0  0  0  0  0
  -30.6570  -12.5270   18.9900 C   0  0  0  0  0  2  0  0  0  0  0  0
  -29.6810  -12.7800   17.8220 C   0  0  0  0  0  2  0  0  0  0  0  0
  -28.2160  -12.6580   18.2910 C   0  0  0  0  0  2  0  0  0  0  0  0
  -27.9330  -13.4670   19.5850 C   0  0  0  0  0  3  0  0  0  0  0  0
  -29.0160  -13.1890   20.6540 C   0  0  0  0  0  2  0  0  0  0  0  0
  -30.3310  -13.4820   20.0590 N   0  0  0  0  0  0  0  0  0  0  0  0
  -32.1130  -14.8530   19.6610 O   0  0  0  0  0  0  0  0  0  0  0  0
  -30.3100  -15.6530   20.7380 N   0  0  0  0  0  0  0  0  0  0  0  0
  -29.4290  -15.3870   21.1510 H   0  0  0  0  0  0  0  0  0  0  0  0
  -25.5610  -14.1060   20.3570 C   0  0  0  0  0  0  0  0  0  0  0  0
  -24.4930  -13.3460   20.7530 C   0  0  0  0  0  0  0  0  0  0  0  0
  -24.9350  -11.9880   20.7010 C   0  0  0  0  0  0  0  0  0  0  0  0
  -26.5870  -13.2110   20.0930 N   0  0  0  0  0  0  0  0  0  0  0  0
  -26.2150  -11.9330   20.3560 N   0  0  0  0  0  0  0  0  0  0  0  0
  -24.1970  -10.7350   20.9040 C   0  0  0  0  0  0  0  0  0  0  0  0
  -24.6120   -9.7830   21.8600 C   0  0  0  0  0  3  0  0  0  0  0  0
  -23.8780   -8.5910   22.0500 C   0  0  0  0  0  3  0  0  0  0  0  0
  -22.7140   -8.3460   21.2830 C   0  0  0  0  0  0  0  0  0  0  0  0
  -22.3180   -9.2880   20.3160 C   0  0  0  0  0  3  0  0  0  0  0  0
  -23.0530  -10.4690   20.1250 C   0  0  0  0  0  3  0  0  0  0  0  0
  -21.9510   -7.2060   21.3810 O   0  0  0  0  0  0  0  0  0  0  0  0
  -21.8450   -6.5110   22.5580 C   0  0  0  0  0  0  0  0  0  0  0  0
  -21.3350   -7.1070   23.7320 C   0  0  0  0  0  3  0  0  0  0  0  0
  -21.1780   -6.3360   24.9020 C   0  0  0  0  0  3  0  0  0  0  0  0
  -21.5210   -4.9700   24.8970 C   0  0  0  0  0  0  0  0  0  0  0  0
  -22.0240   -4.3740   23.7270 C   0  0  0  0  0  3  0  0  0  0  0  0
  -22.1830   -5.1420   22.5600 C   0  0  0  0  0  0  0  0  0  0  0  0
  -22.6480   -4.5590   21.4300 F   0  0  0  0  0  0  0  0  0  0  0  0
  -21.3620   -4.2270   26.0180 F   0  0  0  0  0  0  0  0  0  0  0  0
  -23.1100  -13.8400   21.0660 C   0  0  0  0  0  0  0  0  0  0  0  0
  -22.3990  -13.1530   21.9530 N   0  0  0  0  0  0  0  0  0  0  0  0
  -22.6690  -14.8710   20.5580 O   0  0  0  0  0  0  0  0  0  0  0  0
  -22.7690  -12.3210   22.3880 H   0  0  0  0  0  0  0  0  0  0  0  0
  -21.4700  -13.4640   22.2010 H   0  0  0  0  0  0  0  0  0  0  0  0
  -25.7380  -15.4740   20.1820 N   0  0  0  0  0  0  0  0  0  0  0  0
  -24.9740  -16.1310   20.3000 H   0  0  0  0  0  0  0  0  0  0  0  0
  -26.5700  -15.9000   19.7960 H   0  0  0  0  0  0  0  0  0  0  0  0
  1 49  1  0
  3  4  1  0
  3  2  1  0
  3  1  1  0
  5  6  1  0
  5  7  1  0
  5  4  1  0
  8 10  1  0
  8  7  1  0
  9 20  2  0
 10 15  1  0
 11 19  1  0
 11 21  1  0
 12 18  1  0
 12 14  1  0
 13 19  1  0
 14 13  1  0
 15 14  2  0
 16 17  1  0
 16 10  2  0
 17 12  2  0
 18 11  1  0
 19  9  1  0
 21 23  2  0
 22 21  1  0
 24 22  1  0
 25 34  2  0
 25 30  1  0
 26 22  1  0
 26 30  1  0
 27 26  1  0
 28 29  1  0
 28 27  1  0
 29 25  1  0
 30 31  2  0
 31 32  1  0
 33 32  2  0
 34 33  1  0
 35  9  1  0
 35 36  1  0
 35 45  1  0
 36 39  1  0
 37 41  1  0
 37 36  1  0
 38 37  2  0
 41 40  1  0
 43 41  1  0
 43 44  1  0
 43 42  1  0
 45 48  1  1
 45 46  1  0
 47 45  1  0
 50 55  1  0
 52 54  1  0
 52 50  1  0
 52 53  1  0
 53 65  1  0
 53 51  1  0
 55 51  1  0
 55 49  1  0
 55 56  1  6
 57 65  1  0
 58 63  1  0
 59 60  1  0
 59 58  1  0
 61 60  1  0
 61 70  1  0
 61 62  1  0
 63 57  1  0
 63 62  1  0
 64 57  2  0
 65 66  1  0
 67 68  2  0
 68 87  1  0
 69 68  1  0
 69 72  1  0
 70 71  1  0
 70 67  1  0
 71 69  2  0
 72 73  1  0
 73 74  2  0
 75 78  1  0
 75 74  1  0
 76 75  2  0
 77 76  1  0
 77 72  2  0
 78 79  1  0
 79 84  2  0
 79 80  1  0
 80 81  2  0
 82 81  1  0
 82 86  1  0
 83 82  2  0
 84 83  1  0
 85 84  1  0
 87 88  1  0
 88 91  1  0
 88 90  1  0
 89 87  2  0
 92 93  1  0
 92 67  1  0
 94 92  1  0
M  ISO  4   7 101   8 101  57 100  65 100
M  END
>  <TORSDO>  (88) 
F 22

>  <SCORE>  (88) 
-12.345

>  <name>  (88) 
89

>  <ligand_id>  (88) 
89

>  <original_smiles>  (88) 
[H]c1c([H])c([H])c2c(c1[H])C([H])([H])C([H])([H])C([H])([H])C2([H])N([H])C(=O)C1([H])N(C(=O)C([H])(N([H])C(=O)C([H])(N([H])C([H])([H])[H])C([H])([H])[H])C(C([H])([H])[H])(C([H])([H])[H])C([H])([H])[H])C([H])([H])c2c([H])c(OC([H])([H])C([H])(F)C([H])([H])N(C([H])([H])[H])C([H])([H])C([H])([H])[N+]3([H])C([H])([H])C([H])(N([H])C(=O)N4C([H])([H])C([H])([H])C([H])([H])C([H])(n5nc(-c6c([H])c([H])c(Oc7c([H])c([H])c(F)c([H])c7F)c([H])c6[H])c(C(=O)N([H])[H])c5N([H])[H])C4([H])[H])C([H])(C([H])([H])[H])C3([H])[H])c([H])c([H])c2C1([H])[H]

>  <smiles>  (88) 
[H]c1c([H])c([H])c2c(c1[H])C([H])([H])C([H])([H])C([H])([H])C2([H])N([H])C(=O)C1([H])N(C(=O)C([H])(N([H])C(=O)C([H])(N([H])C([H])([H])[H])C([H])([H])[H])C(C([H])([H])[H])(C([H])([H])[H])C([H])([H])[H])C([H])([H])c2c([H])c(OC([H])([H])C([H])(F)C([H])([H])N(C([H])([H])[H])C([H])([H])C([H])([H])[N+]3([H])C([H])([H])C([H])(N([H])C(=O)N4C([H])([H])C([H])([H])C([H])([H])C([H])(n5nc(-c6c([H])c([H])c(Oc7c([H])c([H])c(F)c([H])c7F)c([H])c6[H])c(C(=O)N([H])[H])c5N([H])[H])C4([H])[H])C([H])(C([H])([H])[H])C3([H])[H])c([H])c([H])c2C1([H])[H]

$$$$
90:0:0
     RDKit          3D

 95103  0  0  1  0  0  0  0  0999 V2000
  -29.5070  -21.5410   20.8250 C   0  0  0  0  0  0  0  0  0  0  0  0
  -29.3240  -21.8350   22.1120 N   0  0  0  0  0  4  0  0  0  0  0  0
  -29.4830  -22.6170   19.9710 N   0  0  0  0  0  0  0  0  0  0  0  0
  -29.3940  -21.1030   22.8030 H   0  0  0  0  0  0  0  0  0  0  0  0
  -29.1140  -22.7660   22.4300 H   0  0  0  0  0  0  0  0  0  0  0  0
  -29.5970  -22.3910   18.9890 H   0  0  0  0  0  0  0  0  0  0  0  0
  -28.6560  -19.1660   20.8790 C   0  0  0  0  0  3  0  0  0  0  0  0
  -31.0190  -18.0300   19.8990 C   0  0  0  0  0  3  0  0  0  0  0  0
  -29.6860  -20.0660   20.5030 C   0  0  0  0  0  0  0  0  0  0  0  0
  -29.9850  -17.1410   20.3150 C   0  0  0  0  0  0  0  0  0  0  0  0
  -28.7980  -17.7570   20.7810 C   0  0  0  0  0  0  0  0  0  0  0  0
  -30.8720  -19.4580   19.9850 C   0  0  0  0  0  0  0  0  0  0  0  0
  -27.7650  -16.9660   21.1610 F   0  0  0  0  0  0  0  0  0  0  0  0
  -31.9090  -20.2420   19.6040 F   0  0  0  0  0  0  0  0  0  0  0  0
  -30.7030  -14.7060   19.6560 C   0  0  0  0  0  0  0  0  0  0  0  0
  -30.3520  -12.5490   18.4610 C   0  0  0  0  0  2  0  0  0  0  0  0
  -29.2570  -12.7630   17.3900 C   0  0  0  0  0  2  0  0  0  0  0  0
  -27.8460  -12.5870   17.9900 C   0  0  0  0  0  2  0  0  0  0  0  0
  -27.6640  -13.3600   19.3240 C   0  0  0  0  0  3  0  0  0  0  0  0
  -28.8510  -13.0980   20.2780 C   0  0  0  0  0  2  0  0  0  0  0  0
  -30.0860  -13.4840   19.5730 N   0  0  0  0  0  0  0  0  0  0  0  0
  -31.7830  -14.9260   19.0980 O   0  0  0  0  0  0  0  0  0  0  0  0
  -29.9750  -15.6780   20.2820 N   0  0  0  0  0  0  0  0  0  0  0  0
  -29.1890  -15.2960   20.7880 H   0  0  0  0  0  0  0  0  0  0  0  0
  -25.3840  -13.9380   20.3620 C   0  0  0  0  0  0  0  0  0  0  0  0
  -24.3580  -13.1540   20.8150 C   0  0  0  0  0  0  0  0  0  0  0  0
  -24.7910  -11.8030   20.6480 C   0  0  0  0  0  0  0  0  0  0  0  0
  -26.3780  -13.0640   19.9510 N   0  0  0  0  0  0  0  0  0  0  0  0
  -26.0330  -11.7720   20.1800 N   0  0  0  0  0  0  0  0  0  0  0  0
  -24.0740  -10.5380   20.8510 C   0  0  0  0  0  0  0  0  0  0  0  0
  -24.5350   -9.5670   21.7660 C   0  0  0  0  0  3  0  0  0  0  0  0
  -23.8170   -8.3660   21.9590 C   0  0  0  0  0  3  0  0  0  0  0  0
  -22.6240   -8.1290   21.2350 C   0  0  0  0  0  0  0  0  0  0  0  0
  -22.1820   -9.0900   20.3090 C   0  0  0  0  0  3  0  0  0  0  0  0
  -22.9000  -10.2810   20.1150 C   0  0  0  0  0  3  0  0  0  0  0  0
  -21.8760   -6.9820   21.3370 O   0  0  0  0  0  0  0  0  0  0  0  0
  -21.7560   -6.3030   22.5240 C   0  0  0  0  0  0  0  0  0  0  0  0
  -21.2430   -6.9190   23.6860 C   0  0  0  0  0  3  0  0  0  0  0  0
  -21.0730   -6.1660   24.8640 C   0  0  0  0  0  3  0  0  0  0  0  0
  -21.4050   -4.7980   24.8810 C   0  0  0  0  0  0  0  0  0  0  0  0
  -21.9100   -4.1820   23.7230 C   0  0  0  0  0  3  0  0  0  0  0  0
  -22.0820   -4.9320   22.5470 C   0  0  0  0  0  0  0  0  0  0  0  0
  -22.5500   -4.3280   21.4280 F   0  0  0  0  0  0  0  0  0  0  0  0
  -21.2340   -4.0730   26.0120 F   0  0  0  0  0  0  0  0  0  0  0  0
  -23.0120  -13.6260   21.2850 C   0  0  0  0  0  0  0  0  0  0  0  0
  -22.3950  -12.8980   22.2090 N   0  0  0  0  0  0  0  0  0  0  0  0
  -22.5210  -14.6750   20.8690 O   0  0  0  0  0  0  0  0  0  0  0  0
  -22.8080  -12.0490   22.5660 H   0  0  0  0  0  0  0  0  0  0  0  0
  -21.4980  -13.1950   22.5650 H   0  0  0  0  0  0  0  0  0  0  0  0
  -25.5470  -15.3150   20.2430 N   0  0  0  0  0  0  0  0  0  0  0  0
  -24.8150  -15.9680   20.5020 H   0  0  0  0  0  0  0  0  0  0  0  0
  -26.3560  -15.7680   19.8420 H   0  0  0  0  0  0  0  0  0  0  0  0
  -29.5280  -24.1140   20.2970 C   0  0  0  0  0  3  0  0  0  0  0  0
  -28.3450  -25.0550   19.8020 C   0  0  0  0  0  3  0  0  0  0  0  0
  -28.4580  -26.5090   20.0850 O   0  0  0  0  0  0  0  0  0  0  0  0
  -24.5340  -31.7220   23.1640 C   0  0  0  0  0  0  0  0  0  0  0  0
  -27.3030  -27.3070   20.0380 C   0  0  0  0  0  0  0  0  0  0  0  0
  -23.3820  -30.3220   21.4870 C   0  0  0  0  0  3  0  0  0  0  0  0
  -24.8860  -28.8420   20.0410 C   0  0  0  0  0  0  0  0  0  0  0  0
  -25.9110  -30.7200   21.3280 C   0  0  0  0  0  2  0  0  0  0  0  0
  -26.0350  -29.3570   20.6550 C   0  0  0  0  0  0  0  0  0  0  0  0
  -27.2450  -28.6020   20.6430 C   0  0  0  0  0  3  0  0  0  0  0  0
  -26.1270  -26.8450   19.4010 C   0  0  0  0  0  3  0  0  0  0  0  0
  -24.9350  -27.5930   19.4050 C   0  0  0  0  0  3  0  0  0  0  0  0
  -23.6230  -29.6780   20.0970 C   0  0  0  0  0  2  0  0  0  0  0  0
  -24.6270  -30.9370   22.0500 N   0  0  0  0  0  0  0  0  0  0  0  0
  -23.4400  -31.9590   23.6960 O   0  0  0  0  0  0  0  0  0  0  0  0
  -22.7420  -29.2690   22.4220 C   0  0  0  0  0  0  0  0  0  0  0  0
  -21.4240  -29.0500   22.2730 N   0  0  0  0  0  0  0  0  0  0  0  0
  -23.4290  -28.6550   23.2420 O   0  0  0  0  0  0  0  0  0  0  0  0
  -20.9280  -29.6020   21.5880 H   0  0  0  0  0  0  0  0  0  0  0  0
  -18.0800  -27.7390   22.7060 C   0  0  0  0  0  0  0  0  0  0  0  0
  -20.6250  -28.0740   23.0180 C   0  0  0  0  0  3  0  0  0  0  0  0
  -20.7800  -26.6570   22.4220 C   0  0  0  0  0  2  0  0  0  0  0  0
  -19.7030  -26.3140   21.3880 C   0  0  0  0  0  2  0  0  0  0  0  0
  -18.3080  -26.4070   22.0140 C   0  0  0  0  0  2  0  0  0  0  0  0
  -19.1680  -28.5290   23.1640 C   0  0  0  0  0  0  0  0  0  0  0  0
  -18.9000  -29.7750   23.7710 C   0  0  0  0  0  3  0  0  0  0  0  0
  -17.5780  -30.2320   23.9250 C   0  0  0  0  0  3  0  0  0  0  0  0
  -16.5040  -29.4380   23.4840 C   0  0  0  0  0  3  0  0  0  0  0  0
  -16.7560  -28.1940   22.8800 C   0  0  0  0  0  3  0  0  0  0  0  0
  -25.7940  -32.3770   23.8080 C   0  0  0  0  0  3  0  0  0  0  0  0
  -26.2980  -31.6190   25.0980 C   0  0  1  0  0  0  0  0  0  0  0  0
  -25.1860  -31.3620   26.1420 C   0  0  0  0  0  1  0  0  0  0  0  0
  -26.9160  -30.2530   24.7230 C   0  0  0  0  0  1  0  0  0  0  0  0
  -27.4170  -32.4370   25.7830 C   0  0  0  0  0  1  0  0  0  0  0  0
  -25.4560  -33.7720   24.1270 N   0  0  0  0  0  0  0  0  0  0  0  0
  -25.7720  -34.8260   23.3620 C   0  0  0  0  0  0  0  0  0  0  0  0
  -26.4460  -34.7280   22.3330 O   0  0  0  0  0  0  0  0  0  0  0  0
  -24.8560  -33.9200   24.9240 H   0  0  0  0  0  0  0  0  0  0  0  0
  -24.0020  -36.5770   23.0000 C   0  0  0  0  0  1  0  0  0  0  0  0
  -25.2570  -36.2080   23.8080 C   0  0  0  0  0  3  0  0  0  0  0  0
  -27.3720  -37.1530   24.6220 C   0  0  0  0  0  1  0  0  0  0  0  0
  -26.2650  -37.2820   23.6770 N   0  0  0  0  0  0  0  0  0  0  0  0
  -25.8380  -38.1940   23.8100 H   0  0  0  0  0  0  0  0  0  0  0  0
  1  2  2  0
  2  5  1  0
  2  4  1  0
  3 53  1  0
  3  1  1  0
  6  3  1  0
  8 12  2  0
  8 10  1  0
  9  1  1  0
  9  7  2  0
 10 11  2  0
 11  7  1  0
 11 13  1  0
 12  9  1  0
 14 12  1  0
 15 23  1  0
 16 21  1  0
 17 18  1  0
 17 16  1  0
 19 18  1  0
 19 28  1  0
 19 20  1  0
 21 15  1  0
 21 20  1  0
 22 15  2  0
 23 10  1  0
 23 24  1  0
 25 26  2  0
 26 45  1  0
 27 26  1  0
 27 30  1  0
 28 29  1  0
 28 25  1  0
 29 27  2  0
 30 31  1  0
 31 32  2  0
 33 36  1  0
 33 32  1  0
 34 33  2  0
 35 34  1  0
 35 30  2  0
 36 37  1  0
 37 42  2  0
 37 38  1  0
 38 39  2  0
 39 40  1  0
 40 44  1  0
 41 40  2  0
 42 41  1  0
 43 42  1  0
 45 46  1  0
 46 49  1  0
 46 48  1  0
 47 45  2  0
 50 25  1  0
 50 51  1  0
 52 50  1  0
 54 55  1  0
 54 53  2  0
 56 67  2  0
 57 55  1  0
 57 62  1  0
 58 66  1  0
 58 68  1  0
 59 65  1  0
 59 61  1  0
 60 66  1  0
 61 60  1  0
 62 61  2  0
 63 64  1  0
 63 57  2  0
 64 59  2  0
 65 58  1  0
 66 56  1  0
 68 70  2  0
 69 68  1  0
 71 69  1  0
 72 81  2  0
 72 77  1  0
 73 69  1  0
 73 77  1  0
 74 73  1  0
 75 76  1  0
 75 74  1  0
 76 72  1  0
 77 78  2  0
 78 79  1  0
 80 79  2  0
 81 80  1  0
 82 56  1  0
 82 87  1  0
 82 83  1  0
 83 86  1  1
 83 84  1  0
 85 83  1  0
 87 90  1  0
 88 92  1  0
 88 87  1  0
 89 88  2  0
 92 91  1  0
 94 92  1  0
 94 95  1  0
 94 93  1  0
M  ISO  4  15 100  23 100  54 101  55 101
M  END
>  <TORSDO>  (89) 
F 19

>  <SCORE>  (89) 
-12.900

>  <name>  (89) 
90

>  <ligand_id>  (89) 
90

>  <original_smiles>  (89) 
[H]c1c([H])c([H])c2c(c1[H])C([H])([H])C([H])([H])C([H])([H])C2([H])N([H])C(=O)C1([H])N(C(=O)C([H])(N([H])C(=O)C([H])(N([H])C([H])([H])[H])C([H])([H])[H])C(C([H])([H])[H])(C([H])([H])[H])C([H])([H])[H])C([H])([H])c2c([H])c(OC([H])([H])C([H])([H])[N+]([H])=C(c3c([H])c(F)c(N([H])C(=O)N4C([H])([H])C([H])([H])C([H])([H])C([H])(n5nc(-c6c([H])c([H])c(Oc7c([H])c([H])c(F)c([H])c7F)c([H])c6[H])c(C(=O)N([H])[H])c5N([H])[H])C4([H])[H])c([H])c3F)N([H])[H])c([H])c([H])c2C1([H])[H]

>  <smiles>  (89) 
[H]c1c([H])c([H])c2c(c1[H])C([H])([H])C([H])([H])C([H])([H])C2([H])N([H])C(=O)C1([H])N(C(=O)C([H])(N([H])C(=O)C([H])(N([H])C([H])([H])[H])C([H])([H])[H])C(C([H])([H])[H])(C([H])([H])[H])C([H])([H])[H])C([H])([H])c2c([H])c(OC([H])([H])C([H])([H])[N+]([H])=C(c3c([H])c(F)c(N([H])C(=O)N4C([H])([H])C([H])([H])C([H])([H])C([H])(n5nc(-c6c([H])c([H])c(Oc7c([H])c([H])c(F)c([H])c7F)c([H])c6[H])c(C(=O)N([H])[H])c5N([H])[H])C4([H])[H])c([H])c3F)N([H])[H])c([H])c([H])c2C1([H])[H]

$$$$
91:0:0
     RDKit          3D

 89 97  0  0  1  0  0  0  0  0999 V2000
  -28.5590  -21.7490   20.5410 C   0  0  0  0  0  2  0  0  0  0  0  0
  -28.3760  -19.1280   18.9570 C   0  0  0  0  0  2  0  0  0  0  0  0
  -29.4030  -20.2380   18.6940 C   0  0  0  0  0  2  0  0  0  0  0  0
  -29.0470  -18.9590   20.3170 C   0  0  0  0  0  3  0  0  0  0  0  0
  -29.4520  -20.4950   20.1350 N   0  0  2  0  0  4  0  0  0  0  0  0
  -30.3980  -20.6550   20.4520 H   0  0  0  0  0  0  0  0  0  0  0  0
  -30.1470  -17.6850   20.4210 C   0  0  0  0  0  2  0  0  0  0  0  0
  -30.5290  -14.9680   20.3440 C   0  0  0  0  0  0  0  0  0  0  0  0
  -30.4020  -12.6300   19.3890 C   0  0  0  0  0  2  0  0  0  0  0  0
  -29.4730  -12.5990   18.1530 C   0  0  0  0  0  2  0  0  0  0  0  0
  -28.0070  -12.3900   18.5780 C   0  0  0  0  0  2  0  0  0  0  0  0
  -27.5980  -13.3060   19.7620 C   0  0  0  0  0  3  0  0  0  0  0  0
  -28.6490  -13.3110   20.8920 C   0  0  0  0  0  2  0  0  0  0  0  0
  -29.9240  -13.7160   20.2880 N   0  0  0  0  0  0  0  0  0  0  0  0
  -31.7320  -15.0320   20.0730 O   0  0  0  0  0  0  0  0  0  0  0  0
  -29.7600  -16.1540   20.4930 N   0  0  0  0  0  0  0  0  0  0  0  0
  -28.7820  -15.9790   20.6670 H   0  0  0  0  0  0  0  0  0  0  0  0
  -25.2100  -13.8740   20.4810 C   0  0  0  0  0  0  0  0  0  0  0  0
  -24.1470  -13.0930   20.8470 C   0  0  0  0  0  0  0  0  0  0  0  0
  -24.6200  -11.7460   20.8250 C   0  0  0  0  0  0  0  0  0  0  0  0
  -26.2590  -13.0010   20.2520 N   0  0  0  0  0  0  0  0  0  0  0  0
  -25.9150  -11.7160   20.5260 N   0  0  0  0  0  0  0  0  0  0  0  0
  -23.9000  -10.4800   21.0130 C   0  0  0  0  0  0  0  0  0  0  0  0
  -24.3210   -9.5220   21.9630 C   0  0  0  0  0  3  0  0  0  0  0  0
  -23.5980   -8.3230   22.1390 C   0  0  0  0  0  3  0  0  0  0  0  0
  -22.4400   -8.0720   21.3660 C   0  0  0  0  0  0  0  0  0  0  0  0
  -22.0380   -9.0180   20.4060 C   0  0  0  0  0  3  0  0  0  0  0  0
  -22.7620  -10.2080   20.2280 C   0  0  0  0  0  3  0  0  0  0  0  0
  -21.6900   -6.9240   21.4500 O   0  0  0  0  0  0  0  0  0  0  0  0
  -21.6140   -6.1970   22.6120 C   0  0  0  0  0  0  0  0  0  0  0  0
  -21.1330   -6.7620   23.8130 C   0  0  0  0  0  3  0  0  0  0  0  0
  -21.0070   -5.9600   24.9660 C   0  0  0  0  0  3  0  0  0  0  0  0
  -21.3510   -4.5960   24.9170 C   0  0  0  0  0  0  0  0  0  0  0  0
  -21.8250   -4.0320   23.7200 C   0  0  0  0  0  3  0  0  0  0  0  0
  -21.9530   -4.8300   22.5700 C   0  0  0  0  0  0  0  0  0  0  0  0
  -22.3900   -4.2760   21.4130 F   0  0  0  0  0  0  0  0  0  0  0  0
  -21.2230   -3.8240   26.0220 F   0  0  0  0  0  0  0  0  0  0  0  0
  -22.7460  -13.5630   21.1020 C   0  0  0  0  0  0  0  0  0  0  0  0
  -22.0120  -12.8630   21.9610 N   0  0  0  0  0  0  0  0  0  0  0  0
  -22.3090  -14.5860   20.5760 O   0  0  0  0  0  0  0  0  0  0  0  0
  -22.3780  -12.0360   22.4070 H   0  0  0  0  0  0  0  0  0  0  0  0
  -21.0710  -13.1610   22.1760 H   0  0  0  0  0  0  0  0  0  0  0  0
  -25.3640  -15.2450   20.2970 N   0  0  0  0  0  0  0  0  0  0  0  0
  -24.5870  -15.8880   20.3990 H   0  0  0  0  0  0  0  0  0  0  0  0
  -26.1950  -15.6860   19.9250 H   0  0  0  0  0  0  0  0  0  0  0  0
  -28.9530  -23.3540   20.1840 C   0  0  0  0  0  3  0  0  0  0  0  0
  -30.1090  -23.5970   20.8030 F   0  0  0  0  0  0  0  0  0  0  0  0
  -27.9620  -24.6850   20.4910 C   0  0  0  0  0  2  0  0  0  0  0  0
  -28.2430  -26.2050   20.2570 O   0  0  0  0  0  0  0  0  0  0  0  0
  -24.6140  -31.8930   23.2540 C   0  0  0  0  0  0  0  0  0  0  0  0
  -27.1810  -27.1790   20.2270 C   0  0  0  0  0  0  0  0  0  0  0  0
  -23.4090  -30.4940   21.6220 C   0  0  0  0  0  3  0  0  0  0  0  0
  -24.8530  -28.9200   20.1950 C   0  0  0  0  0  0  0  0  0  0  0  0
  -25.9620  -30.7610   21.4490 C   0  0  0  0  0  2  0  0  0  0  0  0
  -26.0340  -29.3680   20.8020 C   0  0  0  0  0  0  0  0  0  0  0  0
  -27.1990  -28.5140   20.8010 C   0  0  0  0  0  3  0  0  0  0  0  0
  -25.9750  -26.8370   19.5740 C   0  0  0  0  0  3  0  0  0  0  0  0
  -24.8360  -27.6690   19.5650 C   0  0  0  0  0  3  0  0  0  0  0  0
  -23.6250  -29.8160   20.2430 C   0  0  0  0  0  2  0  0  0  0  0  0
  -24.6820  -31.0710   22.1630 N   0  0  0  0  0  0  0  0  0  0  0  0
  -23.5290  -32.1790   23.7840 O   0  0  0  0  0  0  0  0  0  0  0  0
  -22.7350  -29.4870   22.5860 C   0  0  0  0  0  0  0  0  0  0  0  0
  -21.4070  -29.3100   22.4580 N   0  0  0  0  0  0  0  0  0  0  0  0
  -23.4070  -28.8670   23.4150 O   0  0  0  0  0  0  0  0  0  0  0  0
  -20.9210  -29.8610   21.7650 H   0  0  0  0  0  0  0  0  0  0  0  0
  -18.0300  -28.1000   22.9610 C   0  0  0  0  0  0  0  0  0  0  0  0
  -20.5870  -28.3740   23.2330 C   0  0  0  0  0  3  0  0  0  0  0  0
  -20.6960  -26.9400   22.6680 C   0  0  0  0  0  2  0  0  0  0  0  0
  -19.5990  -26.6060   21.6520 C   0  0  0  0  0  2  0  0  0  0  0  0
  -18.2140  -26.7480   22.2920 C   0  0  0  0  0  2  0  0  0  0  0  0
  -19.1450  -28.8700   23.3880 C   0  0  0  0  0  0  0  0  0  0  0  0
  -18.9180  -30.1340   23.9750 C   0  0  0  0  0  3  0  0  0  0  0  0
  -17.6100  -30.6290   24.1370 C   0  0  0  0  0  3  0  0  0  0  0  0
  -16.5100  -29.8560   23.7250 C   0  0  0  0  0  3  0  0  0  0  0  0
  -16.7220  -28.5940   23.1430 C   0  0  0  0  0  3  0  0  0  0  0  0
  -25.8940  -32.5290   23.8760 C   0  0  0  0  0  3  0  0  0  0  0  0
  -26.4020  -31.7680   25.1630 C   0  0  1  0  0  0  0  0  0  0  0  0
  -25.3040  -31.5440   26.2280 C   0  0  0  0  0  1  0  0  0  0  0  0
  -26.9830  -30.3840   24.7900 C   0  0  0  0  0  1  0  0  0  0  0  0
  -27.5540  -32.5650   25.8210 C   0  0  0  0  0  1  0  0  0  0  0  0
  -25.5840  -33.9310   24.1990 N   0  0  0  0  0  0  0  0  0  0  0  0
  -25.9130  -34.9810   23.4340 C   0  0  0  0  0  0  0  0  0  0  0  0
  -26.5750  -34.8730   22.3990 O   0  0  0  0  0  0  0  0  0  0  0  0
  -24.9950  -34.0910   25.0030 H   0  0  0  0  0  0  0  0  0  0  0  0
  -24.1850  -36.7790   23.0880 C   0  0  0  0  0  1  0  0  0  0  0  0
  -25.4330  -36.3740   23.8900 C   0  0  0  0  0  3  0  0  0  0  0  0
  -27.5720  -37.2620   24.7030 C   0  0  0  0  0  1  0  0  0  0  0  0
  -26.4660  -37.4250   23.7650 N   0  0  0  0  0  0  0  0  0  0  0  0
  -26.0620  -38.3460   23.9070 H   0  0  0  0  0  0  0  0  0  0  0  0
  2  4  1  0
  3  2  1  0
  3  5  1  0
  4  7  1  0
  5  4  1  0
  5  6  1  1
  5  1  1  0
  7 16  1  0
  8 16  1  0
  9 14  1  0
 10 11  1  0
 10  9  1  0
 12 11  1  0
 12 21  1  0
 12 13  1  0
 14  8  1  0
 14 13  1  0
 15  8  2  0
 16 17  1  0
 18 19  2  0
 19 38  1  0
 20 19  1  0
 20 23  1  0
 21 18  1  0
 21 22  1  0
 22 20  2  0
 23 24  1  0
 24 25  2  0
 26 29  1  0
 26 25  1  0
 27 26  2  0
 28 27  1  0
 28 23  2  0
 29 30  1  0
 30 31  1  0
 31 32  2  0
 33 32  1  0
 33 37  1  0
 34 33  2  0
 35 30  2  0
 35 34  1  0
 36 35  1  0
 38 39  1  0
 39 42  1  0
 39 41  1  0
 40 38  2  0
 43 44  1  0
 43 18  1  0
 45 43  1  0
 46 48  1  0
 46  1  1  0
 46 47  1  0
 49 48  1  0
 50 61  2  0
 51 49  1  0
 51 56  1  0
 52 60  1  0
 52 62  1  0
 53 59  1  0
 53 55  1  0
 54 60  1  0
 55 54  1  0
 56 55  2  0
 57 51  2  0
 58 57  1  0
 58 53  2  0
 59 52  1  0
 60 50  1  0
 62 64  2  0
 63 62  1  0
 65 63  1  0
 66 75  2  0
 66 71  1  0
 67 63  1  0
 67 71  1  0
 68 67  1  0
 69 70  1  0
 69 68  1  0
 70 66  1  0
 71 72  2  0
 72 73  1  0
 74 73  2  0
 75 74  1  0
 76 50  1  0
 76 81  1  0
 76 77  1  0
 77 80  1  1
 77 78  1  0
 79 77  1  0
 81 84  1  0
 82 86  1  0
 82 81  1  0
 83 82  2  0
 86 85  1  0
 88 86  1  0
 88 89  1  0
 88 87  1  0
M  ISO  4   8 100  16 100  48 101  49 101
M  END
>  <TORSDO>  (90) 
F 20

>  <SCORE>  (90) 
-13.724

>  <name>  (90) 
91

>  <ligand_id>  (90) 
91

>  <original_smiles>  (90) 
[H]c1c([H])c([H])c2c(c1[H])C([H])([H])C([H])([H])C([H])([H])C2([H])N([H])C(=O)C1([H])N(C(=O)C([H])(N([H])C(=O)C([H])(N([H])C([H])([H])[H])C([H])([H])[H])C(C([H])([H])[H])(C([H])([H])[H])C([H])([H])[H])C([H])([H])c2c([H])c(OC([H])([H])C([H])(F)C([H])([H])[N+]3([H])C([H])([H])C([H])([H])C3([H])C([H])([H])N([H])C(=O)N3C([H])([H])C([H])([H])C([H])([H])C([H])(n4nc(-c5c([H])c([H])c(Oc6c([H])c([H])c(F)c([H])c6F)c([H])c5[H])c(C(=O)N([H])[H])c4N([H])[H])C3([H])[H])c([H])c([H])c2C1([H])[H]

>  <smiles>  (90) 
[H]c1c([H])c([H])c2c(c1[H])C([H])([H])C([H])([H])C([H])([H])C2([H])N([H])C(=O)C1([H])N(C(=O)C([H])(N([H])C(=O)C([H])(N([H])C([H])([H])[H])C([H])([H])[H])C(C([H])([H])[H])(C([H])([H])[H])C([H])([H])[H])C([H])([H])c2c([H])c(OC([H])([H])C([H])(F)C([H])([H])[N+]3([H])C([H])([H])C([H])([H])C3([H])C([H])([H])N([H])C(=O)N3C([H])([H])C([H])([H])C([H])([H])C([H])(n4nc(-c5c([H])c([H])c(Oc6c([H])c([H])c(F)c([H])c6F)c([H])c5[H])c(C(=O)N([H])[H])c4N([H])[H])C3([H])[H])c([H])c([H])c2C1([H])[H]

$$$$
92:0:0
     RDKit          3D

 93101  0  0  1  0  0  0  0  0999 V2000
  -30.8450  -19.5060   19.2540 C   0  0  0  0  0  2  0  0  0  0  0  0
  -30.5260  -20.7850   21.3060 C   0  0  0  0  0  2  0  0  0  0  0  0
  -31.6020  -20.3250   20.3210 C   0  0  0  0  0  3  0  0  0  0  0  0
  -29.5460  -19.0840   19.9540 C   0  0  0  0  0  3  0  0  0  0  0  0
  -29.2600  -20.4640   20.6540 N   0  0  0  0  0  0  0  0  0  0  0  0
  -32.3400  -21.4660   19.7590 N   0  0  0  0  0  4  0  0  0  0  0  0
  -31.7190  -22.2570   19.6620 H   0  0  0  0  0  0  0  0  0  0  0  0
  -32.7260  -21.2200   18.8650 H   0  0  0  0  0  0  0  0  0  0  0  0
  -33.0970  -21.7200   20.3720 H   0  0  0  0  0  0  0  0  0  0  0  0
  -29.9290  -17.6400   20.7640 C   0  0  0  0  0  2  0  0  0  0  0  0
  -30.4710  -14.9830   20.2990 C   0  0  0  0  0  0  0  0  0  0  0  0
  -30.3980  -12.6410   19.3640 C   0  0  0  0  0  2  0  0  0  0  0  0
  -29.4430  -12.5600   18.1520 C   0  0  0  0  0  2  0  0  0  0  0  0
  -27.9850  -12.3230   18.6010 C   0  0  0  0  0  2  0  0  0  0  0  0
  -27.5690  -13.2650   19.7600 C   0  0  0  0  0  3  0  0  0  0  0  0
  -28.6320  -13.3130   20.8740 C   0  0  0  0  0  2  0  0  0  0  0  0
  -29.8880  -13.7270   20.2390 N   0  0  0  0  0  0  0  0  0  0  0  0
  -31.6940  -15.0520   20.1460 O   0  0  0  0  0  0  0  0  0  0  0  0
  -29.6580  -16.1540   20.3190 N   0  0  0  0  0  0  0  0  0  0  0  0
  -28.6760  -15.9510   20.1790 H   0  0  0  0  0  0  0  0  0  0  0  0
  -25.1950  -13.8470   20.5080 C   0  0  0  0  0  0  0  0  0  0  0  0
  -24.1360  -13.0750   20.8840 C   0  0  0  0  0  0  0  0  0  0  0  0
  -24.6050  -11.7230   20.8680 C   0  0  0  0  0  0  0  0  0  0  0  0
  -26.2390  -12.9690   20.2710 N   0  0  0  0  0  0  0  0  0  0  0  0
  -25.8980  -11.6880   20.5590 N   0  0  0  0  0  0  0  0  0  0  0  0
  -23.8860  -10.4600   21.0580 C   0  0  0  0  0  0  0  0  0  0  0  0
  -24.3260   -9.4920   21.9890 C   0  0  0  0  0  3  0  0  0  0  0  0
  -23.6050   -8.2920   22.1670 C   0  0  0  0  0  3  0  0  0  0  0  0
  -22.4300   -8.0560   21.4150 C   0  0  0  0  0  0  0  0  0  0  0  0
  -22.0100   -9.0110   20.4710 C   0  0  0  0  0  3  0  0  0  0  0  0
  -22.7320  -10.2030   20.2920 C   0  0  0  0  0  3  0  0  0  0  0  0
  -21.6730   -6.9120   21.5040 O   0  0  0  0  0  0  0  0  0  0  0  0
  -21.6400   -6.1580   22.6520 C   0  0  0  0  0  0  0  0  0  0  0  0
  -21.2280   -6.7030   23.8880 C   0  0  0  0  0  3  0  0  0  0  0  0
  -21.1450   -5.8790   25.0280 C   0  0  0  0  0  3  0  0  0  0  0  0
  -21.4540   -4.5090   24.9300 C   0  0  0  0  0  0  0  0  0  0  0  0
  -21.8490   -3.9620   23.6960 C   0  0  0  0  0  3  0  0  0  0  0  0
  -21.9380   -4.7850   22.5590 C   0  0  0  0  0  0  0  0  0  0  0  0
  -22.3040   -4.2470   21.3710 F   0  0  0  0  0  0  0  0  0  0  0  0
  -21.3670   -3.7140   26.0210 F   0  0  0  0  0  0  0  0  0  0  0  0
  -22.7330  -13.5460   21.1480 C   0  0  0  0  0  0  0  0  0  0  0  0
  -22.0030  -12.8500   22.0060 N   0  0  0  0  0  0  0  0  0  0  0  0
  -22.2930  -14.5650   20.6160 O   0  0  0  0  0  0  0  0  0  0  0  0
  -22.3730  -12.0300   22.4620 H   0  0  0  0  0  0  0  0  0  0  0  0
  -21.0580  -13.1440   22.2110 H   0  0  0  0  0  0  0  0  0  0  0  0
  -25.3570  -15.2230   20.3270 N   0  0  0  0  0  0  0  0  0  0  0  0
  -24.6020  -15.8890   20.4650 H   0  0  0  0  0  0  0  0  0  0  0  0
  -26.2010  -15.6560   19.9840 H   0  0  0  0  0  0  0  0  0  0  0  0
  -28.6800  -21.7580   19.9640 C   0  0  0  0  0  2  0  0  0  0  0  0
  -28.8620  -23.3640   20.5020 C   0  0  0  0  0  3  0  0  0  0  0  0
  -30.1410  -23.6760   20.2710 F   0  0  0  0  0  0  0  0  0  0  0  0
  -27.9710  -24.7020   19.9880 C   0  0  0  0  0  2  0  0  0  0  0  0
  -28.2200  -26.2010   20.3000 O   0  0  0  0  0  0  0  0  0  0  0  0
  -24.6110  -31.8760   23.2570 C   0  0  0  0  0  0  0  0  0  0  0  0
  -27.1690  -27.1800   20.2120 C   0  0  0  0  0  0  0  0  0  0  0  0
  -23.3970  -30.4820   21.6240 C   0  0  0  0  0  3  0  0  0  0  0  0
  -24.8350  -28.9100   20.1860 C   0  0  0  0  0  0  0  0  0  0  0  0
  -25.9460  -30.7440   21.4470 C   0  0  0  0  0  2  0  0  0  0  0  0
  -26.0130  -29.3560   20.7980 C   0  0  0  0  0  0  0  0  0  0  0  0
  -27.1790  -28.5060   20.8010 C   0  0  0  0  0  3  0  0  0  0  0  0
  -25.9750  -26.8420   19.5430 C   0  0  0  0  0  3  0  0  0  0  0  0
  -24.8290  -27.6650   19.5410 C   0  0  0  0  0  3  0  0  0  0  0  0
  -23.6070  -29.8090   20.2410 C   0  0  0  0  0  2  0  0  0  0  0  0
  -24.6710  -31.0560   22.1640 N   0  0  0  0  0  0  0  0  0  0  0  0
  -23.5300  -32.1630   23.7930 O   0  0  0  0  0  0  0  0  0  0  0  0
  -22.7260  -29.4710   22.5850 C   0  0  0  0  0  0  0  0  0  0  0  0
  -21.3970  -29.3020   22.4600 N   0  0  0  0  0  0  0  0  0  0  0  0
  -23.4000  -28.8460   23.4060 O   0  0  0  0  0  0  0  0  0  0  0  0
  -20.9090  -29.8590   21.7720 H   0  0  0  0  0  0  0  0  0  0  0  0
  -18.0190  -28.0990   22.9500 C   0  0  0  0  0  0  0  0  0  0  0  0
  -20.5760  -28.3640   23.2290 C   0  0  0  0  0  3  0  0  0  0  0  0
  -20.6840  -26.9300   22.6600 C   0  0  0  0  0  2  0  0  0  0  0  0
  -19.5880  -26.6000   21.6420 C   0  0  0  0  0  2  0  0  0  0  0  0
  -18.2020  -26.7460   22.2810 C   0  0  0  0  0  2  0  0  0  0  0  0
  -19.1340  -28.8650   23.3800 C   0  0  0  0  0  0  0  0  0  0  0  0
  -18.9150  -30.1330   23.9640 C   0  0  0  0  0  3  0  0  0  0  0  0
  -17.6080  -30.6300   24.1350 C   0  0  0  0  0  3  0  0  0  0  0  0
  -16.5060  -29.8600   23.7240 C   0  0  0  0  0  3  0  0  0  0  0  0
  -16.7110  -28.5990   23.1350 C   0  0  0  0  0  3  0  0  0  0  0  0
  -25.8980  -32.5080   23.8750 C   0  0  0  0  0  3  0  0  0  0  0  0
  -25.5920  -33.9070   24.2070 N   0  0  0  0  0  0  0  0  0  0  0  0
  -25.9150  -34.9620   23.4440 C   0  0  0  0  0  0  0  0  0  0  0  0
  -26.5740  -34.8570   22.4080 O   0  0  0  0  0  0  0  0  0  0  0  0
  -25.0090  -34.0620   25.0180 H   0  0  0  0  0  0  0  0  0  0  0  0
  -24.1840  -36.7620   23.1050 C   0  0  0  0  0  1  0  0  0  0  0  0
  -25.4330  -36.3550   23.9040 C   0  0  0  0  0  3  0  0  0  0  0  0
  -27.5800  -37.2390   24.7080 C   0  0  0  0  0  1  0  0  0  0  0  0
  -26.4690  -37.4060   23.7780 N   0  0  0  0  0  0  0  0  0  0  0  0
  -26.0660  -38.3290   23.9270 H   0  0  0  0  0  0  0  0  0  0  0  0
  -26.4140  -31.7360   25.1540 C   0  0  1  0  0  0  0  0  0  0  0  0
  -25.3210  -31.5080   26.2240 C   0  0  0  0  0  1  0  0  0  0  0  0
  -26.9890  -30.3520   24.7740 C   0  0  0  0  0  1  0  0  0  0  0  0
  -27.5720  -32.5230   25.8130 C   0  0  0  0  0  1  0  0  0  0  0  0
  1  4  1  0
  1  3  1  0
  3  6  1  0
  3  2  1  0
  4  5  1  0
  4 10  1  0
  5  2  1  0
  6  9  1  0
  7  6  1  0
  8  6  1  0
 11 19  1  0
 12 17  1  0
 13 14  1  0
 13 12  1  0
 15 14  1  0
 15 24  1  0
 15 16  1  0
 17 11  1  0
 17 16  1  0
 18 11  2  0
 19 10  1  0
 20 19  1  0
 21 22  2  0
 22 41  1  0
 23 22  1  0
 23 26  1  0
 24 21  1  0
 24 25  1  0
 25 23  2  0
 26 27  1  0
 27 28  2  0
 29 32  1  0
 29 28  1  0
 30 29  2  0
 31 30  1  0
 31 26  2  0
 32 33  1  0
 33 34  1  0
 34 35  2  0
 36 35  1  0
 36 40  1  0
 37 36  2  0
 38 33  2  0
 38 37  1  0
 39 38  1  0
 41 42  1  0
 42 45  1  0
 42 44  1  0
 43 41  2  0
 46 47  1  0
 46 21  1  0
 48 46  1  0
 49 50  1  0
 49  5  1  0
 50 51  1  0
 52 53  1  0
 52 50  1  0
 54 65  2  0
 55 53  1  0
 55 60  1  0
 56 64  1  0
 56 66  1  0
 57 63  1  0
 57 59  1  0
 58 64  1  0
 59 60  2  0
 59 58  1  0
 61 55  2  0
 62 61  1  0
 62 57  2  0
 63 56  1  0
 64 54  1  0
 66 68  2  0
 67 66  1  0
 69 67  1  0
 70 79  2  0
 70 75  1  0
 71 67  1  0
 71 75  1  0
 72 71  1  0
 73 74  1  0
 73 72  1  0
 74 70  1  0
 75 76  2  0
 76 77  1  0
 78 77  2  0
 79 78  1  0
 80 54  1  0
 80 81  1  0
 80 90  1  0
 81 84  1  0
 82 86  1  0
 82 81  1  0
 83 82  2  0
 86 85  1  0
 88 86  1  0
 88 89  1  0
 88 87  1  0
 90 93  1  1
 90 91  1  0
 92 90  1  0
M  ISO  4  11 100  19 100  52 101  53 101
M  END
>  <TORSDO>  (91) 
F 21

>  <SCORE>  (91) 
-14.864

>  <name>  (91) 
92

>  <ligand_id>  (91) 
92

>  <original_smiles>  (91) 
[H]c1c([H])c([H])c2c(c1[H])C([H])([H])C([H])([H])C([H])([H])C2([H])N([H])C(=O)C1([H])N(C(=O)C([H])(N([H])C(=O)C([H])(N([H])C([H])([H])[H])C([H])([H])[H])C(C([H])([H])[H])(C([H])([H])[H])C([H])([H])[H])C([H])([H])c2c([H])c(OC([H])([H])C([H])(F)C([H])([H])N3C([H])([H])C([H])([N+]([H])([H])[H])C([H])([H])C3([H])C([H])([H])N([H])C(=O)N3C([H])([H])C([H])([H])C([H])([H])C([H])(n4nc(-c5c([H])c([H])c(Oc6c([H])c([H])c(F)c([H])c6F)c([H])c5[H])c(C(=O)N([H])[H])c4N([H])[H])C3([H])[H])c([H])c([H])c2C1([H])[H]

>  <smiles>  (91) 
[H]c1c([H])c([H])c2c(c1[H])C([H])([H])C([H])([H])C([H])([H])C2([H])N([H])C(=O)C1([H])N(C(=O)C([H])(N([H])C(=O)C([H])(N([H])C([H])([H])[H])C([H])([H])[H])C(C([H])([H])[H])(C([H])([H])[H])C([H])([H])[H])C([H])([H])c2c([H])c(OC([H])([H])C([H])(F)C([H])([H])N3C([H])([H])C([H])([N+]([H])([H])[H])C([H])([H])C3([H])C([H])([H])N([H])C(=O)N3C([H])([H])C([H])([H])C([H])([H])C([H])(n4nc(-c5c([H])c([H])c(Oc6c([H])c([H])c(F)c([H])c6F)c([H])c5[H])c(C(=O)N([H])[H])c4N([H])[H])C3([H])[H])c([H])c([H])c2C1([H])[H]

$$$$
93:0:0
     RDKit          3D

 93101  0  0  1  0  0  0  0  0999 V2000
  -31.1130  -21.5980   19.4110 C   0  0  0  0  0  2  0  0  0  0  0  0
  -32.5140  -21.4090   17.5170 C   0  0  0  0  0  2  0  0  0  0  0  0
  -30.4670  -20.2260   19.1690 C   0  0  0  0  0  2  0  0  0  0  0  0
  -31.9360  -20.0250   17.1670 C   0  0  0  0  0  2  0  0  0  0  0  0
  -31.4240  -22.1810   18.1050 N   0  0  0  0  0  0  0  0  0  0  0  0
  -31.3230  -19.3300   18.3370 N   0  0  2  0  0  4  0  0  0  0  0  0
  -32.0960  -19.0370   18.9130 H   0  0  0  0  0  0  0  0  0  0  0  0
  -31.6790  -23.6110   18.1950 C   0  0  0  0  0  2  0  0  0  0  0  0
  -30.3040  -24.2960   18.1080 C   0  0  0  0  0  2  0  0  0  0  0  0
  -30.0640  -25.3830   19.1540 C   0  0  0  0  0  2  0  0  0  0  0  0
  -28.6010  -25.8250   19.1290 C   0  0  0  0  0  2  0  0  0  0  0  0
  -28.4150  -26.8220   20.1160 O   0  0  0  0  0  0  0  0  0  0  0  0
  -24.5670  -31.8790   23.2480 C   0  0  0  0  0  0  0  0  0  0  0  0
  -27.2060  -27.4760   20.1330 C   0  0  0  0  0  0  0  0  0  0  0  0
  -23.3520  -30.4790   21.6090 C   0  0  0  0  0  3  0  0  0  0  0  0
  -24.7970  -28.9430   20.1790 C   0  0  0  0  0  0  0  0  0  0  0  0
  -25.8730  -30.8430   21.4000 C   0  0  0  0  0  2  0  0  0  0  0  0
  -25.9530  -29.4730   20.7670 C   0  0  0  0  0  0  0  0  0  0  0  0
  -27.1530  -28.7380   20.7560 C   0  0  0  0  0  3  0  0  0  0  0  0
  -26.0290  -26.9470   19.5500 C   0  0  0  0  0  3  0  0  0  0  0  0
  -24.8260  -27.6760   19.5760 C   0  0  0  0  0  3  0  0  0  0  0  0
  -23.5540  -29.8000   20.2280 C   0  0  0  0  0  2  0  0  0  0  0  0
  -24.6160  -31.0830   22.1440 N   0  0  0  0  0  0  0  0  0  0  0  0
  -23.4880  -32.1490   23.7930 O   0  0  0  0  0  0  0  0  0  0  0  0
  -22.7090  -29.4540   22.5690 C   0  0  0  0  0  0  0  0  0  0  0  0
  -21.3850  -29.2690   22.4430 N   0  0  0  0  0  0  0  0  0  0  0  0
  -23.3960  -28.8270   23.3810 O   0  0  0  0  0  0  0  0  0  0  0  0
  -20.8960  -29.8230   21.7550 H   0  0  0  0  0  0  0  0  0  0  0  0
  -18.0100  -28.0800   22.9400 C   0  0  0  0  0  0  0  0  0  0  0  0
  -20.5680  -28.3310   23.2120 C   0  0  0  0  0  3  0  0  0  0  0  0
  -20.6690  -26.9020   22.6300 C   0  0  0  0  0  2  0  0  0  0  0  0
  -19.5650  -26.5850   21.6160 C   0  0  0  0  0  2  0  0  0  0  0  0
  -18.1830  -26.7330   22.2600 C   0  0  0  0  0  2  0  0  0  0  0  0
  -19.1310  -28.8380   23.3710 C   0  0  0  0  0  0  0  0  0  0  0  0
  -18.9150  -30.1030   23.9600 C   0  0  0  0  0  3  0  0  0  0  0  0
  -17.6120  -30.6080   24.1250 C   0  0  0  0  0  3  0  0  0  0  0  0
  -16.5050  -29.8460   23.7130 C   0  0  0  0  0  3  0  0  0  0  0  0
  -16.7070  -28.5840   23.1260 C   0  0  0  0  0  3  0  0  0  0  0  0
  -25.8580  -32.5040   23.8640 C   0  0  0  0  0  3  0  0  0  0  0  0
  -25.5570  -33.9020   24.1920 N   0  0  0  0  0  0  0  0  0  0  0  0
  -25.8920  -34.9520   23.4290 C   0  0  0  0  0  0  0  0  0  0  0  0
  -26.5610  -34.8440   22.3970 O   0  0  0  0  0  0  0  0  0  0  0  0
  -24.9660  -34.0620   24.9940 H   0  0  0  0  0  0  0  0  0  0  0  0
  -24.1710  -36.7470   23.0640 C   0  0  0  0  0  1  0  0  0  0  0  0
  -25.4060  -36.3410   23.8820 C   0  0  0  0  0  3  0  0  0  0  0  0
  -27.5450  -37.2120   24.7190 C   0  0  0  0  0  1  0  0  0  0  0  0
  -26.4430  -37.3920   23.7770 N   0  0  0  0  0  0  0  0  0  0  0  0
  -26.0390  -38.3120   23.9330 H   0  0  0  0  0  0  0  0  0  0  0  0
  -26.3800  -31.7290   25.1340 C   0  0  1  0  0  0  0  0  0  0  0  0
  -25.2920  -31.4930   26.2070 C   0  0  0  0  0  1  0  0  0  0  0  0
  -26.9540  -30.3500   24.7320 C   0  0  0  0  0  1  0  0  0  0  0  0
  -27.5380  -32.5170   25.7900 C   0  0  0  0  0  1  0  0  0  0  0  0
  -30.5740  -18.1230   17.8980 C   0  0  0  0  0  2  0  0  0  0  0  0
  -30.7930  -16.8910   18.7840 C   0  0  0  0  0  2  0  0  0  0  0  0
  -30.1250  -16.8700   20.1850 C   0  0  0  0  0  2  0  0  0  0  0  0
  -30.7000  -14.4420   20.5170 C   0  0  0  0  0  0  0  0  0  0  0  0
  -30.4140  -12.3050   19.3630 C   0  0  0  0  0  2  0  0  0  0  0  0
  -29.4860  -12.5490   18.1540 C   0  0  0  0  0  2  0  0  0  0  0  0
  -28.0010  -12.4310   18.5570 C   0  0  0  0  0  2  0  0  0  0  0  0
  -27.6560  -13.2490   19.8310 C   0  0  0  0  0  3  0  0  0  0  0  0
  -28.6930  -12.9900   20.9490 C   0  0  0  0  0  2  0  0  0  0  0  0
  -30.0330  -13.2700   20.4040 N   0  0  0  0  0  0  0  0  0  0  0  0
  -31.8790  -14.5840   20.1840 O   0  0  0  0  0  0  0  0  0  0  0  0
  -29.8990  -15.5060   20.6910 N   0  0  0  0  0  0  0  0  0  0  0  0
  -28.9540  -15.2850   20.9690 H   0  0  0  0  0  0  0  0  0  0  0  0
  -25.2440  -13.8820   20.4810 C   0  0  0  0  0  0  0  0  0  0  0  0
  -24.1630  -13.1200   20.8360 C   0  0  0  0  0  0  0  0  0  0  0  0
  -24.6170  -11.7650   20.8270 C   0  0  0  0  0  0  0  0  0  0  0  0
  -26.2900  -12.9920   20.2840 N   0  0  0  0  0  0  0  0  0  0  0  0
  -25.9130  -11.7150   20.5480 N   0  0  0  0  0  0  0  0  0  0  0  0
  -23.8800  -10.5090   21.0180 C   0  0  0  0  0  0  0  0  0  0  0  0
  -24.2950   -9.5490   21.9690 C   0  0  0  0  0  3  0  0  0  0  0  0
  -23.5620   -8.3560   22.1500 C   0  0  0  0  0  3  0  0  0  0  0  0
  -22.4010   -8.1150   21.3780 C   0  0  0  0  0  0  0  0  0  0  0  0
  -22.0050   -9.0620   20.4190 C   0  0  0  0  0  3  0  0  0  0  0  0
  -22.7380  -10.2470   20.2360 C   0  0  0  0  0  3  0  0  0  0  0  0
  -21.6430   -6.9710   21.4640 O   0  0  0  0  0  0  0  0  0  0  0  0
  -21.5760   -6.2360   22.6190 C   0  0  0  0  0  0  0  0  0  0  0  0
  -21.1400   -6.8030   23.8370 C   0  0  0  0  0  3  0  0  0  0  0  0
  -21.0190   -5.9960   24.9850 C   0  0  0  0  0  3  0  0  0  0  0  0
  -21.3230   -4.6230   24.9160 C   0  0  0  0  0  0  0  0  0  0  0  0
  -21.7540   -4.0560   23.7040 C   0  0  0  0  0  3  0  0  0  0  0  0
  -21.8760   -4.8610   22.5570 C   0  0  0  0  0  0  0  0  0  0  0  0
  -22.2680   -4.3070   21.3860 F   0  0  0  0  0  0  0  0  0  0  0  0
  -21.2000   -3.8430   26.0160 F   0  0  0  0  0  0  0  0  0  0  0  0
  -22.7640  -13.6050   21.0760 C   0  0  0  0  0  0  0  0  0  0  0  0
  -22.0190  -12.9180   21.9360 N   0  0  0  0  0  0  0  0  0  0  0  0
  -22.3380  -14.6250   20.5370 O   0  0  0  0  0  0  0  0  0  0  0  0
  -22.3780  -12.0880   22.3840 H   0  0  0  0  0  0  0  0  0  0  0  0
  -21.0810  -13.2230   22.1460 H   0  0  0  0  0  0  0  0  0  0  0  0
  -25.4210  -15.2510   20.2920 N   0  0  0  0  0  0  0  0  0  0  0  0
  -24.6480  -15.9060   20.3370 H   0  0  0  0  0  0  0  0  0  0  0  0
  -26.2800  -15.6780   19.9700 H   0  0  0  0  0  0  0  0  0  0  0  0
  2  5  1  0
  3  1  1  0
  4  2  1  0
  4  6  1  0
  5  8  1  0
  5  1  1  0
  6  7  1  1
  6  3  1  0
  9  8  1  0
  9 10  1  0
 11 10  1  0
 11 12  1  0
 12 14  1  0
 13 24  2  0
 14 19  1  0
 15 23  1  0
 15 25  1  0
 16 22  1  0
 16 18  1  0
 17 23  1  0
 18 17  1  0
 19 18  2  0
 20 21  1  0
 20 14  2  0
 21 16  2  0
 22 15  1  0
 23 13  1  0
 25 27  2  0
 26 25  1  0
 28 26  1  0
 29 38  2  0
 29 34  1  0
 30 26  1  0
 30 34  1  0
 31 30  1  0
 32 33  1  0
 32 31  1  0
 33 29  1  0
 34 35  2  0
 35 36  1  0
 37 36  2  0
 38 37  1  0
 39 13  1  0
 39 40  1  0
 39 49  1  0
 40 43  1  0
 41 45  1  0
 41 40  1  0
 42 41  2  0
 45 44  1  0
 47 45  1  0
 47 48  1  0
 47 46  1  0
 49 52  1  1
 49 50  1  0
 51 49  1  0
 53  6  1  0
 53 54  1  0
 54 55  1  0
 55 64  1  0
 56 64  1  0
 57 62  1  0
 58 59  1  0
 58 57  1  0
 60 59  1  0
 60 69  1  0
 60 61  1  0
 62 56  1  0
 62 61  1  0
 63 56  2  0
 64 65  1  0
 66 67  2  0
 67 86  1  0
 68 67  1  0
 68 71  1  0
 69 66  1  0
 69 70  1  0
 70 68  2  0
 71 72  1  0
 72 73  2  0
 74 77  1  0
 74 73  1  0
 75 74  2  0
 76 75  1  0
 76 71  2  0
 77 78  1  0
 78 79  1  0
 79 80  2  0
 81 80  1  0
 81 85  1  0
 82 81  2  0
 83 78  2  0
 83 82  1  0
 84 83  1  0
 86 87  1  0
 87 90  1  0
 87 89  1  0
 88 86  2  0
 91 92  1  0
 91 66  1  0
 93 91  1  0
M  ISO  4  11 101  12 101  56 100  64 100
M  END
>  <TORSDO>  (92) 
F 23

>  <SCORE>  (92) 
-12.535

>  <name>  (92) 
93

>  <ligand_id>  (92) 
93

>  <original_smiles>  (92) 
[H]c1c([H])c([H])c2c(c1[H])C([H])([H])C([H])([H])C([H])([H])C2([H])N([H])C(=O)C1([H])N(C(=O)C([H])(N([H])C(=O)C([H])(N([H])C([H])([H])[H])C([H])([H])[H])C(C([H])([H])[H])(C([H])([H])[H])C([H])([H])[H])C([H])([H])c2c([H])c(OC([H])([H])C([H])([H])C([H])([H])C([H])([H])N3C([H])([H])C([H])([H])[N+]([H])(C([H])([H])C([H])([H])C([H])([H])N([H])C(=O)N4C([H])([H])C([H])([H])C([H])([H])C([H])(n5nc(-c6c([H])c([H])c(Oc7c([H])c([H])c(F)c([H])c7F)c([H])c6[H])c(C(=O)N([H])[H])c5N([H])[H])C4([H])[H])C([H])([H])C3([H])[H])c([H])c([H])c2C1([H])[H]

>  <smiles>  (92) 
[H]c1c([H])c([H])c2c(c1[H])C([H])([H])C([H])([H])C([H])([H])C2([H])N([H])C(=O)C1([H])N(C(=O)C([H])(N([H])C(=O)C([H])(N([H])C([H])([H])[H])C([H])([H])[H])C(C([H])([H])[H])(C([H])([H])[H])C([H])([H])[H])C([H])([H])c2c([H])c(OC([H])([H])C([H])([H])C([H])([H])C([H])([H])N3C([H])([H])C([H])([H])[N+]([H])(C([H])([H])C([H])([H])C([H])([H])N([H])C(=O)N4C([H])([H])C([H])([H])C([H])([H])C([H])(n5nc(-c6c([H])c([H])c(Oc7c([H])c([H])c(F)c([H])c7F)c([H])c6[H])c(C(=O)N([H])[H])c5N([H])[H])C4([H])[H])C([H])([H])C3([H])[H])c([H])c([H])c2C1([H])[H]

$$$$
94:0:0
     RDKit          3D

 98106  0  0  1  0  0  0  0  0999 V2000
  -30.7610  -21.9300   24.9430 N   0  0  0  0  0  4  0  0  0  0  0  0
  -31.5680  -21.8040   24.3560 H   0  0  0  0  0  0  0  0  0  0  0  0
  -30.9860  -22.6460   25.6160 H   0  0  0  0  0  0  0  0  0  0  0  0
  -30.4290  -20.6770   25.6650 C   0  0  0  0  0  2  0  0  0  0  0  0
  -31.6620  -19.9110   26.2010 C   0  0  0  0  0  2  0  0  0  0  0  0
  -32.5300  -19.2090   25.1310 C   0  0  0  0  0  2  0  0  0  0  0  0
  -30.9980  -17.2230   22.2170 C   0  0  0  0  0  2  0  0  0  0  0  0
  -31.3860  -15.6630   24.1470 C   0  0  0  0  0  2  0  0  0  0  0  0
  -31.8520  -18.2830   22.9340 C   0  0  0  0  0  2  0  0  0  0  0  0
  -32.2290  -16.7560   24.8360 C   0  0  0  0  0  2  0  0  0  0  0  0
  -31.4410  -15.8050   22.6160 C   0  0  0  0  0  3  0  0  0  0  0  0
  -31.8080  -18.1190   24.4130 N   0  0  1  0  0  4  0  0  0  0  0  0
  -30.8370  -18.1920   24.6750 H   0  0  0  0  0  0  0  0  0  0  0  0
  -30.8210  -14.2820   20.7480 C   0  0  0  0  0  0  0  0  0  0  0  0
  -30.4100  -12.2810   19.3730 C   0  0  0  0  0  2  0  0  0  0  0  0
  -29.4730  -12.5360   18.1810 C   0  0  0  0  0  2  0  0  0  0  0  0
  -28.0030  -12.3810   18.6060 C   0  0  0  0  0  2  0  0  0  0  0  0
  -27.6670  -13.2010   19.8780 C   0  0  0  0  0  3  0  0  0  0  0  0
  -28.7040  -12.9430   20.9930 C   0  0  0  0  0  2  0  0  0  0  0  0
  -30.0560  -13.2020   20.4610 N   0  0  0  0  0  0  0  0  0  0  0  0
  -31.7510  -14.6730   20.0360 O   0  0  0  0  0  0  0  0  0  0  0  0
  -30.6080  -14.7960   21.9660 N   0  0  0  0  0  0  0  0  0  0  0  0
  -29.8650  -14.3740   22.5050 H   0  0  0  0  0  0  0  0  0  0  0  0
  -25.2610  -13.8160   20.5680 C   0  0  0  0  0  0  0  0  0  0  0  0
  -24.1850  -13.0440   20.9160 C   0  0  0  0  0  0  0  0  0  0  0  0
  -24.6390  -11.6900   20.8720 C   0  0  0  0  0  0  0  0  0  0  0  0
  -26.3050  -12.9320   20.3370 N   0  0  0  0  0  0  0  0  0  0  0  0
  -25.9320  -11.6480   20.5750 N   0  0  0  0  0  0  0  0  0  0  0  0
  -23.9050  -10.4300   21.0400 C   0  0  0  0  0  0  0  0  0  0  0  0
  -24.3600   -9.4210   21.9180 C   0  0  0  0  0  3  0  0  0  0  0  0
  -23.6280   -8.2250   22.0750 C   0  0  0  0  0  3  0  0  0  0  0  0
  -22.4270   -8.0280   21.3540 C   0  0  0  0  0  0  0  0  0  0  0  0
  -21.9900   -9.0250   20.4640 C   0  0  0  0  0  3  0  0  0  0  0  0
  -22.7220  -10.2130   20.3050 C   0  0  0  0  0  3  0  0  0  0  0  0
  -21.6640   -6.8880   21.4240 O   0  0  0  0  0  0  0  0  0  0  0  0
  -21.6850   -6.0730   22.5280 C   0  0  0  0  0  0  0  0  0  0  0  0
  -21.4010   -6.5640   23.8210 C   0  0  0  0  0  3  0  0  0  0  0  0
  -21.3660   -5.6790   24.9170 C   0  0  0  0  0  3  0  0  0  0  0  0
  -21.6050   -4.3060   24.7230 C   0  0  0  0  0  0  0  0  0  0  0  0
  -21.8820   -3.8140   23.4350 C   0  0  0  0  0  3  0  0  0  0  0  0
  -21.9190   -4.6960   22.3400 C   0  0  0  0  0  0  0  0  0  0  0  0
  -22.1660   -4.2150   21.0980 F   0  0  0  0  0  0  0  0  0  0  0  0
  -21.5630   -3.4540   25.7740 F   0  0  0  0  0  0  0  0  0  0  0  0
  -22.7880  -13.5240   21.1830 C   0  0  0  0  0  0  0  0  0  0  0  0
  -22.0510  -12.8240   22.0390 N   0  0  0  0  0  0  0  0  0  0  0  0
  -22.3560  -14.5550   20.6680 O   0  0  0  0  0  0  0  0  0  0  0  0
  -22.4110  -11.9890   22.4770 H   0  0  0  0  0  0  0  0  0  0  0  0
  -21.1130  -13.1270   22.2580 H   0  0  0  0  0  0  0  0  0  0  0  0
  -25.4360  -15.1880   20.4100 N   0  0  0  0  0  0  0  0  0  0  0  0
  -24.6750  -15.8490   20.5200 H   0  0  0  0  0  0  0  0  0  0  0  0
  -26.2980  -15.6230   20.1050 H   0  0  0  0  0  0  0  0  0  0  0  0
  -29.6630  -22.4140   24.0840 C   0  0  0  0  0  2  0  0  0  0  0  0
  -30.0350  -23.7080   23.3370 C   0  0  0  0  0  2  0  0  0  0  0  0
  -29.1140  -23.9040   22.2260 N   0  0  0  0  0  0  0  0  0  0  0  0
  -28.1590  -23.9190   22.5810 H   0  0  0  0  0  0  0  0  0  0  0  0
  -29.3730  -25.1790   21.5720 C   0  0  0  0  0  2  0  0  0  0  0  0
  -28.3430  -25.4100   20.4570 C   0  0  0  0  0  2  0  0  0  0  0  0
  -28.4210  -26.7770   20.0690 O   0  0  0  0  0  0  0  0  0  0  0  0
  -24.6100  -31.8710   23.2120 C   0  0  0  0  0  0  0  0  0  0  0  0
  -27.2380  -27.4740   20.0850 C   0  0  0  0  0  0  0  0  0  0  0  0
  -23.3950  -30.4930   21.5520 C   0  0  0  0  0  3  0  0  0  0  0  0
  -24.8420  -28.9620   20.1160 C   0  0  0  0  0  0  0  0  0  0  0  0
  -25.9200  -30.8480   21.3580 C   0  0  0  0  0  2  0  0  0  0  0  0
  -26.0000  -29.4850   20.7050 C   0  0  0  0  0  0  0  0  0  0  0  0
  -27.2030  -28.7490   20.6850 C   0  0  0  0  0  3  0  0  0  0  0  0
  -26.0650  -26.9550   19.4920 C   0  0  0  0  0  3  0  0  0  0  0  0
  -24.8670  -27.6940   19.5090 C   0  0  0  0  0  3  0  0  0  0  0  0
  -23.6020  -29.8230   20.1670 C   0  0  0  0  0  2  0  0  0  0  0  0
  -24.6600  -31.0840   22.1010 N   0  0  0  0  0  0  0  0  0  0  0  0
  -23.5310  -32.1450   23.7540 O   0  0  0  0  0  0  0  0  0  0  0  0
  -22.7380  -29.4660   22.5010 C   0  0  0  0  0  0  0  0  0  0  0  0
  -21.4120  -29.3030   22.3750 N   0  0  0  0  0  0  0  0  0  0  0  0
  -23.4180  -28.8200   23.3030 O   0  0  0  0  0  0  0  0  0  0  0  0
  -20.9260  -29.8770   21.7010 H   0  0  0  0  0  0  0  0  0  0  0  0
  -18.0260  -28.1360   22.8500 C   0  0  0  0  0  0  0  0  0  0  0  0
  -20.5850  -28.3650   23.1340 C   0  0  0  0  0  3  0  0  0  0  0  0
  -20.6750  -26.9390   22.5420 C   0  0  0  0  0  2  0  0  0  0  0  0
  -19.5740  -26.6380   21.5210 C   0  0  0  0  0  2  0  0  0  0  0  0
  -18.1920  -26.7910   22.1620 C   0  0  0  0  0  2  0  0  0  0  0  0
  -19.1510  -28.8820   23.2920 C   0  0  0  0  0  0  0  0  0  0  0  0
  -18.9450  -30.1430   23.8930 C   0  0  0  0  0  3  0  0  0  0  0  0
  -17.6460  -30.6580   24.0560 C   0  0  0  0  0  3  0  0  0  0  0  0
  -16.5350  -29.9080   23.6320 C   0  0  0  0  0  3  0  0  0  0  0  0
  -16.7260  -28.6490   23.0350 C   0  0  0  0  0  3  0  0  0  0  0  0
  -25.9010  -32.4840   23.8400 C   0  0  0  0  0  3  0  0  0  0  0  0
  -26.4460  -31.6610   25.0720 C   0  0  1  0  0  0  0  0  0  0  0  0
  -25.3750  -31.3690   26.1480 C   0  0  0  0  0  1  0  0  0  0  0  0
  -27.0280  -30.3050   24.6050 C   0  0  0  0  0  1  0  0  0  0  0  0
  -27.6040  -32.4330   25.7490 C   0  0  0  0  0  1  0  0  0  0  0  0
  -25.5880  -33.8630   24.2330 N   0  0  0  0  0  0  0  0  0  0  0  0
  -25.9020  -34.9490   23.5130 C   0  0  0  0  0  0  0  0  0  0  0  0
  -26.5590  -34.8940   22.4700 O   0  0  0  0  0  0  0  0  0  0  0  0
  -25.0050  -33.9800   25.0490 H   0  0  0  0  0  0  0  0  0  0  0  0
  -24.1490  -36.7320   23.2640 C   0  0  0  0  0  1  0  0  0  0  0  0
  -25.4110  -36.3120   24.0340 C   0  0  0  0  0  3  0  0  0  0  0  0
  -27.5580  -37.1820   24.8460 C   0  0  0  0  0  1  0  0  0  0  0  0
  -26.4300  -37.3800   23.9410 N   0  0  0  0  0  0  0  0  0  0  0  0
  -26.0190  -38.2880   24.1400 H   0  0  0  0  0  0  0  0  0  0  0  0
  1  3  1  0
  1  4  1  0
  2  1  1  0
  4  5  1  0
  6  5  1  0
  7 11  1  0
  7  9  1  0
  8 10  1  0
  9 12  1  0
 11 22  1  0
 11  8  1  0
 12 13  1  1
 12 10  1  0
 12  6  1  0
 14 22  1  0
 15 20  1  0
 16 17  1  0
 16 15  1  0
 18 17  1  0
 18 27  1  0
 18 19  1  0
 20 14  1  0
 20 19  1  0
 21 14  2  0
 22 23  1  0
 24 25  2  0
 25 44  1  0
 26 25  1  0
 26 29  1  0
 27 24  1  0
 27 28  1  0
 28 26  2  0
 29 30  1  0
 30 31  2  0
 32 35  1  0
 32 31  1  0
 33 32  2  0
 34 33  1  0
 34 29  2  0
 35 36  1  0
 36 37  1  0
 37 38  2  0
 39 38  1  0
 39 43  1  0
 40 39  2  0
 41 36  2  0
 41 40  1  0
 42 41  1  0
 44 45  1  0
 45 48  1  0
 45 47  1  0
 46 44  2  0
 49 50  1  0
 49 24  1  0
 51 49  1  0
 52  1  1  0
 53 52  1  0
 54 55  1  0
 54 53  1  0
 56 54  1  0
 57 56  1  0
 58 60  1  0
 58 57  1  0
 59 70  2  0
 60 65  1  0
 61 69  1  0
 61 71  1  0
 62 68  1  0
 62 64  1  0
 63 69  1  0
 64 63  1  0
 65 64  2  0
 66 67  1  0
 66 60  2  0
 67 62  2  0
 68 61  1  0
 69 59  1  0
 71 73  2  0
 72 71  1  0
 74 72  1  0
 75 84  2  0
 75 80  1  0
 76 72  1  0
 76 80  1  0
 77 76  1  0
 78 79  1  0
 78 77  1  0
 79 75  1  0
 80 81  2  0
 81 82  1  0
 83 82  2  0
 84 83  1  0
 85 59  1  0
 85 90  1  0
 85 86  1  0
 86 89  1  1
 86 87  1  0
 88 86  1  0
 90 93  1  0
 91 95  1  0
 91 90  1  0
 92 91  2  0
 95 94  1  0
 97 95  1  0
 97 98  1  0
 97 96  1  0
M  ISO  4  14 100  22 100  57 101  58 101
M  END
>  <TORSDO>  (93) 
F 25

>  <SCORE>  (93) 
13.017

>  <name>  (93) 
94

>  <ligand_id>  (93) 
94

>  <original_smiles>  (93) 
[H]c1c([H])c([H])c2c(c1[H])C([H])([H])C([H])([H])C([H])([H])C2([H])N([H])C(=O)C1([H])N(C(=O)C([H])(N([H])C(=O)C([H])(N([H])C([H])([H])[H])C([H])([H])[H])C(C([H])([H])[H])(C([H])([H])[H])C([H])([H])[H])C([H])([H])c2c([H])c(OC([H])([H])C([H])([H])N([H])C([H])([H])C([H])([H])[N+]([H])([H])C([H])([H])C([H])([H])C([H])([H])[N+]3([H])C([H])([H])C([H])([H])C([H])(N([H])C(=O)N4C([H])([H])C([H])([H])C([H])([H])C([H])(n5nc(-c6c([H])c([H])c(Oc7c([H])c([H])c(F)c([H])c7F)c([H])c6[H])c(C(=O)N([H])[H])c5N([H])[H])C4([H])[H])C([H])([H])C3([H])[H])c([H])c([H])c2C1([H])[H]

>  <smiles>  (93) 
[H]c1c([H])c([H])c2c(c1[H])C([H])([H])C([H])([H])C([H])([H])C2([H])N([H])C(=O)C1([H])N(C(=O)C([H])(N([H])C(=O)C([H])(N([H])C([H])([H])[H])C([H])([H])[H])C(C([H])([H])[H])(C([H])([H])[H])C([H])([H])[H])C([H])([H])c2c([H])c(OC([H])([H])C([H])([H])N([H])C([H])([H])C([H])([H])[N+]([H])([H])C([H])([H])C([H])([H])C([H])([H])[N+]3([H])C([H])([H])C([H])([H])C([H])(N([H])C(=O)N4C([H])([H])C([H])([H])C([H])([H])C([H])(n5nc(-c6c([H])c([H])c(Oc7c([H])c([H])c(F)c([H])c7F)c([H])c6[H])c(C(=O)N([H])[H])c5N([H])[H])C4([H])[H])C([H])([H])C3([H])[H])c([H])c([H])c2C1([H])[H]

$$$$
95:0:0
     RDKit          3D

 94102  0  0  1  0  0  0  0  0999 V2000
  -28.2180  -23.4440   20.5190 C   0  0  0  0  0  3  0  0  0  0  0  0
  -28.6320  -22.0670   19.6680 C   0  0  0  0  0  2  0  0  0  0  0  0
  -29.9270  -18.3360   19.1590 C   0  0  0  0  0  2  0  0  0  0  0  0
  -28.6270  -18.2230   21.2150 C   0  0  0  0  0  2  0  0  0  0  0  0
  -30.1030  -19.9160   19.3910 C   0  0  0  0  0  2  0  0  0  0  0  0
  -28.0650  -19.6440   20.6730 C   0  0  0  0  0  2  0  0  0  0  0  0
  -29.8090  -17.4780   20.4510 C   0  0  0  0  0  3  0  0  0  0  0  0
  -29.0920  -20.6680   20.2520 N   0  0  2  0  0  4  0  0  0  0  0  0
  -29.6040  -20.8990   21.0880 H   0  0  0  0  0  0  0  0  0  0  0  0
  -30.5630  -14.8580   20.0010 C   0  0  0  0  0  0  0  0  0  0  0  0
  -30.4210  -12.5650   18.9580 C   0  0  0  0  0  2  0  0  0  0  0  0
  -29.4230  -12.6430   17.7790 C   0  0  0  0  0  2  0  0  0  0  0  0
  -27.9730  -12.4430   18.2750 C   0  0  0  0  0  2  0  0  0  0  0  0
  -27.6570  -13.2990   19.5280 C   0  0  0  0  0  3  0  0  0  0  0  0
  -28.7640  -13.1740   20.5920 C   0  0  0  0  0  2  0  0  0  0  0  0
  -30.0170  -13.5910   19.9510 N   0  0  0  0  0  0  0  0  0  0  0  0
  -31.7250  -15.0270   19.6060 O   0  0  0  0  0  0  0  0  0  0  0  0
  -29.7050  -15.9250   20.3240 N   0  0  0  0  0  0  0  0  0  0  0  0
  -28.8140  -15.5730   20.6340 H   0  0  0  0  0  0  0  0  0  0  0  0
  -25.3130  -13.8880   20.3880 C   0  0  0  0  0  0  0  0  0  0  0  0
  -24.2670  -13.1130   20.8000 C   0  0  0  0  0  0  0  0  0  0  0  0
  -24.7220  -11.7610   20.7190 C   0  0  0  0  0  0  0  0  0  0  0  0
  -26.3370  -13.0080   20.0790 N   0  0  0  0  0  0  0  0  0  0  0  0
  -25.9920  -11.7220   20.3420 N   0  0  0  0  0  0  0  0  0  0  0  0
  -24.0020  -10.4990   20.9260 C   0  0  0  0  0  0  0  0  0  0  0  0
  -24.4540   -9.5350   21.8510 C   0  0  0  0  0  3  0  0  0  0  0  0
  -23.7350   -8.3360   22.0410 C   0  0  0  0  0  3  0  0  0  0  0  0
  -22.5500   -8.0940   21.3060 C   0  0  0  0  0  0  0  0  0  0  0  0
  -22.1200   -9.0480   20.3700 C   0  0  0  0  0  3  0  0  0  0  0  0
  -22.8380  -10.2400   20.1780 C   0  0  0  0  0  3  0  0  0  0  0  0
  -21.7980   -6.9490   21.4090 O   0  0  0  0  0  0  0  0  0  0  0  0
  -21.7330   -6.2340   22.5770 C   0  0  0  0  0  0  0  0  0  0  0  0
  -21.2870   -6.8170   23.7830 C   0  0  0  0  0  3  0  0  0  0  0  0
  -21.1710   -6.0260   24.9440 C   0  0  0  0  0  3  0  0  0  0  0  0
  -21.4900   -4.6560   24.9000 C   0  0  0  0  0  0  0  0  0  0  0  0
  -21.9250   -4.0740   23.6970 C   0  0  0  0  0  3  0  0  0  0  0  0
  -22.0430   -4.8600   22.5390 C   0  0  0  0  0  0  0  0  0  0  0  0
  -22.4460   -4.2900   21.3780 F   0  0  0  0  0  0  0  0  0  0  0  0
  -21.3690   -3.8960   26.0120 F   0  0  0  0  0  0  0  0  0  0  0  0
  -22.8900  -13.5930   21.1480 C   0  0  0  0  0  0  0  0  0  0  0  0
  -22.2040  -12.8890   22.0410 N   0  0  0  0  0  0  0  0  0  0  0  0
  -22.4370  -14.6290   20.6650 O   0  0  0  0  0  0  0  0  0  0  0  0
  -22.5870  -12.0520   22.4560 H   0  0  0  0  0  0  0  0  0  0  0  0
  -21.2810  -13.1990   22.3120 H   0  0  0  0  0  0  0  0  0  0  0  0
  -25.4790  -15.2630   20.2300 N   0  0  0  0  0  0  0  0  0  0  0  0
  -24.7330  -15.9200   20.4220 H   0  0  0  0  0  0  0  0  0  0  0  0
  -26.2940  -15.7010   19.8220 H   0  0  0  0  0  0  0  0  0  0  0  0
  -26.7520  -23.3270   21.0290 C   0  0  0  0  0  2  0  0  0  0  0  0
  -26.3790  -24.3200   22.0670 N   0  0  0  0  0  4  0  0  0  0  0  0
  -26.7330  -24.0450   22.9680 H   0  0  0  0  0  0  0  0  0  0  0  0
  -25.3760  -24.3530   22.1520 H   0  0  0  0  0  0  0  0  0  0  0  0
  -26.7090  -25.2480   21.8530 H   0  0  0  0  0  0  0  0  0  0  0  0
  -28.3500  -24.8970   19.7180 C   0  0  0  0  0  2  0  0  0  0  0  0
  -28.2910  -26.3160   20.2910 O   0  0  0  0  0  0  0  0  0  0  0  0
  -24.6770  -31.8910   23.2250 C   0  0  0  0  0  0  0  0  0  0  0  0
  -27.2110  -27.2360   20.1670 C   0  0  0  0  0  0  0  0  0  0  0  0
  -23.4540  -30.4980   21.6010 C   0  0  0  0  0  3  0  0  0  0  0  0
  -24.8810  -28.9400   20.1470 C   0  0  0  0  0  0  0  0  0  0  0  0
  -25.9960  -30.7910   21.3890 C   0  0  0  0  0  2  0  0  0  0  0  0
  -26.0620  -29.4010   20.7450 C   0  0  0  0  0  0  0  0  0  0  0  0
  -27.2260  -28.5590   20.7430 C   0  0  0  0  0  3  0  0  0  0  0  0
  -26.0130  -26.8630   19.5190 C   0  0  0  0  0  3  0  0  0  0  0  0
  -24.8690  -27.6870   19.5180 C   0  0  0  0  0  3  0  0  0  0  0  0
  -23.6500  -29.8250   20.2140 C   0  0  0  0  0  2  0  0  0  0  0  0
  -24.7310  -31.0760   22.1320 N   0  0  0  0  0  0  0  0  0  0  0  0
  -23.5990  -32.1740   23.7700 O   0  0  0  0  0  0  0  0  0  0  0  0
  -22.7960  -29.4820   22.5640 C   0  0  0  0  0  0  0  0  0  0  0  0
  -21.4690  -29.3010   22.4490 N   0  0  0  0  0  0  0  0  0  0  0  0
  -23.4790  -28.8580   23.3800 O   0  0  0  0  0  0  0  0  0  0  0  0
  -20.9730  -29.8570   21.7660 H   0  0  0  0  0  0  0  0  0  0  0  0
  -18.1050  -28.0710   22.9640 C   0  0  0  0  0  0  0  0  0  0  0  0
  -20.6580  -28.3630   23.2320 C   0  0  0  0  0  3  0  0  0  0  0  0
  -20.7740  -26.9260   22.6700 C   0  0  0  0  0  2  0  0  0  0  0  0
  -19.6770  -26.5820   21.6590 C   0  0  0  0  0  2  0  0  0  0  0  0
  -18.2930  -26.7170   22.3000 C   0  0  0  0  0  2  0  0  0  0  0  0
  -19.2140  -28.8500   23.3870 C   0  0  0  0  0  0  0  0  0  0  0  0
  -18.9790  -30.1130   23.9680 C   0  0  0  0  0  3  0  0  0  0  0  0
  -17.6670  -30.6010   24.1290 C   0  0  0  0  0  3  0  0  0  0  0  0
  -16.5730  -29.8200   23.7220 C   0  0  0  0  0  3  0  0  0  0  0  0
  -16.7920  -28.5570   23.1440 C   0  0  0  0  0  3  0  0  0  0  0  0
  -25.9650  -32.5260   23.8370 C   0  0  0  0  0  3  0  0  0  0  0  0
  -25.6640  -33.9250   24.1740 N   0  0  0  0  0  0  0  0  0  0  0  0
  -25.9830  -34.9790   23.4100 C   0  0  0  0  0  0  0  0  0  0  0  0
  -26.6360  -34.8710   22.3680 O   0  0  0  0  0  0  0  0  0  0  0  0
  -25.0990  -34.0840   24.9960 H   0  0  0  0  0  0  0  0  0  0  0  0
  -24.2530  -36.7720   23.0730 C   0  0  0  0  0  1  0  0  0  0  0  0
  -25.5030  -36.3680   23.8730 C   0  0  0  0  0  3  0  0  0  0  0  0
  -27.6480  -37.2470   24.6830 C   0  0  0  0  0  1  0  0  0  0  0  0
  -26.5360  -37.4200   23.7500 N   0  0  0  0  0  0  0  0  0  0  0  0
  -26.1330  -38.3410   23.9070 H   0  0  0  0  0  0  0  0  0  0  0  0
  -26.4930  -31.7560   25.1120 C   0  0  1  0  0  0  0  0  0  0  0  0
  -25.4090  -31.5280   26.1910 C   0  0  0  0  0  1  0  0  0  0  0  0
  -27.0710  -30.3770   24.7160 C   0  0  0  0  0  1  0  0  0  0  0  0
  -27.6510  -32.5500   25.7650 C   0  0  0  0  0  1  0  0  0  0  0  0
  1  2  1  0
  1 48  1  0
  2  8  1  0
  3  5  1  0
  3  7  1  0
  5  8  1  0
  6  4  1  0
  7 18  1  0
  7  4  1  0
  8  6  1  0
  8  9  1  1
 10 18  1  0
 11 16  1  0
 12 13  1  0
 12 11  1  0
 14 13  1  0
 14 23  1  0
 14 15  1  0
 16 10  1  0
 16 15  1  0
 17 10  2  0
 18 19  1  0
 20 21  2  0
 21 40  1  0
 22 21  1  0
 22 25  1  0
 23 24  1  0
 23 20  1  0
 24 22  2  0
 25 26  1  0
 26 27  2  0
 28 31  1  0
 28 27  1  0
 29 28  2  0
 30 29  1  0
 30 25  2  0
 31 32  1  0
 32 33  1  0
 33 34  2  0
 35 34  1  0
 35 39  1  0
 36 35  2  0
 37 32  2  0
 37 36  1  0
 38 37  1  0
 40 41  1  0
 41 44  1  0
 41 43  1  0
 42 40  2  0
 45 20  1  0
 45 46  1  0
 47 45  1  0
 48 49  1  0
 49 51  1  0
 49 50  1  0
 52 49  1  0
 53 54  1  0
 53  1  1  0
 55 66  2  0
 56 54  1  0
 56 61  1  0
 57 65  1  0
 57 67  1  0
 58 64  1  0
 58 60  1  0
 59 65  1  0
 60 59  1  0
 61 60  2  0
 62 56  2  0
 63 62  1  0
 63 58  2  0
 64 57  1  0
 65 55  1  0
 67 69  2  0
 68 67  1  0
 70 68  1  0
 71 80  2  0
 71 76  1  0
 72 68  1  0
 72 76  1  0
 73 72  1  0
 74 75  1  0
 74 73  1  0
 75 71  1  0
 76 77  2  0
 77 78  1  0
 79 78  2  0
 80 79  1  0
 81 55  1  0
 81 82  1  0
 81 91  1  0
 82 85  1  0
 83 87  1  0
 83 82  1  0
 84 83  2  0
 87 86  1  0
 89 87  1  0
 89 90  1  0
 89 88  1  0
 91 94  1  1
 91 92  1  0
 93 91  1  0
M  ISO  4  10 100  18 100  53 101  54 101
M  END
>  <TORSDO>  (94) 
F 21

>  <SCORE>  (94) 
-12.900

>  <name>  (94) 
95

>  <ligand_id>  (94) 
95

>  <original_smiles>  (94) 
[H]c1c([H])c([H])c2c(c1[H])C([H])([H])C([H])([H])C([H])([H])C2([H])N([H])C(=O)C1([H])N(C(=O)C([H])(N([H])C(=O)C([H])(N([H])C([H])([H])[H])C([H])([H])[H])C(C([H])([H])[H])(C([H])([H])[H])C([H])([H])[H])C([H])([H])c2c([H])c(OC([H])([H])C([H])(C([H])([H])[N+]([H])([H])[H])C([H])([H])[N+]3([H])C([H])([H])C([H])([H])C([H])(N([H])C(=O)N4C([H])([H])C([H])([H])C([H])([H])C([H])(n5nc(-c6c([H])c([H])c(Oc7c([H])c([H])c(F)c([H])c7F)c([H])c6[H])c(C(=O)N([H])[H])c5N([H])[H])C4([H])[H])C([H])([H])C3([H])[H])c([H])c([H])c2C1([H])[H]

>  <smiles>  (94) 
[H]c1c([H])c([H])c2c(c1[H])C([H])([H])C([H])([H])C([H])([H])C2([H])N([H])C(=O)C1([H])N(C(=O)C([H])(N([H])C(=O)C([H])(N([H])C([H])([H])[H])C([H])([H])[H])C(C([H])([H])[H])(C([H])([H])[H])C([H])([H])[H])C([H])([H])c2c([H])c(OC([H])([H])C([H])(C([H])([H])[N+]([H])([H])[H])C([H])([H])[N+]3([H])C([H])([H])C([H])([H])C([H])(N([H])C(=O)N4C([H])([H])C([H])([H])C([H])([H])C([H])(n5nc(-c6c([H])c([H])c(Oc7c([H])c([H])c(F)c([H])c7F)c([H])c6[H])c(C(=O)N([H])[H])c5N([H])[H])C4([H])[H])C([H])([H])C3([H])[H])c([H])c([H])c2C1([H])[H]

$$$$
96:0:0
     RDKit          3D

 95103  0  0  1  0  0  0  0  0999 V2000
  -29.3120  -20.0170   21.2170 C   0  0  0  0  0  0  0  0  0  0  0  0
  -30.0050  -20.9690   18.9110 C   0  0  0  0  0  2  0  0  0  0  0  0
  -30.0350  -19.5140   18.4430 C   0  0  0  0  0  2  0  0  0  0  0  0
  -29.1430  -21.1500   20.1720 C   0  0  0  0  0  3  0  0  0  0  0  0
  -30.4900  -18.5290   19.5620 C   0  0  0  0  0  3  0  0  0  0  0  0
  -29.8290  -18.8300   20.8370 N   0  0  0  0  0  0  0  0  0  0  0  0
  -28.9530  -20.2010   22.3800 O   0  0  0  0  0  0  0  0  0  0  0  0
  -29.8900  -18.1130   21.5470 H   0  0  0  0  0  0  0  0  0  0  0  0
  -28.9010  -23.6410   20.3090 C   0  0  0  0  0  0  0  0  0  0  0  0
  -29.4110  -22.4760   20.7420 N   0  0  0  0  0  0  0  0  0  0  0  0
  -27.9790  -23.6960   19.4950 O   0  0  0  0  0  0  0  0  0  0  0  0
  -30.1100  -22.4980   21.4720 H   0  0  0  0  0  0  0  0  0  0  0  0
  -29.5660  -24.9290   20.8280 C   0  0  0  0  0  2  0  0  0  0  0  0
  -28.6350  -26.1470   21.0400 C   0  0  0  0  0  2  0  0  0  0  0  0
  -28.4790  -26.9740   19.8780 O   0  0  0  0  0  0  0  0  0  0  0  0
  -24.6190  -31.9410   23.2200 C   0  0  0  0  0  0  0  0  0  0  0  0
  -27.3250  -27.7170   19.9150 C   0  0  0  0  0  0  0  0  0  0  0  0
  -23.4190  -30.5740   21.5410 C   0  0  0  0  0  3  0  0  0  0  0  0
  -24.8910  -29.1360   20.0260 C   0  0  0  0  0  0  0  0  0  0  0  0
  -25.9280  -31.0160   21.3120 C   0  0  0  0  0  2  0  0  0  0  0  0
  -26.0420  -29.6760   20.6160 C   0  0  0  0  0  0  0  0  0  0  0  0
  -27.2660  -28.9720   20.5600 C   0  0  0  0  0  3  0  0  0  0  0  0
  -26.1660  -27.1900   19.3150 C   0  0  0  0  0  3  0  0  0  0  0  0
  -24.9460  -27.8930   19.3700 C   0  0  0  0  0  3  0  0  0  0  0  0
  -23.6250  -29.9560   20.1290 C   0  0  0  0  0  2  0  0  0  0  0  0
  -24.6730  -31.1880   22.0840 N   0  0  0  0  0  0  0  0  0  0  0  0
  -23.5410  -32.1610   23.7900 O   0  0  0  0  0  0  0  0  0  0  0  0
  -22.8130  -29.4960   22.4700 C   0  0  0  0  0  0  0  0  0  0  0  0
  -21.4940  -29.2770   22.3550 N   0  0  0  0  0  0  0  0  0  0  0  0
  -23.5290  -28.8620   23.2510 O   0  0  0  0  0  0  0  0  0  0  0  0
  -20.9750  -29.8500   21.7030 H   0  0  0  0  0  0  0  0  0  0  0  0
  -18.1670  -27.9570   22.8530 C   0  0  0  0  0  0  0  0  0  0  0  0
  -20.7190  -28.2830   23.0990 C   0  0  0  0  0  3  0  0  0  0  0  0
  -20.8560  -26.8810   22.4660 C   0  0  0  0  0  2  0  0  0  0  0  0
  -19.7510  -26.5650   21.4540 C   0  0  0  0  0  2  0  0  0  0  0  0
  -18.3750  -26.6420   22.1210 C   0  0  0  0  0  2  0  0  0  0  0  0
  -19.2690  -28.7350   23.2980 C   0  0  0  0  0  0  0  0  0  0  0  0
  -19.0230  -29.9670   23.9410 C   0  0  0  0  0  3  0  0  0  0  0  0
  -17.7070  -30.4230   24.1450 C   0  0  0  0  0  3  0  0  0  0  0  0
  -16.6200  -29.6420   23.7170 C   0  0  0  0  0  3  0  0  0  0  0  0
  -16.8510  -28.4110   23.0760 C   0  0  0  0  0  3  0  0  0  0  0  0
  -25.9000  -32.5790   23.8420 C   0  0  0  0  0  3  0  0  0  0  0  0
  -26.4350  -31.8010   25.1070 C   0  0  1  0  0  0  0  0  0  0  0  0
  -25.3490  -31.5330   26.1740 C   0  0  0  0  0  1  0  0  0  0  0  0
  -27.0420  -30.4380   24.6960 C   0  0  0  0  0  1  0  0  0  0  0  0
  -27.5710  -32.6070   25.7790 C   0  0  0  0  0  1  0  0  0  0  0  0
  -25.5770  -33.9710   24.1850 N   0  0  0  0  0  0  0  0  0  0  0  0
  -25.9040  -35.0330   23.4370 C   0  0  0  0  0  0  0  0  0  0  0  0
  -26.5790  -34.9460   22.4070 O   0  0  0  0  0  0  0  0  0  0  0  0
  -24.9760  -34.1100   24.9840 H   0  0  0  0  0  0  0  0  0  0  0  0
  -24.1740  -36.8240   23.0710 C   0  0  0  0  0  1  0  0  0  0  0  0
  -25.3990  -36.4120   23.9030 C   0  0  0  0  0  3  0  0  0  0  0  0
  -27.5070  -37.3020   24.7980 C   0  0  0  0  0  1  0  0  0  0  0  0
  -26.4270  -37.4730   23.8290 N   0  0  0  0  0  0  0  0  0  0  0  0
  -26.0120  -38.3880   23.9740 H   0  0  0  0  0  0  0  0  0  0  0  0
  -31.2100  -16.7490   17.8650 C   0  0  0  0  0  1  0  0  0  0  0  0
  -30.3280  -17.0380   19.1050 C   0  0  0  0  0  3  0  0  0  0  0  0
  -31.1860  -14.8950   20.2050 C   0  0  0  0  0  0  0  0  0  0  0  0
  -30.9170  -12.6510   19.2460 C   0  0  0  0  0  2  0  0  0  0  0  0
  -29.9850  -12.7720   18.0200 C   0  0  0  0  0  2  0  0  0  0  0  0
  -28.4990  -12.6940   18.4300 C   0  0  0  0  0  2  0  0  0  0  0  0
  -28.1570  -13.5920   19.6520 C   0  0  0  0  0  3  0  0  0  0  0  0
  -29.2040  -13.4390   20.7800 C   0  0  0  0  0  2  0  0  0  0  0  0
  -30.5340  -13.7010   20.2070 N   0  0  0  0  0  0  0  0  0  0  0  0
  -32.3790  -14.9960   19.9130 O   0  0  0  0  0  0  0  0  0  0  0  0
  -30.3670  -15.9740   20.1560 N   0  0  0  0  0  0  0  0  0  0  0  0
  -29.4640  -15.7890   20.5670 H   0  0  0  0  0  0  0  0  0  0  0  0
  -25.7870  -14.2560   20.4030 C   0  0  0  0  0  0  0  0  0  0  0  0
  -24.6940  -13.5100   20.7590 C   0  0  0  0  0  0  0  0  0  0  0  0
  -25.1130  -12.1450   20.6810 C   0  0  0  0  0  0  0  0  0  0  0  0
  -26.8000  -13.3480   20.1360 N   0  0  0  0  0  0  0  0  0  0  0  0
  -26.3970  -12.0720   20.3660 N   0  0  0  0  0  0  0  0  0  0  0  0
  -24.3470  -10.9010   20.8380 C   0  0  0  0  0  0  0  0  0  0  0  0
  -24.7210   -9.9250   21.7850 C   0  0  0  0  0  3  0  0  0  0  0  0
  -23.9670   -8.7400   21.9300 C   0  0  0  0  0  3  0  0  0  0  0  0
  -22.8190   -8.5280   21.1280 C   0  0  0  0  0  0  0  0  0  0  0  0
  -22.4620   -9.4960   20.1730 C   0  0  0  0  0  3  0  0  0  0  0  0
  -23.2180  -10.6700   20.0270 C   0  0  0  0  0  3  0  0  0  0  0  0
  -22.0330   -7.4030   21.1820 O   0  0  0  0  0  0  0  0  0  0  0  0
  -21.8670   -6.6940   22.3450 C   0  0  0  0  0  0  0  0  0  0  0  0
  -21.2970   -7.2750   23.4980 C   0  0  0  0  0  3  0  0  0  0  0  0
  -21.0870   -6.4930   24.6500 C   0  0  0  0  0  3  0  0  0  0  0  0
  -21.4310   -5.1280   24.6450 C   0  0  0  0  0  0  0  0  0  0  0  0
  -21.9860   -4.5420   23.4930 C   0  0  0  0  0  3  0  0  0  0  0  0
  -22.2000   -5.3230   22.3450 C   0  0  0  0  0  0  0  0  0  0  0  0
  -22.7200   -4.7520   21.2320 F   0  0  0  0  0  0  0  0  0  0  0  0
  -21.2200   -4.3710   25.7480 F   0  0  0  0  0  0  0  0  0  0  0  0
  -23.3160  -14.0220   21.0540 C   0  0  0  0  0  0  0  0  0  0  0  0
  -22.5700  -13.3240   21.9080 N   0  0  0  0  0  0  0  0  0  0  0  0
  -22.9070  -15.0720   20.5630 O   0  0  0  0  0  0  0  0  0  0  0  0
  -22.9130  -12.4740   22.3290 H   0  0  0  0  0  0  0  0  0  0  0  0
  -21.6430  -13.6470   22.1410 H   0  0  0  0  0  0  0  0  0  0  0  0
  -26.0030  -15.6270   20.2620 N   0  0  0  0  0  0  0  0  0  0  0  0
  -25.2630  -16.3090   20.3770 H   0  0  0  0  0  0  0  0  0  0  0  0
  -26.8590  -16.0330   19.9090 H   0  0  0  0  0  0  0  0  0  0  0  0
  1  7  2  0
  2  4  1  0
  3  2  1  0
  3  5  1  0
  4 10  1  0
  4  1  1  0
  5 57  1  0
  5  6  1  0
  6  1  1  0
  6  8  1  0
  9 10  1  0
  9 13  1  0
 10 12  1  0
 11  9  2  0
 13 14  1  0
 15 17  1  0
 15 14  1  0
 16 27  2  0
 17 22  1  0
 18 26  1  0
 18 28  1  0
 19 25  1  0
 19 21  1  0
 20 26  1  0
 21 20  1  0
 22 21  2  0
 23 24  1  0
 23 17  2  0
 24 19  2  0
 25 18  1  0
 26 16  1  0
 28 30  2  0
 29 28  1  0
 31 29  1  0
 32 41  2  0
 32 37  1  0
 33 29  1  0
 33 37  1  0
 34 33  1  0
 35 36  1  0
 35 34  1  0
 36 32  1  0
 37 38  2  0
 38 39  1  0
 40 39  2  0
 41 40  1  0
 42 16  1  0
 42 47  1  0
 42 43  1  0
 43 46  1  1
 43 44  1  0
 45 43  1  0
 47 50  1  0
 48 52  1  0
 48 47  1  0
 49 48  2  0
 52 51  1  0
 54 52  1  0
 54 55  1  0
 54 53  1  0
 57 56  1  0
 57 66  1  0
 58 64  1  0
 59 64  1  0
 60 61  1  0
 60 59  1  0
 62 61  1  0
 62 71  1  0
 62 63  1  0
 64 63  1  0
 65 58  2  0
 66 58  1  0
 66 67  1  0
 68 69  2  0
 69 88  1  0
 70 69  1  0
 70 73  1  0
 71 72  1  0
 71 68  1  0
 72 70  2  0
 73 74  1  0
 74 75  2  0
 76 79  1  0
 76 75  1  0
 77 76  2  0
 78 77  1  0
 78 73  2  0
 79 80  1  0
 80 81  1  0
 81 82  2  0
 83 82  1  0
 83 87  1  0
 84 83  2  0
 85 80  2  0
 85 84  1  0
 86 85  1  0
 88 89  1  0
 89 92  1  0
 89 91  1  0
 90 88  2  0
 93 94  1  0
 93 68  1  0
 95 93  1  0
M  ISO  4  14 101  15 101  58 100  66 100
M  END
>  <TORSDO>  (95) 
F 20

>  <SCORE>  (95) 
-12.010

>  <name>  (95) 
96

>  <ligand_id>  (95) 
96

>  <original_smiles>  (95) 
[H]c1c([H])c([H])c2c(c1[H])C([H])([H])C([H])([H])C([H])([H])C2([H])N([H])C(=O)C1([H])N(C(=O)C([H])(N([H])C(=O)C([H])(N([H])C([H])([H])[H])C([H])([H])[H])C(C([H])([H])[H])(C([H])([H])[H])C([H])([H])[H])C([H])([H])c2c([H])c(OC([H])([H])C([H])([H])C(=O)N([H])C3([H])C(=O)N([H])C([H])(C([H])(N([H])C(=O)N4C([H])([H])C([H])([H])C([H])([H])C([H])(n5nc(-c6c([H])c([H])c(Oc7c([H])c([H])c(F)c([H])c7F)c([H])c6[H])c(C(=O)N([H])[H])c5N([H])[H])C4([H])[H])C([H])([H])[H])C([H])([H])C3([H])[H])c([H])c([H])c2C1([H])[H]

>  <smiles>  (95) 
[H]c1c([H])c([H])c2c(c1[H])C([H])([H])C([H])([H])C([H])([H])C2([H])N([H])C(=O)C1([H])N(C(=O)C([H])(N([H])C(=O)C([H])(N([H])C([H])([H])[H])C([H])([H])[H])C(C([H])([H])[H])(C([H])([H])[H])C([H])([H])[H])C([H])([H])c2c([H])c(OC([H])([H])C([H])([H])C(=O)N([H])C3([H])C(=O)N([H])C([H])(C([H])(N([H])C(=O)N4C([H])([H])C([H])([H])C([H])([H])C([H])(n5nc(-c6c([H])c([H])c(Oc7c([H])c([H])c(F)c([H])c7F)c([H])c6[H])c(C(=O)N([H])[H])c5N([H])[H])C4([H])[H])C([H])([H])[H])C([H])([H])C3([H])[H])c([H])c([H])c2C1([H])[H]

$$$$
97:0:0
     RDKit          3D

 92100  0  0  1  0  0  0  0  0999 V2000
  -29.2440  -21.6190   19.9010 C   0  0  0  0  0  2  0  0  0  0  0  0
  -30.1680  -18.1410   21.5520 C   0  0  0  0  0  2  0  0  0  0  0  0
  -29.5180  -19.5610   21.3920 C   0  0  0  0  0  2  0  0  0  0  0  0
  -29.6770  -19.3320   18.9450 C   0  0  0  0  0  2  0  0  0  0  0  0
  -30.2840  -17.8820   19.0770 C   0  0  0  0  0  3  0  0  0  0  0  0
  -29.7830  -17.2070   20.3830 C   0  0  0  0  0  3  0  0  0  0  0  0
  -29.9400  -17.0680   17.8150 C   0  0  0  0  0  1  0  0  0  0  0  0
  -29.8890  -20.2520   20.1170 N   0  0  1  0  0  4  0  0  0  0  0  0
  -30.8840  -20.4160   20.1550 H   0  0  0  0  0  0  0  0  0  0  0  0
  -30.7770  -14.7290   20.2250 C   0  0  0  0  0  0  0  0  0  0  0  0
  -30.5620  -12.5140   19.1250 C   0  0  0  0  0  2  0  0  0  0  0  0
  -29.5730  -12.6680   17.9470 C   0  0  0  0  0  2  0  0  0  0  0  0
  -28.1140  -12.4940   18.4190 C   0  0  0  0  0  2  0  0  0  0  0  0
  -27.7960  -13.3280   19.6890 C   0  0  0  0  0  3  0  0  0  0  0  0
  -28.8920  -13.1350   20.7640 C   0  0  0  0  0  2  0  0  0  0  0  0
  -30.1860  -13.4950   20.1590 N   0  0  0  0  0  0  0  0  0  0  0  0
  -31.9050  -14.9440   19.7770 O   0  0  0  0  0  0  0  0  0  0  0  0
  -29.9270  -15.7240   20.6100 N   0  0  0  0  0  0  0  0  0  0  0  0
  -29.0910  -15.3220   21.0050 H   0  0  0  0  0  0  0  0  0  0  0  0
  -25.4250  -13.9160   20.4960 C   0  0  0  0  0  0  0  0  0  0  0  0
  -24.3700  -13.1330   20.8850 C   0  0  0  0  0  0  0  0  0  0  0  0
  -24.8310  -11.7830   20.8090 C   0  0  0  0  0  0  0  0  0  0  0  0
  -26.4610  -13.0410   20.2080 N   0  0  0  0  0  0  0  0  0  0  0  0
  -26.1110  -11.7530   20.4550 N   0  0  0  0  0  0  0  0  0  0  0  0
  -24.1140  -10.5160   20.9980 C   0  0  0  0  0  0  0  0  0  0  0  0
  -24.5470   -9.5550   21.9380 C   0  0  0  0  0  3  0  0  0  0  0  0
  -23.8300   -8.3510   22.1120 C   0  0  0  0  0  3  0  0  0  0  0  0
  -22.6690   -8.0990   21.3430 C   0  0  0  0  0  0  0  0  0  0  0  0
  -22.2570   -9.0480   20.3910 C   0  0  0  0  0  3  0  0  0  0  0  0
  -22.9730  -10.2440   20.2170 C   0  0  0  0  0  3  0  0  0  0  0  0
  -21.9260   -6.9470   21.4240 O   0  0  0  0  0  0  0  0  0  0  0  0
  -21.8200   -6.2390   22.5960 C   0  0  0  0  0  0  0  0  0  0  0  0
  -21.2680   -6.8100   23.7630 C   0  0  0  0  0  3  0  0  0  0  0  0
  -21.1130   -6.0270   24.9250 C   0  0  0  0  0  3  0  0  0  0  0  0
  -21.5030   -4.6740   24.9190 C   0  0  0  0  0  0  0  0  0  0  0  0
  -22.0490   -4.1030   23.7560 C   0  0  0  0  0  3  0  0  0  0  0  0
  -22.2040   -4.8830   22.5980 C   0  0  0  0  0  0  0  0  0  0  0  0
  -22.7120   -4.3230   21.4740 F   0  0  0  0  0  0  0  0  0  0  0  0
  -21.3470   -3.9190   26.0330 F   0  0  0  0  0  0  0  0  0  0  0  0
  -22.9820  -13.6020   21.2140 C   0  0  0  0  0  0  0  0  0  0  0  0
  -22.2840  -12.8850   22.0880 N   0  0  0  0  0  0  0  0  0  0  0  0
  -22.5260  -14.6390   20.7340 O   0  0  0  0  0  0  0  0  0  0  0  0
  -22.6690  -12.0480   22.5010 H   0  0  0  0  0  0  0  0  0  0  0  0
  -21.3540  -13.1810   22.3500 H   0  0  0  0  0  0  0  0  0  0  0  0
  -25.5830  -15.2890   20.3440 N   0  0  0  0  0  0  0  0  0  0  0  0
  -24.8140  -15.9380   20.4770 H   0  0  0  0  0  0  0  0  0  0  0  0
  -26.4030  -15.7280   19.9450 H   0  0  0  0  0  0  0  0  0  0  0  0
  -29.7040  -22.8010   20.8410 C   0  0  0  0  0  2  0  0  0  0  0  0
  -29.6330  -24.3200   20.3570 C   0  0  0  0  0  3  0  0  0  0  0  0
  -30.4730  -24.9750   21.1640 F   0  0  0  0  0  0  0  0  0  0  0  0
  -28.2930  -25.1510   20.3890 C   0  0  0  0  0  2  0  0  0  0  0  0
  -28.4480  -26.6130   20.2400 O   0  0  0  0  0  0  0  0  0  0  0  0
  -24.5620  -31.9220   23.1700 C   0  0  0  0  0  0  0  0  0  0  0  0
  -27.2960  -27.4040   20.1930 C   0  0  0  0  0  0  0  0  0  0  0  0
  -23.4020  -30.4890   21.5260 C   0  0  0  0  0  3  0  0  0  0  0  0
  -24.8980  -28.9540   20.1360 C   0  0  0  0  0  0  0  0  0  0  0  0
  -25.9350  -30.8590   21.3710 C   0  0  0  0  0  2  0  0  0  0  0  0
  -26.0480  -29.4760   20.7430 C   0  0  0  0  0  0  0  0  0  0  0  0
  -27.2500  -28.7120   20.7620 C   0  0  0  0  0  3  0  0  0  0  0  0
  -26.1230  -26.9300   19.5630 C   0  0  0  0  0  3  0  0  0  0  0  0
  -24.9380  -27.6870   19.5370 C   0  0  0  0  0  3  0  0  0  0  0  0
  -23.6460  -29.8060   20.1550 C   0  0  0  0  0  2  0  0  0  0  0  0
  -24.6510  -31.1070   22.0810 N   0  0  0  0  0  0  0  0  0  0  0  0
  -23.4660  -32.1850   23.6880 O   0  0  0  0  0  0  0  0  0  0  0  0
  -22.7460  -29.4680   22.4840 C   0  0  0  0  0  0  0  0  0  0  0  0
  -21.4230  -29.2750   22.3480 N   0  0  0  0  0  0  0  0  0  0  0  0
  -23.4240  -28.8520   23.3120 O   0  0  0  0  0  0  0  0  0  0  0  0
  -20.9350  -29.8240   21.6540 H   0  0  0  0  0  0  0  0  0  0  0  0
  -18.0480  -28.0780   22.8520 C   0  0  0  0  0  0  0  0  0  0  0  0
  -20.6080  -28.3350   23.1170 C   0  0  0  0  0  3  0  0  0  0  0  0
  -20.7060  -26.9060   22.5330 C   0  0  0  0  0  2  0  0  0  0  0  0
  -19.6010  -26.5900   21.5200 C   0  0  0  0  0  2  0  0  0  0  0  0
  -18.2220  -26.7330   22.1700 C   0  0  0  0  0  2  0  0  0  0  0  0
  -19.1680  -28.8380   23.2830 C   0  0  0  0  0  0  0  0  0  0  0  0
  -18.9520  -30.0970   23.8810 C   0  0  0  0  0  3  0  0  0  0  0  0
  -17.6480  -30.6000   24.0520 C   0  0  0  0  0  3  0  0  0  0  0  0
  -16.5420  -29.8380   23.6360 C   0  0  0  0  0  3  0  0  0  0  0  0
  -16.7440  -28.5780   23.0440 C   0  0  0  0  0  3  0  0  0  0  0  0
  -25.8260  -32.5790   23.8050 C   0  0  0  0  0  3  0  0  0  0  0  0
  -26.3480  -31.8160   25.0840 C   0  0  1  0  0  0  0  0  0  0  0  0
  -25.2490  -31.5490   26.1380 C   0  0  0  0  0  1  0  0  0  0  0  0
  -26.9690  -30.4560   24.6930 C   0  0  0  0  0  1  0  0  0  0  0  0
  -27.4710  -32.6360   25.7620 C   0  0  0  0  0  1  0  0  0  0  0  0
  -25.4830  -33.9700   24.1350 N   0  0  0  0  0  0  0  0  0  0  0  0
  -25.8030  -35.0310   23.3830 C   0  0  0  0  0  0  0  0  0  0  0  0
  -26.4860  -34.9440   22.3590 O   0  0  0  0  0  0  0  0  0  0  0  0
  -24.8740  -34.1100   24.9290 H   0  0  0  0  0  0  0  0  0  0  0  0
  -24.0550  -36.7990   22.9970 C   0  0  0  0  0  1  0  0  0  0  0  0
  -25.2820  -36.4080   23.8380 C   0  0  0  0  0  3  0  0  0  0  0  0
  -27.3760  -37.3240   24.7380 C   0  0  0  0  0  1  0  0  0  0  0  0
  -26.3010  -37.4770   23.7600 N   0  0  0  0  0  0  0  0  0  0  0  0
  -25.8760  -38.3910   23.8960 H   0  0  0  0  0  0  0  0  0  0  0  0
  1  8  1  0
  1 48  1  0
  3  2  1  0
  4  5  1  0
  4  8  1  0
  5  7  1  0
  5  6  1  0
  6 18  1  0
  6  2  1  0
  8  9  1  1
  8  3  1  0
 10 18  1  0
 11 16  1  0
 12 13  1  0
 12 11  1  0
 14 13  1  0
 14 23  1  0
 14 15  1  0
 16 10  1  0
 16 15  1  0
 17 10  2  0
 18 19  1  0
 20 21  2  0
 21 40  1  0
 22 21  1  0
 22 25  1  0
 23 24  1  0
 23 20  1  0
 24 22  2  0
 25 26  1  0
 26 27  2  0
 28 31  1  0
 28 27  1  0
 29 28  2  0
 30 29  1  0
 30 25  2  0
 31 32  1  0
 32 37  2  0
 32 33  1  0
 33 34  2  0
 35 34  1  0
 35 39  1  0
 36 35  2  0
 37 36  1  0
 38 37  1  0
 40 41  1  0
 41 44  1  0
 41 43  1  0
 42 40  2  0
 45 46  1  0
 45 20  1  0
 47 45  1  0
 49 51  1  0
 49 48  1  0
 49 50  1  0
 52 51  1  0
 53 64  2  0
 54 52  1  0
 54 59  1  0
 55 63  1  0
 55 65  1  0
 56 62  1  0
 56 58  1  0
 57 63  1  0
 58 59  2  0
 58 57  1  0
 60 54  2  0
 61 60  1  0
 61 56  2  0
 62 55  1  0
 63 53  1  0
 65 67  2  0
 66 65  1  0
 68 66  1  0
 69 78  2  0
 69 74  1  0
 70 66  1  0
 70 74  1  0
 71 70  1  0
 72 73  1  0
 72 71  1  0
 73 69  1  0
 74 75  2  0
 75 76  1  0
 77 76  2  0
 78 77  1  0
 79 53  1  0
 79 84  1  0
 79 80  1  0
 80 83  1  1
 80 81  1  0
 82 80  1  0
 84 87  1  0
 85 89  1  0
 85 84  1  0
 86 85  2  0
 89 88  1  0
 91 89  1  0
 91 92  1  0
 91 90  1  0
M  ISO  4  10 100  18 100  51 101  52 101
M  END
>  <TORSDO>  (96) 
F 20

>  <SCORE>  (96) 
-12.956

>  <name>  (96) 
97

>  <ligand_id>  (96) 
97

>  <original_smiles>  (96) 
[H]c1c([H])c([H])c2c(c1[H])C([H])([H])C([H])([H])C([H])([H])C2([H])N([H])C(=O)C1([H])N(C(=O)C([H])(N([H])C(=O)C([H])(N([H])C([H])([H])[H])C([H])([H])[H])C(C([H])([H])[H])(C([H])([H])[H])C([H])([H])[H])C([H])([H])c2c([H])c(OC([H])([H])C([H])(F)C([H])([H])C([H])([H])[N+]3([H])C([H])([H])C([H])([H])C([H])(N([H])C(=O)N4C([H])([H])C([H])([H])C([H])([H])C([H])(n5nc(-c6c([H])c([H])c(Oc7c([H])c([H])c(F)c([H])c7F)c([H])c6[H])c(C(=O)N([H])[H])c5N([H])[H])C4([H])[H])C([H])(C([H])([H])[H])C3([H])[H])c([H])c([H])c2C1([H])[H]

>  <smiles>  (96) 
[H]c1c([H])c([H])c2c(c1[H])C([H])([H])C([H])([H])C([H])([H])C2([H])N([H])C(=O)C1([H])N(C(=O)C([H])(N([H])C(=O)C([H])(N([H])C([H])([H])[H])C([H])([H])[H])C(C([H])([H])[H])(C([H])([H])[H])C([H])([H])[H])C([H])([H])c2c([H])c(OC([H])([H])C([H])(F)C([H])([H])C([H])([H])[N+]3([H])C([H])([H])C([H])([H])C([H])(N([H])C(=O)N4C([H])([H])C([H])([H])C([H])([H])C([H])(n5nc(-c6c([H])c([H])c(Oc7c([H])c([H])c(F)c([H])c7F)c([H])c6[H])c(C(=O)N([H])[H])c5N([H])[H])C4([H])[H])C([H])(C([H])([H])[H])C3([H])[H])c([H])c([H])c2C1([H])[H]

$$$$
98:0:0
     RDKit          3D

 95103  0  0  1  0  0  0  0  0999 V2000
  -26.9620  -20.3140   19.2050 C   0  0  0  0  0  2  0  0  0  0  0  0
  -28.7370  -18.6330   18.5740 C   0  0  0  0  0  2  0  0  0  0  0  0
  -27.7620  -20.3160   20.5440 C   0  0  0  0  0  2  0  0  0  0  0  0
  -27.7650  -19.6950   18.0240 C   0  0  0  0  0  3  0  0  0  0  0  0
  -29.7540  -19.2190   19.6020 C   0  0  0  0  0  3  0  0  0  0  0  0
  -29.2060  -20.5650   20.3070 N   0  0  1  0  0  4  0  0  0  0  0  0
  -29.6590  -20.5870   21.2100 H   0  0  0  0  0  0  0  0  0  0  0  0
  -26.9050  -19.1900   16.9340 N   0  0  0  0  0  4  0  0  0  0  0  0
  -26.2400  -18.5110   17.2580 H   0  0  0  0  0  0  0  0  0  0  0  0
  -27.4570  -18.7590   16.2110 H   0  0  0  0  0  0  0  0  0  0  0  0
  -26.4070  -19.9440   16.4920 H   0  0  0  0  0  0  0  0  0  0  0  0
  -30.3820  -17.9070   20.4810 C   0  0  0  0  0  2  0  0  0  0  0  0
  -30.8460  -15.1720   20.1310 C   0  0  0  0  0  0  0  0  0  0  0  0
  -30.6600  -12.8440   19.1460 C   0  0  0  0  0  2  0  0  0  0  0  0
  -29.6960  -12.8700   17.9360 C   0  0  0  0  0  2  0  0  0  0  0  0
  -28.2320  -12.6860   18.3910 C   0  0  0  0  0  2  0  0  0  0  0  0
  -27.8830  -13.5530   19.6320 C   0  0  0  0  0  3  0  0  0  0  0  0
  -28.9790  -13.5050   20.7200 C   0  0  0  0  0  2  0  0  0  0  0  0
  -30.2300  -13.9220   20.0760 N   0  0  0  0  0  0  0  0  0  0  0  0
  -32.0490  -15.2260   19.8660 O   0  0  0  0  0  0  0  0  0  0  0  0
  -30.0760  -16.3580   20.2760 N   0  0  0  0  0  0  0  0  0  0  0  0
  -29.1130  -16.1320   20.4690 H   0  0  0  0  0  0  0  0  0  0  0  0
  -25.5170  -14.1390   20.4120 C   0  0  0  0  0  0  0  0  0  0  0  0
  -24.4490  -13.3640   20.7840 C   0  0  0  0  0  0  0  0  0  0  0  0
  -24.9050  -12.0110   20.7310 C   0  0  0  0  0  0  0  0  0  0  0  0
  -26.5520  -13.2550   20.1500 N   0  0  0  0  0  0  0  0  0  0  0  0
  -26.1930  -11.9710   20.4050 N   0  0  0  0  0  0  0  0  0  0  0  0
  -24.1690  -10.7540   20.9210 C   0  0  0  0  0  0  0  0  0  0  0  0
  -24.5720   -9.7960   21.8770 C   0  0  0  0  0  3  0  0  0  0  0  0
  -23.8340   -8.6050   22.0530 C   0  0  0  0  0  3  0  0  0  0  0  0
  -22.6780   -8.3640   21.2740 C   0  0  0  0  0  0  0  0  0  0  0  0
  -22.2920   -9.3110   20.3080 C   0  0  0  0  0  3  0  0  0  0  0  0
  -23.0320  -10.4930   20.1300 C   0  0  0  0  0  3  0  0  0  0  0  0
  -21.9180   -7.2210   21.3560 O   0  0  0  0  0  0  0  0  0  0  0  0
  -21.8010   -6.5150   22.5260 C   0  0  0  0  0  0  0  0  0  0  0  0
  -21.2530   -7.0930   23.6920 C   0  0  0  0  0  3  0  0  0  0  0  0
  -21.0870   -6.3140   24.8520 C   0  0  0  0  0  3  0  0  0  0  0  0
  -21.4580   -4.9560   24.8500 C   0  0  0  0  0  0  0  0  0  0  0  0
  -21.9980   -4.3770   23.6880 C   0  0  0  0  0  3  0  0  0  0  0  0
  -22.1660   -5.1540   22.5280 C   0  0  0  0  0  0  0  0  0  0  0  0
  -22.6650   -4.5850   21.4060 F   0  0  0  0  0  0  0  0  0  0  0  0
  -21.2920   -4.2040   25.9650 F   0  0  0  0  0  0  0  0  0  0  0  0
  -23.0620  -13.8520   21.0790 C   0  0  0  0  0  0  0  0  0  0  0  0
  -22.3460  -13.1580   21.9580 N   0  0  0  0  0  0  0  0  0  0  0  0
  -22.6220  -14.8780   20.5670 O   0  0  0  0  0  0  0  0  0  0  0  0
  -22.7180  -12.3260   22.3910 H   0  0  0  0  0  0  0  0  0  0  0  0
  -21.4160  -13.4680   22.2010 H   0  0  0  0  0  0  0  0  0  0  0  0
  -25.6820  -15.5090   20.2490 N   0  0  0  0  0  0  0  0  0  0  0  0
  -24.9230  -16.1580   20.4080 H   0  0  0  0  0  0  0  0  0  0  0  0
  -26.5310  -15.9580   19.9360 H   0  0  0  0  0  0  0  0  0  0  0  0
  -29.3860  -22.0660   19.7520 C   0  0  0  0  0  2  0  0  0  0  0  0
  -28.8220  -23.4800   20.5270 C   0  0  0  0  0  3  0  0  0  0  0  0
  -27.6040  -23.2310   21.0010 F   0  0  0  0  0  0  0  0  0  0  0  0
  -28.6460  -25.0090   19.8290 C   0  0  0  0  0  2  0  0  0  0  0  0
  -28.4460  -26.3950   20.5130 O   0  0  0  0  0  0  0  0  0  0  0  0
  -24.5870  -31.9850   23.3290 C   0  0  0  0  0  0  0  0  0  0  0  0
  -27.3320  -27.3040   20.3900 C   0  0  0  0  0  0  0  0  0  0  0  0
  -23.4440  -30.5520   21.6790 C   0  0  0  0  0  3  0  0  0  0  0  0
  -24.9510  -28.9840   20.2980 C   0  0  0  0  0  0  0  0  0  0  0  0
  -25.9940  -30.8600   21.5610 C   0  0  0  0  0  2  0  0  0  0  0  0
  -26.1040  -29.4640   20.9290 C   0  0  0  0  0  0  0  0  0  0  0  0
  -27.2860  -28.6380   20.9630 C   0  0  0  0  0  3  0  0  0  0  0  0
  -26.1420  -26.9130   19.7330 C   0  0  0  0  0  3  0  0  0  0  0  0
  -24.9810  -27.7180   19.6910 C   0  0  0  0  0  3  0  0  0  0  0  0
  -23.7010  -29.8510   20.3170 C   0  0  0  0  0  2  0  0  0  0  0  0
  -24.6950  -31.1550   22.2460 N   0  0  0  0  0  0  0  0  0  0  0  0
  -23.4860  -32.2590   23.8310 O   0  0  0  0  0  0  0  0  0  0  0  0
  -22.7610  -29.5470   22.6410 C   0  0  0  0  0  0  0  0  0  0  0  0
  -21.4450  -29.3330   22.4680 N   0  0  0  0  0  0  0  0  0  0  0  0
  -23.4200  -28.9620   23.5040 O   0  0  0  0  0  0  0  0  0  0  0  0
  -20.9690  -29.8530   21.7430 H   0  0  0  0  0  0  0  0  0  0  0  0
  -18.0900  -28.0310   22.8570 C   0  0  0  0  0  0  0  0  0  0  0  0
  -20.6230  -28.3860   23.2260 C   0  0  0  0  0  3  0  0  0  0  0  0
  -20.7990  -26.9470   22.6900 C   0  0  0  0  0  2  0  0  0  0  0  0
  -19.7540  -26.5640   21.6370 C   0  0  0  0  0  2  0  0  0  0  0  0
  -18.3410  -26.6760   22.2180 C   0  0  0  0  0  2  0  0  0  0  0  0
  -19.1620  -28.8420   23.3160 C   0  0  0  0  0  0  0  0  0  0  0  0
  -18.8760  -30.1080   23.8710 C   0  0  0  0  0  3  0  0  0  0  0  0
  -17.5470  -30.5650   23.9710 C   0  0  0  0  0  3  0  0  0  0  0  0
  -16.4890  -29.7530   23.5310 C   0  0  0  0  0  3  0  0  0  0  0  0
  -16.7600  -28.4880   22.9820 C   0  0  0  0  0  3  0  0  0  0  0  0
  -25.8430  -32.6420   23.9810 C   0  0  0  0  0  3  0  0  0  0  0  0
  -25.5190  -34.0560   24.2420 N   0  0  0  0  0  0  0  0  0  0  0  0
  -25.8730  -35.0810   23.4550 C   0  0  0  0  0  0  0  0  0  0  0  0
  -26.5740  -34.9390   22.4500 O   0  0  0  0  0  0  0  0  0  0  0  0
  -24.8960  -34.2400   25.0150 H   0  0  0  0  0  0  0  0  0  0  0  0
  -24.1550  -36.8600   22.9860 C   0  0  0  0  0  1  0  0  0  0  0  0
  -25.3720  -36.4860   23.8470 C   0  0  0  0  0  3  0  0  0  0  0  0
  -27.4760  -37.4140   24.7100 C   0  0  0  0  0  1  0  0  0  0  0  0
  -26.4060  -37.5350   23.7220 N   0  0  0  0  0  0  0  0  0  0  0  0
  -25.9940  -38.4600   23.8090 H   0  0  0  0  0  0  0  0  0  0  0  0
  -26.3000  -31.9290   25.3130 C   0  0  1  0  0  0  0  0  0  0  0  0
  -25.1550  -31.7280   26.3340 C   0  0  0  0  0  1  0  0  0  0  0  0
  -26.9110  -30.5420   25.0130 C   0  0  0  0  0  1  0  0  0  0  0  0
  -27.4110  -32.7600   25.9960 C   0  0  0  0  0  1  0  0  0  0  0  0
  1  3  1  0
  2  5  1  0
  4  8  1  0
  4  2  1  0
  4  1  1  0
  5  6  1  0
  5 12  1  0
  6  3  1  0
  6  7  1  1
  8  9  1  0
 10  8  1  0
 11  8  1  0
 13 21  1  0
 14 19  1  0
 15 16  1  0
 15 14  1  0
 17 16  1  0
 17 26  1  0
 17 18  1  0
 19 13  1  0
 19 18  1  0
 20 13  2  0
 21 22  1  0
 21 12  1  0
 23 24  2  0
 24 43  1  0
 25 24  1  0
 25 28  1  0
 26 27  1  0
 26 23  1  0
 27 25  2  0
 28 29  1  0
 29 30  2  0
 31 34  1  0
 31 30  1  0
 32 31  2  0
 33 32  1  0
 33 28  2  0
 34 35  1  0
 35 40  2  0
 35 36  1  0
 36 37  2  0
 38 37  1  0
 38 42  1  0
 39 38  2  0
 40 39  1  0
 41 40  1  0
 43 44  1  0
 44 47  1  0
 44 46  1  0
 45 43  2  0
 48 49  1  0
 48 23  1  0
 50 48  1  0
 51  6  1  0
 51 52  1  0
 52 53  1  0
 54 55  1  0
 54 52  1  0
 56 67  2  0
 57 55  1  0
 57 62  1  0
 58 66  1  0
 58 68  1  0
 59 65  1  0
 59 61  1  0
 60 66  1  0
 61 62  2  0
 61 60  1  0
 63 57  2  0
 64 63  1  0
 64 59  2  0
 65 58  1  0
 66 56  1  0
 68 70  2  0
 69 68  1  0
 71 69  1  0
 72 81  2  0
 72 77  1  0
 73 69  1  0
 73 77  1  0
 74 73  1  0
 75 76  1  0
 75 74  1  0
 76 72  1  0
 77 78  2  0
 78 79  1  0
 80 79  2  0
 81 80  1  0
 82 56  1  0
 82 83  1  0
 82 92  1  0
 83 86  1  0
 84 88  1  0
 84 83  1  0
 85 84  2  0
 88 87  1  0
 90 91  1  0
 90 88  1  0
 90 89  1  0
 92 95  1  1
 92 93  1  0
 94 92  1  0
M  ISO  4  13 100  21 100  54 101  55 101
M  END
>  <TORSDO>  (97) 
F 21

>  <SCORE>  (97) 
-13.912

>  <name>  (97) 
98

>  <ligand_id>  (97) 
98

>  <original_smiles>  (97) 
[H]c1c([H])c([H])c2c(c1[H])C([H])([H])C([H])([H])C([H])([H])C2([H])N([H])C(=O)C1([H])N(C(=O)C([H])(N([H])C(=O)C([H])(N([H])C([H])([H])[H])C([H])([H])[H])C(C([H])([H])[H])(C([H])([H])[H])C([H])([H])[H])C([H])([H])c2c([H])c(OC([H])([H])C([H])(F)C([H])([H])[N+]3([H])C([H])([H])C([H])([H])C([H])([N+]([H])([H])[H])C([H])([H])C3([H])C([H])([H])N([H])C(=O)N3C([H])([H])C([H])([H])C([H])([H])C([H])(n4nc(-c5c([H])c([H])c(Oc6c([H])c([H])c(F)c([H])c6F)c([H])c5[H])c(C(=O)N([H])[H])c4N([H])[H])C3([H])[H])c([H])c([H])c2C1([H])[H]

>  <smiles>  (97) 
[H]c1c([H])c([H])c2c(c1[H])C([H])([H])C([H])([H])C([H])([H])C2([H])N([H])C(=O)C1([H])N(C(=O)C([H])(N([H])C(=O)C([H])(N([H])C([H])([H])[H])C([H])([H])[H])C(C([H])([H])[H])(C([H])([H])[H])C([H])([H])[H])C([H])([H])c2c([H])c(OC([H])([H])C([H])(F)C([H])([H])[N+]3([H])C([H])([H])C([H])([H])C([H])([N+]([H])([H])[H])C([H])([H])C3([H])C([H])([H])N([H])C(=O)N3C([H])([H])C([H])([H])C([H])([H])C([H])(n4nc(-c5c([H])c([H])c(Oc6c([H])c([H])c(F)c([H])c6F)c([H])c5[H])c(C(=O)N([H])[H])c4N([H])[H])C3([H])[H])c([H])c([H])c2C1([H])[H]

$$$$
