0:0:0
     RDKit          3D

 93101  0  0  1  0  0  0  0  0999 V2000
  -29.4070  -21.1860   20.7280 C   0  0  0  0  0  2  0  0  0  0  0  0
  -30.3090  -17.4140   18.4840 C   0  0  0  0  0  3  0  0  0  0  0  0
  -30.2430  -18.6700   17.8440 C   0  0  0  0  0  3  0  0  0  0  0  0
  -29.6540  -19.8180   19.9380 C   0  0  0  0  0  0  0  0  0  0  0  0
  -30.0390  -17.2740   19.8640 C   0  0  0  0  0  0  0  0  0  0  0  0
  -29.9270  -19.8500   18.5520 C   0  0  0  0  0  0  0  0  0  0  0  0
  -29.6970  -18.5030   20.5720 C   0  0  0  0  0  0  0  0  0  0  0  0
  -29.9070  -21.0240   17.8740 F   0  0  0  0  0  0  0  0  0  0  0  0
  -29.4110  -18.4160   21.8930 F   0  0  0  0  0  0  0  0  0  0  0  0
  -30.7520  -14.7820   20.0860 C   0  0  0  0  0  0  0  0  0  0  0  0
  -30.5050  -12.5170   19.0740 C   0  0  0  0  0  2  0  0  0  0  0  0
  -29.5200  -12.6310   17.8880 C   0  0  0  0  0  2  0  0  0  0  0  0
  -28.0650  -12.4660   18.3680 C   0  0  0  0  0  2  0  0  0  0  0  0
  -27.7510  -13.3180   19.6270 C   0  0  0  0  0  3  0  0  0  0  0  0
  -28.8550  -13.1960   20.7020 C   0  0  0  0  0  2  0  0  0  0  0  0
  -30.1310  -13.5530   20.0670 N   0  0  0  0  0  0  0  0  0  0  0  0
  -31.9020  -14.8930   19.6530 O   0  0  0  0  0  0  0  0  0  0  0  0
  -30.0230  -15.9070   20.4490 N   0  0  0  0  0  0  0  0  0  0  0  0
  -29.2330  -15.7200   21.0500 H   0  0  0  0  0  0  0  0  0  0  0  0
  -25.4010  -13.8970   20.4790 C   0  0  0  0  0  0  0  0  0  0  0  0
  -24.3480  -13.1180   20.8750 C   0  0  0  0  0  0  0  0  0  0  0  0
  -24.8010  -11.7660   20.7820 C   0  0  0  0  0  0  0  0  0  0  0  0
  -26.4270  -13.0210   20.1690 N   0  0  0  0  0  0  0  0  0  0  0  0
  -26.0750  -11.7300   20.4120 N   0  0  0  0  0  0  0  0  0  0  0  0
  -24.0740  -10.5010   20.9680 C   0  0  0  0  0  0  0  0  0  0  0  0
  -24.5010   -9.5370   21.9050 C   0  0  0  0  0  3  0  0  0  0  0  0
  -23.7770   -8.3370   22.0800 C   0  0  0  0  0  3  0  0  0  0  0  0
  -22.6110   -8.0960   21.3150 C   0  0  0  0  0  0  0  0  0  0  0  0
  -22.2030   -9.0510   20.3650 C   0  0  0  0  0  3  0  0  0  0  0  0
  -22.9280  -10.2410   20.1890 C   0  0  0  0  0  3  0  0  0  0  0  0
  -21.8550   -6.9510   21.3980 O   0  0  0  0  0  0  0  0  0  0  0  0
  -21.7380   -6.2500   22.5710 C   0  0  0  0  0  0  0  0  0  0  0  0
  -21.1750   -6.8270   23.7310 C   0  0  0  0  0  3  0  0  0  0  0  0
  -21.0090   -6.0480   24.8930 C   0  0  0  0  0  3  0  0  0  0  0  0
  -21.3950   -4.6960   24.8990 C   0  0  0  0  0  0  0  0  0  0  0  0
  -21.9510   -4.1180   23.7430 C   0  0  0  0  0  3  0  0  0  0  0  0
  -22.1200   -4.8930   22.5830 C   0  0  0  0  0  0  0  0  0  0  0  0
  -22.6350   -4.3250   21.4660 F   0  0  0  0  0  0  0  0  0  0  0  0
  -21.2300   -3.9470   26.0140 F   0  0  0  0  0  0  0  0  0  0  0  0
  -22.9670  -13.5940   21.2250 C   0  0  0  0  0  0  0  0  0  0  0  0
  -22.2740  -12.8740   22.1000 N   0  0  0  0  0  0  0  0  0  0  0  0
  -22.5140  -14.6400   20.7610 O   0  0  0  0  0  0  0  0  0  0  0  0
  -22.6540  -12.0290   22.4990 H   0  0  0  0  0  0  0  0  0  0  0  0
  -21.3490  -13.1710   22.3760 H   0  0  0  0  0  0  0  0  0  0  0  0
  -25.5690  -15.2710   20.3300 N   0  0  0  0  0  0  0  0  0  0  0  0
  -24.8170  -15.9320   20.4870 H   0  0  0  0  0  0  0  0  0  0  0  0
  -26.4020  -15.7040   19.9510 H   0  0  0  0  0  0  0  0  0  0  0  0
  -28.9890  -23.7870   20.5230 C   0  0  0  0  0  0  0  0  0  0  0  0
  -28.9090  -22.4760   20.0740 N   0  0  0  0  0  0  0  0  0  0  0  0
  -29.6810  -24.0690   21.5030 O   0  0  0  0  0  0  0  0  0  0  0  0
  -28.3600  -22.3440   19.2330 H   0  0  0  0  0  0  0  0  0  0  0  0
  -28.1310  -24.9470   19.8290 C   0  0  0  0  0  2  0  0  0  0  0  0
  -28.2960  -26.3760   20.2840 O   0  0  0  0  0  0  0  0  0  0  0  0
  -24.5740  -31.8970   23.1790 C   0  0  0  0  0  0  0  0  0  0  0  0
  -27.2010  -27.2710   20.1820 C   0  0  0  0  0  0  0  0  0  0  0  0
  -23.3810  -30.4790   21.5480 C   0  0  0  0  0  3  0  0  0  0  0  0
  -24.8420  -28.9160   20.1440 C   0  0  0  0  0  0  0  0  0  0  0  0
  -25.9250  -30.7850   21.3810 C   0  0  0  0  0  2  0  0  0  0  0  0
  -26.0080  -29.3960   20.7520 C   0  0  0  0  0  0  0  0  0  0  0  0
  -27.1870  -28.5820   20.7700 C   0  0  0  0  0  3  0  0  0  0  0  0
  -26.0180  -26.8790   19.5110 C   0  0  0  0  0  3  0  0  0  0  0  0
  -24.8520  -27.6650   19.5130 C   0  0  0  0  0  3  0  0  0  0  0  0
  -23.6050  -29.7920   20.1750 C   0  0  0  0  0  2  0  0  0  0  0  0
  -24.6440  -31.0730   22.0910 N   0  0  0  0  0  0  0  0  0  0  0  0
  -23.4860  -32.1780   23.7040 O   0  0  0  0  0  0  0  0  0  0  0  0
  -22.7150  -29.4720   22.5160 C   0  0  0  0  0  0  0  0  0  0  0  0
  -21.3880  -29.2940   22.3890 N   0  0  0  0  0  0  0  0  0  0  0  0
  -23.3890  -28.8550   23.3450 O   0  0  0  0  0  0  0  0  0  0  0  0
  -20.9020  -29.8440   21.6950 H   0  0  0  0  0  0  0  0  0  0  0  0
  -18.0050  -28.1270   22.9220 C   0  0  0  0  0  0  0  0  0  0  0  0
  -20.5680  -28.3640   23.1680 C   0  0  0  0  0  3  0  0  0  0  0  0
  -20.6520  -26.9300   22.5940 C   0  0  0  0  0  2  0  0  0  0  0  0
  -19.5380  -26.6160   21.5900 C   0  0  0  0  0  2  0  0  0  0  0  0
  -18.1630  -26.7760   22.2470 C   0  0  0  0  0  2  0  0  0  0  0  0
  -19.1340  -28.8800   23.3410 C   0  0  0  0  0  0  0  0  0  0  0  0
  -18.9320  -30.1430   23.9360 C   0  0  0  0  0  3  0  0  0  0  0  0
  -17.6330  -30.6560   24.1160 C   0  0  0  0  0  3  0  0  0  0  0  0
  -16.5190  -29.9010   23.7120 C   0  0  0  0  0  3  0  0  0  0  0  0
  -16.7050  -28.6390   23.1220 C   0  0  0  0  0  3  0  0  0  0  0  0
  -25.8520  -32.5390   23.7980 C   0  0  0  0  0  3  0  0  0  0  0  0
  -26.3910  -31.7580   25.0590 C   0  0  1  0  0  0  0  0  0  0  0  0
  -25.3100  -31.4800   26.1290 C   0  0  0  0  0  1  0  0  0  0  0  0
  -26.9990  -30.3970   24.6430 C   0  0  0  0  0  1  0  0  0  0  0  0
  -27.5310  -32.5620   25.7270 C   0  0  0  0  0  1  0  0  0  0  0  0
  -25.5260  -33.9280   24.1520 N   0  0  0  0  0  0  0  0  0  0  0  0
  -25.8290  -34.9970   23.4040 C   0  0  0  0  0  0  0  0  0  0  0  0
  -26.4830  -34.9190   22.3600 O   0  0  0  0  0  0  0  0  0  0  0  0
  -24.9440  -34.0610   24.9670 H   0  0  0  0  0  0  0  0  0  0  0  0
  -24.0820  -36.7810   23.0860 C   0  0  0  0  0  1  0  0  0  0  0  0
  -25.3280  -36.3720   23.8890 C   0  0  0  0  0  3  0  0  0  0  0  0
  -27.4480  -37.2710   24.7430 C   0  0  0  0  0  1  0  0  0  0  0  0
  -26.3490  -37.4380   23.7950 N   0  0  0  0  0  0  0  0  0  0  0  0
  -25.9320  -38.3530   23.9490 H   0  0  0  0  0  0  0  0  0  0  0  0
  2  5  1  0
  3  2  2  0
  3  6  1  0
  4  7  1  0
  4  1  1  0
  5 18  1  0
  5  7  2  0
  6  4  2  0
  7  9  1  0
  8  6  1  0
 10 18  1  0
 11 16  1  0
 12 13  1  0
 12 11  1  0
 14 13  1  0
 14 23  1  0
 14 15  1  0
 16 10  1  0
 16 15  1  0
 17 10  2  0
 18 19  1  0
 20 21  2  0
 21 40  1  0
 22 21  1  0
 22 25  1  0
 23 24  1  0
 23 20  1  0
 24 22  2  0
 25 26  1  0
 26 27  2  0
 28 31  1  0
 28 27  1  0
 29 28  2  0
 30 29  1  0
 30 25  2  0
 31 32  1  0
 32 37  2  0
 32 33  1  0
 33 34  2  0
 34 35  1  0
 35 39  1  0
 36 35  2  0
 37 36  1  0
 38 37  1  0
 40 41  1  0
 41 44  1  0
 41 43  1  0
 42 40  2  0
 45 20  1  0
 45 46  1  0
 47 45  1  0
 48 50  2  0
 49 48  1  0
 49  1  1  0
 51 49  1  0
 52 53  1  0
 52 48  1  0
 54 65  2  0
 55 53  1  0
 55 60  1  0
 56 64  1  0
 56 66  1  0
 57 63  1  0
 57 59  1  0
 58 64  1  0
 59 60  2  0
 59 58  1  0
 61 62  1  0
 61 55  2  0
 62 57  2  0
 63 56  1  0
 64 54  1  0
 66 68  2  0
 67 66  1  0
 69 67  1  0
 70 79  2  0
 70 75  1  0
 71 67  1  0
 71 75  1  0
 72 71  1  0
 73 74  1  0
 73 72  1  0
 74 70  1  0
 75 76  2  0
 76 77  1  0
 78 77  2  0
 79 78  1  0
 80 54  1  0
 80 85  1  0
 80 81  1  0
 81 84  1  1
 81 82  1  0
 83 81  1  0
 85 88  1  0
 86 90  1  0
 86 85  1  0
 87 86  2  0
 90 89  1  0
 92 90  1  0
 92 93  1  0
 92 91  1  0
M  ISO  4  10 100  18 100  52 101  53 101
M  END
>  <TORSDO>  (1) 
F 19

>  <SCORE>  (1) 
-13.898

>  <name>  (1) 
0

>  <ligand_id>  (1) 
0

>  <original_smiles>  (1) 
[H]c1c([H])c([H])c2c(c1[H])C([H])([H])C([H])([H])C([H])([H])C2([H])N([H])C(=O)C1([H])N(C(=O)C([H])(N([H])C(=O)C([H])(N([H])C([H])([H])[H])C([H])([H])[H])C(C([H])([H])[H])(C([H])([H])[H])C([H])([H])[H])C([H])([H])c2c([H])c(OC([H])([H])C(=O)N([H])C([H])([H])c3c(F)c([H])c([H])c(N([H])C(=O)N4C([H])([H])C([H])([H])C([H])([H])C([H])(n5nc(-c6c([H])c([H])c(Oc7c([H])c([H])c(F)c([H])c7F)c([H])c6[H])c(C(=O)N([H])[H])c5N([H])[H])C4([H])[H])c3F)c([H])c([H])c2C1([H])[H]

>  <smiles>  (1) 
[H]c1c([H])c([H])c2c(c1[H])C([H])([H])C([H])([H])C([H])([H])C2([H])N([H])C(=O)C1([H])N(C(=O)C([H])(N([H])C(=O)C([H])(N([H])C([H])([H])[H])C([H])([H])[H])C(C([H])([H])[H])(C([H])([H])[H])C([H])([H])[H])C([H])([H])c2c([H])c(OC([H])([H])C(=O)N([H])C([H])([H])c3c(F)c([H])c([H])c(N([H])C(=O)N4C([H])([H])C([H])([H])C([H])([H])C([H])(n5nc(-c6c([H])c([H])c(Oc7c([H])c([H])c(F)c([H])c7F)c([H])c6[H])c(C(=O)N([H])[H])c5N([H])[H])C4([H])[H])c3F)c([H])c([H])c2C1([H])[H]

$$$$
1:0:0
     RDKit          3D

100109  0  0  1  0  0  0  0  0999 V2000
  -30.8210  -21.8620   21.8970 C   0  0  0  0  0  2  0  0  0  0  0  0
  -31.1200  -23.3660   21.7670 C   0  0  0  0  0  2  0  0  0  0  0  0
  -29.4980  -23.5250   19.8990 C   0  0  0  0  0  2  0  0  0  0  0  0
  -30.4410  -21.2620   20.5360 C   0  0  0  0  0  3  0  0  0  0  0  0
  -29.1780  -22.0000   20.0100 C   0  0  0  0  0  3  0  0  0  0  0  0
  -29.9930  -24.1390   21.1690 N   0  0  2  0  0  4  0  0  0  0  0  0
  -29.2390  -24.0980   21.8420 H   0  0  0  0  0  0  0  0  0  0  0  0
  -29.4240  -19.0700   21.4210 C   0  0  0  0  0  3  0  0  0  0  0  0
  -29.3760  -17.6580   21.4780 C   0  0  0  0  0  3  0  0  0  0  0  0
  -31.1960  -17.5310   19.8780 C   0  0  0  0  0  3  0  0  0  0  0  0
  -30.3600  -19.7270   20.5900 C   0  0  0  0  0  0  0  0  0  0  0  0
  -30.2620  -16.8660   20.7110 C   0  0  0  0  0  0  0  0  0  0  0  0
  -31.2470  -18.9390   19.8210 C   0  0  0  0  0  0  0  0  0  0  0  0
  -32.1580  -19.5290   19.0100 F   0  0  0  0  0  0  0  0  0  0  0  0
  -30.7840  -14.4710   20.1210 C   0  0  0  0  0  0  0  0  0  0  0  0
  -30.4120  -12.3560   18.9140 C   0  0  0  0  0  2  0  0  0  0  0  0
  -29.3930  -12.6080   17.7830 C   0  0  0  0  0  2  0  0  0  0  0  0
  -27.9490  -12.4580   18.3030 C   0  0  0  0  0  2  0  0  0  0  0  0
  -27.6980  -13.2470   19.6170 C   0  0  0  0  0  3  0  0  0  0  0  0
  -28.8210  -12.9740   20.6430 C   0  0  0  0  0  2  0  0  0  0  0  0
  -30.1110  -13.2960   20.0060 N   0  0  0  0  0  0  0  0  0  0  0  0
  -31.8720  -14.6640   19.5720 O   0  0  0  0  0  0  0  0  0  0  0  0
  -30.1280  -15.4400   20.7940 N   0  0  0  0  0  0  0  0  0  0  0  0
  -29.3210  -15.1080   21.3000 H   0  0  0  0  0  0  0  0  0  0  0  0
  -25.3500  -13.8290   20.4960 C   0  0  0  0  0  0  0  0  0  0  0  0
  -24.3060  -13.0430   20.9050 C   0  0  0  0  0  0  0  0  0  0  0  0
  -24.7630  -11.6930   20.7980 C   0  0  0  0  0  0  0  0  0  0  0  0
  -26.3770  -12.9570   20.1690 N   0  0  0  0  0  0  0  0  0  0  0  0
  -26.0310  -11.6650   20.4070 N   0  0  0  0  0  0  0  0  0  0  0  0
  -24.0500  -10.4240   20.9900 C   0  0  0  0  0  0  0  0  0  0  0  0
  -24.5020   -9.4550   21.9140 C   0  0  0  0  0  3  0  0  0  0  0  0
  -23.7890   -8.2510   22.0940 C   0  0  0  0  0  3  0  0  0  0  0  0
  -22.6100   -8.0060   21.3510 C   0  0  0  0  0  0  0  0  0  0  0  0
  -22.1780   -8.9620   20.4170 C   0  0  0  0  0  3  0  0  0  0  0  0
  -22.8910  -10.1580   20.2340 C   0  0  0  0  0  3  0  0  0  0  0  0
  -21.8660   -6.8540   21.4410 O   0  0  0  0  0  0  0  0  0  0  0  0
  -21.7750   -6.1460   22.6130 C   0  0  0  0  0  0  0  0  0  0  0  0
  -21.2700   -6.7250   23.7960 C   0  0  0  0  0  3  0  0  0  0  0  0
  -21.1290   -5.9420   24.9590 C   0  0  0  0  0  3  0  0  0  0  0  0
  -21.4830   -4.5800   24.9390 C   0  0  0  0  0  0  0  0  0  0  0  0
  -21.9810   -3.9990   23.7590 C   0  0  0  0  0  3  0  0  0  0  0  0
  -22.1240   -4.7800   22.5990 C   0  0  0  0  0  0  0  0  0  0  0  0
  -22.5850   -4.2110   21.4580 F   0  0  0  0  0  0  0  0  0  0  0  0
  -21.3400   -3.8250   26.0530 F   0  0  0  0  0  0  0  0  0  0  0  0
  -22.9290  -13.5080   21.2850 C   0  0  0  0  0  0  0  0  0  0  0  0
  -22.2600  -12.7790   22.1720 N   0  0  0  0  0  0  0  0  0  0  0  0
  -22.4590  -14.5500   20.8320 O   0  0  0  0  0  0  0  0  0  0  0  0
  -22.6540  -11.9350   22.5590 H   0  0  0  0  0  0  0  0  0  0  0  0
  -21.3380  -13.0700   22.4670 H   0  0  0  0  0  0  0  0  0  0  0  0
  -25.5070  -15.2040   20.3550 N   0  0  0  0  0  0  0  0  0  0  0  0
  -24.7520  -15.8580   20.5370 H   0  0  0  0  0  0  0  0  0  0  0  0
  -26.3380  -15.6520   19.9900 H   0  0  0  0  0  0  0  0  0  0  0  0
  -28.6690  -21.4130   18.6620 C   0  0  0  0  0  2  0  0  0  0  0  0
  -27.3120  -21.8610   18.2860 N   0  0  0  0  0  4  0  0  0  0  0  0
  -26.6420  -21.6420   19.0030 H   0  0  0  0  0  0  0  0  0  0  0  0
  -27.0230  -21.3800   17.4520 H   0  0  0  0  0  0  0  0  0  0  0  0
  -27.2740  -22.8440   18.0880 H   0  0  0  0  0  0  0  0  0  0  0  0
  -30.3660  -25.5810   21.0130 C   0  0  0  0  0  2  0  0  0  0  0  0
  -29.2110  -26.5940   21.1800 C   0  0  0  0  0  2  0  0  0  0  0  0
  -28.4220  -26.6670   19.9940 O   0  0  0  0  0  0  0  0  0  0  0  0
  -24.6360  -31.8440   23.1740 C   0  0  0  0  0  0  0  0  0  0  0  0
  -27.2880  -27.4480   20.0540 C   0  0  0  0  0  0  0  0  0  0  0  0
  -23.4260  -30.4570   21.5180 C   0  0  0  0  0  3  0  0  0  0  0  0
  -24.8810  -28.9340   20.0780 C   0  0  0  0  0  0  0  0  0  0  0  0
  -25.9470  -30.8260   21.3180 C   0  0  0  0  0  2  0  0  0  0  0  0
  -26.0350  -29.4590   20.6750 C   0  0  0  0  0  0  0  0  0  0  0  0
  -27.2390  -28.7230   20.6690 C   0  0  0  0  0  3  0  0  0  0  0  0
  -26.1240  -26.9430   19.4410 C   0  0  0  0  0  3  0  0  0  0  0  0
  -24.9190  -27.6720   19.4590 C   0  0  0  0  0  3  0  0  0  0  0  0
  -23.6350  -29.7870   20.1320 C   0  0  0  0  0  2  0  0  0  0  0  0
  -24.6880  -31.0560   22.0630 N   0  0  0  0  0  0  0  0  0  0  0  0
  -23.5570  -32.1100   23.7220 O   0  0  0  0  0  0  0  0  0  0  0  0
  -22.7790  -29.4280   22.4720 C   0  0  0  0  0  0  0  0  0  0  0  0
  -21.4510  -29.2620   22.3590 N   0  0  0  0  0  0  0  0  0  0  0  0
  -23.4680  -28.7800   23.2650 O   0  0  0  0  0  0  0  0  0  0  0  0
  -20.9580  -29.8350   21.6880 H   0  0  0  0  0  0  0  0  0  0  0  0
  -18.0680  -28.1140   22.8930 C   0  0  0  0  0  0  0  0  0  0  0  0
  -20.6340  -28.3200   23.1230 C   0  0  0  0  0  3  0  0  0  0  0  0
  -20.7020  -26.9010   22.5130 C   0  0  0  0  0  2  0  0  0  0  0  0
  -19.5760  -26.6210   21.5130 C   0  0  0  0  0  2  0  0  0  0  0  0
  -18.2080  -26.7760   22.1850 C   0  0  0  0  0  2  0  0  0  0  0  0
  -19.2070  -28.8460   23.3200 C   0  0  0  0  0  0  0  0  0  0  0  0
  -19.0220  -30.1000   23.9420 C   0  0  0  0  0  3  0  0  0  0  0  0
  -17.7300  -30.6200   24.1420 C   0  0  0  0  0  3  0  0  0  0  0  0
  -16.6050  -29.8840   23.7320 C   0  0  0  0  0  3  0  0  0  0  0  0
  -16.7750  -28.6330   23.1140 C   0  0  0  0  0  3  0  0  0  0  0  0
  -25.9260  -32.4670   23.7960 C   0  0  0  0  0  3  0  0  0  0  0  0
  -25.6180  -33.8580   24.1500 N   0  0  0  0  0  0  0  0  0  0  0  0
  -25.9420  -34.9220   23.4020 C   0  0  0  0  0  0  0  0  0  0  0  0
  -26.6040  -34.8340   22.3630 O   0  0  0  0  0  0  0  0  0  0  0  0
  -25.0290  -34.0010   24.9570 H   0  0  0  0  0  0  0  0  0  0  0  0
  -24.2100  -36.7140   23.0790 C   0  0  0  0  0  1  0  0  0  0  0  0
  -25.4540  -36.3020   23.8810 C   0  0  0  0  0  3  0  0  0  0  0  0
  -27.5890  -37.1770   24.7190 C   0  0  0  0  0  1  0  0  0  0  0  0
  -26.4840  -37.3590   23.7810 N   0  0  0  0  0  0  0  0  0  0  0  0
  -26.0760  -38.2750   23.9460 H   0  0  0  0  0  0  0  0  0  0  0  0
  -26.4560  -31.6740   25.0530 C   0  0  1  0  0  0  0  0  0  0  0  0
  -25.3710  -31.4130   26.1240 C   0  0  0  0  0  1  0  0  0  0  0  0
  -27.0410  -30.3070   24.6270 C   0  0  0  0  0  1  0  0  0  0  0  0
  -27.6080  -32.4590   25.7220 C   0  0  0  0  0  1  0  0  0  0  0  0
  2  1  1  0
  3  5  1  0
  3  6  1  0
  4 11  1  0
  4  1  1  0
  5 53  1  0
  5  4  1  0
  6  2  1  0
  6  7  1  1
  8  9  1  0
 10 12  1  0
 11  8  2  0
 12 23  1  0
 12  9  2  0
 13 10  2  0
 13 11  1  0
 14 13  1  0
 15 23  1  0
 16 21  1  0
 17 18  1  0
 17 16  1  0
 19 18  1  0
 19 28  1  0
 19 20  1  0
 21 15  1  0
 21 20  1  0
 22 15  2  0
 23 24  1  0
 25 26  2  0
 26 45  1  0
 27 26  1  0
 27 30  1  0
 28 29  1  0
 28 25  1  0
 29 27  2  0
 30 31  1  0
 31 32  2  0
 33 36  1  0
 33 32  1  0
 34 33  2  0
 35 34  1  0
 35 30  2  0
 36 37  1  0
 37 38  1  0
 38 39  2  0
 40 39  1  0
 40 44  1  0
 41 40  2  0
 42 37  2  0
 42 41  1  0
 43 42  1  0
 45 46  1  0
 46 49  1  0
 46 48  1  0
 47 45  2  0
 50 25  1  0
 50 51  1  0
 52 50  1  0
 54 53  1  0
 54 55  1  0
 56 54  1  0
 57 54  1  0
 58  6  1  0
 58 59  1  0
 60 62  1  0
 60 59  1  0
 61 72  2  0
 62 67  1  0
 63 71  1  0
 63 73  1  0
 64 70  1  0
 64 66  1  0
 65 71  1  0
 66 65  1  0
 67 66  2  0
 68 69  1  0
 68 62  2  0
 69 64  2  0
 70 63  1  0
 71 61  1  0
 73 75  2  0
 74 73  1  0
 76 74  1  0
 77 86  2  0
 77 82  1  0
 78 74  1  0
 78 82  1  0
 79 78  1  0
 80 81  1  0
 80 79  1  0
 81 77  1  0
 82 83  2  0
 83 84  1  0
 85 84  2  0
 86 85  1  0
 87 61  1  0
 87 88  1  0
 87 97  1  0
 88 91  1  0
 89 93  1  0
 89 88  1  0
 90 89  2  0
 93 92  1  0
 95 93  1  0
 95 96  1  0
 95 94  1  0
 97100  1  1
 97 98  1  0
 99 97  1  0
M  ISO  4  15 100  23 100  59 101  60 101
M  END
>  <TORSDO>  (2) 
F 21

>  <SCORE>  (2) 
-12.837

>  <name>  (2) 
1

>  <ligand_id>  (2) 
1

>  <original_smiles>  (2) 
[H]c1c([H])c([H])c2c(c1[H])C([H])([H])C([H])([H])C([H])([H])C2([H])N([H])C(=O)C1([H])N(C(=O)C([H])(N([H])C(=O)C([H])(N([H])C([H])([H])[H])C([H])([H])[H])C(C([H])([H])[H])(C([H])([H])[H])C([H])([H])[H])C([H])([H])c2c([H])c(OC([H])([H])C([H])([H])[N+]3([H])C([H])([H])C([H])([H])C([H])(c4c([H])c([H])c(N([H])C(=O)N5C([H])([H])C([H])([H])C([H])([H])C([H])(n6nc(-c7c([H])c([H])c(Oc8c([H])c([H])c(F)c([H])c8F)c([H])c7[H])c(C(=O)N([H])[H])c6N([H])[H])C5([H])[H])c([H])c4F)C([H])(C([H])([H])[N+]([H])([H])[H])C3([H])[H])c([H])c([H])c2C1([H])[H]

>  <smiles>  (2) 
[H]c1c([H])c([H])c2c(c1[H])C([H])([H])C([H])([H])C([H])([H])C2([H])N([H])C(=O)C1([H])N(C(=O)C([H])(N([H])C(=O)C([H])(N([H])C([H])([H])[H])C([H])([H])[H])C(C([H])([H])[H])(C([H])([H])[H])C([H])([H])[H])C([H])([H])c2c([H])c(OC([H])([H])C([H])([H])[N+]3([H])C([H])([H])C([H])([H])C([H])(c4c([H])c([H])c(N([H])C(=O)N5C([H])([H])C([H])([H])C([H])([H])C([H])(n6nc(-c7c([H])c([H])c(Oc8c([H])c([H])c(F)c([H])c8F)c([H])c7[H])c(C(=O)N([H])[H])c6N([H])[H])C5([H])[H])c([H])c4F)C([H])(C([H])([H])[N+]([H])([H])[H])C3([H])[H])c([H])c([H])c2C1([H])[H]

$$$$
2:0:0
     RDKit          3D

104113  0  0  1  0  0  0  0  0999 V2000
  -29.1970  -20.4780   22.6710 C   0  0  0  0  0  2  0  0  0  0  0  0
  -27.6660  -21.3830   20.8330 C   0  0  0  0  0  2  0  0  0  0  0  0
  -29.9960  -21.8050   22.6230 C   0  0  0  0  0  2  0  0  0  0  0  0
  -27.8020  -22.6260   21.7340 C   0  0  0  0  0  2  0  0  0  0  0  0
  -28.4640  -20.1560   21.3450 C   0  0  0  0  0  3  0  0  0  0  0  0
  -29.2170  -22.9530   22.0680 N   0  0  2  0  0  4  0  0  0  0  0  0
  -29.1470  -23.6300   22.8150 H   0  0  0  0  0  0  0  0  0  0  0  0
  -29.4350  -19.6660   20.2620 C   0  0  0  0  0  0  0  0  0  0  0  0
  -29.3490  -18.3850   19.8760 N   0  0  0  0  0  0  0  0  0  0  0  0
  -30.2540  -20.4560   19.7850 O   0  0  0  0  0  0  0  0  0  0  0  0
  -28.7410  -17.7580   20.3850 H   0  0  0  0  0  0  0  0  0  0  0  0
  -30.3240  -18.0420   16.2970 C   0  0  0  0  0  3  0  0  0  0  0  0
  -30.0110  -17.9000   18.7210 C   0  0  0  0  0  0  0  0  0  0  0  0
  -31.0710  -16.9630   18.8250 C   0  0  0  0  0  0  0  0  0  0  0  0
  -29.6150  -18.3990   17.4540 C   0  0  0  0  0  0  0  0  0  0  0  0
  -31.4440  -17.2070   16.3990 C   0  0  0  0  0  0  0  0  0  0  0  0
  -31.8270  -16.6790   17.6470 C   0  0  0  0  0  0  0  0  0  0  0  0
  -28.5460  -19.2250   17.3400 F   0  0  0  0  0  0  0  0  0  0  0  0
  -32.1610  -16.9120   15.2870 F   0  0  0  0  0  0  0  0  0  0  0  0
  -32.9490  -15.9210   17.6800 F   0  0  0  0  0  0  0  0  0  0  0  0
  -31.9920  -15.2100   20.3060 C   0  0  0  0  0  0  0  0  0  0  0  0
  -31.5710  -12.9800   19.3690 C   0  0  0  0  0  2  0  0  0  0  0  0
  -30.6950  -13.0690   18.1000 C   0  0  0  0  0  2  0  0  0  0  0  0
  -29.1970  -13.1510   18.4440 C   0  0  0  0  0  2  0  0  0  0  0  0
  -28.8670  -14.1500   19.5850 C   0  0  0  0  0  3  0  0  0  0  0  0
  -29.8420  -13.9920   20.7700 C   0  0  0  0  0  2  0  0  0  0  0  0
  -31.2110  -14.1010   20.2410 N   0  0  0  0  0  0  0  0  0  0  0  0
  -33.2140  -15.2000   20.1700 O   0  0  0  0  0  0  0  0  0  0  0  0
  -31.3390  -16.3640   20.1050 N   0  0  0  0  0  0  0  0  0  0  0  0
  -31.1290  -16.9110   20.9260 H   0  0  0  0  0  0  0  0  0  0  0  0
  -26.5110  -15.0090   20.1640 C   0  0  0  0  0  0  0  0  0  0  0  0
  -25.3530  -14.3510   20.4770 C   0  0  0  0  0  0  0  0  0  0  0  0
  -25.6740  -12.9580   20.4760 C   0  0  0  0  0  0  0  0  0  0  0  0
  -27.4720  -14.0240   20.0010 N   0  0  0  0  0  0  0  0  0  0  0  0
  -26.9690  -12.7880   20.2520 N   0  0  0  0  0  0  0  0  0  0  0  0
  -24.8120  -11.7770   20.6200 C   0  0  0  0  0  0  0  0  0  0  0  0
  -25.1840  -10.6870   21.4390 C   0  0  0  0  0  3  0  0  0  0  0  0
  -24.3310   -9.5700   21.5780 C   0  0  0  0  0  3  0  0  0  0  0  0
  -23.0900   -9.5360   20.8980 C   0  0  0  0  0  0  0  0  0  0  0  0
  -22.7370  -10.6100   20.0610 C   0  0  0  0  0  3  0  0  0  0  0  0
  -23.5900  -11.7190   19.9210 C   0  0  0  0  0  3  0  0  0  0  0  0
  -22.2100   -8.4820   20.9580 O   0  0  0  0  0  0  0  0  0  0  0  0
  -22.1460   -7.6560   22.0540 C   0  0  0  0  0  0  0  0  0  0  0  0
  -21.9440   -8.1630   23.3570 C   0  0  0  0  0  3  0  0  0  0  0  0
  -21.8120   -7.2770   24.4450 C   0  0  0  0  0  3  0  0  0  0  0  0
  -21.8720   -5.8870   24.2340 C   0  0  0  0  0  0  0  0  0  0  0  0
  -22.0660   -5.3800   22.9370 C   0  0  0  0  0  3  0  0  0  0  0  0
  -22.1990   -6.2630   21.8510 C   0  0  0  0  0  0  0  0  0  0  0  0
  -22.3650   -5.7660   20.6010 F   0  0  0  0  0  0  0  0  0  0  0  0
  -21.7400   -5.0350   25.2790 F   0  0  0  0  0  0  0  0  0  0  0  0
  -23.9970  -14.9680   20.6650 C   0  0  0  0  0  0  0  0  0  0  0  0
  -23.1590  -14.3540   21.4900 N   0  0  0  0  0  0  0  0  0  0  0  0
  -23.6900  -16.0220   20.1100 O   0  0  0  0  0  0  0  0  0  0  0  0
  -23.4290  -13.5060   21.9650 H   0  0  0  0  0  0  0  0  0  0  0  0
  -22.2380  -14.7380   21.6480 H   0  0  0  0  0  0  0  0  0  0  0  0
  -26.8180  -16.3550   19.9790 N   0  0  0  0  0  0  0  0  0  0  0  0
  -27.6820  -16.6930   19.5820 H   0  0  0  0  0  0  0  0  0  0  0  0
  -26.0940  -17.0650   20.0210 H   0  0  0  0  0  0  0  0  0  0  0  0
  -29.9160  -23.7330   21.0100 C   0  0  0  0  0  2  0  0  0  0  0  0
  -29.7180  -25.2540   21.1970 C   0  0  0  0  0  3  0  0  0  0  0  0
  -28.4880  -25.5180   21.8530 O   0  0  0  0  0  0  0  0  0  0  0  0
  -28.3010  -26.4430   21.7130 H   0  0  0  0  0  0  0  0  0  0  0  0
  -29.6890  -25.9730   19.8400 C   0  0  0  0  0  2  0  0  0  0  0  0
  -29.4300  -27.3580   20.0540 O   0  0  0  0  0  0  0  0  0  0  0  0
  -24.7830  -31.6920   23.1980 C   0  0  0  0  0  0  0  0  0  0  0  0
  -28.1410  -27.8450   20.0240 C   0  0  0  0  0  0  0  0  0  0  0  0
  -23.8620  -30.3020   21.3670 C   0  0  0  0  0  3  0  0  0  0  0  0
  -25.5780  -29.0380   19.9720 C   0  0  0  0  0  0  0  0  0  0  0  0
  -26.3330  -30.9490   21.3970 C   0  0  0  0  0  2  0  0  0  0  0  0
  -26.6200  -29.6480   20.6780 C   0  0  0  0  0  0  0  0  0  0  0  0
  -27.9000  -29.0580   20.7010 C   0  0  0  0  0  3  0  0  0  0  0  0
  -27.0700  -27.2260   19.3330 C   0  0  0  0  0  3  0  0  0  0  0  0
  -25.7950  -27.8210   19.3040 C   0  0  0  0  0  3  0  0  0  0  0  0
  -24.2440  -29.7490   19.9680 C   0  0  0  0  0  2  0  0  0  0  0  0
  -25.0070  -30.9900   22.0510 N   0  0  0  0  0  0  0  0  0  0  0  0
  -23.6410  -31.8090   23.6640 O   0  0  0  0  0  0  0  0  0  0  0  0
  -23.2560  -29.1490   22.1970 C   0  0  0  0  0  0  0  0  0  0  0  0
  -21.9400  -28.9290   22.0430 N   0  0  0  0  0  0  0  0  0  0  0  0
  -23.9650  -28.4570   22.9330 O   0  0  0  0  0  0  0  0  0  0  0  0
  -21.4280  -29.5400   21.4220 H   0  0  0  0  0  0  0  0  0  0  0  0
  -18.6010  -27.6320   22.4840 C   0  0  0  0  0  0  0  0  0  0  0  0
  -21.1660  -27.8740   22.6900 C   0  0  0  0  0  3  0  0  0  0  0  0
  -21.2520  -26.5500   21.8980 C   0  0  0  0  0  2  0  0  0  0  0  0
  -20.1130  -26.3740   20.8900 C   0  0  0  0  0  2  0  0  0  0  0  0
  -18.7580  -26.4050   21.6040 C   0  0  0  0  0  2  0  0  0  0  0  0
  -19.7320  -28.3320   22.9830 C   0  0  0  0  0  0  0  0  0  0  0  0
  -19.5330  -29.4880   23.7670 C   0  0  0  0  0  3  0  0  0  0  0  0
  -18.2350  -29.9450   24.0570 C   0  0  0  0  0  3  0  0  0  0  0  0
  -17.1170  -29.2400   23.5760 C   0  0  0  0  0  3  0  0  0  0  0  0
  -17.3020  -28.0840   22.7960 C   0  0  0  0  0  3  0  0  0  0  0  0
  -25.9460  -32.3990   23.9640 C   0  0  0  0  0  3  0  0  0  0  0  0
  -25.5090  -33.7690   24.2610 N   0  0  0  0  0  0  0  0  0  0  0  0
  -25.8370  -34.8440   23.5340 C   0  0  0  0  0  0  0  0  0  0  0  0
  -26.6150  -34.7950   22.5750 O   0  0  0  0  0  0  0  0  0  0  0  0
  -24.8300  -33.8780   25.0010 H   0  0  0  0  0  0  0  0  0  0  0  0
  -24.0240  -36.5020   23.0080 C   0  0  0  0  0  1  0  0  0  0  0  0
  -25.2090  -36.1920   23.9360 C   0  0  0  0  0  3  0  0  0  0  0  0
  -27.1910  -37.2230   24.9520 C   0  0  0  0  0  1  0  0  0  0  0  0
  -26.1670  -37.3190   23.9140 N   0  0  0  0  0  0  0  0  0  0  0  0
  -25.6820  -38.2040   24.0340 H   0  0  0  0  0  0  0  0  0  0  0  0
  -26.3690  -31.6470   25.2830 C   0  0  1  0  0  0  0  0  0  0  0  0
  -25.1820  -31.2910   26.2060 C   0  0  0  0  0  1  0  0  0  0  0  0
  -27.1150  -30.3350   24.9460 C   0  0  0  0  0  1  0  0  0  0  0  0
  -27.3550  -32.5220   26.0920 C   0  0  0  0  0  1  0  0  0  0  0  0
  2  5  1  0
  2  4  1  0
  3  1  1  0
  4  6  1  0
  5  8  1  0
  5  1  1  0
  6  3  1  0
  6  7  1  1
  9  8  1  0
  9 11  1  0
 10  8  2  0
 12 16  2  0
 12 15  1  0
 13 14  1  0
 13  9  1  0
 14 29  1  0
 15 13  2  0
 16 17  1  0
 17 20  1  0
 17 14  2  0
 18 15  1  0
 19 16  1  0
 22 27  1  0
 23 24  1  0
 23 22  1  0
 25 24  1  0
 25 34  1  0
 25 26  1  0
 27 21  1  0
 27 26  1  0
 28 21  2  0
 29 21  1  0
 29 30  1  0
 31 32  2  0
 32 51  1  0
 33 32  1  0
 33 36  1  0
 34 31  1  0
 34 35  1  0
 35 33  2  0
 36 37  1  0
 37 38  2  0
 39 42  1  0
 39 38  1  0
 40 39  2  0
 41 40  1  0
 41 36  2  0
 42 43  1  0
 43 44  1  0
 44 45  2  0
 46 45  1  0
 46 50  1  0
 47 46  2  0
 48 43  2  0
 48 47  1  0
 49 48  1  0
 51 52  1  0
 52 55  1  0
 52 54  1  0
 53 51  2  0
 56 58  1  0
 56 31  1  0
 57 56  1  0
 59 60  1  0
 59  6  1  0
 60 63  1  0
 60 61  1  0
 62 61  1  0
 63 64  1  0
 65 76  2  0
 66 64  1  0
 66 71  1  0
 67 75  1  0
 67 77  1  0
 68 70  1  0
 69 75  1  0
 70 71  2  0
 70 69  1  0
 72 66  2  0
 73 72  1  0
 73 68  2  0
 74 68  1  0
 74 67  1  0
 75 65  1  0
 77 79  2  0
 78 77  1  0
 80 78  1  0
 81 90  2  0
 81 86  1  0
 82 78  1  0
 82 86  1  0
 83 82  1  0
 84 85  1  0
 84 83  1  0
 85 81  1  0
 86 87  2  0
 87 88  1  0
 89 88  2  0
 90 89  1  0
 91 65  1  0
 91 92  1  0
 91101  1  0
 92 95  1  0
 93 97  1  0
 93 92  1  0
 94 93  2  0
 97 96  1  0
 99 97  1  0
 99100  1  0
 99 98  1  0
101104  1  1
101102  1  0
103101  1  0
M  ISO  4  21 100  29 100  63 101  64 101
M  END
>  <TORSDO>  (3) 
F 22

>  <SCORE>  (3) 
-8.421

>  <name>  (3) 
2

>  <ligand_id>  (3) 
2

>  <original_smiles>  (3) 
[H]OC([H])(C([H])([H])Oc1c([H])c([H])c2c(c1[H])C([H])([H])N(C(=O)C([H])(N([H])C(=O)C([H])(N([H])C([H])([H])[H])C([H])([H])[H])C(C([H])([H])[H])(C([H])([H])[H])C([H])([H])[H])C([H])(C(=O)N([H])C1([H])c3c([H])c([H])c([H])c([H])c3C([H])([H])C([H])([H])C1([H])[H])C2([H])[H])C([H])([H])[N+]1([H])C([H])([H])C([H])([H])C([H])(C(=O)N([H])c2c(F)c([H])c(F)c(F)c2N([H])C(=O)N2C([H])([H])C([H])([H])C([H])([H])C([H])(n3nc(-c4c([H])c([H])c(Oc5c([H])c([H])c(F)c([H])c5F)c([H])c4[H])c(C(=O)N([H])[H])c3N([H])[H])C2([H])[H])C([H])([H])C1([H])[H]

>  <smiles>  (3) 
[H]OC([H])(C([H])([H])Oc1c([H])c([H])c2c(c1[H])C([H])([H])N(C(=O)C([H])(N([H])C(=O)C([H])(N([H])C([H])([H])[H])C([H])([H])[H])C(C([H])([H])[H])(C([H])([H])[H])C([H])([H])[H])C([H])(C(=O)N([H])C1([H])c3c([H])c([H])c([H])c([H])c3C([H])([H])C([H])([H])C1([H])[H])C2([H])[H])C([H])([H])[N+]1([H])C([H])([H])C([H])([H])C([H])(C(=O)N([H])c2c(F)c([H])c(F)c(F)c2N([H])C(=O)N2C([H])([H])C([H])([H])C([H])([H])C([H])(n3nc(-c4c([H])c([H])c(Oc5c([H])c([H])c(F)c([H])c5F)c([H])c4[H])c(C(=O)N([H])[H])c3N([H])[H])C2([H])[H])C([H])([H])C1([H])[H]

$$$$
3:0:0
     RDKit          3D

 92100  0  0  1  0  0  0  0  0999 V2000
  -29.6120  -20.9610   19.9320 C   0  0  0  0  0  0  0  0  0  0  0  0
  -29.7900  -18.4880   22.6960 C   0  0  0  0  0  2  0  0  0  0  0  0
  -28.8720  -17.8220   21.6830 C   0  0  0  0  0  2  0  0  0  0  0  0
  -29.9320  -19.8980   22.1340 C   0  0  0  0  0  2  0  0  0  0  0  0
  -29.4270  -18.3260   20.3340 C   0  0  0  0  0  3  0  0  0  0  0  0
  -29.7760  -19.7910   20.6730 N   0  0  0  0  0  0  0  0  0  0  0  0
  -29.4420  -20.9090   18.7140 O   0  0  0  0  0  0  0  0  0  0  0  0
  -30.9410  -14.8040   19.3540 C   0  0  0  0  0  0  0  0  0  0  0  0
  -30.5020  -12.6130   18.2300 C   0  0  0  0  0  2  0  0  0  0  0  0
  -29.3670  -12.7920   17.1970 C   0  0  0  0  0  2  0  0  0  0  0  0
  -27.9900  -12.6120   17.8640 C   0  0  0  0  0  2  0  0  0  0  0  0
  -27.8570  -13.4110   19.1870 C   0  0  0  0  0  3  0  0  0  0  0  0
  -29.0910  -13.2210   20.0960 C   0  0  0  0  0  2  0  0  0  0  0  0
  -30.2770  -13.5980   19.3140 N   0  0  0  0  0  0  0  0  0  0  0  0
  -32.0570  -14.8920   18.8340 O   0  0  0  0  0  0  0  0  0  0  0  0
  -30.5300  -17.2730   19.8280 C   0  0  0  0  0  0  0  0  0  0  0  0
  -30.2280  -15.9120   19.7950 N   0  0  0  0  0  0  0  0  0  0  0  0
  -31.6250  -17.7220   19.4710 O   0  0  0  0  0  0  0  0  0  0  0  0
  -29.3060  -15.6920   20.1310 H   0  0  0  0  0  0  0  0  0  0  0  0
  -25.6660  -13.9830   20.3940 C   0  0  0  0  0  0  0  0  0  0  0  0
  -24.6500  -13.2030   20.8730 C   0  0  0  0  0  0  0  0  0  0  0  0
  -25.0370  -11.8510   20.6220 C   0  0  0  0  0  0  0  0  0  0  0  0
  -26.6090  -13.1080   19.8830 N   0  0  0  0  0  0  0  0  0  0  0  0
  -26.2490  -11.8130   20.0800 N   0  0  0  0  0  0  0  0  0  0  0  0
  -24.2980  -10.5960   20.8110 C   0  0  0  0  0  0  0  0  0  0  0  0
  -24.7540   -9.5990   21.7020 C   0  0  0  0  0  3  0  0  0  0  0  0
  -24.0170   -8.4090   21.8830 C   0  0  0  0  0  3  0  0  0  0  0  0
  -22.8090   -8.2070   21.1720 C   0  0  0  0  0  0  0  0  0  0  0  0
  -22.3730   -9.1920   20.2700 C   0  0  0  0  0  3  0  0  0  0  0  0
  -23.1100  -10.3740   20.0870 C   0  0  0  0  0  3  0  0  0  0  0  0
  -22.0410   -7.0720   21.2650 O   0  0  0  0  0  0  0  0  0  0  0  0
  -21.8910   -6.3960   22.4490 C   0  0  0  0  0  0  0  0  0  0  0  0
  -21.3720   -7.0250   23.6030 C   0  0  0  0  0  3  0  0  0  0  0  0
  -21.1720   -6.2770   24.7810 C   0  0  0  0  0  3  0  0  0  0  0  0
  -21.4790   -4.9030   24.8040 C   0  0  0  0  0  0  0  0  0  0  0  0
  -21.9890   -4.2750   23.6540 C   0  0  0  0  0  3  0  0  0  0  0  0
  -22.1920   -5.0200   22.4800 C   0  0  0  0  0  0  0  0  0  0  0  0
  -22.6650   -4.4070   21.3680 F   0  0  0  0  0  0  0  0  0  0  0  0
  -21.2790   -4.1820   25.9310 F   0  0  0  0  0  0  0  0  0  0  0  0
  -23.3450  -13.6850   21.4380 C   0  0  0  0  0  0  0  0  0  0  0  0
  -22.7730  -12.9420   22.3790 N   0  0  0  0  0  0  0  0  0  0  0  0
  -22.8500  -14.7520   21.0800 O   0  0  0  0  0  0  0  0  0  0  0  0
  -23.1920  -12.0760   22.6870 H   0  0  0  0  0  0  0  0  0  0  0  0
  -21.9050  -13.2430   22.7990 H   0  0  0  0  0  0  0  0  0  0  0  0
  -25.8560  -15.3600   20.3260 N   0  0  0  0  0  0  0  0  0  0  0  0
  -25.1320  -16.0070   20.6180 H   0  0  0  0  0  0  0  0  0  0  0  0
  -26.6030  -15.8110   19.8160 H   0  0  0  0  0  0  0  0  0  0  0  0
  -29.5580  -22.4070   20.6390 C   0  0  0  0  0  2  0  0  0  0  0  0
  -29.4810  -23.8200   19.8300 C   0  0  0  0  0  2  0  0  0  0  0  0
  -28.6470  -25.0270   20.4700 C   0  0  0  0  0  0  0  0  0  0  0  0
  -27.8400  -24.7550   21.3620 O   0  0  0  0  0  0  0  0  0  0  0  0
  -28.8010  -26.3970   19.9620 O   0  0  0  0  0  0  0  0  0  0  0  0
  -24.7740  -31.5730   23.1340 C   0  0  0  0  0  0  0  0  0  0  0  0
  -27.6940  -27.2780   19.9510 C   0  0  0  0  0  0  0  0  0  0  0  0
  -23.6990  -30.2230   21.3700 C   0  0  0  0  0  3  0  0  0  0  0  0
  -25.2740  -28.8190   19.9190 C   0  0  0  0  0  0  0  0  0  0  0  0
  -26.2310  -30.6500   21.3120 C   0  0  0  0  0  2  0  0  0  0  0  0
  -26.3990  -29.3110   20.5960 C   0  0  0  0  0  0  0  0  0  0  0  0
  -27.6130  -28.5520   20.6060 C   0  0  0  0  0  3  0  0  0  0  0  0
  -26.5490  -26.8600   19.2370 C   0  0  0  0  0  3  0  0  0  0  0  0
  -25.3530  -27.6000   19.2290 C   0  0  0  0  0  3  0  0  0  0  0  0
  -23.9990  -29.6400   19.9640 C   0  0  0  0  0  2  0  0  0  0  0  0
  -24.9170  -30.8320   21.9960 N   0  0  0  0  0  0  0  0  0  0  0  0
  -23.6590  -31.7740   23.6380 O   0  0  0  0  0  0  0  0  0  0  0  0
  -23.0440  -29.1250   22.2450 C   0  0  0  0  0  0  0  0  0  0  0  0
  -21.7250  -28.9250   22.0820 N   0  0  0  0  0  0  0  0  0  0  0  0
  -23.7240  -28.4600   23.0300 O   0  0  0  0  0  0  0  0  0  0  0  0
  -21.2350  -29.5180   21.4270 H   0  0  0  0  0  0  0  0  0  0  0  0
  -18.3660  -27.6320   22.4570 C   0  0  0  0  0  0  0  0  0  0  0  0
  -20.9170  -27.9170   22.7710 C   0  0  0  0  0  3  0  0  0  0  0  0
  -21.0500  -26.5360   22.0890 C   0  0  0  0  0  2  0  0  0  0  0  0
  -19.9620  -26.2730   21.0420 C   0  0  0  0  0  2  0  0  0  0  0  0
  -18.5730  -26.3420   21.6810 C   0  0  0  0  0  2  0  0  0  0  0  0
  -19.4670  -28.3800   22.9540 C   0  0  0  0  0  0  0  0  0  0  0  0
  -19.2170  -29.5890   23.6400 C   0  0  0  0  0  3  0  0  0  0  0  0
  -17.9010  -30.0500   23.8330 C   0  0  0  0  0  3  0  0  0  0  0  0
  -16.8160  -29.3000   23.3500 C   0  0  0  0  0  3  0  0  0  0  0  0
  -17.0480  -28.0920   22.6680 C   0  0  0  0  0  3  0  0  0  0  0  0
  -26.0020  -32.2240   23.8430 C   0  0  0  0  0  3  0  0  0  0  0  0
  -26.5320  -31.3780   25.0650 C   0  0  1  0  0  0  0  0  0  0  0  0
  -25.4290  -30.9840   26.0750 C   0  0  0  0  0  1  0  0  0  0  0  0
  -27.2110  -30.0770   24.5770 C   0  0  0  0  0  1  0  0  0  0  0  0
  -27.6140  -32.1810   25.8270 C   0  0  0  0  0  1  0  0  0  0  0  0
  -25.6000  -33.5690   24.2820 N   0  0  0  0  0  0  0  0  0  0  0  0
  -25.8850  -34.7010   23.6250 C   0  0  0  0  0  0  0  0  0  0  0  0
  -26.5800  -34.7270   22.6070 O   0  0  0  0  0  0  0  0  0  0  0  0
  -24.9810  -33.6170   25.0770 H   0  0  0  0  0  0  0  0  0  0  0  0
  -24.0640  -36.4200   23.3760 C   0  0  0  0  0  1  0  0  0  0  0  0
  -25.3050  -36.0140   24.1880 C   0  0  0  0  0  3  0  0  0  0  0  0
  -27.3600  -36.9410   25.1630 C   0  0  0  0  0  1  0  0  0  0  0  0
  -26.2760  -37.1290   24.2000 N   0  0  0  0  0  0  0  0  0  0  0  0
  -25.8120  -38.0090   24.4140 H   0  0  0  0  0  0  0  0  0  0  0  0
  1 48  1  0
  1  6  1  0
  3  2  1  0
  4  2  1  0
  5 16  1  0
  5  6  1  0
  5  3  1  0
  6  4  1  0
  7  1  2  0
  8 17  1  0
  9 14  1  0
 10 11  1  0
 10  9  1  0
 12 11  1  0
 12 23  1  0
 12 13  1  0
 14  8  1  0
 14 13  1  0
 15  8  2  0
 17 16  1  0
 17 19  1  0
 18 16  2  0
 20 21  2  0
 21 40  1  0
 22 25  1  0
 22 21  1  0
 23 24  1  0
 23 20  1  0
 24 22  2  0
 25 26  1  0
 26 27  2  0
 28 31  1  0
 28 27  1  0
 29 28  2  0
 30 29  1  0
 30 25  2  0
 31 32  1  0
 32 37  2  0
 32 33  1  0
 33 34  2  0
 34 35  1  0
 35 39  1  0
 36 35  2  0
 37 36  1  0
 38 37  1  0
 40 41  1  0
 41 43  1  0
 41 44  1  0
 42 40  2  0
 45 20  1  0
 45 46  1  0
 47 45  1  0
 49 50  1  0
 49 48  1  0
 50 51  2  0
 52 50  1  0
 53 64  2  0
 54 52  1  0
 54 59  1  0
 55 63  1  0
 55 65  1  0
 56 62  1  0
 56 58  1  0
 57 63  1  0
 58 59  2  0
 58 57  1  0
 60 54  2  0
 61 60  1  0
 61 56  2  0
 62 55  1  0
 63 53  1  0
 65 67  2  0
 66 65  1  0
 68 66  1  0
 69 78  2  0
 69 74  1  0
 70 66  1  0
 70 74  1  0
 71 70  1  0
 72 73  1  0
 72 71  1  0
 73 69  1  0
 74 75  2  0
 75 76  1  0
 77 76  2  0
 78 77  1  0
 79 53  1  0
 79 84  1  0
 79 80  1  0
 80 83  1  1
 80 81  1  0
 82 80  1  0
 84 87  1  0
 85 89  1  0
 85 84  1  0
 86 85  2  0
 89 88  1  0
 89 91  1  0
 91 92  1  0
 91 90  1  0
M  ISO  4   8 100  17 100  50 101  52 101
M  END
>  <TORSDO>  (4) 
F 19

>  <SCORE>  (4) 
-8.929

>  <name>  (4) 
3

>  <ligand_id>  (4) 
3

>  <original_smiles>  (4) 
[H]c1c([H])c([H])c2c(c1[H])C([H])([H])C([H])([H])C([H])([H])C2([H])N([H])C(=O)C1([H])N(C(=O)C([H])(N([H])C(=O)C([H])(N([H])C([H])([H])[H])C([H])([H])[H])C(C([H])([H])[H])(C([H])([H])[H])C([H])([H])[H])C([H])([H])c2c([H])c(OC(=O)C([H])([H])C([H])([H])C(=O)N3C([H])([H])C([H])([H])C([H])([H])C3([H])C(=O)N([H])C(=O)N3C([H])([H])C([H])([H])C([H])([H])C([H])(n4nc(-c5c([H])c([H])c(Oc6c([H])c([H])c(F)c([H])c6F)c([H])c5[H])c(C(=O)N([H])[H])c4N([H])[H])C3([H])[H])c([H])c([H])c2C1([H])[H]

>  <smiles>  (4) 
[H]c1c([H])c([H])c2c(c1[H])C([H])([H])C([H])([H])C([H])([H])C2([H])N([H])C(=O)C1([H])N(C(=O)C([H])(N([H])C(=O)C([H])(N([H])C([H])([H])[H])C([H])([H])[H])C(C([H])([H])[H])(C([H])([H])[H])C([H])([H])[H])C([H])([H])c2c([H])c(OC(=O)C([H])([H])C([H])([H])C(=O)N3C([H])([H])C([H])([H])C([H])([H])C3([H])C(=O)N([H])C(=O)N3C([H])([H])C([H])([H])C([H])([H])C([H])(n4nc(-c5c([H])c([H])c(Oc6c([H])c([H])c(F)c([H])c6F)c([H])c5[H])c(C(=O)N([H])[H])c4N([H])[H])C3([H])[H])c([H])c([H])c2C1([H])[H]

$$$$
4:0:0
     RDKit          3D

 95103  0  0  1  0  0  0  0  0999 V2000
  -29.3340  -19.0880   20.6660 C   0  0  0  0  0  3  0  0  0  0  0  0
  -30.2740  -17.9980   18.7330 C   0  0  0  0  0  3  0  0  0  0  0  0
  -29.7610  -20.4600   18.6910 C   0  0  0  0  0  0  0  0  0  0  0  0
  -29.8120  -17.7960   20.0480 C   0  0  0  0  0  0  0  0  0  0  0  0
  -29.3060  -20.4720   20.0490 C   0  0  0  0  0  0  0  0  0  0  0  0
  -30.2400  -19.2560   18.0860 C   0  0  0  0  0  0  0  0  0  0  0  0
  -30.7130  -19.2930   16.8140 F   0  0  0  0  0  0  0  0  0  0  0  0
  -30.5060  -15.1010   20.2510 C   0  0  0  0  0  0  0  0  0  0  0  0
  -30.3800  -12.7310   19.3210 C   0  0  0  0  0  2  0  0  0  0  0  0
  -29.4440  -12.7030   18.0860 C   0  0  0  0  0  2  0  0  0  0  0  0
  -27.9810  -12.4930   18.5160 C   0  0  0  0  0  2  0  0  0  0  0  0
  -27.5890  -13.3920   19.7190 C   0  0  0  0  0  3  0  0  0  0  0  0
  -28.6540  -13.3950   20.8400 C   0  0  0  0  0  2  0  0  0  0  0  0
  -29.9180  -13.8250   20.2320 N   0  0  0  0  0  0  0  0  0  0  0  0
  -31.6920  -15.1420   19.8970 O   0  0  0  0  0  0  0  0  0  0  0  0
  -29.7720  -16.3120   20.5520 N   0  0  0  0  0  0  0  0  0  0  0  0
  -28.9390  -16.1070   21.0840 H   0  0  0  0  0  0  0  0  0  0  0  0
  -25.2190  -13.9720   20.4770 C   0  0  0  0  0  0  0  0  0  0  0  0
  -24.1520  -13.2020   20.8500 C   0  0  0  0  0  0  0  0  0  0  0  0
  -24.6110  -11.8490   20.8140 C   0  0  0  0  0  0  0  0  0  0  0  0
  -26.2550  -13.0910   20.2270 N   0  0  0  0  0  0  0  0  0  0  0  0
  -25.9010  -11.8080   20.4970 N   0  0  0  0  0  0  0  0  0  0  0  0
  -23.8770  -10.5900   21.0050 C   0  0  0  0  0  0  0  0  0  0  0  0
  -24.2970   -9.6250   21.9470 C   0  0  0  0  0  3  0  0  0  0  0  0
  -23.5630   -8.4320   22.1280 C   0  0  0  0  0  3  0  0  0  0  0  0
  -22.3930   -8.1980   21.3650 C   0  0  0  0  0  0  0  0  0  0  0  0
  -21.9920   -9.1510   20.4130 C   0  0  0  0  0  3  0  0  0  0  0  0
  -22.7280  -10.3340   20.2310 C   0  0  0  0  0  3  0  0  0  0  0  0
  -21.6300   -7.0580   21.4540 O   0  0  0  0  0  0  0  0  0  0  0  0
  -21.5600   -6.3270   22.6120 C   0  0  0  0  0  0  0  0  0  0  0  0
  -21.1050   -6.8930   23.8250 C   0  0  0  0  0  3  0  0  0  0  0  0
  -20.9800   -6.0880   24.9730 C   0  0  0  0  0  3  0  0  0  0  0  0
  -21.3050   -4.7190   24.9130 C   0  0  0  0  0  0  0  0  0  0  0  0
  -21.7550   -4.1530   23.7060 C   0  0  0  0  0  3  0  0  0  0  0  0
  -21.8790   -4.9560   22.5590 C   0  0  0  0  0  0  0  0  0  0  0  0
  -22.2920   -4.4030   21.3940 F   0  0  0  0  0  0  0  0  0  0  0  0
  -21.1800   -3.9420   26.0150 F   0  0  0  0  0  0  0  0  0  0  0  0
  -22.7590  -13.6880   21.1250 C   0  0  0  0  0  0  0  0  0  0  0  0
  -22.0250  -12.9970   21.9860 N   0  0  0  0  0  0  0  0  0  0  0  0
  -22.3310  -14.7200   20.6110 O   0  0  0  0  0  0  0  0  0  0  0  0
  -22.3820  -12.1630   22.4290 H   0  0  0  0  0  0  0  0  0  0  0  0
  -21.0900  -13.3070   22.2100 H   0  0  0  0  0  0  0  0  0  0  0  0
  -25.3860  -15.3430   20.3030 N   0  0  0  0  0  0  0  0  0  0  0  0
  -24.6140  -15.9940   20.4090 H   0  0  0  0  0  0  0  0  0  0  0  0
  -26.2260  -15.7840   19.9520 H   0  0  0  0  0  0  0  0  0  0  0  0
  -29.8440  -21.7240   17.8690 C   0  0  0  0  0  0  0  0  0  0  0  0
  -29.0340  -21.8030   16.8170 N   0  0  0  0  0  0  0  0  0  0  0  0
  -30.6250  -22.6380   18.1430 O   0  0  0  0  0  0  0  0  0  0  0  0
  -28.4140  -21.0400   16.5910 H   0  0  0  0  0  0  0  0  0  0  0  0
  -29.0550  -22.6200   16.2250 H   0  0  0  0  0  0  0  0  0  0  0  0
  -29.4630  -21.8540   22.0890 C   0  0  0  0  0  1  0  0  0  0  0  0
  -28.9800  -21.8030   20.7120 N   0  0  0  0  0  0  0  0  0  0  0  0
  -28.0760  -23.0680   20.3460 C   0  0  0  0  0  2  0  0  0  0  0  0
  -28.5310  -24.6820   19.9450 C   0  0  0  0  0  2  0  0  0  0  0  0
  -28.2760  -26.1440   20.5060 O   0  0  0  0  0  0  0  0  0  0  0  0
  -24.6020  -31.9140   23.2550 C   0  0  0  0  0  0  0  0  0  0  0  0
  -27.2110  -27.1150   20.3230 C   0  0  0  0  0  0  0  0  0  0  0  0
  -23.4210  -30.4910   21.6210 C   0  0  0  0  0  3  0  0  0  0  0  0
  -24.8850  -28.8850   20.2280 C   0  0  0  0  0  0  0  0  0  0  0  0
  -25.9770  -30.7420   21.4870 C   0  0  0  0  0  2  0  0  0  0  0  0
  -26.0540  -29.3380   20.8510 C   0  0  0  0  0  0  0  0  0  0  0  0
  -27.2100  -28.4660   20.8820 C   0  0  0  0  0  3  0  0  0  0  0  0
  -26.0220  -26.7720   19.6500 C   0  0  0  0  0  3  0  0  0  0  0  0
  -24.8850  -27.6200   19.6120 C   0  0  0  0  0  3  0  0  0  0  0  0
  -23.6570  -29.7870   20.2550 C   0  0  0  0  0  2  0  0  0  0  0  0
  -24.6850  -31.0750   22.1750 N   0  0  0  0  0  0  0  0  0  0  0  0
  -23.5110  -32.2070   23.7660 O   0  0  0  0  0  0  0  0  0  0  0  0
  -22.7290  -29.5050   22.5940 C   0  0  0  0  0  0  0  0  0  0  0  0
  -21.4010  -29.3410   22.4640 N   0  0  0  0  0  0  0  0  0  0  0  0
  -23.3920  -28.8870   23.4310 O   0  0  0  0  0  0  0  0  0  0  0  0
  -20.9210  -29.8880   21.7630 H   0  0  0  0  0  0  0  0  0  0  0  0
  -18.0110  -28.1700   22.9730 C   0  0  0  0  0  0  0  0  0  0  0  0
  -20.5710  -28.4180   23.2420 C   0  0  0  0  0  3  0  0  0  0  0  0
  -20.6630  -26.9790   22.6820 C   0  0  0  0  0  2  0  0  0  0  0  0
  -19.5620  -26.6540   21.6670 C   0  0  0  0  0  2  0  0  0  0  0  0
  -18.1800  -26.8150   22.3060 C   0  0  0  0  0  2  0  0  0  0  0  0
  -19.1330  -28.9290   23.3980 C   0  0  0  0  0  0  0  0  0  0  0  0
  -18.9200  -30.1960   23.9810 C   0  0  0  0  0  3  0  0  0  0  0  0
  -17.6180  -30.7050   24.1440 C   0  0  0  0  0  3  0  0  0  0  0  0
  -16.5100  -29.9420   23.7340 C   0  0  0  0  0  3  0  0  0  0  0  0
  -16.7070  -28.6760   23.1560 C   0  0  0  0  0  3  0  0  0  0  0  0
  -25.8720  -32.5630   23.8850 C   0  0  0  0  0  3  0  0  0  0  0  0
  -26.3680  -31.8180   25.1870 C   0  0  1  0  0  0  0  0  0  0  0  0
  -25.2590  -31.6020   26.2430 C   0  0  0  0  0  1  0  0  0  0  0  0
  -26.9580  -30.4320   24.8390 C   0  0  0  0  0  1  0  0  0  0  0  0
  -27.5060  -32.6280   25.8520 C   0  0  0  0  0  1  0  0  0  0  0  0
  -25.5570  -33.9670   24.1930 N   0  0  0  0  0  0  0  0  0  0  0  0
  -25.8990  -35.0160   23.4310 C   0  0  0  0  0  0  0  0  0  0  0  0
  -26.5790  -34.9010   22.4080 O   0  0  0  0  0  0  0  0  0  0  0  0
  -24.9560  -34.1290   24.9880 H   0  0  0  0  0  0  0  0  0  0  0  0
  -24.1860  -36.8160   23.0400 C   0  0  0  0  0  1  0  0  0  0  0  0
  -25.4130  -36.4100   23.8720 C   0  0  0  0  0  3  0  0  0  0  0  0
  -27.5330  -37.2980   24.7370 C   0  0  0  0  0  1  0  0  0  0  0  0
  -26.4510  -37.4590   23.7690 N   0  0  0  0  0  0  0  0  0  0  0  0
  -26.0440  -38.3810   23.9010 H   0  0  0  0  0  0  0  0  0  0  0  0
  2  4  1  0
  3  5  2  0
  4 16  1  0
  4  1  2  0
  5  1  1  0
  5 52  1  0
  6  3  1  0
  6  2  2  0
  7  6  1  0
  8 16  1  0
  9 14  1  0
 10 11  1  0
 10  9  1  0
 12 11  1  0
 12 21  1  0
 12 13  1  0
 14  8  1  0
 14 13  1  0
 15  8  2  0
 16 17  1  0
 18 19  2  0
 19 38  1  0
 20 19  1  0
 20 23  1  0
 21 18  1  0
 21 22  1  0
 22 20  2  0
 23 24  1  0
 24 25  2  0
 26 29  1  0
 26 25  1  0
 27 26  2  0
 28 27  1  0
 28 23  2  0
 29 30  1  0
 30 31  1  0
 31 32  2  0
 33 32  1  0
 33 37  1  0
 34 33  2  0
 35 30  2  0
 35 34  1  0
 36 35  1  0
 38 39  1  0
 39 42  1  0
 39 41  1  0
 40 38  2  0
 43 44  1  0
 43 18  1  0
 45 43  1  0
 46 48  2  0
 46  3  1  0
 47 46  1  0
 49 47  1  0
 50 47  1  0
 52 51  1  0
 53 52  1  0
 54 53  1  0
 54 55  1  0
 56 67  2  0
 57 55  1  0
 57 62  1  0
 58 66  1  0
 58 68  1  0
 59 65  1  0
 59 61  1  0
 60 66  1  0
 61 62  2  0
 61 60  1  0
 63 57  2  0
 64 63  1  0
 64 59  2  0
 65 58  1  0
 66 56  1  0
 68 70  2  0
 69 68  1  0
 71 69  1  0
 72 81  2  0
 72 77  1  0
 73 69  1  0
 73 77  1  0
 74 73  1  0
 75 76  1  0
 75 74  1  0
 76 72  1  0
 77 78  2  0
 78 79  1  0
 80 79  2  0
 81 80  1  0
 82 56  1  0
 82 87  1  0
 82 83  1  0
 83 86  1  1
 83 84  1  0
 85 83  1  0
 87 90  1  0
 88 92  1  0
 88 87  1  0
 89 88  2  0
 92 91  1  0
 94 92  1  0
 94 95  1  0
 94 93  1  0
M  ISO  4   8 100  16 100  54 101  55 101
M  END
>  <TORSDO>  (5) 
F 20

>  <SCORE>  (5) 
-14.732

>  <name>  (5) 
4

>  <ligand_id>  (5) 
4

>  <original_smiles>  (5) 
[H]c1c([H])c([H])c2c(c1[H])C([H])([H])C([H])([H])C([H])([H])C2([H])N([H])C(=O)C1([H])N(C(=O)C([H])(N([H])C(=O)C([H])(N([H])C([H])([H])[H])C([H])([H])[H])C(C([H])([H])[H])(C([H])([H])[H])C([H])([H])[H])C([H])([H])c2c([H])c(OC([H])([H])C([H])([H])N(c3c([H])c(N([H])C(=O)N4C([H])([H])C([H])([H])C([H])([H])C([H])(n5nc(-c6c([H])c([H])c(Oc7c([H])c([H])c(F)c([H])c7F)c([H])c6[H])c(C(=O)N([H])[H])c5N([H])[H])C4([H])[H])c([H])c(F)c3C(=O)N([H])[H])C([H])([H])[H])c([H])c([H])c2C1([H])[H]

>  <smiles>  (5) 
[H]c1c([H])c([H])c2c(c1[H])C([H])([H])C([H])([H])C([H])([H])C2([H])N([H])C(=O)C1([H])N(C(=O)C([H])(N([H])C(=O)C([H])(N([H])C([H])([H])[H])C([H])([H])[H])C(C([H])([H])[H])(C([H])([H])[H])C([H])([H])[H])C([H])([H])c2c([H])c(OC([H])([H])C([H])([H])N(c3c([H])c(N([H])C(=O)N4C([H])([H])C([H])([H])C([H])([H])C([H])(n5nc(-c6c([H])c([H])c(Oc7c([H])c([H])c(F)c([H])c7F)c([H])c6[H])c(C(=O)N([H])[H])c5N([H])[H])C4([H])[H])c([H])c(F)c3C(=O)N([H])[H])C([H])([H])[H])c([H])c([H])c2C1([H])[H]

$$$$
5:0:0
     RDKit          3D

 97106  0  0  1  0  0  0  0  0999 V2000
  -29.0830  -21.0600   22.4100 C   0  0  0  0  0  2  0  0  0  0  0  0
  -30.3390  -20.9310   20.1920 C   0  0  0  0  0  2  0  0  0  0  0  0
  -29.8360  -22.3710   22.7080 C   0  0  0  0  0  2  0  0  0  0  0  0
  -31.0590  -22.2360   20.5880 C   0  0  0  0  0  2  0  0  0  0  0  0
  -29.8370  -20.1280   21.4190 C   0  0  0  0  0  3  0  0  0  0  0  0
  -30.1770  -23.0670   21.4440 N   0  0  2  0  0  4  0  0  0  0  0  0
  -29.3210  -23.1800   20.9150 H   0  0  0  0  0  0  0  0  0  0  0  0
  -30.5970  -24.4800   21.6070 C   0  0  0  0  0  2  0  0  0  0  0  0
  -29.4080  -25.3910   21.2410 C   0  0  0  0  0  3  0  0  0  0  0  0
  -28.8330  -24.8440   20.1630 F   0  0  0  0  0  0  0  0  0  0  0  0
  -29.7990  -26.8520   20.9350 C   0  0  0  0  0  2  0  0  0  0  0  0
  -29.0620  -27.2940   19.8020 O   0  0  0  0  0  0  0  0  0  0  0  0
  -24.6920  -31.7880   23.2710 C   0  0  0  0  0  0  0  0  0  0  0  0
  -27.8270  -27.8600   19.9860 C   0  0  0  0  0  0  0  0  0  0  0  0
  -23.6570  -30.3780   21.5190 C   0  0  0  0  0  3  0  0  0  0  0  0
  -25.2840  -29.0780   20.0500 C   0  0  0  0  0  0  0  0  0  0  0  0
  -26.1330  -31.0020   21.4010 C   0  0  0  0  0  2  0  0  0  0  0  0
  -26.3680  -29.6830   20.6980 C   0  0  0  0  0  0  0  0  0  0  0  0
  -27.6430  -29.0770   20.6770 C   0  0  0  0  0  3  0  0  0  0  0  0
  -26.7290  -27.2560   19.3420 C   0  0  0  0  0  3  0  0  0  0  0  0
  -25.4540  -27.8540   19.3800 C   0  0  0  0  0  3  0  0  0  0  0  0
  -23.9600  -29.8060   20.1080 C   0  0  0  0  0  2  0  0  0  0  0  0
  -24.8420  -31.0690   22.1230 N   0  0  0  0  0  0  0  0  0  0  0  0
  -23.5820  -31.9180   23.8030 O   0  0  0  0  0  0  0  0  0  0  0  0
  -23.0940  -29.2410   22.4000 C   0  0  0  0  0  0  0  0  0  0  0  0
  -21.8070  -28.9150   22.2090 N   0  0  0  0  0  0  0  0  0  0  0  0
  -23.8170  -28.6520   23.2090 O   0  0  0  0  0  0  0  0  0  0  0  0
  -21.2780  -29.4500   21.5340 H   0  0  0  0  0  0  0  0  0  0  0  0
  -18.5800  -27.3200   22.4950 C   0  0  0  0  0  0  0  0  0  0  0  0
  -21.0770  -27.8520   22.8980 C   0  0  0  0  0  3  0  0  0  0  0  0
  -21.3700  -26.4730   22.2630 C   0  0  0  0  0  2  0  0  0  0  0  0
  -20.3560  -26.0800   21.1830 C   0  0  0  0  0  2  0  0  0  0  0  0
  -18.9390  -26.0360   21.7650 C   0  0  0  0  0  2  0  0  0  0  0  0
  -19.5850  -28.1800   23.0120 C   0  0  0  0  0  0  0  0  0  0  0  0
  -19.2000  -29.3790   23.6500 C   0  0  0  0  0  3  0  0  0  0  0  0
  -17.8410  -29.7240   23.7730 C   0  0  0  0  0  3  0  0  0  0  0  0
  -16.8500  -28.8600   23.2770 C   0  0  0  0  0  3  0  0  0  0  0  0
  -17.2190  -27.6600   22.6430 C   0  0  0  0  0  3  0  0  0  0  0  0
  -25.9020  -32.5010   23.9530 C   0  0  0  0  0  3  0  0  0  0  0  0
  -25.5010  -33.8850   24.2320 N   0  0  0  0  0  0  0  0  0  0  0  0
  -25.8150  -34.9370   23.4640 C   0  0  0  0  0  0  0  0  0  0  0  0
  -26.5440  -34.8470   22.4720 O   0  0  0  0  0  0  0  0  0  0  0  0
  -24.8610  -34.0250   25.0000 H   0  0  0  0  0  0  0  0  0  0  0  0
  -24.0040  -36.6090   22.9710 C   0  0  0  0  0  1  0  0  0  0  0  0
  -25.2240  -36.3050   23.8560 C   0  0  0  0  0  3  0  0  0  0  0  0
  -27.2560  -37.3380   24.7660 C   0  0  0  0  0  1  0  0  0  0  0  0
  -26.1980  -37.4150   23.7620 N   0  0  0  0  0  0  0  0  0  0  0  0
  -25.7320  -38.3110   23.8650 H   0  0  0  0  0  0  0  0  0  0  0  0
  -26.3830  -31.7790   25.2710 C   0  0  1  0  0  0  0  0  0  0  0  0
  -25.2390  -31.4880   26.2700 C   0  0  0  0  0  1  0  0  0  0  0  0
  -27.0720  -30.4360   24.9370 C   0  0  0  0  0  1  0  0  0  0  0  0
  -27.4370  -32.6510   25.9940 C   0  0  0  0  0  1  0  0  0  0  0  0
  -29.0010  -18.8580   21.0550 C   0  0  0  0  0  3  0  0  0  0  0  0
  -31.0610  -14.7420   19.9040 C   0  0  0  0  0  0  0  0  0  0  0  0
  -30.7800  -12.4730   18.9450 C   0  0  0  0  0  2  0  0  0  0  0  0
  -29.7760  -12.5090   17.7730 C   0  0  0  0  0  2  0  0  0  0  0  0
  -28.3280  -12.3560   18.2840 C   0  0  0  0  0  2  0  0  0  0  0  0
  -28.0160  -13.3240   19.4520 C   0  0  0  0  0  3  0  0  0  0  0  0
  -29.1200  -13.2420   20.5320 C   0  0  0  0  0  2  0  0  0  0  0  0
  -30.4110  -13.5410   19.8890 N   0  0  0  0  0  0  0  0  0  0  0  0
  -32.1470  -14.9150   19.3410 O   0  0  0  0  0  0  0  0  0  0  0  0
  -29.1660  -16.3470   20.2630 C   0  0  0  0  0  2  0  0  0  0  0  0
  -31.0040  -17.0380   21.0310 C   0  0  0  0  0  2  0  0  0  0  0  0
  -29.8020  -17.7230   20.3730 C   0  0  0  0  0  3  0  0  0  0  0  0
  -30.4580  -15.7400   20.5980 N   0  0  0  0  0  0  0  0  0  0  0  0
  -25.7030  -14.0320   20.3330 C   0  0  0  0  0  0  0  0  0  0  0  0
  -24.6320  -13.2970   20.7650 C   0  0  0  0  0  0  0  0  0  0  0  0
  -25.0330  -11.9280   20.6720 C   0  0  0  0  0  0  0  0  0  0  0  0
  -26.6890  -13.1080   20.0120 N   0  0  0  0  0  0  0  0  0  0  0  0
  -26.2930  -11.8400   20.2740 N   0  0  0  0  0  0  0  0  0  0  0  0
  -24.2720  -10.6920   20.8770 C   0  0  0  0  0  0  0  0  0  0  0  0
  -24.7010   -9.7050   21.7910 C   0  0  0  0  0  3  0  0  0  0  0  0
  -23.9440   -8.5300   21.9820 C   0  0  0  0  0  3  0  0  0  0  0  0
  -22.7430   -8.3350   21.2600 C   0  0  0  0  0  0  0  0  0  0  0  0
  -22.3320   -9.3110   20.3340 C   0  0  0  0  0  3  0  0  0  0  0  0
  -23.0890  -10.4770   20.1400 C   0  0  0  0  0  3  0  0  0  0  0  0
  -21.9540   -7.2160   21.3640 O   0  0  0  0  0  0  0  0  0  0  0  0
  -21.8510   -6.5170   22.5380 C   0  0  0  0  0  0  0  0  0  0  0  0
  -21.4000   -7.1250   23.7300 C   0  0  0  0  0  3  0  0  0  0  0  0
  -21.2440   -6.3540   24.8990 C   0  0  0  0  0  3  0  0  0  0  0  0
  -21.5260   -4.9760   24.8760 C   0  0  0  0  0  0  0  0  0  0  0  0
  -21.9690   -4.3660   23.6890 C   0  0  0  0  0  3  0  0  0  0  0  0
  -22.1280   -5.1350   22.5220 C   0  0  0  0  0  0  0  0  0  0  0  0
  -22.5370   -4.5410   21.3760 F   0  0  0  0  0  0  0  0  0  0  0  0
  -21.3680   -4.2310   25.9960 F   0  0  0  0  0  0  0  0  0  0  0  0
  -23.2780  -13.8230   21.1420 C   0  0  0  0  0  0  0  0  0  0  0  0
  -22.5880  -13.1470   22.0540 N   0  0  0  0  0  0  0  0  0  0  0  0
  -22.8420  -14.8670   20.6560 O   0  0  0  0  0  0  0  0  0  0  0  0
  -22.9550  -12.3030   22.4670 H   0  0  0  0  0  0  0  0  0  0  0  0
  -21.6810  -13.4820   22.3480 H   0  0  0  0  0  0  0  0  0  0  0  0
  -25.9100  -15.3970   20.1540 N   0  0  0  0  0  0  0  0  0  0  0  0
  -25.0680  -15.9660   20.1530 H   0  0  0  0  0  0  0  0  0  0  0  0
  -26.5450  -15.6680   19.4150 H   0  0  0  0  0  0  0  0  0  0  0  0
  -27.8260  -19.2110   20.2280 N   0  0  0  0  0  4  0  0  0  0  0  0
  -28.0860  -19.5280   19.3110 H   0  0  0  0  0  0  0  0  0  0  0  0
  -27.2950  -19.9380   20.6770 H   0  0  0  0  0  0  0  0  0  0  0  0
  -27.2130  -18.4210   20.1270 H   0  0  0  0  0  0  0  0  0  0  0  0
  1  3  1  0
  2  4  1  0
  2  5  1  0
  4  6  1  0
  5 53  1  0
  5  1  1  0
  6  8  1  0
  6  3  1  0
  6  7  1  6
  9 10  1  0
  9  8  1  0
 11  9  1  0
 12 14  1  0
 12 11  1  0
 13 24  2  0
 14 19  1  0
 15 23  1  0
 15 25  1  0
 16 22  1  0
 16 18  1  0
 17 23  1  0
 18 17  1  0
 19 18  2  0
 20 21  1  0
 20 14  2  0
 21 16  2  0
 22 15  1  0
 23 13  1  0
 25 27  2  0
 26 25  1  0
 28 26  1  0
 29 38  2  0
 29 34  1  0
 30 26  1  0
 30 34  1  0
 31 30  1  0
 32 33  1  0
 32 31  1  0
 33 29  1  0
 34 35  2  0
 35 36  1  0
 37 36  2  0
 38 37  1  0
 39 13  1  0
 39 40  1  0
 39 49  1  0
 40 43  1  0
 41 45  1  0
 41 40  1  0
 42 41  2  0
 45 44  1  0
 47 45  1  0
 47 48  1  0
 47 46  1  0
 49 52  1  1
 49 50  1  0
 51 49  1  0
 53 94  1  0
 54 65  1  0
 55 60  1  0
 56 57  1  0
 56 55  1  0
 58 57  1  0
 58 69  1  0
 58 59  1  0
 60 54  1  0
 60 59  1  0
 61 54  2  0
 62 64  1  0
 62 65  1  0
 64 63  1  0
 64 53  1  0
 65 63  1  0
 66 67  2  0
 67 86  1  0
 68 67  1  0
 68 71  1  0
 69 70  1  0
 69 66  1  0
 70 68  2  0
 71 72  1  0
 72 73  2  0
 74 77  1  0
 74 73  1  0
 75 74  2  0
 76 75  1  0
 76 71  2  0
 77 78  1  0
 78 79  1  0
 79 80  2  0
 81 80  1  0
 81 85  1  0
 82 81  2  0
 83 78  2  0
 83 82  1  0
 84 83  1  0
 86 87  1  0
 87 90  1  0
 87 89  1  0
 88 86  2  0
 91 66  1  0
 92 91  1  0
 93 91  1  0
 94 96  1  0
 95 94  1  0
 97 94  1  0
M  ISO  4  11 101  12 101  54 100  65 100
M  END
>  <TORSDO>  (6) 
F 21

>  <SCORE>  (6) 
-12.268

>  <name>  (6) 
5

>  <ligand_id>  (6) 
5

>  <original_smiles>  (6) 
[H]c1c([H])c([H])c2c(c1[H])C([H])([H])C([H])([H])C([H])([H])C2([H])N([H])C(=O)C1([H])N(C(=O)C([H])(N([H])C(=O)C([H])(N([H])C([H])([H])[H])C([H])([H])[H])C(C([H])([H])[H])(C([H])([H])[H])C([H])([H])[H])C([H])([H])c2c([H])c(OC([H])([H])C([H])(F)C([H])([H])[N+]3([H])C([H])([H])C([H])([H])C([H])(C([H])(C4([H])C([H])([H])N(C(=O)N5C([H])([H])C([H])([H])C([H])([H])C([H])(n6nc(-c7c([H])c([H])c(Oc8c([H])c([H])c(F)c([H])c8F)c([H])c7[H])c(C(=O)N([H])[H])c6N([H])[H])C5([H])[H])C4([H])[H])[N+]([H])([H])[H])C([H])([H])C3([H])[H])c([H])c([H])c2C1([H])[H]

>  <smiles>  (6) 
[H]c1c([H])c([H])c2c(c1[H])C([H])([H])C([H])([H])C([H])([H])C2([H])N([H])C(=O)C1([H])N(C(=O)C([H])(N([H])C(=O)C([H])(N([H])C([H])([H])[H])C([H])([H])[H])C(C([H])([H])[H])(C([H])([H])[H])C([H])([H])[H])C([H])([H])c2c([H])c(OC([H])([H])C([H])(F)C([H])([H])[N+]3([H])C([H])([H])C([H])([H])C([H])(C([H])(C4([H])C([H])([H])N(C(=O)N5C([H])([H])C([H])([H])C([H])([H])C([H])(n6nc(-c7c([H])c([H])c(Oc8c([H])c([H])c(F)c([H])c8F)c([H])c7[H])c(C(=O)N([H])[H])c6N([H])[H])C5([H])[H])C4([H])[H])[N+]([H])([H])[H])C([H])([H])C3([H])[H])c([H])c([H])c2C1([H])[H]

$$$$
6:0:0
     RDKit          3D

 94103  0  0  1  0  0  0  0  0999 V2000
  -30.1130  -23.6040   20.9390 C   0  0  0  0  0  0  0  0  0  0  0  0
  -30.8980  -21.6670   23.5690 C   0  0  0  0  0  2  0  0  0  0  0  0
  -30.6980  -23.1700   23.3250 C   0  0  0  0  0  2  0  0  0  0  0  0
  -30.7150  -21.4560   22.0560 C   0  0  0  0  0  3  0  0  0  0  0  0
  -30.0740  -22.7760   22.0680 N   0  0  0  0  0  0  0  0  0  0  0  0
  -30.5100  -23.1770   19.8530 O   0  0  0  0  0  0  0  0  0  0  0  0
  -29.7640  -20.3060   21.6300 C   0  0  0  0  0  0  0  0  0  0  0  0
  -31.4940  -17.0760   22.2170 C   0  0  0  0  0  2  0  0  0  0  0  0
  -31.4860  -18.6100   22.2940 C   0  0  0  0  0  2  0  0  0  0  0  0
  -29.4980  -17.8660   21.1750 C   0  0  0  0  0  2  0  0  0  0  0  0
  -30.5800  -16.7900   21.0260 C   0  0  0  0  0  3  0  0  0  0  0  0
  -30.2110  -19.0330   21.7100 N   0  0  0  0  0  0  0  0  0  0  0  0
  -28.6420  -20.5700   21.1820 O   0  0  0  0  0  0  0  0  0  0  0  0
  -30.6000  -14.4500   20.2080 C   0  0  0  0  0  0  0  0  0  0  0  0
  -30.1680  -12.3730   18.9470 C   0  0  0  0  0  2  0  0  0  0  0  0
  -29.2100  -12.6680   17.7770 C   0  0  0  0  0  2  0  0  0  0  0  0
  -27.7430  -12.5460   18.2360 C   0  0  0  0  0  2  0  0  0  0  0  0
  -27.4570  -13.3020   19.5630 C   0  0  0  0  0  3  0  0  0  0  0  0
  -28.5460  -13.0280   20.6270 C   0  0  0  0  0  2  0  0  0  0  0  0
  -29.8620  -13.3180   20.0330 N   0  0  0  0  0  0  0  0  0  0  0  0
  -31.6680  -14.6440   19.6230 O   0  0  0  0  0  0  0  0  0  0  0  0
  -30.0590  -15.4150   20.9710 N   0  0  0  0  0  0  0  0  0  0  0  0
  -29.1750  -15.2180   21.4150 H   0  0  0  0  0  0  0  0  0  0  0  0
  -25.0610  -13.8650   20.3290 C   0  0  0  0  0  0  0  0  0  0  0  0
  -24.0130  -13.0740   20.7200 C   0  0  0  0  0  0  0  0  0  0  0  0
  -24.4950  -11.7300   20.6790 C   0  0  0  0  0  0  0  0  0  0  0  0
  -26.1160  -13.0020   20.0700 N   0  0  0  0  0  0  0  0  0  0  0  0
  -25.7790  -11.7130   20.3400 N   0  0  0  0  0  0  0  0  0  0  0  0
  -23.7920  -10.4570   20.8910 C   0  0  0  0  0  0  0  0  0  0  0  0
  -24.2270   -9.5210   21.8560 C   0  0  0  0  0  3  0  0  0  0  0  0
  -23.5240   -8.3140   22.0490 C   0  0  0  0  0  3  0  0  0  0  0  0
  -22.3700   -8.0320   21.2780 C   0  0  0  0  0  0  0  0  0  0  0  0
  -21.9550   -8.9580   20.3060 C   0  0  0  0  0  3  0  0  0  0  0  0
  -22.6570  -10.1580   20.1110 C   0  0  0  0  0  3  0  0  0  0  0  0
  -21.6400   -6.8740   21.3780 O   0  0  0  0  0  0  0  0  0  0  0  0
  -21.5570   -6.1760   22.5570 C   0  0  0  0  0  0  0  0  0  0  0  0
  -21.0630   -6.7680   23.7400 C   0  0  0  0  0  3  0  0  0  0  0  0
  -20.9330   -5.9940   24.9110 C   0  0  0  0  0  3  0  0  0  0  0  0
  -21.2830   -4.6320   24.8990 C   0  0  0  0  0  0  0  0  0  0  0  0
  -21.7680   -4.0400   23.7190 C   0  0  0  0  0  3  0  0  0  0  0  0
  -21.9030   -4.8090   22.5520 C   0  0  0  0  0  0  0  0  0  0  0  0
  -22.3520   -4.2300   21.4120 F   0  0  0  0  0  0  0  0  0  0  0  0
  -21.1490   -3.8860   26.0200 F   0  0  0  0  0  0  0  0  0  0  0  0
  -22.6140  -13.5320   21.0230 C   0  0  0  0  0  0  0  0  0  0  0  0
  -21.9150  -12.8290   21.9060 N   0  0  0  0  0  0  0  0  0  0  0  0
  -22.1510  -14.5510   20.5110 O   0  0  0  0  0  0  0  0  0  0  0  0
  -22.3000  -12.0050   22.3420 H   0  0  0  0  0  0  0  0  0  0  0  0
  -20.9810  -13.1260   22.1550 H   0  0  0  0  0  0  0  0  0  0  0  0
  -25.1970  -15.2370   20.1520 N   0  0  0  0  0  0  0  0  0  0  0  0
  -24.4110  -15.8670   20.2810 H   0  0  0  0  0  0  0  0  0  0  0  0
  -26.0280  -15.7020   19.8090 H   0  0  0  0  0  0  0  0  0  0  0  0
  -29.6900  -25.0730   21.0770 C   0  0  0  0  0  2  0  0  0  0  0  0
  -28.4110  -25.4190   20.2740 C   0  0  0  0  0  2  0  0  0  0  0  0
  -28.3680  -26.8350   20.0880 O   0  0  0  0  0  0  0  0  0  0  0  0
  -24.5030  -31.8730   23.2060 C   0  0  0  0  0  0  0  0  0  0  0  0
  -27.1480  -27.4760   20.1070 C   0  0  0  0  0  0  0  0  0  0  0  0
  -23.2770  -30.4630   21.5810 C   0  0  0  0  0  3  0  0  0  0  0  0
  -24.7210  -28.9270   20.1400 C   0  0  0  0  0  0  0  0  0  0  0  0
  -25.7860  -30.8600   21.3240 C   0  0  0  0  0  2  0  0  0  0  0  0
  -25.8780  -29.4850   20.6950 C   0  0  0  0  0  0  0  0  0  0  0  0
  -27.0940  -28.7710   20.6630 C   0  0  0  0  0  3  0  0  0  0  0  0
  -25.9700  -26.9120   19.5630 C   0  0  0  0  0  3  0  0  0  0  0  0
  -24.7610  -27.6390   19.5720 C   0  0  0  0  0  3  0  0  0  0  0  0
  -23.4670  -29.7740   20.2020 C   0  0  0  0  0  2  0  0  0  0  0  0
  -24.5430  -31.0780   22.0990 N   0  0  0  0  0  0  0  0  0  0  0  0
  -23.4310  -32.1360   23.7660 O   0  0  0  0  0  0  0  0  0  0  0  0
  -22.6460  -29.4410   22.5540 C   0  0  0  0  0  0  0  0  0  0  0  0
  -21.3220  -29.2470   22.4400 N   0  0  0  0  0  0  0  0  0  0  0  0
  -23.3430  -28.8280   23.3650 O   0  0  0  0  0  0  0  0  0  0  0  0
  -20.8190  -29.7930   21.7540 H   0  0  0  0  0  0  0  0  0  0  0  0
  -17.9680  -28.0170   22.9620 C   0  0  0  0  0  0  0  0  0  0  0  0
  -20.5230  -28.3040   23.2210 C   0  0  0  0  0  3  0  0  0  0  0  0
  -20.6400  -26.8700   22.6530 C   0  0  0  0  0  2  0  0  0  0  0  0
  -19.5360  -26.5300   21.6460 C   0  0  0  0  0  2  0  0  0  0  0  0
  -18.1560  -26.6640   22.2950 C   0  0  0  0  0  2  0  0  0  0  0  0
  -19.0800  -28.7920   23.3840 C   0  0  0  0  0  0  0  0  0  0  0  0
  -18.8500  -30.0570   23.9670 C   0  0  0  0  0  3  0  0  0  0  0  0
  -17.5400  -30.5450   24.1350 C   0  0  0  0  0  3  0  0  0  0  0  0
  -16.4430  -29.7670   23.7310 C   0  0  0  0  0  3  0  0  0  0  0  0
  -16.6570  -28.5040   23.1490 C   0  0  0  0  0  3  0  0  0  0  0  0
  -25.7970  -32.5090   23.8070 C   0  0  0  0  0  3  0  0  0  0  0  0
  -26.3370  -31.7430   25.0750 C   0  0  1  0  0  0  0  0  0  0  0  0
  -25.2630  -31.5070   26.1620 C   0  0  0  0  0  1  0  0  0  0  0  0
  -26.9190  -30.3680   24.6710 C   0  0  0  0  0  1  0  0  0  0  0  0
  -27.4960  -32.5420   25.7190 C   0  0  0  0  0  1  0  0  0  0  0  0
  -25.4920  -33.9080   24.1330 N   0  0  0  0  0  0  0  0  0  0  0  0
  -25.8100  -34.9540   23.3590 C   0  0  0  0  0  0  0  0  0  0  0  0
  -26.4620  -34.8450   22.3170 O   0  0  0  0  0  0  0  0  0  0  0  0
  -24.9130  -34.0670   24.9430 H   0  0  0  0  0  0  0  0  0  0  0  0
  -24.0720  -36.7400   23.0200 C   0  0  0  0  0  1  0  0  0  0  0  0
  -25.3270  -36.3440   23.8150 C   0  0  0  0  0  3  0  0  0  0  0  0
  -27.4710  -37.2390   24.6070 C   0  0  0  0  0  1  0  0  0  0  0  0
  -26.3550  -37.3980   23.6790 N   0  0  0  0  0  0  0  0  0  0  0  0
  -25.9500  -38.3180   23.8270 H   0  0  0  0  0  0  0  0  0  0  0  0
  1 52  1  0
  1  5  1  0
  3  2  1  0
  4  7  1  0
  4  5  1  0
  4  2  1  0
  5  3  1  0
  6  1  2  0
  7 12  1  0
  8  9  1  0
 10 12  1  0
 11 22  1  0
 11 10  1  0
 11  8  1  0
 12  9  1  0
 13  7  2  0
 14 22  1  0
 15 20  1  0
 16 17  1  0
 16 15  1  0
 18 17  1  0
 18 27  1  0
 18 19  1  0
 20 14  1  0
 20 19  1  0
 21 14  2  0
 22 23  1  0
 24 25  2  0
 25 44  1  0
 26 25  1  0
 26 29  1  0
 27 24  1  0
 27 28  1  0
 28 26  2  0
 29 30  1  0
 30 31  2  0
 32 35  1  0
 32 31  1  0
 33 32  2  0
 34 33  1  0
 34 29  2  0
 35 36  1  0
 36 37  1  0
 37 38  2  0
 39 38  1  0
 39 43  1  0
 40 39  2  0
 41 36  2  0
 41 40  1  0
 42 41  1  0
 44 45  1  0
 45 48  1  0
 45 47  1  0
 46 44  2  0
 49 50  1  0
 49 24  1  0
 51 49  1  0
 53 52  1  0
 54 56  1  0
 54 53  1  0
 55 66  2  0
 56 61  1  0
 57 65  1  0
 57 67  1  0
 58 64  1  0
 58 60  1  0
 59 65  1  0
 60 59  1  0
 61 60  2  0
 62 63  1  0
 62 56  2  0
 63 58  2  0
 64 57  1  0
 65 55  1  0
 67 69  2  0
 68 67  1  0
 70 68  1  0
 71 80  2  0
 71 76  1  0
 72 68  1  0
 72 76  1  0
 73 72  1  0
 74 75  1  0
 74 73  1  0
 75 71  1  0
 76 77  2  0
 77 78  1  0
 79 78  2  0
 80 79  1  0
 81 55  1  0
 81 86  1  0
 81 82  1  0
 82 85  1  1
 82 83  1  0
 84 82  1  0
 86 89  1  0
 87 91  1  0
 87 86  1  0
 88 87  2  0
 91 90  1  0
 93 91  1  0
 93 94  1  0
 93 92  1  0
M  ISO  4  14 100  22 100  53 101  54 101
M  END
>  <TORSDO>  (7) 
F 19

>  <SCORE>  (7) 
-12.687

>  <name>  (7) 
6

>  <ligand_id>  (7) 
6

>  <original_smiles>  (7) 
[H]c1c([H])c([H])c2c(c1[H])C([H])([H])C([H])([H])C([H])([H])C2([H])N([H])C(=O)C1([H])N(C(=O)C([H])(N([H])C(=O)C([H])(N([H])C([H])([H])[H])C([H])([H])[H])C(C([H])([H])[H])(C([H])([H])[H])C([H])([H])[H])C([H])([H])c2c([H])c(OC([H])([H])C([H])([H])C(=O)N3C([H])([H])C([H])([H])C3([H])C(=O)N3C([H])([H])C([H])([H])C([H])(N([H])C(=O)N4C([H])([H])C([H])([H])C([H])([H])C([H])(n5nc(-c6c([H])c([H])c(Oc7c([H])c([H])c(F)c([H])c7F)c([H])c6[H])c(C(=O)N([H])[H])c5N([H])[H])C4([H])[H])C3([H])[H])c([H])c([H])c2C1([H])[H]

>  <smiles>  (7) 
[H]c1c([H])c([H])c2c(c1[H])C([H])([H])C([H])([H])C([H])([H])C2([H])N([H])C(=O)C1([H])N(C(=O)C([H])(N([H])C(=O)C([H])(N([H])C([H])([H])[H])C([H])([H])[H])C(C([H])([H])[H])(C([H])([H])[H])C([H])([H])[H])C([H])([H])c2c([H])c(OC([H])([H])C([H])([H])C(=O)N3C([H])([H])C([H])([H])C3([H])C(=O)N3C([H])([H])C([H])([H])C([H])(N([H])C(=O)N4C([H])([H])C([H])([H])C([H])([H])C([H])(n5nc(-c6c([H])c([H])c(Oc7c([H])c([H])c(F)c([H])c7F)c([H])c6[H])c(C(=O)N([H])[H])c5N([H])[H])C4([H])[H])C3([H])[H])c([H])c([H])c2C1([H])[H]

$$$$
7:0:0
     RDKit          3D

 98107  0  0  1  0  0  0  0  0999 V2000
  -29.1450  -22.5290   23.3680 C   0  0  0  0  0  1  0  0  0  0  0  0
  -30.1580  -22.6510   22.2870 N   0  0  2  0  0  4  0  0  0  0  0  0
  -29.6490  -22.8660   21.4370 H   0  0  0  0  0  0  0  0  0  0  0  0
  -31.9350  -20.0220   20.3670 C   0  0  0  0  0  0  0  0  0  0  0  0
  -31.9480  -21.4510   20.8820 C   0  0  0  0  0  2  0  0  0  0  0  0
  -30.0520  -20.2030   21.6870 C   0  0  0  0  0  2  0  0  0  0  0  0
  -30.9340  -21.4030   22.0410 C   0  0  0  0  0  3  0  0  0  0  0  0
  -30.9110  -19.3410   20.9000 N   0  0  0  0  0  0  0  0  0  0  0  0
  -32.7800  -19.5830   19.5800 O   0  0  0  0  0  0  0  0  0  0  0  0
  -30.3660  -14.3680   19.9750 C   0  0  0  0  0  0  0  0  0  0  0  0
  -30.0070  -12.2300   18.8060 C   0  0  0  0  0  2  0  0  0  0  0  0
  -28.9570  -12.3960   17.6910 C   0  0  0  0  0  2  0  0  0  0  0  0
  -27.5350  -12.1840   18.2490 C   0  0  0  0  0  2  0  0  0  0  0  0
  -27.2690  -13.0250   19.5260 C   0  0  0  0  0  3  0  0  0  0  0  0
  -28.4220  -12.8590   20.5410 C   0  0  0  0  0  2  0  0  0  0  0  0
  -29.6900  -13.1970   19.8650 N   0  0  0  0  0  0  0  0  0  0  0  0
  -31.3800  -14.6420   19.3210 O   0  0  0  0  0  0  0  0  0  0  0  0
  -29.0840  -17.6190   20.7820 C   0  0  0  0  0  2  0  0  0  0  0  0
  -31.3510  -17.0690   21.7640 C   0  0  0  0  0  2  0  0  0  0  0  0
  -28.8080  -16.1570   20.3980 C   0  0  0  0  0  2  0  0  0  0  0  0
  -30.6790  -15.6990   22.0050 C   0  0  0  0  0  2  0  0  0  0  0  0
  -30.6020  -17.9230   20.7160 C   0  0  0  0  0  3  0  0  0  0  0  0
  -29.8630  -15.2410   20.8700 N   0  0  0  0  0  0  0  0  0  0  0  0
  -24.9280  -13.5460   20.4660 C   0  0  0  0  0  0  0  0  0  0  0  0
  -23.9260  -12.7350   20.9290 C   0  0  0  0  0  0  0  0  0  0  0  0
  -24.4260  -11.4010   20.8330 C   0  0  0  0  0  0  0  0  0  0  0  0
  -25.9750  -12.7020   20.1250 N   0  0  0  0  0  0  0  0  0  0  0  0
  -25.6800  -11.4070   20.4000 N   0  0  0  0  0  0  0  0  0  0  0  0
  -23.7630  -10.1120   21.0770 C   0  0  0  0  0  0  0  0  0  0  0  0
  -24.2720   -9.1860   22.0140 C   0  0  0  0  0  3  0  0  0  0  0  0
  -23.6130   -7.9620   22.2430 C   0  0  0  0  0  3  0  0  0  0  0  0
  -22.4260   -7.6530   21.5380 C   0  0  0  0  0  0  0  0  0  0  0  0
  -21.9330   -8.5650   20.5890 C   0  0  0  0  0  3  0  0  0  0  0  0
  -22.5950   -9.7830   20.3570 C   0  0  0  0  0  3  0  0  0  0  0  0
  -21.7290   -6.4760   21.6770 O   0  0  0  0  0  0  0  0  0  0  0  0
  -21.7060   -5.7900   22.8630 C   0  0  0  0  0  0  0  0  0  0  0  0
  -21.2440   -6.3830   24.0590 C   0  0  0  0  0  3  0  0  0  0  0  0
  -21.1740   -5.6160   25.2400 C   0  0  0  0  0  3  0  0  0  0  0  0
  -21.5520   -4.2590   25.2260 C   0  0  0  0  0  0  0  0  0  0  0  0
  -22.0040   -3.6680   24.0340 C   0  0  0  0  0  3  0  0  0  0  0  0
  -22.0770   -4.4300   22.8550 C   0  0  0  0  0  0  0  0  0  0  0  0
  -22.4950   -3.8500   21.7060 F   0  0  0  0  0  0  0  0  0  0  0  0
  -21.4780   -3.5210   26.3580 F   0  0  0  0  0  0  0  0  0  0  0  0
  -22.5460  -13.1620   21.3400 C   0  0  0  0  0  0  0  0  0  0  0  0
  -21.9330  -12.4420   22.2730 N   0  0  0  0  0  0  0  0  0  0  0  0
  -22.0190  -14.1670   20.8660 O   0  0  0  0  0  0  0  0  0  0  0  0
  -22.3760  -11.6350   22.6860 H   0  0  0  0  0  0  0  0  0  0  0  0
  -21.0040  -12.7000   22.5760 H   0  0  0  0  0  0  0  0  0  0  0  0
  -25.0320  -14.9230   20.2900 N   0  0  0  0  0  0  0  0  0  0  0  0
  -24.2530  -15.5500   20.4630 H   0  0  0  0  0  0  0  0  0  0  0  0
  -25.8400  -15.3900   19.9000 H   0  0  0  0  0  0  0  0  0  0  0  0
  -31.0190  -23.8490   22.4560 C   0  0  0  0  0  2  0  0  0  0  0  0
  -30.3860  -25.0480   21.7240 C   0  0  0  0  0  2  0  0  0  0  0  0
  -31.3180  -24.5130   19.5440 C   0  0  0  0  0  1  0  0  0  0  0  0
  -30.0900  -24.6970   20.3250 N   0  0  0  0  0  0  0  0  0  0  0  0
  -29.3230  -25.7400   19.6310 C   0  0  0  0  0  2  0  0  0  0  0  0
  -27.9400  -26.0550   20.2360 C   0  0  0  0  0  2  0  0  0  0  0  0
  -27.1430  -26.5300   19.1660 O   0  0  0  0  0  0  0  0  0  0  0  0
  -24.2180  -31.7360   23.1100 C   0  0  0  0  0  0  0  0  0  0  0  0
  -26.0740  -27.3260   19.4830 C   0  0  0  0  0  0  0  0  0  0  0  0
  -22.7080  -30.5710   21.5320 C   0  0  0  0  0  3  0  0  0  0  0  0
  -23.8450  -29.0040   19.8730 C   0  0  0  0  0  0  0  0  0  0  0  0
  -25.2180  -30.7140   21.0710 C   0  0  0  0  0  2  0  0  0  0  0  0
  -25.1020  -29.3850   20.3610 C   0  0  0  0  0  0  0  0  0  0  0  0
  -26.2240  -28.5470   20.1740 C   0  0  0  0  0  3  0  0  0  0  0  0
  -24.8060  -26.9500   19.0000 C   0  0  0  0  0  3  0  0  0  0  0  0
  -23.6880  -27.7820   19.1970 C   0  0  0  0  0  3  0  0  0  0  0  0
  -22.7010  -29.9640   20.1030 C   0  0  0  0  0  2  0  0  0  0  0  0
  -24.0740  -31.0170   21.9610 N   0  0  0  0  0  0  0  0  0  0  0  0
  -23.2340  -32.0650   23.7860 O   0  0  0  0  0  0  0  0  0  0  0  0
  -22.0660  -29.5470   22.4960 C   0  0  0  0  0  0  0  0  0  0  0  0
  -20.7310  -29.4230   22.4310 N   0  0  0  0  0  0  0  0  0  0  0  0
  -22.7660  -28.8690   23.2540 O   0  0  0  0  0  0  0  0  0  0  0  0
  -20.2310  -30.0220   21.7890 H   0  0  0  0  0  0  0  0  0  0  0  0
  -17.3570  -28.2560   22.9700 C   0  0  0  0  0  0  0  0  0  0  0  0
  -19.9170  -28.4960   23.2170 C   0  0  0  0  0  3  0  0  0  0  0  0
  -20.0040  -27.0600   22.6500 C   0  0  0  0  0  2  0  0  0  0  0  0
  -18.8920  -26.7400   21.6470 C   0  0  0  0  0  2  0  0  0  0  0  0
  -17.5170  -26.9010   22.3000 C   0  0  0  0  0  2  0  0  0  0  0  0
  -18.4850  -29.0120   23.3860 C   0  0  0  0  0  0  0  0  0  0  0  0
  -18.2820  -30.2810   23.9700 C   0  0  0  0  0  3  0  0  0  0  0  0
  -16.9830  -30.7980   24.1380 C   0  0  0  0  0  3  0  0  0  0  0  0
  -15.8690  -30.0400   23.7380 C   0  0  0  0  0  3  0  0  0  0  0  0
  -16.0560  -28.7700   23.1620 C   0  0  0  0  0  3  0  0  0  0  0  0
  -25.6210  -32.1980   23.6150 C   0  0  0  0  0  3  0  0  0  0  0  0
  -25.4850  -33.5830   24.0860 N   0  0  0  0  0  0  0  0  0  0  0  0
  -25.8550  -34.6620   23.3850 C   0  0  0  0  0  0  0  0  0  0  0  0
  -26.4210  -34.5910   22.2900 O   0  0  0  0  0  0  0  0  0  0  0  0
  -24.9730  -33.7180   24.9440 H   0  0  0  0  0  0  0  0  0  0  0  0
  -24.2880  -36.6250   23.3390 C   0  0  0  0  0  1  0  0  0  0  0  0
  -25.5470  -36.0410   23.9980 C   0  0  0  0  0  3  0  0  0  0  0  0
  -27.8220  -36.6400   24.6960 C   0  0  0  0  0  1  0  0  0  0  0  0
  -26.6650  -37.0030   23.8810 N   0  0  0  0  0  0  0  0  0  0  0  0
  -26.3670  -37.9350   24.1530 H   0  0  0  0  0  0  0  0  0  0  0  0
  -26.2060  -31.2760   24.7540 C   0  0  1  0  0  0  0  0  0  0  0  0
  -25.2240  -31.0360   25.9250 C   0  0  0  0  0  1  0  0  0  0  0  0
  -26.6060  -29.8950   24.1840 C   0  0  0  0  0  1  0  0  0  0  0  0
  -27.4960  -31.9050   25.3280 C   0  0  0  0  0  1  0  0  0  0  0  0
  2 52  1  0
  2  1  1  0
  2  3  1  6
  4  5  1  0
  4  8  1  0
  5  7  1  0
  6  7  1  0
  7  2  1  0
  8  6  1  0
  9  4  2  0
 10 23  1  0
 11 16  1  0
 12 13  1  0
 12 11  1  0
 14 13  1  0
 14 27  1  0
 14 15  1  0
 16 10  1  0
 16 15  1  0
 17 10  2  0
 19 21  1  0
 20 18  1  0
 20 23  1  0
 22 18  1  0
 22  8  1  0
 22 19  1  0
 23 21  1  0
 24 25  2  0
 25 44  1  0
 26 25  1  0
 26 29  1  0
 27 28  1  0
 27 24  1  0
 28 26  2  0
 29 30  1  0
 30 31  2  0
 32 35  1  0
 32 31  1  0
 33 32  2  0
 34 33  1  0
 34 29  2  0
 35 36  1  0
 36 37  1  0
 37 38  2  0
 39 38  1  0
 39 43  1  0
 40 39  2  0
 41 36  2  0
 41 40  1  0
 42 41  1  0
 44 45  1  0
 45 48  1  0
 45 47  1  0
 46 44  2  0
 49 50  1  0
 49 24  1  0
 51 49  1  0
 53 52  1  0
 54 55  1  0
 55 53  1  0
 56 57  1  0
 56 55  1  0
 58 60  1  0
 58 57  1  0
 59 70  2  0
 60 65  1  0
 61 69  1  0
 61 71  1  0
 62 68  1  0
 62 64  1  0
 63 69  1  0
 64 63  1  0
 65 64  2  0
 66 67  1  0
 66 60  2  0
 67 62  2  0
 68 61  1  0
 69 59  1  0
 71 73  2  0
 72 71  1  0
 74 72  1  0
 75 84  2  0
 75 80  1  0
 76 72  1  0
 76 80  1  0
 77 76  1  0
 78 79  1  0
 78 77  1  0
 79 75  1  0
 80 81  2  0
 81 82  1  0
 83 82  2  0
 84 83  1  0
 85 59  1  0
 85 86  1  0
 85 95  1  0
 86 89  1  0
 87 91  1  0
 87 86  1  0
 88 87  2  0
 91 90  1  0
 93 91  1  0
 93 94  1  0
 93 92  1  0
 95 98  1  1
 95 96  1  0
 97 95  1  0
M  ISO  4  10 100  23 100  57 101  58 101
M  END
>  <TORSDO>  (8) 
F 22

>  <SCORE>  (8) 
-10.248

>  <name>  (8) 
7

>  <ligand_id>  (8) 
7

>  <original_smiles>  (8) 
[H]c1c([H])c([H])c2c(c1[H])C([H])([H])C([H])([H])C([H])([H])C2([H])N([H])C(=O)C1([H])N(C(=O)C([H])(N([H])C(=O)C([H])(N([H])C([H])([H])[H])C([H])([H])[H])C(C([H])([H])[H])(C([H])([H])[H])C([H])([H])[H])C([H])([H])c2c([H])c(OC([H])([H])C([H])([H])N(C([H])([H])[H])C([H])([H])C([H])([H])[N+]([H])(C([H])([H])[H])C3([H])C([H])([H])C(=O)N(C4([H])C([H])([H])C([H])([H])N(C(=O)N5C([H])([H])C([H])([H])C([H])([H])C([H])(n6nc(-c7c([H])c([H])c(Oc8c([H])c([H])c(F)c([H])c8F)c([H])c7[H])c(C(=O)N([H])[H])c6N([H])[H])C5([H])[H])C([H])([H])C4([H])[H])C3([H])[H])c([H])c([H])c2C1([H])[H]

>  <smiles>  (8) 
[H]c1c([H])c([H])c2c(c1[H])C([H])([H])C([H])([H])C([H])([H])C2([H])N([H])C(=O)C1([H])N(C(=O)C([H])(N([H])C(=O)C([H])(N([H])C([H])([H])[H])C([H])([H])[H])C(C([H])([H])[H])(C([H])([H])[H])C([H])([H])[H])C([H])([H])c2c([H])c(OC([H])([H])C([H])([H])N(C([H])([H])[H])C([H])([H])C([H])([H])[N+]([H])(C([H])([H])[H])C3([H])C([H])([H])C(=O)N(C4([H])C([H])([H])C([H])([H])N(C(=O)N5C([H])([H])C([H])([H])C([H])([H])C([H])(n6nc(-c7c([H])c([H])c(Oc8c([H])c([H])c(F)c([H])c8F)c([H])c7[H])c(C(=O)N([H])[H])c6N([H])[H])C5([H])[H])C([H])([H])C4([H])[H])C3([H])[H])c([H])c([H])c2C1([H])[H]

$$$$
8:0:0
     RDKit          3D

 96104  0  0  1  0  0  0  0  0999 V2000
  -28.5980  -20.1320   21.2220 C   0  0  0  0  0  2  0  0  0  0  0  0
  -29.0330  -18.7900   20.7150 N   0  0  0  0  0  0  0  0  0  0  0  0
  -28.3350  -18.0520   20.6890 H   0  0  0  0  0  0  0  0  0  0  0  0
  -32.0730  -17.1440   19.2510 C   0  0  0  0  0  3  0  0  0  0  0  0
  -31.3090  -19.5460   20.3920 C   0  0  0  0  0  3  0  0  0  0  0  0
  -30.8320  -17.1650   19.9610 C   0  0  0  0  0  0  0  0  0  0  0  0
  -30.3740  -18.4760   20.3750 C   0  0  0  0  0  0  0  0  0  0  0  0
  -32.9440  -18.2430   19.1990 C   0  0  0  0  0  0  0  0  0  0  0  0
  -32.5870  -19.4330   19.8310 C   0  0  0  0  0  0  0  0  0  0  0  0
  -34.1380  -18.1390   18.5640 F   0  0  0  0  0  0  0  0  0  0  0  0
  -33.4420  -20.4850   19.8580 F   0  0  0  0  0  0  0  0  0  0  0  0
  -30.7190  -14.6470   20.2540 C   0  0  0  0  0  0  0  0  0  0  0  0
  -30.3320  -12.4350   19.2490 C   0  0  0  0  0  2  0  0  0  0  0  0
  -29.3970  -12.5490   18.0330 C   0  0  0  0  0  2  0  0  0  0  0  0
  -27.9310  -12.4140   18.4820 C   0  0  0  0  0  2  0  0  0  0  0  0
  -27.5850  -13.3240   19.6930 C   0  0  0  0  0  3  0  0  0  0  0  0
  -28.6550  -13.2530   20.8030 C   0  0  0  0  0  2  0  0  0  0  0  0
  -29.9540  -13.5180   20.1780 N   0  0  0  0  0  0  0  0  0  0  0  0
  -31.9330  -14.5370   20.1120 O   0  0  0  0  0  0  0  0  0  0  0  0
  -30.1300  -15.8920   20.2150 N   0  0  0  0  0  0  0  0  0  0  0  0
  -29.1380  -15.9380   20.3950 H   0  0  0  0  0  0  0  0  0  0  0  0
  -25.2080  -13.9300   20.4410 C   0  0  0  0  0  0  0  0  0  0  0  0
  -24.1410  -13.1620   20.8210 C   0  0  0  0  0  0  0  0  0  0  0  0
  -24.5970  -11.8090   20.7950 C   0  0  0  0  0  0  0  0  0  0  0  0
  -26.2460  -13.0450   20.2040 N   0  0  0  0  0  0  0  0  0  0  0  0
  -25.8870  -11.7640   20.4840 N   0  0  0  0  0  0  0  0  0  0  0  0
  -23.8660  -10.5500   20.9920 C   0  0  0  0  0  0  0  0  0  0  0  0
  -24.2860   -9.5910   21.9410 C   0  0  0  0  0  3  0  0  0  0  0  0
  -23.5550   -8.3970   22.1240 C   0  0  0  0  0  3  0  0  0  0  0  0
  -22.3900   -8.1540   21.3590 C   0  0  0  0  0  0  0  0  0  0  0  0
  -21.9890   -9.1010   20.4000 C   0  0  0  0  0  3  0  0  0  0  0  0
  -22.7190  -10.2870   20.2150 C   0  0  0  0  0  3  0  0  0  0  0  0
  -21.6300   -7.0130   21.4530 O   0  0  0  0  0  0  0  0  0  0  0  0
  -21.5610   -6.2860   22.6150 C   0  0  0  0  0  0  0  0  0  0  0  0
  -21.1000   -6.8550   23.8230 C   0  0  0  0  0  3  0  0  0  0  0  0
  -20.9790   -6.0550   24.9760 C   0  0  0  0  0  3  0  0  0  0  0  0
  -21.3100   -4.6870   24.9240 C   0  0  0  0  0  0  0  0  0  0  0  0
  -21.7660   -4.1190   23.7210 C   0  0  0  0  0  3  0  0  0  0  0  0
  -21.8880   -4.9160   22.5690 C   0  0  0  0  0  0  0  0  0  0  0  0
  -22.3070   -4.3580   21.4080 F   0  0  0  0  0  0  0  0  0  0  0  0
  -21.1870   -3.9170   26.0300 F   0  0  0  0  0  0  0  0  0  0  0  0
  -22.7460  -13.6470   21.0890 C   0  0  0  0  0  0  0  0  0  0  0  0
  -22.0100  -12.9600   21.9540 N   0  0  0  0  0  0  0  0  0  0  0  0
  -22.3140  -14.6730   20.5630 O   0  0  0  0  0  0  0  0  0  0  0  0
  -22.3710  -12.1320   22.4050 H   0  0  0  0  0  0  0  0  0  0  0  0
  -21.0740  -13.2690   22.1740 H   0  0  0  0  0  0  0  0  0  0  0  0
  -25.3780  -15.2980   20.2530 N   0  0  0  0  0  0  0  0  0  0  0  0
  -24.6150  -15.9590   20.3570 H   0  0  0  0  0  0  0  0  0  0  0  0
  -26.2180  -15.7170   19.8730 H   0  0  0  0  0  0  0  0  0  0  0  0
  -28.5670  -21.3780   20.2350 C   0  0  0  0  0  2  0  0  0  0  0  0
  -28.2310  -22.6880   20.9060 N   0  0  0  0  0  4  0  0  0  0  0  0
  -28.7830  -22.7390   21.7490 H   0  0  0  0  0  0  0  0  0  0  0  0
  -27.2650  -22.6380   21.1940 H   0  0  0  0  0  0  0  0  0  0  0  0
  -28.4470  -23.9700   20.1250 C   0  0  0  0  0  2  0  0  0  0  0  0
  -28.1500  -25.2970   20.9290 C   0  0  0  0  0  2  0  0  0  0  0  0
  -28.3840  -26.5870   20.2630 O   0  0  0  0  0  0  0  0  0  0  0  0
  -24.6160  -31.9110   23.2420 C   0  0  0  0  0  0  0  0  0  0  0  0
  -27.2790  -27.4260   20.2010 C   0  0  0  0  0  0  0  0  0  0  0  0
  -23.4350  -30.5130   21.5820 C   0  0  0  0  0  3  0  0  0  0  0  0
  -24.9100  -28.9860   20.1580 C   0  0  0  0  0  0  0  0  0  0  0  0
  -25.9680  -30.8650   21.4190 C   0  0  0  0  0  2  0  0  0  0  0  0
  -26.0650  -29.4930   20.7700 C   0  0  0  0  0  0  0  0  0  0  0  0
  -27.2590  -28.7230   20.7830 C   0  0  0  0  0  3  0  0  0  0  0  0
  -26.1150  -26.9610   19.5580 C   0  0  0  0  0  3  0  0  0  0  0  0
  -24.9340  -27.7250   19.5410 C   0  0  0  0  0  3  0  0  0  0  0  0
  -23.6650  -29.8470   20.1980 C   0  0  0  0  0  2  0  0  0  0  0  0
  -24.6910  -31.1110   22.1390 N   0  0  0  0  0  0  0  0  0  0  0  0
  -23.5270  -32.1740   23.7720 O   0  0  0  0  0  0  0  0  0  0  0  0
  -22.7770  -29.4820   22.5300 C   0  0  0  0  0  0  0  0  0  0  0  0
  -21.4540  -29.2950   22.3910 N   0  0  0  0  0  0  0  0  0  0  0  0
  -23.4550  -28.8550   23.3490 O   0  0  0  0  0  0  0  0  0  0  0  0
  -20.9660  -29.8550   21.7050 H   0  0  0  0  0  0  0  0  0  0  0  0
  -18.0800  -28.0870   22.8640 C   0  0  0  0  0  0  0  0  0  0  0  0
  -20.6350  -28.3490   23.1500 C   0  0  0  0  0  3  0  0  0  0  0  0
  -20.7430  -26.9230   22.5640 C   0  0  0  0  0  2  0  0  0  0  0  0
  -19.6480  -26.6060   21.5410 C   0  0  0  0  0  2  0  0  0  0  0  0
  -18.2620  -26.7440   22.1790 C   0  0  0  0  0  2  0  0  0  0  0  0
  -19.1940  -28.8490   23.3050 C   0  0  0  0  0  0  0  0  0  0  0  0
  -18.9700  -30.1080   23.9040 C   0  0  0  0  0  3  0  0  0  0  0  0
  -17.6630  -30.6050   24.0660 C   0  0  0  0  0  3  0  0  0  0  0  0
  -16.5630  -29.8410   23.6410 C   0  0  0  0  0  3  0  0  0  0  0  0
  -16.7720  -28.5850   23.0450 C   0  0  0  0  0  3  0  0  0  0  0  0
  -25.8910  -32.5470   23.8770 C   0  0  0  0  0  3  0  0  0  0  0  0
  -25.5740  -33.9460   24.1970 N   0  0  0  0  0  0  0  0  0  0  0  0
  -25.9100  -34.9960   23.4340 C   0  0  0  0  0  0  0  0  0  0  0  0
  -26.5890  -34.8890   22.4100 O   0  0  0  0  0  0  0  0  0  0  0  0
  -24.9760  -34.1030   24.9940 H   0  0  0  0  0  0  0  0  0  0  0  0
  -24.1840  -36.7850   23.0460 C   0  0  0  0  0  1  0  0  0  0  0  0
  -25.4120  -36.3860   23.8800 C   0  0  0  0  0  3  0  0  0  0  0  0
  -27.5300  -37.2800   24.7440 C   0  0  0  0  0  1  0  0  0  0  0  0
  -26.4440  -37.4400   23.7800 N   0  0  0  0  0  0  0  0  0  0  0  0
  -26.0330  -38.3610   23.9140 H   0  0  0  0  0  0  0  0  0  0  0  0
  -26.3950  -31.7830   25.1620 C   0  0  1  0  0  0  0  0  0  0  0  0
  -25.2900  -31.5440   26.2180 C   0  0  0  0  0  1  0  0  0  0  0  0
  -26.9870  -30.4050   24.7810 C   0  0  0  0  0  1  0  0  0  0  0  0
  -27.5320  -32.5830   25.8370 C   0  0  0  0  0  1  0  0  0  0  0  0
  2  1  1  0
  3  2  1  0
  4  6  1  0
  6 20  1  0
  6  7  2  0
  7  5  1  0
  7  2  1  0
  8  4  2  0
  8  9  1  0
  9 11  1  0
  9  5  2  0
 10  8  1  0
 13 18  1  0
 14 15  1  0
 14 13  1  0
 16 15  1  0
 16 25  1  0
 16 17  1  0
 18 12  1  0
 18 17  1  0
 19 12  2  0
 20 12  1  0
 20 21  1  0
 22 23  2  0
 23 42  1  0
 24 23  1  0
 24 27  1  0
 25 22  1  0
 25 26  1  0
 26 24  2  0
 27 28  1  0
 28 29  2  0
 30 33  1  0
 30 29  1  0
 31 30  2  0
 32 31  1  0
 32 27  2  0
 33 34  1  0
 34 35  1  0
 35 36  2  0
 37 36  1  0
 37 41  1  0
 38 37  2  0
 39 34  2  0
 39 38  1  0
 40 39  1  0
 42 43  1  0
 43 46  1  0
 43 45  1  0
 44 42  2  0
 47 48  1  0
 47 22  1  0
 49 47  1  0
 50 51  1  0
 50  1  1  0
 51 53  1  0
 51 52  1  0
 54 51  1  0
 54 55  1  0
 56 55  1  0
 57 68  2  0
 58 56  1  0
 58 63  1  0
 59 67  1  0
 59 69  1  0
 60 66  1  0
 60 62  1  0
 61 67  1  0
 62 63  2  0
 62 61  1  0
 64 58  2  0
 65 64  1  0
 65 60  2  0
 66 59  1  0
 67 57  1  0
 69 71  2  0
 70 69  1  0
 72 70  1  0
 73 82  2  0
 73 78  1  0
 74 70  1  0
 74 78  1  0
 75 74  1  0
 76 77  1  0
 76 75  1  0
 77 73  1  0
 78 79  2  0
 79 80  1  0
 81 80  2  0
 82 81  1  0
 83 57  1  0
 83 84  1  0
 83 93  1  0
 84 87  1  0
 85 89  1  0
 85 84  1  0
 86 85  2  0
 89 88  1  0
 91 89  1  0
 91 92  1  0
 91 90  1  0
 93 96  1  1
 93 94  1  0
 95 93  1  0
M  ISO  4  12 100  20 100  55 101  56 101
M  END
>  <TORSDO>  (9) 
F 22

>  <SCORE>  (9) 
-13.045

>  <name>  (9) 
8

>  <ligand_id>  (9) 
8

>  <original_smiles>  (9) 
[H]c1c([H])c([H])c2c(c1[H])C([H])([H])C([H])([H])C([H])([H])C2([H])N([H])C(=O)C1([H])N(C(=O)C([H])(N([H])C(=O)C([H])(N([H])C([H])([H])[H])C([H])([H])[H])C(C([H])([H])[H])(C([H])([H])[H])C([H])([H])[H])C([H])([H])c2c([H])c(OC([H])([H])C([H])([H])[N+]([H])([H])C([H])([H])C([H])([H])N([H])c3c([H])c(F)c(F)c([H])c3N([H])C(=O)N3C([H])([H])C([H])([H])C([H])([H])C([H])(n4nc(-c5c([H])c([H])c(Oc6c([H])c([H])c(F)c([H])c6F)c([H])c5[H])c(C(=O)N([H])[H])c4N([H])[H])C3([H])[H])c([H])c([H])c2C1([H])[H]

>  <smiles>  (9) 
[H]c1c([H])c([H])c2c(c1[H])C([H])([H])C([H])([H])C([H])([H])C2([H])N([H])C(=O)C1([H])N(C(=O)C([H])(N([H])C(=O)C([H])(N([H])C([H])([H])[H])C([H])([H])[H])C(C([H])([H])[H])(C([H])([H])[H])C([H])([H])[H])C([H])([H])c2c([H])c(OC([H])([H])C([H])([H])[N+]([H])([H])C([H])([H])C([H])([H])N([H])c3c([H])c(F)c(F)c([H])c3N([H])C(=O)N3C([H])([H])C([H])([H])C([H])([H])C([H])(n4nc(-c5c([H])c([H])c(Oc6c([H])c([H])c(F)c([H])c6F)c([H])c5[H])c(C(=O)N([H])[H])c4N([H])[H])C3([H])[H])c([H])c([H])c2C1([H])[H]

$$$$
9:0:0
     RDKit          3D

 98106  0  0  1  0  0  0  0  0999 V2000
  -28.2110  -21.6490   19.1860 C   0  0  0  0  0  3  0  0  0  0  0  0
  -26.5460  -18.3800   20.7880 C   0  0  0  0  0  2  0  0  0  0  0  0
  -27.6080  -17.3790   20.3210 C   0  0  0  0  0  2  0  0  0  0  0  0
  -26.6570  -19.6820   19.9850 C   0  0  0  0  0  2  0  0  0  0  0  0
  -29.0330  -17.9290   20.5260 C   0  0  0  0  0  3  0  0  0  0  0  0
  -28.0340  -20.3800   20.1430 C   0  0  0  0  0  3  0  0  0  0  0  0
  -29.1160  -19.3360   19.9860 N   0  0  0  0  0  4  0  0  0  0  0  0
  -28.3780  -18.9550   19.4170 H   0  0  0  0  0  0  0  0  0  0  0  0
  -29.2180  -19.5520   20.9670 H   0  0  0  0  0  0  0  0  0  0  0  0
  -30.1380  -16.9500   19.9580 C   0  0  0  0  0  2  0  0  0  0  0  0
  -30.8310  -14.4920   19.9400 C   0  0  0  0  0  0  0  0  0  0  0  0
  -30.5140  -12.3080   18.8280 C   0  0  0  0  0  2  0  0  0  0  0  0
  -29.4810  -12.5090   17.6950 C   0  0  0  0  0  2  0  0  0  0  0  0
  -28.0420  -12.3740   18.2410 C   0  0  0  0  0  2  0  0  0  0  0  0
  -27.8010  -13.1940   19.5390 C   0  0  0  0  0  3  0  0  0  0  0  0
  -28.9390  -12.9440   20.5570 C   0  0  0  0  0  2  0  0  0  0  0  0
  -30.2070  -13.2800   19.8920 N   0  0  0  0  0  0  0  0  0  0  0  0
  -31.9290  -14.6890   19.4100 O   0  0  0  0  0  0  0  0  0  0  0  0
  -30.0670  -15.5210   20.3930 N   0  0  0  0  0  0  0  0  0  0  0  0
  -29.2020  -15.2350   20.8270 H   0  0  0  0  0  0  0  0  0  0  0  0
  -25.4900  -13.8070   20.4940 C   0  0  0  0  0  0  0  0  0  0  0  0
  -24.4400  -13.0410   20.9120 C   0  0  0  0  0  0  0  0  0  0  0  0
  -24.8550  -11.6840   20.7520 C   0  0  0  0  0  0  0  0  0  0  0  0
  -26.4870  -12.9210   20.1140 N   0  0  0  0  0  0  0  0  0  0  0  0
  -26.1120  -11.6360   20.3240 N   0  0  0  0  0  0  0  0  0  0  0  0
  -24.1080  -10.4330   20.9250 C   0  0  0  0  0  0  0  0  0  0  0  0
  -24.5170   -9.4580   21.8610 C   0  0  0  0  0  3  0  0  0  0  0  0
  -23.7740   -8.2690   22.0270 C   0  0  0  0  0  3  0  0  0  0  0  0
  -22.6080   -8.0480   21.2560 C   0  0  0  0  0  0  0  0  0  0  0  0
  -22.2140   -9.0150   20.3130 C   0  0  0  0  0  3  0  0  0  0  0  0
  -22.9580  -10.1940   20.1450 C   0  0  0  0  0  3  0  0  0  0  0  0
  -21.8390   -6.9110   21.3280 O   0  0  0  0  0  0  0  0  0  0  0  0
  -21.6920   -6.2140   22.5000 C   0  0  0  0  0  0  0  0  0  0  0  0
  -21.1800   -6.8210   23.6660 C   0  0  0  0  0  3  0  0  0  0  0  0
  -20.9830   -6.0520   24.8320 C   0  0  0  0  0  3  0  0  0  0  0  0
  -21.2870   -4.6770   24.8270 C   0  0  0  0  0  0  0  0  0  0  0  0
  -21.7920   -4.0710   23.6630 C   0  0  0  0  0  3  0  0  0  0  0  0
  -21.9920   -4.8370   22.5020 C   0  0  0  0  0  0  0  0  0  0  0  0
  -22.4590   -4.2430   21.3770 F   0  0  0  0  0  0  0  0  0  0  0  0
  -21.0880   -3.9360   25.9420 F   0  0  0  0  0  0  0  0  0  0  0  0
  -23.0850  -13.5350   21.3360 C   0  0  0  0  0  0  0  0  0  0  0  0
  -22.4290  -12.8290   22.2500 N   0  0  0  0  0  0  0  0  0  0  0  0
  -22.6220  -14.5850   20.8910 O   0  0  0  0  0  0  0  0  0  0  0  0
  -22.8190  -11.9830   22.6350 H   0  0  0  0  0  0  0  0  0  0  0  0
  -21.5280  -13.1490   22.5790 H   0  0  0  0  0  0  0  0  0  0  0  0
  -25.6720  -15.1790   20.3800 N   0  0  0  0  0  0  0  0  0  0  0  0
  -24.9120  -15.8220   20.5700 H   0  0  0  0  0  0  0  0  0  0  0  0
  -26.4610  -15.6080   19.9160 H   0  0  0  0  0  0  0  0  0  0  0  0
  -29.1840  -22.6550   19.6960 N   0  0  0  0  0  0  0  0  0  0  0  0
  -29.8990  -22.8370   18.9990 H   0  0  0  0  0  0  0  0  0  0  0  0
  -28.7450  -23.9350   20.3180 C   0  0  0  0  0  2  0  0  0  0  0  0
  -29.0470  -25.2100   19.4470 C   0  0  0  0  0  2  0  0  0  0  0  0
  -28.8130  -26.4980   20.0820 O   0  0  0  0  0  0  0  0  0  0  0  0
  -24.6220  -31.4950   23.0100 C   0  0  0  0  0  0  0  0  0  0  0  0
  -27.5990  -27.1750   20.0010 C   0  0  0  0  0  0  0  0  0  0  0  0
  -23.5600  -30.0700   21.2890 C   0  0  0  0  0  3  0  0  0  0  0  0
  -25.1450  -28.6160   19.9140 C   0  0  0  0  0  0  0  0  0  0  0  0
  -26.0790  -30.5270   21.2310 C   0  0  0  0  0  2  0  0  0  0  0  0
  -26.2540  -29.1710   20.5640 C   0  0  0  0  0  0  0  0  0  0  0  0
  -27.4790  -28.4600   20.5970 C   0  0  0  0  0  3  0  0  0  0  0  0
  -26.4590  -26.6370   19.3600 C   0  0  0  0  0  3  0  0  0  0  0  0
  -25.2450  -27.3520   19.3090 C   0  0  0  0  0  3  0  0  0  0  0  0
  -23.8670  -29.4240   19.9130 C   0  0  0  0  0  2  0  0  0  0  0  0
  -24.7660  -30.7130   21.9020 N   0  0  0  0  0  0  0  0  0  0  0  0
  -23.5050  -31.7170   23.4990 O   0  0  0  0  0  0  0  0  0  0  0  0
  -22.9070  -29.0110   22.2040 C   0  0  0  0  0  0  0  0  0  0  0  0
  -21.5850  -28.8240   22.0530 N   0  0  0  0  0  0  0  0  0  0  0  0
  -23.5860  -28.3600   23.0040 O   0  0  0  0  0  0  0  0  0  0  0  0
  -21.0980  -29.4040   21.3870 H   0  0  0  0  0  0  0  0  0  0  0  0
  -18.2010  -27.6480   22.5530 C   0  0  0  0  0  0  0  0  0  0  0  0
  -20.7680  -27.8460   22.7730 C   0  0  0  0  0  3  0  0  0  0  0  0
  -20.8290  -26.4590   22.0940 C   0  0  0  0  0  2  0  0  0  0  0  0
  -19.7030  -26.2350   21.0820 C   0  0  0  0  0  2  0  0  0  0  0  0
  -18.3400  -26.3500   21.7730 C   0  0  0  0  0  2  0  0  0  0  0  0
  -19.3420  -28.3610   23.0050 C   0  0  0  0  0  0  0  0  0  0  0  0
  -19.1630  -29.5860   23.6880 C   0  0  0  0  0  3  0  0  0  0  0  0
  -17.8700  -30.0940   23.9160 C   0  0  0  0  0  3  0  0  0  0  0  0
  -16.7440  -29.3740   23.4790 C   0  0  0  0  0  3  0  0  0  0  0  0
  -16.9080  -28.1510   22.8060 C   0  0  0  0  0  3  0  0  0  0  0  0
  -25.8480  -32.1700   23.7010 C   0  0  0  0  0  3  0  0  0  0  0  0
  -26.3480  -31.3910   24.9790 C   0  0  1  0  0  0  0  0  0  0  0  0
  -25.2240  -31.0650   25.9880 C   0  0  0  0  0  1  0  0  0  0  0  0
  -27.0240  -30.0570   24.5810 C   0  0  0  0  0  1  0  0  0  0  0  0
  -27.4240  -32.2260   25.7130 C   0  0  0  0  0  1  0  0  0  0  0  0
  -25.4610  -33.5450   24.0500 N   0  0  0  0  0  0  0  0  0  0  0  0
  -25.7740  -34.6290   23.3300 C   0  0  0  0  0  0  0  0  0  0  0  0
  -26.4920  -34.5810   22.3260 O   0  0  0  0  0  0  0  0  0  0  0  0
  -24.8240  -33.6510   24.8260 H   0  0  0  0  0  0  0  0  0  0  0  0
  -23.9820  -36.3480   22.9390 C   0  0  0  0  0  1  0  0  0  0  0  0
  -25.2040  -35.9820   23.7980 C   0  0  0  0  0  3  0  0  0  0  0  0
  -27.2520  -36.9430   24.7510 C   0  0  0  0  0  1  0  0  0  0  0  0
  -26.1920  -37.0820   23.7550 N   0  0  0  0  0  0  0  0  0  0  0  0
  -25.7370  -37.9800   23.9010 H   0  0  0  0  0  0  0  0  0  0  0  0
  -26.9040  -22.3240   18.6340 C   0  0  0  0  0  2  0  0  0  0  0  0
  -26.4390  -21.7630   17.3490 N   0  0  0  0  0  4  0  0  0  0  0  0
  -26.0800  -20.8280   17.4400 H   0  0  0  0  0  0  0  0  0  0  0  0
  -27.1780  -21.7760   16.6690 H   0  0  0  0  0  0  0  0  0  0  0  0
  -25.6900  -22.3330   16.9940 H   0  0  0  0  0  0  0  0  0  0  0  0
  1 94  1  0
  1 49  1  0
  3  5  1  0
  3  2  1  0
  4  6  1  0
  4  2  1  0
  5 10  1  0
  6  1  1  0
  7  6  1  0
  7  5  1  0
  7  9  1  0
  8  7  1  0
 10 19  1  0
 11 19  1  0
 12 17  1  0
 13 14  1  0
 13 12  1  0
 15 14  1  0
 15 24  1  0
 15 16  1  0
 17 11  1  0
 17 16  1  0
 18 11  2  0
 19 20  1  0
 21 22  2  0
 22 41  1  0
 23 22  1  0
 23 26  1  0
 24 25  1  0
 24 21  1  0
 25 23  2  0
 26 27  1  0
 27 28  2  0
 29 32  1  0
 29 28  1  0
 30 29  2  0
 31 30  1  0
 31 26  2  0
 32 33  1  0
 33 38  2  0
 33 34  1  0
 34 35  2  0
 36 35  1  0
 36 40  1  0
 37 36  2  0
 38 37  1  0
 39 38  1  0
 41 42  1  0
 42 45  1  0
 42 44  1  0
 43 41  2  0
 46 21  1  0
 46 47  1  0
 48 46  1  0
 49 51  1  0
 50 49  1  0
 52 53  1  0
 52 51  1  0
 54 65  2  0
 55 53  1  0
 55 60  1  0
 56 64  1  0
 56 66  1  0
 57 59  1  0
 58 64  1  0
 59 60  2  0
 59 58  1  0
 61 55  2  0
 62 61  1  0
 62 57  2  0
 63 57  1  0
 63 56  1  0
 64 54  1  0
 66 68  2  0
 67 66  1  0
 69 67  1  0
 70 79  2  0
 70 75  1  0
 71 67  1  0
 71 75  1  0
 72 71  1  0
 73 74  1  0
 73 72  1  0
 74 70  1  0
 75 76  2  0
 76 77  1  0
 78 77  2  0
 79 78  1  0
 80 54  1  0
 80 85  1  0
 80 81  1  0
 81 84  1  1
 81 82  1  0
 83 81  1  0
 85 88  1  0
 86 90  1  0
 86 85  1  0
 87 86  2  0
 90 89  1  0
 92 90  1  0
 92 93  1  0
 92 91  1  0
 95 96  1  0
 95 94  1  0
 97 95  1  0
 98 95  1  0
M  ISO  4  11 100  19 100  52 101  53 101
M  END
>  <TORSDO>  (10) 
F 23

>  <SCORE>  (10) 
-9.962

>  <name>  (10) 
9

>  <ligand_id>  (10) 
9

>  <original_smiles>  (10) 
[H]c1c([H])c([H])c2c(c1[H])C([H])([H])C([H])([H])C([H])([H])C2([H])N([H])C(=O)C1([H])N(C(=O)C([H])(N([H])C(=O)C([H])(N([H])C([H])([H])[H])C([H])([H])[H])C(C([H])([H])[H])(C([H])([H])[H])C([H])([H])[H])C([H])([H])c2c([H])c(OC([H])([H])C([H])([H])N([H])C([H])(C([H])([H])[N+]([H])([H])[H])C3([H])C([H])([H])C([H])([H])C([H])([H])C([H])(C([H])([H])N([H])C(=O)N4C([H])([H])C([H])([H])C([H])([H])C([H])(n5nc(-c6c([H])c([H])c(Oc7c([H])c([H])c(F)c([H])c7F)c([H])c6[H])c(C(=O)N([H])[H])c5N([H])[H])C4([H])[H])[N+]3([H])[H])c([H])c([H])c2C1([H])[H]

>  <smiles>  (10) 
[H]c1c([H])c([H])c2c(c1[H])C([H])([H])C([H])([H])C([H])([H])C2([H])N([H])C(=O)C1([H])N(C(=O)C([H])(N([H])C(=O)C([H])(N([H])C([H])([H])[H])C([H])([H])[H])C(C([H])([H])[H])(C([H])([H])[H])C([H])([H])[H])C([H])([H])c2c([H])c(OC([H])([H])C([H])([H])N([H])C([H])(C([H])([H])[N+]([H])([H])[H])C3([H])C([H])([H])C([H])([H])C([H])([H])C([H])(C([H])([H])N([H])C(=O)N4C([H])([H])C([H])([H])C([H])([H])C([H])(n5nc(-c6c([H])c([H])c(Oc7c([H])c([H])c(F)c([H])c7F)c([H])c6[H])c(C(=O)N([H])[H])c5N([H])[H])C4([H])[H])[N+]3([H])[H])c([H])c([H])c2C1([H])[H]

$$$$
10:0:0
     RDKit          3D

 91 99  0  0  1  0  0  0  0  0999 V2000
  -29.8880  -21.6910   20.5580 C   0  0  0  0  0  0  0  0  0  0  0  0
  -28.0330  -22.3380   19.0470 C   0  0  0  0  0  1  0  0  0  0  0  0
  -29.1100  -22.6720   19.9880 N   0  0  0  0  0  0  0  0  0  0  0  0
  -30.8940  -22.0020   21.2030 O   0  0  0  0  0  0  0  0  0  0  0  0
  -30.2200  -19.4250   19.2750 C   0  0  0  0  0  2  0  0  0  0  0  0
  -29.9570  -19.3650   21.7520 C   0  0  0  0  0  2  0  0  0  0  0  0
  -29.9450  -17.8870   19.2080 C   0  0  0  0  0  2  0  0  0  0  0  0
  -29.6730  -17.8350   21.6880 C   0  0  0  0  0  2  0  0  0  0  0  0
  -29.5370  -20.1490   20.4720 C   0  0  0  0  0  3  0  0  0  0  0  0
  -30.3580  -17.1210   20.4940 C   0  0  0  0  0  3  0  0  0  0  0  0
  -30.7540  -14.6190   20.0080 C   0  0  0  0  0  0  0  0  0  0  0  0
  -30.4380  -12.4270   18.9010 C   0  0  0  0  0  2  0  0  0  0  0  0
  -29.4100  -12.5960   17.7620 C   0  0  0  0  0  2  0  0  0  0  0  0
  -27.9720  -12.4300   18.2930 C   0  0  0  0  0  2  0  0  0  0  0  0
  -27.7070  -13.2660   19.5750 C   0  0  0  0  0  3  0  0  0  0  0  0
  -28.8410  -13.0790   20.6070 C   0  0  0  0  0  2  0  0  0  0  0  0
  -30.1100  -13.4170   19.9420 N   0  0  0  0  0  0  0  0  0  0  0  0
  -31.8750  -14.7910   19.5240 O   0  0  0  0  0  0  0  0  0  0  0  0
  -30.0160  -15.6670   20.4640 N   0  0  0  0  0  0  0  0  0  0  0  0
  -29.1000  -15.4200   20.8060 H   0  0  0  0  0  0  0  0  0  0  0  0
  -25.3730  -13.8480   20.4850 C   0  0  0  0  0  0  0  0  0  0  0  0
  -24.3330  -13.0650   20.9080 C   0  0  0  0  0  0  0  0  0  0  0  0
  -24.7870  -11.7150   20.7990 C   0  0  0  0  0  0  0  0  0  0  0  0
  -26.3950  -12.9740   20.1480 N   0  0  0  0  0  0  0  0  0  0  0  0
  -26.0510  -11.6840   20.3950 N   0  0  0  0  0  0  0  0  0  0  0  0
  -24.0730  -10.4470   21.0030 C   0  0  0  0  0  0  0  0  0  0  0  0
  -24.5110   -9.4960   21.9500 C   0  0  0  0  0  3  0  0  0  0  0  0
  -23.7970   -8.2930   22.1400 C   0  0  0  0  0  3  0  0  0  0  0  0
  -22.6300   -8.0340   21.3820 C   0  0  0  0  0  0  0  0  0  0  0  0
  -22.2120   -8.9740   20.4250 C   0  0  0  0  0  3  0  0  0  0  0  0
  -22.9260  -10.1680   20.2330 C   0  0  0  0  0  3  0  0  0  0  0  0
  -21.8880   -6.8810   21.4810 O   0  0  0  0  0  0  0  0  0  0  0  0
  -21.7490   -6.2130   22.6710 C   0  0  0  0  0  0  0  0  0  0  0  0
  -21.1950   -6.8330   23.8130 C   0  0  0  0  0  3  0  0  0  0  0  0
  -21.0070   -6.0890   24.9950 C   0  0  0  0  0  3  0  0  0  0  0  0
  -21.3640   -4.7270   25.0350 C   0  0  0  0  0  0  0  0  0  0  0  0
  -21.9110   -4.1080   23.8980 C   0  0  0  0  0  3  0  0  0  0  0  0
  -22.1000   -4.8490   22.7180 C   0  0  0  0  0  0  0  0  0  0  0  0
  -22.6080   -4.2420   21.6190 F   0  0  0  0  0  0  0  0  0  0  0  0
  -21.1760   -4.0110   26.1690 F   0  0  0  0  0  0  0  0  0  0  0  0
  -22.9610  -13.5340   21.2980 C   0  0  0  0  0  0  0  0  0  0  0  0
  -22.3020  -12.8180   22.2010 N   0  0  0  0  0  0  0  0  0  0  0  0
  -22.4850  -14.5710   20.8360 O   0  0  0  0  0  0  0  0  0  0  0  0
  -22.7020  -11.9790   22.5960 H   0  0  0  0  0  0  0  0  0  0  0  0
  -21.3840  -13.1120   22.5030 H   0  0  0  0  0  0  0  0  0  0  0  0
  -25.5280  -15.2240   20.3380 N   0  0  0  0  0  0  0  0  0  0  0  0
  -24.7730  -15.8740   20.5250 H   0  0  0  0  0  0  0  0  0  0  0  0
  -26.3470  -15.6720   19.9470 H   0  0  0  0  0  0  0  0  0  0  0  0
  -29.3830  -24.1410   20.2130 C   0  0  0  0  0  3  0  0  0  0  0  0
  -28.2470  -25.1690   19.8350 C   0  0  0  0  0  3  0  0  0  0  0  0
  -28.4220  -26.5790   20.1950 O   0  0  0  0  0  0  0  0  0  0  0  0
  -24.6780  -31.8550   23.3270 C   0  0  0  0  0  0  0  0  0  0  0  0
  -27.2880  -27.3970   20.1600 C   0  0  0  0  0  0  0  0  0  0  0  0
  -23.4700  -30.4990   21.6540 C   0  0  0  0  0  3  0  0  0  0  0  0
  -24.9170  -28.9860   20.1940 C   0  0  0  0  0  0  0  0  0  0  0  0
  -26.0080  -30.8240   21.4770 C   0  0  0  0  0  2  0  0  0  0  0  0
  -26.0840  -29.4650   20.8010 C   0  0  0  0  0  0  0  0  0  0  0  0
  -27.2710  -28.6810   20.7790 C   0  0  0  0  0  3  0  0  0  0  0  0
  -26.0950  -26.9680   19.5280 C   0  0  0  0  0  3  0  0  0  0  0  0
  -24.9220  -27.7410   19.5500 C   0  0  0  0  0  3  0  0  0  0  0  0
  -23.6820  -29.8570   20.2580 C   0  0  0  0  0  2  0  0  0  0  0  0
  -24.7370  -31.0740   22.2100 N   0  0  0  0  0  0  0  0  0  0  0  0
  -23.5950  -32.1240   23.8670 O   0  0  0  0  0  0  0  0  0  0  0  0
  -22.8070  -29.4600   22.5880 C   0  0  0  0  0  0  0  0  0  0  0  0
  -21.4840  -29.2770   22.4450 N   0  0  0  0  0  0  0  0  0  0  0  0
  -23.4810  -28.8220   23.4020 O   0  0  0  0  0  0  0  0  0  0  0  0
  -21.0000  -29.8450   21.7620 H   0  0  0  0  0  0  0  0  0  0  0  0
  -18.1050  -28.0690   22.8920 C   0  0  0  0  0  0  0  0  0  0  0  0
  -20.6610  -28.3250   23.1900 C   0  0  0  0  0  3  0  0  0  0  0  0
  -20.7700  -26.9050   22.5900 C   0  0  0  0  0  2  0  0  0  0  0  0
  -19.6780  -26.5980   21.5600 C   0  0  0  0  0  2  0  0  0  0  0  0
  -18.2900  -26.7320   22.1940 C   0  0  0  0  0  2  0  0  0  0  0  0
  -19.2190  -28.8240   23.3440 C   0  0  0  0  0  0  0  0  0  0  0  0
  -18.9940  -30.0760   23.9560 C   0  0  0  0  0  3  0  0  0  0  0  0
  -17.6870  -30.5730   24.1180 C   0  0  0  0  0  3  0  0  0  0  0  0
  -16.5870  -29.8150   23.6820 C   0  0  0  0  0  3  0  0  0  0  0  0
  -16.7970  -28.5640   23.0740 C   0  0  0  0  0  3  0  0  0  0  0  0
  -25.9640  -32.4680   23.9630 C   0  0  0  0  0  3  0  0  0  0  0  0
  -26.4570  -31.6860   25.2420 C   0  0  1  0  0  0  0  0  0  0  0  0
  -25.3480  -31.4570   26.2970 C   0  0  0  0  0  1  0  0  0  0  0  0
  -27.0280  -30.3030   24.8530 C   0  0  0  0  0  1  0  0  0  0  0  0
  -27.6090  -32.4650   25.9210 C   0  0  0  0  0  1  0  0  0  0  0  0
  -25.6700  -33.8700   24.2930 N   0  0  0  0  0  0  0  0  0  0  0  0
  -25.9960  -34.9160   23.5230 C   0  0  0  0  0  0  0  0  0  0  0  0
  -26.6460  -34.8030   22.4790 O   0  0  0  0  0  0  0  0  0  0  0  0
  -25.0900  -34.0320   25.1030 H   0  0  0  0  0  0  0  0  0  0  0  0
  -24.2590  -36.7090   23.2100 C   0  0  0  0  0  1  0  0  0  0  0  0
  -25.5270  -36.3100   23.9820 C   0  0  0  0  0  3  0  0  0  0  0  0
  -27.6860  -37.2040   24.7340 C   0  0  0  0  0  1  0  0  0  0  0  0
  -26.5560  -37.3610   23.8230 N   0  0  0  0  0  0  0  0  0  0  0  0
  -26.1560  -38.2820   23.9690 H   0  0  0  0  0  0  0  0  0  0  0  0
  1  4  2  0
  2  3  1  0
  3 49  1  0
  3  1  1  0
  5  9  1  0
  7  5  1  0
  7 10  1  0
  8  6  1  0
  9  1  1  0
  9  6  1  0
 10 19  1  0
 10  8  1  0
 11 19  1  0
 12 17  1  0
 13 14  1  0
 13 12  1  0
 15 14  1  0
 15 24  1  0
 15 16  1  0
 17 11  1  0
 17 16  1  0
 18 11  2  0
 19 20  1  0
 21 22  2  0
 22 41  1  0
 23 22  1  0
 23 26  1  0
 24 25  1  0
 24 21  1  0
 25 23  2  0
 26 27  1  0
 27 28  2  0
 29 32  1  0
 29 28  1  0
 30 29  2  0
 31 30  1  0
 31 26  2  0
 32 33  1  0
 33 38  2  0
 33 34  1  0
 34 35  2  0
 35 36  1  0
 36 40  1  0
 37 36  2  0
 38 37  1  0
 39 38  1  0
 41 42  1  0
 42 45  1  0
 42 44  1  0
 43 41  2  0
 46 21  1  0
 46 47  1  0
 48 46  1  0
 50 51  1  0
 50 49  2  0
 52 63  2  0
 53 51  1  0
 53 58  1  0
 54 62  1  0
 54 64  1  0
 55 61  1  0
 55 57  1  0
 56 62  1  0
 57 56  1  0
 58 57  2  0
 59 60  1  0
 59 53  2  0
 60 55  2  0
 61 54  1  0
 62 52  1  0
 64 66  2  0
 65 64  1  0
 67 65  1  0
 68 77  2  0
 68 73  1  0
 69 65  1  0
 69 73  1  0
 70 69  1  0
 71 72  1  0
 71 70  1  0
 72 68  1  0
 73 74  2  0
 74 75  1  0
 76 75  2  0
 77 76  1  0
 78 52  1  0
 78 83  1  0
 78 79  1  0
 79 82  1  1
 79 80  1  0
 81 79  1  0
 83 86  1  0
 84 88  1  0
 84 83  1  0
 85 84  2  0
 88 87  1  0
 90 91  1  0
 90 88  1  0
 90 89  1  0
M  ISO  4  11 100  19 100  50 101  51 101
M  END
>  <TORSDO>  (11) 
F 19

>  <SCORE>  (11) 
-13.354

>  <name>  (11) 
10

>  <ligand_id>  (11) 
10

>  <original_smiles>  (11) 
[H]c1c([H])c([H])c2c(c1[H])C([H])([H])C([H])([H])C([H])([H])C2([H])N([H])C(=O)C1([H])N(C(=O)C([H])(N([H])C(=O)C([H])(N([H])C([H])([H])[H])C([H])([H])[H])C(C([H])([H])[H])(C([H])([H])[H])C([H])([H])[H])C([H])([H])c2c([H])c(OC([H])([H])C([H])([H])N(C(=O)C3([H])C([H])([H])C([H])([H])C([H])(N([H])C(=O)N4C([H])([H])C([H])([H])C([H])([H])C([H])(n5nc(-c6c([H])c([H])c(Oc7c([H])c([H])c(F)c([H])c7F)c([H])c6[H])c(C(=O)N([H])[H])c5N([H])[H])C4([H])[H])C([H])([H])C3([H])[H])C([H])([H])[H])c([H])c([H])c2C1([H])[H]

>  <smiles>  (11) 
[H]c1c([H])c([H])c2c(c1[H])C([H])([H])C([H])([H])C([H])([H])C2([H])N([H])C(=O)C1([H])N(C(=O)C([H])(N([H])C(=O)C([H])(N([H])C([H])([H])[H])C([H])([H])[H])C(C([H])([H])[H])(C([H])([H])[H])C([H])([H])[H])C([H])([H])c2c([H])c(OC([H])([H])C([H])([H])N(C(=O)C3([H])C([H])([H])C([H])([H])C([H])(N([H])C(=O)N4C([H])([H])C([H])([H])C([H])([H])C([H])(n5nc(-c6c([H])c([H])c(Oc7c([H])c([H])c(F)c([H])c7F)c([H])c6[H])c(C(=O)N([H])[H])c5N([H])[H])C4([H])[H])C([H])([H])C3([H])[H])C([H])([H])[H])c([H])c([H])c2C1([H])[H]

$$$$
11:0:0
     RDKit          3D

 90 98  0  0  1  0  0  0  0  0999 V2000
  -28.4140  -23.1820   20.3280 C   0  0  0  0  0  0  0  0  0  0  0  0
  -29.8290  -20.7920   18.3770 C   0  0  0  0  0  2  0  0  0  0  0  0
  -30.3010  -22.1340   18.9540 C   0  0  0  0  0  2  0  0  0  0  0  0
  -29.0170  -20.4820   19.6430 C   0  0  0  0  0  3  0  0  0  0  0  0
  -29.3140  -21.9990   20.0160 N   0  0  0  0  0  0  0  0  0  0  0  0
  -27.5340  -22.9780   21.1660 O   0  0  0  0  0  0  0  0  0  0  0  0
  -29.5770  -19.0390   20.3350 C   0  0  0  0  0  0  0  0  0  0  0  0
  -29.8060  -17.7860   19.6640 N   0  0  0  0  0  0  0  0  0  0  0  0
  -29.7480  -19.0610   21.5550 O   0  0  0  0  0  0  0  0  0  0  0  0
  -29.7340  -17.7640   18.6540 H   0  0  0  0  0  0  0  0  0  0  0  0
  -30.5300  -15.1080   19.8660 C   0  0  0  0  0  0  0  0  0  0  0  0
  -30.3930  -12.7300   18.9490 C   0  0  0  0  0  2  0  0  0  0  0  0
  -29.3820  -12.6710   17.7760 C   0  0  0  0  0  2  0  0  0  0  0  0
  -27.9510  -12.4450   18.3000 C   0  0  0  0  0  2  0  0  0  0  0  0
  -27.6180  -13.3610   19.5040 C   0  0  0  0  0  3  0  0  0  0  0  0
  -28.7430  -13.3790   20.5620 C   0  0  0  0  0  2  0  0  0  0  0  0
  -29.9700  -13.8210   19.8840 N   0  0  0  0  0  0  0  0  0  0  0  0
  -31.6770  -15.1970   19.4150 O   0  0  0  0  0  0  0  0  0  0  0  0
  -29.7620  -16.2760   20.2120 N   0  0  0  0  0  0  0  0  0  0  0  0
  -28.8600  -16.1250   20.6390 H   0  0  0  0  0  0  0  0  0  0  0  0
  -25.3040  -13.9360   20.4300 C   0  0  0  0  0  0  0  0  0  0  0  0
  -24.2590  -13.1610   20.8500 C   0  0  0  0  0  0  0  0  0  0  0  0
  -24.7020  -11.8070   20.7390 C   0  0  0  0  0  0  0  0  0  0  0  0
  -26.3160  -13.0560   20.0850 N   0  0  0  0  0  0  0  0  0  0  0  0
  -25.9680  -11.7680   20.3350 N   0  0  0  0  0  0  0  0  0  0  0  0
  -23.9730  -10.5470   20.9380 C   0  0  0  0  0  0  0  0  0  0  0  0
  -24.4080   -9.5800   21.8690 C   0  0  0  0  0  3  0  0  0  0  0  0
  -23.6770   -8.3870   22.0560 C   0  0  0  0  0  3  0  0  0  0  0  0
  -22.4960   -8.1520   21.3120 C   0  0  0  0  0  0  0  0  0  0  0  0
  -22.0800   -9.1090   20.3690 C   0  0  0  0  0  3  0  0  0  0  0  0
  -22.8110  -10.2930   20.1800 C   0  0  0  0  0  3  0  0  0  0  0  0
  -21.7360   -7.0110   21.4090 O   0  0  0  0  0  0  0  0  0  0  0  0
  -21.6370   -6.3100   22.5830 C   0  0  0  0  0  0  0  0  0  0  0  0
  -21.1230   -6.8950   23.7600 C   0  0  0  0  0  3  0  0  0  0  0  0
  -20.9740   -6.1180   24.9260 C   0  0  0  0  0  3  0  0  0  0  0  0
  -21.3310   -4.7570   24.9160 C   0  0  0  0  0  0  0  0  0  0  0  0
  -21.8400   -4.1710   23.7430 C   0  0  0  0  0  3  0  0  0  0  0  0
  -21.9890   -4.9450   22.5800 C   0  0  0  0  0  0  0  0  0  0  0  0
  -22.4600   -4.3700   21.4470 F   0  0  0  0  0  0  0  0  0  0  0  0
  -21.1820   -4.0070   26.0330 F   0  0  0  0  0  0  0  0  0  0  0  0
  -22.8920  -13.6460   21.2340 C   0  0  0  0  0  0  0  0  0  0  0  0
  -22.2160  -12.9290   22.1240 N   0  0  0  0  0  0  0  0  0  0  0  0
  -22.4360  -14.6940   20.7800 O   0  0  0  0  0  0  0  0  0  0  0  0
  -22.6000  -12.0800   22.5110 H   0  0  0  0  0  0  0  0  0  0  0  0
  -21.3010  -13.2340   22.4230 H   0  0  0  0  0  0  0  0  0  0  0  0
  -25.4730  -15.3110   20.2850 N   0  0  0  0  0  0  0  0  0  0  0  0
  -24.7160  -15.9640   20.4610 H   0  0  0  0  0  0  0  0  0  0  0  0
  -26.2790  -15.7480   19.8610 H   0  0  0  0  0  0  0  0  0  0  0  0
  -28.4220  -24.7270   19.6280 C   0  0  0  0  0  2  0  0  0  0  0  0
  -28.2300  -26.1250   20.3540 O   0  0  0  0  0  0  0  0  0  0  0  0
  -24.6100  -31.8940   23.2290 C   0  0  0  0  0  0  0  0  0  0  0  0
  -27.1790  -27.1220   20.2090 C   0  0  0  0  0  0  0  0  0  0  0  0
  -23.4050  -30.4890   21.5980 C   0  0  0  0  0  3  0  0  0  0  0  0
  -24.8510  -28.9000   20.1690 C   0  0  0  0  0  0  0  0  0  0  0  0
  -25.9610  -30.7400   21.4290 C   0  0  0  0  0  2  0  0  0  0  0  0
  -26.0300  -29.3400   20.7800 C   0  0  0  0  0  0  0  0  0  0  0  0
  -27.1860  -28.4650   20.7870 C   0  0  0  0  0  3  0  0  0  0  0  0
  -25.9740  -26.7970   19.5480 C   0  0  0  0  0  3  0  0  0  0  0  0
  -24.8390  -27.6460   19.5360 C   0  0  0  0  0  3  0  0  0  0  0  0
  -23.6230  -29.8020   20.2220 C   0  0  0  0  0  2  0  0  0  0  0  0
  -24.6790  -31.0650   22.1400 N   0  0  0  0  0  0  0  0  0  0  0  0
  -23.5250  -32.1820   23.7570 O   0  0  0  0  0  0  0  0  0  0  0  0
  -22.7260  -29.4920   22.5710 C   0  0  0  0  0  0  0  0  0  0  0  0
  -21.3990  -29.3160   22.4440 N   0  0  0  0  0  0  0  0  0  0  0  0
  -23.3980  -28.8760   23.4030 O   0  0  0  0  0  0  0  0  0  0  0  0
  -20.9120  -29.8630   21.7480 H   0  0  0  0  0  0  0  0  0  0  0  0
  -18.0230  -28.0980   22.9520 C   0  0  0  0  0  0  0  0  0  0  0  0
  -20.5790  -28.3810   23.2220 C   0  0  0  0  0  3  0  0  0  0  0  0
  -20.6920  -26.9450   22.6630 C   0  0  0  0  0  2  0  0  0  0  0  0
  -19.5950  -26.6050   21.6480 C   0  0  0  0  0  2  0  0  0  0  0  0
  -18.2110  -26.7460   22.2870 C   0  0  0  0  0  2  0  0  0  0  0  0
  -19.1350  -28.8740   23.3770 C   0  0  0  0  0  0  0  0  0  0  0  0
  -18.9040  -30.1380   23.9620 C   0  0  0  0  0  3  0  0  0  0  0  0
  -17.5950  -30.6290   24.1220 C   0  0  0  0  0  3  0  0  0  0  0  0
  -16.4980  -29.8520   23.7130 C   0  0  0  0  0  3  0  0  0  0  0  0
  -16.7120  -28.5890   23.1330 C   0  0  0  0  0  3  0  0  0  0  0  0
  -25.8890  -32.5340   23.8490 C   0  0  0  0  0  3  0  0  0  0  0  0
  -25.5730  -33.9320   24.1880 N   0  0  0  0  0  0  0  0  0  0  0  0
  -25.8930  -34.9930   23.4350 C   0  0  0  0  0  0  0  0  0  0  0  0
  -26.5500  -34.8990   22.3950 O   0  0  0  0  0  0  0  0  0  0  0  0
  -24.9870  -34.0790   24.9960 H   0  0  0  0  0  0  0  0  0  0  0  0
  -24.1570  -36.7900   23.1170 C   0  0  0  0  0  1  0  0  0  0  0  0
  -25.4100  -36.3800   23.9090 C   0  0  0  0  0  3  0  0  0  0  0  0
  -27.5480  -37.2720   24.7250 C   0  0  0  0  0  1  0  0  0  0  0  0
  -26.4400  -37.4360   23.7890 N   0  0  0  0  0  0  0  0  0  0  0  0
  -26.0320  -38.3540   23.9380 H   0  0  0  0  0  0  0  0  0  0  0  0
  -26.4070  -31.7670   25.1290 C   0  0  1  0  0  0  0  0  0  0  0  0
  -25.3150  -31.5280   26.1970 C   0  0  0  0  0  1  0  0  0  0  0  0
  -26.9960  -30.3910   24.7440 C   0  0  0  0  0  1  0  0  0  0  0  0
  -27.5550  -32.5670   25.7900 C   0  0  0  0  0  1  0  0  0  0  0  0
  1  6  2  0
  2  3  1  0
  2  4  1  0
  3  5  1  0
  4  5  1  0
  4  7  1  0
  5  1  1  0
  7  9  2  0
  8 19  1  0
  8  7  1  0
 10  8  1  0
 11 17  1  0
 11 19  1  0
 12 17  1  0
 13 14  1  0
 13 12  1  0
 15 14  1  0
 15 24  1  0
 15 16  1  0
 17 16  1  0
 18 11  2  0
 19 20  1  0
 21 22  2  0
 22 41  1  0
 23 22  1  0
 23 26  1  0
 24 25  1  0
 24 21  1  0
 25 23  2  0
 26 27  1  0
 27 28  2  0
 29 32  1  0
 29 28  1  0
 30 29  2  0
 31 30  1  0
 31 26  2  0
 32 33  1  0
 33 34  1  0
 34 35  2  0
 36 35  1  0
 36 40  1  0
 37 36  2  0
 38 33  2  0
 38 37  1  0
 39 38  1  0
 41 42  1  0
 42 45  1  0
 42 44  1  0
 43 41  2  0
 46 21  1  0
 46 47  1  0
 48 46  1  0
 49  1  1  0
 49 50  1  0
 51 62  2  0
 52 50  1  0
 52 57  1  0
 53 61  1  0
 53 63  1  0
 54 60  1  0
 54 56  1  0
 55 61  1  0
 56 57  2  0
 56 55  1  0
 58 52  2  0
 59 58  1  0
 59 54  2  0
 60 53  1  0
 61 51  1  0
 63 65  2  0
 64 63  1  0
 66 64  1  0
 67 76  2  0
 67 72  1  0
 68 64  1  0
 68 72  1  0
 69 68  1  0
 70 71  1  0
 70 69  1  0
 71 67  1  0
 72 73  2  0
 73 74  1  0
 75 74  2  0
 76 75  1  0
 77 51  1  0
 77 78  1  0
 77 87  1  0
 78 81  1  0
 79 83  1  0
 79 78  1  0
 80 79  2  0
 83 82  1  0
 85 83  1  0
 85 86  1  0
 85 84  1  0
 87 90  1  1
 87 88  1  0
 89 87  1  0
M  ISO  4  11 100  19 100  49 101  50 101
M  END
>  <TORSDO>  (12) 
F 18

>  <SCORE>  (12) 
-15.329

>  <name>  (12) 
11

>  <ligand_id>  (12) 
11

>  <original_smiles>  (12) 
[H]c1c([H])c([H])c2c(c1[H])C([H])([H])C([H])([H])C([H])([H])C2([H])N([H])C(=O)C1([H])N(C(=O)C([H])(N([H])C(=O)C([H])(N([H])C([H])([H])[H])C([H])([H])[H])C(C([H])([H])[H])(C([H])([H])[H])C([H])([H])[H])C([H])([H])c2c([H])c(OC([H])([H])C(=O)N3C([H])([H])C([H])([H])C3([H])C(=O)N([H])N([H])C(=O)N3C([H])([H])C([H])([H])C([H])([H])C([H])(n4nc(-c5c([H])c([H])c(Oc6c([H])c([H])c(F)c([H])c6F)c([H])c5[H])c(C(=O)N([H])[H])c4N([H])[H])C3([H])[H])c([H])c([H])c2C1([H])[H]

>  <smiles>  (12) 
[H]c1c([H])c([H])c2c(c1[H])C([H])([H])C([H])([H])C([H])([H])C2([H])N([H])C(=O)C1([H])N(C(=O)C([H])(N([H])C(=O)C([H])(N([H])C([H])([H])[H])C([H])([H])[H])C(C([H])([H])[H])(C([H])([H])[H])C([H])([H])[H])C([H])([H])c2c([H])c(OC([H])([H])C(=O)N3C([H])([H])C([H])([H])C3([H])C(=O)N([H])N([H])C(=O)N3C([H])([H])C([H])([H])C([H])([H])C([H])(n4nc(-c5c([H])c([H])c(Oc6c([H])c([H])c(F)c([H])c6F)c([H])c5[H])c(C(=O)N([H])[H])c4N([H])[H])C3([H])[H])c([H])c([H])c2C1([H])[H]

$$$$
12:0:0
     RDKit          3D

102110  0  0  1  0  0  0  0  0999 V2000
  -29.4610  -22.0290   20.2610 C   0  0  0  0  0  3  0  0  0  0  0  0
  -29.7350  -20.9750   19.1340 C   0  0  0  0  0  0  0  0  0  0  0  0
  -30.6810  -17.3810   18.7850 C   0  0  0  0  0  2  0  0  0  0  0  0
  -30.4270  -18.7870   18.2270 C   0  0  0  0  0  2  0  0  0  0  0  0
  -30.5560  -18.9550   20.6030 C   0  0  0  0  0  2  0  0  0  0  0  0
  -31.2400  -17.5880   20.1890 C   0  0  0  0  0  3  0  0  0  0  0  0
  -30.2230  -19.7010   19.3570 N   0  0  0  0  0  0  0  0  0  0  0  0
  -29.4750  -21.3400   17.9840 O   0  0  0  0  0  0  0  0  0  0  0  0
  -31.7830  -15.1860   20.7500 C   0  0  0  0  0  0  0  0  0  0  0  0
  -31.5500  -12.8950   19.8140 C   0  0  0  0  0  2  0  0  0  0  0  0
  -30.7350  -12.9550   18.5050 C   0  0  0  0  0  2  0  0  0  0  0  0
  -29.2270  -12.8490   18.8060 C   0  0  0  0  0  2  0  0  0  0  0  0
  -28.7810  -13.8160   19.9340 C   0  0  0  0  0  3  0  0  0  0  0  0
  -29.7250  -13.7370   21.1520 C   0  0  0  0  0  2  0  0  0  0  0  0
  -31.0940  -14.0010   20.6790 N   0  0  0  0  0  0  0  0  0  0  0  0
  -32.9430  -15.2580   20.3290 O   0  0  0  0  0  0  0  0  0  0  0  0
  -30.6960  -16.5940   22.4240 C   0  0  0  0  0  1  0  0  0  0  0  0
  -31.0810  -16.3400   21.0310 N   0  0  0  0  0  0  0  0  0  0  0  0
  -26.3730  -14.5220   20.4910 C   0  0  0  0  0  0  0  0  0  0  0  0
  -25.2500  -13.7950   20.7770 C   0  0  0  0  0  0  0  0  0  0  0  0
  -25.6520  -12.4250   20.7660 C   0  0  0  0  0  0  0  0  0  0  0  0
  -27.3900  -13.5960   20.3190 N   0  0  0  0  0  0  0  0  0  0  0  0
  -26.9570  -12.3290   20.5450 N   0  0  0  0  0  0  0  0  0  0  0  0
  -24.8580  -11.1960   20.8950 C   0  0  0  0  0  0  0  0  0  0  0  0
  -25.1430  -10.2340   21.8880 C   0  0  0  0  0  3  0  0  0  0  0  0
  -24.3520   -9.0710   22.0050 C   0  0  0  0  0  3  0  0  0  0  0  0
  -23.2620   -8.8630   21.1270 C   0  0  0  0  0  0  0  0  0  0  0  0
  -22.9950   -9.8140   20.1270 C   0  0  0  0  0  3  0  0  0  0  0  0
  -23.7860  -10.9690   20.0090 C   0  0  0  0  0  3  0  0  0  0  0  0
  -22.4550   -7.7510   21.1510 O   0  0  0  0  0  0  0  0  0  0  0  0
  -22.1610   -7.1000   22.3210 C   0  0  0  0  0  0  0  0  0  0  0  0
  -21.5340   -7.7570   23.4020 C   0  0  0  0  0  3  0  0  0  0  0  0
  -21.1810   -7.0330   24.5590 C   0  0  0  0  0  3  0  0  0  0  0  0
  -21.4470   -5.6520   24.6340 C   0  0  0  0  0  0  0  0  0  0  0  0
  -22.0680   -4.9950   23.5570 C   0  0  0  0  0  3  0  0  0  0  0  0
  -22.4180   -5.7160   22.4020 C   0  0  0  0  0  0  0  0  0  0  0  0
  -22.9950   -5.0730   21.3580 F   0  0  0  0  0  0  0  0  0  0  0  0
  -21.1040   -4.9550   25.7420 F   0  0  0  0  0  0  0  0  0  0  0  0
  -23.8590  -14.3330   20.9570 C   0  0  0  0  0  0  0  0  0  0  0  0
  -23.0460  -13.6790   21.7790 N   0  0  0  0  0  0  0  0  0  0  0  0
  -23.5000  -15.3720   20.4040 O   0  0  0  0  0  0  0  0  0  0  0  0
  -23.3420  -12.8370   22.2500 H   0  0  0  0  0  0  0  0  0  0  0  0
  -22.1130  -14.0250   21.9440 H   0  0  0  0  0  0  0  0  0  0  0  0
  -26.6030  -15.8870   20.3440 N   0  0  0  0  0  0  0  0  0  0  0  0
  -25.8440  -16.5590   20.4020 H   0  0  0  0  0  0  0  0  0  0  0  0
  -27.4860  -16.3070   20.0840 H   0  0  0  0  0  0  0  0  0  0  0  0
  -30.3320  -23.3640   20.0840 C   0  0  0  0  0  2  0  0  0  0  0  0
  -29.7640  -24.6850   19.4150 C   0  0  0  0  0  2  0  0  0  0  0  0
  -29.3570  -25.7500   20.3690 N   0  0  0  0  0  0  0  0  0  0  0  0
  -28.3830  -25.6160   20.6240 H   0  0  0  0  0  0  0  0  0  0  0  0
  -29.3790  -27.0670   19.6850 O   0  0  0  0  0  0  0  0  0  0  0  0
  -24.8640  -31.4500   23.1950 C   0  0  0  0  0  0  0  0  0  0  0  0
  -28.1510  -27.7090   19.7600 C   0  0  0  0  0  0  0  0  0  0  0  0
  -23.9020  -30.0960   21.3650 C   0  0  0  0  0  3  0  0  0  0  0  0
  -25.5850  -28.9290   19.8340 C   0  0  0  0  0  0  0  0  0  0  0  0
  -26.3670  -30.7870   21.3090 C   0  0  0  0  0  2  0  0  0  0  0  0
  -26.6530  -29.5120   20.5300 C   0  0  0  0  0  0  0  0  0  0  0  0
  -27.9390  -28.9070   20.4970 C   0  0  0  0  0  3  0  0  0  0  0  0
  -27.0660  -27.1600   19.0480 C   0  0  0  0  0  3  0  0  0  0  0  0
  -25.7890  -27.7540   19.0900 C   0  0  0  0  0  3  0  0  0  0  0  0
  -24.2370  -29.6140   19.9270 C   0  0  0  0  0  2  0  0  0  0  0  0
  -25.0600  -30.7910   22.0150 N   0  0  0  0  0  0  0  0  0  0  0  0
  -23.7450  -31.5150   23.7180 O   0  0  0  0  0  0  0  0  0  0  0  0
  -23.3700  -28.8960   22.1820 C   0  0  0  0  0  0  0  0  0  0  0  0
  -22.0940  -28.5380   21.9660 N   0  0  0  0  0  0  0  0  0  0  0  0
  -24.1060  -28.2950   22.9690 O   0  0  0  0  0  0  0  0  0  0  0  0
  -21.5550  -29.0860   21.3120 H   0  0  0  0  0  0  0  0  0  0  0  0
  -18.9250  -26.8100   22.1570 C   0  0  0  0  0  0  0  0  0  0  0  0
  -21.3990  -27.4150   22.5950 C   0  0  0  0  0  3  0  0  0  0  0  0
  -21.7430  -26.0850   21.8880 C   0  0  0  0  0  2  0  0  0  0  0  0
  -20.7440  -25.7120   20.7860 C   0  0  0  0  0  2  0  0  0  0  0  0
  -19.3340  -25.5780   21.3660 C   0  0  0  0  0  2  0  0  0  0  0  0
  -19.8940  -27.6800   22.7200 C   0  0  0  0  0  0  0  0  0  0  0  0
  -19.4590  -28.8290   23.4180 C   0  0  0  0  0  3  0  0  0  0  0  0
  -18.0880  -29.1110   23.5570 C   0  0  0  0  0  3  0  0  0  0  0  0
  -17.1310  -28.2390   23.0080 C   0  0  0  0  0  3  0  0  0  0  0  0
  -17.5500  -27.0890   22.3130 C   0  0  0  0  0  3  0  0  0  0  0  0
  -26.0380  -32.1740   23.9290 C   0  0  0  0  0  3  0  0  0  0  0  0
  -26.5340  -31.4040   25.2140 C   0  0  1  0  0  0  0  0  0  0  0  0
  -25.3980  -31.0380   26.1970 C   0  0  0  0  0  1  0  0  0  0  0  0
  -27.2610  -30.0960   24.8220 C   0  0  0  0  0  1  0  0  0  0  0  0
  -27.5650  -32.2690   25.9760 C   0  0  0  0  0  1  0  0  0  0  0  0
  -25.5760  -33.5240   24.2800 N   0  0  0  0  0  0  0  0  0  0  0  0
  -25.8590  -34.6310   23.5800 C   0  0  0  0  0  0  0  0  0  0  0  0
  -26.6050  -34.6270   22.5970 O   0  0  0  0  0  0  0  0  0  0  0  0
  -24.9150  -33.5940   25.0390 H   0  0  0  0  0  0  0  0  0  0  0  0
  -23.9860  -36.2590   23.1660 C   0  0  0  0  0  1  0  0  0  0  0  0
  -25.2120  -35.9510   24.0420 C   0  0  0  0  0  3  0  0  0  0  0  0
  -27.1980  -37.0090   25.0270 C   0  0  0  0  0  1  0  0  0  0  0  0
  -26.1420  -37.1020   24.0210 N   0  0  0  0  0  0  0  0  0  0  0  0
  -25.6390  -37.9740   24.1660 H   0  0  0  0  0  0  0  0  0  0  0  0
  -27.9380  -22.3700   20.5100 C   0  0  0  0  0  3  0  0  0  0  0  0
  -27.7910  -23.0780   21.8990 C   0  0  0  0  0  2  0  0  0  0  0  0
  -26.9290  -24.2800   21.8980 N   0  0  0  0  0  4  0  0  0  0  0  0
  -27.2690  -24.9790   21.2590 H   0  0  0  0  0  0  0  0  0  0  0  0
  -26.9440  -24.6930   22.8150 H   0  0  0  0  0  0  0  0  0  0  0  0
  -25.9680  -24.0800   21.6910 H   0  0  0  0  0  0  0  0  0  0  0  0
  -26.9380  -21.1600   20.4100 C   0  0  0  0  0  2  0  0  0  0  0  0
  -25.8570  -21.3450   19.4190 N   0  0  0  0  0  4  0  0  0  0  0  0
  -25.2380  -22.1050   19.6330 H   0  0  0  0  0  0  0  0  0  0  0  0
  -25.2930  -20.5120   19.3920 H   0  0  0  0  0  0  0  0  0  0  0  0
  -26.2280  -21.4790   18.4940 H   0  0  0  0  0  0  0  0  0  0  0  0
  1 47  1  0
  1 92  1  0
  2  7  1  0
  2  1  1  0
  3  6  1  0
  4  3  1  0
  4  7  1  0
  6  5  1  0
  6 18  1  0
  7  5  1  0
  8  2  2  0
  9 18  1  0
 10 15  1  0
 11 12  1  0
 11 10  1  0
 13 12  1  0
 13 22  1  0
 13 14  1  0
 15  9  1  0
 15 14  1  0
 16  9  2  0
 18 17  1  0
 19 20  2  0
 20 39  1  0
 21 20  1  0
 21 24  1  0
 22 19  1  0
 22 23  1  0
 23 21  2  0
 24 25  1  0
 25 26  2  0
 27 30  1  0
 27 26  1  0
 28 27  2  0
 29 28  1  0
 29 24  2  0
 30 31  1  0
 31 36  2  0
 31 32  1  0
 32 33  2  0
 33 34  1  0
 34 38  1  0
 35 34  2  0
 36 35  1  0
 37 36  1  0
 39 40  1  0
 40 43  1  0
 40 42  1  0
 41 39  2  0
 44 45  1  0
 44 19  1  0
 46 44  1  0
 48 47  1  0
 48 49  1  0
 49 50  1  0
 51 53  1  0
 51 49  1  0
 52 63  2  0
 53 58  1  0
 54 62  1  0
 54 64  1  0
 55 61  1  0
 55 57  1  0
 56 62  1  0
 57 56  1  0
 58 57  2  0
 59 60  1  0
 59 53  2  0
 60 55  2  0
 61 54  1  0
 62 52  1  0
 64 66  2  0
 65 64  1  0
 67 65  1  0
 68 77  2  0
 68 73  1  0
 69 65  1  0
 69 73  1  0
 70 69  1  0
 71 72  1  0
 71 70  1  0
 72 68  1  0
 73 74  2  0
 74 75  1  0
 76 75  2  0
 77 76  1  0
 78 52  1  0
 78 83  1  0
 78 79  1  0
 79 82  1  1
 79 80  1  0
 81 79  1  0
 83 86  1  0
 84 88  1  0
 84 83  1  0
 85 84  2  0
 88 87  1  0
 90 88  1  0
 90 91  1  0
 90 89  1  0
 92 93  1  0
 94 93  1  0
 94 96  1  0
 95 94  1  0
 97 94  1  0
 98 92  1  0
 99100  1  0
 99 98  1  0
101 99  1  0
102 99  1  0
M  ISO  4   9 100  18 100  49 101  51 101
M  END
>  <TORSDO>  (13) 
F 25

>  <SCORE>  (13) 
-8.616

>  <name>  (13) 
12

>  <ligand_id>  (13) 
12

>  <original_smiles>  (13) 
[H]c1c([H])c([H])c2c(c1[H])C([H])([H])C([H])([H])C([H])([H])C2([H])N([H])C(=O)C1([H])N(C(=O)C([H])(N([H])C(=O)C([H])(N([H])C([H])([H])[H])C([H])([H])[H])C(C([H])([H])[H])(C([H])([H])[H])C([H])([H])[H])C([H])([H])c2c([H])c(ON([H])C([H])([H])C([H])([H])C([H])(C(=O)N3C([H])([H])C([H])([H])C([H])(N(C(=O)N4C([H])([H])C([H])([H])C([H])([H])C([H])(n5nc(-c6c([H])c([H])c(Oc7c([H])c([H])c(F)c([H])c7F)c([H])c6[H])c(C(=O)N([H])[H])c5N([H])[H])C4([H])[H])C([H])([H])[H])C3([H])[H])C([H])(C([H])([H])[N+]([H])([H])[H])C([H])([H])[N+]([H])([H])[H])c([H])c([H])c2C1([H])[H]

>  <smiles>  (13) 
[H]c1c([H])c([H])c2c(c1[H])C([H])([H])C([H])([H])C([H])([H])C2([H])N([H])C(=O)C1([H])N(C(=O)C([H])(N([H])C(=O)C([H])(N([H])C([H])([H])[H])C([H])([H])[H])C(C([H])([H])[H])(C([H])([H])[H])C([H])([H])[H])C([H])([H])c2c([H])c(ON([H])C([H])([H])C([H])([H])C([H])(C(=O)N3C([H])([H])C([H])([H])C([H])(N(C(=O)N4C([H])([H])C([H])([H])C([H])([H])C([H])(n5nc(-c6c([H])c([H])c(Oc7c([H])c([H])c(F)c([H])c7F)c([H])c6[H])c(C(=O)N([H])[H])c5N([H])[H])C4([H])[H])C([H])([H])[H])C3([H])[H])C([H])(C([H])([H])[N+]([H])([H])[H])C([H])([H])[N+]([H])([H])[H])c([H])c([H])c2C1([H])[H]

$$$$
13:0:0
     RDKit          3D

 91 99  0  0  1  0  0  0  0  0999 V2000
  -28.5850  -18.1650   19.5580 C   0  0  0  0  0  3  0  0  0  0  0  0
  -30.3310  -18.6520   21.0610 C   0  0  0  0  0  3  0  0  0  0  0  0
  -29.6110  -17.6080   20.3780 C   0  0  0  0  0  0  0  0  0  0  0  0
  -28.9310  -20.6250   20.1890 C   0  0  0  0  0  0  0  0  0  0  0  0
  -28.2750  -19.5710   19.4530 C   0  0  0  0  0  0  0  0  0  0  0  0
  -30.0170  -20.0790   20.9710 C   0  0  0  0  0  0  0  0  0  0  0  0
  -27.2520  -19.9030   18.6250 F   0  0  0  0  0  0  0  0  0  0  0  0
  -30.7490  -20.9340   21.7290 F   0  0  0  0  0  0  0  0  0  0  0  0
  -30.5160  -15.0050   20.4090 C   0  0  0  0  0  0  0  0  0  0  0  0
  -30.4250  -12.6540   19.4830 C   0  0  0  0  0  2  0  0  0  0  0  0
  -29.4980  -12.6300   18.2430 C   0  0  0  0  0  2  0  0  0  0  0  0
  -28.0270  -12.4330   18.6610 C   0  0  0  0  0  2  0  0  0  0  0  0
  -27.6180  -13.3630   19.8330 C   0  0  0  0  0  3  0  0  0  0  0  0
  -28.6610  -13.3440   20.9720 C   0  0  0  0  0  2  0  0  0  0  0  0
  -29.9520  -13.7350   20.3860 N   0  0  0  0  0  0  0  0  0  0  0  0
  -31.7050  -15.1280   20.0940 O   0  0  0  0  0  0  0  0  0  0  0  0
  -29.6550  -16.1000   20.6270 N   0  0  0  0  0  0  0  0  0  0  0  0
  -28.7390  -15.7340   20.8350 H   0  0  0  0  0  0  0  0  0  0  0  0
  -25.2330  -13.9680   20.5520 C   0  0  0  0  0  0  0  0  0  0  0  0
  -24.1580  -13.2030   20.9110 C   0  0  0  0  0  0  0  0  0  0  0  0
  -24.6100  -11.8480   20.8780 C   0  0  0  0  0  0  0  0  0  0  0  0
  -26.2690  -13.0800   20.3150 N   0  0  0  0  0  0  0  0  0  0  0  0
  -25.9020  -11.8000   20.5770 N   0  0  0  0  0  0  0  0  0  0  0  0
  -23.8710  -10.5910   21.0580 C   0  0  0  0  0  0  0  0  0  0  0  0
  -24.2880   -9.6140   21.9890 C   0  0  0  0  0  3  0  0  0  0  0  0
  -23.5490   -8.4220   22.1550 C   0  0  0  0  0  3  0  0  0  0  0  0
  -22.3780   -8.2000   21.3920 C   0  0  0  0  0  0  0  0  0  0  0  0
  -21.9810   -9.1650   20.4500 C   0  0  0  0  0  3  0  0  0  0  0  0
  -22.7200  -10.3490   20.2810 C   0  0  0  0  0  3  0  0  0  0  0  0
  -21.6120   -7.0620   21.4680 O   0  0  0  0  0  0  0  0  0  0  0  0
  -21.5470   -6.3150   22.6170 C   0  0  0  0  0  0  0  0  0  0  0  0
  -21.0880   -6.8600   23.8350 C   0  0  0  0  0  3  0  0  0  0  0  0
  -20.9700   -6.0390   24.9740 C   0  0  0  0  0  3  0  0  0  0  0  0
  -21.3020   -4.6730   24.8970 C   0  0  0  0  0  0  0  0  0  0  0  0
  -21.7540   -4.1270   23.6830 C   0  0  0  0  0  3  0  0  0  0  0  0
  -21.8740   -4.9450   22.5450 C   0  0  0  0  0  0  0  0  0  0  0  0
  -22.2910   -4.4100   21.3730 F   0  0  0  0  0  0  0  0  0  0  0  0
  -21.1820   -3.8820   25.9880 F   0  0  0  0  0  0  0  0  0  0  0  0
  -22.7630  -13.6920   21.1710 C   0  0  0  0  0  0  0  0  0  0  0  0
  -22.0240  -13.0060   22.0360 N   0  0  0  0  0  0  0  0  0  0  0  0
  -22.3360  -14.7190   20.6440 O   0  0  0  0  0  0  0  0  0  0  0  0
  -22.3800  -12.1750   22.4860 H   0  0  0  0  0  0  0  0  0  0  0  0
  -21.0890  -13.3180   22.2550 H   0  0  0  0  0  0  0  0  0  0  0  0
  -25.4080  -15.3390   20.3790 N   0  0  0  0  0  0  0  0  0  0  0  0
  -24.6390  -15.9930   20.4780 H   0  0  0  0  0  0  0  0  0  0  0  0
  -26.2440  -15.7670   20.0050 H   0  0  0  0  0  0  0  0  0  0  0  0
  -26.9670  -21.9900   20.5600 C   0  0  0  0  0  1  0  0  0  0  0  0
  -28.3820  -22.0200   20.1820 N   0  0  0  0  0  0  0  0  0  0  0  0
  -28.9760  -23.4510   20.3300 C   0  0  0  0  0  3  0  0  0  0  0  0
  -28.0230  -24.8030   20.0000 C   0  0  0  0  0  3  0  0  0  0  0  0
  -28.3080  -26.3070   20.2320 O   0  0  0  0  0  0  0  0  0  0  0  0
  -24.6490  -31.9110   23.2770 C   0  0  0  0  0  0  0  0  0  0  0  0
  -27.2430  -27.2740   20.1720 C   0  0  0  0  0  0  0  0  0  0  0  0
  -23.4510  -30.5390   21.6160 C   0  0  0  0  0  3  0  0  0  0  0  0
  -24.9050  -28.9960   20.1670 C   0  0  0  0  0  0  0  0  0  0  0  0
  -26.0040  -30.8190   21.4560 C   0  0  0  0  0  2  0  0  0  0  0  0
  -26.0820  -29.4400   20.7840 C   0  0  0  0  0  0  0  0  0  0  0  0
  -27.2520  -28.5960   20.7700 C   0  0  0  0  0  3  0  0  0  0  0  0
  -26.0400  -26.9290   19.5150 C   0  0  0  0  0  3  0  0  0  0  0  0
  -24.8950  -27.7530   19.5180 C   0  0  0  0  0  3  0  0  0  0  0  0
  -23.6750  -29.8860   20.2260 C   0  0  0  0  0  2  0  0  0  0  0  0
  -24.7210  -31.1100   22.1720 N   0  0  0  0  0  0  0  0  0  0  0  0
  -23.5620  -32.1840   23.8100 O   0  0  0  0  0  0  0  0  0  0  0  0
  -22.7770  -29.5140   22.5610 C   0  0  0  0  0  0  0  0  0  0  0  0
  -21.4490  -29.3420   22.4280 N   0  0  0  0  0  0  0  0  0  0  0  0
  -23.4490  -28.8770   23.3760 O   0  0  0  0  0  0  0  0  0  0  0  0
  -20.9630  -29.9080   21.7470 H   0  0  0  0  0  0  0  0  0  0  0  0
  -18.0690  -28.1320   22.9070 C   0  0  0  0  0  0  0  0  0  0  0  0
  -20.6280  -28.3910   23.1830 C   0  0  0  0  0  3  0  0  0  0  0  0
  -20.7310  -26.9690   22.5840 C   0  0  0  0  0  2  0  0  0  0  0  0
  -19.6310  -26.6620   21.5640 C   0  0  0  0  0  2  0  0  0  0  0  0
  -18.2480  -26.7930   22.2090 C   0  0  0  0  0  2  0  0  0  0  0  0
  -19.1870  -28.8880   23.3510 C   0  0  0  0  0  0  0  0  0  0  0  0
  -18.9640  -30.1400   23.9640 C   0  0  0  0  0  3  0  0  0  0  0  0
  -17.6590  -30.6350   24.1390 C   0  0  0  0  0  3  0  0  0  0  0  0
  -16.5560  -29.8750   23.7120 C   0  0  0  0  0  3  0  0  0  0  0  0
  -16.7620  -28.6250   23.1010 C   0  0  0  0  0  3  0  0  0  0  0  0
  -25.9260  -32.5380   23.9150 C   0  0  0  0  0  3  0  0  0  0  0  0
  -26.4210  -31.7660   25.2000 C   0  0  1  0  0  0  0  0  0  0  0  0
  -25.3120  -31.5380   26.2530 C   0  0  0  0  0  1  0  0  0  0  0  0
  -27.0000  -30.3840   24.8220 C   0  0  0  0  0  1  0  0  0  0  0  0
  -27.5670  -32.5550   25.8760 C   0  0  0  0  0  1  0  0  0  0  0  0
  -25.6210  -33.9400   24.2430 N   0  0  0  0  0  0  0  0  0  0  0  0
  -25.9320  -34.9910   23.4730 C   0  0  0  0  0  0  0  0  0  0  0  0
  -26.5750  -34.8830   22.4250 O   0  0  0  0  0  0  0  0  0  0  0  0
  -25.0490  -34.0970   25.0600 H   0  0  0  0  0  0  0  0  0  0  0  0
  -24.1810  -36.7730   23.1770 C   0  0  0  0  0  1  0  0  0  0  0  0
  -25.4590  -36.3820   23.9370 C   0  0  0  0  0  3  0  0  0  0  0  0
  -27.6170  -37.2950   24.6720 C   0  0  0  0  0  1  0  0  0  0  0  0
  -26.4790  -37.4390   23.7680 N   0  0  0  0  0  0  0  0  0  0  0  0
  -26.0710  -38.3590   23.9150 H   0  0  0  0  0  0  0  0  0  0  0  0
  1  3  1  0
  3 17  1  0
  3  2  2  0
  4  6  2  0
  5  1  2  0
  5  4  1  0
  6  2  1  0
  6  8  1  0
  7  5  1  0
  9 17  1  0
 10 15  1  0
 11 12  1  0
 11 10  1  0
 13 12  1  0
 13 22  1  0
 13 14  1  0
 15  9  1  0
 15 14  1  0
 16  9  2  0
 17 18  1  0
 19 20  2  0
 20 39  1  0
 21 20  1  0
 21 24  1  0
 22 19  1  0
 22 23  1  0
 23 21  2  0
 24 25  1  0
 25 26  2  0
 27 30  1  0
 27 26  1  0
 28 27  2  0
 29 28  1  0
 29 24  2  0
 30 31  1  0
 31 32  1  0
 32 33  2  0
 34 33  1  0
 34 38  1  0
 35 34  2  0
 36 31  2  0
 36 35  1  0
 37 36  1  0
 39 40  1  0
 40 43  1  0
 40 42  1  0
 41 39  2  0
 44 45  1  0
 44 19  1  0
 46 44  1  0
 48  4  1  0
 48 49  1  0
 48 47  1  0
 50 51  1  0
 50 49  2  0
 52 63  2  0
 53 51  1  0
 53 58  1  0
 54 62  1  0
 54 64  1  0
 55 61  1  0
 55 57  1  0
 56 62  1  0
 57 56  1  0
 58 57  2  0
 59 60  1  0
 59 53  2  0
 60 55  2  0
 61 54  1  0
 62 52  1  0
 64 66  2  0
 65 64  1  0
 67 65  1  0
 68 77  2  0
 68 73  1  0
 69 65  1  0
 69 73  1  0
 70 69  1  0
 71 72  1  0
 71 70  1  0
 72 68  1  0
 73 74  2  0
 74 75  1  0
 76 75  2  0
 77 76  1  0
 78 52  1  0
 78 83  1  0
 78 79  1  0
 79 82  1  1
 79 80  1  0
 81 79  1  0
 83 86  1  0
 84 88  1  0
 84 83  1  0
 85 84  2  0
 88 87  1  0
 90 91  1  0
 90 88  1  0
 90 89  1  0
M  ISO  4   9 100  17 100  50 101  51 101
M  END
>  <TORSDO>  (14) 
F 19

>  <SCORE>  (14) 
-14.186

>  <name>  (14) 
13

>  <ligand_id>  (14) 
13

>  <original_smiles>  (14) 
[H]c1c([H])c([H])c2c(c1[H])C([H])([H])C([H])([H])C([H])([H])C2([H])N([H])C(=O)C1([H])N(C(=O)C([H])(N([H])C(=O)C([H])(N([H])C([H])([H])[H])C([H])([H])[H])C(C([H])([H])[H])(C([H])([H])[H])C([H])([H])[H])C([H])([H])c2c([H])c(OC([H])([H])C([H])([H])N(c3c(F)c([H])c(N([H])C(=O)N4C([H])([H])C([H])([H])C([H])([H])C([H])(n5nc(-c6c([H])c([H])c(Oc7c([H])c([H])c(F)c([H])c7F)c([H])c6[H])c(C(=O)N([H])[H])c5N([H])[H])C4([H])[H])c([H])c3F)C([H])([H])[H])c([H])c([H])c2C1([H])[H]

>  <smiles>  (14) 
[H]c1c([H])c([H])c2c(c1[H])C([H])([H])C([H])([H])C([H])([H])C2([H])N([H])C(=O)C1([H])N(C(=O)C([H])(N([H])C(=O)C([H])(N([H])C([H])([H])[H])C([H])([H])[H])C(C([H])([H])[H])(C([H])([H])[H])C([H])([H])[H])C([H])([H])c2c([H])c(OC([H])([H])C([H])([H])N(c3c(F)c([H])c(N([H])C(=O)N4C([H])([H])C([H])([H])C([H])([H])C([H])(n5nc(-c6c([H])c([H])c(Oc7c([H])c([H])c(F)c([H])c7F)c([H])c6[H])c(C(=O)N([H])[H])c5N([H])[H])C4([H])[H])c([H])c3F)C([H])([H])[H])c([H])c([H])c2C1([H])[H]

$$$$
14:0:0
     RDKit          3D

 94103  0  0  1  0  0  0  0  0999 V2000
  -30.9910  -17.2760   18.0020 C   0  0  0  0  0  2  0  0  0  0  0  0
  -29.8950  -16.6890   18.4900 C   0  0  0  0  0  2  0  0  0  0  0  0
  -29.8860  -20.4960   20.5090 C   0  0  0  0  0  0  0  0  0  0  0  0
  -31.5890  -19.5830   18.9480 C   0  0  0  0  0  2  0  0  0  0  0  0
  -31.7380  -18.0680   19.0560 C   0  0  0  0  0  3  0  0  0  0  0  0
  -29.7010  -16.9410   19.9770 C   0  0  0  0  0  3  0  0  0  0  0  0
  -30.7520  -18.0600   20.2470 C   0  0  0  0  0  3  0  0  0  0  0  0
  -30.3850  -19.4160   19.7520 N   0  0  0  0  0  0  0  0  0  0  0  0
  -29.3410  -20.3160   21.5990 O   0  0  0  0  0  0  0  0  0  0  0  0
  -30.6680  -14.6200   20.5200 C   0  0  0  0  0  0  0  0  0  0  0  0
  -30.4550  -12.4160   19.4410 C   0  0  0  0  0  2  0  0  0  0  0  0
  -29.5450  -12.6100   18.2070 C   0  0  0  0  0  2  0  0  0  0  0  0
  -28.0580  -12.4690   18.5930 C   0  0  0  0  0  2  0  0  0  0  0  0
  -27.6820  -13.3050   19.8450 C   0  0  0  0  0  3  0  0  0  0  0  0
  -28.7100  -13.0980   20.9840 C   0  0  0  0  0  2  0  0  0  0  0  0
  -30.0480  -13.4070   20.4510 N   0  0  0  0  0  0  0  0  0  0  0  0
  -31.8320  -14.7930   20.1510 O   0  0  0  0  0  0  0  0  0  0  0  0
  -29.8220  -15.6590   20.7310 N   0  0  0  0  0  0  0  0  0  0  0  0
  -28.9560  -15.3730   21.1610 H   0  0  0  0  0  0  0  0  0  0  0  0
  -25.2610  -13.9110   20.4760 C   0  0  0  0  0  0  0  0  0  0  0  0
  -24.1860  -13.1400   20.8260 C   0  0  0  0  0  0  0  0  0  0  0  0
  -24.6540  -11.7890   20.8290 C   0  0  0  0  0  0  0  0  0  0  0  0
  -26.3170  -13.0310   20.2880 N   0  0  0  0  0  0  0  0  0  0  0  0
  -25.9530  -11.7510   20.5590 N   0  0  0  0  0  0  0  0  0  0  0  0
  -23.9290  -10.5270   21.0160 C   0  0  0  0  0  0  0  0  0  0  0  0
  -24.3360   -9.5770   21.9790 C   0  0  0  0  0  3  0  0  0  0  0  0
  -23.6120   -8.3780   22.1520 C   0  0  0  0  0  3  0  0  0  0  0  0
  -22.4650   -8.1210   21.3630 C   0  0  0  0  0  0  0  0  0  0  0  0
  -22.0770   -9.0590   20.3910 C   0  0  0  0  0  3  0  0  0  0  0  0
  -22.8030  -10.2490   20.2150 C   0  0  0  0  0  3  0  0  0  0  0  0
  -21.7150   -6.9720   21.4450 O   0  0  0  0  0  0  0  0  0  0  0  0
  -21.6310   -6.2490   22.6080 C   0  0  0  0  0  0  0  0  0  0  0  0
  -21.1470   -6.8190   23.8050 C   0  0  0  0  0  3  0  0  0  0  0  0
  -21.0100   -6.0220   24.9580 C   0  0  0  0  0  3  0  0  0  0  0  0
  -21.3470   -4.6550   24.9150 C   0  0  0  0  0  0  0  0  0  0  0  0
  -21.8250   -4.0850   23.7220 C   0  0  0  0  0  3  0  0  0  0  0  0
  -21.9630   -4.8800   22.5700 C   0  0  0  0  0  0  0  0  0  0  0  0
  -22.4030   -4.3210   21.4170 F   0  0  0  0  0  0  0  0  0  0  0  0
  -21.2090   -3.8870   26.0210 F   0  0  0  0  0  0  0  0  0  0  0  0
  -22.7800  -13.6150   21.0510 C   0  0  0  0  0  0  0  0  0  0  0  0
  -22.0300  -12.9260   21.9040 N   0  0  0  0  0  0  0  0  0  0  0  0
  -22.3530  -14.6310   20.5060 O   0  0  0  0  0  0  0  0  0  0  0  0
  -22.3860  -12.1040   22.3690 H   0  0  0  0  0  0  0  0  0  0  0  0
  -21.0850  -13.2270   22.0960 H   0  0  0  0  0  0  0  0  0  0  0  0
  -25.4250  -15.2790   20.2830 N   0  0  0  0  0  0  0  0  0  0  0  0
  -24.6490  -15.9290   20.3560 H   0  0  0  0  0  0  0  0  0  0  0  0
  -26.2730  -15.7180   19.9500 H   0  0  0  0  0  0  0  0  0  0  0  0
  -30.1390  -21.9370   19.9690 C   0  0  0  0  0  2  0  0  0  0  0  0
  -29.3370  -24.3110   20.1270 C   0  0  0  0  0  0  0  0  0  0  0  0
  -29.3020  -23.0190   20.5340 N   0  0  0  0  0  0  0  0  0  0  0  0
  -30.0940  -24.6730   19.2220 O   0  0  0  0  0  0  0  0  0  0  0  0
  -28.6730  -22.7540   21.2830 H   0  0  0  0  0  0  0  0  0  0  0  0
  -28.4060  -25.3480   20.8160 C   0  0  0  0  0  2  0  0  0  0  0  0
  -28.5400  -26.6940   20.2700 O   0  0  0  0  0  0  0  0  0  0  0  0
  -24.6590  -31.9230   23.2460 C   0  0  0  0  0  0  0  0  0  0  0  0
  -27.3840  -27.4570   20.2400 C   0  0  0  0  0  0  0  0  0  0  0  0
  -23.4910  -30.4980   21.5980 C   0  0  0  0  0  3  0  0  0  0  0  0
  -24.9800  -28.9670   20.2000 C   0  0  0  0  0  0  0  0  0  0  0  0
  -26.0180  -30.8760   21.4330 C   0  0  0  0  0  2  0  0  0  0  0  0
  -26.1290  -29.5000   20.8020 C   0  0  0  0  0  0  0  0  0  0  0  0
  -27.3360  -28.7550   20.8140 C   0  0  0  0  0  3  0  0  0  0  0  0
  -26.2210  -26.9570   19.6170 C   0  0  0  0  0  3  0  0  0  0  0  0
  -25.0240  -27.6970   19.6010 C   0  0  0  0  0  3  0  0  0  0  0  0
  -23.7270  -29.8140   20.2250 C   0  0  0  0  0  2  0  0  0  0  0  0
  -24.7400  -31.1150   22.1510 N   0  0  0  0  0  0  0  0  0  0  0  0
  -23.5680  -32.1860   23.7710 O   0  0  0  0  0  0  0  0  0  0  0  0
  -22.8370  -29.4750   22.5570 C   0  0  0  0  0  0  0  0  0  0  0  0
  -21.5160  -29.2770   22.4140 N   0  0  0  0  0  0  0  0  0  0  0  0
  -23.5170  -28.8630   23.3850 O   0  0  0  0  0  0  0  0  0  0  0  0
  -21.0280  -29.8240   21.7170 H   0  0  0  0  0  0  0  0  0  0  0  0
  -18.1490  -28.0520   22.8810 C   0  0  0  0  0  0  0  0  0  0  0  0
  -20.7010  -28.3350   23.1800 C   0  0  0  0  0  3  0  0  0  0  0  0
  -20.8230  -26.9030   22.6080 C   0  0  0  0  0  2  0  0  0  0  0  0
  -19.7350  -26.5660   21.5840 C   0  0  0  0  0  2  0  0  0  0  0  0
  -18.3450  -26.7020   22.2140 C   0  0  0  0  0  2  0  0  0  0  0  0
  -19.2560  -28.8250   23.3210 C   0  0  0  0  0  0  0  0  0  0  0  0
  -19.0200  -30.0890   23.9050 C   0  0  0  0  0  3  0  0  0  0  0  0
  -17.7090  -30.5800   24.0550 C   0  0  0  0  0  3  0  0  0  0  0  0
  -16.6160  -29.8030   23.6320 C   0  0  0  0  0  3  0  0  0  0  0  0
  -16.8370  -28.5410   23.0510 C   0  0  0  0  0  3  0  0  0  0  0  0
  -25.9290  -32.5730   23.8790 C   0  0  0  0  0  3  0  0  0  0  0  0
  -26.4440  -31.8120   25.1620 C   0  0  1  0  0  0  0  0  0  0  0  0
  -25.3430  -31.5630   26.2200 C   0  0  0  0  0  1  0  0  0  0  0  0
  -27.0480  -30.4410   24.7790 C   0  0  0  0  0  1  0  0  0  0  0  0
  -27.5770  -32.6230   25.8330 C   0  0  0  0  0  1  0  0  0  0  0  0
  -25.5990  -33.9680   24.2000 N   0  0  0  0  0  0  0  0  0  0  0  0
  -25.9230  -35.0210   23.4370 C   0  0  0  0  0  0  0  0  0  0  0  0
  -26.6010  -34.9210   22.4120 O   0  0  0  0  0  0  0  0  0  0  0  0
  -24.9960  -34.1180   24.9960 H   0  0  0  0  0  0  0  0  0  0  0  0
  -24.1760  -36.7890   23.0570 C   0  0  0  0  0  1  0  0  0  0  0  0
  -25.4120  -36.4040   23.8840 C   0  0  0  0  0  3  0  0  0  0  0  0
  -27.5240  -37.3210   24.7360 C   0  0  0  0  0  1  0  0  0  0  0  0
  -26.4320  -37.4700   23.7780 N   0  0  0  0  0  0  0  0  0  0  0  0
  -26.0130  -38.3860   23.9150 H   0  0  0  0  0  0  0  0  0  0  0  0
  1  2  1  0
  2  6  1  0
  3  9  2  0
  4  5  1  0
  4  8  1  0
  5  1  1  0
  5  7  1  0
  6  7  1  0
  6 18  1  0
  7  8  1  0
  8  3  1  0
 10 18  1  0
 11 16  1  0
 12 13  1  0
 12 11  1  0
 14 13  1  0
 14 23  1  0
 14 15  1  0
 16 10  1  0
 16 15  1  0
 17 10  2  0
 18 19  1  0
 20 21  2  0
 21 22  1  0
 21 40  1  0
 22 25  1  0
 23 20  1  0
 23 24  1  0
 24 22  2  0
 25 26  1  0
 26 27  2  0
 28 31  1  0
 28 27  1  0
 29 28  2  0
 30 29  1  0
 30 25  2  0
 31 32  1  0
 32 33  1  0
 33 34  2  0
 35 34  1  0
 35 39  1  0
 36 35  2  0
 37 32  2  0
 37 36  1  0
 38 37  1  0
 40 41  1  0
 41 44  1  0
 41 43  1  0
 42 40  2  0
 45 46  1  0
 45 20  1  0
 47 45  1  0
 48  3  1  0
 48 50  1  0
 49 50  1  0
 49 53  1  0
 50 52  1  0
 51 49  2  0
 54 53  1  0
 55 66  2  0
 56 54  1  0
 56 61  1  0
 57 65  1  0
 57 67  1  0
 58 64  1  0
 58 60  1  0
 59 65  1  0
 60 61  2  0
 60 59  1  0
 62 56  2  0
 63 62  1  0
 63 58  2  0
 64 57  1  0
 65 55  1  0
 67 69  2  0
 68 67  1  0
 70 68  1  0
 71 80  2  0
 71 76  1  0
 72 68  1  0
 72 76  1  0
 73 72  1  0
 74 75  1  0
 74 73  1  0
 75 71  1  0
 76 77  2  0
 77 78  1  0
 79 78  2  0
 80 79  1  0
 81 55  1  0
 81 86  1  0
 81 82  1  0
 82 85  1  1
 82 83  1  0
 84 82  1  0
 86 89  1  0
 87 91  1  0
 87 86  1  0
 88 87  2  0
 91 90  1  0
 93 91  1  0
 93 94  1  0
 93 92  1  0
M  ISO  4  10 100  18 100  53 101  54 101
M  END
>  <TORSDO>  (15) 
F 19

>  <SCORE>  (15) 
-13.940

>  <name>  (15) 
14

>  <ligand_id>  (15) 
14

>  <original_smiles>  (15) 
[H]C1=C([H])C2([H])C([H])([H])N(C(=O)C([H])([H])N([H])C(=O)C([H])([H])Oc3c([H])c([H])c4c(c3[H])C([H])([H])N(C(=O)C([H])(N([H])C(=O)C([H])(N([H])C([H])([H])[H])C([H])([H])[H])C(C([H])([H])[H])(C([H])([H])[H])C([H])([H])[H])C([H])(C(=O)N([H])C3([H])c5c([H])c([H])c([H])c([H])c5C([H])([H])C([H])([H])C3([H])[H])C4([H])[H])C2([H])C1([H])N([H])C(=O)N1C([H])([H])C([H])([H])C([H])([H])C([H])(n2nc(-c3c([H])c([H])c(Oc4c([H])c([H])c(F)c([H])c4F)c([H])c3[H])c(C(=O)N([H])[H])c2N([H])[H])C1([H])[H]

>  <smiles>  (15) 
[H]C1=C([H])C2([H])C([H])([H])N(C(=O)C([H])([H])N([H])C(=O)C([H])([H])Oc3c([H])c([H])c4c(c3[H])C([H])([H])N(C(=O)C([H])(N([H])C(=O)C([H])(N([H])C([H])([H])[H])C([H])([H])[H])C(C([H])([H])[H])(C([H])([H])[H])C([H])([H])[H])C([H])(C(=O)N([H])C3([H])c5c([H])c([H])c([H])c([H])c5C([H])([H])C([H])([H])C3([H])[H])C4([H])[H])C2([H])C1([H])N([H])C(=O)N1C([H])([H])C([H])([H])C([H])([H])C([H])(n2nc(-c3c([H])c([H])c(Oc4c([H])c([H])c(F)c([H])c4F)c([H])c3[H])c(C(=O)N([H])[H])c2N([H])[H])C1([H])[H]

$$$$
15:0:0
     RDKit          3D

 97106  0  0  1  0  0  0  0  0999 V2000
  -24.9110  -22.8090   20.9240 C   0  0  0  0  0  2  0  0  0  0  0  0
  -26.0740  -22.2200   21.7260 C   0  0  0  0  0  2  0  0  0  0  0  0
  -25.3780  -24.2290   20.6210 C   0  0  0  0  0  2  0  0  0  0  0  0
  -27.3270  -22.9890   21.2590 C   0  0  0  0  0  3  0  0  0  0  0  0
  -26.8410  -24.1130   20.4250 N   0  0  2  0  0  4  0  0  0  0  0  0
  -26.9880  -23.7170   19.5000 H   0  0  0  0  0  0  0  0  0  0  0  0
  -28.2520  -22.1260   20.3970 C   0  0  0  0  0  0  0  0  0  0  0  0
  -29.1220  -21.3270   21.0240 N   0  0  0  0  0  0  0  0  0  0  0  0
  -28.1970  -22.2310   19.1680 O   0  0  0  0  0  0  0  0  0  0  0  0
  -29.0980  -21.2940   22.0350 H   0  0  0  0  0  0  0  0  0  0  0  0
  -30.2210  -20.6270   20.3740 C   0  0  0  0  0  2  0  0  0  0  0  0
  -29.6210  -16.9120   19.7550 C   0  0  0  0  0  3  0  0  0  0  0  0
  -29.4260  -18.3050   19.7520 C   0  0  0  0  0  3  0  0  0  0  0  0
  -31.2530  -17.1410   21.5490 C   0  0  0  0  0  3  0  0  0  0  0  0
  -30.5740  -16.3260   20.6170 C   0  0  0  0  0  0  0  0  0  0  0  0
  -30.2100  -19.1250   20.5880 C   0  0  0  0  0  0  0  0  0  0  0  0
  -31.0830  -18.5360   21.5260 C   0  0  0  0  0  0  0  0  0  0  0  0
  -31.8360  -19.3140   22.3420 F   0  0  0  0  0  0  0  0  0  0  0  0
  -31.1660  -14.9980   20.2640 C   0  0  0  0  0  0  0  0  0  0  0  0
  -30.7970  -12.7790   19.2940 C   0  0  0  0  0  2  0  0  0  0  0  0
  -29.8920  -12.9060   18.0550 C   0  0  0  0  0  2  0  0  0  0  0  0
  -28.4120  -12.7920   18.4650 C   0  0  0  0  0  2  0  0  0  0  0  0
  -28.0460  -13.7160   19.6560 C   0  0  0  0  0  3  0  0  0  0  0  0
  -29.0910  -13.6530   20.7930 C   0  0  0  0  0  2  0  0  0  0  0  0
  -30.4230  -13.8630   20.2160 N   0  0  0  0  0  0  0  0  0  0  0  0
  -32.3130  -15.0630   19.8210 O   0  0  0  0  0  0  0  0  0  0  0  0
  -25.6660  -14.3480   20.3800 C   0  0  0  0  0  0  0  0  0  0  0  0
  -24.5870  -13.5870   20.7400 C   0  0  0  0  0  0  0  0  0  0  0  0
  -25.0310  -12.2290   20.6970 C   0  0  0  0  0  0  0  0  0  0  0  0
  -26.6970  -13.4540   20.1420 N   0  0  0  0  0  0  0  0  0  0  0  0
  -26.3210  -12.1740   20.3910 N   0  0  0  0  0  0  0  0  0  0  0  0
  -24.2880  -10.9750   20.8710 C   0  0  0  0  0  0  0  0  0  0  0  0
  -24.6610  -10.0280   21.8500 C   0  0  0  0  0  3  0  0  0  0  0  0
  -23.9240   -8.8370   22.0100 C   0  0  0  0  0  3  0  0  0  0  0  0
  -22.7980   -8.5840   21.1920 C   0  0  0  0  0  0  0  0  0  0  0  0
  -22.4460   -9.5180   20.2030 C   0  0  0  0  0  3  0  0  0  0  0  0
  -23.1840  -10.7010   20.0390 C   0  0  0  0  0  3  0  0  0  0  0  0
  -22.0340   -7.4450   21.2620 O   0  0  0  0  0  0  0  0  0  0  0  0
  -21.8450   -6.7760   22.4450 C   0  0  0  0  0  0  0  0  0  0  0  0
  -21.2800   -7.4050   23.5760 C   0  0  0  0  0  3  0  0  0  0  0  0
  -21.0390   -6.6600   24.7480 C   0  0  0  0  0  3  0  0  0  0  0  0
  -21.3550   -5.2890   24.7890 C   0  0  0  0  0  0  0  0  0  0  0  0
  -21.9160   -4.6620   23.6630 C   0  0  0  0  0  3  0  0  0  0  0  0
  -22.1560   -5.4030   22.4930 C   0  0  0  0  0  0  0  0  0  0  0  0
  -22.6750   -4.7880   21.4040 F   0  0  0  0  0  0  0  0  0  0  0  0
  -21.1180   -4.5720   25.9130 F   0  0  0  0  0  0  0  0  0  0  0  0
  -23.1970  -14.0780   21.0200 C   0  0  0  0  0  0  0  0  0  0  0  0
  -22.4680  -13.3830   21.8870 N   0  0  0  0  0  0  0  0  0  0  0  0
  -22.7690  -15.1110   20.5060 O   0  0  0  0  0  0  0  0  0  0  0  0
  -22.8320  -12.5490   22.3210 H   0  0  0  0  0  0  0  0  0  0  0  0
  -21.5320  -13.6860   22.1150 H   0  0  0  0  0  0  0  0  0  0  0  0
  -25.8550  -15.7180   20.2140 N   0  0  0  0  0  0  0  0  0  0  0  0
  -25.1160  -16.4010   20.3430 H   0  0  0  0  0  0  0  0  0  0  0  0
  -26.7360  -16.1400   19.9490 H   0  0  0  0  0  0  0  0  0  0  0  0
  -27.6100  -25.3870   20.4970 C   0  0  0  0  0  2  0  0  0  0  0  0
  -28.0270  -25.8860   19.0860 C   0  0  0  0  0  2  0  0  0  0  0  0
  -28.0990  -27.3130   19.0140 O   0  0  0  0  0  0  0  0  0  0  0  0
  -24.6190  -31.8340   23.1990 C   0  0  0  0  0  0  0  0  0  0  0  0
  -26.9250  -28.0120   19.1920 C   0  0  0  0  0  0  0  0  0  0  0  0
  -23.2490  -30.6990   21.4820 C   0  0  0  0  0  3  0  0  0  0  0  0
  -24.5450  -29.4460   19.6860 C   0  0  0  0  0  0  0  0  0  0  0  0
  -25.7420  -31.1280   21.0970 C   0  0  0  0  0  2  0  0  0  0  0  0
  -25.7560  -29.8840   20.2360 C   0  0  0  0  0  0  0  0  0  0  0  0
  -26.9500  -29.1740   19.9880 C   0  0  0  0  0  3  0  0  0  0  0  0
  -25.6970  -27.5980   18.6210 C   0  0  0  0  0  3  0  0  0  0  0  0
  -24.5080  -28.3030   18.8730 C   0  0  0  0  0  3  0  0  0  0  0  0
  -23.3120  -30.2610   19.9960 C   0  0  0  0  0  2  0  0  0  0  0  0
  -24.5600  -31.2230   21.9830 N   0  0  0  0  0  0  0  0  0  0  0  0
  -23.5970  -32.0060   23.8810 O   0  0  0  0  0  0  0  0  0  0  0  0
  -22.6990  -29.5220   22.3210 C   0  0  0  0  0  0  0  0  0  0  0  0
  -21.3760  -29.3020   22.2440 N   0  0  0  0  0  0  0  0  0  0  0  0
  -23.4550  -28.8220   22.9990 O   0  0  0  0  0  0  0  0  0  0  0  0
  -20.8240  -29.9310   21.6790 H   0  0  0  0  0  0  0  0  0  0  0  0
  -18.0940  -27.8580   22.6720 C   0  0  0  0  0  0  0  0  0  0  0  0
  -20.6390  -28.2320   22.9150 C   0  0  0  0  0  3  0  0  0  0  0  0
  -20.8070  -26.8860   22.1720 C   0  0  0  0  0  2  0  0  0  0  0  0
  -19.6960  -26.6220   21.1490 C   0  0  0  0  0  2  0  0  0  0  0  0
  -18.3280  -26.6100   21.8350 C   0  0  0  0  0  2  0  0  0  0  0  0
  -19.1800  -28.6300   23.1630 C   0  0  0  0  0  0  0  0  0  0  0  0
  -18.9100  -29.8030   23.9010 C   0  0  0  0  0  3  0  0  0  0  0  0
  -17.5850  -30.2070   24.1490 C   0  0  0  0  0  3  0  0  0  0  0  0
  -16.5130  -29.4300   23.6740 C   0  0  0  0  0  3  0  0  0  0  0  0
  -16.7670  -28.2570   22.9420 C   0  0  0  0  0  3  0  0  0  0  0  0
  -25.9650  -32.3700   23.7810 C   0  0  0  0  0  3  0  0  0  0  0  0
  -25.7040  -33.7020   24.3450 N   0  0  0  0  0  0  0  0  0  0  0  0
  -25.9990  -34.8550   23.7330 C   0  0  0  0  0  0  0  0  0  0  0  0
  -26.5920  -34.9080   22.6520 O   0  0  0  0  0  0  0  0  0  0  0  0
  -25.1820  -33.7330   25.2070 H   0  0  0  0  0  0  0  0  0  0  0  0
  -24.2830  -36.6890   23.7650 C   0  0  0  0  0  1  0  0  0  0  0  0
  -25.5640  -36.1600   24.4280 C   0  0  0  0  0  3  0  0  0  0  0  0
  -27.7600  -36.8850   25.2490 C   0  0  0  0  0  1  0  0  0  0  0  0
  -26.6070  -37.2090   24.4150 N   0  0  0  0  0  0  0  0  0  0  0  0
  -26.2290  -38.0980   24.7280 H   0  0  0  0  0  0  0  0  0  0  0  0
  -26.5980  -31.4150   24.8670 C   0  0  1  0  0  0  0  0  0  0  0  0
  -25.6110  -31.0150   25.9900 C   0  0  0  0  0  1  0  0  0  0  0  0
  -27.1200  -30.1140   24.2120 C   0  0  0  0  0  1  0  0  0  0  0  0
  -27.8220  -32.1020   25.5180 C   0  0  0  0  0  1  0  0  0  0  0  0
  1  2  1  0
  3  1  1  0
  4  7  1  0
  4  2  1  0
  5 55  1  0
  5  3  1  0
  5  4  1  0
  5  6  1  6
  7  8  1  0
  8 10  1  0
  9  7  2  0
 11 16  1  0
 11  8  1  0
 12 15  1  0
 13 12  2  0
 13 16  1  0
 15 14  2  0
 16 17  2  0
 17 14  1  0
 17 18  1  0
 19 15  1  0
 20 25  1  0
 21 22  1  0
 21 20  1  0
 23 22  1  0
 23 30  1  0
 23 24  1  0
 25 19  1  0
 25 24  1  0
 26 19  2  0
 27 28  2  0
 28 47  1  0
 29 28  1  0
 29 32  1  0
 30 27  1  0
 30 31  1  0
 31 29  2  0
 32 33  1  0
 33 34  2  0
 35 38  1  0
 35 34  1  0
 36 35  2  0
 37 36  1  0
 37 32  2  0
 38 39  1  0
 39 44  2  0
 39 40  1  0
 40 41  2  0
 41 42  1  0
 42 46  1  0
 43 42  2  0
 44 43  1  0
 45 44  1  0
 47 48  1  0
 48 51  1  0
 48 50  1  0
 49 47  2  0
 52 53  1  0
 52 27  1  0
 54 52  1  0
 56 55  1  0
 57 56  1  0
 57 59  1  0
 58 69  2  0
 59 64  1  0
 60 68  1  0
 60 70  1  0
 61 67  1  0
 61 63  1  0
 62 68  1  0
 63 62  1  0
 64 63  2  0
 65 66  1  0
 65 59  2  0
 66 61  2  0
 67 60  1  0
 68 58  1  0
 70 72  2  0
 71 70  1  0
 73 71  1  0
 74 83  2  0
 74 79  1  0
 75 71  1  0
 75 79  1  0
 76 75  1  0
 77 78  1  0
 77 76  1  0
 78 74  1  0
 79 80  2  0
 80 81  1  0
 82 81  2  0
 83 82  1  0
 84 58  1  0
 84 85  1  0
 84 94  1  0
 85 88  1  0
 86 85  1  0
 86 90  1  0
 87 86  2  0
 90 89  1  0
 92 90  1  0
 92 93  1  0
 92 91  1  0
 94 97  1  1
 94 95  1  0
 96 94  1  0
M  ISO  4  15 100  19 100  56 101  57 101
M  END
>  <TORSDO>  (16) 
F 21

>  <SCORE>  (16) 
-10.340

>  <name>  (16) 
15

>  <ligand_id>  (16) 
15

>  <original_smiles>  (16) 
[H]c1c([H])c([H])c2c(c1[H])C([H])([H])C([H])([H])C([H])([H])C2([H])N([H])C(=O)C1([H])N(C(=O)C([H])(N([H])C(=O)C([H])(N([H])C([H])([H])[H])C([H])([H])[H])C(C([H])([H])[H])(C([H])([H])[H])C([H])([H])[H])C([H])([H])c2c([H])c(OC([H])([H])C([H])([H])[N+]3([H])C([H])([H])C([H])([H])C([H])([H])C3([H])C(=O)N([H])C([H])([H])c3c([H])c([H])c(C(=O)N4C([H])([H])C([H])([H])C([H])([H])C([H])(n5nc(-c6c([H])c([H])c(Oc7c([H])c([H])c(F)c([H])c7F)c([H])c6[H])c(C(=O)N([H])[H])c5N([H])[H])C4([H])[H])c([H])c3F)c([H])c([H])c2C1([H])[H]

>  <smiles>  (16) 
[H]c1c([H])c([H])c2c(c1[H])C([H])([H])C([H])([H])C([H])([H])C2([H])N([H])C(=O)C1([H])N(C(=O)C([H])(N([H])C(=O)C([H])(N([H])C([H])([H])[H])C([H])([H])[H])C(C([H])([H])[H])(C([H])([H])[H])C([H])([H])[H])C([H])([H])c2c([H])c(OC([H])([H])C([H])([H])[N+]3([H])C([H])([H])C([H])([H])C([H])([H])C3([H])C(=O)N([H])C([H])([H])c3c([H])c([H])c(C(=O)N4C([H])([H])C([H])([H])C([H])([H])C([H])(n5nc(-c6c([H])c([H])c(Oc7c([H])c([H])c(F)c([H])c7F)c([H])c6[H])c(C(=O)N([H])[H])c5N([H])[H])C4([H])[H])c([H])c3F)c([H])c([H])c2C1([H])[H]

$$$$
16:0:0
     RDKit          3D

 95103  0  0  1  0  0  0  0  0999 V2000
  -30.7370  -18.5720   19.9220 C   0  0  0  0  0  3  0  0  0  0  0  0
  -30.4600  -20.0050   19.7580 C   0  0  0  0  0  3  0  0  0  0  0  0
  -28.4300  -18.1370   19.8010 C   0  0  0  0  0  3  0  0  0  0  0  0
  -28.1320  -19.5470   19.6240 C   0  0  0  0  0  0  0  0  0  0  0  0
  -29.7240  -17.5470   19.9440 C   0  0  0  0  0  0  0  0  0  0  0  0
  -29.1450  -20.5810   19.5890 C   0  0  0  0  0  0  0  0  0  0  0  0
  -30.6480  -14.9120   19.8210 C   0  0  0  0  0  0  0  0  0  0  0  0
  -30.4880  -12.5320   18.9580 C   0  0  0  0  0  2  0  0  0  0  0  0
  -29.4870  -12.4820   17.7790 C   0  0  0  0  0  2  0  0  0  0  0  0
  -28.0410  -12.3210   18.2870 C   0  0  0  0  0  2  0  0  0  0  0  0
  -27.7160  -13.2800   19.4610 C   0  0  0  0  0  3  0  0  0  0  0  0
  -28.8260  -13.2700   20.5340 C   0  0  0  0  0  2  0  0  0  0  0  0
  -30.0800  -13.6420   19.8620 N   0  0  0  0  0  0  0  0  0  0  0  0
  -31.8170  -15.0150   19.4280 O   0  0  0  0  0  0  0  0  0  0  0  0
  -29.8030  -16.0190   20.0790 N   0  0  0  0  0  0  0  0  0  0  0  0
  -28.9270  -15.6460   20.4120 H   0  0  0  0  0  0  0  0  0  0  0  0
  -25.4220  -13.9500   20.3830 C   0  0  0  0  0  0  0  0  0  0  0  0
  -24.3430  -13.2150   20.7940 C   0  0  0  0  0  0  0  0  0  0  0  0
  -24.7290  -11.8450   20.6680 C   0  0  0  0  0  0  0  0  0  0  0  0
  -26.3970  -13.0310   20.0310 N   0  0  0  0  0  0  0  0  0  0  0  0
  -25.9920  -11.7570   20.2670 N   0  0  0  0  0  0  0  0  0  0  0  0
  -23.9480  -10.6150   20.8480 C   0  0  0  0  0  0  0  0  0  0  0  0
  -24.3970   -9.5690   21.6840 C   0  0  0  0  0  3  0  0  0  0  0  0
  -23.6180   -8.4050   21.8560 C   0  0  0  0  0  3  0  0  0  0  0  0
  -22.3730   -8.2780   21.1930 C   0  0  0  0  0  0  0  0  0  0  0  0
  -21.9390   -9.3130   20.3460 C   0  0  0  0  0  3  0  0  0  0  0  0
  -22.7190  -10.4690   20.1710 C   0  0  0  0  0  3  0  0  0  0  0  0
  -21.5620   -7.1730   21.2820 O   0  0  0  0  0  0  0  0  0  0  0  0
  -21.5820   -6.3510   22.3800 C   0  0  0  0  0  0  0  0  0  0  0  0
  -21.3290   -6.8390   23.6810 C   0  0  0  0  0  3  0  0  0  0  0  0
  -21.2900   -5.9490   24.7720 C   0  0  0  0  0  3  0  0  0  0  0  0
  -21.4930   -4.5710   24.5660 C   0  0  0  0  0  0  0  0  0  0  0  0
  -21.7380   -4.0820   23.2700 C   0  0  0  0  0  3  0  0  0  0  0  0
  -21.7790   -4.9700   22.1810 C   0  0  0  0  0  0  0  0  0  0  0  0
  -21.9950   -4.4910   20.9320 F   0  0  0  0  0  0  0  0  0  0  0  0
  -21.4470   -3.7140   25.6110 F   0  0  0  0  0  0  0  0  0  0  0  0
  -22.9960  -13.7510   21.1800 C   0  0  0  0  0  0  0  0  0  0  0  0
  -22.2930  -13.0620   22.0710 N   0  0  0  0  0  0  0  0  0  0  0  0
  -22.5790  -14.8160   20.7260 O   0  0  0  0  0  0  0  0  0  0  0  0
  -22.6430  -12.1990   22.4590 H   0  0  0  0  0  0  0  0  0  0  0  0
  -21.3910  -13.4040   22.3700 H   0  0  0  0  0  0  0  0  0  0  0  0
  -25.6460  -15.3170   20.2490 N   0  0  0  0  0  0  0  0  0  0  0  0
  -24.8940  -15.9810   20.3950 H   0  0  0  0  0  0  0  0  0  0  0  0
  -26.4300  -15.7050   19.7430 H   0  0  0  0  0  0  0  0  0  0  0  0
  -26.6730  -19.9160   19.5140 C   0  0  0  0  0  0  0  0  0  0  0  0
  -25.9030  -19.0890   18.8200 N   0  0  0  0  0  0  0  0  0  0  0  0
  -26.2240  -20.9550   19.9970 O   0  0  0  0  0  0  0  0  0  0  0  0
  -26.2990  -18.2670   18.3900 H   0  0  0  0  0  0  0  0  0  0  0  0
  -24.9220  -19.2950   18.6960 H   0  0  0  0  0  0  0  0  0  0  0  0
  -29.2530  -23.3630   19.3660 C   0  0  0  0  0  0  0  0  0  0  0  0
  -28.7520  -22.0420   19.2950 N   0  0  0  0  0  0  0  0  0  0  0  0
  -30.3820  -23.5810   19.8140 O   0  0  0  0  0  0  0  0  0  0  0  0
  -27.7840  -22.0970   19.0060 H   0  0  0  0  0  0  0  0  0  0  0  0
  -28.3490  -24.6400   18.8260 C   0  0  0  0  0  2  0  0  0  0  0  0
  -28.6210  -26.1420   19.1270 O   0  0  0  0  0  0  0  0  0  0  0  0
  -24.6520  -31.2190   22.7110 C   0  0  0  0  0  0  0  0  0  0  0  0
  -27.5120  -27.0660   19.1680 C   0  0  0  0  0  0  0  0  0  0  0  0
  -23.5340  -29.9420   20.9250 C   0  0  0  0  0  3  0  0  0  0  0  0
  -25.0730  -28.6440   19.3320 C   0  0  0  0  0  0  0  0  0  0  0  0
  -26.0630  -30.3960   20.7910 C   0  0  0  0  0  2  0  0  0  0  0  0
  -26.2260  -29.0940   19.9880 C   0  0  0  0  0  0  0  0  0  0  0  0
  -27.4450  -28.3230   19.8940 C   0  0  0  0  0  3  0  0  0  0  0  0
  -26.3230  -26.7250   18.4810 C   0  0  0  0  0  3  0  0  0  0  0  0
  -25.1330  -27.4740   18.5660 C   0  0  0  0  0  3  0  0  0  0  0  0
  -23.7890  -29.4440   19.4790 C   0  0  0  0  0  2  0  0  0  0  0  0
  -24.7690  -30.5350   21.5330 N   0  0  0  0  0  0  0  0  0  0  0  0
  -23.5530  -31.3710   23.2660 O   0  0  0  0  0  0  0  0  0  0  0  0
  -22.9310  -28.7890   21.7650 C   0  0  0  0  0  0  0  0  0  0  0  0
  -21.6050  -28.5820   21.6610 N   0  0  0  0  0  0  0  0  0  0  0  0
  -23.6550  -28.0850   22.4730 O   0  0  0  0  0  0  0  0  0  0  0  0
  -21.0750  -29.2060   21.0700 H   0  0  0  0  0  0  0  0  0  0  0  0
  -18.2810  -27.2350   22.1650 C   0  0  0  0  0  0  0  0  0  0  0  0
  -20.8460  -27.5210   22.3280 C   0  0  0  0  0  3  0  0  0  0  0  0
  -20.9380  -26.1930   21.5430 C   0  0  0  0  0  2  0  0  0  0  0  0
  -19.7850  -25.9940   20.5540 C   0  0  0  0  0  2  0  0  0  0  0  0
  -18.4410  -26.0060   21.2870 C   0  0  0  0  0  2  0  0  0  0  0  0
  -19.4090  -27.9560   22.6410 C   0  0  0  0  0  0  0  0  0  0  0  0
  -19.2010  -29.1100   23.4260 C   0  0  0  0  0  3  0  0  0  0  0  0
  -17.8980  -29.5440   23.7390 C   0  0  0  0  0  3  0  0  0  0  0  0
  -16.7870  -28.8200   23.2760 C   0  0  0  0  0  3  0  0  0  0  0  0
  -16.9780  -27.6660   22.4950 C   0  0  0  0  0  3  0  0  0  0  0  0
  -25.8910  -31.8610   23.4070 C   0  0  0  0  0  3  0  0  0  0  0  0
  -26.4730  -30.9750   24.5760 C   0  0  1  0  0  0  0  0  0  0  0  0
  -25.4130  -30.5370   25.6130 C   0  0  0  0  0  1  0  0  0  0  0  0
  -27.1380  -29.6950   24.0170 C   0  0  0  0  0  1  0  0  0  0  0  0
  -27.5790  -31.7550   25.3230 C   0  0  0  0  0  1  0  0  0  0  0  0
  -25.4840  -33.1800   23.9160 N   0  0  0  0  0  0  0  0  0  0  0  0
  -25.7380  -34.3460   23.3070 C   0  0  0  0  0  0  0  0  0  0  0  0
  -26.4070  -34.4270   22.2730 O   0  0  0  0  0  0  0  0  0  0  0  0
  -24.8870  -33.1840   24.7300 H   0  0  0  0  0  0  0  0  0  0  0  0
  -23.8840  -36.0460   23.1960 C   0  0  0  0  0  1  0  0  0  0  0  0
  -25.1600  -35.6260   23.9440 C   0  0  0  0  0  3  0  0  0  0  0  0
  -27.2380  -36.5440   24.8780 C   0  0  0  0  0  1  0  0  0  0  0  0
  -26.1150  -36.7540   23.9670 N   0  0  0  0  0  0  0  0  0  0  0  0
  -25.6470  -37.6180   24.2330 H   0  0  0  0  0  0  0  0  0  0  0  0
  1  5  1  0
  2  1  2  0
  3  5  2  0
  4  3  1  0
  5 15  1  0
  6  4  2  0
  6  2  1  0
  7 13  1  0
  7 15  1  0
  8 13  1  0
  9 10  1  0
  9  8  1  0
 11 10  1  0
 11 20  1  0
 11 12  1  0
 13 12  1  0
 14  7  2  0
 15 16  1  0
 17 18  2  0
 18 37  1  0
 19 18  1  0
 19 22  1  0
 20 21  1  0
 20 17  1  0
 21 19  2  0
 22 23  1  0
 23 24  2  0
 25 28  1  0
 25 24  1  0
 26 25  2  0
 27 26  1  0
 27 22  2  0
 28 29  1  0
 29 30  1  0
 30 31  2  0
 32 31  1  0
 32 36  1  0
 33 32  2  0
 34 29  2  0
 34 33  1  0
 35 34  1  0
 37 38  1  0
 38 41  1  0
 38 40  1  0
 39 37  2  0
 42 17  1  0
 42 43  1  0
 44 42  1  0
 45  4  1  0
 45 47  2  0
 46 45  1  0
 48 46  1  0
 49 46  1  0
 50 52  2  0
 51 50  1  0
 51  6  1  0
 53 51  1  0
 54 55  1  0
 54 50  1  0
 55 57  1  0
 56 67  2  0
 57 62  1  0
 58 66  1  0
 58 68  1  0
 59 65  1  0
 59 61  1  0
 60 66  1  0
 61 60  1  0
 62 61  2  0
 63 64  1  0
 63 57  2  0
 64 59  2  0
 65 58  1  0
 66 56  1  0
 68 70  2  0
 69 68  1  0
 71 69  1  0
 72 81  2  0
 72 77  1  0
 73 69  1  0
 73 77  1  0
 74 73  1  0
 75 76  1  0
 75 74  1  0
 76 72  1  0
 77 78  2  0
 78 79  1  0
 80 79  2  0
 81 80  1  0
 82 56  1  0
 82 87  1  0
 82 83  1  0
 83 86  1  1
 83 84  1  0
 85 83  1  0
 87 90  1  0
 88 87  1  0
 88 92  1  0
 89 88  2  0
 92 91  1  0
 92 94  1  0
 94 95  1  0
 94 93  1  0
M  ISO  4   7 100  15 100  54 101  55 101
M  END
>  <TORSDO>  (17) 
F 19

>  <SCORE>  (17) 
-10.535

>  <name>  (17) 
16

>  <ligand_id>  (17) 
16

>  <original_smiles>  (17) 
[H]c1c([H])c([H])c2c(c1[H])C([H])([H])C([H])([H])C([H])([H])C2([H])N([H])C(=O)C1([H])N(C(=O)C([H])(N([H])C(=O)C([H])(N([H])C([H])([H])[H])C([H])([H])[H])C(C([H])([H])[H])(C([H])([H])[H])C([H])([H])[H])C([H])([H])c2c([H])c(OC([H])([H])C(=O)N([H])c3c([H])c([H])c(N([H])C(=O)N4C([H])([H])C([H])([H])C([H])([H])C([H])(n5nc(-c6c([H])c([H])c(Oc7c([H])c([H])c(F)c([H])c7F)c([H])c6[H])c(C(=O)N([H])[H])c5N([H])[H])C4([H])[H])c([H])c3C(=O)N([H])[H])c([H])c([H])c2C1([H])[H]

>  <smiles>  (17) 
[H]c1c([H])c([H])c2c(c1[H])C([H])([H])C([H])([H])C([H])([H])C2([H])N([H])C(=O)C1([H])N(C(=O)C([H])(N([H])C(=O)C([H])(N([H])C([H])([H])[H])C([H])([H])[H])C(C([H])([H])[H])(C([H])([H])[H])C([H])([H])[H])C([H])([H])c2c([H])c(OC([H])([H])C(=O)N([H])c3c([H])c([H])c(N([H])C(=O)N4C([H])([H])C([H])([H])C([H])([H])C([H])(n5nc(-c6c([H])c([H])c(Oc7c([H])c([H])c(F)c([H])c7F)c([H])c6[H])c(C(=O)N([H])[H])c5N([H])[H])C4([H])[H])c([H])c3C(=O)N([H])[H])c([H])c([H])c2C1([H])[H]

$$$$
17:0:0
     RDKit          3D

 95103  0  0  1  0  0  0  0  0999 V2000
  -28.1040  -21.3030   19.6460 C   0  0  0  0  0  2  0  0  0  0  0  0
  -27.6700  -22.5500   17.6160 C   0  0  0  0  0  1  0  0  0  0  0  0
  -28.3430  -22.5640   18.9170 N   0  0  0  0  0  0  0  0  0  0  0  0
  -27.8350  -23.7400   19.6510 C   0  0  0  0  0  2  0  0  0  0  0  0
  -28.7350  -24.2180   20.8140 C   0  0  0  0  0  3  0  0  0  0  0  0
  -30.0100  -24.2660   20.4200 F   0  0  0  0  0  0  0  0  0  0  0  0
  -28.3250  -25.5910   21.4000 C   0  0  0  0  0  2  0  0  0  0  0  0
  -28.4000  -26.6610   20.4490 O   0  0  0  0  0  0  0  0  0  0  0  0
  -24.5650  -31.9300   23.3070 C   0  0  0  0  0  0  0  0  0  0  0  0
  -27.2580  -27.4180   20.4020 C   0  0  0  0  0  0  0  0  0  0  0  0
  -23.3880  -30.4880   21.6740 C   0  0  0  0  0  3  0  0  0  0  0  0
  -24.8690  -28.9130   20.3210 C   0  0  0  0  0  0  0  0  0  0  0  0
  -25.9150  -30.8410   21.5220 C   0  0  0  0  0  2  0  0  0  0  0  0
  -26.0140  -29.4540   20.9230 C   0  0  0  0  0  0  0  0  0  0  0  0
  -27.2150  -28.7140   20.9610 C   0  0  0  0  0  3  0  0  0  0  0  0
  -26.1030  -26.8850   19.7950 C   0  0  0  0  0  3  0  0  0  0  0  0
  -24.9080  -27.6250   19.7550 C   0  0  0  0  0  3  0  0  0  0  0  0
  -23.6240  -29.7720   20.3180 C   0  0  0  0  0  2  0  0  0  0  0  0
  -24.6400  -31.1010   22.2270 N   0  0  0  0  0  0  0  0  0  0  0  0
  -23.4730  -32.2190   23.8180 O   0  0  0  0  0  0  0  0  0  0  0  0
  -22.7120  -29.4950   22.6470 C   0  0  0  0  0  0  0  0  0  0  0  0
  -21.3960  -29.2910   22.4780 N   0  0  0  0  0  0  0  0  0  0  0  0
  -23.3720  -28.9060   23.5090 O   0  0  0  0  0  0  0  0  0  0  0  0
  -20.9260  -29.8130   21.7500 H   0  0  0  0  0  0  0  0  0  0  0  0
  -18.0220  -28.0650   22.8780 C   0  0  0  0  0  0  0  0  0  0  0  0
  -20.5610  -28.3740   23.2510 C   0  0  0  0  0  3  0  0  0  0  0  0
  -20.7120  -26.9230   22.7400 C   0  0  0  0  0  2  0  0  0  0  0  0
  -19.6610  -26.5410   21.6930 C   0  0  0  0  0  2  0  0  0  0  0  0
  -18.2490  -26.6910   22.2680 C   0  0  0  0  0  2  0  0  0  0  0  0
  -19.1100  -28.8600   23.3250 C   0  0  0  0  0  0  0  0  0  0  0  0
  -18.8490  -30.1430   23.8520 C   0  0  0  0  0  3  0  0  0  0  0  0
  -17.5330  -30.6330   23.9370 C   0  0  0  0  0  3  0  0  0  0  0  0
  -16.4580  -29.8350   23.5070 C   0  0  0  0  0  3  0  0  0  0  0  0
  -16.7030  -28.5520   22.9850 C   0  0  0  0  0  3  0  0  0  0  0  0
  -25.8430  -32.5690   23.9360 C   0  0  0  0  0  3  0  0  0  0  0  0
  -25.5320  -33.9740   24.2300 N   0  0  0  0  0  0  0  0  0  0  0  0
  -25.8880  -35.0070   23.4550 C   0  0  0  0  0  0  0  0  0  0  0  0
  -26.5830  -34.8790   22.4430 O   0  0  0  0  0  0  0  0  0  0  0  0
  -24.9190  -34.1470   25.0130 H   0  0  0  0  0  0  0  0  0  0  0  0
  -24.1820  -36.7970   23.0060 C   0  0  0  0  0  1  0  0  0  0  0  0
  -25.3940  -36.4060   23.8680 C   0  0  0  0  0  3  0  0  0  0  0  0
  -27.5050  -37.2940   24.7510 C   0  0  0  0  0  1  0  0  0  0  0  0
  -26.4360  -37.4510   23.7690 N   0  0  0  0  0  0  0  0  0  0  0  0
  -26.0300  -38.3750   23.8880 H   0  0  0  0  0  0  0  0  0  0  0  0
  -26.3360  -31.8210   25.2350 C   0  0  1  0  0  0  0  0  0  0  0  0
  -25.2170  -31.5960   26.2770 C   0  0  0  0  0  1  0  0  0  0  0  0
  -26.9390  -30.4420   24.8780 C   0  0  0  0  0  1  0  0  0  0  0  0
  -27.4650  -32.6330   25.9110 C   0  0  0  0  0  1  0  0  0  0  0  0
  -28.5520  -20.0210   18.8740 C   0  0  0  0  0  2  0  0  0  0  0  0
  -27.3590  -18.4530   20.3900 C   0  0  0  0  0  1  0  0  0  0  0  0
  -28.6360  -18.7810   19.7060 N   0  0  1  0  0  4  0  0  0  0  0  0
  -29.3110  -18.9690   20.4310 H   0  0  0  0  0  0  0  0  0  0  0  0
  -29.1640  -17.5960   18.9600 C   0  0  0  0  0  2  0  0  0  0  0  0
  -31.0340  -14.6040   19.6600 C   0  0  0  0  0  0  0  0  0  0  0  0
  -30.6190  -12.3980   18.6200 C   0  0  0  0  0  2  0  0  0  0  0  0
  -29.5960  -12.5440   17.4740 C   0  0  0  0  0  2  0  0  0  0  0  0
  -28.1510  -12.4460   18.0070 C   0  0  0  0  0  2  0  0  0  0  0  0
  -27.9100  -13.3390   19.2520 C   0  0  0  0  0  3  0  0  0  0  0  0
  -29.0380  -13.1320   20.2820 C   0  0  0  0  0  2  0  0  0  0  0  0
  -30.3210  -13.4370   19.6240 N   0  0  0  0  0  0  0  0  0  0  0  0
  -32.0970  -14.7230   19.0390 O   0  0  0  0  0  0  0  0  0  0  0  0
  -31.8780  -17.6230   21.5830 C   0  0  0  0  0  2  0  0  0  0  0  0
  -30.6260  -17.0910   22.2770 C   0  0  0  0  0  2  0  0  0  0  0  0
  -31.5460  -18.0100   20.1380 C   0  0  0  0  0  2  0  0  0  0  0  0
  -30.0740  -15.8300   21.5810 C   0  0  0  0  0  2  0  0  0  0  0  0
  -30.5420  -17.0370   19.4470 C   0  0  0  0  0  3  0  0  0  0  0  0
  -30.4040  -15.7190   20.1390 N   0  0  0  0  0  0  0  0  0  0  0  0
  -25.6010  -14.0170   20.1650 C   0  0  0  0  0  0  0  0  0  0  0  0
  -24.5460  -13.2770   20.6270 C   0  0  0  0  0  0  0  0  0  0  0  0
  -24.9600  -11.9120   20.5470 C   0  0  0  0  0  0  0  0  0  0  0  0
  -26.5930  -13.1050   19.8420 N   0  0  0  0  0  0  0  0  0  0  0  0
  -26.2150  -11.8320   20.1260 N   0  0  0  0  0  0  0  0  0  0  0  0
  -24.2120  -10.6720   20.7930 C   0  0  0  0  0  0  0  0  0  0  0  0
  -24.6510   -9.7190   21.7370 C   0  0  0  0  0  3  0  0  0  0  0  0
  -23.9080   -8.5420   21.9680 C   0  0  0  0  0  3  0  0  0  0  0  0
  -22.7080   -8.3100   21.2540 C   0  0  0  0  0  0  0  0  0  0  0  0
  -22.2870   -9.2500   20.2960 C   0  0  0  0  0  3  0  0  0  0  0  0
  -23.0320  -10.4180   20.0650 C   0  0  0  0  0  3  0  0  0  0  0  0
  -21.9330   -7.1840   21.3920 O   0  0  0  0  0  0  0  0  0  0  0  0
  -21.8500   -6.5110   22.5840 C   0  0  0  0  0  0  0  0  0  0  0  0
  -21.4170   -7.1450   23.7690 C   0  0  0  0  0  3  0  0  0  0  0  0
  -21.2790   -6.3990   24.9570 C   0  0  0  0  0  3  0  0  0  0  0  0
  -21.5630   -5.0190   24.9610 C   0  0  0  0  0  0  0  0  0  0  0  0
  -21.9880   -4.3860   23.7800 C   0  0  0  0  0  3  0  0  0  0  0  0
  -22.1280   -5.1280   22.5940 C   0  0  0  0  0  0  0  0  0  0  0  0
  -22.5170   -4.5080   21.4560 F   0  0  0  0  0  0  0  0  0  0  0  0
  -21.4210   -4.3010   26.0990 F   0  0  0  0  0  0  0  0  0  0  0  0
  -23.1920  -13.7950   21.0190 C   0  0  0  0  0  0  0  0  0  0  0  0
  -22.5310  -13.1350   21.9640 N   0  0  0  0  0  0  0  0  0  0  0  0
  -22.7330  -14.8220   20.5210 O   0  0  0  0  0  0  0  0  0  0  0  0
  -22.9150  -12.3050   22.3890 H   0  0  0  0  0  0  0  0  0  0  0  0
  -21.6260  -13.4670   22.2660 H   0  0  0  0  0  0  0  0  0  0  0  0
  -25.7890  -15.3810   19.9730 N   0  0  0  0  0  0  0  0  0  0  0  0
  -25.0180  -16.0310   20.0860 H   0  0  0  0  0  0  0  0  0  0  0  0
  -26.5580  -15.7620   19.4410 H   0  0  0  0  0  0  0  0  0  0  0  0
  2  3  1  0
  3  1  1  0
  3  4  1  0
  4  5  1  0
  5  6  1  0
  5  7  1  0
  8  7  1  0
  9 20  2  0
 10  8  1  0
 10 15  1  0
 11 19  1  0
 11 21  1  0
 12 14  1  0
 13 19  1  0
 14 15  2  0
 14 13  1  0
 16 10  2  0
 17 16  1  0
 17 12  2  0
 18 12  1  0
 18 11  1  0
 19  9  1  0
 21 23  2  0
 22 21  1  0
 24 22  1  0
 25 34  2  0
 25 30  1  0
 26 22  1  0
 26 30  1  0
 27 26  1  0
 28 29  1  0
 28 27  1  0
 29 25  1  0
 30 31  2  0
 31 32  1  0
 33 32  2  0
 34 33  1  0
 35  9  1  0
 35 36  1  0
 35 45  1  0
 36 39  1  0
 37 41  1  0
 37 36  1  0
 38 37  2  0
 41 40  1  0
 43 41  1  0
 43 44  1  0
 43 42  1  0
 45 48  1  1
 45 46  1  0
 47 45  1  0
 49  1  1  0
 49 51  1  0
 51 50  1  0
 51 52  1  1
 53 51  1  0
 54 67  1  0
 55 60  1  0
 56 57  1  0
 56 55  1  0
 58 57  1  0
 58 71  1  0
 58 59  1  0
 60 54  1  0
 60 59  1  0
 61 54  2  0
 62 63  1  0
 64 62  1  0
 65 63  1  0
 66 53  1  0
 66 64  1  0
 66 67  1  0
 67 65  1  0
 68 69  2  0
 69 88  1  0
 70 69  1  0
 70 73  1  0
 71 72  1  0
 71 68  1  0
 72 70  2  0
 73 74  1  0
 74 75  2  0
 76 79  1  0
 76 75  1  0
 77 76  2  0
 78 77  1  0
 78 73  2  0
 79 80  1  0
 80 85  2  0
 80 81  1  0
 81 82  2  0
 82 83  1  0
 83 87  1  0
 84 83  2  0
 85 84  1  0
 86 85  1  0
 88 89  1  0
 89 92  1  0
 89 91  1  0
 90 88  2  0
 93 94  1  0
 93 68  1  0
 95 93  1  0
M  ISO  4   7 101   8 101  54 100  67 100
M  END
>  <TORSDO>  (18) 
F 23

>  <SCORE>  (18) 
-12.039

>  <name>  (18) 
17

>  <ligand_id>  (18) 
17

>  <original_smiles>  (18) 
[H]c1c([H])c([H])c2c(c1[H])C([H])([H])C([H])([H])C([H])([H])C2([H])N([H])C(=O)C1([H])N(C(=O)C([H])(N([H])C(=O)C([H])(N([H])C([H])([H])[H])C([H])([H])[H])C(C([H])([H])[H])(C([H])([H])[H])C([H])([H])[H])C([H])([H])c2c([H])c(OC([H])([H])C([H])(F)C([H])([H])N(C([H])([H])[H])C([H])([H])C([H])([H])[N+]([H])(C([H])([H])[H])C([H])([H])C3([H])N(C(=O)N4C([H])([H])C([H])([H])C([H])([H])C([H])(n5nc(-c6c([H])c([H])c(Oc7c([H])c([H])c(F)c([H])c7F)c([H])c6[H])c(C(=O)N([H])[H])c5N([H])[H])C4([H])[H])C([H])([H])C([H])([H])C([H])([H])C3([H])[H])c([H])c([H])c2C1([H])[H]

>  <smiles>  (18) 
[H]c1c([H])c([H])c2c(c1[H])C([H])([H])C([H])([H])C([H])([H])C2([H])N([H])C(=O)C1([H])N(C(=O)C([H])(N([H])C(=O)C([H])(N([H])C([H])([H])[H])C([H])([H])[H])C(C([H])([H])[H])(C([H])([H])[H])C([H])([H])[H])C([H])([H])c2c([H])c(OC([H])([H])C([H])(F)C([H])([H])N(C([H])([H])[H])C([H])([H])C([H])([H])[N+]([H])(C([H])([H])[H])C([H])([H])C3([H])N(C(=O)N4C([H])([H])C([H])([H])C([H])([H])C([H])(n5nc(-c6c([H])c([H])c(Oc7c([H])c([H])c(F)c([H])c7F)c([H])c6[H])c(C(=O)N([H])[H])c5N([H])[H])C4([H])[H])C([H])([H])C([H])([H])C([H])([H])C3([H])[H])c([H])c([H])c2C1([H])[H]

$$$$
18:0:0
     RDKit          3D

 92100  0  0  1  0  0  0  0  0999 V2000
  -28.0310  -19.6610   20.3380 C   0  0  0  0  0  3  0  0  0  0  0  0
  -30.6020  -18.6690   20.1060 C   0  0  0  0  0  3  0  0  0  0  0  0
  -29.0090  -20.6930   20.1740 C   0  0  0  0  0  0  0  0  0  0  0  0
  -29.5950  -17.6490   20.2740 C   0  0  0  0  0  0  0  0  0  0  0  0
  -30.3300  -20.1130   20.0570 C   0  0  0  0  0  0  0  0  0  0  0  0
  -28.3020  -18.2440   20.3950 C   0  0  0  0  0  0  0  0  0  0  0  0
  -31.3790  -20.9460   19.8590 F   0  0  0  0  0  0  0  0  0  0  0  0
  -27.2520  -17.4060   20.5590 F   0  0  0  0  0  0  0  0  0  0  0  0
  -30.5220  -15.0280   20.0650 C   0  0  0  0  0  0  0  0  0  0  0  0
  -30.3930  -12.7010   19.0680 C   0  0  0  0  0  2  0  0  0  0  0  0
  -29.3880  -12.6940   17.8910 C   0  0  0  0  0  2  0  0  0  0  0  0
  -27.9500  -12.4730   18.3950 C   0  0  0  0  0  2  0  0  0  0  0  0
  -27.6050  -13.3660   19.6160 C   0  0  0  0  0  3  0  0  0  0  0  0
  -28.7190  -13.3210   20.6850 C   0  0  0  0  0  2  0  0  0  0  0  0
  -29.9650  -13.7520   20.0330 N   0  0  0  0  0  0  0  0  0  0  0  0
  -31.6930  -15.1620   19.6930 O   0  0  0  0  0  0  0  0  0  0  0  0
  -29.6680  -16.1170   20.3540 N   0  0  0  0  0  0  0  0  0  0  0  0
  -28.7700  -15.7510   20.6340 H   0  0  0  0  0  0  0  0  0  0  0  0
  -25.2610  -13.9300   20.4820 C   0  0  0  0  0  0  0  0  0  0  0  0
  -24.2130  -13.1460   20.8800 C   0  0  0  0  0  0  0  0  0  0  0  0
  -24.6750  -11.7970   20.7910 C   0  0  0  0  0  0  0  0  0  0  0  0
  -26.2910  -13.0580   20.1690 N   0  0  0  0  0  0  0  0  0  0  0  0
  -25.9500  -11.7680   20.4200 N   0  0  0  0  0  0  0  0  0  0  0  0
  -23.9550  -10.5310   20.9830 C   0  0  0  0  0  0  0  0  0  0  0  0
  -24.3980   -9.5610   21.9080 C   0  0  0  0  0  3  0  0  0  0  0  0
  -23.6750   -8.3610   22.0870 C   0  0  0  0  0  3  0  0  0  0  0  0
  -22.4960   -8.1240   21.3420 C   0  0  0  0  0  0  0  0  0  0  0  0
  -22.0730   -9.0840   20.4050 C   0  0  0  0  0  3  0  0  0  0  0  0
  -22.7950  -10.2750   20.2240 C   0  0  0  0  0  3  0  0  0  0  0  0
  -21.7460   -6.9780   21.4310 O   0  0  0  0  0  0  0  0  0  0  0  0
  -21.6630   -6.2600   22.5970 C   0  0  0  0  0  0  0  0  0  0  0  0
  -21.1410   -6.8230   23.7830 C   0  0  0  0  0  3  0  0  0  0  0  0
  -21.0100   -6.0300   24.9390 C   0  0  0  0  0  3  0  0  0  0  0  0
  -21.3900   -4.6750   24.9120 C   0  0  0  0  0  0  0  0  0  0  0  0
  -21.9050   -4.1120   23.7320 C   0  0  0  0  0  3  0  0  0  0  0  0
  -22.0390   -4.9020   22.5770 C   0  0  0  0  0  0  0  0  0  0  0  0
  -22.5160   -4.3490   21.4360 F   0  0  0  0  0  0  0  0  0  0  0  0
  -21.2570   -3.9110   26.0210 F   0  0  0  0  0  0  0  0  0  0  0  0
  -22.8320  -13.6190   21.2320 C   0  0  0  0  0  0  0  0  0  0  0  0
  -22.1490  -12.9060   22.1200 N   0  0  0  0  0  0  0  0  0  0  0  0
  -22.3710  -14.6560   20.7570 O   0  0  0  0  0  0  0  0  0  0  0  0
  -22.5340  -12.0670   22.5260 H   0  0  0  0  0  0  0  0  0  0  0  0
  -21.2250  -13.2060   22.3990 H   0  0  0  0  0  0  0  0  0  0  0  0
  -25.4080  -15.3040   20.3420 N   0  0  0  0  0  0  0  0  0  0  0  0
  -24.6510  -15.9410   20.5610 H   0  0  0  0  0  0  0  0  0  0  0  0
  -26.2620  -15.7950   20.1060 H   0  0  0  0  0  0  0  0  0  0  0  0
  -28.9570  -23.4760   20.2650 C   0  0  0  0  0  0  0  0  0  0  0  0
  -28.5250  -22.1460   20.0350 N   0  0  0  0  0  0  0  0  0  0  0  0
  -30.0770  -23.7000   20.7280 O   0  0  0  0  0  0  0  0  0  0  0  0
  -27.5650  -22.1770   19.7210 H   0  0  0  0  0  0  0  0  0  0  0  0
  -27.9750  -24.7670   19.9230 C   0  0  0  0  0  2  0  0  0  0  0  0
  -28.2780  -26.2520   20.2720 O   0  0  0  0  0  0  0  0  0  0  0  0
  -24.6370  -31.9150   23.2880 C   0  0  0  0  0  0  0  0  0  0  0  0
  -27.2220  -27.2360   20.2100 C   0  0  0  0  0  0  0  0  0  0  0  0
  -23.4360  -30.5280   21.6430 C   0  0  0  0  0  3  0  0  0  0  0  0
  -24.8850  -28.9700   20.2030 C   0  0  0  0  0  0  0  0  0  0  0  0
  -25.9900  -30.8020   21.4740 C   0  0  0  0  0  2  0  0  0  0  0  0
  -26.0660  -29.4150   20.8130 C   0  0  0  0  0  0  0  0  0  0  0  0
  -27.2330  -28.5640   20.8010 C   0  0  0  0  0  3  0  0  0  0  0  0
  -26.0140  -26.8980   19.5590 C   0  0  0  0  0  3  0  0  0  0  0  0
  -24.8720  -27.7250   19.5590 C   0  0  0  0  0  3  0  0  0  0  0  0
  -23.6540  -29.8600   20.2600 C   0  0  0  0  0  2  0  0  0  0  0  0
  -24.7080  -31.1010   22.1900 N   0  0  0  0  0  0  0  0  0  0  0  0
  -23.5510  -32.1940   23.8190 O   0  0  0  0  0  0  0  0  0  0  0  0
  -22.7620  -29.5130   22.6010 C   0  0  0  0  0  0  0  0  0  0  0  0
  -21.4370  -29.3280   22.4640 N   0  0  0  0  0  0  0  0  0  0  0  0
  -23.4350  -28.8940   23.4290 O   0  0  0  0  0  0  0  0  0  0  0  0
  -20.9510  -29.8790   21.7700 H   0  0  0  0  0  0  0  0  0  0  0  0
  -18.0610  -28.1060   22.9520 C   0  0  0  0  0  0  0  0  0  0  0  0
  -20.6180  -28.3840   23.2300 C   0  0  0  0  0  3  0  0  0  0  0  0
  -20.7310  -26.9530   22.6510 C   0  0  0  0  0  2  0  0  0  0  0  0
  -19.6340  -26.6260   21.6330 C   0  0  0  0  0  2  0  0  0  0  0  0
  -18.2490  -26.7600   22.2720 C   0  0  0  0  0  2  0  0  0  0  0  0
  -19.1730  -28.8750   23.3870 C   0  0  0  0  0  0  0  0  0  0  0  0
  -18.9420  -30.1330   23.9850 C   0  0  0  0  0  3  0  0  0  0  0  0
  -17.6330  -30.6230   24.1500 C   0  0  0  0  0  3  0  0  0  0  0  0
  -16.5360  -29.8520   23.7300 C   0  0  0  0  0  3  0  0  0  0  0  0
  -16.7500  -28.5950   23.1370 C   0  0  0  0  0  3  0  0  0  0  0  0
  -25.9160  -32.5500   23.9150 C   0  0  0  0  0  3  0  0  0  0  0  0
  -25.6080  -33.9510   24.2390 N   0  0  0  0  0  0  0  0  0  0  0  0
  -25.9220  -35.0000   23.4660 C   0  0  0  0  0  0  0  0  0  0  0  0
  -26.5680  -34.8890   22.4210 O   0  0  0  0  0  0  0  0  0  0  0  0
  -25.0340  -34.1110   25.0530 H   0  0  0  0  0  0  0  0  0  0  0  0
  -24.1770  -36.7850   23.1520 C   0  0  0  0  0  1  0  0  0  0  0  0
  -25.4460  -36.3930   23.9260 C   0  0  0  0  0  3  0  0  0  0  0  0
  -27.5970  -37.3030   24.6860 C   0  0  0  0  0  1  0  0  0  0  0  0
  -26.4710  -37.4480   23.7670 N   0  0  0  0  0  0  0  0  0  0  0  0
  -26.0640  -38.3690   23.9050 H   0  0  0  0  0  0  0  0  0  0  0  0
  -26.4170  -31.7860   25.2030 C   0  0  1  0  0  0  0  0  0  0  0  0
  -25.3120  -31.5570   26.2600 C   0  0  0  0  0  1  0  0  0  0  0  0
  -27.0030  -30.4050   24.8300 C   0  0  0  0  0  1  0  0  0  0  0  0
  -27.5610  -32.5830   25.8720 C   0  0  0  0  0  1  0  0  0  0  0  0
  1  6  1  0
  2  4  1  0
  3  1  2  0
  4 17  1  0
  4  6  2  0
  5  2  2  0
  5  3  1  0
  6  8  1  0
  7  5  1  0
  9 17  1  0
 10 15  1  0
 11 12  1  0
 11 10  1  0
 13 12  1  0
 13 22  1  0
 13 14  1  0
 15  9  1  0
 15 14  1  0
 16  9  2  0
 17 18  1  0
 19 20  2  0
 20 39  1  0
 21 20  1  0
 21 24  1  0
 22 23  1  0
 22 19  1  0
 23 21  2  0
 24 25  1  0
 25 26  2  0
 27 30  1  0
 27 26  1  0
 28 27  2  0
 29 28  1  0
 29 24  2  0
 30 31  1  0
 31 32  1  0
 32 33  2  0
 34 33  1  0
 34 38  1  0
 35 34  2  0
 36 31  2  0
 36 35  1  0
 37 36  1  0
 39 40  1  0
 40 43  1  0
 40 42  1  0
 41 39  2  0
 44 19  1  0
 44 45  1  0
 46 44  1  0
 47 49  2  0
 48  3  1  0
 48 47  1  0
 50 48  1  0
 51 47  1  0
 51 52  1  0
 53 64  2  0
 54 52  1  0
 54 59  1  0
 55 63  1  0
 55 65  1  0
 56 62  1  0
 56 58  1  0
 57 63  1  0
 58 57  1  0
 59 58  2  0
 60 54  2  0
 61 60  1  0
 61 56  2  0
 62 55  1  0
 63 53  1  0
 65 67  2  0
 66 65  1  0
 68 66  1  0
 69 78  2  0
 69 74  1  0
 70 66  1  0
 70 74  1  0
 71 70  1  0
 72 73  1  0
 72 71  1  0
 73 69  1  0
 74 75  2  0
 75 76  1  0
 77 76  2  0
 78 77  1  0
 79 53  1  0
 79 80  1  0
 79 89  1  0
 80 83  1  0
 81 85  1  0
 81 80  1  0
 82 81  2  0
 85 84  1  0
 87 88  1  0
 87 85  1  0
 87 86  1  0
 89 92  1  1
 89 90  1  0
 91 89  1  0
M  ISO  4   9 100  17 100  51 101  52 101
M  END
>  <TORSDO>  (19) 
F 18

>  <SCORE>  (19) 
-14.810

>  <name>  (19) 
18

>  <ligand_id>  (19) 
18

>  <original_smiles>  (19) 
[H]c1c([H])c([H])c2c(c1[H])C([H])([H])C([H])([H])C([H])([H])C2([H])N([H])C(=O)C1([H])N(C(=O)C([H])(N([H])C(=O)C([H])(N([H])C([H])([H])[H])C([H])([H])[H])C(C([H])([H])[H])(C([H])([H])[H])C([H])([H])[H])C([H])([H])c2c([H])c(OC([H])([H])C(=O)N([H])c3c([H])c(F)c(N([H])C(=O)N4C([H])([H])C([H])([H])C([H])([H])C([H])(n5nc(-c6c([H])c([H])c(Oc7c([H])c([H])c(F)c([H])c7F)c([H])c6[H])c(C(=O)N([H])[H])c5N([H])[H])C4([H])[H])c([H])c3F)c([H])c([H])c2C1([H])[H]

>  <smiles>  (19) 
[H]c1c([H])c([H])c2c(c1[H])C([H])([H])C([H])([H])C([H])([H])C2([H])N([H])C(=O)C1([H])N(C(=O)C([H])(N([H])C(=O)C([H])(N([H])C([H])([H])[H])C([H])([H])[H])C(C([H])([H])[H])(C([H])([H])[H])C([H])([H])[H])C([H])([H])c2c([H])c(OC([H])([H])C(=O)N([H])c3c([H])c(F)c(N([H])C(=O)N4C([H])([H])C([H])([H])C([H])([H])C([H])(n5nc(-c6c([H])c([H])c(Oc7c([H])c([H])c(F)c([H])c7F)c([H])c6[H])c(C(=O)N([H])[H])c5N([H])[H])C4([H])[H])c([H])c3F)c([H])c([H])c2C1([H])[H]

$$$$
19:0:0
     RDKit          3D

 96104  0  0  1  0  0  0  0  0999 V2000
  -28.4720  -20.8980   19.7060 C   0  0  0  0  0  0  0  0  0  0  0  0
  -29.1430  -19.8680   20.2360 N   0  0  0  0  0  0  0  0  0  0  0  0
  -28.2090  -20.9680   18.5030 O   0  0  0  0  0  0  0  0  0  0  0  0
  -29.3330  -19.8880   21.2290 H   0  0  0  0  0  0  0  0  0  0  0  0
  -29.6740  -18.7260   19.4990 C   0  0  0  0  0  2  0  0  0  0  0  0
  -30.3760  -16.7480   22.7150 C   0  0  0  0  0  3  0  0  0  0  0  0
  -29.8280  -17.6850   21.8160 C   0  0  0  0  0  3  0  0  0  0  0  0
  -31.2890  -15.7830   22.2530 C   0  0  0  0  0  3  0  0  0  0  0  0
  -31.0740  -16.6640   19.9860 C   0  0  0  0  0  3  0  0  0  0  0  0
  -30.1910  -17.6600   20.4520 C   0  0  0  0  0  0  0  0  0  0  0  0
  -31.6240  -15.7250   20.8850 C   0  0  0  0  0  0  0  0  0  0  0  0
  -32.4830  -14.0700   19.3050 C   0  0  0  0  0  0  0  0  0  0  0  0
  -31.6240  -12.0450   18.1960 C   0  0  0  0  0  2  0  0  0  0  0  0
  -30.5330  -12.3220   17.1490 C   0  0  0  0  0  2  0  0  0  0  0  0
  -29.1430  -12.3790   17.8090 C   0  0  0  0  0  2  0  0  0  0  0  0
  -29.1170  -13.3150   19.0460 C   0  0  0  0  0  3  0  0  0  0  0  0
  -30.2910  -12.9850   19.9960 C   0  0  0  0  0  2  0  0  0  0  0  0
  -31.5540  -13.0780   19.2390 N   0  0  0  0  0  0  0  0  0  0  0  0
  -33.3510  -14.2460   18.4450 O   0  0  0  0  0  0  0  0  0  0  0  0
  -32.5540  -14.7520   20.4530 N   0  0  0  0  0  0  0  0  0  0  0  0
  -33.5040  -15.0320   20.6470 H   0  0  0  0  0  0  0  0  0  0  0  0
  -27.0280  -14.2730   20.2110 C   0  0  0  0  0  0  0  0  0  0  0  0
  -25.9010  -13.6730   20.7060 C   0  0  0  0  0  0  0  0  0  0  0  0
  -26.0780  -12.2710   20.4970 C   0  0  0  0  0  0  0  0  0  0  0  0
  -27.8300  -13.2470   19.7360 N   0  0  0  0  0  0  0  0  0  0  0  0
  -27.2670  -12.0310   19.9610 N   0  0  0  0  0  0  0  0  0  0  0  0
  -25.1590  -11.1460   20.7220 C   0  0  0  0  0  0  0  0  0  0  0  0
  -25.4620  -10.1170   21.6420 C   0  0  0  0  0  3  0  0  0  0  0  0
  -24.5560   -9.0550   21.8540 C   0  0  0  0  0  3  0  0  0  0  0  0
  -23.3320   -9.0170   21.1470 C   0  0  0  0  0  0  0  0  0  0  0  0
  -23.0430  -10.0310   20.2170 C   0  0  0  0  0  3  0  0  0  0  0  0
  -23.9480  -11.0840   20.0020 C   0  0  0  0  0  3  0  0  0  0  0  0
  -22.4020   -8.0120   21.2690 O   0  0  0  0  0  0  0  0  0  0  0  0
  -22.1380   -7.4180   22.4780 C   0  0  0  0  0  0  0  0  0  0  0  0
  -21.7110   -8.1640   23.5980 C   0  0  0  0  0  3  0  0  0  0  0  0
  -21.3850   -7.5040   24.8010 C   0  0  0  0  0  3  0  0  0  0  0  0
  -21.4780   -6.1020   24.8800 C   0  0  0  0  0  0  0  0  0  0  0  0
  -21.8980   -5.3580   23.7650 C   0  0  0  0  0  3  0  0  0  0  0  0
  -22.2250   -6.0140   22.5670 C   0  0  0  0  0  0  0  0  0  0  0  0
  -22.6100   -5.2910   21.4870 F   0  0  0  0  0  0  0  0  0  0  0  0
  -21.1570   -5.4670   26.0320 F   0  0  0  0  0  0  0  0  0  0  0  0
  -24.6870  -14.3640   21.2560 C   0  0  0  0  0  0  0  0  0  0  0  0
  -23.9950  -13.7320   22.1990 N   0  0  0  0  0  0  0  0  0  0  0  0
  -24.3680  -15.4920   20.8860 O   0  0  0  0  0  0  0  0  0  0  0  0
  -24.2670  -12.8180   22.5260 H   0  0  0  0  0  0  0  0  0  0  0  0
  -23.1840  -14.1770   22.6050 H   0  0  0  0  0  0  0  0  0  0  0  0
  -27.4250  -15.6000   20.1050 N   0  0  0  0  0  0  0  0  0  0  0  0
  -26.8510  -16.3620   20.4450 H   0  0  0  0  0  0  0  0  0  0  0  0
  -28.3210  -15.9020   19.7440 H   0  0  0  0  0  0  0  0  0  0  0  0
  -28.0240  -22.0040   20.6750 C   0  0  0  0  0  2  0  0  0  0  0  0
  -28.7850  -24.2720   19.9460 C   0  0  0  0  0  0  0  0  0  0  0  0
  -27.8650  -23.2990   20.0000 N   0  0  0  0  0  0  0  0  0  0  0  0
  -29.8390  -24.2150   20.5850 O   0  0  0  0  0  0  0  0  0  0  0  0
  -27.0300  -23.4100   19.4410 H   0  0  0  0  0  0  0  0  0  0  0  0
  -28.5050  -25.4850   19.0440 C   0  0  0  0  0  2  0  0  0  0  0  0
  -28.2950  -26.6580   19.8410 O   0  0  0  0  0  0  0  0  0  0  0  0
  -24.5130  -31.7140   23.0780 C   0  0  0  0  0  0  0  0  0  0  0  0
  -27.0840  -27.3230   19.8580 C   0  0  0  0  0  0  0  0  0  0  0  0
  -23.2720  -30.3550   21.4250 C   0  0  0  0  0  3  0  0  0  0  0  0
  -24.6910  -28.8360   19.9510 C   0  0  0  0  0  0  0  0  0  0  0  0
  -25.7940  -30.7040   21.1910 C   0  0  0  0  0  2  0  0  0  0  0  0
  -25.8590  -29.3430   20.5300 C   0  0  0  0  0  0  0  0  0  0  0  0
  -27.0540  -28.5920   20.4820 C   0  0  0  0  0  3  0  0  0  0  0  0
  -25.8890  -26.8230   19.2890 C   0  0  0  0  0  3  0  0  0  0  0  0
  -24.7010  -27.5800   19.3230 C   0  0  0  0  0  3  0  0  0  0  0  0
  -23.4530  -29.7000   20.0310 C   0  0  0  0  0  2  0  0  0  0  0  0
  -24.5460  -30.9370   21.9580 N   0  0  0  0  0  0  0  0  0  0  0  0
  -23.4400  -31.9840   23.6380 O   0  0  0  0  0  0  0  0  0  0  0  0
  -22.6270  -29.3190   22.3750 C   0  0  0  0  0  0  0  0  0  0  0  0
  -21.3090  -29.1130   22.2250 N   0  0  0  0  0  0  0  0  0  0  0  0
  -23.3100  -28.7040   23.1960 O   0  0  0  0  0  0  0  0  0  0  0  0
  -20.8210  -29.6650   21.5340 H   0  0  0  0  0  0  0  0  0  0  0  0
  -17.9440  -27.8870   22.6900 C   0  0  0  0  0  0  0  0  0  0  0  0
  -20.4980  -28.1600   22.9810 C   0  0  0  0  0  3  0  0  0  0  0  0
  -20.6140  -26.7380   22.3820 C   0  0  0  0  0  2  0  0  0  0  0  0
  -19.5210  -26.4230   21.3560 C   0  0  0  0  0  2  0  0  0  0  0  0
  -18.1350  -26.5490   21.9960 C   0  0  0  0  0  2  0  0  0  0  0  0
  -19.0540  -28.6510   23.1370 C   0  0  0  0  0  0  0  0  0  0  0  0
  -18.8220  -29.9040   23.7430 C   0  0  0  0  0  3  0  0  0  0  0  0
  -17.5140  -30.3930   23.9090 C   0  0  0  0  0  3  0  0  0  0  0  0
  -16.4170  -29.6270   23.4770 C   0  0  0  0  0  3  0  0  0  0  0  0
  -16.6320  -28.3750   22.8730 C   0  0  0  0  0  3  0  0  0  0  0  0
  -25.8110  -32.3210   23.6940 C   0  0  0  0  0  3  0  0  0  0  0  0
  -25.5110  -33.7040   24.0870 N   0  0  0  0  0  0  0  0  0  0  0  0
  -25.8750  -34.7880   23.3890 C   0  0  0  0  0  0  0  0  0  0  0  0
  -26.5730  -34.7270   22.3730 O   0  0  0  0  0  0  0  0  0  0  0  0
  -24.8930  -33.8250   24.8750 H   0  0  0  0  0  0  0  0  0  0  0  0
  -24.1970  -36.6310   23.0570 C   0  0  0  0  0  1  0  0  0  0  0  0
  -25.3920  -36.1570   23.9020 C   0  0  0  0  0  3  0  0  0  0  0  0
  -27.5000  -36.9460   24.8820 C   0  0  0  0  0  1  0  0  0  0  0  0
  -26.4480  -37.1940   23.8990 N   0  0  0  0  0  0  0  0  0  0  0  0
  -26.0530  -38.1110   24.0840 H   0  0  0  0  0  0  0  0  0  0  0  0
  -26.3570  -31.4980   24.9230 C   0  0  1  0  0  0  0  0  0  0  0  0
  -25.2760  -31.1780   25.9810 C   0  0  0  0  0  1  0  0  0  0  0  0
  -26.9710  -30.1590   24.4500 C   0  0  0  0  0  1  0  0  0  0  0  0
  -27.4970  -32.2830   25.6150 C   0  0  0  0  0  1  0  0  0  0  0  0
  1  2  1  0
  1 50  1  0
  2  4  1  0
  3  1  2  0
  5  2  1  0
  5 10  1  0
  7  6  2  0
  8  6  1  0
  9 10  2  0
  9 11  1  0
 10  7  1  0
 11  8  2  0
 12 20  1  0
 13 18  1  0
 14 15  1  0
 14 13  1  0
 16 15  1  0
 16 25  1  0
 16 17  1  0
 18 12  1  0
 18 17  1  0
 19 12  2  0
 20 21  1  0
 20 11  1  0
 22 23  2  0
 23 42  1  0
 24 23  1  0
 24 27  1  0
 25 26  1  0
 25 22  1  0
 26 24  2  0
 27 28  1  0
 28 29  2  0
 30 33  1  0
 30 29  1  0
 31 30  2  0
 32 31  1  0
 32 27  2  0
 33 34  1  0
 34 39  2  0
 34 35  1  0
 35 36  2  0
 36 37  1  0
 37 41  1  0
 38 37  2  0
 39 38  1  0
 40 39  1  0
 42 43  1  0
 43 45  1  0
 43 46  1  0
 44 42  2  0
 47 22  1  0
 47 48  1  0
 49 47  1  0
 51 52  1  0
 51 53  2  0
 52 50  1  0
 54 52  1  0
 55 56  1  0
 55 51  1  0
 56 58  1  0
 57 68  2  0
 58 63  1  0
 59 67  1  0
 59 69  1  0
 60 66  1  0
 60 62  1  0
 61 67  1  0
 62 61  1  0
 63 62  2  0
 64 65  1  0
 64 58  2  0
 65 60  2  0
 66 59  1  0
 67 57  1  0
 69 71  2  0
 70 69  1  0
 72 70  1  0
 73 82  2  0
 73 78  1  0
 74 70  1  0
 74 78  1  0
 75 74  1  0
 76 77  1  0
 76 75  1  0
 77 73  1  0
 78 79  2  0
 79 80  1  0
 81 80  2  0
 82 81  1  0
 83 57  1  0
 83 84  1  0
 83 93  1  0
 84 87  1  0
 85 89  1  0
 85 84  1  0
 86 85  2  0
 89 88  1  0
 91 89  1  0
 91 92  1  0
 91 90  1  0
 93 96  1  1
 93 94  1  0
 95 93  1  0
M  ISO  4  12 100  20 100  55 101  56 101
M  END
>  <TORSDO>  (20) 
F 21

>  <SCORE>  (20) 
-9.940

>  <name>  (20) 
19

>  <ligand_id>  (20) 
19

>  <original_smiles>  (20) 
[H]c1c([H])c(N([H])C(=O)N2C([H])([H])C([H])([H])C([H])([H])C([H])(n3nc(-c4c([H])c([H])c(Oc5c([H])c([H])c(F)c([H])c5F)c([H])c4[H])c(C(=O)N([H])[H])c3N([H])[H])C2([H])[H])c([H])c(C([H])([H])N([H])C(=O)C([H])([H])N([H])C(=O)C([H])([H])Oc2c([H])c([H])c3c(c2[H])C([H])([H])N(C(=O)C([H])(N([H])C(=O)C([H])(N([H])C([H])([H])[H])C([H])([H])[H])C(C([H])([H])[H])(C([H])([H])[H])C([H])([H])[H])C([H])(C(=O)N([H])C2([H])c4c([H])c([H])c([H])c([H])c4C([H])([H])C([H])([H])C2([H])[H])C3([H])[H])c1[H]

>  <smiles>  (20) 
[H]c1c([H])c(N([H])C(=O)N2C([H])([H])C([H])([H])C([H])([H])C([H])(n3nc(-c4c([H])c([H])c(Oc5c([H])c([H])c(F)c([H])c5F)c([H])c4[H])c(C(=O)N([H])[H])c3N([H])[H])C2([H])[H])c([H])c(C([H])([H])N([H])C(=O)C([H])([H])N([H])C(=O)C([H])([H])Oc2c([H])c([H])c3c(c2[H])C([H])([H])N(C(=O)C([H])(N([H])C(=O)C([H])(N([H])C([H])([H])[H])C([H])([H])[H])C(C([H])([H])[H])(C([H])([H])[H])C([H])([H])[H])C([H])(C(=O)N([H])C2([H])c4c([H])c([H])c([H])c([H])c4C([H])([H])C([H])([H])C2([H])[H])C3([H])[H])c1[H]

$$$$
20:0:0
     RDKit          3D

 93101  0  0  1  0  0  0  0  0999 V2000
  -27.6670  -22.0610   20.3300 C   0  0  0  0  0  1  0  0  0  0  0  0
  -29.0570  -22.5860   20.3990 N   0  0  2  0  0  4  0  0  0  0  0  0
  -29.2680  -22.6400   21.3860 H   0  0  0  0  0  0  0  0  0  0  0  0
  -30.6780  -24.5010   19.9080 C   0  0  0  0  0  1  0  0  0  0  0  0
  -29.2050  -24.0230   19.8500 C   0  0  0  0  0  3  0  0  0  0  0  0
  -28.2790  -25.1520   20.5110 C   0  0  0  0  0  2  0  0  0  0  0  0
  -28.4330  -26.5560   20.0730 O   0  0  0  0  0  0  0  0  0  0  0  0
  -24.6280  -31.8530   23.1730 C   0  0  0  0  0  0  0  0  0  0  0  0
  -27.2950  -27.3700   20.0750 C   0  0  0  0  0  0  0  0  0  0  0  0
  -23.4420  -30.4710   21.5050 C   0  0  0  0  0  3  0  0  0  0  0  0
  -24.9100  -28.9430   20.0780 C   0  0  0  0  0  0  0  0  0  0  0  0
  -25.9800  -30.8140   21.3410 C   0  0  0  0  0  2  0  0  0  0  0  0
  -26.0710  -29.4450   20.6790 C   0  0  0  0  0  0  0  0  0  0  0  0
  -27.2670  -28.6700   20.6670 C   0  0  0  0  0  3  0  0  0  0  0  0
  -26.1150  -26.9210   19.4450 C   0  0  0  0  0  3  0  0  0  0  0  0
  -24.9310  -27.6870   19.4530 C   0  0  0  0  0  3  0  0  0  0  0  0
  -23.6700  -29.8120   20.1190 C   0  0  0  0  0  2  0  0  0  0  0  0
  -24.7020  -31.0610   22.0660 N   0  0  0  0  0  0  0  0  0  0  0  0
  -23.5390  -32.1190   23.7030 O   0  0  0  0  0  0  0  0  0  0  0  0
  -22.7760  -29.4410   22.4470 C   0  0  0  0  0  0  0  0  0  0  0  0
  -21.4490  -29.2720   22.3160 N   0  0  0  0  0  0  0  0  0  0  0  0
  -23.4530  -28.8010   23.2540 O   0  0  0  0  0  0  0  0  0  0  0  0
  -20.9660  -29.8420   21.6370 H   0  0  0  0  0  0  0  0  0  0  0  0
  -18.0630  -28.0850   22.7840 C   0  0  0  0  0  0  0  0  0  0  0  0
  -20.6230  -28.3260   23.0680 C   0  0  0  0  0  3  0  0  0  0  0  0
  -20.7200  -26.9040   22.4680 C   0  0  0  0  0  2  0  0  0  0  0  0
  -19.6180  -26.6060   21.4450 C   0  0  0  0  0  2  0  0  0  0  0  0
  -18.2340  -26.7470   22.0870 C   0  0  0  0  0  2  0  0  0  0  0  0
  -19.1850  -28.8330   23.2290 C   0  0  0  0  0  0  0  0  0  0  0  0
  -18.9710  -30.0880   23.8410 C   0  0  0  0  0  3  0  0  0  0  0  0
  -17.6680  -30.5930   24.0130 C   0  0  0  0  0  3  0  0  0  0  0  0
  -16.5600  -29.8400   23.5820 C   0  0  0  0  0  3  0  0  0  0  0  0
  -16.7590  -28.5880   22.9720 C   0  0  0  0  0  3  0  0  0  0  0  0
  -25.9060  -32.4790   23.8120 C   0  0  0  0  0  3  0  0  0  0  0  0
  -26.4070  -31.6970   25.0880 C   0  0  1  0  0  0  0  0  0  0  0  0
  -25.3040  -31.4520   26.1430 C   0  0  0  0  0  1  0  0  0  0  0  0
  -26.9940  -30.3230   24.6890 C   0  0  0  0  0  1  0  0  0  0  0  0
  -27.5510  -32.4840   25.7700 C   0  0  0  0  0  1  0  0  0  0  0  0
  -25.5930  -33.8730   24.1560 N   0  0  0  0  0  0  0  0  0  0  0  0
  -25.9300  -34.9340   23.4110 C   0  0  0  0  0  0  0  0  0  0  0  0
  -26.6070  -34.8420   22.3840 O   0  0  0  0  0  0  0  0  0  0  0  0
  -24.9920  -34.0160   24.9540 H   0  0  0  0  0  0  0  0  0  0  0  0
  -24.2020  -36.7280   23.0630 C   0  0  0  0  0  1  0  0  0  0  0  0
  -25.4370  -36.3170   23.8810 C   0  0  0  0  0  3  0  0  0  0  0  0
  -27.5640  -37.1940   24.7380 C   0  0  0  0  0  1  0  0  0  0  0  0
  -26.4680  -37.3740   23.7880 N   0  0  0  0  0  0  0  0  0  0  0  0
  -26.0600  -38.2910   23.9450 H   0  0  0  0  0  0  0  0  0  0  0  0
  -30.0520  -21.5730   19.8390 C   0  0  0  0  0  2  0  0  0  0  0  0
  -29.5320  -19.3950   21.2790 C   0  0  0  0  0  3  0  0  0  0  0  0
  -29.5450  -17.9770   21.4330 C   0  0  0  0  0  3  0  0  0  0  0  0
  -30.4860  -17.7270   19.2350 C   0  0  0  0  0  3  0  0  0  0  0  0
  -29.9610  -20.0160   20.0770 C   0  0  0  0  0  0  0  0  0  0  0  0
  -30.0330  -17.1010   20.4240 C   0  0  0  0  0  0  0  0  0  0  0  0
  -30.4460  -19.1400   19.0670 C   0  0  0  0  0  0  0  0  0  0  0  0
  -30.9170  -19.6620   17.9090 F   0  0  0  0  0  0  0  0  0  0  0  0
  -30.6800  -14.6350   20.0470 C   0  0  0  0  0  0  0  0  0  0  0  0
  -30.4040  -12.4370   18.9350 C   0  0  0  0  0  2  0  0  0  0  0  0
  -29.4000  -12.6140   17.7750 C   0  0  0  0  0  2  0  0  0  0  0  0
  -27.9480  -12.4470   18.2710 C   0  0  0  0  0  2  0  0  0  0  0  0
  -27.6590  -13.2730   19.5540 C   0  0  0  0  0  3  0  0  0  0  0  0
  -28.7710  -13.0690   20.6100 C   0  0  0  0  0  2  0  0  0  0  0  0
  -30.0550  -13.4190   19.9810 N   0  0  0  0  0  0  0  0  0  0  0  0
  -31.7860  -14.8200   19.5290 O   0  0  0  0  0  0  0  0  0  0  0  0
  -29.9700  -15.6550   20.6200 N   0  0  0  0  0  0  0  0  0  0  0  0
  -29.1950  -15.3360   21.1820 H   0  0  0  0  0  0  0  0  0  0  0  0
  -25.3010  -13.8590   20.4000 C   0  0  0  0  0  0  0  0  0  0  0  0
  -24.2540  -13.0810   20.8110 C   0  0  0  0  0  0  0  0  0  0  0  0
  -24.7120  -11.7300   20.7340 C   0  0  0  0  0  0  0  0  0  0  0  0
  -26.3340  -12.9840   20.0990 N   0  0  0  0  0  0  0  0  0  0  0  0
  -25.9850  -11.6960   20.3570 N   0  0  0  0  0  0  0  0  0  0  0  0
  -23.9960  -10.4660   20.9420 C   0  0  0  0  0  0  0  0  0  0  0  0
  -24.4490   -9.5050   21.8720 C   0  0  0  0  0  3  0  0  0  0  0  0
  -23.7350   -8.3020   22.0680 C   0  0  0  0  0  3  0  0  0  0  0  0
  -22.5510   -8.0530   21.3350 C   0  0  0  0  0  0  0  0  0  0  0  0
  -22.1160   -9.0030   20.3940 C   0  0  0  0  0  3  0  0  0  0  0  0
  -22.8310  -10.1960   20.1970 C   0  0  0  0  0  3  0  0  0  0  0  0
  -21.8040   -6.9030   21.4380 O   0  0  0  0  0  0  0  0  0  0  0  0
  -21.7460   -6.1880   22.6090 C   0  0  0  0  0  0  0  0  0  0  0  0
  -21.3030   -6.7670   23.8170 C   0  0  0  0  0  3  0  0  0  0  0  0
  -21.1950   -5.9770   24.9780 C   0  0  0  0  0  3  0  0  0  0  0  0
  -21.5150   -4.6080   24.9310 C   0  0  0  0  0  0  0  0  0  0  0  0
  -21.9540   -4.0270   23.7270 C   0  0  0  0  0  3  0  0  0  0  0  0
  -22.0650   -4.8150   22.5680 C   0  0  0  0  0  0  0  0  0  0  0  0
  -22.4670   -4.2470   21.4070 F   0  0  0  0  0  0  0  0  0  0  0  0
  -21.4040   -3.8480   26.0460 F   0  0  0  0  0  0  0  0  0  0  0  0
  -22.8710  -13.5530   21.1600 C   0  0  0  0  0  0  0  0  0  0  0  0
  -22.1860  -12.8460   22.0510 N   0  0  0  0  0  0  0  0  0  0  0  0
  -22.4080  -14.5880   20.6770 O   0  0  0  0  0  0  0  0  0  0  0  0
  -22.5740  -12.0150   22.4740 H   0  0  0  0  0  0  0  0  0  0  0  0
  -21.2600  -13.1470   22.3210 H   0  0  0  0  0  0  0  0  0  0  0  0
  -25.4560  -15.2310   20.2380 N   0  0  0  0  0  0  0  0  0  0  0  0
  -24.6920  -15.8800   20.3930 H   0  0  0  0  0  0  0  0  0  0  0  0
  -26.2950  -15.6850   19.8980 H   0  0  0  0  0  0  0  0  0  0  0  0
  1  2  1  0
  2  3  1  1
  5  4  1  0
  5  2  1  0
  5  6  1  0
  7  9  1  0
  7  6  1  0
  8 19  2  0
  9 14  1  0
 10 18  1  0
 10 20  1  0
 11 17  1  0
 11 13  1  0
 12 18  1  0
 13 12  1  0
 14 13  2  0
 15 16  1  0
 15  9  2  0
 16 11  2  0
 17 10  1  0
 18  8  1  0
 20 22  2  0
 21 20  1  0
 23 21  1  0
 24 33  2  0
 24 29  1  0
 25 21  1  0
 25 29  1  0
 26 25  1  0
 27 28  1  0
 27 26  1  0
 28 24  1  0
 29 30  2  0
 30 31  1  0
 32 31  2  0
 33 32  1  0
 34  8  1  0
 34 39  1  0
 34 35  1  0
 35 38  1  1
 35 36  1  0
 37 35  1  0
 39 42  1  0
 40 44  1  0
 40 39  1  0
 41 40  2  0
 44 43  1  0
 46 44  1  0
 46 47  1  0
 46 45  1  0
 48 52  1  0
 48  2  1  0
 49 50  1  0
 51 53  1  0
 52 49  2  0
 53 64  1  0
 53 50  2  0
 54 51  2  0
 54 52  1  0
 55 54  1  0
 56 64  1  0
 57 62  1  0
 58 59  1  0
 58 57  1  0
 60 59  1  0
 60 69  1  0
 60 61  1  0
 62 56  1  0
 62 61  1  0
 63 56  2  0
 64 65  1  0
 66 67  2  0
 67 86  1  0
 68 67  1  0
 68 71  1  0
 69 70  1  0
 69 66  1  0
 70 68  2  0
 71 72  1  0
 72 73  2  0
 74 77  1  0
 74 73  1  0
 75 74  2  0
 76 75  1  0
 76 71  2  0
 77 78  1  0
 78 79  1  0
 79 80  2  0
 81 80  1  0
 81 85  1  0
 82 81  2  0
 83 78  2  0
 83 82  1  0
 84 83  1  0
 86 87  1  0
 87 90  1  0
 87 89  1  0
 88 86  2  0
 91 92  1  0
 91 66  1  0
 93 91  1  0
M  ISO  4   6 101   7 101  56 100  64 100
M  END
>  <TORSDO>  (21) 
F 20

>  <SCORE>  (21) 
-13.277

>  <name>  (21) 
20

>  <ligand_id>  (21) 
20

>  <original_smiles>  (21) 
[H]c1c([H])c([H])c2c(c1[H])C([H])([H])C([H])([H])C([H])([H])C2([H])N([H])C(=O)C1([H])N(C(=O)C([H])(N([H])C(=O)C([H])(N([H])C([H])([H])[H])C([H])([H])[H])C(C([H])([H])[H])(C([H])([H])[H])C([H])([H])[H])C([H])([H])c2c([H])c(OC([H])([H])C([H])(C([H])([H])[H])[N+]([H])(C([H])([H])[H])C([H])([H])c3c([H])c([H])c(N([H])C(=O)N4C([H])([H])C([H])([H])C([H])([H])C([H])(n5nc(-c6c([H])c([H])c(Oc7c([H])c([H])c(F)c([H])c7F)c([H])c6[H])c(C(=O)N([H])[H])c5N([H])[H])C4([H])[H])c([H])c3F)c([H])c([H])c2C1([H])[H]

>  <smiles>  (21) 
[H]c1c([H])c([H])c2c(c1[H])C([H])([H])C([H])([H])C([H])([H])C2([H])N([H])C(=O)C1([H])N(C(=O)C([H])(N([H])C(=O)C([H])(N([H])C([H])([H])[H])C([H])([H])[H])C(C([H])([H])[H])(C([H])([H])[H])C([H])([H])[H])C([H])([H])c2c([H])c(OC([H])([H])C([H])(C([H])([H])[H])[N+]([H])(C([H])([H])[H])C([H])([H])c3c([H])c([H])c(N([H])C(=O)N4C([H])([H])C([H])([H])C([H])([H])C([H])(n5nc(-c6c([H])c([H])c(Oc7c([H])c([H])c(F)c([H])c7F)c([H])c6[H])c(C(=O)N([H])[H])c5N([H])[H])C4([H])[H])c([H])c3F)c([H])c([H])c2C1([H])[H]

$$$$
21:0:0
     RDKit          3D

 93101  0  0  1  0  0  0  0  0999 V2000
  -28.3770  -24.2040   22.0990 C   0  0  0  0  0  1  0  0  0  0  0  0
  -27.9740  -24.0270   20.6240 C   0  0  2  0  0  0  0  0  0  0  0  0
  -27.9000  -21.1400   19.7090 C   0  0  0  0  0  3  0  0  0  0  0  0
  -28.2210  -19.6540   19.6680 C   0  0  0  0  0  3  0  0  0  0  0  0
  -30.2120  -20.0550   20.5620 C   0  0  0  0  0  3  0  0  0  0  0  0
  -28.6500  -22.3180   20.2280 C   0  0  0  0  0  0  0  0  0  0  0  0
  -29.4140  -18.8770   20.0980 C   0  0  0  0  0  0  0  0  0  0  0  0
  -29.8790  -21.5580   20.6410 C   0  0  0  0  0  0  0  0  0  0  0  0
  -30.8460  -22.3130   21.2180 F   0  0  0  0  0  0  0  0  0  0  0  0
  -30.4070  -15.8670   20.0040 C   0  0  0  0  0  0  0  0  0  0  0  0
  -30.5090  -13.3490   19.1280 C   0  0  0  0  0  2  0  0  0  0  0  0
  -29.5550  -12.9710   17.9560 C   0  0  0  0  0  2  0  0  0  0  0  0
  -28.1520  -12.6140   18.4700 C   0  0  0  0  0  2  0  0  0  0  0  0
  -27.6930  -13.5820   19.5850 C   0  0  0  0  0  3  0  0  0  0  0  0
  -28.7820  -13.8540   20.6500 C   0  0  0  0  0  2  0  0  0  0  0  0
  -29.9160  -14.4940   19.9450 N   0  0  0  0  0  0  0  0  0  0  0  0
  -31.6350  -15.8610   19.7870 O   0  0  0  0  0  0  0  0  0  0  0  0
  -29.5580  -17.1600   20.0880 N   0  0  0  0  0  0  0  0  0  0  0  0
  -28.6200  -16.7910   20.1220 H   0  0  0  0  0  0  0  0  0  0  0  0
  -25.3660  -14.0680   20.4820 C   0  0  0  0  0  0  0  0  0  0  0  0
  -24.3340  -13.2670   20.8790 C   0  0  0  0  0  0  0  0  0  0  0  0
  -24.8160  -11.9250   20.7830 C   0  0  0  0  0  0  0  0  0  0  0  0
  -26.4050  -13.2180   20.1600 N   0  0  0  0  0  0  0  0  0  0  0  0
  -26.0930  -11.9200   20.4090 N   0  0  0  0  0  0  0  0  0  0  0  0
  -24.1100  -10.6490   20.9690 C   0  0  0  0  0  0  0  0  0  0  0  0
  -24.5380   -9.7000   21.9240 C   0  0  0  0  0  3  0  0  0  0  0  0
  -23.8270   -8.4920   22.0990 C   0  0  0  0  0  3  0  0  0  0  0  0
  -22.6760   -8.2250   21.3200 C   0  0  0  0  0  0  0  0  0  0  0  0
  -22.2710   -9.1620   20.3550 C   0  0  0  0  0  3  0  0  0  0  0  0
  -22.9800  -10.3610   20.1780 C   0  0  0  0  0  3  0  0  0  0  0  0
  -21.9400   -7.0680   21.4030 O   0  0  0  0  0  0  0  0  0  0  0  0
  -21.8040   -6.3860   22.5850 C   0  0  0  0  0  0  0  0  0  0  0  0
  -21.2190   -6.9790   23.7270 C   0  0  0  0  0  3  0  0  0  0  0  0
  -21.0360   -6.2200   24.8980 C   0  0  0  0  0  3  0  0  0  0  0  0
  -21.4270   -4.8670   24.9320 C   0  0  0  0  0  0  0  0  0  0  0  0
  -22.0010   -4.2730   23.7940 C   0  0  0  0  0  3  0  0  0  0  0  0
  -22.1880   -5.0300   22.6240 C   0  0  0  0  0  0  0  0  0  0  0  0
  -22.7230   -4.4460   21.5250 F   0  0  0  0  0  0  0  0  0  0  0  0
  -21.2440   -4.1340   26.0550 F   0  0  0  0  0  0  0  0  0  0  0  0
  -22.9460  -13.7190   21.2250 C   0  0  0  0  0  0  0  0  0  0  0  0
  -22.2620  -12.9880   22.0990 N   0  0  0  0  0  0  0  0  0  0  0  0
  -22.4790  -14.7570   20.7560 O   0  0  0  0  0  0  0  0  0  0  0  0
  -22.6570  -12.1490   22.4960 H   0  0  0  0  0  0  0  0  0  0  0  0
  -21.3320  -13.2720   22.3700 H   0  0  0  0  0  0  0  0  0  0  0  0
  -25.4990  -15.4460   20.3360 N   0  0  0  0  0  0  0  0  0  0  0  0
  -24.7240  -16.0800   20.5000 H   0  0  0  0  0  0  0  0  0  0  0  0
  -26.2970  -15.9030   19.9170 H   0  0  0  0  0  0  0  0  0  0  0  0
  -28.1840  -25.7310   20.2250 O   0  0  0  0  0  0  0  0  0  0  0  0
  -24.6380  -31.9840   23.2720 C   0  0  0  0  0  0  0  0  0  0  0  0
  -27.2220  -26.9590   20.2570 C   0  0  0  0  0  0  0  0  0  0  0  0
  -23.4730  -30.5930   21.6180 C   0  0  0  0  0  3  0  0  0  0  0  0
  -24.9440  -28.9790   20.2010 C   0  0  0  0  0  0  0  0  0  0  0  0
  -26.0530  -30.7550   21.5180 C   0  0  0  0  0  2  0  0  0  0  0  0
  -26.1310  -29.3290   20.8550 C   0  0  0  0  0  0  0  0  0  0  0  0
  -27.2560  -28.3470   20.8570 C   0  0  0  0  0  3  0  0  0  0  0  0
  -26.0160  -26.8480   19.5130 C   0  0  0  0  0  3  0  0  0  0  0  0
  -24.9230  -27.7600   19.5090 C   0  0  0  0  0  3  0  0  0  0  0  0
  -23.7290  -29.9170   20.2420 C   0  0  0  0  0  2  0  0  0  0  0  0
  -24.7450  -31.1440   22.1880 N   0  0  0  0  0  0  0  0  0  0  0  0
  -23.5390  -32.2700   23.7790 O   0  0  0  0  0  0  0  0  0  0  0  0
  -22.7620  -29.5950   22.5720 C   0  0  0  0  0  0  0  0  0  0  0  0
  -21.4330  -29.4200   22.4320 N   0  0  0  0  0  0  0  0  0  0  0  0
  -23.4180  -28.9770   23.4130 O   0  0  0  0  0  0  0  0  0  0  0  0
  -20.9520  -29.9720   21.7350 H   0  0  0  0  0  0  0  0  0  0  0  0
  -18.0570  -28.1680   22.9190 C   0  0  0  0  0  0  0  0  0  0  0  0
  -20.6140  -28.4670   23.1930 C   0  0  0  0  0  3  0  0  0  0  0  0
  -20.7350  -27.0380   22.6110 C   0  0  0  0  0  2  0  0  0  0  0  0
  -19.6430  -26.7100   21.5890 C   0  0  0  0  0  2  0  0  0  0  0  0
  -18.2560  -26.8290   22.2270 C   0  0  0  0  0  2  0  0  0  0  0  0
  -19.1640  -28.9430   23.3570 C   0  0  0  0  0  0  0  0  0  0  0  0
  -18.9230  -30.1920   23.9680 C   0  0  0  0  0  3  0  0  0  0  0  0
  -17.6100  -30.6680   24.1440 C   0  0  0  0  0  3  0  0  0  0  0  0
  -16.5180  -29.8920   23.7170 C   0  0  0  0  0  3  0  0  0  0  0  0
  -16.7430  -28.6430   23.1100 C   0  0  0  0  0  3  0  0  0  0  0  0
  -25.8930  -32.6410   23.9240 C   0  0  0  0  0  3  0  0  0  0  0  0
  -26.3690  -31.8950   25.2320 C   0  0  1  0  0  0  0  0  0  0  0  0
  -25.2440  -31.6730   26.2710 C   0  0  0  0  0  1  0  0  0  0  0  0
  -26.9750  -30.5140   24.8980 C   0  0  0  0  0  1  0  0  0  0  0  0
  -27.4930  -32.7090   25.9150 C   0  0  0  0  0  1  0  0  0  0  0  0
  -25.5630  -34.0430   24.2410 N   0  0  0  0  0  0  0  0  0  0  0  0
  -25.8690  -35.1030   23.4790 C   0  0  0  0  0  0  0  0  0  0  0  0
  -26.5170  -35.0020   22.4350 O   0  0  0  0  0  0  0  0  0  0  0  0
  -24.9840  -34.1930   25.0540 H   0  0  0  0  0  0  0  0  0  0  0  0
  -24.0980  -36.8730   23.1940 C   0  0  0  0  0  1  0  0  0  0  0  0
  -25.3830  -36.4920   23.9460 C   0  0  0  0  0  3  0  0  0  0  0  0
  -27.5330  -37.4340   24.6720 C   0  0  0  0  0  1  0  0  0  0  0  0
  -26.3900  -37.5610   23.7700 N   0  0  0  0  0  0  0  0  0  0  0  0
  -25.9720  -38.4760   23.9170 H   0  0  0  0  0  0  0  0  0  0  0  0
  -26.4270  -23.8730   20.5610 C   0  0  0  0  0  2  0  0  0  0  0  0
  -25.8350  -22.9590   21.5670 N   0  0  0  0  0  4  0  0  0  0  0  0
  -26.2140  -22.0310   21.4890 H   0  0  0  0  0  0  0  0  0  0  0  0
  -24.8390  -22.9020   21.4280 H   0  0  0  0  0  0  0  0  0  0  0  0
  -25.9900  -23.2950   22.5020 H   0  0  0  0  0  0  0  0  0  0  0  0
  2  1  1  1
  3  6  1  0
  4  3  2  0
  4  7  1  0
  5  8  1  0
  6  2  1  0
  6  8  2  0
  7  5  2  0
  8  9  1  0
 10 18  1  0
 11 16  1  0
 12 13  1  0
 12 11  1  0
 14 13  1  0
 14 23  1  0
 14 15  1  0
 16 10  1  0
 16 15  1  0
 17 10  2  0
 18  7  1  0
 18 19  1  0
 20 21  2  0
 21 40  1  0
 22 21  1  0
 22 25  1  0
 23 24  1  0
 23 20  1  0
 24 22  2  0
 25 26  1  0
 26 27  2  0
 28 31  1  0
 28 27  1  0
 29 28  2  0
 30 29  1  0
 30 25  2  0
 31 32  1  0
 32 37  2  0
 32 33  1  0
 33 34  2  0
 34 35  1  0
 35 39  1  0
 36 35  2  0
 37 36  1  0
 38 37  1  0
 40 41  1  0
 41 44  1  0
 41 43  1  0
 42 40  2  0
 45 20  1  0
 45 46  1  0
 47 45  1  0
 48 50  1  0
 48  2  1  0
 49 60  2  0
 50 55  1  0
 51 59  1  0
 51 61  1  0
 52 58  1  0
 52 54  1  0
 53 59  1  0
 54 55  2  0
 54 53  1  0
 56 50  2  0
 57 56  1  0
 57 52  2  0
 58 51  1  0
 59 49  1  0
 61 63  2  0
 62 61  1  0
 64 62  1  0
 65 74  2  0
 65 70  1  0
 66 62  1  0
 66 70  1  0
 67 66  1  0
 68 69  1  0
 68 67  1  0
 69 65  1  0
 70 71  2  0
 71 72  1  0
 73 72  2  0
 74 73  1  0
 75 49  1  0
 75 80  1  0
 75 76  1  0
 76 79  1  1
 76 77  1  0
 78 76  1  0
 80 83  1  0
 81 85  1  0
 81 80  1  0
 82 81  2  0
 85 84  1  0
 87 88  1  0
 87 85  1  0
 87 86  1  0
 89  2  1  0
 89 90  1  0
 90 93  1  0
 91 90  1  0
 92 90  1  0
M  ISO  4   2 101  10 100  18 100  48 101
M  END
>  <TORSDO>  (22) 
F 19

>  <SCORE>  (22) 
-16.076

>  <name>  (22) 
21

>  <ligand_id>  (22) 
21

>  <original_smiles>  (22) 
[H]c1c([H])c([H])c2c(c1[H])C([H])([H])C([H])([H])C([H])([H])C2([H])N([H])C(=O)C1([H])N(C(=O)C([H])(N([H])C(=O)C([H])(N([H])C([H])([H])[H])C([H])([H])[H])C(C([H])([H])[H])(C([H])([H])[H])C([H])([H])[H])C([H])([H])c2c([H])c(OC(c3c([H])c([H])c(N([H])C(=O)N4C([H])([H])C([H])([H])C([H])([H])C([H])(n5nc(-c6c([H])c([H])c(Oc7c([H])c([H])c(F)c([H])c7F)c([H])c6[H])c(C(=O)N([H])[H])c5N([H])[H])C4([H])[H])c([H])c3F)(C([H])([H])[H])C([H])([H])[N+]([H])([H])[H])c([H])c([H])c2C1([H])[H]

>  <smiles>  (22) 
[H]c1c([H])c([H])c2c(c1[H])C([H])([H])C([H])([H])C([H])([H])C2([H])N([H])C(=O)C1([H])N(C(=O)C([H])(N([H])C(=O)C([H])(N([H])C([H])([H])[H])C([H])([H])[H])C(C([H])([H])[H])(C([H])([H])[H])C([H])([H])[H])C([H])([H])c2c([H])c(OC(c3c([H])c([H])c(N([H])C(=O)N4C([H])([H])C([H])([H])C([H])([H])C([H])(n5nc(-c6c([H])c([H])c(Oc7c([H])c([H])c(F)c([H])c7F)c([H])c6[H])c(C(=O)N([H])[H])c5N([H])[H])C4([H])[H])c([H])c3F)(C([H])([H])[H])C([H])([H])[N+]([H])([H])[H])c([H])c([H])c2C1([H])[H]

$$$$
22:0:0
     RDKit          3D

 94103  0  0  1  0  0  0  0  0999 V2000
  -27.1950  -21.5090   20.2010 C   0  0  0  0  0  2  0  0  0  0  0  0
  -27.7500  -22.4700   19.1550 C   0  0  0  0  0  2  0  0  0  0  0  0
  -28.4110  -21.8490   21.0640 C   0  0  0  0  0  3  0  0  0  0  0  0
  -28.6560  -23.0110   20.1760 N   0  0  2  0  0  4  0  0  0  0  0  0
  -29.6270  -22.9490   19.8900 H   0  0  0  0  0  0  0  0  0  0  0  0
  -29.5640  -20.8110   20.9670 C   0  0  0  0  0  0  0  0  0  0  0  0
  -29.2990  -19.4940   21.1650 N   0  0  0  0  0  0  0  0  0  0  0  0
  -30.6800  -21.2090   20.6220 O   0  0  0  0  0  0  0  0  0  0  0  0
  -28.3720  -19.2590   21.4980 H   0  0  0  0  0  0  0  0  0  0  0  0
  -30.8590  -14.7330   20.7540 C   0  0  0  0  0  0  0  0  0  0  0  0
  -30.6780  -12.4690   19.7820 C   0  0  0  0  0  2  0  0  0  0  0  0
  -29.8040  -12.5020   18.5060 C   0  0  0  0  0  2  0  0  0  0  0  0
  -28.3040  -12.4230   18.8480 C   0  0  0  0  0  2  0  0  0  0  0  0
  -27.8730  -13.3360   20.0270 C   0  0  0  0  0  3  0  0  0  0  0  0
  -28.8680  -13.2590   21.2080 C   0  0  0  0  0  2  0  0  0  0  0  0
  -30.2090  -13.5350   20.6810 N   0  0  0  0  0  0  0  0  0  0  0  0
  -32.0840  -14.8190   20.6320 O   0  0  0  0  0  0  0  0  0  0  0  0
  -30.9290  -17.3290   18.5270 C   0  0  0  0  0  2  0  0  0  0  0  0
  -30.1860  -18.4960   19.1370 C   0  0  0  0  0  2  0  0  0  0  0  0
  -30.1770  -16.0460   18.8590 C   0  0  0  0  0  2  0  0  0  0  0  0
  -29.6270  -16.9400   21.1290 C   0  0  0  0  0  2  0  0  0  0  0  0
  -30.1310  -18.3720   20.6730 C   0  0  0  0  0  3  0  0  0  0  0  0
  -30.1140  -15.7850   20.3090 N   0  0  0  0  0  0  0  0  0  0  0  0
  -25.4380  -13.9200   20.6090 C   0  0  0  0  0  0  0  0  0  0  0  0
  -24.3610  -13.1370   20.9260 C   0  0  0  0  0  0  0  0  0  0  0  0
  -24.8400  -11.7910   20.9410 C   0  0  0  0  0  0  0  0  0  0  0  0
  -26.5040  -13.0500   20.4470 N   0  0  0  0  0  0  0  0  0  0  0  0
  -26.1470  -11.7670   20.7130 N   0  0  0  0  0  0  0  0  0  0  0  0
  -24.1210  -10.5210   21.1030 C   0  0  0  0  0  0  0  0  0  0  0  0
  -24.5120   -9.5680   22.0690 C   0  0  0  0  0  3  0  0  0  0  0  0
  -23.7950   -8.3620   22.2170 C   0  0  0  0  0  3  0  0  0  0  0  0
  -22.6710   -8.0990   21.4000 C   0  0  0  0  0  0  0  0  0  0  0  0
  -22.2990   -9.0390   20.4230 C   0  0  0  0  0  3  0  0  0  0  0  0
  -23.0180  -10.2370   20.2720 C   0  0  0  0  0  3  0  0  0  0  0  0
  -21.9260   -6.9460   21.4560 O   0  0  0  0  0  0  0  0  0  0  0  0
  -21.8090   -6.2210   22.6150 C   0  0  0  0  0  0  0  0  0  0  0  0
  -21.2750   -6.7820   23.7950 C   0  0  0  0  0  3  0  0  0  0  0  0
  -21.1130   -5.9830   24.9430 C   0  0  0  0  0  3  0  0  0  0  0  0
  -21.4730   -4.6230   24.9120 C   0  0  0  0  0  0  0  0  0  0  0  0
  -21.9970   -4.0590   23.7340 C   0  0  0  0  0  3  0  0  0  0  0  0
  -22.1630   -4.8570   22.5880 C   0  0  0  0  0  0  0  0  0  0  0  0
  -22.6520   -4.3070   21.4500 F   0  0  0  0  0  0  0  0  0  0  0  0
  -21.3090   -3.8500   26.0110 F   0  0  0  0  0  0  0  0  0  0  0  0
  -22.9440  -13.5970   21.1100 C   0  0  0  0  0  0  0  0  0  0  0  0
  -22.1770  -12.9060   21.9460 N   0  0  0  0  0  0  0  0  0  0  0  0
  -22.5220  -14.6060   20.5460 O   0  0  0  0  0  0  0  0  0  0  0  0
  -22.5270  -12.0880   22.4250 H   0  0  0  0  0  0  0  0  0  0  0  0
  -21.2260  -13.2000   22.1160 H   0  0  0  0  0  0  0  0  0  0  0  0
  -25.6000  -15.2900   20.4210 N   0  0  0  0  0  0  0  0  0  0  0  0
  -24.8280  -15.9460   20.4680 H   0  0  0  0  0  0  0  0  0  0  0  0
  -26.4690  -15.7220   20.1350 H   0  0  0  0  0  0  0  0  0  0  0  0
  -28.2980  -24.3760   20.6870 C   0  0  0  0  0  2  0  0  0  0  0  0
  -28.6140  -25.5070   19.6650 C   0  0  0  0  0  2  0  0  0  0  0  0
  -28.4730  -26.8440   20.1900 O   0  0  0  0  0  0  0  0  0  0  0  0
  -24.5720  -31.9380   23.2530 C   0  0  0  0  0  0  0  0  0  0  0  0
  -27.2660  -27.5230   20.1580 C   0  0  0  0  0  0  0  0  0  0  0  0
  -23.3850  -30.5460   21.5880 C   0  0  0  0  0  3  0  0  0  0  0  0
  -24.8560  -29.0260   20.1590 C   0  0  0  0  0  0  0  0  0  0  0  0
  -25.9090  -30.9180   21.4090 C   0  0  0  0  0  2  0  0  0  0  0  0
  -26.0060  -29.5500   20.7600 C   0  0  0  0  0  0  0  0  0  0  0  0
  -27.2080  -28.8070   20.7550 C   0  0  0  0  0  3  0  0  0  0  0  0
  -26.0890  -27.0090   19.5630 C   0  0  0  0  0  3  0  0  0  0  0  0
  -24.8960  -27.7570   19.5560 C   0  0  0  0  0  3  0  0  0  0  0  0
  -23.6070  -29.8780   20.2020 C   0  0  0  0  0  2  0  0  0  0  0  0
  -24.6400  -31.1500   22.1410 N   0  0  0  0  0  0  0  0  0  0  0  0
  -23.4860  -32.1970   23.7900 O   0  0  0  0  0  0  0  0  0  0  0  0
  -22.7330  -29.5130   22.5360 C   0  0  0  0  0  0  0  0  0  0  0  0
  -21.4090  -29.3300   22.4040 N   0  0  0  0  0  0  0  0  0  0  0  0
  -23.4170  -28.8760   23.3430 O   0  0  0  0  0  0  0  0  0  0  0  0
  -20.9200  -29.8970   21.7250 H   0  0  0  0  0  0  0  0  0  0  0  0
  -18.0330  -28.1340   22.8870 C   0  0  0  0  0  0  0  0  0  0  0  0
  -20.5920  -28.3790   23.1580 C   0  0  0  0  0  3  0  0  0  0  0  0
  -20.6880  -26.9600   22.5540 C   0  0  0  0  0  2  0  0  0  0  0  0
  -19.5830  -26.6600   21.5360 C   0  0  0  0  0  2  0  0  0  0  0  0
  -18.2030  -26.7980   22.1860 C   0  0  0  0  0  2  0  0  0  0  0  0
  -19.1550  -28.8850   23.3290 C   0  0  0  0  0  0  0  0  0  0  0  0
  -18.9410  -30.1390   23.9430 C   0  0  0  0  0  3  0  0  0  0  0  0
  -17.6370  -30.6410   24.1190 C   0  0  0  0  0  3  0  0  0  0  0  0
  -16.5300  -29.8860   23.6920 C   0  0  0  0  0  3  0  0  0  0  0  0
  -16.7290  -28.6350   23.0820 C   0  0  0  0  0  3  0  0  0  0  0  0
  -25.8520  -32.5670   23.8910 C   0  0  0  0  0  3  0  0  0  0  0  0
  -26.3400  -31.8110   25.1880 C   0  0  1  0  0  0  0  0  0  0  0  0
  -25.2270  -31.5980   26.2400 C   0  0  0  0  0  1  0  0  0  0  0  0
  -26.9170  -30.4250   24.8230 C   0  0  0  0  0  1  0  0  0  0  0  0
  -27.4810  -32.6100   25.8630 C   0  0  0  0  0  1  0  0  0  0  0  0
  -25.5500  -33.9720   24.1950 N   0  0  0  0  0  0  0  0  0  0  0  0
  -25.9140  -35.0120   23.4310 C   0  0  0  0  0  0  0  0  0  0  0  0
  -26.6170  -34.8880   22.4240 O   0  0  0  0  0  0  0  0  0  0  0  0
  -24.9400  -34.1450   24.9800 H   0  0  0  0  0  0  0  0  0  0  0  0
  -24.2350  -36.8270   22.9810 C   0  0  0  0  0  1  0  0  0  0  0  0
  -25.4260  -36.4090   23.8560 C   0  0  0  0  0  3  0  0  0  0  0  0
  -27.5290  -37.2690   24.7850 C   0  0  0  0  0  1  0  0  0  0  0  0
  -26.4770  -37.4480   23.7880 N   0  0  0  0  0  0  0  0  0  0  0  0
  -26.0770  -38.3740   23.9110 H   0  0  0  0  0  0  0  0  0  0  0  0
  1  3  1  0
  2  4  1  0
  2  1  1  0
  3  6  1  0
  4 52  1  0
  4  3  1  0
  4  5  1  6
  6  7  1  0
  7  9  1  0
  8  6  2  0
 11 16  1  0
 12 13  1  0
 12 11  1  0
 14 13  1  0
 14 27  1  0
 14 15  1  0
 16 10  1  0
 16 15  1  0
 17 10  2  0
 18 20  1  0
 18 19  1  0
 19 22  1  0
 20 23  1  0
 22 21  1  0
 22  7  1  0
 23 10  1  0
 23 21  1  0
 24 25  2  0
 25 26  1  0
 25 44  1  0
 26 29  1  0
 27 24  1  0
 27 28  1  0
 28 26  2  0
 29 30  1  0
 30 31  2  0
 32 35  1  0
 32 31  1  0
 33 32  2  0
 34 33  1  0
 34 29  2  0
 35 36  1  0
 36 37  1  0
 37 38  2  0
 39 38  1  0
 39 43  1  0
 40 39  2  0
 41 36  2  0
 41 40  1  0
 42 41  1  0
 44 45  1  0
 45 48  1  0
 45 47  1  0
 46 44  2  0
 49 50  1  0
 49 24  1  0
 51 49  1  0
 53 54  1  0
 53 52  1  0
 55 66  2  0
 56 54  1  0
 56 61  1  0
 57 65  1  0
 57 67  1  0
 58 64  1  0
 58 60  1  0
 59 65  1  0
 60 59  1  0
 61 60  2  0
 62 56  2  0
 63 62  1  0
 63 58  2  0
 64 57  1  0
 65 55  1  0
 67 69  2  0
 68 67  1  0
 70 68  1  0
 71 80  2  0
 71 76  1  0
 72 68  1  0
 72 76  1  0
 73 72  1  0
 74 75  1  0
 74 73  1  0
 75 71  1  0
 76 77  2  0
 77 78  1  0
 79 78  2  0
 80 79  1  0
 81 55  1  0
 81 86  1  0
 81 82  1  0
 82 85  1  1
 82 83  1  0
 84 82  1  0
 86 89  1  0
 87 91  1  0
 87 86  1  0
 88 87  2  0
 91 90  1  0
 93 91  1  0
 93 94  1  0
 93 92  1  0
M  ISO  4  10 100  23 100  53 101  54 101
M  END
>  <TORSDO>  (23) 
F 19

>  <SCORE>  (23) 
-14.142

>  <name>  (23) 
22

>  <ligand_id>  (23) 
22

>  <original_smiles>  (23) 
[H]c1c([H])c([H])c2c(c1[H])C([H])([H])C([H])([H])C([H])([H])C2([H])N([H])C(=O)C1([H])N(C(=O)C([H])(N([H])C(=O)C([H])(N([H])C([H])([H])[H])C([H])([H])[H])C(C([H])([H])[H])(C([H])([H])[H])C([H])([H])[H])C([H])([H])c2c([H])c(OC([H])([H])C([H])([H])[N+]3([H])C([H])([H])C([H])([H])C3([H])C(=O)N([H])C3([H])C([H])([H])N(C(=O)N4C([H])([H])C([H])([H])C([H])([H])C([H])(n5nc(-c6c([H])c([H])c(Oc7c([H])c([H])c(F)c([H])c7F)c([H])c6[H])c(C(=O)N([H])[H])c5N([H])[H])C4([H])[H])C([H])([H])C([H])([H])C3([H])[H])c([H])c([H])c2C1([H])[H]

>  <smiles>  (23) 
[H]c1c([H])c([H])c2c(c1[H])C([H])([H])C([H])([H])C([H])([H])C2([H])N([H])C(=O)C1([H])N(C(=O)C([H])(N([H])C(=O)C([H])(N([H])C([H])([H])[H])C([H])([H])[H])C(C([H])([H])[H])(C([H])([H])[H])C([H])([H])[H])C([H])([H])c2c([H])c(OC([H])([H])C([H])([H])[N+]3([H])C([H])([H])C([H])([H])C3([H])C(=O)N([H])C3([H])C([H])([H])N(C(=O)N4C([H])([H])C([H])([H])C([H])([H])C([H])(n5nc(-c6c([H])c([H])c(Oc7c([H])c([H])c(F)c([H])c7F)c([H])c6[H])c(C(=O)N([H])[H])c5N([H])[H])C4([H])[H])C([H])([H])C([H])([H])C3([H])[H])c([H])c([H])c2C1([H])[H]

$$$$
23:0:0
     RDKit          3D

 97106  0  0  1  0  0  0  0  0999 V2000
  -28.0890  -21.1420   20.1070 C   0  0  0  0  0  0  0  0  0  0  0  0
  -28.6080  -20.3490   21.0550 N   0  0  0  0  0  0  0  0  0  0  0  0
  -27.9560  -20.8290   18.9180 O   0  0  0  0  0  0  0  0  0  0  0  0
  -28.6630  -20.7410   21.9860 H   0  0  0  0  0  0  0  0  0  0  0  0
  -29.3850  -16.8570   19.8790 C   0  0  0  0  0  3  0  0  0  0  0  0
  -28.8090  -18.1340   19.9150 C   0  0  0  0  0  3  0  0  0  0  0  0
  -30.6570  -17.3730   21.8990 C   0  0  0  0  0  3  0  0  0  0  0  0
  -30.3070  -16.4650   20.8780 C   0  0  0  0  0  0  0  0  0  0  0  0
  -29.1600  -19.0480   20.9370 C   0  0  0  0  0  0  0  0  0  0  0  0
  -30.0860  -18.6590   21.9280 C   0  0  0  0  0  0  0  0  0  0  0  0
  -30.4140  -19.5260   22.9180 F   0  0  0  0  0  0  0  0  0  0  0  0
  -31.1600  -14.3980   19.9030 C   0  0  0  0  0  0  0  0  0  0  0  0
  -30.6670  -12.3390   18.6490 C   0  0  0  0  0  2  0  0  0  0  0  0
  -29.6010  -12.6190   17.5700 C   0  0  0  0  0  2  0  0  0  0  0  0
  -28.1800  -12.4930   18.1520 C   0  0  0  0  0  2  0  0  0  0  0  0
  -28.0060  -13.3020   19.4640 C   0  0  0  0  0  3  0  0  0  0  0  0
  -29.1550  -12.9830   20.4430 C   0  0  0  0  0  2  0  0  0  0  0  0
  -30.4410  -13.2580   19.7700 N   0  0  0  0  0  0  0  0  0  0  0  0
  -32.0870  -14.7290   19.1550 O   0  0  0  0  0  0  0  0  0  0  0  0
  -30.8010  -15.1410   20.9550 N   0  0  0  0  0  0  0  0  0  0  0  0
  -30.3750  -14.6010   21.6930 H   0  0  0  0  0  0  0  0  0  0  0  0
  -25.7330  -13.9570   20.4950 C   0  0  0  0  0  0  0  0  0  0  0  0
  -24.6790  -13.2000   20.9330 C   0  0  0  0  0  0  0  0  0  0  0  0
  -25.0690  -11.8370   20.7450 C   0  0  0  0  0  0  0  0  0  0  0  0
  -26.7020  -13.0550   20.0750 N   0  0  0  0  0  0  0  0  0  0  0  0
  -26.3080  -11.7730   20.2770 N   0  0  0  0  0  0  0  0  0  0  0  0
  -24.3120  -10.5930   20.9330 C   0  0  0  0  0  0  0  0  0  0  0  0
  -24.7290   -9.6060   21.8520 C   0  0  0  0  0  3  0  0  0  0  0  0
  -23.9750   -8.4250   22.0250 C   0  0  0  0  0  3  0  0  0  0  0  0
  -22.7900   -8.2240   21.2790 C   0  0  0  0  0  0  0  0  0  0  0  0
  -22.3910   -9.2000   20.3480 C   0  0  0  0  0  3  0  0  0  0  0  0
  -23.1460  -10.3720   20.1730 C   0  0  0  0  0  3  0  0  0  0  0  0
  -22.0080   -7.0970   21.3620 O   0  0  0  0  0  0  0  0  0  0  0  0
  -21.8480   -6.4180   22.5430 C   0  0  0  0  0  0  0  0  0  0  0  0
  -21.3420   -7.0450   23.7020 C   0  0  0  0  0  3  0  0  0  0  0  0
  -21.1270   -6.2940   24.8730 C   0  0  0  0  0  3  0  0  0  0  0  0
  -21.4100   -4.9140   24.8870 C   0  0  0  0  0  0  0  0  0  0  0  0
  -21.9090   -4.2860   23.7320 C   0  0  0  0  0  3  0  0  0  0  0  0
  -22.1250   -5.0360   22.5620 C   0  0  0  0  0  0  0  0  0  0  0  0
  -22.5870   -4.4210   21.4470 F   0  0  0  0  0  0  0  0  0  0  0  0
  -21.1970   -4.1880   26.0100 F   0  0  0  0  0  0  0  0  0  0  0  0
  -23.3500  -13.7060   21.4130 C   0  0  0  0  0  0  0  0  0  0  0  0
  -22.7220  -12.9940   22.3440 N   0  0  0  0  0  0  0  0  0  0  0  0
  -22.8820  -14.7670   21.0010 O   0  0  0  0  0  0  0  0  0  0  0  0
  -23.1160  -12.1340   22.6970 H   0  0  0  0  0  0  0  0  0  0  0  0
  -21.8350  -13.3130   22.7070 H   0  0  0  0  0  0  0  0  0  0  0  0
  -25.9430  -15.3290   20.4030 N   0  0  0  0  0  0  0  0  0  0  0  0
  -25.2270  -15.9980   20.6590 H   0  0  0  0  0  0  0  0  0  0  0  0
  -26.7800  -15.7630   20.0380 H   0  0  0  0  0  0  0  0  0  0  0  0
  -26.1160  -22.6110   20.7600 C   0  0  0  0  0  2  0  0  0  0  0  0
  -26.1470  -23.8430   19.8630 C   0  0  0  0  0  2  0  0  0  0  0  0
  -27.6330  -22.5310   20.5580 C   0  0  0  0  0  3  0  0  0  0  0  0
  -27.4560  -23.3840   19.3850 N   0  0  2  0  0  4  0  0  0  0  0  0
  -27.3420  -22.7120   18.6340 H   0  0  0  0  0  0  0  0  0  0  0  0
  -28.5070  -24.3790   19.0060 C   0  0  0  0  0  2  0  0  0  0  0  0
  -28.8300  -25.4970   20.0270 C   0  0  0  0  0  2  0  0  0  0  0  0
  -28.8830  -26.7870   19.3940 O   0  0  0  0  0  0  0  0  0  0  0  0
  -24.7590  -31.3750   22.8900 C   0  0  0  0  0  0  0  0  0  0  0  0
  -27.6800  -27.4560   19.4140 C   0  0  0  0  0  0  0  0  0  0  0  0
  -23.6340  -30.0100   21.1590 C   0  0  0  0  0  3  0  0  0  0  0  0
  -25.1770  -28.7360   19.5860 C   0  0  0  0  0  0  0  0  0  0  0  0
  -26.1150  -30.6070   20.9500 C   0  0  0  0  0  2  0  0  0  0  0  0
  -26.2980  -29.3070   20.2000 C   0  0  0  0  0  0  0  0  0  0  0  0
  -27.5560  -28.6740   20.1160 C   0  0  0  0  0  3  0  0  0  0  0  0
  -26.5510  -26.9220   18.7600 C   0  0  0  0  0  3  0  0  0  0  0  0
  -25.2950  -27.5420   18.8610 C   0  0  0  0  0  3  0  0  0  0  0  0
  -23.8640  -29.4680   19.7260 C   0  0  0  0  0  2  0  0  0  0  0  0
  -24.8540  -30.6760   21.7240 N   0  0  0  0  0  0  0  0  0  0  0  0
  -23.6710  -31.5090   23.4670 O   0  0  0  0  0  0  0  0  0  0  0  0
  -23.0990  -28.8610   22.0410 C   0  0  0  0  0  0  0  0  0  0  0  0
  -21.8010  -28.5520   21.8940 N   0  0  0  0  0  0  0  0  0  0  0  0
  -23.8460  -28.2520   22.8130 O   0  0  0  0  0  0  0  0  0  0  0  0
  -21.2530  -29.1000   21.2440 H   0  0  0  0  0  0  0  0  0  0  0  0
  -18.5780  -26.9600   22.2570 C   0  0  0  0  0  0  0  0  0  0  0  0
  -21.0860  -27.4850   22.5920 C   0  0  0  0  0  3  0  0  0  0  0  0
  -21.3590  -26.1120   21.9380 C   0  0  0  0  0  2  0  0  0  0  0  0
  -20.3150  -25.7320   20.8830 C   0  0  0  0  0  2  0  0  0  0  0  0
  -18.9150  -25.6830   21.5040 C   0  0  0  0  0  2  0  0  0  0  0  0
  -19.5990  -27.8150   22.7510 C   0  0  0  0  0  0  0  0  0  0  0  0
  -19.2340  -29.0120   23.4050 C   0  0  0  0  0  3  0  0  0  0  0  0
  -17.8790  -29.3540   23.5760 C   0  0  0  0  0  3  0  0  0  0  0  0
  -16.8730  -28.4950   23.1020 C   0  0  0  0  0  3  0  0  0  0  0  0
  -17.2230  -27.2990   22.4490 C   0  0  0  0  0  3  0  0  0  0  0  0
  -26.0030  -32.0620   23.5350 C   0  0  0  0  0  3  0  0  0  0  0  0
  -26.6210  -31.2350   24.7300 C   0  0  1  0  0  0  0  0  0  0  0  0
  -25.5830  -30.8160   25.7980 C   0  0  0  0  0  1  0  0  0  0  0  0
  -27.3060  -29.9490   24.2100 C   0  0  0  0  0  1  0  0  0  0  0  0
  -27.7200  -32.0680   25.4310 C   0  0  0  0  0  1  0  0  0  0  0  0
  -25.5860  -33.3970   23.9840 N   0  0  0  0  0  0  0  0  0  0  0  0
  -25.8100  -34.5300   23.3060 C   0  0  0  0  0  0  0  0  0  0  0  0
  -26.4640  -34.5670   22.2580 O   0  0  0  0  0  0  0  0  0  0  0  0
  -25.0000  -33.4370   24.8060 H   0  0  0  0  0  0  0  0  0  0  0  0
  -23.9230  -36.1820   23.1270 C   0  0  0  0  0  1  0  0  0  0  0  0
  -25.2160  -35.8290   23.8800 C   0  0  0  0  0  3  0  0  0  0  0  0
  -27.2860  -36.8340   24.7360 C   0  0  0  0  0  1  0  0  0  0  0  0
  -26.1500  -36.9750   23.8290 N   0  0  0  0  0  0  0  0  0  0  0  0
  -25.6680  -37.8410   24.0550 H   0  0  0  0  0  0  0  0  0  0  0  0
  1  2  1  0
  2  4  1  0
  3  1  2  0
  5  6  2  0
  5  8  1  0
  6  9  1  0
  7 10  1  0
  8 20  1  0
  8  7  2  0
  9  2  1  0
  9 10  2  0
 10 11  1  0
 12 20  1  0
 13 18  1  0
 14 15  1  0
 14 13  1  0
 16 15  1  0
 16 25  1  0
 16 17  1  0
 18 12  1  0
 18 17  1  0
 19 12  2  0
 20 21  1  0
 22 23  2  0
 23 42  1  0
 24 27  1  0
 24 23  1  0
 25 26  1  0
 25 22  1  0
 26 24  2  0
 27 28  1  0
 28 29  2  0
 30 33  1  0
 30 29  1  0
 31 30  2  0
 32 31  1  0
 32 27  2  0
 33 34  1  0
 34 39  2  0
 34 35  1  0
 35 36  2  0
 36 37  1  0
 37 41  1  0
 38 37  2  0
 39 38  1  0
 40 39  1  0
 42 43  1  0
 43 45  1  0
 43 46  1  0
 44 42  2  0
 47 22  1  0
 47 48  1  0
 49 47  1  0
 51 50  1  0
 52  1  1  0
 52 50  1  0
 53 51  1  0
 53 52  1  0
 53 54  1  6
 55 53  1  0
 55 56  1  0
 57 59  1  0
 57 56  1  0
 58 69  2  0
 59 64  1  0
 60 68  1  0
 60 70  1  0
 61 67  1  0
 61 63  1  0
 62 68  1  0
 63 62  1  0
 64 63  2  0
 65 66  1  0
 65 59  2  0
 66 61  2  0
 67 60  1  0
 68 58  1  0
 70 72  2  0
 71 70  1  0
 73 71  1  0
 74 83  2  0
 74 79  1  0
 75 71  1  0
 75 79  1  0
 76 75  1  0
 77 78  1  0
 77 76  1  0
 78 74  1  0
 79 80  2  0
 80 81  1  0
 82 81  2  0
 83 82  1  0
 84 58  1  0
 84 89  1  0
 84 85  1  0
 85 88  1  1
 85 86  1  0
 87 85  1  0
 89 92  1  0
 90 94  1  0
 90 89  1  0
 91 90  2  0
 94 93  1  0
 96 94  1  0
 96 97  1  0
 96 95  1  0
M  ISO  4  12 100  20 100  56 101  57 101
M  END
>  <TORSDO>  (24) 
F 20

>  <SCORE>  (24) 
-10.783

>  <name>  (24) 
23

>  <ligand_id>  (24) 
23

>  <original_smiles>  (24) 
[H]c1c([H])c([H])c2c(c1[H])C([H])([H])C([H])([H])C([H])([H])C2([H])N([H])C(=O)C1([H])N(C(=O)C([H])(N([H])C(=O)C([H])(N([H])C([H])([H])[H])C([H])([H])[H])C(C([H])([H])[H])(C([H])([H])[H])C([H])([H])[H])C([H])([H])c2c([H])c(OC([H])([H])C([H])([H])[N+]3([H])C([H])([H])C([H])([H])C3([H])C(=O)N([H])c3c([H])c([H])c(N([H])C(=O)N4C([H])([H])C([H])([H])C([H])([H])C([H])(n5nc(-c6c([H])c([H])c(Oc7c([H])c([H])c(F)c([H])c7F)c([H])c6[H])c(C(=O)N([H])[H])c5N([H])[H])C4([H])[H])c([H])c3F)c([H])c([H])c2C1([H])[H]

>  <smiles>  (24) 
[H]c1c([H])c([H])c2c(c1[H])C([H])([H])C([H])([H])C([H])([H])C2([H])N([H])C(=O)C1([H])N(C(=O)C([H])(N([H])C(=O)C([H])(N([H])C([H])([H])[H])C([H])([H])[H])C(C([H])([H])[H])(C([H])([H])[H])C([H])([H])[H])C([H])([H])c2c([H])c(OC([H])([H])C([H])([H])[N+]3([H])C([H])([H])C([H])([H])C3([H])C(=O)N([H])c3c([H])c([H])c(N([H])C(=O)N4C([H])([H])C([H])([H])C([H])([H])C([H])(n5nc(-c6c([H])c([H])c(Oc7c([H])c([H])c(F)c([H])c7F)c([H])c6[H])c(C(=O)N([H])[H])c5N([H])[H])C4([H])[H])c([H])c3F)c([H])c([H])c2C1([H])[H]

$$$$
24:0:0
     RDKit          3D

100109  0  0  1  0  0  0  0  0999 V2000
  -29.7090  -21.0750   19.9660 C   0  0  0  0  0  0  0  0  0  0  0  0
  -28.6450  -21.0030   20.7830 N   0  0  0  0  0  4  0  0  0  0  0  0
  -30.6060  -20.0530   19.8820 N   0  0  0  0  0  0  0  0  0  0  0  0
  -27.8810  -21.6580   20.7160 H   0  0  0  0  0  0  0  0  0  0  0  0
  -28.4640  -20.1770   21.3330 H   0  0  0  0  0  0  0  0  0  0  0  0
  -31.0550  -19.9460   18.9830 H   0  0  0  0  0  0  0  0  0  0  0  0
  -30.7380  -17.6240   20.4900 C   0  0  0  0  0  3  0  0  0  0  0  0
  -30.8570  -19.3530   22.2260 C   0  0  0  0  0  3  0  0  0  0  0  0
  -30.8560  -16.6190   21.4920 C   0  0  0  0  0  0  0  0  0  0  0  0
  -30.7170  -18.9920   20.8710 C   0  0  0  0  0  0  0  0  0  0  0  0
  -30.9800  -18.3590   23.2120 C   0  0  0  0  0  0  0  0  0  0  0  0
  -30.9610  -16.9990   22.8480 C   0  0  0  0  0  0  0  0  0  0  0  0
  -31.1050  -18.7120   24.5140 F   0  0  0  0  0  0  0  0  0  0  0  0
  -31.0450  -16.0460   23.8110 F   0  0  0  0  0  0  0  0  0  0  0  0
  -31.1950  -14.4880   20.2010 C   0  0  0  0  0  0  0  0  0  0  0  0
  -30.7800  -12.4150   18.9160 C   0  0  0  0  0  2  0  0  0  0  0  0
  -29.8010  -12.6990   17.7580 C   0  0  0  0  0  2  0  0  0  0  0  0
  -28.3350  -12.6140   18.2290 C   0  0  0  0  0  2  0  0  0  0  0  0
  -28.0780  -13.4270   19.5240 C   0  0  0  0  0  3  0  0  0  0  0  0
  -29.1440  -13.0810   20.5850 C   0  0  0  0  0  2  0  0  0  0  0  0
  -30.4820  -13.3460   20.0150 N   0  0  0  0  0  0  0  0  0  0  0  0
  -32.1870  -14.7950   19.5280 O   0  0  0  0  0  0  0  0  0  0  0  0
  -30.7820  -15.2180   21.2450 N   0  0  0  0  0  0  0  0  0  0  0  0
  -30.2040  -14.7070   21.8970 H   0  0  0  0  0  0  0  0  0  0  0  0
  -25.7200  -14.1390   20.2870 C   0  0  0  0  0  0  0  0  0  0  0  0
  -24.6260  -13.4140   20.6790 C   0  0  0  0  0  0  0  0  0  0  0  0
  -25.0240  -12.0420   20.6290 C   0  0  0  0  0  0  0  0  0  0  0  0
  -26.7210  -13.2130   20.0290 N   0  0  0  0  0  0  0  0  0  0  0  0
  -26.3030  -11.9470   20.2870 N   0  0  0  0  0  0  0  0  0  0  0  0
  -24.2460  -10.8140   20.8310 C   0  0  0  0  0  0  0  0  0  0  0  0
  -24.6420   -9.8380   21.7710 C   0  0  0  0  0  3  0  0  0  0  0  0
  -23.8710   -8.6700   21.9620 C   0  0  0  0  0  3  0  0  0  0  0  0
  -22.6880   -8.4730   21.2120 C   0  0  0  0  0  0  0  0  0  0  0  0
  -22.3090   -9.4380   20.2610 C   0  0  0  0  0  3  0  0  0  0  0  0
  -23.0800  -10.5950   20.0700 C   0  0  0  0  0  3  0  0  0  0  0  0
  -21.8870   -7.3610   21.3120 O   0  0  0  0  0  0  0  0  0  0  0  0
  -21.7790   -6.6540   22.4830 C   0  0  0  0  0  0  0  0  0  0  0  0
  -21.3620   -7.2650   23.6850 C   0  0  0  0  0  3  0  0  0  0  0  0
  -21.2000   -6.4870   24.8500 C   0  0  0  0  0  3  0  0  0  0  0  0
  -21.4420   -5.1010   24.8110 C   0  0  0  0  0  0  0  0  0  0  0  0
  -21.8520   -4.4900   23.6120 C   0  0  0  0  0  3  0  0  0  0  0  0
  -22.0170   -5.2650   22.4510 C   0  0  0  0  0  0  0  0  0  0  0  0
  -22.3930   -4.6700   21.2940 F   0  0  0  0  0  0  0  0  0  0  0  0
  -21.2780   -4.3530   25.9250 F   0  0  0  0  0  0  0  0  0  0  0  0
  -23.2600  -13.9520   20.9940 C   0  0  0  0  0  0  0  0  0  0  0  0
  -22.5290  -13.2950   21.8870 N   0  0  0  0  0  0  0  0  0  0  0  0
  -22.8500  -14.9920   20.4800 O   0  0  0  0  0  0  0  0  0  0  0  0
  -22.8730  -12.4560   22.3310 H   0  0  0  0  0  0  0  0  0  0  0  0
  -21.6100  -13.6380   22.1320 H   0  0  0  0  0  0  0  0  0  0  0  0
  -25.9420  -15.5020   20.1130 N   0  0  0  0  0  0  0  0  0  0  0  0
  -25.2080  -16.1910   20.2410 H   0  0  0  0  0  0  0  0  0  0  0  0
  -26.8100  -15.9020   19.7770 H   0  0  0  0  0  0  0  0  0  0  0  0
  -31.1830  -22.4370   18.3710 C   0  0  0  0  0  2  0  0  0  0  0  0
  -31.6770  -23.1460   19.6290 C   0  0  0  0  0  2  0  0  0  0  0  0
  -29.8450  -22.3340   19.1170 C   0  0  0  0  0  3  0  0  0  0  0  0
  -30.2800  -23.4920   19.9320 N   0  0  2  0  0  4  0  0  0  0  0  0
  -30.0850  -23.3470   20.9140 H   0  0  0  0  0  0  0  0  0  0  0  0
  -29.8970  -24.8780   19.5050 C   0  0  0  0  0  2  0  0  0  0  0  0
  -28.5030  -25.3560   19.9770 C   0  0  0  0  0  2  0  0  0  0  0  0
  -28.4920  -26.7950   20.0910 O   0  0  0  0  0  0  0  0  0  0  0  0
  -24.6200  -31.9280   23.1990 C   0  0  0  0  0  0  0  0  0  0  0  0
  -27.2850  -27.4720   20.1240 C   0  0  0  0  0  0  0  0  0  0  0  0
  -23.4130  -30.5060   21.5780 C   0  0  0  0  0  3  0  0  0  0  0  0
  -24.8670  -28.9610   20.1610 C   0  0  0  0  0  0  0  0  0  0  0  0
  -25.9380  -30.8760   21.3590 C   0  0  0  0  0  2  0  0  0  0  0  0
  -26.0280  -29.4990   20.7270 C   0  0  0  0  0  0  0  0  0  0  0  0
  -27.2370  -28.7630   20.7050 C   0  0  0  0  0  3  0  0  0  0  0  0
  -26.0940  -26.9420   19.5710 C   0  0  0  0  0  3  0  0  0  0  0  0
  -24.8950  -27.6770   19.5880 C   0  0  0  0  0  3  0  0  0  0  0  0
  -23.6190  -29.8140   20.2030 C   0  0  0  0  0  2  0  0  0  0  0  0
  -24.6770  -31.1180   22.1040 N   0  0  0  0  0  0  0  0  0  0  0  0
  -23.5400  -32.1970   23.7440 O   0  0  0  0  0  0  0  0  0  0  0  0
  -22.7750  -29.4860   22.5490 C   0  0  0  0  0  0  0  0  0  0  0  0
  -21.4560  -29.2730   22.4130 N   0  0  0  0  0  0  0  0  0  0  0  0
  -23.4640  -28.8880   23.3800 O   0  0  0  0  0  0  0  0  0  0  0  0
  -20.9590  -29.8100   21.7160 H   0  0  0  0  0  0  0  0  0  0  0  0
  -18.1140  -27.9740   22.8610 C   0  0  0  0  0  0  0  0  0  0  0  0
  -20.6540  -28.3300   23.1930 C   0  0  0  0  0  3  0  0  0  0  0  0
  -20.8220  -26.8870   22.6660 C   0  0  0  0  0  2  0  0  0  0  0  0
  -19.7620  -26.4930   21.6340 C   0  0  0  0  0  2  0  0  0  0  0  0
  -18.3580  -26.6100   22.2360 C   0  0  0  0  0  2  0  0  0  0  0  0
  -19.1940  -28.7880   23.2960 C   0  0  0  0  0  0  0  0  0  0  0  0
  -18.9180  -30.0610   23.8370 C   0  0  0  0  0  3  0  0  0  0  0  0
  -17.5940  -30.5220   23.9540 C   0  0  0  0  0  3  0  0  0  0  0  0
  -16.5270  -29.7060   23.5380 C   0  0  0  0  0  3  0  0  0  0  0  0
  -16.7880  -28.4340   22.9960 C   0  0  0  0  0  3  0  0  0  0  0  0
  -25.9050  -32.5740   23.8070 C   0  0  0  0  0  3  0  0  0  0  0  0
  -26.4460  -31.8070   25.0750 C   0  0  1  0  0  0  0  0  0  0  0  0
  -25.3690  -31.5520   26.1540 C   0  0  0  0  0  1  0  0  0  0  0  0
  -27.0480  -30.4430   24.6690 C   0  0  0  0  0  1  0  0  0  0  0  0
  -27.5930  -32.6160   25.7280 C   0  0  0  0  0  1  0  0  0  0  0  0
  -25.5830  -33.9660   24.1430 N   0  0  0  0  0  0  0  0  0  0  0  0
  -25.9140  -35.0260   23.3940 C   0  0  0  0  0  0  0  0  0  0  0  0
  -26.5920  -34.9350   22.3670 O   0  0  0  0  0  0  0  0  0  0  0  0
  -24.9840  -34.1100   24.9420 H   0  0  0  0  0  0  0  0  0  0  0  0
  -24.1730  -36.8050   23.0370 C   0  0  0  0  0  1  0  0  0  0  0  0
  -25.4110  -36.4060   23.8570 C   0  0  0  0  0  3  0  0  0  0  0  0
  -27.5320  -37.2990   24.7090 C   0  0  0  0  0  1  0  0  0  0  0  0
  -26.4330  -37.4700   23.7620 N   0  0  0  0  0  0  0  0  0  0  0  0
  -26.0180  -38.3830   23.9220 H   0  0  0  0  0  0  0  0  0  0  0  0
  1  2  2  0
  2  5  1  0
  3  1  1  0
  3 10  1  0
  4  2  1  0
  6  3  1  0
  7 10  2  0
  7  9  1  0
  8 11  2  0
  9 12  2  0
 10  8  1  0
 11 13  1  0
 12 11  1  0
 12 14  1  0
 15 23  1  0
 16 21  1  0
 17 18  1  0
 17 16  1  0
 19 18  1  0
 19 28  1  0
 19 20  1  0
 21 15  1  0
 21 20  1  0
 22 15  2  0
 23  9  1  0
 23 24  1  0
 25 26  2  0
 26 45  1  0
 27 26  1  0
 27 30  1  0
 28 25  1  0
 28 29  1  0
 29 27  2  0
 30 31  1  0
 31 32  2  0
 33 36  1  0
 33 32  1  0
 34 33  2  0
 35 34  1  0
 35 30  2  0
 36 37  1  0
 37 38  1  0
 38 39  2  0
 40 39  1  0
 40 44  1  0
 41 40  2  0
 42 37  2  0
 42 41  1  0
 43 42  1  0
 45 46  1  0
 46 49  1  0
 46 48  1  0
 47 45  2  0
 50 51  1  0
 50 25  1  0
 52 50  1  0
 53 55  1  0
 53 54  1  0
 54 56  1  0
 55 56  1  0
 55  1  1  0
 56 57  1  1
 58 56  1  0
 58 59  1  0
 59 60  1  0
 60 62  1  0
 61 72  2  0
 62 67  1  0
 63 71  1  0
 63 73  1  0
 64 70  1  0
 64 66  1  0
 65 71  1  0
 66 65  1  0
 67 66  2  0
 68 69  1  0
 68 62  2  0
 69 64  2  0
 70 63  1  0
 71 61  1  0
 73 75  2  0
 74 73  1  0
 76 74  1  0
 77 86  2  0
 77 82  1  0
 78 74  1  0
 78 82  1  0
 79 78  1  0
 80 81  1  0
 80 79  1  0
 81 77  1  0
 82 83  2  0
 83 84  1  0
 85 84  2  0
 86 85  1  0
 87 61  1  0
 87 92  1  0
 87 88  1  0
 88 91  1  1
 88 89  1  0
 90 88  1  0
 92 95  1  0
 93 97  1  0
 93 92  1  0
 94 93  2  0
 97 96  1  0
 99 97  1  0
 99100  1  0
 99 98  1  0
M  ISO  4  15 100  23 100  59 101  60 101
M  END
>  <TORSDO>  (25) 
F 20

>  <SCORE>  (25) 
-12.192

>  <name>  (25) 
24

>  <ligand_id>  (25) 
24

>  <original_smiles>  (25) 
[H]c1c([H])c([H])c2c(c1[H])C([H])([H])C([H])([H])C([H])([H])C2([H])N([H])C(=O)C1([H])N(C(=O)C([H])(N([H])C(=O)C([H])(N([H])C([H])([H])[H])C([H])([H])[H])C(C([H])([H])[H])(C([H])([H])[H])C([H])([H])[H])C([H])([H])c2c([H])c(OC([H])([H])C([H])([H])[N+]3([H])C([H])([H])C([H])([H])C3([H])C(N([H])[H])=[N+]([H])c3c([H])c(F)c(F)c(N([H])C(=O)N4C([H])([H])C([H])([H])C([H])([H])C([H])(n5nc(-c6c([H])c([H])c(Oc7c([H])c([H])c(F)c([H])c7F)c([H])c6[H])c(C(=O)N([H])[H])c5N([H])[H])C4([H])[H])c3[H])c([H])c([H])c2C1([H])[H]

>  <smiles>  (25) 
[H]c1c([H])c([H])c2c(c1[H])C([H])([H])C([H])([H])C([H])([H])C2([H])N([H])C(=O)C1([H])N(C(=O)C([H])(N([H])C(=O)C([H])(N([H])C([H])([H])[H])C([H])([H])[H])C(C([H])([H])[H])(C([H])([H])[H])C([H])([H])[H])C([H])([H])c2c([H])c(OC([H])([H])C([H])([H])[N+]3([H])C([H])([H])C([H])([H])C3([H])C(N([H])[H])=[N+]([H])c3c([H])c(F)c(F)c(N([H])C(=O)N4C([H])([H])C([H])([H])C([H])([H])C([H])(n5nc(-c6c([H])c([H])c(Oc7c([H])c([H])c(F)c([H])c7F)c([H])c6[H])c(C(=O)N([H])[H])c5N([H])[H])C4([H])[H])c3[H])c([H])c([H])c2C1([H])[H]

$$$$
25:0:0
     RDKit          3D

 96105  0  0  1  0  0  0  0  0999 V2000
  -32.5520  -24.2460   19.1740 C   0  0  0  0  0  2  0  0  0  0  0  0
  -32.1260  -23.2210   18.1290 C   0  0  0  0  0  2  0  0  0  0  0  0
  -31.3540  -25.1830   19.1630 C   0  0  0  0  0  2  0  0  0  0  0  0
  -30.6100  -23.0670   18.3590 C   0  0  0  0  0  3  0  0  0  0  0  0
  -30.1640  -24.3000   19.0880 N   0  0  2  0  0  4  0  0  0  0  0  0
  -29.9560  -24.0410   20.0410 H   0  0  0  0  0  0  0  0  0  0  0  0
  -29.2520  -20.9570   18.4650 C   0  0  0  0  0  3  0  0  0  0  0  0
  -30.2210  -21.7210   19.0000 C   0  0  0  0  0  0  0  0  0  0  0  0
  -28.9260  -19.5320   18.8940 C   0  0  0  0  0  2  0  0  0  0  0  0
  -31.0400  -21.1650   20.1630 C   0  0  0  0  0  2  0  0  0  0  0  0
  -31.0320  -19.6140   20.1950 C   0  0  0  0  0  2  0  0  0  0  0  0
  -29.6620  -19.0430   20.1010 N   0  0  2  0  0  4  0  0  0  0  0  0
  -29.1530  -19.3890   20.9030 H   0  0  0  0  0  0  0  0  0  0  0  0
  -29.6070  -17.5470   20.1390 C   0  0  0  0  0  2  0  0  0  0  0  0
  -30.2260  -16.8310   21.3720 C   0  0  0  0  0  2  0  0  0  0  0  0
  -30.6260  -14.4720   20.5720 C   0  0  0  0  0  0  0  0  0  0  0  0
  -30.3440  -12.3680   19.3130 C   0  0  0  0  0  2  0  0  0  0  0  0
  -29.3950  -12.6080   18.1190 C   0  0  0  0  0  2  0  0  0  0  0  0
  -27.9240  -12.4450   18.5470 C   0  0  0  0  0  2  0  0  0  0  0  0
  -27.5860  -13.2460   19.8340 C   0  0  0  0  0  3  0  0  0  0  0  0
  -28.6350  -12.9680   20.9360 C   0  0  0  0  0  2  0  0  0  0  0  0
  -29.9680  -13.2930   20.3930 N   0  0  0  0  0  0  0  0  0  0  0  0
  -31.6890  -14.7490   20.0090 O   0  0  0  0  0  0  0  0  0  0  0  0
  -29.9690  -15.3790   21.3140 N   0  0  0  0  0  0  0  0  0  0  0  0
  -29.1390  -15.0460   21.7830 H   0  0  0  0  0  0  0  0  0  0  0  0
  -25.1810  -13.8480   20.5400 C   0  0  0  0  0  0  0  0  0  0  0  0
  -24.1150  -13.0740   20.9130 C   0  0  0  0  0  0  0  0  0  0  0  0
  -24.5800  -11.7230   20.8800 C   0  0  0  0  0  0  0  0  0  0  0  0
  -26.2280  -12.9690   20.3050 N   0  0  0  0  0  0  0  0  0  0  0  0
  -25.8680  -11.6870   20.5630 N   0  0  0  0  0  0  0  0  0  0  0  0
  -23.8600  -10.4580   21.0760 C   0  0  0  0  0  0  0  0  0  0  0  0
  -24.3120   -9.4860   21.9960 C   0  0  0  0  0  3  0  0  0  0  0  0
  -23.5910   -8.2840   22.1770 C   0  0  0  0  0  3  0  0  0  0  0  0
  -22.4060   -8.0490   21.4410 C   0  0  0  0  0  0  0  0  0  0  0  0
  -21.9760   -9.0100   20.5090 C   0  0  0  0  0  3  0  0  0  0  0  0
  -22.6980  -10.2010   20.3240 C   0  0  0  0  0  3  0  0  0  0  0  0
  -21.6570   -6.9000   21.5310 O   0  0  0  0  0  0  0  0  0  0  0  0
  -21.6440   -6.1390   22.6710 C   0  0  0  0  0  0  0  0  0  0  0  0
  -21.2610   -6.6730   23.9210 C   0  0  0  0  0  3  0  0  0  0  0  0
  -21.1950   -5.8370   25.0550 C   0  0  0  0  0  3  0  0  0  0  0  0
  -21.5030   -4.4670   24.9390 C   0  0  0  0  0  0  0  0  0  0  0  0
  -21.8800   -3.9330   23.6940 C   0  0  0  0  0  3  0  0  0  0  0  0
  -21.9480   -4.7660   22.5640 C   0  0  0  0  0  0  0  0  0  0  0  0
  -22.2920   -4.2430   21.3630 F   0  0  0  0  0  0  0  0  0  0  0  0
  -21.4310   -3.6620   26.0240 F   0  0  0  0  0  0  0  0  0  0  0  0
  -22.7160  -13.5480   21.1860 C   0  0  0  0  0  0  0  0  0  0  0  0
  -21.9920  -12.8510   22.0550 N   0  0  0  0  0  0  0  0  0  0  0  0
  -22.2740  -14.5700   20.6650 O   0  0  0  0  0  0  0  0  0  0  0  0
  -22.3660  -12.0320   22.5120 H   0  0  0  0  0  0  0  0  0  0  0  0
  -21.0500  -13.1420   22.2680 H   0  0  0  0  0  0  0  0  0  0  0  0
  -25.3400  -15.2180   20.3610 N   0  0  0  0  0  0  0  0  0  0  0  0
  -24.5650  -15.8640   20.4600 H   0  0  0  0  0  0  0  0  0  0  0  0
  -26.1830  -15.6540   20.0090 H   0  0  0  0  0  0  0  0  0  0  0  0
  -28.9300  -24.9330   18.5250 C   0  0  0  0  0  2  0  0  0  0  0  0
  -28.7810  -26.4630   18.7170 C   0  0  0  0  0  2  0  0  0  0  0  0
  -28.4210  -26.8100   20.0590 O   0  0  0  0  0  0  0  0  0  0  0  0
  -24.5900  -31.8980   23.2730 C   0  0  0  0  0  0  0  0  0  0  0  0
  -27.2340  -27.4940   20.1550 C   0  0  0  0  0  0  0  0  0  0  0  0
  -23.3820  -30.5010   21.6260 C   0  0  0  0  0  3  0  0  0  0  0  0
  -24.8320  -28.9700   20.2020 C   0  0  0  0  0  0  0  0  0  0  0  0
  -25.9040  -30.8690   21.4230 C   0  0  0  0  0  2  0  0  0  0  0  0
  -25.9890  -29.4960   20.7910 C   0  0  0  0  0  0  0  0  0  0  0  0
  -27.1940  -28.7590   20.7780 C   0  0  0  0  0  3  0  0  0  0  0  0
  -26.0500  -26.9570   19.6020 C   0  0  0  0  0  3  0  0  0  0  0  0
  -24.8540  -27.6950   19.6120 C   0  0  0  0  0  3  0  0  0  0  0  0
  -23.5890  -29.8280   20.2450 C   0  0  0  0  0  2  0  0  0  0  0  0
  -24.6450  -31.1030   22.1670 N   0  0  0  0  0  0  0  0  0  0  0  0
  -23.5090  -32.1620   23.8180 O   0  0  0  0  0  0  0  0  0  0  0  0
  -22.7340  -29.4720   22.5840 C   0  0  0  0  0  0  0  0  0  0  0  0
  -21.4100  -29.2870   22.4560 N   0  0  0  0  0  0  0  0  0  0  0  0
  -23.4210  -28.8480   23.3960 O   0  0  0  0  0  0  0  0  0  0  0  0
  -20.9160  -29.8420   21.7720 H   0  0  0  0  0  0  0  0  0  0  0  0
  -18.0450  -28.0670   22.9430 C   0  0  0  0  0  0  0  0  0  0  0  0
  -20.5990  -28.3460   23.2280 C   0  0  0  0  0  3  0  0  0  0  0  0
  -20.7160  -26.9130   22.6590 C   0  0  0  0  0  2  0  0  0  0  0  0
  -19.6230  -26.5770   21.6400 C   0  0  0  0  0  2  0  0  0  0  0  0
  -18.2350  -26.7150   22.2760 C   0  0  0  0  0  2  0  0  0  0  0  0
  -19.1540  -28.8390   23.3780 C   0  0  0  0  0  0  0  0  0  0  0  0
  -18.9230  -30.1010   23.9650 C   0  0  0  0  0  3  0  0  0  0  0  0
  -17.6140  -30.5950   24.1170 C   0  0  0  0  0  3  0  0  0  0  0  0
  -16.5190  -29.8220   23.6980 C   0  0  0  0  0  3  0  0  0  0  0  0
  -16.7330  -28.5580   23.1180 C   0  0  0  0  0  3  0  0  0  0  0  0
  -25.8780  -32.5300   23.8890 C   0  0  0  0  0  3  0  0  0  0  0  0
  -25.5710  -33.9300   24.2130 N   0  0  0  0  0  0  0  0  0  0  0  0
  -25.9040  -34.9770   23.4460 C   0  0  0  0  0  0  0  0  0  0  0  0
  -26.5750  -34.8670   22.4150 O   0  0  0  0  0  0  0  0  0  0  0  0
  -24.9790  -34.0910   25.0150 H   0  0  0  0  0  0  0  0  0  0  0  0
  -24.1800  -36.7700   23.0750 C   0  0  0  0  0  1  0  0  0  0  0  0
  -25.4200  -36.3700   23.8920 C   0  0  0  0  0  3  0  0  0  0  0  0
  -27.5570  -37.2520   24.7190 C   0  0  0  0  0  1  0  0  0  0  0  0
  -26.4540  -37.4210   23.7730 N   0  0  0  0  0  0  0  0  0  0  0  0
  -26.0500  -38.3410   23.9210 H   0  0  0  0  0  0  0  0  0  0  0  0
  -26.3960  -31.7640   25.1680 C   0  0  1  0  0  0  0  0  0  0  0  0
  -25.3060  -31.5310   26.2390 C   0  0  0  0  0  1  0  0  0  0  0  0
  -26.9730  -30.3830   24.7780 C   0  0  0  0  0  1  0  0  0  0  0  0
  -27.5540  -32.5550   25.8210 C   0  0  0  0  0  1  0  0  0  0  0  0
  2  4  1  0
  2  1  1  0
  3  1  1  0
  4  8  1  0
  4  5  1  0
  5  3  1  0
  5  6  1  1
  7  9  1  0
  7  8  2  0
  8 10  1  0
  9 12  1  0
 10 11  1  0
 12 14  1  0
 12 11  1  0
 12 13  1  1
 14 15  1  0
 16 24  1  0
 17 22  1  0
 18 19  1  0
 18 17  1  0
 20 19  1  0
 20 29  1  0
 20 21  1  0
 22 16  1  0
 22 21  1  0
 23 16  2  0
 24 15  1  0
 24 25  1  0
 26 27  2  0
 27 46  1  0
 28 27  1  0
 28 31  1  0
 29 26  1  0
 29 30  1  0
 30 28  2  0
 31 32  1  0
 32 33  2  0
 34 37  1  0
 34 33  1  0
 35 34  2  0
 36 35  1  0
 36 31  2  0
 37 38  1  0
 38 39  1  0
 39 40  2  0
 41 40  1  0
 41 45  1  0
 42 41  2  0
 43 38  2  0
 43 42  1  0
 44 43  1  0
 46 47  1  0
 47 50  1  0
 47 49  1  0
 48 46  2  0
 51 52  1  0
 51 26  1  0
 53 51  1  0
 54 55  1  0
 54  5  1  0
 55 56  1  0
 56 58  1  0
 57 68  2  0
 58 63  1  0
 59 67  1  0
 59 69  1  0
 60 66  1  0
 60 62  1  0
 61 67  1  0
 62 61  1  0
 63 62  2  0
 64 65  1  0
 64 58  2  0
 65 60  2  0
 66 59  1  0
 67 57  1  0
 69 71  2  0
 70 69  1  0
 72 70  1  0
 73 82  2  0
 73 78  1  0
 74 70  1  0
 74 78  1  0
 75 74  1  0
 76 77  1  0
 76 75  1  0
 77 73  1  0
 78 79  2  0
 79 80  1  0
 81 80  2  0
 82 81  1  0
 83 57  1  0
 83 84  1  0
 83 93  1  0
 84 87  1  0
 85 89  1  0
 85 84  1  0
 86 85  2  0
 89 88  1  0
 91 89  1  0
 91 92  1  0
 91 90  1  0
 93 96  1  1
 93 94  1  0
 95 93  1  0
M  ISO  4  16 100  24 100  55 101  56 101
M  END
>  <TORSDO>  (26) 
F 21

>  <SCORE>  (26) 
-13.542

>  <name>  (26) 
25

>  <ligand_id>  (26) 
25

>  <original_smiles>  (26) 
[H]C1=C(C2([H])C([H])([H])C([H])([H])C([H])([H])[N+]2([H])C([H])([H])C([H])([H])Oc2c([H])c([H])c3c(c2[H])C([H])([H])N(C(=O)C([H])(N([H])C(=O)C([H])(N([H])C([H])([H])[H])C([H])([H])[H])C(C([H])([H])[H])(C([H])([H])[H])C([H])([H])[H])C([H])(C(=O)N([H])C2([H])c4c([H])c([H])c([H])c([H])c4C([H])([H])C([H])([H])C2([H])[H])C3([H])[H])C([H])([H])C([H])([H])[N+]([H])(C([H])([H])C([H])([H])N([H])C(=O)N2C([H])([H])C([H])([H])C([H])([H])C([H])(n3nc(-c4c([H])c([H])c(Oc5c([H])c([H])c(F)c([H])c5F)c([H])c4[H])c(C(=O)N([H])[H])c3N([H])[H])C2([H])[H])C1([H])[H]

>  <smiles>  (26) 
[H]C1=C(C2([H])C([H])([H])C([H])([H])C([H])([H])[N+]2([H])C([H])([H])C([H])([H])Oc2c([H])c([H])c3c(c2[H])C([H])([H])N(C(=O)C([H])(N([H])C(=O)C([H])(N([H])C([H])([H])[H])C([H])([H])[H])C(C([H])([H])[H])(C([H])([H])[H])C([H])([H])[H])C([H])(C(=O)N([H])C2([H])c4c([H])c([H])c([H])c([H])c4C([H])([H])C([H])([H])C2([H])[H])C3([H])[H])C([H])([H])C([H])([H])[N+]([H])(C([H])([H])C([H])([H])N([H])C(=O)N2C([H])([H])C([H])([H])C([H])([H])C([H])(n3nc(-c4c([H])c([H])c(Oc5c([H])c([H])c(F)c([H])c5F)c([H])c4[H])c(C(=O)N([H])[H])c3N([H])[H])C2([H])[H])C1([H])[H]

$$$$
26:0:0
     RDKit          3D

 94102  0  0  1  0  0  0  0  0999 V2000
  -30.0580  -22.2060   20.1530 C   0  0  0  0  0  0  0  0  0  0  0  0
  -30.0880  -23.3520   19.4260 N   0  0  0  0  0  0  0  0  0  0  0  0
  -29.6700  -22.2030   21.3210 O   0  0  0  0  0  0  0  0  0  0  0  0
  -30.3840  -23.2880   18.4580 H   0  0  0  0  0  0  0  0  0  0  0  0
  -30.2770  -20.7570   18.0160 C   0  0  0  0  0  1  0  0  0  0  0  0
  -30.6200  -20.8950   19.5160 C   0  0  0  0  0  3  0  0  0  0  0  0
  -31.3300  -17.6420   21.4180 C   0  0  0  0  0  2  0  0  0  0  0  0
  -29.0280  -17.5040   20.3140 C   0  0  0  0  0  2  0  0  0  0  0  0
  -31.1450  -19.1940   21.4170 C   0  0  0  0  0  2  0  0  0  0  0  0
  -28.9800  -19.0560   20.3270 C   0  0  0  0  0  2  0  0  0  0  0  0
  -29.9660  -16.8880   21.3860 C   0  0  0  0  0  3  0  0  0  0  0  0
  -30.3660  -19.5770   20.2090 N   0  0  1  0  0  4  0  0  0  0  0  0
  -30.7750  -18.9660   19.5220 H   0  0  0  0  0  0  0  0  0  0  0  0
  -30.6340  -14.5150   20.4840 C   0  0  0  0  0  0  0  0  0  0  0  0
  -30.3440  -12.3780   19.2500 C   0  0  0  0  0  2  0  0  0  0  0  0
  -29.3680  -12.5690   18.0690 C   0  0  0  0  0  2  0  0  0  0  0  0
  -27.9040  -12.4090   18.5260 C   0  0  0  0  0  2  0  0  0  0  0  0
  -27.5880  -13.2420   19.7970 C   0  0  0  0  0  3  0  0  0  0  0  0
  -28.6600  -12.9910   20.8830 C   0  0  0  0  0  2  0  0  0  0  0  0
  -29.9820  -13.3270   20.3160 N   0  0  0  0  0  0  0  0  0  0  0  0
  -31.6780  -14.7920   19.8850 O   0  0  0  0  0  0  0  0  0  0  0  0
  -29.9820  -15.4030   21.2800 N   0  0  0  0  0  0  0  0  0  0  0  0
  -29.2140  -14.9570   21.7660 H   0  0  0  0  0  0  0  0  0  0  0  0
  -25.2040  -13.8610   20.5500 C   0  0  0  0  0  0  0  0  0  0  0  0
  -24.1410  -13.0930   20.9380 C   0  0  0  0  0  0  0  0  0  0  0  0
  -24.5930  -11.7380   20.8900 C   0  0  0  0  0  0  0  0  0  0  0  0
  -26.2410  -12.9760   20.2940 N   0  0  0  0  0  0  0  0  0  0  0  0
  -25.8750  -11.6950   20.5560 N   0  0  0  0  0  0  0  0  0  0  0  0
  -23.8630  -10.4800   21.0850 C   0  0  0  0  0  0  0  0  0  0  0  0
  -24.3290   -9.4920   21.9790 C   0  0  0  0  0  3  0  0  0  0  0  0
  -23.6060   -8.2960   22.1660 C   0  0  0  0  0  3  0  0  0  0  0  0
  -22.4010   -8.0760   21.4540 C   0  0  0  0  0  0  0  0  0  0  0  0
  -21.9550   -9.0510   20.5460 C   0  0  0  0  0  3  0  0  0  0  0  0
  -22.6780  -10.2420   20.3590 C   0  0  0  0  0  3  0  0  0  0  0  0
  -21.6450   -6.9320   21.5490 O   0  0  0  0  0  0  0  0  0  0  0  0
  -21.6500   -6.1550   22.6810 C   0  0  0  0  0  0  0  0  0  0  0  0
  -21.3130   -6.6790   23.9470 C   0  0  0  0  0  3  0  0  0  0  0  0
  -21.2670   -5.8320   25.0710 C   0  0  0  0  0  3  0  0  0  0  0  0
  -21.5520   -4.4600   24.9320 C   0  0  0  0  0  0  0  0  0  0  0  0
  -21.8850   -3.9350   23.6710 C   0  0  0  0  0  3  0  0  0  0  0  0
  -21.9330   -4.7820   22.5500 C   0  0  0  0  0  0  0  0  0  0  0  0
  -22.2340   -4.2670   21.3320 F   0  0  0  0  0  0  0  0  0  0  0  0
  -21.5010   -3.6430   26.0100 F   0  0  0  0  0  0  0  0  0  0  0  0
  -22.7530  -13.5730   21.2480 C   0  0  0  0  0  0  0  0  0  0  0  0
  -22.0390  -12.8720   22.1240 N   0  0  0  0  0  0  0  0  0  0  0  0
  -22.3080  -14.6050   20.7450 O   0  0  0  0  0  0  0  0  0  0  0  0
  -22.4150  -12.0420   22.5590 H   0  0  0  0  0  0  0  0  0  0  0  0
  -21.1090  -13.1760   22.3750 H   0  0  0  0  0  0  0  0  0  0  0  0
  -25.3740  -15.2320   20.3760 N   0  0  0  0  0  0  0  0  0  0  0  0
  -24.6140  -15.8930   20.4920 H   0  0  0  0  0  0  0  0  0  0  0  0
  -26.2170  -15.6540   20.0060 H   0  0  0  0  0  0  0  0  0  0  0  0
  -29.9030  -24.7270   19.9360 C   0  0  0  0  0  2  0  0  0  0  0  0
  -28.4760  -25.3300   19.7430 C   0  0  0  0  0  2  0  0  0  0  0  0
  -28.4330  -26.7180   20.1440 O   0  0  0  0  0  0  0  0  0  0  0  0
  -24.5810  -31.8850   23.2240 C   0  0  0  0  0  0  0  0  0  0  0  0
  -27.2290  -27.4090   20.1440 C   0  0  0  0  0  0  0  0  0  0  0  0
  -23.3680  -30.4780   21.5900 C   0  0  0  0  0  3  0  0  0  0  0  0
  -24.8160  -28.9150   20.1820 C   0  0  0  0  0  0  0  0  0  0  0  0
  -25.8960  -30.8240   21.3820 C   0  0  0  0  0  2  0  0  0  0  0  0
  -25.9800  -29.4460   20.7510 C   0  0  0  0  0  0  0  0  0  0  0  0
  -27.1830  -28.7000   20.7280 C   0  0  0  0  0  3  0  0  0  0  0  0
  -26.0350  -26.8890   19.5870 C   0  0  0  0  0  3  0  0  0  0  0  0
  -24.8390  -27.6350   19.6020 C   0  0  0  0  0  3  0  0  0  0  0  0
  -23.5760  -29.7810   20.2190 C   0  0  0  0  0  2  0  0  0  0  0  0
  -24.6360  -31.0780   22.1260 N   0  0  0  0  0  0  0  0  0  0  0  0
  -23.5040  -32.1630   23.7670 O   0  0  0  0  0  0  0  0  0  0  0  0
  -22.7140  -29.4690   22.5610 C   0  0  0  0  0  0  0  0  0  0  0  0
  -21.3890  -29.2870   22.4350 N   0  0  0  0  0  0  0  0  0  0  0  0
  -23.3950  -28.8500   23.3820 O   0  0  0  0  0  0  0  0  0  0  0  0
  -20.9030  -29.8400   21.7430 H   0  0  0  0  0  0  0  0  0  0  0  0
  -18.0160  -28.0850   22.9190 C   0  0  0  0  0  0  0  0  0  0  0  0
  -20.5700  -28.3550   23.2070 C   0  0  0  0  0  3  0  0  0  0  0  0
  -20.6810  -26.9170   22.6500 C   0  0  0  0  0  2  0  0  0  0  0  0
  -19.5910  -26.5810   21.6260 C   0  0  0  0  0  2  0  0  0  0  0  0
  -18.2020  -26.7310   22.2540 C   0  0  0  0  0  2  0  0  0  0  0  0
  -19.1290  -28.8540   23.3520 C   0  0  0  0  0  0  0  0  0  0  0  0
  -18.9030  -30.1210   23.9330 C   0  0  0  0  0  3  0  0  0  0  0  0
  -17.5950  -30.6190   24.0840 C   0  0  0  0  0  3  0  0  0  0  0  0
  -16.4950  -29.8480   23.6680 C   0  0  0  0  0  3  0  0  0  0  0  0
  -16.7070  -28.5810   23.0920 C   0  0  0  0  0  3  0  0  0  0  0  0
  -25.8710  -32.5180   23.8400 C   0  0  0  0  0  3  0  0  0  0  0  0
  -26.3950  -31.7450   25.1110 C   0  0  1  0  0  0  0  0  0  0  0  0
  -25.3090  -31.5150   26.1890 C   0  0  0  0  0  1  0  0  0  0  0  0
  -26.9690  -30.3660   24.7150 C   0  0  0  0  0  1  0  0  0  0  0  0
  -27.5620  -32.5310   25.7550 C   0  0  0  0  0  1  0  0  0  0  0  0
  -25.5640  -33.9160   24.1740 N   0  0  0  0  0  0  0  0  0  0  0  0
  -25.8970  -34.9700   23.4170 C   0  0  0  0  0  0  0  0  0  0  0  0
  -26.5630  -34.8640   22.3830 O   0  0  0  0  0  0  0  0  0  0  0  0
  -24.9710  -34.0700   24.9770 H   0  0  0  0  0  0  0  0  0  0  0  0
  -24.1680  -36.7620   23.0680 C   0  0  0  0  0  1  0  0  0  0  0  0
  -25.4130  -36.3590   23.8750 C   0  0  0  0  0  3  0  0  0  0  0  0
  -27.5620  -37.2310   24.6860 C   0  0  0  0  0  1  0  0  0  0  0  0
  -26.4470  -37.4110   23.7580 N   0  0  0  0  0  0  0  0  0  0  0  0
  -26.0460  -38.3310   23.9180 H   0  0  0  0  0  0  0  0  0  0  0  0
  1  3  2  0
  2 52  1  0
  2  1  1  0
  4  2  1  0
  6  5  1  0
  6  1  1  0
  6 12  1  0
  8 10  1  0
  8 11  1  0
  9  7  1  0
 11 22  1  0
 11  7  1  0
 12 10  1  0
 12  9  1  0
 12 13  1  6
 14 22  1  0
 15 20  1  0
 16 17  1  0
 16 15  1  0
 18 17  1  0
 18 27  1  0
 18 19  1  0
 20 14  1  0
 20 19  1  0
 21 14  2  0
 22 23  1  0
 24 25  2  0
 25 44  1  0
 26 25  1  0
 26 29  1  0
 27 24  1  0
 27 28  1  0
 28 26  2  0
 29 30  1  0
 30 31  2  0
 32 35  1  0
 32 31  1  0
 33 32  2  0
 34 33  1  0
 34 29  2  0
 35 36  1  0
 36 37  1  0
 37 38  2  0
 39 38  1  0
 39 43  1  0
 40 39  2  0
 41 36  2  0
 41 40  1  0
 42 41  1  0
 44 45  1  0
 45 48  1  0
 45 47  1  0
 46 44  2  0
 49 50  1  0
 49 24  1  0
 51 49  1  0
 53 52  1  0
 53 54  1  0
 54 56  1  0
 55 66  2  0
 56 61  1  0
 57 65  1  0
 57 67  1  0
 58 64  1  0
 58 60  1  0
 59 65  1  0
 60 59  1  0
 61 60  2  0
 62 63  1  0
 62 56  2  0
 63 58  2  0
 64 57  1  0
 65 55  1  0
 67 69  2  0
 68 67  1  0
 70 68  1  0
 71 80  2  0
 71 76  1  0
 72 68  1  0
 72 76  1  0
 73 72  1  0
 74 75  1  0
 74 73  1  0
 75 71  1  0
 76 77  2  0
 77 78  1  0
 79 78  2  0
 80 79  1  0
 81 55  1  0
 81 86  1  0
 81 82  1  0
 82 85  1  1
 82 83  1  0
 84 82  1  0
 86 89  1  0
 87 91  1  0
 87 86  1  0
 88 87  2  0
 91 90  1  0
 93 91  1  0
 93 94  1  0
 93 92  1  0
M  ISO  4  14 100  22 100  53 101  54 101
M  END
>  <TORSDO>  (27) 
F 20

>  <SCORE>  (27) 
-14.154

>  <name>  (27) 
26

>  <ligand_id>  (27) 
26

>  <original_smiles>  (27) 
[H]c1c([H])c([H])c2c(c1[H])C([H])([H])C([H])([H])C([H])([H])C2([H])N([H])C(=O)C1([H])N(C(=O)C([H])(N([H])C(=O)C([H])(N([H])C([H])([H])[H])C([H])([H])[H])C(C([H])([H])[H])(C([H])([H])[H])C([H])([H])[H])C([H])([H])c2c([H])c(OC([H])([H])C([H])([H])N([H])C(=O)C([H])(C([H])([H])[H])[N+]3([H])C([H])([H])C([H])([H])C([H])(N([H])C(=O)N4C([H])([H])C([H])([H])C([H])([H])C([H])(n5nc(-c6c([H])c([H])c(Oc7c([H])c([H])c(F)c([H])c7F)c([H])c6[H])c(C(=O)N([H])[H])c5N([H])[H])C4([H])[H])C([H])([H])C3([H])[H])c([H])c([H])c2C1([H])[H]

>  <smiles>  (27) 
[H]c1c([H])c([H])c2c(c1[H])C([H])([H])C([H])([H])C([H])([H])C2([H])N([H])C(=O)C1([H])N(C(=O)C([H])(N([H])C(=O)C([H])(N([H])C([H])([H])[H])C([H])([H])[H])C(C([H])([H])[H])(C([H])([H])[H])C([H])([H])[H])C([H])([H])c2c([H])c(OC([H])([H])C([H])([H])N([H])C(=O)C([H])(C([H])([H])[H])[N+]3([H])C([H])([H])C([H])([H])C([H])(N([H])C(=O)N4C([H])([H])C([H])([H])C([H])([H])C([H])(n5nc(-c6c([H])c([H])c(Oc7c([H])c([H])c(F)c([H])c7F)c([H])c6[H])c(C(=O)N([H])[H])c5N([H])[H])C4([H])[H])C([H])([H])C3([H])[H])c([H])c([H])c2C1([H])[H]

$$$$
27:0:0
     RDKit          3D

 96104  0  0  1  0  0  0  0  0999 V2000
  -28.5020  -23.3740   20.4000 C   0  0  0  0  0  3  0  0  0  0  0  0
  -30.0150  -20.8950   20.1230 C   0  0  0  0  0  2  0  0  0  0  0  0
  -27.7130  -20.8930   19.8000 C   0  0  0  0  0  2  0  0  0  0  0  0
  -29.6370  -19.2950   20.4020 C   0  0  0  0  0  3  0  0  0  0  0  0
  -28.0900  -19.4570   20.3410 C   0  0  0  0  0  3  0  0  0  0  0  0
  -28.8080  -21.8480   20.0480 N   0  0  0  0  0  0  0  0  0  0  0  0
  -27.5040  -19.2910   21.6880 N   0  0  0  0  0  4  0  0  0  0  0  0
  -26.5010  -19.3330   21.6610 H   0  0  0  0  0  0  0  0  0  0  0  0
  -27.8290  -20.0240   22.2930 H   0  0  0  0  0  0  0  0  0  0  0  0
  -27.7670  -18.4090   22.0910 H   0  0  0  0  0  0  0  0  0  0  0  0
  -30.3890  -17.9050   19.7230 C   0  0  0  0  0  2  0  0  0  0  0  0
  -30.9470  -15.1630   19.7080 C   0  0  0  0  0  0  0  0  0  0  0  0
  -30.7040  -12.8440   18.6810 C   0  0  0  0  0  2  0  0  0  0  0  0
  -29.6570  -12.8570   17.5420 C   0  0  0  0  0  2  0  0  0  0  0  0
  -28.2380  -12.6490   18.0990 C   0  0  0  0  0  2  0  0  0  0  0  0
  -27.9690  -13.5330   19.3490 C   0  0  0  0  0  3  0  0  0  0  0  0
  -29.1240  -13.4770   20.3740 C   0  0  0  0  0  2  0  0  0  0  0  0
  -30.3400  -13.9070   19.6720 N   0  0  0  0  0  0  0  0  0  0  0  0
  -32.0890  -15.2290   19.2330 O   0  0  0  0  0  0  0  0  0  0  0  0
  -30.2300  -16.3470   20.0820 N   0  0  0  0  0  0  0  0  0  0  0  0
  -29.3450  -16.1090   20.5170 H   0  0  0  0  0  0  0  0  0  0  0  0
  -25.7130  -14.1280   20.3930 C   0  0  0  0  0  0  0  0  0  0  0  0
  -24.6580  -13.3660   20.8050 C   0  0  0  0  0  0  0  0  0  0  0  0
  -25.0530  -12.0070   20.6120 C   0  0  0  0  0  0  0  0  0  0  0  0
  -26.6790  -13.2360   19.9610 N   0  0  0  0  0  0  0  0  0  0  0  0
  -26.3030  -11.9470   20.1600 N   0  0  0  0  0  0  0  0  0  0  0  0
  -24.2900  -10.7630   20.7840 C   0  0  0  0  0  0  0  0  0  0  0  0
  -24.6820   -9.7770   21.7150 C   0  0  0  0  0  3  0  0  0  0  0  0
  -23.9240   -8.5960   21.8750 C   0  0  0  0  0  3  0  0  0  0  0  0
  -22.7560   -8.3990   21.1040 C   0  0  0  0  0  0  0  0  0  0  0  0
  -22.3770   -9.3730   20.1610 C   0  0  0  0  0  3  0  0  0  0  0  0
  -23.1360  -10.5440   20.0010 C   0  0  0  0  0  3  0  0  0  0  0  0
  -21.9690   -7.2750   21.1750 O   0  0  0  0  0  0  0  0  0  0  0  0
  -21.7620   -6.6090   22.3570 C   0  0  0  0  0  0  0  0  0  0  0  0
  -21.2050   -7.2520   23.4850 C   0  0  0  0  0  3  0  0  0  0  0  0
  -20.9460   -6.5160   24.6580 C   0  0  0  0  0  3  0  0  0  0  0  0
  -21.2380   -5.1390   24.7030 C   0  0  0  0  0  0  0  0  0  0  0  0
  -21.7830   -4.4970   23.5800 C   0  0  0  0  0  3  0  0  0  0  0  0
  -22.0430   -5.2310   22.4070 C   0  0  0  0  0  0  0  0  0  0  0  0
  -22.5550   -4.6040   21.3210 F   0  0  0  0  0  0  0  0  0  0  0  0
  -20.9760   -4.4280   25.8240 F   0  0  0  0  0  0  0  0  0  0  0  0
  -23.3220  -13.8760   21.2610 C   0  0  0  0  0  0  0  0  0  0  0  0
  -22.6720  -13.1580   22.1710 N   0  0  0  0  0  0  0  0  0  0  0  0
  -22.8650  -14.9430   20.8540 O   0  0  0  0  0  0  0  0  0  0  0  0
  -23.0610  -12.3030   22.5430 H   0  0  0  0  0  0  0  0  0  0  0  0
  -21.7750  -13.4810   22.5080 H   0  0  0  0  0  0  0  0  0  0  0  0
  -25.9270  -15.5000   20.3240 N   0  0  0  0  0  0  0  0  0  0  0  0
  -25.2210  -16.1680   20.6190 H   0  0  0  0  0  0  0  0  0  0  0  0
  -26.7690  -15.9370   19.9740 H   0  0  0  0  0  0  0  0  0  0  0  0
  -28.9780  -23.6770   21.8490 C   0  0  0  0  0  2  0  0  0  0  0  0
  -27.9970  -24.4530   22.6470 N   0  0  0  0  0  4  0  0  0  0  0  0
  -27.9060  -25.3930   22.3050 H   0  0  0  0  0  0  0  0  0  0  0  0
  -28.2970  -24.5160   23.6060 H   0  0  0  0  0  0  0  0  0  0  0  0
  -27.0830  -24.0300   22.6650 H   0  0  0  0  0  0  0  0  0  0  0  0
  -28.5520  -24.7590   19.4110 C   0  0  0  0  0  2  0  0  0  0  0  0
  -28.4680  -26.2850   19.7870 O   0  0  0  0  0  0  0  0  0  0  0  0
  -24.5440  -31.5710   22.9930 C   0  0  0  0  0  0  0  0  0  0  0  0
  -27.3410  -27.1820   19.7060 C   0  0  0  0  0  0  0  0  0  0  0  0
  -23.3920  -30.1500   21.3380 C   0  0  0  0  0  3  0  0  0  0  0  0
  -24.8970  -28.7630   19.7830 C   0  0  0  0  0  0  0  0  0  0  0  0
  -25.9050  -30.6320   21.0860 C   0  0  0  0  0  2  0  0  0  0  0  0
  -26.0600  -29.2730   20.3770 C   0  0  0  0  0  0  0  0  0  0  0  0
  -27.2760  -28.5000   20.3170 C   0  0  0  0  0  3  0  0  0  0  0  0
  -26.1500  -26.7800   19.0630 C   0  0  0  0  0  3  0  0  0  0  0  0
  -24.9580  -27.5360   19.1050 C   0  0  0  0  0  3  0  0  0  0  0  0
  -23.6080  -29.5570   19.9180 C   0  0  0  0  0  2  0  0  0  0  0  0
  -24.6330  -30.8060   21.8600 N   0  0  0  0  0  0  0  0  0  0  0  0
  -23.4610  -31.7380   23.5750 O   0  0  0  0  0  0  0  0  0  0  0  0
  -22.8430  -29.0470   22.2790 C   0  0  0  0  0  0  0  0  0  0  0  0
  -21.5310  -28.7600   22.1900 N   0  0  0  0  0  0  0  0  0  0  0  0
  -23.5980  -28.4520   23.0520 O   0  0  0  0  0  0  0  0  0  0  0  0
  -20.9730  -29.3000   21.5430 H   0  0  0  0  0  0  0  0  0  0  0  0
  -18.2900  -27.2490   22.7610 C   0  0  0  0  0  0  0  0  0  0  0  0
  -20.8260  -27.7230   22.9470 C   0  0  0  0  0  3  0  0  0  0  0  0
  -21.0290  -26.3290   22.3110 C   0  0  0  0  0  2  0  0  0  0  0  0
  -19.9190  -25.9510   21.3240 C   0  0  0  0  0  2  0  0  0  0  0  0
  -18.5560  -25.9490   22.0210 C   0  0  0  0  0  2  0  0  0  0  0  0
  -19.3560  -28.0900   23.1820 C   0  0  0  0  0  0  0  0  0  0  0  0
  -19.0510  -29.3040   23.8390 C   0  0  0  0  0  3  0  0  0  0  0  0
  -17.7160  -29.6800   24.0770 C   0  0  0  0  0  3  0  0  0  0  0  0
  -16.6670  -28.8380   23.6700 C   0  0  0  0  0  3  0  0  0  0  0  0
  -16.9550  -27.6260   23.0180 C   0  0  0  0  0  3  0  0  0  0  0  0
  -25.7910  -32.2860   23.5940 C   0  0  0  0  0  3  0  0  0  0  0  0
  -25.3760  -33.6310   24.0190 N   0  0  0  0  0  0  0  0  0  0  0  0
  -25.5860  -34.7520   23.3190 C   0  0  0  0  0  0  0  0  0  0  0  0
  -26.2220  -34.7690   22.2610 O   0  0  0  0  0  0  0  0  0  0  0  0
  -24.8030  -33.6850   24.8490 H   0  0  0  0  0  0  0  0  0  0  0  0
  -23.7030  -36.4130   23.1400 C   0  0  0  0  0  1  0  0  0  0  0  0
  -25.0040  -36.0650   23.8810 C   0  0  0  0  0  3  0  0  0  0  0  0
  -27.0830  -37.0830   24.6990 C   0  0  0  0  0  1  0  0  0  0  0  0
  -25.9390  -37.2070   23.8000 N   0  0  0  0  0  0  0  0  0  0  0  0
  -25.4620  -38.0800   24.0130 H   0  0  0  0  0  0  0  0  0  0  0  0
  -26.4250  -31.5000   24.8090 C   0  0  1  0  0  0  0  0  0  0  0  0
  -25.4040  -31.1060   25.9020 C   0  0  0  0  0  1  0  0  0  0  0  0
  -27.1190  -30.2060   24.3270 C   0  0  0  0  0  1  0  0  0  0  0  0
  -27.5230  -32.3650   25.4740 C   0  0  0  0  0  1  0  0  0  0  0  0
  1 55  1  0
  1 50  1  0
  2  4  1  0
  3  6  1  0
  3  5  1  0
  4 11  1  0
  5  4  1  0
  5  7  1  0
  6  2  1  0
  6  1  1  0
  7 10  1  0
  7  9  1  0
  8  7  1  0
 11 20  1  0
 12 20  1  0
 13 18  1  0
 14 15  1  0
 14 13  1  0
 16 15  1  0
 16 25  1  0
 16 17  1  0
 18 12  1  0
 18 17  1  0
 19 12  2  0
 20 21  1  0
 22 23  2  0
 23 42  1  0
 24 27  1  0
 24 23  1  0
 25 26  1  0
 25 22  1  0
 26 24  2  0
 27 28  1  0
 28 29  2  0
 30 33  1  0
 30 29  1  0
 31 30  2  0
 32 31  1  0
 32 27  2  0
 33 34  1  0
 34 39  2  0
 34 35  1  0
 35 36  2  0
 36 37  1  0
 37 41  1  0
 38 37  2  0
 39 38  1  0
 40 39  1  0
 42 43  1  0
 43 46  1  0
 43 45  1  0
 44 42  2  0
 47 22  1  0
 47 48  1  0
 49 47  1  0
 50 51  1  0
 51 54  1  0
 51 53  1  0
 52 51  1  0
 55 56  1  0
 57 68  2  0
 58 56  1  0
 58 63  1  0
 59 67  1  0
 59 69  1  0
 60 66  1  0
 60 62  1  0
 61 67  1  0
 62 61  1  0
 63 62  2  0
 64 65  1  0
 64 58  2  0
 65 60  2  0
 66 59  1  0
 67 57  1  0
 69 71  2  0
 70 69  1  0
 72 70  1  0
 73 82  2  0
 73 78  1  0
 74 70  1  0
 74 78  1  0
 75 74  1  0
 76 77  1  0
 76 75  1  0
 77 73  1  0
 78 79  2  0
 79 80  1  0
 81 80  2  0
 82 81  1  0
 83 57  1  0
 83 84  1  0
 83 93  1  0
 84 87  1  0
 85 89  1  0
 85 84  1  0
 86 85  2  0
 89 88  1  0
 91 89  1  0
 91 92  1  0
 91 90  1  0
 93 96  1  1
 93 94  1  0
 95 93  1  0
M  ISO  4  12 100  20 100  55 101  56 101
M  END
>  <TORSDO>  (28) 
F 22

>  <SCORE>  (28) 
-10.400

>  <name>  (28) 
27

>  <ligand_id>  (28) 
27

>  <original_smiles>  (28) 
[H]c1c([H])c([H])c2c(c1[H])C([H])([H])C([H])([H])C([H])([H])C2([H])N([H])C(=O)C1([H])N(C(=O)C([H])(N([H])C(=O)C([H])(N([H])C([H])([H])[H])C([H])([H])[H])C(C([H])([H])[H])(C([H])([H])[H])C([H])([H])[H])C([H])([H])c2c([H])c(OC([H])([H])C([H])(N3C([H])([H])C([H])(C([H])([H])N([H])C(=O)N4C([H])([H])C([H])([H])C([H])([H])C([H])(n5nc(-c6c([H])c([H])c(Oc7c([H])c([H])c(F)c([H])c7F)c([H])c6[H])c(C(=O)N([H])[H])c5N([H])[H])C4([H])[H])C([H])([N+]([H])([H])[H])C3([H])[H])C([H])([H])[N+]([H])([H])[H])c([H])c([H])c2C1([H])[H]

>  <smiles>  (28) 
[H]c1c([H])c([H])c2c(c1[H])C([H])([H])C([H])([H])C([H])([H])C2([H])N([H])C(=O)C1([H])N(C(=O)C([H])(N([H])C(=O)C([H])(N([H])C([H])([H])[H])C([H])([H])[H])C(C([H])([H])[H])(C([H])([H])[H])C([H])([H])[H])C([H])([H])c2c([H])c(OC([H])([H])C([H])(N3C([H])([H])C([H])(C([H])([H])N([H])C(=O)N4C([H])([H])C([H])([H])C([H])([H])C([H])(n5nc(-c6c([H])c([H])c(Oc7c([H])c([H])c(F)c([H])c7F)c([H])c6[H])c(C(=O)N([H])[H])c5N([H])[H])C4([H])[H])C([H])([N+]([H])([H])[H])C3([H])[H])C([H])([H])[N+]([H])([H])[H])c([H])c([H])c2C1([H])[H]

$$$$
28:0:0
     RDKit          3D

 95103  0  0  1  0  0  0  0  0999 V2000
  -28.9770  -23.2990   20.3770 C   0  0  0  0  0  0  0  0  0  0  0  0
  -28.6550  -21.7420   20.1750 N   0  0  0  0  0  4  0  0  0  0  0  0
  -27.6970  -21.5390   20.4570 H   0  0  0  0  0  0  0  0  0  0  0  0
  -29.1460  -19.0440   20.3430 C   0  0  0  0  0  3  0  0  0  0  0  0
  -31.2210  -18.1450   19.4730 C   0  0  0  0  0  3  0  0  0  0  0  0
  -30.7300  -20.5730   19.3590 C   0  0  0  0  0  3  0  0  0  0  0  0
  -29.9960  -17.8190   20.0960 C   0  0  0  0  0  0  0  0  0  0  0  0
  -29.4760  -20.4790   20.0080 C   0  0  0  0  0  0  0  0  0  0  0  0
  -31.5680  -19.4640   19.1140 C   0  0  0  0  0  0  0  0  0  0  0  0
  -32.7520  -19.6710   18.4870 F   0  0  0  0  0  0  0  0  0  0  0  0
  -30.4740  -15.0850   20.1880 C   0  0  0  0  0  0  0  0  0  0  0  0
  -30.3360  -12.7250   19.2510 C   0  0  0  0  0  2  0  0  0  0  0  0
  -29.3720  -12.6720   18.0440 C   0  0  0  0  0  2  0  0  0  0  0  0
  -27.9180  -12.4590   18.5110 C   0  0  0  0  0  2  0  0  0  0  0  0
  -27.5420  -13.3640   19.7150 C   0  0  0  0  0  3  0  0  0  0  0  0
  -28.6310  -13.3800   20.8060 C   0  0  0  0  0  2  0  0  0  0  0  0
  -29.8740  -13.8200   20.1590 N   0  0  0  0  0  0  0  0  0  0  0  0
  -31.6730  -15.1060   19.8910 O   0  0  0  0  0  0  0  0  0  0  0  0
  -29.7180  -16.3040   20.3660 N   0  0  0  0  0  0  0  0  0  0  0  0
  -28.7750  -16.1130   20.6650 H   0  0  0  0  0  0  0  0  0  0  0  0
  -25.1830  -13.9140   20.5390 C   0  0  0  0  0  0  0  0  0  0  0  0
  -24.1350  -13.1290   20.9280 C   0  0  0  0  0  0  0  0  0  0  0  0
  -24.6030  -11.7800   20.8620 C   0  0  0  0  0  0  0  0  0  0  0  0
  -26.2220  -13.0450   20.2520 N   0  0  0  0  0  0  0  0  0  0  0  0
  -25.8850  -11.7550   20.5120 N   0  0  0  0  0  0  0  0  0  0  0  0
  -23.8860  -10.5120   21.0530 C   0  0  0  0  0  0  0  0  0  0  0  0
  -24.3470   -9.5310   21.9580 C   0  0  0  0  0  3  0  0  0  0  0  0
  -23.6270   -8.3300   22.1400 C   0  0  0  0  0  3  0  0  0  0  0  0
  -22.4330   -8.1010   21.4150 C   0  0  0  0  0  0  0  0  0  0  0  0
  -21.9900   -9.0720   20.5000 C   0  0  0  0  0  3  0  0  0  0  0  0
  -22.7110  -10.2640   20.3170 C   0  0  0  0  0  3  0  0  0  0  0  0
  -21.6810   -6.9540   21.5070 O   0  0  0  0  0  0  0  0  0  0  0  0
  -21.6670   -6.1940   22.6490 C   0  0  0  0  0  0  0  0  0  0  0  0
  -21.2660   -6.7260   23.8940 C   0  0  0  0  0  3  0  0  0  0  0  0
  -21.2000   -5.8910   25.0280 C   0  0  0  0  0  3  0  0  0  0  0  0
  -21.5230   -4.5250   24.9180 C   0  0  0  0  0  0  0  0  0  0  0  0
  -21.9170   -3.9930   23.6780 C   0  0  0  0  0  3  0  0  0  0  0  0
  -21.9870   -4.8250   22.5470 C   0  0  0  0  0  0  0  0  0  0  0  0
  -22.3470   -4.3020   21.3500 F   0  0  0  0  0  0  0  0  0  0  0  0
  -21.4520   -3.7220   26.0040 F   0  0  0  0  0  0  0  0  0  0  0  0
  -22.7430  -13.5970   21.2400 C   0  0  0  0  0  0  0  0  0  0  0  0
  -22.0390  -12.8910   22.1180 N   0  0  0  0  0  0  0  0  0  0  0  0
  -22.2900  -14.6260   20.7410 O   0  0  0  0  0  0  0  0  0  0  0  0
  -22.4180  -12.0630   22.5520 H   0  0  0  0  0  0  0  0  0  0  0  0
  -21.1040  -13.1880   22.3630 H   0  0  0  0  0  0  0  0  0  0  0  0
  -25.3300  -15.2880   20.3760 N   0  0  0  0  0  0  0  0  0  0  0  0
  -24.5500  -15.9220   20.5140 H   0  0  0  0  0  0  0  0  0  0  0  0
  -26.1410  -15.7440   19.9790 H   0  0  0  0  0  0  0  0  0  0  0  0
  -30.3960  -23.7000   19.9080 C   0  0  0  0  0  2  0  0  0  0  0  0
  -30.9440  -25.4340   21.5990 C   0  0  0  0  0  1  0  0  0  0  0  0
  -31.8490  -25.5980   19.3250 C   0  0  0  0  0  1  0  0  0  0  0  0
  -30.7250  -25.1260   20.1650 N   0  0  1  0  0  4  0  0  0  0  0  0
  -29.9120  -25.6600   19.8790 H   0  0  0  0  0  0  0  0  0  0  0  0
  -27.9210  -24.5940   19.9660 C   0  0  0  0  0  2  0  0  0  0  0  0
  -28.1480  -26.1440   20.1930 O   0  0  0  0  0  0  0  0  0  0  0  0
  -24.5490  -31.8920   23.1940 C   0  0  0  0  0  0  0  0  0  0  0  0
  -27.0960  -27.1450   20.1340 C   0  0  0  0  0  0  0  0  0  0  0  0
  -23.3330  -30.4880   21.5750 C   0  0  0  0  0  3  0  0  0  0  0  0
  -24.7660  -28.9100   20.1310 C   0  0  0  0  0  0  0  0  0  0  0  0
  -25.8860  -30.7500   21.3770 C   0  0  0  0  0  2  0  0  0  0  0  0
  -25.9540  -29.3540   20.7250 C   0  0  0  0  0  0  0  0  0  0  0  0
  -27.1170  -28.4880   20.7090 C   0  0  0  0  0  3  0  0  0  0  0  0
  -25.8790  -26.8150   19.4970 C   0  0  0  0  0  3  0  0  0  0  0  0
  -24.7440  -27.6570   19.5010 C   0  0  0  0  0  3  0  0  0  0  0  0
  -23.5380  -29.8080   20.1950 C   0  0  0  0  0  2  0  0  0  0  0  0
  -24.6110  -31.0670   22.1030 N   0  0  0  0  0  0  0  0  0  0  0  0
  -23.4670  -32.1750   23.7350 O   0  0  0  0  0  0  0  0  0  0  0  0
  -22.6700  -29.4820   22.5500 C   0  0  0  0  0  0  0  0  0  0  0  0
  -21.3400  -29.3020   22.4380 N   0  0  0  0  0  0  0  0  0  0  0  0
  -23.3530  -28.8650   23.3720 O   0  0  0  0  0  0  0  0  0  0  0  0
  -20.8450  -29.8510   21.7520 H   0  0  0  0  0  0  0  0  0  0  0  0
  -17.9760  -28.0650   22.9720 C   0  0  0  0  0  0  0  0  0  0  0  0
  -20.5340  -28.3620   23.2220 C   0  0  0  0  0  3  0  0  0  0  0  0
  -20.6490  -26.9260   22.6610 C   0  0  0  0  0  2  0  0  0  0  0  0
  -19.5470  -26.5800   21.6540 C   0  0  0  0  0  2  0  0  0  0  0  0
  -18.1660  -26.7130   22.3040 C   0  0  0  0  0  2  0  0  0  0  0  0
  -19.0880  -28.8460   23.3880 C   0  0  0  0  0  0  0  0  0  0  0  0
  -18.8550  -30.1090   23.9740 C   0  0  0  0  0  3  0  0  0  0  0  0
  -17.5440  -30.5920   24.1460 C   0  0  0  0  0  3  0  0  0  0  0  0
  -16.4490  -29.8110   23.7430 C   0  0  0  0  0  3  0  0  0  0  0  0
  -16.6650  -28.5480   23.1620 C   0  0  0  0  0  3  0  0  0  0  0  0
  -25.8310  -32.5360   23.8040 C   0  0  0  0  0  3  0  0  0  0  0  0
  -25.5100  -33.9300   24.1530 N   0  0  0  0  0  0  0  0  0  0  0  0
  -25.8160  -34.9970   23.4040 C   0  0  0  0  0  0  0  0  0  0  0  0
  -26.4630  -34.9110   22.3560 O   0  0  0  0  0  0  0  0  0  0  0  0
  -24.9290  -34.0670   24.9670 H   0  0  0  0  0  0  0  0  0  0  0  0
  -24.0660  -36.7840   23.1140 C   0  0  0  0  0  1  0  0  0  0  0  0
  -25.3280  -36.3770   23.8890 C   0  0  0  0  0  3  0  0  0  0  0  0
  -27.4740  -37.2730   24.6820 C   0  0  0  0  0  1  0  0  0  0  0  0
  -26.3490  -37.4410   23.7650 N   0  0  0  0  0  0  0  0  0  0  0  0
  -25.9380  -38.3560   23.9300 H   0  0  0  0  0  0  0  0  0  0  0  0
  -26.3670  -31.7640   25.0740 C   0  0  1  0  0  0  0  0  0  0  0  0
  -25.2880  -31.5180   26.1550 C   0  0  0  0  0  1  0  0  0  0  0  0
  -26.9540  -30.3900   24.6760 C   0  0  0  0  0  1  0  0  0  0  0  0
  -27.5210  -32.5630   25.7240 C   0  0  0  0  0  1  0  0  0  0  0  0
  2  1  2  0
  2  3  1  0
  5  7  2  0
  6  8  1  0
  7  4  1  0
  7 19  1  0
  8  2  1  0
  8  4  2  0
  9  6  2  0
  9  5  1  0
 10  9  1  0
 11 19  1  0
 12 17  1  0
 13 14  1  0
 13 12  1  0
 15 14  1  0
 15 24  1  0
 15 16  1  0
 17 11  1  0
 17 16  1  0
 18 11  2  0
 19 20  1  0
 21 22  2  0
 22 41  1  0
 23 22  1  0
 23 26  1  0
 24 25  1  0
 24 21  1  0
 25 23  2  0
 26 27  1  0
 27 28  2  0
 29 32  1  0
 29 28  1  0
 30 29  2  0
 31 30  1  0
 31 26  2  0
 32 33  1  0
 33 34  1  0
 34 35  2  0
 36 35  1  0
 36 40  1  0
 37 36  2  0
 38 33  2  0
 38 37  1  0
 39 38  1  0
 41 42  1  0
 42 45  1  0
 42 44  1  0
 43 41  2  0
 46 47  1  0
 46 21  1  0
 48 46  1  0
 49 52  1  0
 49  1  1  0
 51 52  1  0
 52 50  1  0
 52 53  1  6
 54 55  1  0
 54  1  1  0
 56 67  2  0
 57 55  1  0
 57 62  1  0
 58 66  1  0
 58 68  1  0
 59 65  1  0
 59 61  1  0
 60 66  1  0
 61 60  1  0
 62 61  2  0
 63 64  1  0
 63 57  2  0
 64 59  2  0
 65 58  1  0
 66 56  1  0
 68 70  2  0
 69 68  1  0
 71 69  1  0
 72 81  2  0
 72 77  1  0
 73 69  1  0
 73 77  1  0
 74 73  1  0
 75 76  1  0
 75 74  1  0
 76 72  1  0
 77 78  2  0
 78 79  1  0
 80 79  2  0
 81 80  1  0
 82 56  1  0
 82 83  1  0
 82 92  1  0
 83 86  1  0
 84 88  1  0
 84 83  1  0
 85 84  2  0
 88 87  1  0
 90 88  1  0
 90 91  1  0
 90 89  1  0
 92 95  1  1
 92 93  1  0
 94 92  1  0
M  ISO  4  11 100  19 100  54 101  55 101
M  END
>  <TORSDO>  (29) 
F 21

>  <SCORE>  (29) 
-14.001

>  <name>  (29) 
28

>  <ligand_id>  (29) 
28

>  <original_smiles>  (29) 
[H]c1c([H])c([H])c2c(c1[H])C([H])([H])C([H])([H])C([H])([H])C2([H])N([H])C(=O)C1([H])N(C(=O)C([H])(N([H])C(=O)C([H])(N([H])C([H])([H])[H])C([H])([H])[H])C(C([H])([H])[H])(C([H])([H])[H])C([H])([H])[H])C([H])([H])c2c([H])c(OC([H])([H])C([H])(N([H])c3c([H])c(F)c([H])c(N([H])C(=O)N4C([H])([H])C([H])([H])C([H])([H])C([H])(n5nc(-c6c([H])c([H])c(Oc7c([H])c([H])c(F)c([H])c7F)c([H])c6[H])c(C(=O)N([H])[H])c5N([H])[H])C4([H])[H])c3[H])C([H])([H])[N+]([H])(C([H])([H])[H])C([H])([H])[H])c([H])c([H])c2C1([H])[H]

>  <smiles>  (29) 
[H]c1c([H])c([H])c2c(c1[H])C([H])([H])C([H])([H])C([H])([H])C2([H])N([H])C(=O)C1([H])N(C(=O)C([H])(N([H])C(=O)C([H])(N([H])C([H])([H])[H])C([H])([H])[H])C(C([H])([H])[H])(C([H])([H])[H])C([H])([H])[H])C([H])([H])c2c([H])c(OC([H])([H])C([H])(N([H])c3c([H])c(F)c([H])c(N([H])C(=O)N4C([H])([H])C([H])([H])C([H])([H])C([H])(n5nc(-c6c([H])c([H])c(Oc7c([H])c([H])c(F)c([H])c7F)c([H])c6[H])c(C(=O)N([H])[H])c5N([H])[H])C4([H])[H])c3[H])C([H])([H])[N+]([H])(C([H])([H])[H])C([H])([H])[H])c([H])c([H])c2C1([H])[H]

$$$$
29:0:0
     RDKit          3D

 98107  0  0  1  0  0  0  0  0999 V2000
  -30.5660  -24.3870   21.9770 C   0  0  0  0  0  2  0  0  0  0  0  0
  -30.8300  -23.6220   19.8170 C   0  0  0  0  0  2  0  0  0  0  0  0
  -29.4990  -23.3060   21.7040 C   0  0  0  0  0  3  0  0  0  0  0  0
  -29.4070  -23.1330   20.1620 C   0  0  2  0  0  0  0  0  0  0  0  0
  -32.4270  -25.2390   20.6720 C   0  0  0  0  0  1  0  0  0  0  0  0
  -31.0370  -24.7960   20.6590 N   0  0  0  0  0  0  0  0  0  0  0  0
  -30.6120  -19.1100   19.3000 C   0  0  0  0  0  3  0  0  0  0  0  0
  -28.7510  -18.9570   20.6350 C   0  0  0  0  0  3  0  0  0  0  0  0
  -29.4010  -21.3970   19.9080 C   0  0  0  0  0  0  0  0  0  0  0  0
  -29.8000  -18.1470   20.0240 C   0  0  0  0  0  0  0  0  0  0  0  0
  -30.4290  -20.5870   19.2380 C   0  0  0  0  0  0  0  0  0  0  0  0
  -28.5710  -20.4290   20.6030 C   0  0  0  0  0  0  0  0  0  0  0  0
  -31.3440  -21.2470   18.4890 F   0  0  0  0  0  0  0  0  0  0  0  0
  -27.5510  -20.9340   21.3410 F   0  0  0  0  0  0  0  0  0  0  0  0
  -30.6700  -15.3530   19.8470 C   0  0  0  0  0  0  0  0  0  0  0  0
  -30.6130  -12.9220   18.9700 C   0  0  0  0  0  2  0  0  0  0  0  0
  -29.6210  -12.7640   17.7890 C   0  0  0  0  0  2  0  0  0  0  0  0
  -28.1910  -12.5100   18.3010 C   0  0  0  0  0  2  0  0  0  0  0  0
  -27.8150  -13.4600   19.4660 C   0  0  0  0  0  3  0  0  0  0  0  0
  -28.9240  -13.5550   20.5360 C   0  0  0  0  0  2  0  0  0  0  0  0
  -30.1340  -14.0400   19.8550 N   0  0  0  0  0  0  0  0  0  0  0  0
  -31.8530  -15.4130   19.4850 O   0  0  0  0  0  0  0  0  0  0  0  0
  -29.8470  -16.5400   20.1100 N   0  0  0  0  0  0  0  0  0  0  0  0
  -28.9800  -16.1940   20.4910 H   0  0  0  0  0  0  0  0  0  0  0  0
  -25.4950  -14.0300   20.3630 C   0  0  0  0  0  0  0  0  0  0  0  0
  -24.4470  -13.2570   20.7770 C   0  0  0  0  0  0  0  0  0  0  0  0
  -24.8950  -11.9020   20.6860 C   0  0  0  0  0  0  0  0  0  0  0  0
  -26.5110  -13.1500   20.0390 N   0  0  0  0  0  0  0  0  0  0  0  0
  -26.1660  -11.8630   20.3000 N   0  0  0  0  0  0  0  0  0  0  0  0
  -24.1650  -10.6430   20.8870 C   0  0  0  0  0  0  0  0  0  0  0  0
  -24.5950   -9.6800   21.8250 C   0  0  0  0  0  3  0  0  0  0  0  0
  -23.8640   -8.4880   22.0150 C   0  0  0  0  0  3  0  0  0  0  0  0
  -22.6870   -8.2490   21.2660 C   0  0  0  0  0  0  0  0  0  0  0  0
  -22.2760   -9.2010   20.3160 C   0  0  0  0  0  3  0  0  0  0  0  0
  -23.0080  -10.3840   20.1240 C   0  0  0  0  0  3  0  0  0  0  0  0
  -21.9270   -7.1090   21.3640 O   0  0  0  0  0  0  0  0  0  0  0  0
  -21.8210   -6.4150   22.5430 C   0  0  0  0  0  0  0  0  0  0  0  0
  -21.3380   -7.0210   23.7230 C   0  0  0  0  0  3  0  0  0  0  0  0
  -21.1780   -6.2530   24.8940 C   0  0  0  0  0  3  0  0  0  0  0  0
  -21.4920   -4.8810   24.8850 C   0  0  0  0  0  0  0  0  0  0  0  0
  -21.9680   -4.2750   23.7090 C   0  0  0  0  0  3  0  0  0  0  0  0
  -22.1290   -5.0400   22.5410 C   0  0  0  0  0  0  0  0  0  0  0  0
  -22.5680   -4.4460   21.4050 F   0  0  0  0  0  0  0  0  0  0  0  0
  -21.3320   -4.1410   26.0080 F   0  0  0  0  0  0  0  0  0  0  0  0
  -23.0720  -13.7410   21.1360 C   0  0  0  0  0  0  0  0  0  0  0  0
  -22.3890  -13.0370   22.0310 N   0  0  0  0  0  0  0  0  0  0  0  0
  -22.6170  -14.7790   20.6590 O   0  0  0  0  0  0  0  0  0  0  0  0
  -22.7720  -12.1960   22.4370 H   0  0  0  0  0  0  0  0  0  0  0  0
  -21.4690  -13.3430   22.3140 H   0  0  0  0  0  0  0  0  0  0  0  0
  -25.6600  -15.4040   20.2070 N   0  0  0  0  0  0  0  0  0  0  0  0
  -24.8970  -16.0540   20.3650 H   0  0  0  0  0  0  0  0  0  0  0  0
  -26.4650  -15.8400   19.7780 H   0  0  0  0  0  0  0  0  0  0  0  0
  -28.2000  -23.5510   22.3590 N   0  0  0  0  0  4  0  0  0  0  0  0
  -27.7830  -24.4070   22.0370 H   0  0  0  0  0  0  0  0  0  0  0  0
  -28.3230  -23.6130   23.3550 H   0  0  0  0  0  0  0  0  0  0  0  0
  -27.5820  -22.7760   22.1690 H   0  0  0  0  0  0  0  0  0  0  0  0
  -28.3860  -24.4740   19.5570 C   0  0  0  0  0  2  0  0  0  0  0  0
  -28.4360  -26.0780   19.8830 O   0  0  0  0  0  0  0  0  0  0  0  0
  -24.5610  -31.6760   23.0260 C   0  0  0  0  0  0  0  0  0  0  0  0
  -27.3510  -27.0820   19.8360 C   0  0  0  0  0  0  0  0  0  0  0  0
  -23.4310  -30.2840   21.3370 C   0  0  0  0  0  3  0  0  0  0  0  0
  -24.9530  -28.8100   19.8550 C   0  0  0  0  0  0  0  0  0  0  0  0
  -25.9800  -30.6400   21.1930 C   0  0  0  0  0  2  0  0  0  0  0  0
  -26.1170  -29.2640   20.4880 C   0  0  0  0  0  0  0  0  0  0  0  0
  -27.3090  -28.4200   20.4550 C   0  0  0  0  0  3  0  0  0  0  0  0
  -26.1510  -26.7640   19.1620 C   0  0  0  0  0  3  0  0  0  0  0  0
  -24.9910  -27.5810   19.1740 C   0  0  0  0  0  3  0  0  0  0  0  0
  -23.6890  -29.6620   19.9360 C   0  0  0  0  0  2  0  0  0  0  0  0
  -24.6780  -30.8920   21.9070 N   0  0  0  0  0  0  0  0  0  0  0  0
  -23.4620  -31.8940   23.5600 O   0  0  0  0  0  0  0  0  0  0  0  0
  -22.7910  -29.2210   22.2660 C   0  0  0  0  0  0  0  0  0  0  0  0
  -21.4660  -29.0130   22.1490 N   0  0  0  0  0  0  0  0  0  0  0  0
  -23.4910  -28.5860   23.0580 O   0  0  0  0  0  0  0  0  0  0  0  0
  -20.9530  -29.5790   21.4890 H   0  0  0  0  0  0  0  0  0  0  0  0
  -18.1330  -27.6780   22.6620 C   0  0  0  0  0  0  0  0  0  0  0  0
  -20.6890  -28.0130   22.8890 C   0  0  0  0  0  3  0  0  0  0  0  0
  -20.8220  -26.6140   22.2420 C   0  0  0  0  0  2  0  0  0  0  0  0
  -19.7100  -26.3070   21.2350 C   0  0  0  0  0  2  0  0  0  0  0  0
  -18.3380  -26.3720   21.9110 C   0  0  0  0  0  2  0  0  0  0  0  0
  -19.2360  -28.4560   23.1070 C   0  0  0  0  0  0  0  0  0  0  0  0
  -18.9870  -29.6750   23.7720 C   0  0  0  0  0  3  0  0  0  0  0  0
  -17.6690  -30.1200   23.9950 C   0  0  0  0  0  3  0  0  0  0  0  0
  -16.5820  -29.3400   23.5630 C   0  0  0  0  0  3  0  0  0  0  0  0
  -16.8150  -28.1200   22.9040 C   0  0  0  0  0  3  0  0  0  0  0  0
  -25.8040  -32.3540   23.6810 C   0  0  0  0  0  3  0  0  0  0  0  0
  -26.3280  -31.5850   24.9570 C   0  0  1  0  0  0  0  0  0  0  0  0
  -25.2280  -31.2950   26.0060 C   0  0  0  0  0  1  0  0  0  0  0  0
  -26.9660  -30.2340   24.5620 C   0  0  0  0  0  1  0  0  0  0  0  0
  -27.4400  -32.4100   25.6460 C   0  0  0  0  0  1  0  0  0  0  0  0
  -25.4310  -33.7330   24.0390 N   0  0  0  0  0  0  0  0  0  0  0  0
  -25.7150  -34.8200   23.3080 C   0  0  0  0  0  0  0  0  0  0  0  0
  -26.3820  -34.7680   22.2720 O   0  0  0  0  0  0  0  0  0  0  0  0
  -24.8340  -33.8430   24.8450 H   0  0  0  0  0  0  0  0  0  0  0  0
  -23.9030  -36.5450   23.0250 C   0  0  0  0  0  1  0  0  0  0  0  0
  -25.1770  -36.1780   23.8030 C   0  0  0  0  0  3  0  0  0  0  0  0
  -27.2820  -37.1480   24.6160 C   0  0  0  0  0  1  0  0  0  0  0  0
  -26.1600  -37.2790   23.6910 N   0  0  0  0  0  0  0  0  0  0  0  0
  -25.7150  -38.1770   23.8580 H   0  0  0  0  0  0  0  0  0  0  0  0
  2  4  1  0
  2  6  1  0
  3  1  1  0
  3 53  1  0
  4 57  1  6
  4  3  1  0
  6  5  1  0
  6  1  1  0
  7 10  1  0
  9  4  1  0
  9 12  2  0
 10 23  1  0
 10  8  2  0
 11  7  2  0
 11  9  1  0
 12  8  1  0
 12 14  1  0
 13 11  1  0
 15 21  1  0
 15 23  1  0
 16 21  1  0
 17 18  1  0
 17 16  1  0
 19 18  1  0
 19 28  1  0
 19 20  1  0
 21 20  1  0
 22 15  2  0
 23 24  1  0
 25 26  2  0
 26 45  1  0
 27 26  1  0
 27 30  1  0
 28 29  1  0
 28 25  1  0
 29 27  2  0
 30 31  1  0
 31 32  2  0
 33 36  1  0
 33 32  1  0
 34 33  2  0
 35 34  1  0
 35 30  2  0
 36 37  1  0
 37 38  1  0
 38 39  2  0
 40 39  1  0
 40 44  1  0
 41 40  2  0
 42 37  2  0
 42 41  1  0
 43 42  1  0
 45 46  1  0
 46 49  1  0
 46 48  1  0
 47 45  2  0
 50 25  1  0
 50 51  1  0
 52 50  1  0
 53 55  1  0
 54 53  1  0
 56 53  1  0
 57 58  1  0
 59 70  2  0
 60 58  1  0
 60 65  1  0
 61 69  1  0
 61 71  1  0
 62 68  1  0
 62 64  1  0
 63 69  1  0
 64 63  1  0
 65 64  2  0
 66 67  1  0
 66 60  2  0
 67 62  2  0
 68 61  1  0
 69 59  1  0
 71 73  2  0
 72 71  1  0
 74 72  1  0
 75 84  2  0
 75 80  1  0
 76 72  1  0
 76 80  1  0
 77 76  1  0
 78 79  1  0
 78 77  1  0
 79 75  1  0
 80 81  2  0
 81 82  1  0
 83 82  2  0
 84 83  1  0
 85 59  1  0
 85 90  1  0
 85 86  1  0
 86 89  1  1
 86 87  1  0
 88 86  1  0
 90 93  1  0
 91 95  1  0
 91 90  1  0
 92 91  2  0
 95 94  1  0
 97 95  1  0
 97 98  1  0
 97 96  1  0
M  ISO  4  15 100  23 100  57 101  58 101
M  END
>  <TORSDO>  (30) 
F 19

>  <SCORE>  (30) 
-14.769

>  <name>  (30) 
29

>  <ligand_id>  (30) 
29

>  <original_smiles>  (30) 
[H]c1c([H])c([H])c2c(c1[H])C([H])([H])C([H])([H])C([H])([H])C2([H])N([H])C(=O)C1([H])N(C(=O)C([H])(N([H])C(=O)C([H])(N([H])C([H])([H])[H])C([H])([H])[H])C(C([H])([H])[H])(C([H])([H])[H])C([H])([H])[H])C([H])([H])c2c([H])c(OC([H])([H])C3(c4c(F)c([H])c(N([H])C(=O)N5C([H])([H])C([H])([H])C([H])([H])C([H])(n6nc(-c7c([H])c([H])c(Oc8c([H])c([H])c(F)c([H])c8F)c([H])c7[H])c(C(=O)N([H])[H])c6N([H])[H])C5([H])[H])c([H])c4F)C([H])([H])N(C([H])([H])[H])C([H])([H])C3([H])[N+]([H])([H])[H])c([H])c([H])c2C1([H])[H]

>  <smiles>  (30) 
[H]c1c([H])c([H])c2c(c1[H])C([H])([H])C([H])([H])C([H])([H])C2([H])N([H])C(=O)C1([H])N(C(=O)C([H])(N([H])C(=O)C([H])(N([H])C([H])([H])[H])C([H])([H])[H])C(C([H])([H])[H])(C([H])([H])[H])C([H])([H])[H])C([H])([H])c2c([H])c(OC([H])([H])C3(c4c(F)c([H])c(N([H])C(=O)N5C([H])([H])C([H])([H])C([H])([H])C([H])(n6nc(-c7c([H])c([H])c(Oc8c([H])c([H])c(F)c([H])c8F)c([H])c7[H])c(C(=O)N([H])[H])c6N([H])[H])C5([H])[H])c([H])c4F)C([H])([H])N(C([H])([H])[H])C([H])([H])C3([H])[N+]([H])([H])[H])c([H])c([H])c2C1([H])[H]

$$$$
30:0:0
     RDKit          3D

 96104  0  0  1  0  0  0  0  0999 V2000
  -28.9620  -21.0450   19.6700 C   0  0  0  0  0  2  0  0  0  0  0  0
  -29.3330  -20.5040   20.9770 N   0  0  0  0  0  0  0  0  0  0  0  0
  -29.7100  -21.2400   21.5670 H   0  0  0  0  0  0  0  0  0  0  0  0
  -29.8020  -18.0950   20.6970 C   0  0  0  0  0  3  0  0  0  0  0  0
  -32.1130  -17.3140   20.7820 C   0  0  0  0  0  3  0  0  0  0  0  0
  -30.7360  -17.0280   20.6310 C   0  0  0  0  0  0  0  0  0  0  0  0
  -30.2370  -19.4300   20.9030 C   0  0  0  0  0  0  0  0  0  0  0  0
  -32.5500  -18.6360   20.9880 C   0  0  0  0  0  0  0  0  0  0  0  0
  -31.6170  -19.6890   21.0540 C   0  0  0  0  0  0  0  0  0  0  0  0
  -33.8720  -18.8930   21.1330 F   0  0  0  0  0  0  0  0  0  0  0  0
  -32.0450  -20.9580   21.2590 F   0  0  0  0  0  0  0  0  0  0  0  0
  -30.9390  -14.6540   19.9080 C   0  0  0  0  0  0  0  0  0  0  0  0
  -30.6180  -12.4120   18.9290 C   0  0  0  0  0  2  0  0  0  0  0  0
  -29.6010  -12.4890   17.7730 C   0  0  0  0  0  2  0  0  0  0  0  0
  -28.1600  -12.3510   18.3040 C   0  0  0  0  0  2  0  0  0  0  0  0
  -27.8740  -13.2840   19.5110 C   0  0  0  0  0  3  0  0  0  0  0  0
  -28.9960  -13.1830   20.5670 C   0  0  0  0  0  2  0  0  0  0  0  0
  -30.2760  -13.4670   19.8950 N   0  0  0  0  0  0  0  0  0  0  0  0
  -32.0130  -14.8230   19.3240 O   0  0  0  0  0  0  0  0  0  0  0  0
  -30.2770  -15.6820   20.4750 N   0  0  0  0  0  0  0  0  0  0  0  0
  -29.3320  -15.4840   20.7670 H   0  0  0  0  0  0  0  0  0  0  0  0
  -25.5630  -13.9140   20.4530 C   0  0  0  0  0  0  0  0  0  0  0  0
  -24.5090  -13.1510   20.8760 C   0  0  0  0  0  0  0  0  0  0  0  0
  -24.9260  -11.7910   20.7400 C   0  0  0  0  0  0  0  0  0  0  0  0
  -26.5590  -13.0190   20.0910 N   0  0  0  0  0  0  0  0  0  0  0  0
  -26.1840  -11.7360   20.3200 N   0  0  0  0  0  0  0  0  0  0  0  0
  -24.1820  -10.5390   20.9310 C   0  0  0  0  0  0  0  0  0  0  0  0
  -24.6000   -9.5680   21.8690 C   0  0  0  0  0  3  0  0  0  0  0  0
  -23.8590   -8.3800   22.0470 C   0  0  0  0  0  3  0  0  0  0  0  0
  -22.6860   -8.1540   21.2890 C   0  0  0  0  0  0  0  0  0  0  0  0
  -22.2880   -9.1130   20.3400 C   0  0  0  0  0  3  0  0  0  0  0  0
  -23.0300  -10.2920   20.1590 C   0  0  0  0  0  3  0  0  0  0  0  0
  -21.9180   -7.0190   21.3760 O   0  0  0  0  0  0  0  0  0  0  0  0
  -21.7720   -6.3380   22.5570 C   0  0  0  0  0  0  0  0  0  0  0  0
  -21.2060   -6.9420   23.7010 C   0  0  0  0  0  3  0  0  0  0  0  0
  -21.0110   -6.1850   24.8730 C   0  0  0  0  0  3  0  0  0  0  0  0
  -21.3720   -4.8240   24.9020 C   0  0  0  0  0  0  0  0  0  0  0  0
  -21.9310   -4.2190   23.7620 C   0  0  0  0  0  3  0  0  0  0  0  0
  -22.1270   -4.9740   22.5920 C   0  0  0  0  0  0  0  0  0  0  0  0
  -22.6460   -4.3820   21.4900 F   0  0  0  0  0  0  0  0  0  0  0  0
  -21.1770   -4.0940   26.0240 F   0  0  0  0  0  0  0  0  0  0  0  0
  -23.1540  -13.6470   21.2920 C   0  0  0  0  0  0  0  0  0  0  0  0
  -22.4840  -12.9240   22.1830 N   0  0  0  0  0  0  0  0  0  0  0  0
  -22.7040  -14.7090   20.8630 O   0  0  0  0  0  0  0  0  0  0  0  0
  -22.8630  -12.0650   22.5490 H   0  0  0  0  0  0  0  0  0  0  0  0
  -21.5770  -13.2370   22.5020 H   0  0  0  0  0  0  0  0  0  0  0  0
  -25.7520  -15.2870   20.3280 N   0  0  0  0  0  0  0  0  0  0  0  0
  -25.0120  -15.9530   20.5260 H   0  0  0  0  0  0  0  0  0  0  0  0
  -26.5800  -15.7200   19.9370 H   0  0  0  0  0  0  0  0  0  0  0  0
  -27.7550  -22.0020   19.7450 C   0  0  0  0  0  2  0  0  0  0  0  0
  -28.0900  -24.4880   19.8130 C   0  0  0  0  0  0  0  0  0  0  0  0
  -28.0770  -23.2770   20.3970 N   0  0  0  0  0  0  0  0  0  0  0  0
  -27.9380  -24.6380   18.5970 O   0  0  0  0  0  0  0  0  0  0  0  0
  -28.2120  -23.2470   21.4000 H   0  0  0  0  0  0  0  0  0  0  0  0
  -28.2840  -25.7070   20.7380 C   0  0  0  0  0  2  0  0  0  0  0  0
  -28.2850  -26.9520   20.0160 O   0  0  0  0  0  0  0  0  0  0  0  0
  -24.5730  -32.0160   23.3700 C   0  0  0  0  0  0  0  0  0  0  0  0
  -27.1150  -27.6750   20.0860 C   0  0  0  0  0  0  0  0  0  0  0  0
  -23.3150  -30.6690   21.7210 C   0  0  0  0  0  3  0  0  0  0  0  0
  -24.7220  -29.1700   20.2110 C   0  0  0  0  0  0  0  0  0  0  0  0
  -25.8320  -31.0340   21.4560 C   0  0  0  0  0  2  0  0  0  0  0  0
  -25.8970  -29.6820   20.7770 C   0  0  0  0  0  0  0  0  0  0  0  0
  -27.0990  -28.9420   20.7090 C   0  0  0  0  0  3  0  0  0  0  0  0
  -25.9250  -27.1700   19.5220 C   0  0  0  0  0  3  0  0  0  0  0  0
  -24.7300  -27.9120   19.5820 C   0  0  0  0  0  3  0  0  0  0  0  0
  -23.4800  -30.0260   20.3170 C   0  0  0  0  0  2  0  0  0  0  0  0
  -24.5930  -31.2530   22.2410 N   0  0  0  0  0  0  0  0  0  0  0  0
  -23.5090  -32.2740   23.9500 O   0  0  0  0  0  0  0  0  0  0  0  0
  -22.6890  -29.6220   22.6700 C   0  0  0  0  0  0  0  0  0  0  0  0
  -21.3780  -29.3760   22.5090 N   0  0  0  0  0  0  0  0  0  0  0  0
  -23.3800  -29.0300   23.5020 O   0  0  0  0  0  0  0  0  0  0  0  0
  -20.8810  -29.9050   21.8070 H   0  0  0  0  0  0  0  0  0  0  0  0
  -18.0690  -27.9730   22.8670 C   0  0  0  0  0  0  0  0  0  0  0  0
  -20.5870  -28.4030   23.2610 C   0  0  0  0  0  3  0  0  0  0  0  0
  -20.8110  -26.9700   22.7240 C   0  0  0  0  0  2  0  0  0  0  0  0
  -19.7860  -26.5550   21.6650 C   0  0  0  0  0  2  0  0  0  0  0  0
  -18.3670  -26.6250   22.2350 C   0  0  0  0  0  2  0  0  0  0  0  0
  -19.1120  -28.8150   23.3340 C   0  0  0  0  0  0  0  0  0  0  0  0
  -18.7830  -30.0750   23.8800 C   0  0  0  0  0  3  0  0  0  0  0  0
  -17.4420  -30.4930   23.9680 C   0  0  0  0  0  3  0  0  0  0  0  0
  -16.4120  -29.6480   23.5180 C   0  0  0  0  0  3  0  0  0  0  0  0
  -16.7250  -28.3910   22.9730 C   0  0  0  0  0  3  0  0  0  0  0  0
  -25.8790  -32.6250   23.9710 C   0  0  0  0  0  3  0  0  0  0  0  0
  -25.5960  -34.0230   24.3190 N   0  0  0  0  0  0  0  0  0  0  0  0
  -25.9270  -35.0780   23.5610 C   0  0  0  0  0  0  0  0  0  0  0  0
  -26.5750  -34.9750   22.5160 O   0  0  0  0  0  0  0  0  0  0  0  0
  -25.0220  -34.1800   25.1350 H   0  0  0  0  0  0  0  0  0  0  0  0
  -24.2150  -36.8930   23.2540 C   0  0  0  0  0  1  0  0  0  0  0  0
  -25.4660  -36.4680   24.0380 C   0  0  0  0  0  3  0  0  0  0  0  0
  -27.6220  -37.3250   24.8390 C   0  0  0  0  0  1  0  0  0  0  0  0
  -26.5090  -37.5100   23.9130 N   0  0  0  0  0  0  0  0  0  0  0  0
  -26.1160  -38.4340   24.0690 H   0  0  0  0  0  0  0  0  0  0  0  0
  -26.4110  -31.8330   25.2280 C   0  0  1  0  0  0  0  0  0  0  0  0
  -25.3300  -31.5740   26.3030 C   0  0  0  0  0  1  0  0  0  0  0  0
  -26.9930  -30.4650   24.8020 C   0  0  0  0  0  1  0  0  0  0  0  0
  -27.5670  -32.6190   25.8920 C   0  0  0  0  0  1  0  0  0  0  0  0
  1 50  1  0
  1  2  1  0
  2  3  1  0
  4  7  1  0
  5  8  2  0
  6  4  2  0
  6  5  1  0
  7  2  1  0
  7  9  2  0
  8  9  1  0
  8 10  1  0
  9 11  1  0
 12 20  1  0
 13 18  1  0
 14 15  1  0
 14 13  1  0
 16 15  1  0
 16 25  1  0
 16 17  1  0
 18 12  1  0
 18 17  1  0
 19 12  2  0
 20  6  1  0
 20 21  1  0
 22 23  2  0
 23 42  1  0
 24 23  1  0
 24 27  1  0
 25 26  1  0
 25 22  1  0
 26 24  2  0
 27 28  1  0
 28 29  2  0
 30 33  1  0
 30 29  1  0
 31 30  2  0
 32 31  1  0
 32 27  2  0
 33 34  1  0
 34 39  2  0
 34 35  1  0
 35 36  2  0
 36 37  1  0
 37 41  1  0
 38 37  2  0
 39 38  1  0
 40 39  1  0
 42 43  1  0
 43 46  1  0
 43 45  1  0
 44 42  2  0
 47 22  1  0
 47 48  1  0
 49 47  1  0
 50 52  1  0
 51 52  1  0
 51 55  1  0
 52 54  1  0
 53 51  2  0
 56 58  1  0
 56 55  1  0
 57 68  2  0
 58 63  1  0
 59 67  1  0
 59 69  1  0
 60 66  1  0
 60 62  1  0
 61 67  1  0
 62 61  1  0
 63 62  2  0
 64 65  1  0
 64 58  2  0
 65 60  2  0
 66 59  1  0
 67 57  1  0
 69 71  2  0
 70 69  1  0
 72 70  1  0
 73 82  2  0
 73 78  1  0
 74 70  1  0
 74 78  1  0
 75 74  1  0
 76 77  1  0
 76 75  1  0
 77 73  1  0
 78 79  2  0
 79 80  1  0
 81 80  2  0
 82 81  1  0
 83 57  1  0
 83 84  1  0
 83 93  1  0
 84 87  1  0
 85 89  1  0
 85 84  1  0
 86 85  2  0
 89 88  1  0
 91 89  1  0
 91 92  1  0
 91 90  1  0
 93 96  1  1
 93 94  1  0
 95 93  1  0
M  ISO  4  12 100  20 100  55 101  56 101
M  END
>  <TORSDO>  (31) 
F 21

>  <SCORE>  (31) 
-13.434

>  <name>  (31) 
30

>  <ligand_id>  (31) 
30

>  <original_smiles>  (31) 
[H]c1c([H])c([H])c2c(c1[H])C([H])([H])C([H])([H])C([H])([H])C2([H])N([H])C(=O)C1([H])N(C(=O)C([H])(N([H])C(=O)C([H])(N([H])C([H])([H])[H])C([H])([H])[H])C(C([H])([H])[H])(C([H])([H])[H])C([H])([H])[H])C([H])([H])c2c([H])c(OC([H])([H])C(=O)N([H])C([H])([H])C([H])([H])N([H])c3c([H])c(N([H])C(=O)N4C([H])([H])C([H])([H])C([H])([H])C([H])(n5nc(-c6c([H])c([H])c(Oc7c([H])c([H])c(F)c([H])c7F)c([H])c6[H])c(C(=O)N([H])[H])c5N([H])[H])C4([H])[H])c([H])c(F)c3F)c([H])c([H])c2C1([H])[H]

>  <smiles>  (31) 
[H]c1c([H])c([H])c2c(c1[H])C([H])([H])C([H])([H])C([H])([H])C2([H])N([H])C(=O)C1([H])N(C(=O)C([H])(N([H])C(=O)C([H])(N([H])C([H])([H])[H])C([H])([H])[H])C(C([H])([H])[H])(C([H])([H])[H])C([H])([H])[H])C([H])([H])c2c([H])c(OC([H])([H])C(=O)N([H])C([H])([H])C([H])([H])N([H])c3c([H])c(N([H])C(=O)N4C([H])([H])C([H])([H])C([H])([H])C([H])(n5nc(-c6c([H])c([H])c(Oc7c([H])c([H])c(F)c([H])c7F)c([H])c6[H])c(C(=O)N([H])[H])c5N([H])[H])C4([H])[H])c([H])c(F)c3F)c([H])c([H])c2C1([H])[H]

$$$$
31:0:0
     RDKit          3D

 95103  0  0  1  0  0  0  0  0999 V2000
  -28.4900  -20.3220   20.7480 C   0  0  0  0  0  3  0  0  0  0  0  0
  -29.1290  -18.9810   20.5110 N   0  0  0  0  0  0  0  0  0  0  0  0
  -28.7130  -18.3940   19.7910 H   0  0  0  0  0  0  0  0  0  0  0  0
  -31.4020  -18.6530   23.4360 C   0  0  0  0  0  3  0  0  0  0  0  0
  -30.5630  -19.1550   22.4340 C   0  0  0  0  0  3  0  0  0  0  0  0
  -31.5830  -17.2740   23.5570 C   0  0  0  0  0  3  0  0  0  0  0  0
  -29.8960  -18.3130   21.5080 C   0  0  0  0  0  0  0  0  0  0  0  0
  -30.0810  -16.8720   21.6310 C   0  0  0  0  0  0  0  0  0  0  0  0
  -30.9210  -16.3980   22.6830 C   0  0  0  0  0  0  0  0  0  0  0  0
  -31.0940  -15.0710   22.9010 F   0  0  0  0  0  0  0  0  0  0  0  0
  -30.0620  -14.8260   20.1820 C   0  0  0  0  0  0  0  0  0  0  0  0
  -29.7740  -12.7020   18.9160 C   0  0  0  0  0  2  0  0  0  0  0  0
  -28.7290  -12.8620   17.7960 C   0  0  0  0  0  2  0  0  0  0  0  0
  -27.3150  -12.5790   18.3360 C   0  0  0  0  0  2  0  0  0  0  0  0
  -27.0190  -13.3300   19.6620 C   0  0  0  0  0  3  0  0  0  0  0  0
  -28.1790  -13.1920   20.6740 C   0  0  0  0  0  2  0  0  0  0  0  0
  -29.4090  -13.6340   20.0040 N   0  0  0  0  0  0  0  0  0  0  0  0
  -31.1500  -15.0370   19.6360 O   0  0  0  0  0  0  0  0  0  0  0  0
  -29.4200  -15.8520   20.8250 N   0  0  0  0  0  0  0  0  0  0  0  0
  -28.4340  -15.7350   20.9920 H   0  0  0  0  0  0  0  0  0  0  0  0
  -24.6440  -13.7050   20.5610 C   0  0  0  0  0  0  0  0  0  0  0  0
  -23.6790  -12.8380   20.9910 C   0  0  0  0  0  0  0  0  0  0  0  0
  -24.2550  -11.5320   20.9060 C   0  0  0  0  0  0  0  0  0  0  0  0
  -25.7420  -12.9230   20.2390 N   0  0  0  0  0  0  0  0  0  0  0  0
  -25.5180  -11.6110   20.5080 N   0  0  0  0  0  0  0  0  0  0  0  0
  -23.6570  -10.2090   21.1230 C   0  0  0  0  0  0  0  0  0  0  0  0
  -24.1790   -9.3100   22.0790 C   0  0  0  0  0  3  0  0  0  0  0  0
  -23.5730   -8.0520   22.2830 C   0  0  0  0  0  3  0  0  0  0  0  0
  -22.4320   -7.6830   21.5310 C   0  0  0  0  0  0  0  0  0  0  0  0
  -21.9320   -8.5720   20.5640 C   0  0  0  0  0  3  0  0  0  0  0  0
  -22.5390   -9.8210   20.3580 C   0  0  0  0  0  3  0  0  0  0  0  0
  -21.7920   -6.4720   21.6440 O   0  0  0  0  0  0  0  0  0  0  0  0
  -21.7710   -5.7760   22.8270 C   0  0  0  0  0  0  0  0  0  0  0  0
  -21.2350   -6.3320   24.0080 C   0  0  0  0  0  3  0  0  0  0  0  0
  -21.1690   -5.5560   25.1840 C   0  0  0  0  0  3  0  0  0  0  0  0
  -21.6280   -4.2250   25.1770 C   0  0  0  0  0  0  0  0  0  0  0  0
  -22.1570   -3.6700   23.9990 C   0  0  0  0  0  3  0  0  0  0  0  0
  -22.2250   -4.4420   22.8280 C   0  0  0  0  0  0  0  0  0  0  0  0
  -22.7150   -3.8930   21.6890 F   0  0  0  0  0  0  0  0  0  0  0  0
  -21.5590   -3.4780   26.3050 F   0  0  0  0  0  0  0  0  0  0  0  0
  -22.2680  -13.1870   21.3660 C   0  0  0  0  0  0  0  0  0  0  0  0
  -21.6730  -12.4290   22.2790 N   0  0  0  0  0  0  0  0  0  0  0  0
  -21.7020  -14.1670   20.8830 O   0  0  0  0  0  0  0  0  0  0  0  0
  -22.1480  -11.6380   22.6880 H   0  0  0  0  0  0  0  0  0  0  0  0
  -20.7310  -12.6430   22.5730 H   0  0  0  0  0  0  0  0  0  0  0  0
  -24.6780  -15.0880   20.3940 N   0  0  0  0  0  0  0  0  0  0  0  0
  -23.8700  -15.6760   20.5620 H   0  0  0  0  0  0  0  0  0  0  0  0
  -25.4550  -15.5930   19.9890 H   0  0  0  0  0  0  0  0  0  0  0  0
  -29.2380  -21.6400   20.2610 C   0  0  0  0  0  3  0  0  0  0  0  0
  -28.7650  -24.1800   20.0760 C   0  0  0  0  0  0  0  0  0  0  0  0
  -28.5480  -22.9320   20.5980 N   0  0  0  0  0  0  0  0  0  0  0  0
  -29.5500  -24.3480   19.1410 O   0  0  0  0  0  0  0  0  0  0  0  0
  -27.8770  -22.8870   21.3540 H   0  0  0  0  0  0  0  0  0  0  0  0
  -28.0130  -25.4210   20.6960 C   0  0  0  0  0  2  0  0  0  0  0  0
  -28.1520  -26.7050   19.9780 O   0  0  0  0  0  0  0  0  0  0  0  0
  -24.5220  -31.9720   23.2830 C   0  0  0  0  0  0  0  0  0  0  0  0
  -27.0360  -27.5450   20.0110 C   0  0  0  0  0  0  0  0  0  0  0  0
  -23.2610  -30.6280   21.6370 C   0  0  0  0  0  3  0  0  0  0  0  0
  -24.6640  -29.1270   20.1170 C   0  0  0  0  0  0  0  0  0  0  0  0
  -25.7900  -30.9660   21.3720 C   0  0  0  0  0  2  0  0  0  0  0  0
  -25.8480  -29.6090   20.6880 C   0  0  0  0  0  0  0  0  0  0  0  0
  -27.0400  -28.8330   20.6220 C   0  0  0  0  0  3  0  0  0  0  0  0
  -25.8360  -27.1090   19.4100 C   0  0  0  0  0  3  0  0  0  0  0  0
  -24.6600  -27.8830   19.4640 C   0  0  0  0  0  3  0  0  0  0  0  0
  -23.4260  -29.9930   20.2310 C   0  0  0  0  0  2  0  0  0  0  0  0
  -24.5460  -31.2030   22.1550 N   0  0  0  0  0  0  0  0  0  0  0  0
  -23.4570  -32.2280   23.8640 O   0  0  0  0  0  0  0  0  0  0  0  0
  -22.6310  -29.5800   22.5850 C   0  0  0  0  0  0  0  0  0  0  0  0
  -21.3090  -29.3790   22.4650 N   0  0  0  0  0  0  0  0  0  0  0  0
  -23.3310  -28.9530   23.3860 O   0  0  0  0  0  0  0  0  0  0  0  0
  -20.8030  -29.9380   21.7920 H   0  0  0  0  0  0  0  0  0  0  0  0
  -17.9600  -28.1050   22.9590 C   0  0  0  0  0  0  0  0  0  0  0  0
  -20.5130  -28.4110   23.2240 C   0  0  0  0  0  3  0  0  0  0  0  0
  -20.6430  -26.9910   22.6270 C   0  0  0  0  0  2  0  0  0  0  0  0
  -19.5440  -26.6610   21.6130 C   0  0  0  0  0  2  0  0  0  0  0  0
  -18.1610  -26.7700   22.2620 C   0  0  0  0  0  2  0  0  0  0  0  0
  -19.0640  -28.8830   23.3970 C   0  0  0  0  0  0  0  0  0  0  0  0
  -18.8220  -30.1340   24.0060 C   0  0  0  0  0  3  0  0  0  0  0  0
  -17.5080  -30.6060   24.1830 C   0  0  0  0  0  3  0  0  0  0  0  0
  -16.4180  -29.8240   23.7630 C   0  0  0  0  0  3  0  0  0  0  0  0
  -16.6440  -28.5750   23.1560 C   0  0  0  0  0  3  0  0  0  0  0  0
  -25.8260  -32.5810   23.8840 C   0  0  0  0  0  3  0  0  0  0  0  0
  -25.5320  -33.9700   24.2650 N   0  0  0  0  0  0  0  0  0  0  0  0
  -25.8510  -35.0450   23.5300 C   0  0  0  0  0  0  0  0  0  0  0  0
  -26.4960  -34.9710   22.4800 O   0  0  0  0  0  0  0  0  0  0  0  0
  -24.9590  -34.1030   25.0840 H   0  0  0  0  0  0  0  0  0  0  0  0
  -24.1270  -36.8600   23.2690 C   0  0  0  0  0  1  0  0  0  0  0  0
  -25.3810  -36.4210   24.0410 C   0  0  0  0  0  3  0  0  0  0  0  0
  -27.5380  -37.2660   24.8580 C   0  0  0  0  0  1  0  0  0  0  0  0
  -26.4170  -37.4710   23.9440 N   0  0  0  0  0  0  0  0  0  0  0  0
  -26.0190  -38.3880   24.1330 H   0  0  0  0  0  0  0  0  0  0  0  0
  -26.3770  -31.7700   25.1210 C   0  0  1  0  0  0  0  0  0  0  0  0
  -25.3140  -31.4980   26.2110 C   0  0  0  0  0  1  0  0  0  0  0  0
  -26.9480  -30.4070   24.6660 C   0  0  0  0  0  1  0  0  0  0  0  0
  -27.5450  -32.5450   25.7770 C   0  0  0  0  0  1  0  0  0  0  0  0
  2  1  1  0
  2  7  1  0
  3  2  1  0
  4  6  1  0
  5  4  2  0
  7  8  2  0
  7  5  1  0
  8  9  1  0
  9 10  1  0
  9  6  2  0
 11 19  1  0
 12 17  1  0
 13 14  1  0
 13 12  1  0
 15 14  1  0
 15 24  1  0
 15 16  1  0
 17 11  1  0
 17 16  1  0
 18 11  2  0
 19 20  1  0
 19  8  1  0
 21 22  2  0
 22 41  1  0
 23 22  1  0
 23 26  1  0
 24 25  1  0
 24 21  1  0
 25 23  2  0
 26 27  1  0
 27 28  2  0
 29 32  1  0
 29 28  1  0
 30 29  2  0
 31 30  1  0
 31 26  2  0
 32 33  1  0
 33 38  2  0
 33 34  1  0
 34 35  2  0
 36 35  1  0
 36 40  1  0
 37 36  2  0
 38 37  1  0
 39 38  1  0
 41 42  1  0
 42 45  1  0
 42 44  1  0
 43 41  2  0
 46 21  1  0
 46 47  1  0
 48 46  1  0
 49 51  1  0
 49  1  2  0
 50 51  1  0
 50 54  1  0
 51 53  1  0
 52 50  2  0
 55 57  1  0
 55 54  1  0
 56 67  2  0
 57 62  1  0
 58 66  1  0
 58 68  1  0
 59 65  1  0
 59 61  1  0
 60 66  1  0
 61 60  1  0
 62 61  2  0
 63 64  1  0
 63 57  2  0
 64 59  2  0
 65 58  1  0
 66 56  1  0
 68 70  2  0
 69 68  1  0
 71 69  1  0
 72 81  2  0
 72 77  1  0
 73 69  1  0
 73 77  1  0
 74 73  1  0
 75 76  1  0
 75 74  1  0
 76 72  1  0
 77 78  2  0
 78 79  1  0
 80 79  2  0
 81 80  1  0
 82 56  1  0
 82 83  1  0
 82 92  1  0
 83 86  1  0
 84 88  1  0
 84 83  1  0
 85 84  2  0
 88 87  1  0
 90 88  1  0
 90 91  1  0
 90 89  1  0
 92 95  1  1
 92 93  1  0
 94 92  1  0
M  ISO  4  11 100  19 100  54 101  55 101
M  END
>  <TORSDO>  (32) 
F 21

>  <SCORE>  (32) 
-9.802

>  <name>  (32) 
31

>  <ligand_id>  (32) 
31

>  <original_smiles>  (32) 
[H]c1c([H])c(F)c(N([H])C(=O)N2C([H])([H])C([H])([H])C([H])([H])C([H])(n3nc(-c4c([H])c([H])c(Oc5c([H])c([H])c(F)c([H])c5F)c([H])c4[H])c(C(=O)N([H])[H])c3N([H])[H])C2([H])[H])c(N([H])C([H])([H])C([H])([H])N([H])C(=O)C([H])([H])Oc2c([H])c([H])c3c(c2[H])C([H])([H])N(C(=O)C([H])(N([H])C(=O)C([H])(N([H])C([H])([H])[H])C([H])([H])[H])C(C([H])([H])[H])(C([H])([H])[H])C([H])([H])[H])C([H])(C(=O)N([H])C2([H])c4c([H])c([H])c([H])c([H])c4C([H])([H])C([H])([H])C2([H])[H])C3([H])[H])c1[H]

>  <smiles>  (32) 
[H]c1c([H])c(F)c(N([H])C(=O)N2C([H])([H])C([H])([H])C([H])([H])C([H])(n3nc(-c4c([H])c([H])c(Oc5c([H])c([H])c(F)c([H])c5F)c([H])c4[H])c(C(=O)N([H])[H])c3N([H])[H])C2([H])[H])c(N([H])C([H])([H])C([H])([H])N([H])C(=O)C([H])([H])Oc2c([H])c([H])c3c(c2[H])C([H])([H])N(C(=O)C([H])(N([H])C(=O)C([H])(N([H])C([H])([H])[H])C([H])([H])[H])C(C([H])([H])[H])(C([H])([H])[H])C([H])([H])[H])C([H])(C(=O)N([H])C2([H])c4c([H])c([H])c([H])c([H])c4C([H])([H])C([H])([H])C2([H])[H])C3([H])[H])c1[H]

$$$$
32:0:0
     RDKit          3D

 98107  0  0  1  0  0  0  0  0999 V2000
  -29.5740  -21.2890   18.3120 C   0  0  0  0  0  2  0  0  0  0  0  0
  -30.3430  -20.3970   19.2970 C   0  0  0  0  0  2  0  0  0  0  0  0
  -29.3080  -22.6930   18.8950 C   0  0  0  0  0  2  0  0  0  0  0  0
  -31.7070  -22.5680   19.5080 C   0  0  0  0  0  2  0  0  0  0  0  0
  -31.7120  -21.0220   19.6950 C   0  0  0  0  0  3  0  0  0  0  0  0
  -30.3820  -23.1660   19.8210 N   0  0  1  0  0  4  0  0  0  0  0  0
  -30.1460  -22.7990   20.7340 H   0  0  0  0  0  0  0  0  0  0  0  0
  -32.1010  -20.6250   21.1250 C   0  0  0  0  0  3  0  0  0  0  0  0
  -33.1320  -19.9970   21.5410 N   0  0  0  0  0  0  0  0  0  0  0  0
  -33.8120  -18.7690   19.5150 C   0  0  0  0  0  3  0  0  0  0  0  0
  -36.4840  -18.9040   20.3600 C   0  0  0  0  0  3  0  0  0  0  0  0
  -34.1260  -19.4710   20.7000 C   0  0  0  0  0  0  0  0  0  0  0  0
  -34.8210  -18.1600   18.7360 C   0  0  0  0  0  0  0  0  0  0  0  0
  -35.4770  -19.5360   21.1100 C   0  0  0  0  0  0  0  0  0  0  0  0
  -36.1660  -18.2110   19.1780 C   0  0  0  0  0  0  0  0  0  0  0  0
  -35.8110  -20.1920   22.2480 F   0  0  0  0  0  0  0  0  0  0  0  0
  -37.1570  -17.5970   18.4890 F   0  0  0  0  0  0  0  0  0  0  0  0
  -35.1650  -17.0930   16.5270 C   0  0  0  0  0  0  0  0  0  0  0  0
  -35.2000  -15.0480   15.1660 C   0  0  0  0  0  2  0  0  0  0  0  0
  -33.7490  -14.5430   15.0180 C   0  0  0  0  0  2  0  0  0  0  0  0
  -33.3480  -13.6510   16.2120 C   0  0  0  0  0  2  0  0  0  0  0  0
  -33.6950  -14.2880   17.5850 C   0  0  0  0  0  3  0  0  0  0  0  0
  -35.1480  -14.8180   17.5890 C   0  0  0  0  0  2  0  0  0  0  0  0
  -35.2900  -15.7440   16.4550 N   0  0  0  0  0  0  0  0  0  0  0  0
  -35.3650  -17.8550   15.5770 O   0  0  0  0  0  0  0  0  0  0  0  0
  -34.4050  -17.5010   17.5500 N   0  0  0  0  0  0  0  0  0  0  0  0
  -33.4600  -17.7150   17.2700 H   0  0  0  0  0  0  0  0  0  0  0  0
  -32.5730  -13.4740   19.7560 C   0  0  0  0  0  0  0  0  0  0  0  0
  -32.6800  -12.3010   20.4550 C   0  0  0  0  0  0  0  0  0  0  0  0
  -33.6420  -11.5120   19.7520 C   0  0  0  0  0  0  0  0  0  0  0  0
  -33.4500  -13.3620   18.6890 N   0  0  0  0  0  0  0  0  0  0  0  0
  -34.1330  -12.1900   18.7250 N   0  0  0  0  0  0  0  0  0  0  0  0
  -34.0830  -10.1290   19.9650 C   0  0  0  0  0  0  0  0  0  0  0  0
  -35.4520   -9.8020   20.0860 C   0  0  0  0  0  3  0  0  0  0  0  0
  -35.8520   -8.4670   20.3060 C   0  0  0  0  0  3  0  0  0  0  0  0
  -34.8820   -7.4430   20.4110 C   0  0  0  0  0  0  0  0  0  0  0  0
  -33.5210   -7.7710   20.2710 C   0  0  0  0  0  3  0  0  0  0  0  0
  -33.1240   -9.0990   20.0470 C   0  0  0  0  0  3  0  0  0  0  0  0
  -35.1780   -6.1150   20.6010 O   0  0  0  0  0  0  0  0  0  0  0  0
  -36.3280   -5.7180   21.2330 C   0  0  0  0  0  0  0  0  0  0  0  0
  -36.6340   -6.1290   22.5490 C   0  0  0  0  0  3  0  0  0  0  0  0
  -37.7910   -5.6410   23.1880 C   0  0  0  0  0  3  0  0  0  0  0  0
  -38.6380   -4.7360   22.5190 C   0  0  0  0  0  0  0  0  0  0  0  0
  -38.3300   -4.3200   21.2110 C   0  0  0  0  0  3  0  0  0  0  0  0
  -37.1770   -4.8080   20.5720 C   0  0  0  0  0  0  0  0  0  0  0  0
  -36.8750   -4.3880   19.3180 F   0  0  0  0  0  0  0  0  0  0  0  0
  -39.7440   -4.2600   23.1340 F   0  0  0  0  0  0  0  0  0  0  0  0
  -31.8700  -11.8940   21.6530 C   0  0  0  0  0  0  0  0  0  0  0  0
  -32.4610  -11.1180   22.5570 N   0  0  0  0  0  0  0  0  0  0  0  0
  -30.7240  -12.3060   21.8210 O   0  0  0  0  0  0  0  0  0  0  0  0
  -33.4090  -10.7950   22.4300 H   0  0  0  0  0  0  0  0  0  0  0  0
  -31.9540  -10.8430   23.3870 H   0  0  0  0  0  0  0  0  0  0  0  0
  -31.7920  -14.6130   19.9270 N   0  0  0  0  0  0  0  0  0  0  0  0
  -31.1220  -14.7100   20.6800 H   0  0  0  0  0  0  0  0  0  0  0  0
  -31.8190  -15.4160   19.3120 H   0  0  0  0  0  0  0  0  0  0  0  0
  -30.4020  -24.6500   19.9890 C   0  0  0  0  0  2  0  0  0  0  0  0
  -29.0840  -25.1350   20.6140 C   0  0  0  0  0  2  0  0  0  0  0  0
  -28.8330  -26.5380   20.4830 O   0  0  0  0  0  0  0  0  0  0  0  0
  -27.7730  -32.0060   24.8850 C   0  0  0  0  0  0  0  0  0  0  0  0
  -27.9960  -27.0900   21.4340 C   0  0  0  0  0  0  0  0  0  0  0  0
  -26.3530  -30.0210   25.2830 C   0  0  0  0  0  3  0  0  0  0  0  0
  -26.3810  -28.2600   23.4460 C   0  0  0  0  0  0  0  0  0  0  0  0
  -27.2320  -30.5520   22.9370 C   0  0  0  0  0  2  0  0  0  0  0  0
  -27.2170  -29.0640   22.6600 C   0  0  0  0  0  0  0  0  0  0  0  0
  -28.0220  -28.4850   21.6530 C   0  0  0  0  0  3  0  0  0  0  0  0
  -27.1210  -26.3020   22.2250 C   0  0  0  0  0  3  0  0  0  0  0  0
  -26.3320  -26.8740   23.2340 C   0  0  0  0  0  3  0  0  0  0  0  0
  -25.5490  -28.9510   24.5000 C   0  0  0  0  0  2  0  0  0  0  0  0
  -27.1710  -30.8940   24.3780 N   0  0  0  0  0  0  0  0  0  0  0  0
  -27.6260  -32.3310   26.0710 O   0  0  0  0  0  0  0  0  0  0  0  0
  -27.1900  -29.3130   26.3730 C   0  0  0  0  0  0  0  0  0  0  0  0
  -26.5950  -29.1280   27.5620 N   0  0  0  0  0  0  0  0  0  0  0  0
  -28.3380  -28.9260   26.1360 O   0  0  0  0  0  0  0  0  0  0  0  0
  -25.6560  -29.4800   27.6810 H   0  0  0  0  0  0  0  0  0  0  0  0
  -26.0620  -28.3580   31.0500 C   0  0  0  0  0  0  0  0  0  0  0  0
  -27.1830  -28.4590   28.7230 C   0  0  0  0  0  3  0  0  0  0  0  0
  -26.9540  -26.9320   28.6580 C   0  0  0  0  0  2  0  0  0  0  0  0
  -25.6910  -26.4790   29.3960 C   0  0  0  0  0  2  0  0  0  0  0  0
  -25.7550  -26.8810   30.8720 C   0  0  0  0  0  2  0  0  0  0  0  0
  -26.7180  -29.1040   30.0360 C   0  0  0  0  0  0  0  0  0  0  0  0
  -26.9490  -30.4820   30.2360 C   0  0  0  0  0  3  0  0  0  0  0  0
  -26.5390  -31.1140   31.4270 C   0  0  0  0  0  3  0  0  0  0  0  0
  -25.9030  -30.3680   32.4340 C   0  0  0  0  0  3  0  0  0  0  0  0
  -25.6690  -28.9940   32.2470 C   0  0  0  0  0  3  0  0  0  0  0  0
  -28.6540  -32.9360   23.9900 C   0  0  0  0  0  3  0  0  0  0  0  0
  -30.1850  -32.5580   24.0220 C   0  0  1  0  0  0  0  0  0  0  0  0
  -30.7580  -32.3980   25.4500 C   0  0  0  0  0  1  0  0  0  0  0  0
  -30.4380  -31.2350   23.2610 C   0  0  0  0  0  1  0  0  0  0  0  0
  -31.0100  -33.6480   23.2990 C   0  0  0  0  0  1  0  0  0  0  0  0
  -28.4490  -34.3130   24.4510 N   0  0  0  0  0  0  0  0  0  0  0  0
  -27.6720  -35.2140   23.8360 C   0  0  0  0  0  0  0  0  0  0  0  0
  -27.1020  -34.9870   22.7650 O   0  0  0  0  0  0  0  0  0  0  0  0
  -28.8480  -34.5530   25.3470 H   0  0  0  0  0  0  0  0  0  0  0  0
  -26.1490  -36.6210   25.2560 C   0  0  0  0  0  1  0  0  0  0  0  0
  -27.4970  -36.5840   24.5170 C   0  0  0  0  0  3  0  0  0  0  0  0
  -28.9240  -37.9190   23.0320 C   0  0  0  0  0  1  0  0  0  0  0  0
  -27.5830  -37.7230   23.5780 N   0  0  0  0  0  0  0  0  0  0  0  0
  -27.2960  -38.5860   24.0300 H   0  0  0  0  0  0  0  0  0  0  0  0
  1  3  1  0
  1  2  1  0
  2  5  1  0
  3  6  1  0
  4  5  1  0
  4  6  1  0
  5  8  1  0
  6 56  1  0
  6  7  1  1
  8  9  2  0
 10 12  1  0
 11 14  1  0
 12 14  2  0
 12  9  1  0
 13 15  1  0
 13 10  2  0
 14 16  1  0
 15 11  2  0
 17 15  1  0
 18 26  1  0
 19 24  1  0
 20 19  1  0
 20 21  1  0
 22 21  1  0
 22 23  1  0
 22 31  1  0
 24 18  1  0
 24 23  1  0
 25 18  2  0
 26 13  1  0
 27 26  1  0
 28 53  1  0
 28 29  2  0
 29 48  1  0
 30 33  1  0
 30 29  1  0
 31 32  1  0
 31 28  1  0
 32 30  2  0
 33 38  2  0
 33 34  1  0
 34 35  2  0
 35 36  1  0
 36 39  1  0
 37 36  2  0
 38 37  1  0
 39 40  1  0
 40 41  1  0
 41 42  2  0
 43 47  1  0
 43 42  1  0
 44 43  2  0
 45 44  1  0
 45 40  2  0
 46 45  1  0
 48 50  2  0
 48 49  1  0
 49 52  1  0
 51 49  1  0
 53 54  1  0
 55 53  1  0
 56 57  1  0
 58 57  1  0
 58 60  1  0
 59 70  2  0
 60 65  2  0
 60 66  1  0
 61 71  1  0
 62 68  1  0
 63 69  1  0
 64 63  1  0
 64 62  2  0
 65 64  1  0
 66 67  2  0
 67 62  1  0
 68 61  1  0
 69 59  1  0
 69 61  1  0
 71 72  1  0
 72 74  1  0
 73 71  2  0
 75 84  1  0
 76 72  1  0
 76 80  1  0
 77 76  1  0
 77 78  1  0
 78 79  1  0
 79 75  1  0
 80 81  1  0
 80 75  2  0
 81 82  2  0
 82 83  1  0
 84 83  2  0
 85 86  1  0
 85 90  1  0
 85 59  1  0
 86 87  1  1
 88 86  1  0
 89 86  1  0
 90 93  1  0
 91 90  1  0
 91 95  1  0
 92 91  2  0
 95 94  1  0
 96 97  1  0
 97 98  1  0
 97 95  1  0
M  ISO  4  18 100  26 100  57 101  58 101
M  END
>  <TORSDO>  (33) 
F 20

>  <SCORE>  (33) 
-5.897

>  <name>  (33) 
32

>  <ligand_id>  (33) 
32

>  <original_smiles>  (33) 
[H]C(=Nc1c([H])c(N([H])C(=O)N2C([H])([H])C([H])([H])C([H])([H])C([H])(n3nc(-c4c([H])c([H])c(Oc5c([H])c([H])c(F)c([H])c5F)c([H])c4[H])c(C(=O)N([H])[H])c3N([H])[H])C2([H])[H])c(F)c([H])c1F)C1([H])C([H])([H])C([H])([H])C([H])([H])[N+]([H])(C([H])([H])C([H])([H])Oc2c([H])c([H])c3c(c2[H])C([H])([H])N(C(=O)C([H])(N([H])C(=O)C([H])(N([H])C([H])([H])[H])C([H])([H])[H])C(C([H])([H])[H])(C([H])([H])[H])C([H])([H])[H])C([H])(C(=O)N([H])C2([H])c4c([H])c([H])c([H])c([H])c4C([H])([H])C([H])([H])C2([H])[H])C3([H])[H])C1([H])[H]

>  <smiles>  (33) 
[H]C(=Nc1c([H])c(N([H])C(=O)N2C([H])([H])C([H])([H])C([H])([H])C([H])(n3nc(-c4c([H])c([H])c(Oc5c([H])c([H])c(F)c([H])c5F)c([H])c4[H])c(C(=O)N([H])[H])c3N([H])[H])C2([H])[H])c(F)c([H])c1F)C1([H])C([H])([H])C([H])([H])C([H])([H])[N+]([H])(C([H])([H])C([H])([H])Oc2c([H])c([H])c3c(c2[H])C([H])([H])N(C(=O)C([H])(N([H])C(=O)C([H])(N([H])C([H])([H])[H])C([H])([H])[H])C(C([H])([H])[H])(C([H])([H])[H])C([H])([H])[H])C([H])(C(=O)N([H])C2([H])c4c([H])c([H])c([H])c([H])c4C([H])([H])C([H])([H])C2([H])[H])C3([H])[H])C1([H])[H]

$$$$
33:0:0
     RDKit          3D

 95103  0  0  1  0  0  0  0  0999 V2000
  -28.9320  -22.4930   20.1570 C   0  0  0  0  0  2  0  0  0  0  0  0
  -29.7810  -21.4770   19.4490 N   0  0  0  0  0  0  0  0  0  0  0  0
  -30.6010  -21.8460   18.9680 H   0  0  0  0  0  0  0  0  0  0  0  0
  -31.0280  -17.8680   19.6360 C   0  0  0  0  0  3  0  0  0  0  0  0
  -30.9390  -19.2700   19.3830 C   0  0  0  0  0  3  0  0  0  0  0  0
  -28.8920  -17.9640   20.7450 C   0  0  0  0  0  3  0  0  0  0  0  0
  -29.9850  -17.1620   20.3040 C   0  0  0  0  0  0  0  0  0  0  0  0
  -29.8280  -20.0720   19.7880 C   0  0  0  0  0  0  0  0  0  0  0  0
  -28.8090  -19.3730   20.5070 C   0  0  0  0  0  0  0  0  0  0  0  0
  -27.7170  -20.0290   20.9670 F   0  0  0  0  0  0  0  0  0  0  0  0
  -30.6890  -14.6690   20.0480 C   0  0  0  0  0  0  0  0  0  0  0  0
  -30.3940  -12.4690   18.9360 C   0  0  0  0  0  2  0  0  0  0  0  0
  -29.3680  -12.6130   17.7890 C   0  0  0  0  0  2  0  0  0  0  0  0
  -27.9270  -12.4650   18.3110 C   0  0  0  0  0  2  0  0  0  0  0  0
  -27.6550  -13.3040   19.5870 C   0  0  0  0  0  3  0  0  0  0  0  0
  -28.7810  -13.1070   20.6270 C   0  0  0  0  0  2  0  0  0  0  0  0
  -30.0580  -13.4550   19.9830 N   0  0  0  0  0  0  0  0  0  0  0  0
  -31.8200  -14.8280   19.5750 O   0  0  0  0  0  0  0  0  0  0  0  0
  -29.9460  -15.7080   20.5350 N   0  0  0  0  0  0  0  0  0  0  0  0
  -29.1130  -15.3880   21.0090 H   0  0  0  0  0  0  0  0  0  0  0  0
  -25.3140  -13.9020   20.4640 C   0  0  0  0  0  0  0  0  0  0  0  0
  -24.2640  -13.1240   20.8730 C   0  0  0  0  0  0  0  0  0  0  0  0
  -24.7120  -11.7710   20.7760 C   0  0  0  0  0  0  0  0  0  0  0  0
  -26.3350  -13.0190   20.1440 N   0  0  0  0  0  0  0  0  0  0  0  0
  -25.9830  -11.7330   20.3930 N   0  0  0  0  0  0  0  0  0  0  0  0
  -23.9910  -10.5070   20.9700 C   0  0  0  0  0  0  0  0  0  0  0  0
  -24.4430   -9.5330   21.8870 C   0  0  0  0  0  3  0  0  0  0  0  0
  -23.7220   -8.3330   22.0730 C   0  0  0  0  0  3  0  0  0  0  0  0
  -22.5350   -8.1000   21.3400 C   0  0  0  0  0  0  0  0  0  0  0  0
  -22.1010   -9.0630   20.4100 C   0  0  0  0  0  3  0  0  0  0  0  0
  -22.8220  -10.2520   20.2240 C   0  0  0  0  0  3  0  0  0  0  0  0
  -21.7870   -6.9520   21.4340 O   0  0  0  0  0  0  0  0  0  0  0  0
  -21.7200   -6.2280   22.5970 C   0  0  0  0  0  0  0  0  0  0  0  0
  -21.2570   -6.7990   23.8030 C   0  0  0  0  0  3  0  0  0  0  0  0
  -21.1400   -6.0030   24.9580 C   0  0  0  0  0  3  0  0  0  0  0  0
  -21.4730   -4.6360   24.9100 C   0  0  0  0  0  0  0  0  0  0  0  0
  -21.9260   -4.0650   23.7080 C   0  0  0  0  0  3  0  0  0  0  0  0
  -22.0450   -4.8570   22.5530 C   0  0  0  0  0  0  0  0  0  0  0  0
  -22.4640   -4.2950   21.3920 F   0  0  0  0  0  0  0  0  0  0  0  0
  -21.3500   -3.8680   26.0190 F   0  0  0  0  0  0  0  0  0  0  0  0
  -22.8880  -13.5990   21.2400 C   0  0  0  0  0  0  0  0  0  0  0  0
  -22.2090  -12.8820   22.1270 N   0  0  0  0  0  0  0  0  0  0  0  0
  -22.4250  -14.6400   20.7750 O   0  0  0  0  0  0  0  0  0  0  0  0
  -22.6040  -12.0470   22.5340 H   0  0  0  0  0  0  0  0  0  0  0  0
  -21.2900  -13.1820   22.4200 H   0  0  0  0  0  0  0  0  0  0  0  0
  -25.4870  -15.2760   20.3190 N   0  0  0  0  0  0  0  0  0  0  0  0
  -24.7500  -15.9460   20.5140 H   0  0  0  0  0  0  0  0  0  0  0  0
  -26.3250  -15.7050   19.9490 H   0  0  0  0  0  0  0  0  0  0  0  0
  -28.9790  -24.0080   19.6320 C   0  0  0  0  0  3  0  0  0  0  0  0
  -28.4960  -24.0540   18.2330 N   0  0  0  0  0  4  0  0  0  0  0  0
  -27.7280  -23.4180   18.1040 H   0  0  0  0  0  0  0  0  0  0  0  0
  -29.2220  -23.8030   17.5910 H   0  0  0  0  0  0  0  0  0  0  0  0
  -28.1850  -24.9840   18.0090 H   0  0  0  0  0  0  0  0  0  0  0  0
  -28.1710  -25.0890   20.4710 C   0  0  0  0  0  2  0  0  0  0  0  0
  -28.3660  -26.5220   20.1370 O   0  0  0  0  0  0  0  0  0  0  0  0
  -24.5640  -31.8630   23.1670 C   0  0  0  0  0  0  0  0  0  0  0  0
  -27.2410  -27.3500   20.1160 C   0  0  0  0  0  0  0  0  0  0  0  0
  -23.3910  -30.4600   21.5060 C   0  0  0  0  0  3  0  0  0  0  0  0
  -24.8670  -28.9340   20.0880 C   0  0  0  0  0  0  0  0  0  0  0  0
  -25.9290  -30.7990   21.3610 C   0  0  0  0  0  2  0  0  0  0  0  0
  -26.0250  -29.4290   20.7050 C   0  0  0  0  0  0  0  0  0  0  0  0
  -27.2140  -28.6480   20.7090 C   0  0  0  0  0  3  0  0  0  0  0  0
  -26.0660  -26.9100   19.4690 C   0  0  0  0  0  3  0  0  0  0  0  0
  -24.8900  -27.6800   19.4620 C   0  0  0  0  0  3  0  0  0  0  0  0
  -23.6290  -29.8010   20.1240 C   0  0  0  0  0  2  0  0  0  0  0  0
  -24.6450  -31.0600   22.0660 N   0  0  0  0  0  0  0  0  0  0  0  0
  -23.4730  -32.1260   23.6930 O   0  0  0  0  0  0  0  0  0  0  0  0
  -22.7300  -29.4300   22.4540 C   0  0  0  0  0  0  0  0  0  0  0  0
  -21.4020  -29.2570   22.3300 N   0  0  0  0  0  0  0  0  0  0  0  0
  -23.4100  -28.7950   23.2630 O   0  0  0  0  0  0  0  0  0  0  0  0
  -20.9170  -29.8190   21.6440 H   0  0  0  0  0  0  0  0  0  0  0  0
  -18.0190  -28.1000   22.8580 C   0  0  0  0  0  0  0  0  0  0  0  0
  -20.5830  -28.3160   23.0960 C   0  0  0  0  0  3  0  0  0  0  0  0
  -20.6570  -26.8940   22.4950 C   0  0  0  0  0  2  0  0  0  0  0  0
  -19.5390  -26.6100   21.4870 C   0  0  0  0  0  2  0  0  0  0  0  0
  -18.1670  -26.7660   22.1470 C   0  0  0  0  0  2  0  0  0  0  0  0
  -19.1540  -28.8360   23.2900 C   0  0  0  0  0  0  0  0  0  0  0  0
  -18.9610  -30.0880   23.9130 C   0  0  0  0  0  3  0  0  0  0  0  0
  -17.6660  -30.6020   24.1080 C   0  0  0  0  0  3  0  0  0  0  0  0
  -16.5460  -29.8600   23.6950 C   0  0  0  0  0  3  0  0  0  0  0  0
  -16.7220  -28.6100   23.0750 C   0  0  0  0  0  3  0  0  0  0  0  0
  -25.8350  -32.5060   23.8000 C   0  0  0  0  0  3  0  0  0  0  0  0
  -25.5050  -33.8980   24.1400 N   0  0  0  0  0  0  0  0  0  0  0  0
  -25.8310  -34.9610   23.3920 C   0  0  0  0  0  0  0  0  0  0  0  0
  -26.5110  -34.8720   22.3660 O   0  0  0  0  0  0  0  0  0  0  0  0
  -24.9040  -34.0360   24.9380 H   0  0  0  0  0  0  0  0  0  0  0  0
  -24.0930  -36.7440   23.0350 C   0  0  0  0  0  1  0  0  0  0  0  0
  -25.3240  -36.3390   23.8600 C   0  0  0  0  0  3  0  0  0  0  0  0
  -27.4420  -37.2320   24.7290 C   0  0  0  0  0  1  0  0  0  0  0  0
  -26.3500  -37.4030   23.7740 N   0  0  0  0  0  0  0  0  0  0  0  0
  -25.9340  -38.3180   23.9270 H   0  0  0  0  0  0  0  0  0  0  0  0
  -26.3550  -31.7330   25.0760 C   0  0  1  0  0  0  0  0  0  0  0  0
  -25.2640  -31.4890   26.1430 C   0  0  0  0  0  1  0  0  0  0  0  0
  -26.9480  -30.3580   24.6890 C   0  0  0  0  0  1  0  0  0  0  0  0
  -27.5010  -32.5370   25.7360 C   0  0  0  0  0  1  0  0  0  0  0  0
  2  8  1  0
  2  1  1  0
  3  2  1  0
  4  7  1  0
  5  4  2  0
  5  8  1  0
  7 19  1  0
  7  6  2  0
  8  9  2  0
  9  6  1  0
  9 10  1  0
 11 19  1  0
 12 17  1  0
 13 14  1  0
 13 12  1  0
 15 14  1  0
 15 24  1  0
 15 16  1  0
 17 11  1  0
 17 16  1  0
 18 11  2  0
 19 20  1  0
 21 22  2  0
 22 41  1  0
 23 22  1  0
 23 26  1  0
 24 25  1  0
 24 21  1  0
 25 23  2  0
 26 27  1  0
 27 28  2  0
 29 32  1  0
 29 28  1  0
 30 29  2  0
 31 30  1  0
 31 26  2  0
 32 33  1  0
 33 34  1  0
 34 35  2  0
 36 35  1  0
 36 40  1  0
 37 36  2  0
 38 33  2  0
 38 37  1  0
 39 38  1  0
 41 42  1  0
 42 45  1  0
 42 44  1  0
 43 41  2  0
 46 21  1  0
 46 47  1  0
 48 46  1  0
 49  1  1  0
 49 54  1  0
 50 49  1  0
 51 50  1  0
 52 50  1  0
 53 50  1  0
 55 54  1  0
 56 67  2  0
 57 55  1  0
 57 62  1  0
 58 66  1  0
 58 68  1  0
 59 65  1  0
 59 61  1  0
 60 66  1  0
 61 62  2  0
 61 60  1  0
 63 57  2  0
 64 63  1  0
 64 59  2  0
 65 58  1  0
 66 56  1  0
 68 70  2  0
 69 68  1  0
 71 69  1  0
 72 81  2  0
 72 77  1  0
 73 69  1  0
 73 77  1  0
 74 73  1  0
 75 76  1  0
 75 74  1  0
 76 72  1  0
 77 78  2  0
 78 79  1  0
 80 79  2  0
 81 80  1  0
 82 56  1  0
 82 83  1  0
 82 92  1  0
 83 86  1  0
 84 88  1  0
 84 83  1  0
 85 84  2  0
 88 87  1  0
 90 88  1  0
 90 91  1  0
 90 89  1  0
 92 95  1  1
 92 93  1  0
 94 92  1  0
M  ISO  4  11 100  19 100  54 101  55 101
M  END
>  <TORSDO>  (34) 
F 21

>  <SCORE>  (34) 
-13.524

>  <name>  (34) 
33

>  <ligand_id>  (34) 
33

>  <original_smiles>  (34) 
[H]c1c([H])c([H])c2c(c1[H])C([H])([H])C([H])([H])C([H])([H])C2([H])N([H])C(=O)C1([H])N(C(=O)C([H])(N([H])C(=O)C([H])(N([H])C([H])([H])[H])C([H])([H])[H])C(C([H])([H])[H])(C([H])([H])[H])C([H])([H])[H])C([H])([H])c2c([H])c(OC([H])([H])C([H])(C([H])([H])N([H])c3c([H])c([H])c(N([H])C(=O)N4C([H])([H])C([H])([H])C([H])([H])C([H])(n5nc(-c6c([H])c([H])c(Oc7c([H])c([H])c(F)c([H])c7F)c([H])c6[H])c(C(=O)N([H])[H])c5N([H])[H])C4([H])[H])c([H])c3F)[N+]([H])([H])[H])c([H])c([H])c2C1([H])[H]

>  <smiles>  (34) 
[H]c1c([H])c([H])c2c(c1[H])C([H])([H])C([H])([H])C([H])([H])C2([H])N([H])C(=O)C1([H])N(C(=O)C([H])(N([H])C(=O)C([H])(N([H])C([H])([H])[H])C([H])([H])[H])C(C([H])([H])[H])(C([H])([H])[H])C([H])([H])[H])C([H])([H])c2c([H])c(OC([H])([H])C([H])(C([H])([H])N([H])c3c([H])c([H])c(N([H])C(=O)N4C([H])([H])C([H])([H])C([H])([H])C([H])(n5nc(-c6c([H])c([H])c(Oc7c([H])c([H])c(F)c([H])c7F)c([H])c6[H])c(C(=O)N([H])[H])c5N([H])[H])C4([H])[H])c([H])c3F)[N+]([H])([H])[H])c([H])c([H])c2C1([H])[H]

$$$$
34:0:0
     RDKit          3D

 96104  0  0  1  0  0  0  0  0999 V2000
  -31.5610  -22.0400   24.0260 C   0  0  0  0  0  1  0  0  0  0  0  0
  -31.2410  -21.4130   22.7210 N   0  0  1  0  0  4  0  0  0  0  0  0
  -32.1030  -21.0210   22.3660 H   0  0  0  0  0  0  0  0  0  0  0  0
  -30.3450  -20.2340   22.8750 C   0  0  0  0  0  2  0  0  0  0  0  0
  -30.9040  -14.5470   19.5780 C   0  0  0  0  0  0  0  0  0  0  0  0
  -30.4610  -12.4150   18.4140 C   0  0  0  0  0  2  0  0  0  0  0  0
  -29.3760  -12.6180   17.3390 C   0  0  0  0  0  2  0  0  0  0  0  0
  -27.9650  -12.4630   17.9420 C   0  0  0  0  0  2  0  0  0  0  0  0
  -27.7830  -13.2880   19.2420 C   0  0  0  0  0  3  0  0  0  0  0  0
  -28.9670  -13.0390   20.2100 C   0  0  0  0  0  2  0  0  0  0  0  0
  -30.2080  -13.3790   19.4960 N   0  0  0  0  0  0  0  0  0  0  0  0
  -31.9150  -14.7540   18.8940 O   0  0  0  0  0  0  0  0  0  0  0  0
  -31.1290  -18.9100   22.8680 C   0  0  0  0  0  0  0  0  0  0  0  0
  -28.9740  -17.5670   20.8770 C   0  0  0  0  0  2  0  0  0  0  0  0
  -29.0690  -17.5620   22.4120 C   0  0  0  0  0  2  0  0  0  0  0  0
  -29.2170  -16.1840   20.2370 C   0  0  0  0  0  2  0  0  0  0  0  0
  -31.1830  -16.4440   22.7000 C   0  0  0  0  0  2  0  0  0  0  0  0
  -31.5540  -16.1730   21.2320 C   0  0  0  0  0  2  0  0  0  0  0  0
  -30.4770  -17.7220   22.7730 N   0  0  0  0  0  0  0  0  0  0  0  0
  -30.4930  -15.4570   20.5010 N   0  0  0  0  0  0  0  0  0  0  0  0
  -32.3600  -18.9720   22.9350 O   0  0  0  0  0  0  0  0  0  0  0  0
  -25.5170  -13.9140   20.2970 C   0  0  0  0  0  0  0  0  0  0  0  0
  -24.4890  -13.1440   20.7680 C   0  0  0  0  0  0  0  0  0  0  0  0
  -24.9080  -11.7890   20.6060 C   0  0  0  0  0  0  0  0  0  0  0  0
  -26.4990  -13.0250   19.8820 N   0  0  0  0  0  0  0  0  0  0  0  0
  -26.1420  -11.7400   20.1220 N   0  0  0  0  0  0  0  0  0  0  0  0
  -24.1850  -10.5330   20.8270 C   0  0  0  0  0  0  0  0  0  0  0  0
  -24.6470   -9.5660   21.7490 C   0  0  0  0  0  3  0  0  0  0  0  0
  -23.9250   -8.3710   21.9520 C   0  0  0  0  0  3  0  0  0  0  0  0
  -22.7270   -8.1350   21.2360 C   0  0  0  0  0  0  0  0  0  0  0  0
  -22.2870   -9.0880   20.3000 C   0  0  0  0  0  3  0  0  0  0  0  0
  -23.0090  -10.2750   20.0940 C   0  0  0  0  0  3  0  0  0  0  0  0
  -21.9710   -6.9950   21.3530 O   0  0  0  0  0  0  0  0  0  0  0  0
  -21.8370   -6.3420   22.5510 C   0  0  0  0  0  0  0  0  0  0  0  0
  -21.3620   -6.9950   23.7090 C   0  0  0  0  0  3  0  0  0  0  0  0
  -21.1760   -6.2670   24.9010 C   0  0  0  0  0  3  0  0  0  0  0  0
  -21.4530   -4.8870   24.9360 C   0  0  0  0  0  0  0  0  0  0  0  0
  -21.9210   -4.2350   23.7820 C   0  0  0  0  0  3  0  0  0  0  0  0
  -22.1090   -4.9600   22.5930 C   0  0  0  0  0  0  0  0  0  0  0  0
  -22.5410   -4.3210   21.4800 F   0  0  0  0  0  0  0  0  0  0  0  0
  -21.2650   -4.1870   26.0780 F   0  0  0  0  0  0  0  0  0  0  0  0
  -23.1540  -13.6290   21.2520 C   0  0  0  0  0  0  0  0  0  0  0  0
  -22.5470  -12.9190   22.1980 N   0  0  0  0  0  0  0  0  0  0  0  0
  -22.6580  -14.6710   20.8240 O   0  0  0  0  0  0  0  0  0  0  0  0
  -22.9580  -12.0720   22.5640 H   0  0  0  0  0  0  0  0  0  0  0  0
  -21.6560  -13.2250   22.5620 H   0  0  0  0  0  0  0  0  0  0  0  0
  -25.6860  -15.2910   20.1660 N   0  0  0  0  0  0  0  0  0  0  0  0
  -24.9580  -15.9490   20.4200 H   0  0  0  0  0  0  0  0  0  0  0  0
  -26.4870  -15.7370   19.7390 H   0  0  0  0  0  0  0  0  0  0  0  0
  -30.7380  -22.3970   21.7190 C   0  0  0  0  0  2  0  0  0  0  0  0
  -31.8420  -23.2850   21.0980 C   0  0  0  0  0  2  0  0  0  0  0  0
  -32.3070  -24.3820   19.0180 C   0  0  0  0  0  1  0  0  0  0  0  0
  -31.2820  -24.1320   20.0330 N   0  0  0  0  0  0  0  0  0  0  0  0
  -30.8010  -25.4110   20.5750 C   0  0  0  0  0  2  0  0  0  0  0  0
  -29.6480  -26.0210   19.7450 C   0  0  0  0  0  2  0  0  0  0  0  0
  -29.4370  -27.3550   20.2020 O   0  0  0  0  0  0  0  0  0  0  0  0
  -24.8810  -31.7140   23.4200 C   0  0  0  0  0  0  0  0  0  0  0  0
  -28.1730  -27.8990   20.1460 C   0  0  0  0  0  0  0  0  0  0  0  0
  -23.9300  -30.3560   21.5840 C   0  0  0  0  0  3  0  0  0  0  0  0
  -25.6200  -29.1190   20.1270 C   0  0  0  0  0  0  0  0  0  0  0  0
  -26.4040  -30.9960   21.5840 C   0  0  0  0  0  2  0  0  0  0  0  0
  -26.6730  -29.7100   20.8330 C   0  0  0  0  0  0  0  0  0  0  0  0
  -27.9490  -29.1070   20.8400 C   0  0  0  0  0  3  0  0  0  0  0  0
  -27.1010  -27.3170   19.4280 C   0  0  0  0  0  3  0  0  0  0  0  0
  -25.8270  -27.9200   19.4210 C   0  0  0  0  0  3  0  0  0  0  0  0
  -24.2870  -29.8310   20.1670 C   0  0  0  0  0  2  0  0  0  0  0  0
  -25.0850  -31.0330   22.2570 N   0  0  0  0  0  0  0  0  0  0  0  0
  -23.7490  -31.8200   23.9090 O   0  0  0  0  0  0  0  0  0  0  0  0
  -23.3430  -29.1870   22.4070 C   0  0  0  0  0  0  0  0  0  0  0  0
  -22.0520  -28.8900   22.1820 N   0  0  0  0  0  0  0  0  0  0  0  0
  -24.0460  -28.5540   23.1980 O   0  0  0  0  0  0  0  0  0  0  0  0
  -21.5430  -29.4610   21.5230 H   0  0  0  0  0  0  0  0  0  0  0  0
  -18.7990  -27.3280   22.3580 C   0  0  0  0  0  0  0  0  0  0  0  0
  -21.2990  -27.8060   22.8120 C   0  0  0  0  0  3  0  0  0  0  0  0
  -21.5780  -26.4550   22.1150 C   0  0  0  0  0  2  0  0  0  0  0  0
  -20.5720  -26.1260   21.0080 C   0  0  0  0  0  2  0  0  0  0  0  0
  -19.1490  -26.0740   21.5760 C   0  0  0  0  0  2  0  0  0  0  0  0
  -19.8100  -28.1500   22.9250 C   0  0  0  0  0  0  0  0  0  0  0  0
  -19.4320  -29.3240   23.6130 C   0  0  0  0  0  3  0  0  0  0  0  0
  -18.0760  -29.6780   23.7420 C   0  0  0  0  0  3  0  0  0  0  0  0
  -17.0790  -28.8530   23.1920 C   0  0  0  0  0  3  0  0  0  0  0  0
  -17.4410  -27.6790   22.5070 C   0  0  0  0  0  3  0  0  0  0  0  0
  -26.0550  -32.4120   24.1760 C   0  0  0  0  0  3  0  0  0  0  0  0
  -25.6210  -33.7770   24.5010 N   0  0  0  0  0  0  0  0  0  0  0  0
  -25.9600  -34.8680   23.8010 C   0  0  0  0  0  0  0  0  0  0  0  0
  -26.7390  -34.8370   22.8440 O   0  0  0  0  0  0  0  0  0  0  0  0
  -24.9370  -33.8720   25.2360 H   0  0  0  0  0  0  0  0  0  0  0  0
  -24.1560  -36.5480   23.3040 C   0  0  0  0  0  1  0  0  0  0  0  0
  -25.3340  -36.2090   24.2310 C   0  0  0  0  0  3  0  0  0  0  0  0
  -27.3110  -37.2110   25.2890 C   0  0  0  0  0  1  0  0  0  0  0  0
  -26.2980  -37.3310   24.2430 N   0  0  0  0  0  0  0  0  0  0  0  0
  -25.8180  -38.2180   24.3680 H   0  0  0  0  0  0  0  0  0  0  0  0
  -26.5010  -31.6420   25.4800 C   0  0  1  0  0  0  0  0  0  0  0  0
  -25.3300  -31.2950   26.4280 C   0  0  0  0  0  1  0  0  0  0  0  0
  -27.2210  -30.3230   25.1140 C   0  0  0  0  0  1  0  0  0  0  0  0
  -27.5190  -32.4980   26.2710 C   0  0  0  0  0  1  0  0  0  0  0  0
  2  4  1  0
  2  1  1  0
  2  3  1  6
  5 20  1  0
  6 11  1  0
  7  8  1  0
  7  6  1  0
  9  8  1  0
  9 25  1  0
  9 10  1  0
 11  5  1  0
 11 10  1  0
 12  5  2  0
 13  4  1  0
 13 21  2  0
 14 15  1  0
 15 19  1  0
 16 20  1  0
 16 14  1  0
 17 19  1  0
 18 17  1  0
 19 13  1  0
 20 18  1  0
 22 23  2  0
 23 42  1  0
 24 23  1  0
 24 27  1  0
 25 26  1  0
 25 22  1  0
 26 24  2  0
 27 28  1  0
 28 29  2  0
 30 33  1  0
 30 29  1  0
 31 30  2  0
 32 31  1  0
 32 27  2  0
 33 34  1  0
 34 39  2  0
 34 35  1  0
 35 36  2  0
 36 37  1  0
 37 41  1  0
 38 37  2  0
 39 38  1  0
 40 39  1  0
 42 43  1  0
 43 46  1  0
 43 45  1  0
 44 42  2  0
 47 22  1  0
 47 48  1  0
 49 47  1  0
 50  2  1  0
 51 50  1  0
 52 53  1  0
 53 54  1  0
 53 51  1  0
 55 56  1  0
 55 54  1  0
 57 68  2  0
 58 56  1  0
 58 63  1  0
 59 67  1  0
 59 69  1  0
 60 66  1  0
 60 62  1  0
 61 67  1  0
 62 63  2  0
 62 61  1  0
 64 58  2  0
 65 64  1  0
 65 60  2  0
 66 59  1  0
 67 57  1  0
 69 71  2  0
 70 69  1  0
 72 70  1  0
 73 82  2  0
 73 78  1  0
 74 70  1  0
 74 78  1  0
 75 74  1  0
 76 77  1  0
 76 75  1  0
 77 73  1  0
 78 79  2  0
 79 80  1  0
 81 80  2  0
 82 81  1  0
 83 57  1  0
 83 84  1  0
 83 93  1  0
 84 87  1  0
 85 89  1  0
 85 84  1  0
 86 85  2  0
 89 88  1  0
 89 91  1  0
 91 92  1  0
 91 90  1  0
 93 96  1  1
 93 94  1  0
 95 93  1  0
M  ISO  4   5 100  20 100  55 101  56 101
M  END
>  <TORSDO>  (35) 
F 22

>  <SCORE>  (35) 
-6.923

>  <name>  (35) 
34

>  <ligand_id>  (35) 
34

>  <original_smiles>  (35) 
[H]c1c([H])c([H])c2c(c1[H])C([H])([H])C([H])([H])C([H])([H])C2([H])N([H])C(=O)C1([H])N(C(=O)C([H])(N([H])C(=O)C([H])(N([H])C([H])([H])[H])C([H])([H])[H])C(C([H])([H])[H])(C([H])([H])[H])C([H])([H])[H])C([H])([H])c2c([H])c(OC([H])([H])C([H])([H])N(C([H])([H])[H])C([H])([H])C([H])([H])[N+]([H])(C([H])([H])[H])C([H])([H])C(=O)N3C([H])([H])C([H])([H])N(C(=O)N4C([H])([H])C([H])([H])C([H])([H])C([H])(n5nc(-c6c([H])c([H])c(Oc7c([H])c([H])c(F)c([H])c7F)c([H])c6[H])c(C(=O)N([H])[H])c5N([H])[H])C4([H])[H])C([H])([H])C([H])([H])C3([H])[H])c([H])c([H])c2C1([H])[H]

>  <smiles>  (35) 
[H]c1c([H])c([H])c2c(c1[H])C([H])([H])C([H])([H])C([H])([H])C2([H])N([H])C(=O)C1([H])N(C(=O)C([H])(N([H])C(=O)C([H])(N([H])C([H])([H])[H])C([H])([H])[H])C(C([H])([H])[H])(C([H])([H])[H])C([H])([H])[H])C([H])([H])c2c([H])c(OC([H])([H])C([H])([H])N(C([H])([H])[H])C([H])([H])C([H])([H])[N+]([H])(C([H])([H])[H])C([H])([H])C(=O)N3C([H])([H])C([H])([H])N(C(=O)N4C([H])([H])C([H])([H])C([H])([H])C([H])(n5nc(-c6c([H])c([H])c(Oc7c([H])c([H])c(F)c([H])c7F)c([H])c6[H])c(C(=O)N([H])[H])c5N([H])[H])C4([H])[H])C([H])([H])C([H])([H])C3([H])[H])c([H])c([H])c2C1([H])[H]

$$$$
35:0:0
     RDKit          3D

 93101  0  0  1  0  0  0  0  0999 V2000
  -29.1510  -22.4370   20.0410 C   0  0  0  0  0  0  0  0  0  0  0  0
  -28.7780  -21.1000   20.1880 N   0  0  0  0  0  0  0  0  0  0  0  0
  -30.3430  -22.7300   19.9410 O   0  0  0  0  0  0  0  0  0  0  0  0
  -27.8220  -20.9640   20.4930 H   0  0  0  0  0  0  0  0  0  0  0  0
  -30.3000  -19.8960   18.6370 C   0  0  0  0  0  3  0  0  0  0  0  0
  -29.3430  -18.5260   20.4050 C   0  0  0  0  0  3  0  0  0  0  0  0
  -30.8660  -18.7320   18.0770 C   0  0  0  0  0  0  0  0  0  0  0  0
  -29.4930  -19.8480   19.7960 C   0  0  0  0  0  0  0  0  0  0  0  0
  -29.9710  -17.3070   19.8880 C   0  0  0  0  0  0  0  0  0  0  0  0
  -30.6910  -17.4660   18.6750 C   0  0  0  0  0  0  0  0  0  0  0  0
  -31.6310  -18.8340   16.7680 C   0  0  0  0  0  1  0  0  0  0  0  0
  -31.1750  -16.3910   18.0090 F   0  0  0  0  0  0  0  0  0  0  0  0
  -30.6010  -14.7980   20.3350 C   0  0  0  0  0  0  0  0  0  0  0  0
  -30.4350  -12.4980   19.3900 C   0  0  0  0  0  2  0  0  0  0  0  0
  -29.5100  -12.5630   18.1550 C   0  0  0  0  0  2  0  0  0  0  0  0
  -28.0380  -12.3790   18.5740 C   0  0  0  0  0  2  0  0  0  0  0  0
  -27.6460  -13.2710   19.7830 C   0  0  0  0  0  3  0  0  0  0  0  0
  -28.6970  -13.2090   20.9120 C   0  0  0  0  0  2  0  0  0  0  0  0
  -29.9930  -13.5620   20.3220 N   0  0  0  0  0  0  0  0  0  0  0  0
  -31.8060  -14.8750   20.0860 O   0  0  0  0  0  0  0  0  0  0  0  0
  -29.8080  -15.9360   20.4690 N   0  0  0  0  0  0  0  0  0  0  0  0
  -28.9100  -15.7590   20.8910 H   0  0  0  0  0  0  0  0  0  0  0  0
  -25.2510  -13.8450   20.4960 C   0  0  0  0  0  0  0  0  0  0  0  0
  -24.1890  -13.0640   20.8640 C   0  0  0  0  0  0  0  0  0  0  0  0
  -24.6640  -11.7160   20.8430 C   0  0  0  0  0  0  0  0  0  0  0  0
  -26.3030  -12.9730   20.2690 N   0  0  0  0  0  0  0  0  0  0  0  0
  -25.9570  -11.6880   20.5440 N   0  0  0  0  0  0  0  0  0  0  0  0
  -23.9470  -10.4490   21.0350 C   0  0  0  0  0  0  0  0  0  0  0  0
  -24.3860   -9.4860   21.9690 C   0  0  0  0  0  3  0  0  0  0  0  0
  -23.6680   -8.2840   22.1480 C   0  0  0  0  0  3  0  0  0  0  0  0
  -22.4970   -8.0370   21.3950 C   0  0  0  0  0  0  0  0  0  0  0  0
  -22.0770   -8.9890   20.4500 C   0  0  0  0  0  3  0  0  0  0  0  0
  -22.7950  -10.1820   20.2680 C   0  0  0  0  0  3  0  0  0  0  0  0
  -21.7500   -6.8870   21.4840 O   0  0  0  0  0  0  0  0  0  0  0  0
  -21.7110   -6.1410   22.6340 C   0  0  0  0  0  0  0  0  0  0  0  0
  -21.2870   -6.6880   23.8640 C   0  0  0  0  0  3  0  0  0  0  0  0
  -21.1960   -5.8690   25.0070 C   0  0  0  0  0  3  0  0  0  0  0  0
  -21.5190   -4.5010   24.9200 C   0  0  0  0  0  0  0  0  0  0  0  0
  -21.9370   -3.9520   23.6960 C   0  0  0  0  0  3  0  0  0  0  0  0
  -22.0280   -4.7700   22.5560 C   0  0  0  0  0  0  0  0  0  0  0  0
  -22.4110   -4.2310   21.3720 F   0  0  0  0  0  0  0  0  0  0  0  0
  -21.4250   -3.7110   26.0160 F   0  0  0  0  0  0  0  0  0  0  0  0
  -22.7860  -13.5300   21.1190 C   0  0  0  0  0  0  0  0  0  0  0  0
  -22.0560  -12.8340   21.9830 N   0  0  0  0  0  0  0  0  0  0  0  0
  -22.3460  -14.5500   20.5890 O   0  0  0  0  0  0  0  0  0  0  0  0
  -22.4230  -12.0110   22.4380 H   0  0  0  0  0  0  0  0  0  0  0  0
  -21.1120  -13.1300   22.1920 H   0  0  0  0  0  0  0  0  0  0  0  0
  -25.4050  -15.2150   20.3120 N   0  0  0  0  0  0  0  0  0  0  0  0
  -24.6310  -15.8630   20.4170 H   0  0  0  0  0  0  0  0  0  0  0  0
  -26.2440  -15.6620   19.9650 H   0  0  0  0  0  0  0  0  0  0  0  0
  -28.0990  -23.6540   19.9820 C   0  0  0  0  0  2  0  0  0  0  0  0
  -28.3290  -25.0650   20.7610 C   0  0  0  0  0  2  0  0  0  0  0  0
  -28.3500  -26.4450   20.1580 O   0  0  0  0  0  0  0  0  0  0  0  0
  -24.5990  -31.8780   23.2490 C   0  0  0  0  0  0  0  0  0  0  0  0
  -27.2230  -27.2900   20.2060 C   0  0  0  0  0  0  0  0  0  0  0  0
  -23.4030  -30.4750   21.6060 C   0  0  0  0  0  3  0  0  0  0  0  0
  -24.8590  -28.9150   20.1900 C   0  0  0  0  0  0  0  0  0  0  0  0
  -25.9430  -30.7950   21.4250 C   0  0  0  0  0  2  0  0  0  0  0  0
  -26.0290  -29.4090   20.7830 C   0  0  0  0  0  0  0  0  0  0  0  0
  -27.2180  -28.6110   20.7690 C   0  0  0  0  0  3  0  0  0  0  0  0
  -26.0270  -26.8480   19.6080 C   0  0  0  0  0  3  0  0  0  0  0  0
  -24.8620  -27.6420   19.5930 C   0  0  0  0  0  3  0  0  0  0  0  0
  -23.6220  -29.7930   20.2290 C   0  0  0  0  0  2  0  0  0  0  0  0
  -24.6690  -31.0680   22.1500 N   0  0  0  0  0  0  0  0  0  0  0  0
  -23.5120  -32.1530   23.7800 O   0  0  0  0  0  0  0  0  0  0  0  0
  -22.7380  -29.4620   22.5700 C   0  0  0  0  0  0  0  0  0  0  0  0
  -21.4110  -29.2840   22.4410 N   0  0  0  0  0  0  0  0  0  0  0  0
  -23.4160  -28.8360   23.3890 O   0  0  0  0  0  0  0  0  0  0  0  0
  -20.9250  -29.8420   21.7540 H   0  0  0  0  0  0  0  0  0  0  0  0
  -18.0350  -28.0780   22.9300 C   0  0  0  0  0  0  0  0  0  0  0  0
  -20.5920  -28.3440   23.2080 C   0  0  0  0  0  3  0  0  0  0  0  0
  -20.6980  -26.9130   22.6320 C   0  0  0  0  0  2  0  0  0  0  0  0
  -19.6010  -26.5880   21.6140 C   0  0  0  0  0  2  0  0  0  0  0  0
  -18.2170  -26.7280   22.2540 C   0  0  0  0  0  2  0  0  0  0  0  0
  -19.1500  -28.8430   23.3640 C   0  0  0  0  0  0  0  0  0  0  0  0
  -18.9250  -30.1050   23.9550 C   0  0  0  0  0  3  0  0  0  0  0  0
  -17.6180  -30.6000   24.1200 C   0  0  0  0  0  3  0  0  0  0  0  0
  -16.5180  -29.8330   23.7020 C   0  0  0  0  0  3  0  0  0  0  0  0
  -16.7260  -28.5730   23.1120 C   0  0  0  0  0  3  0  0  0  0  0  0
  -25.8770  -32.5150   23.8770 C   0  0  0  0  0  3  0  0  0  0  0  0
  -26.3830  -31.7500   25.1620 C   0  0  1  0  0  0  0  0  0  0  0  0
  -25.2820  -31.5240   26.2240 C   0  0  0  0  0  1  0  0  0  0  0  0
  -26.9640  -30.3680   24.7830 C   0  0  0  0  0  1  0  0  0  0  0  0
  -27.5310  -32.5460   25.8260 C   0  0  0  0  0  1  0  0  0  0  0  0
  -25.5650  -33.9150   24.1990 N   0  0  0  0  0  0  0  0  0  0  0  0
  -25.9020  -34.9660   23.4400 C   0  0  0  0  0  0  0  0  0  0  0  0
  -26.5770  -34.8600   22.4130 O   0  0  0  0  0  0  0  0  0  0  0  0
  -24.9630  -34.0720   24.9940 H   0  0  0  0  0  0  0  0  0  0  0  0
  -24.1770  -36.7630   23.0780 C   0  0  0  0  0  1  0  0  0  0  0  0
  -25.4160  -36.3580   23.8930 C   0  0  0  0  0  3  0  0  0  0  0  0
  -27.5490  -37.2430   24.7270 C   0  0  0  0  0  1  0  0  0  0  0  0
  -26.4500  -37.4090   23.7800 N   0  0  0  0  0  0  0  0  0  0  0  0
  -26.0440  -38.3300   23.9220 H   0  0  0  0  0  0  0  0  0  0  0  0
  1  2  1  0
  2  4  1  0
  3  1  2  0
  5  8  1  0
  7  5  2  0
  7 10  1  0
  8  2  1  0
  8  6  2  0
  9  6  1  0
  9 21  1  0
 10  9  2  0
 11  7  1  0
 12 10  1  0
 13 21  1  0
 14 19  1  0
 15 16  1  0
 15 14  1  0
 17 16  1  0
 17 26  1  0
 17 18  1  0
 19 13  1  0
 19 18  1  0
 20 13  2  0
 21 22  1  0
 23 24  2  0
 24 43  1  0
 25 24  1  0
 25 28  1  0
 26 23  1  0
 26 27  1  0
 27 25  2  0
 28 29  1  0
 29 30  2  0
 31 34  1  0
 31 30  1  0
 32 31  2  0
 33 32  1  0
 33 28  2  0
 34 35  1  0
 35 36  1  0
 36 37  2  0
 38 37  1  0
 38 42  1  0
 39 38  2  0
 40 35  2  0
 40 39  1  0
 41 40  1  0
 43 44  1  0
 44 47  1  0
 44 46  1  0
 45 43  2  0
 48 49  1  0
 48 23  1  0
 50 48  1  0
 51  1  1  0
 51 52  1  0
 53 55  1  0
 53 52  1  0
 54 65  2  0
 55 60  1  0
 56 64  1  0
 56 66  1  0
 57 63  1  0
 57 59  1  0
 58 64  1  0
 59 58  1  0
 60 59  2  0
 61 55  2  0
 62 61  1  0
 62 57  2  0
 63 56  1  0
 64 54  1  0
 66 68  2  0
 67 66  1  0
 69 67  1  0
 70 79  2  0
 70 75  1  0
 71 67  1  0
 71 75  1  0
 72 71  1  0
 73 74  1  0
 73 72  1  0
 74 70  1  0
 75 76  2  0
 76 77  1  0
 78 77  2  0
 79 78  1  0
 80 54  1  0
 80 85  1  0
 80 81  1  0
 81 84  1  1
 81 82  1  0
 83 81  1  0
 85 88  1  0
 86 90  1  0
 86 85  1  0
 87 86  2  0
 90 89  1  0
 92 90  1  0
 92 93  1  0
 92 91  1  0
M  ISO  4  13 100  21 100  52 101  53 101
M  END
>  <TORSDO>  (36) 
F 19

>  <SCORE>  (36) 
-14.288

>  <name>  (36) 
35

>  <ligand_id>  (36) 
35

>  <original_smiles>  (36) 
[H]c1c([H])c([H])c2c(c1[H])C([H])([H])C([H])([H])C([H])([H])C2([H])N([H])C(=O)C1([H])N(C(=O)C([H])(N([H])C(=O)C([H])(N([H])C([H])([H])[H])C([H])([H])[H])C(C([H])([H])[H])(C([H])([H])[H])C([H])([H])[H])C([H])([H])c2c([H])c(OC([H])([H])C([H])([H])C(=O)N([H])c3c([H])c(N([H])C(=O)N4C([H])([H])C([H])([H])C([H])([H])C([H])(n5nc(-c6c([H])c([H])c(Oc7c([H])c([H])c(F)c([H])c7F)c([H])c6[H])c(C(=O)N([H])[H])c5N([H])[H])C4([H])[H])c(F)c(C([H])([H])[H])c3[H])c([H])c([H])c2C1([H])[H]

>  <smiles>  (36) 
[H]c1c([H])c([H])c2c(c1[H])C([H])([H])C([H])([H])C([H])([H])C2([H])N([H])C(=O)C1([H])N(C(=O)C([H])(N([H])C(=O)C([H])(N([H])C([H])([H])[H])C([H])([H])[H])C(C([H])([H])[H])(C([H])([H])[H])C([H])([H])[H])C([H])([H])c2c([H])c(OC([H])([H])C([H])([H])C(=O)N([H])c3c([H])c(N([H])C(=O)N4C([H])([H])C([H])([H])C([H])([H])C([H])(n5nc(-c6c([H])c([H])c(Oc7c([H])c([H])c(F)c([H])c7F)c([H])c6[H])c(C(=O)N([H])[H])c5N([H])[H])C4([H])[H])c(F)c(C([H])([H])[H])c3[H])c([H])c([H])c2C1([H])[H]

$$$$
36:0:0
     RDKit          3D

 96104  0  0  1  0  0  0  0  0999 V2000
  -28.9020  -20.6350   19.2970 C   0  0  0  0  0  2  0  0  0  0  0  0
  -29.7740  -19.5630   18.6150 C   0  0  0  0  0  2  0  0  0  0  0  0
  -29.5150  -18.2280   19.1640 N   0  0  0  0  0  0  0  0  0  0  0  0
  -29.1620  -17.5260   18.5240 H   0  0  0  0  0  0  0  0  0  0  0  0
  -30.1300  -18.7090   21.4950 C   0  0  0  0  0  3  0  0  0  0  0  0
  -30.6360  -18.2780   22.7360 C   0  0  0  0  0  3  0  0  0  0  0  0
  -30.9800  -16.0460   21.8250 C   0  0  0  0  0  3  0  0  0  0  0  0
  -30.0440  -17.8140   20.4020 C   0  0  0  0  0  0  0  0  0  0  0  0
  -30.4730  -16.4700   20.5730 C   0  0  0  0  0  0  0  0  0  0  0  0
  -31.0620  -16.9500   22.9000 C   0  0  0  0  0  0  0  0  0  0  0  0
  -31.5520  -16.5390   24.0930 F   0  0  0  0  0  0  0  0  0  0  0  0
  -31.0940  -14.4740   19.2890 C   0  0  0  0  0  0  0  0  0  0  0  0
  -30.8790  -12.0420   18.9800 C   0  0  0  0  0  2  0  0  0  0  0  0
  -29.8890  -11.7700   17.8290 C   0  0  0  0  0  2  0  0  0  0  0  0
  -28.4450  -11.7050   18.3630 C   0  0  0  0  0  2  0  0  0  0  0  0
  -28.0910  -12.9120   19.2720 C   0  0  0  0  0  3  0  0  0  0  0  0
  -29.1950  -13.1620   20.3240 C   0  0  0  0  0  2  0  0  0  0  0  0
  -30.4830  -13.3040   19.6220 N   0  0  0  0  0  0  0  0  0  0  0  0
  -32.1520  -14.5290   18.6620 O   0  0  0  0  0  0  0  0  0  0  0  0
  -30.3810  -15.5960   19.4560 N   0  0  0  0  0  0  0  0  0  0  0  0
  -30.4300  -16.1460   18.6140 H   0  0  0  0  0  0  0  0  0  0  0  0
  -25.9020  -13.7080   20.3700 C   0  0  0  0  0  0  0  0  0  0  0  0
  -24.7900  -13.0300   20.7920 C   0  0  0  0  0  0  0  0  0  0  0  0
  -25.0530  -11.6480   20.5420 C   0  0  0  0  0  0  0  0  0  0  0  0
  -26.7800  -12.7450   19.8970 N   0  0  0  0  0  0  0  0  0  0  0  0
  -26.2770  -11.4940   20.0540 N   0  0  0  0  0  0  0  0  0  0  0  0
  -24.1880  -10.4700   20.6850 C   0  0  0  0  0  0  0  0  0  0  0  0
  -24.4460   -9.4780   21.6550 C   0  0  0  0  0  3  0  0  0  0  0  0
  -23.5900   -8.3630   21.7860 C   0  0  0  0  0  3  0  0  0  0  0  0
  -22.4590   -8.2340   20.9430 C   0  0  0  0  0  0  0  0  0  0  0  0
  -22.2190   -9.2140   19.9640 C   0  0  0  0  0  3  0  0  0  0  0  0
  -23.0760  -10.3200   19.8320 C   0  0  0  0  0  3  0  0  0  0  0  0
  -21.5870   -7.1730   20.9800 O   0  0  0  0  0  0  0  0  0  0  0  0
  -21.1860   -6.6120   22.1660 C   0  0  0  0  0  0  0  0  0  0  0  0
  -20.5750   -7.3760   23.1840 C   0  0  0  0  0  3  0  0  0  0  0  0
  -20.1160   -6.7450   24.3570 C   0  0  0  0  0  3  0  0  0  0  0  0
  -20.2570   -5.3540   24.5110 C   0  0  0  0  0  0  0  0  0  0  0  0
  -20.8590   -4.5900   23.4970 C   0  0  0  0  0  3  0  0  0  0  0  0
  -21.3200   -5.2170   22.3250 C   0  0  0  0  0  0  0  0  0  0  0  0
  -21.8810   -4.4740   21.3410 F   0  0  0  0  0  0  0  0  0  0  0  0
  -19.8090   -4.7460   25.6340 F   0  0  0  0  0  0  0  0  0  0  0  0
  -23.5170  -13.6340   21.3110 C   0  0  0  0  0  0  0  0  0  0  0  0
  -22.9490  -13.0590   22.3660 N   0  0  0  0  0  0  0  0  0  0  0  0
  -23.0430  -14.6530   20.8100 O   0  0  0  0  0  0  0  0  0  0  0  0
  -23.3500  -12.2360   22.7930 H   0  0  0  0  0  0  0  0  0  0  0  0
  -22.1020  -13.4500   22.7540 H   0  0  0  0  0  0  0  0  0  0  0  0
  -26.2310  -15.0590   20.3340 N   0  0  0  0  0  0  0  0  0  0  0  0
  -25.5860  -15.7830   20.6310 H   0  0  0  0  0  0  0  0  0  0  0  0
  -27.1070  -15.4280   19.9850 H   0  0  0  0  0  0  0  0  0  0  0  0
  -29.3940  -22.0870   19.0860 C   0  0  0  0  0  2  0  0  0  0  0  0
  -28.3220  -23.0680   19.3770 N   0  0  0  0  0  4  0  0  0  0  0  0
  -28.0020  -22.8990   20.3190 H   0  0  0  0  0  0  0  0  0  0  0  0
  -27.5470  -22.8770   18.7600 H   0  0  0  0  0  0  0  0  0  0  0  0
  -28.6920  -24.5060   19.2600 C   0  0  0  0  0  2  0  0  0  0  0  0
  -27.4270  -25.3850   19.2520 C   0  0  0  0  0  2  0  0  0  0  0  0
  -27.6840  -26.8000   19.2600 O   0  0  0  0  0  0  0  0  0  0  0  0
  -24.5410  -31.7800   23.2500 C   0  0  0  0  0  0  0  0  0  0  0  0
  -26.5740  -27.6150   19.4130 C   0  0  0  0  0  0  0  0  0  0  0  0
  -23.1000  -30.6830   21.5680 C   0  0  0  0  0  3  0  0  0  0  0  0
  -24.3100  -29.2660   19.8310 C   0  0  0  0  0  0  0  0  0  0  0  0
  -25.6210  -30.9070   21.1800 C   0  0  0  0  0  2  0  0  0  0  0  0
  -25.5500  -29.6280   20.3700 C   0  0  0  0  0  0  0  0  0  0  0  0
  -26.6840  -28.8100   20.1610 C   0  0  0  0  0  3  0  0  0  0  0  0
  -25.3130  -27.2830   18.8560 C   0  0  0  0  0  3  0  0  0  0  0  0
  -24.1870  -28.0930   19.0710 C   0  0  0  0  0  3  0  0  0  0  0  0
  -23.1400  -30.1840   20.1010 C   0  0  0  0  0  2  0  0  0  0  0  0
  -24.4460  -31.1280   22.0570 N   0  0  0  0  0  0  0  0  0  0  0  0
  -23.5320  -32.0480   23.9160 O   0  0  0  0  0  0  0  0  0  0  0  0
  -22.4600  -29.5840   22.4470 C   0  0  0  0  0  0  0  0  0  0  0  0
  -21.1300  -29.4270   22.3350 N   0  0  0  0  0  0  0  0  0  0  0  0
  -23.1540  -28.8800   23.1860 O   0  0  0  0  0  0  0  0  0  0  0  0
  -20.6320  -30.0480   21.7120 H   0  0  0  0  0  0  0  0  0  0  0  0
  -17.7470  -28.2640   22.8380 C   0  0  0  0  0  0  0  0  0  0  0  0
  -20.3200  -28.4360   23.0400 C   0  0  0  0  0  3  0  0  0  0  0  0
  -20.3660  -27.0680   22.3210 C   0  0  0  0  0  2  0  0  0  0  0  0
  -19.2200  -26.8740   21.3210 C   0  0  0  0  0  2  0  0  0  0  0  0
  -17.8660  -26.9840   22.0270 C   0  0  0  0  0  2  0  0  0  0  0  0
  -18.9000  -28.9530   23.3010 C   0  0  0  0  0  0  0  0  0  0  0  0
  -18.7350  -30.1560   24.0200 C   0  0  0  0  0  3  0  0  0  0  0  0
  -17.4510  -30.6700   24.2810 C   0  0  0  0  0  3  0  0  0  0  0  0
  -16.3130  -29.9750   23.8370 C   0  0  0  0  0  3  0  0  0  0  0  0
  -16.4620  -28.7730   23.1210 C   0  0  0  0  0  3  0  0  0  0  0  0
  -25.9180  -32.2420   23.8210 C   0  0  0  0  0  3  0  0  0  0  0  0
  -25.7860  -33.6530   24.2080 N   0  0  0  0  0  0  0  0  0  0  0  0
  -26.1480  -34.6890   23.4400 C   0  0  0  0  0  0  0  0  0  0  0  0
  -26.7040  -34.5490   22.3460 O   0  0  0  0  0  0  0  0  0  0  0  0
  -25.2920  -33.8430   25.0680 H   0  0  0  0  0  0  0  0  0  0  0  0
  -24.5650  -36.6360   23.3070 C   0  0  0  0  0  1  0  0  0  0  0  0
  -25.8460  -36.1030   23.9680 C   0  0  0  0  0  3  0  0  0  0  0  0
  -28.1150  -36.7960   24.5980 C   0  0  0  0  0  1  0  0  0  0  0  0
  -26.9530  -37.0600   23.7530 N   0  0  0  0  0  0  0  0  0  0  0  0
  -26.6460  -38.0130   23.9280 H   0  0  0  0  0  0  0  0  0  0  0  0
  -26.4090  -31.3700   25.0400 C   0  0  1  0  0  0  0  0  0  0  0  0
  -25.3380  -31.1800   26.1400 C   0  0  0  0  0  1  0  0  0  0  0  0
  -26.8500  -29.9660   24.5630 C   0  0  0  0  0  1  0  0  0  0  0  0
  -27.6510  -32.0260   25.6870 C   0  0  0  0  0  1  0  0  0  0  0  0
  2  3  1  0
  2  1  1  0
  3  8  1  0
  4  3  1  0
  5  6  1  0
  6 10  2  0
  7 10  1  0
  8  9  1  0
  8  5  2  0
  9  7  2  0
 10 11  1  0
 12 20  1  0
 12 18  1  0
 13 18  1  0
 14 15  1  0
 14 13  1  0
 16 15  1  0
 16 25  1  0
 16 17  1  0
 18 17  1  0
 19 12  2  0
 20  9  1  0
 21 20  1  0
 22 23  2  0
 23 42  1  0
 24 27  1  0
 24 23  1  0
 25 26  1  0
 25 22  1  0
 26 24  2  0
 27 28  1  0
 28 29  2  0
 30 33  1  0
 30 29  1  0
 31 30  2  0
 32 31  1  0
 32 27  2  0
 33 34  1  0
 34 39  2  0
 34 35  1  0
 35 36  2  0
 36 37  1  0
 37 41  1  0
 38 37  2  0
 39 38  1  0
 40 39  1  0
 42 43  1  0
 43 46  1  0
 43 45  1  0
 44 42  2  0
 47 22  1  0
 47 48  1  0
 49 47  1  0
 50  1  1  0
 50 51  1  0
 51 52  1  0
 53 51  1  0
 54 51  1  0
 55 54  1  0
 55 56  1  0
 56 58  1  0
 57 68  2  0
 58 63  1  0
 59 67  1  0
 59 69  1  0
 60 66  1  0
 60 62  1  0
 61 67  1  0
 62 61  1  0
 63 62  2  0
 64 65  1  0
 64 58  2  0
 65 60  2  0
 66 59  1  0
 67 57  1  0
 69 71  2  0
 70 69  1  0
 72 70  1  0
 73 82  2  0
 73 78  1  0
 74 70  1  0
 74 78  1  0
 75 74  1  0
 76 77  1  0
 76 75  1  0
 77 73  1  0
 78 79  2  0
 79 80  1  0
 81 80  2  0
 82 81  1  0
 83 57  1  0
 83 84  1  0
 83 93  1  0
 84 87  1  0
 85 89  1  0
 85 84  1  0
 86 85  2  0
 89 88  1  0
 91 92  1  0
 91 89  1  0
 91 90  1  0
 93 96  1  1
 93 94  1  0
 95 93  1  0
M  ISO  4  12 100  20 100  55 101  56 101
M  END
>  <TORSDO>  (37) 
F 23

>  <SCORE>  (37) 
-9.245

>  <name>  (37) 
36

>  <ligand_id>  (37) 
36

>  <original_smiles>  (37) 
[H]c1c([H])c([H])c2c(c1[H])C([H])([H])C([H])([H])C([H])([H])C2([H])N([H])C(=O)C1([H])N(C(=O)C([H])(N([H])C(=O)C([H])(N([H])C([H])([H])[H])C([H])([H])[H])C(C([H])([H])[H])(C([H])([H])[H])C([H])([H])[H])C([H])([H])c2c([H])c(OC([H])([H])C([H])([H])[N+]([H])([H])C([H])([H])C([H])([H])C([H])([H])N([H])c3c([H])c([H])c(F)c([H])c3N([H])C(=O)N3C([H])([H])C([H])([H])C([H])([H])C([H])(n4nc(-c5c([H])c([H])c(Oc6c([H])c([H])c(F)c([H])c6F)c([H])c5[H])c(C(=O)N([H])[H])c4N([H])[H])C3([H])[H])c([H])c([H])c2C1([H])[H]

>  <smiles>  (37) 
[H]c1c([H])c([H])c2c(c1[H])C([H])([H])C([H])([H])C([H])([H])C2([H])N([H])C(=O)C1([H])N(C(=O)C([H])(N([H])C(=O)C([H])(N([H])C([H])([H])[H])C([H])([H])[H])C(C([H])([H])[H])(C([H])([H])[H])C([H])([H])[H])C([H])([H])c2c([H])c(OC([H])([H])C([H])([H])[N+]([H])([H])C([H])([H])C([H])([H])C([H])([H])N([H])c3c([H])c([H])c(F)c([H])c3N([H])C(=O)N3C([H])([H])C([H])([H])C([H])([H])C([H])(n4nc(-c5c([H])c([H])c(Oc6c([H])c([H])c(F)c([H])c6F)c([H])c5[H])c(C(=O)N([H])[H])c4N([H])[H])C3([H])[H])c([H])c([H])c2C1([H])[H]

$$$$
37:0:0
     RDKit          3D

 98106  0  0  1  0  0  0  0  0999 V2000
  -28.7170  -19.1940   20.0920 N   0  0  0  0  0  0  0  0  0  0  0  0
  -28.2230  -18.5650   19.4660 H   0  0  0  0  0  0  0  0  0  0  0  0
  -29.6930  -17.1250   21.2600 C   0  0  0  0  0  0  0  0  0  0  0  0
  -29.5420  -18.5680   21.0850 C   0  0  0  0  0  0  0  0  0  0  0  0
  -30.5200  -16.6550   22.3210 C   0  0  0  0  0  0  0  0  0  0  0  0
  -30.2500  -19.4200   21.9880 C   0  0  0  0  0  0  0  0  0  0  0  0
  -31.2590  -17.5320   23.1300 C   0  0  0  0  0  0  0  0  0  0  0  0
  -31.1190  -18.9110   22.9680 C   0  0  0  0  0  0  0  0  0  0  0  0
  -30.6050  -15.3320   22.6090 F   0  0  0  0  0  0  0  0  0  0  0  0
  -30.0870  -20.7680   21.9570 F   0  0  0  0  0  0  0  0  0  0  0  0
  -32.0720  -17.0360   24.0980 F   0  0  0  0  0  0  0  0  0  0  0  0
  -31.8000  -19.7660   23.7760 F   0  0  0  0  0  0  0  0  0  0  0  0
  -29.6770  -15.1370   19.7450 C   0  0  0  0  0  0  0  0  0  0  0  0
  -29.4710  -12.9890   18.5050 C   0  0  0  0  0  2  0  0  0  0  0  0
  -28.3470  -13.1240   17.4580 C   0  0  0  0  0  2  0  0  0  0  0  0
  -26.9860  -12.7640   18.0910 C   0  0  0  0  0  2  0  0  0  0  0  0
  -26.7510  -13.4700   19.4560 C   0  0  0  0  0  3  0  0  0  0  0  0
  -27.9840  -13.3500   20.3720 C   0  0  0  0  0  2  0  0  0  0  0  0
  -29.1300  -13.8840   19.6270 N   0  0  0  0  0  0  0  0  0  0  0  0
  -30.6830  -15.4490   19.0990 O   0  0  0  0  0  0  0  0  0  0  0  0
  -29.0210  -16.0820   20.4960 N   0  0  0  0  0  0  0  0  0  0  0  0
  -28.0990  -15.8320   20.8190 H   0  0  0  0  0  0  0  0  0  0  0  0
  -24.4820  -13.7300   20.6180 C   0  0  0  0  0  0  0  0  0  0  0  0
  -23.5690  -12.8190   21.0700 C   0  0  0  0  0  0  0  0  0  0  0  0
  -24.1380  -11.5340   20.8170 C   0  0  0  0  0  0  0  0  0  0  0  0
  -25.5400  -12.9930   20.1190 N   0  0  0  0  0  0  0  0  0  0  0  0
  -25.3510  -11.6600   20.2920 N   0  0  0  0  0  0  0  0  0  0  0  0
  -23.5710  -10.1900   20.9880 C   0  0  0  0  0  0  0  0  0  0  0  0
  -24.1730   -9.2400   21.8410 C   0  0  0  0  0  3  0  0  0  0  0  0
  -23.6030   -7.9600   22.0050 C   0  0  0  0  0  3  0  0  0  0  0  0
  -22.4170   -7.6200   21.3170 C   0  0  0  0  0  0  0  0  0  0  0  0
  -21.8300   -8.5610   20.4520 C   0  0  0  0  0  3  0  0  0  0  0  0
  -22.4030   -9.8340   20.2850 C   0  0  0  0  0  3  0  0  0  0  0  0
  -21.8060   -6.3920   21.3950 O   0  0  0  0  0  0  0  0  0  0  0  0
  -21.8360   -5.6410   22.5440 C   0  0  0  0  0  0  0  0  0  0  0  0
  -21.3130   -6.1280   23.7610 C   0  0  0  0  0  3  0  0  0  0  0  0
  -21.2950   -5.2970   24.9010 C   0  0  0  0  0  3  0  0  0  0  0  0
  -21.7950   -3.9840   24.8220 C   0  0  0  0  0  0  0  0  0  0  0  0
  -22.3100   -3.4970   23.6100 C   0  0  0  0  0  3  0  0  0  0  0  0
  -22.3260   -4.3220   22.4730 C   0  0  0  0  0  0  0  0  0  0  0  0
  -22.8060   -3.8400   21.2990 F   0  0  0  0  0  0  0  0  0  0  0  0
  -21.7730   -3.1850   25.9140 F   0  0  0  0  0  0  0  0  0  0  0  0
  -22.2050  -13.1210   21.6200 C   0  0  0  0  0  0  0  0  0  0  0  0
  -21.7170  -12.2920   22.5350 N   0  0  0  0  0  0  0  0  0  0  0  0
  -21.5830  -14.1230   21.2700 O   0  0  0  0  0  0  0  0  0  0  0  0
  -22.2360  -11.4830   22.8400 H   0  0  0  0  0  0  0  0  0  0  0  0
  -20.8060  -12.4740   22.9350 H   0  0  0  0  0  0  0  0  0  0  0  0
  -24.4950  -15.1210   20.5690 N   0  0  0  0  0  0  0  0  0  0  0  0
  -23.7040  -15.6800   20.8670 H   0  0  0  0  0  0  0  0  0  0  0  0
  -25.2130  -15.6670   20.1070 H   0  0  0  0  0  0  0  0  0  0  0  0
  -29.0710  -20.5320   19.5010 C   0  0  0  0  0  3  0  0  0  0  0  0
  -28.1160  -21.7810   19.7850 C   0  0  0  0  0  3  0  0  0  0  0  0
  -28.7130  -23.1390   19.4680 N   0  0  0  0  0  4  0  0  0  0  0  0
  -29.3520  -23.0070   18.6970 H   0  0  0  0  0  0  0  0  0  0  0  0
  -29.2810  -23.3930   20.2580 H   0  0  0  0  0  0  0  0  0  0  0  0
  -27.8250  -24.3270   19.1140 C   0  0  0  0  0  2  0  0  0  0  0  0
  -28.0900  -25.6830   19.9140 C   0  0  0  0  0  2  0  0  0  0  0  0
  -27.9540  -27.0050   19.2770 O   0  0  0  0  0  0  0  0  0  0  0  0
  -24.4650  -32.0470   23.1280 C   0  0  0  0  0  0  0  0  0  0  0  0
  -26.8140  -27.7780   19.5040 C   0  0  0  0  0  0  0  0  0  0  0  0
  -23.1310  -30.7860   21.4750 C   0  0  0  0  0  3  0  0  0  0  0  0
  -24.4520  -29.3450   19.8240 C   0  0  0  0  0  0  0  0  0  0  0  0
  -25.6390  -31.1350   21.1020 C   0  0  0  0  0  2  0  0  0  0  0  0
  -25.6650  -29.7990   20.3650 C   0  0  0  0  0  0  0  0  0  0  0  0
  -26.8490  -29.0230   20.2010 C   0  0  0  0  0  3  0  0  0  0  0  0
  -25.5850  -27.3670   18.9530 C   0  0  0  0  0  3  0  0  0  0  0  0
  -24.4130  -28.1370   19.1080 C   0  0  0  0  0  3  0  0  0  0  0  0
  -23.2290  -30.2150   20.0300 C   0  0  0  0  0  2  0  0  0  0  0  0
  -24.4360  -31.3390   21.9600 N   0  0  0  0  0  0  0  0  0  0  0  0
  -23.4270  -32.2630   23.7710 O   0  0  0  0  0  0  0  0  0  0  0  0
  -22.5430  -29.6920   22.3990 C   0  0  0  0  0  0  0  0  0  0  0  0
  -21.2220  -29.4690   22.3190 N   0  0  0  0  0  0  0  0  0  0  0  0
  -23.2820  -29.0430   23.1450 O   0  0  0  0  0  0  0  0  0  0  0  0
  -20.6790  -30.0550   21.7010 H   0  0  0  0  0  0  0  0  0  0  0  0
  -17.9280  -28.0730   22.8480 C   0  0  0  0  0  0  0  0  0  0  0  0
  -20.4760  -28.4540   23.0650 C   0  0  0  0  0  3  0  0  0  0  0  0
  -20.6310  -27.0570   22.4160 C   0  0  0  0  0  2  0  0  0  0  0  0
  -19.5190  -26.7270   21.4150 C   0  0  0  0  0  2  0  0  0  0  0  0
  -18.1520  -26.7710   22.1000 C   0  0  0  0  0  2  0  0  0  0  0  0
  -19.0180  -28.8710   23.2900 C   0  0  0  0  0  0  0  0  0  0  0  0
  -18.7500  -30.0880   23.9480 C   0  0  0  0  0  3  0  0  0  0  0  0
  -17.4270  -30.5140   24.1680 C   0  0  0  0  0  3  0  0  0  0  0  0
  -16.3520  -29.7150   23.7410 C   0  0  0  0  0  3  0  0  0  0  0  0
  -16.6040  -28.4960   23.0900 C   0  0  0  0  0  3  0  0  0  0  0  0
  -25.7920  -32.6370   23.7030 C   0  0  0  0  0  3  0  0  0  0  0  0
  -25.5390  -34.0370   24.0770 N   0  0  0  0  0  0  0  0  0  0  0  0
  -25.8700  -35.0970   23.3280 C   0  0  0  0  0  0  0  0  0  0  0  0
  -26.4920  -34.9950   22.2670 O   0  0  0  0  0  0  0  0  0  0  0  0
  -25.0000  -34.1920   24.9170 H   0  0  0  0  0  0  0  0  0  0  0  0
  -24.1870  -36.9480   23.0690 C   0  0  0  0  0  1  0  0  0  0  0  0
  -25.4420  -36.4900   23.8310 C   0  0  0  0  0  3  0  0  0  0  0  0
  -27.6310  -37.2870   24.6060 C   0  0  0  0  0  1  0  0  0  0  0  0
  -26.5020  -37.5140   23.7060 N   0  0  0  0  0  0  0  0  0  0  0  0
  -26.1300  -38.4440   23.8840 H   0  0  0  0  0  0  0  0  0  0  0  0
  -26.3470  -31.8260   24.9390 C   0  0  1  0  0  0  0  0  0  0  0  0
  -25.3060  -31.5870   26.0570 C   0  0  0  0  0  1  0  0  0  0  0  0
  -26.8630  -30.4450   24.4820 C   0  0  0  0  0  1  0  0  0  0  0  0
  -27.5590  -32.5620   25.5530 C   0  0  0  0  0  1  0  0  0  0  0  0
  1  4  1  0
  2  1  1  0
  3  5  1  0
  4  3  2  0
  4  6  1  0
  5  9  1  0
  5  7  2  0
  6  8  2  0
  7 11  1  0
  8  7  1  0
  8 12  1  0
 10  6  1  0
 13 21  1  0
 14 19  1  0
 15 16  1  0
 15 14  1  0
 17 16  1  0
 17 26  1  0
 17 18  1  0
 19 13  1  0
 19 18  1  0
 20 13  2  0
 21 22  1  0
 21  3  1  0
 23 24  2  0
 24 43  1  0
 25 28  1  0
 25 24  1  0
 26 27  1  0
 26 23  1  0
 27 25  2  0
 28 29  1  0
 29 30  2  0
 31 34  1  0
 31 30  1  0
 32 31  2  0
 33 32  1  0
 33 28  2  0
 34 35  1  0
 35 36  1  0
 36 37  2  0
 38 37  1  0
 38 42  1  0
 39 38  2  0
 40 35  2  0
 40 39  1  0
 41 40  1  0
 43 44  1  0
 44 46  1  0
 44 47  1  0
 45 43  2  0
 48 23  1  0
 48 49  1  0
 50 48  1  0
 51 52  2  0
 51  1  1  0
 53 52  1  0
 53 55  1  0
 54 53  1  0
 56 53  1  0
 56 57  1  0
 58 60  1  0
 58 57  1  0
 59 70  2  0
 60 65  1  0
 61 69  1  0
 61 71  1  0
 62 68  1  0
 62 64  1  0
 63 69  1  0
 64 63  1  0
 65 64  2  0
 66 67  1  0
 66 60  2  0
 67 62  2  0
 68 61  1  0
 69 59  1  0
 71 73  2  0
 72 71  1  0
 74 72  1  0
 75 84  2  0
 75 80  1  0
 76 72  1  0
 76 80  1  0
 77 76  1  0
 78 79  1  0
 78 77  1  0
 79 75  1  0
 80 81  2  0
 81 82  1  0
 83 82  2  0
 84 83  1  0
 85 59  1  0
 85 86  1  0
 85 95  1  0
 86 89  1  0
 87 91  1  0
 87 86  1  0
 88 87  2  0
 91 90  1  0
 93 91  1  0
 93 94  1  0
 93 92  1  0
 95 98  1  1
 95 96  1  0
 97 95  1  0
M  ISO  4  13 100  21 100  57 101  58 101
M  END
>  <TORSDO>  (38) 
F 22

>  <SCORE>  (38) 
-7.914

>  <name>  (38) 
37

>  <ligand_id>  (38) 
37

>  <original_smiles>  (38) 
[H]c1c([H])c([H])c2c(c1[H])C([H])([H])C([H])([H])C([H])([H])C2([H])N([H])C(=O)C1([H])N(C(=O)C([H])(N([H])C(=O)C([H])(N([H])C([H])([H])[H])C([H])([H])[H])C(C([H])([H])[H])(C([H])([H])[H])C([H])([H])[H])C([H])([H])c2c([H])c(OC([H])([H])C([H])([H])[N+]([H])([H])C([H])([H])C([H])([H])N([H])c3c(F)c(F)c(F)c(F)c3N([H])C(=O)N3C([H])([H])C([H])([H])C([H])([H])C([H])(n4nc(-c5c([H])c([H])c(Oc6c([H])c([H])c(F)c([H])c6F)c([H])c5[H])c(C(=O)N([H])[H])c4N([H])[H])C3([H])[H])c([H])c([H])c2C1([H])[H]

>  <smiles>  (38) 
[H]c1c([H])c([H])c2c(c1[H])C([H])([H])C([H])([H])C([H])([H])C2([H])N([H])C(=O)C1([H])N(C(=O)C([H])(N([H])C(=O)C([H])(N([H])C([H])([H])[H])C([H])([H])[H])C(C([H])([H])[H])(C([H])([H])[H])C([H])([H])[H])C([H])([H])c2c([H])c(OC([H])([H])C([H])([H])[N+]([H])([H])C([H])([H])C([H])([H])N([H])c3c(F)c(F)c(F)c(F)c3N([H])C(=O)N3C([H])([H])C([H])([H])C([H])([H])C([H])(n4nc(-c5c([H])c([H])c(Oc6c([H])c([H])c(F)c([H])c6F)c([H])c5[H])c(C(=O)N([H])[H])c4N([H])[H])C3([H])[H])c([H])c([H])c2C1([H])[H]

$$$$
38:0:0
     RDKit          3D

 88 96  0  0  1  0  0  0  0  0999 V2000
  -27.8940  -20.9890   19.5120 C   0  0  0  0  0  3  0  0  0  0  0  0
  -29.9650  -19.9190   20.8410 C   0  0  0  0  0  3  0  0  0  0  0  0
  -28.5200  -22.1740   20.1600 C   0  0  0  0  0  0  0  0  0  0  0  0
  -29.2980  -18.7430   20.1870 C   0  0  0  0  0  0  0  0  0  0  0  0
  -28.2140  -19.5050   19.5220 C   0  0  0  0  0  0  0  0  0  0  0  0
  -29.6270  -21.4280   20.8420 C   0  0  0  0  0  0  0  0  0  0  0  0
  -27.3520  -18.7400   18.8100 F   0  0  0  0  0  0  0  0  0  0  0  0
  -30.4500  -22.1900   21.6020 F   0  0  0  0  0  0  0  0  0  0  0  0
  -30.2630  -15.7180   20.2050 C   0  0  0  0  0  0  0  0  0  0  0  0
  -30.3860  -13.1840   19.3710 C   0  0  0  0  0  2  0  0  0  0  0  0
  -29.4730  -12.7830   18.1760 C   0  0  0  0  0  2  0  0  0  0  0  0
  -28.0530  -12.4250   18.6490 C   0  0  0  0  0  2  0  0  0  0  0  0
  -27.5550  -13.4170   19.7260 C   0  0  0  0  0  3  0  0  0  0  0  0
  -28.6050  -13.7180   20.8190 C   0  0  0  0  0  2  0  0  0  0  0  0
  -29.7640  -14.3480   20.1410 N   0  0  0  0  0  0  0  0  0  0  0  0
  -31.4990  -15.6930   20.0490 O   0  0  0  0  0  0  0  0  0  0  0  0
  -29.4270  -17.0220   20.2120 N   0  0  0  0  0  0  0  0  0  0  0  0
  -28.4830  -16.6750   20.1270 H   0  0  0  0  0  0  0  0  0  0  0  0
  -25.2060  -13.9250   20.5550 C   0  0  0  0  0  0  0  0  0  0  0  0
  -24.1570  -13.1330   20.9270 C   0  0  0  0  0  0  0  0  0  0  0  0
  -24.6340  -11.7880   20.8590 C   0  0  0  0  0  0  0  0  0  0  0  0
  -26.2500  -13.0660   20.2690 N   0  0  0  0  0  0  0  0  0  0  0  0
  -25.9210  -11.7700   20.5210 N   0  0  0  0  0  0  0  0  0  0  0  0
  -23.9150  -10.5160   21.0350 C   0  0  0  0  0  0  0  0  0  0  0  0
  -24.3400   -9.5490   21.9710 C   0  0  0  0  0  3  0  0  0  0  0  0
  -23.6190   -8.3460   22.1360 C   0  0  0  0  0  3  0  0  0  0  0  0
  -22.4550   -8.1040   21.3690 C   0  0  0  0  0  0  0  0  0  0  0  0
  -22.0490   -9.0600   20.4210 C   0  0  0  0  0  3  0  0  0  0  0  0
  -22.7700  -10.2540   20.2540 C   0  0  0  0  0  3  0  0  0  0  0  0
  -21.7040   -6.9560   21.4450 O   0  0  0  0  0  0  0  0  0  0  0  0
  -21.6120   -6.2330   22.6080 C   0  0  0  0  0  0  0  0  0  0  0  0
  -21.0670   -6.7850   23.7880 C   0  0  0  0  0  3  0  0  0  0  0  0
  -20.9280   -5.9850   24.9410 C   0  0  0  0  0  3  0  0  0  0  0  0
  -21.3170   -4.6330   24.9120 C   0  0  0  0  0  0  0  0  0  0  0  0
  -21.8540   -4.0800   23.7360 C   0  0  0  0  0  3  0  0  0  0  0  0
  -21.9980   -4.8770   22.5870 C   0  0  0  0  0  0  0  0  0  0  0  0
  -22.4960   -4.3310   21.4490 F   0  0  0  0  0  0  0  0  0  0  0  0
  -21.1780   -3.8630   26.0170 F   0  0  0  0  0  0  0  0  0  0  0  0
  -22.7610  -13.5980   21.2260 C   0  0  0  0  0  0  0  0  0  0  0  0
  -22.0490  -12.8900   22.0970 N   0  0  0  0  0  0  0  0  0  0  0  0
  -22.3120  -14.6250   20.7210 O   0  0  0  0  0  0  0  0  0  0  0  0
  -22.4310  -12.0640   22.5310 H   0  0  0  0  0  0  0  0  0  0  0  0
  -21.1120  -13.1810   22.3290 H   0  0  0  0  0  0  0  0  0  0  0  0
  -25.3510  -15.3010   20.4000 N   0  0  0  0  0  0  0  0  0  0  0  0
  -24.5710  -15.9390   20.5170 H   0  0  0  0  0  0  0  0  0  0  0  0
  -26.1720  -15.7460   20.0150 H   0  0  0  0  0  0  0  0  0  0  0  0
  -27.7970  -23.9000   20.1220 C   0  0  0  0  0  2  0  0  0  0  0  0
  -28.1150  -25.6070   20.3040 O   0  0  0  0  0  0  0  0  0  0  0  0
  -24.6400  -31.8990   23.2580 C   0  0  0  0  0  0  0  0  0  0  0  0
  -27.1530  -26.8260   20.2580 C   0  0  0  0  0  0  0  0  0  0  0  0
  -23.4450  -30.5020   21.6300 C   0  0  0  0  0  3  0  0  0  0  0  0
  -24.8860  -28.8550   20.2110 C   0  0  0  0  0  0  0  0  0  0  0  0
  -26.0230  -30.6420   21.4970 C   0  0  0  0  0  2  0  0  0  0  0  0
  -26.0830  -29.2110   20.8400 C   0  0  0  0  0  0  0  0  0  0  0  0
  -27.2040  -28.2250   20.8300 C   0  0  0  0  0  3  0  0  0  0  0  0
  -25.9160  -26.6760   19.5800 C   0  0  0  0  0  3  0  0  0  0  0  0
  -24.8380  -27.6130   19.5570 C   0  0  0  0  0  3  0  0  0  0  0  0
  -23.6790  -29.8030   20.2600 C   0  0  0  0  0  2  0  0  0  0  0  0
  -24.7270  -31.0460   22.1800 N   0  0  0  0  0  0  0  0  0  0  0  0
  -23.5500  -32.2000   23.7730 O   0  0  0  0  0  0  0  0  0  0  0  0
  -22.7300  -29.5250   22.6040 C   0  0  0  0  0  0  0  0  0  0  0  0
  -21.3990  -29.3610   22.4690 N   0  0  0  0  0  0  0  0  0  0  0  0
  -23.3830  -28.9140   23.4510 O   0  0  0  0  0  0  0  0  0  0  0  0
  -20.9210  -29.9000   21.7610 H   0  0  0  0  0  0  0  0  0  0  0  0
  -18.0170  -28.1300   22.9670 C   0  0  0  0  0  0  0  0  0  0  0  0
  -20.5740  -28.4270   23.2450 C   0  0  0  0  0  3  0  0  0  0  0  0
  -20.6930  -26.9900   22.6880 C   0  0  0  0  0  2  0  0  0  0  0  0
  -19.6010  -26.6450   21.6700 C   0  0  0  0  0  2  0  0  0  0  0  0
  -18.2130  -26.7790   22.3010 C   0  0  0  0  0  2  0  0  0  0  0  0
  -19.1250  -28.9100   23.3960 C   0  0  0  0  0  0  0  0  0  0  0  0
  -18.8850  -30.1720   23.9850 C   0  0  0  0  0  3  0  0  0  0  0  0
  -17.5720  -30.6560   24.1450 C   0  0  0  0  0  3  0  0  0  0  0  0
  -16.4800  -29.8740   23.7310 C   0  0  0  0  0  3  0  0  0  0  0  0
  -16.7030  -28.6130   23.1470 C   0  0  0  0  0  3  0  0  0  0  0  0
  -25.9070  -32.5480   23.8930 C   0  0  0  0  0  3  0  0  0  0  0  0
  -25.5950  -33.9540   24.2130 N   0  0  0  0  0  0  0  0  0  0  0  0
  -25.9230  -35.0090   23.4550 C   0  0  0  0  0  0  0  0  0  0  0  0
  -26.5810  -34.8990   22.4170 O   0  0  0  0  0  0  0  0  0  0  0  0
  -25.0060  -34.1110   25.0170 H   0  0  0  0  0  0  0  0  0  0  0  0
  -24.2000  -36.8190   23.1360 C   0  0  0  0  0  1  0  0  0  0  0  0
  -25.4570  -36.4060   23.9180 C   0  0  0  0  0  3  0  0  0  0  0  0
  -27.6040  -37.2990   24.7090 C   0  0  0  0  0  1  0  0  0  0  0  0
  -26.4940  -37.4530   23.7730 N   0  0  0  0  0  0  0  0  0  0  0  0
  -26.0950  -38.3790   23.9010 H   0  0  0  0  0  0  0  0  0  0  0  0
  -26.3940  -31.7990   25.1980 C   0  0  1  0  0  0  0  0  0  0  0  0
  -25.2810  -31.5960   26.2550 C   0  0  0  0  0  1  0  0  0  0  0  0
  -26.9690  -30.4050   24.8590 C   0  0  0  0  0  1  0  0  0  0  0  0
  -27.5440  -32.5940   25.8610 C   0  0  0  0  0  1  0  0  0  0  0  0
  1  5  2  0
  1  3  1  0
  2  6  1  0
  3  6  2  0
  4 17  1  0
  4  2  2  0
  5  4  1  0
  6  8  1  0
  7  5  1  0
  9 17  1  0
 10 15  1  0
 11 12  1  0
 11 10  1  0
 13 12  1  0
 13 22  1  0
 13 14  1  0
 15  9  1  0
 15 14  1  0
 16  9  2  0
 18 17  1  0
 19 20  2  0
 20 39  1  0
 21 20  1  0
 21 24  1  0
 22 23  1  0
 22 19  1  0
 23 21  2  0
 24 25  1  0
 25 26  2  0
 27 30  1  0
 27 26  1  0
 28 27  2  0
 29 28  1  0
 29 24  2  0
 30 31  1  0
 31 32  1  0
 32 33  2  0
 34 33  1  0
 34 38  1  0
 35 34  2  0
 36 31  2  0
 36 35  1  0
 37 36  1  0
 39 40  1  0
 40 43  1  0
 40 42  1  0
 41 39  2  0
 44 45  1  0
 44 19  1  0
 46 44  1  0
 47  3  1  0
 47 48  1  0
 49 60  2  0
 50 48  1  0
 50 55  1  0
 51 59  1  0
 51 61  1  0
 52 58  1  0
 52 54  1  0
 53 59  1  0
 54 53  1  0
 55 54  2  0
 56 50  2  0
 57 56  1  0
 57 52  2  0
 58 51  1  0
 59 49  1  0
 61 63  2  0
 62 61  1  0
 64 62  1  0
 65 74  2  0
 65 70  1  0
 66 62  1  0
 66 70  1  0
 67 66  1  0
 68 69  1  0
 68 67  1  0
 69 65  1  0
 70 71  2  0
 71 72  1  0
 73 72  2  0
 74 73  1  0
 75 49  1  0
 75 76  1  0
 75 85  1  0
 76 79  1  0
 77 81  1  0
 77 76  1  0
 78 77  2  0
 81 80  1  0
 83 84  1  0
 83 81  1  0
 83 82  1  0
 85 88  1  1
 85 86  1  0
 87 85  1  0
M  ISO  4   9 100  17 100  47 101  48 101
M  END
>  <TORSDO>  (39) 
F 17

>  <SCORE>  (39) 
-16.814

>  <name>  (39) 
38

>  <ligand_id>  (39) 
38

>  <original_smiles>  (39) 
[H]c1c([H])c([H])c2c(c1[H])C([H])([H])C([H])([H])C([H])([H])C2([H])N([H])C(=O)C1([H])N(C(=O)C([H])(N([H])C(=O)C([H])(N([H])C([H])([H])[H])C([H])([H])[H])C(C([H])([H])[H])(C([H])([H])[H])C([H])([H])[H])C([H])([H])c2c([H])c(OC([H])([H])c3c([H])c(F)c(N([H])C(=O)N4C([H])([H])C([H])([H])C([H])([H])C([H])(n5nc(-c6c([H])c([H])c(Oc7c([H])c([H])c(F)c([H])c7F)c([H])c6[H])c(C(=O)N([H])[H])c5N([H])[H])C4([H])[H])c([H])c3F)c([H])c([H])c2C1([H])[H]

>  <smiles>  (39) 
[H]c1c([H])c([H])c2c(c1[H])C([H])([H])C([H])([H])C([H])([H])C2([H])N([H])C(=O)C1([H])N(C(=O)C([H])(N([H])C(=O)C([H])(N([H])C([H])([H])[H])C([H])([H])[H])C(C([H])([H])[H])(C([H])([H])[H])C([H])([H])[H])C([H])([H])c2c([H])c(OC([H])([H])c3c([H])c(F)c(N([H])C(=O)N4C([H])([H])C([H])([H])C([H])([H])C([H])(n5nc(-c6c([H])c([H])c(Oc7c([H])c([H])c(F)c([H])c7F)c([H])c6[H])c(C(=O)N([H])[H])c5N([H])[H])C4([H])[H])c([H])c3F)c([H])c([H])c2C1([H])[H]

$$$$
39:0:0
     RDKit          3D

 97106  0  0  1  0  0  0  0  0999 V2000
  -29.4840  -20.8790   20.3000 C   0  0  0  0  0  0  0  0  0  0  0  0
  -30.2550  -19.7940   20.0990 N   0  0  0  0  0  0  0  0  0  0  0  0
  -28.6630  -20.9610   21.2210 O   0  0  0  0  0  0  0  0  0  0  0  0
  -30.7320  -19.7120   19.2130 H   0  0  0  0  0  0  0  0  0  0  0  0
  -31.0470  -16.8070   23.0240 C   0  0  0  0  0  3  0  0  0  0  0  0
  -31.1380  -18.1660   23.3700 C   0  0  0  0  0  3  0  0  0  0  0  0
  -30.5110  -17.4350   20.7220 C   0  0  0  0  0  3  0  0  0  0  0  0
  -30.7800  -16.4360   21.6920 C   0  0  0  0  0  0  0  0  0  0  0  0
  -30.5410  -18.8020   21.0800 C   0  0  0  0  0  0  0  0  0  0  0  0
  -30.9170  -19.1600   22.4010 C   0  0  0  0  0  0  0  0  0  0  0  0
  -31.0930  -20.4590   22.7490 F   0  0  0  0  0  0  0  0  0  0  0  0
  -31.0610  -14.4170   20.2820 C   0  0  0  0  0  0  0  0  0  0  0  0
  -30.6330  -12.3960   18.9290 C   0  0  0  0  0  2  0  0  0  0  0  0
  -29.6580  -12.7160   17.7790 C   0  0  0  0  0  2  0  0  0  0  0  0
  -28.1920  -12.6180   18.2460 C   0  0  0  0  0  2  0  0  0  0  0  0
  -27.9360  -13.4020   19.5590 C   0  0  0  0  0  3  0  0  0  0  0  0
  -28.9960  -13.0270   20.6160 C   0  0  0  0  0  2  0  0  0  0  0  0
  -30.3370  -13.2930   20.0530 N   0  0  0  0  0  0  0  0  0  0  0  0
  -32.0260  -14.7680   19.5920 O   0  0  0  0  0  0  0  0  0  0  0  0
  -30.7090  -15.0510   21.4070 N   0  0  0  0  0  0  0  0  0  0  0  0
  -30.1520  -14.4980   22.0440 H   0  0  0  0  0  0  0  0  0  0  0  0
  -25.5690  -14.0990   20.3040 C   0  0  0  0  0  0  0  0  0  0  0  0
  -24.4810  -13.3670   20.6960 C   0  0  0  0  0  0  0  0  0  0  0  0
  -24.8930  -11.9990   20.6550 C   0  0  0  0  0  0  0  0  0  0  0  0
  -26.5800  -13.1820   20.0580 N   0  0  0  0  0  0  0  0  0  0  0  0
  -26.1740  -11.9130   20.3180 N   0  0  0  0  0  0  0  0  0  0  0  0
  -24.1270  -10.7640   20.8630 C   0  0  0  0  0  0  0  0  0  0  0  0
  -24.5360   -9.7890   21.7990 C   0  0  0  0  0  3  0  0  0  0  0  0
  -23.7730   -8.6170   21.9930 C   0  0  0  0  0  3  0  0  0  0  0  0
  -22.5870   -8.4130   21.2500 C   0  0  0  0  0  0  0  0  0  0  0  0
  -22.1960   -9.3750   20.3020 C   0  0  0  0  0  3  0  0  0  0  0  0
  -22.9590  -10.5390   20.1070 C   0  0  0  0  0  3  0  0  0  0  0  0
  -21.7970   -7.2930   21.3510 O   0  0  0  0  0  0  0  0  0  0  0  0
  -21.7140   -6.5740   22.5170 C   0  0  0  0  0  0  0  0  0  0  0  0
  -21.3070   -7.1680   23.7310 C   0  0  0  0  0  3  0  0  0  0  0  0
  -21.1690   -6.3790   24.8900 C   0  0  0  0  0  3  0  0  0  0  0  0
  -21.4270   -4.9950   24.8350 C   0  0  0  0  0  0  0  0  0  0  0  0
  -21.8270   -4.4010   23.6250 C   0  0  0  0  0  3  0  0  0  0  0  0
  -21.9670   -5.1880   22.4680 C   0  0  0  0  0  0  0  0  0  0  0  0
  -22.3320   -4.6060   21.3010 F   0  0  0  0  0  0  0  0  0  0  0  0
  -21.2870   -4.2340   25.9450 F   0  0  0  0  0  0  0  0  0  0  0  0
  -23.1090  -13.8930   21.0020 C   0  0  0  0  0  0  0  0  0  0  0  0
  -22.3810  -13.2280   21.8930 N   0  0  0  0  0  0  0  0  0  0  0  0
  -22.6920  -14.9290   20.4870 O   0  0  0  0  0  0  0  0  0  0  0  0
  -22.7310  -12.3900   22.3310 H   0  0  0  0  0  0  0  0  0  0  0  0
  -21.4600  -13.5650   22.1400 H   0  0  0  0  0  0  0  0  0  0  0  0
  -25.7760  -15.4640   20.1230 N   0  0  0  0  0  0  0  0  0  0  0  0
  -25.0330  -16.1430   20.2430 H   0  0  0  0  0  0  0  0  0  0  0  0
  -26.6400  -15.8750   19.7930 H   0  0  0  0  0  0  0  0  0  0  0  0
  -31.0910  -22.5420   19.1290 C   0  0  0  0  0  2  0  0  0  0  0  0
  -30.8750  -23.5350   20.2670 C   0  0  0  0  0  2  0  0  0  0  0  0
  -29.6470  -22.0840   19.3560 C   0  0  0  0  0  3  0  0  0  0  0  0
  -29.4300  -23.3010   20.1480 N   0  0  2  0  0  4  0  0  0  0  0  0
  -29.0090  -22.9790   21.0120 H   0  0  0  0  0  0  0  0  0  0  0  0
  -28.6580  -24.4190   19.5360 C   0  0  0  0  0  2  0  0  0  0  0  0
  -28.2800  -25.4660   20.6050 C   0  0  0  0  0  2  0  0  0  0  0  0
  -28.2990  -26.7940   20.0760 O   0  0  0  0  0  0  0  0  0  0  0  0
  -24.5610  -31.9590   23.2500 C   0  0  0  0  0  0  0  0  0  0  0  0
  -27.1200  -27.4920   20.1420 C   0  0  0  0  0  0  0  0  0  0  0  0
  -23.3180  -30.5600   21.6330 C   0  0  0  0  0  3  0  0  0  0  0  0
  -24.7310  -28.9970   20.1990 C   0  0  0  0  0  0  0  0  0  0  0  0
  -25.8400  -30.8960   21.3930 C   0  0  0  0  0  2  0  0  0  0  0  0
  -25.9020  -29.5210   20.7610 C   0  0  0  0  0  0  0  0  0  0  0  0
  -27.0990  -28.7780   20.7270 C   0  0  0  0  0  3  0  0  0  0  0  0
  -25.9320  -26.9700   19.5850 C   0  0  0  0  0  3  0  0  0  0  0  0
  -24.7400  -27.7190   19.6110 C   0  0  0  0  0  3  0  0  0  0  0  0
  -23.4980  -29.8680   20.2540 C   0  0  0  0  0  2  0  0  0  0  0  0
  -24.5920  -31.1530   22.1510 N   0  0  0  0  0  0  0  0  0  0  0  0
  -23.4920  -32.2430   23.8050 O   0  0  0  0  0  0  0  0  0  0  0  0
  -22.6740  -29.5490   22.6090 C   0  0  0  0  0  0  0  0  0  0  0  0
  -21.3510  -29.3570   22.4830 N   0  0  0  0  0  0  0  0  0  0  0  0
  -23.3610  -28.9400   23.4320 O   0  0  0  0  0  0  0  0  0  0  0  0
  -20.8570  -29.9040   21.7930 H   0  0  0  0  0  0  0  0  0  0  0  0
  -17.9920  -28.1150   22.9560 C   0  0  0  0  0  0  0  0  0  0  0  0
  -20.5390  -28.4260   23.2670 C   0  0  0  0  0  3  0  0  0  0  0  0
  -20.6780  -26.9810   22.7330 C   0  0  0  0  0  2  0  0  0  0  0  0
  -19.6010  -26.6080   21.7100 C   0  0  0  0  0  2  0  0  0  0  0  0
  -18.2050  -26.7510   22.3240 C   0  0  0  0  0  2  0  0  0  0  0  0
  -19.0890  -28.9090   23.3840 C   0  0  0  0  0  0  0  0  0  0  0  0
  -18.8390  -30.1860   23.9320 C   0  0  0  0  0  3  0  0  0  0  0  0
  -17.5240  -30.6710   24.0580 C   0  0  0  0  0  3  0  0  0  0  0  0
  -16.4410  -29.8760   23.6450 C   0  0  0  0  0  3  0  0  0  0  0  0
  -16.6760  -28.6010   23.1020 C   0  0  0  0  0  3  0  0  0  0  0  0
  -25.8650  -32.5810   23.8460 C   0  0  0  0  0  3  0  0  0  0  0  0
  -26.4030  -31.8040   25.1090 C   0  0  1  0  0  0  0  0  0  0  0  0
  -25.3310  -31.5650   26.1970 C   0  0  0  0  0  1  0  0  0  0  0  0
  -26.9730  -30.4290   24.6920 C   0  0  0  0  0  1  0  0  0  0  0  0
  -27.5680  -32.5920   25.7520 C   0  0  0  0  0  1  0  0  0  0  0  0
  -25.5760  -33.9800   24.1830 N   0  0  0  0  0  0  0  0  0  0  0  0
  -25.9100  -35.0280   23.4190 C   0  0  0  0  0  0  0  0  0  0  0  0
  -26.5630  -34.9180   22.3790 O   0  0  0  0  0  0  0  0  0  0  0  0
  -25.0060  -34.1410   25.0020 H   0  0  0  0  0  0  0  0  0  0  0  0
  -24.1950  -36.8310   23.0820 C   0  0  0  0  0  1  0  0  0  0  0  0
  -25.4420  -36.4200   23.8830 C   0  0  0  0  0  3  0  0  0  0  0  0
  -27.5930  -37.2790   24.6950 C   0  0  0  0  0  1  0  0  0  0  0  0
  -26.4830  -37.4630   23.7630 N   0  0  0  0  0  0  0  0  0  0  0  0
  -26.0870  -38.3860   23.9220 H   0  0  0  0  0  0  0  0  0  0  0  0
  1  3  2  0
  2  1  1  0
  2  9  1  0
  4  2  1  0
  5  6  1  0
  7  9  2  0
  7  8  1  0
  8  5  2  0
  9 10  1  0
 10 11  1  0
 10  6  2  0
 12 20  1  0
 13 18  1  0
 14 15  1  0
 14 13  1  0
 16 15  1  0
 16 25  1  0
 16 17  1  0
 18 12  1  0
 18 17  1  0
 19 12  2  0
 20  8  1  0
 20 21  1  0
 22 23  2  0
 23 42  1  0
 24 23  1  0
 24 27  1  0
 25 22  1  0
 25 26  1  0
 26 24  2  0
 27 28  1  0
 28 29  2  0
 30 33  1  0
 30 29  1  0
 31 30  2  0
 32 31  1  0
 32 27  2  0
 33 34  1  0
 34 35  1  0
 35 36  2  0
 37 36  1  0
 37 41  1  0
 38 37  2  0
 39 34  2  0
 39 38  1  0
 40 39  1  0
 42 43  1  0
 43 46  1  0
 43 45  1  0
 44 42  2  0
 47 48  1  0
 47 22  1  0
 49 47  1  0
 50 52  1  0
 50 51  1  0
 52 53  1  0
 52  1  1  0
 53 51  1  0
 53 54  1  1
 55 53  1  0
 55 56  1  0
 57 59  1  0
 57 56  1  0
 58 69  2  0
 59 64  1  0
 60 68  1  0
 60 70  1  0
 61 67  1  0
 61 63  1  0
 62 68  1  0
 63 62  1  0
 64 63  2  0
 65 66  1  0
 65 59  2  0
 66 61  2  0
 67 60  1  0
 68 58  1  0
 70 72  2  0
 71 70  1  0
 73 71  1  0
 74 83  2  0
 74 79  1  0
 75 71  1  0
 75 79  1  0
 76 75  1  0
 77 78  1  0
 77 76  1  0
 78 74  1  0
 79 80  2  0
 80 81  1  0
 82 81  2  0
 83 82  1  0
 84 58  1  0
 84 89  1  0
 84 85  1  0
 85 88  1  1
 85 86  1  0
 87 85  1  0
 89 92  1  0
 90 94  1  0
 90 89  1  0
 91 90  2  0
 94 93  1  0
 96 94  1  0
 96 97  1  0
 96 95  1  0
M  ISO  4  12 100  20 100  56 101  57 101
M  END
>  <TORSDO>  (40) 
F 20

>  <SCORE>  (40) 
-13.094

>  <name>  (40) 
39

>  <ligand_id>  (40) 
39

>  <original_smiles>  (40) 
[H]c1c([H])c([H])c2c(c1[H])C([H])([H])C([H])([H])C([H])([H])C2([H])N([H])C(=O)C1([H])N(C(=O)C([H])(N([H])C(=O)C([H])(N([H])C([H])([H])[H])C([H])([H])[H])C(C([H])([H])[H])(C([H])([H])[H])C([H])([H])[H])C([H])([H])c2c([H])c(OC([H])([H])C([H])([H])[N+]3([H])C([H])([H])C([H])([H])C3([H])C(=O)N([H])c3c([H])c(N([H])C(=O)N4C([H])([H])C([H])([H])C([H])([H])C([H])(n5nc(-c6c([H])c([H])c(Oc7c([H])c([H])c(F)c([H])c7F)c([H])c6[H])c(C(=O)N([H])[H])c5N([H])[H])C4([H])[H])c([H])c([H])c3F)c([H])c([H])c2C1([H])[H]

>  <smiles>  (40) 
[H]c1c([H])c([H])c2c(c1[H])C([H])([H])C([H])([H])C([H])([H])C2([H])N([H])C(=O)C1([H])N(C(=O)C([H])(N([H])C(=O)C([H])(N([H])C([H])([H])[H])C([H])([H])[H])C(C([H])([H])[H])(C([H])([H])[H])C([H])([H])[H])C([H])([H])c2c([H])c(OC([H])([H])C([H])([H])[N+]3([H])C([H])([H])C([H])([H])C3([H])C(=O)N([H])c3c([H])c(N([H])C(=O)N4C([H])([H])C([H])([H])C([H])([H])C([H])(n5nc(-c6c([H])c([H])c(Oc7c([H])c([H])c(F)c([H])c7F)c([H])c6[H])c(C(=O)N([H])[H])c5N([H])[H])C4([H])[H])c([H])c([H])c3F)c([H])c([H])c2C1([H])[H]

$$$$
40:0:0
     RDKit          3D

101108  0  0  1  0  0  0  0  0999 V2000
  -21.1150  -24.5730   23.2970 C   0  0  0  0  0  2  0  0  0  0  0  0
  -19.2680  -25.8810   22.2620 C   0  0  0  0  0  2  0  0  0  0  0  0
  -21.5870  -24.8460   21.8580 C   0  0  0  0  0  3  0  0  0  0  0  0
  -19.9400  -25.5090   23.5880 C   0  0  0  0  0  3  0  0  0  0  0  0
  -20.4360  -26.2250   21.3590 N   0  0  1  0  0  4  0  0  0  0  0  0
  -20.8060  -26.8810   22.0340 H   0  0  0  0  0  0  0  0  0  0  0  0
  -23.4510  -24.4670   21.9070 C   0  0  0  0  0  0  0  0  0  0  0  0
  -24.6180  -24.0730   20.9710 N   0  0  0  0  0  0  0  0  0  0  0  0
  -23.8660  -24.3930   23.0640 O   0  0  0  0  0  0  0  0  0  0  0  0
  -24.3300  -24.1560   20.0050 H   0  0  0  0  0  0  0  0  0  0  0  0
  -26.2190  -23.3140   21.0590 C   0  0  0  0  0  2  0  0  0  0  0  0
  -28.5190  -24.8880   21.2510 C   0  0  0  0  0  3  0  0  0  0  0  0
  -29.9030  -25.2580   21.2560 C   0  0  0  0  0  3  0  0  0  0  0  0
  -29.3220  -22.8310   20.3060 C   0  0  0  0  0  3  0  0  0  0  0  0
  -28.0280  -23.6350   20.8130 C   0  0  0  0  0  0  0  0  0  0  0  0
  -30.8880  -23.1750   20.2570 C   0  0  0  0  0  0  0  0  0  0  0  0
  -31.0150  -24.4690   20.8140 C   0  0  0  0  0  0  0  0  0  0  0  0
  -32.2530  -25.0180   20.8890 F   0  0  0  0  0  0  0  0  0  0  0  0
  -33.8320  -22.1860   19.8180 C   0  0  0  0  0  0  0  0  0  0  0  0
  -36.3230  -22.6730   18.9830 C   0  0  0  0  0  2  0  0  0  0  0  0
  -36.6550  -24.1910   19.1360 C   0  0  0  0  0  2  0  0  0  0  0  0
  -35.9520  -25.0290   18.0500 C   0  0  0  0  0  2  0  0  0  0  0  0
  -34.5090  -24.5210   17.8310 C   0  0  0  0  0  3  0  0  0  0  0  0
  -34.4650  -23.0190   17.5580 C   0  0  0  0  0  2  0  0  0  0  0  0
  -34.8170  -22.4620   18.8290 N   0  0  0  0  0  0  0  0  0  0  0  0
  -34.4190  -21.6240   20.7830 O   0  0  0  0  0  0  0  0  0  0  0  0
  -32.3190  -22.5020   19.6190 N   0  0  0  0  0  0  0  0  0  0  0  0
  -32.1910  -22.4460   18.6200 H   0  0  0  0  0  0  0  0  0  0  0  0
  -32.5940  -25.8750   16.9050 C   0  0  0  0  0  0  0  0  0  0  0  0
  -32.3310  -26.3330   15.6480 C   0  0  0  0  0  0  0  0  0  0  0  0
  -33.4010  -25.8640   14.8250 C   0  0  0  0  0  0  0  0  0  0  0  0
  -33.7870  -25.1910   16.7940 N   0  0  0  0  0  0  0  0  0  0  0  0
  -34.2390  -25.1170   15.5250 N   0  0  0  0  0  0  0  0  0  0  0  0
  -33.7190  -26.1380   13.4260 C   0  0  0  0  0  0  0  0  0  0  0  0
  -33.9520  -25.0960   12.5020 C   0  0  0  0  0  3  0  0  0  0  0  0
  -34.2420  -25.3940   11.1540 C   0  0  0  0  0  3  0  0  0  0  0  0
  -34.2970  -26.7400   10.7230 C   0  0  0  0  0  0  0  0  0  0  0  0
  -34.0880  -27.7720   11.6550 C   0  0  0  0  0  3  0  0  0  0  0  0
  -33.8060  -27.4750   12.9970 C   0  0  0  0  0  3  0  0  0  0  0  0
  -34.5930  -27.1270    9.4390 O   0  0  0  0  0  0  0  0  0  0  0  0
  -34.3770  -26.2940    8.3720 C   0  0  0  0  0  0  0  0  0  0  0  0
  -33.1070  -25.7360    8.1070 C   0  0  0  0  0  3  0  0  0  0  0  0
  -32.9140  -24.9410    6.9600 C   0  0  0  0  0  3  0  0  0  0  0  0
  -33.9850  -24.7120    6.0740 C   0  0  0  0  0  0  0  0  0  0  0  0
  -35.2480  -25.2710    6.3350 C   0  0  0  0  0  3  0  0  0  0  0  0
  -35.4430  -26.0620    7.4810 C   0  0  0  0  0  0  0  0  0  0  0  0
  -36.6560  -26.6160    7.7170 F   0  0  0  0  0  0  0  0  0  0  0  0
  -33.7980  -23.9560    4.9670 F   0  0  0  0  0  0  0  0  0  0  0  0
  -31.2070  -27.2400   15.2590 C   0  0  0  0  0  0  0  0  0  0  0  0
  -30.7330  -27.1260   14.0230 N   0  0  0  0  0  0  0  0  0  0  0  0
  -30.7130  -28.0250   16.0670 O   0  0  0  0  0  0  0  0  0  0  0  0
  -31.1310  -26.4650   13.3730 H   0  0  0  0  0  0  0  0  0  0  0  0
  -29.9640  -27.7070   13.7220 H   0  0  0  0  0  0  0  0  0  0  0  0
  -31.9370  -25.9970   18.1260 N   0  0  0  0  0  0  0  0  0  0  0  0
  -31.1060  -26.5680   18.2260 H   0  0  0  0  0  0  0  0  0  0  0  0
  -32.2990  -25.6600   19.0080 H   0  0  0  0  0  0  0  0  0  0  0  0
  -20.4510  -26.7110   24.1490 O   0  0  0  0  0  0  0  0  0  0  0  0
  -20.7380  -26.5250   25.0400 H   0  0  0  0  0  0  0  0  0  0  0  0
  -20.9240  -27.7320   19.3920 C   0  0  0  0  0  2  0  0  0  0  0  0
  -22.9140  -27.9170   18.7070 C   0  0  0  0  0  1  0  0  0  0  0  0
  -24.7030  -27.8110   19.1930 O   0  0  0  0  0  0  0  0  0  0  0  0
  -24.7960  -31.8960   22.7790 C   0  0  0  0  0  0  0  0  0  0  0  0
  -26.0290  -28.1630   18.6820 C   0  0  0  0  0  3  0  0  0  0  0  0
  -23.5240  -31.1340   20.8490 C   0  0  0  0  0  3  0  0  0  0  0  0
  -24.8460  -30.4180   18.7300 C   0  0  0  0  0  3  0  0  0  0  0  0
  -26.0590  -31.3260   20.7050 C   0  0  0  0  0  2  0  0  0  0  0  0
  -25.9310  -30.3040   19.6010 C   0  0  0  0  0  3  0  0  0  0  0  0
  -26.7180  -29.1500   19.4570 C   0  0  0  0  0  2  0  0  0  0  0  0
  -25.7680  -28.5770   17.4090 C   0  0  0  0  0  2  0  0  0  0  0  0
  -24.8960  -29.6760   17.5050 C   0  0  0  0  0  2  0  0  0  0  0  0
  -23.6460  -31.1660   19.2770 C   0  0  0  0  0  2  0  0  0  0  0  0
  -24.8110  -31.5100   21.4780 N   0  0  0  0  0  0  0  0  0  0  0  0
  -23.7330  -32.0280   23.4040 O   0  0  0  0  0  0  0  0  0  0  0  0
  -23.1170  -29.7930   21.5250 C   0  0  0  0  0  0  0  0  0  0  0  0
  -21.9400  -29.6350   22.0660 N   0  0  0  0  0  0  0  0  0  0  0  0
  -23.8990  -28.8660   21.6630 O   0  0  0  0  0  0  0  0  0  0  0  0
  -21.3030  -30.4180   22.1260 H   0  0  0  0  0  0  0  0  0  0  0  0
  -18.3660  -28.7950   22.1160 C   0  0  0  0  0  0  0  0  0  0  0  0
  -21.3670  -28.2820   22.2650 C   0  0  0  0  0  2  0  0  0  0  0  0
  -21.6310  -26.9710   20.5730 C   0  0  0  0  0  2  0  0  0  0  0  0
  -19.4750  -26.8660   19.3650 C   0  0  0  0  0  1  0  0  0  0  0  0
  -18.0020  -27.8640   20.5460 C   0  0  0  0  0  1  0  0  0  0  0  0
  -19.7670  -28.9650   22.7920 C   0  0  0  0  0  0  0  0  0  0  0  0
  -19.8220  -29.8690   23.9330 C   0  0  0  0  0  3  0  0  0  0  0  0
  -18.7140  -30.4750   24.5780 C   0  0  0  0  0  3  0  0  0  0  0  0
  -17.4290  -30.1640   24.1150 C   0  0  0  0  0  3  0  0  0  0  0  0
  -17.2830  -29.3590   22.9340 C   0  0  0  0  0  3  0  0  0  0  0  0
  -26.1180  -32.2080   23.5190 C   0  0  0  0  0  3  0  0  0  0  0  0
  -25.9210  -33.5050   24.1700 N   0  0  0  0  0  0  0  0  0  0  0  0
  -26.3420  -34.6700   23.6650 C   0  0  0  0  0  0  0  0  0  0  0  0
  -27.0260  -34.7490   22.6400 O   0  0  0  0  0  0  0  0  0  0  0  0
  -25.3270  -33.5200   24.9860 H   0  0  0  0  0  0  0  0  0  0  0  0
  -24.8010  -36.6560   23.6840 C   0  0  0  0  0  1  0  0  0  0  0  0
  -25.9480  -35.9470   24.4230 C   0  0  0  0  0  3  0  0  0  0  0  0
  -28.1040  -36.3740   25.5130 C   0  0  0  0  0  1  0  0  0  0  0  0
  -27.0750  -36.8850   24.6110 N   0  0  0  0  0  0  0  0  0  0  0  0
  -26.7450  -37.7720   24.9800 H   0  0  0  0  0  0  0  0  0  0  0  0
  -26.5210  -31.1010   24.5690 C   0  0  1  0  0  0  0  0  0  0  0  0
  -25.3890  -30.7240   25.5530 C   0  0  0  0  0  1  0  0  0  0  0  0
  -26.9740  -29.7990   23.8660 C   0  0  0  0  0  1  0  0  0  0  0  0
  -27.7310  -31.6010   25.3900 C   0  0  0  0  0  1  0  0  0  0  0  0
  1  4  1  0
  2  4  1  0
  3  7  1  0
  3  1  1  0
  4 57  1  0
  5  3  1  0
  5  6  1  1
  5  2  1  0
  7  9  2  0
  8 11  1  0
  8  7  1  0
 10  8  1  0
 12 13  1  0
 14 15  1  0
 15 11  1  0
 15 12  2  0
 16 14  2  0
 16 17  1  0
 17 18  1  0
 17 13  2  0
 19 26  2  0
 20 21  1  0
 22 21  1  0
 23 32  1  0
 23 22  1  0
 24 23  1  0
 24 25  1  0
 25 20  1  0
 25 19  1  0
 27 19  1  0
 27 16  1  0
 28 27  1  0
 29 54  1  0
 30 29  2  0
 31 33  2  0
 31 30  1  0
 32 29  1  0
 33 32  1  0
 34 31  1  0
 35 34  2  0
 36 35  1  0
 37 36  2  0
 37 38  1  0
 38 39  2  0
 39 34  1  0
 40 37  1  0
 41 40  1  0
 42 41  1  0
 43 42  2  0
 44 45  2  0
 44 43  1  0
 45 46  1  0
 46 47  1  0
 46 41  2  0
 48 44  1  0
 49 30  1  0
 49 51  2  0
 50 49  1  0
 52 50  1  0
 53 50  1  0
 54 55  1  0
 54 56  1  0
 57 58  1  0
 59 80  1  0
 60 61  1  0
 62 73  2  0
 63 61  1  0
 63 68  1  0
 64 72  1  0
 64 74  1  0
 65 70  1  0
 65 71  1  0
 65 67  1  0
 66 72  1  0
 67 68  1  0
 67 66  1  0
 69 70  1  0
 69 63  1  0
 71 64  1  0
 72 62  1  0
 74 76  2  0
 74 75  1  0
 75 77  1  0
 75 79  1  0
 78 83  2  0
 78 87  1  0
 79 83  1  0
 80  5  1  0
 81 59  1  0
 82 78  1  0
 83 84  1  0
 84 85  2  0
 86 85  1  0
 87 86  2  0
 88 62  1  0
 88 89  1  0
 88 98  1  0
 89 92  1  0
 90 89  1  0
 90 94  1  0
 91 90  2  0
 94 93  1  0
 94 96  1  0
 96 97  1  0
 96 95  1  0
 98101  1  1
 98 99  1  0
100 98  1  0
M  ISO  4  19 100  27 100  60 101  61 101
M  END
>  <TORSDO>  (41) 
F 22

>  <SCORE>  (41) 
1.801

>  <name>  (41) 
40

>  <ligand_id>  (41) 
40

>  <original_smiles>  (41) 
[H]OC1([H])C([H])([H])C([H])(C(=O)N([H])C([H])([H])c2c([H])c([H])c(F)c(N([H])C(=O)N3C([H])([H])C([H])([H])C([H])([H])C([H])(n4nc(-c5c([H])c([H])c(Oc6c([H])c([H])c(F)c([H])c6F)c([H])c5[H])c(C(=O)N([H])[H])c4N([H])[H])C3([H])[H])c2[H])[N+]([H])(C([H])([H])C([H])([H])Oc2c([H])c([H])c3c(c2[H])C([H])([H])N(C(=O)C([H])(N([H])C(=O)C([H])(N([H])C([H])([H])[H])C([H])([H])[H])C(C([H])([H])[H])(C([H])([H])[H])C([H])([H])[H])C([H])(C(=O)N([H])C2([H])c4c([H])c([H])c([H])c([H])c4C([H])([H])C([H])([H])C2([H])[H])C3([H])[H])C1([H])[H]

>  <smiles>  (41) 
[H]OC1([H])C([H])([H])C([H])(C(=O)N([H])C([H])([H])c2c([H])c([H])c(F)c(N([H])C(=O)N3C([H])([H])C([H])([H])C([H])([H])C([H])(n4nc(-c5c([H])c([H])c(Oc6c([H])c([H])c(F)c([H])c6F)c([H])c5[H])c(C(=O)N([H])[H])c4N([H])[H])C3([H])[H])c2[H])[N+]([H])(C([H])([H])C([H])([H])Oc2c([H])c([H])c3c(c2[H])C([H])([H])N(C(=O)C([H])(N([H])C(=O)C([H])(N([H])C([H])([H])[H])C([H])([H])[H])C(C([H])([H])[H])(C([H])([H])[H])C([H])([H])[H])C([H])(C(=O)N([H])C2([H])c4c([H])c([H])c([H])c([H])c4C([H])([H])C([H])([H])C2([H])[H])C3([H])[H])C1([H])[H]

$$$$
41:0:0
     RDKit          3D

 93101  0  0  1  0  0  0  0  0999 V2000
  -29.7000  -21.1730   19.9560 C   0  0  0  0  0  2  0  0  0  0  0  0
  -29.7880  -18.4540   20.0740 C   0  0  0  0  0  3  0  0  0  0  0  0
  -30.4390  -19.7870   21.9960 C   0  0  0  0  0  3  0  0  0  0  0  0
  -29.9250  -19.7690   20.6830 C   0  0  0  0  0  0  0  0  0  0  0  0
  -30.1930  -17.2190   20.7270 C   0  0  0  0  0  0  0  0  0  0  0  0
  -30.8240  -18.6020   22.6580 C   0  0  0  0  0  0  0  0  0  0  0  0
  -30.7120  -17.3390   22.0350 C   0  0  0  0  0  0  0  0  0  0  0  0
  -31.3110  -18.6790   23.9220 F   0  0  0  0  0  0  0  0  0  0  0  0
  -31.0700  -16.2300   22.7240 F   0  0  0  0  0  0  0  0  0  0  0  0
  -30.7600  -14.7460   20.1100 C   0  0  0  0  0  0  0  0  0  0  0  0
  -30.4990  -12.5010   19.0380 C   0  0  0  0  0  2  0  0  0  0  0  0
  -29.5140  -12.6200   17.8550 C   0  0  0  0  0  2  0  0  0  0  0  0
  -28.0570  -12.4650   18.3390 C   0  0  0  0  0  2  0  0  0  0  0  0
  -27.7430  -13.3330   19.5880 C   0  0  0  0  0  3  0  0  0  0  0  0
  -28.8440  -13.1900   20.6600 C   0  0  0  0  0  2  0  0  0  0  0  0
  -30.1200  -13.5350   20.0210 N   0  0  0  0  0  0  0  0  0  0  0  0
  -31.9530  -14.8540   19.8080 O   0  0  0  0  0  0  0  0  0  0  0  0
  -29.9490  -15.8610   20.1990 N   0  0  0  0  0  0  0  0  0  0  0  0
  -28.9720  -15.6400   20.0810 H   0  0  0  0  0  0  0  0  0  0  0  0
  -25.3950  -13.9540   20.4150 C   0  0  0  0  0  0  0  0  0  0  0  0
  -24.3350  -13.1920   20.8260 C   0  0  0  0  0  0  0  0  0  0  0  0
  -24.7770  -11.8360   20.7680 C   0  0  0  0  0  0  0  0  0  0  0  0
  -26.4150  -13.0610   20.1290 N   0  0  0  0  0  0  0  0  0  0  0  0
  -26.0530  -11.7810   20.4060 N   0  0  0  0  0  0  0  0  0  0  0  0
  -24.0400  -10.5820   20.9730 C   0  0  0  0  0  0  0  0  0  0  0  0
  -24.4870   -9.6070   21.8910 C   0  0  0  0  0  3  0  0  0  0  0  0
  -23.7520   -8.4180   22.0870 C   0  0  0  0  0  3  0  0  0  0  0  0
  -22.5550   -8.2000   21.3660 C   0  0  0  0  0  0  0  0  0  0  0  0
  -22.1270   -9.1610   20.4340 C   0  0  0  0  0  3  0  0  0  0  0  0
  -22.8630  -10.3410   20.2360 C   0  0  0  0  0  3  0  0  0  0  0  0
  -21.7850   -7.0660   21.4740 O   0  0  0  0  0  0  0  0  0  0  0  0
  -21.7470   -6.3290   22.6290 C   0  0  0  0  0  0  0  0  0  0  0  0
  -21.3520   -6.8940   23.8630 C   0  0  0  0  0  3  0  0  0  0  0  0
  -21.2640   -6.0830   25.0130 C   0  0  0  0  0  3  0  0  0  0  0  0
  -21.5540   -4.7090   24.9310 C   0  0  0  0  0  0  0  0  0  0  0  0
  -21.9400   -4.1430   23.7020 C   0  0  0  0  0  3  0  0  0  0  0  0
  -22.0320   -4.9510   22.5560 C   0  0  0  0  0  0  0  0  0  0  0  0
  -22.3830   -4.3950   21.3700 F   0  0  0  0  0  0  0  0  0  0  0  0
  -21.4600   -3.9290   26.0320 F   0  0  0  0  0  0  0  0  0  0  0  0
  -22.9560  -13.6850   21.1520 C   0  0  0  0  0  0  0  0  0  0  0  0
  -22.2510  -13.0000   22.0460 N   0  0  0  0  0  0  0  0  0  0  0  0
  -22.5100  -14.7150   20.6490 O   0  0  0  0  0  0  0  0  0  0  0  0
  -22.6200  -12.1670   22.4810 H   0  0  0  0  0  0  0  0  0  0  0  0
  -21.3230  -13.3120   22.2960 H   0  0  0  0  0  0  0  0  0  0  0  0
  -25.5690  -15.3240   20.2400 N   0  0  0  0  0  0  0  0  0  0  0  0
  -24.8140  -15.9870   20.3850 H   0  0  0  0  0  0  0  0  0  0  0  0
  -26.3920  -15.7550   19.8400 H   0  0  0  0  0  0  0  0  0  0  0  0
  -27.3880  -21.9960   20.3300 C   0  0  0  0  0  1  0  0  0  0  0  0
  -28.8240  -22.2720   20.5850 N   0  0  2  0  0  4  0  0  0  0  0  0
  -28.9330  -22.1500   21.5810 H   0  0  0  0  0  0  0  0  0  0  0  0
  -29.2190  -23.7510   20.3260 C   0  0  0  0  0  3  0  0  0  0  0  0
  -28.0960  -24.9120   20.4220 C   0  0  0  0  0  3  0  0  0  0  0  0
  -28.3950  -26.3900   20.3440 O   0  0  0  0  0  0  0  0  0  0  0  0
  -24.6430  -31.9070   23.2270 C   0  0  0  0  0  0  0  0  0  0  0  0
  -27.3010  -27.2850   20.2690 C   0  0  0  0  0  0  0  0  0  0  0  0
  -23.4720  -30.4890   21.5870 C   0  0  0  0  0  3  0  0  0  0  0  0
  -24.9450  -28.9300   20.2000 C   0  0  0  0  0  0  0  0  0  0  0  0
  -26.0140  -30.8070   21.4340 C   0  0  0  0  0  2  0  0  0  0  0  0
  -26.1110  -29.4150   20.8100 C   0  0  0  0  0  0  0  0  0  0  0  0
  -27.2920  -28.6060   20.8350 C   0  0  0  0  0  3  0  0  0  0  0  0
  -26.1110  -26.8780   19.6210 C   0  0  0  0  0  3  0  0  0  0  0  0
  -24.9500  -27.6660   19.6000 C   0  0  0  0  0  3  0  0  0  0  0  0
  -23.7110  -29.8090   20.2160 C   0  0  0  0  0  2  0  0  0  0  0  0
  -24.7290  -31.0850   22.1400 N   0  0  0  0  0  0  0  0  0  0  0  0
  -23.5480  -32.1860   23.7380 O   0  0  0  0  0  0  0  0  0  0  0  0
  -22.7990  -29.4750   22.5460 C   0  0  0  0  0  0  0  0  0  0  0  0
  -21.4750  -29.2880   22.4020 N   0  0  0  0  0  0  0  0  0  0  0  0
  -23.4690  -28.8610   23.3800 O   0  0  0  0  0  0  0  0  0  0  0  0
  -20.9950  -29.8370   21.7020 H   0  0  0  0  0  0  0  0  0  0  0  0
  -18.0980  -28.0690   22.8610 C   0  0  0  0  0  0  0  0  0  0  0  0
  -20.6490  -28.3550   23.1710 C   0  0  0  0  0  3  0  0  0  0  0  0
  -20.7760  -26.9160   22.6220 C   0  0  0  0  0  2  0  0  0  0  0  0
  -19.6930  -26.5660   21.5950 C   0  0  0  0  0  2  0  0  0  0  0  0
  -18.2980  -26.7110   22.2100 C   0  0  0  0  0  2  0  0  0  0  0  0
  -19.2020  -28.8460   23.3000 C   0  0  0  0  0  0  0  0  0  0  0  0
  -18.9610  -30.1160   23.8690 C   0  0  0  0  0  3  0  0  0  0  0  0
  -17.6480  -30.6080   24.0040 C   0  0  0  0  0  3  0  0  0  0  0  0
  -16.5590  -29.8270   23.5810 C   0  0  0  0  0  3  0  0  0  0  0  0
  -16.7840  -28.5590   23.0160 C   0  0  0  0  0  3  0  0  0  0  0  0
  -25.9110  -32.5570   23.8600 C   0  0  0  0  0  3  0  0  0  0  0  0
  -26.4160  -31.7950   25.1460 C   0  0  1  0  0  0  0  0  0  0  0  0
  -25.3120  -31.5510   26.2030 C   0  0  0  0  0  1  0  0  0  0  0  0
  -27.0190  -30.4210   24.7660 C   0  0  0  0  0  1  0  0  0  0  0  0
  -27.5550  -32.5980   25.8180 C   0  0  0  0  0  1  0  0  0  0  0  0
  -25.5840  -33.9520   24.1830 N   0  0  0  0  0  0  0  0  0  0  0  0
  -25.9160  -35.0050   23.4240 C   0  0  0  0  0  0  0  0  0  0  0  0
  -26.6010  -34.9030   22.4020 O   0  0  0  0  0  0  0  0  0  0  0  0
  -24.9850  -34.1060   24.9800 H   0  0  0  0  0  0  0  0  0  0  0  0
  -24.1860  -36.7850   23.0240 C   0  0  0  0  0  1  0  0  0  0  0  0
  -25.4090  -36.3910   23.8660 C   0  0  0  0  0  3  0  0  0  0  0  0
  -27.5240  -37.2900   24.7330 C   0  0  0  0  0  1  0  0  0  0  0  0
  -26.4380  -37.4510   23.7690 N   0  0  0  0  0  0  0  0  0  0  0  0
  -26.0250  -38.3690   23.9050 H   0  0  0  0  0  0  0  0  0  0  0  0
  1 49  1  0
  1  4  1  0
  2  4  2  0
  2  5  1  0
  3  6  2  0
  4  3  1  0
  5  7  2  0
  6  8  1  0
  7  6  1  0
  7  9  1  0
 10 18  1  0
 11 16  1  0
 12 13  1  0
 12 11  1  0
 14 13  1  0
 14 23  1  0
 14 15  1  0
 16 10  1  0
 16 15  1  0
 17 10  2  0
 18  5  1  0
 19 18  1  0
 20 21  2  0
 21 40  1  0
 22 21  1  0
 22 25  1  0
 23 24  1  0
 23 20  1  0
 24 22  2  0
 25 26  1  0
 26 27  2  0
 28 31  1  0
 28 27  1  0
 29 28  2  0
 30 29  1  0
 30 25  2  0
 31 32  1  0
 32 33  1  0
 33 34  2  0
 35 34  1  0
 35 39  1  0
 36 35  2  0
 37 32  2  0
 37 36  1  0
 38 37  1  0
 40 41  1  0
 41 44  1  0
 41 43  1  0
 42 40  2  0
 45 46  1  0
 45 20  1  0
 47 45  1  0
 48 49  1  0
 49 50  1  1
 51 52  2  0
 51 49  1  0
 53 52  1  0
 54 65  2  0
 55 53  1  0
 55 60  1  0
 56 64  1  0
 56 66  1  0
 57 63  1  0
 57 59  1  0
 58 64  1  0
 59 60  2  0
 59 58  1  0
 61 55  2  0
 62 61  1  0
 62 57  2  0
 63 56  1  0
 64 54  1  0
 66 68  2  0
 67 66  1  0
 69 67  1  0
 70 79  2  0
 70 75  1  0
 71 67  1  0
 71 75  1  0
 72 71  1  0
 73 74  1  0
 73 72  1  0
 74 70  1  0
 75 76  2  0
 76 77  1  0
 78 77  2  0
 79 78  1  0
 80 54  1  0
 80 85  1  0
 80 81  1  0
 81 84  1  1
 81 82  1  0
 83 81  1  0
 85 88  1  0
 86 90  1  0
 86 85  1  0
 87 86  2  0
 90 89  1  0
 92 90  1  0
 92 93  1  0
 92 91  1  0
M  ISO  4  10 100  18 100  52 101  53 101
M  END
>  <TORSDO>  (42) 
F 20

>  <SCORE>  (42) 
-13.575

>  <name>  (42) 
41

>  <ligand_id>  (42) 
41

>  <original_smiles>  (42) 
[H]c1c([H])c([H])c2c(c1[H])C([H])([H])C([H])([H])C([H])([H])C2([H])N([H])C(=O)C1([H])N(C(=O)C([H])(N([H])C(=O)C([H])(N([H])C([H])([H])[H])C([H])([H])[H])C(C([H])([H])[H])(C([H])([H])[H])C([H])([H])[H])C([H])([H])c2c([H])c(OC([H])([H])C([H])([H])[N+]([H])(C([H])([H])[H])C([H])([H])c3c([H])c(F)c(F)c(N([H])C(=O)N4C([H])([H])C([H])([H])C([H])([H])C([H])(n5nc(-c6c([H])c([H])c(Oc7c([H])c([H])c(F)c([H])c7F)c([H])c6[H])c(C(=O)N([H])[H])c5N([H])[H])C4([H])[H])c3[H])c([H])c([H])c2C1([H])[H]

>  <smiles>  (42) 
[H]c1c([H])c([H])c2c(c1[H])C([H])([H])C([H])([H])C([H])([H])C2([H])N([H])C(=O)C1([H])N(C(=O)C([H])(N([H])C(=O)C([H])(N([H])C([H])([H])[H])C([H])([H])[H])C(C([H])([H])[H])(C([H])([H])[H])C([H])([H])[H])C([H])([H])c2c([H])c(OC([H])([H])C([H])([H])[N+]([H])(C([H])([H])[H])C([H])([H])c3c([H])c(F)c(F)c(N([H])C(=O)N4C([H])([H])C([H])([H])C([H])([H])C([H])(n5nc(-c6c([H])c([H])c(Oc7c([H])c([H])c(F)c([H])c7F)c([H])c6[H])c(C(=O)N([H])[H])c5N([H])[H])C4([H])[H])c3[H])c([H])c([H])c2C1([H])[H]

$$$$
42:0:0
     RDKit          3D

 96104  0  0  1  0  0  0  0  0999 V2000
  -29.5320  -18.7080   20.3180 C   0  0  0  0  0  3  0  0  0  0  0  0
  -30.7310  -17.5270   22.0600 C   0  0  0  0  0  3  0  0  0  0  0  0
  -29.8360  -20.0140   20.8980 C   0  0  0  0  0  0  0  0  0  0  0  0
  -30.5630  -19.9980   22.1310 C   0  0  0  0  0  0  0  0  0  0  0  0
  -29.9790  -17.4410   20.8780 C   0  0  0  0  0  0  0  0  0  0  0  0
  -31.0130  -18.7610   22.6730 C   0  0  0  0  0  0  0  0  0  0  0  0
  -31.7610  -18.7190   23.7990 F   0  0  0  0  0  0  0  0  0  0  0  0
  -30.4610  -14.9770   20.1940 C   0  0  0  0  0  0  0  0  0  0  0  0
  -30.2880  -12.7380   19.0970 C   0  0  0  0  0  2  0  0  0  0  0  0
  -29.2810  -12.7680   17.9260 C   0  0  0  0  0  2  0  0  0  0  0  0
  -27.8460  -12.5240   18.4300 C   0  0  0  0  0  2  0  0  0  0  0  0
  -27.4910  -13.3960   19.6630 C   0  0  0  0  0  3  0  0  0  0  0  0
  -28.6030  -13.3370   20.7320 C   0  0  0  0  0  2  0  0  0  0  0  0
  -29.8520  -13.7510   20.0800 N   0  0  0  0  0  0  0  0  0  0  0  0
  -31.6460  -15.1110   19.8760 O   0  0  0  0  0  0  0  0  0  0  0  0
  -29.6540  -16.0910   20.3680 N   0  0  0  0  0  0  0  0  0  0  0  0
  -28.6710  -15.9110   20.2220 H   0  0  0  0  0  0  0  0  0  0  0  0
  -25.1250  -13.8970   20.5210 C   0  0  0  0  0  0  0  0  0  0  0  0
  -24.0980  -13.0780   20.9090 C   0  0  0  0  0  0  0  0  0  0  0  0
  -24.5980  -11.7440   20.8150 C   0  0  0  0  0  0  0  0  0  0  0  0
  -26.1810  -13.0560   20.2100 N   0  0  0  0  0  0  0  0  0  0  0  0
  -25.8750  -11.7550   20.4500 N   0  0  0  0  0  0  0  0  0  0  0  0
  -23.9200  -10.4540   20.9950 C   0  0  0  0  0  0  0  0  0  0  0  0
  -24.3900   -9.4920   21.9140 C   0  0  0  0  0  3  0  0  0  0  0  0
  -23.7080   -8.2680   22.0790 C   0  0  0  0  0  3  0  0  0  0  0  0
  -22.5410   -7.9980   21.3280 C   0  0  0  0  0  0  0  0  0  0  0  0
  -22.0900   -8.9500   20.3960 C   0  0  0  0  0  3  0  0  0  0  0  0
  -22.7740  -10.1650   20.2280 C   0  0  0  0  0  3  0  0  0  0  0  0
  -21.8260   -6.8260   21.4060 O   0  0  0  0  0  0  0  0  0  0  0  0
  -21.7750   -6.0900   22.5620 C   0  0  0  0  0  0  0  0  0  0  0  0
  -21.2230   -6.6120   23.7520 C   0  0  0  0  0  3  0  0  0  0  0  0
  -21.1270   -5.8000   24.8990 C   0  0  0  0  0  3  0  0  0  0  0  0
  -21.5690   -4.4630   24.8560 C   0  0  0  0  0  0  0  0  0  0  0  0
  -22.1180   -3.9420   23.6710 C   0  0  0  0  0  3  0  0  0  0  0  0
  -22.2160   -4.7520   22.5260 C   0  0  0  0  0  0  0  0  0  0  0  0
  -22.7230   -4.2400   21.3790 F   0  0  0  0  0  0  0  0  0  0  0  0
  -21.4730   -3.6790   25.9550 F   0  0  0  0  0  0  0  0  0  0  0  0
  -22.7010  -13.5040   21.2560 C   0  0  0  0  0  0  0  0  0  0  0  0
  -22.0310  -12.7560   22.1250 N   0  0  0  0  0  0  0  0  0  0  0  0
  -22.2130  -14.5350   20.7930 O   0  0  0  0  0  0  0  0  0  0  0  0
  -22.4380  -11.9200   22.5160 H   0  0  0  0  0  0  0  0  0  0  0  0
  -21.0980  -13.0240   22.4050 H   0  0  0  0  0  0  0  0  0  0  0  0
  -25.2380  -15.2760   20.3870 N   0  0  0  0  0  0  0  0  0  0  0  0
  -24.4530  -15.8960   20.5590 H   0  0  0  0  0  0  0  0  0  0  0  0
  -26.0640  -15.7680   20.0720 H   0  0  0  0  0  0  0  0  0  0  0  0
  -30.9190  -21.3010   22.8660 C   0  0  1  0  0  0  0  0  0  0  0  0
  -31.7700  -22.0150   22.1300 F   0  0  0  0  0  0  0  0  0  0  0  0
  -29.8190  -22.0280   23.0690 F   0  0  0  0  0  0  0  0  0  0  0  0
  -31.4700  -21.1120   24.0650 F   0  0  0  0  0  0  0  0  0  0  0  0
  -29.6160  -21.4010   20.1200 C   0  0  0  0  0  2  0  0  0  0  0  0
  -27.2190  -22.0260   20.3040 C   0  0  0  0  0  1  0  0  0  0  0  0
  -28.6070  -22.4900   20.5450 N   0  0  2  0  0  4  0  0  0  0  0  0
  -28.7060  -22.5530   21.5520 H   0  0  0  0  0  0  0  0  0  0  0  0
  -28.8630  -23.9320   20.0270 C   0  0  0  0  0  3  0  0  0  0  0  0
  -27.8050  -25.1240   20.3500 C   0  0  0  0  0  3  0  0  0  0  0  0
  -28.0490  -26.5590   19.9560 O   0  0  0  0  0  0  0  0  0  0  0  0
  -24.5370  -31.9790   23.2720 C   0  0  0  0  0  0  0  0  0  0  0  0
  -26.9590  -27.4590   19.9800 C   0  0  0  0  0  0  0  0  0  0  0  0
  -23.2510  -30.6500   21.6360 C   0  0  0  0  0  3  0  0  0  0  0  0
  -24.6220  -29.1280   20.0990 C   0  0  0  0  0  0  0  0  0  0  0  0
  -25.7850  -30.9420   21.3550 C   0  0  0  0  0  2  0  0  0  0  0  0
  -25.8210  -29.5770   20.6660 C   0  0  0  0  0  0  0  0  0  0  0  0
  -26.9930  -28.7580   20.5910 C   0  0  0  0  0  3  0  0  0  0  0  0
  -25.7390  -27.0880   19.3670 C   0  0  0  0  0  3  0  0  0  0  0  0
  -24.5830  -27.8930   19.4370 C   0  0  0  0  0  3  0  0  0  0  0  0
  -23.4000  -30.0200   20.2230 C   0  0  0  0  0  2  0  0  0  0  0  0
  -24.5450  -31.2060   22.1440 N   0  0  0  0  0  0  0  0  0  0  0  0
  -23.4780  -32.2480   23.8590 O   0  0  0  0  0  0  0  0  0  0  0  0
  -22.6130  -29.6090   22.5880 C   0  0  0  0  0  0  0  0  0  0  0  0
  -21.2910  -29.4050   22.4630 N   0  0  0  0  0  0  0  0  0  0  0  0
  -23.3070  -28.9870   23.3960 O   0  0  0  0  0  0  0  0  0  0  0  0
  -20.7840  -29.9710   21.7970 H   0  0  0  0  0  0  0  0  0  0  0  0
  -17.9460  -28.1020   22.9430 C   0  0  0  0  0  0  0  0  0  0  0  0
  -20.4950  -28.4370   23.2230 C   0  0  0  0  0  3  0  0  0  0  0  0
  -20.6410  -27.0120   22.6410 C   0  0  0  0  0  2  0  0  0  0  0  0
  -19.5520  -26.6610   21.6210 C   0  0  0  0  0  2  0  0  0  0  0  0
  -18.1640  -26.7620   22.2600 C   0  0  0  0  0  2  0  0  0  0  0  0
  -19.0420  -28.8950   23.3800 C   0  0  0  0  0  0  0  0  0  0  0  0
  -18.7840  -30.1480   23.9770 C   0  0  0  0  0  3  0  0  0  0  0  0
  -17.4660  -30.6080   24.1460 C   0  0  0  0  0  3  0  0  0  0  0  0
  -16.3850  -29.8150   23.7230 C   0  0  0  0  0  3  0  0  0  0  0  0
  -16.6260  -28.5650   23.1250 C   0  0  0  0  0  3  0  0  0  0  0  0
  -25.8490  -32.5750   23.8640 C   0  0  0  0  0  3  0  0  0  0  0  0
  -25.5830  -33.9790   24.2080 N   0  0  0  0  0  0  0  0  0  0  0  0
  -25.9170  -35.0260   23.4440 C   0  0  0  0  0  0  0  0  0  0  0  0
  -26.5540  -34.9110   22.3920 O   0  0  0  0  0  0  0  0  0  0  0  0
  -25.0270  -34.1450   25.0340 H   0  0  0  0  0  0  0  0  0  0  0  0
  -24.2420  -36.8770   23.1250 C   0  0  0  0  0  1  0  0  0  0  0  0
  -25.4790  -36.4260   23.9200 C   0  0  0  0  0  3  0  0  0  0  0  0
  -27.6400  -37.2450   24.7500 C   0  0  0  0  0  1  0  0  0  0  0  0
  -26.5410  -37.4490   23.8070 N   0  0  0  0  0  0  0  0  0  0  0  0
  -26.1620  -38.3790   23.9610 H   0  0  0  0  0  0  0  0  0  0  0  0
  -26.3750  -31.7870   25.1240 C   0  0  1  0  0  0  0  0  0  0  0  0
  -25.2990  -31.5660   26.2150 C   0  0  0  0  0  1  0  0  0  0  0  0
  -26.9270  -30.4020   24.7110 C   0  0  0  0  0  1  0  0  0  0  0  0
  -27.5540  -32.5570   25.7670 C   0  0  0  0  0  1  0  0  0  0  0  0
  1  5  2  0
  1  3  1  0
  2  6  2  0
  3  4  2  0
  4  6  1  0
  4 46  1  0
  5  2  1  0
  6  7  1  0
  8 16  1  0
  9 14  1  0
 10 11  1  0
 10  9  1  0
 12 11  1  0
 12 21  1  0
 12 13  1  0
 14  8  1  0
 14 13  1  0
 15  8  2  0
 16  5  1  0
 17 16  1  0
 18 19  2  0
 19 38  1  0
 20 19  1  0
 20 23  1  0
 21 22  1  0
 21 18  1  0
 22 20  2  0
 23 24  1  0
 24 25  2  0
 26 29  1  0
 26 25  1  0
 27 26  2  0
 28 27  1  0
 28 23  2  0
 29 30  1  0
 30 31  1  0
 31 32  2  0
 33 32  1  0
 33 37  1  0
 34 33  2  0
 35 30  2  0
 35 34  1  0
 36 35  1  0
 38 39  1  0
 39 42  1  0
 39 41  1  0
 40 38  2  0
 43 18  1  0
 43 44  1  0
 45 43  1  0
 46 48  1  1
 46 49  1  0
 47 46  1  0
 50 52  1  0
 50  3  1  0
 51 52  1  0
 52 53  1  1
 54 55  2  0
 54 52  1  0
 56 58  1  0
 56 55  1  0
 57 68  2  0
 58 63  1  0
 59 67  1  0
 59 69  1  0
 60 66  1  0
 60 62  1  0
 61 67  1  0
 62 61  1  0
 63 62  2  0
 64 65  1  0
 64 58  2  0
 65 60  2  0
 66 59  1  0
 67 57  1  0
 69 71  2  0
 70 69  1  0
 72 70  1  0
 73 82  2  0
 73 78  1  0
 74 70  1  0
 74 78  1  0
 75 74  1  0
 76 77  1  0
 76 75  1  0
 77 73  1  0
 78 79  2  0
 79 80  1  0
 81 80  2  0
 82 81  1  0
 83 57  1  0
 83 84  1  0
 83 93  1  0
 84 87  1  0
 85 89  1  0
 85 84  1  0
 86 85  2  0
 89 88  1  0
 91 89  1  0
 91 92  1  0
 91 90  1  0
 93 96  1  1
 93 94  1  0
 95 93  1  0
M  ISO  4   8 100  16 100  55 101  56 101
M  END
>  <TORSDO>  (43) 
F 21

>  <SCORE>  (43) 
-13.362

>  <name>  (43) 
42

>  <ligand_id>  (43) 
42

>  <original_smiles>  (43) 
[H]c1c([H])c([H])c2c(c1[H])C([H])([H])C([H])([H])C([H])([H])C2([H])N([H])C(=O)C1([H])N(C(=O)C([H])(N([H])C(=O)C([H])(N([H])C([H])([H])[H])C([H])([H])[H])C(C([H])([H])[H])(C([H])([H])[H])C([H])([H])[H])C([H])([H])c2c([H])c(OC([H])([H])C([H])([H])[N+]([H])(C([H])([H])[H])C([H])([H])c3c([H])c(N([H])C(=O)N4C([H])([H])C([H])([H])C([H])([H])C([H])(n5nc(-c6c([H])c([H])c(Oc7c([H])c([H])c(F)c([H])c7F)c([H])c6[H])c(C(=O)N([H])[H])c5N([H])[H])C4([H])[H])c([H])c(F)c3C(F)(F)F)c([H])c([H])c2C1([H])[H]

>  <smiles>  (43) 
[H]c1c([H])c([H])c2c(c1[H])C([H])([H])C([H])([H])C([H])([H])C2([H])N([H])C(=O)C1([H])N(C(=O)C([H])(N([H])C(=O)C([H])(N([H])C([H])([H])[H])C([H])([H])[H])C(C([H])([H])[H])(C([H])([H])[H])C([H])([H])[H])C([H])([H])c2c([H])c(OC([H])([H])C([H])([H])[N+]([H])(C([H])([H])[H])C([H])([H])c3c([H])c(N([H])C(=O)N4C([H])([H])C([H])([H])C([H])([H])C([H])(n5nc(-c6c([H])c([H])c(Oc7c([H])c([H])c(F)c([H])c7F)c([H])c6[H])c(C(=O)N([H])[H])c5N([H])[H])C4([H])[H])c([H])c(F)c3C(F)(F)F)c([H])c([H])c2C1([H])[H]

$$$$
43:0:0
     RDKit          3D

 96104  0  0  1  0  0  0  0  0999 V2000
  -29.2240  -22.5100   20.1280 C   0  0  0  0  0  0  0  0  0  0  0  0
  -28.6650  -21.2560   20.0550 N   0  0  0  0  0  0  0  0  0  0  0  0
  -30.3590  -22.6620   20.5810 O   0  0  0  0  0  0  0  0  0  0  0  0
  -27.6760  -21.2440   19.8580 H   0  0  0  0  0  0  0  0  0  0  0  0
  -30.8410  -18.0370   20.4330 C   0  0  0  0  0  3  0  0  0  0  0  0
  -30.5120  -19.4350   20.3110 C   0  0  0  0  0  3  0  0  0  0  0  0
  -28.4950  -17.5110   20.5290 C   0  0  0  0  0  3  0  0  0  0  0  0
  -29.8320  -17.0340   20.5430 C   0  0  0  0  0  0  0  0  0  0  0  0
  -29.1600  -19.8910   20.2770 C   0  0  0  0  0  0  0  0  0  0  0  0
  -28.1710  -18.8870   20.3850 C   0  0  0  0  0  0  0  0  0  0  0  0
  -26.8670  -19.2550   20.3340 F   0  0  0  0  0  0  0  0  0  0  0  0
  -30.8020  -14.6250   20.1200 C   0  0  0  0  0  0  0  0  0  0  0  0
  -30.6020  -12.4030   18.9980 C   0  0  0  0  0  2  0  0  0  0  0  0
  -29.6110  -12.5480   17.8190 C   0  0  0  0  0  2  0  0  0  0  0  0
  -28.1500  -12.3830   18.2940 C   0  0  0  0  0  2  0  0  0  0  0  0
  -27.8380  -13.2200   19.5620 C   0  0  0  0  0  3  0  0  0  0  0  0
  -28.9290  -13.0030   20.6340 C   0  0  0  0  0  2  0  0  0  0  0  0
  -30.2220  -13.3810   20.0360 N   0  0  0  0  0  0  0  0  0  0  0  0
  -31.9120  -14.8540   19.6300 O   0  0  0  0  0  0  0  0  0  0  0  0
  -30.0100  -15.5850   20.6960 N   0  0  0  0  0  0  0  0  0  0  0  0
  -29.2260  -15.1450   21.1540 H   0  0  0  0  0  0  0  0  0  0  0  0
  -25.4630  -13.8230   20.3450 C   0  0  0  0  0  0  0  0  0  0  0  0
  -24.4100  -13.0510   20.7530 C   0  0  0  0  0  0  0  0  0  0  0  0
  -24.8710  -11.7000   20.7070 C   0  0  0  0  0  0  0  0  0  0  0  0
  -26.5010  -12.9410   20.0820 N   0  0  0  0  0  0  0  0  0  0  0  0
  -26.1510  -11.6590   20.3570 N   0  0  0  0  0  0  0  0  0  0  0  0
  -24.1520  -10.4390   20.9220 C   0  0  0  0  0  0  0  0  0  0  0  0
  -24.5470   -9.5220   21.9220 C   0  0  0  0  0  3  0  0  0  0  0  0
  -23.8300   -8.3230   22.1190 C   0  0  0  0  0  3  0  0  0  0  0  0
  -22.7010   -8.0320   21.3180 C   0  0  0  0  0  0  0  0  0  0  0  0
  -22.3230   -8.9350   20.3070 C   0  0  0  0  0  3  0  0  0  0  0  0
  -23.0430  -10.1260   20.1080 C   0  0  0  0  0  3  0  0  0  0  0  0
  -21.9580   -6.8800   21.4220 O   0  0  0  0  0  0  0  0  0  0  0  0
  -21.7710   -6.2510   22.6270 C   0  0  0  0  0  0  0  0  0  0  0  0
  -21.1510   -6.8990   23.7170 C   0  0  0  0  0  3  0  0  0  0  0  0
  -20.9150   -6.1940   24.9130 C   0  0  0  0  0  3  0  0  0  0  0  0
  -21.2880   -4.8410   25.0190 C   0  0  0  0  0  0  0  0  0  0  0  0
  -21.9010   -4.1920   23.9330 C   0  0  0  0  0  3  0  0  0  0  0  0
  -22.1380   -4.8950   22.7380 C   0  0  0  0  0  0  0  0  0  0  0  0
  -22.7090   -4.2600   21.6870 F   0  0  0  0  0  0  0  0  0  0  0  0
  -21.0550   -4.1600   26.1650 F   0  0  0  0  0  0  0  0  0  0  0  0
  -23.0220  -13.5290   21.0700 C   0  0  0  0  0  0  0  0  0  0  0  0
  -22.3290  -12.8420   21.9700 N   0  0  0  0  0  0  0  0  0  0  0  0
  -22.5600  -14.5440   20.5500 O   0  0  0  0  0  0  0  0  0  0  0  0
  -22.7160  -12.0210   22.4110 H   0  0  0  0  0  0  0  0  0  0  0  0
  -21.3980  -13.1430   22.2250 H   0  0  0  0  0  0  0  0  0  0  0  0
  -25.6160  -15.1910   20.1540 N   0  0  0  0  0  0  0  0  0  0  0  0
  -24.8250  -15.8180   20.2290 H   0  0  0  0  0  0  0  0  0  0  0  0
  -26.4040  -15.6080   19.6760 H   0  0  0  0  0  0  0  0  0  0  0  0
  -28.4390  -23.7900   19.5710 C   0  0  0  0  0  3  0  0  0  0  0  0
  -27.0760  -23.4220   19.1210 N   0  0  0  0  0  4  0  0  0  0  0  0
  -26.4430  -23.3080   19.8970 H   0  0  0  0  0  0  0  0  0  0  0  0
  -27.1000  -22.5680   18.5920 H   0  0  0  0  0  0  0  0  0  0  0  0
  -26.7050  -24.1280   18.5100 H   0  0  0  0  0  0  0  0  0  0  0  0
  -28.4050  -25.1380   20.4450 C   0  0  0  0  0  2  0  0  0  0  0  0
  -28.4070  -26.4810   19.8060 O   0  0  0  0  0  0  0  0  0  0  0  0
  -24.5570  -31.6880   23.0180 C   0  0  0  0  0  0  0  0  0  0  0  0
  -27.2540  -27.2740   19.8570 C   0  0  0  0  0  0  0  0  0  0  0  0
  -23.3680  -30.2870   21.3710 C   0  0  0  0  0  3  0  0  0  0  0  0
  -24.8400  -28.8030   19.9010 C   0  0  0  0  0  0  0  0  0  0  0  0
  -25.8920  -30.6910   21.1480 C   0  0  0  0  0  2  0  0  0  0  0  0
  -26.0020  -29.3230   20.4860 C   0  0  0  0  0  0  0  0  0  0  0  0
  -27.2140  -28.5730   20.4530 C   0  0  0  0  0  3  0  0  0  0  0  0
  -26.0740  -26.8030   19.2480 C   0  0  0  0  0  3  0  0  0  0  0  0
  -24.8770  -27.5480   19.2730 C   0  0  0  0  0  3  0  0  0  0  0  0
  -23.5780  -29.6430   19.9750 C   0  0  0  0  0  2  0  0  0  0  0  0
  -24.6240  -30.9060   21.9020 N   0  0  0  0  0  0  0  0  0  0  0  0
  -23.4760  -31.9240   23.5750 O   0  0  0  0  0  0  0  0  0  0  0  0
  -22.7530  -29.2330   22.3220 C   0  0  0  0  0  0  0  0  0  0  0  0
  -21.4300  -29.0180   22.2150 N   0  0  0  0  0  0  0  0  0  0  0  0
  -23.4620  -28.6090   23.1150 O   0  0  0  0  0  0  0  0  0  0  0  0
  -20.9110  -29.5730   21.5490 H   0  0  0  0  0  0  0  0  0  0  0  0
  -18.0910  -27.7560   22.7790 C   0  0  0  0  0  0  0  0  0  0  0  0
  -20.6530  -28.0470   22.9830 C   0  0  0  0  0  3  0  0  0  0  0  0
  -20.7610  -26.6330   22.3650 C   0  0  0  0  0  2  0  0  0  0  0  0
  -19.6340  -26.3240   21.3740 C   0  0  0  0  0  2  0  0  0  0  0  0
  -18.2690  -26.4290   22.0620 C   0  0  0  0  0  2  0  0  0  0  0  0
  -19.2100  -28.5230   23.2000 C   0  0  0  0  0  0  0  0  0  0  0  0
  -18.9890  -29.7670   23.8320 C   0  0  0  0  0  3  0  0  0  0  0  0
  -17.6810  -30.2410   24.0490 C   0  0  0  0  0  3  0  0  0  0  0  0
  -16.5780  -29.4720   23.6420 C   0  0  0  0  0  3  0  0  0  0  0  0
  -16.7840  -28.2300   23.0160 C   0  0  0  0  0  3  0  0  0  0  0  0
  -25.8300  -32.3460   23.6310 C   0  0  0  0  0  3  0  0  0  0  0  0
  -26.4060  -31.5520   24.8670 C   0  0  1  0  0  0  0  0  0  0  0  0
  -25.3450  -31.2360   25.9470 C   0  0  0  0  0  1  0  0  0  0  0  0
  -27.0290  -30.2120   24.4110 C   0  0  0  0  0  1  0  0  0  0  0  0
  -27.5380  -32.3660   25.5330 C   0  0  0  0  0  1  0  0  0  0  0  0
  -25.4790  -33.7190   24.0170 N   0  0  0  0  0  0  0  0  0  0  0  0
  -25.7630  -34.8090   23.2910 C   0  0  0  0  0  0  0  0  0  0  0  0
  -26.4160  -34.7650   22.2450 O   0  0  0  0  0  0  0  0  0  0  0  0
  -24.8850  -33.8240   24.8280 H   0  0  0  0  0  0  0  0  0  0  0  0
  -23.9610  -36.5460   23.0380 C   0  0  0  0  0  1  0  0  0  0  0  0
  -25.2370  -36.1620   23.8070 C   0  0  0  0  0  3  0  0  0  0  0  0
  -27.3520  -37.1020   24.6280 C   0  0  0  0  0  1  0  0  0  0  0  0
  -26.2270  -37.2560   23.7080 N   0  0  0  0  0  0  0  0  0  0  0  0
  -25.7890  -38.1550   23.8880 H   0  0  0  0  0  0  0  0  0  0  0  0
  1  3  2  0
  2  1  1  0
  2  9  1  0
  4  2  1  0
  5  8  1  0
  6  5  2  0
  7  8  2  0
  8 20  1  0
  9  6  1  0
  9 10  2  0
 10  7  1  0
 11 10  1  0
 12 20  1  0
 13 18  1  0
 14 15  1  0
 14 13  1  0
 16 15  1  0
 16 25  1  0
 16 17  1  0
 18 12  1  0
 18 17  1  0
 19 12  2  0
 20 21  1  0
 22 23  2  0
 23 42  1  0
 24 23  1  0
 24 27  1  0
 25 22  1  0
 25 26  1  0
 26 24  2  0
 27 28  1  0
 28 29  2  0
 30 33  1  0
 30 29  1  0
 31 30  2  0
 32 31  1  0
 32 27  2  0
 33 34  1  0
 34 39  2  0
 34 35  1  0
 35 36  2  0
 36 37  1  0
 37 41  1  0
 38 37  2  0
 39 38  1  0
 40 39  1  0
 42 43  1  0
 43 46  1  0
 43 45  1  0
 44 42  2  0
 47 48  1  0
 47 22  1  0
 49 47  1  0
 50  1  1  0
 50 55  1  0
 51 50  1  0
 51 52  1  0
 53 51  1  0
 54 51  1  0
 56 58  1  0
 56 55  1  0
 57 68  2  0
 58 63  1  0
 59 67  1  0
 59 69  1  0
 60 66  1  0
 60 62  1  0
 61 67  1  0
 62 61  1  0
 63 62  2  0
 64 65  1  0
 64 58  2  0
 65 60  2  0
 66 59  1  0
 67 57  1  0
 69 71  2  0
 70 69  1  0
 72 70  1  0
 73 82  2  0
 73 78  1  0
 74 70  1  0
 74 78  1  0
 75 74  1  0
 76 77  1  0
 76 75  1  0
 77 73  1  0
 78 79  2  0
 79 80  1  0
 81 80  2  0
 82 81  1  0
 83 57  1  0
 83 88  1  0
 83 84  1  0
 84 87  1  1
 84 85  1  0
 86 84  1  0
 88 91  1  0
 89 93  1  0
 89 88  1  0
 90 89  2  0
 93 92  1  0
 95 93  1  0
 95 96  1  0
 95 94  1  0
M  ISO  4  12 100  20 100  55 101  56 101
M  END
>  <TORSDO>  (44) 
F 20

>  <SCORE>  (44) 
-13.336

>  <name>  (44) 
43

>  <ligand_id>  (44) 
43

>  <original_smiles>  (44) 
[H]c1c([H])c([H])c2c(c1[H])C([H])([H])C([H])([H])C([H])([H])C2([H])N([H])C(=O)C1([H])N(C(=O)C([H])(N([H])C(=O)C([H])(N([H])C([H])([H])[H])C([H])([H])[H])C(C([H])([H])[H])(C([H])([H])[H])C([H])([H])[H])C([H])([H])c2c([H])c(OC([H])([H])C([H])(C(=O)N([H])c3c([H])c([H])c(N([H])C(=O)N4C([H])([H])C([H])([H])C([H])([H])C([H])(n5nc(-c6c([H])c([H])c(Oc7c([H])c([H])c(F)c([H])c7F)c([H])c6[H])c(C(=O)N([H])[H])c5N([H])[H])C4([H])[H])c([H])c3F)[N+]([H])([H])[H])c([H])c([H])c2C1([H])[H]

>  <smiles>  (44) 
[H]c1c([H])c([H])c2c(c1[H])C([H])([H])C([H])([H])C([H])([H])C2([H])N([H])C(=O)C1([H])N(C(=O)C([H])(N([H])C(=O)C([H])(N([H])C([H])([H])[H])C([H])([H])[H])C(C([H])([H])[H])(C([H])([H])[H])C([H])([H])[H])C([H])([H])c2c([H])c(OC([H])([H])C([H])(C(=O)N([H])c3c([H])c([H])c(N([H])C(=O)N4C([H])([H])C([H])([H])C([H])([H])C([H])(n5nc(-c6c([H])c([H])c(Oc7c([H])c([H])c(F)c([H])c7F)c([H])c6[H])c(C(=O)N([H])[H])c5N([H])[H])C4([H])[H])c([H])c3F)[N+]([H])([H])[H])c([H])c([H])c2C1([H])[H]

$$$$
44:0:0
     RDKit          3D

105106  0  0  1  0  0  0  0  0999 V2000
  -20.3180  -25.4510   22.1650 C   0  0  0  0  0  2  0  0  0  0  0  0
  -22.6670  -26.5250   21.3300 C   0  0  0  0  0  2  0  0  0  0  0  0
  -23.2340  -26.0190   19.9700 C   0  0  0  0  0  2  0  0  0  0  0  0
  -24.4270  -24.5770   21.5700 C   0  0  0  0  0  1  0  0  0  0  0  0
  -22.2720  -25.3430   22.0520 N   0  0  0  0  0  1  0  0  0  0  0  0
  -24.2010  -24.8820   20.1290 N   0  0  2  0  0  4  0  0  0  0  0  0
  -20.0070  -24.3260   21.7760 O   0  0  0  0  0  0  0  0  0  0  0  0
  -23.5690  -24.1080   19.9630 H   0  0  0  0  0  0  0  0  0  0  0  0
  -27.0220  -24.0120   21.7670 C   0  0  0  0  0 15  0  0  0  0  0  0
  -31.1640  -23.1440   21.1200 C   0  0  0  0  0  2  0  0  0  0  0  0
  -33.9230  -22.2320   20.1170 C   0  0  0  0  0  2  0  0  0  0  0  0
  -34.4230  -21.6260   18.6940 C   0  0  0  0  0  2  0  0  0  0  0  0
  -33.7710  -20.2820   18.3710 C   0  0  0  0  0  2  0  0  0  0  0  0
  -32.4300  -20.3660   19.0940 C   0  0  0  0  0  3  0  0  0  0  0  0
  -32.4450  -20.6770   20.6010 C   0  0  0  0  0  2  0  0  0  0  0  0
  -32.3290  -22.1380   20.5990 N   0  0  0  0  0  0  0  0  0  0  0  0
  -32.1810  -23.9250   21.4110 O   0  0  0  0  0  1  0  0  0  0  0  0
  -29.2310  -23.3780   21.2710 N   0  0  0  0  0  1  0  0  0  0  0  0
  -29.5100  -24.2650   21.6780 H   0  0  0  0  0  0  0  0  0  0  0  0
  -30.2280  -19.4970   18.5340 C   0  0  0  0  0  0  0  0  0  0  0  0
  -29.6960  -18.2550   18.5920 C   0  0  0  0  0  0  0  0  0  0  0  0
  -30.7330  -17.4030   19.0860 C   0  0  0  0  0  0  0  0  0  0  0  0
  -31.5260  -19.3220   18.9470 N   0  0  0  0  0  0  0  0  0  0  0  0
  -31.8270  -18.0870   19.3720 N   0  0  0  0  0  0  0  0  0  0  0  0
  -30.7810  -15.9600   19.2140 C   0  0  0  0  0  0  0  0  0  0  0  0
  -31.0730  -15.3360   20.4450 C   0  0  0  0  0  3  0  0  0  0  0  0
  -31.0890  -13.9300   20.5310 C   0  0  0  0  0  3  0  0  0  0  0  0
  -30.8080  -13.1500   19.3840 C   0  0  0  0  0  0  0  0  0  0  0  0
  -30.5480  -13.7840   18.1580 C   0  0  0  0  0  3  0  0  0  0  0  0
  -30.5370  -15.1810   18.0700 C   0  0  0  0  0  3  0  0  0  0  0  0
  -30.8150  -11.7780   19.3660 O   0  0  0  0  0  0  0  0  0  0  0  0
  -30.5160  -11.0490   20.4860 C   0  0  0  0  0  0  0  0  0  0  0  0
  -29.2210  -11.0480   21.0520 C   0  0  0  0  0  3  0  0  0  0  0  0
  -28.9420  -10.2270   22.1620 C   0  0  0  0  0  3  0  0  0  0  0  0
  -29.9480   -9.4010   22.6990 C   0  0  0  0  0  0  0  0  0  0  0  0
  -31.2370   -9.4000   22.1340 C   0  0  0  0  0  3  0  0  0  0  0  0
  -31.5170  -10.2210   21.0280 C   0  0  0  0  0  0  0  0  0  0  0  0
  -32.7530  -10.2020   20.4720 F   0  0  0  0  0  0  0  0  0  0  0  0
  -29.6780   -8.6050   23.7590 F   0  0  0  0  0  0  0  0  0  0  0  0
  -28.3370  -17.8910   18.1100 C   0  0  0  0  0  0  0  0  0  0  0  0
  -27.7440  -16.8620   18.6950 N   0  0  0  0  0  0  0  0  0  0  0  0
  -27.7740  -18.5610   17.2430 O   0  0  0  0  0  0  0  0  0  0  0  0
  -28.2110  -16.3380   19.4200 H   0  0  0  0  0  0  0  0  0  0  0  0
  -26.8130  -16.5910   18.4150 H   0  0  0  0  0  0  0  0  0  0  0  0
  -29.7340  -20.7470   18.1550 N   0  0  0  0  0  0  0  0  0  0  0  0
  -28.7960  -20.8610   17.7930 H   0  0  0  0  0  0  0  0  0  0  0  0
  -30.3110  -21.5670   18.0220 H   0  0  0  0  0  0  0  0  0  0  0  0
  -25.1650  -24.6530   19.0250 C   0  0  0  0  0  2  0  0  0  0  0  0
  -26.6560  -25.0990   19.0920 C   0  0  0  0  0  2  0  0  0  0  0  0
  -27.3850  -26.1410   18.1930 C   0  0  0  0  0  2  0  0  0  0  0  0
  -26.6060  -27.3860   16.1730 C   0  0  0  0  0  0  0  0  0  0  0  0
  -27.0010  -26.2310   16.7790 N   0  0  0  0  0  0  0  0  0  0  0  0
  -25.8740  -28.2410   16.6790 O   0  0  0  0  0  0  0  0  0  0  0  0
  -27.5780  -25.6510   16.1810 H   0  0  0  0  0  0  0  0  0  0  0  0
  -27.3200  -27.5580   14.8300 C   0  0  0  0  0  2  0  0  0  0  0  0
  -26.9180  -28.3990   13.6690 O   0  0  0  0  0  0  0  0  0  0  0  0
  -33.4530  -28.3550   10.6490 C   0  0  0  0  0  0  0  0  0  0  0  0
  -28.0820  -29.1180   13.3650 C   0  0  0  0  0  0  0  0  0  0  0  0
  -33.1100  -29.5250   12.7450 C   0  0  0  0  0  3  0  0  0  0  0  0
  -30.7440  -30.0480   13.4240 C   0  0  0  0  0  0  0  0  0  0  0  0
  -31.1970  -29.3590   11.0840 C   0  0  0  0  0  2  0  0  0  0  0  0
  -30.2540  -29.4220   12.2710 C   0  0  0  0  0  0  0  0  0  0  0  0
  -28.9320  -28.8900   12.2470 C   0  0  0  0  0  3  0  0  0  0  0  0
  -28.5660  -30.0150   14.3550 C   0  0  0  0  0  3  0  0  0  0  0  0
  -29.9040  -30.3360   14.4830 C   0  0  0  0  0  3  0  0  0  0  0  0
  -32.1640  -30.5330   13.4330 C   0  0  0  0  0  2  0  0  0  0  0  0
  -32.6050  -29.0450   11.4500 N   0  0  0  0  0  0  0  0  0  0  0  0
  -34.6240  -28.1290   10.9790 O   0  0  0  0  0  0  0  0  0  0  0  0
  -33.3100  -28.3610   13.6950 C   0  0  0  0  0  0  0  0  0  0  0  0
  -33.8120  -28.7550   14.8400 N   0  0  0  0  0  0  0  0  0  0  0  0
  -32.9340  -27.2060   13.4600 O   0  0  0  0  0  0  0  0  0  0  0  0
  -34.1210  -29.7100   14.9490 H   0  0  0  0  0  0  0  0  0  0  0  0
  -34.3080  -28.6090   18.5780 C   0  0  0  0  0  0  0  0  0  0  0  0
  -33.4950  -28.0150   15.9890 C   0  0  0  0  0  3  0  0  0  0  0  0
  -32.2800  -28.4420   16.7310 C   0  0  0  0  0  2  0  0  0  0  0  0
  -32.1230  -28.5080   18.2710 C   0  0  0  0  0  2  0  0  0  0  0  0
  -33.1630  -29.1280   19.1490 C   0  0  0  0  0  2  0  0  0  0  0  0
  -34.5090  -28.3180   16.8050 C   0  0  0  0  0  0  0  0  0  0  0  0
  -36.0040  -27.6830   16.2390 C   0  0  0  0  0  3  0  0  0  0  0  0
  -37.2170  -27.4020   17.2980 C   0  0  0  0  0  3  0  0  0  0  0  0
  -37.0390  -27.6470   18.9210 C   0  0  0  0  0  3  0  0  0  0  0  0
  -35.6190  -28.2120   19.5920 C   0  0  0  0  0  3  0  0  0  0  0  0
  -32.9790  -27.8330    9.2640 C   0  0  0  0  0  3  0  0  0  0  0  0
  -32.6040  -26.3030    9.2720 C   0  0  1  0  0  0  0  0  0  0  0  0
  -33.7040  -25.3940    9.8670 C   0  0  0  0  0  1  0  0  0  0  0  0
  -31.3080  -26.0550   10.0790 C   0  0  0  0  0  1  0  0  0  0  0  0
  -32.3200  -25.8460    7.8230 C   0  0  0  0  0  1  0  0  0  0  0  0
  -34.0660  -28.1130    8.3220 N   0  0  0  0  0  0  0  0  0  0  0  0
  -34.0930  -29.1650    7.4950 C   0  0  0  0  0  0  0  0  0  0  0  0
  -33.1540  -29.9620    7.3950 O   0  0  0  0  0  0  0  0  0  0  0  0
  -34.8880  -27.5320    8.3920 H   0  0  0  0  0  0  0  0  0  0  0  0
  -36.2340  -30.4620    7.2540 C   0  0  0  0  0  1  0  0  0  0  0  0
  -35.3580  -29.3580    6.6400 C   0  0  0  0  0  3  0  0  0  0  0  0
  -34.4650  -28.5640    4.4960 C   0  0  0  0  0  1  0  0  0  0  0  0
  -35.0630  -29.6780    5.2270 N   0  0  0  0  0  0  0  0  0  0  0  0
  -35.9070  -29.9620    4.7360 H   0  0  0  0  0  0  0  0  0  0  0  0
  -18.0190  -26.3590   22.6320 C   0  0  0  0  0  1  0  0  0  0  0  0
  -16.1830  -28.9600   22.3540 N   0  0  0  0  0  0  0  0  0  0  0  0
  -15.4770  -28.9190   23.0870 H   0  0  0  0  0  0  0  0  0  0  0  0
  -15.7500  -28.9280   21.4550 H   0  0  0  0  0  0  0  0  0  0  0  0
  -16.7570  -29.7860   22.4570 H   0  0  0  0  0  0  0  0  0  0  0  0
  -17.3460  -24.9180   22.9830 C   0  0  0  0  0  2  0  0  0  0  0  0
  -14.9420  -24.1150   23.8090 C   0  0  0  0  0  1  0  0  0  0  0  0
  -15.2370  -24.6080   21.2980 C   0  0  0  0  0  1  0  0  0  0  0  0
  -15.9460  -24.2570   22.6250 C   0  0  0  0  0  3  0  0  0  0  0  0
  2  5  1  0
  3  6  1  0
  3  2  1  0
  6  4  1  0
  7  1  2  0
  6  8  1  6
 10 17  1  0
 11 16  1  0
 12 11  1  0
 13 12  1  0
 14 13  1  0
 14 15  1  0
 16 15  1  0
 16 10  1  0
 18 19  1  0
 20 21  2  0
 20 23  1  0
 21 22  1  0
 22 25  1  0
 22 24  2  0
 23 14  1  0
 23 24  1  0
 25 26  1  0
 26 27  2  0
 28 27  1  0
 29 28  2  0
 30 29  1  0
 30 25  2  0
 31 28  1  0
 31 32  1  0
 32 37  2  0
 32 33  1  0
 33 34  2  0
 34 35  1  0
 35 39  1  0
 36 35  2  0
 37 36  1  0
 38 37  1  0
 40 21  1  0
 40 41  1  0
 41 43  1  0
 42 40  2  0
 44 41  1  0
 45 20  1  0
 46 45  1  0
 47 45  1  0
 48 49  1  0
 48  6  1  0
 50 49  1  0
 51 53  2  0
 51 52  1  0
 52 50  1  0
 54 52  1  0
 55 51  1  0
 56 55  1  0
 57 68  2  0
 57 67  1  0
 58 56  1  0
 58 64  1  0
 59 66  1  0
 59 69  1  0
 60 66  1  0
 60 65  1  0
 61 67  1  0
 61 62  1  0
 62 60  2  0
 63 62  1  0
 63 58  2  0
 64 65  2  0
 67 59  1  0
 69 70  1  0
 70 72  1  0
 71 69  2  0
 73 77  1  0
 73 82  1  0
 74 70  1  0
 74 75  1  0
 74 78  1  0
 75 76  1  0
 76 77  1  0
 78 73  2  0
 79 78  1  0
 79 80  2  0
 80 81  1  0
 81 82  2  0
 83 84  1  0
 83 57  1  0
 84 85  1  1
 84 86  1  0
 87 84  1  0
 88 91  1  0
 88 83  1  0
 89 88  1  0
 90 89  2  0
 93 92  1  0
 93 89  1  0
 94 95  1  0
 95 93  1  0
 96 95  1  0
 97102  1  0
 98101  1  0
 98 99  1  0
100 98  1  0
104105  1  0
105102  1  0
105103  1  0
M  ISO  4  10 100  18 100  55 101  56 101
M  END
>  <TORSDO>  (45) 
F 26

>  <SCORE>  (45) 
-3.358

>  <name>  (45) 
44

>  <ligand_id>  (45) 
44

>  <original_smiles>  (45) 
[H]c1c([H])c([H])c2c(c1[H])C([H])([H])C([H])([H])C([H])([H])C2([H])N([H])C(=O)C1([H])N(C(=O)C([H])(N([H])C(=O)C([H])(N([H])C([H])([H])[H])C([H])([H])[H])C(C([H])([H])[H])(C([H])([H])[H])C([H])([H])[H])C([H])([H])c2c([H])c(OC([H])([H])C(=O)N([H])C([H])([H])C([H])([H])C([H])([H])[N+]3([H])C([H])([H])C([H])([H])N(C(=O)C([H])(C([H])([H])C([H])(C([H])([H])[H])C([H])([H])[H])[N+]([H])([H])[H])C3([H])C([H])([H])N([H])C(=O)N3C([H])([H])C([H])([H])C([H])([H])C([H])(n4nc(-c5c([H])c([H])c(Oc6c([H])c([H])c(F)c([H])c6F)c([H])c5[H])c(C(=O)N([H])[H])c4N([H])[H])C3([H])[H])c([H])c([H])c2C1([H])[H]

>  <smiles>  (45) 
[H]c1c([H])c([H])c2c(c1[H])C([H])([H])C([H])([H])C([H])([H])C2([H])N([H])C(=O)C1([H])N(C(=O)C([H])(N([H])C(=O)C([H])(N([H])C([H])([H])[H])C([H])([H])[H])C(C([H])([H])[H])(C([H])([H])[H])C([H])([H])[H])C([H])([H])c2c([H])c(OC([H])([H])C(=O)N([H])C([H])([H])C([H])([H])C([H])([H])[N+]3([H])C([H])([H])C([H])([H])N(C(=O)C([H])(C([H])([H])C([H])(C([H])([H])[H])C([H])([H])[H])[N+]([H])([H])[H])C3([H])C([H])([H])N([H])C(=O)N3C([H])([H])C([H])([H])C([H])([H])C([H])(n4nc(-c5c([H])c([H])c(Oc6c([H])c([H])c(F)c([H])c6F)c([H])c5[H])c(C(=O)N([H])[H])c4N([H])[H])C3([H])[H])c([H])c([H])c2C1([H])[H]

$$$$
45:0:0
     RDKit          3D

 93101  0  0  1  0  0  0  0  0999 V2000
  -26.9080  -21.3480   21.8900 C   0  0  0  0  0  1  0  0  0  0  0  0
  -27.9510  -21.9880   21.0450 N   0  0  1  0  0  4  0  0  0  0  0  0
  -28.7390  -22.1440   21.6550 H   0  0  0  0  0  0  0  0  0  0  0  0
  -28.4680  -21.0920   19.9690 C   0  0  0  0  0  2  0  0  0  0  0  0
  -27.9910  -18.6460   19.5290 C   0  0  0  0  0  3  0  0  0  0  0  0
  -29.8970  -19.1680   20.9460 C   0  0  0  0  0  3  0  0  0  0  0  0
  -28.4670  -17.3340   19.3760 C   0  0  0  0  0  3  0  0  0  0  0  0
  -30.3700  -17.8380   20.8020 C   0  0  0  0  0  3  0  0  0  0  0  0
  -28.7460  -19.6010   20.2430 C   0  0  0  0  0  0  0  0  0  0  0  0
  -29.6870  -16.9240   19.9520 C   0  0  0  0  0  0  0  0  0  0  0  0
  -31.0270  -14.7870   19.9700 C   0  0  0  0  0  0  0  0  0  0  0  0
  -30.7240  -12.5660   18.9790 C   0  0  0  0  0  2  0  0  0  0  0  0
  -29.7750  -12.7640   17.7860 C   0  0  0  0  0  2  0  0  0  0  0  0
  -28.3070  -12.6640   18.2500 C   0  0  0  0  0  2  0  0  0  0  0  0
  -27.9890  -13.5230   19.5010 C   0  0  0  0  0  3  0  0  0  0  0  0
  -29.0630  -13.3380   20.5870 C   0  0  0  0  0  2  0  0  0  0  0  0
  -30.3720  -13.5920   19.9670 N   0  0  0  0  0  0  0  0  0  0  0  0
  -32.2410  -14.8870   19.8050 O   0  0  0  0  0  0  0  0  0  0  0  0
  -30.3010  -15.7600   19.3930 N   0  0  0  0  0  0  0  0  0  0  0  0
  -30.8420  -16.0470   18.5850 H   0  0  0  0  0  0  0  0  0  0  0  0
  -25.6140  -14.1590   20.2810 C   0  0  0  0  0  0  0  0  0  0  0  0
  -24.5460  -13.3940   20.6580 C   0  0  0  0  0  0  0  0  0  0  0  0
  -24.9940  -12.0360   20.6070 C   0  0  0  0  0  0  0  0  0  0  0  0
  -26.6440  -13.2640   20.0160 N   0  0  0  0  0  0  0  0  0  0  0  0
  -26.2770  -11.9820   20.2700 N   0  0  0  0  0  0  0  0  0  0  0  0
  -24.2570  -10.7820   20.8070 C   0  0  0  0  0  0  0  0  0  0  0  0
  -24.6230   -9.8680   21.8190 C   0  0  0  0  0  3  0  0  0  0  0  0
  -23.8940   -8.6740   21.9990 C   0  0  0  0  0  3  0  0  0  0  0  0
  -22.7840   -8.3870   21.1700 C   0  0  0  0  0  0  0  0  0  0  0  0
  -22.4400   -9.2900   20.1490 C   0  0  0  0  0  3  0  0  0  0  0  0
  -23.1680  -10.4770   19.9660 C   0  0  0  0  0  3  0  0  0  0  0  0
  -22.0250   -7.2450   21.2610 O   0  0  0  0  0  0  0  0  0  0  0  0
  -21.7930   -6.6270   22.4640 C   0  0  0  0  0  0  0  0  0  0  0  0
  -21.1410   -7.2880   23.5280 C   0  0  0  0  0  3  0  0  0  0  0  0
  -20.8610   -6.5930   24.7210 C   0  0  0  0  0  3  0  0  0  0  0  0
  -21.2220   -5.2390   24.8520 C   0  0  0  0  0  0  0  0  0  0  0  0
  -21.8660   -4.5780   23.7920 C   0  0  0  0  0  3  0  0  0  0  0  0
  -22.1500   -5.2690   22.6010 C   0  0  0  0  0  0  0  0  0  0  0  0
  -22.7510   -4.6220   21.5750 F   0  0  0  0  0  0  0  0  0  0  0  0
  -20.9470   -4.5680   25.9960 F   0  0  0  0  0  0  0  0  0  0  0  0
  -23.1610  -13.8830   20.9640 C   0  0  0  0  0  0  0  0  0  0  0  0
  -22.4470  -13.1870   21.8410 N   0  0  0  0  0  0  0  0  0  0  0  0
  -22.7210  -14.9170   20.4630 O   0  0  0  0  0  0  0  0  0  0  0  0
  -22.8110  -12.3460   22.2610 H   0  0  0  0  0  0  0  0  0  0  0  0
  -21.5220  -13.5030   22.0950 H   0  0  0  0  0  0  0  0  0  0  0  0
  -25.7930  -15.5310   20.1270 N   0  0  0  0  0  0  0  0  0  0  0  0
  -25.0710  -16.2160   20.3160 H   0  0  0  0  0  0  0  0  0  0  0  0
  -26.6940  -15.9540   19.9450 H   0  0  0  0  0  0  0  0  0  0  0  0
  -27.5090  -23.3240   20.4820 C   0  0  0  0  0  2  0  0  0  0  0  0
  -28.2870  -24.6000   20.9650 C   0  0  0  0  0  3  0  0  0  0  0  0
  -27.4920  -25.2580   21.8140 F   0  0  0  0  0  0  0  0  0  0  0  0
  -28.7310  -25.5800   19.8170 C   0  0  0  0  0  2  0  0  0  0  0  0
  -28.7640  -27.0040   20.1110 O   0  0  0  0  0  0  0  0  0  0  0  0
  -24.7400  -31.9000   23.3490 C   0  0  0  0  0  0  0  0  0  0  0  0
  -27.5830  -27.7340   20.0640 C   0  0  0  0  0  0  0  0  0  0  0  0
  -23.6110  -30.5710   21.5900 C   0  0  0  0  0  3  0  0  0  0  0  0
  -25.1450  -29.1840   20.1000 C   0  0  0  0  0  0  0  0  0  0  0  0
  -26.1280  -31.0300   21.4650 C   0  0  0  0  0  2  0  0  0  0  0  0
  -26.2740  -29.7020   20.7450 C   0  0  0  0  0  0  0  0  0  0  0  0
  -27.4970  -28.9860   20.7190 C   0  0  0  0  0  3  0  0  0  0  0  0
  -26.4270  -27.2480   19.4010 C   0  0  0  0  0  3  0  0  0  0  0  0
  -25.2210  -27.9610   19.4200 C   0  0  0  0  0  3  0  0  0  0  0  0
  -23.8730  -30.0000   20.1720 C   0  0  0  0  0  2  0  0  0  0  0  0
  -24.8420  -31.1830   22.1960 N   0  0  0  0  0  0  0  0  0  0  0  0
  -23.6430  -32.0970   23.8870 O   0  0  0  0  0  0  0  0  0  0  0  0
  -22.9900  -29.4620   22.4610 C   0  0  0  0  0  0  0  0  0  0  0  0
  -21.6770  -29.2350   22.2890 N   0  0  0  0  0  0  0  0  0  0  0  0
  -23.6830  -28.8190   23.2560 O   0  0  0  0  0  0  0  0  0  0  0  0
  -21.1940  -29.8060   21.6100 H   0  0  0  0  0  0  0  0  0  0  0  0
  -18.3380  -27.8950   22.5830 C   0  0  0  0  0  0  0  0  0  0  0  0
  -20.8740  -28.2190   22.9730 C   0  0  0  0  0  3  0  0  0  0  0  0
  -21.0450  -26.8280   22.3140 C   0  0  0  0  0  2  0  0  0  0  0  0
  -20.0030  -26.5460   21.2300 C   0  0  0  0  0  2  0  0  0  0  0  0
  -18.5900  -26.6050   21.8200 C   0  0  0  0  0  2  0  0  0  0  0  0
  -19.4150  -28.6650   23.1010 C   0  0  0  0  0  0  0  0  0  0  0  0
  -19.1270  -29.8810   23.7600 C   0  0  0  0  0  3  0  0  0  0  0  0
  -17.8020  -30.3270   23.9070 C   0  0  0  0  0  3  0  0  0  0  0  0
  -16.7370  -29.5500   23.4150 C   0  0  0  0  0  3  0  0  0  0  0  0
  -17.0040  -28.3320   22.7620 C   0  0  0  0  0  3  0  0  0  0  0  0
  -25.9970  -32.5230   24.0360 C   0  0  0  0  0  3  0  0  0  0  0  0
  -25.6600  -33.9040   24.3920 N   0  0  0  0  0  0  0  0  0  0  0  0
  -26.0130  -34.9790   23.6760 C   0  0  0  0  0  0  0  0  0  0  0  0
  -26.7320  -34.9160   22.6730 O   0  0  0  0  0  0  0  0  0  0  0  0
  -25.0240  -34.0240   25.1640 H   0  0  0  0  0  0  0  0  0  0  0  0
  -24.2870  -36.7710   23.2900 C   0  0  0  0  0  1  0  0  0  0  0  0
  -25.4870  -36.3460   24.1500 C   0  0  0  0  0  3  0  0  0  0  0  0
  -27.5560  -37.2360   25.1310 C   0  0  0  0  0  1  0  0  0  0  0  0
  -26.5120  -37.4130   24.1250 N   0  0  0  0  0  0  0  0  0  0  0  0
  -26.0840  -38.3220   24.2660 H   0  0  0  0  0  0  0  0  0  0  0  0
  -26.4710  -31.7130   25.3020 C   0  0  1  0  0  0  0  0  0  0  0  0
  -25.3450  -31.4250   26.3190 C   0  0  0  0  0  1  0  0  0  0  0  0
  -27.0970  -30.3620   24.8840 C   0  0  0  0  0  1  0  0  0  0  0  0
  -27.5770  -32.5030   26.0440 C   0  0  0  0  0  1  0  0  0  0  0  0
  2  3  1  1
  2  1  1  0
  4  9  1  0
  4  2  1  0
  5  9  1  0
  7  5  2  0
  7 10  1  0
  8  6  1  0
  9  6  2  0
 10  8  2  0
 12 17  1  0
 13 14  1  0
 13 12  1  0
 15 14  1  0
 15 24  1  0
 15 16  1  0
 17 11  1  0
 17 16  1  0
 18 11  2  0
 19 10  1  0
 19 11  1  0
 20 19  1  0
 21 22  2  0
 22 41  1  0
 23 22  1  0
 23 26  1  0
 24 25  1  0
 24 21  1  0
 25 23  2  0
 26 27  1  0
 27 28  2  0
 29 32  1  0
 29 28  1  0
 30 29  2  0
 31 30  1  0
 31 26  2  0
 32 33  1  0
 33 38  2  0
 33 34  1  0
 34 35  2  0
 35 36  1  0
 36 40  1  0
 37 36  2  0
 38 37  1  0
 39 38  1  0
 41 42  1  0
 42 45  1  0
 42 44  1  0
 43 41  2  0
 46 21  1  0
 46 47  1  0
 48 46  1  0
 49 50  1  0
 49  2  1  0
 50 51  1  0
 52 53  1  0
 52 50  1  0
 54 65  2  0
 55 53  1  0
 55 60  1  0
 56 64  1  0
 56 66  1  0
 57 63  1  0
 57 59  1  0
 58 64  1  0
 59 58  1  0
 60 59  2  0
 61 62  1  0
 61 55  2  0
 62 57  2  0
 63 56  1  0
 64 54  1  0
 66 68  2  0
 67 66  1  0
 69 67  1  0
 70 79  2  0
 70 75  1  0
 71 67  1  0
 71 75  1  0
 72 71  1  0
 73 74  1  0
 73 72  1  0
 74 70  1  0
 75 76  2  0
 76 77  1  0
 78 77  2  0
 79 78  1  0
 80 54  1  0
 80 81  1  0
 80 90  1  0
 81 84  1  0
 82 86  1  0
 82 81  1  0
 83 82  2  0
 86 85  1  0
 88 86  1  0
 88 89  1  0
 88 87  1  0
 90 93  1  1
 90 91  1  0
 92 90  1  0
M  ISO  4  11 100  19 100  52 101  53 101
M  END
>  <TORSDO>  (46) 
F 21

>  <SCORE>  (46) 
-10.713

>  <name>  (46) 
45

>  <ligand_id>  (46) 
45

>  <original_smiles>  (46) 
[H]c1c([H])c([H])c2c(c1[H])C([H])([H])C([H])([H])C([H])([H])C2([H])N([H])C(=O)C1([H])N(C(=O)C([H])(N([H])C(=O)C([H])(N([H])C([H])([H])[H])C([H])([H])[H])C(C([H])([H])[H])(C([H])([H])[H])C([H])([H])[H])C([H])([H])c2c([H])c(OC([H])([H])C([H])(F)C([H])([H])[N+]([H])(C([H])([H])[H])C([H])([H])c3c([H])c([H])c(N([H])C(=O)N4C([H])([H])C([H])([H])C([H])([H])C([H])(n5nc(-c6c([H])c([H])c(Oc7c([H])c([H])c(F)c([H])c7F)c([H])c6[H])c(C(=O)N([H])[H])c5N([H])[H])C4([H])[H])c([H])c3[H])c([H])c([H])c2C1([H])[H]

>  <smiles>  (46) 
[H]c1c([H])c([H])c2c(c1[H])C([H])([H])C([H])([H])C([H])([H])C2([H])N([H])C(=O)C1([H])N(C(=O)C([H])(N([H])C(=O)C([H])(N([H])C([H])([H])[H])C([H])([H])[H])C(C([H])([H])[H])(C([H])([H])[H])C([H])([H])[H])C([H])([H])c2c([H])c(OC([H])([H])C([H])(F)C([H])([H])[N+]([H])(C([H])([H])[H])C([H])([H])c3c([H])c([H])c(N([H])C(=O)N4C([H])([H])C([H])([H])C([H])([H])C([H])(n5nc(-c6c([H])c([H])c(Oc7c([H])c([H])c(F)c([H])c7F)c([H])c6[H])c(C(=O)N([H])[H])c5N([H])[H])C4([H])[H])c([H])c3[H])c([H])c([H])c2C1([H])[H]

$$$$
46:0:0
     RDKit          3D

 96104  0  0  1  0  0  0  0  0999 V2000
  -29.0320  -23.9580   19.6850 C   0  0  1  0  0  0  0  0  0  0  0  0
  -28.4700  -23.9290   18.4720 F   0  0  0  0  0  0  0  0  0  0  0  0
  -30.5140  -24.3560   19.5040 C   0  0  0  0  0  2  0  0  0  0  0  0
  -30.6700  -25.5220   18.6140 N   0  0  0  0  0  4  0  0  0  0  0  0
  -30.1720  -25.3460   17.7600 H   0  0  0  0  0  0  0  0  0  0  0  0
  -31.6380  -25.6790   18.4020 H   0  0  0  0  0  0  0  0  0  0  0  0
  -30.2870  -26.3460   19.0460 H   0  0  0  0  0  0  0  0  0  0  0  0
  -28.2430  -25.0750   20.5170 C   0  0  0  0  0  2  0  0  0  0  0  0
  -28.4130  -26.5100   20.1650 O   0  0  0  0  0  0  0  0  0  0  0  0
  -24.6380  -31.8770   23.2000 C   0  0  0  0  0  0  0  0  0  0  0  0
  -27.2820  -27.3360   20.1560 C   0  0  0  0  0  0  0  0  0  0  0  0
  -23.4450  -30.4740   21.5530 C   0  0  0  0  0  3  0  0  0  0  0  0
  -24.9070  -28.9260   20.1360 C   0  0  0  0  0  0  0  0  0  0  0  0
  -25.9820  -30.8060   21.3790 C   0  0  0  0  0  2  0  0  0  0  0  0
  -26.0710  -29.4270   20.7370 C   0  0  0  0  0  0  0  0  0  0  0  0
  -27.2630  -28.6440   20.7320 C   0  0  0  0  0  3  0  0  0  0  0  0
  -26.0990  -26.8860   19.5320 C   0  0  0  0  0  3  0  0  0  0  0  0
  -24.9230  -27.6610   19.5260 C   0  0  0  0  0  3  0  0  0  0  0  0
  -23.6670  -29.7950   20.1750 C   0  0  0  0  0  2  0  0  0  0  0  0
  -24.7070  -31.0700   22.1010 N   0  0  0  0  0  0  0  0  0  0  0  0
  -23.5510  -32.1500   23.7300 O   0  0  0  0  0  0  0  0  0  0  0  0
  -22.7800  -29.4560   22.5100 C   0  0  0  0  0  0  0  0  0  0  0  0
  -21.4540  -29.2840   22.3830 N   0  0  0  0  0  0  0  0  0  0  0  0
  -23.4560  -28.8250   23.3260 O   0  0  0  0  0  0  0  0  0  0  0  0
  -20.9650  -29.8460   21.6990 H   0  0  0  0  0  0  0  0  0  0  0  0
  -18.0710  -28.0970   22.8730 C   0  0  0  0  0  0  0  0  0  0  0  0
  -20.6300  -28.3480   23.1510 C   0  0  0  0  0  3  0  0  0  0  0  0
  -20.7300  -26.9180   22.5750 C   0  0  0  0  0  2  0  0  0  0  0  0
  -19.6290  -26.5980   21.5570 C   0  0  0  0  0  2  0  0  0  0  0  0
  -18.2470  -26.7470   22.1980 C   0  0  0  0  0  2  0  0  0  0  0  0
  -19.1910  -28.8550   23.3070 C   0  0  0  0  0  0  0  0  0  0  0  0
  -18.9730  -30.1180   23.9000 C   0  0  0  0  0  3  0  0  0  0  0  0
  -17.6690  -30.6220   24.0630 C   0  0  0  0  0  3  0  0  0  0  0  0
  -16.5650  -29.8590   23.6470 C   0  0  0  0  0  3  0  0  0  0  0  0
  -16.7660  -28.5980   23.0580 C   0  0  0  0  0  3  0  0  0  0  0  0
  -25.9160  -32.5120   23.8280 C   0  0  0  0  0  3  0  0  0  0  0  0
  -25.5990  -33.9070   24.1660 N   0  0  0  0  0  0  0  0  0  0  0  0
  -25.9280  -34.9670   23.4140 C   0  0  0  0  0  0  0  0  0  0  0  0
  -26.5970  -34.8710   22.3810 O   0  0  0  0  0  0  0  0  0  0  0  0
  -25.0070  -34.0560   24.9690 H   0  0  0  0  0  0  0  0  0  0  0  0
  -24.1930  -36.7550   23.0680 C   0  0  0  0  0  1  0  0  0  0  0  0
  -25.4350  -36.3510   23.8780 C   0  0  0  0  0  3  0  0  0  0  0  0
  -27.5630  -37.2420   24.7150 C   0  0  0  0  0  1  0  0  0  0  0  0
  -26.4630  -37.4080   23.7710 N   0  0  0  0  0  0  0  0  0  0  0  0
  -26.0540  -38.3270   23.9200 H   0  0  0  0  0  0  0  0  0  0  0  0
  -26.4340  -31.7360   25.1010 C   0  0  1  0  0  0  0  0  0  0  0  0
  -25.3410  -31.4870   26.1660 C   0  0  0  0  0  1  0  0  0  0  0  0
  -27.0230  -30.3620   24.7030 C   0  0  0  0  0  1  0  0  0  0  0  0
  -27.5800  -32.5320   25.7690 C   0  0  0  0  0  1  0  0  0  0  0  0
  -28.9410  -22.4530   20.2490 C   0  0  0  0  0  2  0  0  0  0  0  0
  -29.5920  -21.4270   19.4190 O   0  0  0  0  0  0  0  0  0  0  0  0
  -29.2940  -18.0400   21.1600 C   0  0  0  0  0  3  0  0  0  0  0  0
  -29.1860  -19.4480   20.9410 C   0  0  0  0  0  3  0  0  0  0  0  0
  -30.2430  -19.1600   18.8070 C   0  0  0  0  0  3  0  0  0  0  0  0
  -29.8840  -17.1470   20.2190 C   0  0  0  0  0  0  0  0  0  0  0  0
  -29.6590  -20.0540   19.7470 C   0  0  0  0  0  0  0  0  0  0  0  0
  -30.3500  -17.7510   19.0190 C   0  0  0  0  0  0  0  0  0  0  0  0
  -30.8520  -16.9870   18.0200 F   0  0  0  0  0  0  0  0  0  0  0  0
  -30.6230  -14.6610   20.0000 C   0  0  0  0  0  0  0  0  0  0  0  0
  -30.3390  -12.4390   18.9210 C   0  0  0  0  0  2  0  0  0  0  0  0
  -29.3230  -12.6070   17.7700 C   0  0  0  0  0  2  0  0  0  0  0  0
  -27.8780  -12.4450   18.2850 C   0  0  0  0  0  2  0  0  0  0  0  0
  -27.6040  -13.2800   19.5640 C   0  0  0  0  0  3  0  0  0  0  0  0
  -28.7290  -13.0930   20.6070 C   0  0  0  0  0  2  0  0  0  0  0  0
  -30.0030  -13.4370   19.9580 N   0  0  0  0  0  0  0  0  0  0  0  0
  -31.7570  -14.8150   19.5390 O   0  0  0  0  0  0  0  0  0  0  0  0
  -29.8680  -15.7010   20.4800 N   0  0  0  0  0  0  0  0  0  0  0  0
  -29.0700  -15.3890   21.0090 H   0  0  0  0  0  0  0  0  0  0  0  0
  -25.2660  -13.8820   20.4440 C   0  0  0  0  0  0  0  0  0  0  0  0
  -24.2170  -13.1080   20.8600 C   0  0  0  0  0  0  0  0  0  0  0  0
  -24.6620  -11.7540   20.7660 C   0  0  0  0  0  0  0  0  0  0  0  0
  -26.2850  -12.9990   20.1250 N   0  0  0  0  0  0  0  0  0  0  0  0
  -25.9310  -11.7120   20.3790 N   0  0  0  0  0  0  0  0  0  0  0  0
  -23.9380  -10.4920   20.9690 C   0  0  0  0  0  0  0  0  0  0  0  0
  -24.3930   -9.5150   21.8820 C   0  0  0  0  0  3  0  0  0  0  0  0
  -23.6670   -8.3190   22.0720 C   0  0  0  0  0  3  0  0  0  0  0  0
  -22.4720   -8.0920   21.3510 C   0  0  0  0  0  0  0  0  0  0  0  0
  -22.0350   -9.0560   20.4270 C   0  0  0  0  0  3  0  0  0  0  0  0
  -22.7610  -10.2440   20.2340 C   0  0  0  0  0  3  0  0  0  0  0  0
  -21.7160   -6.9480   21.4520 O   0  0  0  0  0  0  0  0  0  0  0  0
  -21.6670   -6.2170   22.6130 C   0  0  0  0  0  0  0  0  0  0  0  0
  -21.2370   -6.7840   23.8320 C   0  0  0  0  0  3  0  0  0  0  0  0
  -21.1380   -5.9790   24.9860 C   0  0  0  0  0  3  0  0  0  0  0  0
  -21.4560   -4.6100   24.9190 C   0  0  0  0  0  0  0  0  0  0  0  0
  -21.8790   -4.0440   23.7030 C   0  0  0  0  0  3  0  0  0  0  0  0
  -21.9820   -4.8450   22.5530 C   0  0  0  0  0  0  0  0  0  0  0  0
  -22.3690   -4.2890   21.3790 F   0  0  0  0  0  0  0  0  0  0  0  0
  -21.3540   -3.8360   26.0240 F   0  0  0  0  0  0  0  0  0  0  0  0
  -22.8440  -13.5890   21.2330 C   0  0  0  0  0  0  0  0  0  0  0  0
  -22.1630  -12.8750   22.1230 N   0  0  0  0  0  0  0  0  0  0  0  0
  -22.3830  -14.6310   20.7670 O   0  0  0  0  0  0  0  0  0  0  0  0
  -22.5500  -12.0320   22.5210 H   0  0  0  0  0  0  0  0  0  0  0  0
  -21.2450  -13.1770   22.4150 H   0  0  0  0  0  0  0  0  0  0  0  0
  -25.4350  -15.2550   20.2900 N   0  0  0  0  0  0  0  0  0  0  0  0
  -24.6860  -15.9190   20.4610 H   0  0  0  0  0  0  0  0  0  0  0  0
  -26.2690  -15.6900   19.9130 H   0  0  0  0  0  0  0  0  0  0  0  0
  1  2  1  6
  1 50  1  0
  1  8  1  0
  3  1  1  0
  4  7  1  0
  4  3  1  0
  5  4  1  0
  6  4  1  0
  9  8  1  0
 10 21  2  0
 11  9  1  0
 11 16  1  0
 12 20  1  0
 12 22  1  0
 13 19  1  0
 13 15  1  0
 14 20  1  0
 15 14  1  0
 16 15  2  0
 17 11  2  0
 18 17  1  0
 18 13  2  0
 19 12  1  0
 20 10  1  0
 22 24  2  0
 23 22  1  0
 25 23  1  0
 26 35  2  0
 26 31  1  0
 27 23  1  0
 27 31  1  0
 28 27  1  0
 29 30  1  0
 29 28  1  0
 30 26  1  0
 31 32  2  0
 32 33  1  0
 34 33  2  0
 35 34  1  0
 36 10  1  0
 36 37  1  0
 36 46  1  0
 37 40  1  0
 38 42  1  0
 38 37  1  0
 39 38  2  0
 42 41  1  0
 44 42  1  0
 44 45  1  0
 44 43  1  0
 46 49  1  1
 46 47  1  0
 48 46  1  0
 51 56  1  0
 51 50  1  0
 53 52  1  0
 54 57  2  0
 54 56  1  0
 55 67  1  0
 55 52  2  0
 56 53  2  0
 57 55  1  0
 58 57  1  0
 59 67  1  0
 60 65  1  0
 61 62  1  0
 61 60  1  0
 63 62  1  0
 63 72  1  0
 63 64  1  0
 65 59  1  0
 65 64  1  0
 66 59  2  0
 67 68  1  0
 69 70  2  0
 70 89  1  0
 71 70  1  0
 71 74  1  0
 72 73  1  0
 72 69  1  0
 73 71  2  0
 74 75  1  0
 75 76  2  0
 77 80  1  0
 77 76  1  0
 78 77  2  0
 79 78  1  0
 79 74  2  0
 80 81  1  0
 81 82  1  0
 82 83  2  0
 84 83  1  0
 84 88  1  0
 85 84  2  0
 86 81  2  0
 86 85  1  0
 87 86  1  0
 89 90  1  0
 90 93  1  0
 90 92  1  0
 91 89  2  0
 94 69  1  0
 94 95  1  0
 96 94  1  0
M  ISO  4   8 101   9 101  59 100  67 100
M  END
>  <TORSDO>  (47) 
F 22

>  <SCORE>  (47) 
-12.993

>  <name>  (47) 
46

>  <ligand_id>  (47) 
46

>  <original_smiles>  (47) 
[H]c1c([H])c([H])c2c(c1[H])C([H])([H])C([H])([H])C([H])([H])C2([H])N([H])C(=O)C1([H])N(C(=O)C([H])(N([H])C(=O)C([H])(N([H])C([H])([H])[H])C([H])([H])[H])C(C([H])([H])[H])(C([H])([H])[H])C([H])([H])[H])C([H])([H])c2c([H])c(OC([H])([H])C(F)(C([H])([H])Oc3c([H])c([H])c(N([H])C(=O)N4C([H])([H])C([H])([H])C([H])([H])C([H])(n5nc(-c6c([H])c([H])c(Oc7c([H])c([H])c(F)c([H])c7F)c([H])c6[H])c(C(=O)N([H])[H])c5N([H])[H])C4([H])[H])c(F)c3[H])C([H])([H])[N+]([H])([H])[H])c([H])c([H])c2C1([H])[H]

>  <smiles>  (47) 
[H]c1c([H])c([H])c2c(c1[H])C([H])([H])C([H])([H])C([H])([H])C2([H])N([H])C(=O)C1([H])N(C(=O)C([H])(N([H])C(=O)C([H])(N([H])C([H])([H])[H])C([H])([H])[H])C(C([H])([H])[H])(C([H])([H])[H])C([H])([H])[H])C([H])([H])c2c([H])c(OC([H])([H])C(F)(C([H])([H])Oc3c([H])c([H])c(N([H])C(=O)N4C([H])([H])C([H])([H])C([H])([H])C([H])(n5nc(-c6c([H])c([H])c(Oc7c([H])c([H])c(F)c([H])c7F)c([H])c6[H])c(C(=O)N([H])[H])c5N([H])[H])C4([H])[H])c(F)c3[H])C([H])([H])[N+]([H])([H])[H])c([H])c([H])c2C1([H])[H]

$$$$
47:0:0
     RDKit          3D

 91 99  0  0  1  0  0  0  0  0999 V2000
  -29.2610  -24.0590   20.3970 C   0  0  0  0  0  0  0  0  0  0  0  0
  -29.0930  -22.7010   20.5350 N   0  0  0  0  0  0  0  0  0  0  0  0
  -30.3830  -24.5330   20.1950 O   0  0  0  0  0  0  0  0  0  0  0  0
  -28.1590  -22.3530   20.7130 H   0  0  0  0  0  0  0  0  0  0  0  0
  -30.2090  -21.6960   20.5130 C   0  0  0  0  0  2  0  0  0  0  0  0
  -28.7970  -19.4360   20.7510 C   0  0  0  0  0  3  0  0  0  0  0  0
  -31.1520  -19.3080   20.3020 C   0  0  0  0  0  3  0  0  0  0  0  0
  -28.7470  -18.0040   20.7720 C   0  0  0  0  0  3  0  0  0  0  0  0
  -31.1030  -17.8840   20.3160 C   0  0  0  0  0  3  0  0  0  0  0  0
  -30.0100  -20.1310   20.5140 C   0  0  0  0  0  0  0  0  0  0  0  0
  -29.8960  -17.1830   20.5540 C   0  0  0  0  0  0  0  0  0  0  0  0
  -30.5790  -14.6800   20.2110 C   0  0  0  0  0  0  0  0  0  0  0  0
  -30.3560  -12.4550   19.1140 C   0  0  0  0  0  2  0  0  0  0  0  0
  -29.3830  -12.6090   17.9230 C   0  0  0  0  0  2  0  0  0  0  0  0
  -27.9210  -12.4310   18.3850 C   0  0  0  0  0  2  0  0  0  0  0  0
  -27.5940  -13.2660   19.6500 C   0  0  0  0  0  3  0  0  0  0  0  0
  -28.6790  -13.0920   20.7370 C   0  0  0  0  0  2  0  0  0  0  0  0
  -29.9710  -13.4530   20.1330 N   0  0  0  0  0  0  0  0  0  0  0  0
  -31.7290  -14.8450   19.7930 O   0  0  0  0  0  0  0  0  0  0  0  0
  -29.7690  -15.7200   20.6020 N   0  0  0  0  0  0  0  0  0  0  0  0
  -28.8570  -15.3950   20.8880 H   0  0  0  0  0  0  0  0  0  0  0  0
  -25.2220  -13.8580   20.4370 C   0  0  0  0  0  0  0  0  0  0  0  0
  -24.1650  -13.0810   20.8280 C   0  0  0  0  0  0  0  0  0  0  0  0
  -24.6250  -11.7290   20.7680 C   0  0  0  0  0  0  0  0  0  0  0  0
  -26.2580  -12.9790   20.1640 N   0  0  0  0  0  0  0  0  0  0  0  0
  -25.9060  -11.6930   20.4210 N   0  0  0  0  0  0  0  0  0  0  0  0
  -23.9040  -10.4650   20.9640 C   0  0  0  0  0  0  0  0  0  0  0  0
  -24.3390   -9.5040   21.9020 C   0  0  0  0  0  3  0  0  0  0  0  0
  -23.6190   -8.3050   22.0860 C   0  0  0  0  0  3  0  0  0  0  0  0
  -22.4490   -8.0580   21.3290 C   0  0  0  0  0  0  0  0  0  0  0  0
  -22.0310   -9.0090   20.3800 C   0  0  0  0  0  3  0  0  0  0  0  0
  -22.7530  -10.1990   20.1940 C   0  0  0  0  0  3  0  0  0  0  0  0
  -21.7000   -6.9100   21.4220 O   0  0  0  0  0  0  0  0  0  0  0  0
  -21.6190   -6.1940   22.5890 C   0  0  0  0  0  0  0  0  0  0  0  0
  -21.1600   -6.7760   23.7920 C   0  0  0  0  0  3  0  0  0  0  0  0
  -21.0280   -5.9840   24.9500 C   0  0  0  0  0  3  0  0  0  0  0  0
  -21.3450   -4.6140   24.9080 C   0  0  0  0  0  0  0  0  0  0  0  0
  -21.7990   -4.0320   23.7110 C   0  0  0  0  0  3  0  0  0  0  0  0
  -21.9320   -4.8190   22.5530 C   0  0  0  0  0  0  0  0  0  0  0  0
  -22.3470   -4.2480   21.3980 F   0  0  0  0  0  0  0  0  0  0  0  0
  -21.2110   -3.8530   26.0200 F   0  0  0  0  0  0  0  0  0  0  0  0
  -22.7750  -13.5560   21.1420 C   0  0  0  0  0  0  0  0  0  0  0  0
  -22.0720  -12.8500   22.0200 N   0  0  0  0  0  0  0  0  0  0  0  0
  -22.3200  -14.5860   20.6410 O   0  0  0  0  0  0  0  0  0  0  0  0
  -22.4520  -12.0190   22.4480 H   0  0  0  0  0  0  0  0  0  0  0  0
  -21.1400  -13.1460   22.2700 H   0  0  0  0  0  0  0  0  0  0  0  0
  -25.3820  -15.2310   20.2700 N   0  0  0  0  0  0  0  0  0  0  0  0
  -24.6130  -15.8810   20.3940 H   0  0  0  0  0  0  0  0  0  0  0  0
  -26.2080  -15.6720   19.8850 H   0  0  0  0  0  0  0  0  0  0  0  0
  -28.0390  -25.0490   20.5000 C   0  0  0  0  0  2  0  0  0  0  0  0
  -28.3210  -26.4850   20.2210 O   0  0  0  0  0  0  0  0  0  0  0  0
  -24.6200  -31.8920   23.2420 C   0  0  0  0  0  0  0  0  0  0  0  0
  -27.2110  -27.3440   20.1720 C   0  0  0  0  0  0  0  0  0  0  0  0
  -23.4070  -30.5010   21.6050 C   0  0  0  0  0  3  0  0  0  0  0  0
  -24.8480  -28.9580   20.1640 C   0  0  0  0  0  0  0  0  0  0  0  0
  -25.9450  -30.8190   21.4100 C   0  0  0  0  0  2  0  0  0  0  0  0
  -26.0190  -29.4420   20.7600 C   0  0  0  0  0  0  0  0  0  0  0  0
  -27.2050  -28.6480   20.7540 C   0  0  0  0  0  3  0  0  0  0  0  0
  -26.0220  -26.9210   19.5370 C   0  0  0  0  0  3  0  0  0  0  0  0
  -24.8520  -27.7020   19.5410 C   0  0  0  0  0  3  0  0  0  0  0  0
  -23.6120  -29.8320   20.2200 C   0  0  0  0  0  2  0  0  0  0  0  0
  -24.6760  -31.0890   22.1410 N   0  0  0  0  0  0  0  0  0  0  0  0
  -23.5410  -32.1680   23.7830 O   0  0  0  0  0  0  0  0  0  0  0  0
  -22.7490  -29.4790   22.5630 C   0  0  0  0  0  0  0  0  0  0  0  0
  -21.4240  -29.3010   22.4390 N   0  0  0  0  0  0  0  0  0  0  0  0
  -23.4310  -28.8530   23.3780 O   0  0  0  0  0  0  0  0  0  0  0  0
  -20.9320  -29.8570   21.7520 H   0  0  0  0  0  0  0  0  0  0  0  0
  -18.0480  -28.1040   22.9470 C   0  0  0  0  0  0  0  0  0  0  0  0
  -20.6070  -28.3630   23.2110 C   0  0  0  0  0  3  0  0  0  0  0  0
  -20.7080  -26.9310   22.6350 C   0  0  0  0  0  2  0  0  0  0  0  0
  -19.6030  -26.6100   21.6230 C   0  0  0  0  0  2  0  0  0  0  0  0
  -18.2230  -26.7550   22.2700 C   0  0  0  0  0  2  0  0  0  0  0  0
  -19.1670  -28.8660   23.3740 C   0  0  0  0  0  0  0  0  0  0  0  0
  -18.9490  -30.1290   23.9660 C   0  0  0  0  0  3  0  0  0  0  0  0
  -17.6450  -30.6300   24.1360 C   0  0  0  0  0  3  0  0  0  0  0  0
  -16.5400  -29.8640   23.7240 C   0  0  0  0  0  3  0  0  0  0  0  0
  -16.7430  -28.6020   23.1360 C   0  0  0  0  0  3  0  0  0  0  0  0
  -25.9070  -32.5210   23.8580 C   0  0  0  0  0  3  0  0  0  0  0  0
  -26.4370  -31.7370   25.1220 C   0  0  1  0  0  0  0  0  0  0  0  0
  -25.3540  -31.4870   26.1970 C   0  0  0  0  0  1  0  0  0  0  0  0
  -27.0170  -30.3630   24.7130 C   0  0  0  0  0  1  0  0  0  0  0  0
  -27.5930  -32.5250   25.7810 C   0  0  0  0  0  1  0  0  0  0  0  0
  -25.5970  -33.9150   24.2060 N   0  0  0  0  0  0  0  0  0  0  0  0
  -25.9010  -34.9750   23.4450 C   0  0  0  0  0  0  0  0  0  0  0  0
  -26.5410  -34.8820   22.3940 O   0  0  0  0  0  0  0  0  0  0  0  0
  -25.0270  -34.0600   25.0250 H   0  0  0  0  0  0  0  0  0  0  0  0
  -24.1400  -36.7500   23.1630 C   0  0  0  0  0  1  0  0  0  0  0  0
  -25.4170  -36.3580   23.9230 C   0  0  0  0  0  3  0  0  0  0  0  0
  -27.5740  -37.2640   24.6700 C   0  0  0  0  0  1  0  0  0  0  0  0
  -26.4330  -37.4220   23.7720 N   0  0  0  0  0  0  0  0  0  0  0  0
  -26.0230  -38.3370   23.9360 H   0  0  0  0  0  0  0  0  0  0  0  0
  1 50  1  0
  1  2  1  0
  2  4  1  0
  3  1  2  0
  5 10  1  0
  5  2  1  0
  6  8  1  0
  7  9  2  0
  7 10  1  0
  9 11  1  0
 10  6  2  0
 11 20  1  0
 11  8  2  0
 12 20  1  0
 13 18  1  0
 14 15  1  0
 14 13  1  0
 16 15  1  0
 16 25  1  0
 16 17  1  0
 18 12  1  0
 18 17  1  0
 19 12  2  0
 20 21  1  0
 22 23  2  0
 23 42  1  0
 24 23  1  0
 24 27  1  0
 25 26  1  0
 25 22  1  0
 26 24  2  0
 27 28  1  0
 28 29  2  0
 30 33  1  0
 30 29  1  0
 31 30  2  0
 32 31  1  0
 32 27  2  0
 33 34  1  0
 34 35  1  0
 35 36  2  0
 37 36  1  0
 37 41  1  0
 38 37  2  0
 39 34  2  0
 39 38  1  0
 40 39  1  0
 42 43  1  0
 43 46  1  0
 43 45  1  0
 44 42  2  0
 47 48  1  0
 47 22  1  0
 49 47  1  0
 51 50  1  0
 52 63  2  0
 53 51  1  0
 53 58  1  0
 54 62  1  0
 54 64  1  0
 55 61  1  0
 55 57  1  0
 56 62  1  0
 57 56  1  0
 58 57  2  0
 59 60  1  0
 59 53  2  0
 60 55  2  0
 61 54  1  0
 62 52  1  0
 64 66  2  0
 65 64  1  0
 67 65  1  0
 68 77  2  0
 68 73  1  0
 69 65  1  0
 69 73  1  0
 70 69  1  0
 71 72  1  0
 71 70  1  0
 72 68  1  0
 73 74  2  0
 74 75  1  0
 76 75  2  0
 77 76  1  0
 78 52  1  0
 78 83  1  0
 78 79  1  0
 79 82  1  1
 79 80  1  0
 81 79  1  0
 83 86  1  0
 84 88  1  0
 84 83  1  0
 85 84  2  0
 88 87  1  0
 90 88  1  0
 90 91  1  0
 90 89  1  0
M  ISO  4  12 100  20 100  50 101  51 101
M  END
>  <TORSDO>  (48) 
F 19

>  <SCORE>  (48) 
-14.083

>  <name>  (48) 
47

>  <ligand_id>  (48) 
47

>  <original_smiles>  (48) 
[H]c1c([H])c([H])c2c(c1[H])C([H])([H])C([H])([H])C([H])([H])C2([H])N([H])C(=O)C1([H])N(C(=O)C([H])(N([H])C(=O)C([H])(N([H])C([H])([H])[H])C([H])([H])[H])C(C([H])([H])[H])(C([H])([H])[H])C([H])([H])[H])C([H])([H])c2c([H])c(OC([H])([H])C(=O)N([H])C([H])([H])c3c([H])c([H])c(N([H])C(=O)N4C([H])([H])C([H])([H])C([H])([H])C([H])(n5nc(-c6c([H])c([H])c(Oc7c([H])c([H])c(F)c([H])c7F)c([H])c6[H])c(C(=O)N([H])[H])c5N([H])[H])C4([H])[H])c([H])c3[H])c([H])c([H])c2C1([H])[H]

>  <smiles>  (48) 
[H]c1c([H])c([H])c2c(c1[H])C([H])([H])C([H])([H])C([H])([H])C2([H])N([H])C(=O)C1([H])N(C(=O)C([H])(N([H])C(=O)C([H])(N([H])C([H])([H])[H])C([H])([H])[H])C(C([H])([H])[H])(C([H])([H])[H])C([H])([H])[H])C([H])([H])c2c([H])c(OC([H])([H])C(=O)N([H])C([H])([H])c3c([H])c([H])c(N([H])C(=O)N4C([H])([H])C([H])([H])C([H])([H])C([H])(n5nc(-c6c([H])c([H])c(Oc7c([H])c([H])c(F)c([H])c7F)c([H])c6[H])c(C(=O)N([H])[H])c5N([H])[H])C4([H])[H])c([H])c3[H])c([H])c([H])c2C1([H])[H]

$$$$
48:0:0
     RDKit          3D

 98107  0  0  1  0  0  0  0  0999 V2000
  -30.4510  -21.0210   20.3950 C   0  0  0  0  0  0  0  0  0  0  0  0
  -30.8690  -19.7540   20.1620 N   0  0  0  0  0  0  0  0  0  0  0  0
  -29.9780  -21.4080   21.4700 O   0  0  0  0  0  0  0  0  0  0  0  0
  -31.2660  -19.5980   19.2450 H   0  0  0  0  0  0  0  0  0  0  0  0
  -31.3900  -17.3800   20.5870 C   0  0  0  0  0  3  0  0  0  0  0  0
  -30.4850  -18.7310   22.4110 C   0  0  0  0  0  3  0  0  0  0  0  0
  -31.0770  -16.4070   22.8060 C   0  0  0  0  0  3  0  0  0  0  0  0
  -30.9140  -18.6360   21.0620 C   0  0  0  0  0  0  0  0  0  0  0  0
  -31.4700  -16.2610   21.4590 C   0  0  0  0  0  0  0  0  0  0  0  0
  -30.5770  -17.6300   23.2760 C   0  0  0  0  0  0  0  0  0  0  0  0
  -30.1840  -17.7490   24.5680 F   0  0  0  0  0  0  0  0  0  0  0  0
  -32.0980  -14.4690   19.8630 C   0  0  0  0  0  0  0  0  0  0  0  0
  -31.4700  -12.5270   18.4560 C   0  0  0  0  0  2  0  0  0  0  0  0
  -30.3730  -12.8930   17.4360 C   0  0  0  0  0  2  0  0  0  0  0  0
  -28.9690  -12.7870   18.0640 C   0  0  0  0  0  2  0  0  0  0  0  0
  -28.8760  -13.5250   19.4230 C   0  0  0  0  0  3  0  0  0  0  0  0
  -30.0420  -13.1020   20.3390 C   0  0  0  0  0  2  0  0  0  0  0  0
  -31.3190  -13.3760   19.6450 N   0  0  0  0  0  0  0  0  0  0  0  0
  -32.9700  -14.8620   19.0800 O   0  0  0  0  0  0  0  0  0  0  0  0
  -31.9590  -14.9720   21.0980 N   0  0  0  0  0  0  0  0  0  0  0  0
  -31.5920  -14.2540   21.7040 H   0  0  0  0  0  0  0  0  0  0  0  0
  -26.6760  -14.2290   20.5720 C   0  0  0  0  0  0  0  0  0  0  0  0
  -25.5980  -13.5020   21.0040 C   0  0  0  0  0  0  0  0  0  0  0  0
  -25.9050  -12.1350   20.7230 C   0  0  0  0  0  0  0  0  0  0  0  0
  -27.5800  -13.3040   20.0660 N   0  0  0  0  0  0  0  0  0  0  0  0
  -27.1240  -12.0340   20.2090 N   0  0  0  0  0  0  0  0  0  0  0  0
  -25.0880  -10.9240   20.8610 C   0  0  0  0  0  0  0  0  0  0  0  0
  -25.4080   -9.9220   21.8050 C   0  0  0  0  0  3  0  0  0  0  0  0
  -24.5970   -8.7730   21.9310 C   0  0  0  0  0  3  0  0  0  0  0  0
  -23.4540   -8.6190   21.1130 C   0  0  0  0  0  0  0  0  0  0  0  0
  -23.1530   -9.6080   20.1600 C   0  0  0  0  0  3  0  0  0  0  0  0
  -23.9630  -10.7480   20.0320 C   0  0  0  0  0  3  0  0  0  0  0  0
  -22.6230   -7.5240   21.1480 O   0  0  0  0  0  0  0  0  0  0  0  0
  -22.2390   -6.9490   22.3320 C   0  0  0  0  0  0  0  0  0  0  0  0
  -21.6400   -7.7020   23.3660 C   0  0  0  0  0  3  0  0  0  0  0  0
  -21.1960   -7.0590   24.5390 C   0  0  0  0  0  3  0  0  0  0  0  0
  -21.3400   -5.6650   24.6760 C   0  0  0  0  0  0  0  0  0  0  0  0
  -21.9310   -4.9130   23.6460 C   0  0  0  0  0  3  0  0  0  0  0  0
  -22.3770   -5.5540   22.4760 C   0  0  0  0  0  0  0  0  0  0  0  0
  -22.9250   -4.8220   21.4760 F   0  0  0  0  0  0  0  0  0  0  0  0
  -20.9070   -5.0460   25.7990 F   0  0  0  0  0  0  0  0  0  0  0  0
  -24.3130  -14.0480   21.5570 C   0  0  0  0  0  0  0  0  0  0  0  0
  -23.6480  -13.2920   22.4250 N   0  0  0  0  0  0  0  0  0  0  0  0
  -23.9130  -15.1720   21.2580 O   0  0  0  0  0  0  0  0  0  0  0  0
  -23.9870  -12.3780   22.6880 H   0  0  0  0  0  0  0  0  0  0  0  0
  -22.7890  -13.6320   22.8320 H   0  0  0  0  0  0  0  0  0  0  0  0
  -26.9570  -15.5910   20.5520 N   0  0  0  0  0  0  0  0  0  0  0  0
  -26.2900  -16.2860   20.8710 H   0  0  0  0  0  0  0  0  0  0  0  0
  -27.8010  -15.9970   20.1670 H   0  0  0  0  0  0  0  0  0  0  0  0
  -32.5470  -23.3800   19.7800 C   0  0  0  0  0  2  0  0  0  0  0  0
  -32.0580  -22.2700   18.8530 C   0  0  0  0  0  2  0  0  0  0  0  0
  -31.3140  -24.2730   19.9100 C   0  0  0  0  0  2  0  0  0  0  0  0
  -30.5890  -22.0630   19.2620 C   0  0  0  0  0  3  0  0  0  0  0  0
  -30.1270  -23.3870   19.7710 N   0  0  2  0  0  4  0  0  0  0  0  0
  -29.8200  -23.1270   20.7050 H   0  0  0  0  0  0  0  0  0  0  0  0
  -28.9890  -24.0140   19.0340 C   0  0  0  0  0  2  0  0  0  0  0  0
  -28.3220  -25.1740   19.8130 C   0  0  0  0  0  2  0  0  0  0  0  0
  -28.1710  -26.3080   18.9570 O   0  0  0  0  0  0  0  0  0  0  0  0
  -25.1810  -31.0510   23.3600 C   0  0  0  0  0  0  0  0  0  0  0  0
  -27.1030  -27.1220   19.2430 C   0  0  0  0  0  0  0  0  0  0  0  0
  -23.7410  -30.2100   21.5310 C   0  0  0  0  0  3  0  0  0  0  0  0
  -24.9260  -28.8500   19.7280 C   0  0  0  0  0  0  0  0  0  0  0  0
  -26.2820  -30.2910   21.2570 C   0  0  0  0  0  2  0  0  0  0  0  0
  -26.1620  -29.0920   20.3400 C   0  0  0  0  0  0  0  0  0  0  0  0
  -27.2580  -28.2370   20.0960 C   0  0  0  0  0  3  0  0  0  0  0  0
  -25.8540  -26.8830   18.6350 C   0  0  0  0  0  3  0  0  0  0  0  0
  -24.7640  -27.7420   18.8770 C   0  0  0  0  0  3  0  0  0  0  0  0
  -23.8110  -29.8260   20.0280 C   0  0  0  0  0  2  0  0  0  0  0  0
  -25.0900  -30.5160   22.1090 N   0  0  0  0  0  0  0  0  0  0  0  0
  -24.1650  -31.3280   24.0120 O   0  0  0  0  0  0  0  0  0  0  0  0
  -22.9900  -29.0920   22.2890 C   0  0  0  0  0  0  0  0  0  0  0  0
  -21.6550  -29.0680   22.1520 N   0  0  0  0  0  0  0  0  0  0  0  0
  -23.6070  -28.2560   22.9550 O   0  0  0  0  0  0  0  0  0  0  0  0
  -21.2220  -29.7930   21.5970 H   0  0  0  0  0  0  0  0  0  0  0  0
  -18.1850  -28.1000   22.4070 C   0  0  0  0  0  0  0  0  0  0  0  0
  -20.7480  -28.0840   22.7410 C   0  0  0  0  0  3  0  0  0  0  0  0
  -20.7440  -26.7710   21.9230 C   0  0  0  0  0  2  0  0  0  0  0  0
  -19.6430  -26.7270   20.8590 C   0  0  0  0  0  2  0  0  0  0  0  0
  -18.2630  -26.8780   21.5070 C   0  0  0  0  0  2  0  0  0  0  0  0
  -19.3530  -28.6750   22.9730 C   0  0  0  0  0  0  0  0  0  0  0  0
  -19.2280  -29.8340   23.7720 C   0  0  0  0  0  3  0  0  0  0  0  0
  -17.9660  -30.4110   24.0110 C   0  0  0  0  0  3  0  0  0  0  0  0
  -16.8110  -29.8280   23.4600 C   0  0  0  0  0  3  0  0  0  0  0  0
  -16.9220  -28.6730   22.6640 C   0  0  0  0  0  3  0  0  0  0  0  0
  -26.5610  -31.3610   24.0190 C   0  0  0  0  0  3  0  0  0  0  0  0
  -27.0720  -30.2070   24.9650 C   0  0  1  0  0  0  0  0  0  0  0  0
  -26.0250  -29.7500   26.0070 C   0  0  0  0  0  1  0  0  0  0  0  0
  -27.4870  -28.9680   24.1370 C   0  0  0  0  0  1  0  0  0  0  0  0
  -28.3330  -30.6730   25.7300 C   0  0  0  0  0  1  0  0  0  0  0  0
  -26.4230  -32.6200   24.7620 N   0  0  0  0  0  0  0  0  0  0  0  0
  -26.8700  -33.8080   24.3330 C   0  0  0  0  0  0  0  0  0  0  0  0
  -27.5130  -33.9450   23.2880 O   0  0  0  0  0  0  0  0  0  0  0  0
  -25.8590  -32.5930   25.5970 H   0  0  0  0  0  0  0  0  0  0  0  0
  -25.3790  -35.8160   24.5820 C   0  0  0  0  0  1  0  0  0  0  0  0
  -26.5530  -35.0410   25.2000 C   0  0  0  0  0  3  0  0  0  0  0  0
  -28.7650  -35.3740   26.2110 C   0  0  0  0  0  1  0  0  0  0  0  0
  -27.7090  -35.9470   25.3810 N   0  0  0  0  0  0  0  0  0  0  0  0
  -27.4160  -36.8240   25.8020 H   0  0  0  0  0  0  0  0  0  0  0  0
  1  3  2  0
  2  1  1  0
  2  8  1  0
  4  2  1  0
  5  8  2  0
  5  9  1  0
  6 10  2  0
  7 10  1  0
  8  6  1  0
  9  7  2  0
 10 11  1  0
 12 20  1  0
 13 18  1  0
 14 15  1  0
 14 13  1  0
 16 15  1  0
 16 25  1  0
 16 17  1  0
 18 12  1  0
 18 17  1  0
 19 12  2  0
 20  9  1  0
 20 21  1  0
 22 23  2  0
 23 42  1  0
 24 27  1  0
 24 23  1  0
 25 26  1  0
 25 22  1  0
 26 24  2  0
 27 28  1  0
 28 29  2  0
 30 33  1  0
 30 29  1  0
 31 30  2  0
 32 31  1  0
 32 27  2  0
 33 34  1  0
 34 39  2  0
 34 35  1  0
 35 36  2  0
 36 37  1  0
 37 41  1  0
 38 37  2  0
 39 38  1  0
 40 39  1  0
 42 43  1  0
 43 45  1  0
 43 46  1  0
 44 42  2  0
 47 22  1  0
 47 48  1  0
 49 47  1  0
 50 52  1  0
 51 53  1  0
 51 50  1  0
 53 54  1  0
 53  1  1  0
 54 52  1  0
 54 55  1  1
 56 54  1  0
 56 57  1  0
 58 60  1  0
 58 57  1  0
 59 70  2  0
 60 65  1  0
 61 69  1  0
 61 71  1  0
 62 68  1  0
 62 64  1  0
 63 69  1  0
 64 63  1  0
 65 64  2  0
 66 67  1  0
 66 60  2  0
 67 62  2  0
 68 61  1  0
 69 59  1  0
 71 73  2  0
 72 71  1  0
 74 72  1  0
 75 84  2  0
 75 80  1  0
 76 72  1  0
 76 80  1  0
 77 76  1  0
 78 79  1  0
 78 77  1  0
 79 75  1  0
 80 81  2  0
 81 82  1  0
 83 82  2  0
 84 83  1  0
 85 59  1  0
 85 90  1  0
 85 86  1  0
 86 89  1  1
 86 87  1  0
 88 86  1  0
 90 93  1  0
 91 90  1  0
 91 95  1  0
 92 91  2  0
 95 94  1  0
 95 97  1  0
 97 98  1  0
 97 96  1  0
M  ISO  4  12 100  20 100  57 101  58 101
M  END
>  <TORSDO>  (49) 
F 20

>  <SCORE>  (49) 
-8.211

>  <name>  (49) 
48

>  <ligand_id>  (49) 
48

>  <original_smiles>  (49) 
[H]c1c([H])c([H])c2c(c1[H])C([H])([H])C([H])([H])C([H])([H])C2([H])N([H])C(=O)C1([H])N(C(=O)C([H])(N([H])C(=O)C([H])(N([H])C([H])([H])[H])C([H])([H])[H])C(C([H])([H])[H])(C([H])([H])[H])C([H])([H])[H])C([H])([H])c2c([H])c(OC([H])([H])C([H])([H])[N+]3([H])C([H])([H])C([H])([H])C([H])([H])C3([H])C(=O)N([H])c3c([H])c(F)c([H])c(N([H])C(=O)N4C([H])([H])C([H])([H])C([H])([H])C([H])(n5nc(-c6c([H])c([H])c(Oc7c([H])c([H])c(F)c([H])c7F)c([H])c6[H])c(C(=O)N([H])[H])c5N([H])[H])C4([H])[H])c3[H])c([H])c([H])c2C1([H])[H]

>  <smiles>  (49) 
[H]c1c([H])c([H])c2c(c1[H])C([H])([H])C([H])([H])C([H])([H])C2([H])N([H])C(=O)C1([H])N(C(=O)C([H])(N([H])C(=O)C([H])(N([H])C([H])([H])[H])C([H])([H])[H])C(C([H])([H])[H])(C([H])([H])[H])C([H])([H])[H])C([H])([H])c2c([H])c(OC([H])([H])C([H])([H])[N+]3([H])C([H])([H])C([H])([H])C([H])([H])C3([H])C(=O)N([H])c3c([H])c(F)c([H])c(N([H])C(=O)N4C([H])([H])C([H])([H])C([H])([H])C([H])(n5nc(-c6c([H])c([H])c(Oc7c([H])c([H])c(F)c([H])c7F)c([H])c6[H])c(C(=O)N([H])[H])c5N([H])[H])C4([H])[H])c3[H])c([H])c([H])c2C1([H])[H]

$$$$
49:0:0
     RDKit          3D

 96104  0  0  1  0  0  0  0  0999 V2000
  -28.2410  -19.1430   20.9730 C   0  0  0  0  0  3  0  0  0  0  0  0
  -27.8570  -20.4910   20.8410 C   0  0  0  0  0  3  0  0  0  0  0  0
  -29.7920  -19.4010   19.1100 C   0  0  0  0  0  3  0  0  0  0  0  0
  -29.1960  -18.5820   20.0930 C   0  0  0  0  0  0  0  0  0  0  0  0
  -28.4290  -21.2960   19.8340 C   0  0  0  0  0  0  0  0  0  0  0  0
  -29.4110  -20.7500   18.9810 C   0  0  0  0  0  0  0  0  0  0  0  0
  -29.9780  -21.5240   18.0260 F   0  0  0  0  0  0  0  0  0  0  0  0
  -29.5080  -17.0910   20.1390 C   0  0  1  0  0  0  0  0  0  0  0  0
  -28.6000  -16.4720   20.8970 F   0  0  0  0  0  0  0  0  0  0  0  0
  -29.3820  -16.6220   18.8960 F   0  0  0  0  0  0  0  0  0  0  0  0
  -30.9070  -16.7200   20.6780 C   0  0  0  0  0  2  0  0  0  0  0  0
  -31.3850  -14.3950   19.9680 C   0  0  0  0  0  0  0  0  0  0  0  0
  -30.9770  -12.1780   18.9640 C   0  0  0  0  0  2  0  0  0  0  0  0
  -29.9950  -12.2850   17.7800 C   0  0  0  0  0  2  0  0  0  0  0  0
  -28.5330  -12.2350   18.2620 C   0  0  0  0  0  2  0  0  0  0  0  0
  -28.2580  -13.2150   19.4310 C   0  0  0  0  0  3  0  0  0  0  0  0
  -29.3310  -13.0480   20.5310 C   0  0  0  0  0  2  0  0  0  0  0  0
  -30.6670  -13.2430   19.9270 N   0  0  0  0  0  0  0  0  0  0  0  0
  -32.3560  -14.6300   19.2430 O   0  0  0  0  0  0  0  0  0  0  0  0
  -30.9400  -15.2730   20.8670 N   0  0  0  0  0  0  0  0  0  0  0  0
  -30.2240  -14.9190   21.4810 H   0  0  0  0  0  0  0  0  0  0  0  0
  -25.9450  -14.0100   20.2530 C   0  0  0  0  0  0  0  0  0  0  0  0
  -24.8340  -13.3190   20.6580 C   0  0  0  0  0  0  0  0  0  0  0  0
  -25.1790  -11.9360   20.5800 C   0  0  0  0  0  0  0  0  0  0  0  0
  -26.9050  -13.0510   19.9620 N   0  0  0  0  0  0  0  0  0  0  0  0
  -26.4450  -11.7980   20.2100 N   0  0  0  0  0  0  0  0  0  0  0  0
  -24.3620  -10.7330   20.7820 C   0  0  0  0  0  0  0  0  0  0  0  0
  -24.7200   -9.7460   21.7270 C   0  0  0  0  0  3  0  0  0  0  0  0
  -23.9080   -8.6070   21.9150 C   0  0  0  0  0  3  0  0  0  0  0  0
  -22.7230   -8.4470   21.1560 C   0  0  0  0  0  0  0  0  0  0  0  0
  -22.3830   -9.4220   20.2020 C   0  0  0  0  0  3  0  0  0  0  0  0
  -23.1960  -10.5530   20.0120 C   0  0  0  0  0  3  0  0  0  0  0  0
  -21.8880   -7.3610   21.2510 O   0  0  0  0  0  0  0  0  0  0  0  0
  -21.7370   -6.6690   22.4280 C   0  0  0  0  0  0  0  0  0  0  0  0
  -21.2700   -7.2940   23.6040 C   0  0  0  0  0  3  0  0  0  0  0  0
  -21.0640   -6.5330   24.7710 C   0  0  0  0  0  3  0  0  0  0  0  0
  -21.3160   -5.1470   24.7620 C   0  0  0  0  0  0  0  0  0  0  0  0
  -21.7750   -4.5230   23.5890 C   0  0  0  0  0  3  0  0  0  0  0  0
  -21.9830   -5.2820   22.4250 C   0  0  0  0  0  0  0  0  0  0  0  0
  -22.4070   -4.6720   21.2920 F   0  0  0  0  0  0  0  0  0  0  0  0
  -21.1100   -4.4130   25.8800 F   0  0  0  0  0  0  0  0  0  0  0  0
  -23.4960  -13.9040   21.0120 C   0  0  0  0  0  0  0  0  0  0  0  0
  -22.7610  -13.2600   21.9120 N   0  0  0  0  0  0  0  0  0  0  0  0
  -23.1140  -14.9670   20.5250 O   0  0  0  0  0  0  0  0  0  0  0  0
  -23.0790  -12.3970   22.3290 H   0  0  0  0  0  0  0  0  0  0  0  0
  -21.8650  -13.6360   22.1900 H   0  0  0  0  0  0  0  0  0  0  0  0
  -26.2110  -15.3650   20.0950 N   0  0  0  0  0  0  0  0  0  0  0  0
  -25.5150  -16.0780   20.2820 H   0  0  0  0  0  0  0  0  0  0  0  0
  -27.1100  -15.7460   19.8290 H   0  0  0  0  0  0  0  0  0  0  0  0
  -27.9590  -22.7290   19.6390 C   0  0  0  0  0  2  0  0  0  0  0  0
  -29.5070  -23.4640   21.4140 C   0  0  0  0  0  1  0  0  0  0  0  0
  -28.9760  -23.7310   20.0530 N   0  0  2  0  0  4  0  0  0  0  0  0
  -29.7600  -23.6240   19.4250 H   0  0  0  0  0  0  0  0  0  0  0  0
  -28.4970  -25.1350   19.9200 C   0  0  0  0  0  2  0  0  0  0  0  0
  -28.5220  -25.6720   18.4700 C   0  0  0  0  0  2  0  0  0  0  0  0
  -28.4330  -27.0970   18.4600 O   0  0  0  0  0  0  0  0  0  0  0  0
  -24.7800  -31.0580   23.0670 C   0  0  0  0  0  0  0  0  0  0  0  0
  -27.2190  -27.6800   18.7420 C   0  0  0  0  0  0  0  0  0  0  0  0
  -23.4450  -30.0240   21.2590 C   0  0  0  0  0  3  0  0  0  0  0  0
  -24.7810  -28.9630   19.3660 C   0  0  0  0  0  0  0  0  0  0  0  0
  -25.9150  -30.5780   20.9030 C   0  0  0  0  0  2  0  0  0  0  0  0
  -25.9750  -29.4100   19.9430 C   0  0  0  0  0  0  0  0  0  0  0  0
  -27.1960  -28.7780   19.6260 C   0  0  0  0  0  3  0  0  0  0  0  0
  -26.0040  -27.2350   18.1680 C   0  0  0  0  0  3  0  0  0  0  0  0
  -24.7880  -27.8740   18.4780 C   0  0  0  0  0  3  0  0  0  0  0  0
  -23.5210  -29.7070   19.7420 C   0  0  0  0  0  2  0  0  0  0  0  0
  -24.7380  -30.5540   21.8010 N   0  0  0  0  0  0  0  0  0  0  0  0
  -23.7590  -31.1270   23.7630 O   0  0  0  0  0  0  0  0  0  0  0  0
  -22.9420  -28.7640   21.9990 C   0  0  0  0  0  0  0  0  0  0  0  0
  -21.6390  -28.4690   21.8570 N   0  0  0  0  0  0  0  0  0  0  0  0
  -23.7170  -28.0640   22.6560 O   0  0  0  0  0  0  0  0  0  0  0  0
  -21.0690  -29.0960   21.3080 H   0  0  0  0  0  0  0  0  0  0  0  0
  -18.4710  -26.7430   21.9980 C   0  0  0  0  0  0  0  0  0  0  0  0
  -20.9540  -27.3110   22.4280 C   0  0  0  0  0  3  0  0  0  0  0  0
  -21.2810  -26.0230   21.6360 C   0  0  0  0  0  2  0  0  0  0  0  0
  -20.2620  -25.7180   20.5340 C   0  0  0  0  0  2  0  0  0  0  0  0
  -18.8600  -25.5600   21.1260 C   0  0  0  0  0  2  0  0  0  0  0  0
  -19.4540  -27.5740   22.5960 C   0  0  0  0  0  0  0  0  0  0  0  0
  -19.0390  -28.6810   23.3670 C   0  0  0  0  0  3  0  0  0  0  0  0
  -17.6730  -28.9620   23.5460 C   0  0  0  0  0  3  0  0  0  0  0  0
  -16.7020  -28.1270   22.9640 C   0  0  0  0  0  3  0  0  0  0  0  0
  -17.1020  -27.0190   22.1970 C   0  0  0  0  0  3  0  0  0  0  0  0
  -26.1070  -31.5950   23.6900 C   0  0  0  0  0  3  0  0  0  0  0  0
  -25.8200  -32.9110   24.2750 N   0  0  0  0  0  0  0  0  0  0  0  0
  -26.1710  -34.0800   23.7250 C   0  0  0  0  0  0  0  0  0  0  0  0
  -26.8450  -34.1600   22.6930 O   0  0  0  0  0  0  0  0  0  0  0  0
  -25.2230  -32.9240   25.0900 H   0  0  0  0  0  0  0  0  0  0  0  0
  -24.4920  -35.9520   23.6820 C   0  0  0  0  0  1  0  0  0  0  0  0
  -25.7020  -35.3670   24.4300 C   0  0  0  0  0  3  0  0  0  0  0  0
  -27.8270  -36.0190   25.4720 C   0  0  0  0  0  1  0  0  0  0  0  0
  -26.7600  -36.3940   24.5470 N   0  0  0  0  0  0  0  0  0  0  0  0
  -26.3690  -37.2790   24.8570 H   0  0  0  0  0  0  0  0  0  0  0  0
  -26.7240  -30.6250   24.7710 C   0  0  1  0  0  0  0  0  0  0  0  0
  -25.7210  -30.1970   25.8670 C   0  0  0  0  0  1  0  0  0  0  0  0
  -27.2700  -29.3410   24.1030 C   0  0  0  0  0  1  0  0  0  0  0  0
  -27.9270  -31.3080   25.4630 C   0  0  0  0  0  1  0  0  0  0  0  0
  2  1  1  0
  3  4  1  0
  4  8  1  0
  4  1  2  0
  5  2  2  0
  6  3  2  0
  6  5  1  0
  7  6  1  0
  8 11  1  0
  8  9  1  1
 10  8  1  0
 11 20  1  0
 12 20  1  0
 13 18  1  0
 14 15  1  0
 14 13  1  0
 16 15  1  0
 16 25  1  0
 16 17  1  0
 18 12  1  0
 18 17  1  0
 19 12  2  0
 20 21  1  0
 22 23  2  0
 23 42  1  0
 24 23  1  0
 24 27  1  0
 25 26  1  0
 25 22  1  0
 26 24  2  0
 27 28  1  0
 28 29  2  0
 30 33  1  0
 30 29  1  0
 31 30  2  0
 32 31  1  0
 32 27  2  0
 33 34  1  0
 34 35  1  0
 35 36  2  0
 37 36  1  0
 37 41  1  0
 38 37  2  0
 39 34  2  0
 39 38  1  0
 40 39  1  0
 42 43  1  0
 43 46  1  0
 43 45  1  0
 44 42  2  0
 47 22  1  0
 47 48  1  0
 49 47  1  0
 50  5  1  0
 50 52  1  0
 52 51  1  0
 52 53  1  6
 54 52  1  0
 55 54  1  0
 56 55  1  0
 56 58  1  0
 57 68  2  0
 58 63  1  0
 59 67  1  0
 59 69  1  0
 60 66  1  0
 60 62  1  0
 61 67  1  0
 62 61  1  0
 63 62  2  0
 64 65  1  0
 64 58  2  0
 65 60  2  0
 66 59  1  0
 67 57  1  0
 69 71  2  0
 70 69  1  0
 72 70  1  0
 73 82  2  0
 73 78  1  0
 74 70  1  0
 74 78  1  0
 75 74  1  0
 76 77  1  0
 76 75  1  0
 77 73  1  0
 78 79  2  0
 79 80  1  0
 81 80  2  0
 82 81  1  0
 83 57  1  0
 83 84  1  0
 83 93  1  0
 84 87  1  0
 85 84  1  0
 85 89  1  0
 86 85  2  0
 89 88  1  0
 89 91  1  0
 91 92  1  0
 91 90  1  0
 93 96  1  1
 93 94  1  0
 95 93  1  0
M  ISO  4  12 100  20 100  55 101  56 101
M  END
>  <TORSDO>  (50) 
F 22

>  <SCORE>  (50) 
-9.995

>  <name>  (50) 
49

>  <ligand_id>  (50) 
49

>  <original_smiles>  (50) 
[H]c1c([H])c([H])c2c(c1[H])C([H])([H])C([H])([H])C([H])([H])C2([H])N([H])C(=O)C1([H])N(C(=O)C([H])(N([H])C(=O)C([H])(N([H])C([H])([H])[H])C([H])([H])[H])C(C([H])([H])[H])(C([H])([H])[H])C([H])([H])[H])C([H])([H])c2c([H])c(OC([H])([H])C([H])([H])[N+]([H])(C([H])([H])[H])C([H])([H])c3c([H])c([H])c(C(F)(F)C([H])([H])N([H])C(=O)N4C([H])([H])C([H])([H])C([H])([H])C([H])(n5nc(-c6c([H])c([H])c(Oc7c([H])c([H])c(F)c([H])c7F)c([H])c6[H])c(C(=O)N([H])[H])c5N([H])[H])C4([H])[H])c([H])c3F)c([H])c([H])c2C1([H])[H]

>  <smiles>  (50) 
[H]c1c([H])c([H])c2c(c1[H])C([H])([H])C([H])([H])C([H])([H])C2([H])N([H])C(=O)C1([H])N(C(=O)C([H])(N([H])C(=O)C([H])(N([H])C([H])([H])[H])C([H])([H])[H])C(C([H])([H])[H])(C([H])([H])[H])C([H])([H])[H])C([H])([H])c2c([H])c(OC([H])([H])C([H])([H])[N+]([H])(C([H])([H])[H])C([H])([H])c3c([H])c([H])c(C(F)(F)C([H])([H])N([H])C(=O)N4C([H])([H])C([H])([H])C([H])([H])C([H])(n5nc(-c6c([H])c([H])c(Oc7c([H])c([H])c(F)c([H])c7F)c([H])c6[H])c(C(=O)N([H])[H])c5N([H])[H])C4([H])[H])c([H])c3F)c([H])c([H])c2C1([H])[H]

$$$$
50:0:0
     RDKit          3D

 91 99  0  0  1  0  0  0  0  0999 V2000
  -30.4420  -18.5620   20.7920 C   0  0  0  0  0  3  0  0  0  0  0  0
  -28.0360  -19.4960   19.8010 C   0  0  0  0  0  3  0  0  0  0  0  0
  -29.5290  -17.5250   20.3800 C   0  0  0  0  0  0  0  0  0  0  0  0
  -28.9150  -20.5470   20.2170 C   0  0  0  0  0  0  0  0  0  0  0  0
  -28.3140  -18.0820   19.8830 C   0  0  0  0  0  0  0  0  0  0  0  0
  -30.1530  -19.9980   20.7210 C   0  0  0  0  0  0  0  0  0  0  0  0
  -27.3520  -17.2170   19.4790 F   0  0  0  0  0  0  0  0  0  0  0  0
  -31.1000  -20.8610   21.1630 F   0  0  0  0  0  0  0  0  0  0  0  0
  -30.4830  -14.9320   20.3390 C   0  0  0  0  0  0  0  0  0  0  0  0
  -30.3970  -12.6030   19.3590 C   0  0  0  0  0  2  0  0  0  0  0  0
  -29.4390  -12.6040   18.1430 C   0  0  0  0  0  2  0  0  0  0  0  0
  -27.9780  -12.3950   18.5880 C   0  0  0  0  0  2  0  0  0  0  0  0
  -27.5900  -13.2880   19.7950 C   0  0  0  0  0  3  0  0  0  0  0  0
  -28.6630  -13.2370   20.9060 C   0  0  0  0  0  2  0  0  0  0  0  0
  -29.9340  -13.6570   20.2990 N   0  0  0  0  0  0  0  0  0  0  0  0
  -31.6720  -15.0750   20.0320 O   0  0  0  0  0  0  0  0  0  0  0  0
  -29.5970  -16.0080   20.5350 N   0  0  0  0  0  0  0  0  0  0  0  0
  -28.6700  -15.6320   20.6590 H   0  0  0  0  0  0  0  0  0  0  0  0
  -25.2130  -13.8620   20.5610 C   0  0  0  0  0  0  0  0  0  0  0  0
  -24.1540  -13.0830   20.9380 C   0  0  0  0  0  0  0  0  0  0  0  0
  -24.6210  -11.7330   20.8890 C   0  0  0  0  0  0  0  0  0  0  0  0
  -26.2560  -12.9880   20.3010 N   0  0  0  0  0  0  0  0  0  0  0  0
  -25.9080  -11.7010   20.5620 N   0  0  0  0  0  0  0  0  0  0  0  0
  -23.8980  -10.4680   21.0760 C   0  0  0  0  0  0  0  0  0  0  0  0
  -24.3450   -9.4900   21.9920 C   0  0  0  0  0  3  0  0  0  0  0  0
  -23.6210   -8.2900   22.1660 C   0  0  0  0  0  3  0  0  0  0  0  0
  -22.4380   -8.0600   21.4270 C   0  0  0  0  0  0  0  0  0  0  0  0
  -22.0100   -9.0270   20.5010 C   0  0  0  0  0  3  0  0  0  0  0  0
  -22.7330  -10.2180   20.3240 C   0  0  0  0  0  3  0  0  0  0  0  0
  -21.6850   -6.9130   21.5120 O   0  0  0  0  0  0  0  0  0  0  0  0
  -21.6570   -6.1550   22.6560 C   0  0  0  0  0  0  0  0  0  0  0  0
  -21.2410   -6.6900   23.8940 C   0  0  0  0  0  3  0  0  0  0  0  0
  -21.1590   -5.8580   25.0280 C   0  0  0  0  0  3  0  0  0  0  0  0
  -21.4840   -4.4920   24.9260 C   0  0  0  0  0  0  0  0  0  0  0  0
  -21.8940   -3.9570   23.6920 C   0  0  0  0  0  3  0  0  0  0  0  0
  -21.9760   -4.7870   22.5600 C   0  0  0  0  0  0  0  0  0  0  0  0
  -22.3510   -4.2610   21.3680 F   0  0  0  0  0  0  0  0  0  0  0  0
  -21.3990   -3.6900   26.0130 F   0  0  0  0  0  0  0  0  0  0  0  0
  -22.7590  -13.5540   21.2260 C   0  0  0  0  0  0  0  0  0  0  0  0
  -22.0390  -12.8530   22.0940 N   0  0  0  0  0  0  0  0  0  0  0  0
  -22.3150  -14.5830   20.7180 O   0  0  0  0  0  0  0  0  0  0  0  0
  -22.4110  -12.0200   22.5280 H   0  0  0  0  0  0  0  0  0  0  0  0
  -21.1040  -13.1520   22.3290 H   0  0  0  0  0  0  0  0  0  0  0  0
  -25.3630  -15.2350   20.3940 N   0  0  0  0  0  0  0  0  0  0  0  0
  -24.5800  -15.8650   20.5200 H   0  0  0  0  0  0  0  0  0  0  0  0
  -26.1700  -15.7020   19.9940 H   0  0  0  0  0  0  0  0  0  0  0  0
  -28.4500  -21.9570   20.0760 N   0  0  0  0  0  0  0  0  0  0  0  0
  -27.5490  -22.0080   19.6110 H   0  0  0  0  0  0  0  0  0  0  0  0
  -28.9510  -23.3830   20.4270 C   0  0  0  0  0  3  0  0  0  0  0  0
  -27.9720  -24.7130   20.1080 C   0  0  0  0  0  3  0  0  0  0  0  0
  -28.2470  -26.2220   20.3370 O   0  0  0  0  0  0  0  0  0  0  0  0
  -24.6240  -31.9250   23.2540 C   0  0  0  0  0  0  0  0  0  0  0  0
  -27.1900  -27.1970   20.2570 C   0  0  0  0  0  0  0  0  0  0  0  0
  -23.4210  -30.5280   21.6170 C   0  0  0  0  0  3  0  0  0  0  0  0
  -24.8640  -28.9400   20.2080 C   0  0  0  0  0  0  0  0  0  0  0  0
  -25.9750  -30.7830   21.4600 C   0  0  0  0  0  2  0  0  0  0  0  0
  -26.0450  -29.3890   20.8170 C   0  0  0  0  0  0  0  0  0  0  0  0
  -27.2080  -28.5330   20.8230 C   0  0  0  0  0  3  0  0  0  0  0  0
  -25.9810  -26.8450   19.6140 C   0  0  0  0  0  3  0  0  0  0  0  0
  -24.8450  -27.6800   19.5920 C   0  0  0  0  0  3  0  0  0  0  0  0
  -23.6420  -29.8420   20.2430 C   0  0  0  0  0  2  0  0  0  0  0  0
  -24.6930  -31.1000   22.1650 N   0  0  0  0  0  0  0  0  0  0  0  0
  -23.5380  -32.2210   23.7750 O   0  0  0  0  0  0  0  0  0  0  0  0
  -22.7320  -29.5310   22.5820 C   0  0  0  0  0  0  0  0  0  0  0  0
  -21.4030  -29.3730   22.4520 N   0  0  0  0  0  0  0  0  0  0  0  0
  -23.3970  -28.9010   23.4090 O   0  0  0  0  0  0  0  0  0  0  0  0
  -20.9250  -29.9320   21.7590 H   0  0  0  0  0  0  0  0  0  0  0  0
  -18.0060  -28.2260   22.9620 C   0  0  0  0  0  0  0  0  0  0  0  0
  -20.5690  -28.4490   23.2250 C   0  0  0  0  0  3  0  0  0  0  0  0
  -20.6480  -27.0150   22.6510 C   0  0  0  0  0  2  0  0  0  0  0  0
  -19.5390  -26.7090   21.6390 C   0  0  0  0  0  2  0  0  0  0  0  0
  -18.1610  -26.8740   22.2850 C   0  0  0  0  0  2  0  0  0  0  0  0
  -19.1360  -28.9720   23.3890 C   0  0  0  0  0  0  0  0  0  0  0  0
  -18.9350  -30.2370   23.9830 C   0  0  0  0  0  3  0  0  0  0  0  0
  -17.6380  -30.7560   24.1530 C   0  0  0  0  0  3  0  0  0  0  0  0
  -16.5230  -30.0050   23.7430 C   0  0  0  0  0  3  0  0  0  0  0  0
  -16.7070  -28.7420   23.1530 C   0  0  0  0  0  3  0  0  0  0  0  0
  -25.9050  -32.5540   23.8830 C   0  0  0  0  0  3  0  0  0  0  0  0
  -26.4070  -31.7840   25.1660 C   0  0  1  0  0  0  0  0  0  0  0  0
  -25.3030  -31.5580   26.2270 C   0  0  0  0  0  1  0  0  0  0  0  0
  -26.9840  -30.4010   24.7870 C   0  0  0  0  0  1  0  0  0  0  0  0
  -27.5570  -32.5730   25.8340 C   0  0  0  0  0  1  0  0  0  0  0  0
  -25.5980  -33.9550   24.2140 N   0  0  0  0  0  0  0  0  0  0  0  0
  -25.9200  -35.0080   23.4520 C   0  0  0  0  0  0  0  0  0  0  0  0
  -26.5720  -34.9040   22.4090 O   0  0  0  0  0  0  0  0  0  0  0  0
  -25.0170  -34.1100   25.0240 H   0  0  0  0  0  0  0  0  0  0  0  0
  -24.1800  -36.8010   23.1390 C   0  0  0  0  0  1  0  0  0  0  0  0
  -25.4440  -36.3980   23.9170 C   0  0  0  0  0  3  0  0  0  0  0  0
  -27.5970  -37.2940   24.6890 C   0  0  0  0  0  1  0  0  0  0  0  0
  -26.4710  -37.4520   23.7710 N   0  0  0  0  0  0  0  0  0  0  0  0
  -26.0670  -38.3740   23.9210 H   0  0  0  0  0  0  0  0  0  0  0  0
  2  5  2  0
  2  4  1  0
  3 17  1  0
  3  1  2  0
  4  6  2  0
  5  3  1  0
  6  1  1  0
  6  8  1  0
  7  5  1  0
  9 17  1  0
 10 15  1  0
 11 12  1  0
 11 10  1  0
 13 12  1  0
 13 22  1  0
 13 14  1  0
 15  9  1  0
 15 14  1  0
 16  9  2  0
 17 18  1  0
 19 20  2  0
 20 39  1  0
 21 20  1  0
 21 24  1  0
 22 19  1  0
 22 23  1  0
 23 21  2  0
 24 25  1  0
 25 26  2  0
 27 30  1  0
 27 26  1  0
 28 27  2  0
 29 28  1  0
 29 24  2  0
 30 31  1  0
 31 32  1  0
 32 33  2  0
 34 33  1  0
 34 38  1  0
 35 34  2  0
 36 31  2  0
 36 35  1  0
 37 36  1  0
 39 40  1  0
 40 43  1  0
 40 42  1  0
 41 39  2  0
 44 45  1  0
 44 19  1  0
 46 44  1  0
 47  4  1  0
 47 49  1  0
 48 47  1  0
 50 51  1  0
 50 49  2  0
 52 63  2  0
 53 51  1  0
 53 58  1  0
 54 62  1  0
 54 64  1  0
 55 61  1  0
 55 57  1  0
 56 62  1  0
 57 58  2  0
 57 56  1  0
 59 53  2  0
 60 59  1  0
 60 55  2  0
 61 54  1  0
 62 52  1  0
 64 66  2  0
 65 64  1  0
 67 65  1  0
 68 77  2  0
 68 73  1  0
 69 65  1  0
 69 73  1  0
 70 69  1  0
 71 72  1  0
 71 70  1  0
 72 68  1  0
 73 74  2  0
 74 75  1  0
 76 75  2  0
 77 76  1  0
 78 52  1  0
 78 83  1  0
 78 79  1  0
 79 82  1  1
 79 80  1  0
 81 79  1  0
 83 86  1  0
 84 88  1  0
 84 83  1  0
 85 84  2  0
 88 87  1  0
 90 88  1  0
 90 91  1  0
 90 89  1  0
M  ISO  4   9 100  17 100  50 101  51 101
M  END
>  <TORSDO>  (51) 
F 19

>  <SCORE>  (51) 
-14.544

>  <name>  (51) 
50

>  <ligand_id>  (51) 
50

>  <original_smiles>  (51) 
[H]c1c([H])c([H])c2c(c1[H])C([H])([H])C([H])([H])C([H])([H])C2([H])N([H])C(=O)C1([H])N(C(=O)C([H])(N([H])C(=O)C([H])(N([H])C([H])([H])[H])C([H])([H])[H])C(C([H])([H])[H])(C([H])([H])[H])C([H])([H])[H])C([H])([H])c2c([H])c(OC([H])([H])C([H])([H])N([H])c3c([H])c(F)c(N([H])C(=O)N4C([H])([H])C([H])([H])C([H])([H])C([H])(n5nc(-c6c([H])c([H])c(Oc7c([H])c([H])c(F)c([H])c7F)c([H])c6[H])c(C(=O)N([H])[H])c5N([H])[H])C4([H])[H])c([H])c3F)c([H])c([H])c2C1([H])[H]

>  <smiles>  (51) 
[H]c1c([H])c([H])c2c(c1[H])C([H])([H])C([H])([H])C([H])([H])C2([H])N([H])C(=O)C1([H])N(C(=O)C([H])(N([H])C(=O)C([H])(N([H])C([H])([H])[H])C([H])([H])[H])C(C([H])([H])[H])(C([H])([H])[H])C([H])([H])[H])C([H])([H])c2c([H])c(OC([H])([H])C([H])([H])N([H])c3c([H])c(F)c(N([H])C(=O)N4C([H])([H])C([H])([H])C([H])([H])C([H])(n5nc(-c6c([H])c([H])c(Oc7c([H])c([H])c(F)c([H])c7F)c([H])c6[H])c(C(=O)N([H])[H])c5N([H])[H])C4([H])[H])c([H])c3F)c([H])c([H])c2C1([H])[H]

$$$$
51:0:0
     RDKit          3D

 92100  0  0  1  0  0  0  0  0999 V2000
  -28.5990  -21.0890   20.5920 C   0  0  0  0  0  2  0  0  0  0  0  0
  -30.8060  -19.9850   21.3490 C   0  0  0  0  0  3  0  0  0  0  0  0
  -31.6520  -18.8930   21.6240 C   0  0  0  0  0  3  0  0  0  0  0  0
  -29.2300  -18.4420   20.3320 C   0  0  0  0  0  3  0  0  0  0  0  0
  -29.5710  -19.8170   20.6890 C   0  0  0  0  0  0  0  0  0  0  0  0
  -30.0800  -17.2890   20.6150 C   0  0  0  0  0  0  0  0  0  0  0  0
  -31.2970  -17.5720   21.2880 C   0  0  0  0  0  0  0  0  0  0  0  0
  -32.1180  -16.5770   21.6960 F   0  0  0  0  0  0  0  0  0  0  0  0
  -30.4640  -14.7590   20.0420 C   0  0  0  0  0  0  0  0  0  0  0  0
  -30.1810  -12.5390   18.9260 C   0  0  0  0  0  2  0  0  0  0  0  0
  -29.1650  -12.6720   17.7720 C   0  0  0  0  0  2  0  0  0  0  0  0
  -27.7250  -12.4820   18.2900 C   0  0  0  0  0  2  0  0  0  0  0  0
  -27.4380  -13.3120   19.5710 C   0  0  0  0  0  3  0  0  0  0  0  0
  -28.5670  -13.1670   20.6140 C   0  0  0  0  0  2  0  0  0  0  0  0
  -29.8220  -13.5450   19.9520 N   0  0  0  0  0  0  0  0  0  0  0  0
  -31.6160  -14.8660   19.6140 O   0  0  0  0  0  0  0  0  0  0  0  0
  -29.6990  -15.8760   20.3580 N   0  0  0  0  0  0  0  0  0  0  0  0
  -28.7160  -15.6780   20.4600 H   0  0  0  0  0  0  0  0  0  0  0  0
  -25.0940  -13.8680   20.4540 C   0  0  0  0  0  0  0  0  0  0  0  0
  -24.0590  -13.0770   20.8710 C   0  0  0  0  0  0  0  0  0  0  0  0
  -24.5300  -11.7300   20.7830 C   0  0  0  0  0  0  0  0  0  0  0  0
  -26.1280  -13.0030   20.1360 N   0  0  0  0  0  0  0  0  0  0  0  0
  -25.7990  -11.7100   20.3970 N   0  0  0  0  0  0  0  0  0  0  0  0
  -23.8250  -10.4580   20.9880 C   0  0  0  0  0  0  0  0  0  0  0  0
  -24.3000   -9.4890   21.8990 C   0  0  0  0  0  3  0  0  0  0  0  0
  -23.5940   -8.2820   22.0920 C   0  0  0  0  0  3  0  0  0  0  0  0
  -22.3990   -8.0350   21.3750 C   0  0  0  0  0  0  0  0  0  0  0  0
  -21.9440   -8.9930   20.4510 C   0  0  0  0  0  3  0  0  0  0  0  0
  -22.6510  -10.1910   20.2560 C   0  0  0  0  0  3  0  0  0  0  0  0
  -21.6620   -6.8810   21.4790 O   0  0  0  0  0  0  0  0  0  0  0  0
  -21.6460   -6.1390   22.6330 C   0  0  0  0  0  0  0  0  0  0  0  0
  -21.2390   -6.6900   23.8680 C   0  0  0  0  0  3  0  0  0  0  0  0
  -21.1710   -5.8740   25.0150 C   0  0  0  0  0  3  0  0  0  0  0  0
  -21.4980   -4.5070   24.9280 C   0  0  0  0  0  0  0  0  0  0  0  0
  -21.8980   -3.9560   23.6980 C   0  0  0  0  0  3  0  0  0  0  0  0
  -21.9680   -4.7690   22.5530 C   0  0  0  0  0  0  0  0  0  0  0  0
  -22.3330   -4.2280   21.3660 F   0  0  0  0  0  0  0  0  0  0  0  0
  -21.4240   -3.7210   26.0270 F   0  0  0  0  0  0  0  0  0  0  0  0
  -22.6760  -13.5350   21.2350 C   0  0  0  0  0  0  0  0  0  0  0  0
  -22.0060  -12.8150   22.1250 N   0  0  0  0  0  0  0  0  0  0  0  0
  -22.2030  -14.5690   20.7640 O   0  0  0  0  0  0  0  0  0  0  0  0
  -22.4030  -11.9780   22.5260 H   0  0  0  0  0  0  0  0  0  0  0  0
  -21.0800  -13.1020   22.4100 H   0  0  0  0  0  0  0  0  0  0  0  0
  -25.2360  -15.2440   20.2960 N   0  0  0  0  0  0  0  0  0  0  0  0
  -24.4640  -15.8810   20.4610 H   0  0  0  0  0  0  0  0  0  0  0  0
  -26.0380  -15.6970   19.8810 H   0  0  0  0  0  0  0  0  0  0  0  0
  -30.3720  -22.5110   19.4520 C   0  0  0  0  0  1  0  0  0  0  0  0
  -28.9610  -22.4240   19.8950 N   0  0  2  0  0  4  0  0  0  0  0  0
  -28.4470  -22.3450   19.0290 H   0  0  0  0  0  0  0  0  0  0  0  0
  -28.4600  -23.7480   20.5360 C   0  0  0  0  0  3  0  0  0  0  0  0
  -28.4040  -25.1010   19.6410 C   0  0  0  0  0  3  0  0  0  0  0  0
  -28.2990  -26.4710   20.2460 O   0  0  0  0  0  0  0  0  0  0  0  0
  -24.5830  -31.9100   23.2370 C   0  0  0  0  0  0  0  0  0  0  0  0
  -27.1650  -27.3100   20.1730 C   0  0  0  0  0  0  0  0  0  0  0  0
  -23.3720  -30.5160   21.5990 C   0  0  0  0  0  3  0  0  0  0  0  0
  -24.8100  -28.9560   20.1690 C   0  0  0  0  0  0  0  0  0  0  0  0
  -25.9140  -30.8150   21.4140 C   0  0  0  0  0  2  0  0  0  0  0  0
  -25.9830  -29.4340   20.7640 C   0  0  0  0  0  0  0  0  0  0  0  0
  -27.1600  -28.6220   20.7560 C   0  0  0  0  0  3  0  0  0  0  0  0
  -25.9620  -26.8870   19.5650 C   0  0  0  0  0  3  0  0  0  0  0  0
  -24.8040  -27.6900   19.5620 C   0  0  0  0  0  3  0  0  0  0  0  0
  -23.5800  -29.8400   20.2180 C   0  0  0  0  0  2  0  0  0  0  0  0
  -24.6420  -31.0990   22.1400 N   0  0  0  0  0  0  0  0  0  0  0  0
  -23.5000  -32.1920   23.7730 O   0  0  0  0  0  0  0  0  0  0  0  0
  -22.7050  -29.5030   22.5610 C   0  0  0  0  0  0  0  0  0  0  0  0
  -21.3770  -29.3340   22.4390 N   0  0  0  0  0  0  0  0  0  0  0  0
  -23.3820  -28.8720   23.3770 O   0  0  0  0  0  0  0  0  0  0  0  0
  -20.8890  -29.8940   21.7540 H   0  0  0  0  0  0  0  0  0  0  0  0
  -17.9930  -28.1600   22.9550 C   0  0  0  0  0  0  0  0  0  0  0  0
  -20.5550  -28.4000   23.2120 C   0  0  0  0  0  3  0  0  0  0  0  0
  -20.6440  -26.9690   22.6340 C   0  0  0  0  0  2  0  0  0  0  0  0
  -19.5350  -26.6570   21.6240 C   0  0  0  0  0  2  0  0  0  0  0  0
  -18.1580  -26.8100   22.2740 C   0  0  0  0  0  2  0  0  0  0  0  0
  -19.1200  -28.9120   23.3810 C   0  0  0  0  0  0  0  0  0  0  0  0
  -18.9120  -30.1750   23.9760 C   0  0  0  0  0  3  0  0  0  0  0  0
  -17.6120  -30.6850   24.1500 C   0  0  0  0  0  3  0  0  0  0  0  0
  -16.5000  -29.9290   23.7400 C   0  0  0  0  0  3  0  0  0  0  0  0
  -16.6920  -28.6680   23.1480 C   0  0  0  0  0  3  0  0  0  0  0  0
  -25.8680  -32.5390   23.8580 C   0  0  0  0  0  3  0  0  0  0  0  0
  -26.3790  -31.7700   25.1380 C   0  0  1  0  0  0  0  0  0  0  0  0
  -25.2840  -31.5430   26.2070 C   0  0  0  0  0  1  0  0  0  0  0  0
  -26.9550  -30.3880   24.7530 C   0  0  0  0  0  1  0  0  0  0  0  0
  -27.5330  -32.5620   25.7980 C   0  0  0  0  0  1  0  0  0  0  0  0
  -25.5630  -33.9390   24.1860 N   0  0  0  0  0  0  0  0  0  0  0  0
  -25.9020  -34.9910   23.4270 C   0  0  0  0  0  0  0  0  0  0  0  0
  -26.5700  -34.8840   22.3950 O   0  0  0  0  0  0  0  0  0  0  0  0
  -24.9720  -34.0980   24.9880 H   0  0  0  0  0  0  0  0  0  0  0  0
  -24.1850  -36.7960   23.0700 C   0  0  0  0  0  1  0  0  0  0  0  0
  -25.4220  -36.3830   23.8840 C   0  0  0  0  0  3  0  0  0  0  0  0
  -27.5600  -37.2550   24.7200 C   0  0  0  0  0  1  0  0  0  0  0  0
  -26.4610  -37.4300   23.7730 N   0  0  0  0  0  0  0  0  0  0  0  0
  -26.0610  -38.3520   23.9190 H   0  0  0  0  0  0  0  0  0  0  0  0
  1  5  1  0
  2  3  1  0
  4  6  2  0
  4  5  1  0
  5  2  2  0
  6  7  1  0
  7  3  2  0
  7  8  1  0
  9 17  1  0
 10 15  1  0
 11 12  1  0
 11 10  1  0
 13 12  1  0
 13 22  1  0
 13 14  1  0
 15  9  1  0
 15 14  1  0
 16  9  2  0
 17 18  1  0
 17  6  1  0
 19 20  2  0
 20 39  1  0
 21 20  1  0
 21 24  1  0
 22 23  1  0
 22 19  1  0
 23 21  2  0
 24 25  1  0
 25 26  2  0
 27 30  1  0
 27 26  1  0
 28 27  2  0
 29 28  1  0
 29 24  2  0
 30 31  1  0
 31 32  1  0
 32 33  2  0
 34 33  1  0
 34 38  1  0
 35 34  2  0
 36 31  2  0
 36 35  1  0
 37 36  1  0
 39 40  1  0
 40 43  1  0
 40 42  1  0
 41 39  2  0
 44 19  1  0
 44 45  1  0
 46 44  1  0
 47 48  1  0
 48 50  1  0
 48  1  1  0
 48 49  1  6
 51 52  1  0
 51 50  2  0
 53 64  2  0
 54 52  1  0
 54 59  1  0
 55 63  1  0
 55 65  1  0
 56 62  1  0
 56 58  1  0
 57 63  1  0
 58 57  1  0
 59 58  2  0
 60 54  2  0
 61 60  1  0
 61 56  2  0
 62 55  1  0
 63 53  1  0
 65 67  2  0
 66 65  1  0
 68 66  1  0
 69 78  2  0
 69 74  1  0
 70 66  1  0
 70 74  1  0
 71 70  1  0
 72 73  1  0
 72 71  1  0
 73 69  1  0
 74 75  2  0
 75 76  1  0
 77 76  2  0
 78 77  1  0
 79 53  1  0
 79 84  1  0
 79 80  1  0
 80 83  1  1
 80 81  1  0
 82 80  1  0
 84 87  1  0
 85 89  1  0
 85 84  1  0
 86 85  2  0
 89 88  1  0
 91 89  1  0
 91 92  1  0
 91 90  1  0
M  ISO  4   9 100  17 100  51 101  52 101
M  END
>  <TORSDO>  (52) 
F 20

>  <SCORE>  (52) 
-13.699

>  <name>  (52) 
51

>  <ligand_id>  (52) 
51

>  <original_smiles>  (52) 
[H]c1c([H])c([H])c2c(c1[H])C([H])([H])C([H])([H])C([H])([H])C2([H])N([H])C(=O)C1([H])N(C(=O)C([H])(N([H])C(=O)C([H])(N([H])C([H])([H])[H])C([H])([H])[H])C(C([H])([H])[H])(C([H])([H])[H])C([H])([H])[H])C([H])([H])c2c([H])c(OC([H])([H])C([H])([H])[N+]([H])(C([H])([H])[H])C([H])([H])c3c([H])c([H])c(F)c(N([H])C(=O)N4C([H])([H])C([H])([H])C([H])([H])C([H])(n5nc(-c6c([H])c([H])c(Oc7c([H])c([H])c(F)c([H])c7F)c([H])c6[H])c(C(=O)N([H])[H])c5N([H])[H])C4([H])[H])c3[H])c([H])c([H])c2C1([H])[H]

>  <smiles>  (52) 
[H]c1c([H])c([H])c2c(c1[H])C([H])([H])C([H])([H])C([H])([H])C2([H])N([H])C(=O)C1([H])N(C(=O)C([H])(N([H])C(=O)C([H])(N([H])C([H])([H])[H])C([H])([H])[H])C(C([H])([H])[H])(C([H])([H])[H])C([H])([H])[H])C([H])([H])c2c([H])c(OC([H])([H])C([H])([H])[N+]([H])(C([H])([H])[H])C([H])([H])c3c([H])c([H])c(F)c(N([H])C(=O)N4C([H])([H])C([H])([H])C([H])([H])C([H])(n5nc(-c6c([H])c([H])c(Oc7c([H])c([H])c(F)c([H])c7F)c([H])c6[H])c(C(=O)N([H])[H])c5N([H])[H])C4([H])[H])c3[H])c([H])c([H])c2C1([H])[H]

$$$$
52:0:0
     RDKit          3D

 95103  0  0  1  0  0  0  0  0999 V2000
  -29.0880  -23.3580   20.5960 C   0  0  0  0  0  0  0  0  0  0  0  0
  -28.8710  -21.7800   20.4050 N   0  0  0  0  0  4  0  0  0  0  0  0
  -27.9230  -21.5520   20.6960 H   0  0  0  0  0  0  0  0  0  0  0  0
  -31.9760  -19.5190   20.1690 C   0  0  0  0  0  3  0  0  0  0  0  0
  -31.5240  -18.1810   20.2530 C   0  0  0  0  0  3  0  0  0  0  0  0
  -31.1130  -20.6440   20.2190 C   0  0  0  0  0  3  0  0  0  0  0  0
  -29.2860  -19.0780   20.4370 C   0  0  0  0  0  3  0  0  0  0  0  0
  -30.1550  -17.8460   20.3650 C   0  0  0  0  0  0  0  0  0  0  0  0
  -29.7120  -20.5250   20.3770 C   0  0  0  0  0  0  0  0  0  0  0  0
  -30.5100  -15.0990   20.2010 C   0  0  0  0  0  0  0  0  0  0  0  0
  -30.3540  -12.7330   19.2550 C   0  0  0  0  0  2  0  0  0  0  0  0
  -29.3840  -12.6170   18.0570 C   0  0  0  0  0  2  0  0  0  0  0  0
  -27.9470  -12.3760   18.5450 C   0  0  0  0  0  2  0  0  0  0  0  0
  -27.5510  -13.3330   19.6960 C   0  0  0  0  0  3  0  0  0  0  0  0
  -28.6370  -13.4110   20.7910 C   0  0  0  0  0  2  0  0  0  0  0  0
  -29.8860  -13.8440   20.1430 N   0  0  0  0  0  0  0  0  0  0  0  0
  -31.7050  -15.1100   19.8870 O   0  0  0  0  0  0  0  0  0  0  0  0
  -29.7850  -16.3280   20.4050 N   0  0  0  0  0  0  0  0  0  0  0  0
  -28.8070  -16.1470   20.5810 H   0  0  0  0  0  0  0  0  0  0  0  0
  -25.1980  -13.8870   20.5400 C   0  0  0  0  0  0  0  0  0  0  0  0
  -24.1470  -13.0990   20.9300 C   0  0  0  0  0  0  0  0  0  0  0  0
  -24.6150  -11.7510   20.8560 C   0  0  0  0  0  0  0  0  0  0  0  0
  -26.2340  -13.0160   20.2430 N   0  0  0  0  0  0  0  0  0  0  0  0
  -25.8950  -11.7260   20.5010 N   0  0  0  0  0  0  0  0  0  0  0  0
  -23.8970  -10.4810   21.0420 C   0  0  0  0  0  0  0  0  0  0  0  0
  -24.3500   -9.5080   21.9590 C   0  0  0  0  0  3  0  0  0  0  0  0
  -23.6300   -8.3070   22.1380 C   0  0  0  0  0  3  0  0  0  0  0  0
  -22.4480   -8.0690   21.3990 C   0  0  0  0  0  0  0  0  0  0  0  0
  -22.0140   -9.0340   20.4740 C   0  0  0  0  0  3  0  0  0  0  0  0
  -22.7320  -10.2260   20.2920 C   0  0  0  0  0  3  0  0  0  0  0  0
  -21.7010   -6.9190   21.4860 O   0  0  0  0  0  0  0  0  0  0  0  0
  -21.6590   -6.1740   22.6390 C   0  0  0  0  0  0  0  0  0  0  0  0
  -21.2000   -6.7190   23.8590 C   0  0  0  0  0  3  0  0  0  0  0  0
  -21.1050   -5.9020   25.0040 C   0  0  0  0  0  3  0  0  0  0  0  0
  -21.4570   -4.5400   24.9300 C   0  0  0  0  0  0  0  0  0  0  0  0
  -21.9040   -3.9950   23.7130 C   0  0  0  0  0  3  0  0  0  0  0  0
  -22.0000   -4.8080   22.5710 C   0  0  0  0  0  0  0  0  0  0  0  0
  -22.4140   -4.2740   21.3960 F   0  0  0  0  0  0  0  0  0  0  0  0
  -21.3570   -3.7510   26.0240 F   0  0  0  0  0  0  0  0  0  0  0  0
  -22.7600  -13.5690   21.2510 C   0  0  0  0  0  0  0  0  0  0  0  0
  -22.0600  -12.8580   22.1290 N   0  0  0  0  0  0  0  0  0  0  0  0
  -22.3040  -14.5990   20.7590 O   0  0  0  0  0  0  0  0  0  0  0  0
  -22.4420  -12.0260   22.5490 H   0  0  0  0  0  0  0  0  0  0  0  0
  -21.1320  -13.1560   22.3810 H   0  0  0  0  0  0  0  0  0  0  0  0
  -25.3520  -15.2600   20.3860 N   0  0  0  0  0  0  0  0  0  0  0  0
  -24.5840  -15.9070   20.5380 H   0  0  0  0  0  0  0  0  0  0  0  0
  -26.1780  -15.7050   20.0070 H   0  0  0  0  0  0  0  0  0  0  0  0
  -30.5480  -23.8120   20.9360 C   0  0  0  0  0  2  0  0  0  0  0  0
  -31.4240  -24.4970   19.8480 C   0  0  0  0  0  2  0  0  0  0  0  0
  -32.7280  -24.9520   20.3990 N   0  0  0  0  0  4  0  0  0  0  0  0
  -32.6060  -25.6970   21.0660 H   0  0  0  0  0  0  0  0  0  0  0  0
  -33.3230  -25.3060   19.6710 H   0  0  0  0  0  0  0  0  0  0  0  0
  -33.2240  -24.1990   20.8510 H   0  0  0  0  0  0  0  0  0  0  0  0
  -28.0720  -24.6050   19.9650 C   0  0  0  0  0  2  0  0  0  0  0  0
  -28.1190  -26.1740   20.1960 O   0  0  0  0  0  0  0  0  0  0  0  0
  -24.5470  -31.9300   23.1630 C   0  0  0  0  0  0  0  0  0  0  0  0
  -27.0270  -27.1410   20.0910 C   0  0  0  0  0  0  0  0  0  0  0  0
  -23.2930  -30.5240   21.5690 C   0  0  0  0  0  3  0  0  0  0  0  0
  -24.6970  -28.9240   20.1010 C   0  0  0  0  0  0  0  0  0  0  0  0
  -25.8430  -30.7610   21.3330 C   0  0  0  0  0  2  0  0  0  0  0  0
  -25.8930  -29.3630   20.6790 C   0  0  0  0  0  0  0  0  0  0  0  0
  -27.0540  -28.4920   20.6430 C   0  0  0  0  0  3  0  0  0  0  0  0
  -25.7990  -26.8120   19.4660 C   0  0  0  0  0  3  0  0  0  0  0  0
  -24.6630  -27.6660   19.4720 C   0  0  0  0  0  3  0  0  0  0  0  0
  -23.4690  -29.8260   20.1920 C   0  0  0  0  0  2  0  0  0  0  0  0
  -24.5820  -31.0990   22.0740 N   0  0  0  0  0  0  0  0  0  0  0  0
  -23.4760  -32.2220   23.7210 O   0  0  0  0  0  0  0  0  0  0  0  0
  -22.6290  -29.5350   22.5630 C   0  0  0  0  0  0  0  0  0  0  0  0
  -21.3000  -29.3540   22.4550 N   0  0  0  0  0  0  0  0  0  0  0  0
  -23.3160  -28.9280   23.3920 O   0  0  0  0  0  0  0  0  0  0  0  0
  -20.8110  -29.8880   21.7490 H   0  0  0  0  0  0  0  0  0  0  0  0
  -17.9400  -28.0760   22.9600 C   0  0  0  0  0  0  0  0  0  0  0  0
  -20.4890  -28.4180   23.2410 C   0  0  0  0  0  3  0  0  0  0  0  0
  -20.6360  -26.9700   22.7140 C   0  0  0  0  0  2  0  0  0  0  0  0
  -19.5520  -26.5840   21.7030 C   0  0  0  0  0  2  0  0  0  0  0  0
  -18.1610  -26.7110   22.3280 C   0  0  0  0  0  2  0  0  0  0  0  0
  -19.0340  -28.8840   23.3730 C   0  0  0  0  0  0  0  0  0  0  0  0
  -18.7740  -30.1570   23.9220 C   0  0  0  0  0  3  0  0  0  0  0  0
  -17.4550  -30.6250   24.0620 C   0  0  0  0  0  3  0  0  0  0  0  0
  -16.3750  -29.8130   23.6710 C   0  0  0  0  0  3  0  0  0  0  0  0
  -16.6190  -28.5410   23.1250 C   0  0  0  0  0  3  0  0  0  0  0  0
  -25.8440  -32.5600   23.7540 C   0  0  0  0  0  3  0  0  0  0  0  0
  -25.5410  -33.9540   24.1130 N   0  0  0  0  0  0  0  0  0  0  0  0
  -25.8720  -35.0250   23.3770 C   0  0  0  0  0  0  0  0  0  0  0  0
  -26.5260  -34.9390   22.3340 O   0  0  0  0  0  0  0  0  0  0  0  0
  -24.9460  -34.0890   24.9170 H   0  0  0  0  0  0  0  0  0  0  0  0
  -24.1670  -36.8490   23.0840 C   0  0  0  0  0  1  0  0  0  0  0  0
  -25.4100  -36.4100   23.8760 C   0  0  0  0  0  3  0  0  0  0  0  0
  -27.5660  -37.2460   24.7070 C   0  0  0  0  0  1  0  0  0  0  0  0
  -26.4580  -37.4510   23.7740 N   0  0  0  0  0  0  0  0  0  0  0  0
  -26.0720  -38.3760   23.9410 H   0  0  0  0  0  0  0  0  0  0  0  0
  -26.3940  -31.7800   25.0140 C   0  0  1  0  0  0  0  0  0  0  0  0
  -25.3310  -31.5390   26.1160 C   0  0  0  0  0  1  0  0  0  0  0  0
  -26.9670  -30.4040   24.6010 C   0  0  0  0  0  1  0  0  0  0  0  0
  -27.5640  -32.5760   25.6470 C   0  0  0  0  0  1  0  0  0  0  0  0
  1 48  1  0
  2  1  2  0
  2  3  1  0
  4  6  2  0
  4  5  1  0
  5  8  2  0
  6  9  1  0
  8 18  1  0
  8  7  1  0
  9  2  1  0
  9  7  2  0
 10 18  1  0
 11 16  1  0
 12 13  1  0
 12 11  1  0
 14 13  1  0
 14 23  1  0
 14 15  1  0
 16 10  1  0
 16 15  1  0
 17 10  2  0
 18 19  1  0
 20 21  2  0
 21 40  1  0
 22 21  1  0
 22 25  1  0
 23 24  1  0
 23 20  1  0
 24 22  2  0
 25 26  1  0
 26 27  2  0
 28 31  1  0
 28 27  1  0
 29 28  2  0
 30 29  1  0
 30 25  2  0
 31 32  1  0
 32 33  1  0
 33 34  2  0
 35 34  1  0
 35 39  1  0
 36 35  2  0
 37 32  2  0
 37 36  1  0
 38 37  1  0
 40 41  1  0
 41 44  1  0
 41 43  1  0
 42 40  2  0
 45 46  1  0
 45 20  1  0
 47 45  1  0
 49 50  1  0
 49 48  1  0
 50 53  1  0
 50 51  1  0
 52 50  1  0
 54 55  1  0
 54  1  1  0
 56 67  2  0
 57 55  1  0
 57 62  1  0
 58 66  1  0
 58 68  1  0
 59 65  1  0
 59 61  1  0
 60 66  1  0
 61 60  1  0
 62 61  2  0
 63 64  1  0
 63 57  2  0
 64 59  2  0
 65 58  1  0
 66 56  1  0
 68 70  2  0
 69 68  1  0
 71 69  1  0
 72 81  2  0
 72 77  1  0
 73 69  1  0
 73 77  1  0
 74 73  1  0
 75 76  1  0
 75 74  1  0
 76 72  1  0
 77 78  2  0
 78 79  1  0
 80 79  2  0
 81 80  1  0
 82 56  1  0
 82 83  1  0
 82 92  1  0
 83 86  1  0
 84 88  1  0
 84 83  1  0
 85 84  2  0
 88 87  1  0
 90 88  1  0
 90 91  1  0
 90 89  1  0
 92 95  1  1
 92 93  1  0
 94 92  1  0
M  ISO  4  10 100  18 100  54 101  55 101
M  END
>  <TORSDO>  (53) 
F 22

>  <SCORE>  (53) 
-14.029

>  <name>  (53) 
52

>  <ligand_id>  (53) 
52

>  <original_smiles>  (53) 
[H]c1c([H])c(N([H])C(=O)N2C([H])([H])C([H])([H])C([H])([H])C([H])(n3nc(-c4c([H])c([H])c(Oc5c([H])c([H])c(F)c([H])c5F)c([H])c4[H])c(C(=O)N([H])[H])c3N([H])[H])C2([H])[H])c([H])c(N([H])C([H])(C([H])([H])Oc2c([H])c([H])c3c(c2[H])C([H])([H])N(C(=O)C([H])(N([H])C(=O)C([H])(N([H])C([H])([H])[H])C([H])([H])[H])C(C([H])([H])[H])(C([H])([H])[H])C([H])([H])[H])C([H])(C(=O)N([H])C2([H])c4c([H])c([H])c([H])c([H])c4C([H])([H])C([H])([H])C2([H])[H])C3([H])[H])C([H])([H])C([H])([H])[N+]([H])([H])[H])c1[H]

>  <smiles>  (53) 
[H]c1c([H])c(N([H])C(=O)N2C([H])([H])C([H])([H])C([H])([H])C([H])(n3nc(-c4c([H])c([H])c(Oc5c([H])c([H])c(F)c([H])c5F)c([H])c4[H])c(C(=O)N([H])[H])c3N([H])[H])C2([H])[H])c([H])c(N([H])C([H])(C([H])([H])Oc2c([H])c([H])c3c(c2[H])C([H])([H])N(C(=O)C([H])(N([H])C(=O)C([H])(N([H])C([H])([H])[H])C([H])([H])[H])C(C([H])([H])[H])(C([H])([H])[H])C([H])([H])[H])C([H])(C(=O)N([H])C2([H])c4c([H])c([H])c([H])c([H])c4C([H])([H])C([H])([H])C2([H])[H])C3([H])[H])C([H])([H])C([H])([H])[N+]([H])([H])[H])c1[H]

$$$$
53:0:0
     RDKit          3D

 95103  0  0  1  0  0  0  0  0999 V2000
  -30.3120  -22.0100   21.6870 C   0  0  0  0  0  0  0  0  0  0  0  0
  -31.1080  -20.9250   21.7200 N   0  0  0  0  0  0  0  0  0  0  0  0
  -29.1070  -21.9850   21.4150 O   0  0  0  0  0  0  0  0  0  0  0  0
  -32.0830  -21.1340   21.8880 H   0  0  0  0  0  0  0  0  0  0  0  0
  -31.8990  -18.6590   21.3920 C   0  0  0  0  0  3  0  0  0  0  0  0
  -29.4970  -19.0110   21.5100 C   0  0  0  0  0  3  0  0  0  0  0  0
  -31.6930  -17.2750   21.2230 C   0  0  0  0  0  3  0  0  0  0  0  0
  -29.2910  -17.6250   21.3460 C   0  0  0  0  0  3  0  0  0  0  0  0
  -30.8080  -19.5450   21.5250 C   0  0  0  0  0  0  0  0  0  0  0  0
  -30.3820  -16.7440   21.1840 C   0  0  0  0  0  0  0  0  0  0  0  0
  -30.7100  -14.4560   20.2330 C   0  0  0  0  0  0  0  0  0  0  0  0
  -30.3620  -12.3520   18.9880 C   0  0  0  0  0  2  0  0  0  0  0  0
  -29.3770  -12.5920   17.8260 C   0  0  0  0  0  2  0  0  0  0  0  0
  -27.9190  -12.4360   18.3020 C   0  0  0  0  0  2  0  0  0  0  0  0
  -27.6260  -13.2360   19.6000 C   0  0  0  0  0  3  0  0  0  0  0  0
  -28.7150  -12.9680   20.6630 C   0  0  0  0  0  2  0  0  0  0  0  0
  -30.0260  -13.2910   20.0690 N   0  0  0  0  0  0  0  0  0  0  0  0
  -31.7680  -14.6930   19.6430 O   0  0  0  0  0  0  0  0  0  0  0  0
  -30.1040  -15.3550   21.0310 N   0  0  0  0  0  0  0  0  0  0  0  0
  -29.2270  -15.0360   21.4100 H   0  0  0  0  0  0  0  0  0  0  0  0
  -25.2480  -13.8230   20.3950 C   0  0  0  0  0  0  0  0  0  0  0  0
  -24.1940  -13.0400   20.7830 C   0  0  0  0  0  0  0  0  0  0  0  0
  -24.6560  -11.6900   20.7060 C   0  0  0  0  0  0  0  0  0  0  0  0
  -26.2870  -12.9500   20.1130 N   0  0  0  0  0  0  0  0  0  0  0  0
  -25.9360  -11.6610   20.3550 N   0  0  0  0  0  0  0  0  0  0  0  0
  -23.9410  -10.4210   20.8940 C   0  0  0  0  0  0  0  0  0  0  0  0
  -24.3510   -9.4790   21.8630 C   0  0  0  0  0  3  0  0  0  0  0  0
  -23.6360   -8.2740   22.0360 C   0  0  0  0  0  3  0  0  0  0  0  0
  -22.4980   -8.0030   21.2410 C   0  0  0  0  0  0  0  0  0  0  0  0
  -22.1080   -8.9350   20.2620 C   0  0  0  0  0  3  0  0  0  0  0  0
  -22.8230  -10.1310   20.0870 C   0  0  0  0  0  3  0  0  0  0  0  0
  -21.7580   -6.8490   21.3210 O   0  0  0  0  0  0  0  0  0  0  0  0
  -21.5910   -6.1810   22.5080 C   0  0  0  0  0  0  0  0  0  0  0  0
  -21.0000   -6.7970   23.6320 C   0  0  0  0  0  3  0  0  0  0  0  0
  -20.7850   -6.0540   24.8110 C   0  0  0  0  0  3  0  0  0  0  0  0
  -21.1510   -4.6950   24.8620 C   0  0  0  0  0  0  0  0  0  0  0  0
  -21.7350   -4.0790   23.7420 C   0  0  0  0  0  3  0  0  0  0  0  0
  -21.9510   -4.8200   22.5670 C   0  0  0  0  0  0  0  0  0  0  0  0
  -22.4950   -4.2160   21.4830 F   0  0  0  0  0  0  0  0  0  0  0  0
  -20.9380   -3.9790   25.9910 F   0  0  0  0  0  0  0  0  0  0  0  0
  -22.8050  -13.5060   21.1120 C   0  0  0  0  0  0  0  0  0  0  0  0
  -22.1100  -12.7900   21.9890 N   0  0  0  0  0  0  0  0  0  0  0  0
  -22.3450  -14.5410   20.6300 O   0  0  0  0  0  0  0  0  0  0  0  0
  -22.4940  -11.9520   22.4010 H   0  0  0  0  0  0  0  0  0  0  0  0
  -21.1790  -13.0830   22.2520 H   0  0  0  0  0  0  0  0  0  0  0  0
  -25.4030  -15.1970   20.2410 N   0  0  0  0  0  0  0  0  0  0  0  0
  -24.6390  -15.8480   20.3850 H   0  0  0  0  0  0  0  0  0  0  0  0
  -26.2400  -15.6420   19.8860 H   0  0  0  0  0  0  0  0  0  0  0  0
  -31.0060  -23.3430   22.0130 C   0  0  0  0  0  2  0  0  0  0  0  0
  -30.1280  -25.4060   20.9020 C   0  0  0  0  0  0  0  0  0  0  0  0
  -30.1330  -24.5180   21.9060 N   0  0  0  0  0  0  0  0  0  0  0  0
  -30.8560  -25.2840   19.9130 O   0  0  0  0  0  0  0  0  0  0  0  0
  -29.4710  -24.6560   22.6580 H   0  0  0  0  0  0  0  0  0  0  0  0
  -29.1840  -26.6140   21.0200 C   0  0  0  0  0  2  0  0  0  0  0  0
  -28.3950  -26.7050   19.8370 O   0  0  0  0  0  0  0  0  0  0  0  0
  -24.4900  -31.7250   23.1110 C   0  0  0  0  0  0  0  0  0  0  0  0
  -27.2390  -27.4430   19.9210 C   0  0  0  0  0  0  0  0  0  0  0  0
  -23.3090  -30.3240   21.4470 C   0  0  0  0  0  3  0  0  0  0  0  0
  -24.7960  -28.8570   19.9830 C   0  0  0  0  0  0  0  0  0  0  0  0
  -25.8180  -30.7630   21.2380 C   0  0  0  0  0  2  0  0  0  0  0  0
  -25.9380  -29.4060   20.5790 C   0  0  0  0  0  0  0  0  0  0  0  0
  -27.1620  -28.7020   20.5590 C   0  0  0  0  0  3  0  0  0  0  0  0
  -26.0860  -26.9100   19.3120 C   0  0  0  0  0  3  0  0  0  0  0  0
  -24.8620  -27.6030   19.3500 C   0  0  0  0  0  3  0  0  0  0  0  0
  -23.5260  -29.6750   20.0540 C   0  0  0  0  0  2  0  0  0  0  0  0
  -24.5570  -30.9510   21.9910 N   0  0  0  0  0  0  0  0  0  0  0  0
  -23.4080  -31.9560   23.6660 O   0  0  0  0  0  0  0  0  0  0  0  0
  -22.6950  -29.2660   22.3920 C   0  0  0  0  0  0  0  0  0  0  0  0
  -21.3750  -29.0480   22.2680 N   0  0  0  0  0  0  0  0  0  0  0  0
  -23.4020  -28.6450   23.1910 O   0  0  0  0  0  0  0  0  0  0  0  0
  -20.8660  -29.6030   21.5960 H   0  0  0  0  0  0  0  0  0  0  0  0
  -18.0410  -27.7510   22.7570 C   0  0  0  0  0  0  0  0  0  0  0  0
  -20.5900  -28.0720   23.0240 C   0  0  0  0  0  3  0  0  0  0  0  0
  -20.7290  -26.6560   22.4180 C   0  0  0  0  0  2  0  0  0  0  0  0
  -19.6320  -26.3240   21.4020 C   0  0  0  0  0  2  0  0  0  0  0  0
  -18.2500  -26.4200   22.0550 C   0  0  0  0  0  2  0  0  0  0  0  0
  -19.1390  -28.5340   23.1980 C   0  0  0  0  0  0  0  0  0  0  0  0
  -18.8910  -29.7800   23.8140 C   0  0  0  0  0  3  0  0  0  0  0  0
  -17.5740  -30.2430   23.9940 C   0  0  0  0  0  3  0  0  0  0  0  0
  -16.4880  -29.4560   23.5710 C   0  0  0  0  0  3  0  0  0  0  0  0
  -16.7230  -28.2120   22.9590 C   0  0  0  0  0  3  0  0  0  0  0  0
  -25.7670  -32.3750   23.7310 C   0  0  0  0  0  3  0  0  0  0  0  0
  -26.3050  -31.6050   24.9990 C   0  0  1  0  0  0  0  0  0  0  0  0
  -25.2200  -31.3360   26.0680 C   0  0  0  0  0  1  0  0  0  0  0  0
  -26.9150  -30.2430   24.5910 C   0  0  0  0  0  1  0  0  0  0  0  0
  -27.4410  -32.4170   25.6630 C   0  0  0  0  0  1  0  0  0  0  0  0
  -25.4340  -33.7650   24.0690 N   0  0  0  0  0  0  0  0  0  0  0  0
  -25.7370  -34.8250   23.3080 C   0  0  0  0  0  0  0  0  0  0  0  0
  -26.4000  -34.7380   22.2700 O   0  0  0  0  0  0  0  0  0  0  0  0
  -24.8440  -33.9060   24.8760 H   0  0  0  0  0  0  0  0  0  0  0  0
  -23.9700  -36.5820   22.9720 C   0  0  0  0  0  1  0  0  0  0  0  0
  -25.2250  -36.2020   23.7720 C   0  0  0  0  0  3  0  0  0  0  0  0
  -27.3440  -37.1330   24.5920 C   0  0  0  0  0  1  0  0  0  0  0  0
  -26.2360  -37.2760   23.6530 N   0  0  0  0  0  0  0  0  0  0  0  0
  -25.8100  -38.1880   23.7980 H   0  0  0  0  0  0  0  0  0  0  0  0
  1  2  1  0
  1 49  1  0
  2  4  1  0
  3  1  2  0
  5  9  1  0
  6  9  2  0
  7  5  2  0
  8  6  1  0
  9  2  1  0
 10  7  1  0
 10  8  2  0
 11 19  1  0
 12 17  1  0
 13 14  1  0
 13 12  1  0
 15 14  1  0
 15 24  1  0
 15 16  1  0
 17 11  1  0
 17 16  1  0
 18 11  2  0
 19 10  1  0
 19 20  1  0
 21 22  2  0
 22 41  1  0
 23 22  1  0
 23 26  1  0
 24 25  1  0
 24 21  1  0
 25 23  2  0
 26 27  1  0
 27 28  2  0
 29 32  1  0
 29 28  1  0
 30 29  2  0
 31 30  1  0
 31 26  2  0
 32 33  1  0
 33 38  2  0
 33 34  1  0
 34 35  2  0
 35 36  1  0
 36 40  1  0
 37 36  2  0
 38 37  1  0
 39 38  1  0
 41 42  1  0
 42 45  1  0
 42 44  1  0
 43 41  2  0
 46 47  1  0
 46 21  1  0
 48 46  1  0
 50 54  1  0
 50 51  1  0
 51 49  1  0
 51 53  1  0
 52 50  2  0
 55 57  1  0
 55 54  1  0
 56 67  2  0
 57 62  1  0
 58 66  1  0
 58 68  1  0
 59 65  1  0
 59 61  1  0
 60 66  1  0
 61 60  1  0
 62 61  2  0
 63 64  1  0
 63 57  2  0
 64 59  2  0
 65 58  1  0
 66 56  1  0
 68 70  2  0
 69 68  1  0
 71 69  1  0
 72 81  2  0
 72 77  1  0
 73 69  1  0
 73 77  1  0
 74 73  1  0
 75 76  1  0
 75 74  1  0
 76 72  1  0
 77 78  2  0
 78 79  1  0
 80 79  2  0
 81 80  1  0
 82 56  1  0
 82 87  1  0
 82 83  1  0
 83 86  1  1
 83 84  1  0
 85 83  1  0
 87 90  1  0
 88 92  1  0
 88 87  1  0
 89 88  2  0
 92 91  1  0
 94 92  1  0
 94 95  1  0
 94 93  1  0
M  ISO  4  11 100  19 100  54 101  55 101
M  END
>  <TORSDO>  (54) 
F 20

>  <SCORE>  (54) 
-12.715

>  <name>  (54) 
53

>  <ligand_id>  (54) 
53

>  <original_smiles>  (54) 
[H]c1c([H])c([H])c2c(c1[H])C([H])([H])C([H])([H])C([H])([H])C2([H])N([H])C(=O)C1([H])N(C(=O)C([H])(N([H])C(=O)C([H])(N([H])C([H])([H])[H])C([H])([H])[H])C(C([H])([H])[H])(C([H])([H])[H])C([H])([H])[H])C([H])([H])c2c([H])c(OC([H])([H])C(=O)N([H])C([H])([H])C(=O)N([H])c3c([H])c([H])c(N([H])C(=O)N4C([H])([H])C([H])([H])C([H])([H])C([H])(n5nc(-c6c([H])c([H])c(Oc7c([H])c([H])c(F)c([H])c7F)c([H])c6[H])c(C(=O)N([H])[H])c5N([H])[H])C4([H])[H])c([H])c3[H])c([H])c([H])c2C1([H])[H]

>  <smiles>  (54) 
[H]c1c([H])c([H])c2c(c1[H])C([H])([H])C([H])([H])C([H])([H])C2([H])N([H])C(=O)C1([H])N(C(=O)C([H])(N([H])C(=O)C([H])(N([H])C([H])([H])[H])C([H])([H])[H])C(C([H])([H])[H])(C([H])([H])[H])C([H])([H])[H])C([H])([H])c2c([H])c(OC([H])([H])C(=O)N([H])C([H])([H])C(=O)N([H])c3c([H])c([H])c(N([H])C(=O)N4C([H])([H])C([H])([H])C([H])([H])C([H])(n5nc(-c6c([H])c([H])c(Oc7c([H])c([H])c(F)c([H])c7F)c([H])c6[H])c(C(=O)N([H])[H])c5N([H])[H])C4([H])[H])c([H])c3[H])c([H])c([H])c2C1([H])[H]

$$$$
54:0:0
     RDKit          3D

 92100  0  0  1  0  0  0  0  0999 V2000
  -30.6860  -18.6010   20.0990 C   0  0  0  0  0  3  0  0  0  0  0  0
  -28.3670  -18.2130   20.2080 C   0  0  0  0  0  3  0  0  0  0  0  0
  -29.6580  -17.5920   20.2000 C   0  0  0  0  0  0  0  0  0  0  0  0
  -29.1170  -20.6410   20.0100 C   0  0  0  0  0  0  0  0  0  0  0  0
  -30.4350  -20.0470   20.0100 C   0  0  0  0  0  0  0  0  0  0  0  0
  -28.1100  -19.6310   20.1100 C   0  0  0  0  0  0  0  0  0  0  0  0
  -31.5090  -20.8660   19.8910 F   0  0  0  0  0  0  0  0  0  0  0  0
  -26.8170  -20.0390   20.1010 F   0  0  0  0  0  0  0  0  0  0  0  0
  -30.5760  -14.9610   20.0130 C   0  0  0  0  0  0  0  0  0  0  0  0
  -30.4300  -12.6190   19.0520 C   0  0  0  0  0  2  0  0  0  0  0  0
  -29.4400  -12.6160   17.8620 C   0  0  0  0  0  2  0  0  0  0  0  0
  -27.9900  -12.4240   18.3480 C   0  0  0  0  0  2  0  0  0  0  0  0
  -27.6490  -13.3320   19.5570 C   0  0  0  0  0  3  0  0  0  0  0  0
  -28.7500  -13.2840   20.6400 C   0  0  0  0  0  2  0  0  0  0  0  0
  -30.0090  -13.6890   19.9960 N   0  0  0  0  0  0  0  0  0  0  0  0
  -31.7480  -15.0830   19.6380 O   0  0  0  0  0  0  0  0  0  0  0  0
  -29.7270  -16.0580   20.2980 N   0  0  0  0  0  0  0  0  0  0  0  0
  -28.8450  -15.6760   20.6030 H   0  0  0  0  0  0  0  0  0  0  0  0
  -25.3070  -13.9420   20.3980 C   0  0  0  0  0  0  0  0  0  0  0  0
  -24.2460  -13.1800   20.8040 C   0  0  0  0  0  0  0  0  0  0  0  0
  -24.6850  -11.8220   20.7320 C   0  0  0  0  0  0  0  0  0  0  0  0
  -26.3250  -13.0510   20.1020 N   0  0  0  0  0  0  0  0  0  0  0  0
  -25.9620  -11.7690   20.3680 N   0  0  0  0  0  0  0  0  0  0  0  0
  -23.9460  -10.5690   20.9340 C   0  0  0  0  0  0  0  0  0  0  0  0
  -24.3890   -9.5890   21.8490 C   0  0  0  0  0  3  0  0  0  0  0  0
  -23.6500   -8.4010   22.0380 C   0  0  0  0  0  3  0  0  0  0  0  0
  -22.4540   -8.1850   21.3130 C   0  0  0  0  0  0  0  0  0  0  0  0
  -22.0300   -9.1550   20.3880 C   0  0  0  0  0  3  0  0  0  0  0  0
  -22.7690  -10.3340   20.1960 C   0  0  0  0  0  3  0  0  0  0  0  0
  -21.6850   -7.0510   21.4140 O   0  0  0  0  0  0  0  0  0  0  0  0
  -21.6350   -6.3170   22.5720 C   0  0  0  0  0  0  0  0  0  0  0  0
  -21.1960   -6.8760   23.7910 C   0  0  0  0  0  3  0  0  0  0  0  0
  -21.0930   -6.0670   24.9410 C   0  0  0  0  0  3  0  0  0  0  0  0
  -21.4190   -4.6990   24.8710 C   0  0  0  0  0  0  0  0  0  0  0  0
  -21.8500   -4.1390   23.6560 C   0  0  0  0  0  3  0  0  0  0  0  0
  -21.9550   -4.9450   22.5090 C   0  0  0  0  0  0  0  0  0  0  0  0
  -22.3510   -4.3950   21.3360 F   0  0  0  0  0  0  0  0  0  0  0  0
  -21.3130   -3.9200   25.9730 F   0  0  0  0  0  0  0  0  0  0  0  0
  -22.8690  -13.6750   21.1370 C   0  0  0  0  0  0  0  0  0  0  0  0
  -22.1690  -12.9860   22.0300 N   0  0  0  0  0  0  0  0  0  0  0  0
  -22.4240  -14.7090   20.6400 O   0  0  0  0  0  0  0  0  0  0  0  0
  -22.5430  -12.1490   22.4530 H   0  0  0  0  0  0  0  0  0  0  0  0
  -21.2470  -13.3000   22.2950 H   0  0  0  0  0  0  0  0  0  0  0  0
  -25.4830  -15.3120   20.2270 N   0  0  0  0  0  0  0  0  0  0  0  0
  -24.7120  -15.9610   20.3450 H   0  0  0  0  0  0  0  0  0  0  0  0
  -26.2770  -15.7240   19.7550 H   0  0  0  0  0  0  0  0  0  0  0  0
  -29.0990  -23.4240   19.9700 C   0  0  0  0  0  0  0  0  0  0  0  0
  -28.6440  -22.0910   19.8350 N   0  0  0  0  0  0  0  0  0  0  0  0
  -30.2370  -23.6590   20.3810 O   0  0  0  0  0  0  0  0  0  0  0  0
  -27.6650  -22.0970   19.5810 H   0  0  0  0  0  0  0  0  0  0  0  0
  -28.1250  -24.7080   19.5750 C   0  0  0  0  0  2  0  0  0  0  0  0
  -28.4190  -26.2040   19.8970 O   0  0  0  0  0  0  0  0  0  0  0  0
  -24.5970  -31.6340   23.1160 C   0  0  0  0  0  0  0  0  0  0  0  0
  -27.3420  -27.1680   19.8690 C   0  0  0  0  0  0  0  0  0  0  0  0
  -23.4550  -30.2960   21.3920 C   0  0  0  0  0  3  0  0  0  0  0  0
  -24.9630  -28.8450   19.9030 C   0  0  0  0  0  0  0  0  0  0  0  0
  -26.0030  -30.6410   21.2740 C   0  0  0  0  0  2  0  0  0  0  0  0
  -26.1230  -29.2900   20.5490 C   0  0  0  0  0  0  0  0  0  0  0  0
  -27.3130  -28.4690   20.5170 C   0  0  0  0  0  3  0  0  0  0  0  0
  -26.1500  -26.8310   19.1860 C   0  0  0  0  0  3  0  0  0  0  0  0
  -24.9890  -27.6290   19.2080 C   0  0  0  0  0  3  0  0  0  0  0  0
  -23.7100  -29.7020   19.9820 C   0  0  0  0  0  2  0  0  0  0  0  0
  -24.7030  -30.8760   21.9830 N   0  0  0  0  0  0  0  0  0  0  0  0
  -23.4970  -31.8610   23.6450 O   0  0  0  0  0  0  0  0  0  0  0  0
  -22.7940  -29.2200   22.2890 C   0  0  0  0  0  0  0  0  0  0  0  0
  -21.4670  -29.0430   22.1600 N   0  0  0  0  0  0  0  0  0  0  0  0
  -23.4770  -28.5480   23.0660 O   0  0  0  0  0  0  0  0  0  0  0  0
  -20.9710  -29.6380   21.5110 H   0  0  0  0  0  0  0  0  0  0  0  0
  -18.0920  -27.8240   22.6600 C   0  0  0  0  0  0  0  0  0  0  0  0
  -20.6590  -28.0510   22.8750 C   0  0  0  0  0  3  0  0  0  0  0  0
  -20.7330  -26.6700   22.1830 C   0  0  0  0  0  2  0  0  0  0  0  0
  -19.6010  -26.4360   21.1770 C   0  0  0  0  0  2  0  0  0  0  0  0
  -18.2400  -26.5340   21.8700 C   0  0  0  0  0  2  0  0  0  0  0  0
  -19.2270  -28.5440   23.1190 C   0  0  0  0  0  0  0  0  0  0  0  0
  -19.0330  -29.7530   23.8210 C   0  0  0  0  0  3  0  0  0  0  0  0
  -17.7360  -30.2430   24.0670 C   0  0  0  0  0  3  0  0  0  0  0  0
  -16.6160  -29.5210   23.6220 C   0  0  0  0  0  3  0  0  0  0  0  0
  -16.7940  -28.3120   22.9250 C   0  0  0  0  0  3  0  0  0  0  0  0
  -25.8490  -32.2700   23.7920 C   0  0  0  0  0  3  0  0  0  0  0  0
  -25.5120  -33.6580   24.1440 N   0  0  0  0  0  0  0  0  0  0  0  0
  -25.8080  -34.7300   23.3980 C   0  0  0  0  0  0  0  0  0  0  0  0
  -26.4620  -34.6560   22.3540 O   0  0  0  0  0  0  0  0  0  0  0  0
  -24.9280  -33.7870   24.9580 H   0  0  0  0  0  0  0  0  0  0  0  0
  -24.0160  -36.4780   23.1290 C   0  0  0  0  0  1  0  0  0  0  0  0
  -25.3020  -36.1030   23.8850 C   0  0  0  0  0  3  0  0  0  0  0  0
  -27.4370  -37.0500   24.6430 C   0  0  0  0  0  1  0  0  0  0  0  0
  -26.2980  -37.1860   23.7380 N   0  0  0  0  0  0  0  0  0  0  0  0
  -25.8710  -38.0940   23.8980 H   0  0  0  0  0  0  0  0  0  0  0  0
  -26.3320  -31.4790   25.0710 C   0  0  1  0  0  0  0  0  0  0  0  0
  -25.2080  -31.2130   26.0990 C   0  0  0  0  0  1  0  0  0  0  0  0
  -26.9400  -30.1140   24.6770 C   0  0  0  0  0  1  0  0  0  0  0  0
  -27.4550  -32.2710   25.7820 C   0  0  0  0  0  1  0  0  0  0  0  0
  1  3  1  0
  3  2  2  0
  3 17  1  0
  4  6  2  0
  5  4  1  0
  5  1  2  0
  6  2  1  0
  7  5  1  0
  8  6  1  0
  9 17  1  0
 10 15  1  0
 11 12  1  0
 11 10  1  0
 13 12  1  0
 13 22  1  0
 13 14  1  0
 15  9  1  0
 15 14  1  0
 16  9  2  0
 17 18  1  0
 19 20  2  0
 20 39  1  0
 21 20  1  0
 21 24  1  0
 22 23  1  0
 22 19  1  0
 23 21  2  0
 24 25  1  0
 25 26  2  0
 27 30  1  0
 27 26  1  0
 28 27  2  0
 29 28  1  0
 29 24  2  0
 30 31  1  0
 31 32  1  0
 32 33  2  0
 34 33  1  0
 34 38  1  0
 35 34  2  0
 36 31  2  0
 36 35  1  0
 37 36  1  0
 39 40  1  0
 40 43  1  0
 40 42  1  0
 41 39  2  0
 44 45  1  0
 44 19  1  0
 46 44  1  0
 47 49  2  0
 48 47  1  0
 48  4  1  0
 50 48  1  0
 51 52  1  0
 51 47  1  0
 53 64  2  0
 54 52  1  0
 54 59  1  0
 55 63  1  0
 55 65  1  0
 56 62  1  0
 56 58  1  0
 57 63  1  0
 58 57  1  0
 59 58  2  0
 60 61  1  0
 60 54  2  0
 61 56  2  0
 62 55  1  0
 63 53  1  0
 65 67  2  0
 66 65  1  0
 68 66  1  0
 69 78  2  0
 69 74  1  0
 70 66  1  0
 70 74  1  0
 71 70  1  0
 72 73  1  0
 72 71  1  0
 73 69  1  0
 74 75  2  0
 75 76  1  0
 77 76  2  0
 78 77  1  0
 79 53  1  0
 79 80  1  0
 79 89  1  0
 80 83  1  0
 81 85  1  0
 81 80  1  0
 82 81  2  0
 85 84  1  0
 87 85  1  0
 87 88  1  0
 87 86  1  0
 89 92  1  1
 89 90  1  0
 91 89  1  0
M  ISO  4   9 100  17 100  51 101  52 101
M  END
>  <TORSDO>  (55) 
F 18

>  <SCORE>  (55) 
-14.049

>  <name>  (55) 
54

>  <ligand_id>  (55) 
54

>  <original_smiles>  (55) 
[H]c1c([H])c([H])c2c(c1[H])C([H])([H])C([H])([H])C([H])([H])C2([H])N([H])C(=O)C1([H])N(C(=O)C([H])(N([H])C(=O)C([H])(N([H])C([H])([H])[H])C([H])([H])[H])C(C([H])([H])[H])(C([H])([H])[H])C([H])([H])[H])C([H])([H])c2c([H])c(OC([H])([H])C(=O)N([H])c3c(F)c([H])c(N([H])C(=O)N4C([H])([H])C([H])([H])C([H])([H])C([H])(n5nc(-c6c([H])c([H])c(Oc7c([H])c([H])c(F)c([H])c7F)c([H])c6[H])c(C(=O)N([H])[H])c5N([H])[H])C4([H])[H])c([H])c3F)c([H])c([H])c2C1([H])[H]

>  <smiles>  (55) 
[H]c1c([H])c([H])c2c(c1[H])C([H])([H])C([H])([H])C([H])([H])C2([H])N([H])C(=O)C1([H])N(C(=O)C([H])(N([H])C(=O)C([H])(N([H])C([H])([H])[H])C([H])([H])[H])C(C([H])([H])[H])(C([H])([H])[H])C([H])([H])[H])C([H])([H])c2c([H])c(OC([H])([H])C(=O)N([H])c3c(F)c([H])c(N([H])C(=O)N4C([H])([H])C([H])([H])C([H])([H])C([H])(n5nc(-c6c([H])c([H])c(Oc7c([H])c([H])c(F)c([H])c7F)c([H])c6[H])c(C(=O)N([H])[H])c5N([H])[H])C4([H])[H])c([H])c3F)c([H])c([H])c2C1([H])[H]

$$$$
55:0:0
     RDKit          3D

 98106  0  0  1  0  0  0  0  0999 V2000
  -30.4370  -19.0030   20.4760 N   0  0  0  0  0  0  0  0  0  0  0  0
  -31.7420  -18.8070   19.8220 C   0  0  0  0  0  2  0  0  0  0  0  0
  -34.9490  -20.8930   20.1600 C   0  0  0  0  0  3  0  0  0  0  0  0
  -33.8960  -20.1400   19.6030 C   0  0  0  0  0  3  0  0  0  0  0  0
  -34.9920  -21.1230   21.5490 C   0  0  0  0  0  3  0  0  0  0  0  0
  -32.8740  -19.6250   20.4290 C   0  0  0  0  0  0  0  0  0  0  0  0
  -33.9880  -20.5930   22.3810 C   0  0  0  0  0  0  0  0  0  0  0  0
  -32.9340  -19.8410   21.8260 C   0  0  0  0  0  0  0  0  0  0  0  0
  -34.0400  -20.8030   23.7180 F   0  0  0  0  0  0  0  0  0  0  0  0
  -31.9860  -19.3220   22.6440 F   0  0  0  0  0  0  0  0  0  0  0  0
  -29.6780  -17.7330   20.4390 C   0  0  0  0  0  2  0  0  0  0  0  0
  -30.2240  -16.6860   21.4610 C   0  0  0  0  0  2  0  0  0  0  0  0
  -30.5540  -14.3150   20.6470 C   0  0  0  0  0  0  0  0  0  0  0  0
  -30.3690  -12.0920   19.5780 C   0  0  0  0  0  2  0  0  0  0  0  0
  -29.4210  -12.1860   18.3640 C   0  0  0  0  0  2  0  0  0  0  0  0
  -27.9520  -12.0080   18.7940 C   0  0  0  0  0  2  0  0  0  0  0  0
  -27.5730  -12.8950   20.0100 C   0  0  0  0  0  3  0  0  0  0  0  0
  -28.6270  -12.7620   21.1310 C   0  0  0  0  0  2  0  0  0  0  0  0
  -29.9390  -13.1040   20.5550 N   0  0  0  0  0  0  0  0  0  0  0  0
  -31.6690  -14.5380   20.1680 O   0  0  0  0  0  0  0  0  0  0  0  0
  -29.8140  -15.2970   21.1970 N   0  0  0  0  0  0  0  0  0  0  0  0
  -28.8970  -15.0290   21.5210 H   0  0  0  0  0  0  0  0  0  0  0  0
  -25.1630  -13.4590   20.7140 C   0  0  0  0  0  0  0  0  0  0  0  0
  -24.1110  -12.6680   21.0920 C   0  0  0  0  0  0  0  0  0  0  0  0
  -24.6010  -11.3260   21.0730 C   0  0  0  0  0  0  0  0  0  0  0  0
  -26.2260  -12.5970   20.4910 N   0  0  0  0  0  0  0  0  0  0  0  0
  -25.8910  -11.3110   20.7640 N   0  0  0  0  0  0  0  0  0  0  0  0
  -23.9030  -10.0500   21.2740 C   0  0  0  0  0  0  0  0  0  0  0  0
  -24.3440   -9.1110   22.2320 C   0  0  0  0  0  3  0  0  0  0  0  0
  -23.6440   -7.8990   22.4210 C   0  0  0  0  0  3  0  0  0  0  0  0
  -22.4920   -7.6180   21.6500 C   0  0  0  0  0  0  0  0  0  0  0  0
  -22.0700   -8.5460   20.6820 C   0  0  0  0  0  3  0  0  0  0  0  0
  -22.7710   -9.7490   20.4920 C   0  0  0  0  0  3  0  0  0  0  0  0
  -21.7640   -6.4560   21.7460 O   0  0  0  0  0  0  0  0  0  0  0  0
  -21.7070   -5.7370   22.9130 C   0  0  0  0  0  0  0  0  0  0  0  0
  -21.1910   -6.2890   24.1050 C   0  0  0  0  0  3  0  0  0  0  0  0
  -21.0880   -5.4920   25.2630 C   0  0  0  0  0  3  0  0  0  0  0  0
  -21.4900   -4.1440   25.2290 C   0  0  0  0  0  0  0  0  0  0  0  0
  -22.0010   -3.5910   24.0410 C   0  0  0  0  0  3  0  0  0  0  0  0
  -22.1060   -4.3840   22.8850 C   0  0  0  0  0  0  0  0  0  0  0  0
  -22.5790   -3.8410   21.7380 F   0  0  0  0  0  0  0  0  0  0  0  0
  -21.3850   -3.3760   26.3390 F   0  0  0  0  0  0  0  0  0  0  0  0
  -22.7040  -13.1170   21.3610 C   0  0  0  0  0  0  0  0  0  0  0  0
  -21.9930  -12.4140   22.2370 N   0  0  0  0  0  0  0  0  0  0  0  0
  -22.2430  -14.1270   20.8320 O   0  0  0  0  0  0  0  0  0  0  0  0
  -22.3790  -11.5970   22.6860 H   0  0  0  0  0  0  0  0  0  0  0  0
  -21.0510  -12.6970   22.4610 H   0  0  0  0  0  0  0  0  0  0  0  0
  -25.2990  -14.8310   20.5230 N   0  0  0  0  0  0  0  0  0  0  0  0
  -24.5190  -15.4720   20.6200 H   0  0  0  0  0  0  0  0  0  0  0  0
  -26.1400  -15.2810   20.1800 H   0  0  0  0  0  0  0  0  0  0  0  0
  -29.6650  -20.1190   19.8720 C   0  0  0  0  0  2  0  0  0  0  0  0
  -30.0460  -21.5700   20.3300 C   0  0  0  0  0  2  0  0  0  0  0  0
  -29.0000  -22.5950   20.0480 N   0  0  0  0  0  4  0  0  0  0  0  0
  -28.1660  -22.3300   20.5500 H   0  0  0  0  0  0  0  0  0  0  0  0
  -28.7830  -22.5510   19.0650 H   0  0  0  0  0  0  0  0  0  0  0  0
  -29.3490  -24.0140   20.3990 C   0  0  0  0  0  2  0  0  0  0  0  0
  -28.2290  -25.0150   19.9990 C   0  0  0  0  0  2  0  0  0  0  0  0
  -28.4090  -26.3980   20.4020 O   0  0  0  0  0  0  0  0  0  0  0  0
  -24.7200  -31.7290   23.4350 C   0  0  0  0  0  0  0  0  0  0  0  0
  -27.2820  -27.2130   20.3450 C   0  0  0  0  0  0  0  0  0  0  0  0
  -23.5090  -30.3910   21.7480 C   0  0  0  0  0  3  0  0  0  0  0  0
  -24.9460  -28.8330   20.3290 C   0  0  0  0  0  0  0  0  0  0  0  0
  -26.0550  -30.6570   21.6200 C   0  0  0  0  0  2  0  0  0  0  0  0
  -26.1100  -29.2960   20.9540 C   0  0  0  0  0  0  0  0  0  0  0  0
  -27.2820  -28.4930   20.9590 C   0  0  0  0  0  3  0  0  0  0  0  0
  -26.0930  -26.7900   19.6990 C   0  0  0  0  0  3  0  0  0  0  0  0
  -24.9350  -27.5820   19.6980 C   0  0  0  0  0  3  0  0  0  0  0  0
  -23.7300  -29.7320   20.3620 C   0  0  0  0  0  2  0  0  0  0  0  0
  -24.7780  -30.9400   22.3250 N   0  0  0  0  0  0  0  0  0  0  0  0
  -23.6360  -32.0290   23.9540 O   0  0  0  0  0  0  0  0  0  0  0  0
  -22.8050  -29.3750   22.6780 C   0  0  0  0  0  0  0  0  0  0  0  0
  -21.4800  -29.2230   22.5090 N   0  0  0  0  0  0  0  0  0  0  0  0
  -23.4480  -28.7260   23.5060 O   0  0  0  0  0  0  0  0  0  0  0  0
  -21.0240  -29.7980   21.8140 H   0  0  0  0  0  0  0  0  0  0  0  0
  -18.0630  -28.1150   22.9070 C   0  0  0  0  0  0  0  0  0  0  0  0
  -20.6190  -28.2990   23.2470 C   0  0  0  0  0  3  0  0  0  0  0  0
  -20.6970  -26.8730   22.6530 C   0  0  0  0  0  2  0  0  0  0  0  0
  -19.6130  -26.5940   21.6080 C   0  0  0  0  0  2  0  0  0  0  0  0
  -18.2200  -26.7690   22.2180 C   0  0  0  0  0  2  0  0  0  0  0  0
  -19.1910  -28.8400   23.3750 C   0  0  0  0  0  0  0  0  0  0  0  0
  -18.9930  -30.1020   23.9770 C   0  0  0  0  0  3  0  0  0  0  0  0
  -17.6990  -30.6380   24.1170 C   0  0  0  0  0  3  0  0  0  0  0  0
  -16.5850  -29.9090   23.6650 C   0  0  0  0  0  3  0  0  0  0  0  0
  -16.7680  -28.6500   23.0670 C   0  0  0  0  0  3  0  0  0  0  0  0
  -26.0110  -32.3110   24.0900 C   0  0  0  0  0  3  0  0  0  0  0  0
  -26.4250  -31.5680   25.4200 C   0  0  1  0  0  0  0  0  0  0  0  0
  -25.2700  -31.4290   26.4390 C   0  0  0  0  0  1  0  0  0  0  0  0
  -26.9530  -30.1480   25.1110 C   0  0  0  0  0  1  0  0  0  0  0  0
  -27.5820  -32.3290   26.1080 C   0  0  0  0  0  1  0  0  0  0  0  0
  -25.7710  -33.7370   24.3460 N   0  0  0  0  0  0  0  0  0  0  0  0
  -26.1680  -34.7340   23.5430 C   0  0  0  0  0  0  0  0  0  0  0  0
  -26.8460  -34.5450   22.5280 O   0  0  0  0  0  0  0  0  0  0  0  0
  -25.1710  -33.9590   25.1270 H   0  0  0  0  0  0  0  0  0  0  0  0
  -24.5310  -36.5870   23.0810 C   0  0  0  0  0  1  0  0  0  0  0  0
  -25.7440  -36.1640   23.9240 C   0  0  0  0  0  3  0  0  0  0  0  0
  -27.9100  -36.9930   24.7350 C   0  0  0  0  0  1  0  0  0  0  0  0
  -26.8280  -37.1600   23.7680 N   0  0  0  0  0  0  0  0  0  0  0  0
  -26.4640  -38.1050   23.8600 H   0  0  0  0  0  0  0  0  0  0  0  0
  2  6  1  0
  2  1  1  0
  3  5  1  0
  4  3  2  0
  4  6  1  0
  5  7  2  0
  6  8  2  0
  7  9  1  0
  8  7  1  0
  8 10  1  0
 11  1  1  0
 11 12  1  0
 13 21  1  0
 14 19  1  0
 15 16  1  0
 15 14  1  0
 17 16  1  0
 17 26  1  0
 17 18  1  0
 19 13  1  0
 19 18  1  0
 20 13  2  0
 21 12  1  0
 21 22  1  0
 23 24  2  0
 24 43  1  0
 25 24  1  0
 25 28  1  0
 26 23  1  0
 26 27  1  0
 27 25  2  0
 28 29  1  0
 29 30  2  0
 31 34  1  0
 31 30  1  0
 32 31  2  0
 33 32  1  0
 33 28  2  0
 34 35  1  0
 35 36  1  0
 36 37  2  0
 38 37  1  0
 38 42  1  0
 39 38  2  0
 40 35  2  0
 40 39  1  0
 41 40  1  0
 43 44  1  0
 44 47  1  0
 44 46  1  0
 45 43  2  0
 48 49  1  0
 48 23  1  0
 50 48  1  0
 51 52  1  0
 51  1  1  0
 53 52  1  0
 53 56  1  0
 53 54  1  0
 55 53  1  0
 57 56  1  0
 57 58  1  0
 59 70  2  0
 60 58  1  0
 60 65  1  0
 61 69  1  0
 61 71  1  0
 62 68  1  0
 62 64  1  0
 63 69  1  0
 64 65  2  0
 64 63  1  0
 66 60  2  0
 67 66  1  0
 67 62  2  0
 68 61  1  0
 69 59  1  0
 71 73  2  0
 72 71  1  0
 74 72  1  0
 75 84  2  0
 75 80  1  0
 76 72  1  0
 76 80  1  0
 77 76  1  0
 78 79  1  0
 78 77  1  0
 79 75  1  0
 80 81  2  0
 81 82  1  0
 83 82  2  0
 84 83  1  0
 85 59  1  0
 85 90  1  0
 85 86  1  0
 86 89  1  1
 86 87  1  0
 88 86  1  0
 90 93  1  0
 91 95  1  0
 91 90  1  0
 92 91  2  0
 95 94  1  0
 97 98  1  0
 97 95  1  0
 97 96  1  0
M  ISO  4  13 100  21 100  57 101  58 101
M  END
>  <TORSDO>  (56) 
F 25

>  <SCORE>  (56) 
-11.786

>  <name>  (56) 
55

>  <ligand_id>  (56) 
55

>  <original_smiles>  (56) 
[H]c1c([H])c(F)c(F)c(C([H])([H])N(C([H])([H])C([H])([H])N([H])C(=O)N2C([H])([H])C([H])([H])C([H])([H])C([H])(n3nc(-c4c([H])c([H])c(Oc5c([H])c([H])c(F)c([H])c5F)c([H])c4[H])c(C(=O)N([H])[H])c3N([H])[H])C2([H])[H])C([H])([H])C([H])([H])[N+]([H])([H])C([H])([H])C([H])([H])Oc2c([H])c([H])c3c(c2[H])C([H])([H])N(C(=O)C([H])(N([H])C(=O)C([H])(N([H])C([H])([H])[H])C([H])([H])[H])C(C([H])([H])[H])(C([H])([H])[H])C([H])([H])[H])C([H])(C(=O)N([H])C2([H])c4c([H])c([H])c([H])c([H])c4C([H])([H])C([H])([H])C2([H])[H])C3([H])[H])c1[H]

>  <smiles>  (56) 
[H]c1c([H])c(F)c(F)c(C([H])([H])N(C([H])([H])C([H])([H])N([H])C(=O)N2C([H])([H])C([H])([H])C([H])([H])C([H])(n3nc(-c4c([H])c([H])c(Oc5c([H])c([H])c(F)c([H])c5F)c([H])c4[H])c(C(=O)N([H])[H])c3N([H])[H])C2([H])[H])C([H])([H])C([H])([H])[N+]([H])([H])C([H])([H])C([H])([H])Oc2c([H])c([H])c3c(c2[H])C([H])([H])N(C(=O)C([H])(N([H])C(=O)C([H])(N([H])C([H])([H])[H])C([H])([H])[H])C(C([H])([H])[H])(C([H])([H])[H])C([H])([H])[H])C([H])(C(=O)N([H])C2([H])c4c([H])c([H])c([H])c([H])c4C([H])([H])C([H])([H])C2([H])[H])C3([H])[H])c1[H]

$$$$
56:0:0
     RDKit          3D

102111  0  0  1  0  0  0  0  0999 V2000
  -29.0140  -20.3820   21.6490 N   0  0  0  0  0  0  0  0  0  0  0  0
  -28.9390  -20.5490   22.6510 H   0  0  0  0  0  0  0  0  0  0  0  0
  -29.7500  -18.2400   20.8330 C   0  0  0  0  0  3  0  0  0  0  0  0
  -32.0880  -17.6180   20.6290 C   0  0  0  0  0  3  0  0  0  0  0  0
  -31.4860  -19.8560   21.4740 C   0  0  0  0  0  0  0  0  0  0  0  0
  -30.7300  -17.2630   20.5180 C   0  0  0  0  0  0  0  0  0  0  0  0
  -30.0950  -19.5380   21.2960 C   0  0  0  0  0  0  0  0  0  0  0  0
  -32.4580  -18.8900   21.1000 C   0  0  0  0  0  0  0  0  0  0  0  0
  -33.7820  -19.1620   21.2210 F   0  0  0  0  0  0  0  0  0  0  0  0
  -31.0510  -14.8810   19.7640 C   0  0  0  0  0  0  0  0  0  0  0  0
  -30.7910  -12.5530   18.9590 C   0  0  0  0  0  2  0  0  0  0  0  0
  -29.7920  -12.5060   17.7830 C   0  0  0  0  0  2  0  0  0  0  0  0
  -28.3420  -12.3980   18.2950 C   0  0  0  0  0  2  0  0  0  0  0  0
  -28.0240  -13.4380   19.4030 C   0  0  0  0  0  3  0  0  0  0  0  0
  -29.1230  -13.4320   20.4880 C   0  0  0  0  0  2  0  0  0  0  0  0
  -30.4110  -13.6820   19.8200 N   0  0  0  0  0  0  0  0  0  0  0  0
  -32.1450  -15.0290   19.2080 O   0  0  0  0  0  0  0  0  0  0  0  0
  -30.3210  -15.9260   20.2080 N   0  0  0  0  0  0  0  0  0  0  0  0
  -29.3630  -15.6980   20.4290 H   0  0  0  0  0  0  0  0  0  0  0  0
  -25.7280  -14.1550   20.3140 C   0  0  0  0  0  0  0  0  0  0  0  0
  -24.6500  -13.4310   20.7450 C   0  0  0  0  0  0  0  0  0  0  0  0
  -25.0310  -12.0580   20.6420 C   0  0  0  0  0  0  0  0  0  0  0  0
  -26.7000  -13.2250   19.9780 N   0  0  0  0  0  0  0  0  0  0  0  0
  -26.2890  -11.9570   20.2330 N   0  0  0  0  0  0  0  0  0  0  0  0
  -24.2540  -10.8300   20.8540 C   0  0  0  0  0  0  0  0  0  0  0  0
  -24.6650   -9.8490   21.7830 C   0  0  0  0  0  3  0  0  0  0  0  0
  -23.8930   -8.6830   21.9820 C   0  0  0  0  0  3  0  0  0  0  0  0
  -22.6970   -8.4920   21.2490 C   0  0  0  0  0  0  0  0  0  0  0  0
  -22.3060   -9.4610   20.3080 C   0  0  0  0  0  3  0  0  0  0  0  0
  -23.0780  -10.6170   20.1090 C   0  0  0  0  0  3  0  0  0  0  0  0
  -21.8960   -7.3810   21.3570 O   0  0  0  0  0  0  0  0  0  0  0  0
  -21.7880   -6.6820   22.5330 C   0  0  0  0  0  0  0  0  0  0  0  0
  -21.3420   -7.2940   23.7250 C   0  0  0  0  0  3  0  0  0  0  0  0
  -21.1800   -6.5240   24.8940 C   0  0  0  0  0  3  0  0  0  0  0  0
  -21.4530   -5.1430   24.8700 C   0  0  0  0  0  0  0  0  0  0  0  0
  -21.8910   -4.5310   23.6830 C   0  0  0  0  0  3  0  0  0  0  0  0
  -22.0560   -5.2990   22.5180 C   0  0  0  0  0  0  0  0  0  0  0  0
  -22.4590   -4.7010   21.3700 F   0  0  0  0  0  0  0  0  0  0  0  0
  -21.2900   -4.4010   25.9900 F   0  0  0  0  0  0  0  0  0  0  0  0
  -23.3070  -13.9720   21.1410 C   0  0  0  0  0  0  0  0  0  0  0  0
  -22.6180  -13.2970   22.0540 N   0  0  0  0  0  0  0  0  0  0  0  0
  -22.8800  -15.0280   20.6740 O   0  0  0  0  0  0  0  0  0  0  0  0
  -22.9750  -12.4380   22.4500 H   0  0  0  0  0  0  0  0  0  0  0  0
  -21.7200  -13.6410   22.3620 H   0  0  0  0  0  0  0  0  0  0  0  0
  -25.9600  -15.5190   20.1580 N   0  0  0  0  0  0  0  0  0  0  0  0
  -25.2430  -16.2160   20.3260 H   0  0  0  0  0  0  0  0  0  0  0  0
  -26.8030  -15.9100   19.7560 H   0  0  0  0  0  0  0  0  0  0  0  0
  -31.9850  -21.1470   22.0800 C   0  0  0  0  0  0  0  0  0  0  0  0
  -32.5350  -21.0590   23.2890 N   0  0  0  0  0  0  0  0  0  0  0  0
  -31.9010  -22.2330   21.5050 O   0  0  0  0  0  0  0  0  0  0  0  0
  -32.6360  -20.1640   23.7420 H   0  0  0  0  0  0  0  0  0  0  0  0
  -32.8800  -21.8880   23.7500 H   0  0  0  0  0  0  0  0  0  0  0  0
  -28.7600  -21.6030   20.8650 C   0  0  0  0  0  2  0  0  0  0  0  0
  -29.7980  -24.2840   23.3280 C   0  0  0  0  0  2  0  0  0  0  0  0
  -29.4290  -22.8380   23.0500 C   0  0  0  0  0  2  0  0  0  0  0  0
  -30.0120  -24.8400   21.9260 C   0  0  0  0  0  2  0  0  0  0  0  0
  -28.6170  -22.8910   21.7390 C   0  0  0  0  0  3  0  0  0  0  0  0
  -29.0540  -24.1390   21.0310 N   0  0  1  0  0  4  0  0  0  0  0  0
  -29.5950  -23.8310   20.2350 H   0  0  0  0  0  0  0  0  0  0  0  0
  -27.9510  -25.0110   20.5050 C   0  0  0  0  0  2  0  0  0  0  0  0
  -28.4520  -26.3470   19.8720 C   0  0  0  0  0  2  0  0  0  0  0  0
  -27.6390  -26.8260   18.7940 O   0  0  0  0  0  0  0  0  0  0  0  0
  -24.5270  -31.7260   22.9930 C   0  0  0  0  0  0  0  0  0  0  0  0
  -26.5410  -27.5850   19.1240 C   0  0  0  0  0  0  0  0  0  0  0  0
  -23.0520  -30.5480   21.3910 C   0  0  0  0  0  3  0  0  0  0  0  0
  -24.2360  -29.1420   19.6240 C   0  0  0  0  0  0  0  0  0  0  0  0
  -25.5370  -30.8650   20.8830 C   0  0  0  0  0  2  0  0  0  0  0  0
  -25.4830  -29.5640   20.1050 C   0  0  0  0  0  0  0  0  0  0  0  0
  -26.6410  -28.7880   19.8630 C   0  0  0  0  0  3  0  0  0  0  0  0
  -25.2850  -27.1850   18.6320 C   0  0  0  0  0  3  0  0  0  0  0  0
  -24.1300  -27.9480   18.8900 C   0  0  0  0  0  3  0  0  0  0  0  0
  -23.0430  -30.0190   19.9310 C   0  0  0  0  0  2  0  0  0  0  0  0
  -24.3990  -31.0560   21.8120 N   0  0  0  0  0  0  0  0  0  0  0  0
  -23.5420  -31.9640   23.7050 O   0  0  0  0  0  0  0  0  0  0  0  0
  -22.4990  -29.4440   22.3210 C   0  0  0  0  0  0  0  0  0  0  0  0
  -21.1760  -29.2220   22.2650 N   0  0  0  0  0  0  0  0  0  0  0  0
  -23.2530  -28.7920   23.0480 O   0  0  0  0  0  0  0  0  0  0  0  0
  -20.6250  -29.8070   21.6530 H   0  0  0  0  0  0  0  0  0  0  0  0
  -17.9160  -27.7290   22.7290 C   0  0  0  0  0  0  0  0  0  0  0  0
  -20.4420  -28.2040   23.0160 C   0  0  0  0  0  3  0  0  0  0  0  0
  -20.6710  -26.7980   22.4140 C   0  0  0  0  0  2  0  0  0  0  0  0
  -19.6020  -26.3960   21.3940 C   0  0  0  0  0  2  0  0  0  0  0  0
  -18.2110  -26.4100   22.0350 C   0  0  0  0  0  2  0  0  0  0  0  0
  -18.9630  -28.5780   23.1750 C   0  0  0  0  0  0  0  0  0  0  0  0
  -18.6350  -29.8080   23.7860 C   0  0  0  0  0  3  0  0  0  0  0  0
  -17.2910  -30.1910   23.9540 C   0  0  0  0  0  3  0  0  0  0  0  0
  -16.2590  -29.3420   23.5230 C   0  0  0  0  0  3  0  0  0  0  0  0
  -16.5720  -28.1120   22.9140 C   0  0  0  0  0  3  0  0  0  0  0  0
  -25.9110  -32.2500   23.4900 C   0  0  0  0  0  3  0  0  0  0  0  0
  -25.7070  -33.6000   24.0300 N   0  0  0  0  0  0  0  0  0  0  0  0
  -26.0120  -34.7320   23.3820 C   0  0  0  0  0  0  0  0  0  0  0  0
  -26.5680  -34.7450   22.2810 O   0  0  0  0  0  0  0  0  0  0  0  0
  -25.2070  -33.6650   24.9040 H   0  0  0  0  0  0  0  0  0  0  0  0
  -24.3510  -36.6170   23.4430 C   0  0  0  0  0  1  0  0  0  0  0  0
  -25.6420  -36.0620   24.0660 C   0  0  0  0  0  3  0  0  0  0  0  0
  -27.8830  -36.7480   24.7910 C   0  0  0  0  0  1  0  0  0  0  0  0
  -26.7110  -37.0800   23.9870 N   0  0  0  0  0  0  0  0  0  0  0  0
  -26.3660  -37.9890   24.2860 H   0  0  0  0  0  0  0  0  0  0  0  0
  -26.5810  -31.3130   24.5690 C   0  0  1  0  0  0  0  0  0  0  0  0
  -25.6480  -30.9660   25.7540 C   0  0  0  0  0  1  0  0  0  0  0  0
  -27.0450  -29.9870   23.9250 C   0  0  0  0  0  1  0  0  0  0  0  0
  -27.8470  -31.9950   25.1410 C   0  0  0  0  0  1  0  0  0  0  0  0
  1  2  1  0
  3  7  1  0
  4  8  2  0
  5 48  1  0
  6  4  1  0
  6  3  2  0
  7  5  2  0
  7  1  1  0
  8  9  1  0
  8  5  1  0
 10 16  1  0
 10 18  1  0
 11 16  1  0
 12 13  1  0
 12 11  1  0
 14 13  1  0
 14 23  1  0
 14 15  1  0
 16 15  1  0
 17 10  2  0
 18 19  1  0
 18  6  1  0
 20 21  2  0
 21 40  1  0
 22 21  1  0
 22 25  1  0
 23 24  1  0
 23 20  1  0
 24 22  2  0
 25 26  1  0
 26 27  2  0
 28 31  1  0
 28 27  1  0
 29 28  2  0
 30 29  1  0
 30 25  2  0
 31 32  1  0
 32 33  1  0
 33 34  2  0
 35 34  1  0
 35 39  1  0
 36 35  2  0
 37 32  2  0
 37 36  1  0
 38 37  1  0
 40 41  1  0
 41 44  1  0
 41 43  1  0
 42 40  2  0
 45 20  1  0
 45 46  1  0
 47 45  1  0
 48 49  1  0
 49 51  1  0
 49 52  1  0
 50 48  2  0
 53  1  1  0
 55 54  1  0
 56 54  1  0
 57 53  1  0
 57 55  1  0
 58 57  1  0
 58 56  1  0
 58 59  1  6
 60 58  1  0
 61 60  1  0
 62 64  1  0
 62 61  1  0
 63 74  2  0
 64 69  1  0
 65 73  1  0
 65 75  1  0
 66 72  1  0
 66 68  1  0
 67 73  1  0
 68 67  1  0
 69 68  2  0
 70 71  1  0
 70 64  2  0
 71 66  2  0
 72 65  1  0
 73 63  1  0
 75 77  2  0
 76 75  1  0
 78 76  1  0
 79 88  2  0
 79 84  1  0
 80 76  1  0
 80 84  1  0
 81 80  1  0
 82 83  1  0
 82 81  1  0
 83 79  1  0
 84 85  2  0
 85 86  1  0
 87 86  2  0
 88 87  1  0
 89 63  1  0
 89 90  1  0
 89 99  1  0
 90 93  1  0
 91 90  1  0
 91 95  1  0
 92 91  2  0
 95 94  1  0
 97 95  1  0
 97 98  1  0
 97 96  1  0
 99102  1  1
 99100  1  0
101 99  1  0
M  ISO  4  10 100  18 100  61 101  62 101
M  END
>  <TORSDO>  (57) 
F 22

>  <SCORE>  (57) 
-12.293

>  <name>  (57) 
56

>  <ligand_id>  (57) 
56

>  <original_smiles>  (57) 
[H]c1c([H])c([H])c2c(c1[H])C([H])([H])C([H])([H])C([H])([H])C2([H])N([H])C(=O)C1([H])N(C(=O)C([H])(N([H])C(=O)C([H])(N([H])C([H])([H])[H])C([H])([H])[H])C(C([H])([H])[H])(C([H])([H])[H])C([H])([H])[H])C([H])([H])c2c([H])c(OC([H])([H])C([H])([H])[N+]3([H])C([H])([H])C([H])([H])C([H])([H])C3([H])C([H])([H])N([H])c3c([H])c(N([H])C(=O)N4C([H])([H])C([H])([H])C([H])([H])C([H])(n5nc(-c6c([H])c([H])c(Oc7c([H])c([H])c(F)c([H])c7F)c([H])c6[H])c(C(=O)N([H])[H])c5N([H])[H])C4([H])[H])c([H])c(F)c3C(=O)N([H])[H])c([H])c([H])c2C1([H])[H]

>  <smiles>  (57) 
[H]c1c([H])c([H])c2c(c1[H])C([H])([H])C([H])([H])C([H])([H])C2([H])N([H])C(=O)C1([H])N(C(=O)C([H])(N([H])C(=O)C([H])(N([H])C([H])([H])[H])C([H])([H])[H])C(C([H])([H])[H])(C([H])([H])[H])C([H])([H])[H])C([H])([H])c2c([H])c(OC([H])([H])C([H])([H])[N+]3([H])C([H])([H])C([H])([H])C([H])([H])C3([H])C([H])([H])N([H])c3c([H])c(N([H])C(=O)N4C([H])([H])C([H])([H])C([H])([H])C([H])(n5nc(-c6c([H])c([H])c(Oc7c([H])c([H])c(F)c([H])c7F)c([H])c6[H])c(C(=O)N([H])[H])c5N([H])[H])C4([H])[H])c([H])c(F)c3C(=O)N([H])[H])c([H])c([H])c2C1([H])[H]

$$$$
57:0:0
     RDKit          3D

 99107  0  0  1  0  0  0  0  0999 V2000
  -29.8060  -20.4390   20.1630 C   0  0  0  0  0  3  0  0  0  0  0  0
  -30.3400  -19.3430   18.0540 C   0  0  0  0  0  3  0  0  0  0  0  0
  -30.1630  -19.2480   19.4480 C   0  0  0  0  0  0  0  0  0  0  0  0
  -29.6050  -21.6970   19.5030 C   0  0  0  0  0  0  0  0  0  0  0  0
  -30.1450  -20.5630   17.3860 C   0  0  0  0  0  0  0  0  0  0  0  0
  -29.7830  -21.7270   18.0920 C   0  0  0  0  0  0  0  0  0  0  0  0
  -30.3210  -20.6200   16.0430 F   0  0  0  0  0  0  0  0  0  0  0  0
  -29.6200  -22.8680   17.3810 F   0  0  0  0  0  0  0  0  0  0  0  0
  -30.5190  -17.9160   20.0820 C   0  0  0  0  0  0  0  0  0  0  0  0
  -31.7010  -17.5660   20.0970 O   0  0  0  0  0  0  0  0  0  0  0  0
  -29.4150  -16.9920   20.7200 C   0  0  0  0  0  3  0  0  0  0  0  0
  -30.3720  -14.5770   20.0720 C   0  0  0  0  0  0  0  0  0  0  0  0
  -30.2560  -12.3280   19.0200 C   0  0  0  0  0  2  0  0  0  0  0  0
  -29.2480  -12.3900   17.8480 C   0  0  0  0  0  2  0  0  0  0  0  0
  -27.7990  -12.1840   18.3400 C   0  0  0  0  0  2  0  0  0  0  0  0
  -27.4590  -13.0620   19.5710 C   0  0  0  0  0  3  0  0  0  0  0  0
  -28.5610  -12.9240   20.6450 C   0  0  0  0  0  2  0  0  0  0  0  0
  -29.8360  -13.3230   20.0210 N   0  0  0  0  0  0  0  0  0  0  0  0
  -31.4920  -14.8340   19.6280 O   0  0  0  0  0  0  0  0  0  0  0  0
  -29.4760  -15.5050   20.5070 N   0  0  0  0  0  0  0  0  0  0  0  0
  -28.6230  -15.0310   20.7440 H   0  0  0  0  0  0  0  0  0  0  0  0
  -25.1070  -13.6350   20.4320 C   0  0  0  0  0  0  0  0  0  0  0  0
  -24.0640  -12.8440   20.8360 C   0  0  0  0  0  0  0  0  0  0  0  0
  -24.5310  -11.4970   20.7390 C   0  0  0  0  0  0  0  0  0  0  0  0
  -26.1360  -12.7650   20.1090 N   0  0  0  0  0  0  0  0  0  0  0  0
  -25.8000  -11.4760   20.3570 N   0  0  0  0  0  0  0  0  0  0  0  0
  -23.8270  -10.2220   20.9310 C   0  0  0  0  0  0  0  0  0  0  0  0
  -24.2870   -9.2600   21.8570 C   0  0  0  0  0  3  0  0  0  0  0  0
  -23.5870   -8.0480   22.0350 C   0  0  0  0  0  3  0  0  0  0  0  0
  -22.4140   -7.7900   21.2880 C   0  0  0  0  0  0  0  0  0  0  0  0
  -21.9740   -8.7410   20.3510 C   0  0  0  0  0  3  0  0  0  0  0  0
  -22.6740   -9.9460   20.1710 C   0  0  0  0  0  3  0  0  0  0  0  0
  -21.6840   -6.6300   21.3770 O   0  0  0  0  0  0  0  0  0  0  0  0
  -21.6090   -5.9140   22.5450 C   0  0  0  0  0  0  0  0  0  0  0  0
  -21.1160   -6.4840   23.7380 C   0  0  0  0  0  3  0  0  0  0  0  0
  -20.9920   -5.6920   24.8980 C   0  0  0  0  0  3  0  0  0  0  0  0
  -21.3530   -4.3320   24.8640 C   0  0  0  0  0  0  0  0  0  0  0  0
  -21.8410   -3.7620   23.6750 C   0  0  0  0  0  3  0  0  0  0  0  0
  -21.9650   -4.5500   22.5170 C   0  0  0  0  0  0  0  0  0  0  0  0
  -22.4150   -3.9900   21.3680 F   0  0  0  0  0  0  0  0  0  0  0  0
  -21.2260   -3.5690   25.9740 F   0  0  0  0  0  0  0  0  0  0  0  0
  -22.6770  -13.3010   21.1870 C   0  0  0  0  0  0  0  0  0  0  0  0
  -21.9990  -12.5800   22.0740 N   0  0  0  0  0  0  0  0  0  0  0  0
  -22.2060  -14.3300   20.7070 O   0  0  0  0  0  0  0  0  0  0  0  0
  -22.3920  -11.7460   22.4830 H   0  0  0  0  0  0  0  0  0  0  0  0
  -21.0720  -12.8690   22.3500 H   0  0  0  0  0  0  0  0  0  0  0  0
  -25.2710  -15.0120   20.2870 N   0  0  0  0  0  0  0  0  0  0  0  0
  -24.3660  -15.4720   20.3480 H   0  0  0  0  0  0  0  0  0  0  0  0
  -25.6750  -15.2240   19.3810 H   0  0  0  0  0  0  0  0  0  0  0  0
  -27.9730  -17.5480   20.5020 C   0  0  0  0  0  2  0  0  0  0  0  0
  -26.8660  -16.6210   20.8300 N   0  0  0  0  0  4  0  0  0  0  0  0
  -26.5980  -16.0360   20.0450 H   0  0  0  0  0  0  0  0  0  0  0  0
  -26.0480  -17.1740   21.0240 H   0  0  0  0  0  0  0  0  0  0  0  0
  -27.0480  -16.0720   21.6520 H   0  0  0  0  0  0  0  0  0  0  0  0
  -29.2470  -22.8580   20.2550 N   0  0  0  0  0  0  0  0  0  0  0  0
  -29.2490  -22.7840   21.2690 H   0  0  0  0  0  0  0  0  0  0  0  0
  -29.1380  -24.2320   19.6900 C   0  0  0  0  0  3  0  0  0  0  0  0
  -28.6310  -25.3300   20.6880 C   0  0  0  0  0  3  0  0  0  0  0  0
  -28.7000  -26.7040   20.2110 O   0  0  0  0  0  0  0  0  0  0  0  0
  -24.7120  -31.8280   23.2590 C   0  0  0  0  0  0  0  0  0  0  0  0
  -27.5260  -27.4430   20.2030 C   0  0  0  0  0  0  0  0  0  0  0  0
  -23.5850  -30.4350   21.5550 C   0  0  0  0  0  3  0  0  0  0  0  0
  -25.1120  -28.9400   20.1530 C   0  0  0  0  0  0  0  0  0  0  0  0
  -26.1120  -30.8280   21.4480 C   0  0  0  0  0  2  0  0  0  0  0  0
  -26.2440  -29.4670   20.7880 C   0  0  0  0  0  0  0  0  0  0  0  0
  -27.4560  -28.7290   20.8020 C   0  0  0  0  0  3  0  0  0  0  0  0
  -26.3750  -26.9410   19.5590 C   0  0  0  0  0  3  0  0  0  0  0  0
  -25.1740  -27.6790   19.5330 C   0  0  0  0  0  3  0  0  0  0  0  0
  -23.8540  -29.7820   20.1720 C   0  0  0  0  0  2  0  0  0  0  0  0
  -24.8190  -31.0460   22.1460 N   0  0  0  0  0  0  0  0  0  0  0  0
  -23.6090  -32.0740   23.7660 O   0  0  0  0  0  0  0  0  0  0  0  0
  -22.9170  -29.3900   22.4770 C   0  0  0  0  0  0  0  0  0  0  0  0
  -21.5960  -29.2030   22.3150 N   0  0  0  0  0  0  0  0  0  0  0  0
  -23.5850  -28.7500   23.2920 O   0  0  0  0  0  0  0  0  0  0  0  0
  -21.1190  -29.7700   21.6290 H   0  0  0  0  0  0  0  0  0  0  0  0
  -18.2150  -27.9910   22.7290 C   0  0  0  0  0  0  0  0  0  0  0  0
  -20.7690  -28.2410   23.0440 C   0  0  0  0  0  3  0  0  0  0  0  0
  -20.8800  -26.8290   22.4240 C   0  0  0  0  0  2  0  0  0  0  0  0
  -19.7920  -26.5390   21.3840 C   0  0  0  0  0  2  0  0  0  0  0  0
  -18.4020  -26.6640   22.0120 C   0  0  0  0  0  2  0  0  0  0  0  0
  -19.3270  -28.7390   23.1980 C   0  0  0  0  0  0  0  0  0  0  0  0
  -19.1000  -29.9830   23.8270 C   0  0  0  0  0  3  0  0  0  0  0  0
  -17.7930  -30.4800   23.9890 C   0  0  0  0  0  3  0  0  0  0  0  0
  -16.6950  -29.7280   23.5360 C   0  0  0  0  0  3  0  0  0  0  0  0
  -16.9070  -28.4860   22.9120 C   0  0  0  0  0  3  0  0  0  0  0  0
  -25.9650  -32.4700   23.9320 C   0  0  0  0  0  3  0  0  0  0  0  0
  -26.4620  -31.6760   25.2040 C   0  0  1  0  0  0  0  0  0  0  0  0
  -25.3450  -31.3870   26.2330 C   0  0  0  0  0  1  0  0  0  0  0  0
  -27.0870  -30.3240   24.7910 C   0  0  0  0  0  1  0  0  0  0  0  0
  -27.5770  -32.4770   25.9170 C   0  0  0  0  0  1  0  0  0  0  0  0
  -25.6200  -33.8540   24.2860 N   0  0  0  0  0  0  0  0  0  0  0  0
  -25.9510  -34.9290   23.5600 C   0  0  0  0  0  0  0  0  0  0  0  0
  -26.6510  -34.8620   22.5460 O   0  0  0  0  0  0  0  0  0  0  0  0
  -25.0030  -33.9780   25.0760 H   0  0  0  0  0  0  0  0  0  0  0  0
  -24.1970  -36.6940   23.1970 C   0  0  0  0  0  1  0  0  0  0  0  0
  -25.4230  -36.2970   24.0330 C   0  0  0  0  0  3  0  0  0  0  0  0
  -27.5150  -37.2060   24.9420 C   0  0  0  0  0  1  0  0  0  0  0  0
  -26.4360  -37.3720   23.9720 N   0  0  0  0  0  0  0  0  0  0  0  0
  -26.0090  -38.2820   24.1270 H   0  0  0  0  0  0  0  0  0  0  0  0
  2  3  1  0
  3  9  1  0
  3  1  2  0
  4  1  1  0
  4 55  1  0
  5  2  2  0
  5  6  1  0
  6  4  2  0
  7  5  1  0
  8  6  1  0
  9 10  2  0
  9 11  1  0
 11 50  1  0
 12 20  1  0
 13 18  1  0
 14 15  1  0
 14 13  1  0
 16 15  1  0
 16 25  1  0
 16 17  1  0
 18 12  1  0
 18 17  1  0
 19 12  2  0
 20 11  1  0
 20 21  1  0
 22 23  2  0
 23 42  1  0
 24 23  1  0
 24 27  1  0
 25 26  1  0
 25 22  1  0
 26 24  2  0
 27 28  1  0
 28 29  2  0
 30 33  1  0
 30 29  1  0
 31 30  2  0
 32 31  1  0
 32 27  2  0
 33 34  1  0
 34 35  1  0
 35 36  2  0
 37 36  1  0
 37 41  1  0
 38 37  2  0
 39 34  2  0
 39 38  1  0
 40 39  1  0
 42 43  1  0
 43 46  1  0
 43 45  1  0
 44 42  2  0
 47 48  1  0
 47 22  1  0
 49 47  1  0
 50 51  1  0
 51 53  1  0
 51 54  1  0
 52 51  1  0
 55 56  1  0
 57 55  1  0
 57 58  2  0
 59 58  1  0
 60 71  2  0
 61 59  1  0
 61 66  1  0
 62 70  1  0
 62 72  1  0
 63 69  1  0
 63 65  1  0
 64 70  1  0
 65 66  2  0
 65 64  1  0
 67 61  2  0
 68 67  1  0
 68 63  2  0
 69 62  1  0
 70 60  1  0
 72 74  2  0
 73 72  1  0
 75 73  1  0
 76 85  2  0
 76 81  1  0
 77 73  1  0
 77 81  1  0
 78 77  1  0
 79 80  1  0
 79 78  1  0
 80 76  1  0
 81 82  2  0
 82 83  1  0
 84 83  2  0
 85 84  1  0
 86 60  1  0
 86 91  1  0
 86 87  1  0
 87 90  1  1
 87 88  1  0
 89 87  1  0
 91 94  1  0
 92 96  1  0
 92 91  1  0
 93 92  2  0
 96 95  1  0
 98 96  1  0
 98 99  1  0
 98 97  1  0
M  ISO  4  12 100  20 100  58 101  59 101
M  END
>  <TORSDO>  (58) 
F 23

>  <SCORE>  (58) 
-12.210

>  <name>  (58) 
57

>  <ligand_id>  (58) 
57

>  <original_smiles>  (58) 
[H]c1c([H])c([H])c2c(c1[H])C([H])([H])C([H])([H])C([H])([H])C2([H])N([H])C(=O)C1([H])N(C(=O)C([H])(N([H])C(=O)C([H])(N([H])C([H])([H])[H])C([H])([H])[H])C(C([H])([H])[H])(C([H])([H])[H])C([H])([H])[H])C([H])([H])c2c([H])c(OC([H])([H])C([H])([H])N([H])c3c([H])c(C(=O)C([H])(N([H])C(=O)N4C([H])([H])C([H])([H])C([H])([H])C([H])(n5nc(-c6c([H])c([H])c(Oc7c([H])c([H])c(F)c([H])c7F)c([H])c6[H])c(C(=O)N([H])[H])c5N([H])[H])C4([H])[H])C([H])([H])[N+]([H])([H])[H])c([H])c(F)c3F)c([H])c([H])c2C1([H])[H]

>  <smiles>  (58) 
[H]c1c([H])c([H])c2c(c1[H])C([H])([H])C([H])([H])C([H])([H])C2([H])N([H])C(=O)C1([H])N(C(=O)C([H])(N([H])C(=O)C([H])(N([H])C([H])([H])[H])C([H])([H])[H])C(C([H])([H])[H])(C([H])([H])[H])C([H])([H])[H])C([H])([H])c2c([H])c(OC([H])([H])C([H])([H])N([H])c3c([H])c(C(=O)C([H])(N([H])C(=O)N4C([H])([H])C([H])([H])C([H])([H])C([H])(n5nc(-c6c([H])c([H])c(Oc7c([H])c([H])c(F)c([H])c7F)c([H])c6[H])c(C(=O)N([H])[H])c5N([H])[H])C4([H])[H])C([H])([H])[N+]([H])([H])[H])c([H])c(F)c3F)c([H])c([H])c2C1([H])[H]

$$$$
58:0:0
     RDKit          3D

102110  0  0  1  0  0  0  0  0999 V2000
  -28.8730  -18.5490   18.5320 C   0  0  0  0  0  0  0  0  0  0  0  0
  -30.4670  -19.5950   21.7130 C   0  0  0  0  0  2  0  0  0  0  0  0
  -29.6540  -20.6340   19.6960 C   0  0  0  0  0  2  0  0  0  0  0  0
  -29.9380  -18.4090   20.7820 C   0  0  0  0  0  3  0  0  0  0  0  0
  -30.4860  -20.9840   20.9470 C   0  0  0  0  0  3  0  0  0  0  0  0
  -29.5120  -19.1540   19.5690 N   0  0  0  0  0  0  0  0  0  0  0  0
  -28.6170  -17.3400   18.5380 O   0  0  0  0  0  0  0  0  0  0  0  0
  -30.9510  -14.6890   19.7750 C   0  0  0  0  0  0  0  0  0  0  0  0
  -30.3320  -12.7270   18.3500 C   0  0  0  0  0  2  0  0  0  0  0  0
  -29.2530  -13.1510   17.3310 C   0  0  0  0  0  2  0  0  0  0  0  0
  -27.8470  -13.0040   17.9420 C   0  0  0  0  0  2  0  0  0  0  0  0
  -27.7440  -13.6250   19.3610 C   0  0  0  0  0  3  0  0  0  0  0  0
  -28.9310  -13.2100   20.2580 C   0  0  0  0  0  2  0  0  0  0  0  0
  -30.1620  -13.5800   19.5500 N   0  0  0  0  0  0  0  0  0  0  0  0
  -32.0970  -14.6950   19.3170 O   0  0  0  0  0  0  0  0  0  0  0  0
  -30.8700  -17.1190   20.4910 C   0  0  0  0  0  0  0  0  0  0  0  0
  -30.3540  -15.8370   20.2950 N   0  0  0  0  0  0  0  0  0  0  0  0
  -32.0820  -17.3480   20.4120 O   0  0  0  0  0  0  0  0  0  0  0  0
  -29.3670  -15.7490   20.4720 H   0  0  0  0  0  0  0  0  0  0  0  0
  -25.4770  -14.2340   20.3920 C   0  0  0  0  0  0  0  0  0  0  0  0
  -24.4350  -13.4690   20.8400 C   0  0  0  0  0  0  0  0  0  0  0  0
  -24.8460  -12.1100   20.6810 C   0  0  0  0  0  0  0  0  0  0  0  0
  -26.4560  -13.3420   19.9870 N   0  0  0  0  0  0  0  0  0  0  0  0
  -26.0910  -12.0550   20.2230 N   0  0  0  0  0  0  0  0  0  0  0  0
  -24.1020  -10.8590   20.8800 C   0  0  0  0  0  0  0  0  0  0  0  0
  -24.5270   -9.8850   21.8100 C   0  0  0  0  0  3  0  0  0  0  0  0
  -23.7830   -8.7000   21.9970 C   0  0  0  0  0  3  0  0  0  0  0  0
  -22.5980   -8.4810   21.2550 C   0  0  0  0  0  0  0  0  0  0  0  0
  -22.1910   -9.4430   20.3140 C   0  0  0  0  0  3  0  0  0  0  0  0
  -22.9360  -10.6190   20.1240 C   0  0  0  0  0  3  0  0  0  0  0  0
  -21.8260   -7.3480   21.3520 O   0  0  0  0  0  0  0  0  0  0  0  0
  -21.6690   -6.6840   22.5410 C   0  0  0  0  0  0  0  0  0  0  0  0
  -21.0950   -7.3040   23.6720 C   0  0  0  0  0  3  0  0  0  0  0  0
  -20.8890   -6.5640   24.8530 C   0  0  0  0  0  3  0  0  0  0  0  0
  -21.2450   -5.2030   24.9030 C   0  0  0  0  0  0  0  0  0  0  0  0
  -21.8120   -4.5820   23.7770 C   0  0  0  0  0  3  0  0  0  0  0  0
  -22.0210   -5.3190   22.5980 C   0  0  0  0  0  0  0  0  0  0  0  0
  -22.5470   -4.7100   21.5090 F   0  0  0  0  0  0  0  0  0  0  0  0
  -21.0410   -4.4900   26.0360 F   0  0  0  0  0  0  0  0  0  0  0  0
  -23.0940  -13.9670   21.2930 C   0  0  0  0  0  0  0  0  0  0  0  0
  -22.4560  -13.2580   22.2170 N   0  0  0  0  0  0  0  0  0  0  0  0
  -22.6250  -15.0200   20.8630 O   0  0  0  0  0  0  0  0  0  0  0  0
  -22.8510  -12.4070   22.5890 H   0  0  0  0  0  0  0  0  0  0  0  0
  -21.5590  -13.5720   22.5600 H   0  0  0  0  0  0  0  0  0  0  0  0
  -25.6640  -15.6080   20.2650 N   0  0  0  0  0  0  0  0  0  0  0  0
  -24.9200  -16.2650   20.4680 H   0  0  0  0  0  0  0  0  0  0  0  0
  -26.4370  -16.0270   19.7650 H   0  0  0  0  0  0  0  0  0  0  0  0
  -30.2890  -23.6090   21.3840 C   0  0  0  0  0  0  0  0  0  0  0  0
  -30.0310  -22.2680   21.6600 N   0  0  0  0  0  0  0  0  0  0  0  0
  -31.0090  -23.9120   20.4300 O   0  0  0  0  0  0  0  0  0  0  0  0
  -29.4420  -22.1200   22.4690 H   0  0  0  0  0  0  0  0  0  0  0  0
  -29.6640  -24.7910   22.2790 C   0  0  0  0  0  2  0  0  0  0  0  0
  -29.8600  -26.2360   21.8720 O   0  0  0  0  0  0  0  0  0  0  0  0
  -24.9790  -31.3540   23.6190 C   0  0  0  0  0  0  0  0  0  0  0  0
  -28.7040  -26.9870   21.5460 C   0  0  0  0  0  0  0  0  0  0  0  0
  -24.3250  -29.7110   21.8990 C   0  0  0  0  0  3  0  0  0  0  0  0
  -26.2210  -28.2960   20.9210 C   0  0  0  0  0  0  0  0  0  0  0  0
  -26.7920  -30.3560   22.2000 C   0  0  0  0  0  2  0  0  0  0  0  0
  -27.1760  -28.9630   21.7000 C   0  0  0  0  0  0  0  0  0  0  0  0
  -28.4230  -28.3230   22.0000 C   0  0  0  0  0  3  0  0  0  0  0  0
  -27.7320  -26.3930   20.7130 C   0  0  0  0  0  3  0  0  0  0  0  0
  -26.5070  -27.0190   20.4150 C   0  0  0  0  0  3  0  0  0  0  0  0
  -24.9040  -28.9960   20.6500 C   0  0  0  0  0  2  0  0  0  0  0  0
  -25.3710  -30.4980   22.6290 N   0  0  0  0  0  0  0  0  0  0  0  0
  -23.7820  -31.5080   23.9040 O   0  0  0  0  0  0  0  0  0  0  0  0
  -23.6080  -28.6690   22.7920 C   0  0  0  0  0  0  0  0  0  0  0  0
  -22.4120  -28.2250   22.3680 N   0  0  0  0  0  0  0  0  0  0  0  0
  -24.1380  -28.2600   23.8290 O   0  0  0  0  0  0  0  0  0  0  0  0
  -22.0380  -28.6140   21.5140 H   0  0  0  0  0  0  0  0  0  0  0  0
  -19.2950  -26.3980   22.1540 C   0  0  0  0  0  0  0  0  0  0  0  0
  -21.5860  -27.2140   23.0320 C   0  0  0  0  0  3  0  0  0  0  0  0
  -22.0960  -25.7870   22.7210 C   0  0  0  0  0  2  0  0  0  0  0  0
  -21.4000  -25.1470   21.5160 C   0  0  0  0  0  2  0  0  0  0  0  0
  -19.8890  -25.0580   21.7540 C   0  0  0  0  0  2  0  0  0  0  0  0
  -20.0940  -27.4160   22.7390 C   0  0  0  0  0  0  0  0  0  0  0  0
  -19.4980  -28.6540   23.0620 C   0  0  0  0  0  3  0  0  0  0  0  0
  -18.1330  -28.8830   22.8100 C   0  0  0  0  0  3  0  0  0  0  0  0
  -17.3430  -27.8680   22.2420 C   0  0  0  0  0  3  0  0  0  0  0  0
  -17.9230  -26.6280   21.9200 C   0  0  0  0  0  3  0  0  0  0  0  0
  -26.0150  -32.1960   24.4260 C   0  0  0  0  0  3  0  0  0  0  0  0
  -25.5380  -33.5870   24.4470 N   0  0  0  0  0  0  0  0  0  0  0  0
  -25.9550  -34.5500   23.6140 C   0  0  0  0  0  0  0  0  0  0  0  0
  -26.8450  -34.3700   22.7790 O   0  0  0  0  0  0  0  0  0  0  0  0
  -24.7670  -33.7910   25.0660 H   0  0  0  0  0  0  0  0  0  0  0  0
  -24.2070  -36.0710   22.6340 C   0  0  0  0  0  1  0  0  0  0  0  0
  -25.2800  -35.9310   23.7260 C   0  0  0  0  0  3  0  0  0  0  0  0
  -27.1130  -37.1670   24.7950 C   0  0  0  0  0  1  0  0  0  0  0  0
  -26.2310  -37.0600   23.6360 N   0  0  0  0  0  0  0  0  0  0  0  0
  -25.7350  -37.9410   23.5330 H   0  0  0  0  0  0  0  0  0  0  0  0
  -26.2370  -31.6630   25.8950 C   0  0  1  0  0  0  0  0  0  0  0  0
  -24.9240  -31.4310   26.6780 C   0  0  0  0  0  1  0  0  0  0  0  0
  -27.0180  -30.3280   25.8810 C   0  0  0  0  0  1  0  0  0  0  0  0
  -27.0990  -32.6700   26.6920 C   0  0  0  0  0  1  0  0  0  0  0  0
  -28.4320  -19.3620   17.2910 C   0  0  0  0  0  3  0  0  0  0  0  0
  -28.2680  -18.4460   16.1460 N   0  0  0  0  0  4  0  0  0  0  0  0
  -27.6180  -17.7230   16.4010 H   0  0  0  0  0  0  0  0  0  0  0  0
  -29.1460  -18.0030   15.9440 H   0  0  0  0  0  0  0  0  0  0  0  0
  -27.9510  -18.9240   15.3240 H   0  0  0  0  0  0  0  0  0  0  0  0
  -25.8500  -19.5520   16.9910 C   0  0  0  0  0  1  0  0  0  0  0  0
  -27.1390  -20.2010   17.5470 C   0  0  0  0  0  3  0  0  0  0  0  0
  -26.3040  -22.6500   17.6580 C   0  0  0  0  0  1  0  0  0  0  0  0
  -27.3020  -21.6560   17.0450 C   0  0  0  0  0  2  0  0  0  0  0  0
  1  7  2  0
  1  6  1  0
  3  5  1  0
  4 16  1  0
  4  2  1  0
  5 49  1  0
  5  2  1  0
  6  3  1  0
  6  4  1  0
  8 17  1  0
  9 14  1  0
 10 11  1  0
 10  9  1  0
 12 11  1  0
 12 23  1  0
 12 13  1  0
 14  8  1  0
 14 13  1  0
 15  8  2  0
 17 19  1  0
 17 16  1  0
 18 16  2  0
 20 21  2  0
 21 40  1  0
 22 21  1  0
 22 25  1  0
 23 24  1  0
 23 20  1  0
 24 22  2  0
 25 26  1  0
 26 27  2  0
 28 31  1  0
 28 27  1  0
 29 28  2  0
 30 29  1  0
 30 25  2  0
 31 32  1  0
 32 37  2  0
 32 33  1  0
 33 34  2  0
 34 35  1  0
 35 39  1  0
 36 35  2  0
 37 36  1  0
 38 37  1  0
 40 41  1  0
 41 44  1  0
 41 43  1  0
 42 40  2  0
 45 20  1  0
 45 46  1  0
 47 45  1  0
 48 49  1  0
 48 52  1  0
 49 51  1  0
 50 48  2  0
 53 52  1  0
 54 65  2  0
 55 53  1  0
 55 60  1  0
 56 64  1  0
 56 66  1  0
 57 59  1  0
 58 64  1  0
 59 60  2  0
 59 58  1  0
 61 55  2  0
 62 61  1  0
 62 57  2  0
 63 57  1  0
 63 56  1  0
 64 54  1  0
 66 68  2  0
 67 66  1  0
 69 67  1  0
 70 75  1  0
 71 67  1  0
 72 71  1  0
 73 74  1  0
 73 72  1  0
 74 70  1  0
 75 71  1  0
 75 76  2  0
 77 76  1  0
 78 77  2  0
 79 70  2  0
 79 78  1  0
 80 54  1  0
 80 81  1  0
 80 90  1  0
 81 84  1  0
 82 86  1  0
 82 81  1  0
 83 82  2  0
 86 85  1  0
 88 86  1  0
 88 87  1  0
 89 88  1  0
 90 91  1  1
 90 93  1  0
 92 90  1  0
 94100  1  0
 94  1  1  0
 95 96  1  0
 95 94  1  0
 97 95  1  0
 98 95  1  0
100 99  1  0
102100  1  0
102101  1  0
M  ISO  4   8 100  17 100  52 101  53 101
M  END
>  <TORSDO>  (59) 
F 22

>  <SCORE>  (59) 
-8.980

>  <name>  (59) 
58

>  <ligand_id>  (59) 
58

>  <original_smiles>  (59) 
[H]c1c([H])c([H])c2c(c1[H])C([H])([H])C([H])([H])C([H])([H])C2([H])N([H])C(=O)C1([H])N(C(=O)C([H])(N([H])C(=O)C([H])(N([H])C([H])([H])[H])C([H])([H])[H])C(C([H])([H])[H])(C([H])([H])[H])C([H])([H])[H])C([H])([H])c2c([H])c(OC([H])([H])C(=O)N([H])C3([H])C([H])([H])N(C(=O)C([H])(C([H])(C([H])([H])[H])C([H])([H])C([H])([H])[H])[N+]([H])([H])[H])C([H])(C(=O)N([H])C(=O)N4C([H])([H])C([H])([H])C([H])([H])C([H])(n5nc(-c6c([H])c([H])c(Oc7c([H])c([H])c(F)c([H])c7F)c([H])c6[H])c(C(=O)N([H])[H])c5N([H])[H])C4([H])[H])C3([H])[H])c([H])c([H])c2C1([H])[H]

>  <smiles>  (59) 
[H]c1c([H])c([H])c2c(c1[H])C([H])([H])C([H])([H])C([H])([H])C2([H])N([H])C(=O)C1([H])N(C(=O)C([H])(N([H])C(=O)C([H])(N([H])C([H])([H])[H])C([H])([H])[H])C(C([H])([H])[H])(C([H])([H])[H])C([H])([H])[H])C([H])([H])c2c([H])c(OC([H])([H])C(=O)N([H])C3([H])C([H])([H])N(C(=O)C([H])(C([H])(C([H])([H])[H])C([H])([H])C([H])([H])[H])[N+]([H])([H])[H])C([H])(C(=O)N([H])C(=O)N4C([H])([H])C([H])([H])C([H])([H])C([H])(n5nc(-c6c([H])c([H])c(Oc7c([H])c([H])c(F)c([H])c7F)c([H])c6[H])c(C(=O)N([H])[H])c5N([H])[H])C4([H])[H])C3([H])[H])c([H])c([H])c2C1([H])[H]

$$$$
59:0:0
     RDKit          3D

 95103  0  0  1  0  0  0  0  0999 V2000
  -29.8080  -22.1000   19.8460 C   0  0  0  0  0  2  0  0  0  0  0  0
  -31.1620  -21.3590   17.8850 C   0  0  0  0  0  1  0  0  0  0  0  0
  -30.4750  -21.0030   19.1300 N   0  0  0  0  0  0  0  0  0  0  0  0
  -30.7860  -18.6180   18.6150 C   0  0  0  0  0  3  0  0  0  0  0  0
  -30.7080  -17.2560   18.9570 C   0  0  0  0  0  3  0  0  0  0  0  0
  -29.9590  -19.2260   20.8050 C   0  0  0  0  0  3  0  0  0  0  0  0
  -30.4050  -19.6370   19.5230 C   0  0  0  0  0  0  0  0  0  0  0  0
  -30.2540  -16.8550   20.2350 C   0  0  0  0  0  0  0  0  0  0  0  0
  -29.8720  -17.8560   21.1500 C   0  0  0  0  0  0  0  0  0  0  0  0
  -29.4170  -17.4990   22.3780 F   0  0  0  0  0  0  0  0  0  0  0  0
  -30.7870  -14.4410   20.0740 C   0  0  0  0  0  0  0  0  0  0  0  0
  -30.3880  -12.3260   18.8970 C   0  0  0  0  0  2  0  0  0  0  0  0
  -29.3880  -12.6070   17.7570 C   0  0  0  0  0  2  0  0  0  0  0  0
  -27.9390  -12.4670   18.2620 C   0  0  0  0  0  2  0  0  0  0  0  0
  -27.6840  -13.2520   19.5760 C   0  0  0  0  0  3  0  0  0  0  0  0
  -28.7980  -12.9840   20.6140 C   0  0  0  0  0  2  0  0  0  0  0  0
  -30.0960  -13.2760   19.9820 N   0  0  0  0  0  0  0  0  0  0  0  0
  -31.9060  -14.5940   19.5800 O   0  0  0  0  0  0  0  0  0  0  0  0
  -30.1130  -15.4780   20.6020 N   0  0  0  0  0  0  0  0  0  0  0  0
  -29.3180  -15.2550   21.1810 H   0  0  0  0  0  0  0  0  0  0  0  0
  -25.3240  -13.8370   20.4180 C   0  0  0  0  0  0  0  0  0  0  0  0
  -24.2790  -13.0530   20.8310 C   0  0  0  0  0  0  0  0  0  0  0  0
  -24.7440  -11.7030   20.7540 C   0  0  0  0  0  0  0  0  0  0  0  0
  -26.3590  -12.9640   20.1210 N   0  0  0  0  0  0  0  0  0  0  0  0
  -26.0160  -11.6760   20.3790 N   0  0  0  0  0  0  0  0  0  0  0  0
  -24.0340  -10.4340   20.9610 C   0  0  0  0  0  0  0  0  0  0  0  0
  -24.4910   -9.4750   21.8910 C   0  0  0  0  0  3  0  0  0  0  0  0
  -23.7790   -8.2710   22.0860 C   0  0  0  0  0  3  0  0  0  0  0  0
  -22.5980   -8.0180   21.3490 C   0  0  0  0  0  0  0  0  0  0  0  0
  -22.1610   -8.9650   20.4070 C   0  0  0  0  0  3  0  0  0  0  0  0
  -22.8730  -10.1610   20.2100 C   0  0  0  0  0  3  0  0  0  0  0  0
  -21.8570   -6.8660   21.4530 O   0  0  0  0  0  0  0  0  0  0  0  0
  -21.7910   -6.1540   22.6240 C   0  0  0  0  0  0  0  0  0  0  0  0
  -21.3410   -6.7390   23.8270 C   0  0  0  0  0  3  0  0  0  0  0  0
  -21.2240   -5.9540   24.9910 C   0  0  0  0  0  3  0  0  0  0  0  0
  -21.5460   -4.5850   24.9530 C   0  0  0  0  0  0  0  0  0  0  0  0
  -21.9900   -3.9990   23.7550 C   0  0  0  0  0  3  0  0  0  0  0  0
  -22.1090   -4.7810   22.5930 C   0  0  0  0  0  0  0  0  0  0  0  0
  -22.5170   -4.2070   21.4360 F   0  0  0  0  0  0  0  0  0  0  0  0
  -21.4260   -3.8290   26.0690 F   0  0  0  0  0  0  0  0  0  0  0  0
  -22.8970  -13.5190   21.1850 C   0  0  0  0  0  0  0  0  0  0  0  0
  -22.2230  -12.8110   22.0840 N   0  0  0  0  0  0  0  0  0  0  0  0
  -22.4240  -14.5450   20.6980 O   0  0  0  0  0  0  0  0  0  0  0  0
  -22.6180  -11.9780   22.4980 H   0  0  0  0  0  0  0  0  0  0  0  0
  -21.2980  -13.1050   22.3650 H   0  0  0  0  0  0  0  0  0  0  0  0
  -25.4750  -15.2110   20.2540 N   0  0  0  0  0  0  0  0  0  0  0  0
  -24.7120  -15.8610   20.4030 H   0  0  0  0  0  0  0  0  0  0  0  0
  -26.3080  -15.6560   19.8920 H   0  0  0  0  0  0  0  0  0  0  0  0
  -30.8190  -23.0420   20.5480 C   0  0  0  0  0  2  0  0  0  0  0  0
  -31.5520  -25.3350   20.9920 C   0  0  0  0  0  1  0  0  0  0  0  0
  -30.4080  -24.4750   20.5880 N   0  0  2  0  0  4  0  0  0  0  0  0
  -30.1980  -24.7390   19.6350 H   0  0  0  0  0  0  0  0  0  0  0  0
  -29.1710  -24.7240   21.3870 C   0  0  0  0  0  2  0  0  0  0  0  0
  -28.7130  -26.2000   21.4200 C   0  0  0  0  0  2  0  0  0  0  0  0
  -28.3860  -26.6620   20.1070 O   0  0  0  0  0  0  0  0  0  0  0  0
  -24.6310  -31.8530   23.1970 C   0  0  0  0  0  0  0  0  0  0  0  0
  -27.2560  -27.4410   20.0870 C   0  0  0  0  0  0  0  0  0  0  0  0
  -23.4160  -30.4580   21.5540 C   0  0  0  0  0  3  0  0  0  0  0  0
  -24.8630  -28.9280   20.1120 C   0  0  0  0  0  0  0  0  0  0  0  0
  -25.9370  -30.8220   21.3430 C   0  0  0  0  0  2  0  0  0  0  0  0
  -26.0200  -29.4540   20.7020 C   0  0  0  0  0  0  0  0  0  0  0  0
  -27.2210  -28.7150   20.6930 C   0  0  0  0  0  3  0  0  0  0  0  0
  -26.0930  -26.9270   19.4820 C   0  0  0  0  0  3  0  0  0  0  0  0
  -24.8930  -27.6620   19.4990 C   0  0  0  0  0  3  0  0  0  0  0  0
  -23.6180  -29.7830   20.1690 C   0  0  0  0  0  2  0  0  0  0  0  0
  -24.6800  -31.0570   22.0900 N   0  0  0  0  0  0  0  0  0  0  0  0
  -23.5530  -32.1220   23.7440 O   0  0  0  0  0  0  0  0  0  0  0  0
  -22.7700  -29.4310   22.5130 C   0  0  0  0  0  0  0  0  0  0  0  0
  -21.4440  -29.2590   22.3990 N   0  0  0  0  0  0  0  0  0  0  0  0
  -23.4590  -28.7930   23.3150 O   0  0  0  0  0  0  0  0  0  0  0  0
  -20.9500  -29.8260   21.7230 H   0  0  0  0  0  0  0  0  0  0  0  0
  -18.0660  -28.0930   22.9240 C   0  0  0  0  0  0  0  0  0  0  0  0
  -20.6280  -28.3210   23.1690 C   0  0  0  0  0  3  0  0  0  0  0  0
  -20.7100  -26.8950   22.5780 C   0  0  0  0  0  2  0  0  0  0  0  0
  -19.5930  -26.5940   21.5720 C   0  0  0  0  0  2  0  0  0  0  0  0
  -18.2190  -26.7480   22.2320 C   0  0  0  0  0  2  0  0  0  0  0  0
  -19.1970  -28.8390   23.3500 C   0  0  0  0  0  0  0  0  0  0  0  0
  -19.0010  -30.0990   23.9550 C   0  0  0  0  0  3  0  0  0  0  0  0
  -17.7030  -30.6130   24.1410 C   0  0  0  0  0  3  0  0  0  0  0  0
  -16.5860  -29.8640   23.7330 C   0  0  0  0  0  3  0  0  0  0  0  0
  -16.7680  -28.6060   23.1310 C   0  0  0  0  0  3  0  0  0  0  0  0
  -25.9220  -32.4780   23.8130 C   0  0  0  0  0  3  0  0  0  0  0  0
  -25.6110  -33.8690   24.1660 N   0  0  0  0  0  0  0  0  0  0  0  0
  -25.9280  -34.9330   23.4150 C   0  0  0  0  0  0  0  0  0  0  0  0
  -26.5830  -34.8460   22.3740 O   0  0  0  0  0  0  0  0  0  0  0  0
  -25.0290  -34.0110   24.9780 H   0  0  0  0  0  0  0  0  0  0  0  0
  -24.1830  -36.7170   23.1060 C   0  0  0  0  0  1  0  0  0  0  0  0
  -25.4380  -36.3130   23.8960 C   0  0  0  0  0  3  0  0  0  0  0  0
  -27.5800  -37.2000   24.7040 C   0  0  0  0  0  1  0  0  0  0  0  0
  -26.4610  -37.3730   23.7800 N   0  0  0  0  0  0  0  0  0  0  0  0
  -26.0530  -38.2890   23.9460 H   0  0  0  0  0  0  0  0  0  0  0  0
  -26.4580  -31.6880   25.0690 C   0  0  1  0  0  0  0  0  0  0  0  0
  -25.3800  -31.4250   26.1460 C   0  0  0  0  0  1  0  0  0  0  0  0
  -27.0450  -30.3220   24.6410 C   0  0  0  0  0  1  0  0  0  0  0  0
  -27.6140  -32.4760   25.7300 C   0  0  0  0  0  1  0  0  0  0  0  0
  1 49  1  0
  2  3  1  0
  3  7  1  0
  3  1  1  0
  4  5  2  0
  4  7  1  0
  5  8  1  0
  6  9  1  0
  7  6  2  0
  8 19  1  0
  8  9  2  0
  9 10  1  0
 11 19  1  0
 12 17  1  0
 13 14  1  0
 13 12  1  0
 15 14  1  0
 15 24  1  0
 15 16  1  0
 17 11  1  0
 17 16  1  0
 18 11  2  0
 19 20  1  0
 21 22  2  0
 22 41  1  0
 23 22  1  0
 23 26  1  0
 24 25  1  0
 24 21  1  0
 25 23  2  0
 26 27  1  0
 27 28  2  0
 29 32  1  0
 29 28  1  0
 30 29  2  0
 31 30  1  0
 31 26  2  0
 32 33  1  0
 33 34  1  0
 34 35  2  0
 36 35  1  0
 36 40  1  0
 37 36  2  0
 38 33  2  0
 38 37  1  0
 39 38  1  0
 41 42  1  0
 42 45  1  0
 42 44  1  0
 43 41  2  0
 46 47  1  0
 46 21  1  0
 48 46  1  0
 49 51  1  0
 51 50  1  0
 51 53  1  0
 51 52  1  6
 53 54  1  0
 55 54  1  0
 56 67  2  0
 57 55  1  0
 57 62  1  0
 58 66  1  0
 58 68  1  0
 59 65  1  0
 59 61  1  0
 60 66  1  0
 61 60  1  0
 62 61  2  0
 63 64  1  0
 63 57  2  0
 64 59  2  0
 65 58  1  0
 66 56  1  0
 68 70  2  0
 69 68  1  0
 71 69  1  0
 72 81  2  0
 72 77  1  0
 73 69  1  0
 73 77  1  0
 74 73  1  0
 75 76  1  0
 75 74  1  0
 76 72  1  0
 77 78  2  0
 78 79  1  0
 80 79  2  0
 81 80  1  0
 82 56  1  0
 82 83  1  0
 82 92  1  0
 83 86  1  0
 84 88  1  0
 84 83  1  0
 85 84  2  0
 88 87  1  0
 90 88  1  0
 90 91  1  0
 90 89  1  0
 92 95  1  1
 92 93  1  0
 94 92  1  0
M  ISO  4  11 100  19 100  54 101  55 101
M  END
>  <TORSDO>  (60) 
F 22

>  <SCORE>  (60) 
-12.699

>  <name>  (60) 
59

>  <ligand_id>  (60) 
59

>  <original_smiles>  (60) 
[H]c1c([H])c([H])c2c(c1[H])C([H])([H])C([H])([H])C([H])([H])C2([H])N([H])C(=O)C1([H])N(C(=O)C([H])(N([H])C(=O)C([H])(N([H])C([H])([H])[H])C([H])([H])[H])C(C([H])([H])[H])(C([H])([H])[H])C([H])([H])[H])C([H])([H])c2c([H])c(OC([H])([H])C([H])([H])[N+]([H])(C([H])([H])[H])C([H])([H])C([H])([H])N(c3c([H])c([H])c(N([H])C(=O)N4C([H])([H])C([H])([H])C([H])([H])C([H])(n5nc(-c6c([H])c([H])c(Oc7c([H])c([H])c(F)c([H])c7F)c([H])c6[H])c(C(=O)N([H])[H])c5N([H])[H])C4([H])[H])c(F)c3[H])C([H])([H])[H])c([H])c([H])c2C1([H])[H]

>  <smiles>  (60) 
[H]c1c([H])c([H])c2c(c1[H])C([H])([H])C([H])([H])C([H])([H])C2([H])N([H])C(=O)C1([H])N(C(=O)C([H])(N([H])C(=O)C([H])(N([H])C([H])([H])[H])C([H])([H])[H])C(C([H])([H])[H])(C([H])([H])[H])C([H])([H])[H])C([H])([H])c2c([H])c(OC([H])([H])C([H])([H])[N+]([H])(C([H])([H])[H])C([H])([H])C([H])([H])N(c3c([H])c([H])c(N([H])C(=O)N4C([H])([H])C([H])([H])C([H])([H])C([H])(n5nc(-c6c([H])c([H])c(Oc7c([H])c([H])c(F)c([H])c7F)c([H])c6[H])c(C(=O)N([H])[H])c5N([H])[H])C4([H])[H])c(F)c3[H])C([H])([H])[H])c([H])c([H])c2C1([H])[H]

$$$$
60:0:0
     RDKit          3D

 95103  0  0  1  0  0  0  0  0999 V2000
  -29.2990  -18.4620   21.1430 C   0  0  0  0  0  3  0  0  0  0  0  0
  -28.6230  -19.6590   21.4880 C   0  0  0  0  0  3  0  0  0  0  0  0
  -30.2900  -19.6140   19.2610 C   0  0  0  0  0  3  0  0  0  0  0  0
  -30.1580  -18.4200   20.0200 C   0  0  0  0  0  0  0  0  0  0  0  0
  -28.7890  -20.8530   20.7390 C   0  0  0  0  0  0  0  0  0  0  0  0
  -29.6240  -20.8060   19.6040 C   0  0  0  0  0  0  0  0  0  0  0  0
  -29.8080  -21.9020   18.8310 F   0  0  0  0  0  0  0  0  0  0  0  0
  -32.4550  -17.6100   20.2140 C   0  0  0  0  0  1  0  0  0  0  0  0
  -31.1100  -17.0080   18.1430 C   0  0  0  0  0  1  0  0  0  0  0  0
  -31.0540  -17.1990   19.6840 C   0  0  2  0  0  0  0  0  0  0  0  0
  -31.2490  -14.7000   20.1180 C   0  0  0  0  0  0  0  0  0  0  0  0
  -30.8260  -12.5210   19.0820 C   0  0  0  0  0  2  0  0  0  0  0  0
  -29.8950  -12.7300   17.8740 C   0  0  0  0  0  2  0  0  0  0  0  0
  -28.4250  -12.6340   18.3180 C   0  0  0  0  0  2  0  0  0  0  0  0
  -28.1120  -13.5020   19.5690 C   0  0  0  0  0  3  0  0  0  0  0  0
  -29.1810  -13.3390   20.6730 C   0  0  0  0  0  2  0  0  0  0  0  0
  -30.4980  -13.5670   20.0660 N   0  0  0  0  0  0  0  0  0  0  0  0
  -32.4260  -14.6810   19.7630 O   0  0  0  0  0  0  0  0  0  0  0  0
  -30.6020  -15.8880   20.2610 N   0  0  0  0  0  0  0  0  0  0  0  0
  -29.6340  -15.8320   20.5370 H   0  0  0  0  0  0  0  0  0  0  0  0
  -25.7530  -14.1420   20.3590 C   0  0  0  0  0  0  0  0  0  0  0  0
  -24.6720  -13.3860   20.7250 C   0  0  0  0  0  0  0  0  0  0  0  0
  -25.0940  -12.0230   20.6400 C   0  0  0  0  0  0  0  0  0  0  0  0
  -26.7650  -13.2410   20.0740 N   0  0  0  0  0  0  0  0  0  0  0  0
  -26.3760  -11.9600   20.3020 N   0  0  0  0  0  0  0  0  0  0  0  0
  -24.3350  -10.7760   20.8020 C   0  0  0  0  0  0  0  0  0  0  0  0
  -24.7490   -9.7700   21.7030 C   0  0  0  0  0  3  0  0  0  0  0  0
  -23.9910   -8.5890   21.8540 C   0  0  0  0  0  3  0  0  0  0  0  0
  -22.8050   -8.4060   21.1040 C   0  0  0  0  0  0  0  0  0  0  0  0
  -22.4110   -9.4000   20.1910 C   0  0  0  0  0  3  0  0  0  0  0  0
  -23.1690  -10.5730   20.0380 C   0  0  0  0  0  3  0  0  0  0  0  0
  -22.0170   -7.2810   21.1670 O   0  0  0  0  0  0  0  0  0  0  0  0
  -21.9470   -6.5150   22.3030 C   0  0  0  0  0  0  0  0  0  0  0  0
  -21.5030   -7.0460   23.5340 C   0  0  0  0  0  3  0  0  0  0  0  0
  -21.3790   -6.2050   24.6590 C   0  0  0  0  0  3  0  0  0  0  0  0
  -21.6910   -4.8370   24.5540 C   0  0  0  0  0  0  0  0  0  0  0  0
  -22.1270   -4.3050   23.3280 C   0  0  0  0  0  3  0  0  0  0  0  0
  -22.2520   -5.1430   22.2050 C   0  0  0  0  0  0  0  0  0  0  0  0
  -22.6540   -4.6210   21.0210 F   0  0  0  0  0  0  0  0  0  0  0  0
  -21.5650   -4.0280   25.6320 F   0  0  0  0  0  0  0  0  0  0  0  0
  -23.2940  -13.8930   21.0410 C   0  0  0  0  0  0  0  0  0  0  0  0
  -22.5660  -13.1940   21.9050 N   0  0  0  0  0  0  0  0  0  0  0  0
  -22.8750  -14.9440   20.5600 O   0  0  0  0  0  0  0  0  0  0  0  0
  -22.9190  -12.3430   22.3180 H   0  0  0  0  0  0  0  0  0  0  0  0
  -21.6430  -13.5150   22.1580 H   0  0  0  0  0  0  0  0  0  0  0  0
  -25.9520  -15.5130   20.2250 N   0  0  0  0  0  0  0  0  0  0  0  0
  -25.2060  -16.1840   20.3780 H   0  0  0  0  0  0  0  0  0  0  0  0
  -26.8050  -15.9430   19.8900 H   0  0  0  0  0  0  0  0  0  0  0  0
  -28.0170  -22.1270   21.1370 C   0  0  0  0  0  2  0  0  0  0  0  0
  -28.1640  -24.5140   20.3380 C   0  0  0  0  0  0  0  0  0  0  0  0
  -28.6790  -23.4430   20.9810 N   0  0  0  0  0  0  0  0  0  0  0  0
  -27.1710  -24.3990   19.6200 O   0  0  0  0  0  0  0  0  0  0  0  0
  -29.5070  -23.6000   21.5380 H   0  0  0  0  0  0  0  0  0  0  0  0
  -28.8090  -25.9120   20.5900 C   0  0  0  0  0  2  0  0  0  0  0  0
  -28.5630  -26.8910   19.5500 O   0  0  0  0  0  0  0  0  0  0  0  0
  -24.6700  -31.6650   23.2030 C   0  0  0  0  0  0  0  0  0  0  0  0
  -27.4060  -27.6350   19.6660 C   0  0  0  0  0  0  0  0  0  0  0  0
  -23.4950  -30.4160   21.4210 C   0  0  0  0  0  3  0  0  0  0  0  0
  -24.9840  -29.0860   19.8330 C   0  0  0  0  0  0  0  0  0  0  0  0
  -26.0110  -30.8570   21.2630 C   0  0  0  0  0  2  0  0  0  0  0  0
  -26.1300  -29.5620   20.4850 C   0  0  0  0  0  0  0  0  0  0  0  0
  -27.3460  -28.8380   20.4090 C   0  0  0  0  0  3  0  0  0  0  0  0
  -26.2550  -27.2040   18.9770 C   0  0  0  0  0  3  0  0  0  0  0  0
  -25.0410  -27.9060   19.0770 C   0  0  0  0  0  3  0  0  0  0  0  0
  -23.7180  -29.9020   19.9740 C   0  0  0  0  0  2  0  0  0  0  0  0
  -24.7430  -30.9900   22.0210 N   0  0  0  0  0  0  0  0  0  0  0  0
  -23.5840  -31.8450   23.7710 O   0  0  0  0  0  0  0  0  0  0  0  0
  -22.8800  -29.2750   22.2640 C   0  0  0  0  0  0  0  0  0  0  0  0
  -21.5600  -29.0720   22.1250 N   0  0  0  0  0  0  0  0  0  0  0  0
  -23.5870  -28.5830   23.0020 O   0  0  0  0  0  0  0  0  0  0  0  0
  -21.0500  -29.6860   21.5050 H   0  0  0  0  0  0  0  0  0  0  0  0
  -18.2210  -27.7460   22.5140 C   0  0  0  0  0  0  0  0  0  0  0  0
  -20.7750  -28.0340   22.7920 C   0  0  0  0  0  3  0  0  0  0  0  0
  -20.9040  -26.6800   22.0560 C   0  0  0  0  0  2  0  0  0  0  0  0
  -19.7990  -26.4470   21.0230 C   0  0  0  0  0  2  0  0  0  0  0  0
  -18.4210  -26.4860   21.6900 C   0  0  0  0  0  2  0  0  0  0  0  0
  -19.3260  -28.4810   23.0180 C   0  0  0  0  0  0  0  0  0  0  0  0
  -19.0870  -29.6660   23.7480 C   0  0  0  0  0  3  0  0  0  0  0  0
  -17.7730  -30.1140   23.9810 C   0  0  0  0  0  3  0  0  0  0  0  0
  -16.6810  -29.3750   23.4930 C   0  0  0  0  0  3  0  0  0  0  0  0
  -16.9070  -28.1920   22.7660 C   0  0  0  0  0  3  0  0  0  0  0  0
  -25.9420  -32.2620   23.8830 C   0  0  0  0  0  3  0  0  0  0  0  0
  -26.4420  -31.4160   25.1180 C   0  0  1  0  0  0  0  0  0  0  0  0
  -25.3350  -31.1170   26.1550 C   0  0  0  0  0  1  0  0  0  0  0  0
  -27.0300  -30.0640   24.6520 C   0  0  0  0  0  1  0  0  0  0  0  0
  -27.5820  -32.1710   25.8410 C   0  0  0  0  0  1  0  0  0  0  0  0
  -25.6200  -33.6360   24.2880 N   0  0  0  0  0  0  0  0  0  0  0  0
  -25.9480  -34.7320   23.5900 C   0  0  0  0  0  0  0  0  0  0  0  0
  -26.6250  -34.6910   22.5590 O   0  0  0  0  0  0  0  0  0  0  0  0
  -25.0190  -33.7420   25.0930 H   0  0  0  0  0  0  0  0  0  0  0  0
  -24.1970  -36.5190   23.3340 C   0  0  0  0  0  1  0  0  0  0  0  0
  -25.4450  -36.0880   24.1200 C   0  0  0  0  0  3  0  0  0  0  0  0
  -27.5640  -36.9590   24.9990 C   0  0  0  0  0  1  0  0  0  0  0  0
  -26.4640  -37.1580   24.0600 N   0  0  0  0  0  0  0  0  0  0  0  0
  -26.0460  -38.0650   24.2480 H   0  0  0  0  0  0  0  0  0  0  0  0
  1  2  1  0
  3  6  2  0
  3  4  1  0
  4  1  2  0
  5 49  1  0
  5  2  2  0
  6  5  1  0
  7  6  1  0
 10  9  1  6
 10  4  1  0
 10  8  1  0
 10 19  1  0
 11 19  1  0
 12 17  1  0
 13 14  1  0
 13 12  1  0
 15 14  1  0
 15 24  1  0
 15 16  1  0
 17 11  1  0
 17 16  1  0
 18 11  2  0
 19 20  1  0
 21 22  2  0
 22 41  1  0
 23 22  1  0
 23 26  1  0
 24 25  1  0
 24 21  1  0
 25 23  2  0
 26 27  1  0
 27 28  2  0
 29 32  1  0
 29 28  1  0
 30 29  2  0
 31 30  1  0
 31 26  2  0
 32 33  1  0
 33 34  1  0
 34 35  2  0
 36 35  1  0
 36 40  1  0
 37 36  2  0
 38 33  2  0
 38 37  1  0
 39 38  1  0
 41 42  1  0
 42 45  1  0
 42 44  1  0
 43 41  2  0
 46 21  1  0
 46 47  1  0
 48 46  1  0
 50 54  1  0
 50 51  1  0
 51 49  1  0
 51 53  1  0
 52 50  2  0
 55 57  1  0
 55 54  1  0
 56 67  2  0
 57 62  1  0
 58 66  1  0
 58 68  1  0
 59 65  1  0
 59 61  1  0
 60 66  1  0
 61 60  1  0
 62 61  2  0
 63 64  1  0
 63 57  2  0
 64 59  2  0
 65 58  1  0
 66 56  1  0
 68 70  2  0
 69 68  1  0
 71 69  1  0
 72 81  2  0
 72 77  1  0
 73 69  1  0
 73 77  1  0
 74 73  1  0
 75 76  1  0
 75 74  1  0
 76 72  1  0
 77 78  2  0
 78 79  1  0
 80 79  2  0
 81 80  1  0
 82 56  1  0
 82 87  1  0
 82 83  1  0
 83 86  1  1
 83 84  1  0
 85 83  1  0
 87 90  1  0
 88 92  1  0
 88 87  1  0
 89 88  2  0
 92 91  1  0
 94 92  1  0
 94 95  1  0
 94 93  1  0
M  ISO  4  11 100  19 100  54 101  55 101
M  END
>  <TORSDO>  (61) 
F 20

>  <SCORE>  (61) 
-11.944

>  <name>  (61) 
60

>  <ligand_id>  (61) 
60

>  <original_smiles>  (61) 
[H]c1c([H])c([H])c2c(c1[H])C([H])([H])C([H])([H])C([H])([H])C2([H])N([H])C(=O)C1([H])N(C(=O)C([H])(N([H])C(=O)C([H])(N([H])C([H])([H])[H])C([H])([H])[H])C(C([H])([H])[H])(C([H])([H])[H])C([H])([H])[H])C([H])([H])c2c([H])c(OC([H])([H])C(=O)N([H])C([H])([H])c3c([H])c([H])c(C(N([H])C(=O)N4C([H])([H])C([H])([H])C([H])([H])C([H])(n5nc(-c6c([H])c([H])c(Oc7c([H])c([H])c(F)c([H])c7F)c([H])c6[H])c(C(=O)N([H])[H])c5N([H])[H])C4([H])[H])(C([H])([H])[H])C([H])([H])[H])c([H])c3F)c([H])c([H])c2C1([H])[H]

>  <smiles>  (61) 
[H]c1c([H])c([H])c2c(c1[H])C([H])([H])C([H])([H])C([H])([H])C2([H])N([H])C(=O)C1([H])N(C(=O)C([H])(N([H])C(=O)C([H])(N([H])C([H])([H])[H])C([H])([H])[H])C(C([H])([H])[H])(C([H])([H])[H])C([H])([H])[H])C([H])([H])c2c([H])c(OC([H])([H])C(=O)N([H])C([H])([H])c3c([H])c([H])c(C(N([H])C(=O)N4C([H])([H])C([H])([H])C([H])([H])C([H])(n5nc(-c6c([H])c([H])c(Oc7c([H])c([H])c(F)c([H])c7F)c([H])c6[H])c(C(=O)N([H])[H])c5N([H])[H])C4([H])[H])(C([H])([H])[H])C([H])([H])[H])c([H])c3F)c([H])c([H])c2C1([H])[H]

$$$$
61:0:0
     RDKit          3D

 97105  0  0  1  0  0  0  0  0999 V2000
  -29.7240  -21.5600   19.4630 C   0  0  0  0  0  3  0  0  0  0  0  0
  -28.7700  -19.1310   19.3520 C   0  0  0  0  0  3  0  0  0  0  0  0
  -28.8350  -17.7270   19.5960 C   0  0  0  0  0  3  0  0  0  0  0  0
  -30.6250  -18.0760   21.1580 C   0  0  0  0  0  3  0  0  0  0  0  0
  -29.6370  -20.0620   19.9880 C   0  0  0  0  0  0  0  0  0  0  0  0
  -29.7870  -17.1510   20.4770 C   0  0  0  0  0  0  0  0  0  0  0  0
  -30.5490  -19.4890   20.9260 C   0  0  0  0  0  0  0  0  0  0  0  0
  -31.4050  -20.2950   21.5990 F   0  0  0  0  0  0  0  0  0  0  0  0
  -30.5860  -14.6870   20.4220 C   0  0  0  0  0  0  0  0  0  0  0  0
  -30.4120  -12.4500   19.3530 C   0  0  0  0  0  2  0  0  0  0  0  0
  -29.4570  -12.5740   18.1420 C   0  0  0  0  0  2  0  0  0  0  0  0
  -27.9880  -12.4030   18.5770 C   0  0  0  0  0  2  0  0  0  0  0  0
  -27.6290  -13.2620   19.8160 C   0  0  0  0  0  3  0  0  0  0  0  0
  -28.6890  -13.0950   20.9290 C   0  0  0  0  0  2  0  0  0  0  0  0
  -29.9950  -13.4520   20.3520 N   0  0  0  0  0  0  0  0  0  0  0  0
  -31.7480  -14.8690   20.0490 O   0  0  0  0  0  0  0  0  0  0  0  0
  -29.7440  -15.7160   20.7610 N   0  0  0  0  0  0  0  0  0  0  0  0
  -28.8290  -15.3710   21.0040 H   0  0  0  0  0  0  0  0  0  0  0  0
  -25.2390  -13.8710   20.5410 C   0  0  0  0  0  0  0  0  0  0  0  0
  -24.1690  -13.1010   20.9080 C   0  0  0  0  0  0  0  0  0  0  0  0
  -24.6250  -11.7480   20.8670 C   0  0  0  0  0  0  0  0  0  0  0  0
  -26.2790  -12.9870   20.2990 N   0  0  0  0  0  0  0  0  0  0  0  0
  -25.9150  -11.7050   20.5560 N   0  0  0  0  0  0  0  0  0  0  0  0
  -23.8940  -10.4870   21.0480 C   0  0  0  0  0  0  0  0  0  0  0  0
  -24.3090   -9.5230   21.9930 C   0  0  0  0  0  3  0  0  0  0  0  0
  -23.5800   -8.3260   22.1610 C   0  0  0  0  0  3  0  0  0  0  0  0
  -22.4240   -8.0840   21.3820 C   0  0  0  0  0  0  0  0  0  0  0  0
  -22.0290   -9.0370   20.4260 C   0  0  0  0  0  3  0  0  0  0  0  0
  -22.7590  -10.2260   20.2560 C   0  0  0  0  0  3  0  0  0  0  0  0
  -21.6680   -6.9390   21.4600 O   0  0  0  0  0  0  0  0  0  0  0  0
  -21.5870   -6.2080   22.6170 C   0  0  0  0  0  0  0  0  0  0  0  0
  -21.0930   -6.7640   23.8170 C   0  0  0  0  0  3  0  0  0  0  0  0
  -20.9610   -5.9580   24.9650 C   0  0  0  0  0  3  0  0  0  0  0  0
  -21.3120   -4.5950   24.9130 C   0  0  0  0  0  0  0  0  0  0  0  0
  -21.8000   -4.0380   23.7170 C   0  0  0  0  0  3  0  0  0  0  0  0
  -21.9320   -4.8420   22.5720 C   0  0  0  0  0  0  0  0  0  0  0  0
  -22.3820   -4.2960   21.4170 F   0  0  0  0  0  0  0  0  0  0  0  0
  -21.1780   -3.8170   26.0120 F   0  0  0  0  0  0  0  0  0  0  0  0
  -22.7740  -13.5820   21.1830 C   0  0  0  0  0  0  0  0  0  0  0  0
  -22.0400  -12.8740   22.0350 N   0  0  0  0  0  0  0  0  0  0  0  0
  -22.3420  -14.6160   20.6770 O   0  0  0  0  0  0  0  0  0  0  0  0
  -22.4010  -12.0340   22.4620 H   0  0  0  0  0  0  0  0  0  0  0  0
  -21.1040  -13.1780   22.2630 H   0  0  0  0  0  0  0  0  0  0  0  0
  -25.4100  -15.2420   20.3720 N   0  0  0  0  0  0  0  0  0  0  0  0
  -24.6470  -15.8990   20.4930 H   0  0  0  0  0  0  0  0  0  0  0  0
  -26.2500  -15.6760   20.0130 H   0  0  0  0  0  0  0  0  0  0  0  0
  -28.7370  -23.9610   19.7670 C   0  0  0  0  0  0  0  0  0  0  0  0
  -29.1080  -22.7160   20.2380 N   0  0  0  0  0  0  0  0  0  0  0  0
  -28.8740  -24.2290   18.5710 O   0  0  0  0  0  0  0  0  0  0  0  0
  -28.9730  -22.5520   21.2270 H   0  0  0  0  0  0  0  0  0  0  0  0
  -28.1590  -25.0960   20.7070 C   0  0  0  0  0  2  0  0  0  0  0  0
  -28.3380  -26.4940   20.2220 O   0  0  0  0  0  0  0  0  0  0  0  0
  -24.5800  -31.8960   23.2180 C   0  0  0  0  0  0  0  0  0  0  0  0
  -27.2170  -27.3350   20.1980 C   0  0  0  0  0  0  0  0  0  0  0  0
  -23.3920  -30.4950   21.5680 C   0  0  0  0  0  3  0  0  0  0  0  0
  -24.8540  -28.9390   20.1610 C   0  0  0  0  0  0  0  0  0  0  0  0
  -25.9310  -30.8140   21.4070 C   0  0  0  0  0  2  0  0  0  0  0  0
  -26.0170  -29.4350   20.7630 C   0  0  0  0  0  0  0  0  0  0  0  0
  -27.2060  -28.6460   20.7650 C   0  0  0  0  0  3  0  0  0  0  0  0
  -26.0340  -26.8860   19.5780 C   0  0  0  0  0  3  0  0  0  0  0  0
  -24.8630  -27.6690   19.5590 C   0  0  0  0  0  3  0  0  0  0  0  0
  -23.6170  -29.8130   20.1940 C   0  0  0  0  0  2  0  0  0  0  0  0
  -24.6530  -31.0880   22.1210 N   0  0  0  0  0  0  0  0  0  0  0  0
  -23.4930  -32.1720   23.7440 O   0  0  0  0  0  0  0  0  0  0  0  0
  -22.7190  -29.4810   22.5240 C   0  0  0  0  0  0  0  0  0  0  0  0
  -21.3900  -29.3210   22.4010 N   0  0  0  0  0  0  0  0  0  0  0  0
  -23.3920  -28.8430   23.3380 O   0  0  0  0  0  0  0  0  0  0  0  0
  -20.9060  -29.8860   21.7160 H   0  0  0  0  0  0  0  0  0  0  0  0
  -17.9960  -28.1890   22.9310 C   0  0  0  0  0  0  0  0  0  0  0  0
  -20.5630  -28.3900   23.1690 C   0  0  0  0  0  3  0  0  0  0  0  0
  -20.6270  -26.9660   22.5720 C   0  0  0  0  0  2  0  0  0  0  0  0
  -19.5050  -26.6820   21.5680 C   0  0  0  0  0  2  0  0  0  0  0  0
  -18.1350  -26.8460   22.2330 C   0  0  0  0  0  2  0  0  0  0  0  0
  -19.1370  -28.9210   23.3570 C   0  0  0  0  0  0  0  0  0  0  0  0
  -18.9520  -30.1780   23.9710 C   0  0  0  0  0  3  0  0  0  0  0  0
  -17.6600  -30.7050   24.1610 C   0  0  0  0  0  3  0  0  0  0  0  0
  -16.5350  -29.9700   23.7490 C   0  0  0  0  0  3  0  0  0  0  0  0
  -16.7040  -28.7130   23.1420 C   0  0  0  0  0  3  0  0  0  0  0  0
  -25.8580  -32.5280   23.8510 C   0  0  0  0  0  3  0  0  0  0  0  0
  -25.5470  -33.9290   24.1710 N   0  0  0  0  0  0  0  0  0  0  0  0
  -25.8920  -34.9780   23.4140 C   0  0  0  0  0  0  0  0  0  0  0  0
  -26.5730  -34.8690   22.3900 O   0  0  0  0  0  0  0  0  0  0  0  0
  -24.9380  -34.0880   24.9610 H   0  0  0  0  0  0  0  0  0  0  0  0
  -24.1840  -36.7830   23.0230 C   0  0  0  0  0  1  0  0  0  0  0  0
  -25.4040  -36.3690   23.8610 C   0  0  0  0  0  3  0  0  0  0  0  0
  -27.5220  -37.2430   24.7440 C   0  0  0  0  0  1  0  0  0  0  0  0
  -26.4460  -37.4160   23.7720 N   0  0  0  0  0  0  0  0  0  0  0  0
  -26.0430  -38.3390   23.9080 H   0  0  0  0  0  0  0  0  0  0  0  0
  -26.3600  -31.7630   25.1370 C   0  0  1  0  0  0  0  0  0  0  0  0
  -25.2550  -31.5300   26.1930 C   0  0  0  0  0  1  0  0  0  0  0  0
  -26.9460  -30.3820   24.7610 C   0  0  0  0  0  1  0  0  0  0  0  0
  -27.5030  -32.5600   25.8090 C   0  0  0  0  0  1  0  0  0  0  0  0
  -31.2000  -21.8590   19.0700 C   0  0  0  0  0  2  0  0  0  0  0  0
  -31.3470  -22.9550   18.1010 N   0  0  0  0  0  4  0  0  0  0  0  0
  -31.2110  -22.6120   17.1670 H   0  0  0  0  0  0  0  0  0  0  0  0
  -32.2560  -23.3750   18.1620 H   0  0  0  0  0  0  0  0  0  0  0  0
  -30.6270  -23.6480   18.2750 H   0  0  0  0  0  0  0  0  0  0  0  0
  1 93  1  0
  1  5  1  0
  1 48  1  0
  2  3  2  0
  2  5  1  0
  3  6  1  0
  5  7  2  0
  6 17  1  0
  6  4  2  0
  7  4  1  0
  7  8  1  0
  9 17  1  0
 10 15  1  0
 11 12  1  0
 11 10  1  0
 13 12  1  0
 13 22  1  0
 13 14  1  0
 15  9  1  0
 15 14  1  0
 16  9  2  0
 17 18  1  0
 19 20  2  0
 20 39  1  0
 21 20  1  0
 21 24  1  0
 22 19  1  0
 22 23  1  0
 23 21  2  0
 24 25  1  0
 25 26  2  0
 27 30  1  0
 27 26  1  0
 28 27  2  0
 29 28  1  0
 29 24  2  0
 30 31  1  0
 31 32  1  0
 32 33  2  0
 34 33  1  0
 34 38  1  0
 35 34  2  0
 36 31  2  0
 36 35  1  0
 37 36  1  0
 39 40  1  0
 40 43  1  0
 40 42  1  0
 41 39  2  0
 44 45  1  0
 44 19  1  0
 46 44  1  0
 47 48  1  0
 47 51  1  0
 48 50  1  0
 49 47  2  0
 52 51  1  0
 53 64  2  0
 54 52  1  0
 54 59  1  0
 55 63  1  0
 55 65  1  0
 56 62  1  0
 56 58  1  0
 57 63  1  0
 58 59  2  0
 58 57  1  0
 60 54  2  0
 61 60  1  0
 61 56  2  0
 62 55  1  0
 63 53  1  0
 65 67  2  0
 66 65  1  0
 68 66  1  0
 69 78  2  0
 69 74  1  0
 70 66  1  0
 70 74  1  0
 71 70  1  0
 72 73  1  0
 72 71  1  0
 73 69  1  0
 74 75  2  0
 75 76  1  0
 77 76  2  0
 78 77  1  0
 79 53  1  0
 79 80  1  0
 79 89  1  0
 80 83  1  0
 81 85  1  0
 81 80  1  0
 82 81  2  0
 85 84  1  0
 87 85  1  0
 87 88  1  0
 87 86  1  0
 89 92  1  1
 89 90  1  0
 91 89  1  0
 94 96  1  0
 94 97  1  0
 94 93  1  0
 95 94  1  0
M  ISO  4   9 100  17 100  51 101  52 101
M  END
>  <TORSDO>  (62) 
F 21

>  <SCORE>  (62) 
-13.902

>  <name>  (62) 
61

>  <ligand_id>  (62) 
61

>  <original_smiles>  (62) 
[H]c1c([H])c([H])c2c(c1[H])C([H])([H])C([H])([H])C([H])([H])C2([H])N([H])C(=O)C1([H])N(C(=O)C([H])(N([H])C(=O)C([H])(N([H])C([H])([H])[H])C([H])([H])[H])C(C([H])([H])[H])(C([H])([H])[H])C([H])([H])[H])C([H])([H])c2c([H])c(OC([H])([H])C(=O)N([H])C([H])(c3c([H])c([H])c(N([H])C(=O)N4C([H])([H])C([H])([H])C([H])([H])C([H])(n5nc(-c6c([H])c([H])c(Oc7c([H])c([H])c(F)c([H])c7F)c([H])c6[H])c(C(=O)N([H])[H])c5N([H])[H])C4([H])[H])c([H])c3F)C([H])([H])[N+]([H])([H])[H])c([H])c([H])c2C1([H])[H]

>  <smiles>  (62) 
[H]c1c([H])c([H])c2c(c1[H])C([H])([H])C([H])([H])C([H])([H])C2([H])N([H])C(=O)C1([H])N(C(=O)C([H])(N([H])C(=O)C([H])(N([H])C([H])([H])[H])C([H])([H])[H])C(C([H])([H])[H])(C([H])([H])[H])C([H])([H])[H])C([H])([H])c2c([H])c(OC([H])([H])C(=O)N([H])C([H])(c3c([H])c([H])c(N([H])C(=O)N4C([H])([H])C([H])([H])C([H])([H])C([H])(n5nc(-c6c([H])c([H])c(Oc7c([H])c([H])c(F)c([H])c7F)c([H])c6[H])c(C(=O)N([H])[H])c5N([H])[H])C4([H])[H])c([H])c3F)C([H])([H])[N+]([H])([H])[H])c([H])c([H])c2C1([H])[H]

$$$$
62:0:0
     RDKit          3D

 93101  0  0  1  0  0  0  0  0999 V2000
  -29.0010  -23.3780   20.2790 C   0  0  0  0  0  3  0  0  0  0  0  0
  -28.8450  -21.8670   19.5830 C   0  0  0  0  0  0  0  0  0  0  0  0
  -28.1900  -18.9770   20.6090 C   0  0  0  0  0  2  0  0  0  0  0  0
  -28.8410  -20.1380   21.3730 C   0  0  0  0  0  2  0  0  0  0  0  0
  -29.2620  -19.1250   19.5230 C   0  0  0  0  0  3  0  0  0  0  0  0
  -29.4320  -20.5880   20.1100 N   0  0  0  0  0  0  0  0  0  0  0  0
  -28.2420  -21.8110   18.5120 O   0  0  0  0  0  0  0  0  0  0  0  0
  -30.8720  -15.2670   19.6990 C   0  0  0  0  0  0  0  0  0  0  0  0
  -30.7600  -12.8270   18.9800 C   0  0  0  0  0  2  0  0  0  0  0  0
  -29.7870  -12.6650   17.7910 C   0  0  0  0  0  2  0  0  0  0  0  0
  -28.3360  -12.4850   18.2770 C   0  0  0  0  0  2  0  0  0  0  0  0
  -27.9650  -13.4670   19.4180 C   0  0  0  0  0  3  0  0  0  0  0  0
  -29.0680  -13.6000   20.4880 C   0  0  0  0  0  2  0  0  0  0  0  0
  -30.2950  -13.9930   19.7850 N   0  0  0  0  0  0  0  0  0  0  0  0
  -32.0690  -15.2850   19.3790 O   0  0  0  0  0  0  0  0  0  0  0  0
  -30.3680  -17.8610   19.6180 C   0  0  0  0  0  0  0  0  0  0  0  0
  -30.0740  -16.4610   19.7700 N   0  0  0  0  0  0  0  0  0  0  0  0
  -31.5430  -18.2230   19.5200 O   0  0  0  0  0  0  0  0  0  0  0  0
  -29.0980  -16.2760   19.9310 H   0  0  0  0  0  0  0  0  0  0  0  0
  -25.6920  -14.0880   20.3800 C   0  0  0  0  0  0  0  0  0  0  0  0
  -24.6300  -13.3410   20.8110 C   0  0  0  0  0  0  0  0  0  0  0  0
  -25.0290  -11.9740   20.6760 C   0  0  0  0  0  0  0  0  0  0  0  0
  -26.6650  -13.1810   20.0070 N   0  0  0  0  0  0  0  0  0  0  0  0
  -26.2850  -11.9000   20.2470 N   0  0  0  0  0  0  0  0  0  0  0  0
  -24.2680  -10.7340   20.8720 C   0  0  0  0  0  0  0  0  0  0  0  0
  -24.6750   -9.7480   21.7980 C   0  0  0  0  0  3  0  0  0  0  0  0
  -23.9120   -8.5730   21.9740 C   0  0  0  0  0  3  0  0  0  0  0  0
  -22.7260   -8.3790   21.2290 C   0  0  0  0  0  0  0  0  0  0  0  0
  -22.3380   -9.3510   20.2910 C   0  0  0  0  0  3  0  0  0  0  0  0
  -23.1030  -10.5150   20.1130 C   0  0  0  0  0  3  0  0  0  0  0  0
  -21.9400   -7.2550   21.3170 O   0  0  0  0  0  0  0  0  0  0  0  0
  -21.7990   -6.5640   22.4940 C   0  0  0  0  0  0  0  0  0  0  0  0
  -21.2760   -7.1730   23.6570 C   0  0  0  0  0  3  0  0  0  0  0  0
  -21.0820   -6.4080   24.8250 C   0  0  0  0  0  3  0  0  0  0  0  0
  -21.4020   -5.0350   24.8310 C   0  0  0  0  0  0  0  0  0  0  0  0
  -21.9160   -4.4280   23.6720 C   0  0  0  0  0  3  0  0  0  0  0  0
  -22.1070   -5.1880   22.5070 C   0  0  0  0  0  0  0  0  0  0  0  0
  -22.5820   -4.5920   21.3850 F   0  0  0  0  0  0  0  0  0  0  0  0
  -21.2060   -4.3000   25.9510 F   0  0  0  0  0  0  0  0  0  0  0  0
  -23.2850  -13.8660   21.2170 C   0  0  0  0  0  0  0  0  0  0  0  0
  -22.5920  -13.1580   22.1050 N   0  0  0  0  0  0  0  0  0  0  0  0
  -22.8570  -14.9330   20.7770 O   0  0  0  0  0  0  0  0  0  0  0  0
  -22.9640  -12.3060   22.4950 H   0  0  0  0  0  0  0  0  0  0  0  0
  -21.6820  -13.4790   22.4040 H   0  0  0  0  0  0  0  0  0  0  0  0
  -25.9150  -15.4510   20.2320 N   0  0  0  0  0  0  0  0  0  0  0  0
  -25.1620  -16.1230   20.3280 H   0  0  0  0  0  0  0  0  0  0  0  0
  -26.7000  -15.8020   19.6990 H   0  0  0  0  0  0  0  0  0  0  0  0
  -30.4300  -23.7290   20.2030 N   0  0  0  0  0  4  0  0  0  0  0  0
  -30.1940  -24.4280   20.8880 H   0  0  0  0  0  0  0  0  0  0  0  0
  -30.5010  -22.7270   20.3000 H   0  0  0  0  0  0  0  0  0  0  0  0
  -31.1810  -23.5950   20.8590 H   0  0  0  0  0  0  0  0  0  0  0  0
  -28.0800  -24.7490   19.8590 C   0  0  0  0  0  2  0  0  0  0  0  0
  -28.3030  -26.2700   20.2150 O   0  0  0  0  0  0  0  0  0  0  0  0
  -24.5850  -31.8990   23.1700 C   0  0  0  0  0  0  0  0  0  0  0  0
  -27.2540  -27.2650   20.1050 C   0  0  0  0  0  0  0  0  0  0  0  0
  -23.4220  -30.5200   21.4900 C   0  0  0  0  0  3  0  0  0  0  0  0
  -24.9110  -29.0000   20.0460 C   0  0  0  0  0  0  0  0  0  0  0  0
  -25.9780  -30.8240   21.3660 C   0  0  0  0  0  2  0  0  0  0  0  0
  -26.0780  -29.4480   20.6790 C   0  0  0  0  0  0  0  0  0  0  0  0
  -27.2510  -28.6000   20.6880 C   0  0  0  0  0  3  0  0  0  0  0  0
  -26.0670  -26.9290   19.4190 C   0  0  0  0  0  3  0  0  0  0  0  0
  -24.9220  -27.7570   19.3970 C   0  0  0  0  0  3  0  0  0  0  0  0
  -23.6700  -29.8760   20.0990 C   0  0  0  0  0  2  0  0  0  0  0  0
  -24.6790  -31.1050   22.0620 N   0  0  0  0  0  0  0  0  0  0  0  0
  -23.4880  -32.1590   23.6890 O   0  0  0  0  0  0  0  0  0  0  0  0
  -22.7480  -29.4830   22.4260 C   0  0  0  0  0  0  0  0  0  0  0  0
  -21.4270  -29.2790   22.2700 N   0  0  0  0  0  0  0  0  0  0  0  0
  -23.4200  -28.8670   23.2550 O   0  0  0  0  0  0  0  0  0  0  0  0
  -20.9440  -29.8250   21.5710 H   0  0  0  0  0  0  0  0  0  0  0  0
  -18.0570  -28.0220   22.7170 C   0  0  0  0  0  0  0  0  0  0  0  0
  -20.6100  -28.3170   23.0160 C   0  0  0  0  0  3  0  0  0  0  0  0
  -20.7390  -26.8970   22.4170 C   0  0  0  0  0  2  0  0  0  0  0  0
  -19.6530  -26.5800   21.3850 C   0  0  0  0  0  2  0  0  0  0  0  0
  -18.2630  -26.6900   22.0160 C   0  0  0  0  0  2  0  0  0  0  0  0
  -19.1600  -28.7930   23.1730 C   0  0  0  0  0  0  0  0  0  0  0  0
  -18.9130  -30.0400   23.7910 C   0  0  0  0  0  3  0  0  0  0  0  0
  -17.5990  -30.5130   23.9560 C   0  0  0  0  0  3  0  0  0  0  0  0
  -16.5120  -29.7400   23.5160 C   0  0  0  0  0  3  0  0  0  0  0  0
  -16.7420  -28.4950   22.9030 C   0  0  0  0  0  3  0  0  0  0  0  0
  -25.8450  -32.5410   23.8230 C   0  0  0  0  0  3  0  0  0  0  0  0
  -26.3400  -31.7680   25.1080 C   0  0  1  0  0  0  0  0  0  0  0  0
  -25.2240  -31.5060   26.1460 C   0  0  0  0  0  1  0  0  0  0  0  0
  -26.9560  -30.4000   24.7330 C   0  0  0  0  0  1  0  0  0  0  0  0
  -27.4620  -32.5780   25.7990 C   0  0  0  0  0  1  0  0  0  0  0  0
  -25.5140  -33.9350   24.1550 N   0  0  0  0  0  0  0  0  0  0  0  0
  -25.8280  -34.9970   23.4030 C   0  0  0  0  0  0  0  0  0  0  0  0
  -26.4920  -34.9080   22.3670 O   0  0  0  0  0  0  0  0  0  0  0  0
  -24.9130  -34.0760   24.9540 H   0  0  0  0  0  0  0  0  0  0  0  0
  -24.0750  -36.7750   23.0760 C   0  0  0  0  0  1  0  0  0  0  0  0
  -25.3290  -36.3780   23.8720 C   0  0  0  0  0  3  0  0  0  0  0  0
  -27.4520  -37.2990   24.6990 C   0  0  0  0  0  1  0  0  0  0  0  0
  -26.3480  -37.4450   23.7530 N   0  0  0  0  0  0  0  0  0  0  0  0
  -25.9300  -38.3620   23.8880 H   0  0  0  0  0  0  0  0  0  0  0  0
  1 52  1  0
  2  6  1  0
  2  1  1  0
  3  4  1  0
  5 16  1  0
  5  6  1  0
  5  3  1  0
  6  4  1  0
  7  2  2  0
  8 17  1  0
  8 14  1  0
  9 14  1  0
 10 11  1  0
 10  9  1  0
 12 11  1  0
 12 23  1  0
 12 13  1  0
 14 13  1  0
 15  8  2  0
 16 17  1  0
 17 19  1  0
 18 16  2  0
 20 21  2  0
 21 40  1  0
 22 21  1  0
 22 25  1  0
 23 24  1  0
 23 20  1  0
 24 22  2  0
 25 26  1  0
 26 27  2  0
 28 31  1  0
 28 27  1  0
 29 28  2  0
 30 29  1  0
 30 25  2  0
 31 32  1  0
 32 37  2  0
 32 33  1  0
 33 34  2  0
 34 35  1  0
 35 39  1  0
 36 35  2  0
 37 36  1  0
 38 37  1  0
 40 41  1  0
 41 44  1  0
 41 43  1  0
 42 40  2  0
 45 46  1  0
 45 20  1  0
 47 45  1  0
 48  1  1  0
 48 50  1  0
 48 51  1  0
 48 49  1  0
 52 53  1  0
 54 65  2  0
 55 53  1  0
 55 60  1  0
 56 64  1  0
 56 66  1  0
 57 63  1  0
 57 59  1  0
 58 64  1  0
 59 60  2  0
 59 58  1  0
 61 55  2  0
 62 61  1  0
 62 57  2  0
 63 56  1  0
 64 54  1  0
 66 68  2  0
 67 66  1  0
 69 67  1  0
 70 79  2  0
 70 75  1  0
 71 67  1  0
 71 75  1  0
 72 71  1  0
 73 74  1  0
 73 72  1  0
 74 70  1  0
 75 76  2  0
 76 77  1  0
 78 77  2  0
 79 78  1  0
 80 54  1  0
 80 85  1  0
 80 81  1  0
 81 84  1  1
 81 82  1  0
 83 81  1  0
 85 88  1  0
 86 90  1  0
 86 85  1  0
 87 86  2  0
 90 89  1  0
 92 90  1  0
 92 93  1  0
 92 91  1  0
M  ISO  4   8 100  17 100  52 101  53 101
M  END
>  <TORSDO>  (63) 
F 19

>  <SCORE>  (63) 
-14.162

>  <name>  (63) 
62

>  <ligand_id>  (63) 
62

>  <original_smiles>  (63) 
[H]c1c([H])c([H])c2c(c1[H])C([H])([H])C([H])([H])C([H])([H])C2([H])N([H])C(=O)C1([H])N(C(=O)C([H])(N([H])C(=O)C([H])(N([H])C([H])([H])[H])C([H])([H])[H])C(C([H])([H])[H])(C([H])([H])[H])C([H])([H])[H])C([H])([H])c2c([H])c(OC([H])([H])C([H])(C(=O)N3C([H])([H])C([H])([H])C3([H])C(=O)N([H])C(=O)N3C([H])([H])C([H])([H])C([H])([H])C([H])(n4nc(-c5c([H])c([H])c(Oc6c([H])c([H])c(F)c([H])c6F)c([H])c5[H])c(C(=O)N([H])[H])c4N([H])[H])C3([H])[H])[N+]([H])([H])[H])c([H])c([H])c2C1([H])[H]

>  <smiles>  (63) 
[H]c1c([H])c([H])c2c(c1[H])C([H])([H])C([H])([H])C([H])([H])C2([H])N([H])C(=O)C1([H])N(C(=O)C([H])(N([H])C(=O)C([H])(N([H])C([H])([H])[H])C([H])([H])[H])C(C([H])([H])[H])(C([H])([H])[H])C([H])([H])[H])C([H])([H])c2c([H])c(OC([H])([H])C([H])(C(=O)N3C([H])([H])C([H])([H])C3([H])C(=O)N([H])C(=O)N3C([H])([H])C([H])([H])C([H])([H])C([H])(n4nc(-c5c([H])c([H])c(Oc6c([H])c([H])c(F)c([H])c6F)c([H])c5[H])c(C(=O)N([H])[H])c4N([H])[H])C3([H])[H])[N+]([H])([H])[H])c([H])c([H])c2C1([H])[H]

$$$$
63:0:0
     RDKit          3D

101109  0  0  1  0  0  0  0  0999 V2000
  -31.9700  -21.7410   18.5670 C   0  0  0  0  0  0  0  0  0  0  0  0
  -31.5460  -20.7020   17.8410 N   0  0  0  0  0  0  0  0  0  0  0  0
  -32.6840  -21.6120   19.5630 O   0  0  0  0  0  0  0  0  0  0  0  0
  -30.9790  -20.8920   17.0250 H   0  0  0  0  0  0  0  0  0  0  0  0
  -31.8170  -19.3020   18.1390 C   0  0  0  0  0  2  0  0  0  0  0  0
  -29.3400  -19.0500   18.7860 C   0  0  0  0  0  3  0  0  0  0  0  0
  -30.9310  -17.3200   19.4130 C   0  0  0  0  0  3  0  0  0  0  0  0
  -28.5700  -17.0540   19.9530 C   0  0  0  0  0  3  0  0  0  0  0  0
  -30.6630  -18.5600   18.8050 C   0  0  0  0  0  0  0  0  0  0  0  0
  -28.2900  -18.3040   19.3560 C   0  0  0  0  0  0  0  0  0  0  0  0
  -29.8870  -16.5430   19.9750 C   0  0  0  0  0  0  0  0  0  0  0  0
  -30.7550  -14.2270   19.9540 C   0  0  0  0  0  0  0  0  0  0  0  0
  -30.3820  -12.0220   18.9380 C   0  0  0  0  0  2  0  0  0  0  0  0
  -29.3750  -12.1930   17.7830 C   0  0  0  0  0  2  0  0  0  0  0  0
  -27.9250  -12.0990   18.2980 C   0  0  0  0  0  2  0  0  0  0  0  0
  -27.6720  -12.9970   19.5380 C   0  0  0  0  0  3  0  0  0  0  0  0
  -28.7820  -12.7990   20.5950 C   0  0  0  0  0  2  0  0  0  0  0  0
  -30.0830  -13.0490   19.9460 N   0  0  0  0  0  0  0  0  0  0  0  0
  -31.8450  -14.3800   19.3960 O   0  0  0  0  0  0  0  0  0  0  0  0
  -30.0860  -15.2440   20.5260 N   0  0  0  0  0  0  0  0  0  0  0  0
  -29.3320  -14.9230   21.1170 H   0  0  0  0  0  0  0  0  0  0  0  0
  -25.3490  -13.6800   20.4140 C   0  0  0  0  0  0  0  0  0  0  0  0
  -24.2840  -12.9410   20.8550 C   0  0  0  0  0  0  0  0  0  0  0  0
  -24.6930  -11.5740   20.7770 C   0  0  0  0  0  0  0  0  0  0  0  0
  -26.3440  -12.7660   20.1020 N   0  0  0  0  0  0  0  0  0  0  0  0
  -25.9550  -11.4950   20.3730 N   0  0  0  0  0  0  0  0  0  0  0  0
  -23.9390  -10.3360   21.0010 C   0  0  0  0  0  0  0  0  0  0  0  0
  -24.4070   -9.3360   21.8840 C   0  0  0  0  0  3  0  0  0  0  0  0
  -23.6550   -8.1600   22.0960 C   0  0  0  0  0  3  0  0  0  0  0  0
  -22.4220   -7.9750   21.4280 C   0  0  0  0  0  0  0  0  0  0  0  0
  -21.9730   -8.9620   20.5320 C   0  0  0  0  0  3  0  0  0  0  0  0
  -22.7240  -10.1290   20.3170 C   0  0  0  0  0  3  0  0  0  0  0  0
  -21.6350   -6.8560   21.5560 O   0  0  0  0  0  0  0  0  0  0  0  0
  -21.6460   -6.0960   22.6970 C   0  0  0  0  0  0  0  0  0  0  0  0
  -21.3400   -6.6440   23.9620 C   0  0  0  0  0  3  0  0  0  0  0  0
  -21.2960   -5.8110   25.0980 C   0  0  0  0  0  3  0  0  0  0  0  0
  -21.5480   -4.4320   24.9710 C   0  0  0  0  0  0  0  0  0  0  0  0
  -21.8440   -3.8830   23.7110 C   0  0  0  0  0  3  0  0  0  0  0  0
  -21.8930   -4.7130   22.5780 C   0  0  0  0  0  0  0  0  0  0  0  0
  -22.1610   -4.1750   21.3640 F   0  0  0  0  0  0  0  0  0  0  0  0
  -21.4960   -3.6310   26.0610 F   0  0  0  0  0  0  0  0  0  0  0  0
  -22.9260  -13.4610   21.2300 C   0  0  0  0  0  0  0  0  0  0  0  0
  -22.2390  -12.7890   22.1470 N   0  0  0  0  0  0  0  0  0  0  0  0
  -22.4850  -14.5020   20.7440 O   0  0  0  0  0  0  0  0  0  0  0  0
  -22.6040  -11.9470   22.5680 H   0  0  0  0  0  0  0  0  0  0  0  0
  -21.3300  -13.1230   22.4340 H   0  0  0  0  0  0  0  0  0  0  0  0
  -25.5510  -15.0440   20.2280 N   0  0  0  0  0  0  0  0  0  0  0  0
  -24.8080  -15.7200   20.3630 H   0  0  0  0  0  0  0  0  0  0  0  0
  -26.3490  -15.4290   19.7400 H   0  0  0  0  0  0  0  0  0  0  0  0
  -26.8670  -18.8360   19.2640 C   0  0  1  0  0  0  0  0  0  0  0  0
  -26.4870  -18.8340   17.9860 F   0  0  0  0  0  0  0  0  0  0  0  0
  -26.0060  -18.0960   19.9620 F   0  0  0  0  0  0  0  0  0  0  0  0
  -26.8100  -20.0890   19.7170 F   0  0  0  0  0  0  0  0  0  0  0  0
  -31.5090  -23.1250   18.1100 C   0  0  0  0  0  2  0  0  0  0  0  0
  -31.5330  -24.1510   19.2570 C   0  0  0  0  0  2  0  0  0  0  0  0
  -30.7110  -25.3430   18.9680 N   0  0  0  0  0  4  0  0  0  0  0  0
  -29.7450  -25.0630   18.8850 H   0  0  0  0  0  0  0  0  0  0  0  0
  -30.9910  -25.7470   18.0870 H   0  0  0  0  0  0  0  0  0  0  0  0
  -30.7840  -26.3660   20.0320 C   0  0  0  0  0  2  0  0  0  0  0  0
  -29.6500  -27.3840   19.9150 C   0  0  0  0  0  2  0  0  0  0  0  0
  -28.4130  -26.6760   20.0230 O   0  0  0  0  0  0  0  0  0  0  0  0
  -24.6010  -31.8230   23.1810 C   0  0  0  0  0  0  0  0  0  0  0  0
  -27.2590  -27.4250   20.0900 C   0  0  0  0  0  0  0  0  0  0  0  0
  -23.3830  -30.4180   21.5430 C   0  0  0  0  0  3  0  0  0  0  0  0
  -24.8330  -28.8760   20.1210 C   0  0  0  0  0  0  0  0  0  0  0  0
  -25.8990  -30.7930   21.3280 C   0  0  0  0  0  2  0  0  0  0  0  0
  -25.9850  -29.4210   20.6990 C   0  0  0  0  0  0  0  0  0  0  0  0
  -27.1950  -28.7040   20.6910 C   0  0  0  0  0  3  0  0  0  0  0  0
  -26.0850  -26.8730   19.5350 C   0  0  0  0  0  3  0  0  0  0  0  0
  -24.8740  -27.5950   19.5420 C   0  0  0  0  0  3  0  0  0  0  0  0
  -23.5860  -29.7280   20.1660 C   0  0  0  0  0  2  0  0  0  0  0  0
  -24.6460  -31.0250   22.0770 N   0  0  0  0  0  0  0  0  0  0  0  0
  -23.5230  -32.0960   23.7270 O   0  0  0  0  0  0  0  0  0  0  0  0
  -22.7370  -29.4020   22.5090 C   0  0  0  0  0  0  0  0  0  0  0  0
  -21.4090  -29.2390   22.4000 N   0  0  0  0  0  0  0  0  0  0  0  0
  -23.4240  -28.7630   23.3090 O   0  0  0  0  0  0  0  0  0  0  0  0
  -20.9170  -29.8060   21.7240 H   0  0  0  0  0  0  0  0  0  0  0  0
  -18.0250  -28.1020   22.9380 C   0  0  0  0  0  0  0  0  0  0  0  0
  -20.5900  -28.3100   23.1750 C   0  0  0  0  0  3  0  0  0  0  0  0
  -20.6580  -26.8820   22.5840 C   0  0  0  0  0  2  0  0  0  0  0  0
  -19.5360  -26.5900   21.5840 C   0  0  0  0  0  2  0  0  0  0  0  0
  -18.1660  -26.7550   22.2490 C   0  0  0  0  0  2  0  0  0  0  0  0
  -19.1640  -28.8390   23.3580 C   0  0  0  0  0  0  0  0  0  0  0  0
  -18.9780  -30.1020   23.9610 C   0  0  0  0  0  3  0  0  0  0  0  0
  -17.6850  -30.6280   24.1480 C   0  0  0  0  0  3  0  0  0  0  0  0
  -16.5620  -29.8870   23.7450 C   0  0  0  0  0  3  0  0  0  0  0  0
  -16.7320  -28.6270   23.1460 C   0  0  0  0  0  3  0  0  0  0  0  0
  -25.8940  -32.4480   23.7960 C   0  0  0  0  0  3  0  0  0  0  0  0
  -25.5840  -33.8380   24.1510 N   0  0  0  0  0  0  0  0  0  0  0  0
  -25.9140  -34.9030   23.4060 C   0  0  0  0  0  0  0  0  0  0  0  0
  -26.5790  -34.8180   22.3700 O   0  0  0  0  0  0  0  0  0  0  0  0
  -24.9890  -33.9790   24.9530 H   0  0  0  0  0  0  0  0  0  0  0  0
  -24.1760  -36.6930   23.0900 C   0  0  0  0  0  1  0  0  0  0  0  0
  -25.4250  -36.2820   23.8870 C   0  0  0  0  0  3  0  0  0  0  0  0
  -27.5640  -37.1600   24.7120 C   0  0  0  0  0  1  0  0  0  0  0  0
  -26.4530  -37.3400   23.7820 N   0  0  0  0  0  0  0  0  0  0  0  0
  -26.0460  -38.2560   23.9480 H   0  0  0  0  0  0  0  0  0  0  0  0
  -26.4340  -31.6560   25.0490 C   0  0  1  0  0  0  0  0  0  0  0  0
  -25.3580  -31.3910   26.1260 C   0  0  0  0  0  1  0  0  0  0  0  0
  -27.0210  -30.2900   24.6180 C   0  0  0  0  0  1  0  0  0  0  0  0
  -27.5900  -32.4430   25.7090 C   0  0  0  0  0  1  0  0  0  0  0  0
  1  3  2  0
  2  5  1  0
  2  1  1  0
  4  2  1  0
  5  9  1  0
  6  9  2  0
  6 10  1  0
  7 11  2  0
  8 11  1  0
  9  7  1  0
 10  8  2  0
 11 20  1  0
 12 20  1  0
 13 18  1  0
 14 15  1  0
 14 13  1  0
 16 15  1  0
 16 25  1  0
 16 17  1  0
 18 12  1  0
 18 17  1  0
 19 12  2  0
 20 21  1  0
 22 23  2  0
 23 42  1  0
 24 23  1  0
 24 27  1  0
 25 26  1  0
 25 22  1  0
 26 24  2  0
 27 28  1  0
 28 29  2  0
 30 33  1  0
 30 29  1  0
 31 30  2  0
 32 31  1  0
 32 27  2  0
 33 34  1  0
 34 35  1  0
 35 36  2  0
 37 36  1  0
 37 41  1  0
 38 37  2  0
 39 34  2  0
 39 38  1  0
 40 39  1  0
 42 43  1  0
 43 46  1  0
 43 45  1  0
 44 42  2  0
 47 48  1  0
 47 22  1  0
 49 47  1  0
 50 10  1  0
 50 53  1  1
 50 52  1  0
 51 50  1  0
 54  1  1  0
 54 55  1  0
 56 55  1  0
 56 59  1  0
 57 56  1  0
 58 56  1  0
 60 61  1  0
 60 59  1  0
 61 63  1  0
 62 73  2  0
 63 68  1  0
 64 72  1  0
 64 74  1  0
 65 71  1  0
 65 67  1  0
 66 72  1  0
 67 66  1  0
 68 67  2  0
 69 70  1  0
 69 63  2  0
 70 65  2  0
 71 64  1  0
 72 62  1  0
 74 76  2  0
 75 74  1  0
 77 75  1  0
 78 87  2  0
 78 83  1  0
 79 75  1  0
 79 83  1  0
 80 79  1  0
 81 82  1  0
 81 80  1  0
 82 78  1  0
 83 84  2  0
 84 85  1  0
 86 85  2  0
 87 86  1  0
 88 62  1  0
 88 89  1  0
 88 98  1  0
 89 92  1  0
 90 94  1  0
 90 89  1  0
 91 90  2  0
 94 93  1  0
 96 94  1  0
 96 97  1  0
 96 95  1  0
 98101  1  1
 98 99  1  0
100 98  1  0
M  ISO  4  12 100  20 100  60 101  61 101
M  END
>  <TORSDO>  (64) 
F 24

>  <SCORE>  (64) 
-11.901

>  <name>  (64) 
63

>  <ligand_id>  (64) 
63

>  <original_smiles>  (64) 
[H]c1c([H])c([H])c2c(c1[H])C([H])([H])C([H])([H])C([H])([H])C2([H])N([H])C(=O)C1([H])N(C(=O)C([H])(N([H])C(=O)C([H])(N([H])C([H])([H])[H])C([H])([H])[H])C(C([H])([H])[H])(C([H])([H])[H])C([H])([H])[H])C([H])([H])c2c([H])c(OC([H])([H])C([H])([H])[N+]([H])([H])C([H])([H])C([H])([H])C(=O)N([H])C([H])([H])c3c([H])c(N([H])C(=O)N4C([H])([H])C([H])([H])C([H])([H])C([H])(n5nc(-c6c([H])c([H])c(Oc7c([H])c([H])c(F)c([H])c7F)c([H])c6[H])c(C(=O)N([H])[H])c5N([H])[H])C4([H])[H])c([H])c(C(F)(F)F)c3[H])c([H])c([H])c2C1([H])[H]

>  <smiles>  (64) 
[H]c1c([H])c([H])c2c(c1[H])C([H])([H])C([H])([H])C([H])([H])C2([H])N([H])C(=O)C1([H])N(C(=O)C([H])(N([H])C(=O)C([H])(N([H])C([H])([H])[H])C([H])([H])[H])C(C([H])([H])[H])(C([H])([H])[H])C([H])([H])[H])C([H])([H])c2c([H])c(OC([H])([H])C([H])([H])[N+]([H])([H])C([H])([H])C([H])([H])C(=O)N([H])C([H])([H])c3c([H])c(N([H])C(=O)N4C([H])([H])C([H])([H])C([H])([H])C([H])(n5nc(-c6c([H])c([H])c(Oc7c([H])c([H])c(F)c([H])c7F)c([H])c6[H])c(C(=O)N([H])[H])c5N([H])[H])C4([H])[H])c([H])c(C(F)(F)F)c3[H])c([H])c([H])c2C1([H])[H]

$$$$
64:0:0
     RDKit          3D

 95103  0  0  1  0  0  0  0  0999 V2000
  -28.1500  -21.9450   19.5490 N   0  0  0  0  0  4  0  0  0  0  0  0
  -27.9520  -22.1450   18.5830 H   0  0  0  0  0  0  0  0  0  0  0  0
  -29.1360  -21.7530   19.6290 H   0  0  0  0  0  0  0  0  0  0  0  0
  -27.3850  -20.7480   19.9450 C   0  0  0  0  0  2  0  0  0  0  0  0
  -29.3900  -17.0550   18.8750 C   0  0  0  0  0  3  0  0  0  0  0  0
  -28.5870  -17.7170   17.9250 C   0  0  0  0  0  3  0  0  0  0  0  0
  -28.9070  -18.8010   20.5020 C   0  0  0  0  0  3  0  0  0  0  0  0
  -29.5460  -17.5880   20.1750 C   0  0  0  0  0  0  0  0  0  0  0  0
  -28.0970  -19.4650   19.5550 C   0  0  0  0  0  0  0  0  0  0  0  0
  -27.9370  -18.9180   18.2640 C   0  0  0  0  0  0  0  0  0  0  0  0
  -27.1640  -19.5490   17.3490 F   0  0  0  0  0  0  0  0  0  0  0  0
  -30.3930  -16.8820   21.2300 C   0  0  0  0  0  2  0  0  0  0  0  0
  -30.8170  -14.5150   20.6060 C   0  0  0  0  0  0  0  0  0  0  0  0
  -30.4950  -12.4310   19.3420 C   0  0  0  0  0  2  0  0  0  0  0  0
  -29.5460  -12.7000   18.1550 C   0  0  0  0  0  2  0  0  0  0  0  0
  -28.0720  -12.5600   18.5850 C   0  0  0  0  0  2  0  0  0  0  0  0
  -27.7500  -13.3450   19.8830 C   0  0  0  0  0  3  0  0  0  0  0  0
  -28.8030  -13.0480   20.9760 C   0  0  0  0  0  2  0  0  0  0  0  0
  -30.1360  -13.3560   20.4250 N   0  0  0  0  0  0  0  0  0  0  0  0
  -31.9040  -14.7590   20.0780 O   0  0  0  0  0  0  0  0  0  0  0  0
  -30.1360  -15.4480   21.2750 N   0  0  0  0  0  0  0  0  0  0  0  0
  -29.2620  -15.1590   21.6860 H   0  0  0  0  0  0  0  0  0  0  0  0
  -25.3430  -13.9450   20.5740 C   0  0  0  0  0  0  0  0  0  0  0  0
  -24.2740  -13.1680   20.9340 C   0  0  0  0  0  0  0  0  0  0  0  0
  -24.7390  -11.8180   20.8970 C   0  0  0  0  0  0  0  0  0  0  0  0
  -26.3920  -13.0680   20.3480 N   0  0  0  0  0  0  0  0  0  0  0  0
  -26.0310  -11.7820   20.5940 N   0  0  0  0  0  0  0  0  0  0  0  0
  -24.0160  -10.5510   21.0750 C   0  0  0  0  0  0  0  0  0  0  0  0
  -24.4460   -9.5830   22.0080 C   0  0  0  0  0  3  0  0  0  0  0  0
  -23.7250   -8.3800   22.1750 C   0  0  0  0  0  3  0  0  0  0  0  0
  -22.5610   -8.1400   21.4060 C   0  0  0  0  0  0  0  0  0  0  0  0
  -22.1500   -9.0980   20.4640 C   0  0  0  0  0  3  0  0  0  0  0  0
  -22.8710  -10.2920   20.2960 C   0  0  0  0  0  3  0  0  0  0  0  0
  -21.8130   -6.9900   21.4820 O   0  0  0  0  0  0  0  0  0  0  0  0
  -21.7490   -6.2470   22.6330 C   0  0  0  0  0  0  0  0  0  0  0  0
  -21.2790   -6.7940   23.8470 C   0  0  0  0  0  3  0  0  0  0  0  0
  -21.1620   -5.9760   24.9890 C   0  0  0  0  0  3  0  0  0  0  0  0
  -21.5060   -4.6140   24.9190 C   0  0  0  0  0  0  0  0  0  0  0  0
  -21.9680   -4.0650   23.7090 C   0  0  0  0  0  3  0  0  0  0  0  0
  -22.0860   -4.8800   22.5690 C   0  0  0  0  0  0  0  0  0  0  0  0
  -22.5100   -4.3410   21.4020 F   0  0  0  0  0  0  0  0  0  0  0  0
  -21.3880   -3.8280   26.0140 F   0  0  0  0  0  0  0  0  0  0  0  0
  -22.8730  -13.6400   21.2010 C   0  0  0  0  0  0  0  0  0  0  0  0
  -22.1410  -12.9330   22.0550 N   0  0  0  0  0  0  0  0  0  0  0  0
  -22.4360  -14.6700   20.6890 O   0  0  0  0  0  0  0  0  0  0  0  0
  -22.5040  -12.0960   22.4880 H   0  0  0  0  0  0  0  0  0  0  0  0
  -21.2020  -13.2320   22.2820 H   0  0  0  0  0  0  0  0  0  0  0  0
  -25.5050  -15.3160   20.3970 N   0  0  0  0  0  0  0  0  0  0  0  0
  -24.7310  -15.9660   20.4740 H   0  0  0  0  0  0  0  0  0  0  0  0
  -26.3490  -15.7440   20.0350 H   0  0  0  0  0  0  0  0  0  0  0  0
  -27.8540  -23.1300   20.3810 C   0  0  0  0  0  2  0  0  0  0  0  0
  -28.4510  -24.4310   19.8120 C   0  0  0  0  0  3  0  0  0  0  0  0
  -29.7350  -24.2320   19.4980 F   0  0  0  0  0  0  0  0  0  0  0  0
  -28.3520  -25.5830   20.8290 C   0  0  0  0  0  2  0  0  0  0  0  0
  -28.4250  -26.8680   20.2090 O   0  0  0  0  0  0  0  0  0  0  0  0
  -24.5640  -31.9690   23.2880 C   0  0  0  0  0  0  0  0  0  0  0  0
  -27.2450  -27.5690   20.2080 C   0  0  0  0  0  0  0  0  0  0  0  0
  -23.3680  -30.5610   21.6410 C   0  0  0  0  0  3  0  0  0  0  0  0
  -24.8330  -29.0310   20.2230 C   0  0  0  0  0  0  0  0  0  0  0  0
  -25.8900  -30.9410   21.4470 C   0  0  0  0  0  2  0  0  0  0  0  0
  -25.9860  -29.5730   20.8070 C   0  0  0  0  0  0  0  0  0  0  0  0
  -27.1970  -28.8510   20.7940 C   0  0  0  0  0  3  0  0  0  0  0  0
  -26.0760  -27.0280   19.6290 C   0  0  0  0  0  3  0  0  0  0  0  0
  -24.8710  -27.7560   19.6340 C   0  0  0  0  0  3  0  0  0  0  0  0
  -23.5840  -29.8800   20.2630 C   0  0  0  0  0  2  0  0  0  0  0  0
  -24.6260  -31.1720   22.1840 N   0  0  0  0  0  0  0  0  0  0  0  0
  -23.4810  -32.2340   23.8260 O   0  0  0  0  0  0  0  0  0  0  0  0
  -22.7210  -29.5360   22.6000 C   0  0  0  0  0  0  0  0  0  0  0  0
  -21.4020  -29.3360   22.4570 N   0  0  0  0  0  0  0  0  0  0  0  0
  -23.4030  -28.9230   23.4270 O   0  0  0  0  0  0  0  0  0  0  0  0
  -20.9120  -29.8810   21.7620 H   0  0  0  0  0  0  0  0  0  0  0  0
  -18.0370  -28.1050   22.9170 C   0  0  0  0  0  0  0  0  0  0  0  0
  -20.5860  -28.3930   23.2210 C   0  0  0  0  0  3  0  0  0  0  0  0
  -20.7130  -26.9590   22.6540 C   0  0  0  0  0  2  0  0  0  0  0  0
  -19.6280  -26.6200   21.6270 C   0  0  0  0  0  2  0  0  0  0  0  0
  -18.2370  -26.7530   22.2520 C   0  0  0  0  0  2  0  0  0  0  0  0
  -19.1410  -28.8820   23.3590 C   0  0  0  0  0  0  0  0  0  0  0  0
  -18.9010  -30.1460   23.9380 C   0  0  0  0  0  3  0  0  0  0  0  0
  -17.5890  -30.6340   24.0820 C   0  0  0  0  0  3  0  0  0  0  0  0
  -16.4980  -29.8550   23.6570 C   0  0  0  0  0  3  0  0  0  0  0  0
  -16.7230  -28.5920   23.0810 C   0  0  0  0  0  3  0  0  0  0  0  0
  -25.8470  -32.6040   23.9110 C   0  0  0  0  0  3  0  0  0  0  0  0
  -25.5390  -34.0060   24.2200 N   0  0  0  0  0  0  0  0  0  0  0  0
  -25.8880  -35.0480   23.4530 C   0  0  0  0  0  0  0  0  0  0  0  0
  -26.5730  -34.9270   22.4330 O   0  0  0  0  0  0  0  0  0  0  0  0
  -24.9270  -34.1720   25.0060 H   0  0  0  0  0  0  0  0  0  0  0  0
  -24.1790  -36.8460   23.0400 C   0  0  0  0  0  1  0  0  0  0  0  0
  -25.3980  -36.4430   23.8840 C   0  0  0  0  0  3  0  0  0  0  0  0
  -27.5160  -37.3240   24.7590 C   0  0  0  0  0  1  0  0  0  0  0  0
  -26.4400  -37.4870   23.7850 N   0  0  0  0  0  0  0  0  0  0  0  0
  -26.0360  -38.4120   23.9120 H   0  0  0  0  0  0  0  0  0  0  0  0
  -26.3550  -31.8450   25.2000 C   0  0  1  0  0  0  0  0  0  0  0  0
  -25.2520  -31.6100   26.2590 C   0  0  0  0  0  1  0  0  0  0  0  0
  -26.9470  -30.4670   24.8220 C   0  0  0  0  0  1  0  0  0  0  0  0
  -27.4970  -32.6490   25.8630 C   0  0  0  0  0  1  0  0  0  0  0  0
  1  3  1  0
  1  4  1  0
  1 51  1  0
  2  1  1  0
  5  8  1  0
  6 10  1  0
  6  5  2  0
  8  7  2  0
  8 12  1  0
  9  4  1  0
  9  7  1  0
 10  9  2  0
 11 10  1  0
 12 21  1  0
 13 21  1  0
 14 19  1  0
 15 16  1  0
 15 14  1  0
 17 16  1  0
 17 26  1  0
 17 18  1  0
 19 13  1  0
 19 18  1  0
 20 13  2  0
 21 22  1  0
 23 24  2  0
 24 43  1  0
 25 24  1  0
 25 28  1  0
 26 23  1  0
 26 27  1  0
 27 25  2  0
 28 29  1  0
 29 30  2  0
 31 34  1  0
 31 30  1  0
 32 31  2  0
 33 32  1  0
 33 28  2  0
 34 35  1  0
 35 36  1  0
 36 37  2  0
 38 37  1  0
 38 42  1  0
 39 38  2  0
 40 35  2  0
 40 39  1  0
 41 40  1  0
 43 44  1  0
 44 47  1  0
 44 46  1  0
 45 43  2  0
 48 49  1  0
 48 23  1  0
 50 48  1  0
 52 53  1  0
 52 51  1  0
 52 54  1  0
 55 54  1  0
 56 67  2  0
 57 55  1  0
 57 62  1  0
 58 66  1  0
 58 68  1  0
 59 65  1  0
 59 61  1  0
 60 66  1  0
 61 60  1  0
 62 61  2  0
 63 64  1  0
 63 57  2  0
 64 59  2  0
 65 58  1  0
 66 56  1  0
 68 70  2  0
 69 68  1  0
 71 69  1  0
 72 81  2  0
 72 77  1  0
 73 69  1  0
 73 77  1  0
 74 73  1  0
 75 76  1  0
 75 74  1  0
 76 72  1  0
 77 78  2  0
 78 79  1  0
 80 79  2  0
 81 80  1  0
 82 56  1  0
 82 83  1  0
 82 92  1  0
 83 86  1  0
 84 88  1  0
 84 83  1  0
 85 84  2  0
 88 87  1  0
 90 88  1  0
 90 91  1  0
 90 89  1  0
 92 95  1  1
 92 93  1  0
 94 92  1  0
M  ISO  4  13 100  21 100  54 101  55 101
M  END
>  <TORSDO>  (65) 
F 22

>  <SCORE>  (65) 
-13.105

>  <name>  (65) 
64

>  <ligand_id>  (65) 
64

>  <original_smiles>  (65) 
[H]c1c([H])c([H])c2c(c1[H])C([H])([H])C([H])([H])C([H])([H])C2([H])N([H])C(=O)C1([H])N(C(=O)C([H])(N([H])C(=O)C([H])(N([H])C([H])([H])[H])C([H])([H])[H])C(C([H])([H])[H])(C([H])([H])[H])C([H])([H])[H])C([H])([H])c2c([H])c(OC([H])([H])C([H])(F)C([H])([H])[N+]([H])([H])C([H])([H])c3c([H])c(C([H])([H])N([H])C(=O)N4C([H])([H])C([H])([H])C([H])([H])C([H])(n5nc(-c6c([H])c([H])c(Oc7c([H])c([H])c(F)c([H])c7F)c([H])c6[H])c(C(=O)N([H])[H])c5N([H])[H])C4([H])[H])c([H])c([H])c3F)c([H])c([H])c2C1([H])[H]

>  <smiles>  (65) 
[H]c1c([H])c([H])c2c(c1[H])C([H])([H])C([H])([H])C([H])([H])C2([H])N([H])C(=O)C1([H])N(C(=O)C([H])(N([H])C(=O)C([H])(N([H])C([H])([H])[H])C([H])([H])[H])C(C([H])([H])[H])(C([H])([H])[H])C([H])([H])[H])C([H])([H])c2c([H])c(OC([H])([H])C([H])(F)C([H])([H])[N+]([H])([H])C([H])([H])c3c([H])c(C([H])([H])N([H])C(=O)N4C([H])([H])C([H])([H])C([H])([H])C([H])(n5nc(-c6c([H])c([H])c(Oc7c([H])c([H])c(F)c([H])c7F)c([H])c6[H])c(C(=O)N([H])[H])c5N([H])[H])C4([H])[H])c([H])c([H])c3F)c([H])c([H])c2C1([H])[H]

$$$$
65:0:0
     RDKit          3D

 98107  0  0  1  0  0  0  0  0999 V2000
  -29.3690  -23.5870   20.9790 C   0  0  0  0  0  2  0  0  0  0  0  0
  -27.9550  -22.9810   18.9000 C   0  0  0  0  0  2  0  0  0  0  0  0
  -30.3320  -24.3130   20.0200 C   0  0  0  0  0  2  0  0  0  0  0  0
  -28.9760  -23.7580   18.0400 C   0  0  0  0  0  2  0  0  0  0  0  0
  -28.5300  -22.4970   20.2650 C   0  0  0  0  0  3  0  0  0  0  0  0
  -29.5500  -24.8350   18.8740 N   0  0  2  0  0  4  0  0  0  0  0  0
  -28.7580  -25.2720   19.3240 H   0  0  0  0  0  0  0  0  0  0  0  0
  -29.3340  -21.1960   20.1570 C   0  0  0  0  0  0  0  0  0  0  0  0
  -29.1350  -20.3110   21.1490 N   0  0  0  0  0  0  0  0  0  0  0  0
  -30.1120  -21.0180   19.2120 O   0  0  0  0  0  0  0  0  0  0  0  0
  -28.4370  -20.5400   21.8500 H   0  0  0  0  0  0  0  0  0  0  0  0
  -30.9800  -18.6830   20.9980 C   0  0  0  0  0  3  0  0  0  0  0  0
  -28.6620  -17.9440   21.2530 C   0  0  0  0  0  3  0  0  0  0  0  0
  -31.4040  -17.3430   20.9210 C   0  0  0  0  0  3  0  0  0  0  0  0
  -29.0840  -16.6060   21.1830 C   0  0  0  0  0  3  0  0  0  0  0  0
  -29.6030  -18.9820   21.1330 C   0  0  0  0  0  0  0  0  0  0  0  0
  -30.4490  -16.3040   20.9960 C   0  0  0  0  0  0  0  0  0  0  0  0
  -31.0320  -14.3390   19.7310 C   0  0  0  0  0  0  0  0  0  0  0  0
  -30.5180  -12.3050   18.4250 C   0  0  0  0  0  2  0  0  0  0  0  0
  -29.4020  -12.5770   17.4030 C   0  0  0  0  0  2  0  0  0  0  0  0
  -28.0030  -12.4130   18.0350 C   0  0  0  0  0  2  0  0  0  0  0  0
  -27.8630  -13.1730   19.3780 C   0  0  0  0  0  3  0  0  0  0  0  0
  -29.0690  -12.8630   20.2970 C   0  0  0  0  0  2  0  0  0  0  0  0
  -30.3180  -13.1950   19.5770 N   0  0  0  0  0  0  0  0  0  0  0  0
  -31.8830  -14.7370   18.9260 O   0  0  0  0  0  0  0  0  0  0  0  0
  -30.8130  -14.9460   20.9000 N   0  0  0  0  0  0  0  0  0  0  0  0
  -30.3120  -14.3440   21.5370 H   0  0  0  0  0  0  0  0  0  0  0  0
  -25.6250  -13.7510   20.5200 C   0  0  0  0  0  0  0  0  0  0  0  0
  -24.5960  -12.9680   20.9680 C   0  0  0  0  0  0  0  0  0  0  0  0
  -24.9870  -11.6160   20.7140 C   0  0  0  0  0  0  0  0  0  0  0  0
  -26.5860  -12.8790   20.0330 N   0  0  0  0  0  0  0  0  0  0  0  0
  -26.2110  -11.5820   20.1960 N   0  0  0  0  0  0  0  0  0  0  0  0
  -24.2470  -10.3600   20.8820 C   0  0  0  0  0  0  0  0  0  0  0  0
  -24.7020   -9.3520   21.7620 C   0  0  0  0  0  3  0  0  0  0  0  0
  -23.9680   -8.1580   21.9240 C   0  0  0  0  0  3  0  0  0  0  0  0
  -22.7640   -7.9610   21.2040 C   0  0  0  0  0  0  0  0  0  0  0  0
  -22.3230   -8.9610   20.3200 C   0  0  0  0  0  3  0  0  0  0  0  0
  -23.0590  -10.1480   20.1560 C   0  0  0  0  0  3  0  0  0  0  0  0
  -22.0010   -6.8220   21.2750 O   0  0  0  0  0  0  0  0  0  0  0  0
  -21.8670   -6.1120   22.4430 C   0  0  0  0  0  0  0  0  0  0  0  0
  -21.3640   -6.7080   23.6190 C   0  0  0  0  0  3  0  0  0  0  0  0
  -21.1740   -5.9270   24.7780 C   0  0  0  0  0  3  0  0  0  0  0  0
  -21.4840   -4.5530   24.7580 C   0  0  0  0  0  0  0  0  0  0  0  0
  -21.9830   -3.9600   23.5860 C   0  0  0  0  0  3  0  0  0  0  0  0
  -22.1700   -4.7360   22.4320 C   0  0  0  0  0  0  0  0  0  0  0  0
  -22.6290   -4.1540   21.2960 F   0  0  0  0  0  0  0  0  0  0  0  0
  -21.2950   -3.8010   25.8670 F   0  0  0  0  0  0  0  0  0  0  0  0
  -23.2790  -13.4460   21.5080 C   0  0  0  0  0  0  0  0  0  0  0  0
  -22.6840  -12.7020   22.4310 N   0  0  0  0  0  0  0  0  0  0  0  0
  -22.7890  -14.5160   21.1450 O   0  0  0  0  0  0  0  0  0  0  0  0
  -23.0920  -11.8400   22.7630 H   0  0  0  0  0  0  0  0  0  0  0  0
  -21.8010  -13.0080   22.8180 H   0  0  0  0  0  0  0  0  0  0  0  0
  -25.8110  -15.1310   20.4720 N   0  0  0  0  0  0  0  0  0  0  0  0
  -25.0910  -15.7780   20.7690 H   0  0  0  0  0  0  0  0  0  0  0  0
  -26.6030  -15.5930   20.0440 H   0  0  0  0  0  0  0  0  0  0  0  0
  -30.1190  -25.9980   18.1500 C   0  0  0  0  0  2  0  0  0  0  0  0
  -29.9760  -27.2640   19.0160 C   0  0  0  0  0  2  0  0  0  0  0  0
  -29.1410  -26.9410   20.1330 O   0  0  0  0  0  0  0  0  0  0  0  0
  -24.7300  -31.6000   23.0700 C   0  0  0  0  0  0  0  0  0  0  0  0
  -27.9040  -27.5040   20.0950 C   0  0  0  0  0  0  0  0  0  0  0  0
  -23.7310  -30.1280   21.3440 C   0  0  0  0  0  3  0  0  0  0  0  0
  -25.3840  -28.7360   19.9910 C   0  0  0  0  0  0  0  0  0  0  0  0
  -26.2150  -30.7140   21.2830 C   0  0  0  0  0  2  0  0  0  0  0  0
  -26.4480  -29.3630   20.6500 C   0  0  0  0  0  0  0  0  0  0  0  0
  -27.7050  -28.7430   20.7190 C   0  0  0  0  0  3  0  0  0  0  0  0
  -26.8310  -26.8620   19.4370 C   0  0  0  0  0  3  0  0  0  0  0  0
  -25.5680  -27.4790   19.3860 C   0  0  0  0  0  3  0  0  0  0  0  0
  -24.0640  -29.4680   19.9760 C   0  0  0  0  0  2  0  0  0  0  0  0
  -24.9030  -30.8270   21.9600 N   0  0  0  0  0  0  0  0  0  0  0  0
  -23.6050  -31.7800   23.5510 O   0  0  0  0  0  0  0  0  0  0  0  0
  -23.1220  -29.0440   22.2570 C   0  0  0  0  0  0  0  0  0  0  0  0
  -21.8340  -28.7420   22.0390 N   0  0  0  0  0  0  0  0  0  0  0  0
  -23.8060  -28.4780   23.1140 O   0  0  0  0  0  0  0  0  0  0  0  0
  -21.3370  -29.2650   21.3330 H   0  0  0  0  0  0  0  0  0  0  0  0
  -18.5600  -27.2440   22.2670 C   0  0  0  0  0  0  0  0  0  0  0  0
  -21.0530  -27.7240   22.7400 C   0  0  0  0  0  3  0  0  0  0  0  0
  -21.3280  -26.3130   22.1630 C   0  0  0  0  0  2  0  0  0  0  0  0
  -20.3390  -25.9070   21.0640 C   0  0  0  0  0  2  0  0  0  0  0  0
  -18.9070  -25.9200   21.6030 C   0  0  0  0  0  2  0  0  0  0  0  0
  -19.5690  -28.0990   22.7870 C   0  0  0  0  0  0  0  0  0  0  0  0
  -19.1930  -29.3370   23.3520 C   0  0  0  0  0  3  0  0  0  0  0  0
  -17.8390  -29.7190   23.4160 C   0  0  0  0  0  3  0  0  0  0  0  0
  -16.8440  -28.8590   22.9180 C   0  0  0  0  0  3  0  0  0  0  0  0
  -17.2040  -27.6260   22.3440 C   0  0  0  0  0  3  0  0  0  0  0  0
  -25.9290  -32.3130   23.7710 C   0  0  0  0  0  3  0  0  0  0  0  0
  -26.4450  -31.5550   25.0570 C   0  0  1  0  0  0  0  0  0  0  0  0
  -25.3180  -31.1750   26.0490 C   0  0  0  0  0  1  0  0  0  0  0  0
  -27.1840  -30.2560   24.6590 C   0  0  0  0  0  1  0  0  0  0  0  0
  -27.4750  -32.4330   25.8060 C   0  0  0  0  0  1  0  0  0  0  0  0
  -25.4970  -33.6780   24.1030 N   0  0  0  0  0  0  0  0  0  0  0  0
  -25.7950  -34.7630   23.3750 C   0  0  0  0  0  0  0  0  0  0  0  0
  -26.5300  -34.7270   22.3830 O   0  0  0  0  0  0  0  0  0  0  0  0
  -24.8350  -33.7700   24.8590 H   0  0  0  0  0  0  0  0  0  0  0  0
  -23.9530  -36.4230   22.9470 C   0  0  0  0  0  1  0  0  0  0  0  0
  -25.1800  -36.1030   23.8180 C   0  0  0  0  0  3  0  0  0  0  0  0
  -27.1990  -37.1410   24.7630 C   0  0  0  0  0  1  0  0  0  0  0  0
  -26.1330  -37.2360   23.7690 N   0  0  0  0  0  0  0  0  0  0  0  0
  -25.6470  -38.1190   23.8960 H   0  0  0  0  0  0  0  0  0  0  0  0
  2  5  1  0
  3  1  1  0
  4  6  1  0
  4  2  1  0
  5  8  1  0
  5  1  1  0
  6  7  1  1
  6  3  1  0
  8  9  1  0
  9 11  1  0
 10  8  2  0
 12 16  1  0
 14 17  1  0
 14 12  2  0
 15 13  1  0
 16  9  1  0
 16 13  2  0
 17 15  2  0
 18 26  1  0
 19 24  1  0
 20 21  1  0
 20 19  1  0
 22 21  1  0
 22 31  1  0
 22 23  1  0
 24 18  1  0
 24 23  1  0
 25 18  2  0
 26 17  1  0
 26 27  1  0
 28 29  2  0
 29 48  1  0
 30 33  1  0
 30 29  1  0
 31 32  1  0
 31 28  1  0
 32 30  2  0
 33 34  1  0
 34 35  2  0
 36 39  1  0
 36 35  1  0
 37 36  2  0
 38 37  1  0
 38 33  2  0
 39 40  1  0
 40 41  1  0
 41 42  2  0
 43 42  1  0
 43 47  1  0
 44 43  2  0
 45 40  2  0
 45 44  1  0
 46 45  1  0
 48 49  1  0
 49 51  1  0
 49 52  1  0
 50 48  2  0
 53 28  1  0
 53 54  1  0
 55 53  1  0
 56  6  1  0
 56 57  1  0
 57 58  1  0
 59 70  2  0
 60 58  1  0
 60 65  1  0
 61 69  1  0
 61 71  1  0
 62 64  1  0
 63 69  1  0
 64 65  2  0
 64 63  1  0
 66 60  2  0
 67 66  1  0
 67 62  2  0
 68 62  1  0
 68 61  1  0
 69 59  1  0
 71 73  2  0
 72 71  1  0
 74 72  1  0
 75 84  2  0
 75 80  1  0
 76 72  1  0
 76 80  1  0
 77 76  1  0
 78 79  1  0
 78 77  1  0
 79 75  1  0
 80 81  2  0
 81 82  1  0
 83 82  2  0
 84 83  1  0
 85 59  1  0
 85 90  1  0
 85 86  1  0
 86 89  1  1
 86 87  1  0
 88 86  1  0
 90 93  1  0
 91 95  1  0
 91 90  1  0
 92 91  2  0
 95 94  1  0
 97 95  1  0
 97 98  1  0
 97 96  1  0
M  ISO  4  18 100  26 100  57 101  58 101
M  END
>  <TORSDO>  (66) 
F 20

>  <SCORE>  (66) 
-11.348

>  <name>  (66) 
65

>  <ligand_id>  (66) 
65

>  <original_smiles>  (66) 
[H]c1c([H])c([H])c2c(c1[H])C([H])([H])C([H])([H])C([H])([H])C2([H])N([H])C(=O)C1([H])N(C(=O)C([H])(N([H])C(=O)C([H])(N([H])C([H])([H])[H])C([H])([H])[H])C(C([H])([H])[H])(C([H])([H])[H])C([H])([H])[H])C([H])([H])c2c([H])c(OC([H])([H])C([H])([H])[N+]3([H])C([H])([H])C([H])([H])C([H])(C(=O)N([H])c4c([H])c([H])c(N([H])C(=O)N5C([H])([H])C([H])([H])C([H])([H])C([H])(n6nc(-c7c([H])c([H])c(Oc8c([H])c([H])c(F)c([H])c8F)c([H])c7[H])c(C(=O)N([H])[H])c6N([H])[H])C5([H])[H])c([H])c4[H])C([H])([H])C3([H])[H])c([H])c([H])c2C1([H])[H]

>  <smiles>  (66) 
[H]c1c([H])c([H])c2c(c1[H])C([H])([H])C([H])([H])C([H])([H])C2([H])N([H])C(=O)C1([H])N(C(=O)C([H])(N([H])C(=O)C([H])(N([H])C([H])([H])[H])C([H])([H])[H])C(C([H])([H])[H])(C([H])([H])[H])C([H])([H])[H])C([H])([H])c2c([H])c(OC([H])([H])C([H])([H])[N+]3([H])C([H])([H])C([H])([H])C([H])(C(=O)N([H])c4c([H])c([H])c(N([H])C(=O)N5C([H])([H])C([H])([H])C([H])([H])C([H])(n6nc(-c7c([H])c([H])c(Oc8c([H])c([H])c(F)c([H])c8F)c([H])c7[H])c(C(=O)N([H])[H])c6N([H])[H])C5([H])[H])c([H])c4[H])C([H])([H])C3([H])[H])c([H])c([H])c2C1([H])[H]

$$$$
66:0:0
     RDKit          3D

 94102  0  0  1  0  0  0  0  0999 V2000
  -30.1820  -21.5240   20.2180 C   0  0  0  0  0  2  0  0  0  0  0  0
  -30.6900  -19.2840   19.6880 C   0  0  0  0  0  0  0  0  0  0  0  0
  -30.1610  -20.0940   20.5550 N   0  0  0  0  0  2  0  0  0  0  0  0
  -31.2590  -19.6310   18.4800 N   0  0  0  0  0  4  0  0  0  0  0  0
  -31.6160  -18.9560   17.8140 H   0  0  0  0  0  0  0  0  0  0  0  0
  -31.3590  -20.5670   18.1120 H   0  0  0  0  0  0  0  0  0  0  0  0
  -29.8320  -17.0010   18.9090 C   0  0  0  0  0  2  0  0  0  0  0  0
  -30.7170  -17.7600   19.8680 C   0  0  0  0  0  3  0  0  0  0  0  0
  -29.6120  -16.8410   20.3990 C   0  0  0  0  0  3  0  0  0  0  0  0
  -30.6050  -14.5070   20.5090 C   0  0  0  0  0  0  0  0  0  0  0  0
  -30.3610  -12.3450   19.3550 C   0  0  0  0  0  2  0  0  0  0  0  0
  -29.4320  -12.5840   18.1430 C   0  0  0  0  0  2  0  0  0  0  0  0
  -27.9480  -12.4500   18.5470 C   0  0  0  0  0  2  0  0  0  0  0  0
  -27.6040  -13.2580   19.8280 C   0  0  0  0  0  3  0  0  0  0  0  0
  -28.6450  -12.9910   20.9420 C   0  0  0  0  0  2  0  0  0  0  0  0
  -29.9810  -13.3030   20.4040 N   0  0  0  0  0  0  0  0  0  0  0  0
  -31.7310  -14.7260   20.0470 O   0  0  0  0  0  0  0  0  0  0  0  0
  -29.7850  -15.4950   20.9240 N   0  0  0  0  0  0  0  0  0  0  0  0
  -28.9680  -15.1410   21.3970 H   0  0  0  0  0  0  0  0  0  0  0  0
  -25.1960  -13.8770   20.5060 C   0  0  0  0  0  0  0  0  0  0  0  0
  -24.1220  -13.1080   20.8700 C   0  0  0  0  0  0  0  0  0  0  0  0
  -24.5830  -11.7570   20.8480 C   0  0  0  0  0  0  0  0  0  0  0  0
  -26.2430  -12.9940   20.2900 N   0  0  0  0  0  0  0  0  0  0  0  0
  -25.8760  -11.7130   20.5490 N   0  0  0  0  0  0  0  0  0  0  0  0
  -23.8560  -10.4950   21.0360 C   0  0  0  0  0  0  0  0  0  0  0  0
  -24.2780   -9.5330   21.9830 C   0  0  0  0  0  3  0  0  0  0  0  0
  -23.5510   -8.3340   22.1580 C   0  0  0  0  0  3  0  0  0  0  0  0
  -22.3880   -8.0930   21.3900 C   0  0  0  0  0  0  0  0  0  0  0  0
  -21.9870   -9.0430   20.4340 C   0  0  0  0  0  3  0  0  0  0  0  0
  -22.7140  -10.2310   20.2550 C   0  0  0  0  0  3  0  0  0  0  0  0
  -21.6320   -6.9490   21.4740 O   0  0  0  0  0  0  0  0  0  0  0  0
  -21.5650   -6.2150   22.6300 C   0  0  0  0  0  0  0  0  0  0  0  0
  -21.1080   -6.7740   23.8440 C   0  0  0  0  0  3  0  0  0  0  0  0
  -20.9890   -5.9640   24.9910 C   0  0  0  0  0  3  0  0  0  0  0  0
  -21.3170   -4.5960   24.9260 C   0  0  0  0  0  0  0  0  0  0  0  0
  -21.7650   -4.0370   23.7160 C   0  0  0  0  0  3  0  0  0  0  0  0
  -21.8860   -4.8440   22.5720 C   0  0  0  0  0  0  0  0  0  0  0  0
  -22.2980   -4.2940   21.4040 F   0  0  0  0  0  0  0  0  0  0  0  0
  -21.1970   -3.8170   26.0250 F   0  0  0  0  0  0  0  0  0  0  0  0
  -22.7220  -13.5880   21.1250 C   0  0  0  0  0  0  0  0  0  0  0  0
  -21.9830  -12.8960   21.9850 N   0  0  0  0  0  0  0  0  0  0  0  0
  -22.2910  -14.6130   20.5990 O   0  0  0  0  0  0  0  0  0  0  0  0
  -22.3410  -12.0680   22.4390 H   0  0  0  0  0  0  0  0  0  0  0  0
  -21.0430  -13.2010   22.1940 H   0  0  0  0  0  0  0  0  0  0  0  0
  -25.3640  -15.2460   20.3190 N   0  0  0  0  0  0  0  0  0  0  0  0
  -24.5950  -15.9030   20.4050 H   0  0  0  0  0  0  0  0  0  0  0  0
  -26.2180  -15.6770   19.9900 H   0  0  0  0  0  0  0  0  0  0  0  0
  -29.3580  -22.4050   21.1910 C   0  0  0  0  0  2  0  0  0  0  0  0
  -29.4090  -23.8400   20.7940 N   0  0  0  0  0  4  0  0  0  0  0  0
  -29.0860  -23.9230   19.8420 H   0  0  0  0  0  0  0  0  0  0  0  0
  -30.3750  -24.1250   20.8080 H   0  0  0  0  0  0  0  0  0  0  0  0
  -28.6320  -24.7840   21.6420 C   0  0  0  0  0  2  0  0  0  0  0  0
  -28.9900  -26.2690   21.3730 C   0  0  0  0  0  2  0  0  0  0  0  0
  -28.4540  -26.7210   20.1250 O   0  0  0  0  0  0  0  0  0  0  0  0
  -24.6040  -31.8940   23.2370 C   0  0  0  0  0  0  0  0  0  0  0  0
  -27.2980  -27.4670   20.1870 C   0  0  0  0  0  0  0  0  0  0  0  0
  -23.4150  -30.4760   21.5910 C   0  0  0  0  0  3  0  0  0  0  0  0
  -24.8910  -28.9420   20.1840 C   0  0  0  0  0  0  0  0  0  0  0  0
  -25.9380  -30.8530   21.4100 C   0  0  0  0  0  2  0  0  0  0  0  0
  -26.0370  -29.4780   20.7830 C   0  0  0  0  0  0  0  0  0  0  0  0
  -27.2460  -28.7460   20.7890 C   0  0  0  0  0  3  0  0  0  0  0  0
  -26.1410  -26.9470   19.5750 C   0  0  0  0  0  3  0  0  0  0  0  0
  -24.9360  -27.6730   19.5800 C   0  0  0  0  0  3  0  0  0  0  0  0
  -23.6380  -29.7900   20.2170 C   0  0  0  0  0  2  0  0  0  0  0  0
  -24.6690  -31.0900   22.1380 N   0  0  0  0  0  0  0  0  0  0  0  0
  -23.5180  -32.1610   23.7700 O   0  0  0  0  0  0  0  0  0  0  0  0
  -22.7670  -29.4540   22.5530 C   0  0  0  0  0  0  0  0  0  0  0  0
  -21.4420  -29.2720   22.4280 N   0  0  0  0  0  0  0  0  0  0  0  0
  -23.4520  -28.8290   23.3660 O   0  0  0  0  0  0  0  0  0  0  0  0
  -20.9520  -29.8280   21.7420 H   0  0  0  0  0  0  0  0  0  0  0  0
  -18.0660  -28.0940   22.9430 C   0  0  0  0  0  0  0  0  0  0  0  0
  -20.6270  -28.3320   23.1960 C   0  0  0  0  0  3  0  0  0  0  0  0
  -20.7160  -26.9060   22.6050 C   0  0  0  0  0  2  0  0  0  0  0  0
  -19.6030  -26.6000   21.5970 C   0  0  0  0  0  2  0  0  0  0  0  0
  -18.2280  -26.7490   22.2550 C   0  0  0  0  0  2  0  0  0  0  0  0
  -19.1930  -28.8440   23.3700 C   0  0  0  0  0  0  0  0  0  0  0  0
  -18.9900  -30.1050   23.9720 C   0  0  0  0  0  3  0  0  0  0  0  0
  -17.6900  -30.6150   24.1530 C   0  0  0  0  0  3  0  0  0  0  0  0
  -16.5770  -29.8600   23.7430 C   0  0  0  0  0  3  0  0  0  0  0  0
  -16.7660  -28.6030   23.1440 C   0  0  0  0  0  3  0  0  0  0  0  0
  -25.8820  -32.5340   23.8600 C   0  0  0  0  0  3  0  0  0  0  0  0
  -25.5640  -33.9310   24.1830 N   0  0  0  0  0  0  0  0  0  0  0  0
  -25.8970  -34.9810   23.4200 C   0  0  0  0  0  0  0  0  0  0  0  0
  -26.5740  -34.8770   22.3940 O   0  0  0  0  0  0  0  0  0  0  0  0
  -24.9640  -34.0880   24.9790 H   0  0  0  0  0  0  0  0  0  0  0  0
  -24.1660  -36.7650   23.0410 C   0  0  0  0  0  1  0  0  0  0  0  0
  -25.3990  -36.3690   23.8680 C   0  0  0  0  0  3  0  0  0  0  0  0
  -27.5190  -37.2660   24.7220 C   0  0  0  0  0  1  0  0  0  0  0  0
  -26.4280  -37.4260   23.7640 N   0  0  0  0  0  0  0  0  0  0  0  0
  -26.0160  -38.3440   23.9030 H   0  0  0  0  0  0  0  0  0  0  0  0
  -26.4010  -31.7690   25.1390 C   0  0  1  0  0  0  0  0  0  0  0  0
  -25.3080  -31.5250   26.2050 C   0  0  0  0  0  1  0  0  0  0  0  0
  -26.9960  -30.3960   24.7500 C   0  0  0  0  0  1  0  0  0  0  0  0
  -27.5450  -32.5740   25.8030 C   0  0  0  0  0  1  0  0  0  0  0  0
  1  3  1  0
  1 48  1  0
  2  3  1  0
  4  2  2  0
  5  4  1  0
  6  4  1  0
  7  8  1  0
  7  9  1  0
  8  2  1  0
  8  9  1  0
  9 18  1  0
 10 18  1  0
 11 16  1  0
 12 13  1  0
 12 11  1  0
 14 13  1  0
 14 23  1  0
 14 15  1  0
 16 10  1  0
 16 15  1  0
 17 10  2  0
 18 19  1  0
 20 21  2  0
 21 40  1  0
 22 21  1  0
 22 25  1  0
 23 20  1  0
 23 24  1  0
 24 22  2  0
 25 26  1  0
 26 27  2  0
 28 31  1  0
 28 27  1  0
 29 28  2  0
 30 29  1  0
 30 25  2  0
 31 32  1  0
 32 33  1  0
 33 34  2  0
 35 34  1  0
 35 39  1  0
 36 35  2  0
 37 32  2  0
 37 36  1  0
 38 37  1  0
 40 41  1  0
 41 44  1  0
 41 43  1  0
 42 40  2  0
 45 46  1  0
 45 20  1  0
 47 45  1  0
 49 51  1  0
 49 48  1  0
 49 52  1  0
 50 49  1  0
 53 52  1  0
 54 56  1  0
 54 53  1  0
 55 66  2  0
 56 61  1  0
 57 65  1  0
 57 67  1  0
 58 64  1  0
 58 60  1  0
 59 65  1  0
 60 61  2  0
 60 59  1  0
 62 63  1  0
 62 56  2  0
 63 58  2  0
 64 57  1  0
 65 55  1  0
 67 69  2  0
 68 67  1  0
 70 68  1  0
 71 80  2  0
 71 76  1  0
 72 68  1  0
 72 76  1  0
 73 72  1  0
 74 75  1  0
 74 73  1  0
 75 71  1  0
 76 77  2  0
 77 78  1  0
 79 78  2  0
 80 79  1  0
 81 55  1  0
 81 82  1  0
 81 91  1  0
 82 85  1  0
 83 87  1  0
 83 82  1  0
 84 83  2  0
 87 86  1  0
 89 87  1  0
 89 90  1  0
 89 88  1  0
 91 94  1  1
 91 92  1  0
 93 91  1  0
M  ISO  4  10 100  18 100  53 101  54 101
M  END
>  <TORSDO>  (67) 
F 22

>  <SCORE>  (67) 
-13.114

>  <name>  (67) 
66

>  <ligand_id>  (67) 
66

>  <original_smiles>  (67) 
[H]c1c([H])c([H])c2c(c1[H])C([H])([H])C([H])([H])C([H])([H])C2([H])N([H])C(=O)C1([H])N(C(=O)C([H])(N([H])C(=O)C([H])(N([H])C([H])([H])[H])C([H])([H])[H])C(C([H])([H])[H])(C([H])([H])[H])C([H])([H])[H])C([H])([H])c2c([H])c(OC([H])([H])C([H])([H])[N+]([H])([H])C([H])([H])C([H])([H])N=C(N([H])[H])C3([H])C([H])([H])C3([H])N([H])C(=O)N3C([H])([H])C([H])([H])C([H])([H])C([H])(n4nc(-c5c([H])c([H])c(Oc6c([H])c([H])c(F)c([H])c6F)c([H])c5[H])c(C(=O)N([H])[H])c4N([H])[H])C3([H])[H])c([H])c([H])c2C1([H])[H]

>  <smiles>  (67) 
[H]c1c([H])c([H])c2c(c1[H])C([H])([H])C([H])([H])C([H])([H])C2([H])N([H])C(=O)C1([H])N(C(=O)C([H])(N([H])C(=O)C([H])(N([H])C([H])([H])[H])C([H])([H])[H])C(C([H])([H])[H])(C([H])([H])[H])C([H])([H])[H])C([H])([H])c2c([H])c(OC([H])([H])C([H])([H])[N+]([H])([H])C([H])([H])C([H])([H])N=C(N([H])[H])C3([H])C([H])([H])C3([H])N([H])C(=O)N3C([H])([H])C([H])([H])C([H])([H])C([H])(n4nc(-c5c([H])c([H])c(Oc6c([H])c([H])c(F)c([H])c6F)c([H])c5[H])c(C(=O)N([H])[H])c4N([H])[H])C3([H])[H])c([H])c([H])c2C1([H])[H]

$$$$
67:0:0
     RDKit          3D

 98106  0  0  1  0  0  0  0  0999 V2000
  -28.7220  -18.9630   20.7820 C   0  0  0  0  0  2  0  0  0  0  0  0
  -31.1450  -20.4310   21.5830 C   0  0  0  0  0  2  0  0  0  0  0  0
  -28.5660  -20.2190   19.8520 C   0  0  0  0  0  2  0  0  0  0  0  0
  -29.9030  -21.3600   21.6130 C   0  0  0  0  0  2  0  0  0  0  0  0
  -30.1170  -18.2730   20.8210 C   0  0  0  0  0  3  0  0  0  0  0  0
  -31.1680  -19.2960   20.6290 N   0  0  0  0  0  0  0  0  0  0  0  0
  -29.2300  -21.4990   20.2950 N   0  0  2  0  0  4  0  0  0  0  0  0
  -29.9750  -21.6490   19.6310 H   0  0  0  0  0  0  0  0  0  0  0  0
  -30.1970  -17.1260   19.7440 C   0  0  0  0  0  2  0  0  0  0  0  0
  -30.6430  -14.6690   19.9490 C   0  0  0  0  0  0  0  0  0  0  0  0
  -30.3290  -12.4400   18.9510 C   0  0  0  0  0  2  0  0  0  0  0  0
  -29.3370  -12.5780   17.7780 C   0  0  0  0  0  2  0  0  0  0  0  0
  -27.8860  -12.4340   18.2760 C   0  0  0  0  0  2  0  0  0  0  0  0
  -27.5880  -13.3120   19.5220 C   0  0  0  0  0  3  0  0  0  0  0  0
  -28.7000  -13.1820   20.5900 C   0  0  0  0  0  2  0  0  0  0  0  0
  -29.9860  -13.4740   19.9420 N   0  0  0  0  0  0  0  0  0  0  0  0
  -31.7770  -14.7950   19.4850 O   0  0  0  0  0  0  0  0  0  0  0  0
  -29.9020  -15.7610   20.2440 N   0  0  0  0  0  0  0  0  0  0  0  0
  -28.9780  -15.5970   20.6140 H   0  0  0  0  0  0  0  0  0  0  0  0
  -25.2320  -13.9030   20.3640 C   0  0  0  0  0  0  0  0  0  0  0  0
  -24.1880  -13.1240   20.7870 C   0  0  0  0  0  0  0  0  0  0  0  0
  -24.6520  -11.7740   20.7270 C   0  0  0  0  0  0  0  0  0  0  0  0
  -26.2660  -13.0270   20.0750 N   0  0  0  0  0  0  0  0  0  0  0  0
  -25.9240  -11.7410   20.3510 N   0  0  0  0  0  0  0  0  0  0  0  0
  -23.9410  -10.5090   20.9490 C   0  0  0  0  0  0  0  0  0  0  0  0
  -24.4040   -9.5550   21.8820 C   0  0  0  0  0  3  0  0  0  0  0  0
  -23.6920   -8.3550   22.0920 C   0  0  0  0  0  3  0  0  0  0  0  0
  -22.5030   -8.0980   21.3680 C   0  0  0  0  0  0  0  0  0  0  0  0
  -22.0600   -9.0400   20.4230 C   0  0  0  0  0  3  0  0  0  0  0  0
  -22.7720  -10.2320   20.2120 C   0  0  0  0  0  3  0  0  0  0  0  0
  -21.7600   -6.9480   21.4870 O   0  0  0  0  0  0  0  0  0  0  0  0
  -21.7130   -6.2420   22.6610 C   0  0  0  0  0  0  0  0  0  0  0  0
  -21.2830   -6.8320   23.8700 C   0  0  0  0  0  3  0  0  0  0  0  0
  -21.1820   -6.0510   25.0390 C   0  0  0  0  0  3  0  0  0  0  0  0
  -21.5000   -4.6800   25.0000 C   0  0  0  0  0  0  0  0  0  0  0  0
  -21.9220   -4.0890   23.7960 C   0  0  0  0  0  3  0  0  0  0  0  0
  -22.0250   -4.8670   22.6300 C   0  0  0  0  0  0  0  0  0  0  0  0
  -22.4110   -4.2880   21.4680 F   0  0  0  0  0  0  0  0  0  0  0  0
  -21.3960   -3.9280   26.1190 F   0  0  0  0  0  0  0  0  0  0  0  0
  -22.8050  -13.5950   21.1340 C   0  0  0  0  0  0  0  0  0  0  0  0
  -22.1280  -12.8950   22.0370 N   0  0  0  0  0  0  0  0  0  0  0  0
  -22.3360  -14.6190   20.6380 O   0  0  0  0  0  0  0  0  0  0  0  0
  -22.5230  -12.0670   22.4590 H   0  0  0  0  0  0  0  0  0  0  0  0
  -21.2010  -13.1910   22.3100 H   0  0  0  0  0  0  0  0  0  0  0  0
  -25.3820  -15.2740   20.1820 N   0  0  0  0  0  0  0  0  0  0  0  0
  -24.6160  -15.9220   20.3260 H   0  0  0  0  0  0  0  0  0  0  0  0
  -26.2010  -15.7130   19.7800 H   0  0  0  0  0  0  0  0  0  0  0  0
  -32.5280  -18.7230   20.7220 C   0  0  0  0  0  2  0  0  0  0  0  0
  -33.4700  -19.4010   19.7070 C   0  0  0  0  0  2  0  0  0  0  0  0
  -34.9170  -18.8910   19.7840 C   0  0  1  0  0  0  0  0  0  0  0  0
  -35.6660  -19.5400   18.8920 F   0  0  0  0  0  0  0  0  0  0  0  0
  -35.4200  -19.1070   20.9990 F   0  0  0  0  0  0  0  0  0  0  0  0
  -34.9700  -17.5860   19.5150 F   0  0  0  0  0  0  0  0  0  0  0  0
  -28.2990  -22.6850   20.1880 C   0  0  0  0  0  2  0  0  0  0  0  0
  -28.8830  -24.1490   20.2350 C   0  0  0  0  0  3  0  0  0  0  0  0
  -29.2930  -24.4420   21.4690 F   0  0  0  0  0  0  0  0  0  0  0  0
  -27.7900  -25.1960   19.8530 C   0  0  0  0  0  2  0  0  0  0  0  0
  -28.0780  -26.6280   19.9090 O   0  0  0  0  0  0  0  0  0  0  0  0
  -24.5190  -31.9410   23.1570 C   0  0  0  0  0  0  0  0  0  0  0  0
  -26.9580  -27.4590   19.9110 C   0  0  0  0  0  0  0  0  0  0  0  0
  -23.2310  -30.5750   21.5570 C   0  0  0  0  0  3  0  0  0  0  0  0
  -24.6020  -29.0540   20.0420 C   0  0  0  0  0  0  0  0  0  0  0  0
  -25.7580  -30.8930   21.2600 C   0  0  0  0  0  2  0  0  0  0  0  0
  -25.7990  -29.5300   20.5920 C   0  0  0  0  0  0  0  0  0  0  0  0
  -26.9790  -28.7420   20.5250 C   0  0  0  0  0  3  0  0  0  0  0  0
  -25.7370  -27.0360   19.3250 C   0  0  0  0  0  3  0  0  0  0  0  0
  -24.5700  -27.8080   19.4030 C   0  0  0  0  0  3  0  0  0  0  0  0
  -23.3730  -29.9250   20.1570 C   0  0  0  0  0  2  0  0  0  0  0  0
  -24.5250  -31.1490   22.0470 N   0  0  0  0  0  0  0  0  0  0  0  0
  -23.4630  -32.2170   23.7430 O   0  0  0  0  0  0  0  0  0  0  0  0
  -22.6100  -29.5420   22.5270 C   0  0  0  0  0  0  0  0  0  0  0  0
  -21.2860  -29.3370   22.4210 N   0  0  0  0  0  0  0  0  0  0  0  0
  -23.3150  -28.9310   23.3340 O   0  0  0  0  0  0  0  0  0  0  0  0
  -20.7750  -29.8820   21.7410 H   0  0  0  0  0  0  0  0  0  0  0  0
  -17.9550  -28.0250   22.9160 C   0  0  0  0  0  0  0  0  0  0  0  0
  -20.4970  -28.3890   23.2080 C   0  0  0  0  0  3  0  0  0  0  0  0
  -20.6630  -26.9470   22.6740 C   0  0  0  0  0  2  0  0  0  0  0  0
  -19.5850  -26.5540   21.6560 C   0  0  0  0  0  2  0  0  0  0  0  0
  -18.1910  -26.6640   22.2810 C   0  0  0  0  0  2  0  0  0  0  0  0
  -19.0390  -28.8400   23.3360 C   0  0  0  0  0  0  0  0  0  0  0  0
  -18.7650  -30.1110   23.8890 C   0  0  0  0  0  3  0  0  0  0  0  0
  -17.4410  -30.5670   24.0250 C   0  0  0  0  0  3  0  0  0  0  0  0
  -16.3710  -29.7480   23.6240 C   0  0  0  0  0  3  0  0  0  0  0  0
  -16.6280  -28.4790   23.0740 C   0  0  0  0  0  3  0  0  0  0  0  0
  -25.8350  -32.5550   23.7270 C   0  0  0  0  0  3  0  0  0  0  0  0
  -26.4130  -31.7520   24.9560 C   0  0  1  0  0  0  0  0  0  0  0  0
  -25.3730  -31.4910   26.0700 C   0  0  0  0  0  1  0  0  0  0  0  0
  -26.9710  -30.3830   24.5000 C   0  0  0  0  0  1  0  0  0  0  0  0
  -27.5970  -32.5280   25.5780 C   0  0  0  0  0  1  0  0  0  0  0  0
  -25.5470  -33.9450   24.1040 N   0  0  0  0  0  0  0  0  0  0  0  0
  -25.8780  -35.0170   23.3710 C   0  0  0  0  0  0  0  0  0  0  0  0
  -26.5300  -34.9380   22.3270 O   0  0  0  0  0  0  0  0  0  0  0  0
  -24.9690  -34.0810   24.9200 H   0  0  0  0  0  0  0  0  0  0  0  0
  -24.1710  -36.8420   23.0890 C   0  0  0  0  0  1  0  0  0  0  0  0
  -25.4110  -36.3950   23.8790 C   0  0  0  0  0  3  0  0  0  0  0  0
  -27.5650  -37.2190   24.7190 C   0  0  0  0  0  1  0  0  0  0  0  0
  -26.4570  -37.4380   23.7930 N   0  0  0  0  0  0  0  0  0  0  0  0
  -26.0660  -38.3560   23.9790 H   0  0  0  0  0  0  0  0  0  0  0  0
  1  5  1  0
  2  4  1  0
  3  7  1  0
  3  1  1  0
  5  9  1  0
  6 48  1  0
  6  5  1  0
  6  2  1  0
  7  4  1  0
  7  8  1  6
  9 18  1  0
 10 18  1  0
 11 16  1  0
 12 13  1  0
 12 11  1  0
 14 13  1  0
 14 23  1  0
 14 15  1  0
 16 10  1  0
 16 15  1  0
 17 10  2  0
 18 19  1  0
 20 21  2  0
 21 40  1  0
 22 21  1  0
 22 25  1  0
 23 24  1  0
 23 20  1  0
 24 22  2  0
 25 26  1  0
 26 27  2  0
 28 31  1  0
 28 27  1  0
 29 28  2  0
 30 29  1  0
 30 25  2  0
 31 32  1  0
 32 33  1  0
 33 34  2  0
 35 34  1  0
 35 39  1  0
 36 35  2  0
 37 32  2  0
 37 36  1  0
 38 37  1  0
 40 41  1  0
 41 44  1  0
 41 43  1  0
 42 40  2  0
 45 46  1  0
 45 20  1  0
 47 45  1  0
 49 50  1  0
 49 48  1  0
 50 52  1  1
 51 50  1  0
 53 50  1  0
 54 55  1  0
 54  7  1  0
 55 56  1  0
 57 58  1  0
 57 55  1  0
 58 60  1  0
 59 70  2  0
 60 65  1  0
 61 69  1  0
 61 71  1  0
 62 68  1  0
 62 64  1  0
 63 69  1  0
 64 63  1  0
 65 64  2  0
 66 67  1  0
 66 60  2  0
 67 62  2  0
 68 61  1  0
 69 59  1  0
 71 73  2  0
 72 71  1  0
 74 72  1  0
 75 84  2  0
 75 80  1  0
 76 72  1  0
 76 80  1  0
 77 76  1  0
 78 79  1  0
 78 77  1  0
 79 75  1  0
 80 81  2  0
 81 82  1  0
 83 82  2  0
 84 83  1  0
 85 59  1  0
 85 90  1  0
 85 86  1  0
 86 89  1  1
 86 87  1  0
 88 86  1  0
 90 93  1  0
 91 95  1  0
 91 90  1  0
 92 91  2  0
 95 94  1  0
 97 95  1  0
 97 98  1  0
 97 96  1  0
M  ISO  4  10 100  18 100  57 101  58 101
M  END
>  <TORSDO>  (68) 
F 23

>  <SCORE>  (68) 
-12.902

>  <name>  (68) 
67

>  <ligand_id>  (68) 
67

>  <original_smiles>  (68) 
[H]c1c([H])c([H])c2c(c1[H])C([H])([H])C([H])([H])C([H])([H])C2([H])N([H])C(=O)C1([H])N(C(=O)C([H])(N([H])C(=O)C([H])(N([H])C([H])([H])[H])C([H])([H])[H])C(C([H])([H])[H])(C([H])([H])[H])C([H])([H])[H])C([H])([H])c2c([H])c(OC([H])([H])C([H])(F)C([H])([H])[N+]3([H])C([H])([H])C([H])([H])N(C([H])([H])C([H])([H])C(F)(F)F)C([H])(C([H])([H])N([H])C(=O)N4C([H])([H])C([H])([H])C([H])([H])C([H])(n5nc(-c6c([H])c([H])c(Oc7c([H])c([H])c(F)c([H])c7F)c([H])c6[H])c(C(=O)N([H])[H])c5N([H])[H])C4([H])[H])C([H])([H])C3([H])[H])c([H])c([H])c2C1([H])[H]

>  <smiles>  (68) 
[H]c1c([H])c([H])c2c(c1[H])C([H])([H])C([H])([H])C([H])([H])C2([H])N([H])C(=O)C1([H])N(C(=O)C([H])(N([H])C(=O)C([H])(N([H])C([H])([H])[H])C([H])([H])[H])C(C([H])([H])[H])(C([H])([H])[H])C([H])([H])[H])C([H])([H])c2c([H])c(OC([H])([H])C([H])(F)C([H])([H])[N+]3([H])C([H])([H])C([H])([H])N(C([H])([H])C([H])([H])C(F)(F)F)C([H])(C([H])([H])N([H])C(=O)N4C([H])([H])C([H])([H])C([H])([H])C([H])(n5nc(-c6c([H])c([H])c(Oc7c([H])c([H])c(F)c([H])c7F)c([H])c6[H])c(C(=O)N([H])[H])c5N([H])[H])C4([H])[H])C([H])([H])C3([H])[H])c([H])c([H])c2C1([H])[H]

$$$$
68:0:0
     RDKit          3D

 91 99  0  0  1  0  0  0  0  0999 V2000
  -29.0940  -22.6760   19.8850 C   0  0  0  0  0  0  0  0  0  0  0  0
  -28.4200  -23.8380   20.2550 N   0  0  0  0  0  0  0  0  0  0  0  0
  -29.9510  -22.7290   19.0000 O   0  0  0  0  0  0  0  0  0  0  0  0
  -27.6560  -23.7310   20.9100 H   0  0  0  0  0  0  0  0  0  0  0  0
  -28.8100  -21.2330   20.5350 C   0  0  0  0  0  2  0  0  0  0  0  0
  -28.1720  -18.5530   19.1650 C   0  0  0  0  0  2  0  0  0  0  0  0
  -29.0580  -19.6560   18.5830 C   0  0  0  0  0  2  0  0  0  0  0  0
  -29.1250  -18.5390   20.3560 C   0  0  0  0  0  3  0  0  0  0  0  0
  -29.5080  -19.9850   19.9410 N   0  0  2  0  0  4  0  0  0  0  0  0
  -30.5060  -20.1390   19.9510 H   0  0  0  0  0  0  0  0  0  0  0  0
  -30.2410  -17.3590   20.3790 C   0  0  0  0  0  2  0  0  0  0  0  0
  -30.5760  -14.7490   20.3700 C   0  0  0  0  0  0  0  0  0  0  0  0
  -30.3650  -12.4740   19.3710 C   0  0  0  0  0  2  0  0  0  0  0  0
  -29.4300  -12.5480   18.1430 C   0  0  0  0  0  2  0  0  0  0  0  0
  -27.9590  -12.3830   18.5690 C   0  0  0  0  0  2  0  0  0  0  0  0
  -27.5840  -13.2680   19.7890 C   0  0  0  0  0  3  0  0  0  0  0  0
  -28.6430  -13.1830   20.9110 C   0  0  0  0  0  2  0  0  0  0  0  0
  -29.9400  -13.5300   20.3160 N   0  0  0  0  0  0  0  0  0  0  0  0
  -31.7630  -14.8400   20.0500 O   0  0  0  0  0  0  0  0  0  0  0  0
  -29.8170  -15.8940   20.5570 N   0  0  0  0  0  0  0  0  0  0  0  0
  -28.8450  -15.7350   20.7770 H   0  0  0  0  0  0  0  0  0  0  0  0
  -25.1950  -13.8550   20.5110 C   0  0  0  0  0  0  0  0  0  0  0  0
  -24.1300  -13.0790   20.8810 C   0  0  0  0  0  0  0  0  0  0  0  0
  -24.5960  -11.7290   20.8590 C   0  0  0  0  0  0  0  0  0  0  0  0
  -26.2410  -12.9770   20.2810 N   0  0  0  0  0  0  0  0  0  0  0  0
  -25.8880  -11.6940   20.5530 N   0  0  0  0  0  0  0  0  0  0  0  0
  -23.8710  -10.4650   21.0530 C   0  0  0  0  0  0  0  0  0  0  0  0
  -24.3160   -9.4940   21.9760 C   0  0  0  0  0  3  0  0  0  0  0  0
  -23.5910   -8.2960   22.1590 C   0  0  0  0  0  3  0  0  0  0  0  0
  -22.4080   -8.0620   21.4200 C   0  0  0  0  0  0  0  0  0  0  0  0
  -21.9840   -9.0220   20.4850 C   0  0  0  0  0  3  0  0  0  0  0  0
  -22.7080  -10.2110   20.2990 C   0  0  0  0  0  3  0  0  0  0  0  0
  -21.6530   -6.9180   21.5140 O   0  0  0  0  0  0  0  0  0  0  0  0
  -21.6350   -6.1590   22.6570 C   0  0  0  0  0  0  0  0  0  0  0  0
  -21.2600   -6.7020   23.9060 C   0  0  0  0  0  3  0  0  0  0  0  0
  -21.1870   -5.8720   25.0400 C   0  0  0  0  0  3  0  0  0  0  0  0
  -21.4790   -4.4990   24.9290 C   0  0  0  0  0  0  0  0  0  0  0  0
  -21.8450   -3.9550   23.6850 C   0  0  0  0  0  3  0  0  0  0  0  0
  -21.9200   -4.7830   22.5520 C   0  0  0  0  0  0  0  0  0  0  0  0
  -22.2550   -4.2500   21.3520 F   0  0  0  0  0  0  0  0  0  0  0  0
  -21.4000   -3.6980   26.0170 F   0  0  0  0  0  0  0  0  0  0  0  0
  -22.7300  -13.5540   21.1430 C   0  0  0  0  0  0  0  0  0  0  0  0
  -22.0010  -12.8630   22.0120 N   0  0  0  0  0  0  0  0  0  0  0  0
  -22.2910  -14.5740   20.6110 O   0  0  0  0  0  0  0  0  0  0  0  0
  -22.3720  -12.0410   22.4660 H   0  0  0  0  0  0  0  0  0  0  0  0
  -21.0600  -13.1590   22.2280 H   0  0  0  0  0  0  0  0  0  0  0  0
  -25.3540  -15.2250   20.3240 N   0  0  0  0  0  0  0  0  0  0  0  0
  -24.5750  -15.8690   20.4090 H   0  0  0  0  0  0  0  0  0  0  0  0
  -26.1850  -15.6600   19.9440 H   0  0  0  0  0  0  0  0  0  0  0  0
  -28.4490  -25.1450   19.4830 C   0  0  0  0  0  2  0  0  0  0  0  0
  -28.3440  -26.4120   20.2270 O   0  0  0  0  0  0  0  0  0  0  0  0
  -24.6230  -31.8710   23.2170 C   0  0  0  0  0  0  0  0  0  0  0  0
  -27.2170  -27.2700   20.1410 C   0  0  0  0  0  0  0  0  0  0  0  0
  -23.4130  -30.4750   21.5820 C   0  0  0  0  0  3  0  0  0  0  0  0
  -24.8550  -28.9190   20.1450 C   0  0  0  0  0  0  0  0  0  0  0  0
  -25.9560  -30.7770   21.3920 C   0  0  0  0  0  2  0  0  0  0  0  0
  -26.0280  -29.3960   20.7390 C   0  0  0  0  0  0  0  0  0  0  0  0
  -27.2070  -28.5830   20.7280 C   0  0  0  0  0  3  0  0  0  0  0  0
  -26.0090  -26.8530   19.5350 C   0  0  0  0  0  3  0  0  0  0  0  0
  -24.8510  -27.6560   19.5340 C   0  0  0  0  0  3  0  0  0  0  0  0
  -23.6210  -29.8000   20.1990 C   0  0  0  0  0  2  0  0  0  0  0  0
  -24.6830  -31.0600   22.1190 N   0  0  0  0  0  0  0  0  0  0  0  0
  -23.5400  -32.1500   23.7540 O   0  0  0  0  0  0  0  0  0  0  0  0
  -22.7500  -29.4610   22.5450 C   0  0  0  0  0  0  0  0  0  0  0  0
  -21.4220  -29.2890   22.4250 N   0  0  0  0  0  0  0  0  0  0  0  0
  -23.4290  -28.8310   23.3600 O   0  0  0  0  0  0  0  0  0  0  0  0
  -20.9330  -29.8490   21.7400 H   0  0  0  0  0  0  0  0  0  0  0  0
  -18.0440  -28.0930   22.9320 C   0  0  0  0  0  0  0  0  0  0  0  0
  -20.6030  -28.3540   23.1980 C   0  0  0  0  0  3  0  0  0  0  0  0
  -20.7040  -26.9210   22.6270 C   0  0  0  0  0  2  0  0  0  0  0  0
  -19.6010  -26.5950   21.6150 C   0  0  0  0  0  2  0  0  0  0  0  0
  -18.2200  -26.7410   22.2610 C   0  0  0  0  0  2  0  0  0  0  0  0
  -19.1630  -28.8570   23.3590 C   0  0  0  0  0  0  0  0  0  0  0  0
  -18.9440  -30.1200   23.9490 C   0  0  0  0  0  3  0  0  0  0  0  0
  -17.6390  -30.6200   24.1180 C   0  0  0  0  0  3  0  0  0  0  0  0
  -16.5340  -29.8530   23.7080 C   0  0  0  0  0  3  0  0  0  0  0  0
  -16.7380  -28.5920   23.1190 C   0  0  0  0  0  3  0  0  0  0  0  0
  -25.9060  -32.5040   23.8370 C   0  0  0  0  0  3  0  0  0  0  0  0
  -26.4290  -31.7280   25.1070 C   0  0  1  0  0  0  0  0  0  0  0  0
  -25.3430  -31.4880   26.1830 C   0  0  0  0  0  1  0  0  0  0  0  0
  -27.0090  -30.3510   24.7110 C   0  0  0  0  0  1  0  0  0  0  0  0
  -27.5830  -32.5200   25.7660 C   0  0  0  0  0  1  0  0  0  0  0  0
  -25.5940  -33.9000   24.1780 N   0  0  0  0  0  0  0  0  0  0  0  0
  -25.9190  -34.9600   23.4260 C   0  0  0  0  0  0  0  0  0  0  0  0
  -26.5800  -34.8660   22.3890 O   0  0  0  0  0  0  0  0  0  0  0  0
  -25.0050  -34.0460   24.9850 H   0  0  0  0  0  0  0  0  0  0  0  0
  -24.1830  -36.7530   23.1040 C   0  0  0  0  0  1  0  0  0  0  0  0
  -25.4340  -36.3440   23.8990 C   0  0  0  0  0  3  0  0  0  0  0  0
  -27.5770  -37.2270   24.7100 C   0  0  0  0  0  1  0  0  0  0  0  0
  -26.4630  -37.4010   23.7830 N   0  0  0  0  0  0  0  0  0  0  0  0
  -26.0550  -38.3180   23.9420 H   0  0  0  0  0  0  0  0  0  0  0  0
  1  2  1  0
  1  5  1  0
  2  4  1  0
  3  1  2  0
  6  8  1  0
  7  6  1  0
  7  9  1  0
  8 11  1  0
  9 10  1  6
  9  8  1  0
  9  5  1  0
 11 20  1  0
 12 20  1  0
 13 18  1  0
 14 15  1  0
 14 13  1  0
 16 15  1  0
 16 25  1  0
 16 17  1  0
 18 12  1  0
 18 17  1  0
 19 12  2  0
 20 21  1  0
 22 23  2  0
 23 42  1  0
 24 23  1  0
 24 27  1  0
 25 22  1  0
 25 26  1  0
 26 24  2  0
 27 28  1  0
 28 29  2  0
 30 33  1  0
 30 29  1  0
 31 30  2  0
 32 31  1  0
 32 27  2  0
 33 34  1  0
 34 35  1  0
 35 36  2  0
 37 36  1  0
 37 41  1  0
 38 37  2  0
 39 34  2  0
 39 38  1  0
 40 39  1  0
 42 43  1  0
 43 46  1  0
 43 45  1  0
 44 42  2  0
 47 48  1  0
 47 22  1  0
 49 47  1  0
 50 51  1  0
 50  2  1  0
 52 63  2  0
 53 51  1  0
 53 58  1  0
 54 62  1  0
 54 64  1  0
 55 61  1  0
 55 57  1  0
 56 62  1  0
 57 56  1  0
 58 57  2  0
 59 53  2  0
 60 59  1  0
 60 55  2  0
 61 54  1  0
 62 52  1  0
 64 66  2  0
 65 64  1  0
 67 65  1  0
 68 77  2  0
 68 73  1  0
 69 65  1  0
 69 73  1  0
 70 69  1  0
 71 72  1  0
 71 70  1  0
 72 68  1  0
 73 74  2  0
 74 75  1  0
 76 75  2  0
 77 76  1  0
 78 52  1  0
 78 83  1  0
 78 79  1  0
 79 82  1  1
 79 80  1  0
 81 79  1  0
 83 86  1  0
 84 88  1  0
 84 83  1  0
 85 84  2  0
 88 87  1  0
 90 88  1  0
 90 91  1  0
 90 89  1  0
M  ISO  4  12 100  20 100  50 101  51 101
M  END
>  <TORSDO>  (69) 
F 20

>  <SCORE>  (69) 
-13.812

>  <name>  (69) 
68

>  <ligand_id>  (69) 
68

>  <original_smiles>  (69) 
[H]c1c([H])c([H])c2c(c1[H])C([H])([H])C([H])([H])C([H])([H])C2([H])N([H])C(=O)C1([H])N(C(=O)C([H])(N([H])C(=O)C([H])(N([H])C([H])([H])[H])C([H])([H])[H])C(C([H])([H])[H])(C([H])([H])[H])C([H])([H])[H])C([H])([H])c2c([H])c(OC([H])([H])N([H])C(=O)C([H])([H])[N+]3([H])C([H])([H])C([H])([H])C3([H])C([H])([H])N([H])C(=O)N3C([H])([H])C([H])([H])C([H])([H])C([H])(n4nc(-c5c([H])c([H])c(Oc6c([H])c([H])c(F)c([H])c6F)c([H])c5[H])c(C(=O)N([H])[H])c4N([H])[H])C3([H])[H])c([H])c([H])c2C1([H])[H]

>  <smiles>  (69) 
[H]c1c([H])c([H])c2c(c1[H])C([H])([H])C([H])([H])C([H])([H])C2([H])N([H])C(=O)C1([H])N(C(=O)C([H])(N([H])C(=O)C([H])(N([H])C([H])([H])[H])C([H])([H])[H])C(C([H])([H])[H])(C([H])([H])[H])C([H])([H])[H])C([H])([H])c2c([H])c(OC([H])([H])N([H])C(=O)C([H])([H])[N+]3([H])C([H])([H])C([H])([H])C3([H])C([H])([H])N([H])C(=O)N3C([H])([H])C([H])([H])C([H])([H])C([H])(n4nc(-c5c([H])c([H])c(Oc6c([H])c([H])c(F)c([H])c6F)c([H])c5[H])c(C(=O)N([H])[H])c4N([H])[H])C3([H])[H])c([H])c([H])c2C1([H])[H]

$$$$
69:0:0
     RDKit          3D

 99107  0  0  1  0  0  0  0  0999 V2000
  -31.0360  -18.3830   21.0890 C   0  0  0  0  0  3  0  0  0  0  0  0
  -28.9990  -19.2330   20.1220 C   0  0  0  0  0  3  0  0  0  0  0  0
  -31.3790  -19.7120   21.4240 C   0  0  0  0  0  0  0  0  0  0  0  0
  -30.5290  -20.8420   21.1480 C   0  0  0  0  0  0  0  0  0  0  0  0
  -29.8440  -18.0290   20.4440 C   0  0  0  0  0  0  0  0  0  0  0  0
  -29.2940  -20.6850   20.4170 C   0  0  0  0  0  0  0  0  0  0  0  0
  -30.4290  -15.3190   20.2500 C   0  0  0  0  0  0  0  0  0  0  0  0
  -30.4190  -12.9190   19.3810 C   0  0  0  0  0  2  0  0  0  0  0  0
  -29.4900  -12.7550   18.1550 C   0  0  0  0  0  2  0  0  0  0  0  0
  -28.0380  -12.4980   18.6020 C   0  0  0  0  0  2  0  0  0  0  0  0
  -27.5880  -13.4590   19.7320 C   0  0  0  0  0  3  0  0  0  0  0  0
  -28.6390  -13.5760   20.8530 C   0  0  0  0  0  2  0  0  0  0  0  0
  -29.8800  -14.0320   20.2160 N   0  0  0  0  0  0  0  0  0  0  0  0
  -31.6460  -15.3890   20.0310 O   0  0  0  0  0  0  0  0  0  0  0  0
  -29.5980  -16.5000   20.2620 N   0  0  0  0  0  0  0  0  0  0  0  0
  -28.6210  -16.2620   20.1860 H   0  0  0  0  0  0  0  0  0  0  0  0
  -25.2180  -13.9870   20.5260 C   0  0  0  0  0  0  0  0  0  0  0  0
  -24.1670  -13.1910   20.8860 C   0  0  0  0  0  0  0  0  0  0  0  0
  -24.6450  -11.8460   20.8050 C   0  0  0  0  0  0  0  0  0  0  0  0
  -26.2650  -13.1280   20.2420 N   0  0  0  0  0  0  0  0  0  0  0  0
  -25.9330  -11.8330   20.4780 N   0  0  0  0  0  0  0  0  0  0  0  0
  -23.9310  -10.5710   20.9590 C   0  0  0  0  0  0  0  0  0  0  0  0
  -24.3580   -9.5920   21.8820 C   0  0  0  0  0  3  0  0  0  0  0  0
  -23.6420   -8.3840   22.0270 C   0  0  0  0  0  3  0  0  0  0  0  0
  -22.4840   -8.1480   21.2480 C   0  0  0  0  0  0  0  0  0  0  0  0
  -22.0760   -9.1170   20.3140 C   0  0  0  0  0  3  0  0  0  0  0  0
  -22.7940  -10.3150   20.1670 C   0  0  0  0  0  3  0  0  0  0  0  0
  -21.7410   -6.9940   21.3030 O   0  0  0  0  0  0  0  0  0  0  0  0
  -21.6580   -6.2440   22.4490 C   0  0  0  0  0  0  0  0  0  0  0  0
  -21.1200   -6.7690   23.6440 C   0  0  0  0  0  3  0  0  0  0  0  0
  -20.9910   -5.9430   24.7790 C   0  0  0  0  0  3  0  0  0  0  0  0
  -21.3870   -4.5940   24.7180 C   0  0  0  0  0  0  0  0  0  0  0  0
  -21.9170   -4.0690   23.5260 C   0  0  0  0  0  3  0  0  0  0  0  0
  -22.0490   -4.8910   22.3940 C   0  0  0  0  0  0  0  0  0  0  0  0
  -22.5400   -4.3750   21.2420 F   0  0  0  0  0  0  0  0  0  0  0  0
  -21.2560   -3.7980   25.8060 F   0  0  0  0  0  0  0  0  0  0  0  0
  -22.7700  -13.6470   21.1860 C   0  0  0  0  0  0  0  0  0  0  0  0
  -22.0590  -12.9200   22.0420 N   0  0  0  0  0  0  0  0  0  0  0  0
  -22.3170  -14.6820   20.7000 O   0  0  0  0  0  0  0  0  0  0  0  0
  -22.4410  -12.0820   22.4570 H   0  0  0  0  0  0  0  0  0  0  0  0
  -21.1240  -13.2080   22.2910 H   0  0  0  0  0  0  0  0  0  0  0  0
  -25.3640  -15.3650   20.3830 N   0  0  0  0  0  0  0  0  0  0  0  0
  -24.5790  -15.9970   20.4990 H   0  0  0  0  0  0  0  0  0  0  0  0
  -26.1760  -15.8160   19.9850 H   0  0  0  0  0  0  0  0  0  0  0  0
  -30.9800  -22.1770   21.6920 C   0  0  0  0  0  0  0  0  0  0  0  0
  -30.7640  -22.3850   22.9870 N   0  0  0  0  0  0  0  0  0  0  0  0
  -31.5900  -22.9880   20.9960 O   0  0  0  0  0  0  0  0  0  0  0  0
  -30.2810  -21.6950   23.5450 H   0  0  0  0  0  0  0  0  0  0  0  0
  -31.1050  -23.2250   23.4280 H   0  0  0  0  0  0  0  0  0  0  0  0
  -32.7120  -19.8610   22.1100 C   0  0  0  0  0  0  0  0  0  0  0  0
  -33.6770  -20.4380   21.4070 N   0  0  0  0  0  0  0  0  0  0  0  0
  -32.9040  -19.4140   23.2390 O   0  0  0  0  0  0  0  0  0  0  0  0
  -33.4860  -20.8050   20.4850 H   0  0  0  0  0  0  0  0  0  0  0  0
  -34.6050  -20.5250   21.7940 H   0  0  0  0  0  0  0  0  0  0  0  0
  -28.4290  -21.8780   20.0450 N   0  0  0  0  0  0  0  0  0  0  0  0
  -27.5730  -21.6340   19.5490 H   0  0  0  0  0  0  0  0  0  0  0  0
  -28.6610  -23.4530   20.1510 C   0  0  0  0  0  3  0  0  0  0  0  0
  -27.5880  -24.7270   19.7680 C   0  0  0  0  0  3  0  0  0  0  0  0
  -27.8590  -26.2840   19.8420 O   0  0  0  0  0  0  0  0  0  0  0  0
  -24.3710  -31.9680   23.0690 C   0  0  0  0  0  0  0  0  0  0  0  0
  -26.8110  -27.2870   19.8380 C   0  0  0  0  0  0  0  0  0  0  0  0
  -23.0990  -30.5810   21.4800 C   0  0  0  0  0  3  0  0  0  0  0  0
  -24.4800  -29.0410   19.9500 C   0  0  0  0  0  0  0  0  0  0  0  0
  -25.6400  -30.8660   21.1820 C   0  0  0  0  0  2  0  0  0  0  0  0
  -25.6890  -29.4810   20.5030 C   0  0  0  0  0  0  0  0  0  0  0  0
  -26.8550  -28.6200   20.4290 C   0  0  0  0  0  3  0  0  0  0  0  0
  -25.5720  -26.9610   19.2460 C   0  0  0  0  0  3  0  0  0  0  0  0
  -24.4350  -27.7960   19.3040 C   0  0  0  0  0  3  0  0  0  0  0  0
  -23.2530  -29.9340   20.0790 C   0  0  0  0  0  2  0  0  0  0  0  0
  -24.3940  -31.1610   21.9640 N   0  0  0  0  0  0  0  0  0  0  0  0
  -23.3120  -32.2310   23.6610 O   0  0  0  0  0  0  0  0  0  0  0  0
  -22.4830  -29.5520   22.4610 C   0  0  0  0  0  0  0  0  0  0  0  0
  -21.1540  -29.3500   22.3910 N   0  0  0  0  0  0  0  0  0  0  0  0
  -23.2020  -28.9360   23.2530 O   0  0  0  0  0  0  0  0  0  0  0  0
  -20.6250  -29.9040   21.7320 H   0  0  0  0  0  0  0  0  0  0  0  0
  -17.8340  -28.0230   22.9870 C   0  0  0  0  0  0  0  0  0  0  0  0
  -20.3870  -28.3900   23.1910 C   0  0  0  0  0  3  0  0  0  0  0  0
  -20.5310  -26.9540   22.6340 C   0  0  0  0  0  2  0  0  0  0  0  0
  -19.4220  -26.5770   21.6470 C   0  0  0  0  0  2  0  0  0  0  0  0
  -18.0490  -26.6760   22.3190 C   0  0  0  0  0  2  0  0  0  0  0  0
  -18.9320  -28.8350   23.3810 C   0  0  0  0  0  0  0  0  0  0  0  0
  -18.6760  -30.0910   23.9710 C   0  0  0  0  0  3  0  0  0  0  0  0
  -17.3560  -30.5400   24.1670 C   0  0  0  0  0  3  0  0  0  0  0  0
  -16.2730  -29.7280   23.7860 C   0  0  0  0  0  3  0  0  0  0  0  0
  -16.5140  -28.4720   23.2020 C   0  0  0  0  0  3  0  0  0  0  0  0
  -25.6720  -32.6130   23.6330 C   0  0  0  0  0  3  0  0  0  0  0  0
  -25.3520  -33.9950   24.0260 N   0  0  0  0  0  0  0  0  0  0  0  0
  -25.6800  -35.0860   23.3220 C   0  0  0  0  0  0  0  0  0  0  0  0
  -26.3500  -35.0370   22.2870 O   0  0  0  0  0  0  0  0  0  0  0  0
  -24.7530  -34.1070   24.8290 H   0  0  0  0  0  0  0  0  0  0  0  0
  -23.9810  -36.9240   23.0270 C   0  0  0  0  0  1  0  0  0  0  0  0
  -25.1910  -36.4520   23.8500 C   0  0  0  0  0  3  0  0  0  0  0  0
  -27.2990  -37.2680   24.8080 C   0  0  0  0  0  1  0  0  0  0  0  0
  -26.2360  -37.5000   23.8350 N   0  0  0  0  0  0  0  0  0  0  0  0
  -25.8310  -38.4140   24.0210 H   0  0  0  0  0  0  0  0  0  0  0  0
  -26.2710  -31.8230   24.8610 C   0  0  1  0  0  0  0  0  0  0  0  0
  -25.2450  -31.5540   25.9870 C   0  0  0  0  0  1  0  0  0  0  0  0
  -26.8440  -30.4600   24.4110 C   0  0  0  0  0  1  0  0  0  0  0  0
  -27.4510  -32.6170   25.4670 C   0  0  0  0  0  1  0  0  0  0  0  0
  1  3  1  0
  2  6  2  0
  2  5  1  0
  3 50  1  0
  4  3  2  0
  4 45  1  0
  5  1  2  0
  6  4  1  0
  7 15  1  0
  8 13  1  0
  9 10  1  0
  9  8  1  0
 11 10  1  0
 11 20  1  0
 11 12  1  0
 13  7  1  0
 13 12  1  0
 14  7  2  0
 15  5  1  0
 16 15  1  0
 17 18  2  0
 18 37  1  0
 19 18  1  0
 19 22  1  0
 20 21  1  0
 20 17  1  0
 21 19  2  0
 22 23  1  0
 23 24  2  0
 25 28  1  0
 25 24  1  0
 26 25  2  0
 27 26  1  0
 27 22  2  0
 28 29  1  0
 29 30  1  0
 30 31  2  0
 32 31  1  0
 32 36  1  0
 33 32  2  0
 34 29  2  0
 34 33  1  0
 35 34  1  0
 37 38  1  0
 38 41  1  0
 38 40  1  0
 39 37  2  0
 42 43  1  0
 42 17  1  0
 44 42  1  0
 45 46  1  0
 46 49  1  0
 46 48  1  0
 47 45  2  0
 50 52  2  0
 51 54  1  0
 51 50  1  0
 53 51  1  0
 55 57  1  0
 55  6  1  0
 56 55  1  0
 58 59  1  0
 58 57  2  0
 60 71  2  0
 61 59  1  0
 61 66  1  0
 62 70  1  0
 62 72  1  0
 63 69  1  0
 63 65  1  0
 64 70  1  0
 65 64  1  0
 66 65  2  0
 67 68  1  0
 67 61  2  0
 68 63  2  0
 69 62  1  0
 70 60  1  0
 72 74  2  0
 73 72  1  0
 75 73  1  0
 76 85  2  0
 76 81  1  0
 77 73  1  0
 77 81  1  0
 78 77  1  0
 79 80  1  0
 79 78  1  0
 80 76  1  0
 81 82  2  0
 82 83  1  0
 84 83  2  0
 85 84  1  0
 86 60  1  0
 86 87  1  0
 86 96  1  0
 87 90  1  0
 88 92  1  0
 88 87  1  0
 89 88  2  0
 92 91  1  0
 94 92  1  0
 94 95  1  0
 94 93  1  0
 96 99  1  1
 96 97  1  0
 98 96  1  0
M  ISO  4   7 100  15 100  58 101  59 101
M  END
>  <TORSDO>  (70) 
F 21

>  <SCORE>  (70) 
-14.007

>  <name>  (70) 
69

>  <ligand_id>  (70) 
69

>  <original_smiles>  (70) 
[H]c1c([H])c([H])c2c(c1[H])C([H])([H])C([H])([H])C([H])([H])C2([H])N([H])C(=O)C1([H])N(C(=O)C([H])(N([H])C(=O)C([H])(N([H])C([H])([H])[H])C([H])([H])[H])C(C([H])([H])[H])(C([H])([H])[H])C([H])([H])[H])C([H])([H])c2c([H])c(OC([H])([H])C([H])([H])N([H])c3c([H])c(N([H])C(=O)N4C([H])([H])C([H])([H])C([H])([H])C([H])(n5nc(-c6c([H])c([H])c(Oc7c([H])c([H])c(F)c([H])c7F)c([H])c6[H])c(C(=O)N([H])[H])c5N([H])[H])C4([H])[H])c([H])c(C(=O)N([H])[H])c3C(=O)N([H])[H])c([H])c([H])c2C1([H])[H]

>  <smiles>  (70) 
[H]c1c([H])c([H])c2c(c1[H])C([H])([H])C([H])([H])C([H])([H])C2([H])N([H])C(=O)C1([H])N(C(=O)C([H])(N([H])C(=O)C([H])(N([H])C([H])([H])[H])C([H])([H])[H])C(C([H])([H])[H])(C([H])([H])[H])C([H])([H])[H])C([H])([H])c2c([H])c(OC([H])([H])C([H])([H])N([H])c3c([H])c(N([H])C(=O)N4C([H])([H])C([H])([H])C([H])([H])C([H])(n5nc(-c6c([H])c([H])c(Oc7c([H])c([H])c(F)c([H])c7F)c([H])c6[H])c(C(=O)N([H])[H])c5N([H])[H])C4([H])[H])c([H])c(C(=O)N([H])[H])c3C(=O)N([H])[H])c([H])c([H])c2C1([H])[H]

$$$$
70:0:0
     RDKit          3D

 92100  0  0  1  0  0  0  0  0999 V2000
  -28.7230  -21.1390   19.8560 C   0  0  0  0  0  2  0  0  0  0  0  0
  -30.5490  -20.0650   21.3540 C   0  0  0  0  0  3  0  0  0  0  0  0
  -31.2760  -18.9710   21.8730 C   0  0  0  0  0  3  0  0  0  0  0  0
  -29.1890  -18.4770   20.1110 C   0  0  0  0  0  3  0  0  0  0  0  0
  -29.4760  -19.8660   20.4620 C   0  0  0  0  0  0  0  0  0  0  0  0
  -29.9370  -17.3290   20.6160 C   0  0  0  0  0  0  0  0  0  0  0  0
  -30.9790  -17.6350   21.5250 C   0  0  0  0  0  0  0  0  0  0  0  0
  -31.6820  -16.6430   22.1230 F   0  0  0  0  0  0  0  0  0  0  0  0
  -30.4140  -14.7970   20.0800 C   0  0  0  0  0  0  0  0  0  0  0  0
  -30.1720  -12.5730   18.9520 C   0  0  0  0  0  2  0  0  0  0  0  0
  -29.1470  -12.6860   17.8020 C   0  0  0  0  0  2  0  0  0  0  0  0
  -27.7130  -12.4730   18.3250 C   0  0  0  0  0  2  0  0  0  0  0  0
  -27.4160  -13.2990   19.6030 C   0  0  0  0  0  3  0  0  0  0  0  0
  -28.5490  -13.1680   20.6440 C   0  0  0  0  0  2  0  0  0  0  0  0
  -29.7940  -13.5710   19.9780 N   0  0  0  0  0  0  0  0  0  0  0  0
  -31.5820  -14.9200   19.6980 O   0  0  0  0  0  0  0  0  0  0  0  0
  -29.6100  -15.9050   20.3270 N   0  0  0  0  0  0  0  0  0  0  0  0
  -28.6280  -15.6880   20.3530 H   0  0  0  0  0  0  0  0  0  0  0  0
  -25.0690  -13.8310   20.4930 C   0  0  0  0  0  0  0  0  0  0  0  0
  -24.0410  -13.0300   20.9080 C   0  0  0  0  0  0  0  0  0  0  0  0
  -24.5240  -11.6880   20.8140 C   0  0  0  0  0  0  0  0  0  0  0  0
  -26.1100  -12.9760   20.1700 N   0  0  0  0  0  0  0  0  0  0  0  0
  -25.7930  -11.6810   20.4260 N   0  0  0  0  0  0  0  0  0  0  0  0
  -23.8310  -10.4080   21.0120 C   0  0  0  0  0  0  0  0  0  0  0  0
  -24.3120   -9.4420   21.9230 C   0  0  0  0  0  3  0  0  0  0  0  0
  -23.6170   -8.2270   22.1090 C   0  0  0  0  0  3  0  0  0  0  0  0
  -22.4280   -7.9710   21.3870 C   0  0  0  0  0  0  0  0  0  0  0  0
  -21.9660   -8.9260   20.4640 C   0  0  0  0  0  3  0  0  0  0  0  0
  -22.6620  -10.1320   20.2760 C   0  0  0  0  0  3  0  0  0  0  0  0
  -21.7010   -6.8090   21.4860 O   0  0  0  0  0  0  0  0  0  0  0  0
  -21.6890   -6.0620   22.6370 C   0  0  0  0  0  0  0  0  0  0  0  0
  -21.2470   -6.5970   23.8660 C   0  0  0  0  0  3  0  0  0  0  0  0
  -21.1860   -5.7750   25.0100 C   0  0  0  0  0  3  0  0  0  0  0  0
  -21.5560   -4.4200   24.9250 C   0  0  0  0  0  0  0  0  0  0  0  0
  -21.9900   -3.8850   23.6990 C   0  0  0  0  0  3  0  0  0  0  0  0
  -22.0540   -4.7030   22.5580 C   0  0  0  0  0  0  0  0  0  0  0  0
  -22.4530   -4.1780   21.3750 F   0  0  0  0  0  0  0  0  0  0  0  0
  -21.4890   -3.6280   26.0200 F   0  0  0  0  0  0  0  0  0  0  0  0
  -22.6550  -13.4740   21.2760 C   0  0  0  0  0  0  0  0  0  0  0  0
  -21.9890  -12.7380   22.1590 N   0  0  0  0  0  0  0  0  0  0  0  0
  -22.1730  -14.5080   20.8150 O   0  0  0  0  0  0  0  0  0  0  0  0
  -22.3940  -11.9010   22.5520 H   0  0  0  0  0  0  0  0  0  0  0  0
  -21.0610  -13.0160   22.4470 H   0  0  0  0  0  0  0  0  0  0  0  0
  -25.1950  -15.2090   20.3400 N   0  0  0  0  0  0  0  0  0  0  0  0
  -24.4190  -15.8390   20.5110 H   0  0  0  0  0  0  0  0  0  0  0  0
  -25.9940  -15.6740   19.9290 H   0  0  0  0  0  0  0  0  0  0  0  0
  -28.5050  -23.7730   19.9560 C   0  0  0  0  0  0  0  0  0  0  0  0
  -28.7300  -22.5220   20.5230 N   0  0  0  0  0  0  0  0  0  0  0  0
  -28.4830  -23.8930   18.7290 O   0  0  0  0  0  0  0  0  0  0  0  0
  -28.7590  -22.5080   21.5340 H   0  0  0  0  0  0  0  0  0  0  0  0
  -28.1970  -25.0750   20.8460 C   0  0  0  0  0  2  0  0  0  0  0  0
  -28.3500  -26.4470   20.2420 O   0  0  0  0  0  0  0  0  0  0  0  0
  -24.6080  -31.9160   23.2570 C   0  0  0  0  0  0  0  0  0  0  0  0
  -27.2430  -27.3210   20.2390 C   0  0  0  0  0  0  0  0  0  0  0  0
  -23.4180  -30.5110   21.6110 C   0  0  0  0  0  3  0  0  0  0  0  0
  -24.8810  -28.9510   20.2000 C   0  0  0  0  0  0  0  0  0  0  0  0
  -25.9600  -30.8260   21.4440 C   0  0  0  0  0  2  0  0  0  0  0  0
  -26.0490  -29.4410   20.8020 C   0  0  0  0  0  0  0  0  0  0  0  0
  -27.2350  -28.6410   20.8040 C   0  0  0  0  0  3  0  0  0  0  0  0
  -26.0540  -26.8900   19.6170 C   0  0  0  0  0  3  0  0  0  0  0  0
  -24.8890  -27.6820   19.5970 C   0  0  0  0  0  3  0  0  0  0  0  0
  -23.6450  -29.8280   20.2350 C   0  0  0  0  0  2  0  0  0  0  0  0
  -24.6820  -31.1030   22.1610 N   0  0  0  0  0  0  0  0  0  0  0  0
  -23.5200  -32.1930   23.7830 O   0  0  0  0  0  0  0  0  0  0  0  0
  -22.7490  -29.4980   22.5710 C   0  0  0  0  0  0  0  0  0  0  0  0
  -21.4230  -29.3200   22.4380 N   0  0  0  0  0  0  0  0  0  0  0  0
  -23.4220  -28.8740   23.3950 O   0  0  0  0  0  0  0  0  0  0  0  0
  -20.9380  -29.8760   21.7470 H   0  0  0  0  0  0  0  0  0  0  0  0
  -18.0420  -28.1260   22.9280 C   0  0  0  0  0  0  0  0  0  0  0  0
  -20.6010  -28.3820   23.2040 C   0  0  0  0  0  3  0  0  0  0  0  0
  -20.7010  -26.9510   22.6260 C   0  0  0  0  0  2  0  0  0  0  0  0
  -19.6010  -26.6320   21.6090 C   0  0  0  0  0  2  0  0  0  0  0  0
  -18.2190  -26.7780   22.2500 C   0  0  0  0  0  2  0  0  0  0  0  0
  -19.1620  -28.8860   23.3620 C   0  0  0  0  0  0  0  0  0  0  0  0
  -18.9430  -30.1480   23.9570 C   0  0  0  0  0  3  0  0  0  0  0  0
  -17.6390  -30.6510   24.1230 C   0  0  0  0  0  3  0  0  0  0  0  0
  -16.5340  -29.8880   23.7050 C   0  0  0  0  0  3  0  0  0  0  0  0
  -16.7370  -28.6270   23.1130 C   0  0  0  0  0  3  0  0  0  0  0  0
  -25.8840  -32.5540   23.8870 C   0  0  0  0  0  3  0  0  0  0  0  0
  -26.3870  -31.7930   25.1750 C   0  0  1  0  0  0  0  0  0  0  0  0
  -25.2810  -31.5620   26.2310 C   0  0  0  0  0  1  0  0  0  0  0  0
  -26.9770  -30.4130   24.8010 C   0  0  0  0  0  1  0  0  0  0  0  0
  -27.5280  -32.5950   25.8440 C   0  0  0  0  0  1  0  0  0  0  0  0
  -25.5720  -33.9540   24.2040 N   0  0  0  0  0  0  0  0  0  0  0  0
  -25.9040  -35.0020   23.4390 C   0  0  0  0  0  0  0  0  0  0  0  0
  -26.5750  -34.8910   22.4090 O   0  0  0  0  0  0  0  0  0  0  0  0
  -24.9770  -34.1140   25.0040 H   0  0  0  0  0  0  0  0  0  0  0  0
  -24.1860  -36.8010   23.0610 C   0  0  0  0  0  1  0  0  0  0  0  0
  -25.4180  -36.3940   23.8870 C   0  0  0  0  0  3  0  0  0  0  0  0
  -27.5430  -37.2800   24.7410 C   0  0  0  0  0  1  0  0  0  0  0  0
  -26.4540  -37.4440   23.7800 N   0  0  0  0  0  0  0  0  0  0  0  0
  -26.0480  -38.3660   23.9160 H   0  0  0  0  0  0  0  0  0  0  0  0
  1  5  1  0
  1 48  1  0
  2  3  1  0
  4  5  1  0
  4  6  2  0
  5  2  2  0
  6  7  1  0
  7  3  2  0
  7  8  1  0
  9 17  1  0
 10 15  1  0
 11 12  1  0
 11 10  1  0
 13 12  1  0
 13 22  1  0
 13 14  1  0
 15  9  1  0
 15 14  1  0
 16  9  2  0
 17 18  1  0
 17  6  1  0
 19 20  2  0
 20 39  1  0
 21 20  1  0
 21 24  1  0
 22 23  1  0
 22 19  1  0
 23 21  2  0
 24 25  1  0
 25 26  2  0
 27 30  1  0
 27 26  1  0
 28 27  2  0
 29 28  1  0
 29 24  2  0
 30 31  1  0
 31 32  1  0
 32 33  2  0
 34 33  1  0
 34 38  1  0
 35 34  2  0
 36 31  2  0
 36 35  1  0
 37 36  1  0
 39 40  1  0
 40 43  1  0
 40 42  1  0
 41 39  2  0
 44 19  1  0
 44 45  1  0
 46 44  1  0
 47 48  1  0
 47 51  1  0
 48 50  1  0
 49 47  2  0
 52 51  1  0
 53 64  2  0
 54 52  1  0
 54 59  1  0
 55 63  1  0
 55 65  1  0
 56 62  1  0
 56 58  1  0
 57 63  1  0
 58 59  2  0
 58 57  1  0
 60 54  2  0
 61 60  1  0
 61 56  2  0
 62 55  1  0
 63 53  1  0
 65 67  2  0
 66 65  1  0
 68 66  1  0
 69 78  2  0
 69 74  1  0
 70 66  1  0
 70 74  1  0
 71 70  1  0
 72 73  1  0
 72 71  1  0
 73 69  1  0
 74 75  2  0
 75 76  1  0
 77 76  2  0
 78 77  1  0
 79 53  1  0
 79 84  1  0
 79 80  1  0
 80 83  1  1
 80 81  1  0
 82 80  1  0
 84 87  1  0
 85 89  1  0
 85 84  1  0
 86 85  2  0
 89 88  1  0
 91 89  1  0
 91 92  1  0
 91 90  1  0
M  ISO  4   9 100  17 100  51 101  52 101
M  END
>  <TORSDO>  (71) 
F 19

>  <SCORE>  (71) 
-14.222

>  <name>  (71) 
70

>  <ligand_id>  (71) 
70

>  <original_smiles>  (71) 
[H]c1c([H])c([H])c2c(c1[H])C([H])([H])C([H])([H])C([H])([H])C2([H])N([H])C(=O)C1([H])N(C(=O)C([H])(N([H])C(=O)C([H])(N([H])C([H])([H])[H])C([H])([H])[H])C(C([H])([H])[H])(C([H])([H])[H])C([H])([H])[H])C([H])([H])c2c([H])c(OC([H])([H])C(=O)N([H])C([H])([H])c3c([H])c([H])c(F)c(N([H])C(=O)N4C([H])([H])C([H])([H])C([H])([H])C([H])(n5nc(-c6c([H])c([H])c(Oc7c([H])c([H])c(F)c([H])c7F)c([H])c6[H])c(C(=O)N([H])[H])c5N([H])[H])C4([H])[H])c3[H])c([H])c([H])c2C1([H])[H]

>  <smiles>  (71) 
[H]c1c([H])c([H])c2c(c1[H])C([H])([H])C([H])([H])C([H])([H])C2([H])N([H])C(=O)C1([H])N(C(=O)C([H])(N([H])C(=O)C([H])(N([H])C([H])([H])[H])C([H])([H])[H])C(C([H])([H])[H])(C([H])([H])[H])C([H])([H])[H])C([H])([H])c2c([H])c(OC([H])([H])C(=O)N([H])C([H])([H])c3c([H])c([H])c(F)c(N([H])C(=O)N4C([H])([H])C([H])([H])C([H])([H])C([H])(n5nc(-c6c([H])c([H])c(Oc7c([H])c([H])c(F)c([H])c7F)c([H])c6[H])c(C(=O)N([H])[H])c5N([H])[H])C4([H])[H])c3[H])c([H])c([H])c2C1([H])[H]

$$$$
71:0:0
     RDKit          3D

 95103  0  0  1  0  0  0  0  0999 V2000
  -32.1520  -19.0040   20.5920 C   0  0  0  0  0  3  0  0  0  0  0  0
  -31.6960  -17.6770   20.6030 C   0  0  0  0  0  3  0  0  0  0  0  0
  -29.4340  -18.5210   20.7000 C   0  0  0  0  0  3  0  0  0  0  0  0
  -31.2890  -20.1230   20.6410 C   0  0  0  0  0  0  0  0  0  0  0  0
  -30.3210  -17.3580   20.6450 C   0  0  0  0  0  0  0  0  0  0  0  0
  -29.8690  -19.9200   20.6920 C   0  0  0  0  0  0  0  0  0  0  0  0
  -30.5940  -14.7490   20.3650 C   0  0  0  0  0  0  0  0  0  0  0  0
  -30.3260  -12.4930   19.3190 C   0  0  0  0  0  2  0  0  0  0  0  0
  -29.3830  -12.5940   18.1020 C   0  0  0  0  0  2  0  0  0  0  0  0
  -27.9180  -12.4220   18.5470 C   0  0  0  0  0  2  0  0  0  0  0  0
  -27.5630  -13.2920   19.7830 C   0  0  0  0  0  3  0  0  0  0  0  0
  -28.6350  -13.1990   20.8910 C   0  0  0  0  0  2  0  0  0  0  0  0
  -29.9240  -13.5480   20.2840 N   0  0  0  0  0  0  0  0  0  0  0  0
  -31.7700  -14.7830   19.9940 O   0  0  0  0  0  0  0  0  0  0  0  0
  -29.8930  -15.9210   20.6570 N   0  0  0  0  0  0  0  0  0  0  0  0
  -28.9180  -15.7660   20.8650 H   0  0  0  0  0  0  0  0  0  0  0  0
  -25.1820  -13.8660   20.5400 C   0  0  0  0  0  0  0  0  0  0  0  0
  -24.1230  -13.0860   20.9150 C   0  0  0  0  0  0  0  0  0  0  0  0
  -24.5910  -11.7370   20.8750 C   0  0  0  0  0  0  0  0  0  0  0  0
  -26.2270  -12.9930   20.2870 N   0  0  0  0  0  0  0  0  0  0  0  0
  -25.8790  -11.7060   20.5530 N   0  0  0  0  0  0  0  0  0  0  0  0
  -23.8710  -10.4710   21.0670 C   0  0  0  0  0  0  0  0  0  0  0  0
  -24.3220   -9.4960   21.9840 C   0  0  0  0  0  3  0  0  0  0  0  0
  -23.6010   -8.2960   22.1650 C   0  0  0  0  0  3  0  0  0  0  0  0
  -22.4140   -8.0620   21.4300 C   0  0  0  0  0  0  0  0  0  0  0  0
  -21.9820   -9.0260   20.5030 C   0  0  0  0  0  3  0  0  0  0  0  0
  -22.7040  -10.2180   20.3200 C   0  0  0  0  0  3  0  0  0  0  0  0
  -21.6630   -6.9160   21.5220 O   0  0  0  0  0  0  0  0  0  0  0  0
  -21.6440   -6.1570   22.6650 C   0  0  0  0  0  0  0  0  0  0  0  0
  -21.2570   -6.6970   23.9110 C   0  0  0  0  0  3  0  0  0  0  0  0
  -21.1850   -5.8650   25.0470 C   0  0  0  0  0  3  0  0  0  0  0  0
  -21.4890   -4.4940   24.9360 C   0  0  0  0  0  0  0  0  0  0  0  0
  -21.8680   -3.9540   23.6950 C   0  0  0  0  0  3  0  0  0  0  0  0
  -21.9420   -4.7830   22.5620 C   0  0  0  0  0  0  0  0  0  0  0  0
  -22.2880   -4.2540   21.3640 F   0  0  0  0  0  0  0  0  0  0  0  0
  -21.4120   -3.6930   26.0240 F   0  0  0  0  0  0  0  0  0  0  0  0
  -22.7270  -13.5570   21.1990 C   0  0  0  0  0  0  0  0  0  0  0  0
  -22.0080  -12.8570   22.0700 N   0  0  0  0  0  0  0  0  0  0  0  0
  -22.2810  -14.5830   20.6850 O   0  0  0  0  0  0  0  0  0  0  0  0
  -22.3830  -12.0280   22.5070 H   0  0  0  0  0  0  0  0  0  0  0  0
  -21.0720  -13.1540   22.3030 H   0  0  0  0  0  0  0  0  0  0  0  0
  -25.3380  -15.2390   20.3670 N   0  0  0  0  0  0  0  0  0  0  0  0
  -24.5650  -15.8860   20.4810 H   0  0  0  0  0  0  0  0  0  0  0  0
  -26.1730  -15.6810   20.0030 H   0  0  0  0  0  0  0  0  0  0  0  0
  -31.9770  -21.4630   20.7240 C   0  0  0  0  0  0  0  0  0  0  0  0
  -32.8730  -21.7050   19.7720 N   0  0  0  0  0  0  0  0  0  0  0  0
  -31.7530  -22.2730   21.6230 O   0  0  0  0  0  0  0  0  0  0  0  0
  -33.0310  -21.0200   19.0480 H   0  0  0  0  0  0  0  0  0  0  0  0
  -33.3940  -22.5690   19.7610 H   0  0  0  0  0  0  0  0  0  0  0  0
  -28.9210  -21.0270   20.7880 N   0  0  0  0  0  0  0  0  0  0  0  0
  -27.9820  -20.7420   21.0600 H   0  0  0  0  0  0  0  0  0  0  0  0
  -28.9420  -22.3320   20.0030 C   0  0  0  0  0  2  0  0  0  0  0  0
  -28.5190  -23.7360   20.7000 C   0  0  0  0  0  3  0  0  0  0  0  0
  -28.4580  -25.0640   19.7730 C   0  0  0  0  0  3  0  0  0  0  0  0
  -28.3440  -26.4600   20.3060 O   0  0  0  0  0  0  0  0  0  0  0  0
  -24.5980  -31.8900   23.2310 C   0  0  0  0  0  0  0  0  0  0  0  0
  -27.2040  -27.2880   20.2070 C   0  0  0  0  0  0  0  0  0  0  0  0
  -23.3890  -30.4840   21.5980 C   0  0  0  0  0  3  0  0  0  0  0  0
  -24.8350  -28.9180   20.1770 C   0  0  0  0  0  0  0  0  0  0  0  0
  -25.9260  -30.8010   21.3990 C   0  0  0  0  0  2  0  0  0  0  0  0
  -26.0050  -29.4110   20.7670 C   0  0  0  0  0  0  0  0  0  0  0  0
  -27.1850  -28.6070   20.7700 C   0  0  0  0  0  3  0  0  0  0  0  0
  -26.0050  -26.8500   19.5970 C   0  0  0  0  0  3  0  0  0  0  0  0
  -24.8400  -27.6450   19.5810 C   0  0  0  0  0  3  0  0  0  0  0  0
  -23.5980  -29.7940   20.2230 C   0  0  0  0  0  2  0  0  0  0  0  0
  -24.6580  -31.0770   22.1340 N   0  0  0  0  0  0  0  0  0  0  0  0
  -23.5160  -32.1700   23.7680 O   0  0  0  0  0  0  0  0  0  0  0  0
  -22.7250  -29.4770   22.5680 C   0  0  0  0  0  0  0  0  0  0  0  0
  -21.3980  -29.3060   22.4470 N   0  0  0  0  0  0  0  0  0  0  0  0
  -23.4030  -28.8540   23.3880 O   0  0  0  0  0  0  0  0  0  0  0  0
  -20.9100  -29.8610   21.7570 H   0  0  0  0  0  0  0  0  0  0  0  0
  -18.0170  -28.1250   22.9600 C   0  0  0  0  0  0  0  0  0  0  0  0
  -20.5770  -28.3750   23.2230 C   0  0  0  0  0  3  0  0  0  0  0  0
  -20.6710  -26.9420   22.6510 C   0  0  0  0  0  2  0  0  0  0  0  0
  -19.5650  -26.6230   21.6410 C   0  0  0  0  0  2  0  0  0  0  0  0
  -18.1860  -26.7740   22.2860 C   0  0  0  0  0  2  0  0  0  0  0  0
  -19.1400  -28.8850   23.3850 C   0  0  0  0  0  0  0  0  0  0  0  0
  -18.9280  -30.1490   23.9750 C   0  0  0  0  0  3  0  0  0  0  0  0
  -17.6250  -30.6540   24.1460 C   0  0  0  0  0  3  0  0  0  0  0  0
  -16.5170  -29.8940   23.7360 C   0  0  0  0  0  3  0  0  0  0  0  0
  -16.7140  -28.6310   23.1490 C   0  0  0  0  0  3  0  0  0  0  0  0
  -25.8820  -32.5220   23.8500 C   0  0  0  0  0  3  0  0  0  0  0  0
  -25.5730  -33.9220   24.1810 N   0  0  0  0  0  0  0  0  0  0  0  0
  -25.9060  -34.9760   23.4220 C   0  0  0  0  0  0  0  0  0  0  0  0
  -26.5750  -34.8690   22.3910 O   0  0  0  0  0  0  0  0  0  0  0  0
  -24.9810  -34.0780   24.9830 H   0  0  0  0  0  0  0  0  0  0  0  0
  -24.1790  -36.7710   23.0720 C   0  0  0  0  0  1  0  0  0  0  0  0
  -25.4210  -36.3650   23.8800 C   0  0  0  0  0  3  0  0  0  0  0  0
  -27.5620  -37.2460   24.7020 C   0  0  0  0  0  1  0  0  0  0  0  0
  -26.4550  -37.4170   23.7650 N   0  0  0  0  0  0  0  0  0  0  0  0
  -26.0510  -38.3370   23.9160 H   0  0  0  0  0  0  0  0  0  0  0  0
  -26.4000  -31.7510   25.1260 C   0  0  1  0  0  0  0  0  0  0  0  0
  -25.3100  -31.5210   26.1980 C   0  0  0  0  0  1  0  0  0  0  0  0
  -26.9740  -30.3710   24.7310 C   0  0  0  0  0  1  0  0  0  0  0  0
  -27.5560  -32.5420   25.7820 C   0  0  0  0  0  1  0  0  0  0  0  0
  1  2  2  0
  1  4  1  0
  2  5  1  0
  4  6  2  0
  4 45  1  0
  5 15  1  0
  5  3  2  0
  6  3  1  0
  6 50  1  0
  7 15  1  0
  8 13  1  0
  9 10  1  0
  9  8  1  0
 11 10  1  0
 11 20  1  0
 11 12  1  0
 13  7  1  0
 13 12  1  0
 14  7  2  0
 15 16  1  0
 17 18  2  0
 18 37  1  0
 19 18  1  0
 19 22  1  0
 20 17  1  0
 20 21  1  0
 21 19  2  0
 22 23  1  0
 23 24  2  0
 25 28  1  0
 25 24  1  0
 26 25  2  0
 27 26  1  0
 27 22  2  0
 28 29  1  0
 29 30  1  0
 30 31  2  0
 32 31  1  0
 32 36  1  0
 33 32  2  0
 34 29  2  0
 34 33  1  0
 35 34  1  0
 37 38  1  0
 38 41  1  0
 38 40  1  0
 39 37  2  0
 42 43  1  0
 42 17  1  0
 44 42  1  0
 45 47  2  0
 46 45  1  0
 48 46  1  0
 49 46  1  0
 50 51  1  0
 52 53  1  0
 52 50  1  0
 54 55  1  0
 54 53  2  0
 56 67  2  0
 57 55  1  0
 57 62  1  0
 58 66  1  0
 58 68  1  0
 59 65  1  0
 59 61  1  0
 60 66  1  0
 61 62  2  0
 61 60  1  0
 63 57  2  0
 64 63  1  0
 64 59  2  0
 65 58  1  0
 66 56  1  0
 68 70  2  0
 69 68  1  0
 71 69  1  0
 72 81  2  0
 72 77  1  0
 73 69  1  0
 73 77  1  0
 74 73  1  0
 75 76  1  0
 75 74  1  0
 76 72  1  0
 77 78  2  0
 78 79  1  0
 80 79  2  0
 81 80  1  0
 82 56  1  0
 82 83  1  0
 82 92  1  0
 83 86  1  0
 84 88  1  0
 84 83  1  0
 85 84  2  0
 88 87  1  0
 90 88  1  0
 90 91  1  0
 90 89  1  0
 92 95  1  1
 92 93  1  0
 94 92  1  0
M  ISO  4   7 100  15 100  54 101  55 101
M  END
>  <TORSDO>  (72) 
F 21

>  <SCORE>  (72) 
-13.649

>  <name>  (72) 
71

>  <ligand_id>  (72) 
71

>  <original_smiles>  (72) 
[H]c1c([H])c([H])c2c(c1[H])C([H])([H])C([H])([H])C([H])([H])C2([H])N([H])C(=O)C1([H])N(C(=O)C([H])(N([H])C(=O)C([H])(N([H])C([H])([H])[H])C([H])([H])[H])C(C([H])([H])[H])(C([H])([H])[H])C([H])([H])[H])C([H])([H])c2c([H])c(OC([H])([H])C([H])([H])C([H])([H])N([H])c3c([H])c(N([H])C(=O)N4C([H])([H])C([H])([H])C([H])([H])C([H])(n5nc(-c6c([H])c([H])c(Oc7c([H])c([H])c(F)c([H])c7F)c([H])c6[H])c(C(=O)N([H])[H])c5N([H])[H])C4([H])[H])c([H])c([H])c3C(=O)N([H])[H])c([H])c([H])c2C1([H])[H]

>  <smiles>  (72) 
[H]c1c([H])c([H])c2c(c1[H])C([H])([H])C([H])([H])C([H])([H])C2([H])N([H])C(=O)C1([H])N(C(=O)C([H])(N([H])C(=O)C([H])(N([H])C([H])([H])[H])C([H])([H])[H])C(C([H])([H])[H])(C([H])([H])[H])C([H])([H])[H])C([H])([H])c2c([H])c(OC([H])([H])C([H])([H])C([H])([H])N([H])c3c([H])c(N([H])C(=O)N4C([H])([H])C([H])([H])C([H])([H])C([H])(n5nc(-c6c([H])c([H])c(Oc7c([H])c([H])c(F)c([H])c7F)c([H])c6[H])c(C(=O)N([H])[H])c5N([H])[H])C4([H])[H])c([H])c([H])c3C(=O)N([H])[H])c([H])c([H])c2C1([H])[H]

$$$$
72:0:0
     RDKit          3D

 91 99  0  0  1  0  0  0  0  0999 V2000
  -28.9840  -23.4060   20.2160 C   0  0  0  0  0  0  0  0  0  0  0  0
  -28.5330  -22.0740   20.0580 N   0  0  0  0  0  0  0  0  0  0  0  0
  -30.1440  -23.6320   20.5700 O   0  0  0  0  0  0  0  0  0  0  0  0
  -27.5480  -22.0810   19.8230 H   0  0  0  0  0  0  0  0  0  0  0  0
  -30.6150  -18.6040   20.2960 C   0  0  0  0  0  3  0  0  0  0  0  0
  -30.3410  -20.0470   20.2500 C   0  0  0  0  0  3  0  0  0  0  0  0
  -28.2990  -18.1820   20.2110 C   0  0  0  0  0  3  0  0  0  0  0  0
  -29.5970  -17.5800   20.2820 C   0  0  0  0  0  0  0  0  0  0  0  0
  -29.0190  -20.6250   20.1720 C   0  0  0  0  0  0  0  0  0  0  0  0
  -28.0240  -19.5980   20.1470 C   0  0  0  0  0  0  0  0  0  0  0  0
  -26.7300  -19.9890   20.0570 F   0  0  0  0  0  0  0  0  0  0  0  0
  -30.5510  -14.9620   20.1150 C   0  0  0  0  0  0  0  0  0  0  0  0
  -30.4380  -12.6340   19.1180 C   0  0  0  0  0  2  0  0  0  0  0  0
  -29.4590  -12.6410   17.9190 C   0  0  0  0  0  2  0  0  0  0  0  0
  -28.0060  -12.4260   18.3900 C   0  0  0  0  0  2  0  0  0  0  0  0
  -27.6440  -13.3100   19.6110 C   0  0  0  0  0  3  0  0  0  0  0  0
  -28.7370  -13.2580   20.7010 C   0  0  0  0  0  2  0  0  0  0  0  0
  -29.9960  -13.6850   20.0730 N   0  0  0  0  0  0  0  0  0  0  0  0
  -31.7310  -15.0980   19.7720 O   0  0  0  0  0  0  0  0  0  0  0  0
  -29.6790  -16.0480   20.3690 N   0  0  0  0  0  0  0  0  0  0  0  0
  -28.7830  -15.6540   20.6080 H   0  0  0  0  0  0  0  0  0  0  0  0
  -25.2800  -13.8790   20.4200 C   0  0  0  0  0  0  0  0  0  0  0  0
  -24.2290  -13.0980   20.8130 C   0  0  0  0  0  0  0  0  0  0  0  0
  -24.6940  -11.7480   20.7490 C   0  0  0  0  0  0  0  0  0  0  0  0
  -26.3180  -13.0050   20.1380 N   0  0  0  0  0  0  0  0  0  0  0  0
  -25.9750  -11.7180   20.4010 N   0  0  0  0  0  0  0  0  0  0  0  0
  -23.9740  -10.4820   20.9410 C   0  0  0  0  0  0  0  0  0  0  0  0
  -24.4040   -9.5240   21.8840 C   0  0  0  0  0  3  0  0  0  0  0  0
  -23.6830   -8.3230   22.0640 C   0  0  0  0  0  3  0  0  0  0  0  0
  -22.5180   -8.0720   21.3000 C   0  0  0  0  0  0  0  0  0  0  0  0
  -22.1080   -9.0210   20.3460 C   0  0  0  0  0  3  0  0  0  0  0  0
  -22.8300  -10.2120   20.1650 C   0  0  0  0  0  3  0  0  0  0  0  0
  -21.7710   -6.9240   21.3890 O   0  0  0  0  0  0  0  0  0  0  0  0
  -21.6710   -6.2170   22.5600 C   0  0  0  0  0  0  0  0  0  0  0  0
  -21.1670   -6.8020   23.7430 C   0  0  0  0  0  3  0  0  0  0  0  0
  -21.0170   -6.0230   24.9060 C   0  0  0  0  0  3  0  0  0  0  0  0
  -21.3610   -4.6570   24.8890 C   0  0  0  0  0  0  0  0  0  0  0  0
  -21.8590   -4.0710   23.7110 C   0  0  0  0  0  3  0  0  0  0  0  0
  -22.0100   -4.8490   22.5500 C   0  0  0  0  0  0  0  0  0  0  0  0
  -22.4700   -4.2740   21.4130 F   0  0  0  0  0  0  0  0  0  0  0  0
  -21.2100   -3.9060   26.0050 F   0  0  0  0  0  0  0  0  0  0  0  0
  -22.8380  -13.5690   21.1280 C   0  0  0  0  0  0  0  0  0  0  0  0
  -22.1370  -12.8660   22.0090 N   0  0  0  0  0  0  0  0  0  0  0  0
  -22.3840  -14.5970   20.6260 O   0  0  0  0  0  0  0  0  0  0  0  0
  -22.5180  -12.0350   22.4370 H   0  0  0  0  0  0  0  0  0  0  0  0
  -21.2060  -13.1640   22.2620 H   0  0  0  0  0  0  0  0  0  0  0  0
  -25.4330  -15.2520   20.2490 N   0  0  0  0  0  0  0  0  0  0  0  0
  -24.6480  -15.8850   20.3550 H   0  0  0  0  0  0  0  0  0  0  0  0
  -26.2200  -15.6750   19.7760 H   0  0  0  0  0  0  0  0  0  0  0  0
  -27.9800  -24.6920   19.9200 C   0  0  0  0  0  2  0  0  0  0  0  0
  -28.3120  -26.1880   20.1970 O   0  0  0  0  0  0  0  0  0  0  0  0
  -24.6660  -31.8440   23.2340 C   0  0  0  0  0  0  0  0  0  0  0  0
  -27.2610  -27.1790   20.1420 C   0  0  0  0  0  0  0  0  0  0  0  0
  -23.4720  -30.4670   21.5760 C   0  0  0  0  0  3  0  0  0  0  0  0
  -24.9260  -28.9180   20.1340 C   0  0  0  0  0  0  0  0  0  0  0  0
  -26.0270  -30.7400   21.4210 C   0  0  0  0  0  2  0  0  0  0  0  0
  -26.1060  -29.3580   20.7490 C   0  0  0  0  0  0  0  0  0  0  0  0
  -27.2740  -28.5040   20.7380 C   0  0  0  0  0  3  0  0  0  0  0  0
  -26.0520  -26.8450   19.4880 C   0  0  0  0  0  3  0  0  0  0  0  0
  -24.9120  -27.6740   19.4900 C   0  0  0  0  0  3  0  0  0  0  0  0
  -23.6970  -29.8110   20.1890 C   0  0  0  0  0  2  0  0  0  0  0  0
  -24.7420  -31.0380   22.1320 N   0  0  0  0  0  0  0  0  0  0  0  0
  -23.5780  -32.1210   23.7620 O   0  0  0  0  0  0  0  0  0  0  0  0
  -22.7940  -29.4450   22.5230 C   0  0  0  0  0  0  0  0  0  0  0  0
  -21.4650  -29.2810   22.3990 N   0  0  0  0  0  0  0  0  0  0  0  0
  -23.4660  -28.8030   23.3340 O   0  0  0  0  0  0  0  0  0  0  0  0
  -20.9790  -29.8510   21.7200 H   0  0  0  0  0  0  0  0  0  0  0  0
  -18.0770  -28.1010   22.9080 C   0  0  0  0  0  0  0  0  0  0  0  0
  -20.6410  -28.3360   23.1580 C   0  0  0  0  0  3  0  0  0  0  0  0
  -20.7240  -26.9140   22.5550 C   0  0  0  0  0  2  0  0  0  0  0  0
  -19.6100  -26.6210   21.5450 C   0  0  0  0  0  2  0  0  0  0  0  0
  -18.2360  -26.7640   22.2040 C   0  0  0  0  0  2  0  0  0  0  0  0
  -19.2060  -28.8470   23.3430 C   0  0  0  0  0  0  0  0  0  0  0  0
  -19.0010  -30.0970   23.9630 C   0  0  0  0  0  3  0  0  0  0  0  0
  -17.7010  -30.6040   24.1540 C   0  0  0  0  0  3  0  0  0  0  0  0
  -16.5880  -29.8560   23.7330 C   0  0  0  0  0  3  0  0  0  0  0  0
  -16.7770  -28.6060   23.1170 C   0  0  0  0  0  3  0  0  0  0  0  0
  -25.9420  -32.4740   23.8720 C   0  0  0  0  0  3  0  0  0  0  0  0
  -25.6290  -33.8700   24.2110 N   0  0  0  0  0  0  0  0  0  0  0  0
  -25.9410  -34.9310   23.4540 C   0  0  0  0  0  0  0  0  0  0  0  0
  -26.5900  -34.8350   22.4080 O   0  0  0  0  0  0  0  0  0  0  0  0
  -25.0490  -34.0180   25.0240 H   0  0  0  0  0  0  0  0  0  0  0  0
  -24.1860  -36.7120   23.1640 C   0  0  0  0  0  1  0  0  0  0  0  0
  -25.4600  -36.3150   23.9290 C   0  0  0  0  0  3  0  0  0  0  0  0
  -27.6110  -37.2250   24.6860 C   0  0  0  0  0  1  0  0  0  0  0  0
  -26.4790  -37.3770   23.7770 N   0  0  0  0  0  0  0  0  0  0  0  0
  -26.0690  -38.2950   23.9310 H   0  0  0  0  0  0  0  0  0  0  0  0
  -26.4440  -31.6960   25.1500 C   0  0  1  0  0  0  0  0  0  0  0  0
  -25.3410  -31.4590   26.2070 C   0  0  0  0  0  1  0  0  0  0  0  0
  -27.0260  -30.3170   24.7630 C   0  0  0  0  0  1  0  0  0  0  0  0
  -27.5910  -32.4850   25.8250 C   0  0  0  0  0  1  0  0  0  0  0  0
  1  3  2  0
  2  9  1  0
  2  1  1  0
  4  2  1  0
  6  5  2  0
  7  8  2  0
  8  5  1  0
  8 20  1  0
  9  6  1  0
 10  9  2  0
 10  7  1  0
 11 10  1  0
 12 20  1  0
 13 18  1  0
 14 15  1  0
 14 13  1  0
 16 15  1  0
 16 25  1  0
 16 17  1  0
 18 12  1  0
 18 17  1  0
 19 12  2  0
 20 21  1  0
 22 23  2  0
 23 42  1  0
 24 23  1  0
 24 27  1  0
 25 26  1  0
 25 22  1  0
 26 24  2  0
 27 28  1  0
 28 29  2  0
 30 33  1  0
 30 29  1  0
 31 30  2  0
 32 31  1  0
 32 27  2  0
 33 34  1  0
 34 35  1  0
 35 36  2  0
 37 36  1  0
 37 41  1  0
 38 37  2  0
 39 34  2  0
 39 38  1  0
 40 39  1  0
 42 43  1  0
 43 46  1  0
 43 45  1  0
 44 42  2  0
 47 48  1  0
 47 22  1  0
 49 47  1  0
 50 51  1  0
 50  1  1  0
 52 63  2  0
 53 51  1  0
 53 58  1  0
 54 62  1  0
 54 64  1  0
 55 61  1  0
 55 57  1  0
 56 62  1  0
 57 56  1  0
 58 57  2  0
 59 60  1  0
 59 53  2  0
 60 55  2  0
 61 54  1  0
 62 52  1  0
 64 66  2  0
 65 64  1  0
 67 65  1  0
 68 77  2  0
 68 73  1  0
 69 65  1  0
 69 73  1  0
 70 69  1  0
 71 72  1  0
 71 70  1  0
 72 68  1  0
 73 74  2  0
 74 75  1  0
 76 75  2  0
 77 76  1  0
 78 52  1  0
 78 79  1  0
 78 88  1  0
 79 82  1  0
 80 84  1  0
 80 79  1  0
 81 80  2  0
 84 83  1  0
 86 84  1  0
 86 87  1  0
 86 85  1  0
 88 91  1  1
 88 89  1  0
 90 88  1  0
M  ISO  4  12 100  20 100  50 101  51 101
M  END
>  <TORSDO>  (73) 
F 18

>  <SCORE>  (73) 
-14.264

>  <name>  (73) 
72

>  <ligand_id>  (73) 
72

>  <original_smiles>  (73) 
[H]c1c([H])c([H])c2c(c1[H])C([H])([H])C([H])([H])C([H])([H])C2([H])N([H])C(=O)C1([H])N(C(=O)C([H])(N([H])C(=O)C([H])(N([H])C([H])([H])[H])C([H])([H])[H])C(C([H])([H])[H])(C([H])([H])[H])C([H])([H])[H])C([H])([H])c2c([H])c(OC([H])([H])C(=O)N([H])c3c([H])c([H])c(N([H])C(=O)N4C([H])([H])C([H])([H])C([H])([H])C([H])(n5nc(-c6c([H])c([H])c(Oc7c([H])c([H])c(F)c([H])c7F)c([H])c6[H])c(C(=O)N([H])[H])c5N([H])[H])C4([H])[H])c([H])c3F)c([H])c([H])c2C1([H])[H]

>  <smiles>  (73) 
[H]c1c([H])c([H])c2c(c1[H])C([H])([H])C([H])([H])C([H])([H])C2([H])N([H])C(=O)C1([H])N(C(=O)C([H])(N([H])C(=O)C([H])(N([H])C([H])([H])[H])C([H])([H])[H])C(C([H])([H])[H])(C([H])([H])[H])C([H])([H])[H])C([H])([H])c2c([H])c(OC([H])([H])C(=O)N([H])c3c([H])c([H])c(N([H])C(=O)N4C([H])([H])C([H])([H])C([H])([H])C([H])(n5nc(-c6c([H])c([H])c(Oc7c([H])c([H])c(F)c([H])c7F)c([H])c6[H])c(C(=O)N([H])[H])c5N([H])[H])C4([H])[H])c([H])c3F)c([H])c([H])c2C1([H])[H]

$$$$
73:0:0
     RDKit          3D

 92100  0  0  1  0  0  0  0  0999 V2000
  -29.4740  -21.6730   20.4090 C   0  0  0  0  0  3  0  0  0  0  0  0
  -30.4460  -23.1100   18.6170 C   0  0  0  0  0  1  0  0  0  0  0  0
  -29.2930  -22.9000   19.5340 N   0  0  2  0  0  4  0  0  0  0  0  0
  -28.4990  -22.7010   18.9400 H   0  0  0  0  0  0  0  0  0  0  0  0
  -28.9400  -24.1610   20.3030 C   0  0  0  0  0  3  0  0  0  0  0  0
  -28.6220  -25.4460   19.4430 C   0  0  0  0  0  3  0  0  0  0  0  0
  -28.4100  -26.6710   20.2000 O   0  0  0  0  0  0  0  0  0  0  0  0
  -24.6090  -31.8960   23.2430 C   0  0  0  0  0  0  0  0  0  0  0  0
  -27.2220  -27.3970   20.1560 C   0  0  0  0  0  0  0  0  0  0  0  0
  -23.3900  -30.4960   21.6110 C   0  0  0  0  0  3  0  0  0  0  0  0
  -24.8290  -28.9450   20.1820 C   0  0  0  0  0  0  0  0  0  0  0  0
  -25.9190  -30.8310   21.4030 C   0  0  0  0  0  2  0  0  0  0  0  0
  -25.9950  -29.4560   20.7610 C   0  0  0  0  0  0  0  0  0  0  0  0
  -27.1870  -28.6900   20.7450 C   0  0  0  0  0  3  0  0  0  0  0  0
  -26.0230  -26.9040   19.5860 C   0  0  0  0  0  3  0  0  0  0  0  0
  -24.8390  -27.6690   19.5950 C   0  0  0  0  0  3  0  0  0  0  0  0
  -23.5890  -29.8120   20.2320 C   0  0  0  0  0  2  0  0  0  0  0  0
  -24.6580  -31.0910   22.1430 N   0  0  0  0  0  0  0  0  0  0  0  0
  -23.5310  -32.1750   23.7870 O   0  0  0  0  0  0  0  0  0  0  0  0
  -22.7370  -29.4800   22.5790 C   0  0  0  0  0  0  0  0  0  0  0  0
  -21.4120  -29.3020   22.4570 N   0  0  0  0  0  0  0  0  0  0  0  0
  -23.4220  -28.8570   23.3940 O   0  0  0  0  0  0  0  0  0  0  0  0
  -20.9210  -29.8580   21.7700 H   0  0  0  0  0  0  0  0  0  0  0  0
  -18.0390  -28.1040   22.9620 C   0  0  0  0  0  0  0  0  0  0  0  0
  -20.5960  -28.3690   23.2350 C   0  0  0  0  0  3  0  0  0  0  0  0
  -20.7020  -26.9330   22.6690 C   0  0  0  0  0  2  0  0  0  0  0  0
  -19.6010  -26.6010   21.6570 C   0  0  0  0  0  2  0  0  0  0  0  0
  -18.2180  -26.7490   22.2990 C   0  0  0  0  0  2  0  0  0  0  0  0
  -19.1560  -28.8700   23.3880 C   0  0  0  0  0  0  0  0  0  0  0  0
  -18.9350  -30.1380   23.9670 C   0  0  0  0  0  3  0  0  0  0  0  0
  -17.6290  -30.6390   24.1280 C   0  0  0  0  0  3  0  0  0  0  0  0
  -16.5260  -29.8700   23.7170 C   0  0  0  0  0  3  0  0  0  0  0  0
  -16.7320  -28.6040   23.1400 C   0  0  0  0  0  3  0  0  0  0  0  0
  -25.8990  -32.5240   23.8550 C   0  0  0  0  0  3  0  0  0  0  0  0
  -25.5930  -33.9210   24.1930 N   0  0  0  0  0  0  0  0  0  0  0  0
  -25.9190  -34.9770   23.4350 C   0  0  0  0  0  0  0  0  0  0  0  0
  -26.5790  -34.8770   22.3970 O   0  0  0  0  0  0  0  0  0  0  0  0
  -25.0040  -34.0720   24.9980 H   0  0  0  0  0  0  0  0  0  0  0  0
  -24.1830  -36.7680   23.1060 C   0  0  0  0  0  1  0  0  0  0  0  0
  -25.4350  -36.3640   23.9000 C   0  0  0  0  0  3  0  0  0  0  0  0
  -27.5820  -37.2470   24.7030 C   0  0  0  0  0  1  0  0  0  0  0  0
  -26.4640  -37.4190   23.7780 N   0  0  0  0  0  0  0  0  0  0  0  0
  -26.0590  -38.3370   23.9370 H   0  0  0  0  0  0  0  0  0  0  0  0
  -26.4280  -31.7470   25.1220 C   0  0  1  0  0  0  0  0  0  0  0  0
  -25.3480  -31.5080   26.2020 C   0  0  0  0  0  1  0  0  0  0  0  0
  -27.0050  -30.3690   24.7190 C   0  0  0  0  0  1  0  0  0  0  0  0
  -27.5840  -32.5390   25.7760 C   0  0  0  0  0  1  0  0  0  0  0  0
  -29.7840  -20.3170   19.6600 C   0  0  0  0  0  3  0  0  0  0  0  0
  -29.3850  -17.9510   20.5290 C   0  0  0  0  0  0  0  0  0  0  0  0
  -31.5440  -17.4840   21.4710 C   0  0  0  0  0  2  0  0  0  0  0  0
  -31.3450  -18.9930   21.1910 C   0  0  0  0  0  2  0  0  0  0  0  0
  -30.1200  -16.9240   21.3960 C   0  0  0  0  0  3  0  0  0  0  0  0
  -30.0500  -19.1280   20.5150 N   0  0  0  0  0  0  0  0  0  0  0  0
  -28.3380  -17.6920   19.9300 O   0  0  0  0  0  0  0  0  0  0  0  0
  -30.6200  -14.5270   20.4730 C   0  0  0  0  0  0  0  0  0  0  0  0
  -30.3490  -12.3740   19.2720 C   0  0  0  0  0  2  0  0  0  0  0  0
  -29.3860  -12.5740   18.0840 C   0  0  0  0  0  2  0  0  0  0  0  0
  -27.9140  -12.4360   18.5260 C   0  0  0  0  0  2  0  0  0  0  0  0
  -27.5930  -13.2440   19.8120 C   0  0  0  0  0  3  0  0  0  0  0  0
  -28.6620  -12.9920   20.8980 C   0  0  0  0  0  2  0  0  0  0  0  0
  -29.9750  -13.3350   20.3240 N   0  0  0  0  0  0  0  0  0  0  0  0
  -31.7200  -14.7480   19.9600 O   0  0  0  0  0  0  0  0  0  0  0  0
  -29.9140  -15.4730   21.1320 N   0  0  0  0  0  0  0  0  0  0  0  0
  -29.0230  -15.1320   21.4600 H   0  0  0  0  0  0  0  0  0  0  0  0
  -25.2000  -13.8460   20.5360 C   0  0  0  0  0  0  0  0  0  0  0  0
  -24.1360  -13.0730   20.9140 C   0  0  0  0  0  0  0  0  0  0  0  0
  -24.5970  -11.7210   20.8800 C   0  0  0  0  0  0  0  0  0  0  0  0
  -26.2440  -12.9660   20.2980 N   0  0  0  0  0  0  0  0  0  0  0  0
  -25.8840  -11.6810   20.5600 N   0  0  0  0  0  0  0  0  0  0  0  0
  -23.8720  -10.4590   21.0770 C   0  0  0  0  0  0  0  0  0  0  0  0
  -24.3290   -9.4800   21.9860 C   0  0  0  0  0  3  0  0  0  0  0  0
  -23.6070   -8.2820   22.1730 C   0  0  0  0  0  3  0  0  0  0  0  0
  -22.4130   -8.0550   21.4490 C   0  0  0  0  0  0  0  0  0  0  0  0
  -21.9710   -9.0230   20.5290 C   0  0  0  0  0  3  0  0  0  0  0  0
  -22.6960  -10.2130   20.3400 C   0  0  0  0  0  3  0  0  0  0  0  0
  -21.6580   -6.9100   21.5470 O   0  0  0  0  0  0  0  0  0  0  0  0
  -21.6580   -6.1420   22.6820 C   0  0  0  0  0  0  0  0  0  0  0  0
  -21.3100   -6.6740   23.9420 C   0  0  0  0  0  3  0  0  0  0  0  0
  -21.2590   -5.8330   25.0720 C   0  0  0  0  0  3  0  0  0  0  0  0
  -21.5420   -4.4600   24.9420 C   0  0  0  0  0  0  0  0  0  0  0  0
  -21.8830   -3.9270   23.6860 C   0  0  0  0  0  3  0  0  0  0  0  0
  -21.9370   -4.7650   22.5600 C   0  0  0  0  0  0  0  0  0  0  0  0
  -22.2450   -4.2430   21.3480 F   0  0  0  0  0  0  0  0  0  0  0  0
  -21.4830   -3.6500   26.0250 F   0  0  0  0  0  0  0  0  0  0  0  0
  -22.7410  -13.5490   21.2000 C   0  0  0  0  0  0  0  0  0  0  0  0
  -22.0240  -12.8530   22.0750 N   0  0  0  0  0  0  0  0  0  0  0  0
  -22.2960  -14.5730   20.6840 O   0  0  0  0  0  0  0  0  0  0  0  0
  -22.3970  -12.0270   22.5190 H   0  0  0  0  0  0  0  0  0  0  0  0
  -21.0850  -13.1510   22.3050 H   0  0  0  0  0  0  0  0  0  0  0  0
  -25.3620  -15.2170   20.3570 N   0  0  0  0  0  0  0  0  0  0  0  0
  -24.5930  -15.8680   20.4700 H   0  0  0  0  0  0  0  0  0  0  0  0
  -26.2060  -15.6610   20.0140 H   0  0  0  0  0  0  0  0  0  0  0  0
  2  3  1  0
  3  5  1  0
  3  1  1  0
  3  4  1  6
  6  7  1  0
  6  5  2  0
  8 19  2  0
  9  7  1  0
  9 14  1  0
 10 18  1  0
 10 20  1  0
 11 17  1  0
 11 13  1  0
 12 18  1  0
 13 12  1  0
 14 13  2  0
 15 16  1  0
 15  9  2  0
 16 11  2  0
 17 10  1  0
 18  8  1  0
 20 22  2  0
 21 20  1  0
 23 21  1  0
 24 33  2  0
 24 29  1  0
 25 21  1  0
 25 29  1  0
 26 25  1  0
 27 28  1  0
 27 26  1  0
 28 24  1  0
 29 30  2  0
 30 31  1  0
 32 31  2  0
 33 32  1  0
 34  8  1  0
 34 35  1  0
 34 44  1  0
 35 38  1  0
 36 40  1  0
 36 35  1  0
 37 36  2  0
 40 39  1  0
 42 40  1  0
 42 43  1  0
 42 41  1  0
 44 47  1  1
 44 45  1  0
 46 44  1  0
 48  1  2  0
 48 53  1  0
 49 52  1  0
 51 50  1  0
 52 63  1  0
 52 50  1  0
 53 49  1  0
 53 51  1  0
 54 49  2  0
 55 63  1  0
 56 61  1  0
 57 58  1  0
 57 56  1  0
 59 58  1  0
 59 68  1  0
 59 60  1  0
 61 55  1  0
 61 60  1  0
 62 55  2  0
 63 64  1  0
 65 66  2  0
 66 85  1  0
 67 66  1  0
 67 70  1  0
 68 65  1  0
 68 69  1  0
 69 67  2  0
 70 71  1  0
 71 72  2  0
 73 76  1  0
 73 72  1  0
 74 73  2  0
 75 74  1  0
 75 70  2  0
 76 77  1  0
 77 78  1  0
 78 79  2  0
 80 79  1  0
 80 84  1  0
 81 80  2  0
 82 77  2  0
 82 81  1  0
 83 82  1  0
 85 86  1  0
 86 89  1  0
 86 88  1  0
 87 85  2  0
 90 91  1  0
 90 65  1  0
 92 90  1  0
M  ISO  4   6 101   7 101  55 100  63 100
M  END
>  <TORSDO>  (74) 
F 21

>  <SCORE>  (74) 
-13.634

>  <name>  (74) 
73

>  <ligand_id>  (74) 
73

>  <original_smiles>  (74) 
[H]c1c([H])c([H])c2c(c1[H])C([H])([H])C([H])([H])C([H])([H])C2([H])N([H])C(=O)C1([H])N(C(=O)C([H])(N([H])C(=O)C([H])(N([H])C([H])([H])[H])C([H])([H])[H])C(C([H])([H])[H])(C([H])([H])[H])C([H])([H])[H])C([H])([H])c2c([H])c(OC([H])([H])C([H])([H])[N+]([H])(C([H])([H])[H])C([H])([H])C([H])([H])N3C(=O)C([H])(N([H])C(=O)N4C([H])([H])C([H])([H])C([H])([H])C([H])(n5nc(-c6c([H])c([H])c(Oc7c([H])c([H])c(F)c([H])c7F)c([H])c6[H])c(C(=O)N([H])[H])c5N([H])[H])C4([H])[H])C([H])([H])C3([H])[H])c([H])c([H])c2C1([H])[H]

>  <smiles>  (74) 
[H]c1c([H])c([H])c2c(c1[H])C([H])([H])C([H])([H])C([H])([H])C2([H])N([H])C(=O)C1([H])N(C(=O)C([H])(N([H])C(=O)C([H])(N([H])C([H])([H])[H])C([H])([H])[H])C(C([H])([H])[H])(C([H])([H])[H])C([H])([H])[H])C([H])([H])c2c([H])c(OC([H])([H])C([H])([H])[N+]([H])(C([H])([H])[H])C([H])([H])C([H])([H])N3C(=O)C([H])(N([H])C(=O)N4C([H])([H])C([H])([H])C([H])([H])C([H])(n5nc(-c6c([H])c([H])c(Oc7c([H])c([H])c(F)c([H])c7F)c([H])c6[H])c(C(=O)N([H])[H])c5N([H])[H])C4([H])[H])C([H])([H])C3([H])[H])c([H])c([H])c2C1([H])[H]

$$$$
74:0:0
     RDKit          3D

 96104  0  0  1  0  0  0  0  0999 V2000
  -29.0530  -22.3690   20.5050 C   0  0  0  0  0  2  0  0  0  0  0  0
  -27.2670  -20.7450   19.9590 C   0  0  0  0  0  1  0  0  0  0  0  0
  -28.6970  -21.0200   19.8660 N   0  0  0  0  0  0  0  0  0  0  0  0
  -29.4900  -19.6950   19.7650 C   0  0  0  0  0  2  0  0  0  0  0  0
  -30.8950  -16.9440   22.3310 C   0  0  0  0  0  3  0  0  0  0  0  0
  -31.3160  -17.8400   23.3280 C   0  0  0  0  0  3  0  0  0  0  0  0
  -30.3500  -19.6550   22.0730 C   0  0  0  0  0  3  0  0  0  0  0  0
  -29.9500  -18.8140   21.0030 C   0  0  0  0  0  0  0  0  0  0  0  0
  -30.2020  -17.3440   21.1490 C   0  0  0  0  0  0  0  0  0  0  0  0
  -31.0200  -19.1970   23.2110 C   0  0  0  0  0  0  0  0  0  0  0  0
  -31.3980  -20.0690   24.1760 F   0  0  0  0  0  0  0  0  0  0  0  0
  -30.4710  -14.9590   20.1170 C   0  0  0  0  0  0  0  0  0  0  0  0
  -30.2250  -12.6870   19.0680 C   0  0  0  0  0  2  0  0  0  0  0  0
  -29.2560  -12.7260   17.8710 C   0  0  0  0  0  2  0  0  0  0  0  0
  -27.8050  -12.5160   18.3510 C   0  0  0  0  0  2  0  0  0  0  0  0
  -27.4490  -13.4080   19.5700 C   0  0  0  0  0  3  0  0  0  0  0  0
  -28.5440  -13.3710   20.6530 C   0  0  0  0  0  2  0  0  0  0  0  0
  -29.8000  -13.7550   20.0050 N   0  0  0  0  0  0  0  0  0  0  0  0
  -31.6580  -15.0010   19.7920 O   0  0  0  0  0  0  0  0  0  0  0  0
  -29.7750  -16.1600   20.3410 N   0  0  0  0  0  0  0  0  0  0  0  0
  -28.7810  -16.1060   20.1760 H   0  0  0  0  0  0  0  0  0  0  0  0
  -25.0930  -13.9640   20.4030 C   0  0  0  0  0  0  0  0  0  0  0  0
  -24.0440  -13.1780   20.7950 C   0  0  0  0  0  0  0  0  0  0  0  0
  -24.5130  -11.8310   20.7270 C   0  0  0  0  0  0  0  0  0  0  0  0
  -26.1300  -13.0950   20.1110 N   0  0  0  0  0  0  0  0  0  0  0  0
  -25.7950  -11.8060   20.3740 N   0  0  0  0  0  0  0  0  0  0  0  0
  -23.8010  -10.5600   20.9210 C   0  0  0  0  0  0  0  0  0  0  0  0
  -24.2310   -9.6090   21.8730 C   0  0  0  0  0  3  0  0  0  0  0  0
  -23.5200   -8.4010   22.0550 C   0  0  0  0  0  3  0  0  0  0  0  0
  -22.3640   -8.1380   21.2830 C   0  0  0  0  0  0  0  0  0  0  0  0
  -21.9510   -9.0780   20.3200 C   0  0  0  0  0  3  0  0  0  0  0  0
  -22.6640  -10.2760   20.1370 C   0  0  0  0  0  3  0  0  0  0  0  0
  -21.6220   -6.9850   21.3750 O   0  0  0  0  0  0  0  0  0  0  0  0
  -21.5300   -6.2790   22.5480 C   0  0  0  0  0  0  0  0  0  0  0  0
  -21.0220   -6.8610   23.7300 C   0  0  0  0  0  3  0  0  0  0  0  0
  -20.8800   -6.0780   24.8950 C   0  0  0  0  0  3  0  0  0  0  0  0
  -21.2340   -4.7160   24.8740 C   0  0  0  0  0  0  0  0  0  0  0  0
  -21.7310   -4.1330   23.6950 C   0  0  0  0  0  3  0  0  0  0  0  0
  -21.8740   -4.9130   22.5340 C   0  0  0  0  0  0  0  0  0  0  0  0
  -22.3350   -4.3420   21.3950 F   0  0  0  0  0  0  0  0  0  0  0  0
  -21.0880   -3.9630   25.9890 F   0  0  0  0  0  0  0  0  0  0  0  0
  -22.6530  -13.6390   21.1180 C   0  0  0  0  0  0  0  0  0  0  0  0
  -21.9510  -12.9210   21.9880 N   0  0  0  0  0  0  0  0  0  0  0  0
  -22.1990  -14.6760   20.6350 O   0  0  0  0  0  0  0  0  0  0  0  0
  -22.3300  -12.0820   22.4020 H   0  0  0  0  0  0  0  0  0  0  0  0
  -21.0190  -13.2130   22.2480 H   0  0  0  0  0  0  0  0  0  0  0  0
  -25.2540  -15.3370   20.2350 N   0  0  0  0  0  0  0  0  0  0  0  0
  -24.4960  -16.0000   20.3470 H   0  0  0  0  0  0  0  0  0  0  0  0
  -26.0960  -15.7560   19.8630 H   0  0  0  0  0  0  0  0  0  0  0  0
  -28.6610  -23.8040   19.7970 C   0  0  0  0  0  3  0  0  0  0  0  0
  -29.7370  -24.1300   18.8380 N   0  0  0  0  0  4  0  0  0  0  0  0
  -30.5850  -24.3670   19.3250 H   0  0  0  0  0  0  0  0  0  0  0  0
  -29.4850  -24.9110   18.2580 H   0  0  0  0  0  0  0  0  0  0  0  0
  -29.9200  -23.3390   18.2450 H   0  0  0  0  0  0  0  0  0  0  0  0
  -28.3430  -25.1380   20.6910 C   0  0  0  0  0  2  0  0  0  0  0  0
  -28.3720  -26.5510   20.1500 O   0  0  0  0  0  0  0  0  0  0  0  0
  -24.5730  -31.9330   23.2690 C   0  0  0  0  0  0  0  0  0  0  0  0
  -27.2320  -27.3880   20.1970 C   0  0  0  0  0  0  0  0  0  0  0  0
  -23.3820  -30.5210   21.6300 C   0  0  0  0  0  3  0  0  0  0  0  0
  -24.8470  -28.9840   20.1940 C   0  0  0  0  0  0  0  0  0  0  0  0
  -25.9160  -30.8740   21.4260 C   0  0  0  0  0  2  0  0  0  0  0  0
  -26.0110  -29.4910   20.7810 C   0  0  0  0  0  0  0  0  0  0  0  0
  -27.2080  -28.7050   20.7700 C   0  0  0  0  0  3  0  0  0  0  0  0
  -26.0430  -26.9380   19.5910 C   0  0  0  0  0  3  0  0  0  0  0  0
  -24.8630  -27.7140   19.5920 C   0  0  0  0  0  3  0  0  0  0  0  0
  -23.5980  -29.8440   20.2500 C   0  0  0  0  0  2  0  0  0  0  0  0
  -24.6430  -31.1300   22.1640 N   0  0  0  0  0  0  0  0  0  0  0  0
  -23.4890  -32.1860   23.8140 O   0  0  0  0  0  0  0  0  0  0  0  0
  -22.7370  -29.4940   22.5950 C   0  0  0  0  0  0  0  0  0  0  0  0
  -21.4160  -29.2860   22.4740 N   0  0  0  0  0  0  0  0  0  0  0  0
  -23.4310  -28.8800   23.4110 O   0  0  0  0  0  0  0  0  0  0  0  0
  -20.9100  -29.8320   21.7880 H   0  0  0  0  0  0  0  0  0  0  0  0
  -18.0690  -28.0050   22.9810 C   0  0  0  0  0  0  0  0  0  0  0  0
  -20.6220  -28.3270   23.2460 C   0  0  0  0  0  3  0  0  0  0  0  0
  -20.7560  -26.8990   22.6680 C   0  0  0  0  0  2  0  0  0  0  0  0
  -19.6600  -26.5520   21.6560 C   0  0  0  0  0  2  0  0  0  0  0  0
  -18.2780  -26.6630   22.3030 C   0  0  0  0  0  2  0  0  0  0  0  0
  -19.1700  -28.7960   23.4090 C   0  0  0  0  0  0  0  0  0  0  0  0
  -18.9190  -30.0530   24.0000 C   0  0  0  0  0  3  0  0  0  0  0  0
  -17.6030  -30.5180   24.1750 C   0  0  0  0  0  3  0  0  0  0  0  0
  -16.5160  -29.7260   23.7620 C   0  0  0  0  0  3  0  0  0  0  0  0
  -16.7520  -28.4730   23.1700 C   0  0  0  0  0  3  0  0  0  0  0  0
  -25.8470  -32.5880   23.8880 C   0  0  0  0  0  3  0  0  0  0  0  0
  -25.5230  -33.9870   24.2050 N   0  0  0  0  0  0  0  0  0  0  0  0
  -25.8460  -35.0390   23.4420 C   0  0  0  0  0  0  0  0  0  0  0  0
  -26.5160  -34.9350   22.4110 O   0  0  0  0  0  0  0  0  0  0  0  0
  -24.9340  -34.1410   25.0090 H   0  0  0  0  0  0  0  0  0  0  0  0
  -24.1030  -36.8190   23.0730 C   0  0  0  0  0  1  0  0  0  0  0  0
  -25.3450  -36.4270   23.8890 C   0  0  0  0  0  3  0  0  0  0  0  0
  -27.4670  -37.3390   24.7190 C   0  0  0  0  0  1  0  0  0  0  0  0
  -26.3660  -37.4900   23.7730 N   0  0  0  0  0  0  0  0  0  0  0  0
  -25.9510  -38.4070   23.9090 H   0  0  0  0  0  0  0  0  0  0  0  0
  -26.3700  -31.8360   25.1740 C   0  0  1  0  0  0  0  0  0  0  0  0
  -25.2800  -31.5940   26.2430 C   0  0  0  0  0  1  0  0  0  0  0  0
  -26.9730  -30.4650   24.7960 C   0  0  0  0  0  1  0  0  0  0  0  0
  -27.5090  -32.6520   25.8300 C   0  0  0  0  0  1  0  0  0  0  0  0
  3  2  1  0
  3  1  1  0
  4  3  1  0
  4  8  1  0
  5  6  1  0
  7 10  1  0
  8  9  1  0
  8  7  2  0
  9  5  2  0
 10  6  2  0
 10 11  1  0
 12 20  1  0
 13 18  1  0
 14 15  1  0
 14 13  1  0
 16 15  1  0
 16 25  1  0
 16 17  1  0
 18 12  1  0
 18 17  1  0
 19 12  2  0
 20  9  1  0
 21 20  1  0
 22 23  2  0
 23 42  1  0
 24 23  1  0
 24 27  1  0
 25 26  1  0
 25 22  1  0
 26 24  2  0
 27 28  1  0
 28 29  2  0
 30 33  1  0
 30 29  1  0
 31 30  2  0
 32 31  1  0
 32 27  2  0
 33 34  1  0
 34 35  1  0
 35 36  2  0
 37 36  1  0
 37 41  1  0
 38 37  2  0
 39 34  2  0
 39 38  1  0
 40 39  1  0
 42 43  1  0
 43 46  1  0
 43 45  1  0
 44 42  2  0
 47 48  1  0
 47 22  1  0
 49 47  1  0
 50  1  1  0
 50 55  1  0
 51 52  1  0
 51 50  1  0
 53 51  1  0
 54 51  1  0
 56 58  1  0
 56 55  1  0
 57 68  2  0
 58 63  1  0
 59 67  1  0
 59 69  1  0
 60 66  1  0
 60 62  1  0
 61 67  1  0
 62 61  1  0
 63 62  2  0
 64 65  1  0
 64 58  2  0
 65 60  2  0
 66 59  1  0
 67 57  1  0
 69 71  2  0
 70 69  1  0
 72 70  1  0
 73 82  2  0
 73 78  1  0
 74 70  1  0
 74 78  1  0
 75 74  1  0
 76 77  1  0
 76 75  1  0
 77 73  1  0
 78 79  2  0
 79 80  1  0
 81 80  2  0
 82 81  1  0
 83 57  1  0
 83 84  1  0
 83 93  1  0
 84 87  1  0
 85 89  1  0
 85 84  1  0
 86 85  2  0
 89 88  1  0
 91 89  1  0
 91 92  1  0
 91 90  1  0
 93 96  1  1
 93 94  1  0
 95 93  1  0
M  ISO  4  12 100  20 100  55 101  56 101
M  END
>  <TORSDO>  (75) 
F 22

>  <SCORE>  (75) 
-12.107

>  <name>  (75) 
74

>  <ligand_id>  (75) 
74

>  <original_smiles>  (75) 
[H]c1c([H])c([H])c2c(c1[H])C([H])([H])C([H])([H])C([H])([H])C2([H])N([H])C(=O)C1([H])N(C(=O)C([H])(N([H])C(=O)C([H])(N([H])C([H])([H])[H])C([H])([H])[H])C(C([H])([H])[H])(C([H])([H])[H])C([H])([H])[H])C([H])([H])c2c([H])c(OC([H])([H])C([H])(C([H])([H])N(C([H])([H])[H])C([H])([H])c3c([H])c(F)c([H])c([H])c3N([H])C(=O)N3C([H])([H])C([H])([H])C([H])([H])C([H])(n4nc(-c5c([H])c([H])c(Oc6c([H])c([H])c(F)c([H])c6F)c([H])c5[H])c(C(=O)N([H])[H])c4N([H])[H])C3([H])[H])[N+]([H])([H])[H])c([H])c([H])c2C1([H])[H]

>  <smiles>  (75) 
[H]c1c([H])c([H])c2c(c1[H])C([H])([H])C([H])([H])C([H])([H])C2([H])N([H])C(=O)C1([H])N(C(=O)C([H])(N([H])C(=O)C([H])(N([H])C([H])([H])[H])C([H])([H])[H])C(C([H])([H])[H])(C([H])([H])[H])C([H])([H])[H])C([H])([H])c2c([H])c(OC([H])([H])C([H])(C([H])([H])N(C([H])([H])[H])C([H])([H])c3c([H])c(F)c([H])c([H])c3N([H])C(=O)N3C([H])([H])C([H])([H])C([H])([H])C([H])(n4nc(-c5c([H])c([H])c(Oc6c([H])c([H])c(F)c([H])c6F)c([H])c5[H])c(C(=O)N([H])[H])c4N([H])[H])C3([H])[H])[N+]([H])([H])[H])c([H])c([H])c2C1([H])[H]

$$$$
75:0:0
     RDKit          3D

 98107  0  0  1  0  0  0  0  0999 V2000
  -29.7710  -23.0420   23.8680 C   0  0  0  0  0  2  0  0  0  0  0  0
  -28.3120  -22.1890   21.9990 C   0  0  0  0  0  2  0  0  0  0  0  0
  -30.1880  -24.2250   22.9630 C   0  0  0  0  0  2  0  0  0  0  0  0
  -28.8230  -23.3430   21.1160 C   0  0  0  0  0  2  0  0  0  0  0  0
  -29.3320  -21.7830   23.0840 C   0  0  0  0  0  3  0  0  0  0  0  0
  -29.1510  -24.5360   21.9440 N   0  0  2  0  0  4  0  0  0  0  0  0
  -28.3150  -24.7650   22.4620 H   0  0  0  0  0  0  0  0  0  0  0  0
  -30.4970  -20.9850   22.4710 C   0  0  0  0  0  0  0  0  0  0  0  0
  -30.2330  -19.6970   22.1990 N   0  0  0  0  0  0  0  0  0  0  0  0
  -31.5790  -21.5320   22.2500 O   0  0  0  0  0  0  0  0  0  0  0  0
  -29.2880  -19.4020   22.4080 H   0  0  0  0  0  0  0  0  0  0  0  0
  -32.9860  -18.1470   20.1480 C   0  0  0  0  0  3  0  0  0  0  0  0
  -32.2730  -19.1070   20.8910 C   0  0  0  0  0  3  0  0  0  0  0  0
  -32.4520  -16.8590   19.9580 C   0  0  0  0  0  3  0  0  0  0  0  0
  -30.5030  -17.4770   21.2870 C   0  0  0  0  0  3  0  0  0  0  0  0
  -31.0160  -18.7800   21.4520 C   0  0  0  0  0  0  0  0  0  0  0  0
  -31.2010  -16.5200   20.5210 C   0  0  0  0  0  0  0  0  0  0  0  0
  -31.0800  -14.2030   19.6530 C   0  0  0  0  0  0  0  0  0  0  0  0
  -30.8110  -11.7980   19.1710 C   0  0  0  0  0  2  0  0  0  0  0  0
  -29.8250  -11.5440   18.0180 C   0  0  0  0  0  2  0  0  0  0  0  0
  -28.3790  -11.4800   18.5420 C   0  0  0  0  0  2  0  0  0  0  0  0
  -28.0240  -12.6830   19.4550 C   0  0  0  0  0  3  0  0  0  0  0  0
  -29.1120  -12.8890   20.5310 C   0  0  0  0  0  2  0  0  0  0  0  0
  -30.4160  -13.0380   19.8550 N   0  0  0  0  0  0  0  0  0  0  0  0
  -32.0370  -14.3110   18.8770 O   0  0  0  0  0  0  0  0  0  0  0  0
  -30.6390  -15.2260   20.3970 N   0  0  0  0  0  0  0  0  0  0  0  0
  -29.7820  -15.0500   20.9010 H   0  0  0  0  0  0  0  0  0  0  0  0
  -25.7800  -13.4910   20.4270 C   0  0  0  0  0  0  0  0  0  0  0  0
  -24.6760  -12.8110   20.8670 C   0  0  0  0  0  0  0  0  0  0  0  0
  -24.9860  -11.4230   20.7250 C   0  0  0  0  0  0  0  0  0  0  0  0
  -26.7000  -12.5230   20.0520 N   0  0  0  0  0  0  0  0  0  0  0  0
  -26.2280  -11.2720   20.2850 N   0  0  0  0  0  0  0  0  0  0  0  0
  -24.1540  -10.2310   20.9300 C   0  0  0  0  0  0  0  0  0  0  0  0
  -24.5380   -9.2050   21.8210 C   0  0  0  0  0  3  0  0  0  0  0  0
  -23.7120   -8.0770   22.0140 C   0  0  0  0  0  3  0  0  0  0  0  0
  -22.4860   -7.9680   21.3150 C   0  0  0  0  0  0  0  0  0  0  0  0
  -22.1200   -8.9820   20.4120 C   0  0  0  0  0  3  0  0  0  0  0  0
  -22.9450  -10.1010   20.2180 C   0  0  0  0  0  3  0  0  0  0  0  0
  -21.6320   -6.8970   21.4190 O   0  0  0  0  0  0  0  0  0  0  0  0
  -21.5410   -6.1590   22.5720 C   0  0  0  0  0  0  0  0  0  0  0  0
  -21.1420   -6.7360   23.7980 C   0  0  0  0  0  3  0  0  0  0  0  0
  -20.9940   -5.9270   24.9420 C   0  0  0  0  0  3  0  0  0  0  0  0
  -21.2350   -4.5430   24.8620 C   0  0  0  0  0  0  0  0  0  0  0  0
  -21.6270   -3.9650   23.6410 C   0  0  0  0  0  3  0  0  0  0  0  0
  -21.7770   -4.7710   22.4990 C   0  0  0  0  0  0  0  0  0  0  0  0
  -22.1340   -4.2060   21.3200 F   0  0  0  0  0  0  0  0  0  0  0  0
  -21.0860   -3.7640   25.9590 F   0  0  0  0  0  0  0  0  0  0  0  0
  -23.3700  -13.4080   21.3040 C   0  0  0  0  0  0  0  0  0  0  0  0
  -22.6850  -12.7660   22.2430 N   0  0  0  0  0  0  0  0  0  0  0  0
  -22.9730  -14.4800   20.8480 O   0  0  0  0  0  0  0  0  0  0  0  0
  -23.0200  -11.8960   22.6320 H   0  0  0  0  0  0  0  0  0  0  0  0
  -21.8120  -13.1470   22.5780 H   0  0  0  0  0  0  0  0  0  0  0  0
  -26.0720  -14.8460   20.2970 N   0  0  0  0  0  0  0  0  0  0  0  0
  -25.3950  -15.5700   20.5130 H   0  0  0  0  0  0  0  0  0  0  0  0
  -26.9340  -15.2120   19.9120 H   0  0  0  0  0  0  0  0  0  0  0  0
  -29.4930  -25.7500   21.1510 C   0  0  0  0  0  2  0  0  0  0  0  0
  -28.6400  -25.9040   19.8790 C   0  0  0  0  0  2  0  0  0  0  0  0
  -28.5980  -27.2830   19.5060 O   0  0  0  0  0  0  0  0  0  0  0  0
  -24.6220  -31.7900   23.2710 C   0  0  0  0  0  0  0  0  0  0  0  0
  -27.3710  -27.8870   19.6370 C   0  0  0  0  0  0  0  0  0  0  0  0
  -23.4090  -30.4310   21.5960 C   0  0  0  0  0  3  0  0  0  0  0  0
  -24.8680  -29.1510   19.9440 C   0  0  0  0  0  0  0  0  0  0  0  0
  -25.8720  -31.0290   21.2580 C   0  0  0  0  0  2  0  0  0  0  0  0
  -26.0190  -29.7310   20.4940 C   0  0  0  0  0  0  0  0  0  0  0  0
  -27.2740  -29.1060   20.3380 C   0  0  0  0  0  3  0  0  0  0  0  0
  -26.2050  -27.3170   19.0750 C   0  0  0  0  0  3  0  0  0  0  0  0
  -24.9550  -27.9420   19.2330 C   0  0  0  0  0  3  0  0  0  0  0  0
  -23.5660  -29.8890   20.1500 C   0  0  0  0  0  2  0  0  0  0  0  0
  -24.6560  -31.0930   22.1010 N   0  0  0  0  0  0  0  0  0  0  0  0
  -23.5660  -31.9230   23.9070 O   0  0  0  0  0  0  0  0  0  0  0  0
  -22.9160  -29.2820   22.5020 C   0  0  0  0  0  0  0  0  0  0  0  0
  -21.6660  -28.8440   22.2840 N   0  0  0  0  0  0  0  0  0  0  0  0
  -23.6570  -28.7870   23.3550 O   0  0  0  0  0  0  0  0  0  0  0  0
  -21.1190  -29.3090   21.5710 H   0  0  0  0  0  0  0  0  0  0  0  0
  -18.6330  -26.8870   22.4170 C   0  0  0  0  0  0  0  0  0  0  0  0
  -21.0010  -27.7490   22.9880 C   0  0  0  0  0  3  0  0  0  0  0  0
  -21.5100  -26.3770   22.4900 C   0  0  0  0  0  2  0  0  0  0  0  0
  -20.6550  -25.7880   21.3640 C   0  0  0  0  0  2  0  0  0  0  0  0
  -19.2070  -25.6100   21.8290 C   0  0  0  0  0  2  0  0  0  0  0  0
  -19.4780  -27.8980   22.9480 C   0  0  0  0  0  0  0  0  0  0  0  0
  -18.8950  -29.0820   23.4510 C   0  0  0  0  0  3  0  0  0  0  0  0
  -17.4990  -29.2620   23.4340 C   0  0  0  0  0  3  0  0  0  0  0  0
  -16.6670  -28.2510   22.9230 C   0  0  0  0  0  3  0  0  0  0  0  0
  -17.2340  -27.0660   22.4200 C   0  0  0  0  0  3  0  0  0  0  0  0
  -25.8990  -32.4710   23.8560 C   0  0  0  0  0  3  0  0  0  0  0  0
  -26.4640  -31.7390   25.1350 C   0  0  1  0  0  0  0  0  0  0  0  0
  -25.3800  -31.3860   26.1780 C   0  0  0  0  0  1  0  0  0  0  0  0
  -27.1880  -30.4310   24.7380 C   0  0  0  0  0  1  0  0  0  0  0  0
  -27.5190  -32.6350   25.8280 C   0  0  0  0  0  1  0  0  0  0  0  0
  -25.5550  -33.8660   24.1630 N   0  0  0  0  0  0  0  0  0  0  0  0
  -25.8880  -34.9150   23.4010 C   0  0  0  0  0  0  0  0  0  0  0  0
  -26.5890  -34.8140   22.3890 O   0  0  0  0  0  0  0  0  0  0  0  0
  -24.9360  -34.0160   24.9460 H   0  0  0  0  0  0  0  0  0  0  0  0
  -24.1610  -36.6850   22.9460 C   0  0  0  0  0  1  0  0  0  0  0  0
  -25.3590  -36.2980   23.8280 C   0  0  0  0  0  3  0  0  0  0  0  0
  -27.4390  -37.2000   24.7680 C   0  0  0  0  0  1  0  0  0  0  0  0
  -26.3840  -37.3630   23.7710 N   0  0  0  0  0  0  0  0  0  0  0  0
  -25.9600  -38.2770   23.9040 H   0  0  0  0  0  0  0  0  0  0  0  0
  2  5  1  0
  3  1  1  0
  4  6  1  0
  4  2  1  0
  5  8  1  0
  5  1  1  0
  6  7  1  1
  6  3  1  0
  9 11  1  0
  9  8  1  0
 10  8  2  0
 12 13  1  0
 13 16  2  0
 14 12  2  0
 14 17  1  0
 15 16  1  0
 16  9  1  0
 17 15  2  0
 18 24  1  0
 18 26  1  0
 19 24  1  0
 20 21  1  0
 20 19  1  0
 22 21  1  0
 22 31  1  0
 22 23  1  0
 24 23  1  0
 25 18  2  0
 26 17  1  0
 26 27  1  0
 28 29  2  0
 29 48  1  0
 30 29  1  0
 30 33  1  0
 31 32  1  0
 31 28  1  0
 32 30  2  0
 33 34  1  0
 34 35  2  0
 36 39  1  0
 36 35  1  0
 37 36  2  0
 38 37  1  0
 38 33  2  0
 39 40  1  0
 40 41  1  0
 41 42  2  0
 43 42  1  0
 43 47  1  0
 44 43  2  0
 45 40  2  0
 45 44  1  0
 46 45  1  0
 48 49  1  0
 49 52  1  0
 49 51  1  0
 50 48  2  0
 53 28  1  0
 53 54  1  0
 55 53  1  0
 56  6  1  0
 57 56  1  0
 58 60  1  0
 58 57  1  0
 59 70  2  0
 60 65  1  0
 61 69  1  0
 61 71  1  0
 62 68  1  0
 62 64  1  0
 63 69  1  0
 64 63  1  0
 65 64  2  0
 66 67  1  0
 66 60  2  0
 67 62  2  0
 68 61  1  0
 69 59  1  0
 71 73  2  0
 72 71  1  0
 74 72  1  0
 75 84  2  0
 75 80  1  0
 76 72  1  0
 77 76  1  0
 78 79  1  0
 78 77  1  0
 79 75  1  0
 80 76  1  0
 80 81  2  0
 82 81  1  0
 83 82  2  0
 84 83  1  0
 85 59  1  0
 85 90  1  0
 85 86  1  0
 86 89  1  1
 86 87  1  0
 88 86  1  0
 90 93  1  0
 91 95  1  0
 91 90  1  0
 92 91  2  0
 95 94  1  0
 97 95  1  0
 97 98  1  0
 97 96  1  0
M  ISO  4  18 100  26 100  57 101  58 101
M  END
>  <TORSDO>  (76) 
F 20

>  <SCORE>  (76) 
-12.265

>  <name>  (76) 
75

>  <ligand_id>  (76) 
75

>  <original_smiles>  (76) 
[H]c1c([H])c(N([H])C(=O)N2C([H])([H])C([H])([H])C([H])([H])C([H])(n3nc(-c4c([H])c([H])c(Oc5c([H])c([H])c(F)c([H])c5F)c([H])c4[H])c(C(=O)N([H])[H])c3N([H])[H])C2([H])[H])c([H])c(N([H])C(=O)C2([H])C([H])([H])C([H])([H])[N+]([H])(C([H])([H])C([H])([H])Oc3c([H])c([H])c4c(c3[H])C([H])([H])N(C(=O)C([H])(N([H])C(=O)C([H])(N([H])C([H])([H])[H])C([H])([H])[H])C(C([H])([H])[H])(C([H])([H])[H])C([H])([H])[H])C([H])(C(=O)N([H])C3([H])c5c([H])c([H])c([H])c([H])c5C([H])([H])C([H])([H])C3([H])[H])C4([H])[H])C([H])([H])C2([H])[H])c1[H]

>  <smiles>  (76) 
[H]c1c([H])c(N([H])C(=O)N2C([H])([H])C([H])([H])C([H])([H])C([H])(n3nc(-c4c([H])c([H])c(Oc5c([H])c([H])c(F)c([H])c5F)c([H])c4[H])c(C(=O)N([H])[H])c3N([H])[H])C2([H])[H])c([H])c(N([H])C(=O)C2([H])C([H])([H])C([H])([H])[N+]([H])(C([H])([H])C([H])([H])Oc3c([H])c([H])c4c(c3[H])C([H])([H])N(C(=O)C([H])(N([H])C(=O)C([H])(N([H])C([H])([H])[H])C([H])([H])[H])C(C([H])([H])[H])(C([H])([H])[H])C([H])([H])[H])C([H])(C(=O)N([H])C3([H])c5c([H])c([H])c([H])c([H])c5C([H])([H])C([H])([H])C3([H])[H])C4([H])[H])C([H])([H])C2([H])[H])c1[H]

$$$$
76:0:0
     RDKit          3D

 98106  0  0  1  0  0  0  0  0999 V2000
  -30.7930  -19.5980   17.9890 C   0  0  0  0  0  1  0  0  0  0  0  0
  -30.8320  -20.3500   19.2680 N   0  0  1  0  0  4  0  0  0  0  0  0
  -30.0610  -20.0120   19.8200 H   0  0  0  0  0  0  0  0  0  0  0  0
  -32.0330  -20.0230   20.0810 C   0  0  0  0  0  2  0  0  0  0  0  0
  -31.7230  -17.5790   20.7410 C   0  0  0  0  0  3  0  0  0  0  0  0
  -31.2800  -19.3170   22.3930 C   0  0  0  0  0  3  0  0  0  0  0  0
  -31.6860  -18.9450   21.0950 C   0  0  0  0  0  0  0  0  0  0  0  0
  -31.3260  -16.5890   21.6760 C   0  0  0  0  0  0  0  0  0  0  0  0
  -30.9160  -18.3350   23.3330 C   0  0  0  0  0  0  0  0  0  0  0  0
  -30.9440  -16.9760   22.9770 C   0  0  0  0  0  0  0  0  0  0  0  0
  -30.5250  -18.7050   24.5760 F   0  0  0  0  0  0  0  0  0  0  0  0
  -30.5780  -16.0310   23.8790 F   0  0  0  0  0  0  0  0  0  0  0  0
  -31.4950  -14.5570   20.2530 C   0  0  0  0  0  0  0  0  0  0  0  0
  -30.9740  -12.5380   18.9400 C   0  0  0  0  0  2  0  0  0  0  0  0
  -30.0170  -12.8530   17.7780 C   0  0  0  0  0  2  0  0  0  0  0  0
  -28.5510  -12.7710   18.2440 C   0  0  0  0  0  2  0  0  0  0  0  0
  -28.2970  -13.5980   19.5310 C   0  0  0  0  0  3  0  0  0  0  0  0
  -29.3580  -13.2750   20.6080 C   0  0  0  0  0  2  0  0  0  0  0  0
  -30.7050  -13.4770   20.0370 N   0  0  0  0  0  0  0  0  0  0  0  0
  -32.4650  -14.8460   19.5460 O   0  0  0  0  0  0  0  0  0  0  0  0
  -31.2240  -15.2050   21.3880 N   0  0  0  0  0  0  0  0  0  0  0  0
  -30.5920  -14.7030   21.9950 H   0  0  0  0  0  0  0  0  0  0  0  0
  -25.9330  -14.3200   20.2640 C   0  0  0  0  0  0  0  0  0  0  0  0
  -24.8400  -13.5970   20.6660 C   0  0  0  0  0  0  0  0  0  0  0  0
  -25.2470  -12.2300   20.6530 C   0  0  0  0  0  0  0  0  0  0  0  0
  -26.9400  -13.3930   20.0360 N   0  0  0  0  0  0  0  0  0  0  0  0
  -26.5280  -12.1320   20.3240 N   0  0  0  0  0  0  0  0  0  0  0  0
  -24.4740  -11.0000   20.8790 C   0  0  0  0  0  0  0  0  0  0  0  0
  -24.8740  -10.0410   21.8340 C   0  0  0  0  0  3  0  0  0  0  0  0
  -24.1060   -8.8760   22.0450 C   0  0  0  0  0  3  0  0  0  0  0  0
  -22.9220   -8.6610   21.3020 C   0  0  0  0  0  0  0  0  0  0  0  0
  -22.5400   -9.6080   20.3350 C   0  0  0  0  0  3  0  0  0  0  0  0
  -23.3070  -10.7640   20.1230 C   0  0  0  0  0  3  0  0  0  0  0  0
  -22.1280   -7.5480   21.4220 O   0  0  0  0  0  0  0  0  0  0  0  0
  -22.0110   -6.8690   22.6090 C   0  0  0  0  0  0  0  0  0  0  0  0
  -21.6010   -7.5120   23.7970 C   0  0  0  0  0  3  0  0  0  0  0  0
  -21.4290   -6.7630   24.9770 C   0  0  0  0  0  3  0  0  0  0  0  0
  -21.6570   -5.3740   24.9720 C   0  0  0  0  0  0  0  0  0  0  0  0
  -22.0610   -4.7330   23.7880 C   0  0  0  0  0  3  0  0  0  0  0  0
  -22.2360   -5.4780   22.6090 C   0  0  0  0  0  0  0  0  0  0  0  0
  -22.6050   -4.8520   21.4650 F   0  0  0  0  0  0  0  0  0  0  0  0
  -21.4850   -4.6520   26.1040 F   0  0  0  0  0  0  0  0  0  0  0  0
  -23.4680  -14.1380   20.9510 C   0  0  0  0  0  0  0  0  0  0  0  0
  -22.7440  -13.5160   21.8760 N   0  0  0  0  0  0  0  0  0  0  0  0
  -23.0470  -15.1460   20.3850 O   0  0  0  0  0  0  0  0  0  0  0  0
  -23.0960  -12.7020   22.3570 H   0  0  0  0  0  0  0  0  0  0  0  0
  -21.8230  -13.8600   22.1070 H   0  0  0  0  0  0  0  0  0  0  0  0
  -26.1510  -15.6760   20.0570 N   0  0  0  0  0  0  0  0  0  0  0  0
  -25.4170  -16.3670   20.1680 H   0  0  0  0  0  0  0  0  0  0  0  0
  -27.0220  -16.0750   19.7300 H   0  0  0  0  0  0  0  0  0  0  0  0
  -30.5480  -21.7990   19.0890 C   0  0  0  0  0  2  0  0  0  0  0  0
  -29.0540  -22.1040   19.3510 C   0  0  0  0  0  2  0  0  0  0  0  0
  -28.8920  -24.5500   19.7160 C   0  0  0  0  0  0  0  0  0  0  0  0
  -28.0160  -23.5530   17.6230 C   0  0  0  0  0  1  0  0  0  0  0  0
  -28.6740  -23.4640   18.9340 N   0  0  0  0  0  0  0  0  0  0  0  0
  -29.2580  -24.4360   20.8910 O   0  0  0  0  0  0  0  0  0  0  0  0
  -28.7810  -25.9580   19.0930 C   0  0  0  0  0  2  0  0  0  0  0  0
  -28.5130  -26.9510   20.0910 O   0  0  0  0  0  0  0  0  0  0  0  0
  -24.5110  -31.8880   23.2620 C   0  0  0  0  0  0  0  0  0  0  0  0
  -27.2880  -27.5860   20.1050 C   0  0  0  0  0  0  0  0  0  0  0  0
  -23.3480  -30.4920   21.5850 C   0  0  0  0  0  3  0  0  0  0  0  0
  -24.8460  -29.0140   20.1470 C   0  0  0  0  0  0  0  0  0  0  0  0
  -25.8640  -30.9150   21.4100 C   0  0  0  0  0  2  0  0  0  0  0  0
  -25.9850  -29.5570   20.7520 C   0  0  0  0  0  0  0  0  0  0  0  0
  -27.2040  -28.8450   20.7370 C   0  0  0  0  0  3  0  0  0  0  0  0
  -26.1190  -27.0380   19.5220 C   0  0  0  0  0  3  0  0  0  0  0  0
  -24.9040  -27.7490   19.5400 C   0  0  0  0  0  3  0  0  0  0  0  0
  -23.5850  -29.8470   20.1930 C   0  0  0  0  0  2  0  0  0  0  0  0
  -24.5920  -31.1120   22.1450 N   0  0  0  0  0  0  0  0  0  0  0  0
  -23.4210  -32.1230   23.8010 O   0  0  0  0  0  0  0  0  0  0  0  0
  -22.7190  -29.4340   22.5200 C   0  0  0  0  0  0  0  0  0  0  0  0
  -21.3980  -29.2300   22.3910 N   0  0  0  0  0  0  0  0  0  0  0  0
  -23.4160  -28.8020   23.3190 O   0  0  0  0  0  0  0  0  0  0  0  0
  -20.8930  -29.7960   21.7230 H   0  0  0  0  0  0  0  0  0  0  0  0
  -18.0460  -27.9800   22.8740 C   0  0  0  0  0  0  0  0  0  0  0  0
  -20.6020  -28.2630   23.1430 C   0  0  0  0  0  3  0  0  0  0  0  0
  -20.7200  -26.8480   22.5300 C   0  0  0  0  0  2  0  0  0  0  0  0
  -19.6170  -26.5370   21.5130 C   0  0  0  0  0  2  0  0  0  0  0  0
  -18.2360  -26.6520   22.1640 C   0  0  0  0  0  2  0  0  0  0  0  0
  -19.1570  -28.7430   23.3210 C   0  0  0  0  0  0  0  0  0  0  0  0
  -18.9240  -29.9900   23.9440 C   0  0  0  0  0  3  0  0  0  0  0  0
  -17.6150  -30.4740   24.1210 C   0  0  0  0  0  3  0  0  0  0  0  0
  -16.5180  -29.7070   23.6910 C   0  0  0  0  0  3  0  0  0  0  0  0
  -16.7340  -28.4610   23.0740 C   0  0  0  0  0  3  0  0  0  0  0  0
  -25.7800  -32.5380   23.9000 C   0  0  0  0  0  3  0  0  0  0  0  0
  -25.4560  -33.9370   24.2020 N   0  0  0  0  0  0  0  0  0  0  0  0
  -25.7990  -34.9800   23.4350 C   0  0  0  0  0  0  0  0  0  0  0  0
  -26.4950  -34.8660   22.4210 O   0  0  0  0  0  0  0  0  0  0  0  0
  -24.8410  -34.1020   24.9840 H   0  0  0  0  0  0  0  0  0  0  0  0
  -24.0670  -36.7520   23.0060 C   0  0  0  0  0  1  0  0  0  0  0  0
  -25.2890  -36.3710   23.8580 C   0  0  0  0  0  3  0  0  0  0  0  0
  -27.3930  -37.2810   24.7340 C   0  0  0  0  0  1  0  0  0  0  0  0
  -26.3140  -37.4300   23.7590 N   0  0  0  0  0  0  0  0  0  0  0  0
  -25.8980  -38.3490   23.8830 H   0  0  0  0  0  0  0  0  0  0  0  0
  -26.2810  -31.7880   25.1950 C   0  0  1  0  0  0  0  0  0  0  0  0
  -25.1710  -31.5540   26.2440 C   0  0  0  0  0  1  0  0  0  0  0  0
  -26.8830  -30.4120   24.8260 C   0  0  0  0  0  1  0  0  0  0  0  0
  -27.4090  -32.6010   25.8720 C   0  0  0  0  0  1  0  0  0  0  0  0
  1  2  1  0
  2  3  1  1
  2  4  1  0
  4  7  1  0
  5  7  2  0
  5  8  1  0
  6  9  2  0
  7  6  1  0
  8 10  2  0
  9 11  1  0
 10  9  1  0
 10 12  1  0
 13 21  1  0
 14 19  1  0
 15 16  1  0
 15 14  1  0
 17 16  1  0
 17 26  1  0
 17 18  1  0
 19 13  1  0
 19 18  1  0
 20 13  2  0
 21  8  1  0
 21 22  1  0
 23 24  2  0
 24 43  1  0
 25 24  1  0
 25 28  1  0
 26 23  1  0
 26 27  1  0
 27 25  2  0
 28 29  1  0
 29 30  2  0
 31 34  1  0
 31 30  1  0
 32 31  2  0
 33 32  1  0
 33 28  2  0
 34 35  1  0
 35 40  2  0
 35 36  1  0
 36 37  2  0
 38 37  1  0
 38 42  1  0
 39 38  2  0
 40 39  1  0
 41 40  1  0
 43 44  1  0
 44 47  1  0
 44 46  1  0
 45 43  2  0
 48 49  1  0
 48 23  1  0
 50 48  1  0
 51  2  1  0
 51 52  1  0
 53 56  2  0
 54 55  1  0
 55 52  1  0
 55 53  1  0
 57 53  1  0
 57 58  1  0
 58 60  1  0
 59 70  2  0
 60 65  1  0
 61 69  1  0
 61 71  1  0
 62 68  1  0
 62 64  1  0
 63 69  1  0
 64 63  1  0
 65 64  2  0
 66 67  1  0
 66 60  2  0
 67 62  2  0
 68 61  1  0
 69 59  1  0
 71 73  2  0
 72 71  1  0
 74 72  1  0
 75 84  2  0
 75 80  1  0
 76 72  1  0
 76 80  1  0
 77 76  1  0
 78 79  1  0
 78 77  1  0
 79 75  1  0
 80 81  2  0
 81 82  1  0
 83 82  2  0
 84 83  1  0
 85 59  1  0
 85 86  1  0
 85 95  1  0
 86 89  1  0
 87 91  1  0
 87 86  1  0
 88 87  2  0
 91 90  1  0
 93 91  1  0
 93 94  1  0
 93 92  1  0
 95 98  1  1
 95 96  1  0
 97 95  1  0
M  ISO  4  13 100  21 100  57 101  58 101
M  END
>  <TORSDO>  (77) 
F 22

>  <SCORE>  (77) 
-10.248

>  <name>  (77) 
76

>  <ligand_id>  (77) 
76

>  <original_smiles>  (77) 
[H]c1c([H])c([H])c2c(c1[H])C([H])([H])C([H])([H])C([H])([H])C2([H])N([H])C(=O)C1([H])N(C(=O)C([H])(N([H])C(=O)C([H])(N([H])C([H])([H])[H])C([H])([H])[H])C(C([H])([H])[H])(C([H])([H])[H])C([H])([H])[H])C([H])([H])c2c([H])c(OC([H])([H])C(=O)N(C([H])([H])[H])C([H])([H])C([H])([H])[N+]([H])(C([H])([H])[H])C([H])([H])c3c([H])c(F)c(F)c(N([H])C(=O)N4C([H])([H])C([H])([H])C([H])([H])C([H])(n5nc(-c6c([H])c([H])c(Oc7c([H])c([H])c(F)c([H])c7F)c([H])c6[H])c(C(=O)N([H])[H])c5N([H])[H])C4([H])[H])c3[H])c([H])c([H])c2C1([H])[H]

>  <smiles>  (77) 
[H]c1c([H])c([H])c2c(c1[H])C([H])([H])C([H])([H])C([H])([H])C2([H])N([H])C(=O)C1([H])N(C(=O)C([H])(N([H])C(=O)C([H])(N([H])C([H])([H])[H])C([H])([H])[H])C(C([H])([H])[H])(C([H])([H])[H])C([H])([H])[H])C([H])([H])c2c([H])c(OC([H])([H])C(=O)N(C([H])([H])[H])C([H])([H])C([H])([H])[N+]([H])(C([H])([H])[H])C([H])([H])c3c([H])c(F)c(F)c(N([H])C(=O)N4C([H])([H])C([H])([H])C([H])([H])C([H])(n5nc(-c6c([H])c([H])c(Oc7c([H])c([H])c(F)c([H])c7F)c([H])c6[H])c(C(=O)N([H])[H])c5N([H])[H])C4([H])[H])c3[H])c([H])c([H])c2C1([H])[H]

$$$$
77:0:0
     RDKit          3D

 95103  0  0  1  0  0  0  0  0999 V2000
  -29.8540  -22.0820   19.8330 C   0  0  0  0  0  2  0  0  0  0  0  0
  -31.4400  -21.2720   18.0670 C   0  0  0  0  0  1  0  0  0  0  0  0
  -30.5770  -20.9630   19.2090 N   0  0  0  0  0  0  0  0  0  0  0  0
  -29.9730  -17.9180   21.3570 C   0  0  0  0  0  3  0  0  0  0  0  0
  -30.1030  -19.2670   20.9470 C   0  0  0  0  0  3  0  0  0  0  0  0
  -30.4250  -17.1970   19.0890 C   0  0  0  0  0  3  0  0  0  0  0  0
  -30.1580  -16.8640   20.4360 C   0  0  0  0  0  0  0  0  0  0  0  0
  -30.4060  -19.6060   19.6030 C   0  0  0  0  0  0  0  0  0  0  0  0
  -30.5450  -18.5340   18.6750 C   0  0  0  0  0  0  0  0  0  0  0  0
  -30.7800  -18.7550   17.3570 F   0  0  0  0  0  0  0  0  0  0  0  0
  -30.7000  -14.4620   20.3240 C   0  0  0  0  0  0  0  0  0  0  0  0
  -30.3510  -12.3320   19.1560 C   0  0  0  0  0  2  0  0  0  0  0  0
  -29.4010  -12.5940   17.9680 C   0  0  0  0  0  2  0  0  0  0  0  0
  -27.9310  -12.4660   18.4120 C   0  0  0  0  0  2  0  0  0  0  0  0
  -27.6210  -13.2700   19.7050 C   0  0  0  0  0  3  0  0  0  0  0  0
  -28.6890  -13.0120   20.7940 C   0  0  0  0  0  2  0  0  0  0  0  0
  -30.0120  -13.2950   20.2150 N   0  0  0  0  0  0  0  0  0  0  0  0
  -31.8270  -14.6230   19.8470 O   0  0  0  0  0  0  0  0  0  0  0  0
  -30.0200  -15.5010   20.8490 N   0  0  0  0  0  0  0  0  0  0  0  0
  -29.2050  -15.2720   21.3960 H   0  0  0  0  0  0  0  0  0  0  0  0
  -25.2240  -13.8740   20.4270 C   0  0  0  0  0  0  0  0  0  0  0  0
  -24.1610  -13.1010   20.8100 C   0  0  0  0  0  0  0  0  0  0  0  0
  -24.6270  -11.7500   20.7820 C   0  0  0  0  0  0  0  0  0  0  0  0
  -26.2710  -12.9950   20.1930 N   0  0  0  0  0  0  0  0  0  0  0  0
  -25.9140  -11.7120   20.4630 N   0  0  0  0  0  0  0  0  0  0  0  0
  -23.9060  -10.4870   20.9860 C   0  0  0  0  0  0  0  0  0  0  0  0
  -24.3440   -9.5300   21.9280 C   0  0  0  0  0  3  0  0  0  0  0  0
  -23.6230   -8.3310   22.1200 C   0  0  0  0  0  3  0  0  0  0  0  0
  -22.4510   -8.0800   21.3670 C   0  0  0  0  0  0  0  0  0  0  0  0
  -22.0330   -9.0250   20.4140 C   0  0  0  0  0  3  0  0  0  0  0  0
  -22.7530  -10.2160   20.2220 C   0  0  0  0  0  3  0  0  0  0  0  0
  -21.7000   -6.9330   21.4670 O   0  0  0  0  0  0  0  0  0  0  0  0
  -21.6550   -6.2030   22.6280 C   0  0  0  0  0  0  0  0  0  0  0  0
  -21.2110   -6.7660   23.8460 C   0  0  0  0  0  3  0  0  0  0  0  0
  -21.1120   -5.9610   24.9980 C   0  0  0  0  0  3  0  0  0  0  0  0
  -21.4450   -4.5940   24.9340 C   0  0  0  0  0  0  0  0  0  0  0  0
  -21.8810   -4.0320   23.7230 C   0  0  0  0  0  3  0  0  0  0  0  0
  -21.9810   -4.8340   22.5720 C   0  0  0  0  0  0  0  0  0  0  0  0
  -22.3810   -4.2800   21.4010 F   0  0  0  0  0  0  0  0  0  0  0  0
  -21.3430   -3.8200   26.0390 F   0  0  0  0  0  0  0  0  0  0  0  0
  -22.7660  -13.5750   21.0920 C   0  0  0  0  0  0  0  0  0  0  0  0
  -22.0480  -12.8800   21.9680 N   0  0  0  0  0  0  0  0  0  0  0  0
  -22.3200  -14.5960   20.5720 O   0  0  0  0  0  0  0  0  0  0  0  0
  -22.4220  -12.0530   22.4100 H   0  0  0  0  0  0  0  0  0  0  0  0
  -21.1110  -13.1780   22.1990 H   0  0  0  0  0  0  0  0  0  0  0  0
  -25.3850  -15.2440   20.2410 N   0  0  0  0  0  0  0  0  0  0  0  0
  -24.6190  -15.8990   20.3530 H   0  0  0  0  0  0  0  0  0  0  0  0
  -26.2360  -15.6820   19.9100 H   0  0  0  0  0  0  0  0  0  0  0  0
  -30.7840  -23.0330   20.6310 C   0  0  0  0  0  2  0  0  0  0  0  0
  -31.4730  -25.3400   21.0670 C   0  0  0  0  0  1  0  0  0  0  0  0
  -30.3550  -24.4630   20.6330 N   0  0  2  0  0  4  0  0  0  0  0  0
  -30.1820  -24.7100   19.6680 H   0  0  0  0  0  0  0  0  0  0  0  0
  -29.0820  -24.7040   21.3740 C   0  0  0  0  0  2  0  0  0  0  0  0
  -28.6190  -26.1800   21.4350 C   0  0  0  0  0  2  0  0  0  0  0  0
  -28.3180  -26.6950   20.1340 O   0  0  0  0  0  0  0  0  0  0  0  0
  -24.5550  -31.8790   23.2280 C   0  0  0  0  0  0  0  0  0  0  0  0
  -27.1850  -27.4700   20.1180 C   0  0  0  0  0  0  0  0  0  0  0  0
  -23.3390  -30.4800   21.5880 C   0  0  0  0  0  3  0  0  0  0  0  0
  -24.7870  -28.9530   20.1440 C   0  0  0  0  0  0  0  0  0  0  0  0
  -25.8570  -30.8530   21.3680 C   0  0  0  0  0  2  0  0  0  0  0  0
  -25.9450  -29.4840   20.7310 C   0  0  0  0  0  0  0  0  0  0  0  0
  -27.1480  -28.7450   20.7250 C   0  0  0  0  0  3  0  0  0  0  0  0
  -26.0230  -26.9540   19.5150 C   0  0  0  0  0  3  0  0  0  0  0  0
  -24.8200  -27.6860   19.5340 C   0  0  0  0  0  3  0  0  0  0  0  0
  -23.5400  -29.8050   20.2050 C   0  0  0  0  0  2  0  0  0  0  0  0
  -24.6020  -31.0840   22.1210 N   0  0  0  0  0  0  0  0  0  0  0  0
  -23.4780  -32.1480   23.7780 O   0  0  0  0  0  0  0  0  0  0  0  0
  -22.6980  -29.4550   22.5500 C   0  0  0  0  0  0  0  0  0  0  0  0
  -21.3730  -29.2710   22.4300 N   0  0  0  0  0  0  0  0  0  0  0  0
  -23.3880  -28.8280   23.3590 O   0  0  0  0  0  0  0  0  0  0  0  0
  -20.8770  -29.8290   21.7480 H   0  0  0  0  0  0  0  0  0  0  0  0
  -18.0030  -28.0730   22.9410 C   0  0  0  0  0  0  0  0  0  0  0  0
  -20.5620  -28.3300   23.2010 C   0  0  0  0  0  3  0  0  0  0  0  0
  -20.6620  -26.9010   22.6170 C   0  0  0  0  0  2  0  0  0  0  0  0
  -19.5550  -26.5840   21.6070 C   0  0  0  0  0  2  0  0  0  0  0  0
  -18.1760  -26.7260   22.2600 C   0  0  0  0  0  2  0  0  0  0  0  0
  -19.1250  -28.8330   23.3690 C   0  0  0  0  0  0  0  0  0  0  0  0
  -18.9100  -30.0940   23.9650 C   0  0  0  0  0  3  0  0  0  0  0  0
  -17.6070  -30.5970   24.1390 C   0  0  0  0  0  3  0  0  0  0  0  0
  -16.5000  -29.8350   23.7280 C   0  0  0  0  0  3  0  0  0  0  0  0
  -16.6990  -28.5730   23.1360 C   0  0  0  0  0  3  0  0  0  0  0  0
  -25.8460  -32.5080   23.8400 C   0  0  0  0  0  3  0  0  0  0  0  0
  -25.5440  -33.9070   24.1700 N   0  0  0  0  0  0  0  0  0  0  0  0
  -25.8830  -34.9560   23.4070 C   0  0  0  0  0  0  0  0  0  0  0  0
  -26.5550  -34.8480   22.3790 O   0  0  0  0  0  0  0  0  0  0  0  0
  -24.9480  -34.0660   24.9680 H   0  0  0  0  0  0  0  0  0  0  0  0
  -24.1700  -36.7590   23.0330 C   0  0  0  0  0  1  0  0  0  0  0  0
  -25.3990  -36.3470   23.8590 C   0  0  0  0  0  3  0  0  0  0  0  0
  -27.5290  -37.2180   24.7170 C   0  0  0  0  0  1  0  0  0  0  0  0
  -26.4400  -37.3930   23.7590 N   0  0  0  0  0  0  0  0  0  0  0  0
  -26.0380  -38.3160   23.9020 H   0  0  0  0  0  0  0  0  0  0  0  0
  -26.3720  -31.7340   25.1120 C   0  0  1  0  0  0  0  0  0  0  0  0
  -25.2860  -31.4950   26.1860 C   0  0  0  0  0  1  0  0  0  0  0  0
  -26.9510  -30.3580   24.7090 C   0  0  0  0  0  1  0  0  0  0  0  0
  -27.5290  -32.5250   25.7680 C   0  0  0  0  0  1  0  0  0  0  0  0
  1 49  1  0
  2  3  1  0
  3  8  1  0
  3  1  1  0
  5  4  1  0
  6  7  1  0
  7 19  1  0
  7  4  2  0
  8  5  2  0
  9  6  2  0
  9  8  1  0
 10  9  1  0
 11 19  1  0
 12 17  1  0
 13 14  1  0
 13 12  1  0
 15 14  1  0
 15 24  1  0
 15 16  1  0
 17 11  1  0
 17 16  1  0
 18 11  2  0
 19 20  1  0
 21 22  2  0
 22 41  1  0
 23 22  1  0
 23 26  1  0
 24 21  1  0
 24 25  1  0
 25 23  2  0
 26 27  1  0
 27 28  2  0
 29 32  1  0
 29 28  1  0
 30 29  2  0
 31 30  1  0
 31 26  2  0
 32 33  1  0
 33 34  1  0
 34 35  2  0
 36 35  1  0
 36 40  1  0
 37 36  2  0
 38 33  2  0
 38 37  1  0
 39 38  1  0
 41 42  1  0
 42 45  1  0
 42 44  1  0
 43 41  2  0
 46 47  1  0
 46 21  1  0
 48 46  1  0
 49 51  1  0
 51 50  1  0
 51 53  1  0
 51 52  1  6
 53 54  1  0
 55 54  1  0
 56 67  2  0
 57 55  1  0
 57 62  1  0
 58 66  1  0
 58 68  1  0
 59 65  1  0
 59 61  1  0
 60 66  1  0
 61 60  1  0
 62 61  2  0
 63 64  1  0
 63 57  2  0
 64 59  2  0
 65 58  1  0
 66 56  1  0
 68 70  2  0
 69 68  1  0
 71 69  1  0
 72 81  2  0
 72 77  1  0
 73 69  1  0
 73 77  1  0
 74 73  1  0
 75 76  1  0
 75 74  1  0
 76 72  1  0
 77 78  2  0
 78 79  1  0
 80 79  2  0
 81 80  1  0
 82 56  1  0
 82 83  1  0
 82 92  1  0
 83 86  1  0
 84 88  1  0
 84 83  1  0
 85 84  2  0
 88 87  1  0
 90 88  1  0
 90 91  1  0
 90 89  1  0
 92 95  1  1
 92 93  1  0
 94 92  1  0
M  ISO  4  11 100  19 100  54 101  55 101
M  END
>  <TORSDO>  (78) 
F 22

>  <SCORE>  (78) 
-13.179

>  <name>  (78) 
77

>  <ligand_id>  (78) 
77

>  <original_smiles>  (78) 
[H]c1c([H])c([H])c2c(c1[H])C([H])([H])C([H])([H])C([H])([H])C2([H])N([H])C(=O)C1([H])N(C(=O)C([H])(N([H])C(=O)C([H])(N([H])C([H])([H])[H])C([H])([H])[H])C(C([H])([H])[H])(C([H])([H])[H])C([H])([H])[H])C([H])([H])c2c([H])c(OC([H])([H])C([H])([H])[N+]([H])(C([H])([H])[H])C([H])([H])C([H])([H])N(c3c([H])c([H])c(N([H])C(=O)N4C([H])([H])C([H])([H])C([H])([H])C([H])(n5nc(-c6c([H])c([H])c(Oc7c([H])c([H])c(F)c([H])c7F)c([H])c6[H])c(C(=O)N([H])[H])c5N([H])[H])C4([H])[H])c([H])c3F)C([H])([H])[H])c([H])c([H])c2C1([H])[H]

>  <smiles>  (78) 
[H]c1c([H])c([H])c2c(c1[H])C([H])([H])C([H])([H])C([H])([H])C2([H])N([H])C(=O)C1([H])N(C(=O)C([H])(N([H])C(=O)C([H])(N([H])C([H])([H])[H])C([H])([H])[H])C(C([H])([H])[H])(C([H])([H])[H])C([H])([H])[H])C([H])([H])c2c([H])c(OC([H])([H])C([H])([H])[N+]([H])(C([H])([H])[H])C([H])([H])C([H])([H])N(c3c([H])c([H])c(N([H])C(=O)N4C([H])([H])C([H])([H])C([H])([H])C([H])(n5nc(-c6c([H])c([H])c(Oc7c([H])c([H])c(F)c([H])c7F)c([H])c6[H])c(C(=O)N([H])[H])c5N([H])[H])C4([H])[H])c([H])c3F)C([H])([H])[H])c([H])c([H])c2C1([H])[H]

$$$$
78:0:0
     RDKit          3D

104112  0  0  1  0  0  0  0  0999 V2000
  -28.3960  -20.7340   21.8750 C   0  0  0  0  0  2  0  0  0  0  0  0
  -28.8340  -20.2660   20.5600 N   0  0  0  0  0  0  0  0  0  0  0  0
  -28.9780  -21.0120   19.8850 H   0  0  0  0  0  0  0  0  0  0  0  0
  -29.6390  -18.0080   20.7670 C   0  0  0  0  0  3  0  0  0  0  0  0
  -32.0020  -17.4780   20.6920 C   0  0  0  0  0  3  0  0  0  0  0  0
  -31.2850  -19.8240   20.4660 C   0  0  0  0  0  0  0  0  0  0  0  0
  -30.6630  -17.0370   20.7640 C   0  0  0  0  0  0  0  0  0  0  0  0
  -29.9290  -19.3850   20.6020 C   0  0  0  0  0  0  0  0  0  0  0  0
  -32.3100  -18.8410   20.5320 C   0  0  0  0  0  0  0  0  0  0  0  0
  -33.6220  -19.1810   20.4370 F   0  0  0  0  0  0  0  0  0  0  0  0
  -30.9230  -14.6500   20.1580 C   0  0  0  0  0  0  0  0  0  0  0  0
  -30.5910  -12.4680   19.0660 C   0  0  0  0  0  2  0  0  0  0  0  0
  -29.6340  -12.6280   17.8690 C   0  0  0  0  0  2  0  0  0  0  0  0
  -28.1690  -12.4930   18.3250 C   0  0  0  0  0  2  0  0  0  0  0  0
  -27.8410  -13.3730   19.5610 C   0  0  0  0  0  3  0  0  0  0  0  0
  -28.9140  -13.2040   20.6630 C   0  0  0  0  0  2  0  0  0  0  0  0
  -30.2320  -13.4830   20.0690 N   0  0  0  0  0  0  0  0  0  0  0  0
  -32.0040  -14.8170   19.5880 O   0  0  0  0  0  0  0  0  0  0  0  0
  -30.3130  -15.6500   20.8240 N   0  0  0  0  0  0  0  0  0  0  0  0
  -29.4010  -15.4240   21.1910 H   0  0  0  0  0  0  0  0  0  0  0  0
  -25.4590  -13.9810   20.3240 C   0  0  0  0  0  0  0  0  0  0  0  0
  -24.3980  -13.2080   20.7150 C   0  0  0  0  0  0  0  0  0  0  0  0
  -24.8570  -11.8560   20.6700 C   0  0  0  0  0  0  0  0  0  0  0  0
  -26.4980  -13.0990   20.0690 N   0  0  0  0  0  0  0  0  0  0  0  0
  -26.1400  -11.8170   20.3320 N   0  0  0  0  0  0  0  0  0  0  0  0
  -24.1340  -10.5930   20.8720 C   0  0  0  0  0  0  0  0  0  0  0  0
  -24.5340   -9.6620   21.8550 C   0  0  0  0  0  3  0  0  0  0  0  0
  -23.8100   -8.4650   22.0440 C   0  0  0  0  0  3  0  0  0  0  0  0
  -22.6740   -8.1890   21.2470 C   0  0  0  0  0  0  0  0  0  0  0  0
  -22.2930   -9.1100   20.2550 C   0  0  0  0  0  3  0  0  0  0  0  0
  -23.0170  -10.2980   20.0650 C   0  0  0  0  0  3  0  0  0  0  0  0
  -21.9260   -7.0410   21.3420 O   0  0  0  0  0  0  0  0  0  0  0  0
  -21.7740   -6.3770   22.5320 C   0  0  0  0  0  0  0  0  0  0  0  0
  -21.2010   -6.9960   23.6640 C   0  0  0  0  0  3  0  0  0  0  0  0
  -21.0000   -6.2560   24.8470 C   0  0  0  0  0  3  0  0  0  0  0  0
  -21.3620   -4.8960   24.8970 C   0  0  0  0  0  0  0  0  0  0  0  0
  -21.9270   -4.2750   23.7690 C   0  0  0  0  0  3  0  0  0  0  0  0
  -22.1300   -5.0130   22.5890 C   0  0  0  0  0  0  0  0  0  0  0  0
  -22.6560   -4.4050   21.4990 F   0  0  0  0  0  0  0  0  0  0  0  0
  -21.1620   -4.1830   26.0290 F   0  0  0  0  0  0  0  0  0  0  0  0
  -23.0080  -13.6850   21.0220 C   0  0  0  0  0  0  0  0  0  0  0  0
  -22.2970  -12.9840   21.8980 N   0  0  0  0  0  0  0  0  0  0  0  0
  -22.5620  -14.7160   20.5200 O   0  0  0  0  0  0  0  0  0  0  0  0
  -22.6720  -12.1510   22.3260 H   0  0  0  0  0  0  0  0  0  0  0  0
  -21.3650  -13.2860   22.1430 H   0  0  0  0  0  0  0  0  0  0  0  0
  -25.6210  -15.3510   20.1450 N   0  0  0  0  0  0  0  0  0  0  0  0
  -24.8540  -16.0040   20.2650 H   0  0  0  0  0  0  0  0  0  0  0  0
  -26.4600  -15.7880   19.7850 H   0  0  0  0  0  0  0  0  0  0  0  0
  -31.6450  -21.2810   20.2280 C   0  0  0  0  0  0  0  0  0  0  0  0
  -32.7900  -21.7310   20.7280 N   0  0  0  0  0  0  0  0  0  0  0  0
  -30.8700  -22.0650   19.6710 O   0  0  0  0  0  0  0  0  0  0  0  0
  -33.4360  -21.0710   21.1430 H   0  0  0  0  0  0  0  0  0  0  0  0
  -33.0650  -22.6940   20.6070 H   0  0  0  0  0  0  0  0  0  0  0  0
  -27.8750  -22.1870   21.8450 C   0  0  0  0  0  2  0  0  0  0  0  0
  -28.9330  -23.1510   21.4740 N   0  0  0  0  0  4  0  0  0  0  0  0
  -29.3770  -22.8540   20.6130 H   0  0  0  0  0  0  0  0  0  0  0  0
  -29.6400  -23.1320   22.1900 H   0  0  0  0  0  0  0  0  0  0  0  0
  -28.4750  -24.5480   21.3180 C   0  0  0  0  0  2  0  0  0  0  0  0
  -29.5930  -25.4710   20.7710 C   0  0  0  0  0  3  0  0  0  0  0  0
  -30.7120  -25.5470   21.7070 N   0  0  0  0  0  0  0  0  0  0  0  0
  -30.3970  -25.7770   22.6460 H   0  0  0  0  0  0  0  0  0  0  0  0
  -31.2240  -24.6780   21.7860 H   0  0  0  0  0  0  0  0  0  0  0  0
  -29.0820  -26.9070   20.5330 C   0  0  0  0  0  2  0  0  0  0  0  0
  -28.1790  -26.9050   19.4320 O   0  0  0  0  0  0  0  0  0  0  0  0
  -24.4820  -31.7830   23.0990 C   0  0  0  0  0  0  0  0  0  0  0  0
  -27.0360  -27.6550   19.5740 C   0  0  0  0  0  0  0  0  0  0  0  0
  -23.2130  -30.4880   21.4130 C   0  0  0  0  0  3  0  0  0  0  0  0
  -24.6160  -29.0890   19.8090 C   0  0  0  0  0  0  0  0  0  0  0  0
  -25.7140  -30.9150   21.1180 C   0  0  0  0  0  2  0  0  0  0  0  0
  -25.7900  -29.5950   20.3830 C   0  0  0  0  0  0  0  0  0  0  0  0
  -27.0020  -28.8850   20.2710 C   0  0  0  0  0  3  0  0  0  0  0  0
  -25.8540  -27.1640   18.9860 C   0  0  0  0  0  3  0  0  0  0  0  0
  -24.6420  -27.8690   19.1090 C   0  0  0  0  0  3  0  0  0  0  0  0
  -23.3620  -29.9170   19.9770 C   0  0  0  0  0  2  0  0  0  0  0  0
  -24.4900  -31.0710   21.9380 N   0  0  0  0  0  0  0  0  0  0  0  0
  -23.4260  -31.9960   23.7110 O   0  0  0  0  0  0  0  0  0  0  0  0
  -22.6250  -29.3860   22.3230 C   0  0  0  0  0  0  0  0  0  0  0  0
  -21.3050  -29.1640   22.2140 N   0  0  0  0  0  0  0  0  0  0  0  0
  -23.3500  -28.7370   23.0810 O   0  0  0  0  0  0  0  0  0  0  0  0
  -20.7820  -29.7450   21.5740 H   0  0  0  0  0  0  0  0  0  0  0  0
  -17.9970  -27.7830   22.6600 C   0  0  0  0  0  0  0  0  0  0  0  0
  -20.5400  -28.1520   22.9400 C   0  0  0  0  0  3  0  0  0  0  0  0
  -20.7100  -26.7560   22.2970 C   0  0  0  0  0  2  0  0  0  0  0  0
  -19.6210  -26.4280   21.2700 C   0  0  0  0  0  2  0  0  0  0  0  0
  -18.2370  -26.4760   21.9220 C   0  0  0  0  0  2  0  0  0  0  0  0
  -19.0790  -28.5770   23.1230 C   0  0  0  0  0  0  0  0  0  0  0  0
  -18.8030  -29.8010   23.7710 C   0  0  0  0  0  3  0  0  0  0  0  0
  -17.4760  -30.2320   23.9620 C   0  0  0  0  0  3  0  0  0  0  0  0
  -16.4100  -29.4350   23.5150 C   0  0  0  0  0  3  0  0  0  0  0  0
  -16.6690  -28.2120   22.8710 C   0  0  0  0  0  3  0  0  0  0  0  0
  -25.7910  -32.3830   23.7010 C   0  0  0  0  0  3  0  0  0  0  0  0
  -26.3740  -31.5320   24.8970 C   0  0  1  0  0  0  0  0  0  0  0  0
  -25.3330  -31.2140   25.9960 C   0  0  0  0  0  1  0  0  0  0  0  0
  -26.9450  -30.1910   24.3800 C   0  0  0  0  0  1  0  0  0  0  0  0
  -27.5510  -32.2900   25.5570 C   0  0  0  0  0  1  0  0  0  0  0  0
  -25.4900  -33.7530   24.1360 N   0  0  0  0  0  0  0  0  0  0  0  0
  -25.8020  -34.8570   23.4420 C   0  0  0  0  0  0  0  0  0  0  0  0
  -26.4480  -34.8260   22.3900 O   0  0  0  0  0  0  0  0  0  0  0  0
  -24.9150  -33.8480   24.9600 H   0  0  0  0  0  0  0  0  0  0  0  0
  -24.0710  -36.6670   23.2360 C   0  0  0  0  0  1  0  0  0  0  0  0
  -25.3210  -36.2070   24.0020 C   0  0  0  0  0  3  0  0  0  0  0  0
  -27.4650  -37.0330   24.8720 C   0  0  0  0  0  1  0  0  0  0  0  0
  -26.3540  -37.2670   23.9520 N   0  0  0  0  0  0  0  0  0  0  0  0
  -25.9500  -38.1740   24.1670 H   0  0  0  0  0  0  0  0  0  0  0  0
  2  8  1  0
  2  1  1  0
  3  2  1  0
  5  7  2  0
  6  9  2  0
  6  8  1  0
  7  4  1  0
  7 19  1  0
  8  4  2  0
  9  5  1  0
 10  9  1  0
 11 19  1  0
 12 17  1  0
 13 14  1  0
 13 12  1  0
 15 14  1  0
 15 24  1  0
 15 16  1  0
 17 11  1  0
 17 16  1  0
 18 11  2  0
 19 20  1  0
 21 22  2  0
 22 41  1  0
 23 22  1  0
 23 26  1  0
 24 21  1  0
 24 25  1  0
 25 23  2  0
 26 27  1  0
 27 28  2  0
 29 32  1  0
 29 28  1  0
 30 29  2  0
 31 30  1  0
 31 26  2  0
 32 33  1  0
 33 38  2  0
 33 34  1  0
 34 35  2  0
 35 36  1  0
 36 40  1  0
 37 36  2  0
 38 37  1  0
 39 38  1  0
 41 42  1  0
 42 45  1  0
 42 44  1  0
 43 41  2  0
 46 47  1  0
 46 21  1  0
 48 46  1  0
 49  6  1  0
 49 50  1  0
 50 52  1  0
 51 49  2  0
 53 50  1  0
 54  1  1  0
 55 54  1  0
 55 57  1  0
 56 55  1  0
 58 55  1  0
 59 63  1  0
 59 58  1  0
 59 60  1  0
 60 62  1  0
 60 61  1  0
 64 66  1  0
 64 63  1  0
 65 76  2  0
 66 71  1  0
 67 75  1  0
 67 77  1  0
 68 74  1  0
 68 70  1  0
 69 75  1  0
 70 69  1  0
 71 70  2  0
 72 73  1  0
 72 66  2  0
 73 68  2  0
 74 67  1  0
 75 65  1  0
 77 79  2  0
 78 77  1  0
 80 78  1  0
 81 90  2  0
 81 86  1  0
 82 78  1  0
 82 86  1  0
 83 82  1  0
 84 85  1  0
 84 83  1  0
 85 81  1  0
 86 87  2  0
 87 88  1  0
 89 88  2  0
 90 89  1  0
 91 65  1  0
 91 96  1  0
 91 92  1  0
 92 95  1  1
 92 93  1  0
 94 92  1  0
 96 99  1  0
 97101  1  0
 97 96  1  0
 98 97  2  0
101100  1  0
103101  1  0
103104  1  0
103102  1  0
M  ISO  4  11 100  19 100  63 101  64 101
M  END
>  <TORSDO>  (79) 
F 25

>  <SCORE>  (79) 
-11.670

>  <name>  (79) 
78

>  <ligand_id>  (79) 
78

>  <original_smiles>  (79) 
[H]c1c([H])c([H])c2c(c1[H])C([H])([H])C([H])([H])C([H])([H])C2([H])N([H])C(=O)C1([H])N(C(=O)C([H])(N([H])C(=O)C([H])(N([H])C([H])([H])[H])C([H])([H])[H])C(C([H])([H])[H])(C([H])([H])[H])C([H])([H])[H])C([H])([H])c2c([H])c(OC([H])([H])C([H])(N([H])[H])C([H])([H])[N+]([H])([H])C([H])([H])C([H])([H])N([H])c3c([H])c(N([H])C(=O)N4C([H])([H])C([H])([H])C([H])([H])C([H])(n5nc(-c6c([H])c([H])c(Oc7c([H])c([H])c(F)c([H])c7F)c([H])c6[H])c(C(=O)N([H])[H])c5N([H])[H])C4([H])[H])c([H])c(F)c3C(=O)N([H])[H])c([H])c([H])c2C1([H])[H]

>  <smiles>  (79) 
[H]c1c([H])c([H])c2c(c1[H])C([H])([H])C([H])([H])C([H])([H])C2([H])N([H])C(=O)C1([H])N(C(=O)C([H])(N([H])C(=O)C([H])(N([H])C([H])([H])[H])C([H])([H])[H])C(C([H])([H])[H])(C([H])([H])[H])C([H])([H])[H])C([H])([H])c2c([H])c(OC([H])([H])C([H])(N([H])[H])C([H])([H])[N+]([H])([H])C([H])([H])C([H])([H])N([H])c3c([H])c(N([H])C(=O)N4C([H])([H])C([H])([H])C([H])([H])C([H])(n5nc(-c6c([H])c([H])c(Oc7c([H])c([H])c(F)c([H])c7F)c([H])c6[H])c(C(=O)N([H])[H])c5N([H])[H])C4([H])[H])c([H])c(F)c3C(=O)N([H])[H])c([H])c([H])c2C1([H])[H]

$$$$
79:0:0
     RDKit          3D

 94102  0  0  1  0  0  0  0  0999 V2000
  -28.9900  -23.0310   20.8260 C   0  0  1  0  0  0  0  0  0  0  0  0
  -30.2320  -23.4940   20.9820 F   0  0  0  0  0  0  0  0  0  0  0  0
  -28.4580  -20.4610   19.5550 C   0  0  0  0  0  3  0  0  0  0  0  0
  -28.6470  -18.9950   19.3950 C   0  0  0  0  0  3  0  0  0  0  0  0
  -30.5090  -19.0450   20.7430 C   0  0  0  0  0  3  0  0  0  0  0  0
  -29.2480  -21.3590   20.3770 C   0  0  0  0  0  0  0  0  0  0  0  0
  -29.6720  -18.1360   19.9850 C   0  0  0  0  0  0  0  0  0  0  0  0
  -30.3190  -20.5100   20.9250 C   0  0  0  0  0  0  0  0  0  0  0  0
  -31.2110  -21.1080   21.7550 F   0  0  0  0  0  0  0  0  0  0  0  0
  -30.4790  -15.3150   19.8370 C   0  0  0  0  0  0  0  0  0  0  0  0
  -30.3780  -12.8860   18.9300 C   0  0  0  0  0  2  0  0  0  0  0  0
  -29.3710  -12.7220   17.7630 C   0  0  0  0  0  2  0  0  0  0  0  0
  -27.9650  -12.4310   18.3090 C   0  0  0  0  0  2  0  0  0  0  0  0
  -27.5950  -13.3890   19.4690 C   0  0  0  0  0  3  0  0  0  0  0  0
  -28.7140  -13.5290   20.5240 C   0  0  0  0  0  2  0  0  0  0  0  0
  -29.9100  -14.0120   19.8120 N   0  0  0  0  0  0  0  0  0  0  0  0
  -31.6840  -15.3450   19.5490 O   0  0  0  0  0  0  0  0  0  0  0  0
  -29.6510  -16.5250   19.9390 N   0  0  0  0  0  0  0  0  0  0  0  0
  -28.6930  -16.2150   19.9400 H   0  0  0  0  0  0  0  0  0  0  0  0
  -25.3010  -13.9580   20.4250 C   0  0  0  0  0  0  0  0  0  0  0  0
  -24.2600  -13.1860   20.8540 C   0  0  0  0  0  0  0  0  0  0  0  0
  -24.7020  -11.8300   20.7410 C   0  0  0  0  0  0  0  0  0  0  0  0
  -26.3050  -13.0770   20.0690 N   0  0  0  0  0  0  0  0  0  0  0  0
  -25.9660  -11.7870   20.3300 N   0  0  0  0  0  0  0  0  0  0  0  0
  -23.9720  -10.5740   20.9460 C   0  0  0  0  0  0  0  0  0  0  0  0
  -24.4320   -9.5990   21.8580 C   0  0  0  0  0  3  0  0  0  0  0  0
  -23.7100   -8.4010   22.0530 C   0  0  0  0  0  3  0  0  0  0  0  0
  -22.5080   -8.1760   21.3410 C   0  0  0  0  0  0  0  0  0  0  0  0
  -22.0650   -9.1420   20.4190 C   0  0  0  0  0  3  0  0  0  0  0  0
  -22.7880  -10.3300   20.2220 C   0  0  0  0  0  3  0  0  0  0  0  0
  -21.7480   -7.0360   21.4520 O   0  0  0  0  0  0  0  0  0  0  0  0
  -21.7060   -6.3100   22.6150 C   0  0  0  0  0  0  0  0  0  0  0  0
  -21.2650   -6.8720   23.8320 C   0  0  0  0  0  3  0  0  0  0  0  0
  -21.1700   -6.0660   24.9870 C   0  0  0  0  0  3  0  0  0  0  0  0
  -21.5070   -4.7010   24.9210 C   0  0  0  0  0  0  0  0  0  0  0  0
  -21.9450   -4.1400   23.7080 C   0  0  0  0  0  3  0  0  0  0  0  0
  -22.0430   -4.9420   22.5590 C   0  0  0  0  0  0  0  0  0  0  0  0
  -22.4420   -4.3910   21.3880 F   0  0  0  0  0  0  0  0  0  0  0  0
  -21.4100   -3.9260   26.0270 F   0  0  0  0  0  0  0  0  0  0  0  0
  -22.8940  -13.6730   21.2420 C   0  0  0  0  0  0  0  0  0  0  0  0
  -22.2170  -12.9670   22.1370 N   0  0  0  0  0  0  0  0  0  0  0  0
  -22.4360  -14.7170   20.7750 O   0  0  0  0  0  0  0  0  0  0  0  0
  -22.5960  -12.1250   22.5470 H   0  0  0  0  0  0  0  0  0  0  0  0
  -21.2970  -13.2740   22.4160 H   0  0  0  0  0  0  0  0  0  0  0  0
  -25.4740  -15.3330   20.2760 N   0  0  0  0  0  0  0  0  0  0  0  0
  -24.7240  -15.9880   20.4670 H   0  0  0  0  0  0  0  0  0  0  0  0
  -26.3030  -15.7830   19.9160 H   0  0  0  0  0  0  0  0  0  0  0  0
  -28.3790  -23.0390   22.2760 C   0  0  0  0  0  2  0  0  0  0  0  0
  -29.2060  -22.4060   23.3410 N   0  0  0  0  0  4  0  0  0  0  0  0
  -29.0140  -21.4220   23.4000 H   0  0  0  0  0  0  0  0  0  0  0  0
  -28.9840  -22.7890   24.2470 H   0  0  0  0  0  0  0  0  0  0  0  0
  -30.1910  -22.5380   23.1740 H   0  0  0  0  0  0  0  0  0  0  0  0
  -28.2360  -24.4280   20.0170 C   0  0  0  0  0  2  0  0  0  0  0  0
  -28.2650  -26.0350   20.3300 O   0  0  0  0  0  0  0  0  0  0  0  0
  -24.6230  -31.8570   23.1950 C   0  0  0  0  0  0  0  0  0  0  0  0
  -27.2230  -27.0770   20.1760 C   0  0  0  0  0  0  0  0  0  0  0  0
  -23.4370  -30.4740   21.5390 C   0  0  0  0  0  3  0  0  0  0  0  0
  -24.8990  -28.9030   20.0970 C   0  0  0  0  0  0  0  0  0  0  0  0
  -25.9940  -30.7240   21.3910 C   0  0  0  0  0  2  0  0  0  0  0  0
  -26.0750  -29.3270   20.7260 C   0  0  0  0  0  0  0  0  0  0  0  0
  -27.2330  -28.4400   20.7350 C   0  0  0  0  0  3  0  0  0  0  0  0
  -26.0200  -26.7860   19.4910 C   0  0  0  0  0  3  0  0  0  0  0  0
  -24.8940  -27.6510   19.4570 C   0  0  0  0  0  3  0  0  0  0  0  0
  -23.6710  -29.8140   20.1500 C   0  0  0  0  0  2  0  0  0  0  0  0
  -24.7040  -31.0460   22.0970 N   0  0  0  0  0  0  0  0  0  0  0  0
  -23.5340  -32.1370   23.7220 O   0  0  0  0  0  0  0  0  0  0  0  0
  -22.7570  -29.4590   22.4930 C   0  0  0  0  0  0  0  0  0  0  0  0
  -21.4350  -29.2570   22.3440 N   0  0  0  0  0  0  0  0  0  0  0  0
  -23.4230  -28.8510   23.3360 O   0  0  0  0  0  0  0  0  0  0  0  0
  -20.9490  -29.8030   21.6460 H   0  0  0  0  0  0  0  0  0  0  0  0
  -18.0850  -27.9270   22.7500 C   0  0  0  0  0  0  0  0  0  0  0  0
  -20.6220  -28.2990   23.0990 C   0  0  0  0  0  3  0  0  0  0  0  0
  -20.8010  -26.8640   22.5500 C   0  0  0  0  0  2  0  0  0  0  0  0
  -19.7520  -26.4860   21.5000 C   0  0  0  0  0  2  0  0  0  0  0  0
  -18.3410  -26.5800   22.0920 C   0  0  0  0  0  2  0  0  0  0  0  0
  -19.1570  -28.7410   23.2050 C   0  0  0  0  0  0  0  0  0  0  0  0
  -18.8650  -30.0000   23.7720 C   0  0  0  0  0  3  0  0  0  0  0  0
  -17.5350  -30.4440   23.8950 C   0  0  0  0  0  3  0  0  0  0  0  0
  -16.4780  -29.6320   23.4490 C   0  0  0  0  0  3  0  0  0  0  0  0
  -16.7540  -28.3750   22.8820 C   0  0  0  0  0  3  0  0  0  0  0  0
  -25.8970  -32.4950   23.8290 C   0  0  0  0  0  3  0  0  0  0  0  0
  -26.3880  -31.7410   25.1270 C   0  0  1  0  0  0  0  0  0  0  0  0
  -25.2820  -31.5280   26.1830 C   0  0  0  0  0  1  0  0  0  0  0  0
  -26.9770  -30.3540   24.7780 C   0  0  0  0  0  1  0  0  0  0  0  0
  -27.5270  -32.5440   25.7990 C   0  0  0  0  0  1  0  0  0  0  0  0
  -25.5870  -33.9000   24.1490 N   0  0  0  0  0  0  0  0  0  0  0  0
  -25.9030  -34.9520   23.3790 C   0  0  0  0  0  0  0  0  0  0  0  0
  -26.5550  -34.8410   22.3350 O   0  0  0  0  0  0  0  0  0  0  0  0
  -25.0220  -34.0590   24.9700 H   0  0  0  0  0  0  0  0  0  0  0  0
  -24.1580  -36.7390   23.0470 C   0  0  0  0  0  1  0  0  0  0  0  0
  -25.4210  -36.3470   23.8330 C   0  0  0  0  0  3  0  0  0  0  0  0
  -27.5670  -37.2560   24.6070 C   0  0  0  0  0  1  0  0  0  0  0  0
  -26.4460  -37.4040   23.6810 N   0  0  0  0  0  0  0  0  0  0  0  0
  -26.0360  -38.3230   23.8250 H   0  0  0  0  0  0  0  0  0  0  0  0
  1  2  1  1
  1 48  1  0
  3  6  1  0
  4  3  2  0
  4  7  1  0
  5  8  1  0
  6  1  1  0
  6  8  2  0
  7  5  2  0
  8  9  1  0
 10 18  1  0
 11 16  1  0
 12 13  1  0
 12 11  1  0
 14 13  1  0
 14 23  1  0
 14 15  1  0
 16 10  1  0
 16 15  1  0
 17 10  2  0
 18 19  1  0
 18  7  1  0
 20 21  2  0
 21 40  1  0
 22 21  1  0
 22 25  1  0
 23 24  1  0
 23 20  1  0
 24 22  2  0
 25 26  1  0
 26 27  2  0
 28 31  1  0
 28 27  1  0
 29 28  2  0
 30 29  1  0
 30 25  2  0
 31 32  1  0
 32 33  1  0
 33 34  2  0
 35 34  1  0
 35 39  1  0
 36 35  2  0
 37 32  2  0
 37 36  1  0
 38 37  1  0
 40 41  1  0
 41 44  1  0
 41 43  1  0
 42 40  2  0
 45 20  1  0
 45 46  1  0
 47 45  1  0
 48 49  1  0
 49 50  1  0
 49 51  1  0
 52 49  1  0
 53 54  1  0
 53  1  1  0
 55 66  2  0
 56 54  1  0
 56 61  1  0
 57 65  1  0
 57 67  1  0
 58 64  1  0
 58 60  1  0
 59 65  1  0
 60 61  2  0
 60 59  1  0
 62 56  2  0
 63 62  1  0
 63 58  2  0
 64 57  1  0
 65 55  1  0
 67 69  2  0
 68 67  1  0
 70 68  1  0
 71 80  2  0
 71 76  1  0
 72 68  1  0
 72 76  1  0
 73 72  1  0
 74 75  1  0
 74 73  1  0
 75 71  1  0
 76 77  2  0
 77 78  1  0
 79 78  2  0
 80 79  1  0
 81 55  1  0
 81 86  1  0
 81 82  1  0
 82 85  1  1
 82 83  1  0
 84 82  1  0
 86 89  1  0
 87 91  1  0
 87 86  1  0
 88 87  2  0
 91 90  1  0
 93 94  1  0
 93 91  1  0
 93 92  1  0
M  ISO  4  10 100  18 100  53 101  54 101
M  END
>  <TORSDO>  (80) 
F 20

>  <SCORE>  (80) 
-14.997

>  <name>  (80) 
79

>  <ligand_id>  (80) 
79

>  <original_smiles>  (80) 
[H]c1c([H])c([H])c2c(c1[H])C([H])([H])C([H])([H])C([H])([H])C2([H])N([H])C(=O)C1([H])N(C(=O)C([H])(N([H])C(=O)C([H])(N([H])C([H])([H])[H])C([H])([H])[H])C(C([H])([H])[H])(C([H])([H])[H])C([H])([H])[H])C([H])([H])c2c([H])c(OC([H])([H])C(F)(c3c([H])c([H])c(N([H])C(=O)N4C([H])([H])C([H])([H])C([H])([H])C([H])(n5nc(-c6c([H])c([H])c(Oc7c([H])c([H])c(F)c([H])c7F)c([H])c6[H])c(C(=O)N([H])[H])c5N([H])[H])C4([H])[H])c([H])c3F)C([H])([H])[N+]([H])([H])[H])c([H])c([H])c2C1([H])[H]

>  <smiles>  (80) 
[H]c1c([H])c([H])c2c(c1[H])C([H])([H])C([H])([H])C([H])([H])C2([H])N([H])C(=O)C1([H])N(C(=O)C([H])(N([H])C(=O)C([H])(N([H])C([H])([H])[H])C([H])([H])[H])C(C([H])([H])[H])(C([H])([H])[H])C([H])([H])[H])C([H])([H])c2c([H])c(OC([H])([H])C(F)(c3c([H])c([H])c(N([H])C(=O)N4C([H])([H])C([H])([H])C([H])([H])C([H])(n5nc(-c6c([H])c([H])c(Oc7c([H])c([H])c(F)c([H])c7F)c([H])c6[H])c(C(=O)N([H])[H])c5N([H])[H])C4([H])[H])c([H])c3F)C([H])([H])[N+]([H])([H])[H])c([H])c([H])c2C1([H])[H]

$$$$
80:0:0
     RDKit          3D

 94103  0  0  1  0  0  0  0  0999 V2000
  -28.6430  -22.8010   20.0190 C   0  0  0  0  0  3  0  0  0  0  0  0
  -30.9580  -22.1010   20.1990 C   0  0  0  0  0  3  0  0  0  0  0  0
  -29.5910  -21.7420   20.1620 C   0  0  0  0  0  0  0  0  0  0  0  0
  -29.0290  -24.1720   19.8860 C   0  0  0  0  0  0  0  0  0  0  0  0
  -31.3580  -23.4470   20.0530 C   0  0  0  0  0  0  0  0  0  0  0  0
  -30.4060  -24.4780   19.8900 C   0  0  0  0  0  0  0  0  0  0  0  0
  -32.6770  -23.7520   20.0780 F   0  0  0  0  0  0  0  0  0  0  0  0
  -30.8290  -25.7560   19.7440 F   0  0  0  0  0  0  0  0  0  0  0  0
  -29.1480  -20.3010   20.4250 C   0  0  0  0  0  0  0  0  0  0  0  0
  -30.7450  -19.3260   18.7660 C   0  0  0  0  0  1  0  0  0  0  0  0
  -29.8240  -19.2230   19.9090 N   0  0  0  0  0  0  0  0  0  0  0  0
  -28.1560  -20.1500   21.1420 O   0  0  0  0  0  0  0  0  0  0  0  0
  -30.7740  -14.6990   19.9740 C   0  0  0  0  0  0  0  0  0  0  0  0
  -30.4970  -12.4520   18.9800 C   0  0  0  0  0  2  0  0  0  0  0  0
  -29.4850  -12.5540   17.8190 C   0  0  0  0  0  2  0  0  0  0  0  0
  -28.0420  -12.3930   18.3380 C   0  0  0  0  0  2  0  0  0  0  0  0
  -27.7440  -13.2820   19.5750 C   0  0  0  0  0  3  0  0  0  0  0  0
  -28.8690  -13.1780   20.6290 C   0  0  0  0  0  2  0  0  0  0  0  0
  -30.1400  -13.4910   19.9610 N   0  0  0  0  0  0  0  0  0  0  0  0
  -31.9130  -14.8490   19.5230 O   0  0  0  0  0  0  0  0  0  0  0  0
  -29.5500  -16.6980   19.2130 C   0  0  0  0  0  2  0  0  0  0  0  0
  -30.5140  -16.9780   21.0050 C   0  0  0  0  0  2  0  0  0  0  0  0
  -29.4450  -17.8060   20.2760 C   0  0  0  0  0  3  0  0  0  0  0  0
  -30.0040  -15.7800   20.2870 N   0  0  0  0  0  0  0  0  0  0  0  0
  -25.4180  -13.8700   20.4980 C   0  0  0  0  0  0  0  0  0  0  0  0
  -24.3710  -13.0900   20.9070 C   0  0  0  0  0  0  0  0  0  0  0  0
  -24.8130  -11.7380   20.7800 C   0  0  0  0  0  0  0  0  0  0  0  0
  -26.4320  -12.9930   20.1460 N   0  0  0  0  0  0  0  0  0  0  0  0
  -26.0760  -11.7030   20.3740 N   0  0  0  0  0  0  0  0  0  0  0  0
  -24.0880  -10.4750   20.9660 C   0  0  0  0  0  0  0  0  0  0  0  0
  -24.5140   -9.5100   21.9050 C   0  0  0  0  0  3  0  0  0  0  0  0
  -23.7880   -8.3110   22.0790 C   0  0  0  0  0  3  0  0  0  0  0  0
  -22.6240   -8.0680   21.3110 C   0  0  0  0  0  0  0  0  0  0  0  0
  -22.2190   -9.0210   20.3600 C   0  0  0  0  0  3  0  0  0  0  0  0
  -22.9450  -10.2120   20.1850 C   0  0  0  0  0  3  0  0  0  0  0  0
  -21.8730   -6.9210   21.3930 O   0  0  0  0  0  0  0  0  0  0  0  0
  -21.7390   -6.2310   22.5710 C   0  0  0  0  0  0  0  0  0  0  0  0
  -21.1320   -6.8080   23.7070 C   0  0  0  0  0  3  0  0  0  0  0  0
  -20.9520   -6.0400   24.8750 C   0  0  0  0  0  3  0  0  0  0  0  0
  -21.3680   -4.6950   24.9060 C   0  0  0  0  0  0  0  0  0  0  0  0
  -21.9670   -4.1180   23.7720 C   0  0  0  0  0  3  0  0  0  0  0  0
  -22.1490   -4.8830   22.6080 C   0  0  0  0  0  0  0  0  0  0  0  0
  -22.7070   -4.3140   21.5120 F   0  0  0  0  0  0  0  0  0  0  0  0
  -21.1880   -3.9550   26.0250 F   0  0  0  0  0  0  0  0  0  0  0  0
  -23.0040  -13.5660   21.3050 C   0  0  0  0  0  0  0  0  0  0  0  0
  -22.3400  -12.8460   22.2020 N   0  0  0  0  0  0  0  0  0  0  0  0
  -22.5340  -14.6120   20.8560 O   0  0  0  0  0  0  0  0  0  0  0  0
  -22.7340  -12.0010   22.5880 H   0  0  0  0  0  0  0  0  0  0  0  0
  -21.4250  -13.1460   22.5090 H   0  0  0  0  0  0  0  0  0  0  0  0
  -25.5860  -15.2470   20.3740 N   0  0  0  0  0  0  0  0  0  0  0  0
  -24.8410  -15.9050   20.5780 H   0  0  0  0  0  0  0  0  0  0  0  0
  -26.4280  -15.6930   20.0340 H   0  0  0  0  0  0  0  0  0  0  0  0
  -27.9360  -25.2530   19.7040 C   0  0  0  0  0  2  0  0  0  0  0  0
  -28.1980  -26.6510   20.0540 O   0  0  0  0  0  0  0  0  0  0  0  0
  -24.6270  -31.9090   23.3910 C   0  0  0  0  0  0  0  0  0  0  0  0
  -27.0870  -27.5030   20.0480 C   0  0  0  0  0  0  0  0  0  0  0  0
  -23.3570  -30.6130   21.7170 C   0  0  0  0  0  3  0  0  0  0  0  0
  -24.7450  -29.1240   20.1800 C   0  0  0  0  0  0  0  0  0  0  0  0
  -25.8940  -30.9110   21.4830 C   0  0  0  0  0  2  0  0  0  0  0  0
  -25.9350  -29.5690   20.7690 C   0  0  0  0  0  0  0  0  0  0  0  0
  -27.1090  -28.7700   20.6970 C   0  0  0  0  0  3  0  0  0  0  0  0
  -25.8740  -27.1110   19.4290 C   0  0  0  0  0  3  0  0  0  0  0  0
  -24.7140  -27.8980   19.5040 C   0  0  0  0  0  3  0  0  0  0  0  0
  -23.5230  -30.0070   20.3000 C   0  0  0  0  0  2  0  0  0  0  0  0
  -24.6460  -31.1570   22.2540 N   0  0  0  0  0  0  0  0  0  0  0  0
  -23.5620  -32.1780   23.9660 O   0  0  0  0  0  0  0  0  0  0  0  0
  -22.7040  -29.5580   22.6410 C   0  0  0  0  0  0  0  0  0  0  0  0
  -21.3870  -29.3490   22.4780 N   0  0  0  0  0  0  0  0  0  0  0  0
  -23.3810  -28.9330   23.4610 O   0  0  0  0  0  0  0  0  0  0  0  0
  -20.9000  -29.9050   21.7900 H   0  0  0  0  0  0  0  0  0  0  0  0
  -18.0410  -28.0250   22.8310 C   0  0  0  0  0  0  0  0  0  0  0  0
  -20.5730  -28.3790   23.2140 C   0  0  0  0  0  3  0  0  0  0  0  0
  -20.7540  -26.9540   22.6420 C   0  0  0  0  0  2  0  0  0  0  0  0
  -19.7090  -26.5930   21.5810 C   0  0  0  0  0  2  0  0  0  0  0  0
  -18.2960  -26.6840   22.1640 C   0  0  0  0  0  2  0  0  0  0  0  0
  -19.1100  -28.8280   23.3100 C   0  0  0  0  0  0  0  0  0  0  0  0
  -18.8190  -30.0820   23.8910 C   0  0  0  0  0  3  0  0  0  0  0  0
  -17.4900  -30.5340   24.0000 C   0  0  0  0  0  3  0  0  0  0  0  0
  -16.4340  -29.7280   23.5390 C   0  0  0  0  0  3  0  0  0  0  0  0
  -16.7100  -28.4770   22.9600 C   0  0  0  0  0  3  0  0  0  0  0  0
  -25.9360  -32.4880   24.0090 C   0  0  0  0  0  3  0  0  0  0  0  0
  -25.6880  -33.9010   24.3290 N   0  0  0  0  0  0  0  0  0  0  0  0
  -26.0100  -34.9290   23.5330 C   0  0  0  0  0  0  0  0  0  0  0  0
  -26.6180  -34.7870   22.4680 O   0  0  0  0  0  0  0  0  0  0  0  0
  -25.1420  -34.0870   25.1570 H   0  0  0  0  0  0  0  0  0  0  0  0
  -24.2920  -36.7480   23.2760 C   0  0  0  0  0  1  0  0  0  0  0  0
  -25.5910  -36.3390   23.9900 C   0  0  0  0  0  3  0  0  0  0  0  0
  -27.7950  -37.2130   24.6290 C   0  0  0  0  0  1  0  0  0  0  0  0
  -26.6290  -37.3660   23.7600 N   0  0  0  0  0  0  0  0  0  0  0  0
  -26.2510  -38.2990   23.9010 H   0  0  0  0  0  0  0  0  0  0  0  0
  -26.4170  -31.7030   25.2900 C   0  0  1  0  0  0  0  0  0  0  0  0
  -25.3110  -31.5070   26.3530 C   0  0  0  0  0  1  0  0  0  0  0  0
  -26.9520  -30.3030   24.9060 C   0  0  0  0  0  1  0  0  0  0  0  0
  -27.5910  -32.4560   25.9580 C   0  0  0  0  0  1  0  0  0  0  0  0
  1  3  1  0
  3  2  2  0
  3  9  1  0
  4  6  1  0
  4  1  2  0
  5  7  1  0
  5  2  1  0
  6  5  2  0
  8  6  1  0
  9 12  2  0
 10 11  1  0
 11  9  1  0
 13 24  1  0
 14 19  1  0
 15 16  1  0
 15 14  1  0
 17 16  1  0
 17 28  1  0
 17 18  1  0
 19 13  1  0
 19 18  1  0
 20 13  2  0
 21 23  1  0
 21 24  1  0
 23 11  1  0
 23 22  1  0
 24 22  1  0
 25 26  2  0
 26 45  1  0
 27 26  1  0
 27 30  1  0
 28 29  1  0
 28 25  1  0
 29 27  2  0
 30 31  1  0
 31 32  2  0
 33 36  1  0
 33 32  1  0
 34 33  2  0
 35 34  1  0
 35 30  2  0
 36 37  1  0
 37 42  2  0
 37 38  1  0
 38 39  2  0
 39 40  1  0
 40 44  1  0
 41 40  2  0
 42 41  1  0
 43 42  1  0
 45 46  1  0
 46 49  1  0
 46 48  1  0
 47 45  2  0
 50 25  1  0
 50 51  1  0
 52 50  1  0
 53  4  1  0
 53 54  1  0
 55 66  2  0
 56 54  1  0
 56 61  1  0
 57 65  1  0
 57 67  1  0
 58 64  1  0
 58 60  1  0
 59 65  1  0
 60 59  1  0
 61 60  2  0
 62 63  1  0
 62 56  2  0
 63 58  2  0
 64 57  1  0
 65 55  1  0
 67 69  2  0
 68 67  1  0
 70 68  1  0
 71 80  2  0
 71 76  1  0
 72 68  1  0
 72 76  1  0
 73 72  1  0
 74 75  1  0
 74 73  1  0
 75 71  1  0
 76 77  2  0
 77 78  1  0
 79 78  2  0
 80 79  1  0
 81 55  1  0
 81 82  1  0
 81 91  1  0
 82 85  1  0
 83 87  1  0
 83 82  1  0
 84 83  2  0
 87 86  1  0
 89 90  1  0
 89 87  1  0
 89 88  1  0
 91 94  1  1
 91 92  1  0
 93 91  1  0
M  ISO  4  13 100  24 100  53 101  54 101
M  END
>  <TORSDO>  (81) 
F 18

>  <SCORE>  (81) 
-14.367

>  <name>  (81) 
80

>  <ligand_id>  (81) 
80

>  <original_smiles>  (81) 
[H]c1c([H])c([H])c2c(c1[H])C([H])([H])C([H])([H])C([H])([H])C2([H])N([H])C(=O)C1([H])N(C(=O)C([H])(N([H])C(=O)C([H])(N([H])C([H])([H])[H])C([H])([H])[H])C(C([H])([H])[H])(C([H])([H])[H])C([H])([H])[H])C([H])([H])c2c([H])c(OC([H])([H])c3c([H])c(C(=O)N(C([H])([H])[H])C4([H])C([H])([H])N(C(=O)N5C([H])([H])C([H])([H])C([H])([H])C([H])(n6nc(-c7c([H])c([H])c(Oc8c([H])c([H])c(F)c([H])c8F)c([H])c7[H])c(C(=O)N([H])[H])c6N([H])[H])C5([H])[H])C4([H])[H])c([H])c(F)c3F)c([H])c([H])c2C1([H])[H]

>  <smiles>  (81) 
[H]c1c([H])c([H])c2c(c1[H])C([H])([H])C([H])([H])C([H])([H])C2([H])N([H])C(=O)C1([H])N(C(=O)C([H])(N([H])C(=O)C([H])(N([H])C([H])([H])[H])C([H])([H])[H])C(C([H])([H])[H])(C([H])([H])[H])C([H])([H])[H])C([H])([H])c2c([H])c(OC([H])([H])c3c([H])c(C(=O)N(C([H])([H])[H])C4([H])C([H])([H])N(C(=O)N5C([H])([H])C([H])([H])C([H])([H])C([H])(n6nc(-c7c([H])c([H])c(Oc8c([H])c([H])c(F)c([H])c8F)c([H])c7[H])c(C(=O)N([H])[H])c6N([H])[H])C5([H])[H])C4([H])[H])c([H])c(F)c3F)c([H])c([H])c2C1([H])[H]

$$$$
81:0:0
     RDKit          3D

101110  0  0  1  0  0  0  0  0999 V2000
  -25.2050  -24.0760   21.8610 C   0  0  0  0  0  2  0  0  0  0  0  0
  -25.6300  -22.6370   21.5950 C   0  0  0  0  0  2  0  0  0  0  0  0
  -26.5470  -24.7960   21.7770 C   0  0  0  0  0  2  0  0  0  0  0  0
  -26.8120  -22.7710   20.5980 C   0  0  0  0  0  3  0  0  0  0  0  0
  -27.1510  -24.2530   20.5440 N   0  0  0  0  0  0  0  0  0  0  0  0
  -27.9380  -21.7600   20.9830 C   0  0  0  0  0  0  0  0  0  0  0  0
  -27.8960  -20.5410   20.4140 N   0  0  0  0  0  0  0  0  0  0  0  0
  -28.8090  -22.1130   21.7830 O   0  0  0  0  0  0  0  0  0  0  0  0
  -27.1210  -20.4060   19.7720 H   0  0  0  0  0  0  0  0  0  0  0  0
  -28.4940  -18.3060   19.7110 C   0  0  0  0  0  3  0  0  0  0  0  0
  -29.7910  -19.2730   21.5230 C   0  0  0  0  0  3  0  0  0  0  0  0
  -29.2070  -17.0960   19.8470 C   0  0  0  0  0  3  0  0  0  0  0  0
  -30.4820  -18.0450   21.6840 C   0  0  0  0  0  3  0  0  0  0  0  0
  -28.7490  -19.4000   20.5620 C   0  0  0  0  0  0  0  0  0  0  0  0
  -30.1840  -16.9300   20.8600 C   0  0  0  0  0  0  0  0  0  0  0  0
  -31.2230  -14.8070   20.1150 C   0  0  0  0  0  0  0  0  0  0  0  0
  -30.8870  -12.6300   18.9770 C   0  0  0  0  0  2  0  0  0  0  0  0
  -29.8930  -12.7780   17.8020 C   0  0  0  0  0  2  0  0  0  0  0  0
  -28.4370  -12.6270   18.2870 C   0  0  0  0  0  2  0  0  0  0  0  0
  -28.1410  -13.4950   19.5380 C   0  0  0  0  0  3  0  0  0  0  0  0
  -29.2400  -13.3190   20.6130 C   0  0  0  0  0  2  0  0  0  0  0  0
  -30.5490  -13.6260   20.0110 N   0  0  0  0  0  0  0  0  0  0  0  0
  -32.1920  -15.0830   19.4020 O   0  0  0  0  0  0  0  0  0  0  0  0
  -30.8210  -15.6640   21.0830 N   0  0  0  0  0  0  0  0  0  0  0  0
  -31.0080  -15.3700   22.0430 H   0  0  0  0  0  0  0  0  0  0  0  0
  -25.8020  -14.1060   20.4390 C   0  0  0  0  0  0  0  0  0  0  0  0
  -24.7440  -13.3300   20.8400 C   0  0  0  0  0  0  0  0  0  0  0  0
  -25.1790  -11.9780   20.7150 C   0  0  0  0  0  0  0  0  0  0  0  0
  -26.8120  -13.2220   20.0870 N   0  0  0  0  0  0  0  0  0  0  0  0
  -26.4440  -11.9340   20.3100 N   0  0  0  0  0  0  0  0  0  0  0  0
  -24.4450  -10.7140   20.8970 C   0  0  0  0  0  0  0  0  0  0  0  0
  -24.8180   -9.7790   21.8870 C   0  0  0  0  0  3  0  0  0  0  0  0
  -24.0860   -8.5830   22.0630 C   0  0  0  0  0  3  0  0  0  0  0  0
  -22.9630   -8.3110   21.2450 C   0  0  0  0  0  0  0  0  0  0  0  0
  -22.6080   -9.2360   20.2450 C   0  0  0  0  0  3  0  0  0  0  0  0
  -23.3430  -10.4220   20.0690 C   0  0  0  0  0  3  0  0  0  0  0  0
  -22.2190   -7.1570   21.3160 O   0  0  0  0  0  0  0  0  0  0  0  0
  -21.9550   -6.5460   22.5170 C   0  0  0  0  0  0  0  0  0  0  0  0
  -21.3100   -7.2260   23.5740 C   0  0  0  0  0  3  0  0  0  0  0  0
  -20.9920   -6.5370   24.7630 C   0  0  0  0  0  3  0  0  0  0  0  0
  -21.3140   -5.1750   24.8950 C   0  0  0  0  0  0  0  0  0  0  0  0
  -21.9510   -4.4950   23.8430 C   0  0  0  0  0  3  0  0  0  0  0  0
  -22.2690   -5.1790   22.6560 C   0  0  0  0  0  0  0  0  0  0  0  0
  -22.8630   -4.5180   21.6350 F   0  0  0  0  0  0  0  0  0  0  0  0
  -21.0040   -4.5090   26.0340 F   0  0  0  0  0  0  0  0  0  0  0  0
  -23.3760  -13.8160   21.2270 C   0  0  0  0  0  0  0  0  0  0  0  0
  -22.7170  -13.1210   22.1510 N   0  0  0  0  0  0  0  0  0  0  0  0
  -22.9130  -14.8480   20.7530 O   0  0  0  0  0  0  0  0  0  0  0  0
  -23.1180  -12.2890   22.5550 H   0  0  0  0  0  0  0  0  0  0  0  0
  -21.8020  -13.4220   22.4560 H   0  0  0  0  0  0  0  0  0  0  0  0
  -25.9740  -15.4780   20.3200 N   0  0  0  0  0  0  0  0  0  0  0  0
  -25.2270  -16.1400   20.4970 H   0  0  0  0  0  0  0  0  0  0  0  0
  -26.8170  -15.9180   19.9740 H   0  0  0  0  0  0  0  0  0  0  0  0
  -28.5480  -24.7130   20.2780 C   0  0  0  0  0  3  0  0  0  0  0  0
  -29.1660  -24.2990   18.8970 C   0  0  0  0  0  2  0  0  0  0  0  0
  -28.2590  -24.3200   17.7180 N   0  0  0  0  0  4  0  0  0  0  0  0
  -27.8660  -25.2220   17.5330 H   0  0  0  0  0  0  0  0  0  0  0  0
  -27.5070  -23.6550   17.7940 H   0  0  0  0  0  0  0  0  0  0  0  0
  -28.7970  -24.0750   16.8990 H   0  0  0  0  0  0  0  0  0  0  0  0
  -28.8800  -26.1980   20.6690 C   0  0  0  0  0  2  0  0  0  0  0  0
  -28.5570  -27.2090   19.7080 O   0  0  0  0  0  0  0  0  0  0  0  0
  -24.6920  -31.9740   23.4240 C   0  0  0  0  0  0  0  0  0  0  0  0
  -27.3860  -27.8950   19.9130 C   0  0  0  0  0  0  0  0  0  0  0  0
  -23.4940  -30.6880   21.6780 C   0  0  0  0  0  3  0  0  0  0  0  0
  -24.9640  -29.3240   20.1190 C   0  0  0  0  0  0  0  0  0  0  0  0
  -26.0130  -31.1350   21.4880 C   0  0  0  0  0  2  0  0  0  0  0  0
  -26.1240  -29.8220   20.7310 C   0  0  0  0  0  0  0  0  0  0  0  0
  -27.3410  -29.1130   20.6320 C   0  0  0  0  0  3  0  0  0  0  0  0
  -26.2170  -27.4160   19.2980 C   0  0  0  0  0  3  0  0  0  0  0  0
  -25.0050  -28.1190   19.4000 C   0  0  0  0  0  3  0  0  0  0  0  0
  -23.7000  -30.1420   20.2410 C   0  0  0  0  0  2  0  0  0  0  0  0
  -24.7510  -31.2810   22.2490 N   0  0  0  0  0  0  0  0  0  0  0  0
  -23.6120  -32.1600   24.0030 O   0  0  0  0  0  0  0  0  0  0  0  0
  -22.9030  -29.5540   22.5510 C   0  0  0  0  0  0  0  0  0  0  0  0
  -21.5960  -29.2980   22.3890 N   0  0  0  0  0  0  0  0  0  0  0  0
  -23.6180  -28.9110   23.3230 O   0  0  0  0  0  0  0  0  0  0  0  0
  -21.0870  -29.8740   21.7310 H   0  0  0  0  0  0  0  0  0  0  0  0
  -18.3370  -27.7910   22.6340 C   0  0  0  0  0  0  0  0  0  0  0  0
  -20.8390  -28.2620   23.0900 C   0  0  0  0  0  3  0  0  0  0  0  0
  -21.0960  -26.8710   22.4670 C   0  0  0  0  0  2  0  0  0  0  0  0
  -20.1150  -26.5400   21.3410 C   0  0  0  0  0  2  0  0  0  0  0  0
  -18.6800  -26.5230   21.8720 C   0  0  0  0  0  2  0  0  0  0  0  0
  -19.3520  -28.6230   23.1820 C   0  0  0  0  0  0  0  0  0  0  0  0
  -18.9770  -29.8270   23.8220 C   0  0  0  0  0  3  0  0  0  0  0  0
  -17.6200  -30.1960   23.9220 C   0  0  0  0  0  3  0  0  0  0  0  0
  -16.6220  -29.3540   23.3940 C   0  0  0  0  0  3  0  0  0  0  0  0
  -16.9790  -28.1520   22.7600 C   0  0  0  0  0  3  0  0  0  0  0  0
  -25.9690  -32.5930   24.0770 C   0  0  0  0  0  3  0  0  0  0  0  0
  -25.6660  -33.9910   24.4060 N   0  0  0  0  0  0  0  0  0  0  0  0
  -26.0140  -35.0430   23.6510 C   0  0  0  0  0  0  0  0  0  0  0  0
  -26.6990  -34.9400   22.6300 O   0  0  0  0  0  0  0  0  0  0  0  0
  -25.0840  -34.1510   25.2150 H   0  0  0  0  0  0  0  0  0  0  0  0
  -24.2860  -36.8300   23.2930 C   0  0  0  0  0  1  0  0  0  0  0  0
  -25.5260  -36.4310   24.1100 C   0  0  0  0  0  3  0  0  0  0  0  0
  -27.6570  -37.3110   24.9560 C   0  0  0  0  0  1  0  0  0  0  0  0
  -26.5620  -37.4790   24.0020 N   0  0  0  0  0  0  0  0  0  0  0  0
  -26.1570  -38.3970   24.1570 H   0  0  0  0  0  0  0  0  0  0  0  0
  -26.4630  -31.8090   25.3540 C   0  0  1  0  0  0  0  0  0  0  0  0
  -25.3390  -31.5530   26.3850 C   0  0  0  0  0  1  0  0  0  0  0  0
  -27.0620  -30.4400   24.9570 C   0  0  0  0  0  1  0  0  0  0  0  0
  -27.6010  -32.5920   26.0510 C   0  0  0  0  0  1  0  0  0  0  0  0
  2  1  1  0
  3  1  1  0
  4  6  1  0
  4  2  1  0
  5  4  1  0
  5  3  1  0
  6  8  2  0
  7 14  1  0
  7  6  1  0
  9  7  1  0
 10 12  2  0
 10 14  1  0
 11 13  1  0
 12 15  1  0
 14 11  2  0
 15 24  1  0
 15 13  2  0
 16 24  1  0
 17 22  1  0
 18 19  1  0
 18 17  1  0
 20 19  1  0
 20 29  1  0
 20 21  1  0
 22 16  1  0
 22 21  1  0
 23 16  2  0
 24 25  1  0
 26 27  2  0
 27 46  1  0
 28 27  1  0
 28 31  1  0
 29 30  1  0
 29 26  1  0
 30 28  2  0
 31 32  1  0
 32 33  2  0
 34 37  1  0
 34 33  1  0
 35 34  2  0
 36 35  1  0
 36 31  2  0
 37 38  1  0
 38 43  2  0
 38 39  1  0
 39 40  2  0
 40 41  1  0
 41 45  1  0
 42 41  2  0
 43 42  1  0
 44 43  1  0
 46 47  1  0
 47 50  1  0
 47 49  1  0
 48 46  2  0
 51 26  1  0
 51 52  1  0
 53 51  1  0
 54 55  1  0
 54  5  1  0
 54 60  1  0
 56 58  1  0
 56 55  1  0
 57 56  1  0
 59 56  1  0
 61 63  1  0
 61 60  1  0
 62 73  2  0
 63 68  1  0
 64 72  1  0
 64 74  1  0
 65 71  1  0
 65 67  1  0
 66 72  1  0
 67 66  1  0
 68 67  2  0
 69 70  1  0
 69 63  2  0
 70 65  2  0
 71 64  1  0
 72 62  1  0
 74 76  2  0
 75 74  1  0
 77 75  1  0
 78 87  2  0
 78 83  1  0
 79 75  1  0
 79 83  1  0
 80 79  1  0
 81 82  1  0
 81 80  1  0
 82 78  1  0
 83 84  2  0
 84 85  1  0
 86 85  2  0
 87 86  1  0
 88 62  1  0
 88 89  1  0
 88 98  1  0
 89 92  1  0
 90 94  1  0
 90 89  1  0
 91 90  2  0
 94 93  1  0
 96 94  1  0
 96 97  1  0
 96 95  1  0
 98101  1  1
 98 99  1  0
100 98  1  0
M  ISO  4  16 100  24 100  60 101  61 101
M  END
>  <TORSDO>  (82) 
F 22

>  <SCORE>  (82) 
-11.778

>  <name>  (82) 
81

>  <ligand_id>  (82) 
81

>  <original_smiles>  (82) 
[H]c1c([H])c([H])c2c(c1[H])C([H])([H])C([H])([H])C([H])([H])C2([H])N([H])C(=O)C1([H])N(C(=O)C([H])(N([H])C(=O)C([H])(N([H])C([H])([H])[H])C([H])([H])[H])C(C([H])([H])[H])(C([H])([H])[H])C([H])([H])[H])C([H])([H])c2c([H])c(OC([H])([H])C([H])(N3C([H])([H])C([H])([H])C([H])([H])C3([H])C(=O)N([H])c3c([H])c([H])c(N([H])C(=O)N4C([H])([H])C([H])([H])C([H])([H])C([H])(n5nc(-c6c([H])c([H])c(Oc7c([H])c([H])c(F)c([H])c7F)c([H])c6[H])c(C(=O)N([H])[H])c5N([H])[H])C4([H])[H])c([H])c3[H])C([H])([H])[N+]([H])([H])[H])c([H])c([H])c2C1([H])[H]

>  <smiles>  (82) 
[H]c1c([H])c([H])c2c(c1[H])C([H])([H])C([H])([H])C([H])([H])C2([H])N([H])C(=O)C1([H])N(C(=O)C([H])(N([H])C(=O)C([H])(N([H])C([H])([H])[H])C([H])([H])[H])C(C([H])([H])[H])(C([H])([H])[H])C([H])([H])[H])C([H])([H])c2c([H])c(OC([H])([H])C([H])(N3C([H])([H])C([H])([H])C([H])([H])C3([H])C(=O)N([H])c3c([H])c([H])c(N([H])C(=O)N4C([H])([H])C([H])([H])C([H])([H])C([H])(n5nc(-c6c([H])c([H])c(Oc7c([H])c([H])c(F)c([H])c7F)c([H])c6[H])c(C(=O)N([H])[H])c5N([H])[H])C4([H])[H])c([H])c3[H])C([H])([H])[N+]([H])([H])[H])c([H])c([H])c2C1([H])[H]

$$$$
82:0:0
     RDKit          3D

 98107  0  0  1  0  0  0  0  0999 V2000
  -30.1110  -21.3260   20.4050 C   0  0  0  0  0  0  0  0  0  0  0  0
  -29.1790  -20.4530   20.0060 N   0  0  0  0  0  0  0  0  0  0  0  0
  -30.9690  -21.0620   21.2520 O   0  0  0  0  0  0  0  0  0  0  0  0
  -28.4770  -20.8750   19.4130 H   0  0  0  0  0  0  0  0  0  0  0  0
  -29.3370  -18.7450   18.3720 C   0  0  0  0  0  3  0  0  0  0  0  0
  -29.4850  -17.4150   17.9740 C   0  0  0  0  0  3  0  0  0  0  0  0
  -29.5990  -18.0750   20.7190 C   0  0  0  0  0  3  0  0  0  0  0  0
  -29.3990  -19.0840   19.7350 C   0  0  0  0  0  0  0  0  0  0  0  0
  -29.7440  -16.7140   20.3200 C   0  0  0  0  0  0  0  0  0  0  0  0
  -29.6730  -16.4150   18.9340 C   0  0  0  0  0  0  0  0  0  0  0  0
  -29.7320  -15.1500   18.4920 F   0  0  0  0  0  0  0  0  0  0  0  0
  -30.6760  -14.5940   21.1490 C   0  0  0  0  0  0  0  0  0  0  0  0
  -30.6120  -12.2890   20.2760 C   0  0  0  0  0  2  0  0  0  0  0  0
  -29.8240  -12.2340   18.9500 C   0  0  0  0  0  2  0  0  0  0  0  0
  -28.2950  -12.2110   19.1740 C   0  0  0  0  0  2  0  0  0  0  0  0
  -27.7850  -13.1530   20.3030 C   0  0  0  0  0  3  0  0  0  0  0  0
  -28.7000  -13.0810   21.5450 C   0  0  0  0  0  2  0  0  0  0  0  0
  -30.0740  -13.3730   21.1130 N   0  0  0  0  0  0  0  0  0  0  0  0
  -31.8710  -14.7670   20.8970 O   0  0  0  0  0  0  0  0  0  0  0  0
  -29.8390  -15.6490   21.2800 N   0  0  0  0  0  0  0  0  0  0  0  0
  -28.9610  -15.4150   21.7180 H   0  0  0  0  0  0  0  0  0  0  0  0
  -25.3150  -13.7410   20.7390 C   0  0  0  0  0  0  0  0  0  0  0  0
  -24.2240  -12.9600   21.0140 C   0  0  0  0  0  0  0  0  0  0  0  0
  -24.7060  -11.6170   21.0750 C   0  0  0  0  0  0  0  0  0  0  0  0
  -26.3920  -12.8730   20.6450 N   0  0  0  0  0  0  0  0  0  0  0  0
  -26.0230  -11.5940   20.9140 N   0  0  0  0  0  0  0  0  0  0  0  0
  -23.9840  -10.3470   21.2180 C   0  0  0  0  0  0  0  0  0  0  0  0
  -24.3510   -9.3950   22.1960 C   0  0  0  0  0  3  0  0  0  0  0  0
  -23.6310   -8.1880   22.3270 C   0  0  0  0  0  3  0  0  0  0  0  0
  -22.5310   -7.9220   21.4790 C   0  0  0  0  0  0  0  0  0  0  0  0
  -22.1830   -8.8620   20.4920 C   0  0  0  0  0  3  0  0  0  0  0  0
  -22.9030  -10.0610   20.3590 C   0  0  0  0  0  3  0  0  0  0  0  0
  -21.7870   -6.7670   21.5170 O   0  0  0  0  0  0  0  0  0  0  0  0
  -21.6760   -6.0200   22.6620 C   0  0  0  0  0  0  0  0  0  0  0  0
  -21.1750   -6.5680   23.8630 C   0  0  0  0  0  3  0  0  0  0  0  0
  -21.0130   -5.7470   24.9970 C   0  0  0  0  0  3  0  0  0  0  0  0
  -21.3400   -4.3800   24.9300 C   0  0  0  0  0  0  0  0  0  0  0  0
  -21.8350   -3.8310   23.7330 C   0  0  0  0  0  3  0  0  0  0  0  0
  -22.0000   -4.6500   22.6020 C   0  0  0  0  0  0  0  0  0  0  0  0
  -22.4550   -4.1110   21.4450 F   0  0  0  0  0  0  0  0  0  0  0  0
  -21.1770   -3.5890   26.0170 F   0  0  0  0  0  0  0  0  0  0  0  0
  -22.7970  -13.4170   21.1160 C   0  0  0  0  0  0  0  0  0  0  0  0
  -21.9910  -12.7360   21.9240 N   0  0  0  0  0  0  0  0  0  0  0  0
  -22.4010  -14.4140   20.5140 O   0  0  0  0  0  0  0  0  0  0  0  0
  -22.3190  -11.9310   22.4340 H   0  0  0  0  0  0  0  0  0  0  0  0
  -21.0300  -13.0260   22.0310 H   0  0  0  0  0  0  0  0  0  0  0  0
  -25.4800  -15.1090   20.5410 N   0  0  0  0  0  0  0  0  0  0  0  0
  -24.6990  -15.7550   20.5400 H   0  0  0  0  0  0  0  0  0  0  0  0
  -26.3530  -15.5470   20.2780 H   0  0  0  0  0  0  0  0  0  0  0  0
  -32.2450  -23.7220   19.7370 C   0  0  0  0  0  2  0  0  0  0  0  0
  -31.2330  -23.0070   18.8450 C   0  0  0  0  0  2  0  0  0  0  0  0
  -31.3730  -24.5020   20.7230 C   0  0  0  0  0  2  0  0  0  0  0  0
  -30.0290  -22.7300   19.7660 C   0  0  0  0  0  3  0  0  0  0  0  0
  -30.0650  -23.7970   20.7950 N   0  0  2  0  0  4  0  0  0  0  0  0
  -30.0850  -23.2840   21.6670 H   0  0  0  0  0  0  0  0  0  0  0  0
  -28.8700  -24.6970   20.8370 C   0  0  0  0  0  2  0  0  0  0  0  0
  -28.6300  -25.5370   19.5540 C   0  0  0  0  0  2  0  0  0  0  0  0
  -28.4240  -26.9020   19.9080 O   0  0  0  0  0  0  0  0  0  0  0  0
  -24.5510  -31.8710   23.1250 C   0  0  0  0  0  0  0  0  0  0  0  0
  -27.1810  -27.4990   19.9410 C   0  0  0  0  0  0  0  0  0  0  0  0
  -23.3190  -30.4790   21.4900 C   0  0  0  0  0  3  0  0  0  0  0  0
  -24.7540  -28.9580   20.0280 C   0  0  0  0  0  0  0  0  0  0  0  0
  -25.8310  -30.8640   21.2390 C   0  0  0  0  0  2  0  0  0  0  0  0
  -25.9140  -29.4970   20.5920 C   0  0  0  0  0  0  0  0  0  0  0  0
  -27.1220  -28.7740   20.5460 C   0  0  0  0  0  3  0  0  0  0  0  0
  -25.9950  -26.9570   19.3880 C   0  0  0  0  0  3  0  0  0  0  0  0
  -24.7870  -27.6850   19.4290 C   0  0  0  0  0  3  0  0  0  0  0  0
  -23.5030  -29.8050   20.1030 C   0  0  0  0  0  2  0  0  0  0  0  0
  -24.5880  -31.0850   22.0100 N   0  0  0  0  0  0  0  0  0  0  0  0
  -23.4800  -32.1310   23.6890 O   0  0  0  0  0  0  0  0  0  0  0  0
  -22.6920  -29.4470   22.4540 C   0  0  0  0  0  0  0  0  0  0  0  0
  -21.3640  -29.2710   22.3560 N   0  0  0  0  0  0  0  0  0  0  0  0
  -23.3940  -28.8080   23.2410 O   0  0  0  0  0  0  0  0  0  0  0  0
  -20.8600  -29.8410   21.6910 H   0  0  0  0  0  0  0  0  0  0  0  0
  -18.0000  -28.0830   22.9150 C   0  0  0  0  0  0  0  0  0  0  0  0
  -20.5650  -28.3240   23.1310 C   0  0  0  0  0  3  0  0  0  0  0  0
  -20.6450  -26.9030   22.5260 C   0  0  0  0  0  2  0  0  0  0  0  0
  -19.5170  -26.6040   21.5340 C   0  0  0  0  0  2  0  0  0  0  0  0
  -18.1530  -26.7450   22.2140 C   0  0  0  0  0  2  0  0  0  0  0  0
  -19.1330  -28.8340   23.3310 C   0  0  0  0  0  0  0  0  0  0  0  0
  -18.9340  -30.0880   23.9460 C   0  0  0  0  0  3  0  0  0  0  0  0
  -17.6370  -30.5930   24.1500 C   0  0  0  0  0  3  0  0  0  0  0  0
  -16.5190  -29.8400   23.7510 C   0  0  0  0  0  3  0  0  0  0  0  0
  -16.7030  -28.5880   23.1390 C   0  0  0  0  0  3  0  0  0  0  0  0
  -25.8470  -32.4980   23.7280 C   0  0  0  0  0  3  0  0  0  0  0  0
  -26.4090  -31.6970   24.9650 C   0  0  1  0  0  0  0  0  0  0  0  0
  -25.3520  -31.4180   26.0590 C   0  0  0  0  0  1  0  0  0  0  0  0
  -26.9890  -30.3380   24.5110 C   0  0  0  0  0  1  0  0  0  0  0  0
  -27.5720  -32.4830   25.6170 C   0  0  0  0  0  1  0  0  0  0  0  0
  -25.5340  -33.8840   24.1040 N   0  0  0  0  0  0  0  0  0  0  0  0
  -25.8510  -34.9600   23.3720 C   0  0  0  0  0  0  0  0  0  0  0  0
  -26.5090  -34.8910   22.3290 O   0  0  0  0  0  0  0  0  0  0  0  0
  -24.9470  -34.0100   24.9160 H   0  0  0  0  0  0  0  0  0  0  0  0
  -24.1090  -36.7500   23.0860 C   0  0  0  0  0  1  0  0  0  0  0  0
  -25.3600  -36.3310   23.8740 C   0  0  0  0  0  3  0  0  0  0  0  0
  -27.4980  -37.2010   24.7090 C   0  0  0  0  0  1  0  0  0  0  0  0
  -26.3860  -37.3930   23.7820 N   0  0  0  0  0  0  0  0  0  0  0  0
  -25.9760  -38.3050   23.9640 H   0  0  0  0  0  0  0  0  0  0  0  0
  1  3  2  0
  2  1  1  0
  4  2  1  0
  5  8  1  0
  6  5  2  0
  6 10  1  0
  8  2  1  0
  8  7  2  0
  9  7  1  0
  9 20  1  0
 10  9  2  0
 11 10  1  0
 12 20  1  0
 13 18  1  0
 14 15  1  0
 14 13  1  0
 16 15  1  0
 16 25  1  0
 16 17  1  0
 18 12  1  0
 18 17  1  0
 19 12  2  0
 20 21  1  0
 22 23  2  0
 23 24  1  0
 23 42  1  0
 24 27  1  0
 25 22  1  0
 25 26  1  0
 26 24  2  0
 27 28  1  0
 28 29  2  0
 30 33  1  0
 30 29  1  0
 31 30  2  0
 32 31  1  0
 32 27  2  0
 33 34  1  0
 34 35  1  0
 35 36  2  0
 37 36  1  0
 37 41  1  0
 38 37  2  0
 39 34  2  0
 39 38  1  0
 40 39  1  0
 42 43  1  0
 43 46  1  0
 43 45  1  0
 44 42  2  0
 47 22  1  0
 48 47  1  0
 49 47  1  0
 50 52  1  0
 51 50  1  0
 51 53  1  0
 52 54  1  0
 53  1  1  0
 53 54  1  0
 54 56  1  0
 54 55  1  1
 57 58  1  0
 57 56  1  0
 58 60  1  0
 59 70  2  0
 60 65  1  0
 61 69  1  0
 61 71  1  0
 62 68  1  0
 62 64  1  0
 63 69  1  0
 64 63  1  0
 65 64  2  0
 66 67  1  0
 66 60  2  0
 67 62  2  0
 68 61  1  0
 69 59  1  0
 71 73  2  0
 72 71  1  0
 74 72  1  0
 75 84  2  0
 75 80  1  0
 76 72  1  0
 76 80  1  0
 77 76  1  0
 78 79  1  0
 78 77  1  0
 79 75  1  0
 80 81  2  0
 81 82  1  0
 83 82  2  0
 84 83  1  0
 85 59  1  0
 85 90  1  0
 85 86  1  0
 86 89  1  1
 86 87  1  0
 88 86  1  0
 90 93  1  0
 91 95  1  0
 91 90  1  0
 92 91  2  0
 95 94  1  0
 97 95  1  0
 97 98  1  0
 97 96  1  0
M  ISO  4  12 100  20 100  57 101  58 101
M  END
>  <TORSDO>  (83) 
F 20

>  <SCORE>  (83) 
-13.061

>  <name>  (83) 
82

>  <ligand_id>  (83) 
82

>  <original_smiles>  (83) 
[H]c1c([H])c([H])c2c(c1[H])C([H])([H])C([H])([H])C([H])([H])C2([H])N([H])C(=O)C1([H])N(C(=O)C([H])(N([H])C(=O)C([H])(N([H])C([H])([H])[H])C([H])([H])[H])C(C([H])([H])[H])(C([H])([H])[H])C([H])([H])[H])C([H])([H])c2c([H])c(OC([H])([H])C([H])([H])[N+]3([H])C([H])([H])C([H])([H])C([H])([H])C3([H])C(=O)N([H])c3c([H])c([H])c(F)c(N([H])C(=O)N4C([H])([H])C([H])([H])C([H])([H])C([H])(n5nc(-c6c([H])c([H])c(Oc7c([H])c([H])c(F)c([H])c7F)c([H])c6[H])c(C(=O)N([H])[H])c5N([H])[H])C4([H])[H])c3[H])c([H])c([H])c2C1([H])[H]

>  <smiles>  (83) 
[H]c1c([H])c([H])c2c(c1[H])C([H])([H])C([H])([H])C([H])([H])C2([H])N([H])C(=O)C1([H])N(C(=O)C([H])(N([H])C(=O)C([H])(N([H])C([H])([H])[H])C([H])([H])[H])C(C([H])([H])[H])(C([H])([H])[H])C([H])([H])[H])C([H])([H])c2c([H])c(OC([H])([H])C([H])([H])[N+]3([H])C([H])([H])C([H])([H])C([H])([H])C3([H])C(=O)N([H])c3c([H])c([H])c(F)c(N([H])C(=O)N4C([H])([H])C([H])([H])C([H])([H])C([H])(n5nc(-c6c([H])c([H])c(Oc7c([H])c([H])c(F)c([H])c7F)c([H])c6[H])c(C(=O)N([H])[H])c5N([H])[H])C4([H])[H])c3[H])c([H])c([H])c2C1([H])[H]

$$$$
83:0:0
     RDKit          3D

 92100  0  0  1  0  0  0  0  0999 V2000
  -30.6860  -18.6010   20.0990 C   0  0  0  0  0  3  0  0  0  0  0  0
  -28.3670  -18.2130   20.2080 C   0  0  0  0  0  3  0  0  0  0  0  0
  -29.6580  -17.5920   20.2000 C   0  0  0  0  0  0  0  0  0  0  0  0
  -29.1170  -20.6410   20.0100 C   0  0  0  0  0  0  0  0  0  0  0  0
  -30.4350  -20.0470   20.0100 C   0  0  0  0  0  0  0  0  0  0  0  0
  -28.1100  -19.6310   20.1100 C   0  0  0  0  0  0  0  0  0  0  0  0
  -31.5090  -20.8660   19.8910 F   0  0  0  0  0  0  0  0  0  0  0  0
  -26.8170  -20.0390   20.1010 F   0  0  0  0  0  0  0  0  0  0  0  0
  -30.5760  -14.9610   20.0130 C   0  0  0  0  0  0  0  0  0  0  0  0
  -30.4300  -12.6190   19.0520 C   0  0  0  0  0  2  0  0  0  0  0  0
  -29.4400  -12.6160   17.8620 C   0  0  0  0  0  2  0  0  0  0  0  0
  -27.9900  -12.4240   18.3480 C   0  0  0  0  0  2  0  0  0  0  0  0
  -27.6490  -13.3320   19.5570 C   0  0  0  0  0  3  0  0  0  0  0  0
  -28.7500  -13.2840   20.6400 C   0  0  0  0  0  2  0  0  0  0  0  0
  -30.0090  -13.6890   19.9960 N   0  0  0  0  0  0  0  0  0  0  0  0
  -31.7480  -15.0830   19.6380 O   0  0  0  0  0  0  0  0  0  0  0  0
  -29.7270  -16.0580   20.2980 N   0  0  0  0  0  0  0  0  0  0  0  0
  -28.8450  -15.6760   20.6030 H   0  0  0  0  0  0  0  0  0  0  0  0
  -25.3070  -13.9420   20.3980 C   0  0  0  0  0  0  0  0  0  0  0  0
  -24.2460  -13.1800   20.8040 C   0  0  0  0  0  0  0  0  0  0  0  0
  -24.6850  -11.8220   20.7320 C   0  0  0  0  0  0  0  0  0  0  0  0
  -26.3250  -13.0510   20.1020 N   0  0  0  0  0  0  0  0  0  0  0  0
  -25.9620  -11.7690   20.3680 N   0  0  0  0  0  0  0  0  0  0  0  0
  -23.9460  -10.5690   20.9340 C   0  0  0  0  0  0  0  0  0  0  0  0
  -24.3890   -9.5890   21.8490 C   0  0  0  0  0  3  0  0  0  0  0  0
  -23.6500   -8.4010   22.0380 C   0  0  0  0  0  3  0  0  0  0  0  0
  -22.4540   -8.1850   21.3130 C   0  0  0  0  0  0  0  0  0  0  0  0
  -22.0300   -9.1550   20.3880 C   0  0  0  0  0  3  0  0  0  0  0  0
  -22.7690  -10.3340   20.1960 C   0  0  0  0  0  3  0  0  0  0  0  0
  -21.6850   -7.0510   21.4140 O   0  0  0  0  0  0  0  0  0  0  0  0
  -21.6350   -6.3170   22.5720 C   0  0  0  0  0  0  0  0  0  0  0  0
  -21.1960   -6.8760   23.7910 C   0  0  0  0  0  3  0  0  0  0  0  0
  -21.0930   -6.0670   24.9410 C   0  0  0  0  0  3  0  0  0  0  0  0
  -21.4190   -4.6990   24.8710 C   0  0  0  0  0  0  0  0  0  0  0  0
  -21.8500   -4.1390   23.6560 C   0  0  0  0  0  3  0  0  0  0  0  0
  -21.9550   -4.9450   22.5090 C   0  0  0  0  0  0  0  0  0  0  0  0
  -22.3510   -4.3950   21.3360 F   0  0  0  0  0  0  0  0  0  0  0  0
  -21.3130   -3.9200   25.9730 F   0  0  0  0  0  0  0  0  0  0  0  0
  -22.8690  -13.6750   21.1370 C   0  0  0  0  0  0  0  0  0  0  0  0
  -22.1690  -12.9860   22.0300 N   0  0  0  0  0  0  0  0  0  0  0  0
  -22.4240  -14.7090   20.6400 O   0  0  0  0  0  0  0  0  0  0  0  0
  -22.5430  -12.1490   22.4530 H   0  0  0  0  0  0  0  0  0  0  0  0
  -21.2470  -13.3000   22.2950 H   0  0  0  0  0  0  0  0  0  0  0  0
  -25.4830  -15.3120   20.2270 N   0  0  0  0  0  0  0  0  0  0  0  0
  -24.7120  -15.9610   20.3450 H   0  0  0  0  0  0  0  0  0  0  0  0
  -26.2770  -15.7240   19.7550 H   0  0  0  0  0  0  0  0  0  0  0  0
  -29.0990  -23.4240   19.9700 C   0  0  0  0  0  0  0  0  0  0  0  0
  -28.6440  -22.0910   19.8350 N   0  0  0  0  0  0  0  0  0  0  0  0
  -30.2370  -23.6590   20.3810 O   0  0  0  0  0  0  0  0  0  0  0  0
  -27.6650  -22.0970   19.5810 H   0  0  0  0  0  0  0  0  0  0  0  0
  -28.1250  -24.7080   19.5750 C   0  0  0  0  0  2  0  0  0  0  0  0
  -28.4190  -26.2040   19.8970 O   0  0  0  0  0  0  0  0  0  0  0  0
  -24.5970  -31.6340   23.1160 C   0  0  0  0  0  0  0  0  0  0  0  0
  -27.3420  -27.1680   19.8690 C   0  0  0  0  0  0  0  0  0  0  0  0
  -23.4550  -30.2960   21.3920 C   0  0  0  0  0  3  0  0  0  0  0  0
  -24.9630  -28.8450   19.9030 C   0  0  0  0  0  0  0  0  0  0  0  0
  -26.0030  -30.6410   21.2740 C   0  0  0  0  0  2  0  0  0  0  0  0
  -26.1230  -29.2900   20.5490 C   0  0  0  0  0  0  0  0  0  0  0  0
  -27.3130  -28.4690   20.5170 C   0  0  0  0  0  3  0  0  0  0  0  0
  -26.1500  -26.8310   19.1860 C   0  0  0  0  0  3  0  0  0  0  0  0
  -24.9890  -27.6290   19.2080 C   0  0  0  0  0  3  0  0  0  0  0  0
  -23.7100  -29.7020   19.9820 C   0  0  0  0  0  2  0  0  0  0  0  0
  -24.7030  -30.8760   21.9830 N   0  0  0  0  0  0  0  0  0  0  0  0
  -23.4970  -31.8610   23.6450 O   0  0  0  0  0  0  0  0  0  0  0  0
  -22.7940  -29.2200   22.2890 C   0  0  0  0  0  0  0  0  0  0  0  0
  -21.4670  -29.0430   22.1600 N   0  0  0  0  0  0  0  0  0  0  0  0
  -23.4770  -28.5480   23.0660 O   0  0  0  0  0  0  0  0  0  0  0  0
  -20.9710  -29.6380   21.5110 H   0  0  0  0  0  0  0  0  0  0  0  0
  -18.0920  -27.8240   22.6600 C   0  0  0  0  0  0  0  0  0  0  0  0
  -20.6590  -28.0510   22.8750 C   0  0  0  0  0  3  0  0  0  0  0  0
  -20.7330  -26.6700   22.1830 C   0  0  0  0  0  2  0  0  0  0  0  0
  -19.6010  -26.4360   21.1770 C   0  0  0  0  0  2  0  0  0  0  0  0
  -18.2400  -26.5340   21.8700 C   0  0  0  0  0  2  0  0  0  0  0  0
  -19.2270  -28.5440   23.1190 C   0  0  0  0  0  0  0  0  0  0  0  0
  -19.0330  -29.7530   23.8210 C   0  0  0  0  0  3  0  0  0  0  0  0
  -17.7360  -30.2430   24.0670 C   0  0  0  0  0  3  0  0  0  0  0  0
  -16.6160  -29.5210   23.6220 C   0  0  0  0  0  3  0  0  0  0  0  0
  -16.7940  -28.3120   22.9250 C   0  0  0  0  0  3  0  0  0  0  0  0
  -25.8490  -32.2700   23.7920 C   0  0  0  0  0  3  0  0  0  0  0  0
  -25.5120  -33.6580   24.1440 N   0  0  0  0  0  0  0  0  0  0  0  0
  -25.8080  -34.7300   23.3980 C   0  0  0  0  0  0  0  0  0  0  0  0
  -26.4620  -34.6560   22.3540 O   0  0  0  0  0  0  0  0  0  0  0  0
  -24.9280  -33.7870   24.9580 H   0  0  0  0  0  0  0  0  0  0  0  0
  -24.0160  -36.4780   23.1290 C   0  0  0  0  0  1  0  0  0  0  0  0
  -25.3020  -36.1030   23.8850 C   0  0  0  0  0  3  0  0  0  0  0  0
  -27.4370  -37.0500   24.6430 C   0  0  0  0  0  1  0  0  0  0  0  0
  -26.2980  -37.1860   23.7380 N   0  0  0  0  0  0  0  0  0  0  0  0
  -25.8710  -38.0940   23.8980 H   0  0  0  0  0  0  0  0  0  0  0  0
  -26.3320  -31.4790   25.0710 C   0  0  1  0  0  0  0  0  0  0  0  0
  -25.2080  -31.2130   26.0990 C   0  0  0  0  0  1  0  0  0  0  0  0
  -26.9400  -30.1140   24.6770 C   0  0  0  0  0  1  0  0  0  0  0  0
  -27.4550  -32.2710   25.7820 C   0  0  0  0  0  1  0  0  0  0  0  0
  1  3  1  0
  3  2  2  0
  3 17  1  0
  4  6  2  0
  5  4  1  0
  5  1  2  0
  6  2  1  0
  7  5  1  0
  8  6  1  0
  9 17  1  0
 10 15  1  0
 11 12  1  0
 11 10  1  0
 13 12  1  0
 13 22  1  0
 13 14  1  0
 15  9  1  0
 15 14  1  0
 16  9  2  0
 17 18  1  0
 19 20  2  0
 20 39  1  0
 21 20  1  0
 21 24  1  0
 22 23  1  0
 22 19  1  0
 23 21  2  0
 24 25  1  0
 25 26  2  0
 27 30  1  0
 27 26  1  0
 28 27  2  0
 29 28  1  0
 29 24  2  0
 30 31  1  0
 31 32  1  0
 32 33  2  0
 34 33  1  0
 34 38  1  0
 35 34  2  0
 36 31  2  0
 36 35  1  0
 37 36  1  0
 39 40  1  0
 40 43  1  0
 40 42  1  0
 41 39  2  0
 44 45  1  0
 44 19  1  0
 46 44  1  0
 47 49  2  0
 48 47  1  0
 48  4  1  0
 50 48  1  0
 51 52  1  0
 51 47  1  0
 53 64  2  0
 54 52  1  0
 54 59  1  0
 55 63  1  0
 55 65  1  0
 56 62  1  0
 56 58  1  0
 57 63  1  0
 58 57  1  0
 59 58  2  0
 60 61  1  0
 60 54  2  0
 61 56  2  0
 62 55  1  0
 63 53  1  0
 65 67  2  0
 66 65  1  0
 68 66  1  0
 69 78  2  0
 69 74  1  0
 70 66  1  0
 70 74  1  0
 71 70  1  0
 72 73  1  0
 72 71  1  0
 73 69  1  0
 74 75  2  0
 75 76  1  0
 77 76  2  0
 78 77  1  0
 79 53  1  0
 79 80  1  0
 79 89  1  0
 80 83  1  0
 81 85  1  0
 81 80  1  0
 82 81  2  0
 85 84  1  0
 87 85  1  0
 87 88  1  0
 87 86  1  0
 89 92  1  1
 89 90  1  0
 91 89  1  0
M  ISO  4   9 100  17 100  51 101  52 101
M  END
>  <TORSDO>  (84) 
F 18

>  <SCORE>  (84) 
-14.049

>  <name>  (84) 
83

>  <ligand_id>  (84) 
83

>  <original_smiles>  (84) 
[H]c1c([H])c([H])c2c(c1[H])C([H])([H])C([H])([H])C([H])([H])C2([H])N([H])C(=O)C1([H])N(C(=O)C([H])(N([H])C(=O)C([H])(N([H])C([H])([H])[H])C([H])([H])[H])C(C([H])([H])[H])(C([H])([H])[H])C([H])([H])[H])C([H])([H])c2c([H])c(OC([H])([H])C(=O)N([H])c3c(F)c([H])c(N([H])C(=O)N4C([H])([H])C([H])([H])C([H])([H])C([H])(n5nc(-c6c([H])c([H])c(Oc7c([H])c([H])c(F)c([H])c7F)c([H])c6[H])c(C(=O)N([H])[H])c5N([H])[H])C4([H])[H])c([H])c3F)c([H])c([H])c2C1([H])[H]

>  <smiles>  (84) 
[H]c1c([H])c([H])c2c(c1[H])C([H])([H])C([H])([H])C([H])([H])C2([H])N([H])C(=O)C1([H])N(C(=O)C([H])(N([H])C(=O)C([H])(N([H])C([H])([H])[H])C([H])([H])[H])C(C([H])([H])[H])(C([H])([H])[H])C([H])([H])[H])C([H])([H])c2c([H])c(OC([H])([H])C(=O)N([H])c3c(F)c([H])c(N([H])C(=O)N4C([H])([H])C([H])([H])C([H])([H])C([H])(n5nc(-c6c([H])c([H])c(Oc7c([H])c([H])c(F)c([H])c7F)c([H])c6[H])c(C(=O)N([H])[H])c5N([H])[H])C4([H])[H])c([H])c3F)c([H])c([H])c2C1([H])[H]

$$$$
84:0:0
     RDKit          3D

104113  0  0  1  0  0  0  0  0999 V2000
  -32.9820  -21.5180   18.1750 C   0  0  0  0  0  2  0  0  0  0  0  0
  -33.9210  -22.4190   19.0010 C   0  0  0  0  0  2  0  0  0  0  0  0
  -31.5660  -22.0900   18.3570 C   0  0  0  0  0  3  0  0  0  0  0  0
  -33.0380  -23.4870   19.6730 C   0  0  0  0  0  3  0  0  0  0  0  0
  -31.8240  -23.5630   18.7360 C   0  0  0  0  0  3  0  0  0  0  0  0
  -30.6310  -21.9240   17.1380 C   0  0  0  0  0  0  0  0  0  0  0  0
  -28.5460  -20.9810   16.2760 C   0  0  0  0  0  1  0  0  0  0  0  0
  -29.7250  -20.9180   17.1420 N   0  0  0  0  0  0  0  0  0  0  0  0
  -30.6440  -22.7810   16.2480 O   0  0  0  0  0  0  0  0  0  0  0  0
  -30.0280  -19.5760   17.6540 C   0  0  0  0  0  2  0  0  0  0  0  0
  -30.7190  -14.3810   21.1010 C   0  0  0  0  0  0  0  0  0  0  0  0
  -30.5050  -12.1590   20.1150 C   0  0  0  0  0  2  0  0  0  0  0  0
  -29.6650  -12.2850   18.8280 C   0  0  0  0  0  2  0  0  0  0  0  0
  -28.1620  -12.1710   19.1450 C   0  0  0  0  0  2  0  0  0  0  0  0
  -27.7130  -13.0670   20.3330 C   0  0  0  0  0  3  0  0  0  0  0  0
  -28.6860  -12.9620   21.5280 C   0  0  0  0  0  2  0  0  0  0  0  0
  -30.0440  -13.2090   21.0290 N   0  0  0  0  0  0  0  0  0  0  0  0
  -31.9500  -14.4450   21.0460 O   0  0  0  0  0  0  0  0  0  0  0  0
  -29.1270  -17.9100   19.3490 C   0  0  0  0  0  0  0  0  0  0  0  0
  -29.3310  -19.1850   18.9540 C   0  0  0  0  0  3  0  0  0  0  0  0
  -28.5940  -17.5120   20.7200 C   0  0  0  0  0  2  0  0  0  0  0  0
  -29.5210  -16.7040   18.5260 C   0  0  0  0  0  2  0  0  0  0  0  0
  -29.5280  -16.5000   21.4500 C   0  0  0  0  0  2  0  0  0  0  0  0
  -30.5760  -15.9360   19.3080 C   0  0  0  0  0  2  0  0  0  0  0  0
  -30.0280  -15.4200   20.5750 N   0  0  0  0  0  0  0  0  0  0  0  0
  -25.2750  -13.6540   20.9050 C   0  0  0  0  0  0  0  0  0  0  0  0
  -24.1840  -12.8730   21.1790 C   0  0  0  0  0  0  0  0  0  0  0  0
  -24.6480  -11.5220   21.1430 C   0  0  0  0  0  0  0  0  0  0  0  0
  -26.3340  -12.7790   20.7240 N   0  0  0  0  0  0  0  0  0  0  0  0
  -25.9570  -11.4900   20.9270 N   0  0  0  0  0  0  0  0  0  0  0  0
  -23.9110  -10.2560   21.2450 C   0  0  0  0  0  0  0  0  0  0  0  0
  -24.2920   -9.2510   22.1610 C   0  0  0  0  0  3  0  0  0  0  0  0
  -23.5560   -8.0490   22.2540 C   0  0  0  0  0  3  0  0  0  0  0  0
  -22.4240   -7.8450   21.4300 C   0  0  0  0  0  0  0  0  0  0  0  0
  -22.0620   -8.8390   20.5010 C   0  0  0  0  0  3  0  0  0  0  0  0
  -22.7990  -10.0310   20.4070 C   0  0  0  0  0  3  0  0  0  0  0  0
  -21.6630   -6.7020   21.4340 O   0  0  0  0  0  0  0  0  0  0  0  0
  -21.5640   -5.9070   22.5480 C   0  0  0  0  0  0  0  0  0  0  0  0
  -21.0810   -6.4040   23.7770 C   0  0  0  0  0  3  0  0  0  0  0  0
  -20.9310   -5.5360   24.8780 C   0  0  0  0  0  3  0  0  0  0  0  0
  -21.2530   -4.1720   24.7490 C   0  0  0  0  0  0  0  0  0  0  0  0
  -21.7300   -3.6740   23.5220 C   0  0  0  0  0  3  0  0  0  0  0  0
  -21.8820   -4.5400   22.4250 C   0  0  0  0  0  0  0  0  0  0  0  0
  -22.3210   -4.0500   21.2410 F   0  0  0  0  0  0  0  0  0  0  0  0
  -21.1010   -3.3360   25.8020 F   0  0  0  0  0  0  0  0  0  0  0  0
  -22.7720  -13.3430   21.3660 C   0  0  0  0  0  0  0  0  0  0  0  0
  -21.9870  -12.6300   22.1670 N   0  0  0  0  0  0  0  0  0  0  0  0
  -22.3680  -14.3800   20.8380 O   0  0  0  0  0  0  0  0  0  0  0  0
  -22.3230  -11.7910   22.6160 H   0  0  0  0  0  0  0  0  0  0  0  0
  -21.0360  -12.9270   22.3310 H   0  0  0  0  0  0  0  0  0  0  0  0
  -25.4520  -15.0270   20.7760 N   0  0  0  0  0  0  0  0  0  0  0  0
  -24.6850  -15.6850   20.8560 H   0  0  0  0  0  0  0  0  0  0  0  0
  -26.3310  -15.4690   20.5370 H   0  0  0  0  0  0  0  0  0  0  0  0
  -30.1050  -25.3370   18.9150 C   0  0  0  0  0  0  0  0  0  0  0  0
  -30.6380  -24.1830   19.3360 N   0  0  0  0  0  0  0  0  0  0  0  0
  -30.7320  -26.1450   18.2230 O   0  0  0  0  0  0  0  0  0  0  0  0
  -30.0710  -23.6140   19.9520 H   0  0  0  0  0  0  0  0  0  0  0  0
  -28.6430  -25.6120   19.2760 C   0  0  0  0  0  2  0  0  0  0  0  0
  -28.5620  -26.8970   19.8810 O   0  0  0  0  0  0  0  0  0  0  0  0
  -24.7780  -31.8360   23.2590 C   0  0  0  0  0  0  0  0  0  0  0  0
  -27.3470  -27.5410   19.9370 C   0  0  0  0  0  0  0  0  0  0  0  0
  -23.5250  -30.4940   21.5990 C   0  0  0  0  0  3  0  0  0  0  0  0
  -24.9370  -29.0120   20.0830 C   0  0  0  0  0  0  0  0  0  0  0  0
  -26.0390  -30.8720   21.3420 C   0  0  0  0  0  2  0  0  0  0  0  0
  -26.1080  -29.5260   20.6540 C   0  0  0  0  0  0  0  0  0  0  0  0
  -27.3100  -28.7950   20.5820 C   0  0  0  0  0  3  0  0  0  0  0  0
  -26.1510  -27.0240   19.3830 C   0  0  0  0  0  3  0  0  0  0  0  0
  -24.9520  -27.7570   19.4500 C   0  0  0  0  0  3  0  0  0  0  0  0
  -23.6940  -29.8640   20.1910 C   0  0  0  0  0  2  0  0  0  0  0  0
  -24.8000  -31.0790   22.1260 N   0  0  0  0  0  0  0  0  0  0  0  0
  -23.7130  -32.0860   23.8400 O   0  0  0  0  0  0  0  0  0  0  0  0
  -22.9030  -29.4370   22.5390 C   0  0  0  0  0  0  0  0  0  0  0  0
  -21.5790  -29.2410   22.4240 N   0  0  0  0  0  0  0  0  0  0  0  0
  -23.6060  -28.7980   23.3260 O   0  0  0  0  0  0  0  0  0  0  0  0
  -21.0730  -29.8110   21.7620 H   0  0  0  0  0  0  0  0  0  0  0  0
  -18.2330  -27.9700   22.9020 C   0  0  0  0  0  0  0  0  0  0  0  0
  -20.7850  -28.2710   23.1770 C   0  0  0  0  0  3  0  0  0  0  0  0
  -20.9150  -26.8550   22.5720 C   0  0  0  0  0  2  0  0  0  0  0  0
  -19.8190  -26.5300   21.5520 C   0  0  0  0  0  2  0  0  0  0  0  0
  -18.4350  -26.6370   22.2010 C   0  0  0  0  0  2  0  0  0  0  0  0
  -19.3370  -28.7450   23.3460 C   0  0  0  0  0  0  0  0  0  0  0  0
  -19.0950  -29.9920   23.9600 C   0  0  0  0  0  3  0  0  0  0  0  0
  -17.7820  -30.4660   24.1360 C   0  0  0  0  0  3  0  0  0  0  0  0
  -16.6920  -29.6890   23.7080 C   0  0  0  0  0  3  0  0  0  0  0  0
  -16.9180  -28.4420   23.0980 C   0  0  0  0  0  3  0  0  0  0  0  0
  -26.0830  -32.4430   23.8650 C   0  0  0  0  0  3  0  0  0  0  0  0
  -25.7730  -33.8130   24.2950 N   0  0  0  0  0  0  0  0  0  0  0  0
  -26.0570  -34.9130   23.5850 C   0  0  0  0  0  0  0  0  0  0  0  0
  -26.6780  -34.8820   22.5190 O   0  0  0  0  0  0  0  0  0  0  0  0
  -25.2160  -33.9100   25.1290 H   0  0  0  0  0  0  0  0  0  0  0  0
  -24.2850  -36.6900   23.4260 C   0  0  0  0  0  1  0  0  0  0  0  0
  -25.5730  -36.2630   24.1480 C   0  0  0  0  0  3  0  0  0  0  0  0
  -27.7360  -37.1340   24.9170 C   0  0  0  0  0  1  0  0  0  0  0  0
  -26.5830  -37.3390   24.0440 N   0  0  0  0  0  0  0  0  0  0  0  0
  -26.1730  -38.2410   24.2670 H   0  0  0  0  0  0  0  0  0  0  0  0
  -26.6640  -31.5980   25.0630 C   0  0  1  0  0  0  0  0  0  0  0  0
  -25.6200  -31.2770   26.1590 C   0  0  0  0  0  1  0  0  0  0  0  0
  -27.2430  -30.2580   24.5540 C   0  0  0  0  0  1  0  0  0  0  0  0
  -27.8340  -32.3630   25.7270 C   0  0  0  0  0  1  0  0  0  0  0  0
  -33.7540  -24.8380   19.9020 C   0  0  0  0  0  2  0  0  0  0  0  0
  -34.9310  -24.7020   20.7790 N   0  0  0  0  0  4  0  0  0  0  0  0
  -34.6650  -24.3480   21.6810 H   0  0  0  0  0  0  0  0  0  0  0  0
  -35.3630  -25.5990   20.9150 H   0  0  0  0  0  0  0  0  0  0  0  0
  -35.6140  -24.0850   20.3780 H   0  0  0  0  0  0  0  0  0  0  0  0
  1  3  1  0
  1  2  1  0
  2  4  1  0
  3  6  1  0
  3  5  1  0
  4100  1  0
  5 55  1  0
  5  4  1  0
  6  8  1  0
  7  8  1  0
  8 10  1  0
  9  6  2  0
 10 20  1  0
 12 17  1  0
 13 14  1  0
 13 12  1  0
 15 14  1  0
 15 29  1  0
 15 16  1  0
 17 11  1  0
 17 16  1  0
 18 11  2  0
 19 21  1  0
 20 19  2  0
 21 23  1  0
 22 24  1  0
 22 19  1  0
 24 25  1  0
 25 11  1  0
 25 23  1  0
 26 27  2  0
 27 46  1  0
 28 27  1  0
 28 31  1  0
 29 26  1  0
 29 30  1  0
 30 28  2  0
 31 32  1  0
 32 33  2  0
 34 37  1  0
 34 33  1  0
 35 34  2  0
 36 35  1  0
 36 31  2  0
 37 38  1  0
 38 39  1  0
 39 40  2  0
 41 40  1  0
 41 45  1  0
 42 41  2  0
 43 38  2  0
 43 42  1  0
 44 43  1  0
 46 47  1  0
 47 50  1  0
 47 49  1  0
 48 46  2  0
 51 52  1  0
 51 26  1  0
 53 51  1  0
 54 58  1  0
 54 55  1  0
 55 57  1  0
 56 54  2  0
 58 59  1  0
 59 61  1  0
 60 71  2  0
 61 66  1  0
 62 70  1  0
 62 72  1  0
 63 69  1  0
 63 65  1  0
 64 70  1  0
 65 64  1  0
 66 65  2  0
 67 68  1  0
 67 61  2  0
 68 63  2  0
 69 62  1  0
 70 60  1  0
 72 74  2  0
 73 72  1  0
 75 73  1  0
 76 85  2  0
 76 81  1  0
 77 73  1  0
 77 81  1  0
 78 77  1  0
 79 80  1  0
 79 78  1  0
 80 76  1  0
 81 82  2  0
 82 83  1  0
 84 83  2  0
 85 84  1  0
 86 60  1  0
 86 87  1  0
 86 96  1  0
 87 90  1  0
 88 92  1  0
 88 87  1  0
 89 88  2  0
 92 91  1  0
 94 92  1  0
 94 95  1  0
 94 93  1  0
 96 99  1  1
 96 97  1  0
 98 96  1  0
100101  1  0
101103  1  0
101102  1  0
104101  1  0
M  ISO  4  11 100  25 100  58 101  59 101
M  END
>  <TORSDO>  (85) 
F 22

>  <SCORE>  (85) 
-11.659

>  <name>  (85) 
84

>  <ligand_id>  (85) 
84

>  <original_smiles>  (85) 
[H]C(=C1C([H])([H])C([H])([H])N(C(=O)N2C([H])([H])C([H])([H])C([H])([H])C([H])(n3nc(-c4c([H])c([H])c(Oc5c([H])c([H])c(F)c([H])c5F)c([H])c4[H])c(C(=O)N([H])[H])c3N([H])[H])C2([H])[H])C([H])([H])C1([H])[H])C([H])([H])N(C(=O)C1([H])C([H])([H])C([H])([H])C([H])(C([H])([H])[N+]([H])([H])[H])C1([H])N([H])C(=O)C([H])([H])Oc1c([H])c([H])c2c(c1[H])C([H])([H])N(C(=O)C([H])(N([H])C(=O)C([H])(N([H])C([H])([H])[H])C([H])([H])[H])C(C([H])([H])[H])(C([H])([H])[H])C([H])([H])[H])C([H])(C(=O)N([H])C1([H])c3c([H])c([H])c([H])c([H])c3C([H])([H])C([H])([H])C1([H])[H])C2([H])[H])C([H])([H])[H]

>  <smiles>  (85) 
[H]C(=C1C([H])([H])C([H])([H])N(C(=O)N2C([H])([H])C([H])([H])C([H])([H])C([H])(n3nc(-c4c([H])c([H])c(Oc5c([H])c([H])c(F)c([H])c5F)c([H])c4[H])c(C(=O)N([H])[H])c3N([H])[H])C2([H])[H])C([H])([H])C1([H])[H])C([H])([H])N(C(=O)C1([H])C([H])([H])C([H])([H])C([H])(C([H])([H])[N+]([H])([H])[H])C1([H])N([H])C(=O)C([H])([H])Oc1c([H])c([H])c2c(c1[H])C([H])([H])N(C(=O)C([H])(N([H])C(=O)C([H])(N([H])C([H])([H])[H])C([H])([H])[H])C(C([H])([H])[H])(C([H])([H])[H])C([H])([H])[H])C([H])(C(=O)N([H])C1([H])c3c([H])c([H])c([H])c([H])c3C([H])([H])C([H])([H])C1([H])[H])C2([H])[H])C([H])([H])[H]

$$$$
85:0:0
     RDKit          3D

100102  0  0  1  0  0  0  0  0999 V2000
  -26.2730  -16.5190   21.4980 C   0  0  0  0  0  2  0  0  0  0  0  0
  -26.8870  -11.1570   21.0170 C   0  0  0  0  0  1  0  0  0  0  0  0
  -25.0170  -10.8570   19.7680 C   0  0  0  0  0  1  0  0  0  0  0  0
  -25.8860  -14.9560   21.2850 C   0  0  0  0  0  1  0  0  0  0  0  0
  -24.0370  -14.5910   20.1170 C   0  0  0  0  0  1  0  0  0  0  0  0
  -27.3720  -13.3390   21.5590 C   0  0  0  0  0  1  0  0  0  0  0  0
  -23.6790  -12.5380   19.3570 C   0  0  0  0  0  1  0  0  0  0  0  0
  -22.5790  -12.3090   18.5980 F   0  0  0  0  0  0  0  0  0  0  0  0
  -29.9950  -13.7460   20.2030 C   0  0  0  0  0  0  0  0  0  0  0  0
  -30.6670  -11.8180   18.5640 C   0  0  0  0  0  2  0  0  0  0  0  0
  -29.5320  -11.4700   17.5070 C   0  0  0  0  0  2  0  0  0  0  0  0
  -28.0880  -11.2570   18.0320 C   0  0  0  0  0  2  0  0  0  0  0  0
  -27.9560  -12.2400   19.1370 C   0  0  0  0  0  3  0  0  0  0  0  0
  -29.1170  -11.7020   20.1310 C   0  0  0  0  0  2  0  0  0  0  0  0
  -30.1440  -12.4780   19.7780 N   0  0  0  0  0  0  0  0  0  0  0  0
  -30.8260  -14.4990   19.6170 O   0  0  0  0  0  0  0  0  0  0  0  0
  -28.8500  -13.9920   21.1650 N   0  0  0  0  0  0  0  0  0  0  0  0
  -28.9110  -14.9490   21.4730 H   0  0  0  0  0  0  0  0  0  0  0  0
  -25.8520  -12.9210   20.0150 C   0  0  0  0  0  0  0  0  0  0  0  0
  -24.6560  -12.3200   21.4080 C   0  0  0  0  0  0  0  0  0  0  0  0
  -24.7750  -11.1040   21.8210 C   0  0  0  0  0  2  0  0  0  0  0  0
  -26.4830  -12.4120   19.4790 N   0  0  0  0  0  2  0  0  0  0  0  0
  -25.2900  -12.2140   20.9410 N   0  0  2  0  0  4  0  0  0  0  0  0
  -24.0740   -9.7270   21.6220 C   0  0  0  0  0  3  0  0  0  0  0  0
  -24.5520   -8.6170   22.3580 C   0  0  0  0  0  3  0  0  0  0  0  0
  -23.8450   -7.3970   22.4130 C   0  0  0  0  0  3  0  0  0  0  0  0
  -22.6370   -7.2340   21.6950 C   0  0  0  0  0  0  0  0  0  0  0  0
  -22.2320   -8.2680   20.8320 C   0  0  0  0  0  3  0  0  0  0  0  0
  -22.9390   -9.4920   20.7890 C   0  0  0  0  0  3  0  0  0  0  0  0
  -21.8470   -6.1050   21.7810 O   0  0  0  0  0  0  0  0  0  0  0  0
  -21.7050   -5.4090   22.9610 C   0  0  0  0  0  0  0  0  0  0  0  0
  -21.2240   -6.0140   24.1430 C   0  0  0  0  0  3  0  0  0  0  0  0
  -21.0590   -5.2480   25.3160 C   0  0  0  0  0  3  0  0  0  0  0  0
  -21.3610   -3.8730   25.3100 C   0  0  0  0  0  0  0  0  0  0  0  0
  -21.8230   -3.2630   24.1310 C   0  0  0  0  0  3  0  0  0  0  0  0
  -21.9930   -4.0260   22.9620 C   0  0  0  0  0  0  0  0  0  0  0  0
  -22.4280   -3.4250   21.8290 F   0  0  0  0  0  0  0  0  0  0  0  0
  -21.1970   -3.1340   26.4330 F   0  0  0  0  0  0  0  0  0  0  0  0
  -23.1150  -12.6550   22.0690 C   0  0  0  0  0  0  0  0  0  0  0  0
  -22.5860  -11.8960   23.0220 N   0  0  0  0  0  0  0  0  0  0  0  0
  -22.3020  -13.5030   21.6880 O   0  0  0  0  0  0  0  0  0  0  0  0
  -23.0660  -11.0970   23.4070 H   0  0  0  0  0  0  0  0  0  0  0  0
  -21.6550  -12.1060   23.3550 H   0  0  0  0  0  0  0  0  0  0  0  0
  -26.2630  -14.1130   19.1940 N   0  0  0  0  0  4  0  0  0  0  0  0
  -25.7060  -14.9490   19.1020 H   0  0  0  0  0  0  0  0  0  0  0  0
  -26.7960  -13.9430   18.3510 H   0  0  0  0  0  0  0  0  0  0  0  0
  -23.1740  -15.7510   19.6520 C   0  0  1  0  0  0  0  0  0  0  0  0
  -23.1230  -16.6930   20.5930 F   0  0  0  0  0  0  0  0  0  0  0  0
  -23.7490  -16.2750   18.5700 F   0  0  0  0  0  0  0  0  0  0  0  0
  -21.9330  -15.3870   19.3280 F   0  0  0  0  0  0  0  0  0  0  0  0
  -26.6280  -17.5200   20.3490 N   0  0  0  0  0  4  0  0  0  0  0  0
  -25.9590  -17.3940   19.6100 H   0  0  0  0  0  0  0  0  0  0  0  0
  -27.5220  -17.2390   19.9830 H   0  0  0  0  0  0  0  0  0  0  0  0
  -26.6930  -19.0620   20.6030 C   0  0  0  0  0  2  0  0  0  0  0  0
  -27.1120  -20.1410   19.4160 C   0  0  0  0  0  2  0  0  0  0  0  0
  -26.7260  -21.6280   19.5140 N   0  0  0  0  0  0  0  0  0  0  0  0
  -26.6880  -21.8900   20.4960 H   0  0  0  0  0  0  0  0  0  0  0  0
  -27.4340  -22.7570   18.7370 C   0  0  0  0  0  3  0  0  0  0  0  0
  -27.1860  -24.3300   19.1550 C   0  0  0  0  0  3  0  0  0  0  0  0
  -27.7850  -25.5950   18.5110 O   0  0  0  0  0  0  0  0  0  0  0  0
  -25.3130  -30.7810   22.9450 C   0  0  0  0  0  0  0  0  0  0  0  0
  -27.0140  -26.7660   18.6870 C   0  0  0  0  0  0  0  0  0  0  0  0
  -23.8440  -29.9710   21.1410 C   0  0  0  0  0  3  0  0  0  0  0  0
  -24.9870  -28.6990   19.2390 C   0  0  0  0  0  0  0  0  0  0  0  0
  -26.3940  -30.0070   20.8170 C   0  0  0  0  0  2  0  0  0  0  0  0
  -26.2430  -28.8340   19.8480 C   0  0  0  0  0  0  0  0  0  0  0  0
  -27.2740  -27.8680   19.5750 C   0  0  0  0  0  3  0  0  0  0  0  0
  -25.7980  -26.7950   17.9810 C   0  0  0  0  0  3  0  0  0  0  0  0
  -24.7760  -27.6990   18.2830 C   0  0  0  0  0  3  0  0  0  0  0  0
  -23.8860  -29.6660   19.6230 C   0  0  0  0  0  2  0  0  0  0  0  0
  -25.2080  -30.2570   21.6890 N   0  0  0  0  0  0  0  0  0  0  0  0
  -24.3050  -31.0370   23.6220 O   0  0  0  0  0  0  0  0  0  0  0  0
  -23.1210  -28.8180   21.8800 C   0  0  0  0  0  0  0  0  0  0  0  0
  -21.7780  -28.8200   21.8430 N   0  0  0  0  0  0  0  0  0  0  0  0
  -23.7670  -27.9400   22.4570 O   0  0  0  0  0  0  0  0  0  0  0  0
  -21.3190  -29.5790   21.3570 H   0  0  0  0  0  0  0  0  0  0  0  0
  -18.3140  -27.9050   22.3540 C   0  0  0  0  0  0  0  0  0  0  0  0
  -20.8960  -27.8160   22.4430 C   0  0  0  0  0  3  0  0  0  0  0  0
  -20.7820  -26.5670   21.5370 C   0  0  0  0  0  2  0  0  0  0  0  0
  -19.5860  -26.6220   20.5820 C   0  0  0  0  0  2  0  0  0  0  0  0
  -18.2770  -26.7530   21.3660 C   0  0  0  0  0  2  0  0  0  0  0  0
  -19.5440  -28.4160   22.8480 C   0  0  0  0  0  0  0  0  0  0  0  0
  -19.5220  -29.5120   23.7370 C   0  0  0  0  0  3  0  0  0  0  0  0
  -18.3020  -30.0900   24.1370 C   0  0  0  0  0  3  0  0  0  0  0  0
  -17.0880  -29.5700   23.6600 C   0  0  0  0  0  3  0  0  0  0  0  0
  -17.0950  -28.4790   22.7730 C   0  0  0  0  0  3  0  0  0  0  0  0
  -26.6990  -31.1090   23.5790 C   0  0  0  0  0  3  0  0  0  0  0  0
  -26.5510  -32.3490   24.3540 N   0  0  0  0  0  0  0  0  0  0  0  0
  -26.9380  -33.5620   23.9380 C   0  0  0  0  0  0  0  0  0  0  0  0
  -27.5280  -33.7440   22.8700 O   0  0  0  0  0  0  0  0  0  0  0  0
  -26.0290  -32.2830   25.2150 H   0  0  0  0  0  0  0  0  0  0  0  0
  -25.3990  -35.5160   24.3150 C   0  0  0  0  0  1  0  0  0  0  0  0
  -26.6270  -34.7630   24.8520 C   0  0  0  0  0  3  0  0  0  0  0  0
  -28.8770  -35.1450   25.7590 C   0  0  0  0  0  1  0  0  0  0  0  0
  -27.7600  -35.7030   25.0000 N   0  0  0  0  0  0  0  0  0  0  0  0
  -27.4610  -36.5580   25.4610 H   0  0  0  0  0  0  0  0  0  0  0  0
  -27.2450  -29.9500   24.4990 C   0  0  1  0  0  0  0  0  0  0  0  0
  -26.2310  -29.4720   25.5660 C   0  0  0  0  0  1  0  0  0  0  0  0
  -27.6510  -28.7230   23.6510 C   0  0  0  0  0  1  0  0  0  0  0  0
  -28.5240  -30.4180   25.2310 C   0  0  0  0  0  1  0  0  0  0  0  0
 23  3  1  6
  4  1  1  0
  8  7  1  0
  9 17  1  0
 10 15  1  0
 11 12  1  0
 11 10  1  0
 12 13  1  0
 13 22  1  0
 13 14  1  0
 15 14  1  0
 15  9  1  0
 16  9  2  0
 17 18  1  0
 17  6  1  0
 19 23  1  0
 20 21  2  0
 20 39  1  0
 22 19  1  0
 23  2  1  0
 23 20  1  0
 24 25  1  0
 25 26  2  0
 27 30  1  0
 27 26  1  0
 28 27  2  0
 29 28  1  0
 29 24  2  0
 30 31  1  0
 31 36  2  0
 31 32  1  0
 32 33  2  0
 34 33  1  0
 34 38  1  0
 35 34  2  0
 36 35  1  0
 37 36  1  0
 39 40  1  0
 40 43  1  0
 40 42  1  0
 41 39  2  0
 44 19  2  0
 45 44  1  0
 46 44  1  0
 47  5  1  1
 47 48  1  0
 49 47  1  0
 50 47  1  0
 51 54  1  0
 51  1  1  0
 52 51  1  0
 53 51  1  0
 55 56  1  0
 55 54  1  0
 56 57  1  0
 58 59  2  0
 58 56  1  0
 60 62  1  0
 60 59  1  0
 61 72  2  0
 62 67  1  0
 63 71  1  0
 63 73  1  0
 64 70  1  0
 64 66  1  0
 65 71  1  0
 66 65  1  0
 67 66  2  0
 68 69  1  0
 68 62  2  0
 69 64  2  0
 70 63  1  0
 71 61  1  0
 73 75  2  0
 74 73  1  0
 76 74  1  0
 77 86  2  0
 77 82  1  0
 78 74  1  0
 78 82  1  0
 79 78  1  0
 80 81  1  0
 80 79  1  0
 81 77  1  0
 82 83  2  0
 83 84  1  0
 85 84  2  0
 86 85  1  0
 87 61  1  0
 87 88  1  0
 87 97  1  0
 88 91  1  0
 89 88  1  0
 89 93  1  0
 90 89  2  0
 93 92  1  0
 93 95  1  0
 95 96  1  0
 95 94  1  0
 97100  1  1
 97 98  1  0
 99 97  1  0
M  ISO  4   9 100  17 100  59 101  60 101
M  END
>  <TORSDO>  (86) 
F 24

>  <SCORE>  (86) 
2.326

>  <name>  (86) 
85

>  <ligand_id>  (86) 
85

>  <original_smiles>  (86) 
[H]c1c([H])c([H])c2c(c1[H])C([H])([H])C([H])([H])C([H])([H])C2([H])N([H])C(=O)C1([H])N(C(=O)C([H])(N([H])C(=O)C([H])(N([H])C([H])([H])[H])C([H])([H])[H])C(C([H])([H])[H])(C([H])([H])[H])C([H])([H])[H])C([H])([H])c2c([H])c(OC([H])([H])C([H])([H])N([H])C([H])([H])C([H])([H])[N+]([H])([H])C([H])([H])c3c(N([H])C(=O)N4C([H])([H])C([H])([H])C([H])([H])C([H])(n5nc(-c6c([H])c([H])c(Oc7c([H])c([H])c(F)c([H])c7F)c([H])c6[H])c(C(=O)N([H])[H])c5N([H])[H])C4([H])[H])c([H])c([H])c(F)c3C(F)(F)F)c([H])c([H])c2C1([H])[H]

>  <smiles>  (86) 
[H]c1c([H])c([H])c2c(c1[H])C([H])([H])C([H])([H])C([H])([H])C2([H])N([H])C(=O)C1([H])N(C(=O)C([H])(N([H])C(=O)C([H])(N([H])C([H])([H])[H])C([H])([H])[H])C(C([H])([H])[H])(C([H])([H])[H])C([H])([H])[H])C([H])([H])c2c([H])c(OC([H])([H])C([H])([H])N([H])C([H])([H])C([H])([H])[N+]([H])([H])C([H])([H])c3c(N([H])C(=O)N4C([H])([H])C([H])([H])C([H])([H])C([H])(n5nc(-c6c([H])c([H])c(Oc7c([H])c([H])c(F)c([H])c7F)c([H])c6[H])c(C(=O)N([H])[H])c5N([H])[H])C4([H])[H])c([H])c([H])c(F)c3C(F)(F)F)c([H])c([H])c2C1([H])[H]

$$$$
86:0:0
     RDKit          3D

101109  0  0  1  0  0  0  0  0999 V2000
  -31.3120  -18.5340   22.6900 C   0  0  0  0  0  2  0  0  0  0  0  0
  -30.3900  -19.6060   22.1010 C   0  0  0  0  0  2  0  0  0  0  0  0
  -30.4330  -16.8920   21.0560 C   0  0  0  0  0  3  0  0  0  0  0  0
  -30.6650  -17.1520   22.5570 C   0  0  0  0  0  3  0  0  0  0  0  0
  -29.5630  -18.0410   20.4080 C   0  0  0  0  0  3  0  0  0  0  0  0
  -30.1310  -19.4060   20.6620 N   0  0  0  0  0  0  0  0  0  0  0  0
  -30.5070  -14.5590   20.0780 C   0  0  0  0  0  0  0  0  0  0  0  0
  -30.1570  -12.4510   18.8480 C   0  0  0  0  0  2  0  0  0  0  0  0
  -29.1190  -12.6600   17.7250 C   0  0  0  0  0  2  0  0  0  0  0  0
  -27.6890  -12.4550   18.2610 C   0  0  0  0  0  2  0  0  0  0  0  0
  -27.4240  -13.2420   19.5720 C   0  0  0  0  0  3  0  0  0  0  0  0
  -28.5640  -13.0260   20.5920 C   0  0  0  0  0  2  0  0  0  0  0  0
  -29.8350  -13.3860   19.9390 N   0  0  0  0  0  0  0  0  0  0  0  0
  -31.5570  -14.8030   19.4810 O   0  0  0  0  0  0  0  0  0  0  0  0
  -29.9200  -15.5130   20.8350 N   0  0  0  0  0  0  0  0  0  0  0  0
  -29.0430  -15.2600   21.2690 H   0  0  0  0  0  0  0  0  0  0  0  0
  -25.0600  -13.7430   20.4520 C   0  0  0  0  0  0  0  0  0  0  0  0
  -24.0490  -12.9250   20.8770 C   0  0  0  0  0  0  0  0  0  0  0  0
  -24.5570  -11.5920   20.7920 C   0  0  0  0  0  0  0  0  0  0  0  0
  -26.1190  -12.9070   20.1380 N   0  0  0  0  0  0  0  0  0  0  0  0
  -25.8240  -11.6070   20.3990 N   0  0  0  0  0  0  0  0  0  0  0  0
  -23.8930  -10.2990   21.0070 C   0  0  0  0  0  0  0  0  0  0  0  0
  -24.3630   -9.3790   21.9710 C   0  0  0  0  0  3  0  0  0  0  0  0
  -23.6960   -8.1510   22.1720 C   0  0  0  0  0  3  0  0  0  0  0  0
  -22.5470   -7.8340   21.4090 C   0  0  0  0  0  0  0  0  0  0  0  0
  -22.0970   -8.7440   20.4360 C   0  0  0  0  0  3  0  0  0  0  0  0
  -22.7650   -9.9630   20.2330 C   0  0  0  0  0  3  0  0  0  0  0  0
  -21.8510   -6.6550   21.5180 O   0  0  0  0  0  0  0  0  0  0  0  0
  -21.7650   -5.9790   22.7080 C   0  0  0  0  0  0  0  0  0  0  0  0
  -21.1700   -6.5530   23.8510 C   0  0  0  0  0  3  0  0  0  0  0  0
  -21.0400   -5.7960   25.0330 C   0  0  0  0  0  3  0  0  0  0  0  0
  -21.4960   -4.4640   25.0710 C   0  0  0  0  0  0  0  0  0  0  0  0
  -22.0850   -3.8890   23.9320 C   0  0  0  0  0  3  0  0  0  0  0  0
  -22.2150   -4.6430   22.7530 C   0  0  0  0  0  0  0  0  0  0  0  0
  -22.7630   -4.0770   21.6510 F   0  0  0  0  0  0  0  0  0  0  0  0
  -21.3660   -3.7350   26.2040 F   0  0  0  0  0  0  0  0  0  0  0  0
  -22.6560  -13.3440   21.2540 C   0  0  0  0  0  0  0  0  0  0  0  0
  -22.0140  -12.6000   22.1480 N   0  0  0  0  0  0  0  0  0  0  0  0
  -22.1470  -14.3640   20.7910 O   0  0  0  0  0  0  0  0  0  0  0  0
  -22.4390  -11.7740   22.5420 H   0  0  0  0  0  0  0  0  0  0  0  0
  -21.0850  -12.8620   22.4450 H   0  0  0  0  0  0  0  0  0  0  0  0
  -25.1600  -15.1220   20.2850 N   0  0  0  0  0  0  0  0  0  0  0  0
  -24.3700  -15.7400   20.4340 H   0  0  0  0  0  0  0  0  0  0  0  0
  -25.9570  -15.5900   19.8750 H   0  0  0  0  0  0  0  0  0  0  0  0
  -31.4890  -16.1030   23.1930 N   0  0  0  0  0  4  0  0  0  0  0  0
  -32.3900  -16.0250   22.7540 H   0  0  0  0  0  0  0  0  0  0  0  0
  -31.0270  -15.2140   23.1380 H   0  0  0  0  0  0  0  0  0  0  0  0
  -31.6280  -16.3090   24.1660 H   0  0  0  0  0  0  0  0  0  0  0  0
  -29.3940  -17.8080   18.8800 C   0  0  0  0  0  2  0  0  0  0  0  0
  -30.6650  -18.0110   18.1610 N   0  0  0  0  0  4  0  0  0  0  0  0
  -31.0490  -18.8950   18.4500 H   0  0  0  0  0  0  0  0  0  0  0  0
  -30.5170  -18.0260   17.1680 H   0  0  0  0  0  0  0  0  0  0  0  0
  -31.3290  -17.2890   18.3770 H   0  0  0  0  0  0  0  0  0  0  0  0
  -29.2460  -20.5300   20.2480 C   0  0  0  0  0  2  0  0  0  0  0  0
  -29.9170  -21.9450   20.2280 C   0  0  0  0  0  2  0  0  0  0  0  0
  -29.1340  -24.3470   20.1080 C   0  0  0  0  0  0  0  0  0  0  0  0
  -28.9210  -23.0140   20.0760 N   0  0  0  0  0  0  0  0  0  0  0  0
  -30.2620  -24.8400   20.2300 O   0  0  0  0  0  0  0  0  0  0  0  0
  -27.9590  -22.7180   19.9550 H   0  0  0  0  0  0  0  0  0  0  0  0
  -27.8720  -25.2300   19.9720 C   0  0  0  0  0  2  0  0  0  0  0  0
  -28.1510  -26.6500   19.8230 O   0  0  0  0  0  0  0  0  0  0  0  0
  -24.4980  -31.7740   23.2110 C   0  0  0  0  0  0  0  0  0  0  0  0
  -27.0220  -27.4570   19.8410 C   0  0  0  0  0  0  0  0  0  0  0  0
  -23.2440  -30.4680   21.5310 C   0  0  0  0  0  3  0  0  0  0  0  0
  -24.6500  -29.0120   19.9860 C   0  0  0  0  0  0  0  0  0  0  0  0
  -25.7720  -30.8160   21.2930 C   0  0  0  0  0  2  0  0  0  0  0  0
  -25.8320  -29.4830   20.5710 C   0  0  0  0  0  0  0  0  0  0  0  0
  -27.0240  -28.7170   20.4940 C   0  0  0  0  0  3  0  0  0  0  0  0
  -25.8220  -27.0320   19.2220 C   0  0  0  0  0  3  0  0  0  0  0  0
  -24.6440  -27.7880   19.3040 C   0  0  0  0  0  3  0  0  0  0  0  0
  -23.4140  -29.8730   20.1110 C   0  0  0  0  0  2  0  0  0  0  0  0
  -24.5240  -31.0300   22.0700 N   0  0  0  0  0  0  0  0  0  0  0  0
  -23.4310  -32.0230   23.7900 O   0  0  0  0  0  0  0  0  0  0  0  0
  -22.6120  -29.3960   22.4510 C   0  0  0  0  0  0  0  0  0  0  0  0
  -21.2910  -29.1970   22.3200 N   0  0  0  0  0  0  0  0  0  0  0  0
  -23.3090  -28.7510   23.2390 O   0  0  0  0  0  0  0  0  0  0  0  0
  -20.7890  -29.7720   21.6580 H   0  0  0  0  0  0  0  0  0  0  0  0
  -17.9290  -27.9640   22.8110 C   0  0  0  0  0  0  0  0  0  0  0  0
  -20.4900  -28.2190   23.0580 C   0  0  0  0  0  3  0  0  0  0  0  0
  -20.5910  -26.8160   22.4150 C   0  0  0  0  0  2  0  0  0  0  0  0
  -19.4750  -26.5380   21.4020 C   0  0  0  0  0  2  0  0  0  0  0  0
  -18.1000  -26.6510   22.0650 C   0  0  0  0  0  2  0  0  0  0  0  0
  -19.0520  -28.7080   23.2620 C   0  0  0  0  0  0  0  0  0  0  0  0
  -18.8370  -29.9420   23.9160 C   0  0  0  0  0  3  0  0  0  0  0  0
  -17.5330  -30.4280   24.1250 C   0  0  0  0  0  3  0  0  0  0  0  0
  -16.4260  -29.6790   23.6910 C   0  0  0  0  0  3  0  0  0  0  0  0
  -16.6250  -28.4490   23.0380 C   0  0  0  0  0  3  0  0  0  0  0  0
  -25.8030  -32.3670   23.8280 C   0  0  0  0  0  3  0  0  0  0  0  0
  -26.3040  -31.5730   25.0970 C   0  0  1  0  0  0  0  0  0  0  0  0
  -25.1980  -31.3200   26.1480 C   0  0  0  0  0  1  0  0  0  0  0  0
  -26.8940  -30.2050   24.6860 C   0  0  0  0  0  1  0  0  0  0  0  0
  -27.4490  -32.3570   25.7820 C   0  0  0  0  0  1  0  0  0  0  0  0
  -25.5320  -33.7700   24.1670 N   0  0  0  0  0  0  0  0  0  0  0  0
  -25.8700  -34.8150   23.4010 C   0  0  0  0  0  0  0  0  0  0  0  0
  -26.5140  -34.7010   22.3550 O   0  0  0  0  0  0  0  0  0  0  0  0
  -24.9650  -33.9370   24.9850 H   0  0  0  0  0  0  0  0  0  0  0  0
  -24.1700  -36.6410   23.0920 C   0  0  0  0  0  1  0  0  0  0  0  0
  -25.4220  -36.2120   23.8730 C   0  0  0  0  0  3  0  0  0  0  0  0
  -27.5860  -37.0590   24.6660 C   0  0  0  0  0  1  0  0  0  0  0  0
  -26.4730  -37.2440   23.7390 N   0  0  0  0  0  0  0  0  0  0  0  0
  -26.0860  -38.1720   23.8910 H   0  0  0  0  0  0  0  0  0  0  0  0
  2  1  1  0
  3 15  1  0
  3  4  1  0
  4  1  1  0
  4 45  1  0
  5 49  1  0
  5  6  1  0
  5  3  1  0
  6  2  1  0
  7 15  1  0
  8 13  1  0
  9 10  1  0
  9  8  1  0
 11 10  1  0
 11 20  1  0
 11 12  1  0
 13  7  1  0
 13 12  1  0
 14  7  2  0
 15 16  1  0
 17 18  2  0
 18 37  1  0
 19 18  1  0
 19 22  1  0
 20 21  1  0
 20 17  1  0
 21 19  2  0
 22 23  1  0
 23 24  2  0
 25 28  1  0
 25 24  1  0
 26 25  2  0
 27 26  1  0
 27 22  2  0
 28 29  1  0
 29 34  2  0
 29 30  1  0
 30 31  2  0
 31 32  1  0
 32 36  1  0
 33 32  2  0
 34 33  1  0
 35 34  1  0
 37 38  1  0
 38 41  1  0
 38 40  1  0
 39 37  2  0
 42 43  1  0
 42 17  1  0
 44 42  1  0
 45 48  1  0
 46 45  1  0
 47 45  1  0
 50 53  1  0
 50 51  1  0
 50 49  1  0
 52 50  1  0
 54  6  1  0
 55 54  1  0
 56 58  2  0
 57 56  1  0
 57 55  1  0
 59 57  1  0
 60 56  1  0
 61 63  1  0
 61 60  1  0
 62 73  2  0
 63 68  1  0
 64 72  1  0
 64 74  1  0
 65 71  1  0
 65 67  1  0
 66 72  1  0
 67 66  1  0
 68 67  2  0
 69 70  1  0
 69 63  2  0
 70 65  2  0
 71 64  1  0
 72 62  1  0
 74 76  2  0
 75 74  1  0
 77 75  1  0
 78 87  2  0
 78 83  1  0
 79 75  1  0
 79 83  1  0
 80 79  1  0
 81 82  1  0
 81 80  1  0
 82 78  1  0
 83 84  2  0
 84 85  1  0
 86 85  2  0
 87 86  1  0
 88 62  1  0
 88 93  1  0
 88 89  1  0
 89 92  1  1
 89 90  1  0
 91 89  1  0
 93 96  1  0
 94 98  1  0
 94 93  1  0
 95 94  2  0
 98 97  1  0
100 98  1  0
100101  1  0
100 99  1  0
M  ISO  4   7 100  15 100  60 101  61 101
M  END
>  <TORSDO>  (87) 
F 23

>  <SCORE>  (87) 
-11.683

>  <name>  (87) 
86

>  <ligand_id>  (87) 
86

>  <original_smiles>  (87) 
[H]c1c([H])c([H])c2c(c1[H])C([H])([H])C([H])([H])C([H])([H])C2([H])N([H])C(=O)C1([H])N(C(=O)C([H])(N([H])C(=O)C([H])(N([H])C([H])([H])[H])C([H])([H])[H])C(C([H])([H])[H])(C([H])([H])[H])C([H])([H])[H])C([H])([H])c2c([H])c(OC([H])([H])C(=O)N([H])C([H])([H])C([H])([H])N3C([H])([H])C([H])([H])C([H])([N+]([H])([H])[H])C([H])(N([H])C(=O)N4C([H])([H])C([H])([H])C([H])([H])C([H])(n5nc(-c6c([H])c([H])c(Oc7c([H])c([H])c(F)c([H])c7F)c([H])c6[H])c(C(=O)N([H])[H])c5N([H])[H])C4([H])[H])C3([H])C([H])([H])[N+]([H])([H])[H])c([H])c([H])c2C1([H])[H]

>  <smiles>  (87) 
[H]c1c([H])c([H])c2c(c1[H])C([H])([H])C([H])([H])C([H])([H])C2([H])N([H])C(=O)C1([H])N(C(=O)C([H])(N([H])C(=O)C([H])(N([H])C([H])([H])[H])C([H])([H])[H])C(C([H])([H])[H])(C([H])([H])[H])C([H])([H])[H])C([H])([H])c2c([H])c(OC([H])([H])C(=O)N([H])C([H])([H])C([H])([H])N3C([H])([H])C([H])([H])C([H])([N+]([H])([H])[H])C([H])(N([H])C(=O)N4C([H])([H])C([H])([H])C([H])([H])C([H])(n5nc(-c6c([H])c([H])c(Oc7c([H])c([H])c(F)c([H])c7F)c([H])c6[H])c(C(=O)N([H])[H])c5N([H])[H])C4([H])[H])C3([H])C([H])([H])[N+]([H])([H])[H])c([H])c([H])c2C1([H])[H]

$$$$
87:0:0
     RDKit          3D

 93102  0  0  1  0  0  0  0  0999 V2000
  -28.7740  -23.8210   19.9080 C   0  0  0  0  0  0  0  0  0  0  0  0
  -27.6530  -21.1280   20.9160 C   0  0  0  0  0  2  0  0  0  0  0  0
  -28.3670  -22.1780   21.7750 C   0  0  0  0  0  2  0  0  0  0  0  0
  -28.8650  -21.1680   19.9730 C   0  0  0  0  0  3  0  0  0  0  0  0
  -29.0860  -22.5560   20.5620 N   0  0  0  0  0  0  0  0  0  0  0  0
  -28.8770  -23.9020   18.6800 O   0  0  0  0  0  0  0  0  0  0  0  0
  -31.7480  -17.7890   20.5740 C   0  0  0  0  0  3  0  0  0  0  0  0
  -32.1590  -19.1370   20.6010 C   0  0  0  0  0  3  0  0  0  0  0  0
  -29.4850  -18.5460   20.1420 C   0  0  0  0  0  3  0  0  0  0  0  0
  -29.8790  -19.9510   20.1870 C   0  0  0  0  0  0  0  0  0  0  0  0
  -30.4000  -17.4280   20.3260 C   0  0  0  0  0  0  0  0  0  0  0  0
  -31.2550  -20.2000   20.4010 C   0  0  0  0  0  0  0  0  0  0  0  0
  -31.7350  -21.4650   20.4220 F   0  0  0  0  0  0  0  0  0  0  0  0
  -30.7200  -14.8300   20.1100 C   0  0  0  0  0  0  0  0  0  0  0  0
  -30.4330  -12.5680   19.0910 C   0  0  0  0  0  2  0  0  0  0  0  0
  -29.4540  -12.6470   17.9020 C   0  0  0  0  0  2  0  0  0  0  0  0
  -28.0040  -12.4710   18.3900 C   0  0  0  0  0  2  0  0  0  0  0  0
  -27.6720  -13.3590   19.6180 C   0  0  0  0  0  3  0  0  0  0  0  0
  -28.7760  -13.2890   20.6970 C   0  0  0  0  0  2  0  0  0  0  0  0
  -30.0500  -13.6290   20.0490 N   0  0  0  0  0  0  0  0  0  0  0  0
  -31.9020  -14.8740   19.7650 O   0  0  0  0  0  0  0  0  0  0  0  0
  -29.9880  -15.9960   20.3070 N   0  0  0  0  0  0  0  0  0  0  0  0
  -28.9980  -15.8330   20.4040 H   0  0  0  0  0  0  0  0  0  0  0  0
  -25.3100  -13.9400   20.4320 C   0  0  0  0  0  0  0  0  0  0  0  0
  -24.2570  -13.1600   20.8290 C   0  0  0  0  0  0  0  0  0  0  0  0
  -24.7210  -11.8110   20.7690 C   0  0  0  0  0  0  0  0  0  0  0  0
  -26.3470  -13.0650   20.1560 N   0  0  0  0  0  0  0  0  0  0  0  0
  -26.0020  -11.7790   20.4230 N   0  0  0  0  0  0  0  0  0  0  0  0
  -24.0020  -10.5450   20.9710 C   0  0  0  0  0  0  0  0  0  0  0  0
  -24.4470   -9.5810   21.9020 C   0  0  0  0  0  3  0  0  0  0  0  0
  -23.7270   -8.3830   22.0910 C   0  0  0  0  0  3  0  0  0  0  0  0
  -22.5470   -8.1380   21.3490 C   0  0  0  0  0  0  0  0  0  0  0  0
  -22.1200   -9.0910   20.4070 C   0  0  0  0  0  3  0  0  0  0  0  0
  -22.8400  -10.2820   20.2170 C   0  0  0  0  0  3  0  0  0  0  0  0
  -21.7990   -6.9900   21.4470 O   0  0  0  0  0  0  0  0  0  0  0  0
  -21.7440   -6.2610   22.6090 C   0  0  0  0  0  0  0  0  0  0  0  0
  -21.2760   -6.8220   23.8180 C   0  0  0  0  0  3  0  0  0  0  0  0
  -21.1730   -6.0190   24.9710 C   0  0  0  0  0  3  0  0  0  0  0  0
  -21.5270   -4.6580   24.9180 C   0  0  0  0  0  0  0  0  0  0  0  0
  -21.9890   -4.0980   23.7130 C   0  0  0  0  0  3  0  0  0  0  0  0
  -22.0950   -4.8970   22.5610 C   0  0  0  0  0  0  0  0  0  0  0  0
  -22.5210   -4.3460   21.3990 F   0  0  0  0  0  0  0  0  0  0  0  0
  -21.4210   -3.8870   26.0250 F   0  0  0  0  0  0  0  0  0  0  0  0
  -22.8690  -13.6340   21.1440 C   0  0  0  0  0  0  0  0  0  0  0  0
  -22.1680  -12.9300   22.0270 N   0  0  0  0  0  0  0  0  0  0  0  0
  -22.4150  -14.6610   20.6420 O   0  0  0  0  0  0  0  0  0  0  0  0
  -22.5500  -12.0980   22.4520 H   0  0  0  0  0  0  0  0  0  0  0  0
  -21.2390  -13.2310   22.2840 H   0  0  0  0  0  0  0  0  0  0  0  0
  -25.4610  -15.3130   20.2600 N   0  0  0  0  0  0  0  0  0  0  0  0
  -24.6900  -15.9540   20.4050 H   0  0  0  0  0  0  0  0  0  0  0  0
  -26.2800  -15.7640   19.8780 H   0  0  0  0  0  0  0  0  0  0  0  0
  -28.1960  -25.0830   20.7200 C   0  0  0  0  0  2  0  0  0  0  0  0
  -28.4140  -26.4740   20.1900 O   0  0  0  0  0  0  0  0  0  0  0  0
  -24.5960  -31.8740   23.2310 C   0  0  0  0  0  0  0  0  0  0  0  0
  -27.3100  -27.3510   20.1700 C   0  0  0  0  0  0  0  0  0  0  0  0
  -23.4420  -30.4780   21.5540 C   0  0  0  0  0  3  0  0  0  0  0  0
  -24.9350  -28.9590   20.1400 C   0  0  0  0  0  0  0  0  0  0  0  0
  -25.9820  -30.8240   21.4260 C   0  0  0  0  0  2  0  0  0  0  0  0
  -26.0930  -29.4520   20.7570 C   0  0  0  0  0  0  0  0  0  0  0  0
  -27.2890  -28.6610   20.7590 C   0  0  0  0  0  3  0  0  0  0  0  0
  -26.1310  -26.9230   19.5240 C   0  0  0  0  0  3  0  0  0  0  0  0
  -24.9570  -27.7030   19.5150 C   0  0  0  0  0  3  0  0  0  0  0  0
  -23.6870  -29.8190   20.1740 C   0  0  0  0  0  2  0  0  0  0  0  0
  -24.6900  -31.0760   22.1270 N   0  0  0  0  0  0  0  0  0  0  0  0
  -23.5000  -32.1330   23.7480 O   0  0  0  0  0  0  0  0  0  0  0  0
  -22.7700  -29.4460   22.4920 C   0  0  0  0  0  0  0  0  0  0  0  0
  -21.4510  -29.2460   22.3290 N   0  0  0  0  0  0  0  0  0  0  0  0
  -23.4380  -28.8260   23.3240 O   0  0  0  0  0  0  0  0  0  0  0  0
  -20.9720  -29.8000   21.6340 H   0  0  0  0  0  0  0  0  0  0  0  0
  -18.0890  -27.9620   22.7180 C   0  0  0  0  0  0  0  0  0  0  0  0
  -20.6290  -28.2860   23.0690 C   0  0  0  0  0  3  0  0  0  0  0  0
  -20.7860  -26.8580   22.4940 C   0  0  0  0  0  2  0  0  0  0  0  0
  -19.7250  -26.5100   21.4460 C   0  0  0  0  0  2  0  0  0  0  0  0
  -18.3200  -26.6200   22.0440 C   0  0  0  0  0  2  0  0  0  0  0  0
  -19.1750  -28.7500   23.1840 C   0  0  0  0  0  0  0  0  0  0  0  0
  -18.9070  -30.0050   23.7730 C   0  0  0  0  0  3  0  0  0  0  0  0
  -17.5870  -30.4760   23.8960 C   0  0  0  0  0  3  0  0  0  0  0  0
  -16.5150  -29.6850   23.4480 C   0  0  0  0  0  3  0  0  0  0  0  0
  -16.7670  -28.4270   22.8690 C   0  0  0  0  0  3  0  0  0  0  0  0
  -25.8600  -32.5140   23.8870 C   0  0  0  0  0  3  0  0  0  0  0  0
  -25.5380  -33.9150   24.1980 N   0  0  0  0  0  0  0  0  0  0  0  0
  -25.8860  -34.9640   23.4390 C   0  0  0  0  0  0  0  0  0  0  0  0
  -26.5810  -34.8530   22.4260 O   0  0  0  0  0  0  0  0  0  0  0  0
  -24.9190  -34.0730   24.9790 H   0  0  0  0  0  0  0  0  0  0  0  0
  -24.1670  -36.7540   23.0300 C   0  0  0  0  0  1  0  0  0  0  0  0
  -25.3860  -36.3540   23.8750 C   0  0  0  0  0  3  0  0  0  0  0  0
  -27.4930  -37.2480   24.7620 C   0  0  0  0  0  1  0  0  0  0  0  0
  -26.4210  -37.4070   23.7820 N   0  0  0  0  0  0  0  0  0  0  0  0
  -26.0100  -38.3300   23.9120 H   0  0  0  0  0  0  0  0  0  0  0  0
  -26.3400  -31.7560   25.1870 C   0  0  1  0  0  0  0  0  0  0  0  0
  -25.2150  -31.5240   26.2210 C   0  0  0  0  0  1  0  0  0  0  0  0
  -26.9390  -30.3760   24.8310 C   0  0  0  0  0  1  0  0  0  0  0  0
  -27.4670  -32.5620   25.8750 C   0  0  0  0  0  1  0  0  0  0  0  0
  1  5  1  0
  1 52  1  0
  2  3  1  0
  4 10  1  0
  4  5  1  0
  4  2  1  0
  5  3  1  0
  6  1  2  0
  7  8  1  0
  9 10  2  0
  9 11  1  0
 10 12  1  0
 11  7  2  0
 12 13  1  0
 12  8  2  0
 14 22  1  0
 15 20  1  0
 16 17  1  0
 16 15  1  0
 18 17  1  0
 18 27  1  0
 18 19  1  0
 20 14  1  0
 20 19  1  0
 21 14  2  0
 22 11  1  0
 22 23  1  0
 24 25  2  0
 25 44  1  0
 26 25  1  0
 26 29  1  0
 27 28  1  0
 27 24  1  0
 28 26  2  0
 29 30  1  0
 30 31  2  0
 32 35  1  0
 32 31  1  0
 33 32  2  0
 34 33  1  0
 34 29  2  0
 35 36  1  0
 36 37  1  0
 37 38  2  0
 39 38  1  0
 39 43  1  0
 40 39  2  0
 41 36  2  0
 41 40  1  0
 42 41  1  0
 44 45  1  0
 45 48  1  0
 45 47  1  0
 46 44  2  0
 49 50  1  0
 49 24  1  0
 51 49  1  0
 53 52  1  0
 54 65  2  0
 55 53  1  0
 55 60  1  0
 56 64  1  0
 56 66  1  0
 57 63  1  0
 57 59  1  0
 58 64  1  0
 59 60  2  0
 59 58  1  0
 61 55  2  0
 62 61  1  0
 62 57  2  0
 63 56  1  0
 64 54  1  0
 66 68  2  0
 67 66  1  0
 69 67  1  0
 70 79  2  0
 70 75  1  0
 71 67  1  0
 71 75  1  0
 72 71  1  0
 73 74  1  0
 73 72  1  0
 74 70  1  0
 75 76  2  0
 76 77  1  0
 78 77  2  0
 79 78  1  0
 80 54  1  0
 80 81  1  0
 80 90  1  0
 81 84  1  0
 82 86  1  0
 82 81  1  0
 83 82  2  0
 86 85  1  0
 88 86  1  0
 88 89  1  0
 88 87  1  0
 90 93  1  1
 90 91  1  0
 92 90  1  0
M  ISO  4  14 100  22 100  52 101  53 101
M  END
>  <TORSDO>  (88) 
F 18

>  <SCORE>  (88) 
-14.658

>  <name>  (88) 
87

>  <ligand_id>  (88) 
87

>  <original_smiles>  (88) 
[H]c1c([H])c([H])c2c(c1[H])C([H])([H])C([H])([H])C([H])([H])C2([H])N([H])C(=O)C1([H])N(C(=O)C([H])(N([H])C(=O)C([H])(N([H])C([H])([H])[H])C([H])([H])[H])C(C([H])([H])[H])(C([H])([H])[H])C([H])([H])[H])C([H])([H])c2c([H])c(OC([H])([H])C(=O)N3C([H])([H])C([H])([H])C3([H])c3c([H])c(N([H])C(=O)N4C([H])([H])C([H])([H])C([H])([H])C([H])(n5nc(-c6c([H])c([H])c(Oc7c([H])c([H])c(F)c([H])c7F)c([H])c6[H])c(C(=O)N([H])[H])c5N([H])[H])C4([H])[H])c([H])c([H])c3F)c([H])c([H])c2C1([H])[H]

>  <smiles>  (88) 
[H]c1c([H])c([H])c2c(c1[H])C([H])([H])C([H])([H])C([H])([H])C2([H])N([H])C(=O)C1([H])N(C(=O)C([H])(N([H])C(=O)C([H])(N([H])C([H])([H])[H])C([H])([H])[H])C(C([H])([H])[H])(C([H])([H])[H])C([H])([H])[H])C([H])([H])c2c([H])c(OC([H])([H])C(=O)N3C([H])([H])C([H])([H])C3([H])c3c([H])c(N([H])C(=O)N4C([H])([H])C([H])([H])C([H])([H])C([H])(n5nc(-c6c([H])c([H])c(Oc7c([H])c([H])c(F)c([H])c7F)c([H])c6[H])c(C(=O)N([H])[H])c5N([H])[H])C4([H])[H])c([H])c([H])c3F)c([H])c([H])c2C1([H])[H]

$$$$
88:0:0
     RDKit          3D

 97105  0  0  1  0  0  0  0  0999 V2000
  -29.7530  -22.9520   20.7670 C   0  0  0  0  0  0  0  0  0  0  0  0
  -30.0900  -21.8770   20.0060 N   0  0  0  0  0  0  0  0  0  0  0  0
  -29.6630  -22.8600   21.9910 O   0  0  0  0  0  0  0  0  0  0  0  0
  -30.1220  -22.0200   19.0050 H   0  0  0  0  0  0  0  0  0  0  0  0
  -30.6690  -20.5810   20.4830 C   0  0  0  0  0  2  0  0  0  0  0  0
  -28.4490  -16.8000   20.3200 C   0  0  0  0  0  3  0  0  0  0  0  0
  -27.8020  -18.0130   20.0310 C   0  0  0  0  0  3  0  0  0  0  0  0
  -30.5530  -17.9840   20.5790 C   0  0  0  0  0  3  0  0  0  0  0  0
  -29.8960  -19.2410   20.3330 C   0  0  0  0  0  0  0  0  0  0  0  0
  -29.8320  -16.7480   20.5690 C   0  0  0  0  0  0  0  0  0  0  0  0
  -28.5110  -19.2260   20.0400 C   0  0  0  0  0  0  0  0  0  0  0  0
  -27.8270  -20.3690   19.7990 F   0  0  0  0  0  0  0  0  0  0  0  0
  -30.9060  -14.5000   20.1670 C   0  0  0  0  0  0  0  0  0  0  0  0
  -30.6060  -12.2540   19.1420 C   0  0  0  0  0  2  0  0  0  0  0  0
  -29.6540  -12.3710   17.9310 C   0  0  0  0  0  2  0  0  0  0  0  0
  -28.1800  -12.2730   18.3710 C   0  0  0  0  0  2  0  0  0  0  0  0
  -27.8570  -13.1930   19.5770 C   0  0  0  0  0  3  0  0  0  0  0  0
  -28.9140  -13.0250   20.6930 C   0  0  0  0  0  2  0  0  0  0  0  0
  -30.2470  -13.3000   20.1170 N   0  0  0  0  0  0  0  0  0  0  0  0
  -31.9680  -14.6970   19.5680 O   0  0  0  0  0  0  0  0  0  0  0  0
  -30.3340  -15.4480   20.9450 N   0  0  0  0  0  0  0  0  0  0  0  0
  -29.6980  -14.9840   21.5750 H   0  0  0  0  0  0  0  0  0  0  0  0
  -25.4800  -13.8900   20.2840 C   0  0  0  0  0  0  0  0  0  0  0  0
  -24.3960  -13.1650   20.6960 C   0  0  0  0  0  0  0  0  0  0  0  0
  -24.8120  -11.7990   20.6880 C   0  0  0  0  0  0  0  0  0  0  0  0
  -26.4980  -12.9730   20.0710 N   0  0  0  0  0  0  0  0  0  0  0  0
  -26.0970  -11.7100   20.3670 N   0  0  0  0  0  0  0  0  0  0  0  0
  -24.0430  -10.5680   20.9110 C   0  0  0  0  0  0  0  0  0  0  0  0
  -24.4550   -9.6000   21.8530 C   0  0  0  0  0  3  0  0  0  0  0  0
  -23.6880   -8.4340   22.0620 C   0  0  0  0  0  3  0  0  0  0  0  0
  -22.4950   -8.2270   21.3290 C   0  0  0  0  0  0  0  0  0  0  0  0
  -22.1020   -9.1840   20.3760 C   0  0  0  0  0  3  0  0  0  0  0  0
  -22.8690  -10.3410   20.1650 C   0  0  0  0  0  3  0  0  0  0  0  0
  -21.7010   -7.1140   21.4480 O   0  0  0  0  0  0  0  0  0  0  0  0
  -21.6470   -6.3880   22.6110 C   0  0  0  0  0  0  0  0  0  0  0  0
  -21.2680   -6.9750   23.8380 C   0  0  0  0  0  3  0  0  0  0  0  0
  -21.1590   -6.1780   24.9960 C   0  0  0  0  0  3  0  0  0  0  0  0
  -21.4200   -4.7970   24.9270 C   0  0  0  0  0  0  0  0  0  0  0  0
  -21.7920   -4.2090   23.7050 C   0  0  0  0  0  3  0  0  0  0  0  0
  -21.9030   -5.0030   22.5490 C   0  0  0  0  0  0  0  0  0  0  0  0
  -22.2420   -4.4300   21.3700 F   0  0  0  0  0  0  0  0  0  0  0  0
  -21.3080   -4.0290   26.0360 F   0  0  0  0  0  0  0  0  0  0  0  0
  -23.0210  -13.6980   20.9770 C   0  0  0  0  0  0  0  0  0  0  0  0
  -22.2860  -13.0530   21.8780 N   0  0  0  0  0  0  0  0  0  0  0  0
  -22.6080  -14.7230   20.4360 O   0  0  0  0  0  0  0  0  0  0  0  0
  -22.6340  -12.2240   22.3370 H   0  0  0  0  0  0  0  0  0  0  0  0
  -21.3640  -13.3930   22.1100 H   0  0  0  0  0  0  0  0  0  0  0  0
  -25.6660  -15.2470   20.0450 N   0  0  0  0  0  0  0  0  0  0  0  0
  -24.8900  -15.8960   20.0900 H   0  0  0  0  0  0  0  0  0  0  0  0
  -26.4720  -15.6260   19.5650 H   0  0  0  0  0  0  0  0  0  0  0  0
  -29.6350  -24.3690   20.1180 C   0  0  0  0  0  3  0  0  0  0  0  0
  -30.8490  -25.1080   20.5100 N   0  0  0  0  0  4  0  0  0  0  0  0
  -30.9290  -25.1090   21.5130 H   0  0  0  0  0  0  0  0  0  0  0  0
  -30.8050  -26.0570   20.1830 H   0  0  0  0  0  0  0  0  0  0  0  0
  -31.6680  -24.6640   20.1350 H   0  0  0  0  0  0  0  0  0  0  0  0
  -28.3810  -25.2250   20.5310 C   0  0  0  0  0  2  0  0  0  0  0  0
  -28.4870  -26.6450   20.1720 O   0  0  0  0  0  0  0  0  0  0  0  0
  -24.6340  -31.8770   23.2300 C   0  0  0  0  0  0  0  0  0  0  0  0
  -27.3200  -27.4070   20.1710 C   0  0  0  0  0  0  0  0  0  0  0  0
  -23.4490  -30.4730   21.5750 C   0  0  0  0  0  3  0  0  0  0  0  0
  -24.9220  -28.9420   20.1580 C   0  0  0  0  0  0  0  0  0  0  0  0
  -25.9800  -30.8340   21.3990 C   0  0  0  0  0  2  0  0  0  0  0  0
  -26.0790  -29.4600   20.7560 C   0  0  0  0  0  0  0  0  0  0  0  0
  -27.2810  -28.7040   20.7510 C   0  0  0  0  0  3  0  0  0  0  0  0
  -26.1440  -26.9230   19.5550 C   0  0  0  0  0  3  0  0  0  0  0  0
  -24.9530  -27.6750   19.5510 C   0  0  0  0  0  3  0  0  0  0  0  0
  -23.6760  -29.7990   20.1960 C   0  0  0  0  0  2  0  0  0  0  0  0
  -24.7060  -31.0770   22.1270 N   0  0  0  0  0  0  0  0  0  0  0  0
  -23.5470  -32.1420   23.7620 O   0  0  0  0  0  0  0  0  0  0  0  0
  -22.7930  -29.4490   22.5280 C   0  0  0  0  0  0  0  0  0  0  0  0
  -21.4670  -29.2740   22.4030 N   0  0  0  0  0  0  0  0  0  0  0  0
  -23.4730  -28.8120   23.3360 O   0  0  0  0  0  0  0  0  0  0  0  0
  -20.9770  -29.8410   21.7250 H   0  0  0  0  0  0  0  0  0  0  0  0
  -18.0870  -28.0920   22.9030 C   0  0  0  0  0  0  0  0  0  0  0  0
  -20.6470  -28.3310   23.1660 C   0  0  0  0  0  3  0  0  0  0  0  0
  -20.7390  -26.9070   22.5720 C   0  0  0  0  0  2  0  0  0  0  0  0
  -19.6300  -26.6040   21.5590 C   0  0  0  0  0  2  0  0  0  0  0  0
  -18.2520  -26.7490   22.2110 C   0  0  0  0  0  2  0  0  0  0  0  0
  -19.2110  -28.8420   23.3370 C   0  0  0  0  0  0  0  0  0  0  0  0
  -19.0030  -30.0990   23.9440 C   0  0  0  0  0  3  0  0  0  0  0  0
  -17.7020  -30.6060   24.1210 C   0  0  0  0  0  3  0  0  0  0  0  0
  -16.5910  -29.8540   23.7030 C   0  0  0  0  0  3  0  0  0  0  0  0
  -16.7850  -28.5980   23.0990 C   0  0  0  0  0  3  0  0  0  0  0  0
  -25.9110  -32.5140   23.8620 C   0  0  0  0  0  3  0  0  0  0  0  0
  -25.5910  -33.9090   24.1960 N   0  0  0  0  0  0  0  0  0  0  0  0
  -25.9280  -34.9670   23.4470 C   0  0  0  0  0  0  0  0  0  0  0  0
  -26.6110  -34.8720   22.4230 O   0  0  0  0  0  0  0  0  0  0  0  0
  -24.9850  -34.0550   24.9900 H   0  0  0  0  0  0  0  0  0  0  0  0
  -24.1990  -36.7560   23.0790 C   0  0  0  0  0  1  0  0  0  0  0  0
  -25.4290  -36.3500   23.9060 C   0  0  0  0  0  3  0  0  0  0  0  0
  -27.5500  -37.2360   24.7730 C   0  0  0  0  0  1  0  0  0  0  0  0
  -26.4600  -37.4070   23.8150 N   0  0  0  0  0  0  0  0  0  0  0  0
  -26.0480  -38.3240   23.9650 H   0  0  0  0  0  0  0  0  0  0  0  0
  -26.4250  -31.7400   25.1370 C   0  0  1  0  0  0  0  0  0  0  0  0
  -25.3270  -31.4890   26.1970 C   0  0  0  0  0  1  0  0  0  0  0  0
  -27.0170  -30.3670   24.7390 C   0  0  0  0  0  1  0  0  0  0  0  0
  -27.5640  -32.5380   25.8120 C   0  0  0  0  0  1  0  0  0  0  0  0
  1  3  2  0
  2  5  1  0
  2  1  1  0
  4  2  1  0
  6 10  1  0
  7 11  1  0
  7  6  2  0
  9  5  1  0
  9  8  1  0
 10  8  2  0
 10 21  1  0
 11  9  2  0
 12 11  1  0
 13 21  1  0
 14 19  1  0
 15 16  1  0
 15 14  1  0
 17 16  1  0
 17 26  1  0
 17 18  1  0
 19 13  1  0
 19 18  1  0
 20 13  2  0
 21 22  1  0
 23 24  2  0
 24 43  1  0
 25 24  1  0
 25 28  1  0
 26 23  1  0
 26 27  1  0
 27 25  2  0
 28 29  1  0
 29 30  2  0
 31 34  1  0
 31 30  1  0
 32 31  2  0
 33 32  1  0
 33 28  2  0
 34 35  1  0
 35 36  1  0
 36 37  2  0
 38 37  1  0
 38 42  1  0
 39 38  2  0
 40 35  2  0
 40 39  1  0
 41 40  1  0
 43 44  1  0
 44 47  1  0
 44 46  1  0
 45 43  2  0
 48 49  1  0
 48 23  1  0
 50 48  1  0
 51 52  1  0
 51 56  1  0
 51  1  1  0
 52 53  1  0
 54 52  1  0
 55 52  1  0
 57 56  1  0
 58 69  2  0
 59 57  1  0
 59 64  1  0
 60 68  1  0
 60 70  1  0
 61 67  1  0
 61 63  1  0
 62 68  1  0
 63 62  1  0
 64 63  2  0
 65 59  2  0
 66 65  1  0
 66 61  2  0
 67 60  1  0
 68 58  1  0
 70 72  2  0
 71 70  1  0
 73 71  1  0
 74 83  2  0
 74 79  1  0
 75 71  1  0
 75 79  1  0
 76 75  1  0
 77 78  1  0
 77 76  1  0
 78 74  1  0
 79 80  2  0
 80 81  1  0
 82 81  2  0
 83 82  1  0
 84 58  1  0
 84 85  1  0
 84 94  1  0
 85 88  1  0
 86 90  1  0
 86 85  1  0
 87 86  2  0
 90 89  1  0
 92 90  1  0
 92 93  1  0
 92 91  1  0
 94 97  1  1
 94 95  1  0
 96 94  1  0
M  ISO  4  13 100  21 100  56 101  57 101
M  END
>  <TORSDO>  (89) 
F 21

>  <SCORE>  (89) 
-14.038

>  <name>  (89) 
88

>  <ligand_id>  (89) 
88

>  <original_smiles>  (89) 
[H]c1c([H])c([H])c2c(c1[H])C([H])([H])C([H])([H])C([H])([H])C2([H])N([H])C(=O)C1([H])N(C(=O)C([H])(N([H])C(=O)C([H])(N([H])C([H])([H])[H])C([H])([H])[H])C(C([H])([H])[H])(C([H])([H])[H])C([H])([H])[H])C([H])([H])c2c([H])c(OC([H])([H])C([H])(C(=O)N([H])C([H])([H])c3c([H])c(N([H])C(=O)N4C([H])([H])C([H])([H])C([H])([H])C([H])(n5nc(-c6c([H])c([H])c(Oc7c([H])c([H])c(F)c([H])c7F)c([H])c6[H])c(C(=O)N([H])[H])c5N([H])[H])C4([H])[H])c([H])c([H])c3F)[N+]([H])([H])[H])c([H])c([H])c2C1([H])[H]

>  <smiles>  (89) 
[H]c1c([H])c([H])c2c(c1[H])C([H])([H])C([H])([H])C([H])([H])C2([H])N([H])C(=O)C1([H])N(C(=O)C([H])(N([H])C(=O)C([H])(N([H])C([H])([H])[H])C([H])([H])[H])C(C([H])([H])[H])(C([H])([H])[H])C([H])([H])[H])C([H])([H])c2c([H])c(OC([H])([H])C([H])(C(=O)N([H])C([H])([H])c3c([H])c(N([H])C(=O)N4C([H])([H])C([H])([H])C([H])([H])C([H])(n5nc(-c6c([H])c([H])c(Oc7c([H])c([H])c(F)c([H])c7F)c([H])c6[H])c(C(=O)N([H])[H])c5N([H])[H])C4([H])[H])c([H])c([H])c3F)[N+]([H])([H])[H])c([H])c([H])c2C1([H])[H]

$$$$
89:0:0
     RDKit          3D

 98106  0  0  1  0  0  0  0  0999 V2000
  -28.7150  -21.6120   19.4450 C   0  0  0  0  0  3  0  0  0  0  0  0
  -29.2930  -22.8720   20.0470 N   0  0  0  0  0  4  0  0  0  0  0  0
  -29.7210  -22.5720   20.9120 H   0  0  0  0  0  0  0  0  0  0  0  0
  -30.0450  -23.2060   19.4630 H   0  0  0  0  0  0  0  0  0  0  0  0
  -28.4030  -24.0430   20.4050 C   0  0  0  0  0  2  0  0  0  0  0  0
  -28.6050  -25.3400   19.5360 C   0  0  0  0  0  2  0  0  0  0  0  0
  -28.4270  -26.6220   20.2080 O   0  0  0  0  0  0  0  0  0  0  0  0
  -24.5980  -31.8590   23.2140 C   0  0  0  0  0  0  0  0  0  0  0  0
  -27.2430  -27.3510   20.1620 C   0  0  0  0  0  0  0  0  0  0  0  0
  -23.3950  -30.4520   21.5760 C   0  0  0  0  0  3  0  0  0  0  0  0
  -24.8490  -28.8970   20.1590 C   0  0  0  0  0  0  0  0  0  0  0  0
  -25.9250  -30.7900   21.3870 C   0  0  0  0  0  2  0  0  0  0  0  0
  -26.0090  -29.4120   20.7510 C   0  0  0  0  0  0  0  0  0  0  0  0
  -27.2020  -28.6470   20.7490 C   0  0  0  0  0  3  0  0  0  0  0  0
  -26.0580  -26.8570   19.5690 C   0  0  0  0  0  3  0  0  0  0  0  0
  -24.8740  -27.6220   19.5660 C   0  0  0  0  0  3  0  0  0  0  0  0
  -23.6070  -29.7620   20.2000 C   0  0  0  0  0  2  0  0  0  0  0  0
  -24.6580  -31.0510   22.1170 N   0  0  0  0  0  0  0  0  0  0  0  0
  -23.5140  -32.1360   23.7500 O   0  0  0  0  0  0  0  0  0  0  0  0
  -22.7360  -29.4400   22.5410 C   0  0  0  0  0  0  0  0  0  0  0  0
  -21.4100  -29.2630   22.4130 N   0  0  0  0  0  0  0  0  0  0  0  0
  -23.4150  -28.8150   23.3600 O   0  0  0  0  0  0  0  0  0  0  0  0
  -20.9240  -29.8210   21.7250 H   0  0  0  0  0  0  0  0  0  0  0  0
  -18.0310  -28.0760   22.9060 C   0  0  0  0  0  0  0  0  0  0  0  0
  -20.5880  -28.3290   23.1840 C   0  0  0  0  0  3  0  0  0  0  0  0
  -20.6900  -26.8960   22.6140 C   0  0  0  0  0  2  0  0  0  0  0  0
  -19.5900  -26.5710   21.5970 C   0  0  0  0  0  2  0  0  0  0  0  0
  -18.2070  -26.7220   22.2370 C   0  0  0  0  0  2  0  0  0  0  0  0
  -19.1500  -28.8370   23.3370 C   0  0  0  0  0  0  0  0  0  0  0  0
  -18.9320  -30.1020   23.9220 C   0  0  0  0  0  3  0  0  0  0  0  0
  -17.6280  -30.6080   24.0810 C   0  0  0  0  0  3  0  0  0  0  0  0
  -16.5250  -29.8440   23.6660 C   0  0  0  0  0  3  0  0  0  0  0  0
  -16.7260  -28.5790   23.0850 C   0  0  0  0  0  3  0  0  0  0  0  0
  -25.8810  -32.4920   23.8380 C   0  0  0  0  0  3  0  0  0  0  0  0
  -25.5680  -33.8870   24.1780 N   0  0  0  0  0  0  0  0  0  0  0  0
  -25.8920  -34.9470   23.4240 C   0  0  0  0  0  0  0  0  0  0  0  0
  -26.5580  -34.8520   22.3900 O   0  0  0  0  0  0  0  0  0  0  0  0
  -24.9760  -34.0350   24.9820 H   0  0  0  0  0  0  0  0  0  0  0  0
  -24.1490  -36.7270   23.0880 C   0  0  0  0  0  1  0  0  0  0  0  0
  -25.3990  -36.3300   23.8900 C   0  0  0  0  0  3  0  0  0  0  0  0
  -27.5360  -37.2200   24.7060 C   0  0  0  0  0  1  0  0  0  0  0  0
  -26.4260  -37.3890   23.7730 N   0  0  0  0  0  0  0  0  0  0  0  0
  -26.0160  -38.3080   23.9270 H   0  0  0  0  0  0  0  0  0  0  0  0
  -26.4040  -31.7160   25.1080 C   0  0  1  0  0  0  0  0  0  0  0  0
  -25.3130  -31.4690   26.1760 C   0  0  0  0  0  1  0  0  0  0  0  0
  -26.9900  -30.3440   24.7040 C   0  0  0  0  0  1  0  0  0  0  0  0
  -27.5560  -32.5080   25.7690 C   0  0  0  0  0  1  0  0  0  0  0  0
  -29.8070  -20.4980   19.1270 C   0  0  0  0  0  2  0  0  0  0  0  0
  -30.8110  -17.3700   22.0480 C   0  0  0  0  0  3  0  0  0  0  0  0
  -30.1200  -19.3820   20.1600 C   0  0  0  0  0  0  0  0  0  0  0  0
  -30.3590  -16.9690   20.7730 C   0  0  0  0  0  0  0  0  0  0  0  0
  -30.9360  -18.7350   22.3760 C   0  0  0  0  0  0  0  0  0  0  0  0
  -30.0160  -17.9880   19.8320 C   0  0  0  0  0  0  0  0  0  0  0  0
  -30.5900  -19.7340   21.4420 C   0  0  0  0  0  0  0  0  0  0  0  0
  -31.3760  -19.0910   23.6070 F   0  0  0  0  0  0  0  0  0  0  0  0
  -29.5590  -17.6200   18.6100 F   0  0  0  0  0  0  0  0  0  0  0  0
  -30.7160  -21.0400   21.7810 F   0  0  0  0  0  0  0  0  0  0  0  0
  -30.8400  -14.5570   20.0910 C   0  0  0  0  0  0  0  0  0  0  0  0
  -30.5340  -12.3570   18.9760 C   0  0  0  0  0  2  0  0  0  0  0  0
  -29.5580  -12.5520   17.7960 C   0  0  0  0  0  2  0  0  0  0  0  0
  -28.0930  -12.4390   18.2660 C   0  0  0  0  0  2  0  0  0  0  0  0
  -27.8040  -13.2900   19.5310 C   0  0  0  0  0  3  0  0  0  0  0  0
  -28.8840  -13.0520   20.6090 C   0  0  0  0  0  2  0  0  0  0  0  0
  -30.1910  -13.3580   20.0010 N   0  0  0  0  0  0  0  0  0  0  0  0
  -31.9760  -14.7310   19.6390 O   0  0  0  0  0  0  0  0  0  0  0  0
  -30.0730  -15.5720   20.5620 N   0  0  0  0  0  0  0  0  0  0  0  0
  -29.1640  -15.2720   20.8800 H   0  0  0  0  0  0  0  0  0  0  0  0
  -25.4440  -13.9660   20.3000 C   0  0  0  0  0  0  0  0  0  0  0  0
  -24.3650  -13.2260   20.7040 C   0  0  0  0  0  0  0  0  0  0  0  0
  -24.7890  -11.8620   20.6730 C   0  0  0  0  0  0  0  0  0  0  0  0
  -26.4580  -13.0550   20.0490 N   0  0  0  0  0  0  0  0  0  0  0  0
  -26.0690  -11.7840   20.3310 N   0  0  0  0  0  0  0  0  0  0  0  0
  -24.0340  -10.6200   20.8910 C   0  0  0  0  0  0  0  0  0  0  0  0
  -24.4560   -9.6540   21.8310 C   0  0  0  0  0  3  0  0  0  0  0  0
  -23.7040   -8.4790   22.0360 C   0  0  0  0  0  3  0  0  0  0  0  0
  -22.5150   -8.2610   21.3000 C   0  0  0  0  0  0  0  0  0  0  0  0
  -22.1110   -9.2140   20.3490 C   0  0  0  0  0  3  0  0  0  0  0  0
  -22.8650  -10.3800   20.1430 C   0  0  0  0  0  3  0  0  0  0  0  0
  -21.7350   -7.1350   21.4140 O   0  0  0  0  0  0  0  0  0  0  0  0
  -21.6690   -6.4190   22.5830 C   0  0  0  0  0  0  0  0  0  0  0  0
  -21.2700   -7.0140   23.7990 C   0  0  0  0  0  3  0  0  0  0  0  0
  -21.1460   -6.2280   24.9620 C   0  0  0  0  0  3  0  0  0  0  0  0
  -21.4150   -4.8460   24.9090 C   0  0  0  0  0  0  0  0  0  0  0  0
  -21.8070   -4.2510   23.6970 C   0  0  0  0  0  3  0  0  0  0  0  0
  -21.9290   -5.0350   22.5370 C   0  0  0  0  0  0  0  0  0  0  0  0
  -22.2880   -4.4530   21.3670 F   0  0  0  0  0  0  0  0  0  0  0  0
  -21.2890   -4.0870   26.0220 F   0  0  0  0  0  0  0  0  0  0  0  0
  -22.9880  -13.7430   21.0070 C   0  0  0  0  0  0  0  0  0  0  0  0
  -22.2670  -13.0790   21.9040 N   0  0  0  0  0  0  0  0  0  0  0  0
  -22.5610  -14.7710   20.4840 O   0  0  0  0  0  0  0  0  0  0  0  0
  -22.6260  -12.2490   22.3520 H   0  0  0  0  0  0  0  0  0  0  0  0
  -21.3420  -13.4050   22.1490 H   0  0  0  0  0  0  0  0  0  0  0  0
  -25.6380  -15.3300   20.1050 N   0  0  0  0  0  0  0  0  0  0  0  0
  -24.8840  -15.9990   20.2110 H   0  0  0  0  0  0  0  0  0  0  0  0
  -26.4820  -15.7420   19.7240 H   0  0  0  0  0  0  0  0  0  0  0  0
  -27.9390  -21.9240   18.1350 C   0  0  0  0  0  2  0  0  0  0  0  0
  -26.6870  -22.5490   18.3630 O   0  0  0  0  0  0  0  0  0  0  0  0
  -26.1510  -22.4090   17.5860 H   0  0  0  0  0  0  0  0  0  0  0  0
  1 96  1  0
  1  2  1  0
  2  5  1  0
  2  3  1  0
  4  2  1  0
  6  7  1  0
  6  5  1  0
  8 19  2  0
  9  7  1  0
  9 14  1  0
 10 18  1  0
 10 20  1  0
 11 17  1  0
 11 13  1  0
 12 18  1  0
 13 12  1  0
 14 13  2  0
 15  9  2  0
 16 15  1  0
 16 11  2  0
 17 10  1  0
 18  8  1  0
 20 22  2  0
 21 20  1  0
 23 21  1  0
 24 33  2  0
 24 29  1  0
 25 21  1  0
 25 29  1  0
 26 25  1  0
 27 28  1  0
 27 26  1  0
 28 24  1  0
 29 30  2  0
 30 31  1  0
 32 31  2  0
 33 32  1  0
 34  8  1  0
 34 35  1  0
 34 44  1  0
 35 38  1  0
 36 40  1  0
 36 35  1  0
 37 36  2  0
 40 39  1  0
 42 40  1  0
 42 43  1  0
 42 41  1  0
 44 47  1  1
 44 45  1  0
 46 44  1  0
 48  1  1  0
 48 50  1  0
 49 52  1  0
 50 54  1  0
 51 49  2  0
 52 55  1  0
 53 50  2  0
 53 51  1  0
 54 57  1  0
 54 52  2  0
 56 53  1  0
 58 66  1  0
 59 64  1  0
 60 61  1  0
 60 59  1  0
 62 61  1  0
 62 71  1  0
 62 63  1  0
 64 58  1  0
 64 63  1  0
 65 58  2  0
 66 51  1  0
 66 67  1  0
 68 69  2  0
 69 88  1  0
 70 69  1  0
 70 73  1  0
 71 68  1  0
 71 72  1  0
 72 70  2  0
 73 74  1  0
 74 75  2  0
 76 79  1  0
 76 75  1  0
 77 76  2  0
 78 77  1  0
 78 73  2  0
 79 80  1  0
 80 81  1  0
 81 82  2  0
 83 82  1  0
 83 87  1  0
 84 83  2  0
 85 80  2  0
 85 84  1  0
 86 85  1  0
 88 89  1  0
 89 92  1  0
 89 91  1  0
 90 88  2  0
 93 94  1  0
 93 68  1  0
 95 93  1  0
 96 97  1  0
 98 97  1  0
M  ISO  4   6 101   7 101  58 100  66 100
M  END
>  <TORSDO>  (90) 
F 23

>  <SCORE>  (90) 
-13.202

>  <name>  (90) 
89

>  <ligand_id>  (90) 
89

>  <original_smiles>  (90) 
[H]OC([H])([H])C([H])(C([H])([H])c1c(F)c(F)c([H])c(N([H])C(=O)N2C([H])([H])C([H])([H])C([H])([H])C([H])(n3nc(-c4c([H])c([H])c(Oc5c([H])c([H])c(F)c([H])c5F)c([H])c4[H])c(C(=O)N([H])[H])c3N([H])[H])C2([H])[H])c1F)[N+]([H])([H])C([H])([H])C([H])([H])Oc1c([H])c([H])c2c(c1[H])C([H])([H])N(C(=O)C([H])(N([H])C(=O)C([H])(N([H])C([H])([H])[H])C([H])([H])[H])C(C([H])([H])[H])(C([H])([H])[H])C([H])([H])[H])C([H])(C(=O)N([H])C1([H])c3c([H])c([H])c([H])c([H])c3C([H])([H])C([H])([H])C1([H])[H])C2([H])[H]

>  <smiles>  (90) 
[H]OC([H])([H])C([H])(C([H])([H])c1c(F)c(F)c([H])c(N([H])C(=O)N2C([H])([H])C([H])([H])C([H])([H])C([H])(n3nc(-c4c([H])c([H])c(Oc5c([H])c([H])c(F)c([H])c5F)c([H])c4[H])c(C(=O)N([H])[H])c3N([H])[H])C2([H])[H])c1F)[N+]([H])([H])C([H])([H])C([H])([H])Oc1c([H])c([H])c2c(c1[H])C([H])([H])N(C(=O)C([H])(N([H])C(=O)C([H])(N([H])C([H])([H])[H])C([H])([H])[H])C(C([H])([H])[H])(C([H])([H])[H])C([H])([H])[H])C([H])(C(=O)N([H])C1([H])c3c([H])c([H])c([H])c([H])c3C([H])([H])C([H])([H])C1([H])[H])C2([H])[H]

$$$$
90:0:0
     RDKit          3D

 95104  0  0  1  0  0  0  0  0999 V2000
  -31.2710  -18.7280   21.0290 C   0  0  0  0  0  3  0  0  0  0  0  0
  -31.3850  -20.0980   21.3810 C   0  0  0  0  0  3  0  0  0  0  0  0
  -28.8770  -19.0220   20.7800 C   0  0  0  0  0  3  0  0  0  0  0  0
  -30.0220  -18.1990   20.6310 C   0  0  0  0  0  0  0  0  0  0  0  0
  -30.2620  -20.9620   21.3510 C   0  0  0  0  0  0  0  0  0  0  0  0
  -28.9940  -20.3860   21.1170 C   0  0  0  0  0  0  0  0  0  0  0  0
  -27.8830  -21.1620   21.1260 F   0  0  0  0  0  0  0  0  0  0  0  0
  -30.9120  -14.8090   20.5560 C   0  0  0  0  0  0  0  0  0  0  0  0
  -30.8160  -12.4160   19.9540 C   0  0  0  0  0  2  0  0  0  0  0  0
  -29.9860  -12.1870   18.6660 C   0  0  0  0  0  2  0  0  0  0  0  0
  -28.4590  -12.2740   18.9030 C   0  0  0  0  0  2  0  0  0  0  0  0
  -27.9850  -13.3070   19.9680 C   0  0  0  0  0  3  0  0  0  0  0  0
  -28.9390  -13.3640   21.1780 C   0  0  0  0  0  2  0  0  0  0  0  0
  -30.2960  -13.5930   20.6640 N   0  0  0  0  0  0  0  0  0  0  0  0
  -32.1300  -14.9420   20.6910 O   0  0  0  0  0  0  0  0  0  0  0  0
  -30.4980  -16.4850   17.3290 C   0  0  0  0  0  2  0  0  0  0  0  0
  -30.5940  -17.6220   18.2980 C   0  0  0  0  0  2  0  0  0  0  0  0
  -30.4490  -15.2620   18.2340 C   0  0  0  0  0  2  0  0  0  0  0  0
  -29.9290  -17.0870   19.5710 C   0  0  0  0  0  3  0  0  0  0  0  0
  -30.2710  -15.6320   19.6600 N   0  0  0  0  0  0  0  0  0  0  0  0
  -25.5450  -13.9620   20.4660 C   0  0  0  0  0  0  0  0  0  0  0  0
  -24.4420  -13.2120   20.7720 C   0  0  0  0  0  0  0  0  0  0  0  0
  -24.8940  -11.8600   20.8500 C   0  0  0  0  0  0  0  0  0  0  0  0
  -26.5990  -13.0670   20.3670 N   0  0  0  0  0  0  0  0  0  0  0  0
  -26.2060  -11.8030   20.6710 N   0  0  0  0  0  0  0  0  0  0  0  0
  -24.1470  -10.6080   21.0250 C   0  0  0  0  0  0  0  0  0  0  0  0
  -24.5050   -9.6680   22.0160 C   0  0  0  0  0  3  0  0  0  0  0  0
  -23.7590   -8.4800   22.1790 C   0  0  0  0  0  3  0  0  0  0  0  0
  -22.6410   -8.2240   21.3500 C   0  0  0  0  0  0  0  0  0  0  0  0
  -22.3040   -9.1520   20.3490 C   0  0  0  0  0  3  0  0  0  0  0  0
  -23.0500  -10.3310   20.1840 C   0  0  0  0  0  3  0  0  0  0  0  0
  -21.8740   -7.0870   21.4210 O   0  0  0  0  0  0  0  0  0  0  0  0
  -21.7540   -6.3710   22.5850 C   0  0  0  0  0  0  0  0  0  0  0  0
  -21.2720   -6.9570   23.7750 C   0  0  0  0  0  3  0  0  0  0  0  0
  -21.1000   -6.1690   24.9300 C   0  0  0  0  0  3  0  0  0  0  0  0
  -21.4000   -4.7930   24.8950 C   0  0  0  0  0  0  0  0  0  0  0  0
  -21.8740   -4.2060   23.7090 C   0  0  0  0  0  3  0  0  0  0  0  0
  -22.0490   -4.9930   22.5560 C   0  0  0  0  0  0  0  0  0  0  0  0
  -22.4870   -4.4180   21.4100 F   0  0  0  0  0  0  0  0  0  0  0  0
  -21.2260   -4.0330   26.0010 F   0  0  0  0  0  0  0  0  0  0  0  0
  -23.0290  -13.7050   20.8880 C   0  0  0  0  0  0  0  0  0  0  0  0
  -22.2180  -13.0540   21.7160 N   0  0  0  0  0  0  0  0  0  0  0  0
  -22.6470  -14.7020   20.2770 O   0  0  0  0  0  0  0  0  0  0  0  0
  -22.5370  -12.2500   22.2350 H   0  0  0  0  0  0  0  0  0  0  0  0
  -21.2650  -13.3680   21.8340 H   0  0  0  0  0  0  0  0  0  0  0  0
  -25.7370  -15.3220   20.2390 N   0  0  0  0  0  0  0  0  0  0  0  0
  -24.9720  -15.9870   20.2530 H   0  0  0  0  0  0  0  0  0  0  0  0
  -26.6220  -15.7420   19.9840 H   0  0  0  0  0  0  0  0  0  0  0  0
  -30.4280  -22.4840   21.5510 C   0  0  0  0  0  2  0  0  0  0  0  0
  -29.6580  -24.6640   20.5090 C   0  0  0  0  0  0  0  0  0  0  0  0
  -29.5180  -23.3420   20.7610 N   0  0  0  0  0  0  0  0  0  0  0  0
  -30.6390  -25.3020   20.8990 O   0  0  0  0  0  0  0  0  0  0  0  0
  -28.6740  -22.8940   20.4270 H   0  0  0  0  0  0  0  0  0  0  0  0
  -28.5260  -25.3740   19.7150 C   0  0  0  0  0  2  0  0  0  0  0  0
  -28.6340  -26.8240   19.7370 O   0  0  0  0  0  0  0  0  0  0  0  0
  -24.6300  -31.6450   23.1180 C   0  0  0  0  0  0  0  0  0  0  0  0
  -27.4430  -27.5390   19.7240 C   0  0  0  0  0  0  0  0  0  0  0  0
  -23.4740  -30.3180   21.3800 C   0  0  0  0  0  3  0  0  0  0  0  0
  -24.9860  -28.9600   19.8340 C   0  0  0  0  0  0  0  0  0  0  0  0
  -25.9820  -30.8000   21.1980 C   0  0  0  0  0  2  0  0  0  0  0  0
  -26.1250  -29.4850   20.4560 C   0  0  0  0  0  0  0  0  0  0  0  0
  -27.3550  -28.7860   20.3930 C   0  0  0  0  0  3  0  0  0  0  0  0
  -26.2840  -27.0460   19.0780 C   0  0  0  0  0  3  0  0  0  0  0  0
  -25.0630  -27.7440   19.1360 C   0  0  0  0  0  3  0  0  0  0  0  0
  -23.7040  -29.7540   19.9520 C   0  0  0  0  0  2  0  0  0  0  0  0
  -24.7130  -30.9320   21.9580 N   0  0  0  0  0  0  0  0  0  0  0  0
  -23.5420  -31.8270   23.6820 O   0  0  0  0  0  0  0  0  0  0  0  0
  -22.8760  -29.2000   22.2650 C   0  0  0  0  0  0  0  0  0  0  0  0
  -21.5570  -28.9760   22.1390 N   0  0  0  0  0  0  0  0  0  0  0  0
  -23.5940  -28.5400   23.0210 O   0  0  0  0  0  0  0  0  0  0  0  0
  -21.0360  -29.5650   21.5050 H   0  0  0  0  0  0  0  0  0  0  0  0
  -18.2360  -27.6190   22.5870 C   0  0  0  0  0  0  0  0  0  0  0  0
  -20.7880  -27.9490   22.8420 C   0  0  0  0  0  3  0  0  0  0  0  0
  -20.9310  -26.5740   22.1490 C   0  0  0  0  0  2  0  0  0  0  0  0
  -19.8250  -26.2940   21.1280 C   0  0  0  0  0  2  0  0  0  0  0  0
  -18.4500  -26.3360   21.8010 C   0  0  0  0  0  2  0  0  0  0  0  0
  -19.3350  -28.3840   23.0620 C   0  0  0  0  0  0  0  0  0  0  0  0
  -19.0810  -29.5860   23.7560 C   0  0  0  0  0  3  0  0  0  0  0  0
  -17.7620  -30.0250   23.9800 C   0  0  0  0  0  3  0  0  0  0  0  0
  -16.6800  -29.2570   23.5210 C   0  0  0  0  0  3  0  0  0  0  0  0
  -16.9180  -28.0550   22.8300 C   0  0  0  0  0  3  0  0  0  0  0  0
  -25.8910  -32.2850   23.7780 C   0  0  0  0  0  3  0  0  0  0  0  0
  -26.4480  -31.4490   24.9950 C   0  0  1  0  0  0  0  0  0  0  0  0
  -25.3740  -31.1000   26.0520 C   0  0  0  0  0  1  0  0  0  0  0  0
  -27.0760  -30.1230   24.5040 C   0  0  0  0  0  1  0  0  0  0  0  0
  -27.5750  -32.2380   25.7010 C   0  0  0  0  0  1  0  0  0  0  0  0
  -25.5270  -33.6420   24.2040 N   0  0  0  0  0  0  0  0  0  0  0  0
  -25.8230  -34.7580   23.5230 C   0  0  0  0  0  0  0  0  0  0  0  0
  -26.5020  -34.7540   22.4930 O   0  0  0  0  0  0  0  0  0  0  0  0
  -24.9220  -33.7170   25.0080 H   0  0  0  0  0  0  0  0  0  0  0  0
  -24.0250  -36.5000   23.2850 C   0  0  0  0  0  1  0  0  0  0  0  0
  -25.2790  -36.0910   24.0740 C   0  0  0  0  0  3  0  0  0  0  0  0
  -27.3740  -36.9990   24.9750 C   0  0  0  0  0  1  0  0  0  0  0  0
  -26.2700  -37.1890   24.0390 N   0  0  0  0  0  0  0  0  0  0  0  0
  -25.8270  -38.0800   24.2460 H   0  0  0  0  0  0  0  0  0  0  0  0
  1  2  1  0
  3  6  2  0
  4  3  1  0
  4  1  2  0
  5  2  2  0
  5 49  1  0
  6  7  1  0
  6  5  1  0
  8 14  1  0
  8 15  2  0
  9 14  1  0
 10 11  1  0
 10  9  1  0
 12 11  1  0
 12 24  1  0
 12 13  1  0
 14 13  1  0
 16 18  1  0
 16 17  1  0
 17 19  1  0
 18 20  1  0
 19 20  1  0
 19  4  1  0
 20  8  1  0
 21 22  2  0
 22 23  1  0
 22 41  1  0
 23 26  1  0
 24 21  1  0
 24 25  1  0
 25 23  2  0
 26 27  1  0
 27 28  2  0
 29 32  1  0
 29 28  1  0
 30 29  2  0
 31 30  1  0
 31 26  2  0
 32 33  1  0
 33 34  1  0
 34 35  2  0
 36 35  1  0
 36 40  1  0
 37 36  2  0
 38 33  2  0
 38 37  1  0
 39 38  1  0
 41 42  1  0
 42 45  1  0
 42 44  1  0
 43 41  2  0
 46 47  1  0
 46 21  1  0
 48 46  1  0
 50 51  1  0
 50 52  2  0
 51 49  1  0
 53 51  1  0
 54 55  1  0
 54 50  1  0
 56 67  2  0
 57 55  1  0
 57 62  1  0
 58 66  1  0
 58 68  1  0
 59 65  1  0
 59 61  1  0
 60 66  1  0
 61 60  1  0
 62 61  2  0
 63 64  1  0
 63 57  2  0
 64 59  2  0
 65 58  1  0
 66 56  1  0
 68 70  2  0
 69 68  1  0
 71 69  1  0
 72 81  2  0
 72 77  1  0
 73 69  1  0
 73 77  1  0
 74 73  1  0
 75 76  1  0
 75 74  1  0
 76 72  1  0
 77 78  2  0
 78 79  1  0
 80 79  2  0
 81 80  1  0
 82 56  1  0
 82 87  1  0
 82 83  1  0
 83 86  1  1
 83 84  1  0
 85 83  1  0
 87 90  1  0
 88 92  1  0
 88 87  1  0
 89 88  2  0
 92 91  1  0
 94 92  1  0
 94 95  1  0
 94 93  1  0
M  ISO  4   8 100  20 100  54 101  55 101
M  END
>  <TORSDO>  (91) 
F 19

>  <SCORE>  (91) 
-12.126

>  <name>  (91) 
90

>  <ligand_id>  (91) 
90

>  <original_smiles>  (91) 
[H]c1c([H])c([H])c2c(c1[H])C([H])([H])C([H])([H])C([H])([H])C2([H])N([H])C(=O)C1([H])N(C(=O)C([H])(N([H])C(=O)C([H])(N([H])C([H])([H])[H])C([H])([H])[H])C(C([H])([H])[H])(C([H])([H])[H])C([H])([H])[H])C([H])([H])c2c([H])c(OC([H])([H])C(=O)N([H])C([H])([H])c3c([H])c([H])c(C4([H])N(C(=O)N5C([H])([H])C([H])([H])C([H])([H])C([H])(n6nc(-c7c([H])c([H])c(Oc8c([H])c([H])c(F)c([H])c8F)c([H])c7[H])c(C(=O)N([H])[H])c6N([H])[H])C5([H])[H])C([H])([H])C([H])([H])C4([H])[H])c([H])c3F)c([H])c([H])c2C1([H])[H]

>  <smiles>  (91) 
[H]c1c([H])c([H])c2c(c1[H])C([H])([H])C([H])([H])C([H])([H])C2([H])N([H])C(=O)C1([H])N(C(=O)C([H])(N([H])C(=O)C([H])(N([H])C([H])([H])[H])C([H])([H])[H])C(C([H])([H])[H])(C([H])([H])[H])C([H])([H])[H])C([H])([H])c2c([H])c(OC([H])([H])C(=O)N([H])C([H])([H])c3c([H])c([H])c(C4([H])N(C(=O)N5C([H])([H])C([H])([H])C([H])([H])C([H])(n6nc(-c7c([H])c([H])c(Oc8c([H])c([H])c(F)c([H])c8F)c([H])c7[H])c(C(=O)N([H])[H])c6N([H])[H])C5([H])[H])C([H])([H])C([H])([H])C4([H])[H])c([H])c3F)c([H])c([H])c2C1([H])[H]

$$$$
91:0:0
     RDKit          3D

 96104  0  0  1  0  0  0  0  0999 V2000
  -29.2240  -22.5100   20.1280 C   0  0  0  0  0  0  0  0  0  0  0  0
  -28.6650  -21.2560   20.0550 N   0  0  0  0  0  0  0  0  0  0  0  0
  -30.3590  -22.6620   20.5810 O   0  0  0  0  0  0  0  0  0  0  0  0
  -27.6760  -21.2440   19.8580 H   0  0  0  0  0  0  0  0  0  0  0  0
  -30.8410  -18.0370   20.4330 C   0  0  0  0  0  3  0  0  0  0  0  0
  -30.5120  -19.4350   20.3110 C   0  0  0  0  0  3  0  0  0  0  0  0
  -28.4950  -17.5110   20.5290 C   0  0  0  0  0  3  0  0  0  0  0  0
  -29.8320  -17.0340   20.5430 C   0  0  0  0  0  0  0  0  0  0  0  0
  -29.1600  -19.8910   20.2770 C   0  0  0  0  0  0  0  0  0  0  0  0
  -28.1710  -18.8870   20.3850 C   0  0  0  0  0  0  0  0  0  0  0  0
  -26.8670  -19.2550   20.3340 F   0  0  0  0  0  0  0  0  0  0  0  0
  -30.8020  -14.6250   20.1200 C   0  0  0  0  0  0  0  0  0  0  0  0
  -30.6020  -12.4030   18.9980 C   0  0  0  0  0  2  0  0  0  0  0  0
  -29.6110  -12.5480   17.8190 C   0  0  0  0  0  2  0  0  0  0  0  0
  -28.1500  -12.3830   18.2940 C   0  0  0  0  0  2  0  0  0  0  0  0
  -27.8380  -13.2200   19.5620 C   0  0  0  0  0  3  0  0  0  0  0  0
  -28.9290  -13.0030   20.6340 C   0  0  0  0  0  2  0  0  0  0  0  0
  -30.2220  -13.3810   20.0360 N   0  0  0  0  0  0  0  0  0  0  0  0
  -31.9120  -14.8540   19.6300 O   0  0  0  0  0  0  0  0  0  0  0  0
  -30.0100  -15.5850   20.6960 N   0  0  0  0  0  0  0  0  0  0  0  0
  -29.2260  -15.1450   21.1540 H   0  0  0  0  0  0  0  0  0  0  0  0
  -25.4630  -13.8230   20.3450 C   0  0  0  0  0  0  0  0  0  0  0  0
  -24.4100  -13.0510   20.7530 C   0  0  0  0  0  0  0  0  0  0  0  0
  -24.8710  -11.7000   20.7070 C   0  0  0  0  0  0  0  0  0  0  0  0
  -26.5010  -12.9410   20.0820 N   0  0  0  0  0  0  0  0  0  0  0  0
  -26.1510  -11.6590   20.3570 N   0  0  0  0  0  0  0  0  0  0  0  0
  -24.1520  -10.4390   20.9220 C   0  0  0  0  0  0  0  0  0  0  0  0
  -24.5470   -9.5220   21.9220 C   0  0  0  0  0  3  0  0  0  0  0  0
  -23.8300   -8.3230   22.1190 C   0  0  0  0  0  3  0  0  0  0  0  0
  -22.7010   -8.0320   21.3180 C   0  0  0  0  0  0  0  0  0  0  0  0
  -22.3230   -8.9350   20.3070 C   0  0  0  0  0  3  0  0  0  0  0  0
  -23.0430  -10.1260   20.1080 C   0  0  0  0  0  3  0  0  0  0  0  0
  -21.9580   -6.8800   21.4220 O   0  0  0  0  0  0  0  0  0  0  0  0
  -21.7710   -6.2510   22.6270 C   0  0  0  0  0  0  0  0  0  0  0  0
  -21.1510   -6.8990   23.7170 C   0  0  0  0  0  3  0  0  0  0  0  0
  -20.9150   -6.1940   24.9130 C   0  0  0  0  0  3  0  0  0  0  0  0
  -21.2880   -4.8410   25.0190 C   0  0  0  0  0  0  0  0  0  0  0  0
  -21.9010   -4.1920   23.9330 C   0  0  0  0  0  3  0  0  0  0  0  0
  -22.1380   -4.8950   22.7380 C   0  0  0  0  0  0  0  0  0  0  0  0
  -22.7090   -4.2600   21.6870 F   0  0  0  0  0  0  0  0  0  0  0  0
  -21.0550   -4.1600   26.1650 F   0  0  0  0  0  0  0  0  0  0  0  0
  -23.0220  -13.5290   21.0700 C   0  0  0  0  0  0  0  0  0  0  0  0
  -22.3290  -12.8420   21.9700 N   0  0  0  0  0  0  0  0  0  0  0  0
  -22.5600  -14.5440   20.5500 O   0  0  0  0  0  0  0  0  0  0  0  0
  -22.7160  -12.0210   22.4110 H   0  0  0  0  0  0  0  0  0  0  0  0
  -21.3980  -13.1430   22.2250 H   0  0  0  0  0  0  0  0  0  0  0  0
  -25.6160  -15.1910   20.1540 N   0  0  0  0  0  0  0  0  0  0  0  0
  -24.8250  -15.8180   20.2290 H   0  0  0  0  0  0  0  0  0  0  0  0
  -26.4040  -15.6080   19.6760 H   0  0  0  0  0  0  0  0  0  0  0  0
  -28.4390  -23.7900   19.5710 C   0  0  0  0  0  3  0  0  0  0  0  0
  -27.0760  -23.4220   19.1210 N   0  0  0  0  0  4  0  0  0  0  0  0
  -26.4430  -23.3080   19.8970 H   0  0  0  0  0  0  0  0  0  0  0  0
  -27.1000  -22.5680   18.5920 H   0  0  0  0  0  0  0  0  0  0  0  0
  -26.7050  -24.1280   18.5100 H   0  0  0  0  0  0  0  0  0  0  0  0
  -28.4050  -25.1380   20.4450 C   0  0  0  0  0  2  0  0  0  0  0  0
  -28.4070  -26.4810   19.8060 O   0  0  0  0  0  0  0  0  0  0  0  0
  -24.5570  -31.6880   23.0180 C   0  0  0  0  0  0  0  0  0  0  0  0
  -27.2540  -27.2740   19.8570 C   0  0  0  0  0  0  0  0  0  0  0  0
  -23.3680  -30.2870   21.3710 C   0  0  0  0  0  3  0  0  0  0  0  0
  -24.8400  -28.8030   19.9010 C   0  0  0  0  0  0  0  0  0  0  0  0
  -25.8920  -30.6910   21.1480 C   0  0  0  0  0  2  0  0  0  0  0  0
  -26.0020  -29.3230   20.4860 C   0  0  0  0  0  0  0  0  0  0  0  0
  -27.2140  -28.5730   20.4530 C   0  0  0  0  0  3  0  0  0  0  0  0
  -26.0740  -26.8030   19.2480 C   0  0  0  0  0  3  0  0  0  0  0  0
  -24.8770  -27.5480   19.2730 C   0  0  0  0  0  3  0  0  0  0  0  0
  -23.5780  -29.6430   19.9750 C   0  0  0  0  0  2  0  0  0  0  0  0
  -24.6240  -30.9060   21.9020 N   0  0  0  0  0  0  0  0  0  0  0  0
  -23.4760  -31.9240   23.5750 O   0  0  0  0  0  0  0  0  0  0  0  0
  -22.7530  -29.2330   22.3220 C   0  0  0  0  0  0  0  0  0  0  0  0
  -21.4300  -29.0180   22.2150 N   0  0  0  0  0  0  0  0  0  0  0  0
  -23.4620  -28.6090   23.1150 O   0  0  0  0  0  0  0  0  0  0  0  0
  -20.9110  -29.5730   21.5490 H   0  0  0  0  0  0  0  0  0  0  0  0
  -18.0910  -27.7560   22.7790 C   0  0  0  0  0  0  0  0  0  0  0  0
  -20.6530  -28.0470   22.9830 C   0  0  0  0  0  3  0  0  0  0  0  0
  -20.7610  -26.6330   22.3650 C   0  0  0  0  0  2  0  0  0  0  0  0
  -19.6340  -26.3240   21.3740 C   0  0  0  0  0  2  0  0  0  0  0  0
  -18.2690  -26.4290   22.0620 C   0  0  0  0  0  2  0  0  0  0  0  0
  -19.2100  -28.5230   23.2000 C   0  0  0  0  0  0  0  0  0  0  0  0
  -18.9890  -29.7670   23.8320 C   0  0  0  0  0  3  0  0  0  0  0  0
  -17.6810  -30.2410   24.0490 C   0  0  0  0  0  3  0  0  0  0  0  0
  -16.5780  -29.4720   23.6420 C   0  0  0  0  0  3  0  0  0  0  0  0
  -16.7840  -28.2300   23.0160 C   0  0  0  0  0  3  0  0  0  0  0  0
  -25.8300  -32.3460   23.6310 C   0  0  0  0  0  3  0  0  0  0  0  0
  -26.4060  -31.5520   24.8670 C   0  0  1  0  0  0  0  0  0  0  0  0
  -25.3450  -31.2360   25.9470 C   0  0  0  0  0  1  0  0  0  0  0  0
  -27.0290  -30.2120   24.4110 C   0  0  0  0  0  1  0  0  0  0  0  0
  -27.5380  -32.3660   25.5330 C   0  0  0  0  0  1  0  0  0  0  0  0
  -25.4790  -33.7190   24.0170 N   0  0  0  0  0  0  0  0  0  0  0  0
  -25.7630  -34.8090   23.2910 C   0  0  0  0  0  0  0  0  0  0  0  0
  -26.4160  -34.7650   22.2450 O   0  0  0  0  0  0  0  0  0  0  0  0
  -24.8850  -33.8240   24.8280 H   0  0  0  0  0  0  0  0  0  0  0  0
  -23.9610  -36.5460   23.0380 C   0  0  0  0  0  1  0  0  0  0  0  0
  -25.2370  -36.1620   23.8070 C   0  0  0  0  0  3  0  0  0  0  0  0
  -27.3520  -37.1020   24.6280 C   0  0  0  0  0  1  0  0  0  0  0  0
  -26.2270  -37.2560   23.7080 N   0  0  0  0  0  0  0  0  0  0  0  0
  -25.7890  -38.1550   23.8880 H   0  0  0  0  0  0  0  0  0  0  0  0
  1  3  2  0
  2  1  1  0
  2  9  1  0
  4  2  1  0
  5  8  1  0
  6  5  2  0
  7  8  2  0
  8 20  1  0
  9  6  1  0
  9 10  2  0
 10  7  1  0
 11 10  1  0
 12 20  1  0
 13 18  1  0
 14 15  1  0
 14 13  1  0
 16 15  1  0
 16 25  1  0
 16 17  1  0
 18 12  1  0
 18 17  1  0
 19 12  2  0
 20 21  1  0
 22 23  2  0
 23 42  1  0
 24 23  1  0
 24 27  1  0
 25 22  1  0
 25 26  1  0
 26 24  2  0
 27 28  1  0
 28 29  2  0
 30 33  1  0
 30 29  1  0
 31 30  2  0
 32 31  1  0
 32 27  2  0
 33 34  1  0
 34 39  2  0
 34 35  1  0
 35 36  2  0
 36 37  1  0
 37 41  1  0
 38 37  2  0
 39 38  1  0
 40 39  1  0
 42 43  1  0
 43 46  1  0
 43 45  1  0
 44 42  2  0
 47 48  1  0
 47 22  1  0
 49 47  1  0
 50  1  1  0
 50 55  1  0
 51 50  1  0
 51 52  1  0
 53 51  1  0
 54 51  1  0
 56 58  1  0
 56 55  1  0
 57 68  2  0
 58 63  1  0
 59 67  1  0
 59 69  1  0
 60 66  1  0
 60 62  1  0
 61 67  1  0
 62 61  1  0
 63 62  2  0
 64 65  1  0
 64 58  2  0
 65 60  2  0
 66 59  1  0
 67 57  1  0
 69 71  2  0
 70 69  1  0
 72 70  1  0
 73 82  2  0
 73 78  1  0
 74 70  1  0
 74 78  1  0
 75 74  1  0
 76 77  1  0
 76 75  1  0
 77 73  1  0
 78 79  2  0
 79 80  1  0
 81 80  2  0
 82 81  1  0
 83 57  1  0
 83 88  1  0
 83 84  1  0
 84 87  1  1
 84 85  1  0
 86 84  1  0
 88 91  1  0
 89 93  1  0
 89 88  1  0
 90 89  2  0
 93 92  1  0
 95 93  1  0
 95 96  1  0
 95 94  1  0
M  ISO  4  12 100  20 100  55 101  56 101
M  END
>  <TORSDO>  (92) 
F 20

>  <SCORE>  (92) 
-13.336

>  <name>  (92) 
91

>  <ligand_id>  (92) 
91

>  <original_smiles>  (92) 
[H]c1c([H])c([H])c2c(c1[H])C([H])([H])C([H])([H])C([H])([H])C2([H])N([H])C(=O)C1([H])N(C(=O)C([H])(N([H])C(=O)C([H])(N([H])C([H])([H])[H])C([H])([H])[H])C(C([H])([H])[H])(C([H])([H])[H])C([H])([H])[H])C([H])([H])c2c([H])c(OC([H])([H])C([H])(C(=O)N([H])c3c([H])c([H])c(N([H])C(=O)N4C([H])([H])C([H])([H])C([H])([H])C([H])(n5nc(-c6c([H])c([H])c(Oc7c([H])c([H])c(F)c([H])c7F)c([H])c6[H])c(C(=O)N([H])[H])c5N([H])[H])C4([H])[H])c([H])c3F)[N+]([H])([H])[H])c([H])c([H])c2C1([H])[H]

>  <smiles>  (92) 
[H]c1c([H])c([H])c2c(c1[H])C([H])([H])C([H])([H])C([H])([H])C2([H])N([H])C(=O)C1([H])N(C(=O)C([H])(N([H])C(=O)C([H])(N([H])C([H])([H])[H])C([H])([H])[H])C(C([H])([H])[H])(C([H])([H])[H])C([H])([H])[H])C([H])([H])c2c([H])c(OC([H])([H])C([H])(C(=O)N([H])c3c([H])c([H])c(N([H])C(=O)N4C([H])([H])C([H])([H])C([H])([H])C([H])(n5nc(-c6c([H])c([H])c(Oc7c([H])c([H])c(F)c([H])c7F)c([H])c6[H])c(C(=O)N([H])[H])c5N([H])[H])C4([H])[H])c([H])c3F)[N+]([H])([H])[H])c([H])c([H])c2C1([H])[H]

$$$$
92:0:0
     RDKit          3D

 98107  0  0  1  0  0  0  0  0999 V2000
  -30.1600  -22.8620   23.8900 C   0  0  0  0  0  0  0  0  0  0  0  0
  -29.8340  -24.3520   23.8450 C   0  0  0  0  0  2  0  0  0  0  0  0
  -29.3360  -23.3300   21.7540 C   0  0  0  0  0  2  0  0  0  0  0  0
  -29.5040  -22.1480   22.7190 C   0  0  0  0  0  3  0  0  0  0  0  0
  -29.0090  -24.4870   22.6180 N   0  0  2  0  0  4  0  0  0  0  0  0
  -30.8750  -22.3450   24.7560 O   0  0  0  0  0  0  0  0  0  0  0  0
  -28.0550  -24.3470   22.9210 H   0  0  0  0  0  0  0  0  0  0  0  0
  -30.5590  -19.9070   22.7290 C   0  0  0  0  0  0  0  0  0  0  0  0
  -30.3230  -21.0820   22.1380 N   0  0  0  0  0  0  0  0  0  0  0  0
  -30.1130  -19.6030   23.8370 O   0  0  0  0  0  0  0  0  0  0  0  0
  -30.7200  -21.2300   21.2210 H   0  0  0  0  0  0  0  0  0  0  0  0
  -33.2100  -18.3330   20.4710 C   0  0  0  0  0  3  0  0  0  0  0  0
  -32.5070  -19.2850   21.2350 C   0  0  0  0  0  3  0  0  0  0  0  0
  -32.7170  -17.0180   20.3560 C   0  0  0  0  0  3  0  0  0  0  0  0
  -30.8450  -17.5910   21.8070 C   0  0  0  0  0  3  0  0  0  0  0  0
  -31.3190  -18.9170   21.9050 C   0  0  0  0  0  0  0  0  0  0  0  0
  -31.5160  -16.6460   21.0060 C   0  0  0  0  0  0  0  0  0  0  0  0
  -31.3620  -14.3630   20.0790 C   0  0  0  0  0  0  0  0  0  0  0  0
  -31.0420  -12.0100   19.4170 C   0  0  0  0  0  2  0  0  0  0  0  0
  -30.1260  -11.8780   18.1880 C   0  0  0  0  0  2  0  0  0  0  0  0
  -28.6490  -11.8180   18.6190 C   0  0  0  0  0  2  0  0  0  0  0  0
  -28.2710  -12.9580   19.6010 C   0  0  0  0  0  3  0  0  0  0  0  0
  -29.2990  -13.0650   20.7500 C   0  0  0  0  0  2  0  0  0  0  0  0
  -30.6480  -13.2110   20.1670 N   0  0  0  0  0  0  0  0  0  0  0  0
  -32.3460  -14.4830   19.3430 O   0  0  0  0  0  0  0  0  0  0  0  0
  -30.9670  -15.3430   20.9060 N   0  0  0  0  0  0  0  0  0  0  0  0
  -30.1140  -15.1620   21.4120 H   0  0  0  0  0  0  0  0  0  0  0  0
  -25.9420  -13.7450   20.3720 C   0  0  0  0  0  0  0  0  0  0  0  0
  -24.8240  -13.0530   20.7570 C   0  0  0  0  0  0  0  0  0  0  0  0
  -25.1750  -11.6700   20.6950 C   0  0  0  0  0  0  0  0  0  0  0  0
  -26.9090  -12.7870   20.1060 N   0  0  0  0  0  0  0  0  0  0  0  0
  -26.4500  -11.5340   20.3540 N   0  0  0  0  0  0  0  0  0  0  0  0
  -24.3550  -10.4660   20.8880 C   0  0  0  0  0  0  0  0  0  0  0  0
  -24.6290   -9.5430   21.9200 C   0  0  0  0  0  3  0  0  0  0  0  0
  -23.8160   -8.4030   22.0950 C   0  0  0  0  0  3  0  0  0  0  0  0
  -22.7140   -8.1780   21.2370 C   0  0  0  0  0  0  0  0  0  0  0  0
  -22.4590   -9.0890   20.1960 C   0  0  0  0  0  3  0  0  0  0  0  0
  -23.2720  -10.2210   20.0190 C   0  0  0  0  0  3  0  0  0  0  0  0
  -21.8840   -7.0850   21.3150 O   0  0  0  0  0  0  0  0  0  0  0  0
  -21.5520   -6.5190   22.5190 C   0  0  0  0  0  0  0  0  0  0  0  0
  -20.9230   -7.2600   23.5430 C   0  0  0  0  0  3  0  0  0  0  0  0
  -20.5370   -6.6220   24.7390 C   0  0  0  0  0  3  0  0  0  0  0  0
  -20.7700   -5.2440   24.9100 C   0  0  0  0  0  0  0  0  0  0  0  0
  -21.3910   -4.5030   23.8880 C   0  0  0  0  0  3  0  0  0  0  0  0
  -21.7780   -5.1390   22.6950 C   0  0  0  0  0  0  0  0  0  0  0  0
  -22.3570   -4.4170   21.7070 F   0  0  0  0  0  0  0  0  0  0  0  0
  -20.3920   -4.6290   26.0540 F   0  0  0  0  0  0  0  0  0  0  0  0
  -23.4770  -13.6360   21.0740 C   0  0  0  0  0  0  0  0  0  0  0  0
  -22.7280  -12.9980   21.9680 N   0  0  0  0  0  0  0  0  0  0  0  0
  -23.0990  -14.6900   20.5640 O   0  0  0  0  0  0  0  0  0  0  0  0
  -23.0470  -12.1440   22.4020 H   0  0  0  0  0  0  0  0  0  0  0  0
  -21.8250  -13.3700   22.2230 H   0  0  0  0  0  0  0  0  0  0  0  0
  -26.2110  -15.1000   20.2080 N   0  0  0  0  0  0  0  0  0  0  0  0
  -25.5020  -15.8140   20.3420 H   0  0  0  0  0  0  0  0  0  0  0  0
  -27.0910  -15.4730   19.8730 H   0  0  0  0  0  0  0  0  0  0  0  0
  -29.0980  -25.8300   21.9800 C   0  0  0  0  0  2  0  0  0  0  0  0
  -28.5530  -25.8780   20.5390 C   0  0  0  0  0  2  0  0  0  0  0  0
  -28.5500  -27.2370   20.0920 O   0  0  0  0  0  0  0  0  0  0  0  0
  -24.6790  -32.1130   23.5110 C   0  0  0  0  0  0  0  0  0  0  0  0
  -27.3480  -27.8950   20.1810 C   0  0  0  0  0  0  0  0  0  0  0  0
  -23.4540  -30.7250   21.8690 C   0  0  0  0  0  3  0  0  0  0  0  0
  -24.9000  -29.2910   20.3360 C   0  0  0  0  0  0  0  0  0  0  0  0
  -25.9520  -31.1890   21.5810 C   0  0  0  0  0  2  0  0  0  0  0  0
  -26.0600  -29.8450   20.8930 C   0  0  0  0  0  0  0  0  0  0  0  0
  -27.2880  -29.1560   20.8110 C   0  0  0  0  0  3  0  0  0  0  0  0
  -26.1750  -27.3500   19.6140 C   0  0  0  0  0  3  0  0  0  0  0  0
  -24.9510  -28.0400   19.6950 C   0  0  0  0  0  3  0  0  0  0  0  0
  -23.6290  -30.1000   20.4590 C   0  0  0  0  0  2  0  0  0  0  0  0
  -24.7160  -31.3550   22.3790 N   0  0  0  0  0  0  0  0  0  0  0  0
  -23.6130  -32.3270   24.1040 O   0  0  0  0  0  0  0  0  0  0  0  0
  -22.8790  -29.6490   22.8170 C   0  0  0  0  0  0  0  0  0  0  0  0
  -21.5970  -29.3020   22.6200 N   0  0  0  0  0  0  0  0  0  0  0  0
  -23.5850  -29.1270   23.6830 O   0  0  0  0  0  0  0  0  0  0  0  0
  -21.0840  -29.7830   21.8950 H   0  0  0  0  0  0  0  0  0  0  0  0
  -18.4180  -27.6040   22.8440 C   0  0  0  0  0  0  0  0  0  0  0  0
  -20.8570  -28.2850   23.3650 C   0  0  0  0  0  3  0  0  0  0  0  0
  -21.2460  -26.8620   22.9030 C   0  0  0  0  0  2  0  0  0  0  0  0
  -20.3300  -26.3130   21.8030 C   0  0  0  0  0  2  0  0  0  0  0  0
  -18.8790  -26.2670   22.2880 C   0  0  0  0  0  2  0  0  0  0  0  0
  -19.3480  -28.5580   23.3350 C   0  0  0  0  0  0  0  0  0  0  0  0
  -18.8710  -29.8000   23.8060 C   0  0  0  0  0  3  0  0  0  0  0  0
  -17.4940  -30.0920   23.7990 C   0  0  0  0  0  3  0  0  0  0  0  0
  -16.5760  -29.1360   23.3290 C   0  0  0  0  0  3  0  0  0  0  0  0
  -17.0380  -27.8960   22.8560 C   0  0  0  0  0  3  0  0  0  0  0  0
  -25.9690  -32.7650   24.1010 C   0  0  0  0  0  3  0  0  0  0  0  0
  -26.4800  -32.0540   25.4140 C   0  0  1  0  0  0  0  0  0  0  0  0
  -25.3660  -31.7990   26.4550 C   0  0  0  0  0  1  0  0  0  0  0  0
  -27.1350  -30.6950   25.0750 C   0  0  0  0  0  1  0  0  0  0  0  0
  -27.5720  -32.9190   26.0870 C   0  0  0  0  0  1  0  0  0  0  0  0
  -25.6730  -34.1800   24.3560 N   0  0  0  0  0  0  0  0  0  0  0  0
  -26.0370  -35.1900   23.5540 C   0  0  0  0  0  0  0  0  0  0  0  0
  -26.7300  -35.0290   22.5460 O   0  0  0  0  0  0  0  0  0  0  0  0
  -25.0620  -34.3810   25.1340 H   0  0  0  0  0  0  0  0  0  0  0  0
  -24.3500  -36.9860   23.0580 C   0  0  0  0  0  1  0  0  0  0  0  0
  -25.5550  -36.6040   23.9320 C   0  0  0  0  0  3  0  0  0  0  0  0
  -27.6800  -37.4860   24.7880 C   0  0  0  0  0  1  0  0  0  0  0  0
  -26.6080  -37.6360   23.8070 N   0  0  0  0  0  0  0  0  0  0  0  0
  -26.2130  -38.5670   23.9090 H   0  0  0  0  0  0  0  0  0  0  0  0
  1  6  2  0
  2  1  1  0
  3  5  1  0
  3  4  1  0
  4  9  1  0
  4  1  1  0
  5  7  1  1
  5  2  1  0
  8 10  2  0
  9  8  1  0
 11  9  1  0
 12 13  1  0
 13 16  2  0
 14 12  2  0
 14 17  1  0
 15 16  1  0
 16  8  1  0
 17 15  2  0
 18 24  1  0
 18 26  1  0
 19 24  1  0
 20 21  1  0
 20 19  1  0
 22 21  1  0
 22 31  1  0
 22 23  1  0
 24 23  1  0
 25 18  2  0
 26 17  1  0
 26 27  1  0
 28 29  2  0
 29 48  1  0
 30 29  1  0
 30 33  1  0
 31 32  1  0
 31 28  1  0
 32 30  2  0
 33 34  1  0
 34 35  2  0
 36 39  1  0
 36 35  1  0
 37 36  2  0
 38 37  1  0
 38 33  2  0
 39 40  1  0
 40 45  2  0
 40 41  1  0
 41 42  2  0
 42 43  1  0
 43 47  1  0
 44 43  2  0
 45 44  1  0
 46 45  1  0
 48 49  1  0
 49 52  1  0
 49 51  1  0
 50 48  2  0
 53 54  1  0
 53 28  1  0
 55 53  1  0
 56  5  1  0
 57 56  1  0
 58 60  1  0
 58 57  1  0
 59 70  2  0
 60 65  1  0
 61 69  1  0
 61 71  1  0
 62 68  1  0
 62 64  1  0
 63 69  1  0
 64 63  1  0
 65 64  2  0
 66 67  1  0
 66 60  2  0
 67 62  2  0
 68 61  1  0
 69 59  1  0
 71 73  2  0
 72 71  1  0
 74 72  1  0
 75 84  2  0
 75 80  1  0
 76 72  1  0
 77 76  1  0
 78 79  1  0
 78 77  1  0
 79 75  1  0
 80 76  1  0
 80 81  2  0
 82 81  1  0
 83 82  2  0
 84 83  1  0
 85 59  1  0
 85 90  1  0
 85 86  1  0
 86 89  1  1
 86 87  1  0
 88 86  1  0
 90 93  1  0
 91 95  1  0
 91 90  1  0
 92 91  2  0
 95 94  1  0
 97 98  1  0
 97 95  1  0
 97 96  1  0
M  ISO  4  18 100  26 100  57 101  58 101
M  END
>  <TORSDO>  (93) 
F 20

>  <SCORE>  (93) 
-11.284

>  <name>  (93) 
92

>  <ligand_id>  (93) 
92

>  <original_smiles>  (93) 
[H]c1c([H])c(C(=O)N([H])C2([H])C(=O)C([H])([H])[N+]([H])(C([H])([H])C([H])([H])Oc3c([H])c([H])c4c(c3[H])C([H])([H])N(C(=O)C([H])(N([H])C(=O)C([H])(N([H])C([H])([H])[H])C([H])([H])[H])C(C([H])([H])[H])(C([H])([H])[H])C([H])([H])[H])C([H])(C(=O)N([H])C3([H])c5c([H])c([H])c([H])c([H])c5C([H])([H])C([H])([H])C3([H])[H])C4([H])[H])C2([H])[H])c([H])c(N([H])C(=O)N2C([H])([H])C([H])([H])C([H])([H])C([H])(n3nc(-c4c([H])c([H])c(Oc5c([H])c([H])c(F)c([H])c5F)c([H])c4[H])c(C(=O)N([H])[H])c3N([H])[H])C2([H])[H])c1[H]

>  <smiles>  (93) 
[H]c1c([H])c(C(=O)N([H])C2([H])C(=O)C([H])([H])[N+]([H])(C([H])([H])C([H])([H])Oc3c([H])c([H])c4c(c3[H])C([H])([H])N(C(=O)C([H])(N([H])C(=O)C([H])(N([H])C([H])([H])[H])C([H])([H])[H])C(C([H])([H])[H])(C([H])([H])[H])C([H])([H])[H])C([H])(C(=O)N([H])C3([H])c5c([H])c([H])c([H])c([H])c5C([H])([H])C([H])([H])C3([H])[H])C4([H])[H])C2([H])[H])c([H])c(N([H])C(=O)N2C([H])([H])C([H])([H])C([H])([H])C([H])(n3nc(-c4c([H])c([H])c(Oc5c([H])c([H])c(F)c([H])c5F)c([H])c4[H])c(C(=O)N([H])[H])c3N([H])[H])C2([H])[H])c1[H]

$$$$
93:0:0
     RDKit          3D

 92100  0  0  1  0  0  0  0  0999 V2000
  -31.9800  -20.8500   19.2840 C   0  0  0  0  0  3  0  0  0  0  0  0
  -31.6370  -19.6090   19.8470 C   0  0  0  0  0  3  0  0  0  0  0  0
  -31.1730  -21.9800   19.5060 C   0  0  0  0  0  3  0  0  0  0  0  0
  -29.6600  -20.6200   20.8470 C   0  0  0  0  0  3  0  0  0  0  0  0
  -30.4640  -19.4670   20.6190 C   0  0  0  0  0  0  0  0  0  0  0  0
  -30.0120  -21.8930   20.3100 C   0  0  0  0  0  0  0  0  0  0  0  0
  -29.3860  -24.3560   20.3960 C   0  0  0  0  0  0  0  0  0  0  0  0
  -29.1680  -23.0270   20.5780 N   0  0  0  0  0  0  0  0  0  0  0  0
  -30.4470  -24.8340   19.9830 O   0  0  0  0  0  0  0  0  0  0  0  0
  -28.2710  -22.8100   20.9910 H   0  0  0  0  0  0  0  0  0  0  0  0
  -28.2250  -25.3060   20.7670 C   0  0  0  0  0  2  0  0  0  0  0  0
  -28.3950  -26.6390   20.2220 O   0  0  0  0  0  0  0  0  0  0  0  0
  -24.6070  -31.8800   23.2450 C   0  0  0  0  0  0  0  0  0  0  0  0
  -27.2460  -27.4050   20.1980 C   0  0  0  0  0  0  0  0  0  0  0  0
  -23.4020  -30.4700   21.6100 C   0  0  0  0  0  3  0  0  0  0  0  0
  -24.8570  -28.9280   20.1910 C   0  0  0  0  0  0  0  0  0  0  0  0
  -25.9290  -30.8260   21.4110 C   0  0  0  0  0  2  0  0  0  0  0  0
  -26.0160  -29.4510   20.7770 C   0  0  0  0  0  0  0  0  0  0  0  0
  -27.2160  -28.7000   20.7730 C   0  0  0  0  0  3  0  0  0  0  0  0
  -26.0710  -26.9120   19.5870 C   0  0  0  0  0  3  0  0  0  0  0  0
  -24.8800  -27.6590   19.5890 C   0  0  0  0  0  3  0  0  0  0  0  0
  -23.6120  -29.7860   20.2340 C   0  0  0  0  0  2  0  0  0  0  0  0
  -24.6640  -31.0750   22.1470 N   0  0  0  0  0  0  0  0  0  0  0  0
  -23.5250  -32.1550   23.7830 O   0  0  0  0  0  0  0  0  0  0  0  0
  -22.7500  -29.4530   22.5750 C   0  0  0  0  0  0  0  0  0  0  0  0
  -21.4260  -29.2710   22.4510 N   0  0  0  0  0  0  0  0  0  0  0  0
  -23.4340  -28.8300   23.3910 O   0  0  0  0  0  0  0  0  0  0  0  0
  -20.9340  -29.8270   21.7660 H   0  0  0  0  0  0  0  0  0  0  0  0
  -18.0510  -28.0790   22.9550 C   0  0  0  0  0  0  0  0  0  0  0  0
  -20.6090  -28.3370   23.2260 C   0  0  0  0  0  3  0  0  0  0  0  0
  -20.7100  -26.9030   22.6560 C   0  0  0  0  0  2  0  0  0  0  0  0
  -19.6080  -26.5770   21.6440 C   0  0  0  0  0  2  0  0  0  0  0  0
  -18.2260  -26.7260   22.2870 C   0  0  0  0  0  2  0  0  0  0  0  0
  -19.1700  -28.8420   23.3820 C   0  0  0  0  0  0  0  0  0  0  0  0
  -18.9530  -30.1080   23.9670 C   0  0  0  0  0  3  0  0  0  0  0  0
  -17.6480  -30.6130   24.1280 C   0  0  0  0  0  3  0  0  0  0  0  0
  -16.5440  -29.8460   23.7180 C   0  0  0  0  0  3  0  0  0  0  0  0
  -16.7460  -28.5820   23.1380 C   0  0  0  0  0  3  0  0  0  0  0  0
  -25.8920  -32.5150   23.8620 C   0  0  0  0  0  3  0  0  0  0  0  0
  -26.4180  -31.7440   25.1350 C   0  0  1  0  0  0  0  0  0  0  0  0
  -25.3310  -31.5050   26.2080 C   0  0  0  0  0  1  0  0  0  0  0  0
  -27.0010  -30.3690   24.7370 C   0  0  0  0  0  1  0  0  0  0  0  0
  -27.5700  -32.5410   25.7910 C   0  0  0  0  0  1  0  0  0  0  0  0
  -25.5820  -33.9120   24.1910 N   0  0  0  0  0  0  0  0  0  0  0  0
  -25.9100  -34.9640   23.4280 C   0  0  0  0  0  0  0  0  0  0  0  0
  -26.5770  -34.8600   22.3940 O   0  0  0  0  0  0  0  0  0  0  0  0
  -24.9910  -34.0680   24.9940 H   0  0  0  0  0  0  0  0  0  0  0  0
  -24.1750  -36.7490   23.0750 C   0  0  0  0  0  1  0  0  0  0  0  0
  -25.4210  -36.3510   23.8840 C   0  0  0  0  0  3  0  0  0  0  0  0
  -27.5570  -37.2420   24.7010 C   0  0  0  0  0  1  0  0  0  0  0  0
  -26.4490  -37.4080   23.7640 N   0  0  0  0  0  0  0  0  0  0  0  0
  -26.0420  -38.3260   23.9130 H   0  0  0  0  0  0  0  0  0  0  0  0
  -30.1180  -18.0880   21.2170 C   0  0  0  0  0  2  0  0  0  0  0  0
  -30.1130  -16.9270   20.1820 C   0  0  0  0  0  2  0  0  0  0  0  0
  -30.6520  -14.4940   20.4170 C   0  0  0  0  0  0  0  0  0  0  0  0
  -30.3490  -12.3210   19.3070 C   0  0  0  0  0  2  0  0  0  0  0  0
  -29.4120  -12.5400   18.1010 C   0  0  0  0  0  2  0  0  0  0  0  0
  -27.9360  -12.4130   18.5280 C   0  0  0  0  0  2  0  0  0  0  0  0
  -27.6040  -13.2410   19.7980 C   0  0  0  0  0  3  0  0  0  0  0  0
  -28.6610  -13.0240   20.9060 C   0  0  0  0  0  2  0  0  0  0  0  0
  -29.9850  -13.3120   20.3340 N   0  0  0  0  0  0  0  0  0  0  0  0
  -31.8030  -14.6380   19.9950 O   0  0  0  0  0  0  0  0  0  0  0  0
  -29.8950  -15.5680   20.7320 N   0  0  0  0  0  0  0  0  0  0  0  0
  -28.9720  -15.3650   21.0830 H   0  0  0  0  0  0  0  0  0  0  0  0
  -25.2050  -13.8500   20.5010 C   0  0  0  0  0  0  0  0  0  0  0  0
  -24.1360  -13.0800   20.8740 C   0  0  0  0  0  0  0  0  0  0  0  0
  -24.5980  -11.7280   20.8520 C   0  0  0  0  0  0  0  0  0  0  0  0
  -26.2490  -12.9680   20.2770 N   0  0  0  0  0  0  0  0  0  0  0  0
  -25.8890  -11.6870   20.5460 N   0  0  0  0  0  0  0  0  0  0  0  0
  -23.8710  -10.4670   21.0490 C   0  0  0  0  0  0  0  0  0  0  0  0
  -24.3140   -9.4960   21.9740 C   0  0  0  0  0  3  0  0  0  0  0  0
  -23.5880   -8.2990   22.1580 C   0  0  0  0  0  3  0  0  0  0  0  0
  -22.4040   -8.0670   21.4180 C   0  0  0  0  0  0  0  0  0  0  0  0
  -21.9810   -9.0260   20.4820 C   0  0  0  0  0  3  0  0  0  0  0  0
  -22.7070  -10.2140   20.2950 C   0  0  0  0  0  3  0  0  0  0  0  0
  -21.6480   -6.9230   21.5130 O   0  0  0  0  0  0  0  0  0  0  0  0
  -21.6270   -6.1670   22.6570 C   0  0  0  0  0  0  0  0  0  0  0  0
  -21.2480   -6.7120   23.9040 C   0  0  0  0  0  3  0  0  0  0  0  0
  -21.1730   -5.8830   25.0410 C   0  0  0  0  0  3  0  0  0  0  0  0
  -21.4670   -4.5110   24.9330 C   0  0  0  0  0  0  0  0  0  0  0  0
  -21.8400   -3.9650   23.6920 C   0  0  0  0  0  3  0  0  0  0  0  0
  -21.9170   -4.7910   22.5570 C   0  0  0  0  0  0  0  0  0  0  0  0
  -22.2560   -4.2570   21.3590 F   0  0  0  0  0  0  0  0  0  0  0  0
  -21.3860   -3.7130   26.0230 F   0  0  0  0  0  0  0  0  0  0  0  0
  -22.7380  -13.5590   21.1410 C   0  0  0  0  0  0  0  0  0  0  0  0
  -22.0090  -12.8700   22.0120 N   0  0  0  0  0  0  0  0  0  0  0  0
  -22.3010  -14.5810   20.6130 O   0  0  0  0  0  0  0  0  0  0  0  0
  -22.3750  -12.0440   22.4620 H   0  0  0  0  0  0  0  0  0  0  0  0
  -21.0710  -13.1720   22.2320 H   0  0  0  0  0  0  0  0  0  0  0  0
  -25.3670  -15.2190   20.3140 N   0  0  0  0  0  0  0  0  0  0  0  0
  -24.5960  -15.8700   20.4170 H   0  0  0  0  0  0  0  0  0  0  0  0
  -26.2090  -15.6590   19.9640 H   0  0  0  0  0  0  0  0  0  0  0  0
  1  3  2  0
  1  2  1  0
  2  5  2  0
  3  6  1  0
  5  4  1  0
  5 53  1  0
  6  8  1  0
  6  4  2  0
  7  8  1  0
  7 11  1  0
  8 10  1  0
  9  7  2  0
 12 11  1  0
 13 24  2  0
 14 12  1  0
 14 19  1  0
 15 23  1  0
 15 25  1  0
 16 22  1  0
 16 18  1  0
 17 23  1  0
 18 17  1  0
 19 18  2  0
 20 21  1  0
 20 14  2  0
 21 16  2  0
 22 15  1  0
 23 13  1  0
 25 27  2  0
 26 25  1  0
 28 26  1  0
 29 38  2  0
 29 34  1  0
 30 26  1  0
 30 34  1  0
 31 30  1  0
 32 33  1  0
 32 31  1  0
 33 29  1  0
 34 35  2  0
 35 36  1  0
 37 36  2  0
 38 37  1  0
 39 13  1  0
 39 44  1  0
 39 40  1  0
 40 43  1  1
 40 41  1  0
 42 40  1  0
 44 47  1  0
 45 49  1  0
 45 44  1  0
 46 45  2  0
 49 48  1  0
 51 49  1  0
 51 52  1  0
 51 50  1  0
 54 63  1  0
 54 53  1  0
 55 63  1  0
 56 61  1  0
 57 58  1  0
 57 56  1  0
 59 58  1  0
 59 68  1  0
 59 60  1  0
 61 55  1  0
 61 60  1  0
 62 55  2  0
 63 64  1  0
 65 66  2  0
 66 85  1  0
 67 66  1  0
 67 70  1  0
 68 65  1  0
 68 69  1  0
 69 67  2  0
 70 71  1  0
 71 72  2  0
 73 76  1  0
 73 72  1  0
 74 73  2  0
 75 74  1  0
 75 70  2  0
 76 77  1  0
 77 78  1  0
 78 79  2  0
 80 79  1  0
 80 84  1  0
 81 80  2  0
 82 77  2  0
 82 81  1  0
 83 82  1  0
 85 86  1  0
 86 89  1  0
 86 88  1  0
 87 85  2  0
 90 91  1  0
 90 65  1  0
 92 90  1  0
M  ISO  4  11 101  12 101  55 100  63 100
M  END
>  <TORSDO>  (94) 
F 20

>  <SCORE>  (94) 
-13.808

>  <name>  (94) 
93

>  <ligand_id>  (94) 
93

>  <original_smiles>  (94) 
[H]c1c([H])c(N([H])C(=O)C([H])([H])Oc2c([H])c([H])c3c(c2[H])C([H])([H])N(C(=O)C([H])(N([H])C(=O)C([H])(N([H])C([H])([H])[H])C([H])([H])[H])C(C([H])([H])[H])(C([H])([H])[H])C([H])([H])[H])C([H])(C(=O)N([H])C2([H])c4c([H])c([H])c([H])c([H])c4C([H])([H])C([H])([H])C2([H])[H])C3([H])[H])c([H])c(C([H])([H])C([H])([H])N([H])C(=O)N2C([H])([H])C([H])([H])C([H])([H])C([H])(n3nc(-c4c([H])c([H])c(Oc5c([H])c([H])c(F)c([H])c5F)c([H])c4[H])c(C(=O)N([H])[H])c3N([H])[H])C2([H])[H])c1[H]

>  <smiles>  (94) 
[H]c1c([H])c(N([H])C(=O)C([H])([H])Oc2c([H])c([H])c3c(c2[H])C([H])([H])N(C(=O)C([H])(N([H])C(=O)C([H])(N([H])C([H])([H])[H])C([H])([H])[H])C(C([H])([H])[H])(C([H])([H])[H])C([H])([H])[H])C([H])(C(=O)N([H])C2([H])c4c([H])c([H])c([H])c([H])c4C([H])([H])C([H])([H])C2([H])[H])C3([H])[H])c([H])c(C([H])([H])C([H])([H])N([H])C(=O)N2C([H])([H])C([H])([H])C([H])([H])C([H])(n3nc(-c4c([H])c([H])c(Oc5c([H])c([H])c(F)c([H])c5F)c([H])c4[H])c(C(=O)N([H])[H])c3N([H])[H])C2([H])[H])c1[H]

$$$$
94:0:0
     RDKit          3D

 94102  0  0  1  0  0  0  0  0999 V2000
  -29.7490  -21.6870   20.7190 C   0  0  0  0  0  0  0  0  0  0  0  0
  -29.8420  -22.0690   21.9930 N   0  0  0  0  0  4  0  0  0  0  0  0
  -29.5880  -22.7040   19.8080 N   0  0  0  0  0  0  0  0  0  0  0  0
  -29.9700  -21.3700   22.7090 H   0  0  0  0  0  0  0  0  0  0  0  0
  -29.7520  -23.0280   22.2790 H   0  0  0  0  0  0  0  0  0  0  0  0
  -29.5240  -22.4120   18.8400 H   0  0  0  0  0  0  0  0  0  0  0  0
  -31.0520  -19.5330   20.0750 C   0  0  0  0  0  3  0  0  0  0  0  0
  -31.1770  -18.1010   20.0630 C   0  0  0  0  0  3  0  0  0  0  0  0
  -28.8830  -17.9160   20.7460 C   0  0  0  0  0  3  0  0  0  0  0  0
  -29.8460  -20.1910   20.4610 C   0  0  0  0  0  0  0  0  0  0  0  0
  -30.0910  -17.2490   20.4190 C   0  0  0  0  0  0  0  0  0  0  0  0
  -28.7600  -19.3330   20.7800 C   0  0  0  0  0  0  0  0  0  0  0  0
  -27.5700  -19.8630   21.1540 F   0  0  0  0  0  0  0  0  0  0  0  0
  -30.8340  -14.7830   19.8870 C   0  0  0  0  0  0  0  0  0  0  0  0
  -30.5330  -12.5720   18.7770 C   0  0  0  0  0  2  0  0  0  0  0  0
  -29.4970  -12.7420   17.6410 C   0  0  0  0  0  2  0  0  0  0  0  0
  -28.0570  -12.6010   18.1730 C   0  0  0  0  0  2  0  0  0  0  0  0
  -27.8100  -13.4390   19.4550 C   0  0  0  0  0  3  0  0  0  0  0  0
  -28.9430  -13.2150   20.4840 C   0  0  0  0  0  2  0  0  0  0  0  0
  -30.2160  -13.5600   19.8270 N   0  0  0  0  0  0  0  0  0  0  0  0
  -31.9440  -14.9730   19.3740 O   0  0  0  0  0  0  0  0  0  0  0  0
  -30.0780  -15.7820   20.4410 N   0  0  0  0  0  0  0  0  0  0  0  0
  -29.2710  -15.3970   20.9050 H   0  0  0  0  0  0  0  0  0  0  0  0
  -25.4980  -14.0870   20.3740 C   0  0  0  0  0  0  0  0  0  0  0  0
  -24.4370  -13.3330   20.7980 C   0  0  0  0  0  0  0  0  0  0  0  0
  -24.8490  -11.9690   20.6810 C   0  0  0  0  0  0  0  0  0  0  0  0
  -26.4920  -13.1830   20.0280 N   0  0  0  0  0  0  0  0  0  0  0  0
  -26.1110  -11.9040   20.2720 N   0  0  0  0  0  0  0  0  0  0  0  0
  -24.0980  -10.7230   20.8800 C   0  0  0  0  0  0  0  0  0  0  0  0
  -24.5260   -9.7430   21.8010 C   0  0  0  0  0  3  0  0  0  0  0  0
  -23.7770   -8.5610   21.9880 C   0  0  0  0  0  3  0  0  0  0  0  0
  -22.5860   -8.3510   21.2520 C   0  0  0  0  0  0  0  0  0  0  0  0
  -22.1780   -9.3210   20.3190 C   0  0  0  0  0  3  0  0  0  0  0  0
  -22.9270  -10.4940   20.1310 C   0  0  0  0  0  3  0  0  0  0  0  0
  -21.8090   -7.2230   21.3490 O   0  0  0  0  0  0  0  0  0  0  0  0
  -21.6950   -6.5250   22.5260 C   0  0  0  0  0  0  0  0  0  0  0  0
  -21.2090   -7.1300   23.7050 C   0  0  0  0  0  3  0  0  0  0  0  0
  -21.0420   -6.3600   24.8740 C   0  0  0  0  0  3  0  0  0  0  0  0
  -21.3510   -4.9860   24.8630 C   0  0  0  0  0  0  0  0  0  0  0  0
  -21.8300   -4.3810   23.6870 C   0  0  0  0  0  3  0  0  0  0  0  0
  -21.9980   -5.1490   22.5210 C   0  0  0  0  0  0  0  0  0  0  0  0
  -22.4400   -4.5580   21.3850 F   0  0  0  0  0  0  0  0  0  0  0  0
  -21.1840   -4.2440   25.9820 F   0  0  0  0  0  0  0  0  0  0  0  0
  -23.0810  -13.8410   21.1940 C   0  0  0  0  0  0  0  0  0  0  0  0
  -22.4050  -13.1420   22.1020 N   0  0  0  0  0  0  0  0  0  0  0  0
  -22.6310  -14.8890   20.7350 O   0  0  0  0  0  0  0  0  0  0  0  0
  -22.7830  -12.2920   22.4930 H   0  0  0  0  0  0  0  0  0  0  0  0
  -21.4980  -13.4630   22.4090 H   0  0  0  0  0  0  0  0  0  0  0  0
  -25.6950  -15.4580   20.2310 N   0  0  0  0  0  0  0  0  0  0  0  0
  -24.9510  -16.1250   20.4040 H   0  0  0  0  0  0  0  0  0  0  0  0
  -26.5050  -15.8750   19.7920 H   0  0  0  0  0  0  0  0  0  0  0  0
  -29.6640  -24.2190   20.0280 C   0  0  0  0  0  3  0  0  0  0  0  0
  -28.4550  -25.1300   19.5460 C   0  0  0  0  0  3  0  0  0  0  0  0
  -28.5490  -26.5900   19.7890 O   0  0  0  0  0  0  0  0  0  0  0  0
  -24.5270  -31.6080   23.0520 C   0  0  0  0  0  0  0  0  0  0  0  0
  -27.3730  -27.3590   19.7770 C   0  0  0  0  0  0  0  0  0  0  0  0
  -23.3920  -30.2230   21.3500 C   0  0  0  0  0  3  0  0  0  0  0  0
  -24.9180  -28.8250   19.8500 C   0  0  0  0  0  0  0  0  0  0  0  0
  -25.9070  -30.6940   21.1720 C   0  0  0  0  0  2  0  0  0  0  0  0
  -26.0600  -29.3540   20.4630 C   0  0  0  0  0  0  0  0  0  0  0  0
  -27.2900  -28.6340   20.4160 C   0  0  0  0  0  3  0  0  0  0  0  0
  -26.2030  -26.8790   19.1450 C   0  0  0  0  0  3  0  0  0  0  0  0
  -24.9900  -27.5920   19.1830 C   0  0  0  0  0  3  0  0  0  0  0  0
  -23.6340  -29.6260   19.9400 C   0  0  0  0  0  2  0  0  0  0  0  0
  -24.6270  -30.8580   21.9150 N   0  0  0  0  0  0  0  0  0  0  0  0
  -23.4330  -31.8010   23.6020 O   0  0  0  0  0  0  0  0  0  0  0  0
  -22.7920  -29.1280   22.2640 C   0  0  0  0  0  0  0  0  0  0  0  0
  -21.4800  -28.8780   22.1270 N   0  0  0  0  0  0  0  0  0  0  0  0
  -23.5080  -28.5070   23.0560 O   0  0  0  0  0  0  0  0  0  0  0  0
  -20.9580  -29.4340   21.4650 H   0  0  0  0  0  0  0  0  0  0  0  0
  -18.1740  -27.4850   22.5890 C   0  0  0  0  0  0  0  0  0  0  0  0
  -20.7170  -27.8620   22.8560 C   0  0  0  0  0  3  0  0  0  0  0  0
  -20.8880  -26.4680   22.2090 C   0  0  0  0  0  2  0  0  0  0  0  0
  -19.7960  -26.1400   21.1880 C   0  0  0  0  0  2  0  0  0  0  0  0
  -18.4130  -26.1810   21.8460 C   0  0  0  0  0  2  0  0  0  0  0  0
  -19.2550  -28.2820   23.0490 C   0  0  0  0  0  0  0  0  0  0  0  0
  -18.9760  -29.5010   23.7050 C   0  0  0  0  0  3  0  0  0  0  0  0
  -17.6500  -29.9240   23.9030 C   0  0  0  0  0  3  0  0  0  0  0  0
  -16.5820  -29.1250   23.4580 C   0  0  0  0  0  3  0  0  0  0  0  0
  -16.8450  -27.9060   22.8070 C   0  0  0  0  0  3  0  0  0  0  0  0
  -25.7780  -32.2810   23.6970 C   0  0  0  0  0  3  0  0  0  0  0  0
  -26.3150  -31.5060   24.9630 C   0  0  1  0  0  0  0  0  0  0  0  0
  -25.2230  -31.1980   26.0140 C   0  0  0  0  0  1  0  0  0  0  0  0
  -26.9620  -30.1640   24.5480 C   0  0  0  0  0  1  0  0  0  0  0  0
  -27.4230  -32.3340   25.6540 C   0  0  0  0  0  1  0  0  0  0  0  0
  -25.4060  -33.6580   24.0540 N   0  0  0  0  0  0  0  0  0  0  0  0
  -25.6990  -34.7410   23.3210 C   0  0  0  0  0  0  0  0  0  0  0  0
  -26.3800  -34.6870   22.2930 O   0  0  0  0  0  0  0  0  0  0  0  0
  -24.8000  -33.7690   24.8540 H   0  0  0  0  0  0  0  0  0  0  0  0
  -23.8930  -36.4620   22.9990 C   0  0  0  0  0  1  0  0  0  0  0  0
  -25.1500  -36.0970   23.8040 C   0  0  0  0  0  3  0  0  0  0  0  0
  -27.2370  -37.0650   24.6620 C   0  0  0  0  0  1  0  0  0  0  0  0
  -26.1350  -37.1960   23.7120 N   0  0  0  0  0  0  0  0  0  0  0  0
  -25.6870  -38.0960   23.8680 H   0  0  0  0  0  0  0  0  0  0  0  0
  1  2  2  0
  2  5  1  0
  2  4  1  0
  3 52  1  0
  3  1  1  0
  6  3  1  0
  7 10  1  0
  8  7  2  0
  8 11  1  0
  9 12  1  0
 10  1  1  0
 10 12  2  0
 11 22  1  0
 11  9  2  0
 12 13  1  0
 14 22  1  0
 15 20  1  0
 16 17  1  0
 16 15  1  0
 18 17  1  0
 18 27  1  0
 18 19  1  0
 20 14  1  0
 20 19  1  0
 21 14  2  0
 22 23  1  0
 24 25  2  0
 25 44  1  0
 26 25  1  0
 26 29  1  0
 27 28  1  0
 27 24  1  0
 28 26  2  0
 29 30  1  0
 30 31  2  0
 32 35  1  0
 32 31  1  0
 33 32  2  0
 34 33  1  0
 34 29  2  0
 35 36  1  0
 36 37  1  0
 37 38  2  0
 39 38  1  0
 39 43  1  0
 40 39  2  0
 41 36  2  0
 41 40  1  0
 42 41  1  0
 44 45  1  0
 45 48  1  0
 45 47  1  0
 46 44  2  0
 49 24  1  0
 49 50  1  0
 51 49  1  0
 53 54  1  0
 53 52  2  0
 55 66  2  0
 56 54  1  0
 56 61  1  0
 57 65  1  0
 57 67  1  0
 58 64  1  0
 58 60  1  0
 59 65  1  0
 60 59  1  0
 61 60  2  0
 62 63  1  0
 62 56  2  0
 63 58  2  0
 64 57  1  0
 65 55  1  0
 67 69  2  0
 68 67  1  0
 70 68  1  0
 71 80  2  0
 71 76  1  0
 72 68  1  0
 72 76  1  0
 73 72  1  0
 74 75  1  0
 74 73  1  0
 75 71  1  0
 76 77  2  0
 77 78  1  0
 79 78  2  0
 80 79  1  0
 81 55  1  0
 81 86  1  0
 81 82  1  0
 82 85  1  1
 82 83  1  0
 84 82  1  0
 86 89  1  0
 87 91  1  0
 87 86  1  0
 88 87  2  0
 91 90  1  0
 93 91  1  0
 93 94  1  0
 93 92  1  0
M  ISO  4  14 100  22 100  53 101  54 101
M  END
>  <TORSDO>  (95) 
F 19

>  <SCORE>  (95) 
-12.894

>  <name>  (95) 
94

>  <ligand_id>  (95) 
94

>  <original_smiles>  (95) 
[H]c1c([H])c([H])c2c(c1[H])C([H])([H])C([H])([H])C([H])([H])C2([H])N([H])C(=O)C1([H])N(C(=O)C([H])(N([H])C(=O)C([H])(N([H])C([H])([H])[H])C([H])([H])[H])C(C([H])([H])[H])(C([H])([H])[H])C([H])([H])[H])C([H])([H])c2c([H])c(OC([H])([H])C([H])([H])[N+]([H])=C(c3c([H])c([H])c(N([H])C(=O)N4C([H])([H])C([H])([H])C([H])([H])C([H])(n5nc(-c6c([H])c([H])c(Oc7c([H])c([H])c(F)c([H])c7F)c([H])c6[H])c(C(=O)N([H])[H])c5N([H])[H])C4([H])[H])c([H])c3F)N([H])[H])c([H])c([H])c2C1([H])[H]

>  <smiles>  (95) 
[H]c1c([H])c([H])c2c(c1[H])C([H])([H])C([H])([H])C([H])([H])C2([H])N([H])C(=O)C1([H])N(C(=O)C([H])(N([H])C(=O)C([H])(N([H])C([H])([H])[H])C([H])([H])[H])C(C([H])([H])[H])(C([H])([H])[H])C([H])([H])[H])C([H])([H])c2c([H])c(OC([H])([H])C([H])([H])[N+]([H])=C(c3c([H])c([H])c(N([H])C(=O)N4C([H])([H])C([H])([H])C([H])([H])C([H])(n5nc(-c6c([H])c([H])c(Oc7c([H])c([H])c(F)c([H])c7F)c([H])c6[H])c(C(=O)N([H])[H])c5N([H])[H])C4([H])[H])c([H])c3F)N([H])[H])c([H])c([H])c2C1([H])[H]

$$$$
