0:0:0
     RDKit          3D

 95103  0  0  1  0  0  0  0  0999 V2000
  -26.5630  -21.2630   21.9130 C   0  0  0  0  0  1  0  0  0  0  0  0
  -27.4990  -21.1250   20.7900 N   0  0  0  0  0  0  0  0  0  0  0  0
  -27.4490  -22.2970   19.9100 C   0  0  0  0  0  2  0  0  0  0  0  0
  -28.1880  -23.5200   20.4610 C   0  0  0  0  0  2  0  0  0  0  0  0
  -28.0840  -24.6030   18.3120 C   0  0  0  0  0  1  0  0  0  0  0  0
  -28.9310  -24.3000   19.4720 N   0  0  0  0  0  0  0  0  0  0  0  0
  -29.4150  -25.5170   20.1350 C   0  0  0  0  0  2  0  0  0  0  0  0
  -30.1460  -26.5600   19.2550 C   0  0  0  0  0  2  0  0  0  0  0  0
  -29.8070  -27.8870   19.6550 O   0  0  0  0  0  0  0  0  0  0  0  0
  -24.8780  -31.2490   23.4810 C   0  0  0  0  0  0  0  0  0  0  0  0
  -28.4710  -28.2330   19.7250 C   0  0  0  0  0  0  0  0  0  0  0  0
  -24.0160  -29.8520   21.6320 C   0  0  0  0  0  3  0  0  0  0  0  0
  -25.7620  -29.0090   19.9790 C   0  0  0  0  0  0  0  0  0  0  0  0
  -26.3470  -30.8990   21.5040 C   0  0  0  0  0  2  0  0  0  0  0  0
  -26.7620  -29.7240   20.6450 C   0  0  0  0  0  0  0  0  0  0  0  0
  -28.1160  -29.3450   20.5160 C   0  0  0  0  0  3  0  0  0  0  0  0
  -27.4440  -27.5230   19.0530 C   0  0  0  0  0  3  0  0  0  0  0  0
  -26.0970  -27.9020   19.1820 C   0  0  0  0  0  3  0  0  0  0  0  0
  -24.3390  -29.4830   20.1620 C   0  0  0  0  0  2  0  0  0  0  0  0
  -25.0960  -30.6750   22.2650 N   0  0  0  0  0  0  0  0  0  0  0  0
  -23.7880  -31.1360   24.0580 O   0  0  0  0  0  0  0  0  0  0  0  0
  -23.6970  -28.5550   22.4110 C   0  0  0  0  0  0  0  0  0  0  0  0
  -22.5750  -27.9070   22.0570 N   0  0  0  0  0  0  0  0  0  0  0  0
  -24.4570  -28.1390   23.2880 O   0  0  0  0  0  0  0  0  0  0  0  0
  -21.9960  -28.3190   21.3390 H   0  0  0  0  0  0  0  0  0  0  0  0
  -20.0270  -25.3630   21.7540 C   0  0  0  0  0  0  0  0  0  0  0  0
  -22.0950  -26.6470   22.6270 C   0  0  0  0  0  3  0  0  0  0  0  0
  -22.9290  -25.4530   22.1090 C   0  0  0  0  0  2  0  0  0  0  0  0
  -22.3250  -24.7980   20.8610 C   0  0  0  0  0  2  0  0  0  0  0  0
  -20.9150  -24.2810   21.1580 C   0  0  0  0  0  2  0  0  0  0  0  0
  -20.5830  -26.4830   22.4270 C   0  0  0  0  0  0  0  0  0  0  0  0
  -19.7190  -27.4800   22.9300 C   0  0  0  0  0  3  0  0  0  0  0  0
  -18.3250  -27.3700   22.7700 C   0  0  0  0  0  3  0  0  0  0  0  0
  -17.7780  -26.2510   22.1180 C   0  0  0  0  0  3  0  0  0  0  0  0
  -18.6280  -25.2520   21.6110 C   0  0  0  0  0  3  0  0  0  0  0  0
  -25.9800  -32.0900   24.1970 C   0  0  0  0  0  3  0  0  0  0  0  0
  -26.4530  -31.4610   25.5660 C   0  0  1  0  0  0  0  0  0  0  0  0
  -25.2890  -31.0190   26.4810 C   0  0  0  0  0  1  0  0  0  0  0  0
  -27.3540  -30.2270   25.3200 C   0  0  0  0  0  1  0  0  0  0  0  0
  -27.3080  -32.4870   26.3470 C   0  0  0  0  0  1  0  0  0  0  0  0
  -25.4410  -33.4410   24.4010 N   0  0  0  0  0  0  0  0  0  0  0  0
  -25.7040  -34.4930   23.6150 C   0  0  0  0  0  0  0  0  0  0  0  0
  -26.4990  -34.4410   22.6710 O   0  0  0  0  0  0  0  0  0  0  0  0
  -24.7450  -33.5460   25.1250 H   0  0  0  0  0  0  0  0  0  0  0  0
  -23.7980  -35.9910   22.9500 C   0  0  0  0  0  1  0  0  0  0  0  0
  -24.9720  -35.8120   23.9230 C   0  0  0  0  0  3  0  0  0  0  0  0
  -26.8550  -37.0260   24.9280 C   0  0  0  0  0  1  0  0  0  0  0  0
  -25.8500  -37.0010   23.8680 N   0  0  0  0  0  0  0  0  0  0  0  0
  -25.3040  -37.8550   23.9350 H   0  0  0  0  0  0  0  0  0  0  0  0
  -27.2720  -19.8790   20.0440 C   0  0  0  0  0  2  0  0  0  0  0  0
  -27.8970  -19.8340   18.6270 C   0  0  0  0  0  2  0  0  0  0  0  0
  -31.2050  -19.3110   17.9260 C   0  0  0  0  0  2  0  0  0  0  0  0
  -30.1110  -20.2970   17.5050 C   0  0  0  0  0  2  0  0  0  0  0  0
  -30.0180  -18.4820   18.4290 C   0  0  0  0  0  3  0  0  0  0  0  0
  -29.3730  -19.7880   18.6670 N   0  0  2  0  0  4  0  0  0  0  0  0
  -29.7290  -20.2400   19.4970 H   0  0  0  0  0  0  0  0  0  0  0  0
  -30.0780  -17.5740   19.6570 C   0  0  0  0  0  2  0  0  0  0  0  0
  -32.1210  -16.0570   19.8840 C   0  0  0  0  0  0  0  0  0  0  0  0
  -32.3460  -13.6980   20.5920 C   0  0  0  0  0  2  0  0  0  0  0  0
  -31.7120  -12.7310   19.5730 C   0  0  0  0  0  2  0  0  0  0  0  0
  -30.1980  -12.5690   19.8230 C   0  0  0  0  0  2  0  0  0  0  0  0
  -29.4800  -13.9320   19.9960 C   0  0  0  0  0  3  0  0  0  0  0  0
  -30.2380  -14.7920   21.0330 C   0  0  0  0  0  2  0  0  0  0  0  0
  -31.6140  -14.9800   20.5440 N   0  0  0  0  0  0  0  0  0  0  0  0
  -33.2450  -16.0440   19.3710 O   0  0  0  0  0  0  0  0  0  0  0  0
  -31.4710  -17.2350   19.9780 N   0  0  0  0  0  0  0  0  0  0  0  0
  -32.0910  -18.0040   19.7730 H   0  0  0  0  0  0  0  0  0  0  0  0
  -27.0890  -14.7180   20.5440 C   0  0  0  0  0  0  0  0  0  0  0  0
  -25.9410  -14.0220   20.8250 C   0  0  0  0  0  0  0  0  0  0  0  0
  -26.3000  -12.6420   20.7900 C   0  0  0  0  0  0  0  0  0  0  0  0
  -28.0760  -13.7610   20.3660 N   0  0  0  0  0  0  0  0  0  0  0  0
  -27.6000  -12.5080   20.5660 N   0  0  0  0  0  0  0  0  0  0  0  0
  -25.4700  -11.4340   20.8950 C   0  0  0  0  0  0  0  0  0  0  0  0
  -25.6960  -10.4700   21.9020 C   0  0  0  0  0  3  0  0  0  0  0  0
  -24.8750   -9.3270   21.9950 C   0  0  0  0  0  3  0  0  0  0  0  0
  -23.8130   -9.1380   21.0790 C   0  0  0  0  0  0  0  0  0  0  0  0
  -23.6050  -10.0900   20.0660 C   0  0  0  0  0  3  0  0  0  0  0  0
  -24.4260  -11.2260   19.9710 C   0  0  0  0  0  3  0  0  0  0  0  0
  -22.9820   -8.0450   21.0780 O   0  0  0  0  0  0  0  0  0  0  0  0
  -22.5170   -7.4920   22.2440 C   0  0  0  0  0  0  0  0  0  0  0  0
  -21.7750   -8.2430   23.1820 C   0  0  0  0  0  3  0  0  0  0  0  0
  -21.2590   -7.6170   24.3320 C   0  0  0  0  0  3  0  0  0  0  0  0
  -21.4750   -6.2440   24.5450 C   0  0  0  0  0  0  0  0  0  0  0  0
  -22.2120   -5.4930   23.6110 C   0  0  0  0  0  3  0  0  0  0  0  0
  -22.7280   -6.1170   22.4610 C   0  0  0  0  0  0  0  0  0  0  0  0
  -23.4180   -5.3840   21.5530 F   0  0  0  0  0  0  0  0  0  0  0  0
  -20.9750   -5.6370   25.6480 F   0  0  0  0  0  0  0  0  0  0  0  0
  -24.5690  -14.5990   21.0120 C   0  0  0  0  0  0  0  0  0  0  0  0
  -23.7420  -13.9640   21.8360 N   0  0  0  0  0  0  0  0  0  0  0  0
  -24.2370  -15.6470   20.4590 O   0  0  0  0  0  0  0  0  0  0  0  0
  -24.0190  -13.1170   22.3080 H   0  0  0  0  0  0  0  0  0  0  0  0
  -22.8220  -14.3440   22.0020 H   0  0  0  0  0  0  0  0  0  0  0  0
  -27.3670  -16.0710   20.4010 N   0  0  0  0  0  0  0  0  0  0  0  0
  -26.5840  -16.7050   20.3040 H   0  0  0  0  0  0  0  0  0  0  0  0
  -28.1790  -16.3720   19.8760 H   0  0  0  0  0  0  0  0  0  0  0  0
  2  1  1  0
  3  4  1  0
  3  2  1  0
  5  6  1  0
  6  7  1  0
  6  4  1  0
  8  9  1  0
  8  7  1  0
  9 11  1  0
 10 21  2  0
 11 16  1  0
 12 20  1  0
 12 22  1  0
 13 19  1  0
 13 15  1  0
 14 20  1  0
 15 14  1  0
 16 15  2  0
 17 18  1  0
 17 11  2  0
 18 13  2  0
 19 12  1  0
 20 10  1  0
 22 24  2  0
 23 22  1  0
 25 23  1  0
 26 31  1  0
 27 23  1  0
 28 27  1  0
 29 30  1  0
 29 28  1  0
 30 26  1  0
 31 27  1  0
 31 32  2  0
 33 32  1  0
 34 33  2  0
 35 26  2  0
 35 34  1  0
 36 10  1  0
 36 41  1  0
 36 37  1  0
 37 40  1  1
 37 38  1  0
 39 37  1  0
 41 44  1  0
 42 46  1  0
 42 41  1  0
 43 42  2  0
 46 45  1  0
 48 46  1  0
 48 49  1  0
 48 47  1  0
 50  2  1  0
 51 55  1  0
 51 50  1  0
 52 54  1  0
 53 52  1  0
 53 55  1  0
 54 55  1  0
 54 57  1  0
 55 56  1  1
 57 66  1  0
 58 66  1  0
 58 64  1  0
 60 61  1  0
 60 59  1  0
 62 61  1  0
 62 71  1  0
 62 63  1  0
 64 59  1  0
 64 63  1  0
 65 58  2  0
 67 66  1  0
 68 69  2  0
 69 88  1  0
 70 69  1  0
 70 73  1  0
 71 68  1  0
 71 72  1  0
 72 70  2  0
 73 74  1  0
 74 75  2  0
 76 75  1  0
 77 76  2  0
 78 77  1  0
 78 73  2  0
 79 76  1  0
 79 80  1  0
 80 85  2  0
 80 81  1  0
 81 82  2  0
 82 83  1  0
 83 87  1  0
 84 83  2  0
 85 84  1  0
 86 85  1  0
 88 89  1  0
 89 92  1  0
 89 91  1  0
 90 88  2  0
 93 68  1  0
 94 93  1  0
 95 93  1  0
M  ISO  4   8 101   9 101  58 100  66 100
M  END
>  <TORSDO>  (1) 
F 25

>  <SCORE>  (1) 
-3.351

>  <name>  (1) 
0

>  <ligand_id>  (1) 
0

>  <original_smiles>  (1) 
[H]c1c([H])c([H])c2c(c1[H])C([H])([H])C([H])([H])C([H])([H])C2([H])N([H])C(=O)C1([H])N(C(=O)C([H])(N([H])C(=O)C([H])(N([H])C([H])([H])[H])C([H])([H])[H])C(C([H])([H])[H])(C([H])([H])[H])C([H])([H])[H])C([H])([H])c2c([H])c(OC([H])([H])C([H])([H])N(C([H])([H])[H])C([H])([H])C([H])([H])N(C([H])([H])[H])C([H])([H])C([H])([H])[N+]3([H])C([H])([H])C([H])([H])C3([H])C([H])([H])N([H])C(=O)N3C([H])([H])C([H])([H])C([H])([H])C([H])(n4nc(-c5c([H])c([H])c(Oc6c([H])c([H])c(F)c([H])c6F)c([H])c5[H])c(C(=O)N([H])[H])c4N([H])[H])C3([H])[H])c([H])c([H])c2C1([H])[H]

>  <smiles>  (1) 
[H]c1c([H])c([H])c2c(c1[H])C([H])([H])C([H])([H])C([H])([H])C2([H])N([H])C(=O)C1([H])N(C(=O)C([H])(N([H])C(=O)C([H])(N([H])C([H])([H])[H])C([H])([H])[H])C(C([H])([H])[H])(C([H])([H])[H])C([H])([H])[H])C([H])([H])c2c([H])c(OC([H])([H])C([H])([H])N(C([H])([H])[H])C([H])([H])C([H])([H])N(C([H])([H])[H])C([H])([H])C([H])([H])[N+]3([H])C([H])([H])C([H])([H])C3([H])C([H])([H])N([H])C(=O)N3C([H])([H])C([H])([H])C([H])([H])C([H])(n4nc(-c5c([H])c([H])c(Oc6c([H])c([H])c(F)c([H])c6F)c([H])c5[H])c(C(=O)N([H])[H])c4N([H])[H])C3([H])[H])c([H])c([H])c2C1([H])[H]

$$$$
1:0:0
     RDKit          3D

 94102  0  0  1  0  0  0  0  0999 V2000
  -29.8400  -19.5130   19.7880 C   0  0  0  0  0  3  0  0  0  0  0  0
  -27.3760  -18.5720   18.8470 C   0  0  0  0  0  3  0  0  0  0  0  0
  -29.6160  -18.1000   19.7270 C   0  0  0  0  0  0  0  0  0  0  0  0
  -28.8510  -20.4570   19.3710 C   0  0  0  0  0  0  0  0  0  0  0  0
  -28.3570  -17.6520   19.2600 C   0  0  0  0  0  0  0  0  0  0  0  0
  -27.6220  -19.9580   18.8860 C   0  0  0  0  0  0  0  0  0  0  0  0
  -28.0740  -16.3280   19.1990 F   0  0  0  0  0  0  0  0  0  0  0  0
  -26.6660  -20.8210   18.4630 F   0  0  0  0  0  0  0  0  0  0  0  0
  -30.7120  -17.1020   20.1930 C   0  0  0  0  0  2  0  0  0  0  0  0
  -31.0330  -14.5890   19.9920 C   0  0  0  0  0  0  0  0  0  0  0  0
  -30.6850  -12.3440   19.0180 C   0  0  0  0  0  2  0  0  0  0  0  0
  -29.7210  -12.4770   17.8200 C   0  0  0  0  0  2  0  0  0  0  0  0
  -28.2570  -12.3900   18.2940 C   0  0  0  0  0  2  0  0  0  0  0  0
  -27.9610  -13.3240   19.4990 C   0  0  0  0  0  3  0  0  0  0  0  0
  -29.0370  -13.1680   20.5970 C   0  0  0  0  0  2  0  0  0  0  0  0
  -30.3500  -13.4090   19.9790 N   0  0  0  0  0  0  0  0  0  0  0  0
  -32.1610  -14.7060   19.5080 O   0  0  0  0  0  0  0  0  0  0  0  0
  -30.3310  -15.6780   20.3870 N   0  0  0  0  0  0  0  0  0  0  0  0
  -29.4190  -15.5170   20.7890 H   0  0  0  0  0  0  0  0  0  0  0  0
  -25.6280  -14.0450   20.3080 C   0  0  0  0  0  0  0  0  0  0  0  0
  -24.5340  -13.3240   20.7040 C   0  0  0  0  0  0  0  0  0  0  0  0
  -24.9200  -11.9510   20.6340 C   0  0  0  0  0  0  0  0  0  0  0  0
  -26.6150  -13.1140   20.0240 N   0  0  0  0  0  0  0  0  0  0  0  0
  -26.1940  -11.8490   20.2770 N   0  0  0  0  0  0  0  0  0  0  0  0
  -24.1340  -10.7260   20.8300 C   0  0  0  0  0  0  0  0  0  0  0  0
  -24.5290   -9.7350   21.7550 C   0  0  0  0  0  3  0  0  0  0  0  0
  -23.7450   -8.5750   21.9380 C   0  0  0  0  0  3  0  0  0  0  0  0
  -22.5540   -8.3980   21.1950 C   0  0  0  0  0  0  0  0  0  0  0  0
  -22.1770   -9.3780   20.2580 C   0  0  0  0  0  3  0  0  0  0  0  0
  -22.9610  -10.5290   20.0740 C   0  0  0  0  0  3  0  0  0  0  0  0
  -21.7430   -7.2920   21.2860 O   0  0  0  0  0  0  0  0  0  0  0  0
  -21.6510   -6.5630   22.4440 C   0  0  0  0  0  0  0  0  0  0  0  0
  -21.2300   -7.1470   23.6610 C   0  0  0  0  0  3  0  0  0  0  0  0
  -21.0840   -6.3460   24.8110 C   0  0  0  0  0  3  0  0  0  0  0  0
  -21.3470   -4.9640   24.7460 C   0  0  0  0  0  0  0  0  0  0  0  0
  -21.7610   -4.3810   23.5350 C   0  0  0  0  0  3  0  0  0  0  0  0
  -21.9100   -5.1790   22.3880 C   0  0  0  0  0  0  0  0  0  0  0  0
  -22.2880   -4.6090   21.2170 F   0  0  0  0  0  0  0  0  0  0  0  0
  -21.1970   -4.1940   25.8470 F   0  0  0  0  0  0  0  0  0  0  0  0
  -23.1770  -13.8710   21.0400 C   0  0  0  0  0  0  0  0  0  0  0  0
  -22.4650  -13.2210   21.9550 N   0  0  0  0  0  0  0  0  0  0  0  0
  -22.7600  -14.9110   20.5300 O   0  0  0  0  0  0  0  0  0  0  0  0
  -22.8200  -12.3810   22.3880 H   0  0  0  0  0  0  0  0  0  0  0  0
  -21.5570  -13.5670   22.2260 H   0  0  0  0  0  0  0  0  0  0  0  0
  -25.8570  -15.4070   20.1450 N   0  0  0  0  0  0  0  0  0  0  0  0
  -25.1480  -16.1020   20.3520 H   0  0  0  0  0  0  0  0  0  0  0  0
  -26.7460  -15.8100   19.8810 H   0  0  0  0  0  0  0  0  0  0  0  0
  -29.0940  -21.9940   19.3560 C   0  0  0  0  0  2  0  0  0  0  0  0
  -28.2180  -21.9920   21.7220 C   0  0  0  0  0  1  0  0  0  0  0  0
  -28.7630  -22.7940   20.5940 N   0  0  2  0  0  4  0  0  0  0  0  0
  -29.6620  -23.0920   20.9410 H   0  0  0  0  0  0  0  0  0  0  0  0
  -27.9670  -24.0660   20.3820 C   0  0  0  0  0  2  0  0  0  0  0  0
  -28.7110  -25.2370   19.6590 C   0  0  0  0  0  2  0  0  0  0  0  0
  -28.5500  -26.5540   20.2600 O   0  0  0  0  0  0  0  0  0  0  0  0
  -24.5400  -31.6920   23.1720 C   0  0  0  0  0  0  0  0  0  0  0  0
  -27.3630  -27.2700   20.1760 C   0  0  0  0  0  0  0  0  0  0  0  0
  -23.4270  -30.2970   21.4610 C   0  0  0  0  0  3  0  0  0  0  0  0
  -24.9590  -28.7870   20.0850 C   0  0  0  0  0  0  0  0  0  0  0  0
  -25.9580  -30.6750   21.3830 C   0  0  0  0  0  2  0  0  0  0  0  0
  -26.0860  -29.3090   20.7310 C   0  0  0  0  0  0  0  0  0  0  0  0
  -27.2890  -28.5600   20.7670 C   0  0  0  0  0  3  0  0  0  0  0  0
  -26.2130  -26.7720   19.5240 C   0  0  0  0  0  3  0  0  0  0  0  0
  -25.0210  -27.5220   19.4770 C   0  0  0  0  0  3  0  0  0  0  0  0
  -23.7080  -29.6390   20.0830 C   0  0  0  0  0  2  0  0  0  0  0  0
  -24.6570  -30.9040   22.0640 N   0  0  0  0  0  0  0  0  0  0  0  0
  -23.4320  -31.9460   23.6640 O   0  0  0  0  0  0  0  0  0  0  0  0
  -22.7430  -29.2580   22.3790 C   0  0  0  0  0  0  0  0  0  0  0  0
  -21.4150  -29.1180   22.2410 N   0  0  0  0  0  0  0  0  0  0  0  0
  -23.4060  -28.5830   23.1700 O   0  0  0  0  0  0  0  0  0  0  0  0
  -20.9410  -29.7170   21.5800 H   0  0  0  0  0  0  0  0  0  0  0  0
  -18.0000  -28.0420   22.7340 C   0  0  0  0  0  0  0  0  0  0  0  0
  -20.5700  -28.1730   22.9720 C   0  0  0  0  0  3  0  0  0  0  0  0
  -20.5990  -26.7730   22.3120 C   0  0  0  0  0  2  0  0  0  0  0  0
  -19.4670  -26.5600   21.3030 C   0  0  0  0  0  2  0  0  0  0  0  0
  -18.1060  -26.7270   21.9820 C   0  0  0  0  0  2  0  0  0  0  0  0
  -19.1590  -28.7280   23.1860 C   0  0  0  0  0  0  0  0  0  0  0  0
  -19.0060  -29.9630   23.8530 C   0  0  0  0  0  3  0  0  0  0  0  0
  -17.7280  -30.5100   24.0730 C   0  0  0  0  0  3  0  0  0  0  0  0
  -16.5840  -29.8200   23.6380 C   0  0  0  0  0  3  0  0  0  0  0  0
  -16.7210  -28.5880   22.9730 C   0  0  0  0  0  3  0  0  0  0  0  0
  -25.7870  -32.3310   23.8580 C   0  0  0  0  0  3  0  0  0  0  0  0
  -25.4520  -33.7250   24.1760 N   0  0  0  0  0  0  0  0  0  0  0  0
  -25.7980  -34.7820   23.4280 C   0  0  0  0  0  0  0  0  0  0  0  0
  -26.5030  -34.6850   22.4200 O   0  0  0  0  0  0  0  0  0  0  0  0
  -24.8300  -33.8730   24.9580 H   0  0  0  0  0  0  0  0  0  0  0  0
  -24.0480  -36.5450   23.0280 C   0  0  0  0  0  1  0  0  0  0  0  0
  -25.2790  -36.1640   23.8680 C   0  0  0  0  0  3  0  0  0  0  0  0
  -27.3760  -37.0960   24.7430 C   0  0  0  0  0  1  0  0  0  0  0  0
  -26.2970  -37.2330   23.7680 N   0  0  0  0  0  0  0  0  0  0  0  0
  -25.8720  -38.1480   23.8920 H   0  0  0  0  0  0  0  0  0  0  0  0
  -26.2490  -31.5590   25.1550 C   0  0  1  0  0  0  0  0  0  0  0  0
  -25.1100  -31.3130   26.1700 C   0  0  0  0  0  1  0  0  0  0  0  0
  -26.8560  -30.1860   24.7850 C   0  0  0  0  0  1  0  0  0  0  0  0
  -27.3660  -32.3550   25.8710 C   0  0  0  0  0  1  0  0  0  0  0  0
  2  6  2  0
  2  5  1  0
  3  1  1  0
  3  9  1  0
  4  1  2  0
  5  3  2  0
  6  4  1  0
  7  5  1  0
  8  6  1  0
  9 18  1  0
 10 18  1  0
 11 16  1  0
 12 13  1  0
 12 11  1  0
 14 13  1  0
 14 23  1  0
 14 15  1  0
 16 10  1  0
 16 15  1  0
 17 10  2  0
 18 19  1  0
 20 21  2  0
 21 40  1  0
 22 21  1  0
 22 25  1  0
 23 24  1  0
 23 20  1  0
 24 22  2  0
 25 26  1  0
 26 27  2  0
 28 31  1  0
 28 27  1  0
 29 28  2  0
 30 29  1  0
 30 25  2  0
 31 32  1  0
 32 33  1  0
 33 34  2  0
 35 34  1  0
 35 39  1  0
 36 35  2  0
 37 32  2  0
 37 36  1  0
 38 37  1  0
 40 41  1  0
 41 44  1  0
 41 43  1  0
 42 40  2  0
 45 20  1  0
 45 46  1  0
 47 45  1  0
 48  4  1  0
 48 50  1  0
 50 51  1  1
 50 49  1  0
 52 50  1  0
 53 54  1  0
 53 52  1  0
 55 66  2  0
 56 54  1  0
 56 61  1  0
 57 65  1  0
 57 67  1  0
 58 60  1  0
 59 65  1  0
 60 61  2  0
 60 59  1  0
 62 56  2  0
 63 62  1  0
 63 58  2  0
 64 58  1  0
 64 57  1  0
 65 55  1  0
 67 69  2  0
 68 67  1  0
 70 68  1  0
 71 80  2  0
 71 76  1  0
 72 68  1  0
 72 76  1  0
 73 72  1  0
 74 75  1  0
 74 73  1  0
 75 71  1  0
 76 77  2  0
 77 78  1  0
 79 78  2  0
 80 79  1  0
 81 55  1  0
 81 82  1  0
 81 91  1  0
 82 85  1  0
 83 87  1  0
 83 82  1  0
 84 83  2  0
 87 86  1  0
 89 87  1  0
 89 90  1  0
 89 88  1  0
 91 94  1  1
 91 92  1  0
 93 91  1  0
M  ISO  4  10 100  18 100  53 101  54 101
M  END
>  <TORSDO>  (2) 
F 21

>  <SCORE>  (2) 
-13.593

>  <name>  (2) 
1

>  <ligand_id>  (2) 
1

>  <original_smiles>  (2) 
[H]c1c([H])c([H])c2c(c1[H])C([H])([H])C([H])([H])C([H])([H])C2([H])N([H])C(=O)C1([H])N(C(=O)C([H])(N([H])C(=O)C([H])(N([H])C([H])([H])[H])C([H])([H])[H])C(C([H])([H])[H])(C([H])([H])[H])C([H])([H])[H])C([H])([H])c2c([H])c(OC([H])([H])C([H])([H])[N+]([H])(C([H])([H])[H])C([H])([H])c3c([H])c(C([H])([H])N([H])C(=O)N4C([H])([H])C([H])([H])C([H])([H])C([H])(n5nc(-c6c([H])c([H])c(Oc7c([H])c([H])c(F)c([H])c7F)c([H])c6[H])c(C(=O)N([H])[H])c5N([H])[H])C4([H])[H])c(F)c([H])c3F)c([H])c([H])c2C1([H])[H]

>  <smiles>  (2) 
[H]c1c([H])c([H])c2c(c1[H])C([H])([H])C([H])([H])C([H])([H])C2([H])N([H])C(=O)C1([H])N(C(=O)C([H])(N([H])C(=O)C([H])(N([H])C([H])([H])[H])C([H])([H])[H])C(C([H])([H])[H])(C([H])([H])[H])C([H])([H])[H])C([H])([H])c2c([H])c(OC([H])([H])C([H])([H])[N+]([H])(C([H])([H])[H])C([H])([H])c3c([H])c(C([H])([H])N([H])C(=O)N4C([H])([H])C([H])([H])C([H])([H])C([H])(n5nc(-c6c([H])c([H])c(Oc7c([H])c([H])c(F)c([H])c7F)c([H])c6[H])c(C(=O)N([H])[H])c5N([H])[H])C4([H])[H])c(F)c([H])c3F)c([H])c([H])c2C1([H])[H]

$$$$
2:0:0
     RDKit          3D

 94102  0  0  1  0  0  0  0  0999 V2000
  -30.6840  -18.4760   19.9810 C   0  0  0  0  0  3  0  0  0  0  0  0
  -30.3790  -19.8840   19.7030 C   0  0  0  0  0  3  0  0  0  0  0  0
  -28.4310  -17.9380   19.5720 C   0  0  0  0  0  3  0  0  0  0  0  0
  -28.1140  -19.3140   19.2730 C   0  0  0  0  0  0  0  0  0  0  0  0
  -29.7100  -17.4180   19.9250 C   0  0  0  0  0  0  0  0  0  0  0  0
  -29.0810  -20.3930   19.3250 C   0  0  0  0  0  0  0  0  0  0  0  0
  -30.6660  -14.8150   19.9790 C   0  0  0  0  0  0  0  0  0  0  0  0
  -30.5510  -12.4010   19.2370 C   0  0  0  0  0  2  0  0  0  0  0  0
  -29.5930  -12.2860   18.0260 C   0  0  0  0  0  2  0  0  0  0  0  0
  -28.1300  -12.1360   18.4870 C   0  0  0  0  0  2  0  0  0  0  0  0
  -27.7540  -13.1550   19.5930 C   0  0  0  0  0  3  0  0  0  0  0  0
  -28.8230  -13.2070   20.7070 C   0  0  0  0  0  2  0  0  0  0  0  0
  -30.1030  -13.5470   20.0690 N   0  0  0  0  0  0  0  0  0  0  0  0
  -31.8410  -14.9170   19.6110 O   0  0  0  0  0  0  0  0  0  0  0  0
  -29.8060  -15.9150   20.1660 N   0  0  0  0  0  0  0  0  0  0  0  0
  -28.9320  -15.5510   20.5150 H   0  0  0  0  0  0  0  0  0  0  0  0
  -25.4210  -13.8490   20.3970 C   0  0  0  0  0  0  0  0  0  0  0  0
  -24.3290  -13.1240   20.7890 C   0  0  0  0  0  0  0  0  0  0  0  0
  -24.7230  -11.7520   20.7280 C   0  0  0  0  0  0  0  0  0  0  0  0
  -26.4130  -12.9220   20.1190 N   0  0  0  0  0  0  0  0  0  0  0  0
  -26.0020  -11.6550   20.3820 N   0  0  0  0  0  0  0  0  0  0  0  0
  -23.9390  -10.5250   20.9210 C   0  0  0  0  0  0  0  0  0  0  0  0
  -24.3680   -9.5060   21.8000 C   0  0  0  0  0  3  0  0  0  0  0  0
  -23.5880   -8.3440   21.9850 C   0  0  0  0  0  3  0  0  0  0  0  0
  -22.3630   -8.1950   21.2920 C   0  0  0  0  0  0  0  0  0  0  0  0
  -21.9520   -9.2020   20.4020 C   0  0  0  0  0  3  0  0  0  0  0  0
  -22.7320  -10.3540   20.2140 C   0  0  0  0  0  3  0  0  0  0  0  0
  -21.5520   -7.0900   21.3890 O   0  0  0  0  0  0  0  0  0  0  0  0
  -21.5400   -6.3010   22.5120 C   0  0  0  0  0  0  0  0  0  0  0  0
  -21.2520   -6.8280   23.7890 C   0  0  0  0  0  3  0  0  0  0  0  0
  -21.1830   -5.9700   24.9060 C   0  0  0  0  0  3  0  0  0  0  0  0
  -21.3950   -4.5880   24.7460 C   0  0  0  0  0  0  0  0  0  0  0  0
  -21.6770   -4.0610   23.4730 C   0  0  0  0  0  3  0  0  0  0  0  0
  -21.7480   -4.9160   22.3600 C   0  0  0  0  0  0  0  0  0  0  0  0
  -22.0000   -4.4010   21.1320 F   0  0  0  0  0  0  0  0  0  0  0  0
  -21.3210   -3.7620   25.8160 F   0  0  0  0  0  0  0  0  0  0  0  0
  -22.9660  -13.6670   21.1040 C   0  0  0  0  0  0  0  0  0  0  0  0
  -22.2370  -13.0070   21.9980 N   0  0  0  0  0  0  0  0  0  0  0  0
  -22.5590  -14.7090   20.5920 O   0  0  0  0  0  0  0  0  0  0  0  0
  -22.5820  -12.1650   22.4320 H   0  0  0  0  0  0  0  0  0  0  0  0
  -21.3220  -13.3510   22.2540 H   0  0  0  0  0  0  0  0  0  0  0  0
  -25.6490  -15.2120   20.2270 N   0  0  0  0  0  0  0  0  0  0  0  0
  -24.9070  -15.8950   20.3450 H   0  0  0  0  0  0  0  0  0  0  0  0
  -26.4730  -15.5980   19.7870 H   0  0  0  0  0  0  0  0  0  0  0  0
  -26.6690  -19.5590   18.9210 C   0  0  0  0  0  0  0  0  0  0  0  0
  -26.4340  -20.2660   17.8220 N   0  0  0  0  0  0  0  0  0  0  0  0
  -25.7510  -19.0720   19.5830 O   0  0  0  0  0  0  0  0  0  0  0  0
  -27.2090  -20.5780   17.2540 H   0  0  0  0  0  0  0  0  0  0  0  0
  -25.4860  -20.4280   17.5140 H   0  0  0  0  0  0  0  0  0  0  0  0
  -28.6740  -21.7900   18.9950 N   0  0  0  0  0  0  0  0  0  0  0  0
  -27.6790  -21.8350   18.7890 H   0  0  0  0  0  0  0  0  0  0  0  0
  -29.2520  -23.2280   18.9910 C   0  0  0  0  0  3  0  0  0  0  0  0
  -28.2020  -24.5270   18.8020 C   0  0  0  0  0  3  0  0  0  0  0  0
  -28.4540  -26.0470   18.9750 O   0  0  0  0  0  0  0  0  0  0  0  0
  -24.7250  -31.1720   22.7260 C   0  0  0  0  0  0  0  0  0  0  0  0
  -27.3560  -26.9770   19.0690 C   0  0  0  0  0  0  0  0  0  0  0  0
  -23.5190  -29.9500   20.9600 C   0  0  0  0  0  3  0  0  0  0  0  0
  -24.9690  -28.6180   19.3150 C   0  0  0  0  0  0  0  0  0  0  0  0
  -26.0550  -30.3260   20.7590 C   0  0  0  0  0  2  0  0  0  0  0  0
  -26.1530  -29.0300   19.9400 C   0  0  0  0  0  0  0  0  0  0  0  0
  -27.3460  -28.2290   19.8020 C   0  0  0  0  0  3  0  0  0  0  0  0
  -26.1380  -26.6640   18.4210 C   0  0  0  0  0  3  0  0  0  0  0  0
  -24.9730  -27.4490   18.5430 C   0  0  0  0  0  3  0  0  0  0  0  0
  -23.7170  -29.4580   19.5020 C   0  0  0  0  0  2  0  0  0  0  0  0
  -24.7870  -30.4970   21.5380 N   0  0  0  0  0  0  0  0  0  0  0  0
  -23.6480  -31.3550   23.3140 O   0  0  0  0  0  0  0  0  0  0  0  0
  -22.9010  -28.8080   21.8060 C   0  0  0  0  0  0  0  0  0  0  0  0
  -21.5710  -28.6330   21.7190 N   0  0  0  0  0  0  0  0  0  0  0  0
  -23.6200  -28.0880   22.5050 O   0  0  0  0  0  0  0  0  0  0  0  0
  -21.0470  -29.2740   21.1410 H   0  0  0  0  0  0  0  0  0  0  0  0
  -18.2280  -27.3320   22.2260 C   0  0  0  0  0  0  0  0  0  0  0  0
  -20.7960  -27.5850   22.3910 C   0  0  0  0  0  3  0  0  0  0  0  0
  -20.8720  -26.2480   21.6160 C   0  0  0  0  0  2  0  0  0  0  0  0
  -19.7170  -26.0580   20.6280 C   0  0  0  0  0  2  0  0  0  0  0  0
  -18.3720  -26.0920   21.3580 C   0  0  0  0  0  2  0  0  0  0  0  0
  -19.3640  -28.0420   22.6970 C   0  0  0  0  0  0  0  0  0  0  0  0
  -19.1710  -29.2050   23.4720 C   0  0  0  0  0  3  0  0  0  0  0  0
  -17.8750  -29.6590   23.7810 C   0  0  0  0  0  3  0  0  0  0  0  0
  -16.7530  -28.9440   23.3230 C   0  0  0  0  0  3  0  0  0  0  0  0
  -16.9310  -27.7830   22.5510 C   0  0  0  0  0  3  0  0  0  0  0  0
  -26.0030  -31.7680   23.3940 C   0  0  0  0  0  3  0  0  0  0  0  0
  -26.5940  -30.8460   24.5320 C   0  0  1  0  0  0  0  0  0  0  0  0
  -25.5550  -30.4220   25.5960 C   0  0  0  0  0  1  0  0  0  0  0  0
  -27.2050  -29.5580   23.9350 C   0  0  0  0  0  1  0  0  0  0  0  0
  -27.7440  -31.5860   25.2560 C   0  0  0  0  0  1  0  0  0  0  0  0
  -25.6500  -33.0900   23.9350 N   0  0  0  0  0  0  0  0  0  0  0  0
  -25.9220  -34.2580   23.3380 C   0  0  0  0  0  0  0  0  0  0  0  0
  -26.5660  -34.3370   22.2890 O   0  0  0  0  0  0  0  0  0  0  0  0
  -25.0730  -33.0990   24.7640 H   0  0  0  0  0  0  0  0  0  0  0  0
  -24.1210  -36.0180   23.3080 C   0  0  0  0  0  1  0  0  0  0  0  0
  -25.4010  -35.5430   24.0140 C   0  0  0  0  0  3  0  0  0  0  0  0
  -27.5300  -36.3800   24.9090 C   0  0  0  0  0  1  0  0  0  0  0  0
  -26.3900  -36.6420   24.0350 N   0  0  0  0  0  0  0  0  0  0  0  0
  -25.9560  -37.5120   24.3300 H   0  0  0  0  0  0  0  0  0  0  0  0
  2  1  2  0
  3  5  2  0
  4  6  2  0
  4  3  1  0
  5  1  1  0
  5 15  1  0
  6  2  1  0
  7 13  1  0
  7 15  1  0
  8 13  1  0
  9 10  1  0
  9  8  1  0
 11 10  1  0
 11 20  1  0
 11 12  1  0
 13 12  1  0
 14  7  2  0
 15 16  1  0
 17 18  2  0
 18 37  1  0
 19 18  1  0
 19 22  1  0
 20 21  1  0
 20 17  1  0
 21 19  2  0
 22 23  1  0
 23 24  2  0
 25 28  1  0
 25 24  1  0
 26 25  2  0
 27 26  1  0
 27 22  2  0
 28 29  1  0
 29 30  1  0
 30 31  2  0
 32 31  1  0
 32 36  1  0
 33 32  2  0
 34 29  2  0
 34 33  1  0
 35 34  1  0
 37 38  1  0
 38 41  1  0
 38 40  1  0
 39 37  2  0
 42 43  1  0
 42 17  1  0
 44 42  1  0
 45  4  1  0
 45 47  2  0
 46 45  1  0
 48 46  1  0
 49 46  1  0
 50  6  1  0
 51 50  1  0
 52 50  1  0
 53 54  1  0
 53 52  2  0
 54 56  1  0
 55 66  2  0
 56 61  1  0
 57 65  1  0
 57 67  1  0
 58 64  1  0
 58 60  1  0
 59 65  1  0
 60 59  1  0
 61 60  2  0
 62 63  1  0
 62 56  2  0
 63 58  2  0
 64 57  1  0
 65 55  1  0
 67 69  2  0
 68 67  1  0
 70 68  1  0
 71 80  2  0
 71 76  1  0
 72 68  1  0
 72 76  1  0
 73 72  1  0
 74 75  1  0
 74 73  1  0
 75 71  1  0
 76 77  2  0
 77 78  1  0
 79 78  2  0
 80 79  1  0
 81 55  1  0
 81 86  1  0
 81 82  1  0
 82 85  1  1
 82 83  1  0
 84 82  1  0
 86 89  1  0
 87 86  1  0
 87 91  1  0
 88 87  2  0
 91 90  1  0
 91 93  1  0
 93 94  1  0
 93 92  1  0
M  ISO  4   7 100  15 100  53 101  54 101
M  END
>  <TORSDO>  (3) 
F 20

>  <SCORE>  (3) 
-11.290

>  <name>  (3) 
2

>  <ligand_id>  (3) 
2

>  <original_smiles>  (3) 
[H]c1c([H])c([H])c2c(c1[H])C([H])([H])C([H])([H])C([H])([H])C2([H])N([H])C(=O)C1([H])N(C(=O)C([H])(N([H])C(=O)C([H])(N([H])C([H])([H])[H])C([H])([H])[H])C(C([H])([H])[H])(C([H])([H])[H])C([H])([H])[H])C([H])([H])c2c([H])c(OC([H])([H])C([H])([H])N([H])c3c([H])c([H])c(N([H])C(=O)N4C([H])([H])C([H])([H])C([H])([H])C([H])(n5nc(-c6c([H])c([H])c(Oc7c([H])c([H])c(F)c([H])c7F)c([H])c6[H])c(C(=O)N([H])[H])c5N([H])[H])C4([H])[H])c([H])c3C(=O)N([H])[H])c([H])c([H])c2C1([H])[H]

>  <smiles>  (3) 
[H]c1c([H])c([H])c2c(c1[H])C([H])([H])C([H])([H])C([H])([H])C2([H])N([H])C(=O)C1([H])N(C(=O)C([H])(N([H])C(=O)C([H])(N([H])C([H])([H])[H])C([H])([H])[H])C(C([H])([H])[H])(C([H])([H])[H])C([H])([H])[H])C([H])([H])c2c([H])c(OC([H])([H])C([H])([H])N([H])c3c([H])c([H])c(N([H])C(=O)N4C([H])([H])C([H])([H])C([H])([H])C([H])(n5nc(-c6c([H])c([H])c(Oc7c([H])c([H])c(F)c([H])c7F)c([H])c6[H])c(C(=O)N([H])[H])c5N([H])[H])C4([H])[H])c([H])c3C(=O)N([H])[H])c([H])c([H])c2C1([H])[H]

$$$$
3:0:0
     RDKit          3D

 94102  0  0  1  0  0  0  0  0999 V2000
  -30.3360  -21.7570   20.4820 C   0  0  0  0  0  2  0  0  0  0  0  0
  -31.2290  -17.9770   19.8430 C   0  0  0  0  0  3  0  0  0  0  0  0
  -29.0730  -18.0610   20.9030 C   0  0  0  0  0  3  0  0  0  0  0  0
  -30.1910  -20.1990   20.3180 C   0  0  0  0  0  0  0  0  0  0  0  0
  -30.1450  -17.2620   20.4190 C   0  0  0  0  0  0  0  0  0  0  0  0
  -31.2500  -19.4050   19.7930 C   0  0  0  0  0  0  0  0  0  0  0  0
  -29.0960  -19.4870   20.8650 C   0  0  0  0  0  0  0  0  0  0  0  0
  -32.3370  -20.0160   19.2650 F   0  0  0  0  0  0  0  0  0  0  0  0
  -28.0580  -20.1800   21.3950 F   0  0  0  0  0  0  0  0  0  0  0  0
  -30.7760  -14.7720   19.9970 C   0  0  0  0  0  0  0  0  0  0  0  0
  -30.4680  -12.5670   18.8910 C   0  0  0  0  0  2  0  0  0  0  0  0
  -29.4630  -12.7460   17.7310 C   0  0  0  0  0  2  0  0  0  0  0  0
  -28.0110  -12.6090   18.2330 C   0  0  0  0  0  2  0  0  0  0  0  0
  -27.7380  -13.4490   19.5090 C   0  0  0  0  0  3  0  0  0  0  0  0
  -28.8490  -13.2340   20.5630 C   0  0  0  0  0  2  0  0  0  0  0  0
  -30.1370  -13.5620   19.9310 N   0  0  0  0  0  0  0  0  0  0  0  0
  -31.9000  -14.9330   19.5130 O   0  0  0  0  0  0  0  0  0  0  0  0
  -30.0370  -15.8040   20.5100 N   0  0  0  0  0  0  0  0  0  0  0  0
  -29.2000  -15.4750   20.9660 H   0  0  0  0  0  0  0  0  0  0  0  0
  -25.3960  -14.0860   20.3560 C   0  0  0  0  0  0  0  0  0  0  0  0
  -24.3330  -13.3270   20.7670 C   0  0  0  0  0  0  0  0  0  0  0  0
  -24.7650  -11.9680   20.6880 C   0  0  0  0  0  0  0  0  0  0  0  0
  -26.4090  -13.1880   20.0550 N   0  0  0  0  0  0  0  0  0  0  0  0
  -26.0360  -11.9080   20.3120 N   0  0  0  0  0  0  0  0  0  0  0  0
  -24.0220  -10.7160   20.8930 C   0  0  0  0  0  0  0  0  0  0  0  0
  -24.4430   -9.7540   21.8370 C   0  0  0  0  0  3  0  0  0  0  0  0
  -23.7030   -8.5680   22.0290 C   0  0  0  0  0  3  0  0  0  0  0  0
  -22.5270   -8.3360   21.2770 C   0  0  0  0  0  0  0  0  0  0  0  0
  -22.1250   -9.2860   20.3220 C   0  0  0  0  0  3  0  0  0  0  0  0
  -22.8670  -10.4640   20.1280 C   0  0  0  0  0  3  0  0  0  0  0  0
  -21.7590   -7.2010   21.3760 O   0  0  0  0  0  0  0  0  0  0  0  0
  -21.6480   -6.5090   22.5560 C   0  0  0  0  0  0  0  0  0  0  0  0
  -21.1370   -7.1080   23.7270 C   0  0  0  0  0  3  0  0  0  0  0  0
  -20.9760   -6.3410   24.8980 C   0  0  0  0  0  3  0  0  0  0  0  0
  -21.3150   -4.9750   24.8970 C   0  0  0  0  0  0  0  0  0  0  0  0
  -21.8200   -4.3750   23.7310 C   0  0  0  0  0  3  0  0  0  0  0  0
  -21.9830   -5.1390   22.5620 C   0  0  0  0  0  0  0  0  0  0  0  0
  -22.4490   -4.5510   21.4340 F   0  0  0  0  0  0  0  0  0  0  0  0
  -21.1540   -4.2360   26.0200 F   0  0  0  0  0  0  0  0  0  0  0  0
  -22.9620  -13.8280   21.1200 C   0  0  0  0  0  0  0  0  0  0  0  0
  -22.2680  -13.1330   22.0160 N   0  0  0  0  0  0  0  0  0  0  0  0
  -22.5170  -14.8680   20.6370 O   0  0  0  0  0  0  0  0  0  0  0  0
  -22.6410  -12.2900   22.4270 H   0  0  0  0  0  0  0  0  0  0  0  0
  -21.3510  -13.4500   22.2950 H   0  0  0  0  0  0  0  0  0  0  0  0
  -25.5810  -15.4560   20.1930 N   0  0  0  0  0  0  0  0  0  0  0  0
  -24.8300  -16.1210   20.3420 H   0  0  0  0  0  0  0  0  0  0  0  0
  -26.4120  -15.8790   19.8000 H   0  0  0  0  0  0  0  0  0  0  0  0
  -29.2710  -22.7190   19.9850 N   0  0  0  0  0  4  0  0  0  0  0  0
  -28.3820  -22.4100   20.3500 H   0  0  0  0  0  0  0  0  0  0  0  0
  -29.2280  -22.6100   18.9830 H   0  0  0  0  0  0  0  0  0  0  0  0
  -29.5670  -24.4580   21.8190 C   0  0  0  0  0  1  0  0  0  0  0  0
  -29.4610  -24.2090   20.2980 C   0  0  0  0  0  3  0  0  0  0  0  0
  -28.3520  -25.1800   19.7020 C   0  0  0  0  0  2  0  0  0  0  0  0
  -28.4740  -26.6300   19.9730 O   0  0  0  0  0  0  0  0  0  0  0  0
  -24.5260  -31.7490   23.1440 C   0  0  0  0  0  0  0  0  0  0  0  0
  -27.3130  -27.4150   19.9400 C   0  0  0  0  0  0  0  0  0  0  0  0
  -23.3730  -30.3560   21.4630 C   0  0  0  0  0  3  0  0  0  0  0  0
  -24.8800  -28.9150   19.9860 C   0  0  0  0  0  0  0  0  0  0  0  0
  -25.8950  -30.7870   21.2820 C   0  0  0  0  0  2  0  0  0  0  0  0
  -26.0280  -29.4360   20.5940 C   0  0  0  0  0  0  0  0  0  0  0  0
  -27.2460  -28.6960   20.5640 C   0  0  0  0  0  3  0  0  0  0  0  0
  -26.1380  -26.9460   19.3020 C   0  0  0  0  0  3  0  0  0  0  0  0
  -24.9360  -27.6750   19.3320 C   0  0  0  0  0  3  0  0  0  0  0  0
  -23.6080  -29.7340   20.0610 C   0  0  0  0  0  2  0  0  0  0  0  0
  -24.6170  -30.9810   22.0210 N   0  0  0  0  0  0  0  0  0  0  0  0
  -23.4350  -31.9660   23.6900 O   0  0  0  0  0  0  0  0  0  0  0  0
  -22.7560  -29.2830   22.3910 C   0  0  0  0  0  0  0  0  0  0  0  0
  -21.4410  -29.0450   22.2490 N   0  0  0  0  0  0  0  0  0  0  0  0
  -23.4590  -28.6690   23.1970 O   0  0  0  0  0  0  0  0  0  0  0  0
  -20.9310  -29.5970   21.5730 H   0  0  0  0  0  0  0  0  0  0  0  0
  -18.1220  -27.6760   22.6820 C   0  0  0  0  0  0  0  0  0  0  0  0
  -20.6610  -28.0520   22.9890 C   0  0  0  0  0  3  0  0  0  0  0  0
  -20.8400  -26.6420   22.3830 C   0  0  0  0  0  2  0  0  0  0  0  0
  -19.7660  -26.2890   21.3490 C   0  0  0  0  0  2  0  0  0  0  0  0
  -18.3720  -26.3520   21.9790 C   0  0  0  0  0  2  0  0  0  0  0  0
  -19.1980  -28.4820   23.1420 C   0  0  0  0  0  0  0  0  0  0  0  0
  -18.9110  -29.7190   23.7590 C   0  0  0  0  0  3  0  0  0  0  0  0
  -17.5830  -30.1530   23.9200 C   0  0  0  0  0  3  0  0  0  0  0  0
  -16.5200  -29.3430   23.4770 C   0  0  0  0  0  3  0  0  0  0  0  0
  -16.7910  -28.1070   22.8640 C   0  0  0  0  0  3  0  0  0  0  0  0
  -25.7870  -32.4100   23.7830 C   0  0  0  0  0  3  0  0  0  0  0  0
  -26.3000  -31.6550   25.0690 C   0  0  1  0  0  0  0  0  0  0  0  0
  -25.1950  -31.3910   26.1180 C   0  0  0  0  0  1  0  0  0  0  0  0
  -26.9260  -30.2920   24.6890 C   0  0  0  0  0  1  0  0  0  0  0  0
  -27.4180  -32.4790   25.7510 C   0  0  0  0  0  1  0  0  0  0  0  0
  -25.4420  -33.8020   24.1040 N   0  0  0  0  0  0  0  0  0  0  0  0
  -25.7410  -34.8590   23.3350 C   0  0  0  0  0  0  0  0  0  0  0  0
  -26.4070  -34.7640   22.2990 O   0  0  0  0  0  0  0  0  0  0  0  0
  -24.8490  -33.9480   24.9080 H   0  0  0  0  0  0  0  0  0  0  0  0
  -23.9510  -36.5920   22.9950 C   0  0  0  0  0  1  0  0  0  0  0  0
  -25.2210  -36.2370   23.7850 C   0  0  0  0  0  3  0  0  0  0  0  0
  -27.3350  -37.2070   24.5700 C   0  0  0  0  0  1  0  0  0  0  0  0
  -26.2170  -37.3200   23.6380 N   0  0  0  0  0  0  0  0  0  0  0  0
  -25.7830  -38.2300   23.7700 H   0  0  0  0  0  0  0  0  0  0  0  0
  2  5  1  0
  4  1  1  0
  4  7  2  0
  5 18  1  0
  5  3  2  0
  6  2  2  0
  6  4  1  0
  7  3  1  0
  7  9  1  0
  8  6  1  0
 10 18  1  0
 11 16  1  0
 12 13  1  0
 12 11  1  0
 14 13  1  0
 14 23  1  0
 14 15  1  0
 16 10  1  0
 16 15  1  0
 17 10  2  0
 18 19  1  0
 20 21  2  0
 21 40  1  0
 22 21  1  0
 22 25  1  0
 23 24  1  0
 23 20  1  0
 24 22  2  0
 25 26  1  0
 26 27  2  0
 28 31  1  0
 28 27  1  0
 29 28  2  0
 30 29  1  0
 30 25  2  0
 31 32  1  0
 32 37  2  0
 32 33  1  0
 33 34  2  0
 35 34  1  0
 35 39  1  0
 36 35  2  0
 37 36  1  0
 38 37  1  0
 40 41  1  0
 41 44  1  0
 41 43  1  0
 42 40  2  0
 45 46  1  0
 45 20  1  0
 47 45  1  0
 48 52  1  0
 48 49  1  0
 48  1  1  0
 50 48  1  0
 52 51  1  0
 53 54  1  0
 53 52  1  0
 55 66  2  0
 56 54  1  0
 56 61  1  0
 57 65  1  0
 57 67  1  0
 58 64  1  0
 58 60  1  0
 59 65  1  0
 60 59  1  0
 61 60  2  0
 62 63  1  0
 62 56  2  0
 63 58  2  0
 64 57  1  0
 65 55  1  0
 67 69  2  0
 68 67  1  0
 70 68  1  0
 71 80  2  0
 71 76  1  0
 72 68  1  0
 72 76  1  0
 73 72  1  0
 74 75  1  0
 74 73  1  0
 75 71  1  0
 76 77  2  0
 77 78  1  0
 79 78  2  0
 80 79  1  0
 81 55  1  0
 81 86  1  0
 81 82  1  0
 82 85  1  1
 82 83  1  0
 84 82  1  0
 86 89  1  0
 87 91  1  0
 87 86  1  0
 88 87  2  0
 91 90  1  0
 93 94  1  0
 93 91  1  0
 93 92  1  0
M  ISO  4  10 100  18 100  53 101  54 101
M  END
>  <TORSDO>  (4) 
F 20

>  <SCORE>  (4) 
-13.123

>  <name>  (4) 
3

>  <ligand_id>  (4) 
3

>  <original_smiles>  (4) 
[H]c1c([H])c([H])c2c(c1[H])C([H])([H])C([H])([H])C([H])([H])C2([H])N([H])C(=O)C1([H])N(C(=O)C([H])(N([H])C(=O)C([H])(N([H])C([H])([H])[H])C([H])([H])[H])C(C([H])([H])[H])(C([H])([H])[H])C([H])([H])[H])C([H])([H])c2c([H])c(OC([H])([H])C([H])(C([H])([H])[H])[N+]([H])([H])C([H])([H])c3c(F)c([H])c(N([H])C(=O)N4C([H])([H])C([H])([H])C([H])([H])C([H])(n5nc(-c6c([H])c([H])c(Oc7c([H])c([H])c(F)c([H])c7F)c([H])c6[H])c(C(=O)N([H])[H])c5N([H])[H])C4([H])[H])c([H])c3F)c([H])c([H])c2C1([H])[H]

>  <smiles>  (4) 
[H]c1c([H])c([H])c2c(c1[H])C([H])([H])C([H])([H])C([H])([H])C2([H])N([H])C(=O)C1([H])N(C(=O)C([H])(N([H])C(=O)C([H])(N([H])C([H])([H])[H])C([H])([H])[H])C(C([H])([H])[H])(C([H])([H])[H])C([H])([H])[H])C([H])([H])c2c([H])c(OC([H])([H])C([H])(C([H])([H])[H])[N+]([H])([H])C([H])([H])c3c(F)c([H])c(N([H])C(=O)N4C([H])([H])C([H])([H])C([H])([H])C([H])(n5nc(-c6c([H])c([H])c(Oc7c([H])c([H])c(F)c([H])c7F)c([H])c6[H])c(C(=O)N([H])[H])c5N([H])[H])C4([H])[H])c([H])c3F)c([H])c([H])c2C1([H])[H]

$$$$
4:0:0
     RDKit          3D

 92100  0  0  1  0  0  0  0  0999 V2000
  -28.8930  -22.3250   19.7760 C   0  0  0  0  0  0  0  0  0  0  0  0
  -29.0710  -21.1070   20.4280 N   0  0  0  0  0  0  0  0  0  0  0  0
  -28.9610  -22.3830   18.5450 O   0  0  0  0  0  0  0  0  0  0  0  0
  -28.8170  -21.1150   21.4080 H   0  0  0  0  0  0  0  0  0  0  0  0
  -29.4310  -18.4970   20.5120 C   0  0  0  0  0  3  0  0  0  0  0  0
  -30.5370  -19.8620   18.8300 C   0  0  0  0  0  3  0  0  0  0  0  0
  -30.9160  -17.4430   18.8990 C   0  0  0  0  0  3  0  0  0  0  0  0
  -29.6440  -19.8210   19.9280 C   0  0  0  0  0  0  0  0  0  0  0  0
  -30.0660  -17.2750   20.0190 C   0  0  0  0  0  0  0  0  0  0  0  0
  -31.1480  -18.7040   18.3230 C   0  0  0  0  0  0  0  0  0  0  0  0
  -31.9780  -18.8020   17.2560 F   0  0  0  0  0  0  0  0  0  0  0  0
  -30.5950  -14.7370   20.3480 C   0  0  0  0  0  0  0  0  0  0  0  0
  -30.3740  -12.4590   19.3720 C   0  0  0  0  0  2  0  0  0  0  0  0
  -29.4420  -12.5440   18.1440 C   0  0  0  0  0  2  0  0  0  0  0  0
  -27.9700  -12.3840   18.5710 C   0  0  0  0  0  2  0  0  0  0  0  0
  -27.5990  -13.2720   19.7880 C   0  0  0  0  0  3  0  0  0  0  0  0
  -28.6560  -13.1860   20.9110 C   0  0  0  0  0  2  0  0  0  0  0  0
  -29.9570  -13.5200   20.3180 N   0  0  0  0  0  0  0  0  0  0  0  0
  -31.7900  -14.7970   20.0400 O   0  0  0  0  0  0  0  0  0  0  0  0
  -29.8450  -15.8930   20.5440 N   0  0  0  0  0  0  0  0  0  0  0  0
  -28.9480  -15.7350   20.9780 H   0  0  0  0  0  0  0  0  0  0  0  0
  -25.2130  -13.8650   20.5160 C   0  0  0  0  0  0  0  0  0  0  0  0
  -24.1470  -13.0920   20.8890 C   0  0  0  0  0  0  0  0  0  0  0  0
  -24.6100  -11.7410   20.8640 C   0  0  0  0  0  0  0  0  0  0  0  0
  -26.2560  -12.9850   20.2820 N   0  0  0  0  0  0  0  0  0  0  0  0
  -25.9010  -11.7020   20.5540 N   0  0  0  0  0  0  0  0  0  0  0  0
  -23.8840  -10.4790   21.0580 C   0  0  0  0  0  0  0  0  0  0  0  0
  -24.3260   -9.5050   21.9810 C   0  0  0  0  0  3  0  0  0  0  0  0
  -23.5990   -8.3100   22.1640 C   0  0  0  0  0  3  0  0  0  0  0  0
  -22.4150   -8.0780   21.4250 C   0  0  0  0  0  0  0  0  0  0  0  0
  -21.9910   -9.0400   20.4900 C   0  0  0  0  0  3  0  0  0  0  0  0
  -22.7180  -10.2280   20.3060 C   0  0  0  0  0  3  0  0  0  0  0  0
  -21.6580   -6.9360   21.5170 O   0  0  0  0  0  0  0  0  0  0  0  0
  -21.6350   -6.1770   22.6600 C   0  0  0  0  0  0  0  0  0  0  0  0
  -21.2560   -6.7220   23.9070 C   0  0  0  0  0  3  0  0  0  0  0  0
  -21.1780   -5.8910   25.0430 C   0  0  0  0  0  3  0  0  0  0  0  0
  -21.4720   -4.5180   24.9330 C   0  0  0  0  0  0  0  0  0  0  0  0
  -21.8440   -3.9740   23.6920 C   0  0  0  0  0  3  0  0  0  0  0  0
  -21.9230   -4.8020   22.5580 C   0  0  0  0  0  0  0  0  0  0  0  0
  -22.2620   -4.2690   21.3600 F   0  0  0  0  0  0  0  0  0  0  0  0
  -21.3910   -3.7180   26.0220 F   0  0  0  0  0  0  0  0  0  0  0  0
  -22.7500  -13.5710   21.1570 C   0  0  0  0  0  0  0  0  0  0  0  0
  -22.0200  -12.8800   22.0250 N   0  0  0  0  0  0  0  0  0  0  0  0
  -22.3140  -14.5930   20.6290 O   0  0  0  0  0  0  0  0  0  0  0  0
  -22.3860  -12.0550   22.4760 H   0  0  0  0  0  0  0  0  0  0  0  0
  -21.0820  -13.1830   22.2430 H   0  0  0  0  0  0  0  0  0  0  0  0
  -25.3770  -15.2350   20.3320 N   0  0  0  0  0  0  0  0  0  0  0  0
  -24.6080  -15.8880   20.4330 H   0  0  0  0  0  0  0  0  0  0  0  0
  -26.2200  -15.6690   19.9760 H   0  0  0  0  0  0  0  0  0  0  0  0
  -28.5460  -23.6970   20.5270 C   0  0  0  0  0  3  0  0  0  0  0  0
  -28.4200  -25.0510   19.6420 C   0  0  0  0  0  3  0  0  0  0  0  0
  -28.3360  -26.4320   20.2290 O   0  0  0  0  0  0  0  0  0  0  0  0
  -24.6170  -31.8690   23.2320 C   0  0  0  0  0  0  0  0  0  0  0  0
  -27.2020  -27.2750   20.1580 C   0  0  0  0  0  0  0  0  0  0  0  0
  -23.4020  -30.4700   21.6010 C   0  0  0  0  0  3  0  0  0  0  0  0
  -24.8400  -28.9160   20.1630 C   0  0  0  0  0  0  0  0  0  0  0  0
  -25.9430  -30.7780   21.4050 C   0  0  0  0  0  2  0  0  0  0  0  0
  -26.0150  -29.3970   20.7530 C   0  0  0  0  0  0  0  0  0  0  0  0
  -27.1950  -28.5880   20.7390 C   0  0  0  0  0  3  0  0  0  0  0  0
  -25.9970  -26.8530   19.5530 C   0  0  0  0  0  3  0  0  0  0  0  0
  -24.8370  -27.6520   19.5540 C   0  0  0  0  0  3  0  0  0  0  0  0
  -23.6060  -29.7940   20.2180 C   0  0  0  0  0  2  0  0  0  0  0  0
  -24.6730  -31.0590   22.1340 N   0  0  0  0  0  0  0  0  0  0  0  0
  -23.5360  -32.1480   23.7740 O   0  0  0  0  0  0  0  0  0  0  0  0
  -22.7450  -29.4550   22.5670 C   0  0  0  0  0  0  0  0  0  0  0  0
  -21.4180  -29.2770   22.4500 N   0  0  0  0  0  0  0  0  0  0  0  0
  -23.4280  -28.8310   23.3830 O   0  0  0  0  0  0  0  0  0  0  0  0
  -20.9240  -29.8330   21.7660 H   0  0  0  0  0  0  0  0  0  0  0  0
  -18.0450  -28.0700   22.9620 C   0  0  0  0  0  0  0  0  0  0  0  0
  -20.6040  -28.3380   23.2250 C   0  0  0  0  0  3  0  0  0  0  0  0
  -20.7080  -26.9050   22.6550 C   0  0  0  0  0  2  0  0  0  0  0  0
  -19.6050  -26.5750   21.6440 C   0  0  0  0  0  2  0  0  0  0  0  0
  -18.2250  -26.7180   22.2910 C   0  0  0  0  0  2  0  0  0  0  0  0
  -19.1630  -28.8370   23.3860 C   0  0  0  0  0  0  0  0  0  0  0  0
  -18.9410  -30.1020   23.9730 C   0  0  0  0  0  3  0  0  0  0  0  0
  -17.6340  -30.5980   24.1430 C   0  0  0  0  0  3  0  0  0  0  0  0
  -16.5330  -29.8280   23.7350 C   0  0  0  0  0  3  0  0  0  0  0  0
  -16.7380  -28.5660   23.1510 C   0  0  0  0  0  3  0  0  0  0  0  0
  -25.9040  -32.5020   23.8450 C   0  0  0  0  0  3  0  0  0  0  0  0
  -26.4290  -31.7310   25.1180 C   0  0  1  0  0  0  0  0  0  0  0  0
  -25.3460  -31.4940   26.1950 C   0  0  0  0  0  1  0  0  0  0  0  0
  -27.0080  -30.3520   24.7230 C   0  0  0  0  0  1  0  0  0  0  0  0
  -27.5830  -32.5260   25.7720 C   0  0  0  0  0  1  0  0  0  0  0  0
  -25.5920  -33.9000   24.1830 N   0  0  0  0  0  0  0  0  0  0  0  0
  -25.9140  -34.9580   23.4260 C   0  0  0  0  0  0  0  0  0  0  0  0
  -26.5740  -34.8620   22.3880 O   0  0  0  0  0  0  0  0  0  0  0  0
  -25.0030  -34.0480   24.9880 H   0  0  0  0  0  0  0  0  0  0  0  0
  -24.1750  -36.7490   23.1030 C   0  0  0  0  0  1  0  0  0  0  0  0
  -25.4280  -36.3430   23.8950 C   0  0  0  0  0  3  0  0  0  0  0  0
  -27.5730  -37.2310   24.6990 C   0  0  0  0  0  1  0  0  0  0  0  0
  -26.4550  -37.4020   23.7750 N   0  0  0  0  0  0  0  0  0  0  0  0
  -26.0460  -38.3190   23.9370 H   0  0  0  0  0  0  0  0  0  0  0  0
  1  2  1  0
  1 50  1  0
  2  4  1  0
  3  1  2  0
  6  8  1  0
  7  9  2  0
  8  2  1  0
  8  5  2  0
  9  5  1  0
  9 20  1  0
 10  6  2  0
 10  7  1  0
 11 10  1  0
 12 20  1  0
 13 18  1  0
 14 15  1  0
 14 13  1  0
 16 15  1  0
 16 25  1  0
 16 17  1  0
 18 12  1  0
 18 17  1  0
 19 12  2  0
 20 21  1  0
 22 23  2  0
 23 42  1  0
 24 23  1  0
 24 27  1  0
 25 22  1  0
 25 26  1  0
 26 24  2  0
 27 28  1  0
 28 29  2  0
 30 33  1  0
 30 29  1  0
 31 30  2  0
 32 31  1  0
 32 27  2  0
 33 34  1  0
 34 35  1  0
 35 36  2  0
 37 36  1  0
 37 41  1  0
 38 37  2  0
 39 34  2  0
 39 38  1  0
 40 39  1  0
 42 43  1  0
 43 46  1  0
 43 45  1  0
 44 42  2  0
 47 48  1  0
 47 22  1  0
 49 47  1  0
 51 52  1  0
 51 50  2  0
 53 64  2  0
 54 52  1  0
 54 59  1  0
 55 63  1  0
 55 65  1  0
 56 62  1  0
 56 58  1  0
 57 63  1  0
 58 57  1  0
 59 58  2  0
 60 61  1  0
 60 54  2  0
 61 56  2  0
 62 55  1  0
 63 53  1  0
 65 67  2  0
 66 65  1  0
 68 66  1  0
 69 78  2  0
 69 74  1  0
 70 66  1  0
 70 74  1  0
 71 70  1  0
 72 73  1  0
 72 71  1  0
 73 69  1  0
 74 75  2  0
 75 76  1  0
 77 76  2  0
 78 77  1  0
 79 53  1  0
 79 84  1  0
 79 80  1  0
 80 83  1  1
 80 81  1  0
 82 80  1  0
 84 87  1  0
 85 89  1  0
 85 84  1  0
 86 85  2  0
 89 88  1  0
 91 89  1  0
 91 92  1  0
 91 90  1  0
M  ISO  4  12 100  20 100  51 101  52 101
M  END
>  <TORSDO>  (5) 
F 19

>  <SCORE>  (5) 
-14.203

>  <name>  (5) 
4

>  <ligand_id>  (5) 
4

>  <original_smiles>  (5) 
[H]c1c([H])c([H])c2c(c1[H])C([H])([H])C([H])([H])C([H])([H])C2([H])N([H])C(=O)C1([H])N(C(=O)C([H])(N([H])C(=O)C([H])(N([H])C([H])([H])[H])C([H])([H])[H])C(C([H])([H])[H])(C([H])([H])[H])C([H])([H])[H])C([H])([H])c2c([H])c(OC([H])([H])C([H])([H])C(=O)N([H])c3c([H])c(F)c([H])c(N([H])C(=O)N4C([H])([H])C([H])([H])C([H])([H])C([H])(n5nc(-c6c([H])c([H])c(Oc7c([H])c([H])c(F)c([H])c7F)c([H])c6[H])c(C(=O)N([H])[H])c5N([H])[H])C4([H])[H])c3[H])c([H])c([H])c2C1([H])[H]

>  <smiles>  (5) 
[H]c1c([H])c([H])c2c(c1[H])C([H])([H])C([H])([H])C([H])([H])C2([H])N([H])C(=O)C1([H])N(C(=O)C([H])(N([H])C(=O)C([H])(N([H])C([H])([H])[H])C([H])([H])[H])C(C([H])([H])[H])(C([H])([H])[H])C([H])([H])[H])C([H])([H])c2c([H])c(OC([H])([H])C([H])([H])C(=O)N([H])c3c([H])c(F)c([H])c(N([H])C(=O)N4C([H])([H])C([H])([H])C([H])([H])C([H])(n5nc(-c6c([H])c([H])c(Oc7c([H])c([H])c(F)c([H])c7F)c([H])c6[H])c(C(=O)N([H])[H])c5N([H])[H])C4([H])[H])c3[H])c([H])c([H])c2C1([H])[H]

$$$$
5:0:0
     RDKit          3D

 93101  0  0  1  0  0  0  0  0999 V2000
  -29.0240  -21.1310   19.8060 C   0  0  0  0  0  2  0  0  0  0  0  0
  -31.3050  -17.6550   21.4350 C   0  0  0  0  0  3  0  0  0  0  0  0
  -31.6400  -18.9950   21.7270 C   0  0  0  0  0  3  0  0  0  0  0  0
  -29.7310  -19.8540   20.4400 C   0  0  0  0  0  0  0  0  0  0  0  0
  -30.1700  -17.3390   20.6530 C   0  0  0  0  0  0  0  0  0  0  0  0
  -30.8740  -20.0720   21.2360 C   0  0  0  0  0  0  0  0  0  0  0  0
  -29.3810  -18.4650   20.1740 C   0  0  0  0  0  0  0  0  0  0  0  0
  -31.2500  -21.3420   21.5260 F   0  0  0  0  0  0  0  0  0  0  0  0
  -28.2810  -18.2000   19.4300 F   0  0  0  0  0  0  0  0  0  0  0  0
  -30.6030  -14.7950   20.2670 C   0  0  0  0  0  0  0  0  0  0  0  0
  -30.3910  -12.5450   19.2040 C   0  0  0  0  0  2  0  0  0  0  0  0
  -29.4290  -12.6300   17.9990 C   0  0  0  0  0  2  0  0  0  0  0  0
  -27.9660  -12.4480   18.4500 C   0  0  0  0  0  2  0  0  0  0  0  0
  -27.6090  -13.3210   19.6810 C   0  0  0  0  0  3  0  0  0  0  0  0
  -28.6850  -13.2180   20.7830 C   0  0  0  0  0  2  0  0  0  0  0  0
  -29.9700  -13.5790   20.1730 N   0  0  0  0  0  0  0  0  0  0  0  0
  -31.7950  -14.8950   19.9610 O   0  0  0  0  0  0  0  0  0  0  0  0
  -29.8120  -15.9180   20.4370 N   0  0  0  0  0  0  0  0  0  0  0  0
  -28.8230  -15.7360   20.4050 H   0  0  0  0  0  0  0  0  0  0  0  0
  -25.2260  -13.8950   20.4360 C   0  0  0  0  0  0  0  0  0  0  0  0
  -24.1710  -13.1130   20.8210 C   0  0  0  0  0  0  0  0  0  0  0  0
  -24.6450  -11.7660   20.7880 C   0  0  0  0  0  0  0  0  0  0  0  0
  -26.2750  -13.0250   20.1910 N   0  0  0  0  0  0  0  0  0  0  0  0
  -25.9330  -11.7390   20.4660 N   0  0  0  0  0  0  0  0  0  0  0  0
  -23.9330  -10.4980   20.9880 C   0  0  0  0  0  0  0  0  0  0  0  0
  -24.3710   -9.5430   21.9320 C   0  0  0  0  0  3  0  0  0  0  0  0
  -23.6580   -8.3400   22.1180 C   0  0  0  0  0  3  0  0  0  0  0  0
  -22.4900   -8.0820   21.3610 C   0  0  0  0  0  0  0  0  0  0  0  0
  -22.0720   -9.0240   20.4040 C   0  0  0  0  0  3  0  0  0  0  0  0
  -22.7870  -10.2190   20.2170 C   0  0  0  0  0  3  0  0  0  0  0  0
  -21.7480   -6.9300   21.4560 O   0  0  0  0  0  0  0  0  0  0  0  0
  -21.6940   -6.2040   22.6180 C   0  0  0  0  0  0  0  0  0  0  0  0
  -21.2260   -6.7660   23.8260 C   0  0  0  0  0  3  0  0  0  0  0  0
  -21.1200   -5.9640   24.9810 C   0  0  0  0  0  3  0  0  0  0  0  0
  -21.4720   -4.6020   24.9280 C   0  0  0  0  0  0  0  0  0  0  0  0
  -21.9310   -4.0400   23.7230 C   0  0  0  0  0  3  0  0  0  0  0  0
  -22.0380   -4.8390   22.5710 C   0  0  0  0  0  0  0  0  0  0  0  0
  -22.4610   -4.2860   21.4090 F   0  0  0  0  0  0  0  0  0  0  0  0
  -21.3620   -3.8300   26.0340 F   0  0  0  0  0  0  0  0  0  0  0  0
  -22.7720  -13.5790   21.1030 C   0  0  0  0  0  0  0  0  0  0  0  0
  -22.0560  -12.8740   21.9720 N   0  0  0  0  0  0  0  0  0  0  0  0
  -22.3230  -14.6010   20.5870 O   0  0  0  0  0  0  0  0  0  0  0  0
  -22.4320  -12.0470   22.4100 H   0  0  0  0  0  0  0  0  0  0  0  0
  -21.1180  -13.1680   22.2030 H   0  0  0  0  0  0  0  0  0  0  0  0
  -25.3740  -15.2670   20.2510 N   0  0  0  0  0  0  0  0  0  0  0  0
  -24.5930  -15.9060   20.3480 H   0  0  0  0  0  0  0  0  0  0  0  0
  -26.2010  -15.7120   19.8760 H   0  0  0  0  0  0  0  0  0  0  0  0
  -27.7140  -22.1700   21.6310 C   0  0  0  0  0  1  0  0  0  0  0  0
  -28.7960  -22.4040   20.6460 N   0  0  2  0  0  4  0  0  0  0  0  0
  -29.6490  -22.4880   21.1850 H   0  0  0  0  0  0  0  0  0  0  0  0
  -28.6450  -23.7580   19.9000 C   0  0  0  0  0  3  0  0  0  0  0  0
  -28.2260  -25.0940   20.7220 C   0  0  0  0  0  3  0  0  0  0  0  0
  -28.3720  -26.4850   20.1730 O   0  0  0  0  0  0  0  0  0  0  0  0
  -24.6170  -31.9130   23.2150 C   0  0  0  0  0  0  0  0  0  0  0  0
  -27.2580  -27.3460   20.1750 C   0  0  0  0  0  0  0  0  0  0  0  0
  -23.4280  -30.5090   21.5710 C   0  0  0  0  0  3  0  0  0  0  0  0
  -24.8910  -28.9610   20.1510 C   0  0  0  0  0  0  0  0  0  0  0  0
  -25.9670  -30.8380   21.3940 C   0  0  0  0  0  2  0  0  0  0  0  0
  -26.0570  -29.4550   20.7500 C   0  0  0  0  0  0  0  0  0  0  0  0
  -27.2480  -28.6610   20.7460 C   0  0  0  0  0  3  0  0  0  0  0  0
  -26.0690  -26.9070   19.5560 C   0  0  0  0  0  3  0  0  0  0  0  0
  -24.9010  -27.6950   19.5430 C   0  0  0  0  0  3  0  0  0  0  0  0
  -23.6520  -29.8340   20.1910 C   0  0  0  0  0  2  0  0  0  0  0  0
  -24.6900  -31.1060   22.1160 N   0  0  0  0  0  0  0  0  0  0  0  0
  -23.5280  -32.1830   23.7460 O   0  0  0  0  0  0  0  0  0  0  0  0
  -22.7670  -29.4880   22.5300 C   0  0  0  0  0  0  0  0  0  0  0  0
  -21.4420  -29.3040   22.4020 N   0  0  0  0  0  0  0  0  0  0  0  0
  -23.4470  -28.8620   23.3490 O   0  0  0  0  0  0  0  0  0  0  0  0
  -20.9530  -29.8580   21.7140 H   0  0  0  0  0  0  0  0  0  0  0  0
  -18.0680  -28.0910   22.8940 C   0  0  0  0  0  0  0  0  0  0  0  0
  -20.6260  -28.3630   23.1700 C   0  0  0  0  0  3  0  0  0  0  0  0
  -20.7370  -26.9340   22.5920 C   0  0  0  0  0  2  0  0  0  0  0  0
  -19.6370  -26.6060   21.5760 C   0  0  0  0  0  2  0  0  0  0  0  0
  -18.2530  -26.7430   22.2160 C   0  0  0  0  0  2  0  0  0  0  0  0
  -19.1820  -28.8580   23.3270 C   0  0  0  0  0  0  0  0  0  0  0  0
  -18.9550  -30.1190   23.9210 C   0  0  0  0  0  3  0  0  0  0  0  0
  -17.6470  -30.6120   24.0880 C   0  0  0  0  0  3  0  0  0  0  0  0
  -16.5480  -29.8420   23.6720 C   0  0  0  0  0  3  0  0  0  0  0  0
  -16.7580  -28.5840   23.0800 C   0  0  0  0  0  3  0  0  0  0  0  0
  -25.8910  -32.5560   23.8440 C   0  0  0  0  0  3  0  0  0  0  0  0
  -26.3990  -31.7970   25.1300 C   0  0  1  0  0  0  0  0  0  0  0  0
  -25.2980  -31.5680   26.1910 C   0  0  0  0  0  1  0  0  0  0  0  0
  -26.9900  -30.4190   24.7530 C   0  0  0  0  0  1  0  0  0  0  0  0
  -27.5400  -32.6030   25.7950 C   0  0  0  0  0  1  0  0  0  0  0  0
  -25.5730  -33.9560   24.1630 N   0  0  0  0  0  0  0  0  0  0  0  0
  -25.9080  -35.0070   23.4040 C   0  0  0  0  0  0  0  0  0  0  0  0
  -26.5850  -34.9020   22.3770 O   0  0  0  0  0  0  0  0  0  0  0  0
  -24.9730  -34.1110   24.9600 H   0  0  0  0  0  0  0  0  0  0  0  0
  -24.1790  -36.7990   23.0320 C   0  0  0  0  0  1  0  0  0  0  0  0
  -25.4140  -36.3970   23.8530 C   0  0  0  0  0  3  0  0  0  0  0  0
  -27.5380  -37.2900   24.7050 C   0  0  0  0  0  1  0  0  0  0  0  0
  -26.4460  -37.4510   23.7480 N   0  0  0  0  0  0  0  0  0  0  0  0
  -26.0370  -38.3720   23.8860 H   0  0  0  0  0  0  0  0  0  0  0  0
  1  4  1  0
  1 49  1  0
  2  3  1  0
  4  6  1  0
  5  2  2  0
  6  8  1  0
  6  3  2  0
  7  4  2  0
  7  5  1  0
  9  7  1  0
 10 18  1  0
 11 16  1  0
 12 13  1  0
 12 11  1  0
 14 13  1  0
 14 23  1  0
 14 15  1  0
 16 10  1  0
 16 15  1  0
 17 10  2  0
 18  5  1  0
 19 18  1  0
 20 21  2  0
 21 40  1  0
 22 21  1  0
 22 25  1  0
 23 20  1  0
 23 24  1  0
 24 22  2  0
 25 26  1  0
 26 27  2  0
 28 31  1  0
 28 27  1  0
 29 28  2  0
 30 29  1  0
 30 25  2  0
 31 32  1  0
 32 33  1  0
 33 34  2  0
 35 34  1  0
 35 39  1  0
 36 35  2  0
 37 32  2  0
 37 36  1  0
 38 37  1  0
 40 41  1  0
 41 44  1  0
 41 43  1  0
 42 40  2  0
 45 46  1  0
 45 20  1  0
 47 45  1  0
 49 50  1  1
 49 48  1  0
 51 49  1  0
 51 52  2  0
 53 55  1  0
 53 52  1  0
 54 65  2  0
 55 60  1  0
 56 64  1  0
 56 66  1  0
 57 63  1  0
 57 59  1  0
 58 64  1  0
 59 58  1  0
 60 59  2  0
 61 55  2  0
 62 61  1  0
 62 57  2  0
 63 56  1  0
 64 54  1  0
 66 68  2  0
 67 66  1  0
 69 67  1  0
 70 79  2  0
 70 75  1  0
 71 67  1  0
 71 75  1  0
 72 71  1  0
 73 74  1  0
 73 72  1  0
 74 70  1  0
 75 76  2  0
 76 77  1  0
 78 77  2  0
 79 78  1  0
 80 54  1  0
 80 85  1  0
 80 81  1  0
 81 84  1  1
 81 82  1  0
 83 81  1  0
 85 88  1  0
 86 90  1  0
 86 85  1  0
 87 86  2  0
 90 89  1  0
 92 90  1  0
 92 93  1  0
 92 91  1  0
M  ISO  4  10 100  18 100  52 101  53 101
M  END
>  <TORSDO>  (6) 
F 20

>  <SCORE>  (6) 
-14.187

>  <name>  (6) 
5

>  <ligand_id>  (6) 
5

>  <original_smiles>  (6) 
[H]c1c([H])c([H])c2c(c1[H])C([H])([H])C([H])([H])C([H])([H])C2([H])N([H])C(=O)C1([H])N(C(=O)C([H])(N([H])C(=O)C([H])(N([H])C([H])([H])[H])C([H])([H])[H])C(C([H])([H])[H])(C([H])([H])[H])C([H])([H])[H])C([H])([H])c2c([H])c(OC([H])([H])C([H])([H])[N+]([H])(C([H])([H])[H])C([H])([H])c3c(F)c([H])c([H])c(N([H])C(=O)N4C([H])([H])C([H])([H])C([H])([H])C([H])(n5nc(-c6c([H])c([H])c(Oc7c([H])c([H])c(F)c([H])c7F)c([H])c6[H])c(C(=O)N([H])[H])c5N([H])[H])C4([H])[H])c3F)c([H])c([H])c2C1([H])[H]

>  <smiles>  (6) 
[H]c1c([H])c([H])c2c(c1[H])C([H])([H])C([H])([H])C([H])([H])C2([H])N([H])C(=O)C1([H])N(C(=O)C([H])(N([H])C(=O)C([H])(N([H])C([H])([H])[H])C([H])([H])[H])C(C([H])([H])[H])(C([H])([H])[H])C([H])([H])[H])C([H])([H])c2c([H])c(OC([H])([H])C([H])([H])[N+]([H])(C([H])([H])[H])C([H])([H])c3c(F)c([H])c([H])c(N([H])C(=O)N4C([H])([H])C([H])([H])C([H])([H])C([H])(n5nc(-c6c([H])c([H])c(Oc7c([H])c([H])c(F)c([H])c7F)c([H])c6[H])c(C(=O)N([H])[H])c5N([H])[H])C4([H])[H])c3F)c([H])c([H])c2C1([H])[H]

$$$$
6:0:0
     RDKit          3D

 95103  0  0  1  0  0  0  0  0999 V2000
  -29.4920  -21.7170   18.6860 C   0  0  0  0  0  1  0  0  0  0  0  0
  -30.4000  -21.6680   19.8530 N   0  0  1  0  0  4  0  0  0  0  0  0
  -29.8200  -21.4190   20.6440 H   0  0  0  0  0  0  0  0  0  0  0  0
  -31.3870  -20.5120   19.7540 C   0  0  0  0  0  2  0  0  0  0  0  0
  -31.3220  -17.9130   20.2860 C   0  0  0  0  0  3  0  0  0  0  0  0
  -30.8840  -17.1970   22.5750 C   0  0  0  0  0  3  0  0  0  0  0  0
  -31.1470  -19.2910   20.6870 C   0  0  0  0  0  0  0  0  0  0  0  0
  -31.1940  -16.8490   21.2430 C   0  0  0  0  0  0  0  0  0  0  0  0
  -30.7080  -18.5300   22.9730 C   0  0  0  0  0  0  0  0  0  0  0  0
  -30.8470  -19.5680   22.0400 C   0  0  0  0  0  0  0  0  0  0  0  0
  -30.4180  -18.8150   24.2660 F   0  0  0  0  0  0  0  0  0  0  0  0
  -30.7040  -20.8480   22.4610 F   0  0  0  0  0  0  0  0  0  0  0  0
  -31.8740  -14.5760   20.1580 C   0  0  0  0  0  0  0  0  0  0  0  0
  -31.4210  -12.4680   18.9070 C   0  0  0  0  0  2  0  0  0  0  0  0
  -30.4440  -12.7550   17.7430 C   0  0  0  0  0  2  0  0  0  0  0  0
  -28.9770  -12.7120   18.2160 C   0  0  0  0  0  2  0  0  0  0  0  0
  -28.7470  -13.5370   19.5090 C   0  0  0  0  0  3  0  0  0  0  0  0
  -29.8090  -13.1740   20.5720 C   0  0  0  0  0  2  0  0  0  0  0  0
  -31.1470  -13.4270   19.9920 N   0  0  0  0  0  0  0  0  0  0  0  0
  -32.9320  -14.7920   19.5590 O   0  0  0  0  0  0  0  0  0  0  0  0
  -31.3440  -15.4170   21.0770 N   0  0  0  0  0  0  0  0  0  0  0  0
  -30.6740  -14.9020   21.6240 H   0  0  0  0  0  0  0  0  0  0  0  0
  -26.4370  -14.3460   20.3150 C   0  0  0  0  0  0  0  0  0  0  0  0
  -25.3080  -13.6680   20.6930 C   0  0  0  0  0  0  0  0  0  0  0  0
  -25.6340  -12.2780   20.5990 C   0  0  0  0  0  0  0  0  0  0  0  0
  -27.3850  -13.3770   20.0200 N   0  0  0  0  0  0  0  0  0  0  0  0
  -26.9040  -12.1260   20.2450 N   0  0  0  0  0  0  0  0  0  0  0  0
  -24.7930  -11.0870   20.7700 C   0  0  0  0  0  0  0  0  0  0  0  0
  -25.1120  -10.0890   21.7180 C   0  0  0  0  0  3  0  0  0  0  0  0
  -24.2800   -8.9580   21.8770 C   0  0  0  0  0  3  0  0  0  0  0  0
  -23.1150   -8.8210   21.0860 C   0  0  0  0  0  0  0  0  0  0  0  0
  -22.8140   -9.8080   20.1310 C   0  0  0  0  0  3  0  0  0  0  0  0
  -23.6450  -10.9280   19.9700 C   0  0  0  0  0  3  0  0  0  0  0  0
  -22.2590   -7.7470   21.1540 O   0  0  0  0  0  0  0  0  0  0  0  0
  -22.0260   -7.0880   22.3340 C   0  0  0  0  0  0  0  0  0  0  0  0
  -21.5740   -7.7630   23.4890 C   0  0  0  0  0  3  0  0  0  0  0  0
  -21.2760   -7.0360   24.6580 C   0  0  0  0  0  3  0  0  0  0  0  0
  -21.4220   -5.6360   24.6750 C   0  0  0  0  0  0  0  0  0  0  0  0
  -21.8670   -4.9610   23.5250 C   0  0  0  0  0  3  0  0  0  0  0  0
  -22.1670   -5.6850   22.3580 C   0  0  0  0  0  0  0  0  0  0  0  0
  -22.5750   -5.0270   21.2450 F   0  0  0  0  0  0  0  0  0  0  0  0
  -21.1300   -4.9370   25.7970 F   0  0  0  0  0  0  0  0  0  0  0  0
  -23.9740  -14.2690   21.0310 C   0  0  0  0  0  0  0  0  0  0  0  0
  -23.2300  -13.6410   21.9360 N   0  0  0  0  0  0  0  0  0  0  0  0
  -23.6020  -15.3280   20.5280 O   0  0  0  0  0  0  0  0  0  0  0  0
  -23.5420  -12.7850   22.3690 H   0  0  0  0  0  0  0  0  0  0  0  0
  -22.3370  -14.0280   22.2010 H   0  0  0  0  0  0  0  0  0  0  0  0
  -26.7310  -15.6990   20.1830 N   0  0  0  0  0  0  0  0  0  0  0  0
  -26.0360  -16.4200   20.3440 H   0  0  0  0  0  0  0  0  0  0  0  0
  -27.6150  -16.0630   19.8500 H   0  0  0  0  0  0  0  0  0  0  0  0
  -31.0090  -23.0020   20.2460 C   0  0  0  0  0  2  0  0  0  0  0  0
  -30.5010  -24.3830   19.6300 C   0  0  0  0  0  3  0  0  0  0  0  0
  -31.4510  -25.2550   19.9780 F   0  0  0  0  0  0  0  0  0  0  0  0
  -29.1540  -25.0530   20.1000 C   0  0  0  0  0  2  0  0  0  0  0  0
  -29.1280  -26.5110   19.9350 O   0  0  0  0  0  0  0  0  0  0  0  0
  -24.9590  -31.4010   23.1510 C   0  0  0  0  0  0  0  0  0  0  0  0
  -27.9090  -27.1890   19.9550 C   0  0  0  0  0  0  0  0  0  0  0  0
  -23.8640  -29.9980   21.4380 C   0  0  0  0  0  3  0  0  0  0  0  0
  -25.4270  -28.5950   19.9830 C   0  0  0  0  0  0  0  0  0  0  0  0
  -26.3730  -30.4950   21.2970 C   0  0  0  0  0  2  0  0  0  0  0  0
  -26.5500  -29.1520   20.6080 C   0  0  0  0  0  0  0  0  0  0  0  0
  -27.7920  -28.4610   20.5810 C   0  0  0  0  0  3  0  0  0  0  0  0
  -26.7590  -26.6610   19.3220 C   0  0  0  0  0  3  0  0  0  0  0  0
  -25.5290  -27.3520   19.3360 C   0  0  0  0  0  3  0  0  0  0  0  0
  -24.1360  -29.3860   20.0380 C   0  0  0  0  0  2  0  0  0  0  0  0
  -25.0830  -30.6460   22.0220 N   0  0  0  0  0  0  0  0  0  0  0  0
  -23.8550  -31.5890   23.6820 O   0  0  0  0  0  0  0  0  0  0  0  0
  -23.2530  -28.9080   22.3470 C   0  0  0  0  0  0  0  0  0  0  0  0
  -21.9430  -28.6570   22.1880 N   0  0  0  0  0  0  0  0  0  0  0  0
  -23.9570  -28.2920   23.1520 O   0  0  0  0  0  0  0  0  0  0  0  0
  -21.4330  -29.2080   21.5110 H   0  0  0  0  0  0  0  0  0  0  0  0
  -18.6460  -27.2150   22.5390 C   0  0  0  0  0  0  0  0  0  0  0  0
  -21.1690  -27.6430   22.9060 C   0  0  0  0  0  3  0  0  0  0  0  0
  -21.3920  -26.2380   22.2960 C   0  0  0  0  0  2  0  0  0  0  0  0
  -20.3480  -25.8690   21.2380 C   0  0  0  0  0  2  0  0  0  0  0  0
  -18.9390  -25.9000   21.8370 C   0  0  0  0  0  2  0  0  0  0  0  0
  -19.6930  -28.0400   23.0280 C   0  0  0  0  0  0  0  0  0  0  0  0
  -19.3660  -29.2690   23.6420 C   0  0  0  0  0  3  0  0  0  0  0  0
  -18.0250  -29.6720   23.7750 C   0  0  0  0  0  3  0  0  0  0  0  0
  -16.9910  -28.8440   23.3040 C   0  0  0  0  0  3  0  0  0  0  0  0
  -17.3030  -27.6170   22.6910 C   0  0  0  0  0  3  0  0  0  0  0  0
  -26.1950  -32.0810   23.8190 C   0  0  0  0  0  3  0  0  0  0  0  0
  -25.7990  -33.4430   24.2010 N   0  0  0  0  0  0  0  0  0  0  0  0
  -26.0810  -34.5460   23.4940 C   0  0  0  0  0  0  0  0  0  0  0  0
  -26.7750  -34.5270   22.4730 O   0  0  0  0  0  0  0  0  0  0  0  0
  -25.1800  -33.5260   24.9930 H   0  0  0  0  0  0  0  0  0  0  0  0
  -24.2510  -36.2450   23.1910 C   0  0  0  0  0  1  0  0  0  0  0  0
  -25.5060  -35.8830   24.0000 C   0  0  0  0  0  3  0  0  0  0  0  0
  -27.5740  -36.8600   24.8910 C   0  0  0  0  0  1  0  0  0  0  0  0
  -26.4720  -37.0010   23.9440 N   0  0  0  0  0  0  0  0  0  0  0  0
  -26.0080  -37.8860   24.1280 H   0  0  0  0  0  0  0  0  0  0  0  0
  -26.7400  -31.2880   25.0700 C   0  0  1  0  0  0  0  0  0  0  0  0
  -25.6530  -30.9570   26.1190 C   0  0  0  0  0  1  0  0  0  0  0  0
  -27.3930  -29.9570   24.6290 C   0  0  0  0  0  1  0  0  0  0  0  0
  -27.8440  -32.1140   25.7730 C   0  0  0  0  0  1  0  0  0  0  0  0
  1  2  1  0
  2 51  1  0
  2  3  1  1
  4  2  1  0
  4  7  1  0
  5  7  2  0
  5  8  1  0
  6  9  1  0
  7 10  1  0
  8  6  2  0
  9 11  1  0
 10 12  1  0
 10  9  2  0
 13 21  1  0
 14 19  1  0
 15 16  1  0
 15 14  1  0
 17 16  1  0
 17 26  1  0
 17 18  1  0
 19 13  1  0
 19 18  1  0
 20 13  2  0
 21  8  1  0
 21 22  1  0
 23 24  2  0
 24 43  1  0
 25 24  1  0
 25 28  1  0
 26 27  1  0
 26 23  1  0
 27 25  2  0
 28 29  1  0
 29 30  2  0
 31 34  1  0
 31 30  1  0
 32 31  2  0
 33 32  1  0
 33 28  2  0
 34 35  1  0
 35 40  2  0
 35 36  1  0
 36 37  2  0
 37 38  1  0
 38 42  1  0
 39 38  2  0
 40 39  1  0
 41 40  1  0
 43 44  1  0
 44 47  1  0
 44 46  1  0
 45 43  2  0
 48 23  1  0
 48 49  1  0
 50 48  1  0
 52 53  1  0
 52 54  1  0
 52 51  1  0
 55 57  1  0
 55 54  1  0
 56 67  2  0
 57 62  1  0
 58 66  1  0
 58 68  1  0
 59 65  1  0
 59 61  1  0
 60 66  1  0
 61 60  1  0
 62 61  2  0
 63 64  1  0
 63 57  2  0
 64 59  2  0
 65 58  1  0
 66 56  1  0
 68 70  2  0
 69 68  1  0
 71 69  1  0
 72 81  2  0
 72 77  1  0
 73 69  1  0
 73 77  1  0
 74 73  1  0
 75 76  1  0
 75 74  1  0
 76 72  1  0
 77 78  2  0
 78 79  1  0
 80 79  2  0
 81 80  1  0
 82 56  1  0
 82 83  1  0
 82 92  1  0
 83 86  1  0
 84 88  1  0
 84 83  1  0
 85 84  2  0
 88 87  1  0
 90 88  1  0
 90 91  1  0
 90 89  1  0
 92 95  1  1
 92 93  1  0
 94 92  1  0
M  ISO  4  13 100  21 100  54 101  55 101
M  END
>  <TORSDO>  (7) 
F 21

>  <SCORE>  (7) 
-10.528

>  <name>  (7) 
6

>  <ligand_id>  (7) 
6

>  <original_smiles>  (7) 
[H]c1c([H])c([H])c2c(c1[H])C([H])([H])C([H])([H])C([H])([H])C2([H])N([H])C(=O)C1([H])N(C(=O)C([H])(N([H])C(=O)C([H])(N([H])C([H])([H])[H])C([H])([H])[H])C(C([H])([H])[H])(C([H])([H])[H])C([H])([H])[H])C([H])([H])c2c([H])c(OC([H])([H])C([H])(F)C([H])([H])[N+]([H])(C([H])([H])[H])C([H])([H])c3c([H])c(N([H])C(=O)N4C([H])([H])C([H])([H])C([H])([H])C([H])(n5nc(-c6c([H])c([H])c(Oc7c([H])c([H])c(F)c([H])c7F)c([H])c6[H])c(C(=O)N([H])[H])c5N([H])[H])C4([H])[H])c([H])c(F)c3F)c([H])c([H])c2C1([H])[H]

>  <smiles>  (7) 
[H]c1c([H])c([H])c2c(c1[H])C([H])([H])C([H])([H])C([H])([H])C2([H])N([H])C(=O)C1([H])N(C(=O)C([H])(N([H])C(=O)C([H])(N([H])C([H])([H])[H])C([H])([H])[H])C(C([H])([H])[H])(C([H])([H])[H])C([H])([H])[H])C([H])([H])c2c([H])c(OC([H])([H])C([H])(F)C([H])([H])[N+]([H])(C([H])([H])[H])C([H])([H])c3c([H])c(N([H])C(=O)N4C([H])([H])C([H])([H])C([H])([H])C([H])(n5nc(-c6c([H])c([H])c(Oc7c([H])c([H])c(F)c([H])c7F)c([H])c6[H])c(C(=O)N([H])[H])c5N([H])[H])C4([H])[H])c([H])c(F)c3F)c([H])c([H])c2C1([H])[H]

$$$$
7:0:0
     RDKit          3D

 93101  0  0  1  0  0  0  0  0999 V2000
  -28.0200  -22.2300   20.9810 C   0  0  0  0  0  2  0  0  0  0  0  0
  -28.3040  -19.7190   21.2260 C   0  0  0  0  0  3  0  0  0  0  0  0
  -28.8830  -18.4630   20.9110 C   0  0  0  0  0  3  0  0  0  0  0  0
  -29.7000  -20.8210   19.5790 C   0  0  0  0  0  3  0  0  0  0  0  0
  -28.7050  -20.9120   20.5750 C   0  0  0  0  0  0  0  0  0  0  0  0
  -29.8910  -18.3780   19.9280 C   0  0  0  0  0  0  0  0  0  0  0  0
  -30.2810  -19.5700   19.2620 C   0  0  0  0  0  0  0  0  0  0  0  0
  -31.2430  -19.5210   18.3080 F   0  0  0  0  0  0  0  0  0  0  0  0
  -30.6470  -17.0740   19.5970 C   0  0  0  0  0  2  0  0  0  0  0  0
  -30.9230  -14.6460   19.8500 C   0  0  0  0  0  0  0  0  0  0  0  0
  -30.5450  -12.4660   18.7860 C   0  0  0  0  0  2  0  0  0  0  0  0
  -29.5130  -12.6450   17.6530 C   0  0  0  0  0  2  0  0  0  0  0  0
  -28.0790  -12.4990   18.1960 C   0  0  0  0  0  2  0  0  0  0  0  0
  -27.8310  -13.3410   19.4780 C   0  0  0  0  0  3  0  0  0  0  0  0
  -28.9770  -13.1670   20.5020 C   0  0  0  0  0  2  0  0  0  0  0  0
  -30.2400  -13.4700   19.8180 N   0  0  0  0  0  0  0  0  0  0  0  0
  -32.0570  -14.7550   19.3770 O   0  0  0  0  0  0  0  0  0  0  0  0
  -30.2170  -15.7640   20.1450 N   0  0  0  0  0  0  0  0  0  0  0  0
  -29.2800  -15.6690   20.5020 H   0  0  0  0  0  0  0  0  0  0  0  0
  -25.5200  -13.9250   20.4390 C   0  0  0  0  0  0  0  0  0  0  0  0
  -24.4780  -13.1430   20.8570 C   0  0  0  0  0  0  0  0  0  0  0  0
  -24.9150  -11.7910   20.7110 C   0  0  0  0  0  0  0  0  0  0  0  0
  -26.5270  -13.0490   20.0670 N   0  0  0  0  0  0  0  0  0  0  0  0
  -26.1730  -11.7560   20.2870 N   0  0  0  0  0  0  0  0  0  0  0  0
  -24.1900  -10.5270   20.8930 C   0  0  0  0  0  0  0  0  0  0  0  0
  -24.5980   -9.5730   21.8500 C   0  0  0  0  0  3  0  0  0  0  0  0
  -23.8730   -8.3730   22.0180 C   0  0  0  0  0  3  0  0  0  0  0  0
  -22.7260   -8.1200   21.2300 C   0  0  0  0  0  0  0  0  0  0  0  0
  -22.3370   -9.0640   20.2630 C   0  0  0  0  0  3  0  0  0  0  0  0
  -23.0630  -10.2560   20.0940 C   0  0  0  0  0  3  0  0  0  0  0  0
  -21.9750   -6.9740   21.3080 O   0  0  0  0  0  0  0  0  0  0  0  0
  -21.7650   -6.3300   22.5010 C   0  0  0  0  0  0  0  0  0  0  0  0
  -21.1310   -6.9680   23.5910 C   0  0  0  0  0  3  0  0  0  0  0  0
  -20.8750   -6.2490   24.7750 C   0  0  0  0  0  3  0  0  0  0  0  0
  -21.2410   -4.8920   24.8690 C   0  0  0  0  0  0  0  0  0  0  0  0
  -21.8650   -4.2550   23.7820 C   0  0  0  0  0  3  0  0  0  0  0  0
  -22.1240   -4.9710   22.6020 C   0  0  0  0  0  0  0  0  0  0  0  0
  -22.7070   -4.3460   21.5500 F   0  0  0  0  0  0  0  0  0  0  0  0
  -20.9870   -4.1990   26.0030 F   0  0  0  0  0  0  0  0  0  0  0  0
  -23.1170  -13.6200   21.2770 C   0  0  0  0  0  0  0  0  0  0  0  0
  -22.4550  -12.8850   22.1640 N   0  0  0  0  0  0  0  0  0  0  0  0
  -22.6530  -14.6790   20.8550 O   0  0  0  0  0  0  0  0  0  0  0  0
  -22.8450  -12.0300   22.5320 H   0  0  0  0  0  0  0  0  0  0  0  0
  -21.5450  -13.1840   22.4840 H   0  0  0  0  0  0  0  0  0  0  0  0
  -25.6890  -15.3010   20.3250 N   0  0  0  0  0  0  0  0  0  0  0  0
  -24.9400  -15.9560   20.5240 H   0  0  0  0  0  0  0  0  0  0  0  0
  -26.5130  -15.7460   19.9420 H   0  0  0  0  0  0  0  0  0  0  0  0
  -29.1650  -24.4260   21.0050 C   0  0  0  0  0  0  0  0  0  0  0  0
  -28.3990  -23.5190   20.3680 N   0  0  0  0  0  0  0  0  0  0  0  0
  -30.2420  -24.1080   21.5100 O   0  0  0  0  0  0  0  0  0  0  0  0
  -27.6600  -23.9320   19.8160 H   0  0  0  0  0  0  0  0  0  0  0  0
  -28.5690  -25.8330   21.2770 C   0  0  0  0  0  2  0  0  0  0  0  0
  -28.5900  -26.7370   20.1540 O   0  0  0  0  0  0  0  0  0  0  0  0
  -24.6730  -31.8770   23.2110 C   0  0  0  0  0  0  0  0  0  0  0  0
  -27.4570  -27.5230   20.1170 C   0  0  0  0  0  0  0  0  0  0  0  0
  -23.5200  -30.4610   21.5400 C   0  0  0  0  0  3  0  0  0  0  0  0
  -25.0290  -28.9750   20.1160 C   0  0  0  0  0  0  0  0  0  0  0  0
  -26.0380  -30.8860   21.3720 C   0  0  0  0  0  2  0  0  0  0  0  0
  -26.1690  -29.5210   20.7220 C   0  0  0  0  0  0  0  0  0  0  0  0
  -27.3890  -28.8000   20.7250 C   0  0  0  0  0  3  0  0  0  0  0  0
  -26.3060  -26.9990   19.4980 C   0  0  0  0  0  3  0  0  0  0  0  0
  -25.0920  -27.7110   19.5040 C   0  0  0  0  0  3  0  0  0  0  0  0
  -23.7610  -29.8000   20.1560 C   0  0  0  0  0  2  0  0  0  0  0  0
  -24.7610  -31.0890   22.1010 N   0  0  0  0  0  0  0  0  0  0  0  0
  -23.5790  -32.1130   23.7420 O   0  0  0  0  0  0  0  0  0  0  0  0
  -22.8780  -29.4190   22.4860 C   0  0  0  0  0  0  0  0  0  0  0  0
  -21.5670  -29.1820   22.3200 N   0  0  0  0  0  0  0  0  0  0  0  0
  -23.5610  -28.8240   23.3240 O   0  0  0  0  0  0  0  0  0  0  0  0
  -21.0850  -29.6770   21.5830 H   0  0  0  0  0  0  0  0  0  0  0  0
  -18.2280  -27.8640   22.7400 C   0  0  0  0  0  0  0  0  0  0  0  0
  -20.7650  -28.2240   23.0810 C   0  0  0  0  0  3  0  0  0  0  0  0
  -20.9360  -26.7950   22.5230 C   0  0  0  0  0  2  0  0  0  0  0  0
  -19.8790  -26.4300   21.4730 C   0  0  0  0  0  2  0  0  0  0  0  0
  -18.4790  -26.5140   22.0850 C   0  0  0  0  0  2  0  0  0  0  0  0
  -19.3040  -28.6720   23.1960 C   0  0  0  0  0  0  0  0  0  0  0  0
  -19.0190  -29.9260   23.7810 C   0  0  0  0  0  3  0  0  0  0  0  0
  -17.6910  -30.3780   23.9050 C   0  0  0  0  0  3  0  0  0  0  0  0
  -16.6310  -29.5710   23.4570 C   0  0  0  0  0  3  0  0  0  0  0  0
  -16.9000  -28.3150   22.8840 C   0  0  0  0  0  3  0  0  0  0  0  0
  -25.9350  -32.5330   23.8520 C   0  0  0  0  0  3  0  0  0  0  0  0
  -26.4440  -31.7740   25.1390 C   0  0  1  0  0  0  0  0  0  0  0  0
  -25.3360  -31.5130   26.1860 C   0  0  0  0  0  1  0  0  0  0  0  0
  -27.0650  -30.4100   24.7570 C   0  0  0  0  0  1  0  0  0  0  0  0
  -27.5640  -32.5950   25.8230 C   0  0  0  0  0  1  0  0  0  0  0  0
  -25.5970  -33.9270   24.1730 N   0  0  0  0  0  0  0  0  0  0  0  0
  -25.9330  -34.9820   23.4190 C   0  0  0  0  0  0  0  0  0  0  0  0
  -26.6280  -34.8870   22.4030 O   0  0  0  0  0  0  0  0  0  0  0  0
  -24.9830  -34.0730   24.9600 H   0  0  0  0  0  0  0  0  0  0  0  0
  -24.1950  -36.7530   23.0050 C   0  0  0  0  0  1  0  0  0  0  0  0
  -25.4120  -36.3640   23.8590 C   0  0  0  0  0  3  0  0  0  0  0  0
  -27.4990  -37.2800   24.7700 C   0  0  0  0  0  1  0  0  0  0  0  0
  -26.4350  -37.4290   23.7820 N   0  0  0  0  0  0  0  0  0  0  0  0
  -26.0120  -38.3440   23.9090 H   0  0  0  0  0  0  0  0  0  0  0  0
  3  2  1  0
  4  5  1  0
  5  1  1  0
  5  2  2  0
  6  3  2  0
  7  4  2  0
  7  6  1  0
  8  7  1  0
  9  6  1  0
  9 18  1  0
 10 18  1  0
 11 16  1  0
 12 13  1  0
 12 11  1  0
 14 13  1  0
 14 23  1  0
 14 15  1  0
 16 10  1  0
 16 15  1  0
 17 10  2  0
 18 19  1  0
 20 21  2  0
 21 40  1  0
 22 21  1  0
 22 25  1  0
 23 24  1  0
 23 20  1  0
 24 22  2  0
 25 26  1  0
 26 27  2  0
 28 31  1  0
 28 27  1  0
 29 28  2  0
 30 29  1  0
 30 25  2  0
 31 32  1  0
 32 37  2  0
 32 33  1  0
 33 34  2  0
 34 35  1  0
 35 39  1  0
 36 35  2  0
 37 36  1  0
 38 37  1  0
 40 41  1  0
 41 44  1  0
 41 43  1  0
 42 40  2  0
 45 20  1  0
 45 46  1  0
 47 45  1  0
 48 52  1  0
 48 50  2  0
 49  1  1  0
 49 48  1  0
 51 49  1  0
 53 52  1  0
 54 65  2  0
 55 53  1  0
 55 60  1  0
 56 64  1  0
 56 66  1  0
 57 63  1  0
 57 59  1  0
 58 64  1  0
 59 60  2  0
 59 58  1  0
 61 62  1  0
 61 55  2  0
 62 57  2  0
 63 56  1  0
 64 54  1  0
 66 68  2  0
 67 66  1  0
 69 67  1  0
 70 79  2  0
 70 75  1  0
 71 67  1  0
 71 75  1  0
 72 71  1  0
 73 74  1  0
 73 72  1  0
 74 70  1  0
 75 76  2  0
 76 77  1  0
 78 77  2  0
 79 78  1  0
 80 54  1  0
 80 85  1  0
 80 81  1  0
 81 84  1  1
 81 82  1  0
 83 81  1  0
 85 88  1  0
 86 90  1  0
 86 85  1  0
 87 86  2  0
 90 89  1  0
 92 90  1  0
 92 93  1  0
 92 91  1  0
M  ISO  4  10 100  18 100  52 101  53 101
M  END
>  <TORSDO>  (8) 
F 20

>  <SCORE>  (8) 
-12.559

>  <name>  (8) 
7

>  <ligand_id>  (8) 
7

>  <original_smiles>  (8) 
[H]c1c([H])c([H])c2c(c1[H])C([H])([H])C([H])([H])C([H])([H])C2([H])N([H])C(=O)C1([H])N(C(=O)C([H])(N([H])C(=O)C([H])(N([H])C([H])([H])[H])C([H])([H])[H])C(C([H])([H])[H])(C([H])([H])[H])C([H])([H])[H])C([H])([H])c2c([H])c(OC([H])([H])C(=O)N([H])C([H])([H])c3c([H])c([H])c(C([H])([H])N([H])C(=O)N4C([H])([H])C([H])([H])C([H])([H])C([H])(n5nc(-c6c([H])c([H])c(Oc7c([H])c([H])c(F)c([H])c7F)c([H])c6[H])c(C(=O)N([H])[H])c5N([H])[H])C4([H])[H])c(F)c3[H])c([H])c([H])c2C1([H])[H]

>  <smiles>  (8) 
[H]c1c([H])c([H])c2c(c1[H])C([H])([H])C([H])([H])C([H])([H])C2([H])N([H])C(=O)C1([H])N(C(=O)C([H])(N([H])C(=O)C([H])(N([H])C([H])([H])[H])C([H])([H])[H])C(C([H])([H])[H])(C([H])([H])[H])C([H])([H])[H])C([H])([H])c2c([H])c(OC([H])([H])C(=O)N([H])C([H])([H])c3c([H])c([H])c(C([H])([H])N([H])C(=O)N4C([H])([H])C([H])([H])C([H])([H])C([H])(n5nc(-c6c([H])c([H])c(Oc7c([H])c([H])c(F)c([H])c7F)c([H])c6[H])c(C(=O)N([H])[H])c5N([H])[H])C4([H])[H])c(F)c3[H])c([H])c([H])c2C1([H])[H]

$$$$
8:0:0
     RDKit          3D

 97105  0  0  1  0  0  0  0  0999 V2000
  -27.3110  -19.6630   20.0950 C   0  0  0  0  0  0  0  0  0  0  0  0
  -27.3840  -20.7270   19.2860 N   0  0  0  0  0  0  0  0  0  0  0  0
  -26.5950  -19.6440   21.1010 O   0  0  0  0  0  0  0  0  0  0  0  0
  -27.9760  -20.6180   18.4700 H   0  0  0  0  0  0  0  0  0  0  0  0
  -28.7250  -17.6950   20.8240 C   0  0  0  0  0  3  0  0  0  0  0  0
  -29.6170  -16.6310   20.5700 C   0  0  0  0  0  3  0  0  0  0  0  0
  -29.4920  -17.1360   18.1930 C   0  0  0  0  0  3  0  0  0  0  0  0
  -28.2260  -18.5050   19.7730 C   0  0  0  0  0  0  0  0  0  0  0  0
  -30.0110  -16.3540   19.2440 C   0  0  0  0  0  0  0  0  0  0  0  0
  -28.6060  -18.1980   18.4440 C   0  0  0  0  0  0  0  0  0  0  0  0
  -28.1530  -18.9190   17.3870 F   0  0  0  0  0  0  0  0  0  0  0  0
  -31.6720  -14.5010   19.5900 C   0  0  0  0  0  0  0  0  0  0  0  0
  -31.3710  -12.1620   19.0020 C   0  0  0  0  0  2  0  0  0  0  0  0
  -30.3800  -12.1290   17.8200 C   0  0  0  0  0  2  0  0  0  0  0  0
  -28.9250  -12.0670   18.3300 C   0  0  0  0  0  2  0  0  0  0  0  0
  -28.6170  -13.1320   19.4170 C   0  0  0  0  0  3  0  0  0  0  0  0
  -29.7300  -13.1760   20.4900 C   0  0  0  0  0  2  0  0  0  0  0  0
  -31.0210  -13.3330   19.8110 N   0  0  0  0  0  0  0  0  0  0  0  0
  -32.8810  -14.5840   19.3890 O   0  0  0  0  0  0  0  0  0  0  0  0
  -30.9360  -15.3520   18.8680 N   0  0  0  0  0  0  0  0  0  0  0  0
  -31.4130  -15.5810   18.0090 H   0  0  0  0  0  0  0  0  0  0  0  0
  -26.3480  -13.8840   20.3650 C   0  0  0  0  0  0  0  0  0  0  0  0
  -25.2560  -13.1770   20.7910 C   0  0  0  0  0  0  0  0  0  0  0  0
  -25.6100  -11.7980   20.6720 C   0  0  0  0  0  0  0  0  0  0  0  0
  -27.2980  -12.9380   20.0100 N   0  0  0  0  0  0  0  0  0  0  0  0
  -26.8630  -11.6770   20.2570 N   0  0  0  0  0  0  0  0  0  0  0  0
  -24.8110  -10.5830   20.8730 C   0  0  0  0  0  0  0  0  0  0  0  0
  -25.1470   -9.6310   21.8590 C   0  0  0  0  0  3  0  0  0  0  0  0
  -24.3510   -8.4790   22.0440 C   0  0  0  0  0  3  0  0  0  0  0  0
  -23.2050   -8.2730   21.2400 C   0  0  0  0  0  0  0  0  0  0  0  0
  -22.8900   -9.2110   20.2430 C   0  0  0  0  0  3  0  0  0  0  0  0
  -23.6850  -10.3550   20.0580 C   0  0  0  0  0  3  0  0  0  0  0  0
  -22.3890   -7.1720   21.3290 O   0  0  0  0  0  0  0  0  0  0  0  0
  -22.1330   -6.5630   22.5300 C   0  0  0  0  0  0  0  0  0  0  0  0
  -21.5370   -7.2570   23.6050 C   0  0  0  0  0  3  0  0  0  0  0  0
  -21.2300   -6.5750   24.7990 C   0  0  0  0  0  3  0  0  0  0  0  0
  -21.5060   -5.1990   24.9170 C   0  0  0  0  0  0  0  0  0  0  0  0
  -22.0970   -4.5060   23.8450 C   0  0  0  0  0  3  0  0  0  0  0  0
  -22.4060   -5.1870   22.6550 C   0  0  0  0  0  0  0  0  0  0  0  0
  -22.9540   -4.5090   21.6170 F   0  0  0  0  0  0  0  0  0  0  0  0
  -21.2040   -4.5410   26.0600 F   0  0  0  0  0  0  0  0  0  0  0  0
  -23.9260  -13.7440   21.1940 C   0  0  0  0  0  0  0  0  0  0  0  0
  -23.2200  -13.0680   22.0930 N   0  0  0  0  0  0  0  0  0  0  0  0
  -23.5240  -14.8180   20.7470 O   0  0  0  0  0  0  0  0  0  0  0  0
  -23.5560  -12.1950   22.4690 H   0  0  0  0  0  0  0  0  0  0  0  0
  -22.3280  -13.4270   22.4050 H   0  0  0  0  0  0  0  0  0  0  0  0
  -26.6120  -15.2440   20.2330 N   0  0  0  0  0  0  0  0  0  0  0  0
  -25.9480  -15.9620   20.5030 H   0  0  0  0  0  0  0  0  0  0  0  0
  -27.5110  -15.6120   19.9560 H   0  0  0  0  0  0  0  0  0  0  0  0
  -26.7120  -22.0110   19.4630 C   0  0  0  0  0  2  0  0  0  0  0  0
  -27.6080  -23.0010   20.2310 C   0  0  0  0  0  2  0  0  0  0  0  0
  -29.1390  -24.8520   19.6090 C   0  0  0  0  0  0  0  0  0  0  0  0
  -28.0840  -24.0680   19.3550 N   0  0  0  0  0  0  0  0  0  0  0  0
  -29.8530  -24.6990   20.6050 O   0  0  0  0  0  0  0  0  0  0  0  0
  -27.5460  -24.2530   18.5210 H   0  0  0  0  0  0  0  0  0  0  0  0
  -29.4360  -25.9900   18.6200 C   0  0  0  0  0  2  0  0  0  0  0  0
  -29.1730  -27.2590   19.2290 O   0  0  0  0  0  0  0  0  0  0  0  0
  -24.6490  -31.3320   22.8930 C   0  0  0  0  0  0  0  0  0  0  0  0
  -27.8840  -27.7470   19.3000 C   0  0  0  0  0  0  0  0  0  0  0  0
  -23.6470  -30.0120   21.0560 C   0  0  0  0  0  3  0  0  0  0  0  0
  -25.2970  -28.8860   19.4770 C   0  0  0  0  0  0  0  0  0  0  0  0
  -26.1020  -30.7320   20.9600 C   0  0  0  0  0  2  0  0  0  0  0  0
  -26.3720  -29.4820   20.1470 C   0  0  0  0  0  0  0  0  0  0  0  0
  -27.6630  -28.9170   20.0590 C   0  0  0  0  0  3  0  0  0  0  0  0
  -26.7820  -27.1530   18.6410 C   0  0  0  0  0  3  0  0  0  0  0  0
  -25.4960  -27.7160   18.7270 C   0  0  0  0  0  3  0  0  0  0  0  0
  -23.9500  -29.5560   19.6040 C   0  0  0  0  0  2  0  0  0  0  0  0
  -24.8160  -30.7010   21.6970 N   0  0  0  0  0  0  0  0  0  0  0  0
  -23.5390  -31.3800   23.4400 O   0  0  0  0  0  0  0  0  0  0  0  0
  -23.1400  -28.7940   21.8580 C   0  0  0  0  0  0  0  0  0  0  0  0
  -21.8530  -28.4530   21.6790 N   0  0  0  0  0  0  0  0  0  0  0  0
  -23.9000  -28.1630   22.5980 O   0  0  0  0  0  0  0  0  0  0  0  0
  -21.2960  -29.0230   21.0560 H   0  0  0  0  0  0  0  0  0  0  0  0
  -18.6700  -26.7680   21.9500 C   0  0  0  0  0  0  0  0  0  0  0  0
  -21.1710  -27.3190   22.3000 C   0  0  0  0  0  3  0  0  0  0  0  0
  -21.4610  -26.0110   21.5280 C   0  0  0  0  0  2  0  0  0  0  0  0
  -20.4090  -25.7000   20.4600 C   0  0  0  0  0  2  0  0  0  0  0  0
  -19.0260  -25.5570   21.1010 C   0  0  0  0  0  2  0  0  0  0  0  0
  -19.6800  -27.6030   22.5000 C   0  0  0  0  0  0  0  0  0  0  0  0
  -19.2980  -28.7330   23.2540 C   0  0  0  0  0  3  0  0  0  0  0  0
  -17.9400  -29.0340   23.4630 C   0  0  0  0  0  3  0  0  0  0  0  0
  -16.9450  -28.1970   22.9300 C   0  0  0  0  0  3  0  0  0  0  0  0
  -17.3090  -27.0650   22.1790 C   0  0  0  0  0  3  0  0  0  0  0  0
  -25.8370  -32.0400   23.6160 C   0  0  0  0  0  3  0  0  0  0  0  0
  -25.3680  -33.3640   24.0390 N   0  0  0  0  0  0  0  0  0  0  0  0
  -25.6210  -34.5050   23.3830 C   0  0  0  0  0  0  0  0  0  0  0  0
  -26.3440  -34.5570   22.3830 O   0  0  0  0  0  0  0  0  0  0  0  0
  -24.7260  -33.3910   24.8150 H   0  0  0  0  0  0  0  0  0  0  0  0
  -23.7230  -36.1260   23.0820 C   0  0  0  0  0  1  0  0  0  0  0  0
  -24.9680  -35.7930   23.9190 C   0  0  0  0  0  3  0  0  0  0  0  0
  -26.9580  -36.8300   24.9150 C   0  0  0  0  0  1  0  0  0  0  0  0
  -25.8830  -36.9540   23.9340 N   0  0  0  0  0  0  0  0  0  0  0  0
  -25.3710  -37.8120   24.1270 H   0  0  0  0  0  0  0  0  0  0  0  0
  -26.3920  -31.2230   24.8480 C   0  0  1  0  0  0  0  0  0  0  0  0
  -25.2980  -30.7870   25.8500 C   0  0  0  0  0  1  0  0  0  0  0  0
  -27.1300  -29.9510   24.3710 C   0  0  0  0  0  1  0  0  0  0  0  0
  -27.4310  -32.0750   25.6150 C   0  0  0  0  0  1  0  0  0  0  0  0
  1  3  2  0
  2 50  1  0
  2  1  1  0
  4  2  1  0
  6  5  1  0
  7 10  2  0
  7  9  1  0
  8  1  1  0
  8  5  2  0
  9  6  2  0
 10  8  1  0
 11 10  1  0
 12 18  1  0
 13 18  1  0
 14 15  1  0
 14 13  1  0
 16 15  1  0
 16 25  1  0
 16 17  1  0
 18 17  1  0
 19 12  2  0
 20  9  1  0
 20 12  1  0
 21 20  1  0
 22 23  2  0
 23 42  1  0
 24 23  1  0
 24 27  1  0
 25 26  1  0
 25 22  1  0
 26 24  2  0
 27 28  1  0
 28 29  2  0
 30 33  1  0
 30 29  1  0
 31 30  2  0
 32 31  1  0
 32 27  2  0
 33 34  1  0
 34 39  2  0
 34 35  1  0
 35 36  2  0
 36 37  1  0
 37 41  1  0
 38 37  2  0
 39 38  1  0
 40 39  1  0
 42 43  1  0
 43 46  1  0
 43 45  1  0
 44 42  2  0
 47 22  1  0
 47 48  1  0
 49 47  1  0
 50 51  1  0
 52 54  2  0
 53 52  1  0
 53 51  1  0
 55 53  1  0
 56 57  1  0
 56 52  1  0
 57 59  1  0
 58 69  2  0
 59 64  1  0
 60 68  1  0
 60 70  1  0
 61 67  1  0
 61 63  1  0
 62 68  1  0
 63 62  1  0
 64 63  2  0
 65 66  1  0
 65 59  2  0
 66 61  2  0
 67 60  1  0
 68 58  1  0
 70 72  2  0
 71 70  1  0
 73 71  1  0
 74 83  2  0
 74 79  1  0
 75 71  1  0
 75 79  1  0
 76 75  1  0
 77 78  1  0
 77 76  1  0
 78 74  1  0
 79 80  2  0
 80 81  1  0
 82 81  2  0
 83 82  1  0
 84 58  1  0
 84 85  1  0
 84 94  1  0
 85 88  1  0
 86 90  1  0
 86 85  1  0
 87 86  2  0
 90 89  1  0
 90 92  1  0
 92 93  1  0
 92 91  1  0
 94 97  1  1
 94 95  1  0
 96 94  1  0
M  ISO  4  12 100  20 100  56 101  57 101
M  END
>  <TORSDO>  (9) 
F 21

>  <SCORE>  (9) 
-7.865

>  <name>  (9) 
8

>  <ligand_id>  (9) 
8

>  <original_smiles>  (9) 
[H]c1c([H])c([H])c2c(c1[H])C([H])([H])C([H])([H])C([H])([H])C2([H])N([H])C(=O)C1([H])N(C(=O)C([H])(N([H])C(=O)C([H])(N([H])C([H])([H])[H])C([H])([H])[H])C(C([H])([H])[H])(C([H])([H])[H])C([H])([H])[H])C([H])([H])c2c([H])c(OC([H])([H])C(=O)N([H])C([H])([H])C([H])([H])N([H])C(=O)c3c([H])c([H])c(N([H])C(=O)N4C([H])([H])C([H])([H])C([H])([H])C([H])(n5nc(-c6c([H])c([H])c(Oc7c([H])c([H])c(F)c([H])c7F)c([H])c6[H])c(C(=O)N([H])[H])c5N([H])[H])C4([H])[H])c([H])c3F)c([H])c([H])c2C1([H])[H]

>  <smiles>  (9) 
[H]c1c([H])c([H])c2c(c1[H])C([H])([H])C([H])([H])C([H])([H])C2([H])N([H])C(=O)C1([H])N(C(=O)C([H])(N([H])C(=O)C([H])(N([H])C([H])([H])[H])C([H])([H])[H])C(C([H])([H])[H])(C([H])([H])[H])C([H])([H])[H])C([H])([H])c2c([H])c(OC([H])([H])C(=O)N([H])C([H])([H])C([H])([H])N([H])C(=O)c3c([H])c([H])c(N([H])C(=O)N4C([H])([H])C([H])([H])C([H])([H])C([H])(n5nc(-c6c([H])c([H])c(Oc7c([H])c([H])c(F)c([H])c7F)c([H])c6[H])c(C(=O)N([H])[H])c5N([H])[H])C4([H])[H])c([H])c3F)c([H])c([H])c2C1([H])[H]

$$$$
9:0:0
     RDKit          3D

 93101  0  0  1  0  0  0  0  0999 V2000
  -29.2780  -22.0320   20.6620 C   0  0  0  0  0  2  0  0  0  0  0  0
  -29.6970  -20.9960   19.5990 C   0  0  0  0  0  0  0  0  0  0  0  0
  -29.6870  -17.7790   21.5130 C   0  0  0  0  0  2  0  0  0  0  0  0
  -30.2290  -17.3890   19.1220 C   0  0  0  0  0  2  0  0  0  0  0  0
  -30.1130  -19.2600   21.3670 C   0  0  0  0  0  2  0  0  0  0  0  0
  -30.7040  -18.8410   18.9850 C   0  0  0  0  0  2  0  0  0  0  0  0
  -30.4650  -16.8710   20.5500 C   0  0  0  0  0  3  0  0  0  0  0  0
  -30.0690  -19.7410   19.9680 N   0  0  0  0  0  0  0  0  0  0  0  0
  -29.7080  -21.3610   18.4160 O   0  0  0  0  0  0  0  0  0  0  0  0
  -30.7700  -14.4400   20.1350 C   0  0  0  0  0  0  0  0  0  0  0  0
  -30.3970  -12.3220   18.9500 C   0  0  0  0  0  2  0  0  0  0  0  0
  -29.3960  -12.5740   17.8040 C   0  0  0  0  0  2  0  0  0  0  0  0
  -27.9470  -12.4310   18.3050 C   0  0  0  0  0  2  0  0  0  0  0  0
  -27.6790  -13.2330   19.6080 C   0  0  0  0  0  3  0  0  0  0  0  0
  -28.7880  -12.9730   20.6530 C   0  0  0  0  0  2  0  0  0  0  0  0
  -30.0850  -13.2740   20.0250 N   0  0  0  0  0  0  0  0  0  0  0  0
  -31.8740  -14.6250   19.6160 O   0  0  0  0  0  0  0  0  0  0  0  0
  -30.0830  -15.4610   20.6750 N   0  0  0  0  0  0  0  0  0  0  0  0
  -29.1780  -15.2460   21.0680 H   0  0  0  0  0  0  0  0  0  0  0  0
  -25.3150  -13.8220   20.4390 C   0  0  0  0  0  0  0  0  0  0  0  0
  -24.2690  -13.0410   20.8500 C   0  0  0  0  0  0  0  0  0  0  0  0
  -24.7330  -11.6920   20.7800 C   0  0  0  0  0  0  0  0  0  0  0  0
  -26.3510  -12.9480   20.1470 N   0  0  0  0  0  0  0  0  0  0  0  0
  -26.0060  -11.6610   20.4080 N   0  0  0  0  0  0  0  0  0  0  0  0
  -24.0230  -10.4230   20.9890 C   0  0  0  0  0  0  0  0  0  0  0  0
  -24.4680   -9.4750   21.9370 C   0  0  0  0  0  3  0  0  0  0  0  0
  -23.7580   -8.2710   22.1330 C   0  0  0  0  0  3  0  0  0  0  0  0
  -22.5880   -8.0070   21.3830 C   0  0  0  0  0  0  0  0  0  0  0  0
  -22.1620   -8.9430   20.4240 C   0  0  0  0  0  3  0  0  0  0  0  0
  -22.8730  -10.1390   20.2260 C   0  0  0  0  0  3  0  0  0  0  0  0
  -21.8490   -6.8540   21.4870 O   0  0  0  0  0  0  0  0  0  0  0  0
  -21.7580   -6.1620   22.6680 C   0  0  0  0  0  0  0  0  0  0  0  0
  -21.2460   -6.7550   23.8420 C   0  0  0  0  0  3  0  0  0  0  0  0
  -21.1060   -5.9870   25.0150 C   0  0  0  0  0  3  0  0  0  0  0  0
  -21.4670   -4.6260   25.0150 C   0  0  0  0  0  0  0  0  0  0  0  0
  -21.9730   -4.0330   23.8440 C   0  0  0  0  0  3  0  0  0  0  0  0
  -22.1150   -4.7970   22.6740 C   0  0  0  0  0  0  0  0  0  0  0  0
  -22.5820   -4.2150   21.5440 F   0  0  0  0  0  0  0  0  0  0  0  0
  -21.3260   -3.8870   26.1390 F   0  0  0  0  0  0  0  0  0  0  0  0
  -22.8850  -13.5070   21.1980 C   0  0  0  0  0  0  0  0  0  0  0  0
  -22.2030  -12.7950   22.0880 N   0  0  0  0  0  0  0  0  0  0  0  0
  -22.4180  -14.5400   20.7160 O   0  0  0  0  0  0  0  0  0  0  0  0
  -22.5940  -11.9610   22.4990 H   0  0  0  0  0  0  0  0  0  0  0  0
  -21.2770  -13.0890   22.3630 H   0  0  0  0  0  0  0  0  0  0  0  0
  -25.4650  -15.1960   20.2710 N   0  0  0  0  0  0  0  0  0  0  0  0
  -24.7030  -15.8460   20.4230 H   0  0  0  0  0  0  0  0  0  0  0  0
  -26.2960  -15.6420   19.9000 H   0  0  0  0  0  0  0  0  0  0  0  0
  -28.3910  -24.3400   20.1990 C   0  0  0  0  0  0  0  0  0  0  0  0
  -29.3260  -23.3870   20.1010 N   0  0  0  0  0  0  0  0  0  0  0  0
  -27.3840  -24.2060   20.8960 O   0  0  0  0  0  0  0  0  0  0  0  0
  -30.0980  -23.5630   19.4730 H   0  0  0  0  0  0  0  0  0  0  0  0
  -28.6350  -25.6270   19.3890 C   0  0  0  0  0  2  0  0  0  0  0  0
  -28.4350  -26.7970   20.1910 O   0  0  0  0  0  0  0  0  0  0  0  0
  -24.5540  -31.8960   23.2400 C   0  0  0  0  0  0  0  0  0  0  0  0
  -27.2270  -27.4670   20.1690 C   0  0  0  0  0  0  0  0  0  0  0  0
  -23.3590  -30.4970   21.5860 C   0  0  0  0  0  3  0  0  0  0  0  0
  -24.8220  -28.9600   20.1730 C   0  0  0  0  0  0  0  0  0  0  0  0
  -25.8850  -30.8560   21.4100 C   0  0  0  0  0  2  0  0  0  0  0  0
  -25.9740  -29.4860   20.7720 C   0  0  0  0  0  0  0  0  0  0  0  0
  -27.1730  -28.7420   20.7720 C   0  0  0  0  0  3  0  0  0  0  0  0
  -26.0500  -26.9460   19.5800 C   0  0  0  0  0  3  0  0  0  0  0  0
  -24.8540  -27.6870   19.5790 C   0  0  0  0  0  3  0  0  0  0  0  0
  -23.5790  -29.8180   20.2070 C   0  0  0  0  0  2  0  0  0  0  0  0
  -24.6170  -31.0980   22.1370 N   0  0  0  0  0  0  0  0  0  0  0  0
  -23.4680  -32.1690   23.7720 O   0  0  0  0  0  0  0  0  0  0  0  0
  -22.7000  -29.4740   22.5390 C   0  0  0  0  0  0  0  0  0  0  0  0
  -21.3800  -29.2870   22.3930 N   0  0  0  0  0  0  0  0  0  0  0  0
  -23.3760  -28.8530   23.3640 O   0  0  0  0  0  0  0  0  0  0  0  0
  -20.8970  -29.8410   21.6980 H   0  0  0  0  0  0  0  0  0  0  0  0
  -18.0010  -28.0940   22.8470 C   0  0  0  0  0  0  0  0  0  0  0  0
  -20.5540  -28.3490   23.1510 C   0  0  0  0  0  3  0  0  0  0  0  0
  -20.6630  -26.9190   22.5740 C   0  0  0  0  0  2  0  0  0  0  0  0
  -19.5730  -26.5990   21.5460 C   0  0  0  0  0  2  0  0  0  0  0  0
  -18.1830  -26.7450   22.1730 C   0  0  0  0  0  2  0  0  0  0  0  0
  -19.1140  -28.8530   23.2920 C   0  0  0  0  0  0  0  0  0  0  0  0
  -18.8900  -30.1170   23.8810 C   0  0  0  0  0  3  0  0  0  0  0  0
  -17.5840  -30.6200   24.0300 C   0  0  0  0  0  3  0  0  0  0  0  0
  -16.4840  -29.8570   23.6030 C   0  0  0  0  0  3  0  0  0  0  0  0
  -16.6930  -28.5960   23.0170 C   0  0  0  0  0  3  0  0  0  0  0  0
  -25.8360  -32.5230   23.8720 C   0  0  0  0  0  3  0  0  0  0  0  0
  -26.3440  -31.7470   25.1490 C   0  0  1  0  0  0  0  0  0  0  0  0
  -25.2430  -31.5030   26.2070 C   0  0  0  0  0  1  0  0  0  0  0  0
  -26.9320  -30.3730   24.7520 C   0  0  0  0  0  1  0  0  0  0  0  0
  -27.4880  -32.5400   25.8230 C   0  0  0  0  0  1  0  0  0  0  0  0
  -25.5260  -33.9200   24.2010 N   0  0  0  0  0  0  0  0  0  0  0  0
  -25.8710  -34.9730   23.4480 C   0  0  0  0  0  0  0  0  0  0  0  0
  -26.5560  -34.8710   22.4260 O   0  0  0  0  0  0  0  0  0  0  0  0
  -24.9220  -34.0760   24.9950 H   0  0  0  0  0  0  0  0  0  0  0  0
  -24.1600  -36.7730   23.0630 C   0  0  0  0  0  1  0  0  0  0  0  0
  -25.3800  -36.3610   23.9010 C   0  0  0  0  0  3  0  0  0  0  0  0
  -27.4960  -37.2340   24.7870 C   0  0  0  0  0  1  0  0  0  0  0  0
  -26.4200  -37.4100   23.8170 N   0  0  0  0  0  0  0  0  0  0  0  0
  -26.0140  -38.3320   23.9570 H   0  0  0  0  0  0  0  0  0  0  0  0
  2  8  1  0
  2  1  1  0
  4  7  1  0
  5  3  1  0
  6  4  1  0
  6  8  1  0
  7 18  1  0
  7  3  1  0
  8  5  1  0
  9  2  2  0
 10 18  1  0
 11 16  1  0
 12 13  1  0
 12 11  1  0
 14 13  1  0
 14 23  1  0
 14 15  1  0
 16 10  1  0
 16 15  1  0
 17 10  2  0
 18 19  1  0
 20 21  2  0
 21 40  1  0
 22 21  1  0
 22 25  1  0
 23 24  1  0
 23 20  1  0
 24 22  2  0
 25 26  1  0
 26 27  2  0
 28 31  1  0
 28 27  1  0
 29 28  2  0
 30 29  1  0
 30 25  2  0
 31 32  1  0
 32 37  2  0
 32 33  1  0
 33 34  2  0
 34 35  1  0
 35 39  1  0
 36 35  2  0
 37 36  1  0
 38 37  1  0
 40 41  1  0
 41 44  1  0
 41 43  1  0
 42 40  2  0
 45 46  1  0
 45 20  1  0
 47 45  1  0
 48 50  2  0
 49 48  1  0
 49  1  1  0
 51 49  1  0
 52 53  1  0
 52 48  1  0
 54 65  2  0
 55 53  1  0
 55 60  1  0
 56 64  1  0
 56 66  1  0
 57 63  1  0
 57 59  1  0
 58 64  1  0
 59 60  2  0
 59 58  1  0
 61 55  2  0
 62 61  1  0
 62 57  2  0
 63 56  1  0
 64 54  1  0
 66 68  2  0
 67 66  1  0
 69 67  1  0
 70 79  2  0
 70 75  1  0
 71 67  1  0
 71 75  1  0
 72 71  1  0
 73 74  1  0
 73 72  1  0
 74 70  1  0
 75 76  2  0
 76 77  1  0
 78 77  2  0
 79 78  1  0
 80 54  1  0
 80 85  1  0
 80 81  1  0
 81 84  1  1
 81 82  1  0
 83 81  1  0
 85 88  1  0
 86 90  1  0
 86 85  1  0
 87 86  2  0
 90 89  1  0
 92 90  1  0
 92 93  1  0
 92 91  1  0
M  ISO  4  10 100  18 100  52 101  53 101
M  END
>  <TORSDO>  (10) 
F 19

>  <SCORE>  (10) 
-13.907

>  <name>  (10) 
9

>  <ligand_id>  (10) 
9

>  <original_smiles>  (10) 
[H]c1c([H])c([H])c2c(c1[H])C([H])([H])C([H])([H])C([H])([H])C2([H])N([H])C(=O)C1([H])N(C(=O)C([H])(N([H])C(=O)C([H])(N([H])C([H])([H])[H])C([H])([H])[H])C(C([H])([H])[H])(C([H])([H])[H])C([H])([H])[H])C([H])([H])c2c([H])c(OC([H])([H])C(=O)N([H])C([H])([H])C(=O)N3C([H])([H])C([H])([H])C([H])(N([H])C(=O)N4C([H])([H])C([H])([H])C([H])([H])C([H])(n5nc(-c6c([H])c([H])c(Oc7c([H])c([H])c(F)c([H])c7F)c([H])c6[H])c(C(=O)N([H])[H])c5N([H])[H])C4([H])[H])C([H])([H])C3([H])[H])c([H])c([H])c2C1([H])[H]

>  <smiles>  (10) 
[H]c1c([H])c([H])c2c(c1[H])C([H])([H])C([H])([H])C([H])([H])C2([H])N([H])C(=O)C1([H])N(C(=O)C([H])(N([H])C(=O)C([H])(N([H])C([H])([H])[H])C([H])([H])[H])C(C([H])([H])[H])(C([H])([H])[H])C([H])([H])[H])C([H])([H])c2c([H])c(OC([H])([H])C(=O)N([H])C([H])([H])C(=O)N3C([H])([H])C([H])([H])C([H])(N([H])C(=O)N4C([H])([H])C([H])([H])C([H])([H])C([H])(n5nc(-c6c([H])c([H])c(Oc7c([H])c([H])c(F)c([H])c7F)c([H])c6[H])c(C(=O)N([H])[H])c5N([H])[H])C4([H])[H])C([H])([H])C3([H])[H])c([H])c([H])c2C1([H])[H]

$$$$
10:0:0
     RDKit          3D

 92100  0  0  1  0  0  0  0  0999 V2000
  -28.0310  -19.6610   20.3380 C   0  0  0  0  0  3  0  0  0  0  0  0
  -30.6020  -18.6690   20.1060 C   0  0  0  0  0  3  0  0  0  0  0  0
  -29.0090  -20.6930   20.1740 C   0  0  0  0  0  0  0  0  0  0  0  0
  -29.5950  -17.6490   20.2740 C   0  0  0  0  0  0  0  0  0  0  0  0
  -30.3300  -20.1130   20.0570 C   0  0  0  0  0  0  0  0  0  0  0  0
  -28.3020  -18.2440   20.3950 C   0  0  0  0  0  0  0  0  0  0  0  0
  -31.3790  -20.9460   19.8590 F   0  0  0  0  0  0  0  0  0  0  0  0
  -27.2520  -17.4060   20.5590 F   0  0  0  0  0  0  0  0  0  0  0  0
  -30.5220  -15.0280   20.0650 C   0  0  0  0  0  0  0  0  0  0  0  0
  -30.3930  -12.7010   19.0680 C   0  0  0  0  0  2  0  0  0  0  0  0
  -29.3880  -12.6940   17.8910 C   0  0  0  0  0  2  0  0  0  0  0  0
  -27.9500  -12.4730   18.3950 C   0  0  0  0  0  2  0  0  0  0  0  0
  -27.6050  -13.3660   19.6160 C   0  0  0  0  0  3  0  0  0  0  0  0
  -28.7190  -13.3210   20.6850 C   0  0  0  0  0  2  0  0  0  0  0  0
  -29.9650  -13.7520   20.0330 N   0  0  0  0  0  0  0  0  0  0  0  0
  -31.6930  -15.1620   19.6930 O   0  0  0  0  0  0  0  0  0  0  0  0
  -29.6680  -16.1170   20.3540 N   0  0  0  0  0  0  0  0  0  0  0  0
  -28.7700  -15.7510   20.6340 H   0  0  0  0  0  0  0  0  0  0  0  0
  -25.2610  -13.9300   20.4820 C   0  0  0  0  0  0  0  0  0  0  0  0
  -24.2130  -13.1460   20.8800 C   0  0  0  0  0  0  0  0  0  0  0  0
  -24.6750  -11.7970   20.7910 C   0  0  0  0  0  0  0  0  0  0  0  0
  -26.2910  -13.0580   20.1690 N   0  0  0  0  0  0  0  0  0  0  0  0
  -25.9500  -11.7680   20.4200 N   0  0  0  0  0  0  0  0  0  0  0  0
  -23.9550  -10.5310   20.9830 C   0  0  0  0  0  0  0  0  0  0  0  0
  -24.3980   -9.5610   21.9080 C   0  0  0  0  0  3  0  0  0  0  0  0
  -23.6750   -8.3610   22.0870 C   0  0  0  0  0  3  0  0  0  0  0  0
  -22.4960   -8.1240   21.3420 C   0  0  0  0  0  0  0  0  0  0  0  0
  -22.0730   -9.0840   20.4050 C   0  0  0  0  0  3  0  0  0  0  0  0
  -22.7950  -10.2750   20.2240 C   0  0  0  0  0  3  0  0  0  0  0  0
  -21.7460   -6.9780   21.4310 O   0  0  0  0  0  0  0  0  0  0  0  0
  -21.6630   -6.2600   22.5970 C   0  0  0  0  0  0  0  0  0  0  0  0
  -21.1410   -6.8230   23.7830 C   0  0  0  0  0  3  0  0  0  0  0  0
  -21.0100   -6.0300   24.9390 C   0  0  0  0  0  3  0  0  0  0  0  0
  -21.3900   -4.6750   24.9120 C   0  0  0  0  0  0  0  0  0  0  0  0
  -21.9050   -4.1120   23.7320 C   0  0  0  0  0  3  0  0  0  0  0  0
  -22.0390   -4.9020   22.5770 C   0  0  0  0  0  0  0  0  0  0  0  0
  -22.5160   -4.3490   21.4360 F   0  0  0  0  0  0  0  0  0  0  0  0
  -21.2570   -3.9110   26.0210 F   0  0  0  0  0  0  0  0  0  0  0  0
  -22.8320  -13.6190   21.2320 C   0  0  0  0  0  0  0  0  0  0  0  0
  -22.1490  -12.9060   22.1200 N   0  0  0  0  0  0  0  0  0  0  0  0
  -22.3710  -14.6560   20.7570 O   0  0  0  0  0  0  0  0  0  0  0  0
  -22.5340  -12.0670   22.5260 H   0  0  0  0  0  0  0  0  0  0  0  0
  -21.2250  -13.2060   22.3990 H   0  0  0  0  0  0  0  0  0  0  0  0
  -25.4080  -15.3040   20.3420 N   0  0  0  0  0  0  0  0  0  0  0  0
  -24.6510  -15.9410   20.5610 H   0  0  0  0  0  0  0  0  0  0  0  0
  -26.2620  -15.7950   20.1060 H   0  0  0  0  0  0  0  0  0  0  0  0
  -28.9570  -23.4760   20.2650 C   0  0  0  0  0  0  0  0  0  0  0  0
  -28.5250  -22.1460   20.0350 N   0  0  0  0  0  0  0  0  0  0  0  0
  -30.0770  -23.7000   20.7280 O   0  0  0  0  0  0  0  0  0  0  0  0
  -27.5650  -22.1770   19.7210 H   0  0  0  0  0  0  0  0  0  0  0  0
  -27.9750  -24.7670   19.9230 C   0  0  0  0  0  2  0  0  0  0  0  0
  -28.2780  -26.2520   20.2720 O   0  0  0  0  0  0  0  0  0  0  0  0
  -24.6370  -31.9150   23.2880 C   0  0  0  0  0  0  0  0  0  0  0  0
  -27.2220  -27.2360   20.2100 C   0  0  0  0  0  0  0  0  0  0  0  0
  -23.4360  -30.5280   21.6430 C   0  0  0  0  0  3  0  0  0  0  0  0
  -24.8850  -28.9700   20.2030 C   0  0  0  0  0  0  0  0  0  0  0  0
  -25.9900  -30.8020   21.4740 C   0  0  0  0  0  2  0  0  0  0  0  0
  -26.0660  -29.4150   20.8130 C   0  0  0  0  0  0  0  0  0  0  0  0
  -27.2330  -28.5640   20.8010 C   0  0  0  0  0  3  0  0  0  0  0  0
  -26.0140  -26.8980   19.5590 C   0  0  0  0  0  3  0  0  0  0  0  0
  -24.8720  -27.7250   19.5590 C   0  0  0  0  0  3  0  0  0  0  0  0
  -23.6540  -29.8600   20.2600 C   0  0  0  0  0  2  0  0  0  0  0  0
  -24.7080  -31.1010   22.1900 N   0  0  0  0  0  0  0  0  0  0  0  0
  -23.5510  -32.1940   23.8190 O   0  0  0  0  0  0  0  0  0  0  0  0
  -22.7620  -29.5130   22.6010 C   0  0  0  0  0  0  0  0  0  0  0  0
  -21.4370  -29.3280   22.4640 N   0  0  0  0  0  0  0  0  0  0  0  0
  -23.4350  -28.8940   23.4290 O   0  0  0  0  0  0  0  0  0  0  0  0
  -20.9510  -29.8790   21.7700 H   0  0  0  0  0  0  0  0  0  0  0  0
  -18.0610  -28.1060   22.9520 C   0  0  0  0  0  0  0  0  0  0  0  0
  -20.6180  -28.3840   23.2300 C   0  0  0  0  0  3  0  0  0  0  0  0
  -20.7310  -26.9530   22.6510 C   0  0  0  0  0  2  0  0  0  0  0  0
  -19.6340  -26.6260   21.6330 C   0  0  0  0  0  2  0  0  0  0  0  0
  -18.2490  -26.7600   22.2720 C   0  0  0  0  0  2  0  0  0  0  0  0
  -19.1730  -28.8750   23.3870 C   0  0  0  0  0  0  0  0  0  0  0  0
  -18.9420  -30.1330   23.9850 C   0  0  0  0  0  3  0  0  0  0  0  0
  -17.6330  -30.6230   24.1500 C   0  0  0  0  0  3  0  0  0  0  0  0
  -16.5360  -29.8520   23.7300 C   0  0  0  0  0  3  0  0  0  0  0  0
  -16.7500  -28.5950   23.1370 C   0  0  0  0  0  3  0  0  0  0  0  0
  -25.9160  -32.5500   23.9150 C   0  0  0  0  0  3  0  0  0  0  0  0
  -25.6080  -33.9510   24.2390 N   0  0  0  0  0  0  0  0  0  0  0  0
  -25.9220  -35.0000   23.4660 C   0  0  0  0  0  0  0  0  0  0  0  0
  -26.5680  -34.8890   22.4210 O   0  0  0  0  0  0  0  0  0  0  0  0
  -25.0340  -34.1110   25.0530 H   0  0  0  0  0  0  0  0  0  0  0  0
  -24.1770  -36.7850   23.1520 C   0  0  0  0  0  1  0  0  0  0  0  0
  -25.4460  -36.3930   23.9260 C   0  0  0  0  0  3  0  0  0  0  0  0
  -27.5970  -37.3030   24.6860 C   0  0  0  0  0  1  0  0  0  0  0  0
  -26.4710  -37.4480   23.7670 N   0  0  0  0  0  0  0  0  0  0  0  0
  -26.0640  -38.3690   23.9050 H   0  0  0  0  0  0  0  0  0  0  0  0
  -26.4170  -31.7860   25.2030 C   0  0  1  0  0  0  0  0  0  0  0  0
  -25.3120  -31.5570   26.2600 C   0  0  0  0  0  1  0  0  0  0  0  0
  -27.0030  -30.4050   24.8300 C   0  0  0  0  0  1  0  0  0  0  0  0
  -27.5610  -32.5830   25.8720 C   0  0  0  0  0  1  0  0  0  0  0  0
  1  6  1  0
  2  4  1  0
  3  1  2  0
  4 17  1  0
  4  6  2  0
  5  2  2  0
  5  3  1  0
  6  8  1  0
  7  5  1  0
  9 17  1  0
 10 15  1  0
 11 12  1  0
 11 10  1  0
 13 12  1  0
 13 22  1  0
 13 14  1  0
 15  9  1  0
 15 14  1  0
 16  9  2  0
 17 18  1  0
 19 20  2  0
 20 39  1  0
 21 20  1  0
 21 24  1  0
 22 23  1  0
 22 19  1  0
 23 21  2  0
 24 25  1  0
 25 26  2  0
 27 30  1  0
 27 26  1  0
 28 27  2  0
 29 28  1  0
 29 24  2  0
 30 31  1  0
 31 32  1  0
 32 33  2  0
 34 33  1  0
 34 38  1  0
 35 34  2  0
 36 31  2  0
 36 35  1  0
 37 36  1  0
 39 40  1  0
 40 43  1  0
 40 42  1  0
 41 39  2  0
 44 19  1  0
 44 45  1  0
 46 44  1  0
 47 49  2  0
 48  3  1  0
 48 47  1  0
 50 48  1  0
 51 47  1  0
 51 52  1  0
 53 64  2  0
 54 52  1  0
 54 59  1  0
 55 63  1  0
 55 65  1  0
 56 62  1  0
 56 58  1  0
 57 63  1  0
 58 57  1  0
 59 58  2  0
 60 54  2  0
 61 60  1  0
 61 56  2  0
 62 55  1  0
 63 53  1  0
 65 67  2  0
 66 65  1  0
 68 66  1  0
 69 78  2  0
 69 74  1  0
 70 66  1  0
 70 74  1  0
 71 70  1  0
 72 73  1  0
 72 71  1  0
 73 69  1  0
 74 75  2  0
 75 76  1  0
 77 76  2  0
 78 77  1  0
 79 53  1  0
 79 80  1  0
 79 89  1  0
 80 83  1  0
 81 85  1  0
 81 80  1  0
 82 81  2  0
 85 84  1  0
 87 88  1  0
 87 85  1  0
 87 86  1  0
 89 92  1  1
 89 90  1  0
 91 89  1  0
M  ISO  4   9 100  17 100  51 101  52 101
M  END
>  <TORSDO>  (11) 
F 18

>  <SCORE>  (11) 
-14.810

>  <name>  (11) 
10

>  <ligand_id>  (11) 
10

>  <original_smiles>  (11) 
[H]c1c([H])c([H])c2c(c1[H])C([H])([H])C([H])([H])C([H])([H])C2([H])N([H])C(=O)C1([H])N(C(=O)C([H])(N([H])C(=O)C([H])(N([H])C([H])([H])[H])C([H])([H])[H])C(C([H])([H])[H])(C([H])([H])[H])C([H])([H])[H])C([H])([H])c2c([H])c(OC([H])([H])C(=O)N([H])c3c([H])c(F)c(N([H])C(=O)N4C([H])([H])C([H])([H])C([H])([H])C([H])(n5nc(-c6c([H])c([H])c(Oc7c([H])c([H])c(F)c([H])c7F)c([H])c6[H])c(C(=O)N([H])[H])c5N([H])[H])C4([H])[H])c([H])c3F)c([H])c([H])c2C1([H])[H]

>  <smiles>  (11) 
[H]c1c([H])c([H])c2c(c1[H])C([H])([H])C([H])([H])C([H])([H])C2([H])N([H])C(=O)C1([H])N(C(=O)C([H])(N([H])C(=O)C([H])(N([H])C([H])([H])[H])C([H])([H])[H])C(C([H])([H])[H])(C([H])([H])[H])C([H])([H])[H])C([H])([H])c2c([H])c(OC([H])([H])C(=O)N([H])c3c([H])c(F)c(N([H])C(=O)N4C([H])([H])C([H])([H])C([H])([H])C([H])(n5nc(-c6c([H])c([H])c(Oc7c([H])c([H])c(F)c([H])c7F)c([H])c6[H])c(C(=O)N([H])[H])c5N([H])[H])C4([H])[H])c([H])c3F)c([H])c([H])c2C1([H])[H]

$$$$
11:0:0
     RDKit          3D

 93101  0  0  1  0  0  0  0  0999 V2000
  -30.2510  -21.7230   20.3440 C   0  0  0  0  0  2  0  0  0  0  0  0
  -28.8410  -19.4590   20.3580 C   0  0  0  0  0  3  0  0  0  0  0  0
  -31.1890  -17.9120   20.3160 C   0  0  0  0  0  3  0  0  0  0  0  0
  -30.0750  -20.1560   20.2930 C   0  0  0  0  0  0  0  0  0  0  0  0
  -29.9560  -17.2150   20.4040 C   0  0  0  0  0  0  0  0  0  0  0  0
  -28.7890  -18.0300   20.4120 C   0  0  0  0  0  0  0  0  0  0  0  0
  -31.2410  -19.3370   20.2660 C   0  0  0  0  0  0  0  0  0  0  0  0
  -27.5810  -17.4190   20.4850 F   0  0  0  0  0  0  0  0  0  0  0  0
  -32.4570  -19.9300   20.2080 F   0  0  0  0  0  0  0  0  0  0  0  0
  -30.5810  -14.7000   20.1260 C   0  0  0  0  0  0  0  0  0  0  0  0
  -30.3020  -12.4960   19.0100 C   0  0  0  0  0  2  0  0  0  0  0  0
  -29.3040  -12.6660   17.8430 C   0  0  0  0  0  2  0  0  0  0  0  0
  -27.8500  -12.5100   18.3340 C   0  0  0  0  0  2  0  0  0  0  0  0
  -27.5550  -13.3360   19.6160 C   0  0  0  0  0  3  0  0  0  0  0  0
  -28.6630  -13.1380   20.6750 C   0  0  0  0  0  2  0  0  0  0  0  0
  -29.9470  -13.4870   20.0460 N   0  0  0  0  0  0  0  0  0  0  0  0
  -31.7330  -14.8450   19.7100 O   0  0  0  0  0  0  0  0  0  0  0  0
  -29.7980  -15.7590   20.5060 N   0  0  0  0  0  0  0  0  0  0  0  0
  -28.8760  -15.4810   20.8060 H   0  0  0  0  0  0  0  0  0  0  0  0
  -25.1960  -13.9280   20.4420 C   0  0  0  0  0  0  0  0  0  0  0  0
  -24.1410  -13.1500   20.8370 C   0  0  0  0  0  0  0  0  0  0  0  0
  -24.5990  -11.7990   20.7660 C   0  0  0  0  0  0  0  0  0  0  0  0
  -26.2280  -13.0490   20.1520 N   0  0  0  0  0  0  0  0  0  0  0  0
  -25.8760  -11.7630   20.4060 N   0  0  0  0  0  0  0  0  0  0  0  0
  -23.8770  -10.5350   20.9630 C   0  0  0  0  0  0  0  0  0  0  0  0
  -24.3170   -9.5700   21.8960 C   0  0  0  0  0  3  0  0  0  0  0  0
  -23.5950   -8.3710   22.0800 C   0  0  0  0  0  3  0  0  0  0  0  0
  -22.4170   -8.1290   21.3330 C   0  0  0  0  0  0  0  0  0  0  0  0
  -21.9960   -9.0830   20.3890 C   0  0  0  0  0  3  0  0  0  0  0  0
  -22.7190  -10.2730   20.2030 C   0  0  0  0  0  3  0  0  0  0  0  0
  -21.6660   -6.9830   21.4280 O   0  0  0  0  0  0  0  0  0  0  0  0
  -21.5900   -6.2670   22.5950 C   0  0  0  0  0  0  0  0  0  0  0  0
  -21.0990   -6.8370   23.7890 C   0  0  0  0  0  3  0  0  0  0  0  0
  -20.9740   -6.0450   24.9490 C   0  0  0  0  0  3  0  0  0  0  0  0
  -21.3280   -4.6840   24.9130 C   0  0  0  0  0  0  0  0  0  0  0  0
  -21.8110   -4.1120   23.7230 C   0  0  0  0  0  3  0  0  0  0  0  0
  -21.9390   -4.9010   22.5660 C   0  0  0  0  0  0  0  0  0  0  0  0
  -22.3850   -4.3400   21.4170 F   0  0  0  0  0  0  0  0  0  0  0  0
  -21.2000   -3.9210   26.0240 F   0  0  0  0  0  0  0  0  0  0  0  0
  -22.7580  -13.6260   21.1740 C   0  0  0  0  0  0  0  0  0  0  0  0
  -22.0610  -12.9130   22.0520 N   0  0  0  0  0  0  0  0  0  0  0  0
  -22.3040  -14.6640   20.6940 O   0  0  0  0  0  0  0  0  0  0  0  0
  -22.4410  -12.0730   22.4610 H   0  0  0  0  0  0  0  0  0  0  0  0
  -21.1340  -13.2130   22.3200 H   0  0  0  0  0  0  0  0  0  0  0  0
  -25.3550  -15.3010   20.2890 N   0  0  0  0  0  0  0  0  0  0  0  0
  -24.6030  -15.9520   20.4850 H   0  0  0  0  0  0  0  0  0  0  0  0
  -26.2150  -15.7690   20.0300 H   0  0  0  0  0  0  0  0  0  0  0  0
  -29.2740  -24.0780   20.3060 C   0  0  0  0  0  0  0  0  0  0  0  0
  -29.1440  -22.7200   20.1300 N   0  0  0  0  0  0  0  0  0  0  0  0
  -30.3220  -24.5550   20.7520 O   0  0  0  0  0  0  0  0  0  0  0  0
  -28.2740  -22.3750   19.7470 H   0  0  0  0  0  0  0  0  0  0  0  0
  -28.1050  -25.0640   19.9210 C   0  0  0  0  0  2  0  0  0  0  0  0
  -28.3280  -26.5090   20.1950 O   0  0  0  0  0  0  0  0  0  0  0  0
  -24.5860  -31.8860   23.2470 C   0  0  0  0  0  0  0  0  0  0  0  0
  -27.2070  -27.3580   20.1500 C   0  0  0  0  0  0  0  0  0  0  0  0
  -23.3860  -30.4990   21.5960 C   0  0  0  0  0  3  0  0  0  0  0  0
  -24.8370  -28.9670   20.1580 C   0  0  0  0  0  0  0  0  0  0  0  0
  -25.9250  -30.8240   21.4170 C   0  0  0  0  0  2  0  0  0  0  0  0
  -26.0080  -29.4520   20.7570 C   0  0  0  0  0  0  0  0  0  0  0  0
  -27.1950  -28.6600   20.7440 C   0  0  0  0  0  3  0  0  0  0  0  0
  -26.0100  -26.9300   19.5290 C   0  0  0  0  0  3  0  0  0  0  0  0
  -24.8410  -27.7110   19.5370 C   0  0  0  0  0  3  0  0  0  0  0  0
  -23.6000  -29.8390   20.2110 C   0  0  0  0  0  2  0  0  0  0  0  0
  -24.6510  -31.0880   22.1430 N   0  0  0  0  0  0  0  0  0  0  0  0
  -23.5020  -32.1560   23.7830 O   0  0  0  0  0  0  0  0  0  0  0  0
  -22.7250  -29.4720   22.5470 C   0  0  0  0  0  0  0  0  0  0  0  0
  -21.3980  -29.2940   22.4200 N   0  0  0  0  0  0  0  0  0  0  0  0
  -23.4040  -28.8400   23.3610 O   0  0  0  0  0  0  0  0  0  0  0  0
  -20.9080  -29.8570   21.7380 H   0  0  0  0  0  0  0  0  0  0  0  0
  -18.0190  -28.1060   22.9230 C   0  0  0  0  0  0  0  0  0  0  0  0
  -20.5810  -28.3510   23.1830 C   0  0  0  0  0  3  0  0  0  0  0  0
  -20.6720  -26.9250   22.5910 C   0  0  0  0  0  2  0  0  0  0  0  0
  -19.5640  -26.6190   21.5790 C   0  0  0  0  0  2  0  0  0  0  0  0
  -18.1860  -26.7640   22.2310 C   0  0  0  0  0  2  0  0  0  0  0  0
  -19.1440  -28.8580   23.3560 C   0  0  0  0  0  0  0  0  0  0  0  0
  -18.9330  -30.1160   23.9620 C   0  0  0  0  0  3  0  0  0  0  0  0
  -17.6310  -30.6210   24.1400 C   0  0  0  0  0  3  0  0  0  0  0  0
  -16.5200  -29.8650   23.7240 C   0  0  0  0  0  3  0  0  0  0  0  0
  -16.7160  -28.6100   23.1210 C   0  0  0  0  0  3  0  0  0  0  0  0
  -25.8670  -32.5160   23.8730 C   0  0  0  0  0  3  0  0  0  0  0  0
  -26.3770  -31.7450   25.1520 C   0  0  1  0  0  0  0  0  0  0  0  0
  -25.2780  -31.5070   26.2130 C   0  0  0  0  0  1  0  0  0  0  0  0
  -26.9620  -30.3670   24.7620 C   0  0  0  0  0  1  0  0  0  0  0  0
  -27.5220  -32.5390   25.8210 C   0  0  0  0  0  1  0  0  0  0  0  0
  -25.5580  -33.9160   24.2040 N   0  0  0  0  0  0  0  0  0  0  0  0
  -25.8690  -34.9670   23.4330 C   0  0  0  0  0  0  0  0  0  0  0  0
  -26.5170  -34.8610   22.3880 O   0  0  0  0  0  0  0  0  0  0  0  0
  -24.9810  -34.0720   25.0170 H   0  0  0  0  0  0  0  0  0  0  0  0
  -24.1190  -36.7440   23.1180 C   0  0  0  0  0  1  0  0  0  0  0  0
  -25.3860  -36.3550   23.8940 C   0  0  0  0  0  3  0  0  0  0  0  0
  -27.5340  -37.2670   24.6620 C   0  0  0  0  0  1  0  0  0  0  0  0
  -26.4080  -37.4150   23.7430 N   0  0  0  0  0  0  0  0  0  0  0  0
  -25.9970  -38.3320   23.8900 H   0  0  0  0  0  0  0  0  0  0  0  0
  2  6  1  0
  3  5  1  0
  4  1  1  0
  4  2  2  0
  5  6  2  0
  5 18  1  0
  6  8  1  0
  7  4  1  0
  7  3  2  0
  9  7  1  0
 10 18  1  0
 11 16  1  0
 12 13  1  0
 12 11  1  0
 14 13  1  0
 14 23  1  0
 14 15  1  0
 16 10  1  0
 16 15  1  0
 17 10  2  0
 18 19  1  0
 20 21  2  0
 21 40  1  0
 22 21  1  0
 22 25  1  0
 23 24  1  0
 23 20  1  0
 24 22  2  0
 25 26  1  0
 26 27  2  0
 28 31  1  0
 28 27  1  0
 29 28  2  0
 30 29  1  0
 30 25  2  0
 31 32  1  0
 32 33  1  0
 33 34  2  0
 35 34  1  0
 35 39  1  0
 36 35  2  0
 37 32  2  0
 37 36  1  0
 38 37  1  0
 40 41  1  0
 41 44  1  0
 41 43  1  0
 42 40  2  0
 45 20  1  0
 45 46  1  0
 47 45  1  0
 48 50  2  0
 49 48  1  0
 49  1  1  0
 51 49  1  0
 52 53  1  0
 52 48  1  0
 54 65  2  0
 55 53  1  0
 55 60  1  0
 56 64  1  0
 56 66  1  0
 57 63  1  0
 57 59  1  0
 58 64  1  0
 59 58  1  0
 60 59  2  0
 61 62  1  0
 61 55  2  0
 62 57  2  0
 63 56  1  0
 64 54  1  0
 66 68  2  0
 67 66  1  0
 69 67  1  0
 70 79  2  0
 70 75  1  0
 71 67  1  0
 71 75  1  0
 72 71  1  0
 73 74  1  0
 73 72  1  0
 74 70  1  0
 75 76  2  0
 76 77  1  0
 78 77  2  0
 79 78  1  0
 80 54  1  0
 80 85  1  0
 80 81  1  0
 81 84  1  1
 81 82  1  0
 83 81  1  0
 85 88  1  0
 86 90  1  0
 86 85  1  0
 87 86  2  0
 90 89  1  0
 92 93  1  0
 92 90  1  0
 92 91  1  0
M  ISO  4  10 100  18 100  52 101  53 101
M  END
>  <TORSDO>  (12) 
F 19

>  <SCORE>  (12) 
-14.523

>  <name>  (12) 
11

>  <ligand_id>  (12) 
11

>  <original_smiles>  (12) 
[H]c1c([H])c([H])c2c(c1[H])C([H])([H])C([H])([H])C([H])([H])C2([H])N([H])C(=O)C1([H])N(C(=O)C([H])(N([H])C(=O)C([H])(N([H])C([H])([H])[H])C([H])([H])[H])C(C([H])([H])[H])(C([H])([H])[H])C([H])([H])[H])C([H])([H])c2c([H])c(OC([H])([H])C(=O)N([H])C([H])([H])c3c([H])c(F)c(N([H])C(=O)N4C([H])([H])C([H])([H])C([H])([H])C([H])(n5nc(-c6c([H])c([H])c(Oc7c([H])c([H])c(F)c([H])c7F)c([H])c6[H])c(C(=O)N([H])[H])c5N([H])[H])C4([H])[H])c([H])c3F)c([H])c([H])c2C1([H])[H]

>  <smiles>  (12) 
[H]c1c([H])c([H])c2c(c1[H])C([H])([H])C([H])([H])C([H])([H])C2([H])N([H])C(=O)C1([H])N(C(=O)C([H])(N([H])C(=O)C([H])(N([H])C([H])([H])[H])C([H])([H])[H])C(C([H])([H])[H])(C([H])([H])[H])C([H])([H])[H])C([H])([H])c2c([H])c(OC([H])([H])C(=O)N([H])C([H])([H])c3c([H])c(F)c(N([H])C(=O)N4C([H])([H])C([H])([H])C([H])([H])C([H])(n5nc(-c6c([H])c([H])c(Oc7c([H])c([H])c(F)c([H])c7F)c([H])c6[H])c(C(=O)N([H])[H])c5N([H])[H])C4([H])[H])c([H])c3F)c([H])c([H])c2C1([H])[H]

$$$$
12:0:0
     RDKit          3D

 93101  0  0  1  0  0  0  0  0999 V2000
  -30.2630  -21.7200   20.3130 C   0  0  0  0  0  2  0  0  0  0  0  0
  -31.1640  -17.9010   20.2200 C   0  0  0  0  0  3  0  0  0  0  0  0
  -28.8020  -18.0390   20.6120 C   0  0  0  0  0  3  0  0  0  0  0  0
  -30.0720  -20.1540   20.3050 C   0  0  0  0  0  0  0  0  0  0  0  0
  -29.9500  -17.2070   20.4660 C   0  0  0  0  0  0  0  0  0  0  0  0
  -31.2210  -19.3230   20.1470 C   0  0  0  0  0  0  0  0  0  0  0  0
  -28.8520  -19.4670   20.5340 C   0  0  0  0  0  0  0  0  0  0  0  0
  -32.4270  -19.9060   19.9370 F   0  0  0  0  0  0  0  0  0  0  0  0
  -27.7100  -20.1770   20.7010 F   0  0  0  0  0  0  0  0  0  0  0  0
  -30.6040  -14.6920   20.1950 C   0  0  0  0  0  0  0  0  0  0  0  0
  -30.3490  -12.4760   19.0970 C   0  0  0  0  0  2  0  0  0  0  0  0
  -29.3650  -12.6300   17.9160 C   0  0  0  0  0  2  0  0  0  0  0  0
  -27.9060  -12.4720   18.3890 C   0  0  0  0  0  2  0  0  0  0  0  0
  -27.5930  -13.3100   19.6570 C   0  0  0  0  0  3  0  0  0  0  0  0
  -28.6870  -13.1270   20.7340 C   0  0  0  0  0  2  0  0  0  0  0  0
  -29.9780  -13.4740   20.1200 N   0  0  0  0  0  0  0  0  0  0  0  0
  -31.7550  -14.8410   19.7780 O   0  0  0  0  0  0  0  0  0  0  0  0
  -29.8140  -15.7470   20.5820 N   0  0  0  0  0  0  0  0  0  0  0  0
  -28.9120  -15.4370   20.9090 H   0  0  0  0  0  0  0  0  0  0  0  0
  -25.2240  -13.9050   20.4570 C   0  0  0  0  0  0  0  0  0  0  0  0
  -24.1670  -13.1300   20.8490 C   0  0  0  0  0  0  0  0  0  0  0  0
  -24.6240  -11.7780   20.7840 C   0  0  0  0  0  0  0  0  0  0  0  0
  -26.2580  -13.0250   20.1780 N   0  0  0  0  0  0  0  0  0  0  0  0
  -25.9050  -11.7400   20.4350 N   0  0  0  0  0  0  0  0  0  0  0  0
  -23.9000  -10.5150   20.9760 C   0  0  0  0  0  0  0  0  0  0  0  0
  -24.3310   -9.5520   21.9150 C   0  0  0  0  0  3  0  0  0  0  0  0
  -23.6070   -8.3530   22.0940 C   0  0  0  0  0  3  0  0  0  0  0  0
  -22.4360   -8.1100   21.3360 C   0  0  0  0  0  0  0  0  0  0  0  0
  -22.0240   -9.0620   20.3880 C   0  0  0  0  0  3  0  0  0  0  0  0
  -22.7490  -10.2520   20.2060 C   0  0  0  0  0  3  0  0  0  0  0  0
  -21.6840   -6.9640   21.4260 O   0  0  0  0  0  0  0  0  0  0  0  0
  -21.6000   -6.2490   22.5940 C   0  0  0  0  0  0  0  0  0  0  0  0
  -21.1090   -6.8230   23.7860 C   0  0  0  0  0  3  0  0  0  0  0  0
  -20.9740   -6.0320   24.9450 C   0  0  0  0  0  3  0  0  0  0  0  0
  -21.3190   -4.6670   24.9110 C   0  0  0  0  0  0  0  0  0  0  0  0
  -21.8020   -4.0930   23.7220 C   0  0  0  0  0  3  0  0  0  0  0  0
  -21.9390   -4.8810   22.5660 C   0  0  0  0  0  0  0  0  0  0  0  0
  -22.3850   -4.3160   21.4180 F   0  0  0  0  0  0  0  0  0  0  0  0
  -21.1810   -3.9060   26.0220 F   0  0  0  0  0  0  0  0  0  0  0  0
  -22.7800  -13.6070   21.1700 C   0  0  0  0  0  0  0  0  0  0  0  0
  -22.0770  -12.9010   22.0470 N   0  0  0  0  0  0  0  0  0  0  0  0
  -22.3300  -14.6410   20.6790 O   0  0  0  0  0  0  0  0  0  0  0  0
  -22.4540  -12.0640   22.4670 H   0  0  0  0  0  0  0  0  0  0  0  0
  -21.1480  -13.2010   22.3050 H   0  0  0  0  0  0  0  0  0  0  0  0
  -25.3870  -15.2780   20.2890 N   0  0  0  0  0  0  0  0  0  0  0  0
  -24.6140  -15.9240   20.4080 H   0  0  0  0  0  0  0  0  0  0  0  0
  -26.1990  -15.7090   19.8680 H   0  0  0  0  0  0  0  0  0  0  0  0
  -29.3110  -24.0890   20.2520 C   0  0  0  0  0  0  0  0  0  0  0  0
  -29.1560  -22.7260   20.1460 N   0  0  0  0  0  0  0  0  0  0  0  0
  -30.3940  -24.5730   20.5900 O   0  0  0  0  0  0  0  0  0  0  0  0
  -28.2480  -22.3700   19.8800 H   0  0  0  0  0  0  0  0  0  0  0  0
  -28.1200  -25.0650   19.9160 C   0  0  0  0  0  2  0  0  0  0  0  0
  -28.3460  -26.5110   20.1750 O   0  0  0  0  0  0  0  0  0  0  0  0
  -24.6080  -31.8740   23.2530 C   0  0  0  0  0  0  0  0  0  0  0  0
  -27.2230  -27.3570   20.1380 C   0  0  0  0  0  0  0  0  0  0  0  0
  -23.4030  -30.4920   21.6020 C   0  0  0  0  0  3  0  0  0  0  0  0
  -24.8530  -28.9640   20.1560 C   0  0  0  0  0  0  0  0  0  0  0  0
  -25.9430  -30.8180   21.4160 C   0  0  0  0  0  2  0  0  0  0  0  0
  -26.0230  -29.4470   20.7530 C   0  0  0  0  0  0  0  0  0  0  0  0
  -27.2120  -28.6570   20.7340 C   0  0  0  0  0  3  0  0  0  0  0  0
  -26.0240  -26.9280   19.5200 C   0  0  0  0  0  3  0  0  0  0  0  0
  -24.8560  -27.7080   19.5310 C   0  0  0  0  0  3  0  0  0  0  0  0
  -23.6150  -29.8340   20.2130 C   0  0  0  0  0  2  0  0  0  0  0  0
  -24.6710  -31.0780   22.1460 N   0  0  0  0  0  0  0  0  0  0  0  0
  -23.5250  -32.1440   23.7930 O   0  0  0  0  0  0  0  0  0  0  0  0
  -22.7450  -29.4620   22.5510 C   0  0  0  0  0  0  0  0  0  0  0  0
  -21.4190  -29.2830   22.4250 N   0  0  0  0  0  0  0  0  0  0  0  0
  -23.4270  -28.8280   23.3610 O   0  0  0  0  0  0  0  0  0  0  0  0
  -20.9270  -29.8490   21.7470 H   0  0  0  0  0  0  0  0  0  0  0  0
  -18.0410  -28.0920   22.9290 C   0  0  0  0  0  0  0  0  0  0  0  0
  -20.6020  -28.3380   23.1880 C   0  0  0  0  0  3  0  0  0  0  0  0
  -20.6970  -26.9140   22.5940 C   0  0  0  0  0  2  0  0  0  0  0  0
  -19.5880  -26.6090   21.5810 C   0  0  0  0  0  2  0  0  0  0  0  0
  -18.2100  -26.7500   22.2350 C   0  0  0  0  0  2  0  0  0  0  0  0
  -19.1650  -28.8440   23.3620 C   0  0  0  0  0  0  0  0  0  0  0  0
  -18.9530  -30.1010   23.9700 C   0  0  0  0  0  3  0  0  0  0  0  0
  -17.6500  -30.6040   24.1500 C   0  0  0  0  0  3  0  0  0  0  0  0
  -16.5410  -29.8470   23.7320 C   0  0  0  0  0  3  0  0  0  0  0  0
  -16.7380  -28.5930   23.1260 C   0  0  0  0  0  3  0  0  0  0  0  0
  -25.8910  -32.5030   23.8790 C   0  0  0  0  0  3  0  0  0  0  0  0
  -26.4020  -31.7280   25.1550 C   0  0  1  0  0  0  0  0  0  0  0  0
  -25.3050  -31.4900   26.2190 C   0  0  0  0  0  1  0  0  0  0  0  0
  -26.9830  -30.3490   24.7640 C   0  0  0  0  0  1  0  0  0  0  0  0
  -27.5510  -32.5190   25.8230 C   0  0  0  0  0  1  0  0  0  0  0  0
  -25.5840  -33.9010   24.2110 N   0  0  0  0  0  0  0  0  0  0  0  0
  -25.8920  -34.9520   23.4400 C   0  0  0  0  0  0  0  0  0  0  0  0
  -26.5340  -34.8470   22.3910 O   0  0  0  0  0  0  0  0  0  0  0  0
  -25.0110  -34.0560   25.0270 H   0  0  0  0  0  0  0  0  0  0  0  0
  -24.1360  -36.7270   23.1390 C   0  0  0  0  0  1  0  0  0  0  0  0
  -25.4110  -36.3400   23.9040 C   0  0  0  0  0  3  0  0  0  0  0  0
  -27.5650  -37.2540   24.6480 C   0  0  0  0  0  1  0  0  0  0  0  0
  -26.4290  -37.4010   23.7410 N   0  0  0  0  0  0  0  0  0  0  0  0
  -26.0190  -38.3190   23.8930 H   0  0  0  0  0  0  0  0  0  0  0  0
  2  5  1  0
  4  1  1  0
  4  7  2  0
  5 18  1  0
  5  3  2  0
  6  2  2  0
  6  4  1  0
  7  3  1  0
  7  9  1  0
  8  6  1  0
 10 18  1  0
 11 16  1  0
 12 13  1  0
 12 11  1  0
 14 13  1  0
 14 23  1  0
 14 15  1  0
 16 10  1  0
 16 15  1  0
 17 10  2  0
 18 19  1  0
 20 21  2  0
 21 40  1  0
 22 21  1  0
 22 25  1  0
 23 24  1  0
 23 20  1  0
 24 22  2  0
 25 26  1  0
 26 27  2  0
 28 31  1  0
 28 27  1  0
 29 28  2  0
 30 29  1  0
 30 25  2  0
 31 32  1  0
 32 33  1  0
 33 34  2  0
 35 34  1  0
 35 39  1  0
 36 35  2  0
 37 32  2  0
 37 36  1  0
 38 37  1  0
 40 41  1  0
 41 44  1  0
 41 43  1  0
 42 40  2  0
 45 46  1  0
 45 20  1  0
 47 45  1  0
 48 50  2  0
 49 48  1  0
 49  1  1  0
 51 49  1  0
 52 53  1  0
 52 48  1  0
 54 65  2  0
 55 53  1  0
 55 60  1  0
 56 64  1  0
 56 66  1  0
 57 63  1  0
 57 59  1  0
 58 64  1  0
 59 58  1  0
 60 59  2  0
 61 62  1  0
 61 55  2  0
 62 57  2  0
 63 56  1  0
 64 54  1  0
 66 68  2  0
 67 66  1  0
 69 67  1  0
 70 79  2  0
 70 75  1  0
 71 67  1  0
 71 75  1  0
 72 71  1  0
 73 74  1  0
 73 72  1  0
 74 70  1  0
 75 76  2  0
 76 77  1  0
 78 77  2  0
 79 78  1  0
 80 54  1  0
 80 85  1  0
 80 81  1  0
 81 84  1  1
 81 82  1  0
 83 81  1  0
 85 88  1  0
 86 90  1  0
 86 85  1  0
 87 86  2  0
 90 89  1  0
 92 93  1  0
 92 90  1  0
 92 91  1  0
M  ISO  4  10 100  18 100  52 101  53 101
M  END
>  <TORSDO>  (13) 
F 19

>  <SCORE>  (13) 
-14.358

>  <name>  (13) 
12

>  <ligand_id>  (13) 
12

>  <original_smiles>  (13) 
[H]c1c([H])c([H])c2c(c1[H])C([H])([H])C([H])([H])C([H])([H])C2([H])N([H])C(=O)C1([H])N(C(=O)C([H])(N([H])C(=O)C([H])(N([H])C([H])([H])[H])C([H])([H])[H])C(C([H])([H])[H])(C([H])([H])[H])C([H])([H])[H])C([H])([H])c2c([H])c(OC([H])([H])C(=O)N([H])C([H])([H])c3c(F)c([H])c(N([H])C(=O)N4C([H])([H])C([H])([H])C([H])([H])C([H])(n5nc(-c6c([H])c([H])c(Oc7c([H])c([H])c(F)c([H])c7F)c([H])c6[H])c(C(=O)N([H])[H])c5N([H])[H])C4([H])[H])c([H])c3F)c([H])c([H])c2C1([H])[H]

>  <smiles>  (13) 
[H]c1c([H])c([H])c2c(c1[H])C([H])([H])C([H])([H])C([H])([H])C2([H])N([H])C(=O)C1([H])N(C(=O)C([H])(N([H])C(=O)C([H])(N([H])C([H])([H])[H])C([H])([H])[H])C(C([H])([H])[H])(C([H])([H])[H])C([H])([H])[H])C([H])([H])c2c([H])c(OC([H])([H])C(=O)N([H])C([H])([H])c3c(F)c([H])c(N([H])C(=O)N4C([H])([H])C([H])([H])C([H])([H])C([H])(n5nc(-c6c([H])c([H])c(Oc7c([H])c([H])c(F)c([H])c7F)c([H])c6[H])c(C(=O)N([H])[H])c5N([H])[H])C4([H])[H])c([H])c3F)c([H])c([H])c2C1([H])[H]

$$$$
13:0:0
     RDKit          3D

 98106  0  0  1  0  0  0  0  0999 V2000
  -28.7450  -22.1360   18.4460 C   0  0  0  0  0  0  0  0  0  0  0  0
  -28.9050  -21.0150   17.7390 N   0  0  0  0  0  0  0  0  0  0  0  0
  -27.8140  -22.3030   19.2380 O   0  0  0  0  0  0  0  0  0  0  0  0
  -29.6890  -20.9570   17.1020 H   0  0  0  0  0  0  0  0  0  0  0  0
  -28.0410  -19.8380   17.8170 C   0  0  0  0  0  2  0  0  0  0  0  0
  -30.3600  -17.1250   19.2390 C   0  0  0  0  0  3  0  0  0  0  0  0
  -28.3080  -17.1400   20.5470 C   0  0  0  0  0  3  0  0  0  0  0  0
  -28.5950  -18.7350   18.7110 C   0  0  0  0  0  0  0  0  0  0  0  0
  -29.5650  -16.5620   20.2680 C   0  0  0  0  0  0  0  0  0  0  0  0
  -29.8740  -18.1940   18.4640 C   0  0  0  0  0  0  0  0  0  0  0  0
  -27.8210  -18.2110   19.7710 C   0  0  0  0  0  0  0  0  0  0  0  0
  -30.6390  -18.6840   17.4570 F   0  0  0  0  0  0  0  0  0  0  0  0
  -26.5910  -18.7150   20.0380 F   0  0  0  0  0  0  0  0  0  0  0  0
  -30.6700  -14.3920   20.4990 C   0  0  0  0  0  0  0  0  0  0  0  0
  -30.3630  -12.2490   19.3480 C   0  0  0  0  0  2  0  0  0  0  0  0
  -29.4390  -12.4980   18.1380 C   0  0  0  0  0  2  0  0  0  0  0  0
  -27.9570  -12.3820   18.5480 C   0  0  0  0  0  2  0  0  0  0  0  0
  -27.6190  -13.2110   19.8150 C   0  0  0  0  0  3  0  0  0  0  0  0
  -28.6550  -12.9450   20.9320 C   0  0  0  0  0  2  0  0  0  0  0  0
  -30.0000  -13.2180   20.3910 N   0  0  0  0  0  0  0  0  0  0  0  0
  -31.8020  -14.5770   20.0420 O   0  0  0  0  0  0  0  0  0  0  0  0
  -29.9400  -15.3980   21.0030 N   0  0  0  0  0  0  0  0  0  0  0  0
  -29.2170  -15.0620   21.6220 H   0  0  0  0  0  0  0  0  0  0  0  0
  -25.2100  -13.8470   20.4770 C   0  0  0  0  0  0  0  0  0  0  0  0
  -24.1300  -13.0890   20.8420 C   0  0  0  0  0  0  0  0  0  0  0  0
  -24.5820  -11.7340   20.8350 C   0  0  0  0  0  0  0  0  0  0  0  0
  -26.2530  -12.9550   20.2730 N   0  0  0  0  0  0  0  0  0  0  0  0
  -25.8760  -11.6800   20.5440 N   0  0  0  0  0  0  0  0  0  0  0  0
  -23.8450  -10.4790   21.0350 C   0  0  0  0  0  0  0  0  0  0  0  0
  -24.2740   -9.5130   21.9700 C   0  0  0  0  0  3  0  0  0  0  0  0
  -23.5390   -8.3210   22.1560 C   0  0  0  0  0  3  0  0  0  0  0  0
  -22.3620   -8.0900   21.4050 C   0  0  0  0  0  0  0  0  0  0  0  0
  -21.9520   -9.0450   20.4590 C   0  0  0  0  0  3  0  0  0  0  0  0
  -22.6880  -10.2280   20.2710 C   0  0  0  0  0  3  0  0  0  0  0  0
  -21.5990   -6.9510   21.4980 O   0  0  0  0  0  0  0  0  0  0  0  0
  -21.5640   -6.2000   22.6470 C   0  0  0  0  0  0  0  0  0  0  0  0
  -21.1730   -6.7520   23.8850 C   0  0  0  0  0  3  0  0  0  0  0  0
  -21.0840   -5.9310   25.0260 C   0  0  0  0  0  3  0  0  0  0  0  0
  -21.3750   -4.5560   24.9300 C   0  0  0  0  0  0  0  0  0  0  0  0
  -21.7590   -4.0040   23.6950 C   0  0  0  0  0  3  0  0  0  0  0  0
  -21.8500   -4.8230   22.5560 C   0  0  0  0  0  0  0  0  0  0  0  0
  -22.2000   -4.2820   21.3650 F   0  0  0  0  0  0  0  0  0  0  0  0
  -21.2810   -3.7650   26.0220 F   0  0  0  0  0  0  0  0  0  0  0  0
  -22.7340  -13.5820   21.0890 C   0  0  0  0  0  0  0  0  0  0  0  0
  -21.9880  -12.9030   21.9550 N   0  0  0  0  0  0  0  0  0  0  0  0
  -22.3110  -14.6020   20.5480 O   0  0  0  0  0  0  0  0  0  0  0  0
  -22.3400  -12.0790   22.4150 H   0  0  0  0  0  0  0  0  0  0  0  0
  -21.0510  -13.2180   22.1630 H   0  0  0  0  0  0  0  0  0  0  0  0
  -25.3890  -15.2120   20.2810 N   0  0  0  0  0  0  0  0  0  0  0  0
  -24.6280  -15.8750   20.3790 H   0  0  0  0  0  0  0  0  0  0  0  0
  -26.2360  -15.6290   19.9220 H   0  0  0  0  0  0  0  0  0  0  0  0
  -29.7660  -23.2510   18.2540 C   0  0  0  0  0  2  0  0  0  0  0  0
  -29.1010  -24.5450   18.4820 N   0  0  0  0  0  4  0  0  0  0  0  0
  -28.5380  -24.4110   19.3110 H   0  0  0  0  0  0  0  0  0  0  0  0
  -28.4610  -24.7090   17.7210 H   0  0  0  0  0  0  0  0  0  0  0  0
  -29.9920  -25.7090   18.6750 C   0  0  0  0  0  2  0  0  0  0  0  0
  -29.1710  -26.9740   18.9530 C   0  0  0  0  0  2  0  0  0  0  0  0
  -28.3830  -26.7390   20.1160 O   0  0  0  0  0  0  0  0  0  0  0  0
  -24.5700  -31.8690   23.2390 C   0  0  0  0  0  0  0  0  0  0  0  0
  -27.2170  -27.4580   20.1480 C   0  0  0  0  0  0  0  0  0  0  0  0
  -23.3600  -30.4630   21.6010 C   0  0  0  0  0  3  0  0  0  0  0  0
  -24.8130  -28.9240   20.1780 C   0  0  0  0  0  0  0  0  0  0  0  0
  -25.8820  -30.8290   21.3980 C   0  0  0  0  0  2  0  0  0  0  0  0
  -25.9680  -29.4580   20.7630 C   0  0  0  0  0  0  0  0  0  0  0  0
  -27.1730  -28.7270   20.7590 C   0  0  0  0  0  3  0  0  0  0  0  0
  -26.0490  -26.9170   19.5750 C   0  0  0  0  0  3  0  0  0  0  0  0
  -24.8440  -27.6490   19.5850 C   0  0  0  0  0  3  0  0  0  0  0  0
  -23.5640  -29.7750   20.2240 C   0  0  0  0  0  2  0  0  0  0  0  0
  -24.6220  -31.0680   22.1380 N   0  0  0  0  0  0  0  0  0  0  0  0
  -23.4910  -32.1440   23.7810 O   0  0  0  0  0  0  0  0  0  0  0  0
  -22.7110  -29.4440   22.5650 C   0  0  0  0  0  0  0  0  0  0  0  0
  -21.3860  -29.2680   22.4420 N   0  0  0  0  0  0  0  0  0  0  0  0
  -23.3960  -28.8140   23.3740 O   0  0  0  0  0  0  0  0  0  0  0  0
  -20.8970  -29.8270   21.7590 H   0  0  0  0  0  0  0  0  0  0  0  0
  -18.0050  -28.1030   22.9540 C   0  0  0  0  0  0  0  0  0  0  0  0
  -20.5670  -28.3350   23.2140 C   0  0  0  0  0  3  0  0  0  0  0  0
  -20.6540  -26.9060   22.6290 C   0  0  0  0  0  2  0  0  0  0  0  0
  -19.5420  -26.5980   21.6200 C   0  0  0  0  0  2  0  0  0  0  0  0
  -18.1650  -26.7540   22.2730 C   0  0  0  0  0  2  0  0  0  0  0  0
  -19.1330  -28.8520   23.3810 C   0  0  0  0  0  0  0  0  0  0  0  0
  -18.9310  -30.1180   23.9740 C   0  0  0  0  0  3  0  0  0  0  0  0
  -17.6310  -30.6310   24.1480 C   0  0  0  0  0  3  0  0  0  0  0  0
  -16.5190  -29.8760   23.7400 C   0  0  0  0  0  3  0  0  0  0  0  0
  -16.7050  -28.6150   23.1480 C   0  0  0  0  0  3  0  0  0  0  0  0
  -25.8600  -32.4980   23.8550 C   0  0  0  0  0  3  0  0  0  0  0  0
  -25.5560  -33.8960   24.1850 N   0  0  0  0  0  0  0  0  0  0  0  0
  -25.8980  -34.9470   23.4270 C   0  0  0  0  0  0  0  0  0  0  0  0
  -26.5720  -34.8400   22.3980 O   0  0  0  0  0  0  0  0  0  0  0  0
  -24.9560  -34.0540   24.9810 H   0  0  0  0  0  0  0  0  0  0  0  0
  -24.1790  -36.7440   23.0560 C   0  0  0  0  0  1  0  0  0  0  0  0
  -25.4110  -36.3350   23.8790 C   0  0  0  0  0  3  0  0  0  0  0  0
  -27.5440  -37.2070   24.7270 C   0  0  0  0  0  1  0  0  0  0  0  0
  -26.4490  -37.3840   23.7760 N   0  0  0  0  0  0  0  0  0  0  0  0
  -26.0470  -38.3050   23.9240 H   0  0  0  0  0  0  0  0  0  0  0  0
  -26.3820  -31.7250   25.1280 C   0  0  1  0  0  0  0  0  0  0  0  0
  -25.2930  -31.4870   26.2010 C   0  0  0  0  0  1  0  0  0  0  0  0
  -26.9590  -30.3470   24.7290 C   0  0  0  0  0  1  0  0  0  0  0  0
  -27.5360  -32.5170   25.7850 C   0  0  0  0  0  1  0  0  0  0  0  0
  1  3  2  0
  2  5  1  0
  2  1  1  0
  4  2  1  0
  5  8  1  0
  6  9  1  0
  8 11  2  0
  9  7  2  0
  9 22  1  0
 10  8  1  0
 10  6  2  0
 11 13  1  0
 11  7  1  0
 12 10  1  0
 14 22  1  0
 15 20  1  0
 16 17  1  0
 16 15  1  0
 18 17  1  0
 18 27  1  0
 18 19  1  0
 20 14  1  0
 20 19  1  0
 21 14  2  0
 22 23  1  0
 24 25  2  0
 25 44  1  0
 26 25  1  0
 26 29  1  0
 27 24  1  0
 27 28  1  0
 28 26  2  0
 29 30  1  0
 30 31  2  0
 32 35  1  0
 32 31  1  0
 33 32  2  0
 34 33  1  0
 34 29  2  0
 35 36  1  0
 36 37  1  0
 37 38  2  0
 39 38  1  0
 39 43  1  0
 40 39  2  0
 41 36  2  0
 41 40  1  0
 42 41  1  0
 44 45  1  0
 45 48  1  0
 45 47  1  0
 46 44  2  0
 49 50  1  0
 49 24  1  0
 51 49  1  0
 52  1  1  0
 52 53  1  0
 53 56  1  0
 53 54  1  0
 55 53  1  0
 56 57  1  0
 57 58  1  0
 58 60  1  0
 59 70  2  0
 60 65  1  0
 61 69  1  0
 61 71  1  0
 62 68  1  0
 62 64  1  0
 63 69  1  0
 64 63  1  0
 65 64  2  0
 66 67  1  0
 66 60  2  0
 67 62  2  0
 68 61  1  0
 69 59  1  0
 71 73  2  0
 72 71  1  0
 74 72  1  0
 75 84  2  0
 75 80  1  0
 76 72  1  0
 76 80  1  0
 77 76  1  0
 78 79  1  0
 78 77  1  0
 79 75  1  0
 80 81  2  0
 81 82  1  0
 83 82  2  0
 84 83  1  0
 85 59  1  0
 85 86  1  0
 85 95  1  0
 86 89  1  0
 87 91  1  0
 87 86  1  0
 88 87  2  0
 91 90  1  0
 93 91  1  0
 93 94  1  0
 93 92  1  0
 95 98  1  1
 95 96  1  0
 97 95  1  0
M  ISO  4  14 100  22 100  57 101  58 101
M  END
>  <TORSDO>  (14) 
F 22

>  <SCORE>  (14) 
-13.311

>  <name>  (14) 
13

>  <ligand_id>  (14) 
13

>  <original_smiles>  (14) 
[H]c1c([H])c([H])c2c(c1[H])C([H])([H])C([H])([H])C([H])([H])C2([H])N([H])C(=O)C1([H])N(C(=O)C([H])(N([H])C(=O)C([H])(N([H])C([H])([H])[H])C([H])([H])[H])C(C([H])([H])[H])(C([H])([H])[H])C([H])([H])[H])C([H])([H])c2c([H])c(OC([H])([H])C([H])([H])[N+]([H])([H])C([H])([H])C(=O)N([H])C([H])([H])c3c(F)c([H])c(N([H])C(=O)N4C([H])([H])C([H])([H])C([H])([H])C([H])(n5nc(-c6c([H])c([H])c(Oc7c([H])c([H])c(F)c([H])c7F)c([H])c6[H])c(C(=O)N([H])[H])c5N([H])[H])C4([H])[H])c([H])c3F)c([H])c([H])c2C1([H])[H]

>  <smiles>  (14) 
[H]c1c([H])c([H])c2c(c1[H])C([H])([H])C([H])([H])C([H])([H])C2([H])N([H])C(=O)C1([H])N(C(=O)C([H])(N([H])C(=O)C([H])(N([H])C([H])([H])[H])C([H])([H])[H])C(C([H])([H])[H])(C([H])([H])[H])C([H])([H])[H])C([H])([H])c2c([H])c(OC([H])([H])C([H])([H])[N+]([H])([H])C([H])([H])C(=O)N([H])C([H])([H])c3c(F)c([H])c(N([H])C(=O)N4C([H])([H])C([H])([H])C([H])([H])C([H])(n5nc(-c6c([H])c([H])c(Oc7c([H])c([H])c(F)c([H])c7F)c([H])c6[H])c(C(=O)N([H])[H])c5N([H])[H])C4([H])[H])c([H])c3F)c([H])c([H])c2C1([H])[H]

$$$$
14:0:0
     RDKit          3D

 93102  0  0  1  0  0  0  0  0999 V2000
  -28.5200  -22.5450   20.8580 C   0  0  0  0  0  2  0  0  0  0  0  0
  -29.7910  -23.7700   19.2090 C   0  0  0  0  0  2  0  0  0  0  0  0
  -29.7490  -21.6930   20.3710 C   0  0  0  0  0  3  0  0  0  0  0  0
  -28.5040  -23.9020   20.0410 C   0  0  0  0  0  3  0  0  0  0  0  0
  -31.4120  -22.0190   18.5210 C   0  0  0  0  0  1  0  0  0  0  0  0
  -30.0660  -22.3110   19.0620 N   0  0  2  0  0  4  0  0  0  0  0  0
  -29.3950  -21.9490   18.4020 H   0  0  0  0  0  0  0  0  0  0  0  0
  -30.9530  -19.3760   20.5680 C   0  0  0  0  0  3  0  0  0  0  0  0
  -28.5660  -19.3130   20.3270 C   0  0  0  0  0  3  0  0  0  0  0  0
  -31.0080  -17.9480   20.6210 C   0  0  0  0  0  3  0  0  0  0  0  0
  -28.6150  -17.8890   20.4070 C   0  0  0  0  0  3  0  0  0  0  0  0
  -29.7390  -20.1080   20.4120 C   0  0  0  0  0  0  0  0  0  0  0  0
  -29.8300  -17.1630   20.5480 C   0  0  0  0  0  0  0  0  0  0  0  0
  -30.6100  -14.6850   20.3000 C   0  0  0  0  0  0  0  0  0  0  0  0
  -30.4080  -12.4620   19.2010 C   0  0  0  0  0  2  0  0  0  0  0  0
  -29.4380  -12.6090   18.0070 C   0  0  0  0  0  2  0  0  0  0  0  0
  -27.9740  -12.4400   18.4580 C   0  0  0  0  0  2  0  0  0  0  0  0
  -27.6370  -13.2790   19.7190 C   0  0  0  0  0  3  0  0  0  0  0  0
  -28.7150  -13.0940   20.8110 C   0  0  0  0  0  2  0  0  0  0  0  0
  -30.0140  -13.4530   20.2200 N   0  0  0  0  0  0  0  0  0  0  0  0
  -31.7650  -14.8700   19.9020 O   0  0  0  0  0  0  0  0  0  0  0  0
  -29.7710  -15.7060   20.6680 N   0  0  0  0  0  0  0  0  0  0  0  0
  -28.8650  -15.3540   20.9320 H   0  0  0  0  0  0  0  0  0  0  0  0
  -25.2520  -13.8720   20.4770 C   0  0  0  0  0  0  0  0  0  0  0  0
  -24.1930  -13.0950   20.8610 C   0  0  0  0  0  0  0  0  0  0  0  0
  -24.6570  -11.7450   20.8120 C   0  0  0  0  0  0  0  0  0  0  0  0
  -26.2950  -12.9940   20.2210 N   0  0  0  0  0  0  0  0  0  0  0  0
  -25.9420  -11.7100   20.4820 N   0  0  0  0  0  0  0  0  0  0  0  0
  -23.9370  -10.4790   21.0050 C   0  0  0  0  0  0  0  0  0  0  0  0
  -24.3730   -9.5160   21.9400 C   0  0  0  0  0  3  0  0  0  0  0  0
  -23.6540   -8.3150   22.1200 C   0  0  0  0  0  3  0  0  0  0  0  0
  -22.4830   -8.0700   21.3640 C   0  0  0  0  0  0  0  0  0  0  0  0
  -22.0650   -9.0220   20.4170 C   0  0  0  0  0  3  0  0  0  0  0  0
  -22.7860  -10.2150   20.2360 C   0  0  0  0  0  3  0  0  0  0  0  0
  -21.7350   -6.9210   21.4520 O   0  0  0  0  0  0  0  0  0  0  0  0
  -21.6740   -6.1890   22.6110 C   0  0  0  0  0  0  0  0  0  0  0  0
  -21.2100   -6.7490   23.8220 C   0  0  0  0  0  3  0  0  0  0  0  0
  -21.0990   -5.9420   24.9720 C   0  0  0  0  0  3  0  0  0  0  0  0
  -21.4400   -4.5770   24.9120 C   0  0  0  0  0  0  0  0  0  0  0  0
  -21.8970   -4.0180   23.7060 C   0  0  0  0  0  3  0  0  0  0  0  0
  -22.0100   -4.8220   22.5570 C   0  0  0  0  0  0  0  0  0  0  0  0
  -22.4300   -4.2730   21.3920 F   0  0  0  0  0  0  0  0  0  0  0  0
  -21.3260   -3.8010   26.0150 F   0  0  0  0  0  0  0  0  0  0  0  0
  -22.7990  -13.5670   21.1570 C   0  0  0  0  0  0  0  0  0  0  0  0
  -22.0840  -12.8610   22.0250 N   0  0  0  0  0  0  0  0  0  0  0  0
  -22.3530  -14.5980   20.6540 O   0  0  0  0  0  0  0  0  0  0  0  0
  -22.4580  -12.0280   22.4540 H   0  0  0  0  0  0  0  0  0  0  0  0
  -21.1500  -13.1590   22.2660 H   0  0  0  0  0  0  0  0  0  0  0  0
  -25.4090  -15.2430   20.3010 N   0  0  0  0  0  0  0  0  0  0  0  0
  -24.6300  -15.8840   20.4020 H   0  0  0  0  0  0  0  0  0  0  0  0
  -26.2210  -15.6720   19.8770 H   0  0  0  0  0  0  0  0  0  0  0  0
  -28.3170  -25.2620   20.8520 C   0  0  0  0  0  2  0  0  0  0  0  0
  -28.3760  -26.5700   20.1770 O   0  0  0  0  0  0  0  0  0  0  0  0
  -24.5820  -31.9010   23.2180 C   0  0  0  0  0  0  0  0  0  0  0  0
  -27.2360  -27.3730   20.1910 C   0  0  0  0  0  0  0  0  0  0  0  0
  -23.3880  -30.4890   21.5800 C   0  0  0  0  0  3  0  0  0  0  0  0
  -24.8520  -28.9370   20.1680 C   0  0  0  0  0  0  0  0  0  0  0  0
  -25.9210  -30.8330   21.3930 C   0  0  0  0  0  2  0  0  0  0  0  0
  -26.0140  -29.4510   20.7580 C   0  0  0  0  0  0  0  0  0  0  0  0
  -27.2120  -28.6820   20.7550 C   0  0  0  0  0  3  0  0  0  0  0  0
  -26.0540  -26.8930   19.5910 C   0  0  0  0  0  3  0  0  0  0  0  0
  -24.8730  -27.6610   19.5760 C   0  0  0  0  0  3  0  0  0  0  0  0
  -23.6080  -29.8020   20.2040 C   0  0  0  0  0  2  0  0  0  0  0  0
  -24.6490  -31.0920   22.1210 N   0  0  0  0  0  0  0  0  0  0  0  0
  -23.4970  -32.1740   23.7520 O   0  0  0  0  0  0  0  0  0  0  0  0
  -22.7300  -29.4730   22.5440 C   0  0  0  0  0  0  0  0  0  0  0  0
  -21.4050  -29.2910   22.4160 N   0  0  0  0  0  0  0  0  0  0  0  0
  -23.4110  -28.8520   23.3640 O   0  0  0  0  0  0  0  0  0  0  0  0
  -20.9150  -29.8440   21.7270 H   0  0  0  0  0  0  0  0  0  0  0  0
  -18.0290  -28.0950   22.9210 C   0  0  0  0  0  0  0  0  0  0  0  0
  -20.5880  -28.3530   23.1870 C   0  0  0  0  0  3  0  0  0  0  0  0
  -20.6890  -26.9230   22.6110 C   0  0  0  0  0  2  0  0  0  0  0  0
  -19.5850  -26.6000   21.5990 C   0  0  0  0  0  2  0  0  0  0  0  0
  -18.2050  -26.7470   22.2450 C   0  0  0  0  0  2  0  0  0  0  0  0
  -19.1500  -28.8570   23.3490 C   0  0  0  0  0  0  0  0  0  0  0  0
  -18.9320  -30.1200   23.9410 C   0  0  0  0  0  3  0  0  0  0  0  0
  -17.6280  -30.6210   24.1090 C   0  0  0  0  0  3  0  0  0  0  0  0
  -16.5220  -29.8570   23.6980 C   0  0  0  0  0  3  0  0  0  0  0  0
  -16.7240  -28.5960   23.1090 C   0  0  0  0  0  3  0  0  0  0  0  0
  -25.8610  -32.5410   23.8420 C   0  0  0  0  0  3  0  0  0  0  0  0
  -25.5460  -33.9400   24.1630 N   0  0  0  0  0  0  0  0  0  0  0  0
  -25.8850  -34.9900   23.4040 C   0  0  0  0  0  0  0  0  0  0  0  0
  -26.5660  -34.8840   22.3800 O   0  0  0  0  0  0  0  0  0  0  0  0
  -24.9450  -34.0960   24.9580 H   0  0  0  0  0  0  0  0  0  0  0  0
  -24.1690  -36.7870   23.0150 C   0  0  0  0  0  1  0  0  0  0  0  0
  -25.3920  -36.3810   23.8510 C   0  0  0  0  0  3  0  0  0  0  0  0
  -27.5100  -37.2630   24.7260 C   0  0  0  0  0  1  0  0  0  0  0  0
  -26.4290  -37.4310   23.7580 N   0  0  0  0  0  0  0  0  0  0  0  0
  -26.0220  -38.3520   23.8940 H   0  0  0  0  0  0  0  0  0  0  0  0
  -26.3760  -31.7780   25.1240 C   0  0  1  0  0  0  0  0  0  0  0  0
  -25.2800  -31.5420   26.1890 C   0  0  0  0  0  1  0  0  0  0  0  0
  -26.9660  -30.4010   24.7410 C   0  0  0  0  0  1  0  0  0  0  0  0
  -27.5220  -32.5800   25.7860 C   0  0  0  0  0  1  0  0  0  0  0  0
  2  4  1  0
  3 12  1  0
  3  1  1  0
  4 52  1  0
  4  1  1  0
  5  6  1  0
  6  2  1  0
  6  3  1  0
  6  7  1  6
  8 10  1  0
  9 11  2  0
  9 12  1  0
 11 13  1  0
 12  8  2  0
 13 10  2  0
 13 22  1  0
 14 22  1  0
 15 20  1  0
 16 17  1  0
 16 15  1  0
 18 17  1  0
 18 27  1  0
 18 19  1  0
 20 14  1  0
 20 19  1  0
 21 14  2  0
 22 23  1  0
 24 25  2  0
 25 44  1  0
 26 25  1  0
 26 29  1  0
 27 24  1  0
 27 28  1  0
 28 26  2  0
 29 30  1  0
 30 31  2  0
 32 35  1  0
 32 31  1  0
 33 32  2  0
 34 33  1  0
 34 29  2  0
 35 36  1  0
 36 37  1  0
 37 38  2  0
 39 38  1  0
 39 43  1  0
 40 39  2  0
 41 36  2  0
 41 40  1  0
 42 41  1  0
 44 45  1  0
 45 48  1  0
 45 47  1  0
 46 44  2  0
 49 50  1  0
 49 24  1  0
 51 49  1  0
 53 55  1  0
 53 52  1  0
 54 65  2  0
 55 60  1  0
 56 64  1  0
 56 66  1  0
 57 63  1  0
 57 59  1  0
 58 64  1  0
 59 58  1  0
 60 59  2  0
 61 55  2  0
 62 61  1  0
 62 57  2  0
 63 56  1  0
 64 54  1  0
 66 68  2  0
 67 66  1  0
 69 67  1  0
 70 79  2  0
 70 75  1  0
 71 67  1  0
 71 75  1  0
 72 71  1  0
 73 74  1  0
 73 72  1  0
 74 70  1  0
 75 76  2  0
 76 77  1  0
 78 77  2  0
 79 78  1  0
 80 54  1  0
 80 81  1  0
 80 90  1  0
 81 84  1  0
 82 86  1  0
 82 81  1  0
 83 82  2  0
 86 85  1  0
 88 86  1  0
 88 89  1  0
 88 87  1  0
 90 93  1  1
 90 91  1  0
 92 90  1  0
M  ISO  4  14 100  22 100  52 101  53 101
M  END
>  <TORSDO>  (15) 
F 18

>  <SCORE>  (15) 
-14.952

>  <name>  (15) 
14

>  <ligand_id>  (15) 
14

>  <original_smiles>  (15) 
[H]c1c([H])c([H])c2c(c1[H])C([H])([H])C([H])([H])C([H])([H])C2([H])N([H])C(=O)C1([H])N(C(=O)C([H])(N([H])C(=O)C([H])(N([H])C([H])([H])[H])C([H])([H])[H])C(C([H])([H])[H])(C([H])([H])[H])C([H])([H])[H])C([H])([H])c2c([H])c(OC([H])([H])C3([H])C([H])([H])C([H])(c4c([H])c([H])c(N([H])C(=O)N5C([H])([H])C([H])([H])C([H])([H])C([H])(n6nc(-c7c([H])c([H])c(Oc8c([H])c([H])c(F)c([H])c8F)c([H])c7[H])c(C(=O)N([H])[H])c6N([H])[H])C5([H])[H])c([H])c4[H])[N+]([H])(C([H])([H])[H])C3([H])[H])c([H])c([H])c2C1([H])[H]

>  <smiles>  (15) 
[H]c1c([H])c([H])c2c(c1[H])C([H])([H])C([H])([H])C([H])([H])C2([H])N([H])C(=O)C1([H])N(C(=O)C([H])(N([H])C(=O)C([H])(N([H])C([H])([H])[H])C([H])([H])[H])C(C([H])([H])[H])(C([H])([H])[H])C([H])([H])[H])C([H])([H])c2c([H])c(OC([H])([H])C3([H])C([H])([H])C([H])(c4c([H])c([H])c(N([H])C(=O)N5C([H])([H])C([H])([H])C([H])([H])C([H])(n6nc(-c7c([H])c([H])c(Oc8c([H])c([H])c(F)c([H])c8F)c([H])c7[H])c(C(=O)N([H])[H])c6N([H])[H])C5([H])[H])c([H])c4[H])[N+]([H])(C([H])([H])[H])C3([H])[H])c([H])c([H])c2C1([H])[H]

$$$$
15:0:0
     RDKit          3D

 97105  0  0  1  0  0  0  0  0999 V2000
  -27.7420  -22.4050   17.3270 C   0  0  0  0  0  1  0  0  0  0  0  0
  -29.1830  -22.8310   17.6730 C   0  0  0  0  0  3  0  0  0  0  0  0
  -29.9780  -21.6480   18.2990 C   0  0  0  0  0  2  0  0  0  0  0  0
  -29.4830  -21.0660   19.6560 C   0  0  0  0  0  2  0  0  0  0  0  0
  -29.2390  -17.5530   21.2400 C   0  0  0  0  0  2  0  0  0  0  0  0
  -29.2570  -19.0970   21.1600 C   0  0  0  0  0  2  0  0  0  0  0  0
  -30.9800  -19.0290   19.4300 C   0  0  0  0  0  2  0  0  0  0  0  0
  -30.5200  -16.8700   20.7040 C   0  0  0  0  0  3  0  0  0  0  0  0
  -30.8840  -17.4950   19.3340 C   0  0  0  0  0  3  0  0  0  0  0  0
  -29.6560  -19.5880   19.8120 N   0  0  2  0  0  4  0  0  0  0  0  0
  -29.9270  -17.1970   18.4480 F   0  0  0  0  0  0  0  0  0  0  0  0
  -29.0130  -19.1620   19.1590 H   0  0  0  0  0  0  0  0  0  0  0  0
  -31.0090  -14.4340   20.1360 C   0  0  0  0  0  0  0  0  0  0  0  0
  -30.6590  -12.3200   18.9350 C   0  0  0  0  0  2  0  0  0  0  0  0
  -29.6850  -12.5910   17.7670 C   0  0  0  0  0  2  0  0  0  0  0  0
  -28.2130  -12.4830   18.2260 C   0  0  0  0  0  2  0  0  0  0  0  0
  -27.9340  -13.2850   19.5270 C   0  0  0  0  0  3  0  0  0  0  0  0
  -29.0120  -12.9780   20.5920 C   0  0  0  0  0  2  0  0  0  0  0  0
  -30.3330  -13.2690   20.0050 N   0  0  0  0  0  0  0  0  0  0  0  0
  -32.1350  -14.6340   19.6710 O   0  0  0  0  0  0  0  0  0  0  0  0
  -30.2670  -15.4230   20.6540 N   0  0  0  0  0  0  0  0  0  0  0  0
  -29.3570  -15.1230   20.9660 H   0  0  0  0  0  0  0  0  0  0  0  0
  -25.5670  -13.9510   20.3010 C   0  0  0  0  0  0  0  0  0  0  0  0
  -24.4950  -13.2010   20.7040 C   0  0  0  0  0  0  0  0  0  0  0  0
  -24.9250  -11.8410   20.6600 C   0  0  0  0  0  0  0  0  0  0  0  0
  -26.5870  -13.0470   20.0410 N   0  0  0  0  0  0  0  0  0  0  0  0
  -26.2040  -11.7740   20.3120 N   0  0  0  0  0  0  0  0  0  0  0  0
  -24.1780  -10.5930   20.8630 C   0  0  0  0  0  0  0  0  0  0  0  0
  -24.5790   -9.6480   21.8310 C   0  0  0  0  0  3  0  0  0  0  0  0
  -23.8370   -8.4630   22.0260 C   0  0  0  0  0  3  0  0  0  0  0  0
  -22.6790   -8.2160   21.2520 C   0  0  0  0  0  0  0  0  0  0  0  0
  -22.3000   -9.1490   20.2700 C   0  0  0  0  0  3  0  0  0  0  0  0
  -23.0430  -10.3240   20.0750 C   0  0  0  0  0  3  0  0  0  0  0  0
  -21.9120   -7.0790   21.3510 O   0  0  0  0  0  0  0  0  0  0  0  0
  -21.7730   -6.4030   22.5370 C   0  0  0  0  0  0  0  0  0  0  0  0
  -21.2690   -7.0290   23.6980 C   0  0  0  0  0  3  0  0  0  0  0  0
  -21.0790   -6.2810   24.8770 C   0  0  0  0  0  3  0  0  0  0  0  0
  -21.3810   -4.9060   24.8930 C   0  0  0  0  0  0  0  0  0  0  0  0
  -21.8740   -4.2780   23.7350 C   0  0  0  0  0  3  0  0  0  0  0  0
  -22.0650   -5.0240   22.5600 C   0  0  0  0  0  0  0  0  0  0  0  0
  -22.5200   -4.4120   21.4400 F   0  0  0  0  0  0  0  0  0  0  0  0
  -21.1920   -4.1840   26.0220 F   0  0  0  0  0  0  0  0  0  0  0  0
  -23.1120  -13.7020   21.0130 C   0  0  0  0  0  0  0  0  0  0  0  0
  -22.3910  -13.0240   21.9000 N   0  0  0  0  0  0  0  0  0  0  0  0
  -22.6810  -14.7340   20.5010 O   0  0  0  0  0  0  0  0  0  0  0  0
  -22.7500  -12.1910   22.3430 H   0  0  0  0  0  0  0  0  0  0  0  0
  -21.4590  -13.3400   22.1330 H   0  0  0  0  0  0  0  0  0  0  0  0
  -25.7510  -15.3180   20.1100 N   0  0  0  0  0  0  0  0  0  0  0  0
  -24.9860  -15.9740   20.2060 H   0  0  0  0  0  0  0  0  0  0  0  0
  -26.5590  -15.7250   19.6580 H   0  0  0  0  0  0  0  0  0  0  0  0
  -29.2020  -24.1890   18.4540 C   0  0  0  0  0  2  0  0  0  0  0  0
  -30.4500  -25.5870   16.7940 C   0  0  0  0  0  1  0  0  0  0  0  0
  -30.3820  -25.0680   18.1850 N   0  0  1  0  0  4  0  0  0  0  0  0
  -31.1920  -24.4710   18.2790 H   0  0  0  0  0  0  0  0  0  0  0  0
  -30.6000  -26.1470   19.2030 C   0  0  0  0  0  2  0  0  0  0  0  0
  -29.5100  -27.2490   19.2930 C   0  0  0  0  0  2  0  0  0  0  0  0
  -28.3910  -26.7350   20.0020 O   0  0  0  0  0  0  0  0  0  0  0  0
  -24.5270  -31.8800   23.1210 C   0  0  0  0  0  0  0  0  0  0  0  0
  -27.2540  -27.5080   20.0170 C   0  0  0  0  0  0  0  0  0  0  0  0
  -23.3440  -30.4660   21.4680 C   0  0  0  0  0  3  0  0  0  0  0  0
  -24.8290  -28.9530   20.0460 C   0  0  0  0  0  0  0  0  0  0  0  0
  -25.8650  -30.8690   21.2760 C   0  0  0  0  0  2  0  0  0  0  0  0
  -25.9780  -29.5040   20.6320 C   0  0  0  0  0  0  0  0  0  0  0  0
  -27.1990  -28.7900   20.6140 C   0  0  0  0  0  3  0  0  0  0  0  0
  -26.0870  -26.9590   19.4530 C   0  0  0  0  0  3  0  0  0  0  0  0
  -24.8780  -27.6810   19.4500 C   0  0  0  0  0  3  0  0  0  0  0  0
  -23.5660  -29.7840   20.0910 C   0  0  0  0  0  2  0  0  0  0  0  0
  -24.5960  -31.0850   22.0160 N   0  0  0  0  0  0  0  0  0  0  0  0
  -23.4410  -32.1350   23.6600 O   0  0  0  0  0  0  0  0  0  0  0  0
  -22.7030  -29.4370   22.4260 C   0  0  0  0  0  0  0  0  0  0  0  0
  -21.3750  -29.2700   22.3220 N   0  0  0  0  0  0  0  0  0  0  0  0
  -23.3970  -28.7900   23.2150 O   0  0  0  0  0  0  0  0  0  0  0  0
  -20.8750  -29.8450   21.6600 H   0  0  0  0  0  0  0  0  0  0  0  0
  -17.9950  -28.1190   22.8840 C   0  0  0  0  0  0  0  0  0  0  0  0
  -20.5640  -28.3260   23.0920 C   0  0  0  0  0  3  0  0  0  0  0  0
  -20.6240  -26.9080   22.4780 C   0  0  0  0  0  2  0  0  0  0  0  0
  -19.4890  -26.6310   21.4850 C   0  0  0  0  0  2  0  0  0  0  0  0
  -18.1290  -26.7850   22.1700 C   0  0  0  0  0  2  0  0  0  0  0  0
  -19.1390  -28.8490   23.3030 C   0  0  0  0  0  0  0  0  0  0  0  0
  -18.9600  -30.1020   23.9300 C   0  0  0  0  0  3  0  0  0  0  0  0
  -17.6700  -30.6230   24.1420 C   0  0  0  0  0  3  0  0  0  0  0  0
  -16.5400  -29.8880   23.7400 C   0  0  0  0  0  3  0  0  0  0  0  0
  -16.7040  -28.6370   23.1160 C   0  0  0  0  0  3  0  0  0  0  0  0
  -25.8030  -32.5250   23.7460 C   0  0  0  0  0  3  0  0  0  0  0  0
  -25.4690  -33.9080   24.1140 N   0  0  0  0  0  0  0  0  0  0  0  0
  -25.7690  -34.9840   23.3760 C   0  0  0  0  0  0  0  0  0  0  0  0
  -26.4280  -34.9180   22.3330 O   0  0  0  0  0  0  0  0  0  0  0  0
  -24.8820  -34.0290   24.9270 H   0  0  0  0  0  0  0  0  0  0  0  0
  -23.9950  -36.7410   23.0780 C   0  0  0  0  0  1  0  0  0  0  0  0
  -25.2540  -36.3500   23.8690 C   0  0  0  0  0  3  0  0  0  0  0  0
  -27.3770  -37.2650   24.6970 C   0  0  0  0  0  1  0  0  0  0  0  0
  -26.2610  -37.4290   23.7690 N   0  0  0  0  0  0  0  0  0  0  0  0
  -25.8360  -38.3360   23.9400 H   0  0  0  0  0  0  0  0  0  0  0  0
  -26.3520  -31.7340   24.9960 C   0  0  1  0  0  0  0  0  0  0  0  0
  -25.2780  -31.4450   26.0720 C   0  0  0  0  0  1  0  0  0  0  0  0
  -26.9620  -30.3800   24.5590 C   0  0  0  0  0  1  0  0  0  0  0  0
  -27.4950  -32.5350   25.6660 C   0  0  0  0  0  1  0  0  0  0  0  0
  2  1  1  0
  2  3  1  0
  2 51  1  0
  3  4  1  0
  4 10  1  0
  6  5  1  0
  7 10  1  0
  8 21  1  0
  8  5  1  0
  9 11  1  0
  9  7  1  0
  9  8  1  0
 10  6  1  0
 10 12  1  6
 13 21  1  0
 14 19  1  0
 15 16  1  0
 15 14  1  0
 17 16  1  0
 17 26  1  0
 17 18  1  0
 19 13  1  0
 19 18  1  0
 20 13  2  0
 21 22  1  0
 23 24  2  0
 24 43  1  0
 25 24  1  0
 25 28  1  0
 26 23  1  0
 26 27  1  0
 27 25  2  0
 28 29  1  0
 29 30  2  0
 31 34  1  0
 31 30  1  0
 32 31  2  0
 33 32  1  0
 33 28  2  0
 34 35  1  0
 35 40  2  0
 35 36  1  0
 36 37  2  0
 37 38  1  0
 38 42  1  0
 39 38  2  0
 40 39  1  0
 41 40  1  0
 43 44  1  0
 44 47  1  0
 44 46  1  0
 45 43  2  0
 48 49  1  0
 48 23  1  0
 50 48  1  0
 52 53  1  0
 53 54  1  6
 53 51  1  0
 53 55  1  0
 55 56  1  0
 56 57  1  0
 57 59  1  0
 58 69  2  0
 59 64  1  0
 60 68  1  0
 60 70  1  0
 61 67  1  0
 61 63  1  0
 62 68  1  0
 63 62  1  0
 64 63  2  0
 65 59  2  0
 66 65  1  0
 66 61  2  0
 67 60  1  0
 68 58  1  0
 70 72  2  0
 71 70  1  0
 73 71  1  0
 74 83  2  0
 74 79  1  0
 75 71  1  0
 75 79  1  0
 76 75  1  0
 77 78  1  0
 77 76  1  0
 78 74  1  0
 79 80  2  0
 80 81  1  0
 82 81  2  0
 83 82  1  0
 84 58  1  0
 84 85  1  0
 84 94  1  0
 85 88  1  0
 86 90  1  0
 86 85  1  0
 87 86  2  0
 90 89  1  0
 92 90  1  0
 92 93  1  0
 92 91  1  0
 94 97  1  1
 94 95  1  0
 96 94  1  0
M  ISO  4  13 100  21 100  56 101  57 101
M  END
>  <TORSDO>  (16) 
F 23

>  <SCORE>  (16) 
-11.996

>  <name>  (16) 
15

>  <ligand_id>  (16) 
15

>  <original_smiles>  (16) 
[H]c1c([H])c([H])c2c(c1[H])C([H])([H])C([H])([H])C([H])([H])C2([H])N([H])C(=O)C1([H])N(C(=O)C([H])(N([H])C(=O)C([H])(N([H])C([H])([H])[H])C([H])([H])[H])C(C([H])([H])[H])(C([H])([H])[H])C([H])([H])[H])C([H])([H])c2c([H])c(OC([H])([H])C([H])([H])[N+]([H])(C([H])([H])[H])C([H])([H])C([H])(C([H])([H])[H])C([H])([H])C([H])([H])[N+]3([H])C([H])([H])C([H])([H])C([H])(N([H])C(=O)N4C([H])([H])C([H])([H])C([H])([H])C([H])(n5nc(-c6c([H])c([H])c(Oc7c([H])c([H])c(F)c([H])c7F)c([H])c6[H])c(C(=O)N([H])[H])c5N([H])[H])C4([H])[H])C([H])(F)C3([H])[H])c([H])c([H])c2C1([H])[H]

>  <smiles>  (16) 
[H]c1c([H])c([H])c2c(c1[H])C([H])([H])C([H])([H])C([H])([H])C2([H])N([H])C(=O)C1([H])N(C(=O)C([H])(N([H])C(=O)C([H])(N([H])C([H])([H])[H])C([H])([H])[H])C(C([H])([H])[H])(C([H])([H])[H])C([H])([H])[H])C([H])([H])c2c([H])c(OC([H])([H])C([H])([H])[N+]([H])(C([H])([H])[H])C([H])([H])C([H])(C([H])([H])[H])C([H])([H])C([H])([H])[N+]3([H])C([H])([H])C([H])([H])C([H])(N([H])C(=O)N4C([H])([H])C([H])([H])C([H])([H])C([H])(n5nc(-c6c([H])c([H])c(Oc7c([H])c([H])c(F)c([H])c7F)c([H])c6[H])c(C(=O)N([H])[H])c5N([H])[H])C4([H])[H])C([H])(F)C3([H])[H])c([H])c([H])c2C1([H])[H]

$$$$
16:0:0
     RDKit          3D

 93101  0  0  1  0  0  0  0  0999 V2000
  -28.2050  -23.8040   20.3990 C   0  0  0  0  0  3  0  0  0  0  0  0
  -27.5020  -23.7590   19.1010 N   0  0  0  0  0  4  0  0  0  0  0  0
  -27.9820  -24.3180   18.4150 H   0  0  0  0  0  0  0  0  0  0  0  0
  -26.5600  -24.0950   19.1910 H   0  0  0  0  0  0  0  0  0  0  0  0
  -27.4570  -22.8160   18.7600 H   0  0  0  0  0  0  0  0  0  0  0  0
  -29.5240  -22.9220   20.3390 C   0  0  0  0  0  2  0  0  0  0  0  0
  -31.0220  -19.5240   21.3230 C   0  0  0  0  0  2  0  0  0  0  0  0
  -28.7670  -19.0270   20.5200 C   0  0  0  0  0  2  0  0  0  0  0  0
  -30.8790  -20.9560   20.7320 C   0  0  0  0  0  2  0  0  0  0  0  0
  -28.7040  -20.5070   19.9620 C   0  0  0  0  0  2  0  0  0  0  0  0
  -30.2030  -18.4230   20.5980 C   0  0  0  0  0  3  0  0  0  0  0  0
  -29.4970  -21.4730   20.7580 N   0  0  0  0  0  0  0  0  0  0  0  0
  -30.4160  -17.0310   21.3520 C   0  0  0  0  0  2  0  0  0  0  0  0
  -30.6280  -14.6360   20.4380 C   0  0  0  0  0  0  0  0  0  0  0  0
  -30.3760  -12.4220   19.3320 C   0  0  0  0  0  2  0  0  0  0  0  0
  -29.4430  -12.5570   18.1100 C   0  0  0  0  0  2  0  0  0  0  0  0
  -27.9680  -12.4060   18.5290 C   0  0  0  0  0  2  0  0  0  0  0  0
  -27.6040  -13.2730   19.7650 C   0  0  0  0  0  3  0  0  0  0  0  0
  -28.6530  -13.1180   20.8880 C   0  0  0  0  0  2  0  0  0  0  0  0
  -29.9640  -13.4460   20.3110 N   0  0  0  0  0  0  0  0  0  0  0  0
  -31.8060  -14.7520   20.0920 O   0  0  0  0  0  0  0  0  0  0  0  0
  -29.8980  -15.7280   20.8200 N   0  0  0  0  0  0  0  0  0  0  0  0
  -28.9160  -15.5520   20.9720 H   0  0  0  0  0  0  0  0  0  0  0  0
  -25.2050  -13.8820   20.4490 C   0  0  0  0  0  0  0  0  0  0  0  0
  -24.1330  -13.1140   20.8150 C   0  0  0  0  0  0  0  0  0  0  0  0
  -24.5950  -11.7620   20.8070 C   0  0  0  0  0  0  0  0  0  0  0  0
  -26.2520  -12.9970   20.2390 N   0  0  0  0  0  0  0  0  0  0  0  0
  -25.8890  -11.7190   20.5160 N   0  0  0  0  0  0  0  0  0  0  0  0
  -23.8650  -10.5020   21.0030 C   0  0  0  0  0  0  0  0  0  0  0  0
  -24.2840   -9.5450   21.9520 C   0  0  0  0  0  3  0  0  0  0  0  0
  -23.5550   -8.3500   22.1340 C   0  0  0  0  0  3  0  0  0  0  0  0
  -22.3920   -8.1040   21.3670 C   0  0  0  0  0  0  0  0  0  0  0  0
  -21.9920   -9.0500   20.4070 C   0  0  0  0  0  3  0  0  0  0  0  0
  -22.7220  -10.2360   20.2230 C   0  0  0  0  0  3  0  0  0  0  0  0
  -21.6360   -6.9610   21.4580 O   0  0  0  0  0  0  0  0  0  0  0  0
  -21.5740   -6.2280   22.6160 C   0  0  0  0  0  0  0  0  0  0  0  0
  -21.1310   -6.7930   23.8320 C   0  0  0  0  0  3  0  0  0  0  0  0
  -21.0180   -5.9870   24.9820 C   0  0  0  0  0  3  0  0  0  0  0  0
  -21.3370   -4.6180   24.9180 C   0  0  0  0  0  0  0  0  0  0  0  0
  -21.7740   -4.0520   23.7070 C   0  0  0  0  0  3  0  0  0  0  0  0
  -21.8890   -4.8560   22.5580 C   0  0  0  0  0  0  0  0  0  0  0  0
  -22.2900   -4.3020   21.3890 F   0  0  0  0  0  0  0  0  0  0  0  0
  -21.2210   -3.8410   26.0200 F   0  0  0  0  0  0  0  0  0  0  0  0
  -22.7320  -13.5950   21.0620 C   0  0  0  0  0  0  0  0  0  0  0  0
  -21.9910  -12.9090   21.9260 N   0  0  0  0  0  0  0  0  0  0  0  0
  -22.3020  -14.6140   20.5240 O   0  0  0  0  0  0  0  0  0  0  0  0
  -22.3520  -12.0850   22.3830 H   0  0  0  0  0  0  0  0  0  0  0  0
  -21.0510  -13.2140   22.1330 H   0  0  0  0  0  0  0  0  0  0  0  0
  -25.3710  -15.2500   20.2550 N   0  0  0  0  0  0  0  0  0  0  0  0
  -24.6010  -15.9030   20.3430 H   0  0  0  0  0  0  0  0  0  0  0  0
  -26.2190  -15.6830   19.9100 H   0  0  0  0  0  0  0  0  0  0  0  0
  -28.2780  -25.3000   20.9810 C   0  0  0  0  0  2  0  0  0  0  0  0
  -28.3290  -26.5100   20.1370 O   0  0  0  0  0  0  0  0  0  0  0  0
  -24.5970  -31.8710   23.2340 C   0  0  0  0  0  0  0  0  0  0  0  0
  -27.2110  -27.3480   20.1590 C   0  0  0  0  0  0  0  0  0  0  0  0
  -23.3920  -30.4780   21.5900 C   0  0  0  0  0  3  0  0  0  0  0  0
  -24.8410  -28.9350   20.1610 C   0  0  0  0  0  0  0  0  0  0  0  0
  -25.9280  -30.8070   21.4010 C   0  0  0  0  0  2  0  0  0  0  0  0
  -26.0100  -29.4310   20.7550 C   0  0  0  0  0  0  0  0  0  0  0  0
  -27.2010  -28.6490   20.7440 C   0  0  0  0  0  3  0  0  0  0  0  0
  -26.0230  -26.8980   19.5460 C   0  0  0  0  0  3  0  0  0  0  0  0
  -24.8490  -27.6710   19.5490 C   0  0  0  0  0  3  0  0  0  0  0  0
  -23.6030  -29.8050   20.2090 C   0  0  0  0  0  2  0  0  0  0  0  0
  -24.6580  -31.0680   22.1320 N   0  0  0  0  0  0  0  0  0  0  0  0
  -23.5150  -32.1450   23.7720 O   0  0  0  0  0  0  0  0  0  0  0  0
  -22.7330  -29.4560   22.5470 C   0  0  0  0  0  0  0  0  0  0  0  0
  -21.4070  -29.2750   22.4180 N   0  0  0  0  0  0  0  0  0  0  0  0
  -23.4130  -28.8300   23.3640 O   0  0  0  0  0  0  0  0  0  0  0  0
  -20.9180  -29.8320   21.7310 H   0  0  0  0  0  0  0  0  0  0  0  0
  -18.0320  -28.0690   22.9050 C   0  0  0  0  0  0  0  0  0  0  0  0
  -20.5890  -28.3350   23.1850 C   0  0  0  0  0  3  0  0  0  0  0  0
  -20.6970  -26.9040   22.6090 C   0  0  0  0  0  2  0  0  0  0  0  0
  -19.6000  -26.5790   21.5900 C   0  0  0  0  0  2  0  0  0  0  0  0
  -18.2150  -26.7200   22.2300 C   0  0  0  0  0  2  0  0  0  0  0  0
  -19.1480  -28.8340   23.3390 C   0  0  0  0  0  0  0  0  0  0  0  0
  -18.9230  -30.0960   23.9300 C   0  0  0  0  0  3  0  0  0  0  0  0
  -17.6160  -30.5940   24.0900 C   0  0  0  0  0  3  0  0  0  0  0  0
  -16.5160  -29.8260   23.6730 C   0  0  0  0  0  3  0  0  0  0  0  0
  -16.7240  -28.5650   23.0850 C   0  0  0  0  0  3  0  0  0  0  0  0
  -25.8820  -32.5010   23.8570 C   0  0  0  0  0  3  0  0  0  0  0  0
  -25.5750  -33.9000   24.1840 N   0  0  0  0  0  0  0  0  0  0  0  0
  -25.9130  -34.9520   23.4260 C   0  0  0  0  0  0  0  0  0  0  0  0
  -26.5850  -34.8450   22.3970 O   0  0  0  0  0  0  0  0  0  0  0  0
  -24.9790  -34.0570   24.9840 H   0  0  0  0  0  0  0  0  0  0  0  0
  -24.1960  -36.7520   23.0610 C   0  0  0  0  0  1  0  0  0  0  0  0
  -25.4290  -36.3420   23.8810 C   0  0  0  0  0  3  0  0  0  0  0  0
  -27.5610  -37.2170   24.7280 C   0  0  0  0  0  1  0  0  0  0  0  0
  -26.4670  -37.3900   23.7760 N   0  0  0  0  0  0  0  0  0  0  0  0
  -26.0650  -38.3120   23.9200 H   0  0  0  0  0  0  0  0  0  0  0  0
  -26.3940  -31.7290   25.1340 C   0  0  1  0  0  0  0  0  0  0  0  0
  -25.3000  -31.4970   26.2020 C   0  0  0  0  0  1  0  0  0  0  0  0
  -26.9740  -30.3500   24.7440 C   0  0  0  0  0  1  0  0  0  0  0  0
  -27.5470  -32.5210   25.7960 C   0  0  0  0  0  1  0  0  0  0  0  0
  1  6  1  0
  1 52  1  0
  2  4  1  0
  2  1  1  0
  3  2  1  0
  5  2  1  0
  6 12  1  0
  8 11  1  0
  9 12  1  0
  9  7  1  0
 10  8  1  0
 10 12  1  0
 11  7  1  0
 11 13  1  0
 14 22  1  0
 15 20  1  0
 16 17  1  0
 16 15  1  0
 18 17  1  0
 18 27  1  0
 18 19  1  0
 20 14  1  0
 20 19  1  0
 21 14  2  0
 22 23  1  0
 22 13  1  0
 24 25  2  0
 25 44  1  0
 26 25  1  0
 26 29  1  0
 27 24  1  0
 27 28  1  0
 28 26  2  0
 29 30  1  0
 30 31  2  0
 32 35  1  0
 32 31  1  0
 33 32  2  0
 34 33  1  0
 34 29  2  0
 35 36  1  0
 36 37  1  0
 37 38  2  0
 39 38  1  0
 39 43  1  0
 40 39  2  0
 41 36  2  0
 41 40  1  0
 42 41  1  0
 44 45  1  0
 45 48  1  0
 45 47  1  0
 46 44  2  0
 49 50  1  0
 49 24  1  0
 51 49  1  0
 53 55  1  0
 53 52  1  0
 54 65  2  0
 55 60  1  0
 56 64  1  0
 56 66  1  0
 57 63  1  0
 57 59  1  0
 58 64  1  0
 59 58  1  0
 60 59  2  0
 61 62  1  0
 61 55  2  0
 62 57  2  0
 63 56  1  0
 64 54  1  0
 66 68  2  0
 67 66  1  0
 69 67  1  0
 70 79  2  0
 70 75  1  0
 71 67  1  0
 71 75  1  0
 72 71  1  0
 73 74  1  0
 73 72  1  0
 74 70  1  0
 75 76  2  0
 76 77  1  0
 78 77  2  0
 79 78  1  0
 80 54  1  0
 80 81  1  0
 80 90  1  0
 81 84  1  0
 82 86  1  0
 82 81  1  0
 83 82  2  0
 86 85  1  0
 88 86  1  0
 88 89  1  0
 88 87  1  0
 90 93  1  1
 90 91  1  0
 92 90  1  0
M  ISO  4  14 100  22 100  52 101  53 101
M  END
>  <TORSDO>  (17) 
F 21

>  <SCORE>  (17) 
-13.718

>  <name>  (17) 
16

>  <ligand_id>  (17) 
16

>  <original_smiles>  (17) 
[H]c1c([H])c([H])c2c(c1[H])C([H])([H])C([H])([H])C([H])([H])C2([H])N([H])C(=O)C1([H])N(C(=O)C([H])(N([H])C(=O)C([H])(N([H])C([H])([H])[H])C([H])([H])[H])C(C([H])([H])[H])(C([H])([H])[H])C([H])([H])[H])C([H])([H])c2c([H])c(OC([H])([H])C([H])(C([H])([H])N3C([H])([H])C([H])([H])C([H])(C([H])([H])N([H])C(=O)N4C([H])([H])C([H])([H])C([H])([H])C([H])(n5nc(-c6c([H])c([H])c(Oc7c([H])c([H])c(F)c([H])c7F)c([H])c6[H])c(C(=O)N([H])[H])c5N([H])[H])C4([H])[H])C([H])([H])C3([H])[H])[N+]([H])([H])[H])c([H])c([H])c2C1([H])[H]

>  <smiles>  (17) 
[H]c1c([H])c([H])c2c(c1[H])C([H])([H])C([H])([H])C([H])([H])C2([H])N([H])C(=O)C1([H])N(C(=O)C([H])(N([H])C(=O)C([H])(N([H])C([H])([H])[H])C([H])([H])[H])C(C([H])([H])[H])(C([H])([H])[H])C([H])([H])[H])C([H])([H])c2c([H])c(OC([H])([H])C([H])(C([H])([H])N3C([H])([H])C([H])([H])C([H])(C([H])([H])N([H])C(=O)N4C([H])([H])C([H])([H])C([H])([H])C([H])(n5nc(-c6c([H])c([H])c(Oc7c([H])c([H])c(F)c([H])c7F)c([H])c6[H])c(C(=O)N([H])[H])c5N([H])[H])C4([H])[H])C([H])([H])C3([H])[H])[N+]([H])([H])[H])c([H])c([H])c2C1([H])[H]

$$$$
17:0:0
     RDKit          3D

 94102  0  0  1  0  0  0  0  0999 V2000
  -27.5440  -20.2500   20.3240 C   0  0  0  0  0  3  0  0  0  0  0  0
  -27.2220  -18.9500   19.8860 C   0  0  0  0  0  3  0  0  0  0  0  0
  -29.7820  -19.4770   20.8550 C   0  0  0  0  0  3  0  0  0  0  0  0
  -28.8290  -20.5330   20.8200 C   0  0  0  0  0  0  0  0  0  0  0  0
  -29.4920  -18.1640   20.3700 C   0  0  0  0  0  0  0  0  0  0  0  0
  -28.1810  -17.9210   19.8940 C   0  0  0  0  0  0  0  0  0  0  0  0
  -27.8410  -16.7020   19.4160 F   0  0  0  0  0  0  0  0  0  0  0  0
  -31.9350  -17.4310   20.8950 C   0  0  0  0  0  1  0  0  0  0  0  0
  -30.5950  -17.0720   20.2080 C   0  0  0  0  0  3  0  0  0  0  0  0
  -30.7830  -14.5630   19.9480 C   0  0  0  0  0  0  0  0  0  0  0  0
  -30.3770  -12.3300   18.9610 C   0  0  0  0  0  2  0  0  0  0  0  0
  -29.4120  -12.5020   17.7750 C   0  0  0  0  0  2  0  0  0  0  0  0
  -27.9460  -12.4490   18.2580 C   0  0  0  0  0  2  0  0  0  0  0  0
  -27.6730  -13.2950   19.5390 C   0  0  0  0  0  3  0  0  0  0  0  0
  -28.7930  -13.1380   20.5970 C   0  0  0  0  0  2  0  0  0  0  0  0
  -30.0800  -13.3960   19.9360 N   0  0  0  0  0  0  0  0  0  0  0  0
  -31.8770  -14.6680   19.3820 O   0  0  0  0  0  0  0  0  0  0  0  0
  -30.1780  -15.6620   20.4550 N   0  0  0  0  0  0  0  0  0  0  0  0
  -29.2480  -15.5250   20.8180 H   0  0  0  0  0  0  0  0  0  0  0  0
  -25.3370  -13.8940   20.4420 C   0  0  0  0  0  0  0  0  0  0  0  0
  -24.2880  -13.1180   20.8620 C   0  0  0  0  0  0  0  0  0  0  0  0
  -24.7250  -11.7630   20.7410 C   0  0  0  0  0  0  0  0  0  0  0  0
  -26.3500  -13.0110   20.0980 N   0  0  0  0  0  0  0  0  0  0  0  0
  -25.9930  -11.7230   20.3480 N   0  0  0  0  0  0  0  0  0  0  0  0
  -23.9880  -10.5060   20.9300 C   0  0  0  0  0  0  0  0  0  0  0  0
  -24.4080   -9.5400   21.8720 C   0  0  0  0  0  3  0  0  0  0  0  0
  -23.6740   -8.3490   22.0540 C   0  0  0  0  0  3  0  0  0  0  0  0
  -22.5020   -8.1150   21.2950 C   0  0  0  0  0  0  0  0  0  0  0  0
  -22.0970   -9.0700   20.3490 C   0  0  0  0  0  3  0  0  0  0  0  0
  -22.8330  -10.2530   20.1630 C   0  0  0  0  0  3  0  0  0  0  0  0
  -21.7460   -6.9710   21.3800 O   0  0  0  0  0  0  0  0  0  0  0  0
  -21.6320   -6.2720   22.5540 C   0  0  0  0  0  0  0  0  0  0  0  0
  -21.1070   -6.8630   23.7260 C   0  0  0  0  0  3  0  0  0  0  0  0
  -20.9340   -6.0870   24.8900 C   0  0  0  0  0  3  0  0  0  0  0  0
  -21.2900   -4.7240   24.8890 C   0  0  0  0  0  0  0  0  0  0  0  0
  -21.8130   -4.1350   23.7250 C   0  0  0  0  0  3  0  0  0  0  0  0
  -21.9780   -4.9060   22.5610 C   0  0  0  0  0  0  0  0  0  0  0  0
  -22.4610   -4.3260   21.4360 F   0  0  0  0  0  0  0  0  0  0  0  0
  -21.1190   -3.9760   26.0050 F   0  0  0  0  0  0  0  0  0  0  0  0
  -22.9200  -13.6040   21.2460 C   0  0  0  0  0  0  0  0  0  0  0  0
  -22.2430  -12.8780   22.1300 N   0  0  0  0  0  0  0  0  0  0  0  0
  -22.4570  -14.6520   20.8000 O   0  0  0  0  0  0  0  0  0  0  0  0
  -22.6210  -12.0160   22.4900 H   0  0  0  0  0  0  0  0  0  0  0  0
  -21.3270  -13.1870   22.4280 H   0  0  0  0  0  0  0  0  0  0  0  0
  -25.5020  -15.2690   20.3100 N   0  0  0  0  0  0  0  0  0  0  0  0
  -24.7980  -15.9370   20.6080 H   0  0  0  0  0  0  0  0  0  0  0  0
  -26.3320  -15.7250   19.9360 H   0  0  0  0  0  0  0  0  0  0  0  0
  -29.1760  -21.9500   21.3200 C   0  0  0  0  0  2  0  0  0  0  0  0
  -28.9590  -24.3660   20.7170 C   0  0  0  0  0  0  0  0  0  0  0  0
  -28.7090  -23.0640   20.4700 N   0  0  0  0  0  0  0  0  0  0  0  0
  -29.4750  -24.7320   21.7770 O   0  0  0  0  0  0  0  0  0  0  0  0
  -28.2410  -22.8270   19.6060 H   0  0  0  0  0  0  0  0  0  0  0  0
  -28.6360  -25.4030   19.6110 C   0  0  0  0  0  2  0  0  0  0  0  0
  -28.5080  -26.7440   20.1490 O   0  0  0  0  0  0  0  0  0  0  0  0
  -24.5640  -31.8620   23.2040 C   0  0  0  0  0  0  0  0  0  0  0  0
  -27.3060  -27.4360   20.1310 C   0  0  0  0  0  0  0  0  0  0  0  0
  -23.4030  -30.4540   21.5400 C   0  0  0  0  0  3  0  0  0  0  0  0
  -24.8970  -28.9460   20.1300 C   0  0  0  0  0  0  0  0  0  0  0  0
  -25.9350  -30.8300   21.3910 C   0  0  0  0  0  2  0  0  0  0  0  0
  -26.0430  -29.4630   20.7420 C   0  0  0  0  0  0  0  0  0  0  0  0
  -27.2460  -28.7140   20.7450 C   0  0  0  0  0  3  0  0  0  0  0  0
  -26.1300  -26.9450   19.5120 C   0  0  0  0  0  3  0  0  0  0  0  0
  -24.9360  -27.6860   19.5170 C   0  0  0  0  0  3  0  0  0  0  0  0
  -23.6420  -29.7930   20.1580 C   0  0  0  0  0  2  0  0  0  0  0  0
  -24.6520  -31.0640   22.1010 N   0  0  0  0  0  0  0  0  0  0  0  0
  -23.4690  -32.1180   23.7250 O   0  0  0  0  0  0  0  0  0  0  0  0
  -22.7550  -29.4140   22.4810 C   0  0  0  0  0  0  0  0  0  0  0  0
  -21.4360  -29.2090   22.3310 N   0  0  0  0  0  0  0  0  0  0  0  0
  -23.4380  -28.7920   23.3000 O   0  0  0  0  0  0  0  0  0  0  0  0
  -20.9450  -29.7650   21.6440 H   0  0  0  0  0  0  0  0  0  0  0  0
  -18.0730  -27.9750   22.7920 C   0  0  0  0  0  0  0  0  0  0  0  0
  -20.6240  -28.2560   23.0880 C   0  0  0  0  0  3  0  0  0  0  0  0
  -20.7460  -26.8290   22.5040 C   0  0  0  0  0  2  0  0  0  0  0  0
  -19.6570  -26.5030   21.4770 C   0  0  0  0  0  2  0  0  0  0  0  0
  -18.2680  -26.6330   22.1080 C   0  0  0  0  0  2  0  0  0  0  0  0
  -19.1790  -28.7440   23.2380 C   0  0  0  0  0  0  0  0  0  0  0  0
  -18.9450  -30.0010   23.8350 C   0  0  0  0  0  3  0  0  0  0  0  0
  -17.6340  -30.4910   23.9880 C   0  0  0  0  0  3  0  0  0  0  0  0
  -16.5410  -29.7190   23.5570 C   0  0  0  0  0  3  0  0  0  0  0  0
  -16.7610  -28.4620   22.9670 C   0  0  0  0  0  3  0  0  0  0  0  0
  -25.8300  -32.5110   23.8410 C   0  0  0  0  0  3  0  0  0  0  0  0
  -26.3220  -31.7650   25.1430 C   0  0  1  0  0  0  0  0  0  0  0  0
  -25.2060  -31.5320   26.1870 C   0  0  0  0  0  1  0  0  0  0  0  0
  -26.9270  -30.3870   24.7860 C   0  0  0  0  0  1  0  0  0  0  0  0
  -27.4460  -32.5830   25.8200 C   0  0  0  0  0  1  0  0  0  0  0  0
  -25.5040  -33.9130   24.1380 N   0  0  0  0  0  0  0  0  0  0  0  0
  -25.8360  -34.9520   23.3600 C   0  0  0  0  0  0  0  0  0  0  0  0
  -26.5200  -34.8320   22.3400 O   0  0  0  0  0  0  0  0  0  0  0  0
  -24.8960  -34.0810   24.9250 H   0  0  0  0  0  0  0  0  0  0  0  0
  -24.0910  -36.7160   22.9430 C   0  0  0  0  0  1  0  0  0  0  0  0
  -25.3260  -36.3440   23.7790 C   0  0  0  0  0  3  0  0  0  0  0  0
  -27.4370  -37.2760   24.6190 C   0  0  0  0  0  1  0  0  0  0  0  0
  -26.3480  -37.4070   23.6560 N   0  0  0  0  0  0  0  0  0  0  0  0
  -25.9290  -38.3260   23.7710 H   0  0  0  0  0  0  0  0  0  0  0  0
  1  4  1  0
  2  6  1  0
  2  1  2  0
  4  3  2  0
  4 48  1  0
  5  3  1  0
  6  5  2  0
  7  6  1  0
  9  5  1  0
  9 18  1  0
  9  8  1  0
 10 18  1  0
 11 16  1  0
 12 13  1  0
 12 11  1  0
 14 13  1  0
 14 23  1  0
 14 15  1  0
 16 10  1  0
 16 15  1  0
 17 10  2  0
 18 19  1  0
 20 21  2  0
 21 40  1  0
 22 21  1  0
 22 25  1  0
 23 24  1  0
 23 20  1  0
 24 22  2  0
 25 26  1  0
 26 27  2  0
 28 31  1  0
 28 27  1  0
 29 28  2  0
 30 29  1  0
 30 25  2  0
 31 32  1  0
 32 37  2  0
 32 33  1  0
 33 34  2  0
 35 34  1  0
 35 39  1  0
 36 35  2  0
 37 36  1  0
 38 37  1  0
 40 41  1  0
 41 44  1  0
 41 43  1  0
 42 40  2  0
 45 20  1  0
 45 46  1  0
 47 45  1  0
 49 51  2  0
 50 49  1  0
 50 48  1  0
 52 50  1  0
 53 54  1  0
 53 49  1  0
 55 66  2  0
 56 54  1  0
 56 61  1  0
 57 65  1  0
 57 67  1  0
 58 64  1  0
 58 60  1  0
 59 65  1  0
 60 61  2  0
 60 59  1  0
 62 63  1  0
 62 56  2  0
 63 58  2  0
 64 57  1  0
 65 55  1  0
 67 69  2  0
 68 67  1  0
 70 68  1  0
 71 80  2  0
 71 76  1  0
 72 68  1  0
 72 76  1  0
 73 72  1  0
 74 75  1  0
 74 73  1  0
 75 71  1  0
 76 77  2  0
 77 78  1  0
 79 78  2  0
 80 79  1  0
 81 55  1  0
 81 86  1  0
 81 82  1  0
 82 85  1  1
 82 83  1  0
 84 82  1  0
 86 89  1  0
 87 91  1  0
 87 86  1  0
 88 87  2  0
 91 90  1  0
 93 94  1  0
 93 91  1  0
 93 92  1  0
M  ISO  4  10 100  18 100  53 101  54 101
M  END
>  <TORSDO>  (18) 
F 20

>  <SCORE>  (18) 
-13.724

>  <name>  (18) 
17

>  <ligand_id>  (18) 
17

>  <original_smiles>  (18) 
[H]c1c([H])c([H])c2c(c1[H])C([H])([H])C([H])([H])C([H])([H])C2([H])N([H])C(=O)C1([H])N(C(=O)C([H])(N([H])C(=O)C([H])(N([H])C([H])([H])[H])C([H])([H])[H])C(C([H])([H])[H])(C([H])([H])[H])C([H])([H])[H])C([H])([H])c2c([H])c(OC([H])([H])C(=O)N([H])C([H])([H])c3c([H])c([H])c(F)c(C([H])(N([H])C(=O)N4C([H])([H])C([H])([H])C([H])([H])C([H])(n5nc(-c6c([H])c([H])c(Oc7c([H])c([H])c(F)c([H])c7F)c([H])c6[H])c(C(=O)N([H])[H])c5N([H])[H])C4([H])[H])C([H])([H])[H])c3[H])c([H])c([H])c2C1([H])[H]

>  <smiles>  (18) 
[H]c1c([H])c([H])c2c(c1[H])C([H])([H])C([H])([H])C([H])([H])C2([H])N([H])C(=O)C1([H])N(C(=O)C([H])(N([H])C(=O)C([H])(N([H])C([H])([H])[H])C([H])([H])[H])C(C([H])([H])[H])(C([H])([H])[H])C([H])([H])[H])C([H])([H])c2c([H])c(OC([H])([H])C(=O)N([H])C([H])([H])c3c([H])c([H])c(F)c(C([H])(N([H])C(=O)N4C([H])([H])C([H])([H])C([H])([H])C([H])(n5nc(-c6c([H])c([H])c(Oc7c([H])c([H])c(F)c([H])c7F)c([H])c6[H])c(C(=O)N([H])[H])c5N([H])[H])C4([H])[H])C([H])([H])[H])c3[H])c([H])c([H])c2C1([H])[H]

$$$$
18:0:0
     RDKit          3D

 95103  0  0  1  0  0  0  0  0999 V2000
  -28.8000  -22.0720   20.9370 C   0  0  0  0  0  0  0  0  0  0  0  0
  -28.1150  -22.1350   21.9990 N   0  0  0  0  0  0  0  0  0  0  0  0
  -27.8470  -23.0710   22.2720 H   0  0  0  0  0  0  0  0  0  0  0  0
  -28.2080  -19.6110   20.2390 C   0  0  0  0  0  3  0  0  0  0  0  0
  -28.4140  -18.1870   20.1850 C   0  0  0  0  0  3  0  0  0  0  0  0
  -30.7080  -18.4850   20.6770 C   0  0  0  0  0  3  0  0  0  0  0  0
  -29.2170  -20.5730   20.5510 C   0  0  0  0  0  0  0  0  0  0  0  0
  -29.6610  -17.5310   20.4330 C   0  0  0  0  0  0  0  0  0  0  0  0
  -30.4950  -19.9300   20.7410 C   0  0  0  0  0  0  0  0  0  0  0  0
  -31.5570  -20.7070   21.0720 F   0  0  0  0  0  0  0  0  0  0  0  0
  -30.5480  -14.9260   20.3310 C   0  0  0  0  0  0  0  0  0  0  0  0
  -30.4380  -12.6040   19.3480 C   0  0  0  0  0  2  0  0  0  0  0  0
  -29.4970  -12.6110   18.1230 C   0  0  0  0  0  2  0  0  0  0  0  0
  -28.0320  -12.3940   18.5530 C   0  0  0  0  0  2  0  0  0  0  0  0
  -27.6300  -13.3040   19.7430 C   0  0  0  0  0  3  0  0  0  0  0  0
  -28.6880  -13.2670   20.8700 C   0  0  0  0  0  2  0  0  0  0  0  0
  -29.9770  -13.6640   20.2790 N   0  0  0  0  0  0  0  0  0  0  0  0
  -31.7400  -15.0590   20.0350 O   0  0  0  0  0  0  0  0  0  0  0  0
  -29.6750  -16.0140   20.5060 N   0  0  0  0  0  0  0  0  0  0  0  0
  -28.7470  -15.6470   20.6480 H   0  0  0  0  0  0  0  0  0  0  0  0
  -25.2370  -13.8840   20.4570 C   0  0  0  0  0  0  0  0  0  0  0  0
  -24.1730  -13.1070   20.8240 C   0  0  0  0  0  0  0  0  0  0  0  0
  -24.6460  -11.7590   20.8060 C   0  0  0  0  0  0  0  0  0  0  0  0
  -26.2890  -13.0100   20.2330 N   0  0  0  0  0  0  0  0  0  0  0  0
  -25.9400  -11.7280   20.5090 N   0  0  0  0  0  0  0  0  0  0  0  0
  -23.9260  -10.4940   20.9960 C   0  0  0  0  0  0  0  0  0  0  0  0
  -24.3480   -9.5390   21.9460 C   0  0  0  0  0  3  0  0  0  0  0  0
  -23.6250   -8.3400   22.1270 C   0  0  0  0  0  3  0  0  0  0  0  0
  -22.4660   -8.0870   21.3550 C   0  0  0  0  0  0  0  0  0  0  0  0
  -22.0620   -9.0310   20.3930 C   0  0  0  0  0  3  0  0  0  0  0  0
  -22.7860  -10.2230   20.2120 C   0  0  0  0  0  3  0  0  0  0  0  0
  -21.7160   -6.9380   21.4410 O   0  0  0  0  0  0  0  0  0  0  0  0
  -21.6460   -6.2120   22.6010 C   0  0  0  0  0  0  0  0  0  0  0  0
  -21.1710   -6.7780   23.8030 C   0  0  0  0  0  3  0  0  0  0  0  0
  -21.0470   -5.9780   24.9570 C   0  0  0  0  0  3  0  0  0  0  0  0
  -21.3880   -4.6130   24.9100 C   0  0  0  0  0  0  0  0  0  0  0  0
  -21.8550   -4.0470   23.7110 C   0  0  0  0  0  3  0  0  0  0  0  0
  -21.9810   -4.8440   22.5600 C   0  0  0  0  0  0  0  0  0  0  0  0
  -22.4120   -4.2880   21.4010 F   0  0  0  0  0  0  0  0  0  0  0  0
  -21.2610   -3.8420   26.0160 F   0  0  0  0  0  0  0  0  0  0  0  0
  -22.7720  -13.5770   21.0820 C   0  0  0  0  0  0  0  0  0  0  0  0
  -22.0460  -12.8790   21.9470 N   0  0  0  0  0  0  0  0  0  0  0  0
  -22.3330  -14.5990   20.5560 O   0  0  0  0  0  0  0  0  0  0  0  0
  -22.4170  -12.0540   22.3940 H   0  0  0  0  0  0  0  0  0  0  0  0
  -21.1070  -13.1800   22.1660 H   0  0  0  0  0  0  0  0  0  0  0  0
  -25.3930  -15.2550   20.2670 N   0  0  0  0  0  0  0  0  0  0  0  0
  -24.6130  -15.8980   20.3400 H   0  0  0  0  0  0  0  0  0  0  0  0
  -26.2340  -15.6890   19.9190 H   0  0  0  0  0  0  0  0  0  0  0  0
  -29.0720  -23.5250   20.2030 C   0  0  0  0  0  3  0  0  0  0  0  0
  -29.1860  -23.3050   18.7480 N   0  0  0  0  0  4  0  0  0  0  0  0
  -28.2960  -23.0630   18.3450 H   0  0  0  0  0  0  0  0  0  0  0  0
  -29.8380  -22.5670   18.5440 H   0  0  0  0  0  0  0  0  0  0  0  0
  -29.5190  -24.1400   18.2970 H   0  0  0  0  0  0  0  0  0  0  0  0
  -28.0420  -24.8140   20.4860 C   0  0  0  0  0  2  0  0  0  0  0  0
  -28.2990  -26.3090   20.2150 O   0  0  0  0  0  0  0  0  0  0  0  0
  -24.6130  -31.8960   23.2410 C   0  0  0  0  0  0  0  0  0  0  0  0
  -27.2100  -27.2420   20.1920 C   0  0  0  0  0  0  0  0  0  0  0  0
  -23.4110  -30.4960   21.6050 C   0  0  0  0  0  3  0  0  0  0  0  0
  -24.8610  -28.9370   20.1750 C   0  0  0  0  0  0  0  0  0  0  0  0
  -25.9580  -30.7870   21.4250 C   0  0  0  0  0  2  0  0  0  0  0  0
  -26.0370  -29.3970   20.7790 C   0  0  0  0  0  0  0  0  0  0  0  0
  -27.2120  -28.5650   20.7740 C   0  0  0  0  0  3  0  0  0  0  0  0
  -26.0120  -26.8760   19.5400 C   0  0  0  0  0  3  0  0  0  0  0  0
  -24.8570  -27.6860   19.5430 C   0  0  0  0  0  3  0  0  0  0  0  0
  -23.6260  -29.8190   20.2260 C   0  0  0  0  0  2  0  0  0  0  0  0
  -24.6790  -31.0810   22.1450 N   0  0  0  0  0  0  0  0  0  0  0  0
  -23.5270  -32.1750   23.7730 O   0  0  0  0  0  0  0  0  0  0  0  0
  -22.7440  -29.4830   22.5690 C   0  0  0  0  0  0  0  0  0  0  0  0
  -21.4160  -29.3080   22.4480 N   0  0  0  0  0  0  0  0  0  0  0  0
  -23.4220  -28.8600   23.3890 O   0  0  0  0  0  0  0  0  0  0  0  0
  -20.9240  -29.8640   21.7600 H   0  0  0  0  0  0  0  0  0  0  0  0
  -18.0450  -28.0900   22.9480 C   0  0  0  0  0  0  0  0  0  0  0  0
  -20.6020  -28.3690   23.2210 C   0  0  0  0  0  3  0  0  0  0  0  0
  -20.7130  -26.9360   22.6490 C   0  0  0  0  0  2  0  0  0  0  0  0
  -19.6140  -26.6040   21.6330 C   0  0  0  0  0  2  0  0  0  0  0  0
  -18.2300  -26.7420   22.2720 C   0  0  0  0  0  2  0  0  0  0  0  0
  -19.1570  -28.8590   23.3800 C   0  0  0  0  0  0  0  0  0  0  0  0
  -18.9280  -30.1200   23.9730 C   0  0  0  0  0  3  0  0  0  0  0  0
  -17.6190  -30.6150   24.1350 C   0  0  0  0  0  3  0  0  0  0  0  0
  -16.5220  -29.8410   23.7200 C   0  0  0  0  0  3  0  0  0  0  0  0
  -16.7350  -28.5800   23.1330 C   0  0  0  0  0  3  0  0  0  0  0  0
  -25.8920  -32.5350   23.8620 C   0  0  0  0  0  3  0  0  0  0  0  0
  -26.4050  -31.7710   25.1440 C   0  0  1  0  0  0  0  0  0  0  0  0
  -25.3090  -31.5440   26.2130 C   0  0  0  0  0  1  0  0  0  0  0  0
  -26.9850  -30.3880   24.7670 C   0  0  0  0  0  1  0  0  0  0  0  0
  -27.5580  -32.5660   25.8020 C   0  0  0  0  0  1  0  0  0  0  0  0
  -25.5830  -33.9340   24.1860 N   0  0  0  0  0  0  0  0  0  0  0  0
  -25.9140  -34.9870   23.4230 C   0  0  0  0  0  0  0  0  0  0  0  0
  -26.5810  -34.8780   22.3920 O   0  0  0  0  0  0  0  0  0  0  0  0
  -24.9910  -34.0930   24.9860 H   0  0  0  0  0  0  0  0  0  0  0  0
  -24.1920  -36.7850   23.0680 C   0  0  0  0  0  1  0  0  0  0  0  0
  -25.4320  -36.3770   23.8790 C   0  0  0  0  0  3  0  0  0  0  0  0
  -27.5690  -37.2610   24.7060 C   0  0  0  0  0  1  0  0  0  0  0  0
  -26.4690  -37.4270   23.7610 N   0  0  0  0  0  0  0  0  0  0  0  0
  -26.0650  -38.3480   23.9030 H   0  0  0  0  0  0  0  0  0  0  0  0
  1  2  2  0
  2  3  1  0
  4  7  1  0
  5  4  2  0
  5  8  1  0
  6  9  1  0
  7  9  2  0
  7  1  1  0
  8 19  1  0
  8  6  2  0
  9 10  1  0
 11 19  1  0
 12 17  1  0
 13 14  1  0
 13 12  1  0
 15 14  1  0
 15 24  1  0
 15 16  1  0
 17 11  1  0
 17 16  1  0
 18 11  2  0
 19 20  1  0
 21 22  2  0
 22 41  1  0
 23 22  1  0
 23 26  1  0
 24 21  1  0
 24 25  1  0
 25 23  2  0
 26 27  1  0
 27 28  2  0
 29 32  1  0
 29 28  1  0
 30 29  2  0
 31 30  1  0
 31 26  2  0
 32 33  1  0
 33 34  1  0
 34 35  2  0
 36 35  1  0
 36 40  1  0
 37 36  2  0
 38 33  2  0
 38 37  1  0
 39 38  1  0
 41 42  1  0
 42 45  1  0
 42 44  1  0
 43 41  2  0
 46 47  1  0
 46 21  1  0
 48 46  1  0
 49 54  1  0
 49  1  1  0
 50 49  1  0
 51 50  1  0
 52 50  1  0
 53 50  1  0
 55 54  1  0
 56 67  2  0
 57 55  1  0
 57 62  1  0
 58 66  1  0
 58 68  1  0
 59 65  1  0
 59 61  1  0
 60 66  1  0
 61 60  1  0
 62 61  2  0
 63 64  1  0
 63 57  2  0
 64 59  2  0
 65 58  1  0
 66 56  1  0
 68 70  2  0
 69 68  1  0
 71 69  1  0
 72 81  2  0
 72 77  1  0
 73 69  1  0
 73 77  1  0
 74 73  1  0
 75 76  1  0
 75 74  1  0
 76 72  1  0
 77 78  2  0
 78 79  1  0
 80 79  2  0
 81 80  1  0
 82 56  1  0
 82 87  1  0
 82 83  1  0
 83 86  1  1
 83 84  1  0
 85 83  1  0
 87 90  1  0
 88 92  1  0
 88 87  1  0
 89 88  2  0
 92 91  1  0
 94 92  1  0
 94 95  1  0
 94 93  1  0
M  ISO  4  11 100  19 100  54 101  55 101
M  END
>  <TORSDO>  (19) 
F 20

>  <SCORE>  (19) 
-14.444

>  <name>  (19) 
18

>  <ligand_id>  (19) 
18

>  <original_smiles>  (19) 
[H]N=C(c1c([H])c([H])c(N([H])C(=O)N2C([H])([H])C([H])([H])C([H])([H])C([H])(n3nc(-c4c([H])c([H])c(Oc5c([H])c([H])c(F)c([H])c5F)c([H])c4[H])c(C(=O)N([H])[H])c3N([H])[H])C2([H])[H])c([H])c1F)C([H])(C([H])([H])Oc1c([H])c([H])c2c(c1[H])C([H])([H])N(C(=O)C([H])(N([H])C(=O)C([H])(N([H])C([H])([H])[H])C([H])([H])[H])C(C([H])([H])[H])(C([H])([H])[H])C([H])([H])[H])C([H])(C(=O)N([H])C1([H])c3c([H])c([H])c([H])c([H])c3C([H])([H])C([H])([H])C1([H])[H])C2([H])[H])[N+]([H])([H])[H]

>  <smiles>  (19) 
[H]N=C(c1c([H])c([H])c(N([H])C(=O)N2C([H])([H])C([H])([H])C([H])([H])C([H])(n3nc(-c4c([H])c([H])c(Oc5c([H])c([H])c(F)c([H])c5F)c([H])c4[H])c(C(=O)N([H])[H])c3N([H])[H])C2([H])[H])c([H])c1F)C([H])(C([H])([H])Oc1c([H])c([H])c2c(c1[H])C([H])([H])N(C(=O)C([H])(N([H])C(=O)C([H])(N([H])C([H])([H])[H])C([H])([H])[H])C(C([H])([H])[H])(C([H])([H])[H])C([H])([H])[H])C([H])(C(=O)N([H])C1([H])c3c([H])c([H])c([H])c([H])c3C([H])([H])C([H])([H])C1([H])[H])C2([H])[H])[N+]([H])([H])[H]

$$$$
19:0:0
     RDKit          3D

 97105  0  0  1  0  0  0  0  0999 V2000
  -29.3900  -18.5260   20.5830 C   0  0  0  0  0  3  0  0  0  0  0  0
  -31.6770  -17.7620   20.5010 C   0  0  0  0  0  3  0  0  0  0  0  0
  -31.1800  -20.1780   20.2630 C   0  0  0  0  0  0  0  0  0  0  0  0
  -29.7770  -19.9330   20.4320 C   0  0  0  0  0  0  0  0  0  0  0  0
  -30.3150  -17.3950   20.5850 C   0  0  0  0  0  0  0  0  0  0  0  0
  -32.0950  -19.0950   20.3310 C   0  0  0  0  0  0  0  0  0  0  0  0
  -33.4280  -19.3190   20.2070 F   0  0  0  0  0  0  0  0  0  0  0  0
  -30.6260  -14.7770   20.3670 C   0  0  0  0  0  0  0  0  0  0  0  0
  -30.3440  -12.5380   19.2910 C   0  0  0  0  0  2  0  0  0  0  0  0
  -29.4000  -12.6770   18.0800 C   0  0  0  0  0  2  0  0  0  0  0  0
  -27.9340  -12.5120   18.5270 C   0  0  0  0  0  2  0  0  0  0  0  0
  -27.5900  -13.3460   19.7890 C   0  0  0  0  0  3  0  0  0  0  0  0
  -28.6680  -13.2240   20.8880 C   0  0  0  0  0  2  0  0  0  0  0  0
  -29.9550  -13.5760   20.2780 N   0  0  0  0  0  0  0  0  0  0  0  0
  -31.8010  -14.8130   19.9940 O   0  0  0  0  0  0  0  0  0  0  0  0
  -29.9230  -15.9470   20.6760 N   0  0  0  0  0  0  0  0  0  0  0  0
  -28.9620  -15.7800   20.9250 H   0  0  0  0  0  0  0  0  0  0  0  0
  -25.2040  -13.9120   20.5420 C   0  0  0  0  0  0  0  0  0  0  0  0
  -24.1430  -13.1290   20.9080 C   0  0  0  0  0  0  0  0  0  0  0  0
  -24.6070  -11.7810   20.8500 C   0  0  0  0  0  0  0  0  0  0  0  0
  -26.2490  -13.0410   20.2850 N   0  0  0  0  0  0  0  0  0  0  0  0
  -25.8960  -11.7510   20.5290 N   0  0  0  0  0  0  0  0  0  0  0  0
  -23.8790  -10.5160   21.0300 C   0  0  0  0  0  0  0  0  0  0  0  0
  -24.3040   -9.5430   21.9590 C   0  0  0  0  0  3  0  0  0  0  0  0
  -23.5770   -8.3450   22.1280 C   0  0  0  0  0  3  0  0  0  0  0  0
  -22.4090   -8.1120   21.3640 C   0  0  0  0  0  0  0  0  0  0  0  0
  -22.0010   -9.0740   20.4230 C   0  0  0  0  0  3  0  0  0  0  0  0
  -22.7300  -10.2640   20.2540 C   0  0  0  0  0  3  0  0  0  0  0  0
  -21.6530   -6.9660   21.4400 O   0  0  0  0  0  0  0  0  0  0  0  0
  -21.5800   -6.2280   22.5930 C   0  0  0  0  0  0  0  0  0  0  0  0
  -21.0950   -6.7770   23.8000 C   0  0  0  0  0  3  0  0  0  0  0  0
  -20.9710   -5.9660   24.9430 C   0  0  0  0  0  3  0  0  0  0  0  0
  -21.3210   -4.6030   24.8820 C   0  0  0  0  0  0  0  0  0  0  0  0
  -21.7980   -4.0520   23.6800 C   0  0  0  0  0  3  0  0  0  0  0  0
  -21.9240   -4.8610   22.5380 C   0  0  0  0  0  0  0  0  0  0  0  0
  -22.3640   -4.3210   21.3770 F   0  0  0  0  0  0  0  0  0  0  0  0
  -21.1960   -3.8200   25.9790 F   0  0  0  0  0  0  0  0  0  0  0  0
  -22.7490  -13.6030   21.1990 C   0  0  0  0  0  0  0  0  0  0  0  0
  -22.0280  -12.8910   22.0580 N   0  0  0  0  0  0  0  0  0  0  0  0
  -22.3110  -14.6420   20.7060 O   0  0  0  0  0  0  0  0  0  0  0  0
  -22.3960  -12.0500   22.4780 H   0  0  0  0  0  0  0  0  0  0  0  0
  -21.0940  -13.1910   22.2970 H   0  0  0  0  0  0  0  0  0  0  0  0
  -25.3610  -15.2870   20.3880 N   0  0  0  0  0  0  0  0  0  0  0  0
  -24.5830  -15.9270   20.5110 H   0  0  0  0  0  0  0  0  0  0  0  0
  -26.1940  -15.7410   20.0400 H   0  0  0  0  0  0  0  0  0  0  0  0
  -31.7260  -21.5520   19.9580 C   0  0  0  0  0  0  0  0  0  0  0  0
  -32.6450  -22.0360   20.7830 N   0  0  0  0  0  0  0  0  0  0  0  0
  -31.2460  -22.2490   19.0640 O   0  0  0  0  0  0  0  0  0  0  0  0
  -33.0160  -21.4560   21.5240 H   0  0  0  0  0  0  0  0  0  0  0  0
  -33.0200  -22.9640   20.6580 H   0  0  0  0  0  0  0  0  0  0  0  0
  -28.6940  -21.1320   20.3670 C   0  0  0  0  0  2  0  0  0  0  0  0
  -29.2790  -22.4420   22.4100 C   0  0  0  0  0  1  0  0  0  0  0  0
  -28.9910  -22.5340   20.9540 N   0  0  2  0  0  4  0  0  0  0  0  0
  -29.8650  -22.7740   20.4950 H   0  0  0  0  0  0  0  0  0  0  0  0
  -28.0340  -23.7210   20.6650 C   0  0  0  0  0  2  0  0  0  0  0  0
  -28.6180  -25.0860   20.0160 C   0  0  0  0  0  2  0  0  0  0  0  0
  -28.4400  -26.4730   20.5610 O   0  0  0  0  0  0  0  0  0  0  0  0
  -24.6000  -31.9360   23.2550 C   0  0  0  0  0  0  0  0  0  0  0  0
  -27.3100  -27.2950   20.3910 C   0  0  0  0  0  0  0  0  0  0  0  0
  -23.4440  -30.4910   21.6210 C   0  0  0  0  0  3  0  0  0  0  0  0
  -24.9380  -28.9120   20.2620 C   0  0  0  0  0  0  0  0  0  0  0  0
  -25.9840  -30.8170   21.4870 C   0  0  0  0  0  2  0  0  0  0  0  0
  -26.0900  -29.4220   20.8730 C   0  0  0  0  0  0  0  0  0  0  0  0
  -27.2750  -28.6270   20.9250 C   0  0  0  0  0  3  0  0  0  0  0  0
  -26.1410  -26.8400   19.7450 C   0  0  0  0  0  3  0  0  0  0  0  0
  -24.9690  -27.6290   19.6860 C   0  0  0  0  0  3  0  0  0  0  0  0
  -23.6930  -29.7780   20.2640 C   0  0  0  0  0  2  0  0  0  0  0  0
  -24.6940  -31.1000   22.1780 N   0  0  0  0  0  0  0  0  0  0  0  0
  -23.5030  -32.2220   23.7560 O   0  0  0  0  0  0  0  0  0  0  0  0
  -22.7660  -29.4930   22.5900 C   0  0  0  0  0  0  0  0  0  0  0  0
  -21.4410  -29.3200   22.4490 N   0  0  0  0  0  0  0  0  0  0  0  0
  -23.4320  -28.8800   23.4300 O   0  0  0  0  0  0  0  0  0  0  0  0
  -20.9660  -29.8560   21.7360 H   0  0  0  0  0  0  0  0  0  0  0  0
  -18.0450  -28.1950   22.9620 C   0  0  0  0  0  0  0  0  0  0  0  0
  -20.6070  -28.4030   23.2260 C   0  0  0  0  0  3  0  0  0  0  0  0
  -20.6830  -26.9700   22.6490 C   0  0  0  0  0  2  0  0  0  0  0  0
  -19.5720  -26.6690   21.6410 C   0  0  0  0  0  2  0  0  0  0  0  0
  -18.1930  -26.8430   22.2850 C   0  0  0  0  0  2  0  0  0  0  0  0
  -19.1780  -28.9370   23.3870 C   0  0  0  0  0  0  0  0  0  0  0  0
  -18.9830  -30.2070   23.9720 C   0  0  0  0  0  3  0  0  0  0  0  0
  -17.6860  -30.7290   24.1460 C   0  0  0  0  0  3  0  0  0  0  0  0
  -16.5670  -29.9820   23.7390 C   0  0  0  0  0  3  0  0  0  0  0  0
  -16.7480  -28.7170   23.1480 C   0  0  0  0  0  3  0  0  0  0  0  0
  -25.8630  -32.5930   23.8920 C   0  0  0  0  0  3  0  0  0  0  0  0
  -25.5320  -33.9920   24.1990 N   0  0  0  0  0  0  0  0  0  0  0  0
  -25.8670  -35.0380   23.4340 C   0  0  0  0  0  0  0  0  0  0  0  0
  -26.5530  -34.9300   22.4160 O   0  0  0  0  0  0  0  0  0  0  0  0
  -24.9220  -34.1480   24.9880 H   0  0  0  0  0  0  0  0  0  0  0  0
  -24.1320  -36.8150   23.0190 C   0  0  0  0  0  1  0  0  0  0  0  0
  -25.3550  -36.4270   23.8650 C   0  0  0  0  0  3  0  0  0  0  0  0
  -27.4560  -37.3400   24.7530 C   0  0  0  0  0  1  0  0  0  0  0  0
  -26.3800  -37.4880   23.7740 N   0  0  0  0  0  0  0  0  0  0  0  0
  -25.9610  -38.4070   23.9090 H   0  0  0  0  0  0  0  0  0  0  0  0
  -26.3680  -31.8450   25.1890 C   0  0  1  0  0  0  0  0  0  0  0  0
  -25.2550  -31.5880   26.2320 C   0  0  0  0  0  1  0  0  0  0  0  0
  -26.9910  -30.4770   24.8250 C   0  0  0  0  0  1  0  0  0  0  0  0
  -27.4870  -32.6680   25.8680 C   0  0  0  0  0  1  0  0  0  0  0  0
  1  5  1  0
  2  5  2  0
  3  6  2  0
  3  4  1  0
  4  1  2  0
  5 16  1  0
  6  2  1  0
  7  6  1  0
  8 16  1  0
  9 14  1  0
 10 11  1  0
 10  9  1  0
 12 11  1  0
 12 21  1  0
 12 13  1  0
 14  8  1  0
 14 13  1  0
 15  8  2  0
 16 17  1  0
 18 19  2  0
 19 38  1  0
 20 19  1  0
 20 23  1  0
 21 22  1  0
 21 18  1  0
 22 20  2  0
 23 24  1  0
 24 25  2  0
 26 29  1  0
 26 25  1  0
 27 26  2  0
 28 27  1  0
 28 23  2  0
 29 30  1  0
 30 31  1  0
 31 32  2  0
 33 32  1  0
 33 37  1  0
 34 33  2  0
 35 30  2  0
 35 34  1  0
 36 35  1  0
 38 39  1  0
 39 42  1  0
 39 41  1  0
 40 38  2  0
 43 44  1  0
 43 18  1  0
 45 43  1  0
 46  3  1  0
 46 47  1  0
 47 49  1  0
 48 46  2  0
 50 47  1  0
 51  4  1  0
 51 53  1  0
 53 52  1  0
 53 54  1  6
 55 53  1  0
 56 57  1  0
 56 55  1  0
 58 69  2  0
 59 57  1  0
 59 64  1  0
 60 68  1  0
 60 70  1  0
 61 67  1  0
 61 63  1  0
 62 68  1  0
 63 64  2  0
 63 62  1  0
 65 59  2  0
 66 65  1  0
 66 61  2  0
 67 60  1  0
 68 58  1  0
 70 72  2  0
 71 70  1  0
 73 71  1  0
 74 83  2  0
 74 79  1  0
 75 71  1  0
 75 79  1  0
 76 75  1  0
 77 78  1  0
 77 76  1  0
 78 74  1  0
 79 80  2  0
 80 81  1  0
 82 81  2  0
 83 82  1  0
 84 58  1  0
 84 85  1  0
 84 94  1  0
 85 88  1  0
 86 90  1  0
 86 85  1  0
 87 86  2  0
 90 89  1  0
 92 90  1  0
 92 93  1  0
 92 91  1  0
 94 97  1  1
 94 95  1  0
 96 94  1  0
M  ISO  4   8 100  16 100  56 101  57 101
M  END
>  <TORSDO>  (20) 
F 21

>  <SCORE>  (20) 
-13.980

>  <name>  (20) 
19

>  <ligand_id>  (20) 
19

>  <original_smiles>  (20) 
[H]c1c([H])c([H])c2c(c1[H])C([H])([H])C([H])([H])C([H])([H])C2([H])N([H])C(=O)C1([H])N(C(=O)C([H])(N([H])C(=O)C([H])(N([H])C([H])([H])[H])C([H])([H])[H])C(C([H])([H])[H])(C([H])([H])[H])C([H])([H])[H])C([H])([H])c2c([H])c(OC([H])([H])C([H])([H])[N+]([H])(C([H])([H])[H])C([H])([H])c3c([H])c(N([H])C(=O)N4C([H])([H])C([H])([H])C([H])([H])C([H])(n5nc(-c6c([H])c([H])c(Oc7c([H])c([H])c(F)c([H])c7F)c([H])c6[H])c(C(=O)N([H])[H])c5N([H])[H])C4([H])[H])c([H])c(F)c3C(=O)N([H])[H])c([H])c([H])c2C1([H])[H]

>  <smiles>  (20) 
[H]c1c([H])c([H])c2c(c1[H])C([H])([H])C([H])([H])C([H])([H])C2([H])N([H])C(=O)C1([H])N(C(=O)C([H])(N([H])C(=O)C([H])(N([H])C([H])([H])[H])C([H])([H])[H])C(C([H])([H])[H])(C([H])([H])[H])C([H])([H])[H])C([H])([H])c2c([H])c(OC([H])([H])C([H])([H])[N+]([H])(C([H])([H])[H])C([H])([H])c3c([H])c(N([H])C(=O)N4C([H])([H])C([H])([H])C([H])([H])C([H])(n5nc(-c6c([H])c([H])c(Oc7c([H])c([H])c(F)c([H])c7F)c([H])c6[H])c(C(=O)N([H])[H])c5N([H])[H])C4([H])[H])c([H])c(F)c3C(=O)N([H])[H])c([H])c([H])c2C1([H])[H]

$$$$
20:0:0
     RDKit          3D

 94 96  0  0  1  0  0  0  0  0999 V2000
  -23.4510  -13.0380   19.6730 C   0  0  0  0  0  2  0  0  0  0  0  0
  -24.9660  -13.8850   19.0530 C   0  0  0  0  0  2  0  0  0  0  0  0
  -26.3160  -12.6640   19.1410 C   0  0  0  0  0  2  0  0  0  0  0  0
  -23.1830  -11.7810   21.1300 C   0  0  0  0  0  3  0  0  0  0  0  0
  -26.2050  -10.9930   20.3080 C   0  0  0  0  0  1  0  0  0  0  0  0
  -24.6600  -10.6810   21.5860 C   0  0  0  0  0  2  0  0  0  0  0  0
  -21.9500  -11.5100   21.6380 F   0  0  0  0  0  0  0  0  0  0  0  0
  -27.0790   -9.9710   20.5230 F   0  0  0  0  0  0  0  0  0  0  0  0
  -24.6730   -9.8100   22.6290 F   0  0  0  0  0  0  0  0  0  0  0  0
  -29.3720  -14.0160   19.1930 C   0  0  0  0  0  0  0  0  0  0  0  0
  -30.8430  -12.1820   18.9970 C   0  0  0  0  0  2  0  0  0  0  0  0
  -29.7230  -11.6160   18.1700 C   0  0  0  0  0  2  0  0  0  0  0  0
  -28.6360  -11.3340   19.2600 C   0  0  0  0  0  2  0  0  0  0  0  0
  -28.3540  -12.2870   20.8370 C   0  0  0  0  0  3  0  0  0  0  0  0
  -29.7210  -12.6020   21.1690 C   0  0  0  0  0  2  0  0  0  0  0  0
  -30.1510  -13.1200   19.8840 N   0  0  0  0  0  0  0  0  0  0  0  0
  -30.2600  -14.8760   18.9300 O   0  0  0  0  0  0  0  0  0  0  0  0
  -27.8030  -13.7120   18.8120 N   0  0  0  0  0  0  0  0  0  0  0  0
  -27.5310  -14.4780   18.2150 H   0  0  0  0  0  0  0  0  0  0  0  0
  -26.1590  -14.1200   21.5500 C   0  0  2  0  0  0  0  0  0  0  0  0
  -24.9300  -13.6650   22.0430 C   0  0  0  0  0  3  0  0  0  0  0  0
  -25.3040  -12.5740   21.3360 C   0  0  0  0  0  3  0  0  0  0  0  0
  -27.1000  -12.9990   21.4970 N   0  0  0  0  0  0  0  0  0  0  0  0
  -26.3460  -12.3460   22.2090 N   0  0  0  0  0  2  0  0  0  0  0  0
  -24.1610  -10.5140   19.6220 C   0  0  0  0  0  2  0  0  0  0  0  0
  -24.4040   -8.9550   20.0060 C   0  0  0  0  0  2  0  0  0  0  0  0
  -23.8080   -8.0320   21.0470 C   0  0  0  0  0  2  0  0  0  0  0  0
  -22.4240   -8.0570   21.2680 C   0  0  0  0  0  0  0  0  0  0  0  0
  -21.9160   -9.0870   20.4140 C   0  0  0  0  0  3  0  0  0  0  0  0
  -22.7080  -10.0400   19.5720 C   0  0  0  0  0  2  0  0  0  0  0  0
  -21.5910   -6.9870   21.7300 O   0  0  0  0  0  0  0  0  0  0  0  0
  -21.6120   -6.1980   22.9060 C   0  0  0  0  0  0  0  0  0  0  0  0
  -21.2740   -6.7310   24.1760 C   0  0  0  0  0  3  0  0  0  0  0  0
  -21.1120   -5.9010   25.3180 C   0  0  0  0  0  3  0  0  0  0  0  0
  -21.2710   -4.5060   25.2250 C   0  0  0  0  0  0  0  0  0  0  0  0
  -21.5760   -3.9450   23.9730 C   0  0  0  0  0  3  0  0  0  0  0  0
  -21.7280   -4.7720   22.8330 C   0  0  0  0  0  0  0  0  0  0  0  0
  -21.9590   -4.1640   21.6470 F   0  0  0  0  0  0  0  0  0  0  0  0
  -21.1300   -3.7130   26.3190 F   0  0  0  0  0  0  0  0  0  0  0  0
  -23.4810  -14.1700   22.2680 C   0  0  0  0  0  0  0  0  0  0  0  0
  -22.7450  -13.4780   23.1530 N   0  0  0  0  0  0  0  0  0  0  0  0
  -22.8790  -14.8930   21.4760 O   0  0  0  0  0  0  0  0  0  0  0  0
  -23.1680  -12.7860   23.7530 H   0  0  0  0  0  0  0  0  0  0  0  0
  -21.7610  -13.6770   23.2470 H   0  0  0  0  0  0  0  0  0  0  0  0
  -26.5090  -15.3440   21.1040 N   0  0  0  0  0  0  0  0  0  0  0  0
  -25.9170  -16.1580   21.2060 H   0  0  0  0  0  0  0  0  0  0  0  0
  -27.4650  -15.5930   20.8900 H   0  0  0  0  0  0  0  0  0  0  0  0
  -25.3160  -16.1070   18.7680 C   0  0  0  0  0 15  0  0  0  0  0  0
  -26.2250  -19.8370   19.2450 C   0  0  0  0  0  2  0  0  0  0  0  0
  -25.5510  -18.1650   19.3450 N   0  0  0  0  0  2  0  0  0  0  0  0
  -27.2270  -19.7310   18.5360 O   0  0  0  0  0  1  0  0  0  0  0  0
  -24.7730  -18.3070   19.9790 H   0  0  0  0  0  0  0  0  0  0  0  0
  -26.1170  -22.0360   19.7240 C   0  0  0  0  0 15  0  0  0  0  0  0
  -26.9760  -23.9960   19.8340 O   0  0  0  0  0  1  0  0  0  0  0  0
  -24.7040  -31.4980   22.9420 C   0  0  0  0  0  0  0  0  0  0  0  0
  -26.5960  -25.6860   19.9300 C   0  0  0  0  0  0  0  0  0  0  0  0
  -23.5420  -30.1170   21.3150 C   0  0  0  0  0  3  0  0  0  0  0  0
  -24.8860  -28.3680   19.8800 C   0  0  0  0  0  0  0  0  0  0  0  0
  -26.1260  -29.9270   21.3240 C   0  0  0  0  0  2  0  0  0  0  0  0
  -26.0630  -28.4400   20.6190 C   0  0  0  0  0  0  0  0  0  0  0  0
  -26.9180  -27.1270   20.6080 C   0  0  0  0  0  3  0  0  0  0  0  0
  -25.5480  -26.0680   19.0780 C   0  0  0  0  0  3  0  0  0  0  0  0
  -24.7300  -27.2370   19.0760 C   0  0  0  0  0  3  0  0  0  0  0  0
  -23.7970  -29.4580   19.9310 C   0  0  0  0  0  2  0  0  0  0  0  0
  -24.8360  -30.5730   21.9060 N   0  0  0  0  0  0  0  0  0  0  0  0
  -23.5900  -31.8320   23.3960 O   0  0  0  0  0  0  0  0  0  0  0  0
  -22.7850  -29.1490   22.2680 C   0  0  0  0  0  0  0  0  0  0  0  0
  -21.4480  -29.0360   22.1490 N   0  0  0  0  0  0  0  0  0  0  0  0
  -23.4190  -28.5060   23.1080 O   0  0  0  0  0  0  0  0  0  0  0  0
  -20.9790  -29.6070   21.4590 H   0  0  0  0  0  0  0  0  0  0  0  0
  -18.0370  -27.8950   22.6980 C   0  0  0  0  0  0  0  0  0  0  0  0
  -20.6070  -28.1060   22.9160 C   0  0  0  0  0  3  0  0  0  0  0  0
  -20.6660  -26.6830   22.3130 C   0  0  0  0  0  2  0  0  0  0  0  0
  -19.5430  -26.4090   21.3080 C   0  0  0  0  0  2  0  0  0  0  0  0
  -18.1750  -26.5630   21.9780 C   0  0  0  0  0  2  0  0  0  0  0  0
  -19.1790  -28.6270   23.1230 C   0  0  0  0  0  0  0  0  0  0  0  0
  -18.9920  -29.8700   23.7650 C   0  0  0  0  0  3  0  0  0  0  0  0
  -17.6970  -30.3840   23.9800 C   0  0  0  0  0  3  0  0  0  0  0  0
  -16.5730  -29.6500   23.5650 C   0  0  0  0  0  3  0  0  0  0  0  0
  -16.7440  -28.4080   22.9300 C   0  0  0  0  0  3  0  0  0  0  0  0
  -25.9210  -32.1990   23.6190 C   0  0  0  0  0  3  0  0  0  0  0  0
  -26.4080  -31.4560   24.9260 C   0  0  1  0  0  0  0  0  0  0  0  0
  -25.2860  -31.2090   25.9650 C   0  0  0  0  0  1  0  0  0  0  0  0
  -27.0300  -30.0870   24.5920 C   0  0  0  0  0  1  0  0  0  0  0  0
  -27.5230  -32.2790   25.6160 C   0  0  0  0  0  1  0  0  0  0  0  0
  -25.5350  -33.5890   23.9800 N   0  0  0  0  0  0  0  0  0  0  0  0
  -25.8500  -34.7000   23.2990 C   0  0  0  0  0  0  0  0  0  0  0  0
  -26.5410  -34.6710   22.2800 O   0  0  0  0  0  0  0  0  0  0  0  0
  -24.9150  -33.6820   24.7710 H   0  0  0  0  0  0  0  0  0  0  0  0
  -24.0680  -36.4750   23.0390 C   0  0  0  0  0  1  0  0  0  0  0  0
  -25.3240  -36.0580   23.8240 C   0  0  0  0  0  3  0  0  0  0  0  0
  -27.4310  -36.9830   24.6930 C   0  0  0  0  0  1  0  0  0  0  0  0
  -26.3210  -37.1520   23.7610 N   0  0  0  0  0  0  0  0  0  0  0  0
  -25.8820  -38.0490   23.9510 H   0  0  0  0  0  0  0  0  0  0  0  0
  1  4  1  0
  2  3  1  0
  2  1  1  0
  4  6  1  0
  4  7  1  0
  5  8  1  0
  6  9  1  0
 10 16  1  0
 11 16  1  0
 12 11  1  0
 12 13  1  0
 14 13  1  0
 14 15  1  0
 14 23  1  0
 16 15  1  0
 17 10  2  0
 18  3  1  0
 18 10  1  0
 19 18  1  0
 20 45  1  6
 20 21  1  0
 21 40  1  0
 22 20  1  0
 22 21  1  0
 22 24  1  0
 23 20  1  0
 23 24  1  0
 25 26  1  0
 26 27  1  0
 27 28  1  0
 28 31  1  0
 29 28  2  0
 30 25  1  0
 30 29  1  0
 31 32  1  0
 32 33  1  0
 33 34  2  0
 35 34  1  0
 35 39  1  0
 36 35  2  0
 37 32  2  0
 37 36  1  0
 38 37  1  0
 40 41  1  0
 41 44  1  0
 41 43  1  0
 42 40  2  0
 45 46  1  0
 47 45  1  0
 49 50  1  0
 50 52  1  0
 51 49  1  0
 54 56  1  0
 55 66  2  0
 56 61  1  0
 57 65  1  0
 57 67  1  0
 58 64  1  0
 58 60  1  0
 59 65  1  0
 60 59  1  0
 61 60  2  0
 62 56  2  0
 63 62  1  0
 63 58  2  0
 64 57  1  0
 65 55  1  0
 67 69  2  0
 68 67  1  0
 70 68  1  0
 71 80  2  0
 71 76  1  0
 72 68  1  0
 72 76  1  0
 73 72  1  0
 74 75  1  0
 74 73  1  0
 75 71  1  0
 76 77  2  0
 77 78  1  0
 79 78  2  0
 80 79  1  0
 81 55  1  0
 81 86  1  0
 81 82  1  0
 82 85  1  1
 82 83  1  0
 84 82  1  0
 86 89  1  0
 87 91  1  0
 87 86  1  0
 88 87  2  0
 91 90  1  0
 93 91  1  0
 93 94  1  0
 93 92  1  0
M  ISO  4  10 100  18 100  53 101  54 101
M  END
>  <TORSDO>  (21) 
F 19

>  <SCORE>  (21) 
-2.609

>  <name>  (21) 
20

>  <ligand_id>  (21) 
20

>  <original_smiles>  (21) 
[H]c1c([H])c([H])c2c(c1[H])C([H])([H])C([H])([H])C([H])([H])C2([H])N([H])C(=O)C1([H])N(C(=O)C([H])(N([H])C(=O)C([H])(N([H])C([H])([H])[H])C([H])([H])[H])C(C([H])([H])[H])(C([H])([H])[H])C([H])([H])[H])C([H])([H])c2c([H])c(OC([H])([H])C(=O)N([H])C([H])([H])c3c([H])c(F)c(F)c(F)c3N([H])C(=O)N3C([H])([H])C([H])([H])C([H])([H])C([H])(n4nc(-c5c([H])c([H])c(Oc6c([H])c([H])c(F)c([H])c6F)c([H])c5[H])c(C(=O)N([H])[H])c4N([H])[H])C3([H])[H])c([H])c([H])c2C1([H])[H]

>  <smiles>  (21) 
[H]c1c([H])c([H])c2c(c1[H])C([H])([H])C([H])([H])C([H])([H])C2([H])N([H])C(=O)C1([H])N(C(=O)C([H])(N([H])C(=O)C([H])(N([H])C([H])([H])[H])C([H])([H])[H])C(C([H])([H])[H])(C([H])([H])[H])C([H])([H])[H])C([H])([H])c2c([H])c(OC([H])([H])C(=O)N([H])C([H])([H])c3c([H])c(F)c(F)c(F)c3N([H])C(=O)N3C([H])([H])C([H])([H])C([H])([H])C([H])(n4nc(-c5c([H])c([H])c(Oc6c([H])c([H])c(F)c([H])c6F)c([H])c5[H])c(C(=O)N([H])[H])c4N([H])[H])C3([H])[H])c([H])c([H])c2C1([H])[H]

$$$$
21:0:0
     RDKit          3D

 94102  0  0  1  0  0  0  0  0999 V2000
  -29.4080  -22.6940   19.2210 C   0  0  0  0  0  3  0  0  0  0  0  0
  -28.3760  -21.1500   21.2730 C   0  0  0  0  0  3  0  0  0  0  0  0
  -28.5890  -23.4180   20.1510 C   0  0  0  0  0  0  0  0  0  0  0  0
  -29.1060  -20.4040   20.2910 C   0  0  0  0  0  0  0  0  0  0  0  0
  -28.1220  -22.5730   21.2090 C   0  0  0  0  0  0  0  0  0  0  0  0
  -29.6530  -21.2650   19.2830 C   0  0  0  0  0  0  0  0  0  0  0  0
  -27.3040  -23.1080   22.1460 F   0  0  0  0  0  0  0  0  0  0  0  0
  -30.3380  -20.6890   18.2660 F   0  0  0  0  0  0  0  0  0  0  0  0
  -27.8830  -24.8480   19.8060 C   0  0  0  0  0  2  0  0  0  0  0  0
  -28.2410  -26.2900   20.2000 O   0  0  0  0  0  0  0  0  0  0  0  0
  -24.6310  -31.9040   23.2620 C   0  0  0  0  0  0  0  0  0  0  0  0
  -27.1980  -27.2790   20.1280 C   0  0  0  0  0  0  0  0  0  0  0  0
  -23.4200  -30.5310   21.6150 C   0  0  0  0  0  3  0  0  0  0  0  0
  -24.8610  -28.9990   20.1490 C   0  0  0  0  0  0  0  0  0  0  0  0
  -25.9710  -30.8140   21.4320 C   0  0  0  0  0  2  0  0  0  0  0  0
  -26.0430  -29.4380   20.7590 C   0  0  0  0  0  0  0  0  0  0  0  0
  -27.2120  -28.5920   20.7420 C   0  0  0  0  0  3  0  0  0  0  0  0
  -25.9920  -26.9540   19.4590 C   0  0  0  0  0  3  0  0  0  0  0  0
  -24.8460  -27.7670   19.4860 C   0  0  0  0  0  3  0  0  0  0  0  0
  -23.6300  -29.8830   20.2230 C   0  0  0  0  0  2  0  0  0  0  0  0
  -24.6940  -31.1020   22.1580 N   0  0  0  0  0  0  0  0  0  0  0  0
  -23.5490  -32.1770   23.8030 O   0  0  0  0  0  0  0  0  0  0  0  0
  -22.7570  -29.5010   22.5640 C   0  0  0  0  0  0  0  0  0  0  0  0
  -21.4320  -29.3150   22.4340 N   0  0  0  0  0  0  0  0  0  0  0  0
  -23.4370  -28.8750   23.3810 O   0  0  0  0  0  0  0  0  0  0  0  0
  -20.9400  -29.8730   21.7490 H   0  0  0  0  0  0  0  0  0  0  0  0
  -18.0640  -28.0710   22.9160 C   0  0  0  0  0  0  0  0  0  0  0  0
  -20.6180  -28.3640   23.1970 C   0  0  0  0  0  3  0  0  0  0  0  0
  -20.7400  -26.9350   22.6160 C   0  0  0  0  0  2  0  0  0  0  0  0
  -19.6460  -26.6040   21.5950 C   0  0  0  0  0  2  0  0  0  0  0  0
  -18.2600  -26.7280   22.2350 C   0  0  0  0  0  2  0  0  0  0  0  0
  -19.1710  -28.8460   23.3540 C   0  0  0  0  0  0  0  0  0  0  0  0
  -18.9320  -30.1030   23.9530 C   0  0  0  0  0  3  0  0  0  0  0  0
  -17.6200  -30.5850   24.1170 C   0  0  0  0  0  3  0  0  0  0  0  0
  -16.5280  -29.8070   23.6950 C   0  0  0  0  0  3  0  0  0  0  0  0
  -16.7510  -28.5530   23.1010 C   0  0  0  0  0  3  0  0  0  0  0  0
  -25.9140  -32.5330   23.8860 C   0  0  0  0  0  3  0  0  0  0  0  0
  -26.4190  -31.7660   25.1690 C   0  0  1  0  0  0  0  0  0  0  0  0
  -25.3180  -31.5420   26.2330 C   0  0  0  0  0  1  0  0  0  0  0  0
  -26.9960  -30.3820   24.7940 C   0  0  0  0  0  1  0  0  0  0  0  0
  -27.5700  -32.5570   25.8330 C   0  0  0  0  0  1  0  0  0  0  0  0
  -25.6110  -33.9340   24.2100 N   0  0  0  0  0  0  0  0  0  0  0  0
  -25.9290  -34.9820   23.4390 C   0  0  0  0  0  0  0  0  0  0  0  0
  -26.5760  -34.8710   22.3940 O   0  0  0  0  0  0  0  0  0  0  0  0
  -25.0350  -34.0960   25.0230 H   0  0  0  0  0  0  0  0  0  0  0  0
  -24.1920  -36.7750   23.1180 C   0  0  0  0  0  1  0  0  0  0  0  0
  -25.4550  -36.3760   23.8980 C   0  0  0  0  0  3  0  0  0  0  0  0
  -27.6080  -37.2730   24.6680 C   0  0  0  0  0  1  0  0  0  0  0  0
  -26.4850  -37.4280   23.7470 N   0  0  0  0  0  0  0  0  0  0  0  0
  -26.0820  -38.3500   23.8880 H   0  0  0  0  0  0  0  0  0  0  0  0
  -29.0000  -18.7710   20.1790 C   0  0  0  0  0  3  0  0  0  0  0  0
  -28.3830  -18.4480   18.8840 N   0  0  0  0  0  4  0  0  0  0  0  0
  -28.2610  -17.4580   18.7890 H   0  0  0  0  0  0  0  0  0  0  0  0
  -28.9800  -18.7730   18.1410 H   0  0  0  0  0  0  0  0  0  0  0  0
  -27.4900  -18.8960   18.7980 H   0  0  0  0  0  0  0  0  0  0  0  0
  -30.1470  -17.6240   20.4960 C   0  0  0  0  0  2  0  0  0  0  0  0
  -30.5490  -14.9490   20.2270 C   0  0  0  0  0  0  0  0  0  0  0  0
  -30.3630  -12.6470   19.2210 C   0  0  0  0  0  2  0  0  0  0  0  0
  -29.3930  -12.6680   18.0190 C   0  0  0  0  0  2  0  0  0  0  0  0
  -27.9420  -12.4600   18.4880 C   0  0  0  0  0  2  0  0  0  0  0  0
  -27.5760  -13.3550   19.7030 C   0  0  0  0  0  3  0  0  0  0  0  0
  -28.6650  -13.3160   20.7990 C   0  0  0  0  0  2  0  0  0  0  0  0
  -29.9320  -13.7080   20.1680 N   0  0  0  0  0  0  0  0  0  0  0  0
  -31.7320  -15.0390   19.8890 O   0  0  0  0  0  0  0  0  0  0  0  0
  -29.7820  -16.1020   20.4610 N   0  0  0  0  0  0  0  0  0  0  0  0
  -28.8350  -15.8910   20.7370 H   0  0  0  0  0  0  0  0  0  0  0  0
  -25.2080  -13.9190   20.5060 C   0  0  0  0  0  0  0  0  0  0  0  0
  -24.1570  -13.1350   20.8920 C   0  0  0  0  0  0  0  0  0  0  0  0
  -24.6260  -11.7870   20.8310 C   0  0  0  0  0  0  0  0  0  0  0  0
  -26.2500  -13.0490   20.2290 N   0  0  0  0  0  0  0  0  0  0  0  0
  -25.9090  -11.7610   20.4900 N   0  0  0  0  0  0  0  0  0  0  0  0
  -23.9110  -10.5190   21.0230 C   0  0  0  0  0  0  0  0  0  0  0  0
  -24.3570   -9.5500   21.9480 C   0  0  0  0  0  3  0  0  0  0  0  0
  -23.6400   -8.3480   22.1270 C   0  0  0  0  0  3  0  0  0  0  0  0
  -22.4620   -8.1050   21.3810 C   0  0  0  0  0  0  0  0  0  0  0  0
  -22.0350   -9.0630   20.4450 C   0  0  0  0  0  3  0  0  0  0  0  0
  -22.7520  -10.2560   20.2630 C   0  0  0  0  0  3  0  0  0  0  0  0
  -21.7160   -6.9550   21.4710 O   0  0  0  0  0  0  0  0  0  0  0  0
  -21.6650   -6.2180   22.6270 C   0  0  0  0  0  0  0  0  0  0  0  0
  -21.1970   -6.7660   23.8410 C   0  0  0  0  0  3  0  0  0  0  0  0
  -21.0960   -5.9540   24.9870 C   0  0  0  0  0  3  0  0  0  0  0  0
  -21.4550   -4.5940   24.9220 C   0  0  0  0  0  0  0  0  0  0  0  0
  -21.9170   -4.0450   23.7130 C   0  0  0  0  0  3  0  0  0  0  0  0
  -22.0190   -4.8540   22.5680 C   0  0  0  0  0  0  0  0  0  0  0  0
  -22.4450   -4.3160   21.4010 F   0  0  0  0  0  0  0  0  0  0  0  0
  -21.3500   -3.8120   26.0220 F   0  0  0  0  0  0  0  0  0  0  0  0
  -22.7640  -13.6020   21.2010 C   0  0  0  0  0  0  0  0  0  0  0  0
  -22.0590  -12.8910   22.0760 N   0  0  0  0  0  0  0  0  0  0  0  0
  -22.3100  -14.6320   20.7040 O   0  0  0  0  0  0  0  0  0  0  0  0
  -22.4390  -12.0590   22.5020 H   0  0  0  0  0  0  0  0  0  0  0  0
  -21.1260  -13.1870   22.3260 H   0  0  0  0  0  0  0  0  0  0  0  0
  -25.3560  -15.2920   20.3390 N   0  0  0  0  0  0  0  0  0  0  0  0
  -24.5780  -15.9310   20.4660 H   0  0  0  0  0  0  0  0  0  0  0  0
  -26.1720  -15.7350   19.9440 H   0  0  0  0  0  0  0  0  0  0  0  0
  1  6  2  0
  1  3  1  0
  3  5  2  0
  4  2  2  0
  5  2  1  0
  5  7  1  0
  6  4  1  0
  8  6  1  0
  9  3  1  0
  9 10  1  0
 11 22  2  0
 12 10  1  0
 12 17  1  0
 13 21  1  0
 13 23  1  0
 14 20  1  0
 14 16  1  0
 15 21  1  0
 16 15  1  0
 17 16  2  0
 18 19  1  0
 18 12  2  0
 19 14  2  0
 20 13  1  0
 21 11  1  0
 23 25  2  0
 24 23  1  0
 26 24  1  0
 27 36  2  0
 27 32  1  0
 28 24  1  0
 28 32  1  0
 29 28  1  0
 30 31  1  0
 30 29  1  0
 31 27  1  0
 32 33  2  0
 33 34  1  0
 35 34  2  0
 36 35  1  0
 37 11  1  0
 37 42  1  0
 37 38  1  0
 38 41  1  1
 38 39  1  0
 40 38  1  0
 42 45  1  0
 43 47  1  0
 43 42  1  0
 44 43  2  0
 47 46  1  0
 49 50  1  0
 49 47  1  0
 49 48  1  0
 51  4  1  0
 51 56  1  0
 52 51  1  0
 53 52  1  0
 54 52  1  0
 55 52  1  0
 57 65  1  0
 58 63  1  0
 59 60  1  0
 59 58  1  0
 61 60  1  0
 61 70  1  0
 61 62  1  0
 63 57  1  0
 63 62  1  0
 64 57  2  0
 65 56  1  0
 65 66  1  0
 67 68  2  0
 68 87  1  0
 69 68  1  0
 69 72  1  0
 70 71  1  0
 70 67  1  0
 71 69  2  0
 72 73  1  0
 73 74  2  0
 75 78  1  0
 75 74  1  0
 76 75  2  0
 77 76  1  0
 77 72  2  0
 78 79  1  0
 79 80  1  0
 80 81  2  0
 82 81  1  0
 82 86  1  0
 83 82  2  0
 84 79  2  0
 84 83  1  0
 85 84  1  0
 87 88  1  0
 88 91  1  0
 88 90  1  0
 89 87  2  0
 92 93  1  0
 92 67  1  0
 94 92  1  0
M  ISO  4   9 101  10 101  57 100  65 100
M  END
>  <TORSDO>  (22) 
F 20

>  <SCORE>  (22) 
-14.169

>  <name>  (22) 
21

>  <ligand_id>  (22) 
21

>  <original_smiles>  (22) 
[H]c1c([H])c([H])c2c(c1[H])C([H])([H])C([H])([H])C([H])([H])C2([H])N([H])C(=O)C1([H])N(C(=O)C([H])(N([H])C(=O)C([H])(N([H])C([H])([H])[H])C([H])([H])[H])C(C([H])([H])[H])(C([H])([H])[H])C([H])([H])[H])C([H])([H])c2c([H])c(OC([H])([H])c3c([H])c(F)c(C([H])(C([H])([H])N([H])C(=O)N4C([H])([H])C([H])([H])C([H])([H])C([H])(n5nc(-c6c([H])c([H])c(Oc7c([H])c([H])c(F)c([H])c7F)c([H])c6[H])c(C(=O)N([H])[H])c5N([H])[H])C4([H])[H])[N+]([H])([H])[H])c([H])c3F)c([H])c([H])c2C1([H])[H]

>  <smiles>  (22) 
[H]c1c([H])c([H])c2c(c1[H])C([H])([H])C([H])([H])C([H])([H])C2([H])N([H])C(=O)C1([H])N(C(=O)C([H])(N([H])C(=O)C([H])(N([H])C([H])([H])[H])C([H])([H])[H])C(C([H])([H])[H])(C([H])([H])[H])C([H])([H])[H])C([H])([H])c2c([H])c(OC([H])([H])c3c([H])c(F)c(C([H])(C([H])([H])N([H])C(=O)N4C([H])([H])C([H])([H])C([H])([H])C([H])(n5nc(-c6c([H])c([H])c(Oc7c([H])c([H])c(F)c([H])c7F)c([H])c6[H])c(C(=O)N([H])[H])c5N([H])[H])C4([H])[H])[N+]([H])([H])[H])c([H])c3F)c([H])c([H])c2C1([H])[H]

$$$$
22:0:0
     RDKit          3D

 93101  0  0  1  0  0  0  0  0999 V2000
  -28.8860  -23.4650   20.1150 C   0  0  0  0  0  3  0  0  0  0  0  0
  -30.3330  -23.7600   20.0540 N   0  0  0  0  0  4  0  0  0  0  0  0
  -30.7210  -23.8970   20.9720 H   0  0  0  0  0  0  0  0  0  0  0  0
  -30.4930  -24.6000   19.5250 H   0  0  0  0  0  0  0  0  0  0  0  0
  -30.8340  -23.0140   19.6040 H   0  0  0  0  0  0  0  0  0  0  0  0
  -28.6460  -22.0250   20.9050 C   0  0  0  0  0  2  0  0  0  0  0  0
  -28.1160  -19.5310   20.1110 C   0  0  0  0  0  3  0  0  0  0  0  0
  -28.3470  -18.1100   20.0720 C   0  0  0  0  0  3  0  0  0  0  0  0
  -30.5850  -18.4320   20.7710 C   0  0  0  0  0  3  0  0  0  0  0  0
  -29.0870  -20.4950   20.5220 C   0  0  0  0  0  0  0  0  0  0  0  0
  -29.5790  -17.4700   20.4200 C   0  0  0  0  0  0  0  0  0  0  0  0
  -30.3470  -19.8700   20.8340 C   0  0  0  0  0  0  0  0  0  0  0  0
  -31.3520  -20.6640   21.2730 F   0  0  0  0  0  0  0  0  0  0  0  0
  -30.5060  -14.8840   20.3160 C   0  0  0  0  0  0  0  0  0  0  0  0
  -30.4050  -12.5660   19.3220 C   0  0  0  0  0  2  0  0  0  0  0  0
  -29.4520  -12.5810   18.1030 C   0  0  0  0  0  2  0  0  0  0  0  0
  -27.9870  -12.3800   18.5410 C   0  0  0  0  0  2  0  0  0  0  0  0
  -27.6020  -13.2740   19.7470 C   0  0  0  0  0  3  0  0  0  0  0  0
  -28.6670  -13.2110   20.8640 C   0  0  0  0  0  2  0  0  0  0  0  0
  -29.9480  -13.6160   20.2660 N   0  0  0  0  0  0  0  0  0  0  0  0
  -31.6940  -15.0300   20.0100 O   0  0  0  0  0  0  0  0  0  0  0  0
  -29.6150  -15.9540   20.5040 N   0  0  0  0  0  0  0  0  0  0  0  0
  -28.6950  -15.5700   20.6450 H   0  0  0  0  0  0  0  0  0  0  0  0
  -25.2160  -13.8600   20.4850 C   0  0  0  0  0  0  0  0  0  0  0  0
  -24.1540  -13.0840   20.8620 C   0  0  0  0  0  0  0  0  0  0  0  0
  -24.6200  -11.7350   20.8320 C   0  0  0  0  0  0  0  0  0  0  0  0
  -26.2610  -12.9830   20.2450 N   0  0  0  0  0  0  0  0  0  0  0  0
  -25.9100  -11.7000   20.5180 N   0  0  0  0  0  0  0  0  0  0  0  0
  -23.8980  -10.4710   21.0260 C   0  0  0  0  0  0  0  0  0  0  0  0
  -24.3350   -9.5060   21.9600 C   0  0  0  0  0  3  0  0  0  0  0  0
  -23.6110   -8.3080   22.1420 C   0  0  0  0  0  3  0  0  0  0  0  0
  -22.4370   -8.0670   21.3900 C   0  0  0  0  0  0  0  0  0  0  0  0
  -22.0200   -9.0200   20.4450 C   0  0  0  0  0  3  0  0  0  0  0  0
  -22.7440  -10.2100   20.2610 C   0  0  0  0  0  3  0  0  0  0  0  0
  -21.6860   -6.9190   21.4810 O   0  0  0  0  0  0  0  0  0  0  0  0
  -21.6430   -6.1770   22.6340 C   0  0  0  0  0  0  0  0  0  0  0  0
  -21.2220   -6.7300   23.8620 C   0  0  0  0  0  3  0  0  0  0  0  0
  -21.1270   -5.9140   25.0060 C   0  0  0  0  0  3  0  0  0  0  0  0
  -21.4440   -4.5440   24.9240 C   0  0  0  0  0  0  0  0  0  0  0  0
  -21.8590   -3.9900   23.7000 C   0  0  0  0  0  3  0  0  0  0  0  0
  -21.9550   -4.8040   22.5570 C   0  0  0  0  0  0  0  0  0  0  0  0
  -22.3350   -4.2610   21.3760 F   0  0  0  0  0  0  0  0  0  0  0  0
  -21.3460   -3.7580   26.0210 F   0  0  0  0  0  0  0  0  0  0  0  0
  -22.7560  -13.5600   21.1350 C   0  0  0  0  0  0  0  0  0  0  0  0
  -22.0300  -12.8630   22.0020 N   0  0  0  0  0  0  0  0  0  0  0  0
  -22.3160  -14.5830   20.6130 O   0  0  0  0  0  0  0  0  0  0  0  0
  -22.3990  -12.0360   22.4460 H   0  0  0  0  0  0  0  0  0  0  0  0
  -21.0930  -13.1640   22.2260 H   0  0  0  0  0  0  0  0  0  0  0  0
  -25.3720  -15.2300   20.2990 N   0  0  0  0  0  0  0  0  0  0  0  0
  -24.5910  -15.8710   20.3910 H   0  0  0  0  0  0  0  0  0  0  0  0
  -26.1850  -15.6600   19.8810 H   0  0  0  0  0  0  0  0  0  0  0  0
  -28.0730  -24.8240   20.6380 C   0  0  0  0  0  2  0  0  0  0  0  0
  -28.3010  -26.2820   20.2070 O   0  0  0  0  0  0  0  0  0  0  0  0
  -24.6230  -31.8750   23.2250 C   0  0  0  0  0  0  0  0  0  0  0  0
  -27.2190  -27.2160   20.1930 C   0  0  0  0  0  0  0  0  0  0  0  0
  -23.4240  -30.4800   21.5820 C   0  0  0  0  0  3  0  0  0  0  0  0
  -24.8750  -28.9130   20.1610 C   0  0  0  0  0  0  0  0  0  0  0  0
  -25.9730  -30.7650   21.4140 C   0  0  0  0  0  2  0  0  0  0  0  0
  -26.0510  -29.3770   20.7650 C   0  0  0  0  0  0  0  0  0  0  0  0
  -27.2260  -28.5450   20.7630 C   0  0  0  0  0  3  0  0  0  0  0  0
  -26.0200  -26.8400   19.5500 C   0  0  0  0  0  3  0  0  0  0  0  0
  -24.8690  -27.6550   19.5380 C   0  0  0  0  0  3  0  0  0  0  0  0
  -23.6450  -29.8030   20.2040 C   0  0  0  0  0  2  0  0  0  0  0  0
  -24.6930  -31.0600   22.1300 N   0  0  0  0  0  0  0  0  0  0  0  0
  -23.5380  -32.1560   23.7550 O   0  0  0  0  0  0  0  0  0  0  0  0
  -22.7490  -29.4690   22.5420 C   0  0  0  0  0  0  0  0  0  0  0  0
  -21.4210  -29.2960   22.4140 N   0  0  0  0  0  0  0  0  0  0  0  0
  -23.4220  -28.8420   23.3640 O   0  0  0  0  0  0  0  0  0  0  0  0
  -20.9360  -29.8540   21.7250 H   0  0  0  0  0  0  0  0  0  0  0  0
  -18.0410  -28.0960   22.9060 C   0  0  0  0  0  0  0  0  0  0  0  0
  -20.5990  -28.3600   23.1830 C   0  0  0  0  0  3  0  0  0  0  0  0
  -20.7040  -26.9270   22.6100 C   0  0  0  0  0  2  0  0  0  0  0  0
  -19.6050  -26.6020   21.5920 C   0  0  0  0  0  2  0  0  0  0  0  0
  -18.2210  -26.7460   22.2310 C   0  0  0  0  0  2  0  0  0  0  0  0
  -19.1580  -28.8600   23.3380 C   0  0  0  0  0  0  0  0  0  0  0  0
  -18.9340  -30.1230   23.9300 C   0  0  0  0  0  3  0  0  0  0  0  0
  -17.6270  -30.6210   24.0930 C   0  0  0  0  0  3  0  0  0  0  0  0
  -16.5260  -29.8540   23.6750 C   0  0  0  0  0  3  0  0  0  0  0  0
  -16.7340  -28.5930   23.0870 C   0  0  0  0  0  3  0  0  0  0  0  0
  -25.9030  -32.5080   23.8530 C   0  0  0  0  0  3  0  0  0  0  0  0
  -26.4100  -31.7390   25.1340 C   0  0  1  0  0  0  0  0  0  0  0  0
  -25.3120  -31.5100   26.1990 C   0  0  0  0  0  1  0  0  0  0  0  0
  -26.9880  -30.3570   24.7540 C   0  0  0  0  0  1  0  0  0  0  0  0
  -27.5610  -32.5300   25.7980 C   0  0  0  0  0  1  0  0  0  0  0  0
  -25.5930  -33.9070   24.1830 N   0  0  0  0  0  0  0  0  0  0  0  0
  -25.9270  -34.9620   23.4270 C   0  0  0  0  0  0  0  0  0  0  0  0
  -26.5960  -34.8590   22.3960 O   0  0  0  0  0  0  0  0  0  0  0  0
  -24.9980  -34.0600   24.9840 H   0  0  0  0  0  0  0  0  0  0  0  0
  -24.2030  -36.7630   23.0790 C   0  0  0  0  0  1  0  0  0  0  0  0
  -25.4430  -36.3510   23.8890 C   0  0  0  0  0  3  0  0  0  0  0  0
  -27.5810  -37.2300   24.7200 C   0  0  0  0  0  1  0  0  0  0  0  0
  -26.4790  -37.4020   23.7780 N   0  0  0  0  0  0  0  0  0  0  0  0
  -26.0750  -38.3230   23.9270 H   0  0  0  0  0  0  0  0  0  0  0  0
  1 52  1  0
  1  6  1  0
  2  1  1  0
  2  3  1  0
  4  2  1  0
  5  2  1  0
  7 10  1  0
  8  7  2  0
  8 11  1  0
  9 12  1  0
 10 12  2  0
 10  6  1  0
 11 22  1  0
 11  9  2  0
 12 13  1  0
 14 22  1  0
 15 20  1  0
 16 17  1  0
 16 15  1  0
 18 17  1  0
 18 27  1  0
 18 19  1  0
 20 14  1  0
 20 19  1  0
 21 14  2  0
 22 23  1  0
 24 25  2  0
 25 44  1  0
 26 25  1  0
 26 29  1  0
 27 24  1  0
 27 28  1  0
 28 26  2  0
 29 30  1  0
 30 31  2  0
 32 35  1  0
 32 31  1  0
 33 32  2  0
 34 33  1  0
 34 29  2  0
 35 36  1  0
 36 37  1  0
 37 38  2  0
 39 38  1  0
 39 43  1  0
 40 39  2  0
 41 36  2  0
 41 40  1  0
 42 41  1  0
 44 45  1  0
 45 48  1  0
 45 47  1  0
 46 44  2  0
 49 50  1  0
 49 24  1  0
 51 49  1  0
 53 52  1  0
 54 65  2  0
 55 53  1  0
 55 60  1  0
 56 64  1  0
 56 66  1  0
 57 63  1  0
 57 59  1  0
 58 64  1  0
 59 58  1  0
 60 59  2  0
 61 55  2  0
 62 61  1  0
 62 57  2  0
 63 56  1  0
 64 54  1  0
 66 68  2  0
 67 66  1  0
 69 67  1  0
 70 79  2  0
 70 75  1  0
 71 67  1  0
 71 75  1  0
 72 71  1  0
 73 74  1  0
 73 72  1  0
 74 70  1  0
 75 76  2  0
 76 77  1  0
 78 77  2  0
 79 78  1  0
 80 54  1  0
 80 85  1  0
 80 81  1  0
 81 84  1  1
 81 82  1  0
 83 81  1  0
 85 88  1  0
 86 90  1  0
 86 85  1  0
 87 86  2  0
 90 89  1  0
 92 90  1  0
 92 93  1  0
 92 91  1  0
M  ISO  4  14 100  22 100  52 101  53 101
M  END
>  <TORSDO>  (23) 
F 20

>  <SCORE>  (23) 
-14.302

>  <name>  (23) 
22

>  <ligand_id>  (23) 
22

>  <original_smiles>  (23) 
[H]c1c([H])c([H])c2c(c1[H])C([H])([H])C([H])([H])C([H])([H])C2([H])N([H])C(=O)C1([H])N(C(=O)C([H])(N([H])C(=O)C([H])(N([H])C([H])([H])[H])C([H])([H])[H])C(C([H])([H])[H])(C([H])([H])[H])C([H])([H])[H])C([H])([H])c2c([H])c(OC([H])([H])C([H])(C([H])([H])c3c([H])c([H])c(N([H])C(=O)N4C([H])([H])C([H])([H])C([H])([H])C([H])(n5nc(-c6c([H])c([H])c(Oc7c([H])c([H])c(F)c([H])c7F)c([H])c6[H])c(C(=O)N([H])[H])c5N([H])[H])C4([H])[H])c([H])c3F)[N+]([H])([H])[H])c([H])c([H])c2C1([H])[H]

>  <smiles>  (23) 
[H]c1c([H])c([H])c2c(c1[H])C([H])([H])C([H])([H])C([H])([H])C2([H])N([H])C(=O)C1([H])N(C(=O)C([H])(N([H])C(=O)C([H])(N([H])C([H])([H])[H])C([H])([H])[H])C(C([H])([H])[H])(C([H])([H])[H])C([H])([H])[H])C([H])([H])c2c([H])c(OC([H])([H])C([H])(C([H])([H])c3c([H])c([H])c(N([H])C(=O)N4C([H])([H])C([H])([H])C([H])([H])C([H])(n5nc(-c6c([H])c([H])c(Oc7c([H])c([H])c(F)c([H])c7F)c([H])c6[H])c(C(=O)N([H])[H])c5N([H])[H])C4([H])[H])c([H])c3F)[N+]([H])([H])[H])c([H])c([H])c2C1([H])[H]

$$$$
23:0:0
     RDKit          3D

 90 98  0  0  1  0  0  0  0  0999 V2000
  -30.0430  -20.8990   18.9920 C   0  0  0  0  0  3  0  0  0  0  0  0
  -29.4900  -19.8170   19.7970 C   0  0  0  0  0  0  0  0  0  0  0  0
  -28.6040  -22.9580   19.7260 C   0  0  0  0  0  0  0  0  0  0  0  0
  -29.6440  -22.3240   18.9400 C   0  0  0  0  0  0  0  0  0  0  0  0
  -28.4480  -20.4510   20.5920 C   0  0  0  0  0  0  0  0  0  0  0  0
  -28.0390  -21.8840   20.5460 C   0  0  0  0  0  0  0  0  0  0  0  0
  -30.2960  -23.1020   18.0430 F   0  0  0  0  0  0  0  0  0  0  0  0
  -27.7920  -19.6570   21.4720 F   0  0  0  0  0  0  0  0  0  0  0  0
  -26.9970  -22.2300   21.3420 F   0  0  0  0  0  0  0  0  0  0  0  0
  -30.2050  -18.2320   19.8760 C   0  0  0  0  0  2  0  0  0  0  0  0
  -30.4720  -15.3800   19.8650 C   0  0  0  0  0  0  0  0  0  0  0  0
  -30.3440  -12.9660   18.9630 C   0  0  0  0  0  2  0  0  0  0  0  0
  -29.3600  -12.8150   17.7780 C   0  0  0  0  0  2  0  0  0  0  0  0
  -27.9310  -12.5630   18.2910 C   0  0  0  0  0  2  0  0  0  0  0  0
  -27.5550  -13.5120   19.4570 C   0  0  0  0  0  3  0  0  0  0  0  0
  -28.6640  -13.6210   20.5260 C   0  0  0  0  0  2  0  0  0  0  0  0
  -29.8700  -14.0970   19.8350 N   0  0  0  0  0  0  0  0  0  0  0  0
  -31.6730  -15.3680   19.5670 O   0  0  0  0  0  0  0  0  0  0  0  0
  -29.7570  -16.6570   20.0180 N   0  0  0  0  0  0  0  0  0  0  0  0
  -28.7770  -16.5350   20.2220 H   0  0  0  0  0  0  0  0  0  0  0  0
  -25.2300  -14.0750   20.3410 C   0  0  0  0  0  0  0  0  0  0  0  0
  -24.1850  -13.2980   20.7560 C   0  0  0  0  0  0  0  0  0  0  0  0
  -24.6420  -11.9460   20.6820 C   0  0  0  0  0  0  0  0  0  0  0  0
  -26.2530  -13.1980   20.0310 N   0  0  0  0  0  0  0  0  0  0  0  0
  -25.9160  -11.9110   20.3050 N   0  0  0  0  0  0  0  0  0  0  0  0
  -23.9180  -10.6840   20.8920 C   0  0  0  0  0  0  0  0  0  0  0  0
  -24.3670   -9.7200   21.8190 C   0  0  0  0  0  3  0  0  0  0  0  0
  -23.6420   -8.5250   22.0180 C   0  0  0  0  0  3  0  0  0  0  0  0
  -22.4520   -8.2880   21.2890 C   0  0  0  0  0  0  0  0  0  0  0  0
  -22.0220   -9.2410   20.3490 C   0  0  0  0  0  3  0  0  0  0  0  0
  -22.7490  -10.4270   20.1480 C   0  0  0  0  0  3  0  0  0  0  0  0
  -21.6950   -7.1460   21.3980 O   0  0  0  0  0  0  0  0  0  0  0  0
  -21.6430   -6.4260   22.5640 C   0  0  0  0  0  0  0  0  0  0  0  0
  -21.1720   -6.9930   23.7690 C   0  0  0  0  0  3  0  0  0  0  0  0
  -21.0670   -6.1970   24.9280 C   0  0  0  0  0  3  0  0  0  0  0  0
  -21.4240   -4.8360   24.8820 C   0  0  0  0  0  0  0  0  0  0  0  0
  -21.8880   -4.2690   23.6830 C   0  0  0  0  0  3  0  0  0  0  0  0
  -21.9940   -5.0620   22.5260 C   0  0  0  0  0  0  0  0  0  0  0  0
  -22.4210   -4.5050   21.3670 F   0  0  0  0  0  0  0  0  0  0  0  0
  -21.3160   -4.0700   25.9930 F   0  0  0  0  0  0  0  0  0  0  0  0
  -22.8060  -13.7790   21.1000 C   0  0  0  0  0  0  0  0  0  0  0  0
  -22.1120  -13.0680   21.9810 N   0  0  0  0  0  0  0  0  0  0  0  0
  -22.3550  -14.8200   20.6230 O   0  0  0  0  0  0  0  0  0  0  0  0
  -22.4900  -12.2250   22.3860 H   0  0  0  0  0  0  0  0  0  0  0  0
  -21.1860  -13.3700   22.2530 H   0  0  0  0  0  0  0  0  0  0  0  0
  -25.3880  -15.4480   20.1730 N   0  0  0  0  0  0  0  0  0  0  0  0
  -24.6270  -16.0990   20.3310 H   0  0  0  0  0  0  0  0  0  0  0  0
  -26.2080  -15.8880   19.7770 H   0  0  0  0  0  0  0  0  0  0  0  0
  -27.8830  -24.5170   19.4660 C   0  0  0  0  0  2  0  0  0  0  0  0
  -28.2230  -26.0690   19.8100 O   0  0  0  0  0  0  0  0  0  0  0  0
  -24.5480  -31.7520   23.0940 C   0  0  0  0  0  0  0  0  0  0  0  0
  -27.2010  -27.1460   19.7970 C   0  0  0  0  0  0  0  0  0  0  0  0
  -23.3780  -30.4260   21.3840 C   0  0  0  0  0  3  0  0  0  0  0  0
  -24.8570  -28.9480   19.8670 C   0  0  0  0  0  0  0  0  0  0  0  0
  -25.9370  -30.7140   21.2410 C   0  0  0  0  0  2  0  0  0  0  0  0
  -26.0380  -29.3490   20.5060 C   0  0  0  0  0  0  0  0  0  0  0  0
  -27.2050  -28.4690   20.4510 C   0  0  0  0  0  3  0  0  0  0  0  0
  -25.9890  -26.8950   19.1160 C   0  0  0  0  0  3  0  0  0  0  0  0
  -24.8550  -27.7410   19.1540 C   0  0  0  0  0  3  0  0  0  0  0  0
  -23.6170  -29.8300   19.9690 C   0  0  0  0  0  2  0  0  0  0  0  0
  -24.6420  -30.9870   21.9610 N   0  0  0  0  0  0  0  0  0  0  0  0
  -23.4550  -31.9860   23.6350 O   0  0  0  0  0  0  0  0  0  0  0  0
  -22.7140  -29.3570   22.2910 C   0  0  0  0  0  0  0  0  0  0  0  0
  -21.3870  -29.1710   22.1620 N   0  0  0  0  0  0  0  0  0  0  0  0
  -23.3980  -28.6990   23.0780 O   0  0  0  0  0  0  0  0  0  0  0  0
  -20.8870  -29.7530   21.5040 H   0  0  0  0  0  0  0  0  0  0  0  0
  -18.0280  -27.8890   22.6400 C   0  0  0  0  0  0  0  0  0  0  0  0
  -20.5880  -28.1750   22.8840 C   0  0  0  0  0  3  0  0  0  0  0  0
  -20.7000  -26.7840   22.2160 C   0  0  0  0  0  2  0  0  0  0  0  0
  -19.5860  -26.5120   21.2000 C   0  0  0  0  0  2  0  0  0  0  0  0
  -18.2140  -26.5910   21.8740 C   0  0  0  0  0  2  0  0  0  0  0  0
  -19.1430  -28.6400   23.1020 C   0  0  0  0  0  0  0  0  0  0  0  0
  -18.9130  -29.8550   23.7840 C   0  0  0  0  0  3  0  0  0  0  0  0
  -17.6030  -30.3180   24.0070 C   0  0  0  0  0  3  0  0  0  0  0  0
  -16.5040  -29.5650   23.5610 C   0  0  0  0  0  3  0  0  0  0  0  0
  -16.7170  -28.3510   22.8840 C   0  0  0  0  0  3  0  0  0  0  0  0
  -25.8080  -32.3870   23.7560 C   0  0  0  0  0  3  0  0  0  0  0  0
  -25.4780  -33.7760   24.1190 N   0  0  0  0  0  0  0  0  0  0  0  0
  -25.7920  -34.8540   23.3880 C   0  0  0  0  0  0  0  0  0  0  0  0
  -26.4530  -34.7840   22.3490 O   0  0  0  0  0  0  0  0  0  0  0  0
  -24.8910  -33.9040   24.9290 H   0  0  0  0  0  0  0  0  0  0  0  0
  -24.0280  -36.6310   23.1160 C   0  0  0  0  0  1  0  0  0  0  0  0
  -25.2960  -36.2270   23.8860 C   0  0  0  0  0  3  0  0  0  0  0  0
  -27.4330  -37.1380   24.6870 C   0  0  0  0  0  1  0  0  0  0  0  0
  -26.3090  -37.3000   23.7680 N   0  0  0  0  0  0  0  0  0  0  0  0
  -25.8910  -38.2110   23.9350 H   0  0  0  0  0  0  0  0  0  0  0  0
  -26.3000  -31.5960   25.0320 C   0  0  1  0  0  0  0  0  0  0  0  0
  -25.1860  -31.3370   26.0740 C   0  0  0  0  0  1  0  0  0  0  0  0
  -26.8960  -30.2260   24.6380 C   0  0  0  0  0  1  0  0  0  0  0  0
  -27.4340  -32.3830   25.7300 C   0  0  0  0  0  1  0  0  0  0  0  0
  1  2  1  0
  2 10  1  0
  2  5  2  0
  3  6  2  0
  4  1  2  0
  4  3  1  0
  5  8  1  0
  6  5  1  0
  6  9  1  0
  7  4  1  0
 10 19  1  0
 11 19  1  0
 12 17  1  0
 13 14  1  0
 13 12  1  0
 15 14  1  0
 15 24  1  0
 15 16  1  0
 17 11  1  0
 17 16  1  0
 18 11  2  0
 19 20  1  0
 21 22  2  0
 22 41  1  0
 23 22  1  0
 23 26  1  0
 24 25  1  0
 24 21  1  0
 25 23  2  0
 26 27  1  0
 27 28  2  0
 29 32  1  0
 29 28  1  0
 30 29  2  0
 31 30  1  0
 31 26  2  0
 32 33  1  0
 33 34  1  0
 34 35  2  0
 36 35  1  0
 36 40  1  0
 37 36  2  0
 38 33  2  0
 38 37  1  0
 39 38  1  0
 41 42  1  0
 42 45  1  0
 42 44  1  0
 43 41  2  0
 46 47  1  0
 46 21  1  0
 48 46  1  0
 49  3  1  0
 49 50  1  0
 51 62  2  0
 52 50  1  0
 52 57  1  0
 53 61  1  0
 53 63  1  0
 54 60  1  0
 54 56  1  0
 55 61  1  0
 56 55  1  0
 57 56  2  0
 58 59  1  0
 58 52  2  0
 59 54  2  0
 60 53  1  0
 61 51  1  0
 63 65  2  0
 64 63  1  0
 66 64  1  0
 67 76  2  0
 67 72  1  0
 68 64  1  0
 68 72  1  0
 69 68  1  0
 70 71  1  0
 70 69  1  0
 71 67  1  0
 72 73  2  0
 73 74  1  0
 75 74  2  0
 76 75  1  0
 77 51  1  0
 77 78  1  0
 77 87  1  0
 78 81  1  0
 79 83  1  0
 79 78  1  0
 80 79  2  0
 83 82  1  0
 85 83  1  0
 85 86  1  0
 85 84  1  0
 87 90  1  1
 87 88  1  0
 89 87  1  0
M  ISO  4  11 100  19 100  49 101  50 101
M  END
>  <TORSDO>  (24) 
F 18

>  <SCORE>  (24) 
-14.990

>  <name>  (24) 
23

>  <ligand_id>  (24) 
23

>  <original_smiles>  (24) 
[H]c1c([H])c([H])c2c(c1[H])C([H])([H])C([H])([H])C([H])([H])C2([H])N([H])C(=O)C1([H])N(C(=O)C([H])(N([H])C(=O)C([H])(N([H])C([H])([H])[H])C([H])([H])[H])C(C([H])([H])[H])(C([H])([H])[H])C([H])([H])[H])C([H])([H])c2c([H])c(OC([H])([H])c3c(F)c([H])c(C([H])([H])N([H])C(=O)N4C([H])([H])C([H])([H])C([H])([H])C([H])(n5nc(-c6c([H])c([H])c(Oc7c([H])c([H])c(F)c([H])c7F)c([H])c6[H])c(C(=O)N([H])[H])c5N([H])[H])C4([H])[H])c(F)c3F)c([H])c([H])c2C1([H])[H]

>  <smiles>  (24) 
[H]c1c([H])c([H])c2c(c1[H])C([H])([H])C([H])([H])C([H])([H])C2([H])N([H])C(=O)C1([H])N(C(=O)C([H])(N([H])C(=O)C([H])(N([H])C([H])([H])[H])C([H])([H])[H])C(C([H])([H])[H])(C([H])([H])[H])C([H])([H])[H])C([H])([H])c2c([H])c(OC([H])([H])c3c(F)c([H])c(C([H])([H])N([H])C(=O)N4C([H])([H])C([H])([H])C([H])([H])C([H])(n5nc(-c6c([H])c([H])c(Oc7c([H])c([H])c(F)c([H])c7F)c([H])c6[H])c(C(=O)N([H])[H])c5N([H])[H])C4([H])[H])c(F)c3F)c([H])c([H])c2C1([H])[H]

$$$$
24:0:0
     RDKit          3D

 92100  0  0  1  0  0  0  0  0999 V2000
  -30.0930  -21.6440   19.8970 C   0  0  0  0  0  2  0  0  0  0  0  0
  -28.7710  -19.4130   20.5200 C   0  0  0  0  0  3  0  0  0  0  0  0
  -28.7470  -17.9920   20.6850 C   0  0  0  0  0  3  0  0  0  0  0  0
  -31.0920  -17.8640   20.1880 C   0  0  0  0  0  3  0  0  0  0  0  0
  -29.9650  -20.0980   20.1810 C   0  0  0  0  0  0  0  0  0  0  0  0
  -29.8980  -17.1700   20.5150 C   0  0  0  0  0  0  0  0  0  0  0  0
  -31.1180  -19.2800   20.0270 C   0  0  0  0  0  0  0  0  0  0  0  0
  -32.2960  -19.8620   19.6960 F   0  0  0  0  0  0  0  0  0  0  0  0
  -30.5860  -14.6620   20.3240 C   0  0  0  0  0  0  0  0  0  0  0  0
  -30.3620  -12.4310   19.2500 C   0  0  0  0  0  2  0  0  0  0  0  0
  -29.4080  -12.5780   18.0450 C   0  0  0  0  0  2  0  0  0  0  0  0
  -27.9400  -12.4120   18.4850 C   0  0  0  0  0  2  0  0  0  0  0  0
  -27.5940  -13.2600   19.7380 C   0  0  0  0  0  3  0  0  0  0  0  0
  -28.6620  -13.0970   20.8420 C   0  0  0  0  0  2  0  0  0  0  0  0
  -29.9680  -13.4400   20.2530 N   0  0  0  0  0  0  0  0  0  0  0  0
  -31.7480  -14.8110   19.9310 O   0  0  0  0  0  0  0  0  0  0  0  0
  -29.7820  -15.7150   20.6820 N   0  0  0  0  0  0  0  0  0  0  0  0
  -28.8750  -15.4090   20.9980 H   0  0  0  0  0  0  0  0  0  0  0  0
  -25.2070  -13.8530   20.4820 C   0  0  0  0  0  0  0  0  0  0  0  0
  -24.1460  -13.0790   20.8630 C   0  0  0  0  0  0  0  0  0  0  0  0
  -24.6100  -11.7280   20.8260 C   0  0  0  0  0  0  0  0  0  0  0  0
  -26.2500  -12.9750   20.2340 N   0  0  0  0  0  0  0  0  0  0  0  0
  -25.8980  -11.6910   20.5020 N   0  0  0  0  0  0  0  0  0  0  0  0
  -23.8880  -10.4630   21.0240 C   0  0  0  0  0  0  0  0  0  0  0  0
  -24.3300   -9.4960   21.9530 C   0  0  0  0  0  3  0  0  0  0  0  0
  -23.6090   -8.2980   22.1370 C   0  0  0  0  0  3  0  0  0  0  0  0
  -22.4320   -8.0550   21.3890 C   0  0  0  0  0  0  0  0  0  0  0  0
  -22.0100   -9.0100   20.4490 C   0  0  0  0  0  3  0  0  0  0  0  0
  -22.7310  -10.2020   20.2630 C   0  0  0  0  0  3  0  0  0  0  0  0
  -21.6820   -6.9080   21.4840 O   0  0  0  0  0  0  0  0  0  0  0  0
  -21.6410   -6.1680   22.6380 C   0  0  0  0  0  0  0  0  0  0  0  0
  -21.2130   -6.7220   23.8640 C   0  0  0  0  0  3  0  0  0  0  0  0
  -21.1180   -5.9070   25.0110 C   0  0  0  0  0  3  0  0  0  0  0  0
  -21.4410   -4.5390   24.9320 C   0  0  0  0  0  0  0  0  0  0  0  0
  -21.8610   -3.9850   23.7110 C   0  0  0  0  0  3  0  0  0  0  0  0
  -21.9590   -4.7950   22.5670 C   0  0  0  0  0  0  0  0  0  0  0  0
  -22.3450   -4.2520   21.3870 F   0  0  0  0  0  0  0  0  0  0  0  0
  -21.3430   -3.7540   26.0300 F   0  0  0  0  0  0  0  0  0  0  0  0
  -22.7510  -13.5540   21.1490 C   0  0  0  0  0  0  0  0  0  0  0  0
  -22.0300  -12.8550   22.0200 N   0  0  0  0  0  0  0  0  0  0  0  0
  -22.3070  -14.5800   20.6360 O   0  0  0  0  0  0  0  0  0  0  0  0
  -22.4000  -12.0260   22.4610 H   0  0  0  0  0  0  0  0  0  0  0  0
  -21.0930  -13.1560   22.2510 H   0  0  0  0  0  0  0  0  0  0  0  0
  -25.3650  -15.2240   20.3030 N   0  0  0  0  0  0  0  0  0  0  0  0
  -24.5860  -15.8650   20.4010 H   0  0  0  0  0  0  0  0  0  0  0  0
  -26.1890  -15.6620   19.9120 H   0  0  0  0  0  0  0  0  0  0  0  0
  -29.2420  -24.0320   20.1650 C   0  0  0  0  0  0  0  0  0  0  0  0
  -29.0660  -22.6720   20.2810 N   0  0  0  0  0  0  0  0  0  0  0  0
  -30.3360  -24.4960   19.8360 O   0  0  0  0  0  0  0  0  0  0  0  0
  -28.1540  -22.3390   20.5650 H   0  0  0  0  0  0  0  0  0  0  0  0
  -28.0440  -25.0250   20.4090 C   0  0  0  0  0  2  0  0  0  0  0  0
  -28.3200  -26.4710   20.1830 O   0  0  0  0  0  0  0  0  0  0  0  0
  -24.6270  -31.8890   23.2370 C   0  0  0  0  0  0  0  0  0  0  0  0
  -27.2090  -27.3320   20.1550 C   0  0  0  0  0  0  0  0  0  0  0  0
  -23.4130  -30.5000   21.5980 C   0  0  0  0  0  3  0  0  0  0  0  0
  -24.8520  -28.9530   20.1610 C   0  0  0  0  0  0  0  0  0  0  0  0
  -25.9520  -30.8080   21.4090 C   0  0  0  0  0  2  0  0  0  0  0  0
  -26.0240  -29.4310   20.7610 C   0  0  0  0  0  0  0  0  0  0  0  0
  -27.2060  -28.6300   20.7540 C   0  0  0  0  0  3  0  0  0  0  0  0
  -26.0190  -26.9210   19.5130 C   0  0  0  0  0  3  0  0  0  0  0  0
  -24.8510  -27.7040   19.5280 C   0  0  0  0  0  3  0  0  0  0  0  0
  -23.6210  -29.8320   20.2130 C   0  0  0  0  0  2  0  0  0  0  0  0
  -24.6830  -31.0830   22.1370 N   0  0  0  0  0  0  0  0  0  0  0  0
  -23.5460  -32.1690   23.7750 O   0  0  0  0  0  0  0  0  0  0  0  0
  -22.7520  -29.4800   22.5550 C   0  0  0  0  0  0  0  0  0  0  0  0
  -21.4240  -29.3070   22.4320 N   0  0  0  0  0  0  0  0  0  0  0  0
  -23.4300  -28.8480   23.3690 O   0  0  0  0  0  0  0  0  0  0  0  0
  -20.9350  -29.8680   21.7480 H   0  0  0  0  0  0  0  0  0  0  0  0
  -18.0440  -28.1240   22.9410 C   0  0  0  0  0  0  0  0  0  0  0  0
  -20.6050  -28.3710   23.2050 C   0  0  0  0  0  3  0  0  0  0  0  0
  -20.6990  -26.9410   22.6270 C   0  0  0  0  0  2  0  0  0  0  0  0
  -19.5930  -26.6240   21.6160 C   0  0  0  0  0  2  0  0  0  0  0  0
  -18.2130  -26.7740   22.2650 C   0  0  0  0  0  2  0  0  0  0  0  0
  -19.1670  -28.8810   23.3690 C   0  0  0  0  0  0  0  0  0  0  0  0
  -18.9550  -30.1440   23.9640 C   0  0  0  0  0  3  0  0  0  0  0  0
  -17.6520  -30.6490   24.1350 C   0  0  0  0  0  3  0  0  0  0  0  0
  -16.5440  -29.8900   23.7200 C   0  0  0  0  0  3  0  0  0  0  0  0
  -16.7410  -28.6290   23.1290 C   0  0  0  0  0  3  0  0  0  0  0  0
  -25.9150  -32.5150   23.8550 C   0  0  0  0  0  3  0  0  0  0  0  0
  -26.4350  -31.7360   25.1250 C   0  0  1  0  0  0  0  0  0  0  0  0
  -25.3470  -31.4960   26.1970 C   0  0  0  0  0  1  0  0  0  0  0  0
  -27.0120  -30.3580   24.7240 C   0  0  0  0  0  1  0  0  0  0  0  0
  -27.5920  -32.5220   25.7850 C   0  0  0  0  0  1  0  0  0  0  0  0
  -25.6090  -33.9120   24.1950 N   0  0  0  0  0  0  0  0  0  0  0  0
  -25.9300  -34.9670   23.4340 C   0  0  0  0  0  0  0  0  0  0  0  0
  -26.5850  -34.8670   22.3930 O   0  0  0  0  0  0  0  0  0  0  0  0
  -25.0290  -34.0640   25.0070 H   0  0  0  0  0  0  0  0  0  0  0  0
  -24.1970  -36.7600   23.1090 C   0  0  0  0  0  1  0  0  0  0  0  0
  -25.4500  -36.3550   23.9020 C   0  0  0  0  0  3  0  0  0  0  0  0
  -27.5960  -37.2380   24.7040 C   0  0  0  0  0  1  0  0  0  0  0  0
  -26.4800  -37.4070   23.7760 N   0  0  0  0  0  0  0  0  0  0  0  0
  -26.0760  -38.3270   23.9320 H   0  0  0  0  0  0  0  0  0  0  0  0
  1  5  1  0
  1 48  1  0
  2  3  1  0
  4  6  1  0
  5  2  2  0
  6 17  1  0
  6  3  2  0
  7  5  1  0
  7  4  2  0
  8  7  1  0
  9 17  1  0
 10 15  1  0
 11 12  1  0
 11 10  1  0
 13 12  1  0
 13 22  1  0
 13 14  1  0
 15  9  1  0
 15 14  1  0
 16  9  2  0
 17 18  1  0
 19 20  2  0
 20 39  1  0
 21 20  1  0
 21 24  1  0
 22 19  1  0
 22 23  1  0
 23 21  2  0
 24 25  1  0
 25 26  2  0
 27 30  1  0
 27 26  1  0
 28 27  2  0
 29 28  1  0
 29 24  2  0
 30 31  1  0
 31 32  1  0
 32 33  2  0
 34 33  1  0
 34 38  1  0
 35 34  2  0
 36 31  2  0
 36 35  1  0
 37 36  1  0
 39 40  1  0
 40 43  1  0
 40 42  1  0
 41 39  2  0
 44 45  1  0
 44 19  1  0
 46 44  1  0
 47 48  1  0
 47 51  1  0
 48 50  1  0
 49 47  2  0
 52 51  1  0
 53 64  2  0
 54 52  1  0
 54 59  1  0
 55 63  1  0
 55 65  1  0
 56 62  1  0
 56 58  1  0
 57 63  1  0
 58 57  1  0
 59 58  2  0
 60 61  1  0
 60 54  2  0
 61 56  2  0
 62 55  1  0
 63 53  1  0
 65 67  2  0
 66 65  1  0
 68 66  1  0
 69 78  2  0
 69 74  1  0
 70 66  1  0
 70 74  1  0
 71 70  1  0
 72 73  1  0
 72 71  1  0
 73 69  1  0
 74 75  2  0
 75 76  1  0
 77 76  2  0
 78 77  1  0
 79 53  1  0
 79 84  1  0
 79 80  1  0
 80 83  1  1
 80 81  1  0
 82 80  1  0
 84 87  1  0
 85 89  1  0
 85 84  1  0
 86 85  2  0
 89 88  1  0
 91 89  1  0
 91 92  1  0
 91 90  1  0
M  ISO  4   9 100  17 100  51 101  52 101
M  END
>  <TORSDO>  (25) 
F 19

>  <SCORE>  (25) 
-14.298

>  <name>  (25) 
24

>  <ligand_id>  (25) 
24

>  <original_smiles>  (25) 
[H]c1c([H])c([H])c2c(c1[H])C([H])([H])C([H])([H])C([H])([H])C2([H])N([H])C(=O)C1([H])N(C(=O)C([H])(N([H])C(=O)C([H])(N([H])C([H])([H])[H])C([H])([H])[H])C(C([H])([H])[H])(C([H])([H])[H])C([H])([H])[H])C([H])([H])c2c([H])c(OC([H])([H])C(=O)N([H])C([H])([H])c3c([H])c([H])c(N([H])C(=O)N4C([H])([H])C([H])([H])C([H])([H])C([H])(n5nc(-c6c([H])c([H])c(Oc7c([H])c([H])c(F)c([H])c7F)c([H])c6[H])c(C(=O)N([H])[H])c5N([H])[H])C4([H])[H])c([H])c3F)c([H])c([H])c2C1([H])[H]

>  <smiles>  (25) 
[H]c1c([H])c([H])c2c(c1[H])C([H])([H])C([H])([H])C([H])([H])C2([H])N([H])C(=O)C1([H])N(C(=O)C([H])(N([H])C(=O)C([H])(N([H])C([H])([H])[H])C([H])([H])[H])C(C([H])([H])[H])(C([H])([H])[H])C([H])([H])[H])C([H])([H])c2c([H])c(OC([H])([H])C(=O)N([H])C([H])([H])c3c([H])c([H])c(N([H])C(=O)N4C([H])([H])C([H])([H])C([H])([H])C([H])(n5nc(-c6c([H])c([H])c(Oc7c([H])c([H])c(F)c([H])c7F)c([H])c6[H])c(C(=O)N([H])[H])c5N([H])[H])C4([H])[H])c([H])c3F)c([H])c([H])c2C1([H])[H]

$$$$
25:0:0
     RDKit          3D

 97 98  0  0  1  0  0  0  0  0999 V2000
  -17.9830  -27.6330   24.6470 C   0  0  0  0  0  1  0  0  0  0  0  0
  -18.9940  -25.9720   24.6980 C   0  0  0  0  0  2  0  0  0  0  0  0
  -19.2010  -28.8980   21.8890 C   0  0  0  0  0  1  0  0  0  0  0  0
  -20.3260  -25.6680   23.3360 C   0  0  0  0  0  1  0  0  0  0  0  0
  -20.4190  -27.5330   21.5600 N   0  0  0  0  0  0  0  0  0  0  0  0
  -19.8420  -27.0100   20.9170 H   0  0  0  0  0  0  0  0  0  0  0  0
  -21.4590  -23.7780   23.2760 C   0  0  0  0  0  2  0  0  0  0  0  0
  -22.7440  -22.8940   22.5520 N   0  0  0  0  0  2  0  0  0  0  0  0
  -20.9660  -23.0550   24.1450 O   0  0  0  0  0  1  0  0  0  0  0  0
  -23.0250  -23.5370   21.8240 H   0  0  0  0  0  0  0  0  0  0  0  0
  -25.4350  -21.0060   22.6540 C   0  0  0  0  0  3  0  0  0  0  0  0
  -24.0110  -20.0370   21.5090 C   0  0  0  0  0  3  0  0  0  0  0  0
  -26.5080  -19.8240   22.3330 C   0  0  0  0  0  3  0  0  0  0  0  0
  -25.0790  -18.8530   21.1960 C   0  0  0  0  0  3  0  0  0  0  0  0
  -23.9390  -21.3720   22.3320 C   0  0  0  0  0  3  0  0  0  0  0  0
  -26.5690  -18.4760   21.5270 C   0  0  0  0  0  3  0  0  0  0  0  0
  -29.1080  -15.9270   20.8110 C   0  0  0  0  0  0  0  0  0  0  0  0
  -30.1720  -13.5010   19.7460 C   0  0  0  0  0  2  0  0  0  0  0  0
  -29.5110  -12.8260   18.4800 C   0  0  0  0  0  2  0  0  0  0  0  0
  -28.1160  -12.2760   18.8110 C   0  0  0  0  0  2  0  0  0  0  0  0
  -27.4600  -13.2310   19.8210 C   0  0  0  0  0  3  0  0  0  0  0  0
  -28.2880  -13.4780   21.0710 C   0  0  0  0  0  2  0  0  0  0  0  0
  -29.2010  -14.4490   20.5670 N   0  0  0  0  0  0  0  0  0  0  0  0
  -30.3510  -16.1620   20.5880 O   0  0  0  0  0  0  0  0  0  0  0  0
  -27.7820  -16.9980   21.1120 N   0  0  0  0  0  2  0  0  0  0  0  0
  -28.5660  -17.6300   21.2080 H   0  0  0  0  0  0  0  0  0  0  0  0
  -25.1620  -13.7980   20.5550 C   0  0  0  0  0  0  0  0  0  0  0  0
  -24.1110  -13.0210   20.9210 C   0  0  0  0  0  0  0  0  0  0  0  0
  -24.5800  -11.6720   20.8740 C   0  0  0  0  0  0  0  0  0  0  0  0
  -26.1630  -12.9010   20.2610 N   0  0  0  0  0  0  0  0  0  0  0  0
  -25.8560  -11.6220   20.5400 N   0  0  0  0  0  0  0  0  0  0  0  0
  -23.8690  -10.4140   21.0470 C   0  0  0  0  0  0  0  0  0  0  0  0
  -24.3410   -9.4130   21.9220 C   0  0  0  0  0  3  0  0  0  0  0  0
  -23.6180   -8.2130   22.0760 C   0  0  0  0  0  3  0  0  0  0  0  0
  -22.4170   -8.0140   21.3540 C   0  0  0  0  0  0  0  0  0  0  0  0
  -21.9710   -9.0070   20.4650 C   0  0  0  0  0  3  0  0  0  0  0  0
  -22.6940  -10.1970   20.3070 C   0  0  0  0  0  3  0  0  0  0  0  0
  -21.6570   -6.8750   21.4230 O   0  0  0  0  0  0  0  0  0  0  0  0
  -21.6810   -6.0660   22.5290 C   0  0  0  0  0  0  0  0  0  0  0  0
  -21.3980   -6.5600   23.8220 C   0  0  0  0  0  3  0  0  0  0  0  0
  -21.3650   -5.6770   24.9190 C   0  0  0  0  0  3  0  0  0  0  0  0
  -21.6040   -4.3030   24.7250 C   0  0  0  0  0  0  0  0  0  0  0  0
  -21.8830   -3.8100   23.4380 C   0  0  0  0  0  3  0  0  0  0  0  0
  -21.9180   -4.6900   22.3430 C   0  0  0  0  0  0  0  0  0  0  0  0
  -22.1660   -4.2090   21.1010 F   0  0  0  0  0  0  0  0  0  0  0  0
  -21.5640   -3.4530   25.7770 F   0  0  0  0  0  0  0  0  0  0  0  0
  -22.7280  -13.5090   21.2010 C   0  0  0  0  0  0  0  0  0  0  0  0
  -22.0010  -12.8110   22.0620 N   0  0  0  0  0  0  0  0  0  0  0  0
  -22.3050  -14.5460   20.6900 O   0  0  0  0  0  0  0  0  0  0  0  0
  -22.3630  -11.9720   22.4910 H   0  0  0  0  0  0  0  0  0  0  0  0
  -21.0680  -13.1200   22.2970 H   0  0  0  0  0  0  0  0  0  0  0  0
  -25.3430  -15.1740   20.4300 N   0  0  0  0  0  0  0  0  0  0  0  0
  -24.6020  -15.8230   20.6670 H   0  0  0  0  0  0  0  0  0  0  0  0
  -26.2320  -15.6360   20.2770 H   0  0  0  0  0  0  0  0  0  0  0  0
  -21.7910  -27.7730   20.4550 C   0  0  0  0  0  2  0  0  0  0  0  0
  -23.5050  -26.8980   20.1640 C   0  0  0  0  0  2  0  0  0  0  0  0
  -25.1900  -26.8130   20.7000 O   0  0  0  0  0  0  0  0  0  0  0  0
  -24.6590  -31.9400   23.2400 C   0  0  0  0  0  0  0  0  0  0  0  0
  -26.4310  -27.2760   20.1860 C   0  0  0  0  0  3  0  0  0  0  0  0
  -23.4880  -30.6050   21.5700 C   0  0  0  0  0  3  0  0  0  0  0  0
  -24.9430  -29.3840   19.8090 C   0  0  0  0  0  3  0  0  0  0  0  0
  -26.0270  -30.8320   21.4830 C   0  0  0  0  0  2  0  0  0  0  0  0
  -25.9890  -29.5360   20.7080 C   0  0  0  0  0  3  0  0  0  0  0  0
  -26.8940  -28.4660   20.8240 C   0  0  0  0  0  2  0  0  0  0  0  0
  -26.0740  -27.4320   18.8780 C   0  0  0  0  0  2  0  0  0  0  0  0
  -25.1180  -28.4610   18.7470 C   0  0  0  0  0  2  0  0  0  0  0  0
  -23.7490  -30.2640   20.0430 C   0  0  0  0  0  2  0  0  0  0  0  0
  -24.7340  -31.1930   22.1130 N   0  0  0  0  0  0  0  0  0  0  0  0
  -23.5700  -32.2000   23.7750 O   0  0  0  0  0  0  0  0  0  0  0  0
  -23.1450  -29.4590   22.5720 C   0  0  0  0  0  0  0  0  0  0  0  0
  -21.9190  -29.1860   22.9310 N   0  0  0  0  0  0  0  0  0  0  0  0
  -24.0110  -28.8010   23.1310 O   0  0  0  0  0  0  0  0  0  0  0  0
  -21.1590  -29.7790   22.6350 H   0  0  0  0  0  0  0  0  0  0  0  0
  -18.4210  -26.9830   22.5920 C   0  0  0  0  0  2  0  0  0  0  0  0
  -21.6140  -27.8600   23.5510 C   0  0  0  0  0  3  0  0  0  0  0  0
  -22.2590  -26.3930   22.4330 C   0  0  0  0  0  1  0  0  0  0  0  0
  -20.7980  -25.3510   21.1050 C   0  0  0  0  0 15  0  0  0  0  0  0
  -18.8580  -25.7330   21.4360 C   0  0  0  0  0  1  0  0  0  0  0  0
  -19.9430  -28.0400   23.7610 C   0  0  0  0  0  2  0  0  0  0  0  0
  -19.4430  -29.5240   24.2200 C   0  0  0  0  0  2  0  0  0  0  0  0
  -18.0320  -30.0700   23.8880 C   0  0  0  0  0  3  0  0  0  0  0  0
  -16.9480  -29.3310   23.1010 C   0  0  0  0  0  3  0  0  0  0  0  0
  -17.0620  -27.9020   22.4570 C   0  0  0  0  0  2  0  0  0  0  0  0
  -25.9480  -32.5110   23.8760 C   0  0  0  0  0  3  0  0  0  0  0  0
  -26.4600  -31.6710   25.1080 C   0  0  1  0  0  0  0  0  0  0  0  0
  -25.3690  -31.3830   26.1630 C   0  0  0  0  0  1  0  0  0  0  0  0
  -27.0450  -30.3080   24.6700 C   0  0  0  0  0  1  0  0  0  0  0  0
  -27.6130  -32.4360   25.7950 C   0  0  0  0  0  1  0  0  0  0  0  0
  -25.6350  -33.8880   24.2660 N   0  0  0  0  0  0  0  0  0  0  0  0
  -25.9150  -34.9610   23.5190 C   0  0  0  0  0  0  0  0  0  0  0  0
  -26.5490  -34.8970   22.4630 O   0  0  0  0  0  0  0  0  0  0  0  0
  -25.0710  -34.0100   25.0930 H   0  0  0  0  0  0  0  0  0  0  0  0
  -24.1520  -36.7340   23.2580 C   0  0  0  0  0  1  0  0  0  0  0  0
  -25.4140  -36.3220   24.0320 C   0  0  0  0  0  3  0  0  0  0  0  0
  -27.5620  -37.1850   24.8430 C   0  0  0  0  0  1  0  0  0  0  0  0
  -26.4300  -37.3910   23.9440 N   0  0  0  0  0  0  0  0  0  0  0  0
  -26.0180  -38.2960   24.1570 H   0  0  0  0  0  0  0  0  0  0  0  0
  1  2  1  0
  4  2  1  0
  5  3  1  0
  6  5  1  0
  7  9  1  0
  8  7  1  0
 10  8  1  0
 12 15  1  0
 13 11  1  0
 14 12  2  0
 14 16  1  0
 15 11  2  0
 16 13  2  0
 17 25  1  0
 18 23  1  0
 19 20  1  0
 19 18  1  0
 21 20  1  0
 21 30  1  0
 21 22  1  0
 23 17  1  0
 23 22  1  0
 24 17  2  0
 25 26  1  0
 27 28  2  0
 28 47  1  0
 29 28  1  0
 29 32  1  0
 30 31  1  0
 30 27  1  0
 31 29  2  0
 32 33  1  0
 33 34  2  0
 35 38  1  0
 35 34  1  0
 36 35  2  0
 37 36  1  0
 37 32  2  0
 38 39  1  0
 39 40  1  0
 40 41  2  0
 42 41  1  0
 42 46  1  0
 43 42  2  0
 44 39  2  0
 44 43  1  0
 45 44  1  0
 47 48  1  0
 48 51  1  0
 48 50  1  0
 49 47  2  0
 52 27  1  0
 52 53  1  0
 54 52  1  0
 55  5  1  0
 56 55  1  0
 56 57  1  0
 58 69  2  0
 59 57  1  0
 59 64  1  0
 60 68  1  0
 60 70  1  0
 61 66  1  0
 61 67  1  0
 61 63  1  0
 62 68  1  0
 63 64  1  0
 63 62  1  0
 65 59  1  0
 66 65  1  0
 67 60  1  0
 68 58  1  0
 70 71  1  0
 70 72  2  0
 71 75  1  0
 73 71  1  0
 75 76  1  0
 75 79  1  0
 78 74  1  0
 79 80  1  0
 81 80  1  0
 82 81  2  0
 83 74  1  0
 83 82  1  0
 84 58  1  0
 84 89  1  0
 84 85  1  0
 85 88  1  1
 85 86  1  0
 87 85  1  0
 89 92  1  0
 90 94  1  0
 90 89  1  0
 91 90  2  0
 94 93  1  0
 96 94  1  0
 96 97  1  0
 96 95  1  0
M  ISO  4  17 100  25 100  56 101  57 101
M  END
>  <TORSDO>  (26) 
F 20

>  <SCORE>  (26) 
57.513

>  <name>  (26) 
25

>  <ligand_id>  (26) 
25

>  <original_smiles>  (26) 
[H]c1c([H])c([H])c2c(c1[H])C([H])([H])C([H])([H])C([H])([H])C2([H])N([H])C(=O)C1([H])N(C(=O)C([H])(N([H])C(=O)C([H])(N([H])C([H])([H])[H])C([H])([H])[H])C(C([H])([H])[H])(C([H])([H])[H])C([H])([H])[H])C([H])([H])c2c([H])c(OC([H])([H])C([H])([H])[N+]3([H])C([H])([H])C([H])([H])C([H])([H])C3([H])C(=O)N([H])c3c([H])c([H])c(N([H])C(=O)N4C([H])([H])C([H])([H])C([H])([H])C([H])(n5nc(-c6c([H])c([H])c(Oc7c([H])c([H])c(F)c([H])c7F)c([H])c6[H])c(C(=O)N([H])[H])c5N([H])[H])C4([H])[H])c([H])c3[H])c([H])c([H])c2C1([H])[H]

>  <smiles>  (26) 
[H]c1c([H])c([H])c2c(c1[H])C([H])([H])C([H])([H])C([H])([H])C2([H])N([H])C(=O)C1([H])N(C(=O)C([H])(N([H])C(=O)C([H])(N([H])C([H])([H])[H])C([H])([H])[H])C(C([H])([H])[H])(C([H])([H])[H])C([H])([H])[H])C([H])([H])c2c([H])c(OC([H])([H])C([H])([H])[N+]3([H])C([H])([H])C([H])([H])C([H])([H])C3([H])C(=O)N([H])c3c([H])c([H])c(N([H])C(=O)N4C([H])([H])C([H])([H])C([H])([H])C([H])(n5nc(-c6c([H])c([H])c(Oc7c([H])c([H])c(F)c([H])c7F)c([H])c6[H])c(C(=O)N([H])[H])c5N([H])[H])C4([H])[H])c([H])c3[H])c([H])c([H])c2C1([H])[H]

$$$$
26:0:0
     RDKit          3D

 93101  0  0  1  0  0  0  0  0999 V2000
  -29.0670  -21.0950   19.6930 C   0  0  0  0  0  2  0  0  0  0  0  0
  -29.3430  -18.4340   20.0480 C   0  0  0  0  0  3  0  0  0  0  0  0
  -31.1250  -18.8410   22.1380 C   0  0  0  0  0  3  0  0  0  0  0  0
  -29.6180  -19.8060   20.4550 C   0  0  0  0  0  0  0  0  0  0  0  0
  -29.9620  -17.2640   20.6540 C   0  0  0  0  0  0  0  0  0  0  0  0
  -30.5300  -19.9630   21.5210 C   0  0  0  0  0  0  0  0  0  0  0  0
  -30.8540  -17.5210   21.7210 C   0  0  0  0  0  0  0  0  0  0  0  0
  -30.8640  -21.2010   21.9540 F   0  0  0  0  0  0  0  0  0  0  0  0
  -31.4280  -16.4960   22.3970 F   0  0  0  0  0  0  0  0  0  0  0  0
  -30.4420  -14.7480   20.1110 C   0  0  0  0  0  0  0  0  0  0  0  0
  -30.1960  -12.5240   18.9940 C   0  0  0  0  0  2  0  0  0  0  0  0
  -29.1820  -12.6420   17.8340 C   0  0  0  0  0  2  0  0  0  0  0  0
  -27.7410  -12.4420   18.3450 C   0  0  0  0  0  2  0  0  0  0  0  0
  -27.4360  -13.2770   19.6180 C   0  0  0  0  0  3  0  0  0  0  0  0
  -28.5610  -13.1410   20.6680 C   0  0  0  0  0  2  0  0  0  0  0  0
  -29.8150  -13.5280   20.0110 N   0  0  0  0  0  0  0  0  0  0  0  0
  -31.6170  -14.8690   19.7550 O   0  0  0  0  0  0  0  0  0  0  0  0
  -29.6360  -15.8600   20.3120 N   0  0  0  0  0  0  0  0  0  0  0  0
  -28.6510  -15.6500   20.3000 H   0  0  0  0  0  0  0  0  0  0  0  0
  -25.0830  -13.8270   20.4800 C   0  0  0  0  0  0  0  0  0  0  0  0
  -24.0470  -13.0320   20.8880 C   0  0  0  0  0  0  0  0  0  0  0  0
  -24.5230  -11.6880   20.8090 C   0  0  0  0  0  0  0  0  0  0  0  0
  -26.1230  -12.9640   20.1730 N   0  0  0  0  0  0  0  0  0  0  0  0
  -25.7970  -11.6720   20.4350 N   0  0  0  0  0  0  0  0  0  0  0  0
  -23.8220  -10.4130   21.0100 C   0  0  0  0  0  0  0  0  0  0  0  0
  -24.2960   -9.4460   21.9240 C   0  0  0  0  0  3  0  0  0  0  0  0
  -23.5940   -8.2360   22.1130 C   0  0  0  0  0  3  0  0  0  0  0  0
  -22.4040   -7.9850   21.3900 C   0  0  0  0  0  0  0  0  0  0  0  0
  -21.9490   -8.9420   20.4650 C   0  0  0  0  0  3  0  0  0  0  0  0
  -22.6510  -10.1430   20.2740 C   0  0  0  0  0  3  0  0  0  0  0  0
  -21.6700   -6.8280   21.4910 O   0  0  0  0  0  0  0  0  0  0  0  0
  -21.6590   -6.0800   22.6410 C   0  0  0  0  0  0  0  0  0  0  0  0
  -21.2360   -6.6200   23.8760 C   0  0  0  0  0  3  0  0  0  0  0  0
  -21.1750   -5.7970   25.0190 C   0  0  0  0  0  3  0  0  0  0  0  0
  -21.5270   -4.4360   24.9280 C   0  0  0  0  0  0  0  0  0  0  0  0
  -21.9430   -3.8970   23.6980 C   0  0  0  0  0  3  0  0  0  0  0  0
  -22.0060   -4.7170   22.5580 C   0  0  0  0  0  0  0  0  0  0  0  0
  -22.3880   -4.1880   21.3710 F   0  0  0  0  0  0  0  0  0  0  0  0
  -21.4600   -3.6450   26.0240 F   0  0  0  0  0  0  0  0  0  0  0  0
  -22.6590  -13.4860   21.2380 C   0  0  0  0  0  0  0  0  0  0  0  0
  -21.9810  -12.7630   22.1210 N   0  0  0  0  0  0  0  0  0  0  0  0
  -22.1850  -14.5180   20.7620 O   0  0  0  0  0  0  0  0  0  0  0  0
  -22.3770  -11.9270   22.5270 H   0  0  0  0  0  0  0  0  0  0  0  0
  -21.0520  -13.0490   22.3990 H   0  0  0  0  0  0  0  0  0  0  0  0
  -25.2180  -15.2030   20.3200 N   0  0  0  0  0  0  0  0  0  0  0  0
  -24.4460  -15.8390   20.4860 H   0  0  0  0  0  0  0  0  0  0  0  0
  -26.0280  -15.6620   19.9250 H   0  0  0  0  0  0  0  0  0  0  0  0
  -28.9500  -23.7140   19.9970 C   0  0  0  0  0  0  0  0  0  0  0  0
  -28.6640  -22.4080   20.3690 N   0  0  0  0  0  0  0  0  0  0  0  0
  -29.8970  -23.9320   19.2300 O   0  0  0  0  0  0  0  0  0  0  0  0
  -27.9170  -22.3170   21.0450 H   0  0  0  0  0  0  0  0  0  0  0  0
  -28.0370  -24.9480   20.4900 C   0  0  0  0  0  2  0  0  0  0  0  0
  -28.3160  -26.4130   20.2720 O   0  0  0  0  0  0  0  0  0  0  0  0
  -24.5780  -31.8980   23.2430 C   0  0  0  0  0  0  0  0  0  0  0  0
  -27.2120  -27.2960   20.2360 C   0  0  0  0  0  0  0  0  0  0  0  0
  -23.3920  -30.4980   21.5940 C   0  0  0  0  0  3  0  0  0  0  0  0
  -24.8570  -28.9370   20.1910 C   0  0  0  0  0  0  0  0  0  0  0  0
  -25.9370  -30.8060   21.4390 C   0  0  0  0  0  2  0  0  0  0  0  0
  -26.0250  -29.4210   20.7970 C   0  0  0  0  0  0  0  0  0  0  0  0
  -27.2080  -28.6160   20.8020 C   0  0  0  0  0  3  0  0  0  0  0  0
  -26.0180  -26.8730   19.6130 C   0  0  0  0  0  3  0  0  0  0  0  0
  -24.8580  -27.6720   19.5870 C   0  0  0  0  0  3  0  0  0  0  0  0
  -23.6240  -29.8190   20.2200 C   0  0  0  0  0  2  0  0  0  0  0  0
  -24.6540  -31.0860   22.1490 N   0  0  0  0  0  0  0  0  0  0  0  0
  -23.4880  -32.1790   23.7650 O   0  0  0  0  0  0  0  0  0  0  0  0
  -22.7150  -29.4850   22.5490 C   0  0  0  0  0  0  0  0  0  0  0  0
  -21.3890  -29.3110   22.4090 N   0  0  0  0  0  0  0  0  0  0  0  0
  -23.3820  -28.8600   23.3780 O   0  0  0  0  0  0  0  0  0  0  0  0
  -20.9100  -29.8680   21.7150 H   0  0  0  0  0  0  0  0  0  0  0  0
  -18.0010  -28.1360   22.8890 C   0  0  0  0  0  0  0  0  0  0  0  0
  -20.5590  -28.3780   23.1730 C   0  0  0  0  0  3  0  0  0  0  0  0
  -20.6540  -26.9470   22.5950 C   0  0  0  0  0  2  0  0  0  0  0  0
  -19.5560  -26.6350   21.5750 C   0  0  0  0  0  2  0  0  0  0  0  0
  -18.1720  -26.7880   22.2110 C   0  0  0  0  0  2  0  0  0  0  0  0
  -19.1220  -28.8900   23.3270 C   0  0  0  0  0  0  0  0  0  0  0  0
  -18.9080  -30.1530   23.9220 C   0  0  0  0  0  3  0  0  0  0  0  0
  -17.6050  -30.6610   24.0830 C   0  0  0  0  0  3  0  0  0  0  0  0
  -16.4980  -29.9050   23.6610 C   0  0  0  0  0  3  0  0  0  0  0  0
  -16.6980  -28.6440   23.0700 C   0  0  0  0  0  3  0  0  0  0  0  0
  -25.8520  -32.5320   23.8810 C   0  0  0  0  0  3  0  0  0  0  0  0
  -26.3420  -31.7740   25.1740 C   0  0  1  0  0  0  0  0  0  0  0  0
  -25.2300  -31.5530   26.2260 C   0  0  0  0  0  1  0  0  0  0  0  0
  -26.9260  -30.3880   24.8080 C   0  0  0  0  0  1  0  0  0  0  0  0
  -27.4860  -32.5690   25.8470 C   0  0  0  0  0  1  0  0  0  0  0  0
  -25.5440  -33.9350   24.1920 N   0  0  0  0  0  0  0  0  0  0  0  0
  -25.8930  -34.9800   23.4310 C   0  0  0  0  0  0  0  0  0  0  0  0
  -26.5780  -34.8640   22.4100 O   0  0  0  0  0  0  0  0  0  0  0  0
  -24.9380  -34.1000   24.9840 H   0  0  0  0  0  0  0  0  0  0  0  0
  -24.1850  -36.7830   23.0280 C   0  0  0  0  0  1  0  0  0  0  0  0
  -25.4060  -36.3760   23.8680 C   0  0  0  0  0  3  0  0  0  0  0  0
  -27.5280  -37.2540   24.7400 C   0  0  0  0  0  1  0  0  0  0  0  0
  -26.4480  -37.4210   23.7700 N   0  0  0  0  0  0  0  0  0  0  0  0
  -26.0460  -38.3450   23.8990 H   0  0  0  0  0  0  0  0  0  0  0  0
  1 49  1  0
  1  4  1  0
  2  4  2  0
  2  5  1  0
  4  6  1  0
  5  7  2  0
  6  8  1  0
  6  3  2  0
  7  3  1  0
  7  9  1  0
 10 18  1  0
 11 16  1  0
 12 13  1  0
 12 11  1  0
 14 13  1  0
 14 23  1  0
 14 15  1  0
 16 10  1  0
 16 15  1  0
 17 10  2  0
 18  5  1  0
 19 18  1  0
 20 21  2  0
 21 40  1  0
 22 21  1  0
 22 25  1  0
 23 24  1  0
 23 20  1  0
 24 22  2  0
 25 26  1  0
 26 27  2  0
 28 31  1  0
 28 27  1  0
 29 28  2  0
 30 29  1  0
 30 25  2  0
 31 32  1  0
 32 33  1  0
 33 34  2  0
 35 34  1  0
 35 39  1  0
 36 35  2  0
 37 32  2  0
 37 36  1  0
 38 37  1  0
 40 41  1  0
 41 44  1  0
 41 43  1  0
 42 40  2  0
 45 20  1  0
 45 46  1  0
 47 45  1  0
 48 49  1  0
 48 52  1  0
 49 51  1  0
 50 48  2  0
 53 52  1  0
 54 65  2  0
 55 53  1  0
 55 60  1  0
 56 64  1  0
 56 66  1  0
 57 63  1  0
 57 59  1  0
 58 64  1  0
 59 60  2  0
 59 58  1  0
 61 55  2  0
 62 61  1  0
 62 57  2  0
 63 56  1  0
 64 54  1  0
 66 68  2  0
 67 66  1  0
 69 67  1  0
 70 79  2  0
 70 75  1  0
 71 67  1  0
 71 75  1  0
 72 71  1  0
 73 74  1  0
 73 72  1  0
 74 70  1  0
 75 76  2  0
 76 77  1  0
 78 77  2  0
 79 78  1  0
 80 54  1  0
 80 85  1  0
 80 81  1  0
 81 84  1  1
 81 82  1  0
 83 81  1  0
 85 88  1  0
 86 90  1  0
 86 85  1  0
 87 86  2  0
 90 89  1  0
 92 90  1  0
 92 93  1  0
 92 91  1  0
M  ISO  4  10 100  18 100  52 101  53 101
M  END
>  <TORSDO>  (27) 
F 19

>  <SCORE>  (27) 
-14.317

>  <name>  (27) 
26

>  <ligand_id>  (27) 
26

>  <original_smiles>  (27) 
[H]c1c([H])c([H])c2c(c1[H])C([H])([H])C([H])([H])C([H])([H])C2([H])N([H])C(=O)C1([H])N(C(=O)C([H])(N([H])C(=O)C([H])(N([H])C([H])([H])[H])C([H])([H])[H])C(C([H])([H])[H])(C([H])([H])[H])C([H])([H])[H])C([H])([H])c2c([H])c(OC([H])([H])C(=O)N([H])C([H])([H])c3c([H])c(N([H])C(=O)N4C([H])([H])C([H])([H])C([H])([H])C([H])(n5nc(-c6c([H])c([H])c(Oc7c([H])c([H])c(F)c([H])c7F)c([H])c6[H])c(C(=O)N([H])[H])c5N([H])[H])C4([H])[H])c(F)c([H])c3F)c([H])c([H])c2C1([H])[H]

>  <smiles>  (27) 
[H]c1c([H])c([H])c2c(c1[H])C([H])([H])C([H])([H])C([H])([H])C2([H])N([H])C(=O)C1([H])N(C(=O)C([H])(N([H])C(=O)C([H])(N([H])C([H])([H])[H])C([H])([H])[H])C(C([H])([H])[H])(C([H])([H])[H])C([H])([H])[H])C([H])([H])c2c([H])c(OC([H])([H])C(=O)N([H])C([H])([H])c3c([H])c(N([H])C(=O)N4C([H])([H])C([H])([H])C([H])([H])C([H])(n5nc(-c6c([H])c([H])c(Oc7c([H])c([H])c(F)c([H])c7F)c([H])c6[H])c(C(=O)N([H])[H])c5N([H])[H])C4([H])[H])c(F)c([H])c3F)c([H])c([H])c2C1([H])[H]

$$$$
27:0:0
     RDKit          3D

 90 98  0  0  1  0  0  0  0  0999 V2000
  -29.2040  -19.0520   20.4850 C   0  0  0  0  0  3  0  0  0  0  0  0
  -31.3840  -18.2110   19.8560 C   0  0  0  0  0  3  0  0  0  0  0  0
  -30.8920  -20.6550   19.8210 C   0  0  0  0  0  3  0  0  0  0  0  0
  -30.0830  -17.8450   20.2810 C   0  0  0  0  0  0  0  0  0  0  0  0
  -29.5670  -20.5010   20.2750 C   0  0  0  0  0  0  0  0  0  0  0  0
  -31.7610  -19.5560   19.6200 C   0  0  0  0  0  0  0  0  0  0  0  0
  -33.0140  -19.8030   19.1660 F   0  0  0  0  0  0  0  0  0  0  0  0
  -30.4840  -15.0870   20.2480 C   0  0  0  0  0  0  0  0  0  0  0  0
  -30.3280  -12.7320   19.2900 C   0  0  0  0  0  2  0  0  0  0  0  0
  -29.3820  -12.6930   18.0680 C   0  0  0  0  0  2  0  0  0  0  0  0
  -27.9300  -12.4590   18.5240 C   0  0  0  0  0  2  0  0  0  0  0  0
  -27.5320  -13.3640   19.7230 C   0  0  0  0  0  3  0  0  0  0  0  0
  -28.6120  -13.4010   20.8280 C   0  0  0  0  0  2  0  0  0  0  0  0
  -29.8650  -13.8310   20.1950 N   0  0  0  0  0  0  0  0  0  0  0  0
  -31.6830  -15.0950   19.9530 O   0  0  0  0  0  0  0  0  0  0  0  0
  -29.7540  -16.3200   20.4420 N   0  0  0  0  0  0  0  0  0  0  0  0
  -28.7830  -16.1470   20.6630 H   0  0  0  0  0  0  0  0  0  0  0  0
  -25.1650  -13.9080   20.5260 C   0  0  0  0  0  0  0  0  0  0  0  0
  -24.1170  -13.1240   20.9150 C   0  0  0  0  0  0  0  0  0  0  0  0
  -24.5860  -11.7760   20.8500 C   0  0  0  0  0  0  0  0  0  0  0  0
  -26.2100  -13.0410   20.2500 N   0  0  0  0  0  0  0  0  0  0  0  0
  -25.8710  -11.7520   20.5100 N   0  0  0  0  0  0  0  0  0  0  0  0
  -23.8630  -10.5120   21.0330 C   0  0  0  0  0  0  0  0  0  0  0  0
  -24.2970   -9.5400   21.9610 C   0  0  0  0  0  3  0  0  0  0  0  0
  -23.5730   -8.3400   22.1370 C   0  0  0  0  0  3  0  0  0  0  0  0
  -22.3990   -8.1010   21.3840 C   0  0  0  0  0  0  0  0  0  0  0  0
  -21.9800   -9.0640   20.4480 C   0  0  0  0  0  3  0  0  0  0  0  0
  -22.7050  -10.2550   20.2710 C   0  0  0  0  0  3  0  0  0  0  0  0
  -21.6430   -6.9550   21.4690 O   0  0  0  0  0  0  0  0  0  0  0  0
  -21.5800   -6.2200   22.6250 C   0  0  0  0  0  0  0  0  0  0  0  0
  -21.1110   -6.7740   23.8360 C   0  0  0  0  0  3  0  0  0  0  0  0
  -20.9930   -5.9630   24.9820 C   0  0  0  0  0  3  0  0  0  0  0  0
  -21.3390   -4.6000   24.9200 C   0  0  0  0  0  0  0  0  0  0  0  0
  -21.8040   -4.0460   23.7150 C   0  0  0  0  0  3  0  0  0  0  0  0
  -21.9210   -4.8520   22.5690 C   0  0  0  0  0  0  0  0  0  0  0  0
  -22.3480   -4.3090   21.4050 F   0  0  0  0  0  0  0  0  0  0  0  0
  -21.2230   -3.8180   26.0210 F   0  0  0  0  0  0  0  0  0  0  0  0
  -22.7280  -13.5930   21.2260 C   0  0  0  0  0  0  0  0  0  0  0  0
  -22.0150  -12.8900   22.0930 N   0  0  0  0  0  0  0  0  0  0  0  0
  -22.2810  -14.6260   20.7280 O   0  0  0  0  0  0  0  0  0  0  0  0
  -22.3890  -12.0560   22.5190 H   0  0  0  0  0  0  0  0  0  0  0  0
  -21.0810  -13.1930   22.3300 H   0  0  0  0  0  0  0  0  0  0  0  0
  -25.3110  -15.2810   20.3680 N   0  0  0  0  0  0  0  0  0  0  0  0
  -24.5300  -15.9180   20.4900 H   0  0  0  0  0  0  0  0  0  0  0  0
  -26.1450  -15.7440   20.0280 H   0  0  0  0  0  0  0  0  0  0  0  0
  -28.7460  -21.7490   20.4660 N   0  0  0  0  0  0  0  0  0  0  0  0
  -27.7920  -21.5960   20.7870 H   0  0  0  0  0  0  0  0  0  0  0  0
  -29.1050  -23.2850   20.2700 C   0  0  0  0  0  3  0  0  0  0  0  0
  -28.0080  -24.5980   20.4050 C   0  0  0  0  0  3  0  0  0  0  0  0
  -28.2650  -26.1580   20.3200 O   0  0  0  0  0  0  0  0  0  0  0  0
  -24.6100  -31.9240   23.2500 C   0  0  0  0  0  0  0  0  0  0  0  0
  -27.2040  -27.1550   20.2670 C   0  0  0  0  0  0  0  0  0  0  0  0
  -23.4180  -30.5190   21.6110 C   0  0  0  0  0  3  0  0  0  0  0  0
  -24.8730  -28.9180   20.2180 C   0  0  0  0  0  0  0  0  0  0  0  0
  -25.9760  -30.7730   21.4600 C   0  0  0  0  0  2  0  0  0  0  0  0
  -26.0520  -29.3660   20.8260 C   0  0  0  0  0  0  0  0  0  0  0  0
  -27.2150  -28.5000   20.8340 C   0  0  0  0  0  3  0  0  0  0  0  0
  -25.9970  -26.8240   19.6150 C   0  0  0  0  0  3  0  0  0  0  0  0
  -24.8540  -27.6550   19.6080 C   0  0  0  0  0  3  0  0  0  0  0  0
  -23.6520  -29.8250   20.2430 C   0  0  0  0  0  2  0  0  0  0  0  0
  -24.6890  -31.0960   22.1640 N   0  0  0  0  0  0  0  0  0  0  0  0
  -23.5180  -32.2120   23.7680 O   0  0  0  0  0  0  0  0  0  0  0  0
  -22.7240  -29.5270   22.5750 C   0  0  0  0  0  0  0  0  0  0  0  0
  -21.3960  -29.3640   22.4400 N   0  0  0  0  0  0  0  0  0  0  0  0
  -23.3860  -28.9050   23.4110 O   0  0  0  0  0  0  0  0  0  0  0  0
  -20.9150  -29.9200   21.7470 H   0  0  0  0  0  0  0  0  0  0  0  0
  -18.0050  -28.1860   22.9440 C   0  0  0  0  0  0  0  0  0  0  0  0
  -20.5660  -28.4350   23.2130 C   0  0  0  0  0  3  0  0  0  0  0  0
  -20.6590  -26.9990   22.6440 C   0  0  0  0  0  2  0  0  0  0  0  0
  -19.5580  -26.6780   21.6290 C   0  0  0  0  0  2  0  0  0  0  0  0
  -18.1770  -26.8340   22.2710 C   0  0  0  0  0  2  0  0  0  0  0  0
  -19.1270  -28.9430   23.3740 C   0  0  0  0  0  0  0  0  0  0  0  0
  -18.9120  -30.2050   23.9680 C   0  0  0  0  0  3  0  0  0  0  0  0
  -17.6090  -30.7110   24.1360 C   0  0  0  0  0  3  0  0  0  0  0  0
  -16.5010  -29.9510   23.7200 C   0  0  0  0  0  3  0  0  0  0  0  0
  -16.7010  -28.6900   23.1280 C   0  0  0  0  0  3  0  0  0  0  0  0
  -25.8830  -32.5620   23.8880 C   0  0  0  0  0  3  0  0  0  0  0  0
  -26.3790  -31.8010   25.1790 C   0  0  1  0  0  0  0  0  0  0  0  0
  -25.2690  -31.5800   26.2340 C   0  0  0  0  0  1  0  0  0  0  0  0
  -26.9600  -30.4170   24.8110 C   0  0  0  0  0  1  0  0  0  0  0  0
  -27.5280  -32.5920   25.8460 C   0  0  0  0  0  1  0  0  0  0  0  0
  -25.5710  -33.9640   24.2060 N   0  0  0  0  0  0  0  0  0  0  0  0
  -25.9030  -35.0140   23.4450 C   0  0  0  0  0  0  0  0  0  0  0  0
  -26.5680  -34.9040   22.4130 O   0  0  0  0  0  0  0  0  0  0  0  0
  -24.9790  -34.1260   25.0080 H   0  0  0  0  0  0  0  0  0  0  0  0
  -24.1770  -36.8130   23.0970 C   0  0  0  0  0  1  0  0  0  0  0  0
  -25.4240  -36.4070   23.8990 C   0  0  0  0  0  3  0  0  0  0  0  0
  -27.5670  -37.2950   24.7090 C   0  0  0  0  0  1  0  0  0  0  0  0
  -26.4580  -37.4570   23.7720 N   0  0  0  0  0  0  0  0  0  0  0  0
  -26.0550  -38.3780   23.9160 H   0  0  0  0  0  0  0  0  0  0  0  0
  2  4  2  0
  3  5  1  0
  4 16  1  0
  4  1  1  0
  5 46  1  0
  5  1  2  0
  6  3  2  0
  6  2  1  0
  7  6  1  0
  8 16  1  0
  9 14  1  0
 10 11  1  0
 10  9  1  0
 12 11  1  0
 12 21  1  0
 12 13  1  0
 14  8  1  0
 14 13  1  0
 15  8  2  0
 16 17  1  0
 18 19  2  0
 19 38  1  0
 20 19  1  0
 20 23  1  0
 21 22  1  0
 21 18  1  0
 22 20  2  0
 23 24  1  0
 24 25  2  0
 26 29  1  0
 26 25  1  0
 27 26  2  0
 28 27  1  0
 28 23  2  0
 29 30  1  0
 30 31  1  0
 31 32  2  0
 33 32  1  0
 33 37  1  0
 34 33  2  0
 35 30  2  0
 35 34  1  0
 36 35  1  0
 38 39  1  0
 39 42  1  0
 39 41  1  0
 40 38  2  0
 43 44  1  0
 43 18  1  0
 45 43  1  0
 46 47  1  0
 48 49  2  0
 48 46  1  0
 50 49  1  0
 51 62  2  0
 52 50  1  0
 52 57  1  0
 53 61  1  0
 53 63  1  0
 54 60  1  0
 54 56  1  0
 55 61  1  0
 56 57  2  0
 56 55  1  0
 58 52  2  0
 59 58  1  0
 59 54  2  0
 60 53  1  0
 61 51  1  0
 63 65  2  0
 64 63  1  0
 66 64  1  0
 67 76  2  0
 67 72  1  0
 68 64  1  0
 68 72  1  0
 69 68  1  0
 70 71  1  0
 70 69  1  0
 71 67  1  0
 72 73  2  0
 73 74  1  0
 75 74  2  0
 76 75  1  0
 77 51  1  0
 77 82  1  0
 77 78  1  0
 78 81  1  1
 78 79  1  0
 80 78  1  0
 82 85  1  0
 83 87  1  0
 83 82  1  0
 84 83  2  0
 87 86  1  0
 89 87  1  0
 89 90  1  0
 89 88  1  0
M  ISO  4   8 100  16 100  49 101  50 101
M  END
>  <TORSDO>  (28) 
F 19

>  <SCORE>  (28) 
-14.995

>  <name>  (28) 
27

>  <ligand_id>  (28) 
27

>  <original_smiles>  (28) 
[H]c1c([H])c([H])c2c(c1[H])C([H])([H])C([H])([H])C([H])([H])C2([H])N([H])C(=O)C1([H])N(C(=O)C([H])(N([H])C(=O)C([H])(N([H])C([H])([H])[H])C([H])([H])[H])C(C([H])([H])[H])(C([H])([H])[H])C([H])([H])[H])C([H])([H])c2c([H])c(OC([H])([H])C([H])([H])N([H])c3c([H])c(F)c([H])c(N([H])C(=O)N4C([H])([H])C([H])([H])C([H])([H])C([H])(n5nc(-c6c([H])c([H])c(Oc7c([H])c([H])c(F)c([H])c7F)c([H])c6[H])c(C(=O)N([H])[H])c5N([H])[H])C4([H])[H])c3[H])c([H])c([H])c2C1([H])[H]

>  <smiles>  (28) 
[H]c1c([H])c([H])c2c(c1[H])C([H])([H])C([H])([H])C([H])([H])C2([H])N([H])C(=O)C1([H])N(C(=O)C([H])(N([H])C(=O)C([H])(N([H])C([H])([H])[H])C([H])([H])[H])C(C([H])([H])[H])(C([H])([H])[H])C([H])([H])[H])C([H])([H])c2c([H])c(OC([H])([H])C([H])([H])N([H])c3c([H])c(F)c([H])c(N([H])C(=O)N4C([H])([H])C([H])([H])C([H])([H])C([H])(n5nc(-c6c([H])c([H])c(Oc7c([H])c([H])c(F)c([H])c7F)c([H])c6[H])c(C(=O)N([H])[H])c5N([H])[H])C4([H])[H])c3[H])c([H])c([H])c2C1([H])[H]

$$$$
28:0:0
     RDKit          3D

 92100  0  0  1  0  0  0  0  0999 V2000
  -31.1090  -18.0190   19.7870 C   0  0  0  0  0  3  0  0  0  0  0  0
  -28.9210  -18.0880   20.7580 C   0  0  0  0  0  3  0  0  0  0  0  0
  -30.0090  -20.2490   20.1570 C   0  0  0  0  0  0  0  0  0  0  0  0
  -30.0210  -17.2870   20.3350 C   0  0  0  0  0  0  0  0  0  0  0  0
  -31.1040  -19.4500   19.7000 C   0  0  0  0  0  0  0  0  0  0  0  0
  -28.9130  -19.5170   20.6850 C   0  0  0  0  0  0  0  0  0  0  0  0
  -32.2040  -20.0610   19.1950 F   0  0  0  0  0  0  0  0  0  0  0  0
  -27.8360  -20.1810   21.1750 F   0  0  0  0  0  0  0  0  0  0  0  0
  -30.7090  -14.7630   20.0490 C   0  0  0  0  0  0  0  0  0  0  0  0
  -30.4540  -12.4950   19.0450 C   0  0  0  0  0  2  0  0  0  0  0  0
  -29.4690  -12.5980   17.8600 C   0  0  0  0  0  2  0  0  0  0  0  0
  -28.0090  -12.4650   18.3410 C   0  0  0  0  0  2  0  0  0  0  0  0
  -27.7030  -13.3570   19.5730 C   0  0  0  0  0  3  0  0  0  0  0  0
  -28.7970  -13.2130   20.6540 C   0  0  0  0  0  2  0  0  0  0  0  0
  -30.0890  -13.5370   20.0270 N   0  0  0  0  0  0  0  0  0  0  0  0
  -31.8470  -14.9070   19.5950 O   0  0  0  0  0  0  0  0  0  0  0  0
  -29.9330  -15.8200   20.4670 N   0  0  0  0  0  0  0  0  0  0  0  0
  -29.0740  -15.4980   20.8870 H   0  0  0  0  0  0  0  0  0  0  0  0
  -25.3800  -14.0170   20.4560 C   0  0  0  0  0  0  0  0  0  0  0  0
  -24.2970  -13.2700   20.8310 C   0  0  0  0  0  0  0  0  0  0  0  0
  -24.6890  -11.9040   20.6860 C   0  0  0  0  0  0  0  0  0  0  0  0
  -26.3670  -13.1070   20.1070 N   0  0  0  0  0  0  0  0  0  0  0  0
  -25.9580  -11.8270   20.3060 N   0  0  0  0  0  0  0  0  0  0  0  0
  -23.9110  -10.6670   20.8330 C   0  0  0  0  0  0  0  0  0  0  0  0
  -24.3630   -9.6020   21.6440 C   0  0  0  0  0  3  0  0  0  0  0  0
  -23.5890   -8.4300   21.7840 C   0  0  0  0  0  3  0  0  0  0  0  0
  -22.3480   -8.3150   21.1140 C   0  0  0  0  0  0  0  0  0  0  0  0
  -21.9130   -9.3690   20.2900 C   0  0  0  0  0  3  0  0  0  0  0  0
  -22.6880  -10.5310   20.1470 C   0  0  0  0  0  3  0  0  0  0  0  0
  -21.5420   -7.2040   21.1700 O   0  0  0  0  0  0  0  0  0  0  0  0
  -21.5910   -6.3310   22.2270 C   0  0  0  0  0  0  0  0  0  0  0  0
  -21.3450   -6.7520   23.5520 C   0  0  0  0  0  3  0  0  0  0  0  0
  -21.3360   -5.8100   24.6000 C   0  0  0  0  0  3  0  0  0  0  0  0
  -21.5640   -4.4480   24.3260 C   0  0  0  0  0  0  0  0  0  0  0  0
  -21.8050   -4.0260   23.0060 C   0  0  0  0  0  3  0  0  0  0  0  0
  -21.8140   -4.9660   21.9590 C   0  0  0  0  0  0  0  0  0  0  0  0
  -22.0260   -4.5510   20.6870 F   0  0  0  0  0  0  0  0  0  0  0  0
  -21.5490   -3.5420   25.3300 F   0  0  0  0  0  0  0  0  0  0  0  0
  -22.9400  -13.7920   21.2070 C   0  0  0  0  0  0  0  0  0  0  0  0
  -22.2240  -13.0770   22.0680 N   0  0  0  0  0  0  0  0  0  0  0  0
  -22.5260  -14.8680   20.7760 O   0  0  0  0  0  0  0  0  0  0  0  0
  -22.5730  -12.2050   22.4400 H   0  0  0  0  0  0  0  0  0  0  0  0
  -21.3150  -13.4060   22.3610 H   0  0  0  0  0  0  0  0  0  0  0  0
  -25.6050  -15.3870   20.3600 N   0  0  0  0  0  0  0  0  0  0  0  0
  -24.8750  -16.0650   20.5520 H   0  0  0  0  0  0  0  0  0  0  0  0
  -26.4450  -15.8070   19.9850 H   0  0  0  0  0  0  0  0  0  0  0  0
  -30.1150  -21.7940   20.2570 C   0  0  0  0  0  0  0  0  0  0  0  0
  -31.1400  -22.2030   20.8120 O   0  0  0  0  0  0  0  0  0  0  0  0
  -29.2220  -23.9620   19.8760 C   0  0  0  0  0  3  0  0  0  0  0  0
  -29.1190  -22.6600   19.7140 N   0  0  0  0  0  0  0  0  0  0  0  0
  -28.1800  -25.0380   19.3720 C   0  0  0  0  0  2  0  0  0  0  0  0
  -28.3800  -26.4910   19.6650 O   0  0  0  0  0  0  0  0  0  0  0  0
  -24.5310  -31.6340   22.9960 C   0  0  0  0  0  0  0  0  0  0  0  0
  -27.2420  -27.3250   19.6610 C   0  0  0  0  0  0  0  0  0  0  0  0
  -23.3460  -30.2800   21.3080 C   0  0  0  0  0  3  0  0  0  0  0  0
  -24.8220  -28.8630   19.7750 C   0  0  0  0  0  0  0  0  0  0  0  0
  -25.8710  -30.6960   21.0990 C   0  0  0  0  0  2  0  0  0  0  0  0
  -25.9860  -29.3560   20.3780 C   0  0  0  0  0  0  0  0  0  0  0  0
  -27.1970  -28.5990   20.3150 C   0  0  0  0  0  3  0  0  0  0  0  0
  -26.0500  -26.9010   19.0230 C   0  0  0  0  0  3  0  0  0  0  0  0
  -24.8580  -27.6420   19.0890 C   0  0  0  0  0  3  0  0  0  0  0  0
  -23.5570  -29.6880   19.8900 C   0  0  0  0  0  2  0  0  0  0  0  0
  -24.6020  -30.8850   21.8580 N   0  0  0  0  0  0  0  0  0  0  0  0
  -23.4480  -31.8440   23.5640 O   0  0  0  0  0  0  0  0  0  0  0  0
  -22.7380  -29.1900   22.2240 C   0  0  0  0  0  0  0  0  0  0  0  0
  -21.4140  -28.9830   22.1230 N   0  0  0  0  0  0  0  0  0  0  0  0
  -23.4560  -28.5380   22.9860 O   0  0  0  0  0  0  0  0  0  0  0  0
  -20.8910  -29.5650   21.4830 H   0  0  0  0  0  0  0  0  0  0  0  0
  -18.0820  -27.6800   22.6590 C   0  0  0  0  0  0  0  0  0  0  0  0
  -20.6420  -27.9820   22.8610 C   0  0  0  0  0  3  0  0  0  0  0  0
  -20.7550  -26.5910   22.1940 C   0  0  0  0  0  2  0  0  0  0  0  0
  -19.6250  -26.3040   21.2000 C   0  0  0  0  0  2  0  0  0  0  0  0
  -18.2650  -26.3780   21.8970 C   0  0  0  0  0  2  0  0  0  0  0  0
  -19.1980  -28.4400   23.0980 C   0  0  0  0  0  0  0  0  0  0  0  0
  -18.9740  -29.6590   23.7750 C   0  0  0  0  0  3  0  0  0  0  0  0
  -17.6650  -30.1180   24.0140 C   0  0  0  0  0  3  0  0  0  0  0  0
  -16.5640  -29.3550   23.5910 C   0  0  0  0  0  3  0  0  0  0  0  0
  -16.7730  -28.1360   22.9190 C   0  0  0  0  0  3  0  0  0  0  0  0
  -25.8020  -32.2810   23.6280 C   0  0  0  0  0  3  0  0  0  0  0  0
  -26.3530  -31.4790   24.8700 C   0  0  1  0  0  0  0  0  0  0  0  0
  -25.2810  -31.1800   25.9440 C   0  0  0  0  0  1  0  0  0  0  0  0
  -26.9620  -30.1290   24.4250 C   0  0  0  0  0  1  0  0  0  0  0  0
  -27.4950  -32.2770   25.5430 C   0  0  0  0  0  1  0  0  0  0  0  0
  -25.4540  -33.6560   24.0140 N   0  0  0  0  0  0  0  0  0  0  0  0
  -25.7600  -34.7480   23.2990 C   0  0  0  0  0  0  0  0  0  0  0  0
  -26.4340  -34.7040   22.2660 O   0  0  0  0  0  0  0  0  0  0  0  0
  -24.8530  -33.7620   24.8180 H   0  0  0  0  0  0  0  0  0  0  0  0
  -23.9870  -36.5090   23.0160 C   0  0  0  0  0  1  0  0  0  0  0  0
  -25.2370  -36.1040   23.8120 C   0  0  0  0  0  3  0  0  0  0  0  0
  -27.3440  -37.0120   24.6860 C   0  0  0  0  0  1  0  0  0  0  0  0
  -26.2430  -37.1860   23.7430 N   0  0  0  0  0  0  0  0  0  0  0  0
  -25.8120  -38.0900   23.9220 H   0  0  0  0  0  0  0  0  0  0  0  0
  1  4  1  0
  3 47  1  0
  3  6  2  0
  4 17  1  0
  4  2  2  0
  5  1  2  0
  5  3  1  0
  6  2  1  0
  6  8  1  0
  7  5  1  0
  9 17  1  0
 10 15  1  0
 11 12  1  0
 11 10  1  0
 13 12  1  0
 13 22  1  0
 13 14  1  0
 15  9  1  0
 15 14  1  0
 16  9  2  0
 17 18  1  0
 19 20  2  0
 20 39  1  0
 21 20  1  0
 21 24  1  0
 22 23  1  0
 22 19  1  0
 23 21  2  0
 24 25  1  0
 25 26  2  0
 27 30  1  0
 27 26  1  0
 28 27  2  0
 29 28  1  0
 29 24  2  0
 30 31  1  0
 31 32  1  0
 32 33  2  0
 34 33  1  0
 34 38  1  0
 35 34  2  0
 36 31  2  0
 36 35  1  0
 37 36  1  0
 39 40  1  0
 40 43  1  0
 40 42  1  0
 41 39  2  0
 44 19  1  0
 44 45  1  0
 46 44  1  0
 47 48  2  0
 50 49  2  0
 50 47  1  0
 51 52  1  0
 51 49  1  0
 53 64  2  0
 54 52  1  0
 54 59  1  0
 55 63  1  0
 55 65  1  0
 56 62  1  0
 56 58  1  0
 57 63  1  0
 58 57  1  0
 59 58  2  0
 60 61  1  0
 60 54  2  0
 61 56  2  0
 62 55  1  0
 63 53  1  0
 65 67  2  0
 66 65  1  0
 68 66  1  0
 69 78  2  0
 69 74  1  0
 70 66  1  0
 70 74  1  0
 71 70  1  0
 72 73  1  0
 72 71  1  0
 73 69  1  0
 74 75  2  0
 75 76  1  0
 77 76  2  0
 78 77  1  0
 79 53  1  0
 79 84  1  0
 79 80  1  0
 80 83  1  1
 80 81  1  0
 82 80  1  0
 84 87  1  0
 85 89  1  0
 85 84  1  0
 86 85  2  0
 89 88  1  0
 91 89  1  0
 91 92  1  0
 91 90  1  0
M  ISO  4   9 100  17 100  51 101  52 101
M  END
>  <TORSDO>  (29) 
F 19

>  <SCORE>  (29) 
-13.313

>  <name>  (29) 
28

>  <ligand_id>  (29) 
28

>  <original_smiles>  (29) 
[H]C(=NC(=O)c1c(F)c([H])c(N([H])C(=O)N2C([H])([H])C([H])([H])C([H])([H])C([H])(n3nc(-c4c([H])c([H])c(Oc5c([H])c([H])c(F)c([H])c5F)c([H])c4[H])c(C(=O)N([H])[H])c3N([H])[H])C2([H])[H])c([H])c1F)C([H])([H])Oc1c([H])c([H])c2c(c1[H])C([H])([H])N(C(=O)C([H])(N([H])C(=O)C([H])(N([H])C([H])([H])[H])C([H])([H])[H])C(C([H])([H])[H])(C([H])([H])[H])C([H])([H])[H])C([H])(C(=O)N([H])C1([H])c3c([H])c([H])c([H])c([H])c3C([H])([H])C([H])([H])C1([H])[H])C2([H])[H]

>  <smiles>  (29) 
[H]C(=NC(=O)c1c(F)c([H])c(N([H])C(=O)N2C([H])([H])C([H])([H])C([H])([H])C([H])(n3nc(-c4c([H])c([H])c(Oc5c([H])c([H])c(F)c([H])c5F)c([H])c4[H])c(C(=O)N([H])[H])c3N([H])[H])C2([H])[H])c([H])c1F)C([H])([H])Oc1c([H])c([H])c2c(c1[H])C([H])([H])N(C(=O)C([H])(N([H])C(=O)C([H])(N([H])C([H])([H])[H])C([H])([H])[H])C(C([H])([H])[H])(C([H])([H])[H])C([H])([H])[H])C([H])(C(=O)N([H])C1([H])c3c([H])c([H])c([H])c([H])c3C([H])([H])C([H])([H])C1([H])[H])C2([H])[H]

$$$$
29:0:0
     RDKit          3D

 96104  0  0  1  0  0  0  0  0999 V2000
  -28.2130  -20.4910   20.1530 C   0  0  0  0  0  2  0  0  0  0  0  0
  -31.4230  -17.6710   21.2340 C   0  0  0  0  0  3  0  0  0  0  0  0
  -29.3280  -19.5100   20.5930 C   0  0  0  0  0  0  0  0  0  0  0  0
  -30.2530  -17.1940   20.6030 C   0  0  0  0  0  0  0  0  0  0  0  0
  -31.5340  -19.0390   21.5620 C   0  0  0  0  0  0  0  0  0  0  0  0
  -29.2080  -18.1180   20.3080 C   0  0  0  0  0  0  0  0  0  0  0  0
  -30.5070  -19.9540   21.2420 C   0  0  0  0  0  0  0  0  0  0  0  0
  -32.6450  -19.4850   22.1980 F   0  0  0  0  0  0  0  0  0  0  0  0
  -28.0660  -17.6550   19.7350 F   0  0  0  0  0  0  0  0  0  0  0  0
  -30.6610  -21.2630   21.5680 F   0  0  0  0  0  0  0  0  0  0  0  0
  -30.8810  -14.7940   19.9940 C   0  0  0  0  0  0  0  0  0  0  0  0
  -30.6220  -12.5690   18.9200 C   0  0  0  0  0  2  0  0  0  0  0  0
  -29.6000  -12.6890   17.7660 C   0  0  0  0  0  2  0  0  0  0  0  0
  -28.1530  -12.5470   18.2900 C   0  0  0  0  0  2  0  0  0  0  0  0
  -27.8810  -13.4450   19.5240 C   0  0  0  0  0  3  0  0  0  0  0  0
  -28.9910  -13.2580   20.5810 C   0  0  0  0  0  2  0  0  0  0  0  0
  -30.2710  -13.5790   19.9340 N   0  0  0  0  0  0  0  0  0  0  0  0
  -32.0160  -14.9920   19.5430 O   0  0  0  0  0  0  0  0  0  0  0  0
  -30.0430  -15.7920   20.3820 N   0  0  0  0  0  0  0  0  0  0  0  0
  -29.0870  -15.4990   20.4990 H   0  0  0  0  0  0  0  0  0  0  0  0
  -25.5670  -14.1240   20.4190 C   0  0  0  0  0  0  0  0  0  0  0  0
  -24.4950  -13.3780   20.8360 C   0  0  0  0  0  0  0  0  0  0  0  0
  -24.9010  -12.0130   20.7300 C   0  0  0  0  0  0  0  0  0  0  0  0
  -26.5550  -13.2090   20.0870 N   0  0  0  0  0  0  0  0  0  0  0  0
  -26.1640  -11.9340   20.3340 N   0  0  0  0  0  0  0  0  0  0  0  0
  -24.1430  -10.7710   20.9320 C   0  0  0  0  0  0  0  0  0  0  0  0
  -24.5700   -9.7870   21.8510 C   0  0  0  0  0  3  0  0  0  0  0  0
  -23.8160   -8.6080   22.0360 C   0  0  0  0  0  3  0  0  0  0  0  0
  -22.6220   -8.4080   21.3050 C   0  0  0  0  0  0  0  0  0  0  0  0
  -22.2160   -9.3790   20.3750 C   0  0  0  0  0  3  0  0  0  0  0  0
  -22.9700  -10.5490   20.1860 C   0  0  0  0  0  3  0  0  0  0  0  0
  -21.8400   -7.2830   21.4030 O   0  0  0  0  0  0  0  0  0  0  0  0
  -21.7550   -6.5620   22.5670 C   0  0  0  0  0  0  0  0  0  0  0  0
  -21.2870   -7.1400   23.7670 C   0  0  0  0  0  3  0  0  0  0  0  0
  -21.1510   -6.3460   24.9250 C   0  0  0  0  0  3  0  0  0  0  0  0
  -21.4740   -4.9770   24.8820 C   0  0  0  0  0  0  0  0  0  0  0  0
  -21.9350   -4.3990   23.6850 C   0  0  0  0  0  3  0  0  0  0  0  0
  -22.0730   -5.1890   22.5310 C   0  0  0  0  0  0  0  0  0  0  0  0
  -22.4980   -4.6250   21.3760 F   0  0  0  0  0  0  0  0  0  0  0  0
  -21.3360   -4.2120   25.9880 F   0  0  0  0  0  0  0  0  0  0  0  0
  -23.1400  -13.8970   21.2140 C   0  0  0  0  0  0  0  0  0  0  0  0
  -22.4520  -13.2050   22.1160 N   0  0  0  0  0  0  0  0  0  0  0  0
  -22.7030  -14.9480   20.7500 O   0  0  0  0  0  0  0  0  0  0  0  0
  -22.8190  -12.3540   22.5160 H   0  0  0  0  0  0  0  0  0  0  0  0
  -21.5420  -13.5320   22.4100 H   0  0  0  0  0  0  0  0  0  0  0  0
  -25.7740  -15.4950   20.2700 N   0  0  0  0  0  0  0  0  0  0  0  0
  -25.0260  -16.1630   20.4210 H   0  0  0  0  0  0  0  0  0  0  0  0
  -26.6090  -15.9190   19.8810 H   0  0  0  0  0  0  0  0  0  0  0  0
  -27.1480  -22.0690   21.7400 C   0  0  0  0  0  1  0  0  0  0  0  0
  -28.2260  -21.8810   20.7320 N   0  0  2  0  0  4  0  0  0  0  0  0
  -29.1050  -21.9440   21.2330 H   0  0  0  0  0  0  0  0  0  0  0  0
  -28.2630  -22.9670   19.6870 C   0  0  0  0  0  2  0  0  0  0  0  0
  -28.1410  -24.4480   20.1980 C   0  0  0  0  0  3  0  0  0  0  0  0
  -26.8890  -24.6350   20.6290 F   0  0  0  0  0  0  0  0  0  0  0  0
  -28.4650  -25.5290   19.1190 C   0  0  0  0  0  2  0  0  0  0  0  0
  -28.4170  -26.9060   19.5710 O   0  0  0  0  0  0  0  0  0  0  0  0
  -24.6130  -31.8140   23.0610 C   0  0  0  0  0  0  0  0  0  0  0  0
  -27.2180  -27.5960   19.6270 C   0  0  0  0  0  0  0  0  0  0  0  0
  -23.3740  -30.4880   21.3850 C   0  0  0  0  0  3  0  0  0  0  0  0
  -24.8030  -29.0700   19.8170 C   0  0  0  0  0  0  0  0  0  0  0  0
  -25.8920  -30.9030   21.1240 C   0  0  0  0  0  2  0  0  0  0  0  0
  -25.9730  -29.5780   20.3900 C   0  0  0  0  0  0  0  0  0  0  0  0
  -27.1790  -28.8470   20.2920 C   0  0  0  0  0  3  0  0  0  0  0  0
  -26.0230  -27.1080   19.0520 C   0  0  0  0  0  3  0  0  0  0  0  0
  -24.8230  -27.8350   19.1470 C   0  0  0  0  0  3  0  0  0  0  0  0
  -23.5460  -29.8950   19.9600 C   0  0  0  0  0  2  0  0  0  0  0  0
  -24.6450  -31.0860   21.9100 N   0  0  0  0  0  0  0  0  0  0  0  0
  -23.5480  -32.0280   23.6580 O   0  0  0  0  0  0  0  0  0  0  0  0
  -22.7820  -29.3940   22.3040 C   0  0  0  0  0  0  0  0  0  0  0  0
  -21.4590  -29.1910   22.2150 N   0  0  0  0  0  0  0  0  0  0  0  0
  -23.5110  -28.7380   23.0510 O   0  0  0  0  0  0  0  0  0  0  0  0
  -20.9450  -29.7660   21.5630 H   0  0  0  0  0  0  0  0  0  0  0  0
  -18.1250  -27.9140   22.7780 C   0  0  0  0  0  0  0  0  0  0  0  0
  -20.6890  -28.1910   22.9540 C   0  0  0  0  0  3  0  0  0  0  0  0
  -20.7860  -26.8050   22.2710 C   0  0  0  0  0  2  0  0  0  0  0  0
  -19.6460  -26.5420   21.2860 C   0  0  0  0  0  2  0  0  0  0  0  0
  -18.2920  -26.6230   21.9940 C   0  0  0  0  0  2  0  0  0  0  0  0
  -19.2540  -28.6590   23.2120 C   0  0  0  0  0  0  0  0  0  0  0  0
  -19.0440  -29.8740   23.8980 C   0  0  0  0  0  3  0  0  0  0  0  0
  -17.7410  -30.3430   24.1590 C   0  0  0  0  0  3  0  0  0  0  0  0
  -16.6300  -29.5930   23.7430 C   0  0  0  0  0  3  0  0  0  0  0  0
  -16.8240  -28.3820   23.0540 C   0  0  0  0  0  3  0  0  0  0  0  0
  -25.9070  -32.4330   23.6750 C   0  0  0  0  0  3  0  0  0  0  0  0
  -25.5900  -33.8100   24.0790 N   0  0  0  0  0  0  0  0  0  0  0  0
  -25.8810  -34.9030   23.3580 C   0  0  0  0  0  0  0  0  0  0  0  0
  -26.5170  -34.8600   22.3010 O   0  0  0  0  0  0  0  0  0  0  0  0
  -25.0190  -33.9160   24.9050 H   0  0  0  0  0  0  0  0  0  0  0  0
  -24.1120  -36.6780   23.1380 C   0  0  0  0  0  1  0  0  0  0  0  0
  -25.3850  -36.2610   23.8930 C   0  0  0  0  0  3  0  0  0  0  0  0
  -27.5280  -37.1430   24.7050 C   0  0  0  0  0  1  0  0  0  0  0  0
  -26.4000  -37.3340   23.7970 N   0  0  0  0  0  0  0  0  0  0  0  0
  -25.9860  -38.2420   23.9910 H   0  0  0  0  0  0  0  0  0  0  0  0
  -26.4760  -31.6140   24.8970 C   0  0  1  0  0  0  0  0  0  0  0  0
  -25.4230  -31.3090   25.9860 C   0  0  0  0  0  1  0  0  0  0  0  0
  -27.0620  -30.2650   24.4220 C   0  0  0  0  0  1  0  0  0  0  0  0
  -27.6400  -32.3930   25.5510 C   0  0  0  0  0  1  0  0  0  0  0  0
  1  3  1  0
  1 50  1  0
  2  5  1  0
  3  7  1  0
  4  2  2  0
  5  8  1  0
  6  3  2  0
  6  4  1  0
  7  5  2  0
  7 10  1  0
  9  6  1  0
 11 19  1  0
 12 17  1  0
 13 14  1  0
 13 12  1  0
 15 14  1  0
 15 24  1  0
 15 16  1  0
 17 11  1  0
 17 16  1  0
 18 11  2  0
 19 20  1  0
 19  4  1  0
 21 22  2  0
 22 41  1  0
 23 22  1  0
 23 26  1  0
 24 25  1  0
 24 21  1  0
 25 23  2  0
 26 27  1  0
 27 28  2  0
 29 32  1  0
 29 28  1  0
 30 29  2  0
 31 30  1  0
 31 26  2  0
 32 33  1  0
 33 34  1  0
 34 35  2  0
 36 35  1  0
 36 40  1  0
 37 36  2  0
 38 33  2  0
 38 37  1  0
 39 38  1  0
 41 42  1  0
 42 45  1  0
 42 44  1  0
 43 41  2  0
 46 21  1  0
 46 47  1  0
 48 46  1  0
 50 51  1  1
 50 49  1  0
 52 53  1  0
 52 50  1  0
 53 54  1  0
 55 56  1  0
 55 53  1  0
 56 58  1  0
 57 68  2  0
 58 63  1  0
 59 67  1  0
 59 69  1  0
 60 66  1  0
 60 62  1  0
 61 67  1  0
 62 61  1  0
 63 62  2  0
 64 65  1  0
 64 58  2  0
 65 60  2  0
 66 59  1  0
 67 57  1  0
 69 71  2  0
 70 69  1  0
 72 70  1  0
 73 82  2  0
 73 78  1  0
 74 70  1  0
 74 78  1  0
 75 74  1  0
 76 77  1  0
 76 75  1  0
 77 73  1  0
 78 79  2  0
 79 80  1  0
 81 80  2  0
 82 81  1  0
 83 57  1  0
 83 84  1  0
 83 93  1  0
 84 87  1  0
 85 89  1  0
 85 84  1  0
 86 85  2  0
 89 88  1  0
 91 89  1  0
 91 92  1  0
 91 90  1  0
 93 96  1  1
 93 94  1  0
 95 93  1  0
M  ISO  4  11 100  19 100  55 101  56 101
M  END
>  <TORSDO>  (30) 
F 21

>  <SCORE>  (30) 
-12.777

>  <name>  (30) 
29

>  <ligand_id>  (30) 
29

>  <original_smiles>  (30) 
[H]c1c([H])c([H])c2c(c1[H])C([H])([H])C([H])([H])C([H])([H])C2([H])N([H])C(=O)C1([H])N(C(=O)C([H])(N([H])C(=O)C([H])(N([H])C([H])([H])[H])C([H])([H])[H])C(C([H])([H])[H])(C([H])([H])[H])C([H])([H])[H])C([H])([H])c2c([H])c(OC([H])([H])C([H])(F)C([H])([H])[N+]([H])(C([H])([H])[H])C([H])([H])c3c(F)c(F)c([H])c(N([H])C(=O)N4C([H])([H])C([H])([H])C([H])([H])C([H])(n5nc(-c6c([H])c([H])c(Oc7c([H])c([H])c(F)c([H])c7F)c([H])c6[H])c(C(=O)N([H])[H])c5N([H])[H])C4([H])[H])c3F)c([H])c([H])c2C1([H])[H]

>  <smiles>  (30) 
[H]c1c([H])c([H])c2c(c1[H])C([H])([H])C([H])([H])C([H])([H])C2([H])N([H])C(=O)C1([H])N(C(=O)C([H])(N([H])C(=O)C([H])(N([H])C([H])([H])[H])C([H])([H])[H])C(C([H])([H])[H])(C([H])([H])[H])C([H])([H])[H])C([H])([H])c2c([H])c(OC([H])([H])C([H])(F)C([H])([H])[N+]([H])(C([H])([H])[H])C([H])([H])c3c(F)c(F)c([H])c(N([H])C(=O)N4C([H])([H])C([H])([H])C([H])([H])C([H])(n5nc(-c6c([H])c([H])c(Oc7c([H])c([H])c(F)c([H])c7F)c([H])c6[H])c(C(=O)N([H])[H])c5N([H])[H])C4([H])[H])c3F)c([H])c([H])c2C1([H])[H]

$$$$
30:0:0
     RDKit          3D

 92100  0  0  1  0  0  0  0  0999 V2000
  -28.8420  -22.4870   20.2950 C   0  0  0  0  0  0  0  0  0  0  0  0
  -29.8270  -21.5380   20.2380 N   0  0  0  0  0  0  0  0  0  0  0  0
  -27.6480  -22.1760   20.3090 O   0  0  0  0  0  0  0  0  0  0  0  0
  -30.7590  -21.9100   20.1150 H   0  0  0  0  0  0  0  0  0  0  0  0
  -28.7710  -17.8840   20.8620 C   0  0  0  0  0  3  0  0  0  0  0  0
  -28.7030  -19.3060   20.7850 C   0  0  0  0  0  3  0  0  0  0  0  0
  -30.9980  -17.9180   19.9510 C   0  0  0  0  0  3  0  0  0  0  0  0
  -29.9130  -17.1460   20.4490 C   0  0  0  0  0  0  0  0  0  0  0  0
  -29.7860  -20.0750   20.2900 C   0  0  0  0  0  0  0  0  0  0  0  0
  -30.9350  -19.3430   19.8820 C   0  0  0  0  0  0  0  0  0  0  0  0
  -32.0070  -20.0270   19.4140 F   0  0  0  0  0  0  0  0  0  0  0  0
  -30.6520  -14.6790   20.0620 C   0  0  0  0  0  0  0  0  0  0  0  0
  -30.3890  -12.4810   18.9320 C   0  0  0  0  0  2  0  0  0  0  0  0
  -29.3680  -12.6530   17.7830 C   0  0  0  0  0  2  0  0  0  0  0  0
  -27.9250  -12.4760   18.2950 C   0  0  0  0  0  2  0  0  0  0  0  0
  -27.6440  -13.2940   19.5840 C   0  0  0  0  0  3  0  0  0  0  0  0
  -28.7680  -13.0870   20.6250 C   0  0  0  0  0  2  0  0  0  0  0  0
  -30.0430  -13.4540   19.9870 N   0  0  0  0  0  0  0  0  0  0  0  0
  -31.7750  -14.8710   19.5830 O   0  0  0  0  0  0  0  0  0  0  0  0
  -29.8740  -15.6870   20.5620 N   0  0  0  0  0  0  0  0  0  0  0  0
  -29.0280  -15.3310   20.9780 H   0  0  0  0  0  0  0  0  0  0  0  0
  -25.2960  -13.8690   20.4620 C   0  0  0  0  0  0  0  0  0  0  0  0
  -24.2530  -13.0820   20.8710 C   0  0  0  0  0  0  0  0  0  0  0  0
  -24.7120  -11.7330   20.7690 C   0  0  0  0  0  0  0  0  0  0  0  0
  -26.3240  -12.9980   20.1360 N   0  0  0  0  0  0  0  0  0  0  0  0
  -25.9810  -11.7070   20.3800 N   0  0  0  0  0  0  0  0  0  0  0  0
  -23.9990  -10.4650   20.9620 C   0  0  0  0  0  0  0  0  0  0  0  0
  -24.4480   -9.4990   21.8890 C   0  0  0  0  0  3  0  0  0  0  0  0
  -23.7350   -8.2940   22.0690 C   0  0  0  0  0  3  0  0  0  0  0  0
  -22.5580   -8.0470   21.3220 C   0  0  0  0  0  0  0  0  0  0  0  0
  -22.1280   -9.0020   20.3850 C   0  0  0  0  0  3  0  0  0  0  0  0
  -22.8420  -10.1990   20.2020 C   0  0  0  0  0  3  0  0  0  0  0  0
  -21.8150   -6.8950   21.4130 O   0  0  0  0  0  0  0  0  0  0  0  0
  -21.7260   -6.1870   22.5850 C   0  0  0  0  0  0  0  0  0  0  0  0
  -21.2300   -6.7680   23.7720 C   0  0  0  0  0  3  0  0  0  0  0  0
  -21.0900   -5.9850   24.9350 C   0  0  0  0  0  3  0  0  0  0  0  0
  -21.4350   -4.6200   24.9110 C   0  0  0  0  0  0  0  0  0  0  0  0
  -21.9240   -4.0380   23.7290 C   0  0  0  0  0  3  0  0  0  0  0  0
  -22.0660   -4.8190   22.5690 C   0  0  0  0  0  0  0  0  0  0  0  0
  -22.5170   -4.2470   21.4250 F   0  0  0  0  0  0  0  0  0  0  0  0
  -21.2940   -3.8640   26.0250 F   0  0  0  0  0  0  0  0  0  0  0  0
  -22.8750  -13.5490   21.2420 C   0  0  0  0  0  0  0  0  0  0  0  0
  -22.2010  -12.8260   22.1300 N   0  0  0  0  0  0  0  0  0  0  0  0
  -22.4060  -14.5870   20.7810 O   0  0  0  0  0  0  0  0  0  0  0  0
  -22.5950  -11.9840   22.5260 H   0  0  0  0  0  0  0  0  0  0  0  0
  -21.2790  -13.1190   22.4200 H   0  0  0  0  0  0  0  0  0  0  0  0
  -25.4500  -15.2450   20.3170 N   0  0  0  0  0  0  0  0  0  0  0  0
  -24.6820  -15.8880   20.4840 H   0  0  0  0  0  0  0  0  0  0  0  0
  -26.2590  -15.6930   19.9090 H   0  0  0  0  0  0  0  0  0  0  0  0
  -29.2320  -24.0180   20.3340 C   0  0  0  0  0  3  0  0  0  0  0  0
  -28.0970  -25.0740   19.9900 C   0  0  0  0  0  3  0  0  0  0  0  0
  -28.3300  -26.5220   20.1980 O   0  0  0  0  0  0  0  0  0  0  0  0
  -24.6020  -31.8870   23.2610 C   0  0  0  0  0  0  0  0  0  0  0  0
  -27.2080  -27.3660   20.1540 C   0  0  0  0  0  0  0  0  0  0  0  0
  -23.3940  -30.5040   21.6120 C   0  0  0  0  0  3  0  0  0  0  0  0
  -24.8410  -28.9710   20.1680 C   0  0  0  0  0  0  0  0  0  0  0  0
  -25.9340  -30.8280   21.4240 C   0  0  0  0  0  2  0  0  0  0  0  0
  -26.0120  -29.4570   20.7650 C   0  0  0  0  0  0  0  0  0  0  0  0
  -27.2000  -28.6660   20.7480 C   0  0  0  0  0  3  0  0  0  0  0  0
  -26.0110  -26.9380   19.5330 C   0  0  0  0  0  3  0  0  0  0  0  0
  -24.8420  -27.7170   19.5440 C   0  0  0  0  0  3  0  0  0  0  0  0
  -23.6050  -29.8430   20.2260 C   0  0  0  0  0  2  0  0  0  0  0  0
  -24.6620  -31.0890   22.1550 N   0  0  0  0  0  0  0  0  0  0  0  0
  -23.5190  -32.1600   23.8000 O   0  0  0  0  0  0  0  0  0  0  0  0
  -22.7360  -29.4750   22.5640 C   0  0  0  0  0  0  0  0  0  0  0  0
  -21.4120  -29.2940   22.4350 N   0  0  0  0  0  0  0  0  0  0  0  0
  -23.4170  -28.8450   23.3770 O   0  0  0  0  0  0  0  0  0  0  0  0
  -20.9220  -29.8530   21.7520 H   0  0  0  0  0  0  0  0  0  0  0  0
  -18.0360  -28.0930   22.9300 C   0  0  0  0  0  0  0  0  0  0  0  0
  -20.5940  -28.3510   23.2010 C   0  0  0  0  0  3  0  0  0  0  0  0
  -20.6960  -26.9230   22.6150 C   0  0  0  0  0  2  0  0  0  0  0  0
  -19.5930  -26.6080   21.5990 C   0  0  0  0  0  2  0  0  0  0  0  0
  -18.2110  -26.7480   22.2450 C   0  0  0  0  0  2  0  0  0  0  0  0
  -19.1540  -28.8520   23.3650 C   0  0  0  0  0  0  0  0  0  0  0  0
  -18.9350  -30.1120   23.9640 C   0  0  0  0  0  3  0  0  0  0  0  0
  -17.6300  -30.6110   24.1350 C   0  0  0  0  0  3  0  0  0  0  0  0
  -16.5260  -29.8490   23.7160 C   0  0  0  0  0  3  0  0  0  0  0  0
  -16.7300  -28.5920   23.1190 C   0  0  0  0  0  3  0  0  0  0  0  0
  -25.8860  -32.5140   23.8840 C   0  0  0  0  0  3  0  0  0  0  0  0
  -26.4000  -31.7380   25.1580 C   0  0  1  0  0  0  0  0  0  0  0  0
  -25.3050  -31.4990   26.2240 C   0  0  0  0  0  1  0  0  0  0  0  0
  -26.9810  -30.3610   24.7630 C   0  0  0  0  0  1  0  0  0  0  0  0
  -27.5520  -32.5270   25.8240 C   0  0  0  0  0  1  0  0  0  0  0  0
  -25.5800  -33.9120   24.2180 N   0  0  0  0  0  0  0  0  0  0  0  0
  -25.8910  -34.9640   23.4490 C   0  0  0  0  0  0  0  0  0  0  0  0
  -26.5370  -34.8600   22.4030 O   0  0  0  0  0  0  0  0  0  0  0  0
  -25.0020  -34.0670   25.0310 H   0  0  0  0  0  0  0  0  0  0  0  0
  -24.1360  -36.7410   23.1460 C   0  0  0  0  0  1  0  0  0  0  0  0
  -25.4100  -36.3530   23.9140 C   0  0  0  0  0  3  0  0  0  0  0  0
  -27.5640  -37.2630   24.6620 C   0  0  0  0  0  1  0  0  0  0  0  0
  -26.4290  -37.4130   23.7550 N   0  0  0  0  0  0  0  0  0  0  0  0
  -26.0200  -38.3320   23.9070 H   0  0  0  0  0  0  0  0  0  0  0  0
  1  3  2  0
  1 50  1  0
  2  9  1  0
  2  1  1  0
  4  2  1  0
  6  5  1  0
  7  8  1  0
  8 20  1  0
  8  5  2  0
  9  6  2  0
 10  7  2  0
 10  9  1  0
 11 10  1  0
 12 20  1  0
 13 18  1  0
 14 15  1  0
 14 13  1  0
 16 15  1  0
 16 25  1  0
 16 17  1  0
 18 12  1  0
 18 17  1  0
 19 12  2  0
 20 21  1  0
 22 23  2  0
 23 42  1  0
 24 23  1  0
 24 27  1  0
 25 26  1  0
 25 22  1  0
 26 24  2  0
 27 28  1  0
 28 29  2  0
 30 33  1  0
 30 29  1  0
 31 30  2  0
 32 31  1  0
 32 27  2  0
 33 34  1  0
 34 35  1  0
 35 36  2  0
 37 36  1  0
 37 41  1  0
 38 37  2  0
 39 34  2  0
 39 38  1  0
 40 39  1  0
 42 43  1  0
 43 46  1  0
 43 45  1  0
 44 42  2  0
 47 22  1  0
 47 48  1  0
 49 47  1  0
 51 52  1  0
 51 50  2  0
 53 64  2  0
 54 52  1  0
 54 59  1  0
 55 63  1  0
 55 65  1  0
 56 62  1  0
 56 58  1  0
 57 63  1  0
 58 57  1  0
 59 58  2  0
 60 61  1  0
 60 54  2  0
 61 56  2  0
 62 55  1  0
 63 53  1  0
 65 67  2  0
 66 65  1  0
 68 66  1  0
 69 78  2  0
 69 74  1  0
 70 66  1  0
 70 74  1  0
 71 70  1  0
 72 73  1  0
 72 71  1  0
 73 69  1  0
 74 75  2  0
 75 76  1  0
 77 76  2  0
 78 77  1  0
 79 53  1  0
 79 84  1  0
 79 80  1  0
 80 83  1  1
 80 81  1  0
 82 80  1  0
 84 87  1  0
 85 89  1  0
 85 84  1  0
 86 85  2  0
 89 88  1  0
 91 92  1  0
 91 89  1  0
 91 90  1  0
M  ISO  4  12 100  20 100  51 101  52 101
M  END
>  <TORSDO>  (31) 
F 19

>  <SCORE>  (31) 
-13.959

>  <name>  (31) 
30

>  <ligand_id>  (31) 
30

>  <original_smiles>  (31) 
[H]c1c([H])c([H])c2c(c1[H])C([H])([H])C([H])([H])C([H])([H])C2([H])N([H])C(=O)C1([H])N(C(=O)C([H])(N([H])C(=O)C([H])(N([H])C([H])([H])[H])C([H])([H])[H])C(C([H])([H])[H])(C([H])([H])[H])C([H])([H])[H])C([H])([H])c2c([H])c(OC([H])([H])C([H])([H])C(=O)N([H])c3c([H])c([H])c(N([H])C(=O)N4C([H])([H])C([H])([H])C([H])([H])C([H])(n5nc(-c6c([H])c([H])c(Oc7c([H])c([H])c(F)c([H])c7F)c([H])c6[H])c(C(=O)N([H])[H])c5N([H])[H])C4([H])[H])c([H])c3F)c([H])c([H])c2C1([H])[H]

>  <smiles>  (31) 
[H]c1c([H])c([H])c2c(c1[H])C([H])([H])C([H])([H])C([H])([H])C2([H])N([H])C(=O)C1([H])N(C(=O)C([H])(N([H])C(=O)C([H])(N([H])C([H])([H])[H])C([H])([H])[H])C(C([H])([H])[H])(C([H])([H])[H])C([H])([H])[H])C([H])([H])c2c([H])c(OC([H])([H])C([H])([H])C(=O)N([H])c3c([H])c([H])c(N([H])C(=O)N4C([H])([H])C([H])([H])C([H])([H])C([H])(n5nc(-c6c([H])c([H])c(Oc7c([H])c([H])c(F)c([H])c7F)c([H])c6[H])c(C(=O)N([H])[H])c5N([H])[H])C4([H])[H])c([H])c3F)c([H])c([H])c2C1([H])[H]

$$$$
31:0:0
     RDKit          3D

 87 95  0  0  1  0  0  0  0  0999 V2000
  -29.1040  -22.8530   20.0920 C   0  0  0  0  0  0  0  0  0  0  0  0
  -30.5100  -19.1660   19.2280 C   0  0  0  0  0  2  0  0  0  0  0  0
  -30.4870  -20.7500   19.4570 C   0  0  0  0  0  2  0  0  0  0  0  0
  -28.7230  -19.8400   20.5390 C   0  0  0  0  0  2  0  0  0  0  0  0
  -29.8010  -18.4450   20.3850 C   0  0  0  0  0  3  0  0  0  0  0  0
  -29.2450  -21.3250   20.0860 N   0  0  0  0  0  0  0  0  0  0  0  0
  -30.1610  -23.4080   19.7720 O   0  0  0  0  0  0  0  0  0  0  0  0
  -30.3640  -15.4600   20.1990 C   0  0  0  0  0  0  0  0  0  0  0  0
  -30.3750  -12.9930   19.3190 C   0  0  0  0  0  2  0  0  0  0  0  0
  -29.4330  -12.7230   18.1170 C   0  0  0  0  0  2  0  0  0  0  0  0
  -28.0050  -12.4140   18.5970 C   0  0  0  0  0  2  0  0  0  0  0  0
  -27.5560  -13.3810   19.7200 C   0  0  0  0  0  3  0  0  0  0  0  0
  -28.6260  -13.5830   20.8140 C   0  0  0  0  0  2  0  0  0  0  0  0
  -29.8150  -14.1360   20.1400 N   0  0  0  0  0  0  0  0  0  0  0  0
  -31.5870  -15.4490   19.9880 O   0  0  0  0  0  0  0  0  0  0  0  0
  -29.5910  -16.7510   20.2960 N   0  0  0  0  0  0  0  0  0  0  0  0
  -28.6100  -16.5240   20.3790 H   0  0  0  0  0  0  0  0  0  0  0  0
  -25.2090  -13.9050   20.5560 C   0  0  0  0  0  0  0  0  0  0  0  0
  -24.1620  -13.1150   20.9380 C   0  0  0  0  0  0  0  0  0  0  0  0
  -24.6360  -11.7680   20.8680 C   0  0  0  0  0  0  0  0  0  0  0  0
  -26.2490  -13.0420   20.2650 N   0  0  0  0  0  0  0  0  0  0  0  0
  -25.9190  -11.7490   20.5210 N   0  0  0  0  0  0  0  0  0  0  0  0
  -23.9190  -10.4990   21.0510 C   0  0  0  0  0  0  0  0  0  0  0  0
  -24.3610   -9.5260   21.9730 C   0  0  0  0  0  3  0  0  0  0  0  0
  -23.6410   -8.3240   22.1480 C   0  0  0  0  0  3  0  0  0  0  0  0
  -22.4650   -8.0860   21.3970 C   0  0  0  0  0  0  0  0  0  0  0  0
  -22.0420   -9.0490   20.4620 C   0  0  0  0  0  3  0  0  0  0  0  0
  -22.7630  -10.2410   20.2860 C   0  0  0  0  0  3  0  0  0  0  0  0
  -21.7160   -6.9370   21.4790 O   0  0  0  0  0  0  0  0  0  0  0  0
  -21.6560   -6.1990   22.6340 C   0  0  0  0  0  0  0  0  0  0  0  0
  -21.1780   -6.7460   23.8440 C   0  0  0  0  0  3  0  0  0  0  0  0
  -21.0680   -5.9320   24.9900 C   0  0  0  0  0  3  0  0  0  0  0  0
  -21.4260   -4.5730   24.9250 C   0  0  0  0  0  0  0  0  0  0  0  0
  -21.8990   -4.0250   23.7190 C   0  0  0  0  0  3  0  0  0  0  0  0
  -22.0090   -4.8360   22.5760 C   0  0  0  0  0  0  0  0  0  0  0  0
  -22.4440   -4.2980   21.4110 F   0  0  0  0  0  0  0  0  0  0  0  0
  -21.3150   -3.7890   26.0240 F   0  0  0  0  0  0  0  0  0  0  0  0
  -22.7700  -13.5800   21.2480 C   0  0  0  0  0  0  0  0  0  0  0  0
  -22.0670  -12.8680   22.1220 N   0  0  0  0  0  0  0  0  0  0  0  0
  -22.3160  -14.6100   20.7520 O   0  0  0  0  0  0  0  0  0  0  0  0
  -22.4490  -12.0350   22.5440 H   0  0  0  0  0  0  0  0  0  0  0  0
  -21.1330  -13.1610   22.3730 H   0  0  0  0  0  0  0  0  0  0  0  0
  -25.3560  -15.2810   20.3990 N   0  0  0  0  0  0  0  0  0  0  0  0
  -24.5830  -15.9220   20.5370 H   0  0  0  0  0  0  0  0  0  0  0  0
  -26.1770  -15.7300   20.0150 H   0  0  0  0  0  0  0  0  0  0  0  0
  -27.9200  -24.1540   20.3280 C   0  0  0  0  0  2  0  0  0  0  0  0
  -28.1730  -25.8220   20.2550 O   0  0  0  0  0  0  0  0  0  0  0  0
  -24.6310  -31.8960   23.2140 C   0  0  0  0  0  0  0  0  0  0  0  0
  -27.1660  -26.9470   20.2210 C   0  0  0  0  0  0  0  0  0  0  0  0
  -23.4330  -30.4930   21.5850 C   0  0  0  0  0  3  0  0  0  0  0  0
  -24.8750  -28.8700   20.1690 C   0  0  0  0  0  0  0  0  0  0  0  0
  -26.0030  -30.6840   21.4360 C   0  0  0  0  0  2  0  0  0  0  0  0
  -26.0690  -29.2650   20.7860 C   0  0  0  0  0  0  0  0  0  0  0  0
  -27.2080  -28.3280   20.7800 C   0  0  0  0  0  3  0  0  0  0  0  0
  -25.9390  -26.7180   19.5570 C   0  0  0  0  0  3  0  0  0  0  0  0
  -24.8390  -27.6180   19.5330 C   0  0  0  0  0  3  0  0  0  0  0  0
  -23.6610  -29.8000   20.2130 C   0  0  0  0  0  2  0  0  0  0  0  0
  -24.7120  -31.0540   22.1310 N   0  0  0  0  0  0  0  0  0  0  0  0
  -23.5420  -32.1910   23.7340 O   0  0  0  0  0  0  0  0  0  0  0  0
  -22.7350  -29.5070   22.5590 C   0  0  0  0  0  0  0  0  0  0  0  0
  -21.4040  -29.3430   22.4360 N   0  0  0  0  0  0  0  0  0  0  0  0
  -23.3990  -28.8890   23.3930 O   0  0  0  0  0  0  0  0  0  0  0  0
  -20.9200  -29.8930   21.7390 H   0  0  0  0  0  0  0  0  0  0  0  0
  -18.0220  -28.1300   22.9560 C   0  0  0  0  0  0  0  0  0  0  0  0
  -20.5820  -28.4080   23.2130 C   0  0  0  0  0  3  0  0  0  0  0  0
  -20.6870  -26.9730   22.6480 C   0  0  0  0  0  2  0  0  0  0  0  0
  -19.5850  -26.6400   21.6370 C   0  0  0  0  0  2  0  0  0  0  0  0
  -18.2040  -26.7800   22.2830 C   0  0  0  0  0  2  0  0  0  0  0  0
  -19.1380  -28.9020   23.3780 C   0  0  0  0  0  0  0  0  0  0  0  0
  -18.9120  -30.1630   23.9720 C   0  0  0  0  0  3  0  0  0  0  0  0
  -17.6040  -30.6530   24.1450 C   0  0  0  0  0  3  0  0  0  0  0  0
  -16.5030  -29.8800   23.7360 C   0  0  0  0  0  3  0  0  0  0  0  0
  -16.7130  -28.6210   23.1480 C   0  0  0  0  0  3  0  0  0  0  0  0
  -25.9010  -32.5420   23.8430 C   0  0  0  0  0  3  0  0  0  0  0  0
  -25.5770  -33.9380   24.1900 N   0  0  0  0  0  0  0  0  0  0  0  0
  -25.8730  -35.0070   23.4370 C   0  0  0  0  0  0  0  0  0  0  0  0
  -26.5070  -34.9220   22.3820 O   0  0  0  0  0  0  0  0  0  0  0  0
  -25.0080  -34.0770   25.0110 H   0  0  0  0  0  0  0  0  0  0  0  0
  -24.1060  -36.7860   23.1850 C   0  0  0  0  0  1  0  0  0  0  0  0
  -25.3920  -36.3890   23.9290 C   0  0  0  0  0  3  0  0  0  0  0  0
  -27.5490  -37.3050   24.6640 C   0  0  0  0  0  1  0  0  0  0  0  0
  -26.4040  -37.4570   23.7720 N   0  0  0  0  0  0  0  0  0  0  0  0
  -25.9910  -38.3700   23.9390 H   0  0  0  0  0  0  0  0  0  0  0  0
  -26.4170  -31.7740   25.1220 C   0  0  1  0  0  0  0  0  0  0  0  0
  -25.3230  -31.5350   26.1900 C   0  0  0  0  0  1  0  0  0  0  0  0
  -27.0060  -30.3970   24.7430 C   0  0  0  0  0  1  0  0  0  0  0  0
  -27.5650  -32.5730   25.7850 C   0  0  0  0  0  1  0  0  0  0  0  0
  1 46  1  0
  2  3  1  0
  2  5  1  0
  3  6  1  0
  5 16  1  0
  5  4  1  0
  6  1  1  0
  6  4  1  0
  7  1  2  0
  8 16  1  0
  9 14  1  0
 10 11  1  0
 10  9  1  0
 12 11  1  0
 12 21  1  0
 12 13  1  0
 14  8  1  0
 14 13  1  0
 15  8  2  0
 16 17  1  0
 18 19  2  0
 19 38  1  0
 20 19  1  0
 20 23  1  0
 21 22  1  0
 21 18  1  0
 22 20  2  0
 23 24  1  0
 24 25  2  0
 26 29  1  0
 26 25  1  0
 27 26  2  0
 28 27  1  0
 28 23  2  0
 29 30  1  0
 30 31  1  0
 31 32  2  0
 33 32  1  0
 33 37  1  0
 34 33  2  0
 35 30  2  0
 35 34  1  0
 36 35  1  0
 38 39  1  0
 39 42  1  0
 39 41  1  0
 40 38  2  0
 43 44  1  0
 43 18  1  0
 45 43  1  0
 47 46  1  0
 48 59  2  0
 49 47  1  0
 49 54  1  0
 50 58  1  0
 50 60  1  0
 51 57  1  0
 51 53  1  0
 52 58  1  0
 53 52  1  0
 54 53  2  0
 55 49  2  0
 56 55  1  0
 56 51  2  0
 57 50  1  0
 58 48  1  0
 60 62  2  0
 61 60  1  0
 63 61  1  0
 64 73  2  0
 64 69  1  0
 65 61  1  0
 65 69  1  0
 66 65  1  0
 67 68  1  0
 67 66  1  0
 68 64  1  0
 69 70  2  0
 70 71  1  0
 72 71  2  0
 73 72  1  0
 74 48  1  0
 74 75  1  0
 74 84  1  0
 75 78  1  0
 76 80  1  0
 76 75  1  0
 77 76  2  0
 80 79  1  0
 82 80  1  0
 82 83  1  0
 82 81  1  0
 84 87  1  1
 84 85  1  0
 86 84  1  0
M  ISO  4   8 100  16 100  46 101  47 101
M  END
>  <TORSDO>  (32) 
F 17

>  <SCORE>  (32) 
-16.627

>  <name>  (32) 
31

>  <ligand_id>  (32) 
31

>  <original_smiles>  (32) 
[H]c1c([H])c([H])c2c(c1[H])C([H])([H])C([H])([H])C([H])([H])C2([H])N([H])C(=O)C1([H])N(C(=O)C([H])(N([H])C(=O)C([H])(N([H])C([H])([H])[H])C([H])([H])[H])C(C([H])([H])[H])(C([H])([H])[H])C([H])([H])[H])C([H])([H])c2c([H])c(OC([H])([H])C(=O)N3C([H])([H])C([H])([H])C([H])(N([H])C(=O)N4C([H])([H])C([H])([H])C([H])([H])C([H])(n5nc(-c6c([H])c([H])c(Oc7c([H])c([H])c(F)c([H])c7F)c([H])c6[H])c(C(=O)N([H])[H])c5N([H])[H])C4([H])[H])C3([H])[H])c([H])c([H])c2C1([H])[H]

>  <smiles>  (32) 
[H]c1c([H])c([H])c2c(c1[H])C([H])([H])C([H])([H])C([H])([H])C2([H])N([H])C(=O)C1([H])N(C(=O)C([H])(N([H])C(=O)C([H])(N([H])C([H])([H])[H])C([H])([H])[H])C(C([H])([H])[H])(C([H])([H])[H])C([H])([H])[H])C([H])([H])c2c([H])c(OC([H])([H])C(=O)N3C([H])([H])C([H])([H])C([H])(N([H])C(=O)N4C([H])([H])C([H])([H])C([H])([H])C([H])(n5nc(-c6c([H])c([H])c(Oc7c([H])c([H])c(F)c([H])c7F)c([H])c6[H])c(C(=O)N([H])[H])c5N([H])[H])C4([H])[H])C3([H])[H])c([H])c([H])c2C1([H])[H]

$$$$
32:0:0
     RDKit          3D

 99107  0  0  1  0  0  0  0  0999 V2000
  -25.9430  -18.4310   20.0230 C   0  0  0  0  0  1  0  0  0  0  0  0
  -27.3020  -18.8970   19.6340 N   0  0  1  0  0  4  0  0  0  0  0  0
  -27.5960  -19.5270   20.3620 H   0  0  0  0  0  0  0  0  0  0  0  0
  -28.2780  -17.7640   19.5850 C   0  0  0  0  0  2  0  0  0  0  0  0
  -29.8300  -19.0400   21.1940 C   0  0  0  0  0  3  0  0  0  0  0  0
  -31.6720  -17.9140   22.3370 C   0  0  0  0  0  3  0  0  0  0  0  0
  -29.4920  -17.8390   20.5220 C   0  0  0  0  0  0  0  0  0  0  0  0
  -30.2990  -16.6840   20.7420 C   0  0  0  0  0  0  0  0  0  0  0  0
  -30.9120  -19.0730   22.0980 C   0  0  0  0  0  0  0  0  0  0  0  0
  -31.3700  -16.7230   21.6620 C   0  0  0  0  0  0  0  0  0  0  0  0
  -31.2020  -20.2150   22.7660 F   0  0  0  0  0  0  0  0  0  0  0  0
  -32.0800  -15.6000   21.9400 F   0  0  0  0  0  0  0  0  0  0  0  0
  -30.7250  -14.5100   19.5890 C   0  0  0  0  0  0  0  0  0  0  0  0
  -30.4210  -12.2870   18.5470 C   0  0  0  0  0  2  0  0  0  0  0  0
  -29.3410  -12.4170   17.4500 C   0  0  0  0  0  2  0  0  0  0  0  0
  -27.9270  -12.2650   18.0510 C   0  0  0  0  0  2  0  0  0  0  0  0
  -27.7100  -13.1920   19.2770 C   0  0  0  0  0  3  0  0  0  0  0  0
  -28.8680  -12.9760   20.2760 C   0  0  0  0  0  2  0  0  0  0  0  0
  -30.1220  -13.2960   19.5680 N   0  0  0  0  0  0  0  0  0  0  0  0
  -31.7660  -14.7760   18.9750 O   0  0  0  0  0  0  0  0  0  0  0  0
  -29.9440  -15.4430   20.1710 N   0  0  0  0  0  0  0  0  0  0  0  0
  -29.0550  -15.0840   20.4770 H   0  0  0  0  0  0  0  0  0  0  0  0
  -25.4800  -13.8820   20.3630 C   0  0  0  0  0  0  0  0  0  0  0  0
  -24.4280  -13.1400   20.8310 C   0  0  0  0  0  0  0  0  0  0  0  0
  -24.7860  -11.7770   20.6190 C   0  0  0  0  0  0  0  0  0  0  0  0
  -26.4180  -12.9640   19.9120 N   0  0  0  0  0  0  0  0  0  0  0  0
  -26.0110  -11.6890   20.1200 N   0  0  0  0  0  0  0  0  0  0  0  0
  -24.0120  -10.5460   20.8040 C   0  0  0  0  0  0  0  0  0  0  0  0
  -24.4090   -9.5630   21.7360 C   0  0  0  0  0  3  0  0  0  0  0  0
  -23.6400   -8.3930   21.9110 C   0  0  0  0  0  3  0  0  0  0  0  0
  -22.4620   -8.1990   21.1550 C   0  0  0  0  0  0  0  0  0  0  0  0
  -22.0820   -9.1710   20.2120 C   0  0  0  0  0  3  0  0  0  0  0  0
  -22.8520  -10.3330   20.0340 C   0  0  0  0  0  3  0  0  0  0  0  0
  -21.6700   -7.0810   21.2390 O   0  0  0  0  0  0  0  0  0  0  0  0
  -21.4830   -6.4200   22.4250 C   0  0  0  0  0  0  0  0  0  0  0  0
  -20.9050   -7.0520   23.5470 C   0  0  0  0  0  3  0  0  0  0  0  0
  -20.6640   -6.3150   24.7240 C   0  0  0  0  0  3  0  0  0  0  0  0
  -20.9950   -4.9470   24.7800 C   0  0  0  0  0  0  0  0  0  0  0  0
  -21.5680   -4.3160   23.6620 C   0  0  0  0  0  3  0  0  0  0  0  0
  -21.8080   -5.0500   22.4860 C   0  0  0  0  0  0  0  0  0  0  0  0
  -22.3410   -4.4310   21.4060 F   0  0  0  0  0  0  0  0  0  0  0  0
  -20.7560   -4.2370   25.9070 F   0  0  0  0  0  0  0  0  0  0  0  0
  -23.1150  -13.6720   21.3290 C   0  0  0  0  0  0  0  0  0  0  0  0
  -22.4890  -12.9710   22.2700 N   0  0  0  0  0  0  0  0  0  0  0  0
  -22.6610  -14.7400   20.9220 O   0  0  0  0  0  0  0  0  0  0  0  0
  -22.8680  -12.1040   22.6160 H   0  0  0  0  0  0  0  0  0  0  0  0
  -21.6120  -13.3040   22.6430 H   0  0  0  0  0  0  0  0  0  0  0  0
  -25.6990  -15.2490   20.2530 N   0  0  0  0  0  0  0  0  0  0  0  0
  -24.8550  -15.7970   20.3850 H   0  0  0  0  0  0  0  0  0  0  0  0
  -26.1960  -15.5290   19.4200 H   0  0  0  0  0  0  0  0  0  0  0  0
  -27.3380  -19.6950   18.3760 C   0  0  0  0  0  2  0  0  0  0  0  0
  -26.5520  -21.0220   18.4320 C   0  0  0  0  0  2  0  0  0  0  0  0
  -26.0900  -22.3420   20.3600 C   0  0  0  0  0  1  0  0  0  0  0  0
  -27.1350  -21.9590   19.4060 N   0  0  0  0  0  0  0  0  0  0  0  0
  -27.6370  -23.1290   18.6550 C   0  0  0  0  0  2  0  0  0  0  0  0
  -28.2350  -24.3140   19.4510 C   0  0  0  0  0  3  0  0  0  0  0  0
  -27.3750  -24.7150   20.3870 F   0  0  0  0  0  0  0  0  0  0  0  0
  -28.5390  -25.4870   18.4860 C   0  0  0  0  0  2  0  0  0  0  0  0
  -28.5200  -26.7700   19.1130 O   0  0  0  0  0  0  0  0  0  0  0  0
  -24.7990  -31.2740   23.1130 C   0  0  0  0  0  0  0  0  0  0  0  0
  -27.3250  -27.4580   19.2200 C   0  0  0  0  0  0  0  0  0  0  0  0
  -23.5340  -30.2140   21.2690 C   0  0  0  0  0  3  0  0  0  0  0  0
  -24.9370  -28.9390   19.5610 C   0  0  0  0  0  0  0  0  0  0  0  0
  -26.0590  -30.5670   21.0890 C   0  0  0  0  0  2  0  0  0  0  0  0
  -26.1100  -29.3370   20.2120 C   0  0  0  0  0  0  0  0  0  0  0  0
  -27.3000  -28.6010   20.0470 C   0  0  0  0  0  3  0  0  0  0  0  0
  -26.1310  -27.0790   18.5560 C   0  0  0  0  0  3  0  0  0  0  0  0
  -24.9390  -27.8050   18.7340 C   0  0  0  0  0  3  0  0  0  0  0  0
  -23.7050  -29.7860   19.7860 C   0  0  0  0  0  2  0  0  0  0  0  0
  -24.8170  -30.6870   21.8830 N   0  0  0  0  0  0  0  0  0  0  0  0
  -23.7340  -31.4650   23.7170 O   0  0  0  0  0  0  0  0  0  0  0  0
  -22.8800  -29.0470   22.0430 C   0  0  0  0  0  0  0  0  0  0  0  0
  -21.5450  -28.9360   21.9400 N   0  0  0  0  0  0  0  0  0  0  0  0
  -23.5670  -28.2490   22.6820 O   0  0  0  0  0  0  0  0  0  0  0  0
  -21.0510  -29.6350   21.3970 H   0  0  0  0  0  0  0  0  0  0  0  0
  -18.1420  -27.8210   22.3930 C   0  0  0  0  0  0  0  0  0  0  0  0
  -20.7200  -27.8940   22.5490 C   0  0  0  0  0  3  0  0  0  0  0  0
  -20.7080  -26.6110   21.6860 C   0  0  0  0  0  2  0  0  0  0  0  0
  -19.5310  -26.5480   20.7080 C   0  0  0  0  0  2  0  0  0  0  0  0
  -18.1940  -26.6360   21.4460 C   0  0  0  0  0  2  0  0  0  0  0  0
  -19.3260  -28.4180   22.9020 C   0  0  0  0  0  0  0  0  0  0  0  0
  -19.2170  -29.5300   23.7640 C   0  0  0  0  0  3  0  0  0  0  0  0
  -17.9590  -30.0530   24.1130 C   0  0  0  0  0  3  0  0  0  0  0  0
  -16.7880  -29.4540   23.6090 C   0  0  0  0  0  3  0  0  0  0  0  0
  -16.8810  -28.3420   22.7540 C   0  0  0  0  0  3  0  0  0  0  0  0
  -26.1120  -31.7590   23.8070 C   0  0  0  0  0  3  0  0  0  0  0  0
  -25.8560  -33.0990   24.3490 N   0  0  0  0  0  0  0  0  0  0  0  0
  -26.2370  -34.2430   23.7620 C   0  0  0  0  0  0  0  0  0  0  0  0
  -26.9120  -34.2720   22.7300 O   0  0  0  0  0  0  0  0  0  0  0  0
  -25.2580  -33.1520   25.1620 H   0  0  0  0  0  0  0  0  0  0  0  0
  -24.6010  -36.1490   23.6590 C   0  0  0  0  0  1  0  0  0  0  0  0
  -25.7950  -35.5600   24.4250 C   0  0  0  0  0  3  0  0  0  0  0  0
  -27.9310  -36.2010   25.4520 C   0  0  0  0  0  1  0  0  0  0  0  0
  -26.8760  -36.5650   24.5090 N   0  0  0  0  0  0  0  0  0  0  0  0
  -26.5060  -37.4700   24.7850 H   0  0  0  0  0  0  0  0  0  0  0  0
  -26.6160  -30.7830   24.9420 C   0  0  1  0  0  0  0  0  0  0  0  0
  -25.5300  -30.4330   25.9860 C   0  0  0  0  0  1  0  0  0  0  0  0
  -27.1300  -29.4580   24.3340 C   0  0  0  0  0  1  0  0  0  0  0  0
  -27.8070  -31.4190   25.6940 C   0  0  0  0  0  1  0  0  0  0  0  0
  2  1  1  0
  2  3  1  1
  4  2  1  0
  4  7  1  0
  5  9  1  0
  7  8  1  0
  7  5  2  0
  8 10  2  0
  9  6  2  0
  9 11  1  0
 10 12  1  0
 10  6  1  0
 13 21  1  0
 14 19  1  0
 15 16  1  0
 15 14  1  0
 17 16  1  0
 17 26  1  0
 17 18  1  0
 19 13  1  0
 19 18  1  0
 20 13  2  0
 21 22  1  0
 21  8  1  0
 23 24  2  0
 24 43  1  0
 25 28  1  0
 25 24  1  0
 26 27  1  0
 26 23  1  0
 27 25  2  0
 28 29  1  0
 29 30  2  0
 31 34  1  0
 31 30  1  0
 32 31  2  0
 33 32  1  0
 33 28  2  0
 34 35  1  0
 35 40  2  0
 35 36  1  0
 36 37  2  0
 37 38  1  0
 38 42  1  0
 39 38  2  0
 40 39  1  0
 41 40  1  0
 43 44  1  0
 44 46  1  0
 44 47  1  0
 45 43  2  0
 48 23  1  0
 48 49  1  0
 50 48  1  0
 51 52  1  0
 51  2  1  0
 52 54  1  0
 54 53  1  0
 55 54  1  0
 55 56  1  0
 56 57  1  0
 58 59  1  0
 58 56  1  0
 59 61  1  0
 60 71  2  0
 61 66  1  0
 62 70  1  0
 62 72  1  0
 63 69  1  0
 63 65  1  0
 64 70  1  0
 65 64  1  0
 66 65  2  0
 67 68  1  0
 67 61  2  0
 68 63  2  0
 69 62  1  0
 70 60  1  0
 72 74  2  0
 73 72  1  0
 75 73  1  0
 76 85  2  0
 76 81  1  0
 77 73  1  0
 77 81  1  0
 78 77  1  0
 79 80  1  0
 79 78  1  0
 80 76  1  0
 81 82  2  0
 82 83  1  0
 84 83  2  0
 85 84  1  0
 86 60  1  0
 86 87  1  0
 86 96  1  0
 87 90  1  0
 88 87  1  0
 88 92  1  0
 89 88  2  0
 92 91  1  0
 92 94  1  0
 94 95  1  0
 94 93  1  0
 96 99  1  1
 96 97  1  0
 98 96  1  0
M  ISO  4  13 100  21 100  58 101  59 101
M  END
>  <TORSDO>  (33) 
F 24

>  <SCORE>  (33) 
-9.100

>  <name>  (33) 
32

>  <ligand_id>  (33) 
32

>  <original_smiles>  (33) 
[H]c1c([H])c([H])c2c(c1[H])C([H])([H])C([H])([H])C([H])([H])C2([H])N([H])C(=O)C1([H])N(C(=O)C([H])(N([H])C(=O)C([H])(N([H])C([H])([H])[H])C([H])([H])[H])C(C([H])([H])[H])(C([H])([H])[H])C([H])([H])[H])C([H])([H])c2c([H])c(OC([H])([H])C([H])(F)C([H])([H])N(C([H])([H])[H])C([H])([H])C([H])([H])[N+]([H])(C([H])([H])[H])C([H])([H])c3c([H])c(F)c([H])c(F)c3N([H])C(=O)N3C([H])([H])C([H])([H])C([H])([H])C([H])(n4nc(-c5c([H])c([H])c(Oc6c([H])c([H])c(F)c([H])c6F)c([H])c5[H])c(C(=O)N([H])[H])c4N([H])[H])C3([H])[H])c([H])c([H])c2C1([H])[H]

>  <smiles>  (33) 
[H]c1c([H])c([H])c2c(c1[H])C([H])([H])C([H])([H])C([H])([H])C2([H])N([H])C(=O)C1([H])N(C(=O)C([H])(N([H])C(=O)C([H])(N([H])C([H])([H])[H])C([H])([H])[H])C(C([H])([H])[H])(C([H])([H])[H])C([H])([H])[H])C([H])([H])c2c([H])c(OC([H])([H])C([H])(F)C([H])([H])N(C([H])([H])[H])C([H])([H])C([H])([H])[N+]([H])(C([H])([H])[H])C([H])([H])c3c([H])c(F)c([H])c(F)c3N([H])C(=O)N3C([H])([H])C([H])([H])C([H])([H])C([H])(n4nc(-c5c([H])c([H])c(Oc6c([H])c([H])c(F)c([H])c6F)c([H])c5[H])c(C(=O)N([H])[H])c4N([H])[H])C3([H])[H])c([H])c([H])c2C1([H])[H]

$$$$
33:0:0
     RDKit          3D

 93101  0  0  1  0  0  0  0  0999 V2000
  -28.4220  -20.3360   20.9520 C   0  0  0  0  0  3  0  0  0  0  0  0
  -28.6180  -18.8710   20.9330 C   0  0  0  0  0  3  0  0  0  0  0  0
  -30.1810  -19.0790   19.2610 C   0  0  0  0  0  3  0  0  0  0  0  0
  -29.0750  -21.3340   20.1210 C   0  0  0  0  0  0  0  0  0  0  0  0
  -29.9720  -20.5630   19.2450 C   0  0  0  0  0  0  0  0  0  0  0  0
  -29.5320  -18.0930   20.1120 C   0  0  0  0  0  0  0  0  0  0  0  0
  -30.4180  -15.3120   19.8590 C   0  0  0  0  0  0  0  0  0  0  0  0
  -30.3550  -12.8980   18.9400 C   0  0  0  0  0  2  0  0  0  0  0  0
  -29.3460  -12.7590   17.7720 C   0  0  0  0  0  2  0  0  0  0  0  0
  -27.9240  -12.4940   18.3010 C   0  0  0  0  0  2  0  0  0  0  0  0
  -27.5650  -13.4210   19.4900 C   0  0  0  0  0  3  0  0  0  0  0  0
  -28.6900  -13.4980   20.5440 C   0  0  0  0  0  2  0  0  0  0  0  0
  -29.8880  -13.9990   19.8520 N   0  0  0  0  0  0  0  0  0  0  0  0
  -31.5950  -15.3860   19.4770 O   0  0  0  0  0  0  0  0  0  0  0  0
  -29.5950  -16.4880   20.1590 N   0  0  0  0  0  0  0  0  0  0  0  0
  -28.7370  -16.1290   20.5510 H   0  0  0  0  0  0  0  0  0  0  0  0
  -25.2520  -13.9650   20.4230 C   0  0  0  0  0  0  0  0  0  0  0  0
  -24.2160  -13.1800   20.8430 C   0  0  0  0  0  0  0  0  0  0  0  0
  -24.6730  -11.8300   20.7360 C   0  0  0  0  0  0  0  0  0  0  0  0
  -26.2710  -13.0960   20.0770 N   0  0  0  0  0  0  0  0  0  0  0  0
  -25.9380  -11.8040   20.3320 N   0  0  0  0  0  0  0  0  0  0  0  0
  -23.9560  -10.5640   20.9370 C   0  0  0  0  0  0  0  0  0  0  0  0
  -24.4110   -9.5930   21.8550 C   0  0  0  0  0  3  0  0  0  0  0  0
  -23.6920   -8.3940   22.0450 C   0  0  0  0  0  3  0  0  0  0  0  0
  -22.5000   -8.1560   21.3170 C   0  0  0  0  0  0  0  0  0  0  0  0
  -22.0640   -9.1160   20.3870 C   0  0  0  0  0  3  0  0  0  0  0  0
  -22.7850  -10.3070   20.1940 C   0  0  0  0  0  3  0  0  0  0  0  0
  -21.7500   -7.0090   21.4170 O   0  0  0  0  0  0  0  0  0  0  0  0
  -21.6820   -6.2950   22.5860 C   0  0  0  0  0  0  0  0  0  0  0  0
  -21.1890   -6.8640   23.7800 C   0  0  0  0  0  3  0  0  0  0  0  0
  -21.0700   -6.0730   24.9410 C   0  0  0  0  0  3  0  0  0  0  0  0
  -21.4340   -4.7140   24.9070 C   0  0  0  0  0  0  0  0  0  0  0  0
  -21.9200   -4.1440   23.7170 C   0  0  0  0  0  3  0  0  0  0  0  0
  -22.0400   -4.9320   22.5590 C   0  0  0  0  0  0  0  0  0  0  0  0
  -22.4880   -4.3710   21.4100 F   0  0  0  0  0  0  0  0  0  0  0  0
  -21.3130   -3.9520   26.0200 F   0  0  0  0  0  0  0  0  0  0  0  0
  -22.8420  -13.6510   21.2250 C   0  0  0  0  0  0  0  0  0  0  0  0
  -22.1760  -12.9330   22.1210 N   0  0  0  0  0  0  0  0  0  0  0  0
  -22.3740  -14.6920   20.7660 O   0  0  0  0  0  0  0  0  0  0  0  0
  -22.5700  -12.0900   22.5130 H   0  0  0  0  0  0  0  0  0  0  0  0
  -21.2570  -13.2290   22.4190 H   0  0  0  0  0  0  0  0  0  0  0  0
  -25.4040  -15.3420   20.2750 N   0  0  0  0  0  0  0  0  0  0  0  0
  -24.6390  -15.9850   20.4480 H   0  0  0  0  0  0  0  0  0  0  0  0
  -26.2040  -15.7880   19.8460 H   0  0  0  0  0  0  0  0  0  0  0  0
  -30.7960  -21.3460   18.2250 C   0  0  1  0  0  0  0  0  0  0  0  0
  -31.1710  -20.5760   17.2030 F   0  0  0  0  0  0  0  0  0  0  0  0
  -30.0850  -22.3550   17.7170 F   0  0  0  0  0  0  0  0  0  0  0  0
  -31.8930  -21.8300   18.8030 F   0  0  0  0  0  0  0  0  0  0  0  0
  -29.0460  -23.0580   20.3940 C   0  0  1  0  0  0  0  0  0  0  0  0
  -28.8280  -23.1060   21.7070 F   0  0  0  0  0  0  0  0  0  0  0  0
  -30.3060  -23.4510   20.2230 F   0  0  0  0  0  0  0  0  0  0  0  0
  -28.1120  -24.4640   19.8440 C   0  0  0  0  0  2  0  0  0  0  0  0
  -28.2540  -26.0530   20.1920 O   0  0  0  0  0  0  0  0  0  0  0  0
  -24.6420  -31.8710   23.2420 C   0  0  0  0  0  0  0  0  0  0  0  0
  -27.2190  -27.1070   20.1270 C   0  0  0  0  0  0  0  0  0  0  0  0
  -23.4480  -30.5000   21.5810 C   0  0  0  0  0  3  0  0  0  0  0  0
  -24.8990  -28.9360   20.1220 C   0  0  0  0  0  0  0  0  0  0  0  0
  -26.0080  -30.7420   21.4240 C   0  0  0  0  0  2  0  0  0  0  0  0
  -26.0830  -29.3490   20.7430 C   0  0  0  0  0  0  0  0  0  0  0  0
  -27.2380  -28.4550   20.7240 C   0  0  0  0  0  3  0  0  0  0  0  0
  -26.0060  -26.8320   19.4590 C   0  0  0  0  0  3  0  0  0  0  0  0
  -24.8820  -27.6970   19.4610 C   0  0  0  0  0  3  0  0  0  0  0  0
  -23.6730  -29.8420   20.1910 C   0  0  0  0  0  2  0  0  0  0  0  0
  -24.7210  -31.0640   22.1360 N   0  0  0  0  0  0  0  0  0  0  0  0
  -23.5550  -32.1450   23.7750 O   0  0  0  0  0  0  0  0  0  0  0  0
  -22.7650  -29.4820   22.5310 C   0  0  0  0  0  0  0  0  0  0  0  0
  -21.4410  -29.2930   22.3910 N   0  0  0  0  0  0  0  0  0  0  0  0
  -23.4350  -28.8610   23.3610 O   0  0  0  0  0  0  0  0  0  0  0  0
  -20.9530  -29.8460   21.6990 H   0  0  0  0  0  0  0  0  0  0  0  0
  -18.0770  -28.0140   22.8460 C   0  0  0  0  0  0  0  0  0  0  0  0
  -20.6270  -28.3350   23.1460 C   0  0  0  0  0  3  0  0  0  0  0  0
  -20.7670  -26.9090   22.5670 C   0  0  0  0  0  2  0  0  0  0  0  0
  -19.6870  -26.5660   21.5360 C   0  0  0  0  0  2  0  0  0  0  0  0
  -18.2940  -26.6750   22.1620 C   0  0  0  0  0  2  0  0  0  0  0  0
  -19.1720  -28.8010   23.2920 C   0  0  0  0  0  0  0  0  0  0  0  0
  -18.9140  -30.0510   23.8950 C   0  0  0  0  0  3  0  0  0  0  0  0
  -17.5940  -30.5170   24.0510 C   0  0  0  0  0  3  0  0  0  0  0  0
  -16.5140  -29.7290   23.6160 C   0  0  0  0  0  3  0  0  0  0  0  0
  -16.7570  -28.4790   23.0190 C   0  0  0  0  0  3  0  0  0  0  0  0
  -25.9150  -32.5070   23.8810 C   0  0  0  0  0  3  0  0  0  0  0  0
  -26.4050  -31.7450   25.1740 C   0  0  1  0  0  0  0  0  0  0  0  0
  -25.2930  -31.5240   26.2270 C   0  0  0  0  0  1  0  0  0  0  0  0
  -26.9870  -30.3600   24.8110 C   0  0  0  0  0  1  0  0  0  0  0  0
  -27.5490  -32.5380   25.8480 C   0  0  0  0  0  1  0  0  0  0  0  0
  -25.6060  -33.9110   24.2070 N   0  0  0  0  0  0  0  0  0  0  0  0
  -25.9230  -34.9640   23.4420 C   0  0  0  0  0  0  0  0  0  0  0  0
  -26.5710  -34.8560   22.3970 O   0  0  0  0  0  0  0  0  0  0  0  0
  -25.0270  -34.0660   25.0190 H   0  0  0  0  0  0  0  0  0  0  0  0
  -24.1750  -36.7510   23.1450 C   0  0  0  0  0  1  0  0  0  0  0  0
  -25.4500  -36.3560   23.9070 C   0  0  0  0  0  3  0  0  0  0  0  0
  -27.6060  -37.2670   24.6530 C   0  0  0  0  0  1  0  0  0  0  0  0
  -26.4730  -37.4120   23.7430 N   0  0  0  0  0  0  0  0  0  0  0  0
  -26.0660  -38.3340   23.8860 H   0  0  0  0  0  0  0  0  0  0  0  0
  2  1  1  0
  3  6  1  0
  4 49  1  0
  4  1  2  0
  5  3  2  0
  5  4  1  0
  6 15  1  0
  6  2  2  0
  7 15  1  0
  8 13  1  0
  9 10  1  0
  9  8  1  0
 11 10  1  0
 11 20  1  0
 11 12  1  0
 13  7  1  0
 13 12  1  0
 14  7  2  0
 15 16  1  0
 17 18  2  0
 18 37  1  0
 19 18  1  0
 19 22  1  0
 20 21  1  0
 20 17  1  0
 21 19  2  0
 22 23  1  0
 23 24  2  0
 25 28  1  0
 25 24  1  0
 26 25  2  0
 27 26  1  0
 27 22  2  0
 28 29  1  0
 29 30  1  0
 30 31  2  0
 32 31  1  0
 32 36  1  0
 33 32  2  0
 34 29  2  0
 34 33  1  0
 35 34  1  0
 37 38  1  0
 38 41  1  0
 38 40  1  0
 39 37  2  0
 42 17  1  0
 42 43  1  0
 44 42  1  0
 45 48  1  1
 45  5  1  0
 46 45  1  0
 47 45  1  0
 49 50  1  1
 51 49  1  0
 52 53  1  0
 52 49  1  0
 54 65  2  0
 55 53  1  0
 55 60  1  0
 56 64  1  0
 56 66  1  0
 57 63  1  0
 57 59  1  0
 58 64  1  0
 59 58  1  0
 60 59  2  0
 61 62  1  0
 61 55  2  0
 62 57  2  0
 63 56  1  0
 64 54  1  0
 66 68  2  0
 67 66  1  0
 69 67  1  0
 70 79  2  0
 70 75  1  0
 71 67  1  0
 71 75  1  0
 72 71  1  0
 73 74  1  0
 73 72  1  0
 74 70  1  0
 75 76  2  0
 76 77  1  0
 78 77  2  0
 79 78  1  0
 80 54  1  0
 80 85  1  0
 80 81  1  0
 81 84  1  1
 81 82  1  0
 83 81  1  0
 85 88  1  0
 86 90  1  0
 86 85  1  0
 87 86  2  0
 90 89  1  0
 92 93  1  0
 92 90  1  0
 92 91  1  0
M  ISO  4   7 100  15 100  52 101  53 101
M  END
>  <TORSDO>  (34) 
F 19

>  <SCORE>  (34) 
-14.861

>  <name>  (34) 
33

>  <ligand_id>  (34) 
33

>  <original_smiles>  (34) 
[H]c1c([H])c([H])c2c(c1[H])C([H])([H])C([H])([H])C([H])([H])C2([H])N([H])C(=O)C1([H])N(C(=O)C([H])(N([H])C(=O)C([H])(N([H])C([H])([H])[H])C([H])([H])[H])C(C([H])([H])[H])(C([H])([H])[H])C([H])([H])[H])C([H])([H])c2c([H])c(OC([H])([H])C(F)(F)c3c([H])c([H])c(N([H])C(=O)N4C([H])([H])C([H])([H])C([H])([H])C([H])(n5nc(-c6c([H])c([H])c(Oc7c([H])c([H])c(F)c([H])c7F)c([H])c6[H])c(C(=O)N([H])[H])c5N([H])[H])C4([H])[H])c([H])c3C(F)(F)F)c([H])c([H])c2C1([H])[H]

>  <smiles>  (34) 
[H]c1c([H])c([H])c2c(c1[H])C([H])([H])C([H])([H])C([H])([H])C2([H])N([H])C(=O)C1([H])N(C(=O)C([H])(N([H])C(=O)C([H])(N([H])C([H])([H])[H])C([H])([H])[H])C(C([H])([H])[H])(C([H])([H])[H])C([H])([H])[H])C([H])([H])c2c([H])c(OC([H])([H])C(F)(F)c3c([H])c([H])c(N([H])C(=O)N4C([H])([H])C([H])([H])C([H])([H])C([H])(n5nc(-c6c([H])c([H])c(Oc7c([H])c([H])c(F)c([H])c7F)c([H])c6[H])c(C(=O)N([H])[H])c5N([H])[H])C4([H])[H])c([H])c3C(F)(F)F)c([H])c([H])c2C1([H])[H]

$$$$
34:0:0
     RDKit          3D

 97105  0  0  1  0  0  0  0  0999 V2000
  -29.4300  -24.4950   17.6540 N   0  0  0  0  0  0  0  0  0  0  0  0
  -30.1600  -23.2280   17.7870 C   0  0  0  0  0  2  0  0  0  0  0  0
  -29.2620  -22.0460   18.2260 C   0  0  0  0  0  2  0  0  0  0  0  0
  -29.9350  -21.0360   19.1960 C   0  0  0  0  0  2  0  0  0  0  0  0
  -30.9630  -14.6450   20.4650 C   0  0  0  0  0  0  0  0  0  0  0  0
  -30.6190  -12.4850   19.3440 C   0  0  0  0  0  2  0  0  0  0  0  0
  -29.7060  -12.7140   18.1240 C   0  0  0  0  0  2  0  0  0  0  0  0
  -28.2180  -12.6260   18.5160 C   0  0  0  0  0  2  0  0  0  0  0  0
  -27.8670  -13.4400   19.7900 C   0  0  0  0  0  3  0  0  0  0  0  0
  -28.9130  -13.2410   20.9100 C   0  0  0  0  0  2  0  0  0  0  0  0
  -30.2450  -13.4970   20.3410 N   0  0  0  0  0  0  0  0  0  0  0  0
  -32.1410  -14.7420   20.1200 O   0  0  0  0  0  0  0  0  0  0  0  0
  -30.2920  -19.6620   18.6010 C   0  0  0  0  0  0  0  0  0  0  0  0
  -30.1770  -18.1110   21.7230 C   0  0  0  0  0  2  0  0  0  0  0  0
  -31.2120  -18.8480   20.8260 C   0  0  0  0  0  2  0  0  0  0  0  0
  -30.3060  -16.5590   21.8520 C   0  0  0  0  0  2  0  0  0  0  0  0
  -31.1140  -17.3710   18.9080 C   0  0  0  0  0  2  0  0  0  0  0  0
  -29.9250  -16.4960   19.3640 C   0  0  0  0  0  2  0  0  0  0  0  0
  -30.8790  -18.7250   19.3940 N   0  0  0  0  0  0  0  0  0  0  0  0
  -30.2270  -15.7680   20.6030 N   0  0  0  0  0  0  0  0  0  0  0  0
  -30.0050  -19.4230   17.4220 O   0  0  0  0  0  0  0  0  0  0  0  0
  -25.4600  -14.0250   20.4520 C   0  0  0  0  0  0  0  0  0  0  0  0
  -24.3900  -13.2410   20.8000 C   0  0  0  0  0  0  0  0  0  0  0  0
  -24.8620  -11.8940   20.7810 C   0  0  0  0  0  0  0  0  0  0  0  0
  -26.5140  -13.1520   20.2470 N   0  0  0  0  0  0  0  0  0  0  0  0
  -26.1570  -11.8670   20.4980 N   0  0  0  0  0  0  0  0  0  0  0  0
  -24.1450  -10.6250   20.9640 C   0  0  0  0  0  0  0  0  0  0  0  0
  -24.5140   -9.7040   21.9700 C   0  0  0  0  0  3  0  0  0  0  0  0
  -23.7980   -8.5000   22.1330 C   0  0  0  0  0  3  0  0  0  0  0  0
  -22.6940   -8.2090   21.2970 C   0  0  0  0  0  0  0  0  0  0  0  0
  -22.3430   -9.1210   20.2830 C   0  0  0  0  0  3  0  0  0  0  0  0
  -23.0590  -10.3180   20.1190 C   0  0  0  0  0  3  0  0  0  0  0  0
  -21.9550   -7.0520   21.3620 O   0  0  0  0  0  0  0  0  0  0  0  0
  -21.7680   -6.3920   22.5490 C   0  0  0  0  0  0  0  0  0  0  0  0
  -21.1390   -7.0110   23.6520 C   0  0  0  0  0  3  0  0  0  0  0  0
  -20.9080   -6.2730   24.8310 C   0  0  0  0  0  3  0  0  0  0  0  0
  -21.2910   -4.9200   24.9020 C   0  0  0  0  0  0  0  0  0  0  0  0
  -21.9080   -4.3010   23.8030 C   0  0  0  0  0  3  0  0  0  0  0  0
  -22.1460   -5.0370   22.6270 C   0  0  0  0  0  0  0  0  0  0  0  0
  -22.7270   -4.4340   21.5620 F   0  0  0  0  0  0  0  0  0  0  0  0
  -21.0550   -4.2080   26.0310 F   0  0  0  0  0  0  0  0  0  0  0  0
  -22.9870  -13.7090   21.0490 C   0  0  0  0  0  0  0  0  0  0  0  0
  -22.2590  -12.9990   21.9080 N   0  0  0  0  0  0  0  0  0  0  0  0
  -22.5440  -14.7270   20.5260 O   0  0  0  0  0  0  0  0  0  0  0  0
  -22.6390  -12.1700   22.3380 H   0  0  0  0  0  0  0  0  0  0  0  0
  -21.3220  -13.2900   22.1400 H   0  0  0  0  0  0  0  0  0  0  0  0
  -25.6260  -15.3950   20.2800 N   0  0  0  0  0  0  0  0  0  0  0  0
  -24.8710  -16.0690   20.3550 H   0  0  0  0  0  0  0  0  0  0  0  0
  -26.5010  -15.8190   19.9970 H   0  0  0  0  0  0  0  0  0  0  0  0
  -28.7720  -24.8460   18.9170 C   0  0  0  0  0  2  0  0  0  0  0  0
  -28.9500  -26.3350   19.2240 C   0  0  0  0  0  2  0  0  0  0  0  0
  -28.3470  -26.6340   20.4740 O   0  0  0  0  0  0  0  0  0  0  0  0
  -24.5220  -31.8270   23.3820 C   0  0  0  0  0  0  0  0  0  0  0  0
  -27.1700  -27.3350   20.4250 C   0  0  0  0  0  0  0  0  0  0  0  0
  -23.3440  -30.4480   21.6930 C   0  0  0  0  0  3  0  0  0  0  0  0
  -24.8120  -28.8720   20.3340 C   0  0  0  0  0  0  0  0  0  0  0  0
  -25.8770  -30.7460   21.5970 C   0  0  0  0  0  2  0  0  0  0  0  0
  -25.9480  -29.3650   20.9830 C   0  0  0  0  0  0  0  0  0  0  0  0
  -27.1230  -28.5930   21.0510 C   0  0  0  0  0  3  0  0  0  0  0  0
  -26.0190  -26.8430   19.7640 C   0  0  0  0  0  3  0  0  0  0  0  0
  -24.8390  -27.6070   19.7210 C   0  0  0  0  0  3  0  0  0  0  0  0
  -23.5890  -29.7550   20.3250 C   0  0  0  0  0  2  0  0  0  0  0  0
  -24.5960  -31.0270   22.2830 N   0  0  0  0  0  0  0  0  0  0  0  0
  -23.4270  -32.1250   23.8800 O   0  0  0  0  0  0  0  0  0  0  0  0
  -22.6290  -29.4480   22.6290 C   0  0  0  0  0  0  0  0  0  0  0  0
  -21.3040  -29.3200   22.4630 N   0  0  0  0  0  0  0  0  0  0  0  0
  -23.2680  -28.7860   23.4520 O   0  0  0  0  0  0  0  0  0  0  0  0
  -20.8570  -29.8960   21.7640 H   0  0  0  0  0  0  0  0  0  0  0  0
  -17.8650  -28.3030   22.9020 C   0  0  0  0  0  0  0  0  0  0  0  0
  -20.4300  -28.4140   23.2060 C   0  0  0  0  0  3  0  0  0  0  0  0
  -20.4610  -26.9910   22.6000 C   0  0  0  0  0  2  0  0  0  0  0  0
  -19.3540  -26.7510   21.5670 C   0  0  0  0  0  2  0  0  0  0  0  0
  -17.9750  -26.9610   22.2000 C   0  0  0  0  0  2  0  0  0  0  0  0
  -19.0200  -28.9930   23.3620 C   0  0  0  0  0  0  0  0  0  0  0  0
  -18.8640  -30.2540   23.9770 C   0  0  0  0  0  3  0  0  0  0  0  0
  -17.5870  -30.8260   24.1350 C   0  0  0  0  0  3  0  0  0  0  0  0
  -16.4470  -30.1330   23.6890 C   0  0  0  0  0  3  0  0  0  0  0  0
  -16.5880  -28.8730   23.0800 C   0  0  0  0  0  3  0  0  0  0  0  0
  -25.7980  -32.4210   24.0560 C   0  0  0  0  0  3  0  0  0  0  0  0
  -25.5360  -33.8410   24.3150 N   0  0  0  0  0  0  0  0  0  0  0  0
  -25.9500  -34.8450   23.5300 C   0  0  0  0  0  0  0  0  0  0  0  0
  -26.6580  -34.6700   22.5360 O   0  0  0  0  0  0  0  0  0  0  0  0
  -24.9090  -34.0590   25.0770 H   0  0  0  0  0  0  0  0  0  0  0  0
  -24.3060  -36.6790   23.0380 C   0  0  0  0  0  1  0  0  0  0  0  0
  -25.5060  -36.2690   23.9090 C   0  0  0  0  0  3  0  0  0  0  0  0
  -27.6420  -37.1080   24.7730 C   0  0  0  0  0  1  0  0  0  0  0  0
  -26.5830  -37.2730   23.7800 N   0  0  0  0  0  0  0  0  0  0  0  0
  -26.2140  -38.2170   23.8700 H   0  0  0  0  0  0  0  0  0  0  0  0
  -26.2090  -31.6720   25.3810 C   0  0  1  0  0  0  0  0  0  0  0  0
  -25.0460  -31.4990   26.3870 C   0  0  0  0  0  1  0  0  0  0  0  0
  -26.7670  -30.2670   25.0650 C   0  0  0  0  0  1  0  0  0  0  0  0
  -27.3620  -32.4400   26.0730 C   0  0  0  0  0  1  0  0  0  0  0  0
  -28.4570  -24.5310   16.5410 C   0  0  0  0  0  2  0  0  0  0  0  0
  -29.0170  -25.0670   15.2010 C   0  0  1  0  0  0  0  0  0  0  0  0
  -27.9960  -25.2600   14.3680 F   0  0  0  0  0  0  0  0  0  0  0  0
  -29.6230  -26.2420   15.3890 F   0  0  0  0  0  0  0  0  0  0  0  0
  -29.8680  -24.2230   14.6170 F   0  0  0  0  0  0  0  0  0  0  0  0
  1  2  1  0
  1 50  1  0
  2  3  1  0
  3  4  1  0
  5 20  1  0
  6 11  1  0
  7  8  1  0
  7  6  1  0
  9  8  1  0
  9 25  1  0
  9 10  1  0
 11  5  1  0
 11 10  1  0
 12  5  2  0
 13  4  1  0
 13 19  1  0
 14 16  1  0
 15 14  1  0
 17 18  1  0
 17 19  1  0
 18 20  1  0
 19 15  1  0
 20 16  1  0
 21 13  2  0
 22 23  2  0
 23 42  1  0
 24 23  1  0
 24 27  1  0
 25 22  1  0
 25 26  1  0
 26 24  2  0
 27 28  1  0
 28 29  2  0
 30 33  1  0
 30 29  1  0
 31 30  2  0
 32 31  1  0
 32 27  2  0
 33 34  1  0
 34 39  2  0
 34 35  1  0
 35 36  2  0
 36 37  1  0
 37 41  1  0
 38 37  2  0
 39 38  1  0
 40 39  1  0
 42 43  1  0
 43 46  1  0
 43 45  1  0
 44 42  2  0
 47 48  1  0
 47 22  1  0
 49 47  1  0
 50 51  1  0
 51 52  1  0
 53 64  2  0
 54 52  1  0
 54 59  1  0
 55 63  1  0
 55 65  1  0
 56 58  1  0
 57 63  1  0
 58 59  2  0
 58 57  1  0
 60 54  2  0
 61 60  1  0
 61 56  2  0
 62 56  1  0
 62 55  1  0
 63 53  1  0
 65 67  2  0
 66 65  1  0
 68 66  1  0
 69 78  2  0
 69 74  1  0
 70 66  1  0
 70 74  1  0
 71 70  1  0
 72 73  1  0
 72 71  1  0
 73 69  1  0
 74 75  2  0
 75 76  1  0
 77 76  2  0
 78 77  1  0
 79 53  1  0
 79 80  1  0
 79 89  1  0
 80 83  1  0
 81 85  1  0
 81 80  1  0
 82 81  2  0
 85 84  1  0
 87 88  1  0
 87 85  1  0
 87 86  1  0
 89 92  1  1
 89 90  1  0
 91 89  1  0
 93  1  1  0
 94 96  1  1
 94 93  1  0
 95 94  1  0
 97 94  1  0
M  ISO  4   5 100  20 100  51 101  52 101
M  END
>  <TORSDO>  (35) 
F 23

>  <SCORE>  (35) 
-12.459

>  <name>  (35) 
34

>  <ligand_id>  (35) 
34

>  <original_smiles>  (35) 
[H]c1c([H])c([H])c2c(c1[H])C([H])([H])C([H])([H])C([H])([H])C2([H])N([H])C(=O)C1([H])N(C(=O)C([H])(N([H])C(=O)C([H])(N([H])C([H])([H])[H])C([H])([H])[H])C(C([H])([H])[H])(C([H])([H])[H])C([H])([H])[H])C([H])([H])c2c([H])c(OC([H])([H])C([H])([H])N(C([H])([H])C(F)(F)F)C([H])([H])C([H])([H])C([H])([H])C(=O)N3C([H])([H])C([H])([H])N(C(=O)N4C([H])([H])C([H])([H])C([H])([H])C([H])(n5nc(-c6c([H])c([H])c(Oc7c([H])c([H])c(F)c([H])c7F)c([H])c6[H])c(C(=O)N([H])[H])c5N([H])[H])C4([H])[H])C([H])([H])C([H])([H])C3([H])[H])c([H])c([H])c2C1([H])[H]

>  <smiles>  (35) 
[H]c1c([H])c([H])c2c(c1[H])C([H])([H])C([H])([H])C([H])([H])C2([H])N([H])C(=O)C1([H])N(C(=O)C([H])(N([H])C(=O)C([H])(N([H])C([H])([H])[H])C([H])([H])[H])C(C([H])([H])[H])(C([H])([H])[H])C([H])([H])[H])C([H])([H])c2c([H])c(OC([H])([H])C([H])([H])N(C([H])([H])C(F)(F)F)C([H])([H])C([H])([H])C([H])([H])C(=O)N3C([H])([H])C([H])([H])N(C(=O)N4C([H])([H])C([H])([H])C([H])([H])C([H])(n5nc(-c6c([H])c([H])c(Oc7c([H])c([H])c(F)c([H])c7F)c([H])c6[H])c(C(=O)N([H])[H])c5N([H])[H])C4([H])[H])C([H])([H])C([H])([H])C3([H])[H])c([H])c([H])c2C1([H])[H]

$$$$
35:0:0
     RDKit          3D

 93101  0  0  1  0  0  0  0  0999 V2000
  -30.0370  -21.6680   20.7790 C   0  0  0  0  0  2  0  0  0  0  0  0
  -31.2340  -19.3830   20.3960 C   0  0  0  0  0  3  0  0  0  0  0  0
  -28.8790  -17.9210   20.5900 C   0  0  0  0  0  3  0  0  0  0  0  0
  -30.0230  -20.1150   20.5400 C   0  0  0  0  0  0  0  0  0  0  0  0
  -30.0890  -17.1770   20.4910 C   0  0  0  0  0  0  0  0  0  0  0  0
  -31.2780  -17.9570   20.3780 C   0  0  0  0  0  0  0  0  0  0  0  0
  -28.8410  -19.3450   20.6200 C   0  0  0  0  0  0  0  0  0  0  0  0
  -32.4930  -17.3750   20.2810 F   0  0  0  0  0  0  0  0  0  0  0  0
  -27.6510  -19.9790   20.7560 F   0  0  0  0  0  0  0  0  0  0  0  0
  -30.7520  -14.6770   20.0660 C   0  0  0  0  0  0  0  0  0  0  0  0
  -30.4300  -12.4880   18.9340 C   0  0  0  0  0  2  0  0  0  0  0  0
  -29.4250  -12.6980   17.7810 C   0  0  0  0  0  2  0  0  0  0  0  0
  -27.9750  -12.5480   18.2850 C   0  0  0  0  0  2  0  0  0  0  0  0
  -27.7050  -13.3590   19.5810 C   0  0  0  0  0  3  0  0  0  0  0  0
  -28.8230  -13.1380   20.6250 C   0  0  0  0  0  2  0  0  0  0  0  0
  -30.1060  -13.4710   19.9870 N   0  0  0  0  0  0  0  0  0  0  0  0
  -31.8860  -14.8160   19.6080 O   0  0  0  0  0  0  0  0  0  0  0  0
  -29.9880  -15.7140   20.5270 N   0  0  0  0  0  0  0  0  0  0  0  0
  -29.1060  -15.3780   20.8820 H   0  0  0  0  0  0  0  0  0  0  0  0
  -25.3610  -13.9640   20.4500 C   0  0  0  0  0  0  0  0  0  0  0  0
  -24.3050  -13.1920   20.8530 C   0  0  0  0  0  0  0  0  0  0  0  0
  -24.7450  -11.8370   20.7490 C   0  0  0  0  0  0  0  0  0  0  0  0
  -26.3790  -13.0790   20.1290 N   0  0  0  0  0  0  0  0  0  0  0  0
  -26.0150  -11.7930   20.3660 N   0  0  0  0  0  0  0  0  0  0  0  0
  -24.0090  -10.5780   20.9350 C   0  0  0  0  0  0  0  0  0  0  0  0
  -24.4520   -9.5950   21.8470 C   0  0  0  0  0  3  0  0  0  0  0  0
  -23.7200   -8.4000   22.0240 C   0  0  0  0  0  3  0  0  0  0  0  0
  -22.5310   -8.1820   21.2880 C   0  0  0  0  0  0  0  0  0  0  0  0
  -22.1060   -9.1550   20.3660 C   0  0  0  0  0  3  0  0  0  0  0  0
  -22.8380  -10.3400   20.1870 C   0  0  0  0  0  3  0  0  0  0  0  0
  -21.7690   -7.0410   21.3760 O   0  0  0  0  0  0  0  0  0  0  0  0
  -21.7100   -6.3010   22.5290 C   0  0  0  0  0  0  0  0  0  0  0  0
  -21.2490   -6.8530   23.7450 C   0  0  0  0  0  3  0  0  0  0  0  0
  -21.1370   -6.0380   24.8890 C   0  0  0  0  0  3  0  0  0  0  0  0
  -21.4750   -4.6740   24.8190 C   0  0  0  0  0  0  0  0  0  0  0  0
  -21.9280   -4.1210   23.6080 C   0  0  0  0  0  3  0  0  0  0  0  0
  -22.0420   -4.9330   22.4660 C   0  0  0  0  0  0  0  0  0  0  0  0
  -22.4590   -4.3890   21.2960 F   0  0  0  0  0  0  0  0  0  0  0  0
  -21.3590   -3.8900   25.9170 F   0  0  0  0  0  0  0  0  0  0  0  0
  -22.9320  -13.6790   21.2210 C   0  0  0  0  0  0  0  0  0  0  0  0
  -22.2440  -12.9640   22.1040 N   0  0  0  0  0  0  0  0  0  0  0  0
  -22.4810  -14.7260   20.7610 O   0  0  0  0  0  0  0  0  0  0  0  0
  -22.6220  -12.1160   22.4990 H   0  0  0  0  0  0  0  0  0  0  0  0
  -21.3260  -13.2700   22.3910 H   0  0  0  0  0  0  0  0  0  0  0  0
  -25.5350  -15.3370   20.3070 N   0  0  0  0  0  0  0  0  0  0  0  0
  -24.7740  -15.9890   20.4560 H   0  0  0  0  0  0  0  0  0  0  0  0
  -26.3500  -15.7700   19.8920 H   0  0  0  0  0  0  0  0  0  0  0  0
  -29.2650  -22.3060   18.5070 C   0  0  0  0  0  1  0  0  0  0  0  0
  -29.1690  -22.6010   19.9570 N   0  0  2  0  0  4  0  0  0  0  0  0
  -28.2220  -22.3740   20.2270 H   0  0  0  0  0  0  0  0  0  0  0  0
  -29.3740  -24.0830   20.2790 C   0  0  0  0  0  3  0  0  0  0  0  0
  -28.2770  -25.1020   19.7560 C   0  0  0  0  0  3  0  0  0  0  0  0
  -28.4220  -26.5410   20.0570 O   0  0  0  0  0  0  0  0  0  0  0  0
  -24.5290  -31.7450   23.1460 C   0  0  0  0  0  0  0  0  0  0  0  0
  -27.2720  -27.3410   20.0040 C   0  0  0  0  0  0  0  0  0  0  0  0
  -23.3640  -30.3460   21.4790 C   0  0  0  0  0  3  0  0  0  0  0  0
  -24.8570  -28.8710   20.0230 C   0  0  0  0  0  0  0  0  0  0  0  0
  -25.8920  -30.7450   21.2990 C   0  0  0  0  0  2  0  0  0  0  0  0
  -26.0110  -29.3850   20.6290 C   0  0  0  0  0  0  0  0  0  0  0  0
  -27.2200  -28.6320   20.6110 C   0  0  0  0  0  3  0  0  0  0  0  0
  -26.0920  -26.8800   19.3690 C   0  0  0  0  0  3  0  0  0  0  0  0
  -24.9000  -27.6230   19.3830 C   0  0  0  0  0  3  0  0  0  0  0  0
  -23.5970  -29.7060   20.0850 C   0  0  0  0  0  2  0  0  0  0  0  0
  -24.6130  -30.9610   22.0330 N   0  0  0  0  0  0  0  0  0  0  0  0
  -23.4390  -31.9810   23.6860 O   0  0  0  0  0  0  0  0  0  0  0  0
  -22.7320  -29.2910   22.4170 C   0  0  0  0  0  0  0  0  0  0  0  0
  -21.4160  -29.0640   22.2720 N   0  0  0  0  0  0  0  0  0  0  0  0
  -23.4240  -28.6810   23.2360 O   0  0  0  0  0  0  0  0  0  0  0  0
  -20.9150  -29.6130   21.5870 H   0  0  0  0  0  0  0  0  0  0  0  0
  -18.0800  -27.7370   22.7140 C   0  0  0  0  0  0  0  0  0  0  0  0
  -20.6230  -28.0880   23.0210 C   0  0  0  0  0  3  0  0  0  0  0  0
  -20.7860  -26.6680   22.4320 C   0  0  0  0  0  2  0  0  0  0  0  0
  -19.7110  -26.3130   21.4000 C   0  0  0  0  0  2  0  0  0  0  0  0
  -18.3150  -26.4020   22.0270 C   0  0  0  0  0  2  0  0  0  0  0  0
  -19.1640  -28.5350   23.1670 C   0  0  0  0  0  0  0  0  0  0  0  0
  -18.8900  -29.7820   23.7700 C   0  0  0  0  0  3  0  0  0  0  0  0
  -17.5660  -30.2340   23.9220 C   0  0  0  0  0  3  0  0  0  0  0  0
  -16.4960  -29.4320   23.4860 C   0  0  0  0  0  3  0  0  0  0  0  0
  -16.7530  -28.1860   22.8880 C   0  0  0  0  0  3  0  0  0  0  0  0
  -25.7940  -32.4000   23.7810 C   0  0  0  0  0  3  0  0  0  0  0  0
  -26.3240  -31.6270   25.0510 C   0  0  1  0  0  0  0  0  0  0  0  0
  -25.2320  -31.3450   26.1100 C   0  0  0  0  0  1  0  0  0  0  0  0
  -26.9440  -30.2710   24.6420 C   0  0  0  0  0  1  0  0  0  0  0  0
  -27.4480  -32.4440   25.7310 C   0  0  0  0  0  1  0  0  0  0  0  0
  -25.4510  -33.7870   24.1280 N   0  0  0  0  0  0  0  0  0  0  0  0
  -25.7590  -34.8560   23.3820 C   0  0  0  0  0  0  0  0  0  0  0  0
  -26.4340  -34.7810   22.3510 O   0  0  0  0  0  0  0  0  0  0  0  0
  -24.8590  -33.9180   24.9350 H   0  0  0  0  0  0  0  0  0  0  0  0
  -23.9970  -36.6170   23.0350 C   0  0  0  0  0  1  0  0  0  0  0  0
  -25.2370  -36.2260   23.8550 C   0  0  0  0  0  3  0  0  0  0  0  0
  -27.3370  -37.1490   24.7320 C   0  0  0  0  0  1  0  0  0  0  0  0
  -26.2480  -37.3040   23.7710 N   0  0  0  0  0  0  0  0  0  0  0  0
  -25.8200  -38.2130   23.9200 H   0  0  0  0  0  0  0  0  0  0  0  0
  2  4  1  0
  3  7  1  0
  4  7  2  0
  4  1  1  0
  5 18  1  0
  5  3  2  0
  6  2  2  0
  6  5  1  0
  7  9  1  0
  8  6  1  0
 10 18  1  0
 11 16  1  0
 12 13  1  0
 12 11  1  0
 14 13  1  0
 14 23  1  0
 14 15  1  0
 16 10  1  0
 16 15  1  0
 17 10  2  0
 18 19  1  0
 20 21  2  0
 21 40  1  0
 22 21  1  0
 22 25  1  0
 23 24  1  0
 23 20  1  0
 24 22  2  0
 25 26  1  0
 26 27  2  0
 28 31  1  0
 28 27  1  0
 29 28  2  0
 30 29  1  0
 30 25  2  0
 31 32  1  0
 32 33  1  0
 33 34  2  0
 35 34  1  0
 35 39  1  0
 36 35  2  0
 37 32  2  0
 37 36  1  0
 38 37  1  0
 40 41  1  0
 41 44  1  0
 41 43  1  0
 42 40  2  0
 45 20  1  0
 45 46  1  0
 47 45  1  0
 48 49  1  0
 49 50  1  1
 49 51  1  0
 49  1  1  0
 52 53  1  0
 52 51  2  0
 54 65  2  0
 55 53  1  0
 55 60  1  0
 56 64  1  0
 56 66  1  0
 57 63  1  0
 57 59  1  0
 58 64  1  0
 59 58  1  0
 60 59  2  0
 61 62  1  0
 61 55  2  0
 62 57  2  0
 63 56  1  0
 64 54  1  0
 66 68  2  0
 67 66  1  0
 69 67  1  0
 70 79  2  0
 70 75  1  0
 71 67  1  0
 71 75  1  0
 72 71  1  0
 73 74  1  0
 73 72  1  0
 74 70  1  0
 75 76  2  0
 76 77  1  0
 78 77  2  0
 79 78  1  0
 80 54  1  0
 80 85  1  0
 80 81  1  0
 81 84  1  1
 81 82  1  0
 83 81  1  0
 85 88  1  0
 86 90  1  0
 86 85  1  0
 87 86  2  0
 90 89  1  0
 92 90  1  0
 92 93  1  0
 92 91  1  0
M  ISO  4  10 100  18 100  52 101  53 101
M  END
>  <TORSDO>  (36) 
F 20

>  <SCORE>  (36) 
-13.705

>  <name>  (36) 
35

>  <ligand_id>  (36) 
35

>  <original_smiles>  (36) 
[H]c1c([H])c([H])c2c(c1[H])C([H])([H])C([H])([H])C([H])([H])C2([H])N([H])C(=O)C1([H])N(C(=O)C([H])(N([H])C(=O)C([H])(N([H])C([H])([H])[H])C([H])([H])[H])C(C([H])([H])[H])(C([H])([H])[H])C([H])([H])[H])C([H])([H])c2c([H])c(OC([H])([H])C([H])([H])[N+]([H])(C([H])([H])[H])C([H])([H])c3c([H])c(F)c(N([H])C(=O)N4C([H])([H])C([H])([H])C([H])([H])C([H])(n5nc(-c6c([H])c([H])c(Oc7c([H])c([H])c(F)c([H])c7F)c([H])c6[H])c(C(=O)N([H])[H])c5N([H])[H])C4([H])[H])c([H])c3F)c([H])c([H])c2C1([H])[H]

>  <smiles>  (36) 
[H]c1c([H])c([H])c2c(c1[H])C([H])([H])C([H])([H])C([H])([H])C2([H])N([H])C(=O)C1([H])N(C(=O)C([H])(N([H])C(=O)C([H])(N([H])C([H])([H])[H])C([H])([H])[H])C(C([H])([H])[H])(C([H])([H])[H])C([H])([H])[H])C([H])([H])c2c([H])c(OC([H])([H])C([H])([H])[N+]([H])(C([H])([H])[H])C([H])([H])c3c([H])c(F)c(N([H])C(=O)N4C([H])([H])C([H])([H])C([H])([H])C([H])(n5nc(-c6c([H])c([H])c(Oc7c([H])c([H])c(F)c([H])c7F)c([H])c6[H])c(C(=O)N([H])[H])c5N([H])[H])C4([H])[H])c([H])c3F)c([H])c([H])c2C1([H])[H]

$$$$
36:0:0
     RDKit          3D

 94103  0  0  1  0  0  0  0  0999 V2000
  -30.4540  -22.3580   22.7500 C   0  0  0  0  0  2  0  0  0  0  0  0
  -29.2930  -23.3310   22.8400 C   0  0  0  0  0  2  0  0  0  0  0  0
  -30.0430  -22.0720   21.3020 C   0  0  0  0  0  3  0  0  0  0  0  0
  -29.0350  -23.1590   21.4040 N   0  0  2  0  0  4  0  0  0  0  0  0
  -28.1220  -22.7440   21.2490 H   0  0  0  0  0  0  0  0  0  0  0  0
  -29.4460  -20.6410   21.1160 C   0  0  0  0  0  0  0  0  0  0  0  0
  -31.2550  -18.3910   22.2540 C   0  0  0  0  0  2  0  0  0  0  0  0
  -31.6800  -19.5670   21.3710 C   0  0  0  0  0  2  0  0  0  0  0  0
  -30.0440  -18.1700   21.3230 C   0  0  0  0  0  3  0  0  0  0  0  0
  -30.3150  -19.5550   20.8470 N   0  0  0  0  0  0  0  0  0  0  0  0
  -28.2400  -20.4510   21.2960 O   0  0  0  0  0  0  0  0  0  0  0  0
  -30.6790  -14.6330   20.1540 C   0  0  0  0  0  0  0  0  0  0  0  0
  -30.3240  -12.4400   19.0980 C   0  0  0  0  0  2  0  0  0  0  0  0
  -29.3810  -12.6460   17.8980 C   0  0  0  0  0  2  0  0  0  0  0  0
  -27.9140  -12.5090   18.3480 C   0  0  0  0  0  2  0  0  0  0  0  0
  -27.5930  -13.3390   19.6250 C   0  0  0  0  0  3  0  0  0  0  0  0
  -28.6760  -13.1690   20.7160 C   0  0  0  0  0  2  0  0  0  0  0  0
  -29.9860  -13.4570   20.1120 N   0  0  0  0  0  0  0  0  0  0  0  0
  -31.8170  -14.7080   19.6770 O   0  0  0  0  0  0  0  0  0  0  0  0
  -30.3680  -17.0240   20.3140 C   0  0  0  0  0  0  0  0  0  0  0  0
  -30.0360  -15.7380   20.6160 N   0  0  0  0  0  0  0  0  0  0  0  0
  -30.9490  -17.3360   19.2640 O   0  0  0  0  0  0  0  0  0  0  0  0
  -29.2660  -15.5980   21.2520 H   0  0  0  0  0  0  0  0  0  0  0  0
  -25.2060  -13.8940   20.4060 C   0  0  0  0  0  0  0  0  0  0  0  0
  -24.1600  -13.1020   20.7920 C   0  0  0  0  0  0  0  0  0  0  0  0
  -24.6400  -11.7590   20.7400 C   0  0  0  0  0  0  0  0  0  0  0  0
  -26.2580  -13.0340   20.1360 N   0  0  0  0  0  0  0  0  0  0  0  0
  -25.9240  -11.7440   20.4010 N   0  0  0  0  0  0  0  0  0  0  0  0
  -23.9350  -10.4860   20.9390 C   0  0  0  0  0  0  0  0  0  0  0  0
  -24.3870   -9.5250   21.8700 C   0  0  0  0  0  3  0  0  0  0  0  0
  -23.6820   -8.3170   22.0540 C   0  0  0  0  0  3  0  0  0  0  0  0
  -22.5070   -8.0620   21.3090 C   0  0  0  0  0  0  0  0  0  0  0  0
  -22.0770   -9.0070   20.3620 C   0  0  0  0  0  3  0  0  0  0  0  0
  -22.7830  -10.2070   20.1770 C   0  0  0  0  0  3  0  0  0  0  0  0
  -21.7720   -6.9040   21.4040 O   0  0  0  0  0  0  0  0  0  0  0  0
  -21.7200   -6.1770   22.5660 C   0  0  0  0  0  0  0  0  0  0  0  0
  -21.2710   -6.7410   23.7790 C   0  0  0  0  0  3  0  0  0  0  0  0
  -21.1690   -5.9370   24.9330 C   0  0  0  0  0  3  0  0  0  0  0  0
  -21.5030   -4.5720   24.8730 C   0  0  0  0  0  0  0  0  0  0  0  0
  -21.9420   -4.0080   23.6620 C   0  0  0  0  0  3  0  0  0  0  0  0
  -22.0470   -4.8080   22.5120 C   0  0  0  0  0  0  0  0  0  0  0  0
  -22.4520   -4.2530   21.3440 F   0  0  0  0  0  0  0  0  0  0  0  0
  -21.3960   -3.7980   25.9790 F   0  0  0  0  0  0  0  0  0  0  0  0
  -22.7630  -13.5600   21.1010 C   0  0  0  0  0  0  0  0  0  0  0  0
  -22.0610  -12.8490   21.9780 N   0  0  0  0  0  0  0  0  0  0  0  0
  -22.2990  -14.5830   20.5950 O   0  0  0  0  0  0  0  0  0  0  0  0
  -22.4480  -12.0250   22.4160 H   0  0  0  0  0  0  0  0  0  0  0  0
  -21.1240  -13.1370   22.2210 H   0  0  0  0  0  0  0  0  0  0  0  0
  -25.3420  -15.2710   20.2380 N   0  0  0  0  0  0  0  0  0  0  0  0
  -24.5620  -15.9060   20.3690 H   0  0  0  0  0  0  0  0  0  0  0  0
  -26.1740  -15.7330   19.8910 H   0  0  0  0  0  0  0  0  0  0  0  0
  -29.2540  -24.4010   20.5830 C   0  0  0  0  0  2  0  0  0  0  0  0
  -28.3110  -25.5810   20.9720 C   0  0  0  0  0  2  0  0  0  0  0  0
  -28.4230  -26.7540   20.1360 O   0  0  0  0  0  0  0  0  0  0  0  0
  -24.5910  -31.9310   23.2270 C   0  0  0  0  0  0  0  0  0  0  0  0
  -27.2750  -27.5190   20.1260 C   0  0  0  0  0  0  0  0  0  0  0  0
  -23.3980  -30.5140   21.5870 C   0  0  0  0  0  3  0  0  0  0  0  0
  -24.8660  -29.0020   20.1470 C   0  0  0  0  0  0  0  0  0  0  0  0
  -25.9200  -30.9040   21.3850 C   0  0  0  0  0  2  0  0  0  0  0  0
  -26.0210  -29.5370   20.7360 C   0  0  0  0  0  0  0  0  0  0  0  0
  -27.2310  -28.8040   20.7180 C   0  0  0  0  0  3  0  0  0  0  0  0
  -26.1080  -27.0070   19.5200 C   0  0  0  0  0  3  0  0  0  0  0  0
  -24.9060  -27.7390   19.5310 C   0  0  0  0  0  3  0  0  0  0  0  0
  -23.6120  -29.8460   20.2030 C   0  0  0  0  0  2  0  0  0  0  0  0
  -24.6550  -31.1320   22.1230 N   0  0  0  0  0  0  0  0  0  0  0  0
  -23.5080  -32.1870   23.7720 O   0  0  0  0  0  0  0  0  0  0  0  0
  -22.7620  -29.4820   22.5470 C   0  0  0  0  0  0  0  0  0  0  0  0
  -21.4390  -29.2820   22.4220 N   0  0  0  0  0  0  0  0  0  0  0  0
  -23.4540  -28.8700   23.3640 O   0  0  0  0  0  0  0  0  0  0  0  0
  -20.9410  -29.8270   21.7320 H   0  0  0  0  0  0  0  0  0  0  0  0
  -18.0790  -28.0460   22.9310 C   0  0  0  0  0  0  0  0  0  0  0  0
  -20.6350  -28.3330   23.1940 C   0  0  0  0  0  3  0  0  0  0  0  0
  -20.7520  -26.9050   22.6120 C   0  0  0  0  0  2  0  0  0  0  0  0
  -19.6490  -26.5730   21.6020 C   0  0  0  0  0  2  0  0  0  0  0  0
  -18.2670  -26.7000   22.2510 C   0  0  0  0  0  2  0  0  0  0  0  0
  -19.1910  -28.8190   23.3590 C   0  0  0  0  0  0  0  0  0  0  0  0
  -18.9610  -30.0770   23.9560 C   0  0  0  0  0  3  0  0  0  0  0  0
  -17.6530  -30.5650   24.1270 C   0  0  0  0  0  3  0  0  0  0  0  0
  -16.5550  -29.7890   23.7170 C   0  0  0  0  0  3  0  0  0  0  0  0
  -16.7690  -28.5310   23.1260 C   0  0  0  0  0  3  0  0  0  0  0  0
  -25.8700  -32.5770   23.8450 C   0  0  0  0  0  3  0  0  0  0  0  0
  -26.4020  -31.8120   25.1200 C   0  0  1  0  0  0  0  0  0  0  0  0
  -25.3150  -31.5550   26.1910 C   0  0  0  0  0  1  0  0  0  0  0  0
  -27.0000  -30.4420   24.7220 C   0  0  0  0  0  1  0  0  0  0  0  0
  -27.5430  -32.6200   25.7760 C   0  0  0  0  0  1  0  0  0  0  0  0
  -25.5470  -33.9720   24.1720 N   0  0  0  0  0  0  0  0  0  0  0  0
  -25.8640  -35.0260   23.4090 C   0  0  0  0  0  0  0  0  0  0  0  0
  -26.5310  -34.9270   22.3770 O   0  0  0  0  0  0  0  0  0  0  0  0
  -24.9540  -34.1230   24.9750 H   0  0  0  0  0  0  0  0  0  0  0  0
  -24.1130  -36.7960   23.0470 C   0  0  0  0  0  1  0  0  0  0  0  0
  -25.3580  -36.4100   23.8620 C   0  0  0  0  0  3  0  0  0  0  0  0
  -27.4780  -37.3190   24.6930 C   0  0  0  0  0  1  0  0  0  0  0  0
  -26.3770  -37.4750   23.7460 N   0  0  0  0  0  0  0  0  0  0  0  0
  -25.9600  -38.3900   23.8940 H   0  0  0  0  0  0  0  0  0  0  0  0
  1  2  1  0
  3  6  1  0
  3  4  1  0
  3  1  1  0
  4  2  1  0
  4  5  1  1
  6 11  2  0
  8  7  1  0
  9 20  1  0
  9  7  1  0
 10  6  1  0
 10  9  1  0
 10  8  1  0
 12 21  1  0
 13 18  1  0
 14 15  1  0
 14 13  1  0
 16 15  1  0
 16 27  1  0
 16 17  1  0
 18 12  1  0
 18 17  1  0
 19 12  2  0
 20 21  1  0
 21 23  1  0
 22 20  2  0
 24 25  2  0
 25 44  1  0
 26 25  1  0
 26 29  1  0
 27 28  1  0
 27 24  1  0
 28 26  2  0
 29 30  1  0
 30 31  2  0
 32 35  1  0
 32 31  1  0
 33 32  2  0
 34 33  1  0
 34 29  2  0
 35 36  1  0
 36 37  1  0
 37 38  2  0
 39 38  1  0
 39 43  1  0
 40 39  2  0
 41 36  2  0
 41 40  1  0
 42 41  1  0
 44 45  1  0
 45 48  1  0
 45 47  1  0
 46 44  2  0
 49 50  1  0
 49 24  1  0
 51 49  1  0
 52 53  1  0
 52  4  1  0
 54 53  1  0
 55 66  2  0
 56 54  1  0
 56 61  1  0
 57 65  1  0
 57 67  1  0
 58 64  1  0
 58 60  1  0
 59 65  1  0
 60 59  1  0
 61 60  2  0
 62 63  1  0
 62 56  2  0
 63 58  2  0
 64 57  1  0
 65 55  1  0
 67 69  2  0
 68 67  1  0
 70 68  1  0
 71 80  2  0
 71 76  1  0
 72 68  1  0
 72 76  1  0
 73 72  1  0
 74 75  1  0
 74 73  1  0
 75 71  1  0
 76 77  2  0
 77 78  1  0
 79 78  2  0
 80 79  1  0
 81 55  1  0
 81 86  1  0
 81 82  1  0
 82 85  1  1
 82 83  1  0
 84 82  1  0
 86 89  1  0
 87 91  1  0
 87 86  1  0
 88 87  2  0
 91 90  1  0
 93 91  1  0
 93 94  1  0
 93 92  1  0
M  ISO  4  12 100  21 100  53 101  54 101
M  END
>  <TORSDO>  (37) 
F 19

>  <SCORE>  (37) 
-14.136

>  <name>  (37) 
36

>  <ligand_id>  (37) 
36

>  <original_smiles>  (37) 
[H]c1c([H])c([H])c2c(c1[H])C([H])([H])C([H])([H])C([H])([H])C2([H])N([H])C(=O)C1([H])N(C(=O)C([H])(N([H])C(=O)C([H])(N([H])C([H])([H])[H])C([H])([H])[H])C(C([H])([H])[H])(C([H])([H])[H])C([H])([H])[H])C([H])([H])c2c([H])c(OC([H])([H])C([H])([H])[N+]3([H])C([H])([H])C([H])([H])C3([H])C(=O)N3C([H])([H])C([H])([H])C3([H])C(=O)N([H])C(=O)N3C([H])([H])C([H])([H])C([H])([H])C([H])(n4nc(-c5c([H])c([H])c(Oc6c([H])c([H])c(F)c([H])c6F)c([H])c5[H])c(C(=O)N([H])[H])c4N([H])[H])C3([H])[H])c([H])c([H])c2C1([H])[H]

>  <smiles>  (37) 
[H]c1c([H])c([H])c2c(c1[H])C([H])([H])C([H])([H])C([H])([H])C2([H])N([H])C(=O)C1([H])N(C(=O)C([H])(N([H])C(=O)C([H])(N([H])C([H])([H])[H])C([H])([H])[H])C(C([H])([H])[H])(C([H])([H])[H])C([H])([H])[H])C([H])([H])c2c([H])c(OC([H])([H])C([H])([H])[N+]3([H])C([H])([H])C([H])([H])C3([H])C(=O)N3C([H])([H])C([H])([H])C3([H])C(=O)N([H])C(=O)N3C([H])([H])C([H])([H])C([H])([H])C([H])(n4nc(-c5c([H])c([H])c(Oc6c([H])c([H])c(F)c([H])c6F)c([H])c5[H])c(C(=O)N([H])[H])c4N([H])[H])C3([H])[H])c([H])c([H])c2C1([H])[H]

$$$$
37:0:0
     RDKit          3D

101109  0  0  1  0  0  0  0  0999 V2000
  -28.4520  -21.0130   21.8360 C   0  0  0  0  0  2  0  0  0  0  0  0
  -27.3220  -19.1510   20.6920 C   0  0  0  0  0  1  0  0  0  0  0  0
  -28.6250  -19.7820   21.0170 N   0  0  1  0  0  4  0  0  0  0  0  0
  -29.0980  -19.0970   21.5860 H   0  0  0  0  0  0  0  0  0  0  0  0
  -29.4470  -19.9860   19.7900 C   0  0  0  0  0  2  0  0  0  0  0  0
  -33.4330  -18.2570   20.0240 C   0  0  0  0  0  3  0  0  0  0  0  0
  -33.2720  -19.6090   19.6570 C   0  0  0  0  0  3  0  0  0  0  0  0
  -30.8480  -19.3990   19.8890 C   0  0  0  0  0  0  0  0  0  0  0  0
  -32.2980  -17.4670   20.3140 C   0  0  0  0  0  0  0  0  0  0  0  0
  -31.9850  -20.1770   19.5810 C   0  0  0  0  0  0  0  0  0  0  0  0
  -31.0150  -18.0470   20.2530 C   0  0  0  0  0  0  0  0  0  0  0  0
  -31.8420  -21.4880   19.2540 F   0  0  0  0  0  0  0  0  0  0  0  0
  -29.9360  -17.2800   20.5430 F   0  0  0  0  0  0  0  0  0  0  0  0
  -32.8310  -15.1020   19.9340 C   0  0  0  0  0  0  0  0  0  0  0  0
  -32.3050  -12.9030   18.9520 C   0  0  0  0  0  2  0  0  0  0  0  0
  -31.3930  -13.1000   17.7240 C   0  0  0  0  0  2  0  0  0  0  0  0
  -29.9100  -13.1740   18.1360 C   0  0  0  0  0  2  0  0  0  0  0  0
  -29.6610  -14.1540   19.3110 C   0  0  0  0  0  3  0  0  0  0  0  0
  -30.6720  -13.9010   20.4520 C   0  0  0  0  0  2  0  0  0  0  0  0
  -32.0380  -13.9980   19.8980 N   0  0  0  0  0  0  0  0  0  0  0  0
  -33.9040  -15.1870   19.3330 O   0  0  0  0  0  0  0  0  0  0  0  0
  -32.3480  -16.1020   20.6850 N   0  0  0  0  0  0  0  0  0  0  0  0
  -31.5610  -15.8140   21.2470 H   0  0  0  0  0  0  0  0  0  0  0  0
  -27.3640  -15.0970   20.0040 C   0  0  0  0  0  0  0  0  0  0  0  0
  -26.1970  -14.4840   20.3730 C   0  0  0  0  0  0  0  0  0  0  0  0
  -26.4610  -13.0810   20.3440 C   0  0  0  0  0  0  0  0  0  0  0  0
  -28.2770  -14.0780   19.7820 N   0  0  0  0  0  0  0  0  0  0  0  0
  -27.7340  -12.8590   20.0380 N   0  0  0  0  0  0  0  0  0  0  0  0
  -25.5630  -11.9350   20.5340 C   0  0  0  0  0  0  0  0  0  0  0  0
  -25.7770  -10.9920   21.5640 C   0  0  0  0  0  3  0  0  0  0  0  0
  -24.8880   -9.9100   21.7390 C   0  0  0  0  0  3  0  0  0  0  0  0
  -23.7700   -9.7630   20.8840 C   0  0  0  0  0  0  0  0  0  0  0  0
  -23.5750  -10.6910   19.8460 C   0  0  0  0  0  3  0  0  0  0  0  0
  -24.4640  -11.7650   19.6690 C   0  0  0  0  0  3  0  0  0  0  0  0
  -22.8690   -8.7290   20.9630 O   0  0  0  0  0  0  0  0  0  0  0  0
  -22.5050   -8.1820   22.1670 C   0  0  0  0  0  0  0  0  0  0  0  0
  -21.9430   -8.9610   23.2010 C   0  0  0  0  0  3  0  0  0  0  0  0
  -21.5190   -8.3460   24.3960 C   0  0  0  0  0  3  0  0  0  0  0  0
  -21.6480   -6.9540   24.5560 C   0  0  0  0  0  0  0  0  0  0  0  0
  -22.2040   -6.1750   23.5260 C   0  0  0  0  0  3  0  0  0  0  0  0
  -22.6280   -6.7880   22.3340 C   0  0  0  0  0  0  0  0  0  0  0  0
  -23.1440   -6.0300   21.3360 F   0  0  0  0  0  0  0  0  0  0  0  0
  -21.2340   -6.3600   25.7010 F   0  0  0  0  0  0  0  0  0  0  0  0
  -24.8810  -15.1550   20.6460 C   0  0  0  0  0  0  0  0  0  0  0  0
  -24.0840  -14.5950   21.5490 N   0  0  0  0  0  0  0  0  0  0  0  0
  -24.5740  -16.2090   20.0940 O   0  0  0  0  0  0  0  0  0  0  0  0
  -24.3430  -13.7380   22.0160 H   0  0  0  0  0  0  0  0  0  0  0  0
  -23.1990  -15.0260   21.7750 H   0  0  0  0  0  0  0  0  0  0  0  0
  -27.7210  -16.4310   19.8240 N   0  0  0  0  0  0  0  0  0  0  0  0
  -27.0620  -17.1900   19.9510 H   0  0  0  0  0  0  0  0  0  0  0  0
  -28.6470  -16.7390   19.5600 H   0  0  0  0  0  0  0  0  0  0  0  0
  -29.6890  -21.3710   22.6900 C   0  0  0  0  0  2  0  0  0  0  0  0
  -29.8120  -22.8900   22.9710 C   0  0  0  0  0  2  0  0  0  0  0  0
  -31.7090  -23.5860   21.5220 C   0  0  0  0  0  1  0  0  0  0  0  0
  -30.2510  -23.6860   21.7870 N   0  0  2  0  0  4  0  0  0  0  0  0
  -29.7860  -23.3050   20.9730 H   0  0  0  0  0  0  0  0  0  0  0  0
  -29.7740  -25.0980   21.8320 C   0  0  0  0  0  2  0  0  0  0  0  0
  -28.5260  -25.3020   20.9460 C   0  0  0  0  0  3  0  0  0  0  0  0
  -27.8970  -24.1340   20.7700 F   0  0  0  0  0  0  0  0  0  0  0  0
  -28.8290  -25.9370   19.5670 C   0  0  0  0  0  2  0  0  0  0  0  0
  -28.6960  -27.3620   19.6180 O   0  0  0  0  0  0  0  0  0  0  0  0
  -24.4900  -31.8610   23.1560 C   0  0  0  0  0  0  0  0  0  0  0  0
  -27.4330  -27.9090   19.7140 C   0  0  0  0  0  0  0  0  0  0  0  0
  -23.3560  -30.4250   21.4930 C   0  0  0  0  0  3  0  0  0  0  0  0
  -24.8900  -29.1290   19.9250 C   0  0  0  0  0  0  0  0  0  0  0  0
  -25.8160  -31.0680   21.2030 C   0  0  0  0  0  2  0  0  0  0  0  0
  -26.0120  -29.7480   20.4860 C   0  0  0  0  0  0  0  0  0  0  0  0
  -27.2840  -29.1480   20.3750 C   0  0  0  0  0  3  0  0  0  0  0  0
  -26.2900  -27.2970   19.1500 C   0  0  0  0  0  3  0  0  0  0  0  0
  -25.0240  -27.8990   19.2600 C   0  0  0  0  0  3  0  0  0  0  0  0
  -23.5670  -29.8440   20.0700 C   0  0  0  0  0  2  0  0  0  0  0  0
  -24.5730  -31.1330   22.0080 N   0  0  0  0  0  0  0  0  0  0  0  0
  -23.4150  -31.9870   23.7580 O   0  0  0  0  0  0  0  0  0  0  0  0
  -22.8680  -29.2900   22.4210 C   0  0  0  0  0  0  0  0  0  0  0  0
  -21.5840  -28.9240   22.2900 N   0  0  0  0  0  0  0  0  0  0  0  0
  -23.6400  -28.7400   23.2110 O   0  0  0  0  0  0  0  0  0  0  0  0
  -21.0100  -29.4280   21.6250 H   0  0  0  0  0  0  0  0  0  0  0  0
  -18.4340  -27.2100   22.7010 C   0  0  0  0  0  0  0  0  0  0  0  0
  -20.9140  -27.8550   23.0290 C   0  0  0  0  0  3  0  0  0  0  0  0
  -21.2480  -26.4680   22.4300 C   0  0  0  0  0  2  0  0  0  0  0  0
  -20.2290  -25.9990   21.3890 C   0  0  0  0  0  2  0  0  0  0  0  0
  -18.8300  -25.9160   22.0080 C   0  0  0  0  0  2  0  0  0  0  0  0
  -19.4130  -28.1270   23.1650 C   0  0  0  0  0  0  0  0  0  0  0  0
  -18.9900  -29.3320   23.7660 C   0  0  0  0  0  3  0  0  0  0  0  0
  -17.6210  -29.6210   23.9180 C   0  0  0  0  0  3  0  0  0  0  0  0
  -16.6570  -28.7010   23.4710 C   0  0  0  0  0  3  0  0  0  0  0  0
  -17.0630  -27.4980   22.8670 C   0  0  0  0  0  3  0  0  0  0  0  0
  -25.7330  -32.5930   23.7550 C   0  0  0  0  0  3  0  0  0  0  0  0
  -26.3010  -31.8950   25.0530 C   0  0  1  0  0  0  0  0  0  0  0  0
  -25.2260  -31.6160   26.1300 C   0  0  0  0  0  1  0  0  0  0  0  0
  -26.9760  -30.5500   24.6960 C   0  0  0  0  0  1  0  0  0  0  0  0
  -27.3930  -32.7830   25.6930 C   0  0  0  0  0  1  0  0  0  0  0  0
  -25.3380  -33.9790   24.0400 N   0  0  0  0  0  0  0  0  0  0  0  0
  -25.6230  -35.0270   23.2550 C   0  0  0  0  0  0  0  0  0  0  0  0
  -26.3190  -34.9350   22.2390 O   0  0  0  0  0  0  0  0  0  0  0  0
  -24.7230  -34.1230   24.8270 H   0  0  0  0  0  0  0  0  0  0  0  0
  -23.8000  -36.6990   22.8160 C   0  0  0  0  0  1  0  0  0  0  0  0
  -25.0460  -36.3950   23.6630 C   0  0  0  0  0  3  0  0  0  0  0  0
  -27.1050  -37.4290   24.5090 C   0  0  0  0  0  1  0  0  0  0  0  0
  -26.0150  -37.5040   23.5400 N   0  0  0  0  0  0  0  0  0  0  0  0
  -25.5520  -38.4020   23.6530 H   0  0  0  0  0  0  0  0  0  0  0  0
  1 52  1  0
  2  3  1  0
  3  4  1  1
  3  1  1  0
  5  8  1  0
  5  3  1  0
  6  9  1  0
  7  6  2  0
  8 11  1  0
  9 22  1  0
 10  7  1  0
 10  8  2  0
 11  9  2  0
 11 13  1  0
 12 10  1  0
 14 22  1  0
 15 20  1  0
 16 17  1  0
 16 15  1  0
 18 17  1  0
 18 27  1  0
 18 19  1  0
 20 14  1  0
 20 19  1  0
 21 14  2  0
 22 23  1  0
 24 25  2  0
 25 44  1  0
 26 25  1  0
 26 29  1  0
 27 24  1  0
 27 28  1  0
 28 26  2  0
 29 30  1  0
 30 31  2  0
 32 35  1  0
 32 31  1  0
 33 32  2  0
 34 33  1  0
 34 29  2  0
 35 36  1  0
 36 41  2  0
 36 37  1  0
 37 38  2  0
 38 39  1  0
 39 43  1  0
 40 39  2  0
 41 40  1  0
 42 41  1  0
 44 45  1  0
 45 48  1  0
 45 47  1  0
 46 44  2  0
 49 50  1  0
 49 24  1  0
 51 49  1  0
 52 53  1  0
 54 55  1  0
 55 57  1  0
 55 53  1  0
 55 56  1  6
 58 59  1  0
 58 57  1  0
 60 61  1  0
 60 58  1  0
 61 63  1  0
 62 73  2  0
 63 68  1  0
 64 72  1  0
 64 74  1  0
 65 71  1  0
 65 67  1  0
 66 72  1  0
 67 66  1  0
 68 67  2  0
 69 70  1  0
 69 63  2  0
 70 65  2  0
 71 64  1  0
 72 62  1  0
 74 76  2  0
 75 74  1  0
 77 75  1  0
 78 87  2  0
 78 83  1  0
 79 75  1  0
 79 83  1  0
 80 79  1  0
 81 82  1  0
 81 80  1  0
 82 78  1  0
 83 84  2  0
 84 85  1  0
 86 85  2  0
 87 86  1  0
 88 62  1  0
 88 93  1  0
 88 89  1  0
 89 92  1  1
 89 90  1  0
 91 89  1  0
 93 96  1  0
 94 98  1  0
 94 93  1  0
 95 94  2  0
 98 97  1  0
100101  1  0
100 98  1  0
100 99  1  0
M  ISO  4  14 100  22 100  60 101  61 101
M  END
>  <TORSDO>  (38) 
F 25

>  <SCORE>  (38) 
-6.955

>  <name>  (38) 
37

>  <ligand_id>  (38) 
37

>  <original_smiles>  (38) 
[H]c1c([H])c([H])c2c(c1[H])C([H])([H])C([H])([H])C([H])([H])C2([H])N([H])C(=O)C1([H])N(C(=O)C([H])(N([H])C(=O)C([H])(N([H])C([H])([H])[H])C([H])([H])[H])C(C([H])([H])[H])(C([H])([H])[H])C([H])([H])[H])C([H])([H])c2c([H])c(OC([H])([H])C([H])(F)C([H])([H])[N+]([H])(C([H])([H])[H])C([H])([H])C([H])([H])C([H])([H])[N+]([H])(C([H])([H])[H])C([H])([H])c3c(F)c([H])c([H])c(N([H])C(=O)N4C([H])([H])C([H])([H])C([H])([H])C([H])(n5nc(-c6c([H])c([H])c(Oc7c([H])c([H])c(F)c([H])c7F)c([H])c6[H])c(C(=O)N([H])[H])c5N([H])[H])C4([H])[H])c3F)c([H])c([H])c2C1([H])[H]

>  <smiles>  (38) 
[H]c1c([H])c([H])c2c(c1[H])C([H])([H])C([H])([H])C([H])([H])C2([H])N([H])C(=O)C1([H])N(C(=O)C([H])(N([H])C(=O)C([H])(N([H])C([H])([H])[H])C([H])([H])[H])C(C([H])([H])[H])(C([H])([H])[H])C([H])([H])[H])C([H])([H])c2c([H])c(OC([H])([H])C([H])(F)C([H])([H])[N+]([H])(C([H])([H])[H])C([H])([H])C([H])([H])C([H])([H])[N+]([H])(C([H])([H])[H])C([H])([H])c3c(F)c([H])c([H])c(N([H])C(=O)N4C([H])([H])C([H])([H])C([H])([H])C([H])(n5nc(-c6c([H])c([H])c(Oc7c([H])c([H])c(F)c([H])c7F)c([H])c6[H])c(C(=O)N([H])[H])c5N([H])[H])C4([H])[H])c3F)c([H])c([H])c2C1([H])[H]

$$$$
38:0:0
     RDKit          3D

 96104  0  0  1  0  0  0  0  0999 V2000
  -29.9300  -23.4490   19.0280 C   0  0  0  0  0  2  0  0  0  0  0  0
  -29.4960  -21.6500   17.4840 C   0  0  0  0  0  1  0  0  0  0  0  0
  -29.3870  -22.0680   18.8900 N   0  0  0  0  0  0  0  0  0  0  0  0
  -30.3070  -21.2220   19.6930 C   0  0  0  0  0  2  0  0  0  0  0  0
  -29.0870  -18.9030   19.3860 C   0  0  0  0  0  3  0  0  0  0  0  0
  -29.0160  -17.5210   19.6920 C   0  0  0  0  0  3  0  0  0  0  0  0
  -31.0080  -17.7000   21.0630 C   0  0  0  0  0  3  0  0  0  0  0  0
  -30.1270  -19.7020   19.9170 C   0  0  0  0  0  0  0  0  0  0  0  0
  -29.9840  -16.8990   20.5180 C   0  0  0  0  0  0  0  0  0  0  0  0
  -31.0780  -19.0770   20.7600 C   0  0  0  0  0  0  0  0  0  0  0  0
  -32.0610  -19.8250   21.3160 F   0  0  0  0  0  0  0  0  0  0  0  0
  -30.6580  -14.5040   20.4660 C   0  0  0  0  0  0  0  0  0  0  0  0
  -30.4190  -12.3210   19.3490 C   0  0  0  0  0  2  0  0  0  0  0  0
  -29.4780  -12.5300   18.1420 C   0  0  0  0  0  2  0  0  0  0  0  0
  -27.9980  -12.3930   18.5580 C   0  0  0  0  0  2  0  0  0  0  0  0
  -27.6560  -13.2170   19.8290 C   0  0  0  0  0  3  0  0  0  0  0  0
  -28.7100  -12.9810   20.9370 C   0  0  0  0  0  2  0  0  0  0  0  0
  -30.0340  -13.2980   20.3770 N   0  0  0  0  0  0  0  0  0  0  0  0
  -31.8070  -14.6990   20.0580 O   0  0  0  0  0  0  0  0  0  0  0  0
  -29.8600  -15.5160   20.8690 N   0  0  0  0  0  0  0  0  0  0  0  0
  -28.9370  -15.2140   21.1450 H   0  0  0  0  0  0  0  0  0  0  0  0
  -25.2510  -13.8240   20.5220 C   0  0  0  0  0  0  0  0  0  0  0  0
  -24.1850  -13.0480   20.8920 C   0  0  0  0  0  0  0  0  0  0  0  0
  -24.6520  -11.6990   20.8660 C   0  0  0  0  0  0  0  0  0  0  0  0
  -26.3010  -12.9430   20.3000 N   0  0  0  0  0  0  0  0  0  0  0  0
  -25.9420  -11.6620   20.5650 N   0  0  0  0  0  0  0  0  0  0  0  0
  -23.9310  -10.4350   21.0570 C   0  0  0  0  0  0  0  0  0  0  0  0
  -24.3670   -9.4670   21.9870 C   0  0  0  0  0  3  0  0  0  0  0  0
  -23.6450   -8.2670   22.1650 C   0  0  0  0  0  3  0  0  0  0  0  0
  -22.4720   -8.0260   21.4110 C   0  0  0  0  0  0  0  0  0  0  0  0
  -22.0550   -8.9820   20.4680 C   0  0  0  0  0  3  0  0  0  0  0  0
  -22.7780  -10.1740   20.2890 C   0  0  0  0  0  3  0  0  0  0  0  0
  -21.7210   -6.8790   21.4970 O   0  0  0  0  0  0  0  0  0  0  0  0
  -21.6810   -6.1320   22.6460 C   0  0  0  0  0  0  0  0  0  0  0  0
  -21.2570   -6.6770   23.8790 C   0  0  0  0  0  3  0  0  0  0  0  0
  -21.1650   -5.8540   25.0190 C   0  0  0  0  0  3  0  0  0  0  0  0
  -21.4860   -4.4860   24.9290 C   0  0  0  0  0  0  0  0  0  0  0  0
  -21.9020   -3.9400   23.7010 C   0  0  0  0  0  3  0  0  0  0  0  0
  -21.9970   -4.7600   22.5640 C   0  0  0  0  0  0  0  0  0  0  0  0
  -22.3790   -4.2230   21.3800 F   0  0  0  0  0  0  0  0  0  0  0  0
  -21.3890   -3.6950   26.0220 F   0  0  0  0  0  0  0  0  0  0  0  0
  -22.7840  -13.5210   21.1550 C   0  0  0  0  0  0  0  0  0  0  0  0
  -22.0540  -12.8220   22.0170 N   0  0  0  0  0  0  0  0  0  0  0  0
  -22.3470  -14.5460   20.6340 O   0  0  0  0  0  0  0  0  0  0  0  0
  -22.4220  -11.9930   22.4610 H   0  0  0  0  0  0  0  0  0  0  0  0
  -21.1130  -13.1170   22.2350 H   0  0  0  0  0  0  0  0  0  0  0  0
  -25.4100  -15.1930   20.3350 N   0  0  0  0  0  0  0  0  0  0  0  0
  -24.6290  -15.8350   20.4160 H   0  0  0  0  0  0  0  0  0  0  0  0
  -26.2450  -15.6320   19.9710 H   0  0  0  0  0  0  0  0  0  0  0  0
  -28.9970  -24.6950   18.8470 C   0  0  0  0  0  3  0  0  0  0  0  0
  -28.0300  -24.5590   17.7390 N   0  0  0  0  0  4  0  0  0  0  0  0
  -27.5320  -25.4170   17.5850 H   0  0  0  0  0  0  0  0  0  0  0  0
  -27.3730  -23.8220   17.9350 H   0  0  0  0  0  0  0  0  0  0  0  0
  -28.5110  -24.3370   16.8850 H   0  0  0  0  0  0  0  0  0  0  0  0
  -28.3620  -25.2680   20.1460 C   0  0  0  0  0  2  0  0  0  0  0  0
  -28.3860  -26.7100   20.1430 O   0  0  0  0  0  0  0  0  0  0  0  0
  -24.5740  -31.8690   23.2310 C   0  0  0  0  0  0  0  0  0  0  0  0
  -27.1990  -27.4160   20.1480 C   0  0  0  0  0  0  0  0  0  0  0  0
  -23.3640  -30.4750   21.5860 C   0  0  0  0  0  3  0  0  0  0  0  0
  -24.8110  -28.9380   20.1600 C   0  0  0  0  0  0  0  0  0  0  0  0
  -25.8950  -30.8260   21.3900 C   0  0  0  0  0  2  0  0  0  0  0  0
  -25.9720  -29.4570   20.7450 C   0  0  0  0  0  0  0  0  0  0  0  0
  -27.1690  -28.7080   20.7290 C   0  0  0  0  0  3  0  0  0  0  0  0
  -26.0150  -26.9120   19.5670 C   0  0  0  0  0  3  0  0  0  0  0  0
  -24.8280  -27.6660   19.5670 C   0  0  0  0  0  3  0  0  0  0  0  0
  -23.5720  -29.8000   20.2040 C   0  0  0  0  0  2  0  0  0  0  0  0
  -24.6300  -31.0730   22.1250 N   0  0  0  0  0  0  0  0  0  0  0  0
  -23.4940  -32.1400   23.7720 O   0  0  0  0  0  0  0  0  0  0  0  0
  -22.7110  -29.4500   22.5400 C   0  0  0  0  0  0  0  0  0  0  0  0
  -21.3860  -29.2760   22.4180 N   0  0  0  0  0  0  0  0  0  0  0  0
  -23.3960  -28.8180   23.3490 O   0  0  0  0  0  0  0  0  0  0  0  0
  -20.8950  -29.8410   21.7390 H   0  0  0  0  0  0  0  0  0  0  0  0
  -18.0100  -28.0980   22.9310 C   0  0  0  0  0  0  0  0  0  0  0  0
  -20.5710  -28.3370   23.1860 C   0  0  0  0  0  3  0  0  0  0  0  0
  -20.6590  -26.9080   22.6000 C   0  0  0  0  0  2  0  0  0  0  0  0
  -19.5460  -26.6000   21.5920 C   0  0  0  0  0  2  0  0  0  0  0  0
  -18.1710  -26.7510   22.2470 C   0  0  0  0  0  2  0  0  0  0  0  0
  -19.1370  -28.8490   23.3590 C   0  0  0  0  0  0  0  0  0  0  0  0
  -18.9310  -30.1110   23.9600 C   0  0  0  0  0  3  0  0  0  0  0  0
  -17.6310  -30.6220   24.1310 C   0  0  0  0  0  3  0  0  0  0  0  0
  -16.5190  -29.8680   23.7180 C   0  0  0  0  0  3  0  0  0  0  0  0
  -16.7100  -28.6060   23.1260 C   0  0  0  0  0  3  0  0  0  0  0  0
  -25.8600  -32.4930   23.8530 C   0  0  0  0  0  3  0  0  0  0  0  0
  -25.5520  -33.8900   24.1860 N   0  0  0  0  0  0  0  0  0  0  0  0
  -25.8920  -34.9430   23.4300 C   0  0  0  0  0  0  0  0  0  0  0  0
  -26.5680  -34.8420   22.4020 O   0  0  0  0  0  0  0  0  0  0  0  0
  -24.9520  -34.0440   24.9830 H   0  0  0  0  0  0  0  0  0  0  0  0
  -24.1750  -36.7450   23.0580 C   0  0  0  0  0  1  0  0  0  0  0  0
  -25.4040  -36.3330   23.8860 C   0  0  0  0  0  3  0  0  0  0  0  0
  -27.5320  -37.2060   24.7470 C   0  0  0  0  0  1  0  0  0  0  0  0
  -26.4430  -37.3810   23.7890 N   0  0  0  0  0  0  0  0  0  0  0  0
  -26.0400  -38.3030   23.9320 H   0  0  0  0  0  0  0  0  0  0  0  0
  -26.3770  -31.7190   25.1260 C   0  0  1  0  0  0  0  0  0  0  0  0
  -25.2860  -31.4800   26.1950 C   0  0  0  0  0  1  0  0  0  0  0  0
  -26.9610  -30.3420   24.7300 C   0  0  0  0  0  1  0  0  0  0  0  0
  -27.5300  -32.5100   25.7870 C   0  0  0  0  0  1  0  0  0  0  0  0
  2  3  1  0
  3  1  1  0
  3  4  1  0
  4  8  1  0
  5  6  2  0
  5  8  1  0
  6  9  1  0
  8 10  2  0
  9 20  1  0
  9  7  2  0
 10  7  1  0
 10 11  1  0
 12 20  1  0
 13 18  1  0
 14 15  1  0
 14 13  1  0
 16 15  1  0
 16 25  1  0
 16 17  1  0
 18 12  1  0
 18 17  1  0
 19 12  2  0
 20 21  1  0
 22 23  2  0
 23 42  1  0
 24 23  1  0
 24 27  1  0
 25 22  1  0
 25 26  1  0
 26 24  2  0
 27 28  1  0
 28 29  2  0
 30 33  1  0
 30 29  1  0
 31 30  2  0
 32 31  1  0
 32 27  2  0
 33 34  1  0
 34 35  1  0
 35 36  2  0
 37 36  1  0
 37 41  1  0
 38 37  2  0
 39 34  2  0
 39 38  1  0
 40 39  1  0
 42 43  1  0
 43 46  1  0
 43 45  1  0
 44 42  2  0
 47 48  1  0
 47 22  1  0
 49 47  1  0
 50  1  1  0
 50 55  1  0
 51 53  1  0
 51 50  1  0
 52 51  1  0
 54 51  1  0
 56 55  1  0
 56 58  1  0
 57 68  2  0
 58 63  1  0
 59 67  1  0
 59 69  1  0
 60 66  1  0
 60 62  1  0
 61 67  1  0
 62 61  1  0
 63 62  2  0
 64 65  1  0
 64 58  2  0
 65 60  2  0
 66 59  1  0
 67 57  1  0
 69 71  2  0
 70 69  1  0
 72 70  1  0
 73 82  2  0
 73 78  1  0
 74 70  1  0
 74 78  1  0
 75 74  1  0
 76 77  1  0
 76 75  1  0
 77 73  1  0
 78 79  2  0
 79 80  1  0
 81 80  2  0
 82 81  1  0
 83 57  1  0
 83 84  1  0
 83 93  1  0
 84 87  1  0
 85 89  1  0
 85 84  1  0
 86 85  2  0
 89 88  1  0
 91 89  1  0
 91 92  1  0
 91 90  1  0
 93 96  1  1
 93 94  1  0
 95 93  1  0
M  ISO  4  12 100  20 100  55 101  56 101
M  END
>  <TORSDO>  (39) 
F 22

>  <SCORE>  (39) 
-13.496

>  <name>  (39) 
38

>  <ligand_id>  (39) 
38

>  <original_smiles>  (39) 
[H]c1c([H])c([H])c2c(c1[H])C([H])([H])C([H])([H])C([H])([H])C2([H])N([H])C(=O)C1([H])N(C(=O)C([H])(N([H])C(=O)C([H])(N([H])C([H])([H])[H])C([H])([H])[H])C(C([H])([H])[H])(C([H])([H])[H])C([H])([H])[H])C([H])([H])c2c([H])c(OC([H])([H])C([H])(C([H])([H])N(C([H])([H])[H])C([H])([H])c3c([H])c([H])c(N([H])C(=O)N4C([H])([H])C([H])([H])C([H])([H])C([H])(n5nc(-c6c([H])c([H])c(Oc7c([H])c([H])c(F)c([H])c7F)c([H])c6[H])c(C(=O)N([H])[H])c5N([H])[H])C4([H])[H])c([H])c3F)[N+]([H])([H])[H])c([H])c([H])c2C1([H])[H]

>  <smiles>  (39) 
[H]c1c([H])c([H])c2c(c1[H])C([H])([H])C([H])([H])C([H])([H])C2([H])N([H])C(=O)C1([H])N(C(=O)C([H])(N([H])C(=O)C([H])(N([H])C([H])([H])[H])C([H])([H])[H])C(C([H])([H])[H])(C([H])([H])[H])C([H])([H])[H])C([H])([H])c2c([H])c(OC([H])([H])C([H])(C([H])([H])N(C([H])([H])[H])C([H])([H])c3c([H])c([H])c(N([H])C(=O)N4C([H])([H])C([H])([H])C([H])([H])C([H])(n5nc(-c6c([H])c([H])c(Oc7c([H])c([H])c(F)c([H])c7F)c([H])c6[H])c(C(=O)N([H])[H])c5N([H])[H])C4([H])[H])c([H])c3F)[N+]([H])([H])[H])c([H])c([H])c2C1([H])[H]

$$$$
39:0:0
     RDKit          3D

 96104  0  0  1  0  0  0  0  0999 V2000
  -30.5210  -18.6710   19.6010 C   0  0  0  0  0  3  0  0  0  0  0  0
  -30.8350  -19.9710   19.1520 C   0  0  0  0  0  3  0  0  0  0  0  0
  -28.1950  -19.3190   19.8140 C   0  0  0  0  0  3  0  0  0  0  0  0
  -29.1880  -18.3180   19.9020 C   0  0  0  0  0  0  0  0  0  0  0  0
  -29.8310  -20.9550   18.9980 C   0  0  0  0  0  0  0  0  0  0  0  0
  -28.4950  -20.6360   19.3750 C   0  0  0  0  0  0  0  0  0  0  0  0
  -27.3730  -21.6730   19.2830 C   0  0  1  0  0  0  0  0  0  0  0  0
  -26.1990  -21.1650   19.6600 F   0  0  0  0  0  0  0  0  0  0  0  0
  -27.6250  -22.7160   20.0740 F   0  0  0  0  0  0  0  0  0  0  0  0
  -27.2480  -22.1030   18.0280 F   0  0  0  0  0  0  0  0  0  0  0  0
  -28.8150  -16.8820   20.3040 C   0  0  0  0  0  2  0  0  0  0  0  0
  -30.3490  -14.9640   19.7620 C   0  0  0  0  0  0  0  0  0  0  0  0
  -30.3850  -12.5450   19.3250 C   0  0  0  0  0  2  0  0  0  0  0  0
  -29.4680  -12.2640   18.1160 C   0  0  0  0  0  2  0  0  0  0  0  0
  -28.0080  -12.0660   18.5720 C   0  0  0  0  0  2  0  0  0  0  0  0
  -27.5220  -13.1790   19.5360 C   0  0  0  0  0  3  0  0  0  0  0  0
  -28.5570  -13.4340   20.6550 C   0  0  0  0  0  2  0  0  0  0  0  0
  -29.8430  -13.7280   20.0100 N   0  0  0  0  0  0  0  0  0  0  0  0
  -31.5020  -15.1490   19.3690 O   0  0  0  0  0  0  0  0  0  0  0  0
  -29.4290  -15.8850   19.4250 N   0  0  0  0  0  0  0  0  0  0  0  0
  -29.7130  -16.3370   18.5710 H   0  0  0  0  0  0  0  0  0  0  0  0
  -25.1890  -13.7590   20.4500 C   0  0  0  0  0  0  0  0  0  0  0  0
  -24.1300  -12.9720   20.8150 C   0  0  0  0  0  0  0  0  0  0  0  0
  -24.5600  -11.6220   20.6350 C   0  0  0  0  0  0  0  0  0  0  0  0
  -26.1980  -12.8850   20.0760 N   0  0  0  0  0  0  0  0  0  0  0  0
  -25.8280  -11.5900   20.2450 N   0  0  0  0  0  0  0  0  0  0  0  0
  -23.8220  -10.3580   20.7590 C   0  0  0  0  0  0  0  0  0  0  0  0
  -24.3340   -9.2760   21.5080 C   0  0  0  0  0  3  0  0  0  0  0  0
  -23.5990   -8.0770   21.6280 C   0  0  0  0  0  3  0  0  0  0  0  0
  -22.3380   -7.9530   20.9980 C   0  0  0  0  0  0  0  0  0  0  0  0
  -21.8430   -9.0250   20.2350 C   0  0  0  0  0  3  0  0  0  0  0  0
  -22.5780  -10.2150   20.1130 C   0  0  0  0  0  3  0  0  0  0  0  0
  -21.5650   -6.8170   21.0370 O   0  0  0  0  0  0  0  0  0  0  0  0
  -21.6930   -5.8940   22.0430 C   0  0  0  0  0  0  0  0  0  0  0  0
  -21.4960   -6.2380   23.3980 C   0  0  0  0  0  3  0  0  0  0  0  0
  -21.5690   -5.2440   24.3950 C   0  0  0  0  0  3  0  0  0  0  0  0
  -21.8290   -3.9070   24.0380 C   0  0  0  0  0  0  0  0  0  0  0  0
  -22.0190   -3.5620   22.6890 C   0  0  0  0  0  3  0  0  0  0  0  0
  -21.9480   -4.5530   21.6940 C   0  0  0  0  0  0  0  0  0  0  0  0
  -22.1120   -4.2120   20.3930 F   0  0  0  0  0  0  0  0  0  0  0  0
  -21.8910   -2.9500   24.9930 F   0  0  0  0  0  0  0  0  0  0  0  0
  -22.7630  -13.4430   21.2200 C   0  0  0  0  0  0  0  0  0  0  0  0
  -22.0930  -12.6960   22.0900 N   0  0  0  0  0  0  0  0  0  0  0  0
  -22.3000  -14.5030   20.8010 O   0  0  0  0  0  0  0  0  0  0  0  0
  -22.4810  -11.8350   22.4450 H   0  0  0  0  0  0  0  0  0  0  0  0
  -21.1810  -12.9920   22.4080 H   0  0  0  0  0  0  0  0  0  0  0  0
  -25.3750  -15.1370   20.3820 N   0  0  0  0  0  0  0  0  0  0  0  0
  -24.6390  -15.7990   20.6010 H   0  0  0  0  0  0  0  0  0  0  0  0
  -26.2150  -15.5780   20.0270 H   0  0  0  0  0  0  0  0  0  0  0  0
  -30.2120  -22.2820   18.3240 C   0  0  0  0  0  2  0  0  0  0  0  0
  -30.2980  -24.7420   18.7020 C   0  0  0  0  0  0  0  0  0  0  0  0
  -30.1740  -23.4840   19.1660 N   0  0  0  0  0  0  0  0  0  0  0  0
  -30.6370  -24.9790   17.5390 O   0  0  0  0  0  0  0  0  0  0  0  0
  -29.8720  -23.3640   20.1240 H   0  0  0  0  0  0  0  0  0  0  0  0
  -29.9540  -25.9000   19.6660 C   0  0  0  0  0  2  0  0  0  0  0  0
  -29.6390  -27.1300   18.9770 O   0  0  0  0  0  0  0  0  0  0  0  0
  -25.0070  -30.6290   23.0990 C   0  0  0  0  0  0  0  0  0  0  0  0
  -28.3470  -27.5820   19.1390 C   0  0  0  0  0  0  0  0  0  0  0  0
  -24.0340  -29.3380   21.2290 C   0  0  0  0  0  3  0  0  0  0  0  0
  -25.6910  -28.4780   19.4940 C   0  0  0  0  0  0  0  0  0  0  0  0
  -26.4010  -30.2950   21.0580 C   0  0  0  0  0  2  0  0  0  0  0  0
  -26.7420  -29.1320   20.1470 C   0  0  0  0  0  0  0  0  0  0  0  0
  -28.0740  -28.7000   19.9580 C   0  0  0  0  0  3  0  0  0  0  0  0
  -27.2780  -26.9340   18.4860 C   0  0  0  0  0  3  0  0  0  0  0  0
  -25.9530  -27.3780   18.6570 C   0  0  0  0  0  3  0  0  0  0  0  0
  -24.2940  -29.0030   19.7360 C   0  0  0  0  0  2  0  0  0  0  0  0
  -25.1660  -30.0950   21.8550 N   0  0  0  0  0  0  0  0  0  0  0  0
  -23.9300  -30.5360   23.7030 O   0  0  0  0  0  0  0  0  0  0  0  0
  -23.6830  -28.0310   21.9740 C   0  0  0  0  0  0  0  0  0  0  0  0
  -22.4630  -27.5220   21.7440 N   0  0  0  0  0  0  0  0  0  0  0  0
  -24.5090  -27.4820   22.7100 O   0  0  0  0  0  0  0  0  0  0  0  0
  -21.8400  -28.0420   21.1410 H   0  0  0  0  0  0  0  0  0  0  0  0
  -19.6350  -25.2730   21.6800 C   0  0  0  0  0  0  0  0  0  0  0  0
  -21.9370  -26.2740   22.2960 C   0  0  0  0  0  3  0  0  0  0  0  0
  -22.5490  -25.0470   21.5810 C   0  0  0  0  0  2  0  0  0  0  0  0
  -21.7000  -24.5470   20.4080 C   0  0  0  0  0  2  0  0  0  0  0  0
  -20.2950  -24.1600   20.8840 C   0  0  0  0  0  2  0  0  0  0  0  0
  -20.4040  -26.2750   22.3270 C   0  0  0  0  0  0  0  0  0  0  0  0
  -19.7390  -27.3130   23.0140 C   0  0  0  0  0  3  0  0  0  0  0  0
  -18.3340  -27.3560   23.0670 C   0  0  0  0  0  3  0  0  0  0  0  0
  -17.5760  -26.3510   22.4410 C   0  0  0  0  0  3  0  0  0  0  0  0
  -18.2260  -25.3110   21.7530 C   0  0  0  0  0  3  0  0  0  0  0  0
  -26.1610  -31.4000   23.8110 C   0  0  0  0  0  3  0  0  0  0  0  0
  -25.6270  -32.7020   24.2340 N   0  0  0  0  0  0  0  0  0  0  0  0
  -25.8770  -33.8640   23.6170 C   0  0  0  0  0  0  0  0  0  0  0  0
  -26.6500  -33.9600   22.6590 O   0  0  0  0  0  0  0  0  0  0  0  0
  -24.9430  -32.6900   24.9770 H   0  0  0  0  0  0  0  0  0  0  0  0
  -23.9800  -35.4640   23.2160 C   0  0  0  0  0  1  0  0  0  0  0  0
  -25.1550  -35.1180   24.1440 C   0  0  0  0  0  3  0  0  0  0  0  0
  -27.0430  -36.1380   25.3370 C   0  0  0  0  0  1  0  0  0  0  0  0
  -26.0420  -36.2920   24.2830 N   0  0  0  0  0  0  0  0  0  0  0  0
  -25.5030  -37.1310   24.4760 H   0  0  0  0  0  0  0  0  0  0  0  0
  -26.7660  -30.6190   25.0410 C   0  0  1  0  0  0  0  0  0  0  0  0
  -25.7040  -30.1420   26.0580 C   0  0  0  0  0  1  0  0  0  0  0  0
  -27.5550  -29.3780   24.5630 C   0  0  0  0  0  1  0  0  0  0  0  0
  -27.7760  -31.5200   25.7900 C   0  0  0  0  0  1  0  0  0  0  0  0
  1  4  1  0
  2  1  2  0
  3  4  2  0
  4 11  1  0
  5  2  1  0
  5  6  2  0
  6  3  1  0
  7  6  1  0
  7  8  1  1
  7  9  1  0
 10  7  1  0
 12 18  1  0
 13 18  1  0
 14 15  1  0
 14 13  1  0
 16 15  1  0
 16 25  1  0
 16 17  1  0
 18 17  1  0
 19 12  2  0
 20 12  1  0
 20 11  1  0
 21 20  1  0
 22 23  2  0
 23 42  1  0
 24 27  1  0
 24 23  1  0
 25 26  1  0
 25 22  1  0
 26 24  2  0
 27 28  1  0
 28 29  2  0
 30 33  1  0
 30 29  1  0
 31 30  2  0
 32 31  1  0
 32 27  2  0
 33 34  1  0
 34 35  1  0
 35 36  2  0
 37 36  1  0
 37 41  1  0
 38 37  2  0
 39 34  2  0
 39 38  1  0
 40 39  1  0
 42 43  1  0
 43 46  1  0
 43 45  1  0
 44 42  2  0
 47 22  1  0
 47 48  1  0
 49 47  1  0
 50  5  1  0
 50 52  1  0
 51 52  1  0
 51 55  1  0
 52 54  1  0
 53 51  2  0
 56 58  1  0
 56 55  1  0
 57 68  2  0
 58 63  1  0
 59 67  1  0
 59 69  1  0
 60 66  1  0
 60 62  1  0
 61 67  1  0
 62 61  1  0
 63 62  2  0
 64 65  1  0
 64 58  2  0
 65 60  2  0
 66 59  1  0
 67 57  1  0
 69 71  2  0
 70 69  1  0
 72 70  1  0
 73 82  2  0
 73 78  1  0
 74 70  1  0
 74 78  1  0
 75 74  1  0
 76 77  1  0
 76 75  1  0
 77 73  1  0
 78 79  2  0
 79 80  1  0
 81 80  2  0
 82 81  1  0
 83 57  1  0
 83 84  1  0
 83 93  1  0
 84 87  1  0
 85 89  1  0
 85 84  1  0
 86 85  2  0
 89 88  1  0
 89 91  1  0
 91 92  1  0
 91 90  1  0
 93 96  1  1
 93 94  1  0
 95 93  1  0
M  ISO  4  12 100  20 100  55 101  56 101
M  END
>  <TORSDO>  (40) 
F 21

>  <SCORE>  (40) 
-9.599

>  <name>  (40) 
39

>  <ligand_id>  (40) 
39

>  <original_smiles>  (40) 
[H]c1c([H])c([H])c2c(c1[H])C([H])([H])C([H])([H])C([H])([H])C2([H])N([H])C(=O)C1([H])N(C(=O)C([H])(N([H])C(=O)C([H])(N([H])C([H])([H])[H])C([H])([H])[H])C(C([H])([H])[H])(C([H])([H])[H])C([H])([H])[H])C([H])([H])c2c([H])c(OC([H])([H])C(=O)N([H])C([H])([H])c3c([H])c([H])c(C([H])([H])N([H])C(=O)N4C([H])([H])C([H])([H])C([H])([H])C([H])(n5nc(-c6c([H])c([H])c(Oc7c([H])c([H])c(F)c([H])c7F)c([H])c6[H])c(C(=O)N([H])[H])c5N([H])[H])C4([H])[H])c([H])c3C(F)(F)F)c([H])c([H])c2C1([H])[H]

>  <smiles>  (40) 
[H]c1c([H])c([H])c2c(c1[H])C([H])([H])C([H])([H])C([H])([H])C2([H])N([H])C(=O)C1([H])N(C(=O)C([H])(N([H])C(=O)C([H])(N([H])C([H])([H])[H])C([H])([H])[H])C(C([H])([H])[H])(C([H])([H])[H])C([H])([H])[H])C([H])([H])c2c([H])c(OC([H])([H])C(=O)N([H])C([H])([H])c3c([H])c([H])c(C([H])([H])N([H])C(=O)N4C([H])([H])C([H])([H])C([H])([H])C([H])(n5nc(-c6c([H])c([H])c(Oc7c([H])c([H])c(F)c([H])c7F)c([H])c6[H])c(C(=O)N([H])[H])c5N([H])[H])C4([H])[H])c([H])c3C(F)(F)F)c([H])c([H])c2C1([H])[H]

$$$$
40:0:0
     RDKit          3D

 94102  0  0  1  0  0  0  0  0999 V2000
  -29.1510  -21.7900   20.7070 C   0  0  0  0  0  3  0  0  0  0  0  0
  -29.3670  -17.6610   18.6820 C   0  0  0  0  0  3  0  0  0  0  0  0
  -29.0360  -18.8750   18.0340 C   0  0  0  0  0  3  0  0  0  0  0  0
  -29.4350  -18.9130   20.7560 C   0  0  0  0  0  3  0  0  0  0  0  0
  -29.1190  -20.2300   20.1000 C   0  0  0  0  0  0  0  0  0  0  0  0
  -29.5810  -17.5860   20.0740 C   0  0  0  0  0  0  0  0  0  0  0  0
  -28.9220  -20.1130   18.7090 C   0  0  0  0  0  0  0  0  0  0  0  0
  -28.6490  -21.2210   17.9820 F   0  0  0  0  0  0  0  0  0  0  0  0
  -30.5000  -15.0090   20.2450 C   0  0  0  0  0  0  0  0  0  0  0  0
  -30.4000  -12.6550   19.3050 C   0  0  0  0  0  2  0  0  0  0  0  0
  -29.4610  -12.6330   18.0750 C   0  0  0  0  0  2  0  0  0  0  0  0
  -27.9990  -12.4150   18.5100 C   0  0  0  0  0  2  0  0  0  0  0  0
  -27.6040  -13.3180   19.7070 C   0  0  0  0  0  3  0  0  0  0  0  0
  -28.6640  -13.3030   20.8290 C   0  0  0  0  0  2  0  0  0  0  0  0
  -29.9340  -13.7310   20.2320 N   0  0  0  0  0  0  0  0  0  0  0  0
  -31.6610  -15.1010   19.8320 O   0  0  0  0  0  0  0  0  0  0  0  0
  -29.7630  -16.1660   20.6510 N   0  0  0  0  0  0  0  0  0  0  0  0
  -29.0200  -15.9130   21.2850 H   0  0  0  0  0  0  0  0  0  0  0  0
  -25.2250  -13.8800   20.4650 C   0  0  0  0  0  0  0  0  0  0  0  0
  -24.1690  -13.0990   20.8470 C   0  0  0  0  0  0  0  0  0  0  0  0
  -24.6420  -11.7500   20.8080 C   0  0  0  0  0  0  0  0  0  0  0  0
  -26.2700  -13.0090   20.2120 N   0  0  0  0  0  0  0  0  0  0  0  0
  -25.9300  -11.7230   20.4850 N   0  0  0  0  0  0  0  0  0  0  0  0
  -23.9250  -10.4830   21.0040 C   0  0  0  0  0  0  0  0  0  0  0  0
  -24.3660   -9.5180   21.9350 C   0  0  0  0  0  3  0  0  0  0  0  0
  -23.6460   -8.3170   22.1180 C   0  0  0  0  0  3  0  0  0  0  0  0
  -22.4700   -8.0730   21.3700 C   0  0  0  0  0  0  0  0  0  0  0  0
  -22.0480   -9.0270   20.4270 C   0  0  0  0  0  3  0  0  0  0  0  0
  -22.7690  -10.2180   20.2410 C   0  0  0  0  0  3  0  0  0  0  0  0
  -21.7200   -6.9270   21.4650 O   0  0  0  0  0  0  0  0  0  0  0  0
  -21.6750   -6.1880   22.6200 C   0  0  0  0  0  0  0  0  0  0  0  0
  -21.2390   -6.7440   23.8420 C   0  0  0  0  0  3  0  0  0  0  0  0
  -21.1420   -5.9320   24.9900 C   0  0  0  0  0  3  0  0  0  0  0  0
  -21.4700   -4.5660   24.9160 C   0  0  0  0  0  0  0  0  0  0  0  0
  -21.8980   -4.0090   23.6980 C   0  0  0  0  0  3  0  0  0  0  0  0
  -21.9970   -4.8170   22.5530 C   0  0  0  0  0  0  0  0  0  0  0  0
  -22.3890   -4.2710   21.3770 F   0  0  0  0  0  0  0  0  0  0  0  0
  -21.3680   -3.7840   26.0160 F   0  0  0  0  0  0  0  0  0  0  0  0
  -22.7710  -13.5680   21.1320 C   0  0  0  0  0  0  0  0  0  0  0  0
  -22.0540  -12.8660   22.0020 N   0  0  0  0  0  0  0  0  0  0  0  0
  -22.3250  -14.5930   20.6180 O   0  0  0  0  0  0  0  0  0  0  0  0
  -22.4280  -12.0390   22.4420 H   0  0  0  0  0  0  0  0  0  0  0  0
  -21.1170  -13.1640   22.2340 H   0  0  0  0  0  0  0  0  0  0  0  0
  -25.3800  -15.2520   20.2890 N   0  0  0  0  0  0  0  0  0  0  0  0
  -24.6210  -15.9090   20.4270 H   0  0  0  0  0  0  0  0  0  0  0  0
  -26.2240  -15.6920   19.9420 H   0  0  0  0  0  0  0  0  0  0  0  0
  -29.3110  -21.7050   22.1680 N   0  0  0  0  0  4  0  0  0  0  0  0
  -28.5090  -21.2760   22.5900 H   0  0  0  0  0  0  0  0  0  0  0  0
  -29.4240  -22.6230   22.5590 H   0  0  0  0  0  0  0  0  0  0  0  0
  -30.1280  -21.1710   22.4020 H   0  0  0  0  0  0  0  0  0  0  0  0
  -28.1210  -23.1250   20.3650 C   0  0  0  0  0  2  0  0  0  0  0  0
  -28.5680  -24.7720   18.3420 C   0  0  0  0  0  1  0  0  0  0  0  0
  -28.5500  -24.7110   19.8770 C   0  0  0  0  0  3  0  0  0  0  0  0
  -28.2750  -26.1770   20.3970 O   0  0  0  0  0  0  0  0  0  0  0  0
  -24.6220  -31.8910   23.2250 C   0  0  0  0  0  0  0  0  0  0  0  0
  -27.1940  -27.1270   20.2320 C   0  0  0  0  0  0  0  0  0  0  0  0
  -23.4210  -30.4820   21.5950 C   0  0  0  0  0  3  0  0  0  0  0  0
  -24.8670  -28.8860   20.1760 C   0  0  0  0  0  0  0  0  0  0  0  0
  -25.9750  -30.7350   21.4310 C   0  0  0  0  0  2  0  0  0  0  0  0
  -26.0430  -29.3360   20.7860 C   0  0  0  0  0  0  0  0  0  0  0  0
  -27.2000  -28.4700   20.7980 C   0  0  0  0  0  3  0  0  0  0  0  0
  -25.9960  -26.7780   19.5770 C   0  0  0  0  0  3  0  0  0  0  0  0
  -24.8580  -27.6240   19.5530 C   0  0  0  0  0  3  0  0  0  0  0  0
  -23.6420  -29.7890   20.2210 C   0  0  0  0  0  2  0  0  0  0  0  0
  -24.6930  -31.0620   22.1370 N   0  0  0  0  0  0  0  0  0  0  0  0
  -23.5360  -32.1790   23.7530 O   0  0  0  0  0  0  0  0  0  0  0  0
  -22.7430  -29.4860   22.5690 C   0  0  0  0  0  0  0  0  0  0  0  0
  -21.4150  -29.3150   22.4480 N   0  0  0  0  0  0  0  0  0  0  0  0
  -23.4160  -28.8680   23.3990 O   0  0  0  0  0  0  0  0  0  0  0  0
  -20.9280  -29.8630   21.7510 H   0  0  0  0  0  0  0  0  0  0  0  0
  -18.0350  -28.1140   22.9680 C   0  0  0  0  0  0  0  0  0  0  0  0
  -20.5940  -28.3840   23.2300 C   0  0  0  0  0  3  0  0  0  0  0  0
  -20.6990  -26.9470   22.6680 C   0  0  0  0  0  2  0  0  0  0  0  0
  -19.5960  -26.6120   21.6590 C   0  0  0  0  0  2  0  0  0  0  0  0
  -18.2150  -26.7600   22.3020 C   0  0  0  0  0  2  0  0  0  0  0  0
  -19.1530  -28.8820   23.3910 C   0  0  0  0  0  0  0  0  0  0  0  0
  -18.9330  -30.1470   23.9780 C   0  0  0  0  0  3  0  0  0  0  0  0
  -17.6270  -30.6450   24.1460 C   0  0  0  0  0  3  0  0  0  0  0  0
  -16.5240  -29.8750   23.7380 C   0  0  0  0  0  3  0  0  0  0  0  0
  -16.7290  -28.6110   23.1580 C   0  0  0  0  0  3  0  0  0  0  0  0
  -25.9000  -32.5360   23.8460 C   0  0  0  0  0  3  0  0  0  0  0  0
  -26.4170  -31.7760   25.1300 C   0  0  1  0  0  0  0  0  0  0  0  0
  -25.3260  -31.5440   26.2020 C   0  0  0  0  0  1  0  0  0  0  0  0
  -27.0050  -30.3970   24.7540 C   0  0  0  0  0  1  0  0  0  0  0  0
  -27.5660  -32.5790   25.7850 C   0  0  0  0  0  1  0  0  0  0  0  0
  -25.5820  -33.9360   24.1770 N   0  0  0  0  0  0  0  0  0  0  0  0
  -25.9050  -34.9930   23.4220 C   0  0  0  0  0  0  0  0  0  0  0  0
  -26.5680  -34.8950   22.3860 O   0  0  0  0  0  0  0  0  0  0  0  0
  -24.9930  -34.0840   24.9840 H   0  0  0  0  0  0  0  0  0  0  0  0
  -24.1710  -36.7860   23.0880 C   0  0  0  0  0  1  0  0  0  0  0  0
  -25.4190  -36.3810   23.8880 C   0  0  0  0  0  3  0  0  0  0  0  0
  -27.5580  -37.2710   24.7050 C   0  0  0  0  0  1  0  0  0  0  0  0
  -26.4480  -37.4370   23.7690 N   0  0  0  0  0  0  0  0  0  0  0  0
  -26.0390  -38.3570   23.9210 H   0  0  0  0  0  0  0  0  0  0  0  0
  1 51  1  0
  1 47  1  0
  2  6  1  0
  3  2  2  0
  3  7  1  0
  5  1  1  0
  5  4  1  0
  6 17  1  0
  6  4  2  0
  7  5  2  0
  8  7  1  0
  9 17  1  0
 10 15  1  0
 11 12  1  0
 11 10  1  0
 13 12  1  0
 13 22  1  0
 13 14  1  0
 15  9  1  0
 15 14  1  0
 16  9  2  0
 17 18  1  0
 19 20  2  0
 20 39  1  0
 21 20  1  0
 21 24  1  0
 22 19  1  0
 22 23  1  0
 23 21  2  0
 24 25  1  0
 25 26  2  0
 27 30  1  0
 27 26  1  0
 28 27  2  0
 29 28  1  0
 29 24  2  0
 30 31  1  0
 31 32  1  0
 32 33  2  0
 34 33  1  0
 34 38  1  0
 35 34  2  0
 36 31  2  0
 36 35  1  0
 37 36  1  0
 39 40  1  0
 40 43  1  0
 40 42  1  0
 41 39  2  0
 44 45  1  0
 44 19  1  0
 46 44  1  0
 47 50  1  0
 47 49  1  0
 47 48  1  0
 53 52  1  0
 53 51  1  0
 53 54  1  0
 55 66  2  0
 56 54  1  0
 56 61  1  0
 57 65  1  0
 57 67  1  0
 58 64  1  0
 58 60  1  0
 59 65  1  0
 60 61  2  0
 60 59  1  0
 62 56  2  0
 63 62  1  0
 63 58  2  0
 64 57  1  0
 65 55  1  0
 67 69  2  0
 68 67  1  0
 70 68  1  0
 71 80  2  0
 71 76  1  0
 72 68  1  0
 72 76  1  0
 73 72  1  0
 74 75  1  0
 74 73  1  0
 75 71  1  0
 76 77  2  0
 77 78  1  0
 79 78  2  0
 80 79  1  0
 81 55  1  0
 81 86  1  0
 81 82  1  0
 82 85  1  1
 82 83  1  0
 84 82  1  0
 86 89  1  0
 87 91  1  0
 87 86  1  0
 88 87  2  0
 91 90  1  0
 93 91  1  0
 93 94  1  0
 93 92  1  0
M  ISO  4   9 100  17 100  53 101  54 101
M  END
>  <TORSDO>  (41) 
F 20

>  <SCORE>  (41) 
-15.097

>  <name>  (41) 
40

>  <ligand_id>  (41) 
40

>  <original_smiles>  (41) 
[H]c1c([H])c([H])c2c(c1[H])C([H])([H])C([H])([H])C([H])([H])C2([H])N([H])C(=O)C1([H])N(C(=O)C([H])(N([H])C(=O)C([H])(N([H])C([H])([H])[H])C([H])([H])[H])C(C([H])([H])[H])(C([H])([H])[H])C([H])([H])[H])C([H])([H])c2c([H])c(OC([H])(C([H])([H])[H])C([H])([H])C([H])(c3c([H])c(N([H])C(=O)N4C([H])([H])C([H])([H])C([H])([H])C([H])(n5nc(-c6c([H])c([H])c(Oc7c([H])c([H])c(F)c([H])c7F)c([H])c6[H])c(C(=O)N([H])[H])c5N([H])[H])C4([H])[H])c([H])c([H])c3F)[N+]([H])([H])[H])c([H])c([H])c2C1([H])[H]

>  <smiles>  (41) 
[H]c1c([H])c([H])c2c(c1[H])C([H])([H])C([H])([H])C([H])([H])C2([H])N([H])C(=O)C1([H])N(C(=O)C([H])(N([H])C(=O)C([H])(N([H])C([H])([H])[H])C([H])([H])[H])C(C([H])([H])[H])(C([H])([H])[H])C([H])([H])[H])C([H])([H])c2c([H])c(OC([H])(C([H])([H])[H])C([H])([H])C([H])(c3c([H])c(N([H])C(=O)N4C([H])([H])C([H])([H])C([H])([H])C([H])(n5nc(-c6c([H])c([H])c(Oc7c([H])c([H])c(F)c([H])c7F)c([H])c6[H])c(C(=O)N([H])[H])c5N([H])[H])C4([H])[H])c([H])c([H])c3F)[N+]([H])([H])[H])c([H])c([H])c2C1([H])[H]

$$$$
41:0:0
     RDKit          3D

 98106  0  0  1  0  0  0  0  0999 V2000
  -31.5310  -18.7350   19.7170 C   0  0  0  0  0  3  0  0  0  0  0  0
  -29.8610  -17.3300   22.8460 C   0  0  0  0  0  3  0  0  0  0  0  0
  -30.1710  -18.1380   21.7440 C   0  0  0  0  0  3  0  0  0  0  0  0
  -30.4940  -16.0860   22.9700 C   0  0  0  0  0  3  0  0  0  0  0  0
  -30.9590  -17.6540   20.6690 C   0  0  0  0  0  0  0  0  0  0  0  0
  -31.3960  -16.2650   20.6830 C   0  0  0  0  0  0  0  0  0  0  0  0
  -31.3180  -15.6010   21.9390 C   0  0  0  0  0  0  0  0  0  0  0  0
  -32.0510  -14.4910   22.1800 F   0  0  0  0  0  0  0  0  0  0  0  0
  -32.1720  -14.2320   19.2180 C   0  0  0  0  0  0  0  0  0  0  0  0
  -31.5100  -12.1110   18.0280 C   0  0  0  0  0  2  0  0  0  0  0  0
  -30.3770  -12.3110   16.9870 C   0  0  0  0  0  2  0  0  0  0  0  0
  -28.9900  -12.2710   17.6550 C   0  0  0  0  0  2  0  0  0  0  0  0
  -28.9310  -13.1920   18.8940 C   0  0  0  0  0  3  0  0  0  0  0  0
  -30.1120  -12.8950   19.8200 C   0  0  0  0  0  2  0  0  0  0  0  0
  -31.3510  -13.1440   19.0740 N   0  0  0  0  0  0  0  0  0  0  0  0
  -33.3030  -14.2380   18.7140 O   0  0  0  0  0  0  0  0  0  0  0  0
  -31.5530  -15.4310   19.4840 N   0  0  0  0  0  0  0  0  0  0  0  0
  -30.6940  -15.4520   18.9570 H   0  0  0  0  0  0  0  0  0  0  0  0
  -26.8710  -14.0560   20.1660 C   0  0  0  0  0  0  0  0  0  0  0  0
  -25.7880  -13.4110   20.6920 C   0  0  0  0  0  0  0  0  0  0  0  0
  -25.9930  -12.0240   20.4380 C   0  0  0  0  0  0  0  0  0  0  0  0
  -27.6740  -13.0650   19.6260 N   0  0  0  0  0  0  0  0  0  0  0  0
  -27.1640  -11.8280   19.8490 N   0  0  0  0  0  0  0  0  0  0  0  0
  -25.1130  -10.8710   20.6600 C   0  0  0  0  0  0  0  0  0  0  0  0
  -25.4500   -9.8480   21.5710 C   0  0  0  0  0  3  0  0  0  0  0  0
  -24.5760   -8.7610   21.7760 C   0  0  0  0  0  3  0  0  0  0  0  0
  -23.3490   -8.6930   21.0740 C   0  0  0  0  0  0  0  0  0  0  0  0
  -23.0270   -9.7050   20.1530 C   0  0  0  0  0  3  0  0  0  0  0  0
  -23.9010  -10.7860   19.9460 C   0  0  0  0  0  3  0  0  0  0  0  0
  -22.4530   -7.6560   21.1850 O   0  0  0  0  0  0  0  0  0  0  0  0
  -22.1980   -7.0580   22.3930 C   0  0  0  0  0  0  0  0  0  0  0  0
  -21.8000   -7.8030   23.5230 C   0  0  0  0  0  3  0  0  0  0  0  0
  -21.4690   -7.1410   24.7250 C   0  0  0  0  0  3  0  0  0  0  0  0
  -21.5330   -5.7350   24.7930 C   0  0  0  0  0  0  0  0  0  0  0  0
  -21.9310   -4.9930   23.6670 C   0  0  0  0  0  3  0  0  0  0  0  0
  -22.2550   -5.6510   22.4700 C   0  0  0  0  0  0  0  0  0  0  0  0
  -22.6110   -4.9310   21.3800 F   0  0  0  0  0  0  0  0  0  0  0  0
  -21.2120   -5.0980   25.9430 F   0  0  0  0  0  0  0  0  0  0  0  0
  -24.5720  -14.0500   21.3000 C   0  0  0  0  0  0  0  0  0  0  0  0
  -23.9670  -13.3840   22.2780 N   0  0  0  0  0  0  0  0  0  0  0  0
  -24.1890  -15.1630   20.9380 O   0  0  0  0  0  0  0  0  0  0  0  0
  -24.3080  -12.4790   22.5670 H   0  0  0  0  0  0  0  0  0  0  0  0
  -23.1520  -13.7650   22.7400 H   0  0  0  0  0  0  0  0  0  0  0  0
  -27.2120  -15.3990   20.0670 N   0  0  0  0  0  0  0  0  0  0  0  0
  -26.5120  -16.0990   20.2900 H   0  0  0  0  0  0  0  0  0  0  0  0
  -27.8750  -15.7270   19.3760 H   0  0  0  0  0  0  0  0  0  0  0  0
  -32.7240  -19.3300   20.3690 N   0  0  0  0  0  4  0  0  0  0  0  0
  -32.5100  -19.7340   21.2690 H   0  0  0  0  0  0  0  0  0  0  0  0
  -33.1580  -20.0320   19.7960 H   0  0  0  0  0  0  0  0  0  0  0  0
  -33.4220  -18.6220   20.5240 H   0  0  0  0  0  0  0  0  0  0  0  0
  -30.5930  -19.8550   19.0510 C   0  0  0  0  0  2  0  0  0  0  0  0
  -29.7150  -20.9620   19.8000 C   0  0  0  0  0  2  0  0  0  0  0  0
  -29.8960  -22.3820   19.2910 N   0  0  0  0  0  4  0  0  0  0  0  0
  -30.2860  -22.3400   18.3600 H   0  0  0  0  0  0  0  0  0  0  0  0
  -30.6040  -22.8110   19.8660 H   0  0  0  0  0  0  0  0  0  0  0  0
  -28.7420  -23.3620   19.2190 C   0  0  0  0  0  2  0  0  0  0  0  0
  -29.0120  -24.7590   19.9180 C   0  0  0  0  0  2  0  0  0  0  0  0
  -28.9170  -26.0090   19.1680 O   0  0  0  0  0  0  0  0  0  0  0  0
  -25.3200  -30.9520   22.9890 C   0  0  0  0  0  0  0  0  0  0  0  0
  -27.7940  -26.8060   19.3410 C   0  0  0  0  0  0  0  0  0  0  0  0
  -24.0650  -29.8010   21.1990 C   0  0  0  0  0  3  0  0  0  0  0  0
  -25.4560  -28.3990   19.5830 C   0  0  0  0  0  0  0  0  0  0  0  0
  -26.6040  -30.0980   21.0140 C   0  0  0  0  0  2  0  0  0  0  0  0
  -26.6430  -28.8100   20.2060 C   0  0  0  0  0  0  0  0  0  0  0  0
  -27.8210  -28.0260   20.0700 C   0  0  0  0  0  3  0  0  0  0  0  0
  -26.5900  -26.4200   18.7260 C   0  0  0  0  0  3  0  0  0  0  0  0
  -25.4260  -27.2040   18.8400 C   0  0  0  0  0  3  0  0  0  0  0  0
  -24.2450  -29.2880   19.7440 C   0  0  0  0  0  2  0  0  0  0  0  0
  -25.3520  -30.2960   21.7920 N   0  0  0  0  0  0  0  0  0  0  0  0
  -24.2470  -31.1830   23.5680 O   0  0  0  0  0  0  0  0  0  0  0  0
  -23.3910  -28.6900   22.0350 C   0  0  0  0  0  0  0  0  0  0  0  0
  -22.0650  -28.5450   21.8840 N   0  0  0  0  0  0  0  0  0  0  0  0
  -24.0610  -27.9620   22.7750 O   0  0  0  0  0  0  0  0  0  0  0  0
  -21.5840  -29.1850   21.2630 H   0  0  0  0  0  0  0  0  0  0  0  0
  -18.6690  -27.3630   22.2310 C   0  0  0  0  0  0  0  0  0  0  0  0
  -21.2290  -27.5350   22.5370 C   0  0  0  0  0  3  0  0  0  0  0  0
  -21.3080  -26.1810   21.7860 C   0  0  0  0  0  2  0  0  0  0  0  0
  -20.2050  -26.0110   20.7400 C   0  0  0  0  0  2  0  0  0  0  0  0
  -18.8240  -26.1020   21.3950 C   0  0  0  0  0  2  0  0  0  0  0  0
  -19.8020  -28.0420   22.7550 C   0  0  0  0  0  0  0  0  0  0  0  0
  -19.6090  -29.2240   23.5010 C   0  0  0  0  0  3  0  0  0  0  0  0
  -18.3160  -29.7280   23.7330 C   0  0  0  0  0  3  0  0  0  0  0  0
  -17.1950  -29.0360   23.2350 C   0  0  0  0  0  3  0  0  0  0  0  0
  -17.3730  -27.8600   22.4810 C   0  0  0  0  0  3  0  0  0  0  0  0
  -26.6270  -31.4600   23.6720 C   0  0  0  0  0  3  0  0  0  0  0  0
  -26.3430  -32.7940   24.2170 N   0  0  0  0  0  0  0  0  0  0  0  0
  -26.6950  -33.9490   23.6370 C   0  0  0  0  0  0  0  0  0  0  0  0
  -27.3680  -34.0030   22.6020 O   0  0  0  0  0  0  0  0  0  0  0  0
  -25.7480  -32.8320   25.0320 H   0  0  0  0  0  0  0  0  0  0  0  0
  -25.0020  -35.8080   23.5850 C   0  0  0  0  0  1  0  0  0  0  0  0
  -26.2330  -35.2540   24.3170 C   0  0  0  0  0  3  0  0  0  0  0  0
  -28.3760  -35.9590   25.2860 C   0  0  0  0  0  1  0  0  0  0  0  0
  -27.2850  -36.2910   24.3730 N   0  0  0  0  0  0  0  0  0  0  0  0
  -26.8950  -37.1850   24.6600 H   0  0  0  0  0  0  0  0  0  0  0  0
  -27.1620  -30.4960   24.8000 C   0  0  1  0  0  0  0  0  0  0  0  0
  -26.0870  -30.0920   25.8350 C   0  0  0  0  0  1  0  0  0  0  0  0
  -27.7330  -29.1990   24.1820 C   0  0  0  0  0  1  0  0  0  0  0  0
  -28.3240  -31.1740   25.5630 C   0  0  0  0  0  1  0  0  0  0  0  0
  1 51  1  0
  1 47  1  0
  1  5  1  0
  2  4  1  0
  3  2  2  0
  5  6  2  0
  5  3  1  0
  6  7  1  0
  7  8  1  0
  7  4  2  0
  9 17  1  0
 10 15  1  0
 11 12  1  0
 11 10  1  0
 13 12  1  0
 13 22  1  0
 13 14  1  0
 15  9  1  0
 15 14  1  0
 16  9  2  0
 17  6  1  0
 18 17  1  0
 19 20  2  0
 20 39  1  0
 21 24  1  0
 21 20  1  0
 22 23  1  0
 22 19  1  0
 23 21  2  0
 24 25  1  0
 25 26  2  0
 27 30  1  0
 27 26  1  0
 28 27  2  0
 29 28  1  0
 29 24  2  0
 30 31  1  0
 31 36  2  0
 31 32  1  0
 32 33  2  0
 33 34  1  0
 34 38  1  0
 35 34  2  0
 36 35  1  0
 37 36  1  0
 39 40  1  0
 40 42  1  0
 40 43  1  0
 41 39  2  0
 44 19  1  0
 44 45  1  0
 46 44  1  0
 47 50  1  0
 47 48  1  0
 49 47  1  0
 51 52  1  0
 53 52  1  0
 53 55  1  0
 54 53  1  0
 56 53  1  0
 56 57  1  0
 58 60  1  0
 58 57  1  0
 59 70  2  0
 60 65  1  0
 61 69  1  0
 61 71  1  0
 62 68  1  0
 62 64  1  0
 63 69  1  0
 64 63  1  0
 65 64  2  0
 66 67  1  0
 66 60  2  0
 67 62  2  0
 68 61  1  0
 69 59  1  0
 71 73  2  0
 72 71  1  0
 74 72  1  0
 75 84  2  0
 75 80  1  0
 76 72  1  0
 76 80  1  0
 77 76  1  0
 78 79  1  0
 78 77  1  0
 79 75  1  0
 80 81  2  0
 81 82  1  0
 83 82  2  0
 84 83  1  0
 85 59  1  0
 85 86  1  0
 85 95  1  0
 86 89  1  0
 87 86  1  0
 87 91  1  0
 88 87  2  0
 91 90  1  0
 91 93  1  0
 93 94  1  0
 93 92  1  0
 95 98  1  1
 95 96  1  0
 97 95  1  0
M  ISO  4   9 100  17 100  57 101  58 101
M  END
>  <TORSDO>  (42) 
F 23

>  <SCORE>  (42) 
-5.413

>  <name>  (42) 
41

>  <ligand_id>  (42) 
41

>  <original_smiles>  (42) 
[H]c1c([H])c([H])c2c(c1[H])C([H])([H])C([H])([H])C([H])([H])C2([H])N([H])C(=O)C1([H])N(C(=O)C([H])(N([H])C(=O)C([H])(N([H])C([H])([H])[H])C([H])([H])[H])C(C([H])([H])[H])(C([H])([H])[H])C([H])([H])[H])C([H])([H])c2c([H])c(OC([H])([H])C([H])([H])[N+]([H])([H])C([H])([H])C([H])([H])C([H])(c3c([H])c([H])c([H])c(F)c3N([H])C(=O)N3C([H])([H])C([H])([H])C([H])([H])C([H])(n4nc(-c5c([H])c([H])c(Oc6c([H])c([H])c(F)c([H])c6F)c([H])c5[H])c(C(=O)N([H])[H])c4N([H])[H])C3([H])[H])[N+]([H])([H])[H])c([H])c([H])c2C1([H])[H]

>  <smiles>  (42) 
[H]c1c([H])c([H])c2c(c1[H])C([H])([H])C([H])([H])C([H])([H])C2([H])N([H])C(=O)C1([H])N(C(=O)C([H])(N([H])C(=O)C([H])(N([H])C([H])([H])[H])C([H])([H])[H])C(C([H])([H])[H])(C([H])([H])[H])C([H])([H])[H])C([H])([H])c2c([H])c(OC([H])([H])C([H])([H])[N+]([H])([H])C([H])([H])C([H])([H])C([H])(c3c([H])c([H])c([H])c(F)c3N([H])C(=O)N3C([H])([H])C([H])([H])C([H])([H])C([H])(n4nc(-c5c([H])c([H])c(Oc6c([H])c([H])c(F)c([H])c6F)c([H])c5[H])c(C(=O)N([H])[H])c4N([H])[H])C3([H])[H])[N+]([H])([H])[H])c([H])c([H])c2C1([H])[H]

$$$$
42:0:0
     RDKit          3D

 95103  0  0  1  0  0  0  0  0999 V2000
  -29.3450  -21.8980   20.5730 C   0  0  0  0  0  3  0  0  0  0  0  0
  -30.8770  -19.7250   20.4010 C   0  0  0  0  0  3  0  0  0  0  0  0
  -28.5200  -19.4420   20.0770 C   0  0  0  0  0  3  0  0  0  0  0  0
  -31.0670  -18.2990   20.3650 C   0  0  0  0  0  3  0  0  0  0  0  0
  -28.7030  -18.0280   20.0730 C   0  0  0  0  0  3  0  0  0  0  0  0
  -29.5940  -20.3450   20.2920 C   0  0  0  0  0  0  0  0  0  0  0  0
  -29.9690  -17.4030   20.2350 C   0  0  0  0  0  0  0  0  0  0  0  0
  -30.8510  -14.9240   20.0300 C   0  0  0  0  0  0  0  0  0  0  0  0
  -30.6550  -12.6650   18.9900 C   0  0  0  0  0  2  0  0  0  0  0  0
  -29.6610  -12.7680   17.8080 C   0  0  0  0  0  2  0  0  0  0  0  0
  -28.2050  -12.6000   18.2890 C   0  0  0  0  0  2  0  0  0  0  0  0
  -27.8860  -13.4810   19.5250 C   0  0  0  0  0  3  0  0  0  0  0  0
  -28.9800  -13.3230   20.6060 C   0  0  0  0  0  2  0  0  0  0  0  0
  -30.2690  -13.6810   19.9890 N   0  0  0  0  0  0  0  0  0  0  0  0
  -32.0020  -15.1090   19.6190 O   0  0  0  0  0  0  0  0  0  0  0  0
  -29.9950  -15.9410   20.3800 N   0  0  0  0  0  0  0  0  0  0  0  0
  -29.1020  -15.5550   20.6470 H   0  0  0  0  0  0  0  0  0  0  0  0
  -25.5290  -14.1160   20.3280 C   0  0  0  0  0  0  0  0  0  0  0  0
  -24.4640  -13.3570   20.7320 C   0  0  0  0  0  0  0  0  0  0  0  0
  -24.9030  -12.0000   20.6710 C   0  0  0  0  0  0  0  0  0  0  0  0
  -26.5500  -13.2200   20.0510 N   0  0  0  0  0  0  0  0  0  0  0  0
  -26.1800  -11.9420   20.3170 N   0  0  0  0  0  0  0  0  0  0  0  0
  -24.1650  -10.7470   20.8720 C   0  0  0  0  0  0  0  0  0  0  0  0
  -24.5810   -9.7900   21.8230 C   0  0  0  0  0  3  0  0  0  0  0  0
  -23.8450   -8.6010   22.0110 C   0  0  0  0  0  3  0  0  0  0  0  0
  -22.6780   -8.3610   21.2470 C   0  0  0  0  0  0  0  0  0  0  0  0
  -22.2830   -9.3050   20.2840 C   0  0  0  0  0  3  0  0  0  0  0  0
  -23.0190  -10.4870   20.0940 C   0  0  0  0  0  3  0  0  0  0  0  0
  -21.9140   -7.2230   21.3420 O   0  0  0  0  0  0  0  0  0  0  0  0
  -21.8090   -6.5250   22.5180 C   0  0  0  0  0  0  0  0  0  0  0  0
  -21.2950   -7.1170   23.6930 C   0  0  0  0  0  3  0  0  0  0  0  0
  -21.1390   -6.3430   24.8600 C   0  0  0  0  0  3  0  0  0  0  0  0
  -21.4870   -4.9790   24.8530 C   0  0  0  0  0  0  0  0  0  0  0  0
  -21.9930   -4.3870   23.6830 C   0  0  0  0  0  3  0  0  0  0  0  0
  -22.1510   -5.1580   22.5180 C   0  0  0  0  0  0  0  0  0  0  0  0
  -22.6200   -4.5780   21.3870 F   0  0  0  0  0  0  0  0  0  0  0  0
  -21.3290   -4.2340   25.9720 F   0  0  0  0  0  0  0  0  0  0  0  0
  -23.0850  -13.8550   21.0570 C   0  0  0  0  0  0  0  0  0  0  0  0
  -22.3770  -13.1600   21.9400 N   0  0  0  0  0  0  0  0  0  0  0  0
  -22.6440  -14.8910   20.5610 O   0  0  0  0  0  0  0  0  0  0  0  0
  -22.7470  -12.3200   22.3610 H   0  0  0  0  0  0  0  0  0  0  0  0
  -21.4530  -13.4730   22.2010 H   0  0  0  0  0  0  0  0  0  0  0  0
  -25.7050  -15.4830   20.1460 N   0  0  0  0  0  0  0  0  0  0  0  0
  -24.9270  -16.1280   20.2360 H   0  0  0  0  0  0  0  0  0  0  0  0
  -26.4890  -15.8780   19.6460 H   0  0  0  0  0  0  0  0  0  0  0  0
  -29.8910  -22.9150   18.4220 C   0  0  0  0  0  1  0  0  0  0  0  0
  -28.8570  -22.7720   19.4460 N   0  0  0  0  0  0  0  0  0  0  0  0
  -28.0890  -24.0800   19.5970 C   0  0  0  0  0  2  0  0  0  0  0  0
  -28.6410  -25.3640   20.3680 C   0  0  0  0  0  2  0  0  0  0  0  0
  -28.4760  -26.7390   19.8350 O   0  0  0  0  0  0  0  0  0  0  0  0
  -24.5950  -31.8270   23.2150 C   0  0  0  0  0  0  0  0  0  0  0  0
  -27.2900  -27.4740   19.9500 C   0  0  0  0  0  0  0  0  0  0  0  0
  -23.4060  -30.4710   21.5250 C   0  0  0  0  0  3  0  0  0  0  0  0
  -24.8780  -29.0070   20.0300 C   0  0  0  0  0  0  0  0  0  0  0  0
  -25.9310  -30.8640   21.3270 C   0  0  0  0  0  2  0  0  0  0  0  0
  -26.0370  -29.5120   20.6300 C   0  0  0  0  0  0  0  0  0  0  0  0
  -27.2460  -28.7590   20.5750 C   0  0  0  0  0  3  0  0  0  0  0  0
  -26.1050  -27.0030   19.3500 C   0  0  0  0  0  3  0  0  0  0  0  0
  -24.9130  -27.7570   19.3860 C   0  0  0  0  0  3  0  0  0  0  0  0
  -23.6230  -29.8530   20.1160 C   0  0  0  0  0  2  0  0  0  0  0  0
  -24.6630  -31.0710   22.0800 N   0  0  0  0  0  0  0  0  0  0  0  0
  -23.5130  -32.0520   23.7750 O   0  0  0  0  0  0  0  0  0  0  0  0
  -22.7810  -29.4010   22.4500 C   0  0  0  0  0  0  0  0  0  0  0  0
  -21.4660  -29.1680   22.3040 N   0  0  0  0  0  0  0  0  0  0  0  0
  -23.4790  -28.7820   23.2580 O   0  0  0  0  0  0  0  0  0  0  0  0
  -20.9590  -29.7280   21.6340 H   0  0  0  0  0  0  0  0  0  0  0  0
  -18.1510  -27.7740   22.6880 C   0  0  0  0  0  0  0  0  0  0  0  0
  -20.6820  -28.1720   23.0360 C   0  0  0  0  0  3  0  0  0  0  0  0
  -20.8800  -26.7580   22.4410 C   0  0  0  0  0  2  0  0  0  0  0  0
  -19.8270  -26.3900   21.3920 C   0  0  0  0  0  2  0  0  0  0  0  0
  -18.4220  -26.4470   21.9990 C   0  0  0  0  0  2  0  0  0  0  0  0
  -19.2130  -28.5910   23.1610 C   0  0  0  0  0  0  0  0  0  0  0  0
  -18.9090  -29.8290   23.7660 C   0  0  0  0  0  3  0  0  0  0  0  0
  -17.5730  -30.2520   23.9060 C   0  0  0  0  0  3  0  0  0  0  0  0
  -16.5250  -29.4340   23.4510 C   0  0  0  0  0  3  0  0  0  0  0  0
  -16.8140  -28.1970   22.8460 C   0  0  0  0  0  3  0  0  0  0  0  0
  -25.8700  -32.4630   23.8510 C   0  0  0  0  0  3  0  0  0  0  0  0
  -25.5520  -33.8600   24.1790 N   0  0  0  0  0  0  0  0  0  0  0  0
  -25.8830  -34.9150   23.4240 C   0  0  0  0  0  0  0  0  0  0  0  0
  -26.5550  -34.8160   22.3940 O   0  0  0  0  0  0  0  0  0  0  0  0
  -24.9520  -34.0090   24.9770 H   0  0  0  0  0  0  0  0  0  0  0  0
  -24.1450  -36.7020   23.0770 C   0  0  0  0  0  1  0  0  0  0  0  0
  -25.3880  -36.3000   23.8860 C   0  0  0  0  0  3  0  0  0  0  0  0
  -27.5130  -37.2020   24.7210 C   0  0  0  0  0  1  0  0  0  0  0  0
  -26.4140  -37.3580   23.7730 N   0  0  0  0  0  0  0  0  0  0  0  0
  -26.0000  -38.2760   23.9160 H   0  0  0  0  0  0  0  0  0  0  0  0
  -26.3780  -31.6940   25.1320 C   0  0  1  0  0  0  0  0  0  0  0  0
  -25.2760  -31.4520   26.1900 C   0  0  0  0  0  1  0  0  0  0  0  0
  -26.9760  -30.3220   24.7430 C   0  0  0  0  0  1  0  0  0  0  0  0
  -27.5160  -32.4960   25.8070 C   0  0  0  0  0  1  0  0  0  0  0  0
  -28.4460  -22.0790   21.8260 C   0  0  0  0  0  2  0  0  0  0  0  0
  -29.1450  -21.7420   23.0770 N   0  0  0  0  0  4  0  0  0  0  0  0
  -29.5030  -20.8040   23.0380 H   0  0  0  0  0  0  0  0  0  0  0  0
  -28.5080  -21.8090   23.8510 H   0  0  0  0  0  0  0  0  0  0  0  0
  -29.9040  -22.3760   23.2420 H   0  0  0  0  0  0  0  0  0  0  0  0
  1 91  1  0
  3  6  1  0
  4  2  1  0
  5  3  2  0
  5  7  1  0
  6  2  2  0
  6  1  1  0
  7  4  2  0
  7 16  1  0
  8 16  1  0
  9 14  1  0
 10 11  1  0
 10  9  1  0
 12 11  1  0
 12 21  1  0
 12 13  1  0
 14  8  1  0
 14 13  1  0
 15  8  2  0
 16 17  1  0
 18 19  2  0
 19 38  1  0
 20 19  1  0
 20 23  1  0
 21 22  1  0
 21 18  1  0
 22 20  2  0
 23 24  1  0
 24 25  2  0
 26 29  1  0
 26 25  1  0
 27 26  2  0
 28 27  1  0
 28 23  2  0
 29 30  1  0
 30 35  2  0
 30 31  1  0
 31 32  2  0
 33 32  1  0
 33 37  1  0
 34 33  2  0
 35 34  1  0
 36 35  1  0
 38 39  1  0
 39 42  1  0
 39 41  1  0
 40 38  2  0
 43 44  1  0
 43 18  1  0
 45 43  1  0
 46 47  1  0
 47 48  1  0
 47  1  1  0
 48 49  1  0
 50 52  1  0
 50 49  1  0
 51 62  2  0
 52 57  1  0
 53 61  1  0
 53 63  1  0
 54 60  1  0
 54 56  1  0
 55 61  1  0
 56 55  1  0
 57 56  2  0
 58 59  1  0
 58 52  2  0
 59 54  2  0
 60 53  1  0
 61 51  1  0
 63 65  2  0
 64 63  1  0
 66 64  1  0
 67 76  2  0
 67 72  1  0
 68 64  1  0
 68 72  1  0
 69 68  1  0
 70 71  1  0
 70 69  1  0
 71 67  1  0
 72 73  2  0
 73 74  1  0
 75 74  2  0
 76 75  1  0
 77 51  1  0
 77 78  1  0
 77 87  1  0
 78 81  1  0
 79 83  1  0
 79 78  1  0
 80 79  2  0
 83 82  1  0
 85 83  1  0
 85 86  1  0
 85 84  1  0
 87 90  1  1
 87 88  1  0
 89 87  1  0
 91 92  1  0
 92 95  1  0
 92 94  1  0
 93 92  1  0
M  ISO  4   8 100  16 100  49 101  50 101
M  END
>  <TORSDO>  (43) 
F 22

>  <SCORE>  (43) 
-13.427

>  <name>  (43) 
42

>  <ligand_id>  (43) 
42

>  <original_smiles>  (43) 
[H]c1c([H])c([H])c2c(c1[H])C([H])([H])C([H])([H])C([H])([H])C2([H])N([H])C(=O)C1([H])N(C(=O)C([H])(N([H])C(=O)C([H])(N([H])C([H])([H])[H])C([H])([H])[H])C(C([H])([H])[H])(C([H])([H])[H])C([H])([H])[H])C([H])([H])c2c([H])c(OC([H])([H])C([H])([H])N(C([H])([H])[H])C([H])(c3c([H])c([H])c(N([H])C(=O)N4C([H])([H])C([H])([H])C([H])([H])C([H])(n5nc(-c6c([H])c([H])c(Oc7c([H])c([H])c(F)c([H])c7F)c([H])c6[H])c(C(=O)N([H])[H])c5N([H])[H])C4([H])[H])c([H])c3[H])C([H])([H])[N+]([H])([H])[H])c([H])c([H])c2C1([H])[H]

>  <smiles>  (43) 
[H]c1c([H])c([H])c2c(c1[H])C([H])([H])C([H])([H])C([H])([H])C2([H])N([H])C(=O)C1([H])N(C(=O)C([H])(N([H])C(=O)C([H])(N([H])C([H])([H])[H])C([H])([H])[H])C(C([H])([H])[H])(C([H])([H])[H])C([H])([H])[H])C([H])([H])c2c([H])c(OC([H])([H])C([H])([H])N(C([H])([H])[H])C([H])(c3c([H])c([H])c(N([H])C(=O)N4C([H])([H])C([H])([H])C([H])([H])C([H])(n5nc(-c6c([H])c([H])c(Oc7c([H])c([H])c(F)c([H])c7F)c([H])c6[H])c(C(=O)N([H])[H])c5N([H])[H])C4([H])[H])c([H])c3[H])C([H])([H])[N+]([H])([H])[H])c([H])c([H])c2C1([H])[H]

$$$$
43:0:0
     RDKit          3D

 99107  0  0  1  0  0  0  0  0999 V2000
  -27.1780  -20.1380   17.5210 C   0  0  0  0  0  2  0  0  0  0  0  0
  -26.4010  -20.0120   19.9320 C   0  0  0  0  0  1  0  0  0  0  0  0
  -27.4510  -19.6810   18.9310 N   0  0  1  0  0  4  0  0  0  0  0  0
  -28.2780  -20.1720   19.2310 H   0  0  0  0  0  0  0  0  0  0  0  0
  -27.7900  -18.2290   19.0330 C   0  0  0  0  0  2  0  0  0  0  0  0
  -31.5140  -17.2050   21.0670 C   0  0  0  0  0  3  0  0  0  0  0  0
  -30.7320  -18.2950   21.5060 C   0  0  0  0  0  3  0  0  0  0  0  0
  -29.9550  -16.8730   19.2190 C   0  0  0  0  0  3  0  0  0  0  0  0
  -29.1410  -17.9300   19.6830 C   0  0  0  0  0  0  0  0  0  0  0  0
  -31.1290  -16.4910   19.9120 C   0  0  0  0  0  0  0  0  0  0  0  0
  -29.5480  -18.6510   20.8270 C   0  0  0  0  0  0  0  0  0  0  0  0
  -28.7900  -19.6780   21.2800 F   0  0  0  0  0  0  0  0  0  0  0  0
  -32.5690  -14.4120   19.9340 C   0  0  0  0  0  0  0  0  0  0  0  0
  -32.1380  -12.0780   19.3290 C   0  0  0  0  0  2  0  0  0  0  0  0
  -31.2410  -12.0960   18.0710 C   0  0  0  0  0  2  0  0  0  0  0  0
  -29.7520  -12.1950   18.4610 C   0  0  0  0  0  2  0  0  0  0  0  0
  -29.4620  -13.3060   19.5050 C   0  0  0  0  0  3  0  0  0  0  0  0
  -30.4760  -13.2480   20.6690 C   0  0  0  0  0  2  0  0  0  0  0  0
  -31.8250  -13.2900   20.0940 N   0  0  0  0  0  0  0  0  0  0  0  0
  -33.7840  -14.3880   19.7260 O   0  0  0  0  0  0  0  0  0  0  0  0
  -31.8700  -15.4100   19.3600 N   0  0  0  0  0  0  0  0  0  0  0  0
  -32.1440  -15.5710   18.4030 H   0  0  0  0  0  0  0  0  0  0  0  0
  -27.1910  -14.2900   20.1950 C   0  0  0  0  0  0  0  0  0  0  0  0
  -26.0140  -13.7020   20.5610 C   0  0  0  0  0  0  0  0  0  0  0  0
  -26.2550  -12.2930   20.5480 C   0  0  0  0  0  0  0  0  0  0  0  0
  -28.0850  -13.2540   19.9820 N   0  0  0  0  0  0  0  0  0  0  0  0
  -27.5260  -12.0480   20.2560 N   0  0  0  0  0  0  0  0  0  0  0  0
  -25.3420  -11.1640   20.7390 C   0  0  0  0  0  0  0  0  0  0  0  0
  -25.5400  -10.2260   21.7740 C   0  0  0  0  0  3  0  0  0  0  0  0
  -24.6400   -9.1560   21.9540 C   0  0  0  0  0  3  0  0  0  0  0  0
  -23.5220   -9.0190   21.0970 C   0  0  0  0  0  0  0  0  0  0  0  0
  -23.3410   -9.9440   20.0540 C   0  0  0  0  0  3  0  0  0  0  0  0
  -24.2420  -11.0060   19.8740 C   0  0  0  0  0  3  0  0  0  0  0  0
  -22.6090   -7.9970   21.1820 O   0  0  0  0  0  0  0  0  0  0  0  0
  -22.2470   -7.4510   22.3860 C   0  0  0  0  0  0  0  0  0  0  0  0
  -21.6750   -8.2300   23.4150 C   0  0  0  0  0  3  0  0  0  0  0  0
  -21.2520   -7.6170   24.6110 C   0  0  0  0  0  3  0  0  0  0  0  0
  -21.3930   -6.2260   24.7780 C   0  0  0  0  0  0  0  0  0  0  0  0
  -21.9590   -5.4480   23.7550 C   0  0  0  0  0  3  0  0  0  0  0  0
  -22.3810   -6.0590   22.5600 C   0  0  0  0  0  0  0  0  0  0  0  0
  -22.9040   -5.3010   21.5660 F   0  0  0  0  0  0  0  0  0  0  0  0
  -20.9810   -5.6360   25.9250 F   0  0  0  0  0  0  0  0  0  0  0  0
  -24.7060  -14.3940   20.8190 C   0  0  0  0  0  0  0  0  0  0  0  0
  -23.9290  -13.9050   21.7780 N   0  0  0  0  0  0  0  0  0  0  0  0
  -24.3900  -15.4100   20.2010 O   0  0  0  0  0  0  0  0  0  0  0  0
  -24.1950  -13.0840   22.3030 H   0  0  0  0  0  0  0  0  0  0  0  0
  -23.0550  -14.3620   21.9930 H   0  0  0  0  0  0  0  0  0  0  0  0
  -27.5740  -15.6140   20.0080 N   0  0  0  0  0  0  0  0  0  0  0  0
  -26.9430  -16.3900   20.1700 H   0  0  0  0  0  0  0  0  0  0  0  0
  -28.5240  -15.8890   19.7950 H   0  0  0  0  0  0  0  0  0  0  0  0
  -26.6630  -21.6030   17.3210 C   0  0  0  0  0  3  0  0  0  0  0  0
  -25.4200  -21.6590   17.8040 F   0  0  0  0  0  0  0  0  0  0  0  0
  -27.5650  -22.7340   17.9120 C   0  0  0  0  0  2  0  0  0  0  0  0
  -25.7170  -24.4920   18.0330 C   0  0  0  0  0  1  0  0  0  0  0  0
  -27.1260  -24.1580   17.7000 N   0  0  1  0  0  4  0  0  0  0  0  0
  -27.1250  -24.2730   16.6950 H   0  0  0  0  0  0  0  0  0  0  0  0
  -28.1110  -25.2000   18.1510 C   0  0  0  0  0  2  0  0  0  0  0  0
  -28.3370  -25.3590   19.6830 C   0  0  0  0  0  2  0  0  0  0  0  0
  -28.4370  -26.7440   20.0960 O   0  0  0  0  0  0  0  0  0  0  0  0
  -27.0910  -31.8460   24.9220 C   0  0  0  0  0  0  0  0  0  0  0  0
  -27.5820  -27.2250   21.0720 C   0  0  0  0  0  0  0  0  0  0  0  0
  -25.6840  -29.8240   25.0500 C   0  0  0  0  0  3  0  0  0  0  0  0
  -25.8370  -28.2360   23.0660 C   0  0  0  0  0  0  0  0  0  0  0  0
  -26.7060  -30.5610   22.8180 C   0  0  0  0  0  2  0  0  0  0  0  0
  -26.7220  -29.1010   22.4100 C   0  0  0  0  0  0  0  0  0  0  0  0
  -27.5910  -28.6010   21.4080 C   0  0  0  0  0  3  0  0  0  0  0  0
  -26.6840  -26.3820   21.7640 C   0  0  0  0  0  3  0  0  0  0  0  0
  -25.8130  -26.8750   22.7430 C   0  0  0  0  0  3  0  0  0  0  0  0
  -24.9370  -28.8330   24.1240 C   0  0  0  0  0  2  0  0  0  0  0  0
  -26.5460  -30.7770   24.2790 N   0  0  0  0  0  0  0  0  0  0  0  0
  -26.8620  -32.0610   26.1210 O   0  0  0  0  0  0  0  0  0  0  0  0
  -26.4600  -29.0220   26.1200 C   0  0  0  0  0  0  0  0  0  0  0  0
  -25.9600  -29.0460   27.3680 N   0  0  0  0  0  0  0  0  0  0  0  0
  -27.4690  -28.3820   25.8200 O   0  0  0  0  0  0  0  0  0  0  0  0
  -25.1360  -29.6040   27.5390 H   0  0  0  0  0  0  0  0  0  0  0  0
  -25.9560  -28.9430   30.9790 C   0  0  0  0  0  0  0  0  0  0  0  0
  -26.5040  -28.3390   28.5260 C   0  0  0  0  0  3  0  0  0  0  0  0
  -25.7420  -27.0190   28.7870 C   0  0  0  0  0  2  0  0  0  0  0  0
  -24.5990  -27.1590   29.7980 C   0  0  0  0  0  2  0  0  0  0  0  0
  -25.1280  -27.6810   31.1400 C   0  0  0  0  0  2  0  0  0  0  0  0
  -26.5910  -29.2570   29.7490 C   0  0  0  0  0  0  0  0  0  0  0  0
  -27.3360  -30.4530   29.6510 C   0  0  0  0  0  3  0  0  0  0  0  0
  -27.4570  -31.3180   30.7510 C   0  0  0  0  0  3  0  0  0  0  0  0
  -26.8340  -30.9960   31.9690 C   0  0  0  0  0  3  0  0  0  0  0  0
  -26.0890  -29.8120   32.0820 C   0  0  0  0  0  3  0  0  0  0  0  0
  -28.0100  -32.8640   24.1780 C   0  0  0  0  0  3  0  0  0  0  0  0
  -27.6140  -34.2140   24.6020 N   0  0  0  0  0  0  0  0  0  0  0  0
  -27.0160  -35.1130   23.8080 C   0  0  0  0  0  0  0  0  0  0  0  0
  -26.8090  -34.9140   22.6070 O   0  0  0  0  0  0  0  0  0  0  0  0
  -27.7190  -34.4320   25.5820 H   0  0  0  0  0  0  0  0  0  0  0  0
  -25.0460  -36.5060   24.5150 C   0  0  0  0  0  1  0  0  0  0  0  0
  -26.5800  -36.4480   24.4450 C   0  0  0  0  0  3  0  0  0  0  0  0
  -28.5250  -37.8490   23.9150 C   0  0  0  0  0  1  0  0  0  0  0  0
  -27.0910  -37.6370   23.7300 N   0  0  0  0  0  0  0  0  0  0  0  0
  -26.6040  -38.4770   24.0250 H   0  0  0  0  0  0  0  0  0  0  0  0
  -29.5450  -32.6230   24.4460 C   0  0  1  0  0  0  0  0  0  0  0  0
  -29.8970  -32.4390   25.9410 C   0  0  0  0  0  1  0  0  0  0  0  0
  -30.0390  -31.3680   23.6890 C   0  0  0  0  0  1  0  0  0  0  0  0
  -30.3660  -33.8150   23.9010 C   0  0  0  0  0  1  0  0  0  0  0  0
  1  3  1  0
  3  5  1  0
  3  4  1  1
  3  2  1  0
  5  9  1  0
  6  7  1  0
  8  9  2  0
  8 10  1  0
  9 11  1  0
 10  6  2  0
 11 12  1  0
 11  7  2  0
 13 19  1  0
 14 19  1  0
 15 16  1  0
 15 14  1  0
 17 16  1  0
 17 26  1  0
 17 18  1  0
 19 18  1  0
 20 13  2  0
 21 10  1  0
 21 13  1  0
 22 21  1  0
 23 24  2  0
 24 43  1  0
 25 24  1  0
 25 28  1  0
 26 23  1  0
 26 27  1  0
 27 25  2  0
 28 29  1  0
 29 30  2  0
 31 34  1  0
 31 30  1  0
 32 31  2  0
 33 32  1  0
 33 28  2  0
 34 35  1  0
 35 40  2  0
 35 36  1  0
 36 37  2  0
 37 38  1  0
 38 42  1  0
 39 38  2  0
 40 39  1  0
 41 40  1  0
 43 44  1  0
 44 47  1  0
 44 46  1  0
 45 43  2  0
 48 49  1  0
 48 23  1  0
 50 48  1  0
 51  1  1  0
 51 52  1  0
 51 53  1  0
 55 53  1  0
 55 54  1  0
 55 57  1  0
 55 56  1  6
 57 58  1  0
 58 59  1  0
 59 61  1  0
 60 71  2  0
 61 66  2  0
 61 67  1  0
 62 72  1  0
 63 69  1  0
 64 70  1  0
 65 64  1  0
 65 63  2  0
 66 65  1  0
 67 68  2  0
 68 63  1  0
 69 62  1  0
 70 60  1  0
 70 62  1  0
 72 73  1  0
 73 75  1  0
 74 72  2  0
 76 80  1  0
 76 85  1  0
 77 73  1  0
 77 78  1  0
 77 81  1  0
 78 79  1  0
 79 80  1  0
 81 76  2  0
 82 81  1  0
 82 83  2  0
 83 84  1  0
 84 85  2  0
 86 96  1  0
 86 87  1  0
 86 60  1  0
 87 90  1  0
 88 92  1  0
 88 87  1  0
 89 88  2  0
 92 91  1  0
 94 93  1  0
 94 95  1  0
 94 92  1  0
 96 97  1  1
 98 96  1  0
 99 96  1  0
M  ISO  4  13 100  21 100  58 101  59 101
M  END
>  <TORSDO>  (44) 
F 24

>  <SCORE>  (44) 
-7.540

>  <name>  (44) 
43

>  <ligand_id>  (44) 
43

>  <original_smiles>  (44) 
[H]c1c([H])c([H])c2c(c1[H])C([H])([H])C([H])([H])C([H])([H])C2([H])N([H])C(=O)C1([H])N(C(=O)C([H])(N([H])C(=O)C([H])(N([H])C([H])([H])[H])C([H])([H])[H])C(C([H])([H])[H])(C([H])([H])[H])C([H])([H])[H])C([H])([H])c2c([H])c(OC([H])([H])C([H])([H])[N+]([H])(C([H])([H])[H])C([H])([H])C([H])(F)C([H])([H])[N+]([H])(C([H])([H])[H])C([H])([H])c3c([H])c(N([H])C(=O)N4C([H])([H])C([H])([H])C([H])([H])C([H])(n5nc(-c6c([H])c([H])c(Oc7c([H])c([H])c(F)c([H])c7F)c([H])c6[H])c(C(=O)N([H])[H])c5N([H])[H])C4([H])[H])c([H])c([H])c3F)c([H])c([H])c2C1([H])[H]

>  <smiles>  (44) 
[H]c1c([H])c([H])c2c(c1[H])C([H])([H])C([H])([H])C([H])([H])C2([H])N([H])C(=O)C1([H])N(C(=O)C([H])(N([H])C(=O)C([H])(N([H])C([H])([H])[H])C([H])([H])[H])C(C([H])([H])[H])(C([H])([H])[H])C([H])([H])[H])C([H])([H])c2c([H])c(OC([H])([H])C([H])([H])[N+]([H])(C([H])([H])[H])C([H])([H])C([H])(F)C([H])([H])[N+]([H])(C([H])([H])[H])C([H])([H])c3c([H])c(N([H])C(=O)N4C([H])([H])C([H])([H])C([H])([H])C([H])(n5nc(-c6c([H])c([H])c(Oc7c([H])c([H])c(F)c([H])c7F)c([H])c6[H])c(C(=O)N([H])[H])c5N([H])[H])C4([H])[H])c([H])c([H])c3F)c([H])c([H])c2C1([H])[H]

$$$$
44:0:0
     RDKit          3D

 93101  0  0  1  0  0  0  0  0999 V2000
  -28.7830  -21.0860   20.0850 C   0  0  0  0  0  0  0  0  0  0  0  0
  -29.0080  -22.3900   20.5060 N   0  0  0  0  0  0  0  0  0  0  0  0
  -27.8770  -20.8600   19.2810 O   0  0  0  0  0  0  0  0  0  0  0  0
  -29.7390  -22.4830   21.2000 H   0  0  0  0  0  0  0  0  0  0  0  0
  -29.2850  -18.4700   20.3620 C   0  0  0  0  0  3  0  0  0  0  0  0
  -31.3950  -17.6730   21.2600 C   0  0  0  0  0  3  0  0  0  0  0  0
  -29.6520  -19.8720   20.5570 C   0  0  0  0  0  0  0  0  0  0  0  0
  -30.1450  -17.3370   20.6930 C   0  0  0  0  0  0  0  0  0  0  0  0
  -31.7780  -19.0160   21.4640 C   0  0  0  0  0  0  0  0  0  0  0  0
  -30.9340  -20.0930   21.1190 C   0  0  0  0  0  0  0  0  0  0  0  0
  -32.9920  -19.2740   22.0040 F   0  0  0  0  0  0  0  0  0  0  0  0
  -31.3900  -21.3530   21.3300 F   0  0  0  0  0  0  0  0  0  0  0  0
  -30.5710  -14.7630   20.3600 C   0  0  0  0  0  0  0  0  0  0  0  0
  -30.3680  -12.4910   19.3280 C   0  0  0  0  0  2  0  0  0  0  0  0
  -29.4250  -12.5760   18.1090 C   0  0  0  0  0  2  0  0  0  0  0  0
  -27.9540  -12.4060   18.5420 C   0  0  0  0  0  2  0  0  0  0  0  0
  -27.5880  -13.2770   19.7750 C   0  0  0  0  0  3  0  0  0  0  0  0
  -28.6550  -13.1770   20.8860 C   0  0  0  0  0  2  0  0  0  0  0  0
  -29.9420  -13.5410   20.2820 N   0  0  0  0  0  0  0  0  0  0  0  0
  -31.7620  -14.8510   20.0470 O   0  0  0  0  0  0  0  0  0  0  0  0
  -29.7840  -15.8980   20.5370 N   0  0  0  0  0  0  0  0  0  0  0  0
  -28.7960  -15.6990   20.5590 H   0  0  0  0  0  0  0  0  0  0  0  0
  -25.2040  -13.8590   20.5180 C   0  0  0  0  0  0  0  0  0  0  0  0
  -24.1430  -13.0820   20.8940 C   0  0  0  0  0  0  0  0  0  0  0  0
  -24.6100  -11.7320   20.8610 C   0  0  0  0  0  0  0  0  0  0  0  0
  -26.2480  -12.9830   20.2740 N   0  0  0  0  0  0  0  0  0  0  0  0
  -25.9000  -11.6990   20.5440 N   0  0  0  0  0  0  0  0  0  0  0  0
  -23.8880  -10.4680   21.0540 C   0  0  0  0  0  0  0  0  0  0  0  0
  -24.3330   -9.4950   21.9760 C   0  0  0  0  0  3  0  0  0  0  0  0
  -23.6100   -8.2970   22.1590 C   0  0  0  0  0  3  0  0  0  0  0  0
  -22.4270   -8.0620   21.4170 C   0  0  0  0  0  0  0  0  0  0  0  0
  -22.0020   -9.0230   20.4830 C   0  0  0  0  0  3  0  0  0  0  0  0
  -22.7250  -10.2130   20.3000 C   0  0  0  0  0  3  0  0  0  0  0  0
  -21.6770   -6.9160   21.5080 O   0  0  0  0  0  0  0  0  0  0  0  0
  -21.6490   -6.1620   22.6540 C   0  0  0  0  0  0  0  0  0  0  0  0
  -21.2530   -6.7060   23.8960 C   0  0  0  0  0  3  0  0  0  0  0  0
  -21.1740   -5.8780   25.0340 C   0  0  0  0  0  3  0  0  0  0  0  0
  -21.4810   -4.5070   24.9310 C   0  0  0  0  0  0  0  0  0  0  0  0
  -21.8700   -3.9640   23.6950 C   0  0  0  0  0  3  0  0  0  0  0  0
  -21.9530   -4.7880   22.5600 C   0  0  0  0  0  0  0  0  0  0  0  0
  -22.3080   -4.2560   21.3650 F   0  0  0  0  0  0  0  0  0  0  0  0
  -21.3980   -3.7100   26.0210 F   0  0  0  0  0  0  0  0  0  0  0  0
  -22.7460  -13.5550   21.1700 C   0  0  0  0  0  0  0  0  0  0  0  0
  -22.0220  -12.8580   22.0380 N   0  0  0  0  0  0  0  0  0  0  0  0
  -22.3030  -14.5780   20.6490 O   0  0  0  0  0  0  0  0  0  0  0  0
  -22.3910  -12.0310   22.4820 H   0  0  0  0  0  0  0  0  0  0  0  0
  -21.0830  -13.1570   22.2630 H   0  0  0  0  0  0  0  0  0  0  0  0
  -25.3590  -15.2310   20.3330 N   0  0  0  0  0  0  0  0  0  0  0  0
  -24.5770  -15.8710   20.4280 H   0  0  0  0  0  0  0  0  0  0  0  0
  -26.1790  -15.6710   19.9380 H   0  0  0  0  0  0  0  0  0  0  0  0
  -28.5410  -23.7080   19.8650 C   0  0  0  0  0  2  0  0  0  0  0  0
  -28.2470  -25.0330   20.7560 C   0  0  0  0  0  2  0  0  0  0  0  0
  -28.3370  -26.4320   20.2060 O   0  0  0  0  0  0  0  0  0  0  0  0
  -24.6020  -31.8860   23.2410 C   0  0  0  0  0  0  0  0  0  0  0  0
  -27.2170  -27.2880   20.2160 C   0  0  0  0  0  0  0  0  0  0  0  0
  -23.4020  -30.4790   21.6040 C   0  0  0  0  0  3  0  0  0  0  0  0
  -24.8550  -28.9170   20.1870 C   0  0  0  0  0  0  0  0  0  0  0  0
  -25.9400  -30.7970   21.4170 C   0  0  0  0  0  2  0  0  0  0  0  0
  -26.0250  -29.4100   20.7790 C   0  0  0  0  0  0  0  0  0  0  0  0
  -27.2120  -28.6090   20.7740 C   0  0  0  0  0  3  0  0  0  0  0  0
  -26.0260  -26.8500   19.6030 C   0  0  0  0  0  3  0  0  0  0  0  0
  -24.8600  -27.6470   19.5870 C   0  0  0  0  0  3  0  0  0  0  0  0
  -23.6180  -29.7940   20.2300 C   0  0  0  0  0  2  0  0  0  0  0  0
  -24.6680  -31.0720   22.1460 N   0  0  0  0  0  0  0  0  0  0  0  0
  -23.5200  -32.1630   23.7760 O   0  0  0  0  0  0  0  0  0  0  0  0
  -22.7370  -29.4700   22.5710 C   0  0  0  0  0  0  0  0  0  0  0  0
  -21.4090  -29.2940   22.4480 N   0  0  0  0  0  0  0  0  0  0  0  0
  -23.4150  -28.8450   23.3900 O   0  0  0  0  0  0  0  0  0  0  0  0
  -20.9200  -29.8480   21.7600 H   0  0  0  0  0  0  0  0  0  0  0  0
  -18.0330  -28.0970   22.9550 C   0  0  0  0  0  0  0  0  0  0  0  0
  -20.5910  -28.3580   23.2210 C   0  0  0  0  0  3  0  0  0  0  0  0
  -20.6930  -26.9260   22.6480 C   0  0  0  0  0  2  0  0  0  0  0  0
  -19.5910  -26.6010   21.6350 C   0  0  0  0  0  2  0  0  0  0  0  0
  -18.2090  -26.7460   22.2800 C   0  0  0  0  0  2  0  0  0  0  0  0
  -19.1520  -28.8600   23.3830 C   0  0  0  0  0  0  0  0  0  0  0  0
  -18.9320  -30.1230   23.9740 C   0  0  0  0  0  3  0  0  0  0  0  0
  -17.6280  -30.6250   24.1410 C   0  0  0  0  0  3  0  0  0  0  0  0
  -16.5230  -29.8580   23.7310 C   0  0  0  0  0  3  0  0  0  0  0  0
  -16.7270  -28.5950   23.1440 C   0  0  0  0  0  3  0  0  0  0  0  0
  -25.8830  -32.5240   23.8630 C   0  0  0  0  0  3  0  0  0  0  0  0
  -26.3990  -31.7570   25.1420 C   0  0  1  0  0  0  0  0  0  0  0  0
  -25.3060  -31.5220   26.2100 C   0  0  0  0  0  1  0  0  0  0  0  0
  -26.9790  -30.3790   24.7530 C   0  0  0  0  0  1  0  0  0  0  0  0
  -27.5520  -32.5490   25.8020 C   0  0  0  0  0  1  0  0  0  0  0  0
  -25.5710  -33.9230   24.1920 N   0  0  0  0  0  0  0  0  0  0  0  0
  -25.9030  -34.9770   23.4330 C   0  0  0  0  0  0  0  0  0  0  0  0
  -26.5710  -34.8720   22.4010 O   0  0  0  0  0  0  0  0  0  0  0  0
  -24.9790  -34.0780   24.9950 H   0  0  0  0  0  0  0  0  0  0  0  0
  -24.1750  -36.7700   23.0780 C   0  0  0  0  0  1  0  0  0  0  0  0
  -25.4170  -36.3660   23.8890 C   0  0  0  0  0  3  0  0  0  0  0  0
  -27.5540  -37.2500   24.7170 C   0  0  0  0  0  1  0  0  0  0  0  0
  -26.4500  -37.4180   23.7740 N   0  0  0  0  0  0  0  0  0  0  0  0
  -26.0460  -38.3390   23.9230 H   0  0  0  0  0  0  0  0  0  0  0  0
  1  2  1  0
  1  7  1  0
  2  4  1  0
  3  1  2  0
  5  7  2  0
  5  8  1  0
  6  9  1  0
  7 10  1  0
  8  6  2  0
  9 11  1  0
 10 12  1  0
 10  9  2  0
 13 21  1  0
 14 19  1  0
 15 16  1  0
 15 14  1  0
 17 16  1  0
 17 26  1  0
 17 18  1  0
 19 13  1  0
 19 18  1  0
 20 13  2  0
 21 22  1  0
 21  8  1  0
 23 24  2  0
 24 43  1  0
 25 24  1  0
 25 28  1  0
 26 23  1  0
 26 27  1  0
 27 25  2  0
 28 29  1  0
 29 30  2  0
 31 34  1  0
 31 30  1  0
 32 31  2  0
 33 32  1  0
 33 28  2  0
 34 35  1  0
 35 36  1  0
 36 37  2  0
 38 37  1  0
 38 42  1  0
 39 38  2  0
 40 35  2  0
 40 39  1  0
 41 40  1  0
 43 44  1  0
 44 47  1  0
 44 46  1  0
 45 43  2  0
 48 49  1  0
 48 23  1  0
 50 48  1  0
 51  2  1  0
 51 52  1  0
 53 55  1  0
 53 52  1  0
 54 65  2  0
 55 60  1  0
 56 64  1  0
 56 66  1  0
 57 63  1  0
 57 59  1  0
 58 64  1  0
 59 58  1  0
 60 59  2  0
 61 55  2  0
 62 61  1  0
 62 57  2  0
 63 56  1  0
 64 54  1  0
 66 68  2  0
 67 66  1  0
 69 67  1  0
 70 79  2  0
 70 75  1  0
 71 67  1  0
 71 75  1  0
 72 71  1  0
 73 74  1  0
 73 72  1  0
 74 70  1  0
 75 76  2  0
 76 77  1  0
 78 77  2  0
 79 78  1  0
 80 54  1  0
 80 85  1  0
 80 81  1  0
 81 84  1  1
 81 82  1  0
 83 81  1  0
 85 88  1  0
 86 90  1  0
 86 85  1  0
 87 86  2  0
 90 89  1  0
 92 90  1  0
 92 93  1  0
 92 91  1  0
M  ISO  4  13 100  21 100  52 101  53 101
M  END
>  <TORSDO>  (45) 
F 19

>  <SCORE>  (45) 
-14.648

>  <name>  (45) 
44

>  <ligand_id>  (45) 
44

>  <original_smiles>  (45) 
[H]c1c([H])c([H])c2c(c1[H])C([H])([H])C([H])([H])C([H])([H])C2([H])N([H])C(=O)C1([H])N(C(=O)C([H])(N([H])C(=O)C([H])(N([H])C([H])([H])[H])C([H])([H])[H])C(C([H])([H])[H])(C([H])([H])[H])C([H])([H])[H])C([H])([H])c2c([H])c(OC([H])([H])C([H])([H])N([H])C(=O)c3c([H])c(N([H])C(=O)N4C([H])([H])C([H])([H])C([H])([H])C([H])(n5nc(-c6c([H])c([H])c(Oc7c([H])c([H])c(F)c([H])c7F)c([H])c6[H])c(C(=O)N([H])[H])c5N([H])[H])C4([H])[H])c([H])c(F)c3F)c([H])c([H])c2C1([H])[H]

>  <smiles>  (45) 
[H]c1c([H])c([H])c2c(c1[H])C([H])([H])C([H])([H])C([H])([H])C2([H])N([H])C(=O)C1([H])N(C(=O)C([H])(N([H])C(=O)C([H])(N([H])C([H])([H])[H])C([H])([H])[H])C(C([H])([H])[H])(C([H])([H])[H])C([H])([H])[H])C([H])([H])c2c([H])c(OC([H])([H])C([H])([H])N([H])C(=O)c3c([H])c(N([H])C(=O)N4C([H])([H])C([H])([H])C([H])([H])C([H])(n5nc(-c6c([H])c([H])c(Oc7c([H])c([H])c(F)c([H])c7F)c([H])c6[H])c(C(=O)N([H])[H])c5N([H])[H])C4([H])[H])c([H])c(F)c3F)c([H])c([H])c2C1([H])[H]

$$$$
45:0:0
     RDKit          3D

 97105  0  0  1  0  0  0  0  0999 V2000
  -28.4040  -18.2470   19.4620 C   0  0  0  0  0  3  0  0  0  0  0  0
  -27.5380  -19.2700   19.0200 C   0  0  0  0  0  3  0  0  0  0  0  0
  -29.6650  -19.9400   20.6640 C   0  0  0  0  0  3  0  0  0  0  0  0
  -29.4860  -18.5240   20.3220 C   0  0  0  0  0  0  0  0  0  0  0  0
  -28.7840  -21.0220   20.2270 C   0  0  0  0  0  0  0  0  0  0  0  0
  -27.7010  -20.6180   19.4060 C   0  0  0  0  0  0  0  0  0  0  0  0
  -26.7590  -21.5090   19.0140 F   0  0  0  0  0  0  0  0  0  0  0  0
  -28.6050  -23.6580   20.0600 C   0  0  0  0  0  0  0  0  0  0  0  0
  -28.8820  -22.4420   20.6910 N   0  0  0  0  0  0  0  0  0  0  0  0
  -28.5770  -23.7410   18.8290 O   0  0  0  0  0  0  0  0  0  0  0  0
  -29.1090  -22.5410   21.6700 H   0  0  0  0  0  0  0  0  0  0  0  0
  -28.3680  -25.0080   20.9070 C   0  0  0  0  0  2  0  0  0  0  0  0
  -28.4880  -26.3570   20.2430 O   0  0  0  0  0  0  0  0  0  0  0  0
  -24.6360  -31.8030   23.1770 C   0  0  0  0  0  0  0  0  0  0  0  0
  -27.3740  -27.2250   20.2210 C   0  0  0  0  0  0  0  0  0  0  0  0
  -23.4930  -30.3880   21.5050 C   0  0  0  0  0  3  0  0  0  0  0  0
  -25.0010  -28.8390   20.1280 C   0  0  0  0  0  0  0  0  0  0  0  0
  -26.0380  -30.7270   21.3920 C   0  0  0  0  0  2  0  0  0  0  0  0
  -26.1500  -29.3400   20.7540 C   0  0  0  0  0  0  0  0  0  0  0  0
  -27.3440  -28.5470   20.7820 C   0  0  0  0  0  3  0  0  0  0  0  0
  -26.2020  -26.7830   19.5760 C   0  0  0  0  0  3  0  0  0  0  0  0
  -25.0320  -27.5690   19.5290 C   0  0  0  0  0  3  0  0  0  0  0  0
  -23.7540  -29.7030   20.1350 C   0  0  0  0  0  2  0  0  0  0  0  0
  -24.7390  -30.9930   22.0800 N   0  0  0  0  0  0  0  0  0  0  0  0
  -23.5340  -32.0680   23.6820 O   0  0  0  0  0  0  0  0  0  0  0  0
  -22.8100  -29.3730   22.4530 C   0  0  0  0  0  0  0  0  0  0  0  0
  -21.4890  -29.1880   22.2970 N   0  0  0  0  0  0  0  0  0  0  0  0
  -23.4740  -28.7520   23.2880 O   0  0  0  0  0  0  0  0  0  0  0  0
  -21.0150  -29.7330   21.5900 H   0  0  0  0  0  0  0  0  0  0  0  0
  -18.1070  -27.9710   22.7320 C   0  0  0  0  0  0  0  0  0  0  0  0
  -20.6600  -28.2400   23.0450 C   0  0  0  0  0  3  0  0  0  0  0  0
  -20.7780  -26.8140   22.4610 C   0  0  0  0  0  2  0  0  0  0  0  0
  -19.6920  -26.4850   21.4310 C   0  0  0  0  0  2  0  0  0  0  0  0
  -18.2970  -26.6300   22.0460 C   0  0  0  0  0  2  0  0  0  0  0  0
  -19.2160  -28.7350   23.1850 C   0  0  0  0  0  0  0  0  0  0  0  0
  -18.9830  -29.9940   23.7770 C   0  0  0  0  0  3  0  0  0  0  0  0
  -17.6740  -30.4920   23.9190 C   0  0  0  0  0  3  0  0  0  0  0  0
  -16.5800  -29.7270   23.4830 C   0  0  0  0  0  3  0  0  0  0  0  0
  -16.7970  -28.4670   22.8960 C   0  0  0  0  0  3  0  0  0  0  0  0
  -25.8920  -32.4510   23.8360 C   0  0  0  0  0  3  0  0  0  0  0  0
  -25.5540  -33.8450   24.1630 N   0  0  0  0  0  0  0  0  0  0  0  0
  -25.8900  -34.9060   23.4160 C   0  0  0  0  0  0  0  0  0  0  0  0
  -26.5840  -34.8150   22.3990 O   0  0  0  0  0  0  0  0  0  0  0  0
  -24.9360  -33.9890   24.9490 H   0  0  0  0  0  0  0  0  0  0  0  0
  -24.1430  -36.6770   23.0350 C   0  0  0  0  0  1  0  0  0  0  0  0
  -25.3770  -36.2880   23.8660 C   0  0  0  0  0  3  0  0  0  0  0  0
  -27.4850  -37.2010   24.7340 C   0  0  0  0  0  1  0  0  0  0  0  0
  -26.3970  -37.3550   23.7710 N   0  0  0  0  0  0  0  0  0  0  0  0
  -25.9770  -38.2700   23.9110 H   0  0  0  0  0  0  0  0  0  0  0  0
  -26.3810  -31.6850   25.1260 C   0  0  1  0  0  0  0  0  0  0  0  0
  -25.2600  -31.4370   26.1620 C   0  0  0  0  0  1  0  0  0  0  0  0
  -26.9900  -30.3150   24.7510 C   0  0  0  0  0  1  0  0  0  0  0  0
  -27.5070  -32.4910   25.8180 C   0  0  0  0  0  1  0  0  0  0  0  0
  -30.3890  -17.2860   20.8310 C   0  0  0  0  0  3  0  0  0  0  0  0
  -30.8090  -14.7400   20.1420 C   0  0  0  0  0  0  0  0  0  0  0  0
  -30.5940  -12.4530   19.1350 C   0  0  0  0  0  2  0  0  0  0  0  0
  -29.6150  -12.4950   17.9390 C   0  0  0  0  0  2  0  0  0  0  0  0
  -28.1570  -12.3390   18.4130 C   0  0  0  0  0  2  0  0  0  0  0  0
  -27.8200  -13.2590   19.6160 C   0  0  0  0  0  3  0  0  0  0  0  0
  -28.9050  -13.1650   20.7100 C   0  0  0  0  0  2  0  0  0  0  0  0
  -30.1820  -13.5160   20.0780 N   0  0  0  0  0  0  0  0  0  0  0  0
  -31.9910  -14.8500   19.8060 O   0  0  0  0  0  0  0  0  0  0  0  0
  -30.0270  -15.8520   20.4250 N   0  0  0  0  0  0  0  0  0  0  0  0
  -29.0570  -15.6260   20.5700 H   0  0  0  0  0  0  0  0  0  0  0  0
  -25.4670  -13.8960   20.4110 C   0  0  0  0  0  0  0  0  0  0  0  0
  -24.3960  -13.1420   20.8070 C   0  0  0  0  0  0  0  0  0  0  0  0
  -24.8340  -11.7830   20.7610 C   0  0  0  0  0  0  0  0  0  0  0  0
  -26.4860  -12.9980   20.1440 N   0  0  0  0  0  0  0  0  0  0  0  0
  -26.1150  -11.7210   20.4190 N   0  0  0  0  0  0  0  0  0  0  0  0
  -24.0900  -10.5340   20.9660 C   0  0  0  0  0  0  0  0  0  0  0  0
  -24.5230   -9.5600   21.8920 C   0  0  0  0  0  3  0  0  0  0  0  0
  -23.7810   -8.3750   22.0850 C   0  0  0  0  0  3  0  0  0  0  0  0
  -22.5900   -8.1570   21.3520 C   0  0  0  0  0  0  0  0  0  0  0  0
  -22.1750   -9.1190   20.4140 C   0  0  0  0  0  3  0  0  0  0  0  0
  -22.9180  -10.2960   20.2200 C   0  0  0  0  0  3  0  0  0  0  0  0
  -21.8180   -7.0250   21.4570 O   0  0  0  0  0  0  0  0  0  0  0  0
  -21.7670   -6.2930   22.6160 C   0  0  0  0  0  0  0  0  0  0  0  0
  -21.3660   -6.8650   23.8430 C   0  0  0  0  0  3  0  0  0  0  0  0
  -21.2590   -6.0600   24.9940 C   0  0  0  0  0  3  0  0  0  0  0  0
  -21.5460   -4.6830   24.9200 C   0  0  0  0  0  0  0  0  0  0  0  0
  -21.9400   -4.1110   23.6980 C   0  0  0  0  0  3  0  0  0  0  0  0
  -22.0480   -4.9140   22.5490 C   0  0  0  0  0  0  0  0  0  0  0  0
  -22.4080   -4.3520   21.3700 F   0  0  0  0  0  0  0  0  0  0  0  0
  -21.4340   -3.9070   26.0230 F   0  0  0  0  0  0  0  0  0  0  0  0
  -23.0160  -13.6460   21.1130 C   0  0  0  0  0  0  0  0  0  0  0  0
  -22.2990  -12.9630   21.9980 N   0  0  0  0  0  0  0  0  0  0  0  0
  -22.5840  -14.6790   20.6040 O   0  0  0  0  0  0  0  0  0  0  0  0
  -22.6670  -12.1290   22.4300 H   0  0  0  0  0  0  0  0  0  0  0  0
  -21.3720  -13.2770   22.2480 H   0  0  0  0  0  0  0  0  0  0  0  0
  -25.6490  -15.2640   20.2330 N   0  0  0  0  0  0  0  0  0  0  0  0
  -24.8850  -15.9180   20.3530 H   0  0  0  0  0  0  0  0  0  0  0  0
  -26.4760  -15.6880   19.8370 H   0  0  0  0  0  0  0  0  0  0  0  0
  -30.4410  -17.2150   22.3880 C   0  0  0  0  0  2  0  0  0  0  0  0
  -30.9860  -18.4040   23.0600 N   0  0  0  0  0  4  0  0  0  0  0  0
  -31.9490  -18.5490   22.8150 H   0  0  0  0  0  0  0  0  0  0  0  0
  -30.9330  -18.2760   24.0550 H   0  0  0  0  0  0  0  0  0  0  0  0
  -30.4510  -19.2190   22.8230 H   0  0  0  0  0  0  0  0  0  0  0  0
  1  4  1  0
  2  6  1  0
  2  1  2  0
  4  3  2  0
  4 54  1  0
  5  3  1  0
  5  9  1  0
  6  5  2  0
  7  6  1  0
  8  9  1  0
  8 12  1  0
  9 11  1  0
 10  8  2  0
 13 12  1  0
 14 25  2  0
 15 13  1  0
 15 20  1  0
 16 24  1  0
 16 26  1  0
 17 23  1  0
 17 19  1  0
 18 24  1  0
 19 20  2  0
 19 18  1  0
 21 15  2  0
 22 21  1  0
 22 17  2  0
 23 16  1  0
 24 14  1  0
 26 28  2  0
 27 26  1  0
 29 27  1  0
 30 39  2  0
 30 35  1  0
 31 27  1  0
 31 35  1  0
 32 31  1  0
 33 34  1  0
 33 32  1  0
 34 30  1  0
 35 36  2  0
 36 37  1  0
 38 37  2  0
 39 38  1  0
 40 14  1  0
 40 41  1  0
 40 50  1  0
 41 44  1  0
 42 46  1  0
 42 41  1  0
 43 42  2  0
 46 45  1  0
 48 46  1  0
 48 49  1  0
 48 47  1  0
 50 53  1  1
 50 51  1  0
 52 50  1  0
 54 93  1  0
 55 63  1  0
 56 61  1  0
 57 58  1  0
 57 56  1  0
 59 58  1  0
 59 68  1  0
 59 60  1  0
 61 55  1  0
 61 60  1  0
 62 55  2  0
 63 64  1  0
 63 54  1  0
 65 66  2  0
 66 85  1  0
 67 66  1  0
 67 70  1  0
 68 65  1  0
 68 69  1  0
 69 67  2  0
 70 71  1  0
 71 72  2  0
 73 76  1  0
 73 72  1  0
 74 73  2  0
 75 74  1  0
 75 70  2  0
 76 77  1  0
 77 78  1  0
 78 79  2  0
 80 79  1  0
 80 84  1  0
 81 80  2  0
 82 77  2  0
 82 81  1  0
 83 82  1  0
 85 86  1  0
 86 89  1  0
 86 88  1  0
 87 85  2  0
 90 91  1  0
 90 65  1  0
 92 90  1  0
 93 94  1  0
 94 96  1  0
 95 94  1  0
 97 94  1  0
M  ISO  4  12 101  13 101  55 100  63 100
M  END
>  <TORSDO>  (46) 
F 21

>  <SCORE>  (46) 
-13.883

>  <name>  (46) 
45

>  <ligand_id>  (46) 
45

>  <original_smiles>  (46) 
[H]c1c([H])c([H])c2c(c1[H])C([H])([H])C([H])([H])C([H])([H])C2([H])N([H])C(=O)C1([H])N(C(=O)C([H])(N([H])C(=O)C([H])(N([H])C([H])([H])[H])C([H])([H])[H])C(C([H])([H])[H])(C([H])([H])[H])C([H])([H])[H])C([H])([H])c2c([H])c(OC([H])([H])C(=O)N([H])c3c([H])c(C([H])(N([H])C(=O)N4C([H])([H])C([H])([H])C([H])([H])C([H])(n5nc(-c6c([H])c([H])c(Oc7c([H])c([H])c(F)c([H])c7F)c([H])c6[H])c(C(=O)N([H])[H])c5N([H])[H])C4([H])[H])C([H])([H])[N+]([H])([H])[H])c([H])c([H])c3F)c([H])c([H])c2C1([H])[H]

>  <smiles>  (46) 
[H]c1c([H])c([H])c2c(c1[H])C([H])([H])C([H])([H])C([H])([H])C2([H])N([H])C(=O)C1([H])N(C(=O)C([H])(N([H])C(=O)C([H])(N([H])C([H])([H])[H])C([H])([H])[H])C(C([H])([H])[H])(C([H])([H])[H])C([H])([H])[H])C([H])([H])c2c([H])c(OC([H])([H])C(=O)N([H])c3c([H])c(C([H])(N([H])C(=O)N4C([H])([H])C([H])([H])C([H])([H])C([H])(n5nc(-c6c([H])c([H])c(Oc7c([H])c([H])c(F)c([H])c7F)c([H])c6[H])c(C(=O)N([H])[H])c5N([H])[H])C4([H])[H])C([H])([H])[N+]([H])([H])[H])c([H])c([H])c3F)c([H])c([H])c2C1([H])[H]

$$$$
46:0:0
     RDKit          3D

 92100  0  0  1  0  0  0  0  0999 V2000
  -28.6700  -21.1460   20.6770 C   0  0  0  0  0  2  0  0  0  0  0  0
  -31.5820  -17.7950   20.1180 C   0  0  0  0  0  3  0  0  0  0  0  0
  -31.9530  -19.1480   19.9800 C   0  0  0  0  0  3  0  0  0  0  0  0
  -29.3150  -18.5130   20.5640 C   0  0  0  0  0  3  0  0  0  0  0  0
  -29.6730  -19.9250   20.4300 C   0  0  0  0  0  0  0  0  0  0  0  0
  -30.2530  -17.4020   20.4130 C   0  0  0  0  0  0  0  0  0  0  0  0
  -31.0250  -20.1960   20.1320 C   0  0  0  0  0  0  0  0  0  0  0  0
  -31.4620  -21.4720   20.0040 F   0  0  0  0  0  0  0  0  0  0  0  0
  -30.6260  -14.7830   20.3250 C   0  0  0  0  0  0  0  0  0  0  0  0
  -30.3810  -12.5150   19.3070 C   0  0  0  0  0  2  0  0  0  0  0  0
  -29.4390  -12.6060   18.0880 C   0  0  0  0  0  2  0  0  0  0  0  0
  -27.9720  -12.4300   18.5290 C   0  0  0  0  0  2  0  0  0  0  0  0
  -27.6100  -13.3040   19.7600 C   0  0  0  0  0  3  0  0  0  0  0  0
  -28.6800  -13.2250   20.8710 C   0  0  0  0  0  2  0  0  0  0  0  0
  -29.9690  -13.5720   20.2620 N   0  0  0  0  0  0  0  0  0  0  0  0
  -31.8130  -14.8150   19.9980 O   0  0  0  0  0  0  0  0  0  0  0  0
  -29.8940  -15.9520   20.5500 N   0  0  0  0  0  0  0  0  0  0  0  0
  -28.9300  -15.7740   20.7840 H   0  0  0  0  0  0  0  0  0  0  0  0
  -25.2260  -13.8770   20.5120 C   0  0  0  0  0  0  0  0  0  0  0  0
  -24.1690  -13.0960   20.8900 C   0  0  0  0  0  0  0  0  0  0  0  0
  -24.6400  -11.7480   20.8530 C   0  0  0  0  0  0  0  0  0  0  0  0
  -26.2740  -13.0050   20.2640 N   0  0  0  0  0  0  0  0  0  0  0  0
  -25.9280  -11.7180   20.5320 N   0  0  0  0  0  0  0  0  0  0  0  0
  -23.9220  -10.4810   21.0430 C   0  0  0  0  0  0  0  0  0  0  0  0
  -24.3640   -9.5110   21.9700 C   0  0  0  0  0  3  0  0  0  0  0  0
  -23.6450   -8.3100   22.1510 C   0  0  0  0  0  3  0  0  0  0  0  0
  -22.4670   -8.0700   21.4030 C   0  0  0  0  0  0  0  0  0  0  0  0
  -22.0420   -9.0270   20.4660 C   0  0  0  0  0  3  0  0  0  0  0  0
  -22.7640  -10.2190   20.2830 C   0  0  0  0  0  3  0  0  0  0  0  0
  -21.7170   -6.9220   21.4940 O   0  0  0  0  0  0  0  0  0  0  0  0
  -21.6790   -6.1750   22.6430 C   0  0  0  0  0  0  0  0  0  0  0  0
  -21.2540   -6.7200   23.8740 C   0  0  0  0  0  3  0  0  0  0  0  0
  -21.1630   -5.8980   25.0150 C   0  0  0  0  0  3  0  0  0  0  0  0
  -21.4910   -4.5320   24.9260 C   0  0  0  0  0  0  0  0  0  0  0  0
  -21.9100   -3.9860   23.7010 C   0  0  0  0  0  3  0  0  0  0  0  0
  -22.0020   -4.8050   22.5620 C   0  0  0  0  0  0  0  0  0  0  0  0
  -22.3850   -4.2690   21.3790 F   0  0  0  0  0  0  0  0  0  0  0  0
  -21.3980   -3.7400   26.0200 F   0  0  0  0  0  0  0  0  0  0  0  0
  -22.7710  -13.5640   21.1710 C   0  0  0  0  0  0  0  0  0  0  0  0
  -22.0490  -12.8570   22.0330 N   0  0  0  0  0  0  0  0  0  0  0  0
  -22.3290  -14.5940   20.6630 O   0  0  0  0  0  0  0  0  0  0  0  0
  -22.4210  -12.0260   22.4690 H   0  0  0  0  0  0  0  0  0  0  0  0
  -21.1100  -13.1530   22.2620 H   0  0  0  0  0  0  0  0  0  0  0  0
  -25.3820  -15.2480   20.3360 N   0  0  0  0  0  0  0  0  0  0  0  0
  -24.6110  -15.8960   20.4500 H   0  0  0  0  0  0  0  0  0  0  0  0
  -26.2130  -15.6900   19.9670 H   0  0  0  0  0  0  0  0  0  0  0  0
  -28.3700  -23.7700   20.5220 C   0  0  0  0  0  0  0  0  0  0  0  0
  -28.8730  -22.5490   20.0910 N   0  0  0  0  0  0  0  0  0  0  0  0
  -27.7870  -23.8460   21.6050 O   0  0  0  0  0  0  0  0  0  0  0  0
  -29.3820  -22.5740   19.2170 H   0  0  0  0  0  0  0  0  0  0  0  0
  -28.4710  -25.0960   19.6220 C   0  0  0  0  0  2  0  0  0  0  0  0
  -28.3450  -26.4470   20.2720 O   0  0  0  0  0  0  0  0  0  0  0  0
  -24.5940  -31.8810   23.2350 C   0  0  0  0  0  0  0  0  0  0  0  0
  -27.2140  -27.2890   20.1820 C   0  0  0  0  0  0  0  0  0  0  0  0
  -23.3940  -30.4780   21.5970 C   0  0  0  0  0  3  0  0  0  0  0  0
  -24.8460  -28.9240   20.1680 C   0  0  0  0  0  0  0  0  0  0  0  0
  -25.9340  -30.7910   21.4160 C   0  0  0  0  0  2  0  0  0  0  0  0
  -26.0150  -29.4090   20.7680 C   0  0  0  0  0  0  0  0  0  0  0  0
  -27.1950  -28.6020   20.7660 C   0  0  0  0  0  3  0  0  0  0  0  0
  -26.0180  -26.8650   19.5620 C   0  0  0  0  0  3  0  0  0  0  0  0
  -24.8520  -27.6600   19.5570 C   0  0  0  0  0  3  0  0  0  0  0  0
  -23.6080  -29.7990   20.2160 C   0  0  0  0  0  2  0  0  0  0  0  0
  -24.6600  -31.0690   22.1380 N   0  0  0  0  0  0  0  0  0  0  0  0
  -23.5100  -32.1580   23.7710 O   0  0  0  0  0  0  0  0  0  0  0  0
  -22.7310  -29.4640   22.5610 C   0  0  0  0  0  0  0  0  0  0  0  0
  -21.4050  -29.2860   22.4330 N   0  0  0  0  0  0  0  0  0  0  0  0
  -23.4100  -28.8410   23.3810 O   0  0  0  0  0  0  0  0  0  0  0  0
  -20.9170  -29.8400   21.7440 H   0  0  0  0  0  0  0  0  0  0  0  0
  -18.0280  -28.0830   22.9300 C   0  0  0  0  0  0  0  0  0  0  0  0
  -20.5850  -28.3470   23.2030 C   0  0  0  0  0  3  0  0  0  0  0  0
  -20.6910  -26.9170   22.6280 C   0  0  0  0  0  2  0  0  0  0  0  0
  -19.5910  -26.5910   21.6130 C   0  0  0  0  0  2  0  0  0  0  0  0
  -18.2080  -26.7340   22.2560 C   0  0  0  0  0  2  0  0  0  0  0  0
  -19.1450  -28.8490   23.3610 C   0  0  0  0  0  0  0  0  0  0  0  0
  -18.9230  -30.1120   23.9510 C   0  0  0  0  0  3  0  0  0  0  0  0
  -17.6160  -30.6090   24.1170 C   0  0  0  0  0  3  0  0  0  0  0  0
  -16.5140  -29.8410   23.7050 C   0  0  0  0  0  3  0  0  0  0  0  0
  -16.7210  -28.5810   23.1160 C   0  0  0  0  0  3  0  0  0  0  0  0
  -25.8740  -32.5180   23.8580 C   0  0  0  0  0  3  0  0  0  0  0  0
  -26.3870  -31.7540   25.1410 C   0  0  1  0  0  0  0  0  0  0  0  0
  -25.2900  -31.5230   26.2080 C   0  0  0  0  0  1  0  0  0  0  0  0
  -26.9710  -30.3730   24.7620 C   0  0  0  0  0  1  0  0  0  0  0  0
  -27.5370  -32.5500   25.8020 C   0  0  0  0  0  1  0  0  0  0  0  0
  -25.5620  -33.9170   24.1850 N   0  0  0  0  0  0  0  0  0  0  0  0
  -25.8960  -34.9700   23.4260 C   0  0  0  0  0  0  0  0  0  0  0  0
  -26.5690  -34.8650   22.3970 O   0  0  0  0  0  0  0  0  0  0  0  0
  -24.9660  -34.0710   24.9840 H   0  0  0  0  0  0  0  0  0  0  0  0
  -24.1750  -36.7690   23.0630 C   0  0  0  0  0  1  0  0  0  0  0  0
  -25.4100  -36.3610   23.8820 C   0  0  0  0  0  3  0  0  0  0  0  0
  -27.5430  -37.2420   24.7240 C   0  0  0  0  0  1  0  0  0  0  0  0
  -26.4450  -37.4120   23.7750 N   0  0  0  0  0  0  0  0  0  0  0  0
  -26.0390  -38.3330   23.9220 H   0  0  0  0  0  0  0  0  0  0  0  0
  2  6  1  0
  3  2  2  0
  3  7  1  0
  5  4  1  0
  5  1  1  0
  6 17  1  0
  6  4  2  0
  7  5  2  0
  8  7  1  0
  9 17  1  0
 10 15  1  0
 11 12  1  0
 11 10  1  0
 13 12  1  0
 13 22  1  0
 13 14  1  0
 15  9  1  0
 15 14  1  0
 16  9  2  0
 17 18  1  0
 19 20  2  0
 20 39  1  0
 21 20  1  0
 21 24  1  0
 22 19  1  0
 22 23  1  0
 23 21  2  0
 24 25  1  0
 25 26  2  0
 27 30  1  0
 27 26  1  0
 28 27  2  0
 29 28  1  0
 29 24  2  0
 30 31  1  0
 31 32  1  0
 32 33  2  0
 34 33  1  0
 34 38  1  0
 35 34  2  0
 36 31  2  0
 36 35  1  0
 37 36  1  0
 39 40  1  0
 40 43  1  0
 40 42  1  0
 41 39  2  0
 44 45  1  0
 44 19  1  0
 46 44  1  0
 47 49  2  0
 48 47  1  0
 48  1  1  0
 50 48  1  0
 51 52  1  0
 51 47  1  0
 53 64  2  0
 54 52  1  0
 54 59  1  0
 55 63  1  0
 55 65  1  0
 56 62  1  0
 56 58  1  0
 57 63  1  0
 58 57  1  0
 59 58  2  0
 60 54  2  0
 61 60  1  0
 61 56  2  0
 62 55  1  0
 63 53  1  0
 65 67  2  0
 66 65  1  0
 68 66  1  0
 69 78  2  0
 69 74  1  0
 70 66  1  0
 70 74  1  0
 71 70  1  0
 72 73  1  0
 72 71  1  0
 73 69  1  0
 74 75  2  0
 75 76  1  0
 77 76  2  0
 78 77  1  0
 79 53  1  0
 79 84  1  0
 79 80  1  0
 80 83  1  1
 80 81  1  0
 82 80  1  0
 84 87  1  0
 85 89  1  0
 85 84  1  0
 86 85  2  0
 89 88  1  0
 91 89  1  0
 91 92  1  0
 91 90  1  0
M  ISO  4   9 100  17 100  51 101  52 101
M  END
>  <TORSDO>  (47) 
F 19

>  <SCORE>  (47) 
-14.425

>  <name>  (47) 
46

>  <ligand_id>  (47) 
46

>  <original_smiles>  (47) 
[H]c1c([H])c([H])c2c(c1[H])C([H])([H])C([H])([H])C([H])([H])C2([H])N([H])C(=O)C1([H])N(C(=O)C([H])(N([H])C(=O)C([H])(N([H])C([H])([H])[H])C([H])([H])[H])C(C([H])([H])[H])(C([H])([H])[H])C([H])([H])[H])C([H])([H])c2c([H])c(OC([H])([H])C(=O)N([H])C([H])([H])c3c([H])c(N([H])C(=O)N4C([H])([H])C([H])([H])C([H])([H])C([H])(n5nc(-c6c([H])c([H])c(Oc7c([H])c([H])c(F)c([H])c7F)c([H])c6[H])c(C(=O)N([H])[H])c5N([H])[H])C4([H])[H])c([H])c([H])c3F)c([H])c([H])c2C1([H])[H]

>  <smiles>  (47) 
[H]c1c([H])c([H])c2c(c1[H])C([H])([H])C([H])([H])C([H])([H])C2([H])N([H])C(=O)C1([H])N(C(=O)C([H])(N([H])C(=O)C([H])(N([H])C([H])([H])[H])C([H])([H])[H])C(C([H])([H])[H])(C([H])([H])[H])C([H])([H])[H])C([H])([H])c2c([H])c(OC([H])([H])C(=O)N([H])C([H])([H])c3c([H])c(N([H])C(=O)N4C([H])([H])C([H])([H])C([H])([H])C([H])(n5nc(-c6c([H])c([H])c(Oc7c([H])c([H])c(F)c([H])c7F)c([H])c6[H])c(C(=O)N([H])[H])c5N([H])[H])C4([H])[H])c([H])c([H])c3F)c([H])c([H])c2C1([H])[H]

$$$$
47:0:0
     RDKit          3D

 90 99  0  0  1  0  0  0  0  0999 V2000
  -27.7580  -23.4780   19.6900 C   0  0  0  0  0  2  0  0  0  0  0  0
  -29.4550  -23.7670   20.7320 C   0  0  0  0  0  2  0  0  0  0  0  0
  -28.6300  -22.4100   20.5170 C   0  0  0  0  0  3  0  0  0  0  0  0
  -28.1610  -24.7260   20.6260 C   0  0  2  0  0  0  0  0  0  0  0  0
  -27.3780  -24.8770   21.9410 C   0  0  0  0  0  1  0  0  0  0  0  0
  -28.0090  -19.7700   20.3930 C   0  0  0  0  0  3  0  0  0  0  0  0
  -30.3110  -20.1590   20.1900 C   0  0  0  0  0  3  0  0  0  0  0  0
  -28.2530  -18.3380   20.3860 C   0  0  0  0  0  3  0  0  0  0  0  0
  -30.5570  -18.7060   20.1710 C   0  0  0  0  0  3  0  0  0  0  0  0
  -29.0130  -20.7920   20.3100 C   0  0  0  0  0  0  0  0  0  0  0  0
  -29.5340  -17.6930   20.2860 C   0  0  0  0  0  0  0  0  0  0  0  0
  -30.4810  -15.0430   20.1010 C   0  0  0  0  0  0  0  0  0  0  0  0
  -30.3790  -12.6930   19.1320 C   0  0  0  0  0  2  0  0  0  0  0  0
  -29.3840  -12.6570   17.9460 C   0  0  0  0  0  2  0  0  0  0  0  0
  -27.9410  -12.4330   18.4410 C   0  0  0  0  0  2  0  0  0  0  0  0
  -27.5850  -13.3410   19.6460 C   0  0  0  0  0  3  0  0  0  0  0  0
  -28.6900  -13.3200   20.7250 C   0  0  0  0  0  2  0  0  0  0  0  0
  -29.9340  -13.7590   20.0750 N   0  0  0  0  0  0  0  0  0  0  0  0
  -31.6610  -15.1660   19.7540 O   0  0  0  0  0  0  0  0  0  0  0  0
  -29.6090  -16.1470   20.3430 N   0  0  0  0  0  0  0  0  0  0  0  0
  -28.7110  -15.7600   20.5890 H   0  0  0  0  0  0  0  0  0  0  0  0
  -25.2440  -13.9200   20.5040 C   0  0  0  0  0  0  0  0  0  0  0  0
  -24.1920  -13.1440   20.9050 C   0  0  0  0  0  0  0  0  0  0  0  0
  -24.6440  -11.7910   20.8190 C   0  0  0  0  0  0  0  0  0  0  0  0
  -26.2680  -13.0410   20.1960 N   0  0  0  0  0  0  0  0  0  0  0  0
  -25.9200  -11.7530   20.4500 N   0  0  0  0  0  0  0  0  0  0  0  0
  -23.9170  -10.5290   21.0090 C   0  0  0  0  0  0  0  0  0  0  0  0
  -24.3600   -9.5520   21.9280 C   0  0  0  0  0  3  0  0  0  0  0  0
  -23.6330   -8.3560   22.1080 C   0  0  0  0  0  3  0  0  0  0  0  0
  -22.4470   -8.1290   21.3680 C   0  0  0  0  0  0  0  0  0  0  0  0
  -22.0230   -9.0950   20.4400 C   0  0  0  0  0  3  0  0  0  0  0  0
  -22.7510  -10.2820   20.2580 C   0  0  0  0  0  3  0  0  0  0  0  0
  -21.6890   -6.9870   21.4590 O   0  0  0  0  0  0  0  0  0  0  0  0
  -21.6270   -6.2540   22.6170 C   0  0  0  0  0  0  0  0  0  0  0  0
  -21.1760   -6.8160   23.8310 C   0  0  0  0  0  3  0  0  0  0  0  0
  -21.0620   -6.0080   24.9800 C   0  0  0  0  0  3  0  0  0  0  0  0
  -21.3880   -4.6410   24.9170 C   0  0  0  0  0  0  0  0  0  0  0  0
  -21.8330   -4.0790   23.7070 C   0  0  0  0  0  3  0  0  0  0  0  0
  -21.9490   -4.8820   22.5600 C   0  0  0  0  0  0  0  0  0  0  0  0
  -22.3570   -4.3310   21.3920 F   0  0  0  0  0  0  0  0  0  0  0  0
  -21.2720   -3.8640   26.0190 F   0  0  0  0  0  0  0  0  0  0  0  0
  -22.8110  -13.6230   21.2480 C   0  0  0  0  0  0  0  0  0  0  0  0
  -22.1170  -12.9120   22.1280 N   0  0  0  0  0  0  0  0  0  0  0  0
  -22.3600  -14.6640   20.7700 O   0  0  0  0  0  0  0  0  0  0  0  0
  -22.4960  -12.0700   22.5350 H   0  0  0  0  0  0  0  0  0  0  0  0
  -21.1930  -13.2160   22.4010 H   0  0  0  0  0  0  0  0  0  0  0  0
  -25.4070  -15.2930   20.3490 N   0  0  0  0  0  0  0  0  0  0  0  0
  -24.6350  -15.9370   20.4880 H   0  0  0  0  0  0  0  0  0  0  0  0
  -26.2000  -15.7240   19.8920 H   0  0  0  0  0  0  0  0  0  0  0  0
  -28.3120  -26.2210   20.1630 O   0  0  0  0  0  0  0  0  0  0  0  0
  -24.6280  -31.8710   23.1880 C   0  0  0  0  0  0  0  0  0  0  0  0
  -27.2360  -27.1870   20.1360 C   0  0  0  0  0  0  0  0  0  0  0  0
  -23.4340  -30.4750   21.5440 C   0  0  0  0  0  3  0  0  0  0  0  0
  -24.8900  -28.9100   20.1120 C   0  0  0  0  0  0  0  0  0  0  0  0
  -25.9850  -30.7590   21.3730 C   0  0  0  0  0  2  0  0  0  0  0  0
  -26.0690  -29.3690   20.7170 C   0  0  0  0  0  0  0  0  0  0  0  0
  -27.2420  -28.5250   20.7060 C   0  0  0  0  0  3  0  0  0  0  0  0
  -26.0310  -26.8240   19.5000 C   0  0  0  0  0  3  0  0  0  0  0  0
  -24.8840  -27.6520   19.4890 C   0  0  0  0  0  3  0  0  0  0  0  0
  -23.6560  -29.8000   20.1630 C   0  0  0  0  0  2  0  0  0  0  0  0
  -24.7020  -31.0570   22.0910 N   0  0  0  0  0  0  0  0  0  0  0  0
  -23.5420  -32.1460   23.7200 O   0  0  0  0  0  0  0  0  0  0  0  0
  -22.7620  -29.4620   22.5050 C   0  0  0  0  0  0  0  0  0  0  0  0
  -21.4330  -29.2930   22.3870 N   0  0  0  0  0  0  0  0  0  0  0  0
  -23.4400  -28.8300   23.3200 O   0  0  0  0  0  0  0  0  0  0  0  0
  -20.9430  -29.8530   21.7050 H   0  0  0  0  0  0  0  0  0  0  0  0
  -18.0570  -28.0860   22.9050 C   0  0  0  0  0  0  0  0  0  0  0  0
  -20.6180  -28.3480   23.1560 C   0  0  0  0  0  3  0  0  0  0  0  0
  -20.7160  -26.9200   22.5700 C   0  0  0  0  0  2  0  0  0  0  0  0
  -19.6070  -26.6050   21.5600 C   0  0  0  0  0  2  0  0  0  0  0  0
  -18.2310  -26.7440   22.2150 C   0  0  0  0  0  2  0  0  0  0  0  0
  -19.1780  -28.8470   23.3330 C   0  0  0  0  0  0  0  0  0  0  0  0
  -18.9610  -30.1030   23.9400 C   0  0  0  0  0  3  0  0  0  0  0  0
  -17.6560  -30.5990   24.1230 C   0  0  0  0  0  3  0  0  0  0  0  0
  -16.5500  -29.8350   23.7100 C   0  0  0  0  0  3  0  0  0  0  0  0
  -16.7510  -28.5810   23.1070 C   0  0  0  0  0  3  0  0  0  0  0  0
  -25.9040  -32.5120   23.8170 C   0  0  0  0  0  3  0  0  0  0  0  0
  -25.5860  -33.9090   24.1530 N   0  0  0  0  0  0  0  0  0  0  0  0
  -25.9100  -34.9700   23.4020 C   0  0  0  0  0  0  0  0  0  0  0  0
  -26.5760  -34.8760   22.3670 O   0  0  0  0  0  0  0  0  0  0  0  0
  -24.9950  -34.0560   24.9570 H   0  0  0  0  0  0  0  0  0  0  0  0
  -24.1730  -36.7600   23.0730 C   0  0  0  0  0  1  0  0  0  0  0  0
  -25.4210  -36.3550   23.8720 C   0  0  0  0  0  3  0  0  0  0  0  0
  -27.5560  -37.2470   24.6950 C   0  0  0  0  0  1  0  0  0  0  0  0
  -26.4490  -37.4130   23.7580 N   0  0  0  0  0  0  0  0  0  0  0  0
  -26.0390  -38.3310   23.9130 H   0  0  0  0  0  0  0  0  0  0  0  0
  -26.4170  -31.7440   25.0960 C   0  0  1  0  0  0  0  0  0  0  0  0
  -25.3200  -31.5060   26.1620 C   0  0  0  0  0  1  0  0  0  0  0  0
  -27.0040  -30.3660   24.7120 C   0  0  0  0  0  1  0  0  0  0  0  0
  -27.5630  -32.5410   25.7620 C   0  0  0  0  0  1  0  0  0  0  0  0
  1  3  1  0
  1  4  1  0
  3 10  1  0
  3  2  1  0
  4  2  1  0
  4  5  1  1
  7 10  1  0
  8  6  1  0
  9  7  2  0
  9 11  1  0
 10  6  2  0
 11 20  1  0
 11  8  2  0
 12 20  1  0
 13 18  1  0
 14 15  1  0
 14 13  1  0
 16 15  1  0
 16 25  1  0
 16 17  1  0
 18 12  1  0
 18 17  1  0
 19 12  2  0
 20 21  1  0
 22 23  2  0
 23 42  1  0
 24 23  1  0
 24 27  1  0
 25 26  1  0
 25 22  1  0
 26 24  2  0
 27 28  1  0
 28 29  2  0
 30 33  1  0
 30 29  1  0
 31 30  2  0
 32 31  1  0
 32 27  2  0
 33 34  1  0
 34 35  1  0
 35 36  2  0
 37 36  1  0
 37 41  1  0
 38 37  2  0
 39 34  2  0
 39 38  1  0
 40 39  1  0
 42 43  1  0
 43 46  1  0
 43 45  1  0
 44 42  2  0
 47 48  1  0
 47 22  1  0
 49 47  1  0
 50  4  1  0
 51 62  2  0
 52 50  1  0
 52 57  1  0
 53 61  1  0
 53 63  1  0
 54 60  1  0
 54 56  1  0
 55 61  1  0
 56 55  1  0
 57 56  2  0
 58 52  2  0
 59 58  1  0
 59 54  2  0
 60 53  1  0
 61 51  1  0
 63 65  2  0
 64 63  1  0
 66 64  1  0
 67 76  2  0
 67 72  1  0
 68 64  1  0
 68 72  1  0
 69 68  1  0
 70 71  1  0
 70 69  1  0
 71 67  1  0
 72 73  2  0
 73 74  1  0
 75 74  2  0
 76 75  1  0
 77 51  1  0
 77 78  1  0
 77 87  1  0
 78 81  1  0
 79 83  1  0
 79 78  1  0
 80 79  2  0
 83 82  1  0
 85 83  1  0
 85 86  1  0
 85 84  1  0
 87 90  1  1
 87 88  1  0
 89 87  1  0
M  ISO  4   4 101  12 100  20 100  50 101
M  END
>  <TORSDO>  (48) 
F 17

>  <SCORE>  (48) 
-15.158

>  <name>  (48) 
47

>  <ligand_id>  (48) 
47

>  <original_smiles>  (48) 
[H]c1c([H])c([H])c2c(c1[H])C([H])([H])C([H])([H])C([H])([H])C2([H])N([H])C(=O)C1([H])N(C(=O)C([H])(N([H])C(=O)C([H])(N([H])C([H])([H])[H])C([H])([H])[H])C(C([H])([H])[H])(C([H])([H])[H])C([H])([H])[H])C([H])([H])c2c([H])c(OC3(C([H])([H])[H])C([H])([H])C([H])(c4c([H])c([H])c(N([H])C(=O)N5C([H])([H])C([H])([H])C([H])([H])C([H])(n6nc(-c7c([H])c([H])c(Oc8c([H])c([H])c(F)c([H])c8F)c([H])c7[H])c(C(=O)N([H])[H])c6N([H])[H])C5([H])[H])c([H])c4[H])C3([H])[H])c([H])c([H])c2C1([H])[H]

>  <smiles>  (48) 
[H]c1c([H])c([H])c2c(c1[H])C([H])([H])C([H])([H])C([H])([H])C2([H])N([H])C(=O)C1([H])N(C(=O)C([H])(N([H])C(=O)C([H])(N([H])C([H])([H])[H])C([H])([H])[H])C(C([H])([H])[H])(C([H])([H])[H])C([H])([H])[H])C([H])([H])c2c([H])c(OC3(C([H])([H])[H])C([H])([H])C([H])(c4c([H])c([H])c(N([H])C(=O)N5C([H])([H])C([H])([H])C([H])([H])C([H])(n6nc(-c7c([H])c([H])c(Oc8c([H])c([H])c(F)c([H])c8F)c([H])c7[H])c(C(=O)N([H])[H])c6N([H])[H])C5([H])[H])c([H])c4[H])C3([H])[H])c([H])c([H])c2C1([H])[H]

$$$$
48:0:0
     RDKit          3D

 87 95  0  0  1  0  0  0  0  0999 V2000
  -29.1620  -21.3200   21.2240 C   0  0  0  0  0  3  0  0  0  0  0  0
  -29.5080  -19.8210   21.2250 C   0  0  0  0  0  3  0  0  0  0  0  0
  -28.7390  -19.6470   19.1540 C   0  0  0  0  0  3  0  0  0  0  0  0
  -28.5580  -22.1990   20.1760 C   0  0  0  0  0  0  0  0  0  0  0  0
  -29.3490  -18.7600   20.1840 C   0  0  0  0  0  0  0  0  0  0  0  0
  -28.3970  -21.1370   19.1390 C   0  0  0  0  0  0  0  0  0  0  0  0
  -27.7890  -21.5550   18.0020 F   0  0  0  0  0  0  0  0  0  0  0  0
  -30.2680  -15.7300   20.1340 C   0  0  0  0  0  0  0  0  0  0  0  0
  -30.3760  -13.1970   19.2960 C   0  0  0  0  0  2  0  0  0  0  0  0
  -29.4510  -12.8100   18.1070 C   0  0  0  0  0  2  0  0  0  0  0  0
  -28.0400  -12.4500   18.5980 C   0  0  0  0  0  2  0  0  0  0  0  0
  -27.5550  -13.4350   19.6850 C   0  0  0  0  0  3  0  0  0  0  0  0
  -28.6170  -13.7300   20.7710 C   0  0  0  0  0  2  0  0  0  0  0  0
  -29.7690  -14.3580   20.0860 N   0  0  0  0  0  0  0  0  0  0  0  0
  -31.4940  -15.7090   19.9180 O   0  0  0  0  0  0  0  0  0  0  0  0
  -29.4350  -17.0380   20.2320 N   0  0  0  0  0  0  0  0  0  0  0  0
  -28.4900  -16.6940   20.3130 H   0  0  0  0  0  0  0  0  0  0  0  0
  -25.2170  -13.9370   20.5420 C   0  0  0  0  0  0  0  0  0  0  0  0
  -24.1740  -13.1430   20.9250 C   0  0  0  0  0  0  0  0  0  0  0  0
  -24.6500  -11.7980   20.8420 C   0  0  0  0  0  0  0  0  0  0  0  0
  -26.2560  -13.0800   20.2400 N   0  0  0  0  0  0  0  0  0  0  0  0
  -25.9320  -11.7820   20.4870 N   0  0  0  0  0  0  0  0  0  0  0  0
  -23.9340  -10.5270   21.0200 C   0  0  0  0  0  0  0  0  0  0  0  0
  -24.3650   -9.5580   21.9530 C   0  0  0  0  0  3  0  0  0  0  0  0
  -23.6440   -8.3570   22.1220 C   0  0  0  0  0  3  0  0  0  0  0  0
  -22.4780   -8.1140   21.3580 C   0  0  0  0  0  0  0  0  0  0  0  0
  -22.0660   -9.0700   20.4140 C   0  0  0  0  0  3  0  0  0  0  0  0
  -22.7870  -10.2640   20.2440 C   0  0  0  0  0  3  0  0  0  0  0  0
  -21.7300   -6.9630   21.4370 O   0  0  0  0  0  0  0  0  0  0  0  0
  -21.6350   -6.2440   22.6020 C   0  0  0  0  0  0  0  0  0  0  0  0
  -21.1110   -6.8090   23.7850 C   0  0  0  0  0  3  0  0  0  0  0  0
  -20.9660   -6.0150   24.9400 C   0  0  0  0  0  3  0  0  0  0  0  0
  -21.3340   -4.6570   24.9120 C   0  0  0  0  0  0  0  0  0  0  0  0
  -21.8510   -4.0910   23.7330 C   0  0  0  0  0  3  0  0  0  0  0  0
  -21.9970   -4.8830   22.5810 C   0  0  0  0  0  0  0  0  0  0  0  0
  -22.4750   -4.3270   21.4410 F   0  0  0  0  0  0  0  0  0  0  0  0
  -21.1880   -3.8920   26.0200 F   0  0  0  0  0  0  0  0  0  0  0  0
  -22.7830  -13.6050   21.2450 C   0  0  0  0  0  0  0  0  0  0  0  0
  -22.0840  -12.8860   22.1150 N   0  0  0  0  0  0  0  0  0  0  0  0
  -22.3280  -14.6400   20.7600 O   0  0  0  0  0  0  0  0  0  0  0  0
  -22.4680  -12.0500   22.5290 H   0  0  0  0  0  0  0  0  0  0  0  0
  -21.1510  -13.1780   22.3730 H   0  0  0  0  0  0  0  0  0  0  0  0
  -25.3610  -15.3140   20.3930 N   0  0  0  0  0  0  0  0  0  0  0  0
  -24.5850  -15.9520   20.5360 H   0  0  0  0  0  0  0  0  0  0  0  0
  -26.1730  -15.7660   19.9940 H   0  0  0  0  0  0  0  0  0  0  0  0
  -27.7900  -23.9050   20.1710 C   0  0  0  0  0  2  0  0  0  0  0  0
  -28.1100  -25.6200   20.3060 O   0  0  0  0  0  0  0  0  0  0  0  0
  -24.6500  -31.9140   23.2530 C   0  0  0  0  0  0  0  0  0  0  0  0
  -27.1510  -26.8400   20.2560 C   0  0  0  0  0  0  0  0  0  0  0  0
  -23.4500  -30.5180   21.6240 C   0  0  0  0  0  3  0  0  0  0  0  0
  -24.8860  -28.8680   20.2060 C   0  0  0  0  0  0  0  0  0  0  0  0
  -26.0280  -30.6580   21.4890 C   0  0  0  0  0  2  0  0  0  0  0  0
  -26.0860  -29.2260   20.8330 C   0  0  0  0  0  0  0  0  0  0  0  0
  -27.2040  -28.2400   20.8250 C   0  0  0  0  0  3  0  0  0  0  0  0
  -25.9170  -26.6910   19.5740 C   0  0  0  0  0  3  0  0  0  0  0  0
  -24.8400  -27.6260   19.5530 C   0  0  0  0  0  3  0  0  0  0  0  0
  -23.6810  -29.8200   20.2540 C   0  0  0  0  0  2  0  0  0  0  0  0
  -24.7330  -31.0630   22.1740 N   0  0  0  0  0  0  0  0  0  0  0  0
  -23.5600  -32.2180   23.7680 O   0  0  0  0  0  0  0  0  0  0  0  0
  -22.7350  -29.5440   22.5990 C   0  0  0  0  0  0  0  0  0  0  0  0
  -21.4050  -29.3780   22.4670 N   0  0  0  0  0  0  0  0  0  0  0  0
  -23.3910  -28.9340   23.4470 O   0  0  0  0  0  0  0  0  0  0  0  0
  -20.9260  -29.9210   21.7620 H   0  0  0  0  0  0  0  0  0  0  0  0
  -18.0260  -28.1370   22.9630 C   0  0  0  0  0  0  0  0  0  0  0  0
  -20.5810  -28.4430   23.2440 C   0  0  0  0  0  3  0  0  0  0  0  0
  -20.7040  -27.0030   22.6930 C   0  0  0  0  0  2  0  0  0  0  0  0
  -19.6170  -26.6520   21.6730 C   0  0  0  0  0  2  0  0  0  0  0  0
  -18.2270  -26.7840   22.3020 C   0  0  0  0  0  2  0  0  0  0  0  0
  -19.1290  -28.9220   23.3910 C   0  0  0  0  0  0  0  0  0  0  0  0
  -18.8830  -30.1850   23.9750 C   0  0  0  0  0  3  0  0  0  0  0  0
  -17.5690  -30.6620   24.1300 C   0  0  0  0  0  3  0  0  0  0  0  0
  -16.4800  -29.8760   23.7150 C   0  0  0  0  0  3  0  0  0  0  0  0
  -16.7100  -28.6140   23.1380 C   0  0  0  0  0  3  0  0  0  0  0  0
  -25.9190  -32.5610   23.8870 C   0  0  0  0  0  3  0  0  0  0  0  0
  -25.6040  -33.9650   24.2180 N   0  0  0  0  0  0  0  0  0  0  0  0
  -25.9100  -35.0260   23.4570 C   0  0  0  0  0  0  0  0  0  0  0  0
  -26.5460  -34.9250   22.4060 O   0  0  0  0  0  0  0  0  0  0  0  0
  -25.0320  -34.1160   25.0350 H   0  0  0  0  0  0  0  0  0  0  0  0
  -24.1590  -36.8190   23.1920 C   0  0  0  0  0  1  0  0  0  0  0  0
  -25.4430  -36.4170   23.9360 C   0  0  0  0  0  3  0  0  0  0  0  0
  -27.6070  -37.3270   24.6600 C   0  0  0  0  0  1  0  0  0  0  0  0
  -26.4630  -37.4760   23.7650 N   0  0  0  0  0  0  0  0  0  0  0  0
  -26.0570  -38.3950   23.9190 H   0  0  0  0  0  0  0  0  0  0  0  0
  -26.4160  -31.8060   25.1830 C   0  0  1  0  0  0  0  0  0  0  0  0
  -25.3090  -31.5910   26.2420 C   0  0  0  0  0  1  0  0  0  0  0  0
  -26.9960  -30.4190   24.8290 C   0  0  0  0  0  1  0  0  0  0  0  0
  -27.5630  -32.6040   25.8460 C   0  0  0  0  0  1  0  0  0  0  0  0
  1  2  1  0
  3  5  1  0
  4  1  2  0
  5 16  1  0
  5  2  2  0
  6  3  2  0
  6  4  1  0
  7  6  1  0
  8 16  1  0
  9 14  1  0
 10 11  1  0
 10  9  1  0
 12 11  1  0
 12 21  1  0
 12 13  1  0
 14  8  1  0
 14 13  1  0
 15  8  2  0
 16 17  1  0
 18 19  2  0
 19 38  1  0
 20 19  1  0
 20 23  1  0
 21 22  1  0
 21 18  1  0
 22 20  2  0
 23 24  1  0
 24 25  2  0
 26 29  1  0
 26 25  1  0
 27 26  2  0
 28 27  1  0
 28 23  2  0
 29 30  1  0
 30 31  1  0
 31 32  2  0
 33 32  1  0
 33 37  1  0
 34 33  2  0
 35 30  2  0
 35 34  1  0
 36 35  1  0
 38 39  1  0
 39 42  1  0
 39 41  1  0
 40 38  2  0
 43 44  1  0
 43 18  1  0
 45 43  1  0
 46  4  1  0
 46 47  1  0
 48 59  2  0
 49 47  1  0
 49 54  1  0
 50 58  1  0
 50 60  1  0
 51 57  1  0
 51 53  1  0
 52 58  1  0
 53 52  1  0
 54 53  2  0
 55 49  2  0
 56 55  1  0
 56 51  2  0
 57 50  1  0
 58 48  1  0
 60 62  2  0
 61 60  1  0
 63 61  1  0
 64 73  2  0
 64 69  1  0
 65 61  1  0
 65 69  1  0
 66 65  1  0
 67 68  1  0
 67 66  1  0
 68 64  1  0
 69 70  2  0
 70 71  1  0
 72 71  2  0
 73 72  1  0
 74 48  1  0
 74 75  1  0
 74 84  1  0
 75 78  1  0
 76 80  1  0
 76 75  1  0
 77 76  2  0
 80 79  1  0
 82 83  1  0
 82 80  1  0
 82 81  1  0
 84 87  1  1
 84 85  1  0
 86 84  1  0
M  ISO  4   8 100  16 100  46 101  47 101
M  END
>  <TORSDO>  (49) 
F 17

>  <SCORE>  (49) 
-16.539

>  <name>  (49) 
48

>  <ligand_id>  (49) 
48

>  <original_smiles>  (49) 
[H]c1c([H])c([H])c2c(c1[H])C([H])([H])C([H])([H])C([H])([H])C2([H])N([H])C(=O)C1([H])N(C(=O)C([H])(N([H])C(=O)C([H])(N([H])C([H])([H])[H])C([H])([H])[H])C(C([H])([H])[H])(C([H])([H])[H])C([H])([H])[H])C([H])([H])c2c([H])c(OC([H])([H])c3c([H])c([H])c(N([H])C(=O)N4C([H])([H])C([H])([H])C([H])([H])C([H])(n5nc(-c6c([H])c([H])c(Oc7c([H])c([H])c(F)c([H])c7F)c([H])c6[H])c(C(=O)N([H])[H])c5N([H])[H])C4([H])[H])c([H])c3F)c([H])c([H])c2C1([H])[H]

>  <smiles>  (49) 
[H]c1c([H])c([H])c2c(c1[H])C([H])([H])C([H])([H])C([H])([H])C2([H])N([H])C(=O)C1([H])N(C(=O)C([H])(N([H])C(=O)C([H])(N([H])C([H])([H])[H])C([H])([H])[H])C(C([H])([H])[H])(C([H])([H])[H])C([H])([H])[H])C([H])([H])c2c([H])c(OC([H])([H])c3c([H])c([H])c(N([H])C(=O)N4C([H])([H])C([H])([H])C([H])([H])C([H])(n5nc(-c6c([H])c([H])c(Oc7c([H])c([H])c(F)c([H])c7F)c([H])c6[H])c(C(=O)N([H])[H])c5N([H])[H])C4([H])[H])c([H])c3F)c([H])c([H])c2C1([H])[H]

$$$$
49:0:0
     RDKit          3D

 95103  0  0  1  0  0  0  0  0999 V2000
  -28.5400  -21.9480   19.3290 C   0  0  0  0  0  2  0  0  0  0  0  0
  -29.8790  -21.1160   19.6640 C   0  0  0  0  0  0  0  0  0  0  0  0
  -29.7000  -18.5330   22.2690 C   0  0  0  0  0  2  0  0  0  0  0  0
  -28.7630  -18.0070   21.1560 C   0  0  0  0  0  2  0  0  0  0  0  0
  -31.1210  -18.8700   21.7380 C   0  0  0  0  0  2  0  0  0  0  0  0
  -28.7170  -18.9150   19.8990 C   0  0  0  0  0  2  0  0  0  0  0  0
  -31.1910  -18.9240   20.1870 C   0  0  0  0  0  3  0  0  0  0  0  0
  -29.9500  -19.7220   19.7670 N   0  0  0  0  0  0  0  0  0  0  0  0
  -30.9050  -21.7740   19.8200 O   0  0  0  0  0  0  0  0  0  0  0  0
  -31.4810  -17.5090   19.4340 C   0  0  0  0  0  2  0  0  0  0  0  0
  -32.3150  -15.0380   19.6420 C   0  0  0  0  0  0  0  0  0  0  0  0
  -31.8450  -12.7910   18.6420 C   0  0  0  0  0  2  0  0  0  0  0  0
  -30.8300  -12.9010   17.4790 C   0  0  0  0  0  2  0  0  0  0  0  0
  -29.3960  -12.8330   18.0170 C   0  0  0  0  0  2  0  0  0  0  0  0
  -29.1760  -13.8170   19.1980 C   0  0  0  0  0  3  0  0  0  0  0  0
  -30.2650  -13.6830   20.2820 C   0  0  0  0  0  2  0  0  0  0  0  0
  -31.5750  -13.8760   19.6310 N   0  0  0  0  0  0  0  0  0  0  0  0
  -33.4080  -15.0800   19.0610 O   0  0  0  0  0  0  0  0  0  0  0  0
  -31.7560  -16.1910   20.1670 N   0  0  0  0  0  0  0  0  0  0  0  0
  -31.6730  -16.2000   21.1790 H   0  0  0  0  0  0  0  0  0  0  0  0
  -26.9400  -14.6770   20.1060 C   0  0  0  0  0  0  0  0  0  0  0  0
  -25.8180  -14.0200   20.5420 C   0  0  0  0  0  0  0  0  0  0  0  0
  -26.1110  -12.6260   20.4330 C   0  0  0  0  0  0  0  0  0  0  0  0
  -27.8450  -13.6860   19.7720 N   0  0  0  0  0  0  0  0  0  0  0  0
  -27.3590  -12.4450   20.0190 N   0  0  0  0  0  0  0  0  0  0  0  0
  -25.2550  -11.4490   20.6350 C   0  0  0  0  0  0  0  0  0  0  0  0
  -25.5560  -10.4800   21.6150 C   0  0  0  0  0  3  0  0  0  0  0  0
  -24.7050   -9.3720   21.8030 C   0  0  0  0  0  3  0  0  0  0  0  0
  -23.5460   -9.2230   21.0070 C   0  0  0  0  0  0  0  0  0  0  0  0
  -23.2590  -10.1870   20.0240 C   0  0  0  0  0  3  0  0  0  0  0  0
  -24.1090  -11.2870   19.8340 C   0  0  0  0  0  3  0  0  0  0  0  0
  -22.6750   -8.1690   21.1070 O   0  0  0  0  0  0  0  0  0  0  0  0
  -22.4210   -7.5480   22.3050 C   0  0  0  0  0  0  0  0  0  0  0  0
  -21.9260   -8.2600   23.4180 C   0  0  0  0  0  3  0  0  0  0  0  0
  -21.6130   -7.5730   24.6090 C   0  0  0  0  0  3  0  0  0  0  0  0
  -21.7860   -6.1790   24.6850 C   0  0  0  0  0  0  0  0  0  0  0  0
  -22.2720   -5.4680   23.5740 C   0  0  0  0  0  3  0  0  0  0  0  0
  -22.5830   -6.1510   22.3830 C   0  0  0  0  0  0  0  0  0  0  0  0
  -23.0340   -5.4550   21.3110 F   0  0  0  0  0  0  0  0  0  0  0  0
  -21.4770   -5.5190   25.8250 F   0  0  0  0  0  0  0  0  0  0  0  0
  -24.5200  -14.6540   20.9440 C   0  0  0  0  0  0  0  0  0  0  0  0
  -23.8230  -14.0580   21.9080 N   0  0  0  0  0  0  0  0  0  0  0  0
  -24.1280  -15.7020   20.4340 O   0  0  0  0  0  0  0  0  0  0  0  0
  -24.1520  -13.2130   22.3480 H   0  0  0  0  0  0  0  0  0  0  0  0
  -22.9520  -14.4610   22.2190 H   0  0  0  0  0  0  0  0  0  0  0  0
  -27.2590  -16.0180   19.9630 N   0  0  0  0  0  0  0  0  0  0  0  0
  -26.5930  -16.7550   20.1720 H   0  0  0  0  0  0  0  0  0  0  0  0
  -28.1470  -16.3630   19.6250 H   0  0  0  0  0  0  0  0  0  0  0  0
  -28.5230  -23.5290   18.9040 C   0  0  0  0  0  3  0  0  0  0  0  0
  -29.8530  -23.9510   18.4220 N   0  0  0  0  0  4  0  0  0  0  0  0
  -30.5150  -23.6530   19.1250 H   0  0  0  0  0  0  0  0  0  0  0  0
  -29.9130  -24.9530   18.3240 H   0  0  0  0  0  0  0  0  0  0  0  0
  -30.0760  -23.5120   17.5430 H   0  0  0  0  0  0  0  0  0  0  0  0
  -27.9230  -24.6610   19.8740 C   0  0  0  0  0  2  0  0  0  0  0  0
  -28.2430  -26.1130   19.6430 O   0  0  0  0  0  0  0  0  0  0  0  0
  -24.6860  -31.4970   22.9460 C   0  0  0  0  0  0  0  0  0  0  0  0
  -27.1770  -27.0310   19.6420 C   0  0  0  0  0  0  0  0  0  0  0  0
  -23.4490  -30.1750   21.2730 C   0  0  0  0  0  3  0  0  0  0  0  0
  -24.8460  -28.6860   19.7380 C   0  0  0  0  0  0  0  0  0  0  0  0
  -25.9820  -30.4870   21.0390 C   0  0  0  0  0  2  0  0  0  0  0  0
  -26.0380  -29.1370   20.3290 C   0  0  0  0  0  0  0  0  0  0  0  0
  -27.2170  -28.3200   20.2510 C   0  0  0  0  0  3  0  0  0  0  0  0
  -25.9740  -26.6550   19.0070 C   0  0  0  0  0  3  0  0  0  0  0  0
  -24.8200  -27.4600   19.0660 C   0  0  0  0  0  3  0  0  0  0  0  0
  -23.6140  -29.5560   19.8610 C   0  0  0  0  0  2  0  0  0  0  0  0
  -24.7270  -30.7360   21.8090 N   0  0  0  0  0  0  0  0  0  0  0  0
  -23.6150  -31.7500   23.5190 O   0  0  0  0  0  0  0  0  0  0  0  0
  -22.8090  -29.1230   22.2040 C   0  0  0  0  0  0  0  0  0  0  0  0
  -21.4770  -28.9880   22.1160 N   0  0  0  0  0  0  0  0  0  0  0  0
  -23.5020  -28.4360   22.9600 O   0  0  0  0  0  0  0  0  0  0  0  0
  -20.9860  -29.5880   21.4670 H   0  0  0  0  0  0  0  0  0  0  0  0
  -18.0880  -27.7830   22.6670 C   0  0  0  0  0  0  0  0  0  0  0  0
  -20.6600  -28.0070   22.8220 C   0  0  0  0  0  3  0  0  0  0  0  0
  -20.7410  -26.6440   22.0880 C   0  0  0  0  0  2  0  0  0  0  0  0
  -19.5390  -26.3060   21.2010 C   0  0  0  0  0  2  0  0  0  0  0  0
  -18.2090  -26.4610   21.9370 C   0  0  0  0  0  2  0  0  0  0  0  0
  -19.2310  -28.5110   23.0860 C   0  0  0  0  0  0  0  0  0  0  0  0
  -19.0460  -29.7380   23.7620 C   0  0  0  0  0  3  0  0  0  0  0  0
  -17.7600  -30.2240   24.0560 C   0  0  0  0  0  3  0  0  0  0  0  0
  -16.6370  -29.4950   23.6560 C   0  0  0  0  0  3  0  0  0  0  0  0
  -16.8050  -28.2960   22.9420 C   0  0  0  0  0  3  0  0  0  0  0  0
  -25.9840  -32.1130   23.5570 C   0  0  0  0  0  3  0  0  0  0  0  0
  -25.6610  -33.4720   24.0140 N   0  0  0  0  0  0  0  0  0  0  0  0
  -25.9560  -34.5950   23.3500 C   0  0  0  0  0  0  0  0  0  0  0  0
  -26.6030  -34.5930   22.2930 O   0  0  0  0  0  0  0  0  0  0  0  0
  -25.0940  -33.5470   24.8460 H   0  0  0  0  0  0  0  0  0  0  0  0
  -24.1970  -36.3870   23.1830 C   0  0  0  0  0  1  0  0  0  0  0  0
  -25.4550  -35.9280   23.9370 C   0  0  0  0  0  3  0  0  0  0  0  0
  -27.5890  -36.7760   24.8140 C   0  0  0  0  0  1  0  0  0  0  0  0
  -26.4710  -37.0060   23.9040 N   0  0  0  0  0  0  0  0  0  0  0  0
  -26.0510  -37.9020   24.1380 H   0  0  0  0  0  0  0  0  0  0  0  0
  -26.5700  -31.2590   24.7420 C   0  0  1  0  0  0  0  0  0  0  0  0
  -25.5340  -30.9080   25.8350 C   0  0  0  0  0  1  0  0  0  0  0  0
  -27.1660  -29.9320   24.2170 C   0  0  0  0  0  1  0  0  0  0  0  0
  -27.7250  -32.0300   25.4220 C   0  0  0  0  0  1  0  0  0  0  0  0
  1  2  1  0
  2  8  1  0
  2  9  2  0
  4  3  1  0
  5  3  1  0
  6  4  1  0
  7 10  1  0
  7  5  1  0
  8  6  1  0
  8  7  1  0
 10 19  1  0
 11 19  1  0
 12 17  1  0
 13 14  1  0
 13 12  1  0
 15 14  1  0
 15 24  1  0
 15 16  1  0
 17 11  1  0
 17 16  1  0
 18 11  2  0
 19 20  1  0
 21 22  2  0
 22 41  1  0
 23 22  1  0
 23 26  1  0
 24 25  1  0
 24 21  1  0
 25 23  2  0
 26 27  1  0
 27 28  2  0
 29 32  1  0
 29 28  1  0
 30 29  2  0
 31 30  1  0
 31 26  2  0
 32 33  1  0
 33 38  2  0
 33 34  1  0
 34 35  2  0
 35 36  1  0
 36 40  1  0
 37 36  2  0
 38 37  1  0
 39 38  1  0
 41 42  1  0
 42 45  1  0
 42 44  1  0
 43 41  2  0
 46 21  1  0
 46 47  1  0
 48 46  1  0
 49  1  1  0
 49 54  1  0
 50 49  1  0
 50 51  1  0
 52 50  1  0
 53 50  1  0
 55 54  1  0
 56 67  2  0
 57 55  1  0
 57 62  1  0
 58 66  1  0
 58 68  1  0
 59 65  1  0
 59 61  1  0
 60 66  1  0
 61 60  1  0
 62 61  2  0
 63 64  1  0
 63 57  2  0
 64 59  2  0
 65 58  1  0
 66 56  1  0
 68 70  2  0
 69 68  1  0
 71 69  1  0
 72 81  2  0
 72 77  1  0
 73 69  1  0
 73 77  1  0
 74 73  1  0
 75 76  1  0
 75 74  1  0
 76 72  1  0
 77 78  2  0
 78 79  1  0
 80 79  2  0
 81 80  1  0
 82 56  1  0
 82 83  1  0
 82 92  1  0
 83 86  1  0
 84 88  1  0
 84 83  1  0
 85 84  2  0
 88 87  1  0
 90 88  1  0
 90 91  1  0
 90 89  1  0
 92 95  1  1
 92 93  1  0
 94 92  1  0
M  ISO  4  11 100  19 100  54 101  55 101
M  END
>  <TORSDO>  (50) 
F 21

>  <SCORE>  (50) 
-9.263

>  <name>  (50) 
49

>  <ligand_id>  (50) 
49

>  <original_smiles>  (50) 
[H]c1c([H])c([H])c2c(c1[H])C([H])([H])C([H])([H])C([H])([H])C2([H])N([H])C(=O)C1([H])N(C(=O)C([H])(N([H])C(=O)C([H])(N([H])C([H])([H])[H])C([H])([H])[H])C(C([H])([H])[H])(C([H])([H])[H])C([H])([H])[H])C([H])([H])c2c([H])c(OC([H])([H])C([H])(C([H])([H])C(=O)N3C([H])([H])C([H])([H])C([H])([H])C([H])([H])C3([H])C([H])([H])N([H])C(=O)N3C([H])([H])C([H])([H])C([H])([H])C([H])(n4nc(-c5c([H])c([H])c(Oc6c([H])c([H])c(F)c([H])c6F)c([H])c5[H])c(C(=O)N([H])[H])c4N([H])[H])C3([H])[H])[N+]([H])([H])[H])c([H])c([H])c2C1([H])[H]

>  <smiles>  (50) 
[H]c1c([H])c([H])c2c(c1[H])C([H])([H])C([H])([H])C([H])([H])C2([H])N([H])C(=O)C1([H])N(C(=O)C([H])(N([H])C(=O)C([H])(N([H])C([H])([H])[H])C([H])([H])[H])C(C([H])([H])[H])(C([H])([H])[H])C([H])([H])[H])C([H])([H])c2c([H])c(OC([H])([H])C([H])(C([H])([H])C(=O)N3C([H])([H])C([H])([H])C([H])([H])C([H])([H])C3([H])C([H])([H])N([H])C(=O)N3C([H])([H])C([H])([H])C([H])([H])C([H])(n4nc(-c5c([H])c([H])c(Oc6c([H])c([H])c(F)c([H])c6F)c([H])c5[H])c(C(=O)N([H])[H])c4N([H])[H])C3([H])[H])[N+]([H])([H])[H])c([H])c([H])c2C1([H])[H]

$$$$
50:0:0
     RDKit          3D

 96104  0  0  1  0  0  0  0  0999 V2000
  -28.7820  -19.9920   19.4070 C   0  0  0  0  0  1  0  0  0  0  0  0
  -28.3500  -20.8170   21.7570 C   0  0  0  0  0  1  0  0  0  0  0  0
  -29.4450  -20.5080   20.7040 C   0  0  2  0  0  0  0  0  0  0  0  0
  -30.2190  -21.8500   20.4110 C   0  0  0  0  0  2  0  0  0  0  0  0
  -29.3120  -22.9380   19.9560 N   0  0  0  0  0  4  0  0  0  0  0  0
  -29.2460  -22.8890   18.9510 H   0  0  0  0  0  0  0  0  0  0  0  0
  -28.3950  -22.7230   20.3220 H   0  0  0  0  0  0  0  0  0  0  0  0
  -29.6300  -24.3490   20.3300 C   0  0  0  0  0  2  0  0  0  0  0  0
  -28.5640  -25.3020   19.7300 C   0  0  0  0  0  2  0  0  0  0  0  0
  -28.5710  -26.6540   20.2320 O   0  0  0  0  0  0  0  0  0  0  0  0
  -24.5300  -31.6860   23.2270 C   0  0  0  0  0  0  0  0  0  0  0  0
  -27.3960  -27.3850   20.1350 C   0  0  0  0  0  0  0  0  0  0  0  0
  -23.4210  -30.3140   21.4950 C   0  0  0  0  0  3  0  0  0  0  0  0
  -24.9670  -28.8610   20.0750 C   0  0  0  0  0  0  0  0  0  0  0  0
  -25.9450  -30.7260   21.4170 C   0  0  0  0  0  2  0  0  0  0  0  0
  -26.0850  -29.3790   20.7380 C   0  0  0  0  0  0  0  0  0  0  0  0
  -27.2960  -28.6460   20.7730 C   0  0  0  0  0  3  0  0  0  0  0  0
  -26.2630  -26.9130   19.4240 C   0  0  0  0  0  3  0  0  0  0  0  0
  -25.0530  -27.6280   19.4130 C   0  0  0  0  0  3  0  0  0  0  0  0
  -23.7030  -29.6910   20.1020 C   0  0  0  0  0  2  0  0  0  0  0  0
  -24.6460  -30.9230   22.1050 N   0  0  0  0  0  0  0  0  0  0  0  0
  -23.4210  -31.9140   23.7320 O   0  0  0  0  0  0  0  0  0  0  0  0
  -22.7580  -29.2440   22.3930 C   0  0  0  0  0  0  0  0  0  0  0  0
  -21.4330  -29.0820   22.2490 N   0  0  0  0  0  0  0  0  0  0  0  0
  -23.4320  -28.5680   23.1720 O   0  0  0  0  0  0  0  0  0  0  0  0
  -20.9480  -29.6830   21.5980 H   0  0  0  0  0  0  0  0  0  0  0  0
  -18.0430  -27.9020   22.6790 C   0  0  0  0  0  0  0  0  0  0  0  0
  -20.6040  -28.1110   22.9650 C   0  0  0  0  0  3  0  0  0  0  0  0
  -20.6880  -26.7140   22.3090 C   0  0  0  0  0  2  0  0  0  0  0  0
  -19.5840  -26.4640   21.2770 C   0  0  0  0  0  2  0  0  0  0  0  0
  -18.2020  -26.5900   21.9280 C   0  0  0  0  0  2  0  0  0  0  0  0
  -19.1710  -28.6220   23.1520 C   0  0  0  0  0  0  0  0  0  0  0  0
  -18.9690  -29.8530   23.8130 C   0  0  0  0  0  3  0  0  0  0  0  0
  -17.6710  -30.3620   24.0050 C   0  0  0  0  0  3  0  0  0  0  0  0
  -16.5570  -29.6370   23.5480 C   0  0  0  0  0  3  0  0  0  0  0  0
  -16.7440  -28.4090   22.8900 C   0  0  0  0  0  3  0  0  0  0  0  0
  -25.7740  -32.3210   23.9180 C   0  0  0  0  0  3  0  0  0  0  0  0
  -25.4840  -33.7450   24.1260 N   0  0  0  0  0  0  0  0  0  0  0  0
  -25.8970  -34.7300   23.3160 C   0  0  0  0  0  0  0  0  0  0  0  0
  -26.6350  -34.5380   22.3460 O   0  0  0  0  0  0  0  0  0  0  0  0
  -24.8410  -33.9730   24.8700 H   0  0  0  0  0  0  0  0  0  0  0  0
  -24.2510  -36.5320   22.7070 C   0  0  0  0  0  1  0  0  0  0  0  0
  -25.4170  -36.1590   23.6380 C   0  0  0  0  0  3  0  0  0  0  0  0
  -27.5020  -37.0600   24.5700 C   0  0  0  0  0  1  0  0  0  0  0  0
  -26.4860  -37.1770   23.5270 N   0  0  0  0  0  0  0  0  0  0  0  0
  -26.0970  -38.1150   23.5680 H   0  0  0  0  0  0  0  0  0  0  0  0
  -26.1550  -31.6250   25.2810 C   0  0  1  0  0  0  0  0  0  0  0  0
  -24.9730  -31.5140   26.2730 C   0  0  0  0  0  1  0  0  0  0  0  0
  -26.7000  -30.1990   25.0350 C   0  0  0  0  0  1  0  0  0  0  0  0
  -27.2870  -32.4180   25.9760 C   0  0  0  0  0  1  0  0  0  0  0  0
  -30.4330  -19.3890   21.2130 C   0  0  0  0  0  2  0  0  0  0  0  0
  -29.6000  -18.5800   23.4380 C   0  0  0  0  0  1  0  0  0  0  0  0
  -29.7620  -18.2860   21.9860 N   0  0  2  0  0  4  0  0  0  0  0  0
  -28.8160  -18.2720   21.6420 H   0  0  0  0  0  0  0  0  0  0  0  0
  -31.5510  -14.2120   19.6820 C   0  0  0  0  0  0  0  0  0  0  0  0
  -30.9010  -12.1830   18.4180 C   0  0  0  0  0  2  0  0  0  0  0  0
  -29.8820  -12.4960   17.3050 C   0  0  0  0  0  2  0  0  0  0  0  0
  -28.4450  -12.5050   17.8640 C   0  0  0  0  0  2  0  0  0  0  0  0
  -28.3010  -13.3550   19.1560 C   0  0  0  0  0  3  0  0  0  0  0  0
  -29.4020  -12.9740   20.1670 C   0  0  0  0  0  2  0  0  0  0  0  0
  -30.7150  -13.1510   19.5110 N   0  0  0  0  0  0  0  0  0  0  0  0
  -32.5740  -14.3940   19.0120 O   0  0  0  0  0  0  0  0  0  0  0  0
  -31.4830  -16.4640   22.5360 C   0  0  0  0  0  0  0  0  0  0  0  0
  -31.9240  -15.1380   21.9370 C   0  0  0  0  0  2  0  0  0  0  0  0
  -30.5320  -16.3540   20.3870 C   0  0  0  0  0  2  0  0  0  0  0  0
  -30.2340  -16.8780   21.7950 C   0  0  0  0  0  3  0  0  0  0  0  0
  -31.1930  -15.0630   20.6610 N   0  0  0  0  0  0  0  0  0  0  0  0
  -32.0900  -17.0690   23.4260 O   0  0  0  0  0  0  0  0  0  0  0  0
  -26.0500  -14.2210   20.0680 C   0  0  0  0  0  0  0  0  0  0  0  0
  -24.9390  -13.5630   20.5300 C   0  0  0  0  0  0  0  0  0  0  0  0
  -25.2450  -12.1680   20.4580 C   0  0  0  0  0  0  0  0  0  0  0  0
  -26.9670  -13.2300   19.7450 N   0  0  0  0  0  0  0  0  0  0  0  0
  -26.4920  -11.9920   20.0360 N   0  0  0  0  0  0  0  0  0  0  0  0
  -24.4050  -10.9870   20.7030 C   0  0  0  0  0  0  0  0  0  0  0  0
  -24.8020   -9.9750   21.6020 C   0  0  0  0  0  3  0  0  0  0  0  0
  -23.9710   -8.8580   21.8350 C   0  0  0  0  0  3  0  0  0  0  0  0
  -22.7310   -8.7440   21.1680 C   0  0  0  0  0  0  0  0  0  0  0  0
  -22.3530   -9.7430   20.2500 C   0  0  0  0  0  3  0  0  0  0  0  0
  -23.1830  -10.8510   20.0150 C   0  0  0  0  0  3  0  0  0  0  0  0
  -21.8690   -7.6840   21.3180 O   0  0  0  0  0  0  0  0  0  0  0  0
  -21.7670   -6.9990   22.5020 C   0  0  0  0  0  0  0  0  0  0  0  0
  -21.4740   -7.6490   23.7230 C   0  0  0  0  0  3  0  0  0  0  0  0
  -21.3040   -6.8960   24.9020 C   0  0  0  0  0  3  0  0  0  0  0  0
  -21.4190   -5.4930   24.8630 C   0  0  0  0  0  0  0  0  0  0  0  0
  -21.7080   -4.8410   23.6490 C   0  0  0  0  0  3  0  0  0  0  0  0
  -21.8750   -5.5920   22.4740 C   0  0  0  0  0  0  0  0  0  0  0  0
  -22.1320   -4.9570   21.3040 F   0  0  0  0  0  0  0  0  0  0  0  0
  -21.2490   -4.7670   25.9930 F   0  0  0  0  0  0  0  0  0  0  0  0
  -23.6260  -14.1830   20.9160 C   0  0  0  0  0  0  0  0  0  0  0  0
  -22.9520  -13.6150   21.9130 N   0  0  0  0  0  0  0  0  0  0  0  0
  -23.2130  -15.2040   20.3680 O   0  0  0  0  0  0  0  0  0  0  0  0
  -23.3030  -12.7980   22.3900 H   0  0  0  0  0  0  0  0  0  0  0  0
  -22.0760  -14.0170   22.2160 H   0  0  0  0  0  0  0  0  0  0  0  0
  -26.3440  -15.5660   19.8700 N   0  0  0  0  0  0  0  0  0  0  0  0
  -27.1280  -15.8860   19.3140 H   0  0  0  0  0  0  0  0  0  0  0  0
  -25.6150  -16.2700   19.9610 H   0  0  0  0  0  0  0  0  0  0  0  0
  3  1  1  6
  3 51  1  0
  3  2  1  0
  4  3  1  0
  5  7  1  0
  5  8  1  0
  5  4  1  0
  6  5  1  0
  9 10  1  0
  9  8  1  0
 11 22  2  0
 12 10  1  0
 12 17  1  0
 13 21  1  0
 13 23  1  0
 14 20  1  0
 14 16  1  0
 15 21  1  0
 16 17  2  0
 16 15  1  0
 18 12  2  0
 19 18  1  0
 19 14  2  0
 20 13  1  0
 21 11  1  0
 23 25  2  0
 24 23  1  0
 26 24  1  0
 27 36  2  0
 27 32  1  0
 28 24  1  0
 28 32  1  0
 29 28  1  0
 30 31  1  0
 30 29  1  0
 31 27  1  0
 32 33  2  0
 33 34  1  0
 35 34  2  0
 36 35  1  0
 37 11  1  0
 37 38  1  0
 37 47  1  0
 38 41  1  0
 39 43  1  0
 39 38  1  0
 40 39  2  0
 43 42  1  0
 45 46  1  0
 45 43  1  0
 45 44  1  0
 47 50  1  1
 47 48  1  0
 49 47  1  0
 51 53  1  0
 53 52  1  0
 53 54  1  6
 55 67  1  0
 56 61  1  0
 57 58  1  0
 57 56  1  0
 59 58  1  0
 59 72  1  0
 59 60  1  0
 61 55  1  0
 61 60  1  0
 62 55  2  0
 63 68  2  0
 64 63  1  0
 65 67  1  0
 65 66  1  0
 66 53  1  0
 66 63  1  0
 67 64  1  0
 69 70  2  0
 70 89  1  0
 71 70  1  0
 71 74  1  0
 72 73  1  0
 72 69  1  0
 73 71  2  0
 74 75  1  0
 75 76  2  0
 77 80  1  0
 77 76  1  0
 78 77  2  0
 79 78  1  0
 79 74  2  0
 80 81  1  0
 81 82  1  0
 82 83  2  0
 84 83  1  0
 84 88  1  0
 85 84  2  0
 86 81  2  0
 86 85  1  0
 87 86  1  0
 89 90  1  0
 90 93  1  0
 90 92  1  0
 91 89  2  0
 94 96  1  0
 94 69  1  0
 95 94  1  0
M  ISO  4   9 101  10 101  55 100  67 100
M  END
>  <TORSDO>  (51) 
F 22

>  <SCORE>  (51) 
-5.119

>  <name>  (51) 
50

>  <ligand_id>  (51) 
50

>  <original_smiles>  (51) 
[H]c1c([H])c([H])c2c(c1[H])C([H])([H])C([H])([H])C([H])([H])C2([H])N([H])C(=O)C1([H])N(C(=O)C([H])(N([H])C(=O)C([H])(N([H])C([H])([H])[H])C([H])([H])[H])C(C([H])([H])[H])(C([H])([H])[H])C([H])([H])[H])C([H])([H])c2c([H])c(OC([H])([H])C([H])([H])[N+]([H])([H])C([H])([H])C(C([H])([H])[H])(C([H])([H])[H])C([H])([H])[N+]([H])(C([H])([H])[H])C3([H])C(=O)C([H])([H])N(C(=O)N4C([H])([H])C([H])([H])C([H])([H])C([H])(n5nc(-c6c([H])c([H])c(Oc7c([H])c([H])c(F)c([H])c7F)c([H])c6[H])c(C(=O)N([H])[H])c5N([H])[H])C4([H])[H])C3([H])[H])c([H])c([H])c2C1([H])[H]

>  <smiles>  (51) 
[H]c1c([H])c([H])c2c(c1[H])C([H])([H])C([H])([H])C([H])([H])C2([H])N([H])C(=O)C1([H])N(C(=O)C([H])(N([H])C(=O)C([H])(N([H])C([H])([H])[H])C([H])([H])[H])C(C([H])([H])[H])(C([H])([H])[H])C([H])([H])[H])C([H])([H])c2c([H])c(OC([H])([H])C([H])([H])[N+]([H])([H])C([H])([H])C(C([H])([H])[H])(C([H])([H])[H])C([H])([H])[N+]([H])(C([H])([H])[H])C3([H])C(=O)C([H])([H])N(C(=O)N4C([H])([H])C([H])([H])C([H])([H])C([H])(n5nc(-c6c([H])c([H])c(Oc7c([H])c([H])c(F)c([H])c7F)c([H])c6[H])c(C(=O)N([H])[H])c5N([H])[H])C4([H])[H])C3([H])[H])c([H])c([H])c2C1([H])[H]

$$$$
51:0:0
     RDKit          3D

 95103  0  0  1  0  0  0  0  0999 V2000
  -27.5280  -21.1780   19.4470 C   0  0  0  0  0  1  0  0  0  0  0  0
  -28.8710  -21.7770   19.6670 N   0  0  1  0  0  4  0  0  0  0  0  0
  -28.9840  -21.8890   20.6620 H   0  0  0  0  0  0  0  0  0  0  0  0
  -29.9860  -20.8870   19.2260 C   0  0  0  0  0  2  0  0  0  0  0  0
  -30.4440  -17.7770   21.4640 C   0  0  0  0  0  3  0  0  0  0  0  0
  -29.4750  -17.0740   19.3420 C   0  0  0  0  0  3  0  0  0  0  0  0
  -29.9400  -19.4460   19.7390 C   0  0  0  0  0  0  0  0  0  0  0  0
  -29.9880  -16.7440   20.6160 C   0  0  0  0  0  0  0  0  0  0  0  0
  -30.4290  -19.1190   21.0230 C   0  0  0  0  0  0  0  0  0  0  0  0
  -29.4550  -18.4140   18.9050 C   0  0  0  0  0  0  0  0  0  0  0  0
  -30.8940  -20.0980   21.8360 F   0  0  0  0  0  0  0  0  0  0  0  0
  -28.9670  -18.7040   17.6750 F   0  0  0  0  0  0  0  0  0  0  0  0
  -30.6770  -14.4170   20.4350 C   0  0  0  0  0  0  0  0  0  0  0  0
  -30.3600  -12.2880   19.2520 C   0  0  0  0  0  2  0  0  0  0  0  0
  -29.4060  -12.5390   18.0650 C   0  0  0  0  0  2  0  0  0  0  0  0
  -27.9340  -12.4130   18.5070 C   0  0  0  0  0  2  0  0  0  0  0  0
  -27.6220  -13.2230   19.7940 C   0  0  0  0  0  3  0  0  0  0  0  0
  -28.6840  -12.9440   20.8840 C   0  0  0  0  0  2  0  0  0  0  0  0
  -30.0110  -13.2410   20.3140 N   0  0  0  0  0  0  0  0  0  0  0  0
  -31.7810  -14.6310   19.9220 O   0  0  0  0  0  0  0  0  0  0  0  0
  -29.9970  -15.3930   21.0570 N   0  0  0  0  0  0  0  0  0  0  0  0
  -29.1730  -15.0840   21.5520 H   0  0  0  0  0  0  0  0  0  0  0  0
  -25.2280  -13.8450   20.5110 C   0  0  0  0  0  0  0  0  0  0  0  0
  -24.1580  -13.0770   20.8890 C   0  0  0  0  0  0  0  0  0  0  0  0
  -24.6140  -11.7240   20.8570 C   0  0  0  0  0  0  0  0  0  0  0  0
  -26.2680  -12.9580   20.2770 N   0  0  0  0  0  0  0  0  0  0  0  0
  -25.9010  -11.6780   20.5390 N   0  0  0  0  0  0  0  0  0  0  0  0
  -23.8850  -10.4640   21.0550 C   0  0  0  0  0  0  0  0  0  0  0  0
  -24.3290   -9.4900   21.9750 C   0  0  0  0  0  3  0  0  0  0  0  0
  -23.6010   -8.2950   22.1590 C   0  0  0  0  0  3  0  0  0  0  0  0
  -22.4130   -8.0670   21.4230 C   0  0  0  0  0  0  0  0  0  0  0  0
  -21.9870   -9.0300   20.4930 C   0  0  0  0  0  3  0  0  0  0  0  0
  -22.7160  -10.2170   20.3060 C   0  0  0  0  0  3  0  0  0  0  0  0
  -21.6550   -6.9240   21.5170 O   0  0  0  0  0  0  0  0  0  0  0  0
  -21.6330   -6.1680   22.6620 C   0  0  0  0  0  0  0  0  0  0  0  0
  -21.2450   -6.7110   23.9060 C   0  0  0  0  0  3  0  0  0  0  0  0
  -21.1690   -5.8810   25.0430 C   0  0  0  0  0  3  0  0  0  0  0  0
  -21.4710   -4.5110   24.9370 C   0  0  0  0  0  0  0  0  0  0  0  0
  -21.8520   -3.9670   23.6980 C   0  0  0  0  0  3  0  0  0  0  0  0
  -21.9300   -4.7940   22.5630 C   0  0  0  0  0  0  0  0  0  0  0  0
  -22.2770   -4.2610   21.3660 F   0  0  0  0  0  0  0  0  0  0  0  0
  -21.3910   -3.7120   26.0260 F   0  0  0  0  0  0  0  0  0  0  0  0
  -22.7660  -13.5610   21.1730 C   0  0  0  0  0  0  0  0  0  0  0  0
  -22.0440  -12.8690   22.0480 N   0  0  0  0  0  0  0  0  0  0  0  0
  -22.3270  -14.5870   20.6550 O   0  0  0  0  0  0  0  0  0  0  0  0
  -22.4120  -12.0390   22.4880 H   0  0  0  0  0  0  0  0  0  0  0  0
  -21.1100  -13.1760   22.2810 H   0  0  0  0  0  0  0  0  0  0  0  0
  -25.3970  -15.2150   20.3330 N   0  0  0  0  0  0  0  0  0  0  0  0
  -24.6330  -15.8720   20.4470 H   0  0  0  0  0  0  0  0  0  0  0  0
  -26.2460  -15.6530   20.0000 H   0  0  0  0  0  0  0  0  0  0  0  0
  -28.9940  -23.1370   19.0560 C   0  0  0  0  0  2  0  0  0  0  0  0
  -28.4800  -24.3020   19.9390 C   0  0  0  0  0  3  0  0  0  0  0  0
  -27.1930  -24.1180   20.2300 F   0  0  0  0  0  0  0  0  0  0  0  0
  -28.6540  -25.6720   19.2400 C   0  0  0  0  0  2  0  0  0  0  0  0
  -28.4450  -26.7800   20.1230 O   0  0  0  0  0  0  0  0  0  0  0  0
  -24.6030  -31.8740   23.2450 C   0  0  0  0  0  0  0  0  0  0  0  0
  -27.2370  -27.4480   20.1270 C   0  0  0  0  0  0  0  0  0  0  0  0
  -23.3880  -30.4780   21.6050 C   0  0  0  0  0  3  0  0  0  0  0  0
  -24.8340  -28.9430   20.1710 C   0  0  0  0  0  0  0  0  0  0  0  0
  -25.9130  -30.8320   21.4000 C   0  0  0  0  0  2  0  0  0  0  0  0
  -25.9920  -29.4640   20.7580 C   0  0  0  0  0  0  0  0  0  0  0  0
  -27.1910  -28.7190   20.7420 C   0  0  0  0  0  3  0  0  0  0  0  0
  -26.0530  -26.9320   19.5510 C   0  0  0  0  0  3  0  0  0  0  0  0
  -24.8580  -27.6720   19.5690 C   0  0  0  0  0  3  0  0  0  0  0  0
  -23.5910  -29.8010   20.2230 C   0  0  0  0  0  2  0  0  0  0  0  0
  -24.6530  -31.0770   22.1410 N   0  0  0  0  0  0  0  0  0  0  0  0
  -23.5250  -32.1480   23.7890 O   0  0  0  0  0  0  0  0  0  0  0  0
  -22.7410  -29.4540   22.5650 C   0  0  0  0  0  0  0  0  0  0  0  0
  -21.4160  -29.2750   22.4400 N   0  0  0  0  0  0  0  0  0  0  0  0
  -23.4260  -28.8240   23.3740 O   0  0  0  0  0  0  0  0  0  0  0  0
  -20.9250  -29.8340   21.7570 H   0  0  0  0  0  0  0  0  0  0  0  0
  -18.0400  -28.0940   22.9450 C   0  0  0  0  0  0  0  0  0  0  0  0
  -20.5980  -28.3380   23.2100 C   0  0  0  0  0  3  0  0  0  0  0  0
  -20.6940  -26.9090   22.6280 C   0  0  0  0  0  2  0  0  0  0  0  0
  -19.5870  -26.5960   21.6160 C   0  0  0  0  0  2  0  0  0  0  0  0
  -18.2080  -26.7460   22.2640 C   0  0  0  0  0  2  0  0  0  0  0  0
  -19.1630  -28.8490   23.3740 C   0  0  0  0  0  0  0  0  0  0  0  0
  -18.9530  -30.1120   23.9690 C   0  0  0  0  0  3  0  0  0  0  0  0
  -17.6510  -30.6200   24.1410 C   0  0  0  0  0  3  0  0  0  0  0  0
  -16.5420  -29.8610   23.7280 C   0  0  0  0  0  3  0  0  0  0  0  0
  -16.7370  -28.6010   23.1360 C   0  0  0  0  0  3  0  0  0  0  0  0
  -25.8930  -32.5000   23.8610 C   0  0  0  0  0  3  0  0  0  0  0  0
  -25.5900  -33.8990   24.1900 N   0  0  0  0  0  0  0  0  0  0  0  0
  -25.9260  -34.9480   23.4280 C   0  0  0  0  0  0  0  0  0  0  0  0
  -26.5950  -34.8410   22.3950 O   0  0  0  0  0  0  0  0  0  0  0  0
  -24.9940  -34.0570   24.9880 H   0  0  0  0  0  0  0  0  0  0  0  0
  -24.2030  -36.7470   23.0710 C   0  0  0  0  0  1  0  0  0  0  0  0
  -25.4440  -36.3400   23.8820 C   0  0  0  0  0  3  0  0  0  0  0  0
  -27.5820  -37.2170   24.7110 C   0  0  0  0  0  1  0  0  0  0  0  0
  -26.4790  -37.3890   23.7680 N   0  0  0  0  0  0  0  0  0  0  0  0
  -26.0770  -38.3100   23.9160 H   0  0  0  0  0  0  0  0  0  0  0  0
  -26.4140  -31.7260   25.1340 C   0  0  1  0  0  0  0  0  0  0  0  0
  -25.3250  -31.4930   26.2070 C   0  0  0  0  0  1  0  0  0  0  0  0
  -26.9910  -30.3460   24.7370 C   0  0  0  0  0  1  0  0  0  0  0  0
  -27.5690  -32.5180   25.7900 C   0  0  0  0  0  1  0  0  0  0  0  0
  1  2  1  0
  2  3  1  1
  4  2  1  0
  4  7  1  0
  6  8  1  0
  7  9  2  0
  8 21  1  0
  8  5  2  0
  9  5  1  0
  9 11  1  0
 10  6  2  0
 10  7  1  0
 12 10  1  0
 13 21  1  0
 14 19  1  0
 15 16  1  0
 15 14  1  0
 17 16  1  0
 17 26  1  0
 17 18  1  0
 19 13  1  0
 19 18  1  0
 20 13  2  0
 21 22  1  0
 23 24  2  0
 24 43  1  0
 25 24  1  0
 25 28  1  0
 26 23  1  0
 26 27  1  0
 27 25  2  0
 28 29  1  0
 29 30  2  0
 31 34  1  0
 31 30  1  0
 32 31  2  0
 33 32  1  0
 33 28  2  0
 34 35  1  0
 35 36  1  0
 36 37  2  0
 38 37  1  0
 38 42  1  0
 39 38  2  0
 40 35  2  0
 40 39  1  0
 41 40  1  0
 43 44  1  0
 44 47  1  0
 44 46  1  0
 45 43  2  0
 48 49  1  0
 48 23  1  0
 50 48  1  0
 51  2  1  0
 51 52  1  0
 52 53  1  0
 54 52  1  0
 54 55  1  0
 55 57  1  0
 56 67  2  0
 57 62  1  0
 58 66  1  0
 58 68  1  0
 59 65  1  0
 59 61  1  0
 60 66  1  0
 61 60  1  0
 62 61  2  0
 63 64  1  0
 63 57  2  0
 64 59  2  0
 65 58  1  0
 66 56  1  0
 68 70  2  0
 69 68  1  0
 71 69  1  0
 72 81  2  0
 72 77  1  0
 73 69  1  0
 73 77  1  0
 74 73  1  0
 75 76  1  0
 75 74  1  0
 76 72  1  0
 77 78  2  0
 78 79  1  0
 80 79  2  0
 81 80  1  0
 82 56  1  0
 82 83  1  0
 82 92  1  0
 83 86  1  0
 84 88  1  0
 84 83  1  0
 85 84  2  0
 88 87  1  0
 90 88  1  0
 90 91  1  0
 90 89  1  0
 92 95  1  1
 92 93  1  0
 94 92  1  0
M  ISO  4  13 100  21 100  54 101  55 101
M  END
>  <TORSDO>  (52) 
F 21

>  <SCORE>  (52) 
-13.774

>  <name>  (52) 
51

>  <ligand_id>  (52) 
51

>  <original_smiles>  (52) 
[H]c1c([H])c([H])c2c(c1[H])C([H])([H])C([H])([H])C([H])([H])C2([H])N([H])C(=O)C1([H])N(C(=O)C([H])(N([H])C(=O)C([H])(N([H])C([H])([H])[H])C([H])([H])[H])C(C([H])([H])[H])(C([H])([H])[H])C([H])([H])[H])C([H])([H])c2c([H])c(OC([H])([H])C([H])(F)C([H])([H])[N+]([H])(C([H])([H])[H])C([H])([H])c3c(F)c([H])c(N([H])C(=O)N4C([H])([H])C([H])([H])C([H])([H])C([H])(n5nc(-c6c([H])c([H])c(Oc7c([H])c([H])c(F)c([H])c7F)c([H])c6[H])c(C(=O)N([H])[H])c5N([H])[H])C4([H])[H])c([H])c3F)c([H])c([H])c2C1([H])[H]

>  <smiles>  (52) 
[H]c1c([H])c([H])c2c(c1[H])C([H])([H])C([H])([H])C([H])([H])C2([H])N([H])C(=O)C1([H])N(C(=O)C([H])(N([H])C(=O)C([H])(N([H])C([H])([H])[H])C([H])([H])[H])C(C([H])([H])[H])(C([H])([H])[H])C([H])([H])[H])C([H])([H])c2c([H])c(OC([H])([H])C([H])(F)C([H])([H])[N+]([H])(C([H])([H])[H])C([H])([H])c3c(F)c([H])c(N([H])C(=O)N4C([H])([H])C([H])([H])C([H])([H])C([H])(n5nc(-c6c([H])c([H])c(Oc7c([H])c([H])c(F)c([H])c7F)c([H])c6[H])c(C(=O)N([H])[H])c5N([H])[H])C4([H])[H])c([H])c3F)c([H])c([H])c2C1([H])[H]

$$$$
52:0:0
     RDKit          3D

101110  0  0  1  0  0  0  0  0999 V2000
  -30.0790  -21.1130   21.8960 C   0  0  0  0  0  2  0  0  0  0  0  0
  -29.8530  -22.6290   22.0430 C   0  0  0  0  0  2  0  0  0  0  0  0
  -29.0720  -21.9340   19.9040 C   0  0  0  0  0  2  0  0  0  0  0  0
  -30.1730  -20.9380   20.3790 C   0  0  0  0  0  3  0  0  0  0  0  0
  -28.9870  -23.0390   20.9080 N   0  0  2  0  0  4  0  0  0  0  0  0
  -28.0350  -23.0010   21.2450 H   0  0  0  0  0  0  0  0  0  0  0  0
  -30.1850  -18.3380   20.6430 C   0  0  0  0  0  3  0  0  0  0  0  0
  -30.2280  -16.8490   18.7250 C   0  0  0  0  0  3  0  0  0  0  0  0
  -30.2260  -19.2720   18.3690 C   0  0  0  0  0  0  0  0  0  0  0  0
  -30.1730  -19.4920   19.7870 C   0  0  0  0  0  0  0  0  0  0  0  0
  -30.2540  -17.0120   20.1230 C   0  0  0  0  0  0  0  0  0  0  0  0
  -30.2260  -17.9520   17.8630 C   0  0  0  0  0  0  0  0  0  0  0  0
  -30.2520  -17.7150   16.5290 F   0  0  0  0  0  0  0  0  0  0  0  0
  -31.0540  -14.7410   20.6270 C   0  0  0  0  0  0  0  0  0  0  0  0
  -30.8070  -12.5500   19.5310 C   0  0  0  0  0  2  0  0  0  0  0  0
  -29.9270  -12.7340   18.2750 C   0  0  0  0  0  2  0  0  0  0  0  0
  -28.4320  -12.6230   18.6340 C   0  0  0  0  0  2  0  0  0  0  0  0
  -28.0400  -13.4720   19.8750 C   0  0  0  0  0  3  0  0  0  0  0  0
  -29.0420  -13.2700   21.0380 C   0  0  0  0  0  2  0  0  0  0  0  0
  -30.3910  -13.5540   20.5280 N   0  0  0  0  0  0  0  0  0  0  0  0
  -32.2220  -14.8790   20.2530 O   0  0  0  0  0  0  0  0  0  0  0  0
  -30.3070  -15.8290   20.9470 N   0  0  0  0  0  0  0  0  0  0  0  0
  -29.4740  -15.6400   21.4810 H   0  0  0  0  0  0  0  0  0  0  0  0
  -25.6160  -14.0940   20.4730 C   0  0  0  0  0  0  0  0  0  0  0  0
  -24.5290  -13.3310   20.8030 C   0  0  0  0  0  0  0  0  0  0  0  0
  -24.9850  -11.9770   20.8070 C   0  0  0  0  0  0  0  0  0  0  0  0
  -26.6660  -13.2060   20.2960 N   0  0  0  0  0  0  0  0  0  0  0  0
  -26.2860  -11.9290   20.5560 N   0  0  0  0  0  0  0  0  0  0  0  0
  -24.2430  -10.7200   20.9770 C   0  0  0  0  0  0  0  0  0  0  0  0
  -24.6030   -9.7790   21.9670 C   0  0  0  0  0  3  0  0  0  0  0  0
  -23.8640   -8.5870   22.1240 C   0  0  0  0  0  3  0  0  0  0  0  0
  -22.7510   -8.3260   21.2880 C   0  0  0  0  0  0  0  0  0  0  0  0
  -22.4110   -9.2570   20.2910 C   0  0  0  0  0  3  0  0  0  0  0  0
  -23.1510  -10.4400   20.1330 C   0  0  0  0  0  3  0  0  0  0  0  0
  -21.9890   -7.1850   21.3520 O   0  0  0  0  0  0  0  0  0  0  0  0
  -21.8240   -6.4930   22.5250 C   0  0  0  0  0  0  0  0  0  0  0  0
  -21.2400   -7.0890   23.6650 C   0  0  0  0  0  3  0  0  0  0  0  0
  -21.0240   -6.3210   24.8270 C   0  0  0  0  0  3  0  0  0  0  0  0
  -21.3840   -4.9590   24.8510 C   0  0  0  0  0  0  0  0  0  0  0  0
  -21.9610   -4.3650   23.7140 C   0  0  0  0  0  3  0  0  0  0  0  0
  -22.1770   -5.1290   22.5550 C   0  0  0  0  0  0  0  0  0  0  0  0
  -22.7140   -4.5440   21.4560 F   0  0  0  0  0  0  0  0  0  0  0  0
  -21.1710   -4.2220   25.9640 F   0  0  0  0  0  0  0  0  0  0  0  0
  -23.1230  -13.8180   21.0090 C   0  0  0  0  0  0  0  0  0  0  0  0
  -22.3610  -13.1490   21.8670 N   0  0  0  0  0  0  0  0  0  0  0  0
  -22.7080  -14.8290   20.4430 O   0  0  0  0  0  0  0  0  0  0  0  0
  -22.7070  -12.3340   22.3500 H   0  0  0  0  0  0  0  0  0  0  0  0
  -21.4150  -13.4590   22.0440 H   0  0  0  0  0  0  0  0  0  0  0  0
  -25.7950  -15.4620   20.2910 N   0  0  0  0  0  0  0  0  0  0  0  0
  -25.0250  -16.1190   20.3610 H   0  0  0  0  0  0  0  0  0  0  0  0
  -26.6590  -15.8960   19.9970 H   0  0  0  0  0  0  0  0  0  0  0  0
  -30.3600  -20.4000   17.3800 C   0  0  0  0  0  0  0  0  0  0  0  0
  -29.4090  -20.5010   16.4590 N   0  0  0  0  0  0  0  0  0  0  0  0
  -31.2820  -21.2110   17.4470 O   0  0  0  0  0  0  0  0  0  0  0  0
  -28.6790  -19.8040   16.4050 H   0  0  0  0  0  0  0  0  0  0  0  0
  -29.4450  -21.2350   15.7690 H   0  0  0  0  0  0  0  0  0  0  0  0
  -29.1760  -24.4410   20.3820 C   0  0  0  0  0  2  0  0  0  0  0  0
  -27.0340  -25.0680   21.6110 C   0  0  0  0  0  1  0  0  0  0  0  0
  -29.1960  -26.0480   22.4160 C   0  0  0  0  0  1  0  0  0  0  0  0
  -28.4310  -25.5820   21.1660 C   0  0  1  0  0  0  0  0  0  0  0  0
  -28.4220  -26.7630   20.3000 O   0  0  0  0  0  0  0  0  0  0  0  0
  -24.5690  -31.9860   23.2910 C   0  0  0  0  0  0  0  0  0  0  0  0
  -27.2880  -27.5550   20.2600 C   0  0  0  0  0  0  0  0  0  0  0  0
  -23.4020  -30.5740   21.6290 C   0  0  0  0  0  3  0  0  0  0  0  0
  -24.8940  -29.0620   20.2150 C   0  0  0  0  0  0  0  0  0  0  0  0
  -25.9290  -30.9550   21.4730 C   0  0  0  0  0  2  0  0  0  0  0  0
  -26.0390  -29.5850   20.8320 C   0  0  0  0  0  0  0  0  0  0  0  0
  -27.2410  -28.8390   20.8540 C   0  0  0  0  0  3  0  0  0  0  0  0
  -26.1430  -27.0750   19.5890 C   0  0  0  0  0  3  0  0  0  0  0  0
  -24.9410  -27.8050   19.5890 C   0  0  0  0  0  3  0  0  0  0  0  0
  -23.6400  -29.9060   20.2500 C   0  0  0  0  0  2  0  0  0  0  0  0
  -24.6500  -31.1870   22.1900 N   0  0  0  0  0  0  0  0  0  0  0  0
  -23.4760  -32.2450   23.8140 O   0  0  0  0  0  0  0  0  0  0  0  0
  -22.7500  -29.5410   22.5770 C   0  0  0  0  0  0  0  0  0  0  0  0
  -21.4280  -29.3480   22.4400 N   0  0  0  0  0  0  0  0  0  0  0  0
  -23.4320  -28.9160   23.3920 O   0  0  0  0  0  0  0  0  0  0  0  0
  -20.9370  -29.9070   21.7550 H   0  0  0  0  0  0  0  0  0  0  0  0
  -18.0520  -28.1630   22.9350 C   0  0  0  0  0  0  0  0  0  0  0  0
  -20.6110  -28.4020   23.2000 C   0  0  0  0  0  3  0  0  0  0  0  0
  -20.7040  -26.9810   22.5970 C   0  0  0  0  0  2  0  0  0  0  0  0
  -19.5970  -26.6820   21.5830 C   0  0  0  0  0  2  0  0  0  0  0  0
  -18.2200  -26.8240   22.2360 C   0  0  0  0  0  2  0  0  0  0  0  0
  -19.1760  -28.9120   23.3730 C   0  0  0  0  0  0  0  0  0  0  0  0
  -18.9650  -30.1670   23.9850 C   0  0  0  0  0  3  0  0  0  0  0  0
  -17.6640  -30.6710   24.1660 C   0  0  0  0  0  3  0  0  0  0  0  0
  -16.5550  -29.9180   23.7430 C   0  0  0  0  0  3  0  0  0  0  0  0
  -16.7490  -28.6670   23.1330 C   0  0  0  0  0  3  0  0  0  0  0  0
  -25.8380  -32.6290   23.9280 C   0  0  0  0  0  3  0  0  0  0  0  0
  -26.3300  -31.8780   25.2250 C   0  0  1  0  0  0  0  0  0  0  0  0
  -25.2090  -31.6320   26.2610 C   0  0  0  0  0  1  0  0  0  0  0  0
  -26.9500  -30.5070   24.8600 C   0  0  0  0  0  1  0  0  0  0  0  0
  -27.4440  -32.7000   25.9150 C   0  0  0  0  0  1  0  0  0  0  0  0
  -25.5210  -34.0320   24.2220 N   0  0  0  0  0  0  0  0  0  0  0  0
  -25.8760  -35.0700   23.4540 C   0  0  0  0  0  0  0  0  0  0  0  0
  -26.5750  -34.9500   22.4420 O   0  0  0  0  0  0  0  0  0  0  0  0
  -24.9020  -34.2020   25.0010 H   0  0  0  0  0  0  0  0  0  0  0  0
  -24.1610  -36.8570   23.0120 C   0  0  0  0  0  1  0  0  0  0  0  0
  -25.3750  -36.4660   23.8720 C   0  0  0  0  0  3  0  0  0  0  0  0
  -27.4760  -37.3690   24.7670 C   0  0  0  0  0  1  0  0  0  0  0  0
  -26.4120  -37.5180   23.7770 N   0  0  0  0  0  0  0  0  0  0  0  0
  -26.0000  -38.4400   23.8920 H   0  0  0  0  0  0  0  0  0  0  0  0
  1  2  1  0
  3  4  1  0
  3  5  1  0
  4 10  1  0
  4  1  1  0
  5  6  1  1
  5  2  1  0
  8 11  2  0
  9 10  1  0
 10  7  2  0
 11  7  1  0
 11 22  1  0
 12  9  2  0
 12  8  1  0
 13 12  1  0
 14 22  1  0
 15 20  1  0
 16 17  1  0
 16 15  1  0
 18 17  1  0
 18 27  1  0
 18 19  1  0
 20 14  1  0
 20 19  1  0
 21 14  2  0
 22 23  1  0
 24 25  2  0
 25 26  1  0
 25 44  1  0
 26 29  1  0
 27 24  1  0
 27 28  1  0
 28 26  2  0
 29 30  1  0
 30 31  2  0
 32 35  1  0
 32 31  1  0
 33 32  2  0
 34 33  1  0
 34 29  2  0
 35 36  1  0
 36 41  2  0
 36 37  1  0
 37 38  2  0
 38 39  1  0
 39 43  1  0
 40 39  2  0
 41 40  1  0
 42 41  1  0
 44 45  1  0
 45 48  1  0
 45 47  1  0
 46 44  2  0
 49 50  1  0
 49 24  1  0
 51 49  1  0
 52 54  2  0
 52  9  1  0
 53 52  1  0
 55 53  1  0
 56 53  1  0
 57  5  1  0
 57 60  1  0
 60 58  1  1
 60 59  1  0
 61 60  1  0
 62 73  2  0
 63 61  1  0
 63 68  1  0
 64 72  1  0
 64 74  1  0
 65 71  1  0
 65 67  1  0
 66 72  1  0
 67 68  2  0
 67 66  1  0
 69 70  1  0
 69 63  2  0
 70 65  2  0
 71 64  1  0
 72 62  1  0
 74 76  2  0
 75 74  1  0
 77 75  1  0
 78 87  2  0
 78 83  1  0
 79 75  1  0
 79 83  1  0
 80 79  1  0
 81 82  1  0
 81 80  1  0
 82 78  1  0
 83 84  2  0
 84 85  1  0
 86 85  2  0
 87 86  1  0
 88 62  1  0
 88 93  1  0
 88 89  1  0
 89 92  1  1
 89 90  1  0
 91 89  1  0
 93 96  1  0
 94 98  1  0
 94 93  1  0
 95 94  2  0
 98 97  1  0
100 98  1  0
100101  1  0
100 99  1  0
M  ISO  4  14 100  22 100  60 101  61 101
M  END
>  <TORSDO>  (53) 
F 20

>  <SCORE>  (53) 
-13.854

>  <name>  (53) 
52

>  <ligand_id>  (53) 
52

>  <original_smiles>  (53) 
[H]c1c([H])c([H])c2c(c1[H])C([H])([H])C([H])([H])C([H])([H])C2([H])N([H])C(=O)C1([H])N(C(=O)C([H])(N([H])C(=O)C([H])(N([H])C([H])([H])[H])C([H])([H])[H])C(C([H])([H])[H])(C([H])([H])[H])C([H])([H])[H])C([H])([H])c2c([H])c(OC(C([H])([H])[H])(C([H])([H])[H])C([H])([H])[N+]3([H])C([H])([H])C([H])([H])C([H])(c4c([H])c(N([H])C(=O)N5C([H])([H])C([H])([H])C([H])([H])C([H])(n6nc(-c7c([H])c([H])c(Oc8c([H])c([H])c(F)c([H])c8F)c([H])c7[H])c(C(=O)N([H])[H])c6N([H])[H])C5([H])[H])c([H])c(F)c4C(=O)N([H])[H])C3([H])[H])c([H])c([H])c2C1([H])[H]

>  <smiles>  (53) 
[H]c1c([H])c([H])c2c(c1[H])C([H])([H])C([H])([H])C([H])([H])C2([H])N([H])C(=O)C1([H])N(C(=O)C([H])(N([H])C(=O)C([H])(N([H])C([H])([H])[H])C([H])([H])[H])C(C([H])([H])[H])(C([H])([H])[H])C([H])([H])[H])C([H])([H])c2c([H])c(OC(C([H])([H])[H])(C([H])([H])[H])C([H])([H])[N+]3([H])C([H])([H])C([H])([H])C([H])(c4c([H])c(N([H])C(=O)N5C([H])([H])C([H])([H])C([H])([H])C([H])(n6nc(-c7c([H])c([H])c(Oc8c([H])c([H])c(F)c([H])c8F)c([H])c7[H])c(C(=O)N([H])[H])c6N([H])[H])C5([H])[H])c([H])c(F)c4C(=O)N([H])[H])C3([H])[H])c([H])c([H])c2C1([H])[H]

$$$$
53:0:0
     RDKit          3D

 88 96  0  0  1  0  0  0  0  0999 V2000
  -29.5220  -19.8000   21.2620 C   0  0  0  0  0  3  0  0  0  0  0  0
  -28.7490  -19.6170   19.1950 C   0  0  0  0  0  3  0  0  0  0  0  0
  -28.5750  -22.1680   20.2130 C   0  0  0  0  0  0  0  0  0  0  0  0
  -29.3580  -18.7320   20.2240 C   0  0  0  0  0  0  0  0  0  0  0  0
  -29.1800  -21.3010   21.2700 C   0  0  0  0  0  0  0  0  0  0  0  0
  -28.4100  -21.1070   19.1780 C   0  0  0  0  0  0  0  0  0  0  0  0
  -29.4170  -21.9270   22.4480 F   0  0  0  0  0  0  0  0  0  0  0  0
  -27.8050  -21.5250   18.0400 F   0  0  0  0  0  0  0  0  0  0  0  0
  -30.2760  -15.6990   20.1830 C   0  0  0  0  0  0  0  0  0  0  0  0
  -30.3920  -13.1690   19.3410 C   0  0  0  0  0  2  0  0  0  0  0  0
  -29.4790  -12.7830   18.1410 C   0  0  0  0  0  2  0  0  0  0  0  0
  -28.0610  -12.4250   18.6140 C   0  0  0  0  0  2  0  0  0  0  0  0
  -27.5660  -13.4090   19.6990 C   0  0  0  0  0  3  0  0  0  0  0  0
  -28.6150  -13.7010   20.7970 C   0  0  0  0  0  2  0  0  0  0  0  0
  -29.7770  -14.3290   20.1260 N   0  0  0  0  0  0  0  0  0  0  0  0
  -31.5050  -15.6780   19.9840 O   0  0  0  0  0  0  0  0  0  0  0  0
  -29.4450  -17.0090   20.2690 N   0  0  0  0  0  0  0  0  0  0  0  0
  -28.4970  -16.6660   20.3290 H   0  0  0  0  0  0  0  0  0  0  0  0
  -25.2100  -13.9100   20.5070 C   0  0  0  0  0  0  0  0  0  0  0  0
  -24.1660  -13.1160   20.8860 C   0  0  0  0  0  0  0  0  0  0  0  0
  -24.6520  -11.7730   20.8340 C   0  0  0  0  0  0  0  0  0  0  0  0
  -26.2600  -13.0540   20.2360 N   0  0  0  0  0  0  0  0  0  0  0  0
  -25.9390  -11.7590   20.5020 N   0  0  0  0  0  0  0  0  0  0  0  0
  -23.9410  -10.5000   21.0230 C   0  0  0  0  0  0  0  0  0  0  0  0
  -24.3860   -9.5330   21.9510 C   0  0  0  0  0  3  0  0  0  0  0  0
  -23.6710   -8.3300   22.1300 C   0  0  0  0  0  3  0  0  0  0  0  0
  -22.4950   -8.0840   21.3820 C   0  0  0  0  0  0  0  0  0  0  0  0
  -22.0690   -9.0390   20.4430 C   0  0  0  0  0  3  0  0  0  0  0  0
  -22.7840  -10.2340   20.2620 C   0  0  0  0  0  3  0  0  0  0  0  0
  -21.7510   -6.9320   21.4710 O   0  0  0  0  0  0  0  0  0  0  0  0
  -21.7030   -6.1930   22.6270 C   0  0  0  0  0  0  0  0  0  0  0  0
  -21.2480   -6.7450   23.8440 C   0  0  0  0  0  3  0  0  0  0  0  0
  -21.1480   -5.9320   24.9910 C   0  0  0  0  0  3  0  0  0  0  0  0
  -21.4930   -4.5690   24.9210 C   0  0  0  0  0  0  0  0  0  0  0  0
  -21.9410   -4.0170   23.7080 C   0  0  0  0  0  3  0  0  0  0  0  0
  -22.0410   -4.8270   22.5630 C   0  0  0  0  0  0  0  0  0  0  0  0
  -22.4530   -4.2850   21.3920 F   0  0  0  0  0  0  0  0  0  0  0  0
  -21.3910   -3.7860   26.0210 F   0  0  0  0  0  0  0  0  0  0  0  0
  -22.7670  -13.5750   21.1740 C   0  0  0  0  0  0  0  0  0  0  0  0
  -22.0600  -12.8700   22.0490 N   0  0  0  0  0  0  0  0  0  0  0  0
  -22.3110  -14.5940   20.6580 O   0  0  0  0  0  0  0  0  0  0  0  0
  -22.4440  -12.0460   22.4880 H   0  0  0  0  0  0  0  0  0  0  0  0
  -21.1210  -13.1600   22.2860 H   0  0  0  0  0  0  0  0  0  0  0  0
  -25.3480  -15.2850   20.3360 N   0  0  0  0  0  0  0  0  0  0  0  0
  -24.5650  -15.9200   20.4540 H   0  0  0  0  0  0  0  0  0  0  0  0
  -26.1630  -15.7350   19.9430 H   0  0  0  0  0  0  0  0  0  0  0  0
  -27.8100  -23.8770   20.1980 C   0  0  0  0  0  2  0  0  0  0  0  0
  -28.1300  -25.5920   20.3290 O   0  0  0  0  0  0  0  0  0  0  0  0
  -24.6750  -31.9040   23.2480 C   0  0  0  0  0  0  0  0  0  0  0  0
  -27.1720  -26.8130   20.2750 C   0  0  0  0  0  0  0  0  0  0  0  0
  -23.4740  -30.5020   21.6250 C   0  0  0  0  0  3  0  0  0  0  0  0
  -24.9090  -28.8430   20.2170 C   0  0  0  0  0  0  0  0  0  0  0  0
  -26.0530  -30.6380   21.4890 C   0  0  0  0  0  2  0  0  0  0  0  0
  -26.1090  -29.2020   20.8410 C   0  0  0  0  0  0  0  0  0  0  0  0
  -27.2260  -28.2150   20.8380 C   0  0  0  0  0  3  0  0  0  0  0  0
  -25.9380  -26.6610   19.5940 C   0  0  0  0  0  3  0  0  0  0  0  0
  -24.8600  -27.5970   19.5680 C   0  0  0  0  0  3  0  0  0  0  0  0
  -23.7040  -29.7960   20.2580 C   0  0  0  0  0  2  0  0  0  0  0  0
  -24.7580  -31.0480   22.1730 N   0  0  0  0  0  0  0  0  0  0  0  0
  -23.5860  -32.2120   23.7610 O   0  0  0  0  0  0  0  0  0  0  0  0
  -22.7590  -29.5320   22.6050 C   0  0  0  0  0  0  0  0  0  0  0  0
  -21.4270  -29.3720   22.4780 N   0  0  0  0  0  0  0  0  0  0  0  0
  -23.4140  -28.9210   23.4520 O   0  0  0  0  0  0  0  0  0  0  0  0
  -20.9470  -29.9150   21.7740 H   0  0  0  0  0  0  0  0  0  0  0  0
  -18.0440  -28.1450   22.9860 C   0  0  0  0  0  0  0  0  0  0  0  0
  -20.6000  -28.4430   23.2600 C   0  0  0  0  0  3  0  0  0  0  0  0
  -20.7190  -27.0010   22.7130 C   0  0  0  0  0  2  0  0  0  0  0  0
  -19.6270  -26.6510   21.6970 C   0  0  0  0  0  2  0  0  0  0  0  0
  -18.2390  -26.7900   22.3280 C   0  0  0  0  0  2  0  0  0  0  0  0
  -19.1520  -28.9290   23.4090 C   0  0  0  0  0  0  0  0  0  0  0  0
  -18.9120  -30.1930   23.9890 C   0  0  0  0  0  3  0  0  0  0  0  0
  -17.5990  -30.6760   24.1460 C   0  0  0  0  0  3  0  0  0  0  0  0
  -16.5070  -29.8930   23.7360 C   0  0  0  0  0  3  0  0  0  0  0  0
  -16.7310  -28.6290   23.1630 C   0  0  0  0  0  3  0  0  0  0  0  0
  -25.9450  -32.5530   23.8780 C   0  0  0  0  0  3  0  0  0  0  0  0
  -25.6280  -33.9560   24.2090 N   0  0  0  0  0  0  0  0  0  0  0  0
  -25.9380  -35.0180   23.4520 C   0  0  0  0  0  0  0  0  0  0  0  0
  -26.5770  -34.9190   22.4030 O   0  0  0  0  0  0  0  0  0  0  0  0
  -25.0530  -34.1050   25.0260 H   0  0  0  0  0  0  0  0  0  0  0  0
  -24.1870  -36.8110   23.1840 C   0  0  0  0  0  1  0  0  0  0  0  0
  -25.4680  -36.4080   23.9330 C   0  0  0  0  0  3  0  0  0  0  0  0
  -27.6320  -37.3150   24.6610 C   0  0  0  0  0  1  0  0  0  0  0  0
  -26.4880  -37.4680   23.7670 N   0  0  0  0  0  0  0  0  0  0  0  0
  -26.0830  -38.3860   23.9250 H   0  0  0  0  0  0  0  0  0  0  0  0
  -26.4450  -31.7980   25.1720 C   0  0  1  0  0  0  0  0  0  0  0  0
  -25.3430  -31.5840   26.2370 C   0  0  0  0  0  1  0  0  0  0  0  0
  -27.0240  -30.4100   24.8170 C   0  0  0  0  0  1  0  0  0  0  0  0
  -27.5960  -32.5950   25.8310 C   0  0  0  0  0  1  0  0  0  0  0  0
  1  5  1  0
  2  4  1  0
  3  5  2  0
  4 17  1  0
  4  1  2  0
  5  7  1  0
  6  2  2  0
  6  3  1  0
  8  6  1  0
  9 17  1  0
 10 15  1  0
 11 12  1  0
 11 10  1  0
 13 12  1  0
 13 22  1  0
 13 14  1  0
 15  9  1  0
 15 14  1  0
 16  9  2  0
 17 18  1  0
 19 20  2  0
 20 39  1  0
 21 20  1  0
 21 24  1  0
 22 23  1  0
 22 19  1  0
 23 21  2  0
 24 25  1  0
 25 26  2  0
 27 30  1  0
 27 26  1  0
 28 27  2  0
 29 28  1  0
 29 24  2  0
 30 31  1  0
 31 32  1  0
 32 33  2  0
 34 33  1  0
 34 38  1  0
 35 34  2  0
 36 31  2  0
 36 35  1  0
 37 36  1  0
 39 40  1  0
 40 43  1  0
 40 42  1  0
 41 39  2  0
 44 45  1  0
 44 19  1  0
 46 44  1  0
 47  3  1  0
 47 48  1  0
 49 60  2  0
 50 48  1  0
 50 55  1  0
 51 59  1  0
 51 61  1  0
 52 58  1  0
 52 54  1  0
 53 59  1  0
 54 53  1  0
 55 54  2  0
 56 50  2  0
 57 56  1  0
 57 52  2  0
 58 51  1  0
 59 49  1  0
 61 63  2  0
 62 61  1  0
 64 62  1  0
 65 74  2  0
 65 70  1  0
 66 62  1  0
 66 70  1  0
 67 66  1  0
 68 69  1  0
 68 67  1  0
 69 65  1  0
 70 71  2  0
 71 72  1  0
 73 72  2  0
 74 73  1  0
 75 49  1  0
 75 76  1  0
 75 85  1  0
 76 79  1  0
 77 81  1  0
 77 76  1  0
 78 77  2  0
 81 80  1  0
 83 84  1  0
 83 81  1  0
 83 82  1  0
 85 88  1  1
 85 86  1  0
 87 85  1  0
M  ISO  4   9 100  17 100  47 101  48 101
M  END
>  <TORSDO>  (54) 
F 17

>  <SCORE>  (54) 
-16.676

>  <name>  (54) 
53

>  <ligand_id>  (54) 
53

>  <original_smiles>  (54) 
[H]c1c([H])c([H])c2c(c1[H])C([H])([H])C([H])([H])C([H])([H])C2([H])N([H])C(=O)C1([H])N(C(=O)C([H])(N([H])C(=O)C([H])(N([H])C([H])([H])[H])C([H])([H])[H])C(C([H])([H])[H])(C([H])([H])[H])C([H])([H])[H])C([H])([H])c2c([H])c(OC([H])([H])c3c(F)c([H])c(N([H])C(=O)N4C([H])([H])C([H])([H])C([H])([H])C([H])(n5nc(-c6c([H])c([H])c(Oc7c([H])c([H])c(F)c([H])c7F)c([H])c6[H])c(C(=O)N([H])[H])c5N([H])[H])C4([H])[H])c([H])c3F)c([H])c([H])c2C1([H])[H]

>  <smiles>  (54) 
[H]c1c([H])c([H])c2c(c1[H])C([H])([H])C([H])([H])C([H])([H])C2([H])N([H])C(=O)C1([H])N(C(=O)C([H])(N([H])C(=O)C([H])(N([H])C([H])([H])[H])C([H])([H])[H])C(C([H])([H])[H])(C([H])([H])[H])C([H])([H])[H])C([H])([H])c2c([H])c(OC([H])([H])c3c(F)c([H])c(N([H])C(=O)N4C([H])([H])C([H])([H])C([H])([H])C([H])(n5nc(-c6c([H])c([H])c(Oc7c([H])c([H])c(F)c([H])c7F)c([H])c6[H])c(C(=O)N([H])[H])c5N([H])[H])C4([H])[H])c([H])c3F)c([H])c([H])c2C1([H])[H]

$$$$
54:0:0
     RDKit          3D

 98107  0  0  1  0  0  0  0  0999 V2000
  -29.8160  -20.1520   18.2970 C   0  0  0  0  0  2  0  0  0  0  0  0
  -30.2550  -21.3120   17.4110 C   0  0  0  0  0  2  0  0  0  0  0  0
  -31.1430  -19.7130   18.9150 C   0  0  0  0  0  3  0  0  0  0  0  0
  -31.3890  -21.9880   18.2100 C   0  0  0  0  0  3  0  0  0  0  0  0
  -33.3850  -20.7840   19.1330 C   0  0  0  0  0  1  0  0  0  0  0  0
  -31.9150  -20.9550   19.1360 N   0  0  2  0  0  4  0  0  0  0  0  0
  -31.6510  -21.3370   20.0370 H   0  0  0  0  0  0  0  0  0  0  0  0
  -30.4010  -18.6170   22.5250 C   0  0  0  0  0  3  0  0  0  0  0  0
  -30.6070  -19.4380   21.4000 C   0  0  0  0  0  3  0  0  0  0  0  0
  -30.5500  -17.2210   22.4200 C   0  0  0  0  0  3  0  0  0  0  0  0
  -31.1390  -17.4610   20.0700 C   0  0  0  0  0  3  0  0  0  0  0  0
  -30.9750  -18.8600   20.1650 C   0  0  0  0  0  0  0  0  0  0  0  0
  -30.9120  -16.6280   21.1910 C   0  0  0  0  0  0  0  0  0  0  0  0
  -31.3890  -14.4210   20.1360 C   0  0  0  0  0  0  0  0  0  0  0  0
  -30.8820  -12.4150   18.7910 C   0  0  0  0  0  2  0  0  0  0  0  0
  -29.9040  -12.7750   17.6530 C   0  0  0  0  0  2  0  0  0  0  0  0
  -28.4440  -12.7020   18.1400 C   0  0  0  0  0  2  0  0  0  0  0  0
  -28.2230  -13.4770   19.4660 C   0  0  0  0  0  3  0  0  0  0  0  0
  -29.2910  -13.0750   20.5060 C   0  0  0  0  0  2  0  0  0  0  0  0
  -30.6270  -13.3160   19.9240 N   0  0  0  0  0  0  0  0  0  0  0  0
  -32.4160  -14.6650   19.4930 O   0  0  0  0  0  0  0  0  0  0  0  0
  -30.9540  -15.2070   21.1350 N   0  0  0  0  0  0  0  0  0  0  0  0
  -30.3020  -14.7440   21.7490 H   0  0  0  0  0  0  0  0  0  0  0  0
  -25.8830  -14.2130   20.2590 C   0  0  0  0  0  0  0  0  0  0  0  0
  -24.7860  -13.4960   20.6570 C   0  0  0  0  0  0  0  0  0  0  0  0
  -25.1690  -12.1220   20.5930 C   0  0  0  0  0  0  0  0  0  0  0  0
  -26.8690  -13.2780   19.9820 N   0  0  0  0  0  0  0  0  0  0  0  0
  -26.4420  -12.0140   20.2380 N   0  0  0  0  0  0  0  0  0  0  0  0
  -24.3820  -10.8980   20.7950 C   0  0  0  0  0  0  0  0  0  0  0  0
  -24.7580   -9.9270   21.7480 C   0  0  0  0  0  3  0  0  0  0  0  0
  -23.9760   -8.7680   21.9360 C   0  0  0  0  0  3  0  0  0  0  0  0
  -22.8040   -8.5700   21.1680 C   0  0  0  0  0  0  0  0  0  0  0  0
  -22.4450   -9.5290   20.2050 C   0  0  0  0  0  3  0  0  0  0  0  0
  -23.2280  -10.6810   20.0160 C   0  0  0  0  0  3  0  0  0  0  0  0
  -21.9960   -7.4630   21.2640 O   0  0  0  0  0  0  0  0  0  0  0  0
  -21.8410   -6.7850   22.4460 C   0  0  0  0  0  0  0  0  0  0  0  0
  -21.3750   -7.4240   23.6160 C   0  0  0  0  0  3  0  0  0  0  0  0
  -21.1640   -6.6750   24.7900 C   0  0  0  0  0  3  0  0  0  0  0  0
  -21.4080   -5.2890   24.7960 C   0  0  0  0  0  0  0  0  0  0  0  0
  -21.8660   -4.6490   23.6300 C   0  0  0  0  0  3  0  0  0  0  0  0
  -22.0790   -5.3960   22.4580 C   0  0  0  0  0  0  0  0  0  0  0  0
  -22.5000   -4.7720   21.3320 F   0  0  0  0  0  0  0  0  0  0  0  0
  -21.1980   -4.5680   25.9210 F   0  0  0  0  0  0  0  0  0  0  0  0
  -23.4290  -14.0450   20.9880 C   0  0  0  0  0  0  0  0  0  0  0  0
  -22.7080  -13.3930   21.8950 N   0  0  0  0  0  0  0  0  0  0  0  0
  -23.0180  -15.0870   20.4790 O   0  0  0  0  0  0  0  0  0  0  0  0
  -23.0530  -12.5500   22.3280 H   0  0  0  0  0  0  0  0  0  0  0  0
  -21.7980  -13.7440   22.1600 H   0  0  0  0  0  0  0  0  0  0  0  0
  -26.1200  -15.5750   20.0950 N   0  0  0  0  0  0  0  0  0  0  0  0
  -25.4020  -16.2740   20.2510 H   0  0  0  0  0  0  0  0  0  0  0  0
  -26.9930  -15.9690   19.7680 H   0  0  0  0  0  0  0  0  0  0  0  0
  -30.8700  -23.1670   19.0400 C   0  0  0  0  0  0  0  0  0  0  0  0
  -30.5360  -24.2840   18.3840 N   0  0  0  0  0  0  0  0  0  0  0  0
  -30.7760  -23.0570   20.2670 O   0  0  0  0  0  0  0  0  0  0  0  0
  -30.6270  -24.2920   17.3760 H   0  0  0  0  0  0  0  0  0  0  0  0
  -30.1150  -25.5260   19.0200 C   0  0  0  0  0  2  0  0  0  0  0  0
  -28.5940  -25.6170   19.2220 C   0  0  0  0  0  2  0  0  0  0  0  0
  -28.4020  -26.8270   19.9350 O   0  0  0  0  0  0  0  0  0  0  0  0
  -24.6160  -31.8440   23.1500 C   0  0  0  0  0  0  0  0  0  0  0  0
  -27.1800  -27.4520   19.9560 C   0  0  0  0  0  0  0  0  0  0  0  0
  -23.3580  -30.4550   21.5310 C   0  0  0  0  0  3  0  0  0  0  0  0
  -24.7680  -28.9160   20.0590 C   0  0  0  0  0  0  0  0  0  0  0  0
  -25.8700  -30.8190   21.2580 C   0  0  0  0  0  2  0  0  0  0  0  0
  -25.9340  -29.4510   20.6180 C   0  0  0  0  0  0  0  0  0  0  0  0
  -27.1350  -28.7170   20.5740 C   0  0  0  0  0  3  0  0  0  0  0  0
  -25.9930  -26.9120   19.4070 C   0  0  0  0  0  3  0  0  0  0  0  0
  -24.7890  -27.6440   19.4570 C   0  0  0  0  0  3  0  0  0  0  0  0
  -23.5230  -29.7710   20.1450 C   0  0  0  0  0  2  0  0  0  0  0  0
  -24.6350  -31.0520   22.0400 N   0  0  0  0  0  0  0  0  0  0  0  0
  -23.5510  -32.1140   23.7240 O   0  0  0  0  0  0  0  0  0  0  0  0
  -22.7340  -29.4310   22.5050 C   0  0  0  0  0  0  0  0  0  0  0  0
  -21.4170  -29.2140   22.3730 N   0  0  0  0  0  0  0  0  0  0  0  0
  -23.4330  -28.8340   23.3280 O   0  0  0  0  0  0  0  0  0  0  0  0
  -20.9170  -29.7490   21.6770 H   0  0  0  0  0  0  0  0  0  0  0  0
  -18.0840  -27.8940   22.8130 C   0  0  0  0  0  0  0  0  0  0  0  0
  -20.6200  -28.2640   23.1480 C   0  0  0  0  0  3  0  0  0  0  0  0
  -20.7990  -26.8240   22.6150 C   0  0  0  0  0  2  0  0  0  0  0  0
  -19.7400  -26.4260   21.5830 C   0  0  0  0  0  2  0  0  0  0  0  0
  -18.3360  -26.5330   22.1850 C   0  0  0  0  0  2  0  0  0  0  0  0
  -19.1590  -28.7130   23.2510 C   0  0  0  0  0  0  0  0  0  0  0  0
  -18.8720  -29.9860   23.7940 C   0  0  0  0  0  3  0  0  0  0  0  0
  -17.5450  -30.4370   23.9070 C   0  0  0  0  0  3  0  0  0  0  0  0
  -16.4840  -29.6150   23.4890 C   0  0  0  0  0  3  0  0  0  0  0  0
  -16.7540  -28.3460   22.9470 C   0  0  0  0  0  3  0  0  0  0  0  0
  -25.9230  -32.4650   23.7360 C   0  0  0  0  0  3  0  0  0  0  0  0
  -26.5020  -31.6530   24.9590 C   0  0  1  0  0  0  0  0  0  0  0  0
  -25.4560  -31.3580   26.0600 C   0  0  0  0  0  1  0  0  0  0  0  0
  -27.0830  -30.3020   24.4830 C   0  0  0  0  0  1  0  0  0  0  0  0
  -27.6690  -32.4360   25.6060 C   0  0  0  0  0  1  0  0  0  0  0  0
  -25.6200  -33.8480   24.1270 N   0  0  0  0  0  0  0  0  0  0  0  0
  -25.9120  -34.9270   23.3890 C   0  0  0  0  0  0  0  0  0  0  0  0
  -26.5350  -34.8640   22.3260 O   0  0  0  0  0  0  0  0  0  0  0  0
  -25.0640  -33.9730   24.9610 H   0  0  0  0  0  0  0  0  0  0  0  0
  -24.1550  -36.7090   23.1710 C   0  0  0  0  0  1  0  0  0  0  0  0
  -25.4350  -36.2950   23.9120 C   0  0  0  0  0  3  0  0  0  0  0  0
  -27.5980  -37.1740   24.6740 C   0  0  0  0  0  1  0  0  0  0  0  0
  -26.4530  -37.3610   23.7860 N   0  0  0  0  0  0  0  0  0  0  0  0
  -26.0460  -38.2710   23.9860 H   0  0  0  0  0  0  0  0  0  0  0  0
  1  3  1  0
  2  4  1  0
  2  1  1  0
  3  6  1  0
  3 12  1  0
  4 52  1  0
  4  6  1  0
  5  6  1  0
  6  7  1  1
  9  8  2  0
 10  8  1  0
 11 12  2  0
 11 13  1  0
 12  9  1  0
 13 10  2  0
 14 22  1  0
 15 20  1  0
 16 17  1  0
 16 15  1  0
 18 17  1  0
 18 27  1  0
 18 19  1  0
 20 14  1  0
 20 19  1  0
 21 14  2  0
 22 13  1  0
 22 23  1  0
 24 25  2  0
 25 44  1  0
 26 25  1  0
 26 29  1  0
 27 28  1  0
 27 24  1  0
 28 26  2  0
 29 30  1  0
 30 31  2  0
 32 35  1  0
 32 31  1  0
 33 32  2  0
 34 33  1  0
 34 29  2  0
 35 36  1  0
 36 41  2  0
 36 37  1  0
 37 38  2  0
 38 39  1  0
 39 43  1  0
 40 39  2  0
 41 40  1  0
 42 41  1  0
 44 45  1  0
 45 48  1  0
 45 47  1  0
 46 44  2  0
 49 50  1  0
 49 24  1  0
 51 49  1  0
 52 54  2  0
 53 56  1  0
 53 52  1  0
 55 53  1  0
 56 57  1  0
 57 58  1  0
 58 60  1  0
 59 70  2  0
 60 65  1  0
 61 69  1  0
 61 71  1  0
 62 68  1  0
 62 64  1  0
 63 69  1  0
 64 63  1  0
 65 64  2  0
 66 67  1  0
 66 60  2  0
 67 62  2  0
 68 61  1  0
 69 59  1  0
 71 73  2  0
 72 71  1  0
 74 72  1  0
 75 84  2  0
 75 80  1  0
 76 72  1  0
 76 80  1  0
 77 76  1  0
 78 79  1  0
 78 77  1  0
 79 75  1  0
 80 81  2  0
 81 82  1  0
 83 82  2  0
 84 83  1  0
 85 59  1  0
 85 90  1  0
 85 86  1  0
 86 89  1  1
 86 87  1  0
 88 86  1  0
 90 93  1  0
 91 95  1  0
 91 90  1  0
 92 91  2  0
 95 94  1  0
 97 95  1  0
 97 98  1  0
 97 96  1  0
M  ISO  4  14 100  22 100  57 101  58 101
M  END
>  <TORSDO>  (55) 
F 20

>  <SCORE>  (55) 
-12.804

>  <name>  (55) 
54

>  <ligand_id>  (55) 
54

>  <original_smiles>  (55) 
[H]c1c([H])c([H])c2c(c1[H])C([H])([H])C([H])([H])C([H])([H])C2([H])N([H])C(=O)C1([H])N(C(=O)C([H])(N([H])C(=O)C([H])(N([H])C([H])([H])[H])C([H])([H])[H])C(C([H])([H])[H])(C([H])([H])[H])C([H])([H])[H])C([H])([H])c2c([H])c(OC([H])([H])C([H])([H])N([H])C(=O)C3([H])C([H])([H])C([H])([H])C([H])(c4c([H])c([H])c([H])c(N([H])C(=O)N5C([H])([H])C([H])([H])C([H])([H])C([H])(n6nc(-c7c([H])c([H])c(Oc8c([H])c([H])c(F)c([H])c8F)c([H])c7[H])c(C(=O)N([H])[H])c6N([H])[H])C5([H])[H])c4[H])[N+]3([H])C([H])([H])[H])c([H])c([H])c2C1([H])[H]

>  <smiles>  (55) 
[H]c1c([H])c([H])c2c(c1[H])C([H])([H])C([H])([H])C([H])([H])C2([H])N([H])C(=O)C1([H])N(C(=O)C([H])(N([H])C(=O)C([H])(N([H])C([H])([H])[H])C([H])([H])[H])C(C([H])([H])[H])(C([H])([H])[H])C([H])([H])[H])C([H])([H])c2c([H])c(OC([H])([H])C([H])([H])N([H])C(=O)C3([H])C([H])([H])C([H])([H])C([H])(c4c([H])c([H])c([H])c(N([H])C(=O)N5C([H])([H])C([H])([H])C([H])([H])C([H])(n6nc(-c7c([H])c([H])c(Oc8c([H])c([H])c(F)c([H])c8F)c([H])c7[H])c(C(=O)N([H])[H])c6N([H])[H])C5([H])[H])c4[H])[N+]3([H])C([H])([H])[H])c([H])c([H])c2C1([H])[H]

$$$$
55:0:0
     RDKit          3D

103111  0  0  1  0  0  0  0  0999 V2000
  -25.6100  -18.0410   19.2800 C   0  0  0  0  0  1  0  0  0  0  0  0
  -27.0020  -18.3290   19.6600 N   0  0  0  0  0  0  0  0  0  0  0  0
  -27.8860  -17.5360   18.7680 C   0  0  0  0  0  2  0  0  0  0  0  0
  -31.5490  -17.4190   20.0330 C   0  0  0  0  0  3  0  0  0  0  0  0
  -32.1090  -18.5120   19.3560 C   0  0  0  0  0  3  0  0  0  0  0  0
  -30.0290  -18.8140   18.1230 C   0  0  0  0  0  0  0  0  0  0  0  0
  -29.4150  -17.7630   18.8940 C   0  0  0  0  0  0  0  0  0  0  0  0
  -30.2520  -16.9390   19.7260 C   0  0  0  0  0  0  0  0  0  0  0  0
  -31.3840  -19.1570   18.3500 C   0  0  0  0  0  0  0  0  0  0  0  0
  -32.0110  -20.1060   17.6030 F   0  0  0  0  0  0  0  0  0  0  0  0
  -30.6650  -14.4990   20.1460 C   0  0  0  0  0  0  0  0  0  0  0  0
  -30.3650  -12.2900   19.1280 C   0  0  0  0  0  2  0  0  0  0  0  0
  -29.4040  -12.4950   17.9420 C   0  0  0  0  0  2  0  0  0  0  0  0
  -27.9290  -12.4210   18.3900 C   0  0  0  0  0  2  0  0  0  0  0  0
  -27.6270  -13.2270   19.6830 C   0  0  0  0  0  3  0  0  0  0  0  0
  -28.7140  -13.0280   20.7550 C   0  0  0  0  0  2  0  0  0  0  0  0
  -30.0100  -13.3120   20.1310 N   0  0  0  0  0  0  0  0  0  0  0  0
  -31.8570  -14.5580   19.8280 O   0  0  0  0  0  0  0  0  0  0  0  0
  -29.8920  -15.6230   20.2370 N   0  0  0  0  0  0  0  0  0  0  0  0
  -28.9200  -15.4530   20.4490 H   0  0  0  0  0  0  0  0  0  0  0  0
  -25.2700  -13.8290   20.5020 C   0  0  0  0  0  0  0  0  0  0  0  0
  -24.1990  -13.0680   20.8680 C   0  0  0  0  0  0  0  0  0  0  0  0
  -24.6460  -11.7130   20.8140 C   0  0  0  0  0  0  0  0  0  0  0  0
  -26.2960  -12.9480   20.2130 N   0  0  0  0  0  0  0  0  0  0  0  0
  -25.9270  -11.6640   20.4610 N   0  0  0  0  0  0  0  0  0  0  0  0
  -23.9090  -10.4660   21.0120 C   0  0  0  0  0  0  0  0  0  0  0  0
  -24.3500   -9.4930   21.9320 C   0  0  0  0  0  3  0  0  0  0  0  0
  -23.6120   -8.3070   22.1260 C   0  0  0  0  0  3  0  0  0  0  0  0
  -22.4180   -8.0880   21.3970 C   0  0  0  0  0  0  0  0  0  0  0  0
  -21.9890   -9.0570   20.4690 C   0  0  0  0  0  3  0  0  0  0  0  0
  -22.7300  -10.2340   20.2760 C   0  0  0  0  0  3  0  0  0  0  0  0
  -21.6490   -6.9530   21.5030 O   0  0  0  0  0  0  0  0  0  0  0  0
  -21.6230   -6.2110   22.6570 C   0  0  0  0  0  0  0  0  0  0  0  0
  -21.2280   -6.7670   23.8950 C   0  0  0  0  0  3  0  0  0  0  0  0
  -21.1420   -5.9480   25.0380 C   0  0  0  0  0  3  0  0  0  0  0  0
  -21.4450   -4.5770   24.9470 C   0  0  0  0  0  0  0  0  0  0  0  0
  -21.8390   -4.0220   23.7170 C   0  0  0  0  0  3  0  0  0  0  0  0
  -21.9240   -4.8360   22.5740 C   0  0  0  0  0  0  0  0  0  0  0  0
  -22.2780   -4.2910   21.3850 F   0  0  0  0  0  0  0  0  0  0  0  0
  -21.3600   -3.7910   26.0450 F   0  0  0  0  0  0  0  0  0  0  0  0
  -22.8170  -13.5660   21.1790 C   0  0  0  0  0  0  0  0  0  0  0  0
  -22.0970  -12.8920   22.0680 N   0  0  0  0  0  0  0  0  0  0  0  0
  -22.3930  -14.6070   20.6750 O   0  0  0  0  0  0  0  0  0  0  0  0
  -22.4580  -12.0590   22.5080 H   0  0  0  0  0  0  0  0  0  0  0  0
  -21.1760  -13.2220   22.3180 H   0  0  0  0  0  0  0  0  0  0  0  0
  -25.4510  -15.1940   20.3920 N   0  0  0  0  0  0  0  0  0  0  0  0
  -24.6730  -15.8290   20.5300 H   0  0  0  0  0  0  0  0  0  0  0  0
  -26.3200  -15.6600   20.1730 H   0  0  0  0  0  0  0  0  0  0  0  0
  -29.3090  -19.5410   17.0110 C   0  0  0  0  0  0  0  0  0  0  0  0
  -29.3840  -20.8660   17.0220 N   0  0  0  0  0  0  0  0  0  0  0  0
  -28.6650  -18.9530   16.1450 O   0  0  0  0  0  0  0  0  0  0  0  0
  -30.0460  -21.3090   17.6400 H   0  0  0  0  0  0  0  0  0  0  0  0
  -28.9350  -21.3930   16.2900 H   0  0  0  0  0  0  0  0  0  0  0  0
  -27.0670  -19.8100   19.6050 C   0  0  0  0  0  2  0  0  0  0  0  0
  -28.0550  -20.5230   20.5690 C   0  0  0  0  0  2  0  0  0  0  0  0
  -27.8550  -22.0040   20.5840 N   0  0  0  0  0  4  0  0  0  0  0  0
  -26.9050  -22.2130   20.8590 H   0  0  0  0  0  0  0  0  0  0  0  0
  -27.9760  -22.3150   19.6360 H   0  0  0  0  0  0  0  0  0  0  0  0
  -28.7880  -22.7840   21.4450 C   0  0  0  0  0  2  0  0  0  0  0  0
  -29.1740  -24.1940   20.8700 C   0  0  0  0  0  3  0  0  0  0  0  0
  -30.4600  -24.3880   21.1610 F   0  0  0  0  0  0  0  0  0  0  0  0
  -28.4060  -25.4430   21.3960 C   0  0  0  0  0  2  0  0  0  0  0  0
  -28.5240  -26.5820   20.5060 O   0  0  0  0  0  0  0  0  0  0  0  0
  -24.5940  -31.8190   23.2640 C   0  0  0  0  0  0  0  0  0  0  0  0
  -27.3850  -27.3520   20.4010 C   0  0  0  0  0  0  0  0  0  0  0  0
  -23.4580  -30.3900   21.5910 C   0  0  0  0  0  3  0  0  0  0  0  0
  -24.9860  -28.8520   20.2410 C   0  0  0  0  0  0  0  0  0  0  0  0
  -25.9860  -30.7740   21.4800 C   0  0  0  0  0  2  0  0  0  0  0  0
  -26.1140  -29.3900   20.8740 C   0  0  0  0  0  0  0  0  0  0  0  0
  -27.3180  -28.6530   20.9460 C   0  0  0  0  0  3  0  0  0  0  0  0
  -26.2470  -26.8300   19.7470 C   0  0  0  0  0  3  0  0  0  0  0  0
  -25.0560  -27.5750   19.6630 C   0  0  0  0  0  3  0  0  0  0  0  0
  -23.7330  -29.7010   20.2280 C   0  0  0  0  0  2  0  0  0  0  0  0
  -24.6950  -31.0080   22.1760 N   0  0  0  0  0  0  0  0  0  0  0  0
  -23.4910  -32.0940   23.7560 O   0  0  0  0  0  0  0  0  0  0  0  0
  -22.7700  -29.3770   22.5410 C   0  0  0  0  0  0  0  0  0  0  0  0
  -21.4440  -29.2010   22.3760 N   0  0  0  0  0  0  0  0  0  0  0  0
  -23.4220  -28.7490   23.3750 O   0  0  0  0  0  0  0  0  0  0  0  0
  -20.9810  -29.7360   21.6530 H   0  0  0  0  0  0  0  0  0  0  0  0
  -18.0270  -28.1280   22.8080 C   0  0  0  0  0  0  0  0  0  0  0  0
  -20.5910  -28.2780   23.1280 C   0  0  0  0  0  3  0  0  0  0  0  0
  -20.6460  -26.8540   22.5240 C   0  0  0  0  0  2  0  0  0  0  0  0
  -19.5410  -26.5800   21.4920 C   0  0  0  0  0  2  0  0  0  0  0  0
  -18.1520  -26.7890   22.1010 C   0  0  0  0  0  2  0  0  0  0  0  0
  -19.1690  -28.8330   23.2700 C   0  0  0  0  0  0  0  0  0  0  0  0
  -18.9910  -30.0900   23.8830 C   0  0  0  0  0  3  0  0  0  0  0  0
  -17.7050  -30.6430   24.0400 C   0  0  0  0  0  3  0  0  0  0  0  0
  -16.5770  -29.9350   23.5920 C   0  0  0  0  0  3  0  0  0  0  0  0
  -16.7380  -28.6740   22.9900 C   0  0  0  0  0  3  0  0  0  0  0  0
  -25.8570  -32.4600   23.9260 C   0  0  0  0  0  3  0  0  0  0  0  0
  -26.3190  -31.7070   25.2330 C   0  0  1  0  0  0  0  0  0  0  0  0
  -25.1760  -31.4790   26.2520 C   0  0  0  0  0  1  0  0  0  0  0  0
  -26.9240  -30.3280   24.8770 C   0  0  0  0  0  1  0  0  0  0  0  0
  -27.4330  -32.5160   25.9390 C   0  0  0  0  0  1  0  0  0  0  0  0
  -25.5390  -33.8630   24.2220 N   0  0  0  0  0  0  0  0  0  0  0  0
  -25.9030  -34.9010   23.4570 C   0  0  0  0  0  0  0  0  0  0  0  0
  -26.6060  -34.7790   22.4520 O   0  0  0  0  0  0  0  0  0  0  0  0
  -24.9150  -34.0290   24.9970 H   0  0  0  0  0  0  0  0  0  0  0  0
  -24.1870  -36.6890   23.0050 C   0  0  0  0  0  1  0  0  0  0  0  0
  -25.3960  -36.2980   23.8700 C   0  0  0  0  0  3  0  0  0  0  0  0
  -27.4970  -37.2040   24.7660 C   0  0  0  0  0  1  0  0  0  0  0  0
  -26.4310  -37.3510   23.7790 N   0  0  0  0  0  0  0  0  0  0  0  0
  -26.0160  -38.2730   23.8930 H   0  0  0  0  0  0  0  0  0  0  0  0
  1  2  1  0
  3  7  1  0
  3  2  1  0
  5  4  2  0
  6  9  2  0
  6  7  1  0
  7  8  2  0
  8  4  1  0
  8 19  1  0
  9  5  1  0
 10  9  1  0
 11 19  1  0
 12 17  1  0
 13 14  1  0
 13 12  1  0
 15 14  1  0
 15 24  1  0
 15 16  1  0
 17 11  1  0
 17 16  1  0
 18 11  2  0
 19 20  1  0
 21 22  2  0
 22 41  1  0
 23 22  1  0
 23 26  1  0
 24 25  1  0
 24 21  1  0
 25 23  2  0
 26 27  1  0
 27 28  2  0
 29 32  1  0
 29 28  1  0
 30 29  2  0
 31 30  1  0
 31 26  2  0
 32 33  1  0
 33 34  1  0
 34 35  2  0
 36 35  1  0
 36 40  1  0
 37 36  2  0
 38 33  2  0
 38 37  1  0
 39 38  1  0
 41 42  1  0
 42 45  1  0
 42 44  1  0
 43 41  2  0
 46 21  1  0
 46 47  1  0
 48 46  1  0
 49 50  1  0
 49  6  1  0
 50 52  1  0
 51 49  2  0
 53 50  1  0
 54  2  1  0
 54 55  1  0
 55 56  1  0
 56 57  1  0
 56 59  1  0
 58 56  1  0
 60 61  1  0
 60 62  1  0
 60 59  1  0
 63 62  1  0
 64 75  2  0
 65 63  1  0
 65 70  1  0
 66 74  1  0
 66 76  1  0
 67 69  1  0
 68 74  1  0
 69 70  2  0
 69 68  1  0
 71 65  2  0
 72 71  1  0
 72 67  2  0
 73 67  1  0
 73 66  1  0
 74 64  1  0
 76 78  2  0
 77 76  1  0
 79 77  1  0
 80 89  2  0
 80 85  1  0
 81 77  1  0
 81 85  1  0
 82 81  1  0
 83 84  1  0
 83 82  1  0
 84 80  1  0
 85 86  2  0
 86 87  1  0
 88 87  2  0
 89 88  1  0
 90 64  1  0
 90 95  1  0
 90 91  1  0
 91 94  1  1
 91 92  1  0
 93 91  1  0
 95 98  1  0
 96100  1  0
 96 95  1  0
 97 96  2  0
100 99  1  0
102100  1  0
102103  1  0
102101  1  0
M  ISO  4  11 100  19 100  62 101  63 101
M  END
>  <TORSDO>  (56) 
F 25

>  <SCORE>  (56) 
-12.069

>  <name>  (56) 
55

>  <ligand_id>  (56) 
55

>  <original_smiles>  (56) 
[H]c1c([H])c([H])c2c(c1[H])C([H])([H])C([H])([H])C([H])([H])C2([H])N([H])C(=O)C1([H])N(C(=O)C([H])(N([H])C(=O)C([H])(N([H])C([H])([H])[H])C([H])([H])[H])C(C([H])([H])[H])(C([H])([H])[H])C([H])([H])[H])C([H])([H])c2c([H])c(OC([H])([H])C([H])(F)C([H])([H])[N+]([H])([H])C([H])([H])C([H])([H])N(C([H])([H])[H])C([H])([H])c3c(C(=O)N([H])[H])c(F)c([H])c([H])c3N([H])C(=O)N3C([H])([H])C([H])([H])C([H])([H])C([H])(n4nc(-c5c([H])c([H])c(Oc6c([H])c([H])c(F)c([H])c6F)c([H])c5[H])c(C(=O)N([H])[H])c4N([H])[H])C3([H])[H])c([H])c([H])c2C1([H])[H]

>  <smiles>  (56) 
[H]c1c([H])c([H])c2c(c1[H])C([H])([H])C([H])([H])C([H])([H])C2([H])N([H])C(=O)C1([H])N(C(=O)C([H])(N([H])C(=O)C([H])(N([H])C([H])([H])[H])C([H])([H])[H])C(C([H])([H])[H])(C([H])([H])[H])C([H])([H])[H])C([H])([H])c2c([H])c(OC([H])([H])C([H])(F)C([H])([H])[N+]([H])([H])C([H])([H])C([H])([H])N(C([H])([H])[H])C([H])([H])c3c(C(=O)N([H])[H])c(F)c([H])c([H])c3N([H])C(=O)N3C([H])([H])C([H])([H])C([H])([H])C([H])(n4nc(-c5c([H])c([H])c(Oc6c([H])c([H])c(F)c([H])c6F)c([H])c5[H])c(C(=O)N([H])[H])c4N([H])[H])C3([H])[H])c([H])c([H])c2C1([H])[H]

$$$$
56:0:0
     RDKit          3D

 98106  0  0  1  0  0  0  0  0999 V2000
  -30.6290  -17.1410   18.2890 C   0  0  0  0  0  3  0  0  0  0  0  0
  -31.1460  -19.3070   17.3670 C   0  0  0  0  0  0  0  0  0  0  0  0
  -29.9850  -19.1650   19.6080 C   0  0  0  0  0  0  0  0  0  0  0  0
  -30.1470  -17.6220   19.5420 C   0  0  0  0  0  0  0  0  0  0  0  0
  -31.1180  -17.9200   17.2450 C   0  0  0  0  0  0  0  0  0  0  0  0
  -30.5920  -19.8910   18.5260 C   0  0  0  0  0  0  0  0  0  0  0  0
  -31.5730  -17.3000   16.1270 F   0  0  0  0  0  0  0  0  0  0  0  0
  -30.6750  -21.2440   18.5960 F   0  0  0  0  0  0  0  0  0  0  0  0
  -30.6060  -15.0800   20.3680 C   0  0  0  0  0  0  0  0  0  0  0  0
  -30.4760  -12.7200   19.4460 C   0  0  0  0  0  2  0  0  0  0  0  0
  -29.5730  -12.6620   18.1930 C   0  0  0  0  0  2  0  0  0  0  0  0
  -28.1070  -12.4350   18.6010 C   0  0  0  0  0  2  0  0  0  0  0  0
  -27.6720  -13.3560   19.7710 C   0  0  0  0  0  3  0  0  0  0  0  0
  -28.7070  -13.4060   20.9150 C   0  0  0  0  0  2  0  0  0  0  0  0
  -29.9790  -13.8290   20.3200 N   0  0  0  0  0  0  0  0  0  0  0  0
  -31.8240  -15.0660   20.1560 O   0  0  0  0  0  0  0  0  0  0  0  0
  -29.9060  -16.3500   20.4090 N   0  0  0  0  0  0  0  0  0  0  0  0
  -28.9980  -16.3060   20.8480 H   0  0  0  0  0  0  0  0  0  0  0  0
  -25.2770  -13.9040   20.4680 C   0  0  0  0  0  0  0  0  0  0  0  0
  -24.2160  -13.1200   20.8230 C   0  0  0  0  0  0  0  0  0  0  0  0
  -24.6960  -11.7740   20.8100 C   0  0  0  0  0  0  0  0  0  0  0  0
  -26.3340  -13.0390   20.2510 N   0  0  0  0  0  0  0  0  0  0  0  0
  -25.9940  -11.7510   20.5250 N   0  0  0  0  0  0  0  0  0  0  0  0
  -23.9790  -10.5050   20.9940 C   0  0  0  0  0  0  0  0  0  0  0  0
  -24.3850   -9.5590   21.9620 C   0  0  0  0  0  3  0  0  0  0  0  0
  -23.6660   -8.3570   22.1330 C   0  0  0  0  0  3  0  0  0  0  0  0
  -22.5270   -8.0900   21.3370 C   0  0  0  0  0  0  0  0  0  0  0  0
  -22.1410   -9.0250   20.3580 C   0  0  0  0  0  3  0  0  0  0  0  0
  -22.8610  -10.2190   20.1860 C   0  0  0  0  0  3  0  0  0  0  0  0
  -21.7820   -6.9380   21.4150 O   0  0  0  0  0  0  0  0  0  0  0  0
  -21.6800   -6.2260   22.5830 C   0  0  0  0  0  0  0  0  0  0  0  0
  -21.1570   -6.7990   23.7620 C   0  0  0  0  0  3  0  0  0  0  0  0
  -21.0040   -6.0110   24.9210 C   0  0  0  0  0  3  0  0  0  0  0  0
  -21.3650   -4.6510   24.8990 C   0  0  0  0  0  0  0  0  0  0  0  0
  -21.8800   -4.0770   23.7240 C   0  0  0  0  0  3  0  0  0  0  0  0
  -22.0340   -4.8620   22.5680 C   0  0  0  0  0  0  0  0  0  0  0  0
  -22.5120   -4.2980   21.4330 F   0  0  0  0  0  0  0  0  0  0  0  0
  -21.2110   -3.8920   26.0100 F   0  0  0  0  0  0  0  0  0  0  0  0
  -22.8080  -13.5820   21.0590 C   0  0  0  0  0  0  0  0  0  0  0  0
  -22.0660  -12.8800   21.9070 N   0  0  0  0  0  0  0  0  0  0  0  0
  -22.3760  -14.6040   20.5270 O   0  0  0  0  0  0  0  0  0  0  0  0
  -22.4310  -12.0540   22.3590 H   0  0  0  0  0  0  0  0  0  0  0  0
  -21.1210  -13.1730   22.1070 H   0  0  0  0  0  0  0  0  0  0  0  0
  -25.4280  -15.2760   20.2840 N   0  0  0  0  0  0  0  0  0  0  0  0
  -24.6480  -15.9190   20.3690 H   0  0  0  0  0  0  0  0  0  0  0  0
  -26.2700  -15.7190   19.9400 H   0  0  0  0  0  0  0  0  0  0  0  0
  -31.7910  -20.1390   16.2890 C   0  0  0  0  0  0  0  0  0  0  0  0
  -31.0810  -21.1430   15.7820 N   0  0  0  0  0  0  0  0  0  0  0  0
  -32.9190  -19.8840   15.8630 O   0  0  0  0  0  0  0  0  0  0  0  0
  -30.1590  -21.3480   16.1370 H   0  0  0  0  0  0  0  0  0  0  0  0
  -31.4710  -21.7170   15.0490 H   0  0  0  0  0  0  0  0  0  0  0  0
  -29.3610  -20.3210   20.6430 C   0  0  0  0  0  2  0  0  0  0  0  0
  -28.7130  -21.7120   20.1270 N   0  0  0  0  0  4  0  0  0  0  0  0
  -27.7270  -21.5330   20.0140 H   0  0  0  0  0  0  0  0  0  0  0  0
  -29.0980  -21.7900   19.1960 H   0  0  0  0  0  0  0  0  0  0  0  0
  -28.8790  -23.1950   20.7300 C   0  0  0  0  0  3  0  0  0  0  0  0
  -28.0260  -24.5790   20.1710 C   0  0  0  0  0  3  0  0  0  0  0  0
  -28.2420  -26.1190   20.4660 O   0  0  0  0  0  0  0  0  0  0  0  0
  -24.6020  -31.9120   23.2920 C   0  0  0  0  0  0  0  0  0  0  0  0
  -27.2070  -27.1330   20.3430 C   0  0  0  0  0  0  0  0  0  0  0  0
  -23.4240  -30.5060   21.6460 C   0  0  0  0  0  3  0  0  0  0  0  0
  -24.8920  -28.9150   20.2520 C   0  0  0  0  0  0  0  0  0  0  0  0
  -25.9840  -30.7540   21.5230 C   0  0  0  0  0  2  0  0  0  0  0  0
  -26.0630  -29.3530   20.8820 C   0  0  0  0  0  0  0  0  0  0  0  0
  -27.2180  -28.4780   20.9110 C   0  0  0  0  0  3  0  0  0  0  0  0
  -26.0140  -26.8150   19.6560 C   0  0  0  0  0  3  0  0  0  0  0  0
  -24.8840  -27.6610   19.6210 C   0  0  0  0  0  3  0  0  0  0  0  0
  -23.6670  -29.8180   20.2760 C   0  0  0  0  0  2  0  0  0  0  0  0
  -24.6900  -31.0810   22.2080 N   0  0  0  0  0  0  0  0  0  0  0  0
  -23.5070  -32.2040   23.8010 O   0  0  0  0  0  0  0  0  0  0  0  0
  -22.7270  -29.5090   22.6060 C   0  0  0  0  0  0  0  0  0  0  0  0
  -21.4020  -29.3350   22.4590 N   0  0  0  0  0  0  0  0  0  0  0  0
  -23.3840  -28.8920   23.4490 O   0  0  0  0  0  0  0  0  0  0  0  0
  -20.9270  -29.8840   21.7550 H   0  0  0  0  0  0  0  0  0  0  0  0
  -18.0130  -28.1380   22.9200 C   0  0  0  0  0  0  0  0  0  0  0  0
  -20.5670  -28.4050   23.2250 C   0  0  0  0  0  3  0  0  0  0  0  0
  -20.6780  -26.9680   22.6660 C   0  0  0  0  0  2  0  0  0  0  0  0
  -19.5930  -26.6350   21.6370 C   0  0  0  0  0  2  0  0  0  0  0  0
  -18.2010  -26.7830   22.2570 C   0  0  0  0  0  2  0  0  0  0  0  0
  -19.1240  -28.9060   23.3600 C   0  0  0  0  0  0  0  0  0  0  0  0
  -18.8930  -30.1710   23.9420 C   0  0  0  0  0  3  0  0  0  0  0  0
  -17.5850  -30.6710   24.0860 C   0  0  0  0  0  3  0  0  0  0  0  0
  -16.4890  -29.9020   23.6600 C   0  0  0  0  0  3  0  0  0  0  0  0
  -16.7030  -28.6360   23.0840 C   0  0  0  0  0  3  0  0  0  0  0  0
  -25.8690  -32.5540   23.9340 C   0  0  0  0  0  3  0  0  0  0  0  0
  -25.5630  -33.9650   24.2210 N   0  0  0  0  0  0  0  0  0  0  0  0
  -25.9260  -34.9980   23.4500 C   0  0  0  0  0  0  0  0  0  0  0  0
  -26.6200  -34.8640   22.4390 O   0  0  0  0  0  0  0  0  0  0  0  0
  -24.9500  -34.1430   25.0020 H   0  0  0  0  0  0  0  0  0  0  0  0
  -24.2390  -36.8150   23.0090 C   0  0  0  0  0  1  0  0  0  0  0  0
  -25.4470  -36.4040   23.8670 C   0  0  0  0  0  3  0  0  0  0  0  0
  -27.5620  -37.2790   24.7560 C   0  0  0  0  0  1  0  0  0  0  0  0
  -26.5000  -37.4390   23.7680 N   0  0  0  0  0  0  0  0  0  0  0  0
  -26.1020  -38.3680   23.8770 H   0  0  0  0  0  0  0  0  0  0  0  0
  -26.3390  -31.8160   25.2490 C   0  0  1  0  0  0  0  0  0  0  0  0
  -25.2110  -31.6230   26.2910 C   0  0  0  0  0  1  0  0  0  0  0  0
  -26.9170  -30.4200   24.9230 C   0  0  0  0  0  1  0  0  0  0  0  0
  -27.4770  -32.6180   25.9210 C   0  0  0  0  0  1  0  0  0  0  0  0
  1  4  1  0
  2  6  2  0
  3 52  1  0
  4  3  2  0
  4 17  1  0
  5  2  1  0
  5  1  2  0
  6  8  1  0
  6  3  1  0
  7  5  1  0
  9 17  1  0
 10 15  1  0
 11 12  1  0
 11 10  1  0
 13 12  1  0
 13 22  1  0
 13 14  1  0
 15  9  1  0
 15 14  1  0
 16  9  2  0
 17 18  1  0
 19 20  2  0
 20 39  1  0
 21 20  1  0
 21 24  1  0
 22 19  1  0
 22 23  1  0
 23 21  2  0
 24 25  1  0
 25 26  2  0
 27 30  1  0
 27 26  1  0
 28 27  2  0
 29 28  1  0
 29 24  2  0
 30 31  1  0
 31 32  1  0
 32 33  2  0
 34 33  1  0
 34 38  1  0
 35 34  2  0
 36 31  2  0
 36 35  1  0
 37 36  1  0
 39 40  1  0
 40 43  1  0
 40 42  1  0
 41 39  2  0
 44 45  1  0
 44 19  1  0
 46 44  1  0
 47  2  1  0
 48 50  1  0
 48 47  1  0
 49 47  2  0
 51 48  1  0
 53 52  1  0
 53 56  1  0
 54 53  1  0
 55 53  1  0
 57 58  1  0
 57 56  2  0
 59 70  2  0
 60 58  1  0
 60 65  1  0
 61 69  1  0
 61 71  1  0
 62 68  1  0
 62 64  1  0
 63 69  1  0
 64 65  2  0
 64 63  1  0
 66 60  2  0
 67 66  1  0
 67 62  2  0
 68 61  1  0
 69 59  1  0
 71 73  2  0
 72 71  1  0
 74 72  1  0
 75 84  2  0
 75 80  1  0
 76 72  1  0
 76 80  1  0
 77 76  1  0
 78 79  1  0
 78 77  1  0
 79 75  1  0
 80 81  2  0
 81 82  1  0
 83 82  2  0
 84 83  1  0
 85 59  1  0
 85 86  1  0
 85 95  1  0
 86 89  1  0
 87 91  1  0
 87 86  1  0
 88 87  2  0
 91 90  1  0
 93 91  1  0
 93 94  1  0
 93 92  1  0
 95 98  1  1
 95 96  1  0
 97 95  1  0
M  ISO  4   9 100  17 100  57 101  58 101
M  END
>  <TORSDO>  (57) 
F 21

>  <SCORE>  (57) 
-14.141

>  <name>  (57) 
56

>  <ligand_id>  (57) 
56

>  <original_smiles>  (57) 
[H]c1c([H])c([H])c2c(c1[H])C([H])([H])C([H])([H])C([H])([H])C2([H])N([H])C(=O)C1([H])N(C(=O)C([H])(N([H])C(=O)C([H])(N([H])C([H])([H])[H])C([H])([H])[H])C(C([H])([H])[H])(C([H])([H])[H])C([H])([H])[H])C([H])([H])c2c([H])c(OC([H])([H])C([H])([H])[N+]([H])([H])C([H])([H])c3c(F)c(C(=O)N([H])[H])c(F)c([H])c3N([H])C(=O)N3C([H])([H])C([H])([H])C([H])([H])C([H])(n4nc(-c5c([H])c([H])c(Oc6c([H])c([H])c(F)c([H])c6F)c([H])c5[H])c(C(=O)N([H])[H])c4N([H])[H])C3([H])[H])c([H])c([H])c2C1([H])[H]

>  <smiles>  (57) 
[H]c1c([H])c([H])c2c(c1[H])C([H])([H])C([H])([H])C([H])([H])C2([H])N([H])C(=O)C1([H])N(C(=O)C([H])(N([H])C(=O)C([H])(N([H])C([H])([H])[H])C([H])([H])[H])C(C([H])([H])[H])(C([H])([H])[H])C([H])([H])[H])C([H])([H])c2c([H])c(OC([H])([H])C([H])([H])[N+]([H])([H])C([H])([H])c3c(F)c(C(=O)N([H])[H])c(F)c([H])c3N([H])C(=O)N3C([H])([H])C([H])([H])C([H])([H])C([H])(n4nc(-c5c([H])c([H])c(Oc6c([H])c([H])c(F)c([H])c6F)c([H])c5[H])c(C(=O)N([H])[H])c4N([H])[H])C3([H])[H])c([H])c([H])c2C1([H])[H]

$$$$
57:0:0
     RDKit          3D

 93101  0  0  1  0  0  0  0  0999 V2000
  -28.6760  -21.1430   20.6980 C   0  0  0  0  0  2  0  0  0  0  0  0
  -29.3120  -18.5090   20.5680 C   0  0  0  0  0  3  0  0  0  0  0  0
  -31.5700  -17.7890   20.0840 C   0  0  0  0  0  3  0  0  0  0  0  0
  -29.6710  -19.9200   20.4320 C   0  0  0  0  0  0  0  0  0  0  0  0
  -30.2450  -17.3970   20.4000 C   0  0  0  0  0  0  0  0  0  0  0  0
  -31.9470  -19.1410   19.9450 C   0  0  0  0  0  0  0  0  0  0  0  0
  -31.0210  -20.1900   20.1180 C   0  0  0  0  0  0  0  0  0  0  0  0
  -33.2340  -19.4410   19.6480 F   0  0  0  0  0  0  0  0  0  0  0  0
  -31.4560  -21.4680   19.9990 F   0  0  0  0  0  0  0  0  0  0  0  0
  -30.6110  -14.7770   20.3090 C   0  0  0  0  0  0  0  0  0  0  0  0
  -30.3600  -12.5110   19.2900 C   0  0  0  0  0  2  0  0  0  0  0  0
  -29.4170  -12.6060   18.0710 C   0  0  0  0  0  2  0  0  0  0  0  0
  -27.9510  -12.4330   18.5130 C   0  0  0  0  0  2  0  0  0  0  0  0
  -27.5910  -13.3070   19.7460 C   0  0  0  0  0  3  0  0  0  0  0  0
  -28.6620  -13.2220   20.8550 C   0  0  0  0  0  2  0  0  0  0  0  0
  -29.9520  -13.5670   20.2470 N   0  0  0  0  0  0  0  0  0  0  0  0
  -31.7980  -14.8090   19.9800 O   0  0  0  0  0  0  0  0  0  0  0  0
  -29.8830  -15.9470   20.5380 N   0  0  0  0  0  0  0  0  0  0  0  0
  -28.9190  -15.7700   20.7770 H   0  0  0  0  0  0  0  0  0  0  0  0
  -25.2070  -13.8820   20.4970 C   0  0  0  0  0  0  0  0  0  0  0  0
  -24.1480  -13.1030   20.8760 C   0  0  0  0  0  0  0  0  0  0  0  0
  -24.6180  -11.7550   20.8420 C   0  0  0  0  0  0  0  0  0  0  0  0
  -26.2530  -13.0080   20.2510 N   0  0  0  0  0  0  0  0  0  0  0  0
  -25.9070  -11.7230   20.5210 N   0  0  0  0  0  0  0  0  0  0  0  0
  -23.8980  -10.4890   21.0350 C   0  0  0  0  0  0  0  0  0  0  0  0
  -24.3410   -9.5210   21.9620 C   0  0  0  0  0  3  0  0  0  0  0  0
  -23.6190   -8.3200   22.1460 C   0  0  0  0  0  3  0  0  0  0  0  0
  -22.4410   -8.0790   21.4010 C   0  0  0  0  0  0  0  0  0  0  0  0
  -22.0170   -9.0360   20.4610 C   0  0  0  0  0  3  0  0  0  0  0  0
  -22.7390  -10.2270   20.2760 C   0  0  0  0  0  3  0  0  0  0  0  0
  -21.6890   -6.9330   21.4930 O   0  0  0  0  0  0  0  0  0  0  0  0
  -21.6530   -6.1860   22.6430 C   0  0  0  0  0  0  0  0  0  0  0  0
  -21.2340   -6.7350   23.8740 C   0  0  0  0  0  3  0  0  0  0  0  0
  -21.1470   -5.9150   25.0170 C   0  0  0  0  0  3  0  0  0  0  0  0
  -21.4660   -4.5470   24.9290 C   0  0  0  0  0  0  0  0  0  0  0  0
  -21.8770   -3.9980   23.7020 C   0  0  0  0  0  3  0  0  0  0  0  0
  -21.9670   -4.8150   22.5620 C   0  0  0  0  0  0  0  0  0  0  0  0
  -22.3440   -4.2760   21.3770 F   0  0  0  0  0  0  0  0  0  0  0  0
  -21.3740   -3.7570   26.0240 F   0  0  0  0  0  0  0  0  0  0  0  0
  -22.7510  -13.5740   21.1560 C   0  0  0  0  0  0  0  0  0  0  0  0
  -22.0310  -12.8740   22.0260 N   0  0  0  0  0  0  0  0  0  0  0  0
  -22.3080  -14.5980   20.6400 O   0  0  0  0  0  0  0  0  0  0  0  0
  -22.4010  -12.0460   22.4680 H   0  0  0  0  0  0  0  0  0  0  0  0
  -21.0930  -13.1730   22.2540 H   0  0  0  0  0  0  0  0  0  0  0  0
  -25.3630  -15.2540   20.3180 N   0  0  0  0  0  0  0  0  0  0  0  0
  -24.5910  -15.9030   20.4290 H   0  0  0  0  0  0  0  0  0  0  0  0
  -26.1960  -15.6940   19.9500 H   0  0  0  0  0  0  0  0  0  0  0  0
  -28.3920  -23.7690   20.5390 C   0  0  0  0  0  0  0  0  0  0  0  0
  -28.8670  -22.5410   20.0950 N   0  0  0  0  0  0  0  0  0  0  0  0
  -27.8580  -23.8570   21.6470 O   0  0  0  0  0  0  0  0  0  0  0  0
  -29.3260  -22.5550   19.1940 H   0  0  0  0  0  0  0  0  0  0  0  0
  -28.4680  -25.0890   19.6270 C   0  0  0  0  0  2  0  0  0  0  0  0
  -28.3470  -26.4430   20.2720 O   0  0  0  0  0  0  0  0  0  0  0  0
  -24.6120  -31.8840   23.2440 C   0  0  0  0  0  0  0  0  0  0  0  0
  -27.2160  -27.2880   20.1860 C   0  0  0  0  0  0  0  0  0  0  0  0
  -23.4040  -30.4820   21.6100 C   0  0  0  0  0  3  0  0  0  0  0  0
  -24.8500  -28.9260   20.1780 C   0  0  0  0  0  0  0  0  0  0  0  0
  -25.9450  -30.7910   21.4230 C   0  0  0  0  0  2  0  0  0  0  0  0
  -26.0210  -29.4100   20.7740 C   0  0  0  0  0  0  0  0  0  0  0  0
  -27.2000  -28.6000   20.7700 C   0  0  0  0  0  3  0  0  0  0  0  0
  -26.0170  -26.8640   19.5720 C   0  0  0  0  0  3  0  0  0  0  0  0
  -24.8540  -27.6620   19.5670 C   0  0  0  0  0  3  0  0  0  0  0  0
  -23.6140  -29.8020   20.2300 C   0  0  0  0  0  2  0  0  0  0  0  0
  -24.6720  -31.0720   22.1480 N   0  0  0  0  0  0  0  0  0  0  0  0
  -23.5290  -32.1620   23.7830 O   0  0  0  0  0  0  0  0  0  0  0  0
  -22.7440  -29.4690   22.5760 C   0  0  0  0  0  0  0  0  0  0  0  0
  -21.4180  -29.2900   22.4520 N   0  0  0  0  0  0  0  0  0  0  0  0
  -23.4250  -28.8460   23.3960 O   0  0  0  0  0  0  0  0  0  0  0  0
  -20.9280  -29.8450   21.7650 H   0  0  0  0  0  0  0  0  0  0  0  0
  -18.0440  -28.0820   22.9560 C   0  0  0  0  0  0  0  0  0  0  0  0
  -20.6010  -28.3530   23.2260 C   0  0  0  0  0  3  0  0  0  0  0  0
  -20.7080  -26.9200   22.6560 C   0  0  0  0  0  2  0  0  0  0  0  0
  -19.6080  -26.5890   21.6420 C   0  0  0  0  0  2  0  0  0  0  0  0
  -18.2250  -26.7310   22.2860 C   0  0  0  0  0  2  0  0  0  0  0  0
  -19.1580  -28.8500   23.3830 C   0  0  0  0  0  0  0  0  0  0  0  0
  -18.9350  -30.1150   23.9700 C   0  0  0  0  0  3  0  0  0  0  0  0
  -17.6270  -30.6100   24.1350 C   0  0  0  0  0  3  0  0  0  0  0  0
  -16.5260  -29.8390   23.7250 C   0  0  0  0  0  3  0  0  0  0  0  0
  -16.7350  -28.5770   23.1400 C   0  0  0  0  0  3  0  0  0  0  0  0
  -25.8940  -32.5200   23.8640 C   0  0  0  0  0  3  0  0  0  0  0  0
  -26.4100  -31.7550   25.1450 C   0  0  1  0  0  0  0  0  0  0  0  0
  -25.3180  -31.5260   26.2170 C   0  0  0  0  0  1  0  0  0  0  0  0
  -26.9920  -30.3740   24.7630 C   0  0  0  0  0  1  0  0  0  0  0  0
  -27.5630  -32.5520   25.8020 C   0  0  0  0  0  1  0  0  0  0  0  0
  -25.5840  -33.9200   24.1920 N   0  0  0  0  0  0  0  0  0  0  0  0
  -25.9120  -34.9720   23.4300 C   0  0  0  0  0  0  0  0  0  0  0  0
  -26.5790  -34.8670   22.3960 O   0  0  0  0  0  0  0  0  0  0  0  0
  -24.9930  -34.0750   24.9940 H   0  0  0  0  0  0  0  0  0  0  0  0
  -24.1850  -36.7680   23.0810 C   0  0  0  0  0  1  0  0  0  0  0  0
  -25.4290  -36.3620   23.8880 C   0  0  0  0  0  3  0  0  0  0  0  0
  -27.5670  -37.2450   24.7100 C   0  0  0  0  0  1  0  0  0  0  0  0
  -26.4610  -37.4150   23.7720 N   0  0  0  0  0  0  0  0  0  0  0  0
  -26.0550  -38.3350   23.9220 H   0  0  0  0  0  0  0  0  0  0  0  0
  3  5  1  0
  4  2  1  0
  4  1  1  0
  5 18  1  0
  5  2  2  0
  6  3  2  0
  6  7  1  0
  7  4  2  0
  8  6  1  0
  9  7  1  0
 10 18  1  0
 11 16  1  0
 12 13  1  0
 12 11  1  0
 14 13  1  0
 14 23  1  0
 14 15  1  0
 16 10  1  0
 16 15  1  0
 17 10  2  0
 18 19  1  0
 20 21  2  0
 21 40  1  0
 22 21  1  0
 22 25  1  0
 23 20  1  0
 23 24  1  0
 24 22  2  0
 25 26  1  0
 26 27  2  0
 28 31  1  0
 28 27  1  0
 29 28  2  0
 30 29  1  0
 30 25  2  0
 31 32  1  0
 32 33  1  0
 33 34  2  0
 35 34  1  0
 35 39  1  0
 36 35  2  0
 37 32  2  0
 37 36  1  0
 38 37  1  0
 40 41  1  0
 41 44  1  0
 41 43  1  0
 42 40  2  0
 45 46  1  0
 45 20  1  0
 47 45  1  0
 48 50  2  0
 49 48  1  0
 49  1  1  0
 51 49  1  0
 52 53  1  0
 52 48  1  0
 54 65  2  0
 55 53  1  0
 55 60  1  0
 56 64  1  0
 56 66  1  0
 57 63  1  0
 57 59  1  0
 58 64  1  0
 59 58  1  0
 60 59  2  0
 61 55  2  0
 62 61  1  0
 62 57  2  0
 63 56  1  0
 64 54  1  0
 66 68  2  0
 67 66  1  0
 69 67  1  0
 70 79  2  0
 70 75  1  0
 71 67  1  0
 71 75  1  0
 72 71  1  0
 73 74  1  0
 73 72  1  0
 74 70  1  0
 75 76  2  0
 76 77  1  0
 78 77  2  0
 79 78  1  0
 80 54  1  0
 80 85  1  0
 80 81  1  0
 81 84  1  1
 81 82  1  0
 83 81  1  0
 85 88  1  0
 86 90  1  0
 86 85  1  0
 87 86  2  0
 90 89  1  0
 92 90  1  0
 92 93  1  0
 92 91  1  0
M  ISO  4  10 100  18 100  52 101  53 101
M  END
>  <TORSDO>  (58) 
F 19

>  <SCORE>  (58) 
-14.440

>  <name>  (58) 
57

>  <ligand_id>  (58) 
57

>  <original_smiles>  (58) 
[H]c1c([H])c([H])c2c(c1[H])C([H])([H])C([H])([H])C([H])([H])C2([H])N([H])C(=O)C1([H])N(C(=O)C([H])(N([H])C(=O)C([H])(N([H])C([H])([H])[H])C([H])([H])[H])C(C([H])([H])[H])(C([H])([H])[H])C([H])([H])[H])C([H])([H])c2c([H])c(OC([H])([H])C(=O)N([H])C([H])([H])c3c([H])c(N([H])C(=O)N4C([H])([H])C([H])([H])C([H])([H])C([H])(n5nc(-c6c([H])c([H])c(Oc7c([H])c([H])c(F)c([H])c7F)c([H])c6[H])c(C(=O)N([H])[H])c5N([H])[H])C4([H])[H])c([H])c(F)c3F)c([H])c([H])c2C1([H])[H]

>  <smiles>  (58) 
[H]c1c([H])c([H])c2c(c1[H])C([H])([H])C([H])([H])C([H])([H])C2([H])N([H])C(=O)C1([H])N(C(=O)C([H])(N([H])C(=O)C([H])(N([H])C([H])([H])[H])C([H])([H])[H])C(C([H])([H])[H])(C([H])([H])[H])C([H])([H])[H])C([H])([H])c2c([H])c(OC([H])([H])C(=O)N([H])C([H])([H])c3c([H])c(N([H])C(=O)N4C([H])([H])C([H])([H])C([H])([H])C([H])(n5nc(-c6c([H])c([H])c(Oc7c([H])c([H])c(F)c([H])c7F)c([H])c6[H])c(C(=O)N([H])[H])c5N([H])[H])C4([H])[H])c([H])c(F)c3F)c([H])c([H])c2C1([H])[H]

$$$$
58:0:0
     RDKit          3D

 95104  0  0  1  0  0  0  0  0999 V2000
  -29.8540  -24.7140   19.8700 C   0  0  0  0  0  0  0  0  0  0  0  0
  -30.1780  -22.2450   17.6130 C   0  0  0  0  0  2  0  0  0  0  0  0
  -30.0990  -23.7710   17.5630 C   0  0  0  0  0  2  0  0  0  0  0  0
  -29.8800  -22.3460   19.1160 C   0  0  0  0  0  3  0  0  0  0  0  0
  -30.3520  -23.7310   19.0010 N   0  0  0  0  0  0  0  0  0  0  0  0
  -30.5660  -25.1090   20.7980 O   0  0  0  0  0  0  0  0  0  0  0  0
  -30.7590  -21.4240   19.9850 C   0  0  0  0  0  0  0  0  0  0  0  0
  -30.4370  -20.1200   19.9740 N   0  0  0  0  0  0  0  0  0  0  0  0
  -31.6990  -21.8740   20.6430 O   0  0  0  0  0  0  0  0  0  0  0  0
  -29.6500  -19.8520   19.3970 H   0  0  0  0  0  0  0  0  0  0  0  0
  -30.6150  -18.8260   22.1000 C   0  0  0  0  0  2  0  0  0  0  0  0
  -30.6890  -17.3120   22.3730 C   0  0  0  0  0  2  0  0  0  0  0  0
  -30.9690  -17.6810   19.9930 C   0  0  0  0  0  2  0  0  0  0  0  0
  -31.1470  -19.0460   20.6750 C   0  0  0  0  0  3  0  0  0  0  0  0
  -31.2520  -16.6530   21.1030 C   0  0  0  0  0  3  0  0  0  0  0  0
  -31.1860  -14.3610   20.0960 C   0  0  0  0  0  0  0  0  0  0  0  0
  -30.7400  -12.2150   18.9700 C   0  0  0  0  0  2  0  0  0  0  0  0
  -29.7790  -12.4300   17.7850 C   0  0  0  0  0  2  0  0  0  0  0  0
  -28.3120  -12.3690   18.2510 C   0  0  0  0  0  2  0  0  0  0  0  0
  -28.0410  -13.2550   19.4980 C   0  0  0  0  0  3  0  0  0  0  0  0
  -29.1090  -13.0130   20.5880 C   0  0  0  0  0  2  0  0  0  0  0  0
  -30.4370  -13.2330   19.9860 N   0  0  0  0  0  0  0  0  0  0  0  0
  -32.2590  -14.5230   19.5060 O   0  0  0  0  0  0  0  0  0  0  0  0
  -30.6550  -15.3350   20.8530 N   0  0  0  0  0  0  0  0  0  0  0  0
  -29.7760  -15.1250   21.3000 H   0  0  0  0  0  0  0  0  0  0  0  0
  -25.7030  -14.0010   20.2780 C   0  0  0  0  0  0  0  0  0  0  0  0
  -24.6050  -13.2910   20.6800 C   0  0  0  0  0  0  0  0  0  0  0  0
  -24.9840  -11.9140   20.6330 C   0  0  0  0  0  0  0  0  0  0  0  0
  -26.6880  -13.0590   20.0150 N   0  0  0  0  0  0  0  0  0  0  0  0
  -26.2580  -11.7980   20.2830 N   0  0  0  0  0  0  0  0  0  0  0  0
  -24.1910  -10.6970   20.8460 C   0  0  0  0  0  0  0  0  0  0  0  0
  -24.5800   -9.7170   21.7860 C   0  0  0  0  0  3  0  0  0  0  0  0
  -23.7910   -8.5640   21.9870 C   0  0  0  0  0  3  0  0  0  0  0  0
  -22.5990   -8.3810   21.2460 C   0  0  0  0  0  0  0  0  0  0  0  0
  -22.2280   -9.3480   20.2960 C   0  0  0  0  0  3  0  0  0  0  0  0
  -23.0160  -10.4940   20.0940 C   0  0  0  0  0  3  0  0  0  0  0  0
  -21.7840   -7.2800   21.3550 O   0  0  0  0  0  0  0  0  0  0  0  0
  -21.6800   -6.5740   22.5260 C   0  0  0  0  0  0  0  0  0  0  0  0
  -21.2740   -7.1850   23.7320 C   0  0  0  0  0  3  0  0  0  0  0  0
  -21.1160   -6.4080   24.8970 C   0  0  0  0  0  3  0  0  0  0  0  0
  -21.3510   -5.0200   24.8570 C   0  0  0  0  0  0  0  0  0  0  0  0
  -21.7460   -4.4080   23.6540 C   0  0  0  0  0  3  0  0  0  0  0  0
  -21.9090   -5.1840   22.4930 C   0  0  0  0  0  0  0  0  0  0  0  0
  -22.2700   -4.5860   21.3320 F   0  0  0  0  0  0  0  0  0  0  0  0
  -21.1890   -4.2720   25.9730 F   0  0  0  0  0  0  0  0  0  0  0  0
  -23.2470  -13.8490   20.9970 C   0  0  0  0  0  0  0  0  0  0  0  0
  -22.5140  -13.2030   21.8960 N   0  0  0  0  0  0  0  0  0  0  0  0
  -22.8480  -14.8910   20.4810 O   0  0  0  0  0  0  0  0  0  0  0  0
  -22.8510  -12.3620   22.3390 H   0  0  0  0  0  0  0  0  0  0  0  0
  -21.5970  -13.5510   22.1410 H   0  0  0  0  0  0  0  0  0  0  0  0
  -25.9410  -15.3600   20.0960 N   0  0  0  0  0  0  0  0  0  0  0  0
  -25.2140  -16.0540   20.2240 H   0  0  0  0  0  0  0  0  0  0  0  0
  -26.8080  -15.7540   19.7480 H   0  0  0  0  0  0  0  0  0  0  0  0
  -28.4820  -25.3700   19.6060 C   0  0  0  0  0  2  0  0  0  0  0  0
  -28.4220  -26.6690   20.2110 O   0  0  0  0  0  0  0  0  0  0  0  0
  -24.5710  -31.8410   23.1950 C   0  0  0  0  0  0  0  0  0  0  0  0
  -27.2300  -27.3650   20.1700 C   0  0  0  0  0  0  0  0  0  0  0  0
  -23.3740  -30.4340   21.5500 C   0  0  0  0  0  3  0  0  0  0  0  0
  -24.8350  -28.8790   20.1520 C   0  0  0  0  0  0  0  0  0  0  0  0
  -25.9040  -30.7760   21.3800 C   0  0  0  0  0  2  0  0  0  0  0  0
  -25.9870  -29.3990   20.7520 C   0  0  0  0  0  0  0  0  0  0  0  0
  -27.1830  -28.6470   20.7620 C   0  0  0  0  0  3  0  0  0  0  0  0
  -26.0540  -26.8590   19.5630 C   0  0  0  0  0  3  0  0  0  0  0  0
  -24.8640  -27.6080   19.5540 C   0  0  0  0  0  3  0  0  0  0  0  0
  -23.5950  -29.7420   20.1780 C   0  0  0  0  0  2  0  0  0  0  0  0
  -24.6350  -31.0320   22.1000 N   0  0  0  0  0  0  0  0  0  0  0  0
  -23.4850  -32.1240   23.7190 O   0  0  0  0  0  0  0  0  0  0  0  0
  -22.7070  -29.4220   22.5110 C   0  0  0  0  0  0  0  0  0  0  0  0
  -21.3870  -29.2350   22.3590 N   0  0  0  0  0  0  0  0  0  0  0  0
  -23.3770  -28.8070   23.3460 O   0  0  0  0  0  0  0  0  0  0  0  0
  -20.9130  -29.7800   21.6530 H   0  0  0  0  0  0  0  0  0  0  0  0
  -18.0130  -28.0170   22.7680 C   0  0  0  0  0  0  0  0  0  0  0  0
  -20.5560  -28.3080   23.1240 C   0  0  0  0  0  3  0  0  0  0  0  0
  -20.6950  -26.8670   22.5840 C   0  0  0  0  0  2  0  0  0  0  0  0
  -19.6320  -26.5070   21.5420 C   0  0  0  0  0  2  0  0  0  0  0  0
  -18.2260  -26.6540   22.1330 C   0  0  0  0  0  2  0  0  0  0  0  0
  -19.1070  -28.8020   23.2170 C   0  0  0  0  0  0  0  0  0  0  0  0
  -18.8570  -30.0770   23.7690 C   0  0  0  0  0  3  0  0  0  0  0  0
  -17.5420  -30.5690   23.8790 C   0  0  0  0  0  3  0  0  0  0  0  0
  -16.4600  -29.7820   23.4470 C   0  0  0  0  0  3  0  0  0  0  0  0
  -16.6960  -28.5080   22.8960 C   0  0  0  0  0  3  0  0  0  0  0  0
  -25.8540  -32.4670   23.8230 C   0  0  0  0  0  3  0  0  0  0  0  0
  -26.3700  -31.6840   25.0940 C   0  0  1  0  0  0  0  0  0  0  0  0
  -25.2730  -31.4350   26.1550 C   0  0  0  0  0  1  0  0  0  0  0  0
  -26.9560  -30.3130   24.6870 C   0  0  0  0  0  1  0  0  0  0  0  0
  -27.5180  -32.4740   25.7660 C   0  0  0  0  0  1  0  0  0  0  0  0
  -25.5460  -33.8620   24.1620 N   0  0  0  0  0  0  0  0  0  0  0  0
  -25.8780  -34.9190   23.4070 C   0  0  0  0  0  0  0  0  0  0  0  0
  -26.5500  -34.8210   22.3770 O   0  0  0  0  0  0  0  0  0  0  0  0
  -24.9540  -34.0140   24.9640 H   0  0  0  0  0  0  0  0  0  0  0  0
  -24.1440  -36.7050   23.0580 C   0  0  0  0  0  1  0  0  0  0  0  0
  -25.3880  -36.3040   23.8680 C   0  0  0  0  0  3  0  0  0  0  0  0
  -27.5210  -37.1890   24.7020 C   0  0  0  0  0  1  0  0  0  0  0  0
  -26.4190  -37.3590   23.7600 N   0  0  0  0  0  0  0  0  0  0  0  0
  -26.0110  -38.2790   23.9120 H   0  0  0  0  0  0  0  0  0  0  0  0
  1  6  2  0
  2  4  1  0
  3  2  1  0
  3  5  1  0
  4  7  1  0
  5  4  1  0
  5  1  1  0
  7  9  2  0
  8  7  1  0
 10  8  1  0
 11 12  1  0
 13 14  1  0
 13 15  1  0
 14  8  1  0
 14 11  1  0
 15 24  1  0
 15 12  1  0
 16 24  1  0
 17 22  1  0
 18 19  1  0
 18 17  1  0
 20 19  1  0
 20 29  1  0
 20 21  1  0
 22 16  1  0
 22 21  1  0
 23 16  2  0
 24 25  1  0
 26 27  2  0
 27 46  1  0
 28 27  1  0
 28 31  1  0
 29 26  1  0
 29 30  1  0
 30 28  2  0
 31 32  1  0
 32 33  2  0
 34 37  1  0
 34 33  1  0
 35 34  2  0
 36 35  1  0
 36 31  2  0
 37 38  1  0
 38 39  1  0
 39 40  2  0
 41 40  1  0
 41 45  1  0
 42 41  2  0
 43 38  2  0
 43 42  1  0
 44 43  1  0
 46 47  1  0
 47 50  1  0
 47 49  1  0
 48 46  2  0
 51 52  1  0
 51 26  1  0
 53 51  1  0
 54  1  1  0
 54 55  1  0
 56 67  2  0
 57 55  1  0
 57 62  1  0
 58 66  1  0
 58 68  1  0
 59 65  1  0
 59 61  1  0
 60 66  1  0
 61 62  2  0
 61 60  1  0
 63 57  2  0
 64 63  1  0
 64 59  2  0
 65 58  1  0
 66 56  1  0
 68 70  2  0
 69 68  1  0
 71 69  1  0
 72 81  2  0
 72 77  1  0
 73 69  1  0
 73 77  1  0
 74 73  1  0
 75 76  1  0
 75 74  1  0
 76 72  1  0
 77 78  2  0
 78 79  1  0
 80 79  2  0
 81 80  1  0
 82 56  1  0
 82 87  1  0
 82 83  1  0
 83 86  1  1
 83 84  1  0
 85 83  1  0
 87 90  1  0
 88 92  1  0
 88 87  1  0
 89 88  2  0
 92 91  1  0
 94 92  1  0
 94 95  1  0
 94 93  1  0
M  ISO  4  16 100  24 100  54 101  55 101
M  END
>  <TORSDO>  (59) 
F 19

>  <SCORE>  (59) 
-13.941

>  <name>  (59) 
58

>  <ligand_id>  (59) 
58

>  <original_smiles>  (59) 
[H]c1c([H])c([H])c2c(c1[H])C([H])([H])C([H])([H])C([H])([H])C2([H])N([H])C(=O)C1([H])N(C(=O)C([H])(N([H])C(=O)C([H])(N([H])C([H])([H])[H])C([H])([H])[H])C(C([H])([H])[H])(C([H])([H])[H])C([H])([H])[H])C([H])([H])c2c([H])c(OC([H])([H])C(=O)N3C([H])([H])C([H])([H])C3([H])C(=O)N([H])C3([H])C([H])([H])C([H])([H])C([H])(N([H])C(=O)N4C([H])([H])C([H])([H])C([H])([H])C([H])(n5nc(-c6c([H])c([H])c(Oc7c([H])c([H])c(F)c([H])c7F)c([H])c6[H])c(C(=O)N([H])[H])c5N([H])[H])C4([H])[H])C3([H])[H])c([H])c([H])c2C1([H])[H]

>  <smiles>  (59) 
[H]c1c([H])c([H])c2c(c1[H])C([H])([H])C([H])([H])C([H])([H])C2([H])N([H])C(=O)C1([H])N(C(=O)C([H])(N([H])C(=O)C([H])(N([H])C([H])([H])[H])C([H])([H])[H])C(C([H])([H])[H])(C([H])([H])[H])C([H])([H])[H])C([H])([H])c2c([H])c(OC([H])([H])C(=O)N3C([H])([H])C([H])([H])C3([H])C(=O)N([H])C3([H])C([H])([H])C([H])([H])C([H])(N([H])C(=O)N4C([H])([H])C([H])([H])C([H])([H])C([H])(n5nc(-c6c([H])c([H])c(Oc7c([H])c([H])c(F)c([H])c7F)c([H])c6[H])c(C(=O)N([H])[H])c5N([H])[H])C4([H])[H])C3([H])[H])c([H])c([H])c2C1([H])[H]

$$$$
59:0:0
     RDKit          3D

 96104  0  0  1  0  0  0  0  0999 V2000
  -30.0930  -20.9400   19.3270 C   0  0  0  0  0  2  0  0  0  0  0  0
  -30.4740  -17.8200   21.5660 C   0  0  0  0  0  3  0  0  0  0  0  0
  -30.0260  -19.4960   19.8320 C   0  0  0  0  0  0  0  0  0  0  0  0
  -30.0270  -16.7920   20.7080 C   0  0  0  0  0  0  0  0  0  0  0  0
  -30.4840  -19.1620   21.1250 C   0  0  0  0  0  0  0  0  0  0  0  0
  -29.5490  -18.4700   18.9860 C   0  0  0  0  0  0  0  0  0  0  0  0
  -29.5440  -17.1280   19.4200 C   0  0  0  0  0  0  0  0  0  0  0  0
  -30.9400  -20.1350   21.9500 F   0  0  0  0  0  0  0  0  0  0  0  0
  -29.0910  -18.7700   17.7470 F   0  0  0  0  0  0  0  0  0  0  0  0
  -29.0630  -16.1660   18.5960 F   0  0  0  0  0  0  0  0  0  0  0  0
  -30.7040  -14.4600   20.5520 C   0  0  0  0  0  0  0  0  0  0  0  0
  -30.4170  -12.3150   19.3890 C   0  0  0  0  0  2  0  0  0  0  0  0
  -29.4850  -12.5470   18.1810 C   0  0  0  0  0  2  0  0  0  0  0  0
  -28.0060  -12.4200   18.5940 C   0  0  0  0  0  2  0  0  0  0  0  0
  -27.6650  -13.2430   19.8650 C   0  0  0  0  0  3  0  0  0  0  0  0
  -28.7050  -12.9860   20.9780 C   0  0  0  0  0  2  0  0  0  0  0  0
  -30.0420  -13.2800   20.4330 N   0  0  0  0  0  0  0  0  0  0  0  0
  -31.8180  -14.6700   20.0630 O   0  0  0  0  0  0  0  0  0  0  0  0
  -30.0150  -15.4410   21.1550 N   0  0  0  0  0  0  0  0  0  0  0  0
  -29.1820  -15.1450   21.6400 H   0  0  0  0  0  0  0  0  0  0  0  0
  -25.2580  -13.8630   20.5440 C   0  0  0  0  0  0  0  0  0  0  0  0
  -24.1830  -13.0940   20.9000 C   0  0  0  0  0  0  0  0  0  0  0  0
  -24.6380  -11.7410   20.8710 C   0  0  0  0  0  0  0  0  0  0  0  0
  -26.3030  -12.9770   20.3240 N   0  0  0  0  0  0  0  0  0  0  0  0
  -25.9310  -11.6960   20.5760 N   0  0  0  0  0  0  0  0  0  0  0  0
  -23.9050  -10.4810   21.0510 C   0  0  0  0  0  0  0  0  0  0  0  0
  -24.3120   -9.5190   22.0010 C   0  0  0  0  0  3  0  0  0  0  0  0
  -23.5810   -8.3230   22.1670 C   0  0  0  0  0  3  0  0  0  0  0  0
  -22.4280   -8.0810   21.3830 C   0  0  0  0  0  0  0  0  0  0  0  0
  -22.0390   -9.0330   20.4240 C   0  0  0  0  0  3  0  0  0  0  0  0
  -22.7720  -10.2200   20.2550 C   0  0  0  0  0  3  0  0  0  0  0  0
  -21.6700   -6.9380   21.4570 O   0  0  0  0  0  0  0  0  0  0  0  0
  -21.5780   -6.2100   22.6160 C   0  0  0  0  0  0  0  0  0  0  0  0
  -21.0640   -6.7670   23.8080 C   0  0  0  0  0  3  0  0  0  0  0  0
  -20.9230   -5.9630   24.9570 C   0  0  0  0  0  3  0  0  0  0  0  0
  -21.2850   -4.6040   24.9150 C   0  0  0  0  0  0  0  0  0  0  0  0
  -21.7920   -4.0460   23.7270 C   0  0  0  0  0  3  0  0  0  0  0  0
  -21.9350   -4.8470   22.5800 C   0  0  0  0  0  0  0  0  0  0  0  0
  -22.4040   -4.3000   21.4330 F   0  0  0  0  0  0  0  0  0  0  0  0
  -21.1430   -3.8290   26.0150 F   0  0  0  0  0  0  0  0  0  0  0  0
  -22.7850  -13.5780   21.1620 C   0  0  0  0  0  0  0  0  0  0  0  0
  -22.0430  -12.8760   22.0120 N   0  0  0  0  0  0  0  0  0  0  0  0
  -22.3590  -14.6120   20.6500 O   0  0  0  0  0  0  0  0  0  0  0  0
  -22.4000  -12.0380   22.4480 H   0  0  0  0  0  0  0  0  0  0  0  0
  -21.1060  -13.1810   22.2300 H   0  0  0  0  0  0  0  0  0  0  0  0
  -25.4320  -15.2340   20.3710 N   0  0  0  0  0  0  0  0  0  0  0  0
  -24.6640  -15.8890   20.4710 H   0  0  0  0  0  0  0  0  0  0  0  0
  -26.2840  -15.6670   20.0400 H   0  0  0  0  0  0  0  0  0  0  0  0
  -27.6260  -21.2360   19.4560 C   0  0  0  0  0  1  0  0  0  0  0  0
  -28.9620  -21.8290   19.7270 N   0  0  2  0  0  4  0  0  0  0  0  0
  -29.0350  -21.9360   20.7290 H   0  0  0  0  0  0  0  0  0  0  0  0
  -29.1070  -23.1940   19.1340 C   0  0  0  0  0  2  0  0  0  0  0  0
  -28.5760  -24.3490   20.0200 C   0  0  0  0  0  3  0  0  0  0  0  0
  -27.2900  -24.1480   20.3080 F   0  0  0  0  0  0  0  0  0  0  0  0
  -28.7330  -25.7250   19.3300 C   0  0  0  0  0  2  0  0  0  0  0  0
  -28.4860  -26.8220   20.2150 O   0  0  0  0  0  0  0  0  0  0  0  0
  -24.5270  -31.8860   23.2390 C   0  0  0  0  0  0  0  0  0  0  0  0
  -27.2720  -27.4790   20.1900 C   0  0  0  0  0  0  0  0  0  0  0  0
  -23.3630  -30.4770   21.5720 C   0  0  0  0  0  3  0  0  0  0  0  0
  -24.8550  -28.9510   20.1750 C   0  0  0  0  0  0  0  0  0  0  0  0
  -25.8880  -30.8540   21.4260 C   0  0  0  0  0  2  0  0  0  0  0  0
  -25.9940  -29.4850   20.7880 C   0  0  0  0  0  0  0  0  0  0  0  0
  -27.2000  -28.7510   20.8010 C   0  0  0  0  0  3  0  0  0  0  0  0
  -26.1070  -26.9510   19.5870 C   0  0  0  0  0  3  0  0  0  0  0  0
  -24.9050  -27.6810   19.5770 C   0  0  0  0  0  3  0  0  0  0  0  0
  -23.6020  -29.8000   20.1970 C   0  0  0  0  0  2  0  0  0  0  0  0
  -24.6090  -31.0870   22.1380 N   0  0  0  0  0  0  0  0  0  0  0  0
  -23.4340  -32.1510   23.7580 O   0  0  0  0  0  0  0  0  0  0  0  0
  -22.7020  -29.4490   22.5190 C   0  0  0  0  0  0  0  0  0  0  0  0
  -21.3790  -29.2690   22.3750 N   0  0  0  0  0  0  0  0  0  0  0  0
  -23.3760  -28.8160   23.3360 O   0  0  0  0  0  0  0  0  0  0  0  0
  -20.8980  -29.8310   21.6860 H   0  0  0  0  0  0  0  0  0  0  0  0
  -17.9900  -28.1150   22.8560 C   0  0  0  0  0  0  0  0  0  0  0  0
  -20.5520  -28.3290   23.1290 C   0  0  0  0  0  3  0  0  0  0  0  0
  -20.6330  -26.9090   22.5230 C   0  0  0  0  0  2  0  0  0  0  0  0
  -19.5250  -26.6220   21.5050 C   0  0  0  0  0  2  0  0  0  0  0  0
  -18.1470  -26.7760   22.1550 C   0  0  0  0  0  2  0  0  0  0  0  0
  -19.1210  -28.8510   23.2980 C   0  0  0  0  0  0  0  0  0  0  0  0
  -18.9220  -30.1070   23.9130 C   0  0  0  0  0  3  0  0  0  0  0  0
  -17.6250  -30.6250   24.0900 C   0  0  0  0  0  3  0  0  0  0  0  0
  -16.5090  -29.8840   23.6640 C   0  0  0  0  0  3  0  0  0  0  0  0
  -16.6920  -28.6310   23.0510 C   0  0  0  0  0  3  0  0  0  0  0  0
  -25.7970  -32.5230   23.8840 C   0  0  0  0  0  3  0  0  0  0  0  0
  -25.4780  -33.9230   24.1960 N   0  0  0  0  0  0  0  0  0  0  0  0
  -25.8210  -34.9690   23.4310 C   0  0  0  0  0  0  0  0  0  0  0  0
  -26.5100  -34.8570   22.4130 O   0  0  0  0  0  0  0  0  0  0  0  0
  -24.8650  -34.0820   24.9800 H   0  0  0  0  0  0  0  0  0  0  0  0
  -24.0980  -36.7550   23.0190 C   0  0  0  0  0  1  0  0  0  0  0  0
  -25.3180  -36.3600   23.8650 C   0  0  0  0  0  3  0  0  0  0  0  0
  -27.4240  -37.2590   24.7520 C   0  0  0  0  0  1  0  0  0  0  0  0
  -26.3520  -37.4140   23.7710 N   0  0  0  0  0  0  0  0  0  0  0  0
  -25.9400  -38.3340   23.8960 H   0  0  0  0  0  0  0  0  0  0  0  0
  -26.2890  -31.7610   25.1750 C   0  0  1  0  0  0  0  0  0  0  0  0
  -25.1730  -31.5210   26.2170 C   0  0  0  0  0  1  0  0  0  0  0  0
  -26.8920  -30.3860   24.8020 C   0  0  0  0  0  1  0  0  0  0  0  0
  -27.4170  -32.5670   25.8600 C   0  0  0  0  0  1  0  0  0  0  0  0
  1 50  1  0
  1  3  1  0
  3  5  2  0
  4 19  1  0
  4  2  2  0
  5  2  1  0
  5  8  1  0
  6  7  2  0
  6  3  1  0
  7  4  1  0
  9  6  1  0
 10  7  1  0
 11 19  1  0
 12 17  1  0
 13 14  1  0
 13 12  1  0
 15 14  1  0
 15 24  1  0
 15 16  1  0
 17 11  1  0
 17 16  1  0
 18 11  2  0
 19 20  1  0
 21 22  2  0
 22 41  1  0
 23 22  1  0
 23 26  1  0
 24 21  1  0
 24 25  1  0
 25 23  2  0
 26 27  1  0
 27 28  2  0
 29 32  1  0
 29 28  1  0
 30 29  2  0
 31 30  1  0
 31 26  2  0
 32 33  1  0
 33 34  1  0
 34 35  2  0
 36 35  1  0
 36 40  1  0
 37 36  2  0
 38 33  2  0
 38 37  1  0
 39 38  1  0
 41 42  1  0
 42 45  1  0
 42 44  1  0
 43 41  2  0
 46 47  1  0
 46 21  1  0
 48 46  1  0
 49 50  1  0
 50 51  1  1
 52 50  1  0
 52 53  1  0
 53 54  1  0
 55 53  1  0
 55 56  1  0
 57 68  2  0
 58 56  1  0
 58 63  1  0
 59 67  1  0
 59 69  1  0
 60 66  1  0
 60 62  1  0
 61 67  1  0
 62 63  2  0
 62 61  1  0
 64 58  2  0
 65 64  1  0
 65 60  2  0
 66 59  1  0
 67 57  1  0
 69 71  2  0
 70 69  1  0
 72 70  1  0
 73 82  2  0
 73 78  1  0
 74 70  1  0
 74 78  1  0
 75 74  1  0
 76 77  1  0
 76 75  1  0
 77 73  1  0
 78 79  2  0
 79 80  1  0
 81 80  2  0
 82 81  1  0
 83 57  1  0
 83 84  1  0
 83 93  1  0
 84 87  1  0
 85 89  1  0
 85 84  1  0
 86 85  2  0
 89 88  1  0
 91 89  1  0
 91 92  1  0
 91 90  1  0
 93 96  1  1
 93 94  1  0
 95 93  1  0
M  ISO  4  11 100  19 100  55 101  56 101
M  END
>  <TORSDO>  (60) 
F 21

>  <SCORE>  (60) 
-13.757

>  <name>  (60) 
59

>  <ligand_id>  (60) 
59

>  <original_smiles>  (60) 
[H]c1c([H])c([H])c2c(c1[H])C([H])([H])C([H])([H])C([H])([H])C2([H])N([H])C(=O)C1([H])N(C(=O)C([H])(N([H])C(=O)C([H])(N([H])C([H])([H])[H])C([H])([H])[H])C(C([H])([H])[H])(C([H])([H])[H])C([H])([H])[H])C([H])([H])c2c([H])c(OC([H])([H])C([H])(F)C([H])([H])[N+]([H])(C([H])([H])[H])C([H])([H])c3c(F)c([H])c(N([H])C(=O)N4C([H])([H])C([H])([H])C([H])([H])C([H])(n5nc(-c6c([H])c([H])c(Oc7c([H])c([H])c(F)c([H])c7F)c([H])c6[H])c(C(=O)N([H])[H])c5N([H])[H])C4([H])[H])c(F)c3F)c([H])c([H])c2C1([H])[H]

>  <smiles>  (60) 
[H]c1c([H])c([H])c2c(c1[H])C([H])([H])C([H])([H])C([H])([H])C2([H])N([H])C(=O)C1([H])N(C(=O)C([H])(N([H])C(=O)C([H])(N([H])C([H])([H])[H])C([H])([H])[H])C(C([H])([H])[H])(C([H])([H])[H])C([H])([H])[H])C([H])([H])c2c([H])c(OC([H])([H])C([H])(F)C([H])([H])[N+]([H])(C([H])([H])[H])C([H])([H])c3c(F)c([H])c(N([H])C(=O)N4C([H])([H])C([H])([H])C([H])([H])C([H])(n5nc(-c6c([H])c([H])c(Oc7c([H])c([H])c(F)c([H])c7F)c([H])c6[H])c(C(=O)N([H])[H])c5N([H])[H])C4([H])[H])c(F)c3F)c([H])c([H])c2C1([H])[H]

$$$$
60:0:0
     RDKit          3D

 96104  0  0  1  0  0  0  0  0999 V2000
  -31.3620  -19.6650   19.3110 C   0  0  0  0  0  3  0  0  0  0  0  0
  -31.4660  -18.2500   19.5370 C   0  0  0  0  0  3  0  0  0  0  0  0
  -29.2340  -18.2620   20.4090 C   0  0  0  0  0  3  0  0  0  0  0  0
  -30.2030  -20.4300   19.6450 C   0  0  0  0  0  0  0  0  0  0  0  0
  -29.1180  -19.6730   20.1870 C   0  0  0  0  0  0  0  0  0  0  0  0
  -30.4030  -17.5070   20.1210 C   0  0  0  0  0  0  0  0  0  0  0  0
  -31.2060  -14.9980   20.1000 C   0  0  0  0  0  0  0  0  0  0  0  0
  -31.0580  -12.6200   19.3540 C   0  0  0  0  0  2  0  0  0  0  0  0
  -30.1510  -12.5660   18.1050 C   0  0  0  0  0  2  0  0  0  0  0  0
  -28.6650  -12.4650   18.5040 C   0  0  0  0  0  2  0  0  0  0  0  0
  -28.2720  -13.5010   19.5920 C   0  0  0  0  0  3  0  0  0  0  0  0
  -29.2890  -13.4770   20.7540 C   0  0  0  0  0  2  0  0  0  0  0  0
  -30.6170  -13.7600   20.1840 N   0  0  0  0  0  0  0  0  0  0  0  0
  -32.3560  -15.1280   19.6640 O   0  0  0  0  0  0  0  0  0  0  0  0
  -30.3950  -16.0650   20.4170 N   0  0  0  0  0  0  0  0  0  0  0  0
  -29.5500  -15.7560   20.8770 H   0  0  0  0  0  0  0  0  0  0  0  0
  -25.9160  -14.2490   20.2900 C   0  0  0  0  0  0  0  0  0  0  0  0
  -24.8000  -13.5430   20.6470 C   0  0  0  0  0  0  0  0  0  0  0  0
  -25.1740  -12.1640   20.6080 C   0  0  0  0  0  0  0  0  0  0  0  0
  -26.9030  -13.3050   20.0590 N   0  0  0  0  0  0  0  0  0  0  0  0
  -26.4620  -12.0460   20.3080 N   0  0  0  0  0  0  0  0  0  0  0  0
  -24.3680  -10.9500   20.7840 C   0  0  0  0  0  0  0  0  0  0  0  0
  -24.7750   -9.9120   21.6530 C   0  0  0  0  0  3  0  0  0  0  0  0
  -23.9740   -8.7640   21.8210 C   0  0  0  0  0  3  0  0  0  0  0  0
  -22.7510   -8.6440   21.1190 C   0  0  0  0  0  0  0  0  0  0  0  0
  -22.3590   -9.6690   20.2420 C   0  0  0  0  0  3  0  0  0  0  0  0
  -23.1590  -10.8110   20.0730 C   0  0  0  0  0  3  0  0  0  0  0  0
  -21.9210   -7.5510   21.1990 O   0  0  0  0  0  0  0  0  0  0  0  0
  -21.9510   -6.7030   22.2750 C   0  0  0  0  0  0  0  0  0  0  0  0
  -21.7460   -7.1660   23.5940 C   0  0  0  0  0  3  0  0  0  0  0  0
  -21.7160   -6.2500   24.6640 C   0  0  0  0  0  3  0  0  0  0  0  0
  -21.8790   -4.8740   24.4190 C   0  0  0  0  0  0  0  0  0  0  0  0
  -22.0770   -4.4100   23.1070 C   0  0  0  0  0  3  0  0  0  0  0  0
  -22.1100   -5.3230   22.0380 C   0  0  0  0  0  0  0  0  0  0  0  0
  -22.2800   -4.8700   20.7730 F   0  0  0  0  0  0  0  0  0  0  0  0
  -21.8410   -3.9930   25.4460 F   0  0  0  0  0  0  0  0  0  0  0  0
  -23.4330  -14.1070   20.9130 C   0  0  0  0  0  0  0  0  0  0  0  0
  -22.6620  -13.4570   21.7790 N   0  0  0  0  0  0  0  0  0  0  0  0
  -23.0610  -15.1590   20.3930 O   0  0  0  0  0  0  0  0  0  0  0  0
  -22.9760  -12.6050   22.2170 H   0  0  0  0  0  0  0  0  0  0  0  0
  -21.7470  -13.8180   22.0060 H   0  0  0  0  0  0  0  0  0  0  0  0
  -26.1670  -15.6080   20.1210 N   0  0  0  0  0  0  0  0  0  0  0  0
  -25.4320  -16.3000   20.2190 H   0  0  0  0  0  0  0  0  0  0  0  0
  -27.0260  -15.9910   19.7470 H   0  0  0  0  0  0  0  0  0  0  0  0
  -27.8260  -20.3760   20.6070 C   0  0  1  0  0  0  0  0  0  0  0  0
  -26.7950  -19.5340   20.6840 F   0  0  0  0  0  0  0  0  0  0  0  0
  -27.9990  -20.9390   21.8050 F   0  0  0  0  0  0  0  0  0  0  0  0
  -27.5040  -21.3230   19.7260 F   0  0  0  0  0  0  0  0  0  0  0  0
  -30.1940  -22.0270   19.6330 C   0  0  0  0  0  2  0  0  0  0  0  0
  -29.5020  -22.8410   18.5470 N   0  0  0  0  0  4  0  0  0  0  0  0
  -29.0550  -22.1590   17.9550 H   0  0  0  0  0  0  0  0  0  0  0  0
  -30.2170  -23.2680   17.9760 H   0  0  0  0  0  0  0  0  0  0  0  0
  -27.2950  -23.7890   17.8650 C   0  0  0  0  0  1  0  0  0  0  0  0
  -28.4310  -23.8890   18.8920 C   0  0  0  0  0  3  0  0  0  0  0  0
  -28.8160  -25.4190   19.2850 C   0  0  0  0  0  2  0  0  0  0  0  0
  -28.4850  -26.6590   18.5270 O   0  0  0  0  0  0  0  0  0  0  0  0
  -25.2040  -31.0990   23.2750 C   0  0  0  0  0  0  0  0  0  0  0  0
  -27.4150  -27.4900   18.9050 C   0  0  0  0  0  0  0  0  0  0  0  0
  -23.8500  -30.2770   21.3830 C   0  0  0  0  0  3  0  0  0  0  0  0
  -25.1470  -29.1460   19.4900 C   0  0  0  0  0  0  0  0  0  0  0  0
  -26.3950  -30.5250   21.1490 C   0  0  0  0  0  2  0  0  0  0  0  0
  -26.3660  -29.3850   20.1360 C   0  0  0  0  0  0  0  0  0  0  0  0
  -27.5060  -28.5750   19.8340 C   0  0  0  0  0  3  0  0  0  0  0  0
  -26.1810  -27.3240   18.2430 C   0  0  0  0  0  3  0  0  0  0  0  0
  -25.0580  -28.1230   18.5350 C   0  0  0  0  0  3  0  0  0  0  0  0
  -23.9660  -30.0220   19.8570 C   0  0  0  0  0  2  0  0  0  0  0  0
  -25.1720  -30.6350   21.9910 N   0  0  0  0  0  0  0  0  0  0  0  0
  -24.1630  -31.2540   23.9300 O   0  0  0  0  0  0  0  0  0  0  0  0
  -23.1830  -29.0510   22.0490 C   0  0  0  0  0  0  0  0  0  0  0  0
  -21.8510  -28.9390   21.9130 N   0  0  0  0  0  0  0  0  0  0  0  0
  -23.8630  -28.2160   22.6520 O   0  0  0  0  0  0  0  0  0  0  0  0
  -21.3660  -29.6730   21.4130 H   0  0  0  0  0  0  0  0  0  0  0  0
  -18.4600  -27.7000   22.1120 C   0  0  0  0  0  0  0  0  0  0  0  0
  -21.0220  -27.8460   22.4240 C   0  0  0  0  0  3  0  0  0  0  0  0
  -21.1020  -26.6080   21.5010 C   0  0  0  0  0  2  0  0  0  0  0  0
  -19.9930  -26.5670   20.4450 C   0  0  0  0  0  2  0  0  0  0  0  0
  -18.6150  -26.5640   21.1140 C   0  0  0  0  0  2  0  0  0  0  0  0
  -19.5910  -28.3100   22.7150 C   0  0  0  0  0  0  0  0  0  0  0  0
  -19.3950  -29.3810   23.6120 C   0  0  0  0  0  3  0  0  0  0  0  0
  -18.0990  -29.8410   23.9140 C   0  0  0  0  0  3  0  0  0  0  0  0
  -16.9810  -29.2200   23.3290 C   0  0  0  0  0  3  0  0  0  0  0  0
  -17.1620  -28.1510   22.4320 C   0  0  0  0  0  3  0  0  0  0  0  0
  -26.5480  -31.4780   23.9700 C   0  0  0  0  0  3  0  0  0  0  0  0
  -26.3230  -32.7330   24.7010 N   0  0  0  0  0  0  0  0  0  0  0  0
  -26.7250  -33.9390   24.2850 C   0  0  0  0  0  0  0  0  0  0  0  0
  -27.3930  -34.1080   23.2620 O   0  0  0  0  0  0  0  0  0  0  0  0
  -25.7350  -32.6770   25.5180 H   0  0  0  0  0  0  0  0  0  0  0  0
  -25.1240  -35.8700   24.4980 C   0  0  0  0  0  1  0  0  0  0  0  0
  -26.3230  -35.1550   25.1420 C   0  0  0  0  0  3  0  0  0  0  0  0
  -28.4990  -35.6090   26.1850 C   0  0  0  0  0  1  0  0  0  0  0  0
  -27.4210  -36.1230   25.3430 N   0  0  0  0  0  0  0  0  0  0  0  0
  -27.0750  -36.9810   25.7610 H   0  0  0  0  0  0  0  0  0  0  0  0
  -27.0780  -30.3560   24.9470 C   0  0  1  0  0  0  0  0  0  0  0  0
  -26.0230  -29.8720   25.9690 C   0  0  0  0  0  1  0  0  0  0  0  0
  -27.5640  -29.1210   24.1490 C   0  0  0  0  0  1  0  0  0  0  0  0
  -28.2990  -30.8850   25.7350 C   0  0  0  0  0  1  0  0  0  0  0  0
  1  2  2  0
  1  4  1  0
  2  6  1  0
  4  5  2  0
  5  3  1  0
  5 45  1  0
  6  3  2  0
  6 15  1  0
  7 13  1  0
  7 15  1  0
  8 13  1  0
  9 10  1  0
  9  8  1  0
 11 10  1  0
 11 20  1  0
 11 12  1  0
 13 12  1  0
 14  7  2  0
 15 16  1  0
 17 18  2  0
 18 37  1  0
 19 18  1  0
 19 22  1  0
 20 17  1  0
 20 21  1  0
 21 19  2  0
 22 23  1  0
 23 24  2  0
 25 28  1  0
 25 24  1  0
 26 25  2  0
 27 26  1  0
 27 22  2  0
 28 29  1  0
 29 30  1  0
 30 31  2  0
 32 31  1  0
 32 36  1  0
 33 32  2  0
 34 29  2  0
 34 33  1  0
 35 34  1  0
 37 38  1  0
 38 41  1  0
 38 40  1  0
 39 37  2  0
 42 43  1  0
 42 17  1  0
 44 42  1  0
 45 46  1  1
 45 47  1  0
 48 45  1  0
 49  4  1  0
 50 54  1  0
 50 49  1  0
 51 50  1  0
 52 50  1  0
 54 53  1  0
 54 55  1  0
 56 58  1  0
 56 55  1  0
 57 68  2  0
 58 63  1  0
 59 67  1  0
 59 69  1  0
 60 66  1  0
 60 62  1  0
 61 67  1  0
 62 61  1  0
 63 62  2  0
 64 65  1  0
 64 58  2  0
 65 60  2  0
 66 59  1  0
 67 57  1  0
 69 71  2  0
 70 69  1  0
 72 70  1  0
 73 82  2  0
 73 78  1  0
 74 70  1  0
 74 78  1  0
 75 74  1  0
 76 77  1  0
 76 75  1  0
 77 73  1  0
 78 79  2  0
 79 80  1  0
 81 80  2  0
 82 81  1  0
 83 57  1  0
 83 84  1  0
 83 93  1  0
 84 87  1  0
 85 84  1  0
 85 89  1  0
 86 85  2  0
 89 88  1  0
 89 91  1  0
 91 92  1  0
 91 90  1  0
 93 96  1  1
 93 94  1  0
 95 93  1  0
M  ISO  4   7 100  15 100  55 101  56 101
M  END
>  <TORSDO>  (61) 
F 21

>  <SCORE>  (61) 
-9.659

>  <name>  (61) 
60

>  <ligand_id>  (61) 
60

>  <original_smiles>  (61) 
[H]c1c([H])c([H])c2c(c1[H])C([H])([H])C([H])([H])C([H])([H])C2([H])N([H])C(=O)C1([H])N(C(=O)C([H])(N([H])C(=O)C([H])(N([H])C([H])([H])[H])C([H])([H])[H])C(C([H])([H])[H])(C([H])([H])[H])C([H])([H])[H])C([H])([H])c2c([H])c(OC([H])([H])C([H])(C([H])([H])[H])[N+]([H])([H])C([H])([H])c3c([H])c([H])c(N([H])C(=O)N4C([H])([H])C([H])([H])C([H])([H])C([H])(n5nc(-c6c([H])c([H])c(Oc7c([H])c([H])c(F)c([H])c7F)c([H])c6[H])c(C(=O)N([H])[H])c5N([H])[H])C4([H])[H])c([H])c3C(F)(F)F)c([H])c([H])c2C1([H])[H]

>  <smiles>  (61) 
[H]c1c([H])c([H])c2c(c1[H])C([H])([H])C([H])([H])C([H])([H])C2([H])N([H])C(=O)C1([H])N(C(=O)C([H])(N([H])C(=O)C([H])(N([H])C([H])([H])[H])C([H])([H])[H])C(C([H])([H])[H])(C([H])([H])[H])C([H])([H])[H])C([H])([H])c2c([H])c(OC([H])([H])C([H])(C([H])([H])[H])[N+]([H])([H])C([H])([H])c3c([H])c([H])c(N([H])C(=O)N4C([H])([H])C([H])([H])C([H])([H])C([H])(n5nc(-c6c([H])c([H])c(Oc7c([H])c([H])c(F)c([H])c7F)c([H])c6[H])c(C(=O)N([H])[H])c5N([H])[H])C4([H])[H])c([H])c3C(F)(F)F)c([H])c([H])c2C1([H])[H]

$$$$
61:0:0
     RDKit          3D

 92100  0  0  1  0  0  0  0  0999 V2000
  -28.4480  -22.9290   20.4900 C   0  0  0  0  0  0  0  0  0  0  0  0
  -29.4990  -22.0960   20.5110 N   0  0  0  0  0  0  0  0  0  0  0  0
  -27.3480  -22.6020   20.9420 O   0  0  0  0  0  0  0  0  0  0  0  0
  -30.3640  -22.4210   20.1000 H   0  0  0  0  0  0  0  0  0  0  0  0
  -29.4870  -20.7010   20.9870 C   0  0  0  0  0  2  0  0  0  0  0  0
  -30.7460  -14.5150   20.1920 C   0  0  0  0  0  0  0  0  0  0  0  0
  -30.4160  -12.3410   19.1020 C   0  0  0  0  0  2  0  0  0  0  0  0
  -29.4440  -12.5360   17.9200 C   0  0  0  0  0  2  0  0  0  0  0  0
  -27.9800  -12.4210   18.3920 C   0  0  0  0  0  2  0  0  0  0  0  0
  -27.6750  -13.2590   19.6640 C   0  0  0  0  0  3  0  0  0  0  0  0
  -28.7660  -13.0630   20.7410 C   0  0  0  0  0  2  0  0  0  0  0  0
  -30.0670  -13.3410   20.1180 N   0  0  0  0  0  0  0  0  0  0  0  0
  -31.9250  -14.6340   19.8440 O   0  0  0  0  0  0  0  0  0  0  0  0
  -29.0690  -19.6880   19.9000 C   0  0  0  0  0  0  0  0  0  0  0  0
  -28.5610  -17.3600   19.2190 C   0  0  0  0  0  2  0  0  0  0  0  0
  -29.2590  -17.7310   21.5000 C   0  0  0  0  0  2  0  0  0  0  0  0
  -29.6730  -16.3110   19.0490 C   0  0  0  0  0  2  0  0  0  0  0  0
  -30.3250  -16.6100   21.3580 C   0  0  0  0  0  2  0  0  0  0  0  0
  -28.9860  -18.3630   20.1990 N   0  0  0  0  0  0  0  0  0  0  0  0
  -29.9750  -15.6240   20.3190 N   0  0  0  0  0  0  0  0  0  0  0  0
  -28.8230  -20.1160   18.7650 O   0  0  0  0  0  0  0  0  0  0  0  0
  -25.3020  -13.8620   20.4520 C   0  0  0  0  0  0  0  0  0  0  0  0
  -24.2430  -13.0890   20.8400 C   0  0  0  0  0  0  0  0  0  0  0  0
  -24.7020  -11.7370   20.7850 C   0  0  0  0  0  0  0  0  0  0  0  0
  -26.3390  -12.9820   20.1850 N   0  0  0  0  0  0  0  0  0  0  0  0
  -25.9840  -11.6990   20.4460 N   0  0  0  0  0  0  0  0  0  0  0  0
  -23.9790  -10.4740   20.9810 C   0  0  0  0  0  0  0  0  0  0  0  0
  -24.4210   -9.5090   21.9140 C   0  0  0  0  0  3  0  0  0  0  0  0
  -23.7000   -8.3100   22.0980 C   0  0  0  0  0  3  0  0  0  0  0  0
  -22.5220   -8.0690   21.3510 C   0  0  0  0  0  0  0  0  0  0  0  0
  -22.1010   -9.0220   20.4070 C   0  0  0  0  0  3  0  0  0  0  0  0
  -22.8230  -10.2130   20.2210 C   0  0  0  0  0  3  0  0  0  0  0  0
  -21.7710   -6.9230   21.4450 O   0  0  0  0  0  0  0  0  0  0  0  0
  -21.7090   -6.1950   22.6060 C   0  0  0  0  0  0  0  0  0  0  0  0
  -21.2590   -6.7630   23.8180 C   0  0  0  0  0  3  0  0  0  0  0  0
  -21.1470   -5.9620   24.9720 C   0  0  0  0  0  3  0  0  0  0  0  0
  -21.4740   -4.5940   24.9160 C   0  0  0  0  0  0  0  0  0  0  0  0
  -21.9180   -4.0250   23.7080 C   0  0  0  0  0  3  0  0  0  0  0  0
  -22.0340   -4.8240   22.5570 C   0  0  0  0  0  0  0  0  0  0  0  0
  -22.4410   -4.2670   21.3910 F   0  0  0  0  0  0  0  0  0  0  0  0
  -21.3580   -3.8230   26.0220 F   0  0  0  0  0  0  0  0  0  0  0  0
  -22.8540  -13.5660   21.1540 C   0  0  0  0  0  0  0  0  0  0  0  0
  -22.1490  -12.8610   22.0320 N   0  0  0  0  0  0  0  0  0  0  0  0
  -22.4040  -14.5960   20.6570 O   0  0  0  0  0  0  0  0  0  0  0  0
  -22.5290  -12.0260   22.4550 H   0  0  0  0  0  0  0  0  0  0  0  0
  -21.2190  -13.1620   22.2880 H   0  0  0  0  0  0  0  0  0  0  0  0
  -25.4630  -15.2330   20.2850 N   0  0  0  0  0  0  0  0  0  0  0  0
  -24.7040  -15.8910   20.4260 H   0  0  0  0  0  0  0  0  0  0  0  0
  -26.3180  -15.6720   19.9710 H   0  0  0  0  0  0  0  0  0  0  0  0
  -28.6400  -24.3180   19.8610 C   0  0  0  0  0  2  0  0  0  0  0  0
  -28.3080  -25.4720   20.8290 C   0  0  0  0  0  2  0  0  0  0  0  0
  -28.3950  -26.7500   20.1830 O   0  0  0  0  0  0  0  0  0  0  0  0
  -24.5710  -31.8960   23.2350 C   0  0  0  0  0  0  0  0  0  0  0  0
  -27.2260  -27.4720   20.1690 C   0  0  0  0  0  0  0  0  0  0  0  0
  -23.3660  -30.4860   21.5960 C   0  0  0  0  0  3  0  0  0  0  0  0
  -24.8230  -28.9520   20.1730 C   0  0  0  0  0  0  0  0  0  0  0  0
  -25.8860  -30.8620   21.3900 C   0  0  0  0  0  2  0  0  0  0  0  0
  -25.9780  -29.4910   20.7530 C   0  0  0  0  0  0  0  0  0  0  0  0
  -27.1850  -28.7600   20.7450 C   0  0  0  0  0  3  0  0  0  0  0  0
  -26.0570  -26.9400   19.5840 C   0  0  0  0  0  3  0  0  0  0  0  0
  -24.8570  -27.6750   19.5840 C   0  0  0  0  0  3  0  0  0  0  0  0
  -23.5750  -29.8030   20.2180 C   0  0  0  0  0  2  0  0  0  0  0  0
  -24.6260  -31.0950   22.1330 N   0  0  0  0  0  0  0  0  0  0  0  0
  -23.4890  -32.1640   23.7780 O   0  0  0  0  0  0  0  0  0  0  0  0
  -22.7190  -29.4660   22.5600 C   0  0  0  0  0  0  0  0  0  0  0  0
  -21.3930  -29.2860   22.4370 N   0  0  0  0  0  0  0  0  0  0  0  0
  -23.4060  -28.8390   23.3700 O   0  0  0  0  0  0  0  0  0  0  0  0
  -20.9020  -29.8430   21.7530 H   0  0  0  0  0  0  0  0  0  0  0  0
  -18.0200  -28.1040   22.9500 C   0  0  0  0  0  0  0  0  0  0  0  0
  -20.5800  -28.3500   23.2110 C   0  0  0  0  0  3  0  0  0  0  0  0
  -20.6750  -26.9200   22.6300 C   0  0  0  0  0  2  0  0  0  0  0  0
  -19.5660  -26.6040   21.6200 C   0  0  0  0  0  2  0  0  0  0  0  0
  -18.1880  -26.7550   22.2700 C   0  0  0  0  0  2  0  0  0  0  0  0
  -19.1430  -28.8590   23.3770 C   0  0  0  0  0  0  0  0  0  0  0  0
  -18.9340  -30.1230   23.9710 C   0  0  0  0  0  3  0  0  0  0  0  0
  -17.6330  -30.6300   24.1440 C   0  0  0  0  0  3  0  0  0  0  0  0
  -16.5230  -29.8710   23.7340 C   0  0  0  0  0  3  0  0  0  0  0  0
  -16.7170  -28.6100   23.1430 C   0  0  0  0  0  3  0  0  0  0  0  0
  -25.8570  -32.5300   23.8520 C   0  0  0  0  0  3  0  0  0  0  0  0
  -26.3780  -31.7630   25.1290 C   0  0  1  0  0  0  0  0  0  0  0  0
  -25.2880  -31.5280   26.2000 C   0  0  0  0  0  1  0  0  0  0  0  0
  -26.9610  -30.3860   24.7370 C   0  0  0  0  0  1  0  0  0  0  0  0
  -27.5280  -32.5610   25.7870 C   0  0  0  0  0  1  0  0  0  0  0  0
  -25.5490  -33.9280   24.1740 N   0  0  0  0  0  0  0  0  0  0  0  0
  -25.8910  -34.9760   23.4140 C   0  0  0  0  0  0  0  0  0  0  0  0
  -26.5700  -34.8670   22.3880 O   0  0  0  0  0  0  0  0  0  0  0  0
  -24.9490  -34.0890   24.9700 H   0  0  0  0  0  0  0  0  0  0  0  0
  -24.1740  -36.7730   23.0280 C   0  0  0  0  0  1  0  0  0  0  0  0
  -25.4010  -36.3670   23.8610 C   0  0  0  0  0  3  0  0  0  0  0  0
  -27.5240  -37.2450   24.7260 C   0  0  0  0  0  1  0  0  0  0  0  0
  -26.4380  -37.4160   23.7640 N   0  0  0  0  0  0  0  0  0  0  0  0
  -26.0330  -38.3380   23.9040 H   0  0  0  0  0  0  0  0  0  0  0  0
  1  2  1  0
  1  3  2  0
  2  5  1  0
  4  2  1  0
  6 20  1  0
  7 12  1  0
  8  9  1  0
  8  7  1  0
 10  9  1  0
 10 25  1  0
 10 11  1  0
 12  6  1  0
 12 11  1  0
 13  6  2  0
 14 19  1  0
 14  5  1  0
 15 19  1  0
 17 15  1  0
 17 20  1  0
 18 16  1  0
 19 16  1  0
 20 18  1  0
 21 14  2  0
 22 23  2  0
 23 42  1  0
 24 23  1  0
 24 27  1  0
 25 26  1  0
 25 22  1  0
 26 24  2  0
 27 28  1  0
 28 29  2  0
 30 33  1  0
 30 29  1  0
 31 30  2  0
 32 31  1  0
 32 27  2  0
 33 34  1  0
 34 35  1  0
 35 36  2  0
 37 36  1  0
 37 41  1  0
 38 37  2  0
 39 34  2  0
 39 38  1  0
 40 39  1  0
 42 43  1  0
 43 46  1  0
 43 45  1  0
 44 42  2  0
 47 48  1  0
 47 22  1  0
 49 47  1  0
 50  1  1  0
 50 51  1  0
 52 51  1  0
 53 64  2  0
 54 52  1  0
 54 59  1  0
 55 63  1  0
 55 65  1  0
 56 62  1  0
 56 58  1  0
 57 63  1  0
 58 57  1  0
 59 58  2  0
 60 54  2  0
 61 60  1  0
 61 56  2  0
 62 55  1  0
 63 53  1  0
 65 67  2  0
 66 65  1  0
 68 66  1  0
 69 78  2  0
 69 74  1  0
 70 66  1  0
 70 74  1  0
 71 70  1  0
 72 73  1  0
 72 71  1  0
 73 69  1  0
 74 75  2  0
 75 76  1  0
 77 76  2  0
 78 77  1  0
 79 53  1  0
 79 84  1  0
 79 80  1  0
 80 83  1  1
 80 81  1  0
 82 80  1  0
 84 87  1  0
 85 89  1  0
 85 84  1  0
 86 85  2  0
 89 88  1  0
 91 89  1  0
 91 92  1  0
 91 90  1  0
M  ISO  4   6 100  20 100  51 101  52 101
M  END
>  <TORSDO>  (62) 
F 19

>  <SCORE>  (62) 
-14.085

>  <name>  (62) 
61

>  <ligand_id>  (62) 
61

>  <original_smiles>  (62) 
[H]c1c([H])c([H])c2c(c1[H])C([H])([H])C([H])([H])C([H])([H])C2([H])N([H])C(=O)C1([H])N(C(=O)C([H])(N([H])C(=O)C([H])(N([H])C([H])([H])[H])C([H])([H])[H])C(C([H])([H])[H])(C([H])([H])[H])C([H])([H])[H])C([H])([H])c2c([H])c(OC([H])([H])C([H])([H])C(=O)N([H])C([H])([H])C(=O)N3C([H])([H])C([H])([H])N(C(=O)N4C([H])([H])C([H])([H])C([H])([H])C([H])(n5nc(-c6c([H])c([H])c(Oc7c([H])c([H])c(F)c([H])c7F)c([H])c6[H])c(C(=O)N([H])[H])c5N([H])[H])C4([H])[H])C([H])([H])C3([H])[H])c([H])c([H])c2C1([H])[H]

>  <smiles>  (62) 
[H]c1c([H])c([H])c2c(c1[H])C([H])([H])C([H])([H])C([H])([H])C2([H])N([H])C(=O)C1([H])N(C(=O)C([H])(N([H])C(=O)C([H])(N([H])C([H])([H])[H])C([H])([H])[H])C(C([H])([H])[H])(C([H])([H])[H])C([H])([H])[H])C([H])([H])c2c([H])c(OC([H])([H])C([H])([H])C(=O)N([H])C([H])([H])C(=O)N3C([H])([H])C([H])([H])N(C(=O)N4C([H])([H])C([H])([H])C([H])([H])C([H])(n5nc(-c6c([H])c([H])c(Oc7c([H])c([H])c(F)c([H])c7F)c([H])c6[H])c(C(=O)N([H])[H])c5N([H])[H])C4([H])[H])C([H])([H])C3([H])[H])c([H])c([H])c2C1([H])[H]

$$$$
62:0:0
     RDKit          3D

 98107  0  0  1  0  0  0  0  0999 V2000
  -29.8170  -19.6080   19.5920 C   0  0  0  0  0  3  0  0  0  0  0  0
  -27.4550  -20.0120   19.7500 C   0  0  0  0  0  3  0  0  0  0  0  0
  -29.6270  -18.1820   19.7880 C   0  0  0  0  0  0  0  0  0  0  0  0
  -28.7450  -20.5760   19.5980 C   0  0  0  0  0  0  0  0  0  0  0  0
  -27.2240  -18.6300   19.8800 C   0  0  0  0  0  0  0  0  0  0  0  0
  -28.2940  -17.7250   19.9020 C   0  0  0  0  0  0  0  0  0  0  0  0
  -25.9500  -18.1830   20.0000 F   0  0  0  0  0  0  0  0  0  0  0  0
  -28.0400  -16.4040   20.0680 F   0  0  0  0  0  0  0  0  0  0  0  0
  -28.4980  -23.0160   20.4670 C   0  0  0  0  0  2  0  0  0  0  0  0
  -29.7490  -22.8890   18.8060 C   0  0  0  0  0  2  0  0  0  0  0  0
  -28.9160  -24.0880   19.4020 C   0  0  0  0  0  3  0  0  0  0  0  0
  -28.7360  -22.0260   19.4050 N   0  0  0  0  0  0  0  0  0  0  0  0
  -29.6080  -25.4940   19.6630 C   0  0  0  0  0  2  0  0  0  0  0  0
  -29.0760  -26.5550   20.5310 O   0  0  0  0  0  0  0  0  0  0  0  0
  -24.7100  -31.5800   23.1300 C   0  0  0  0  0  0  0  0  0  0  0  0
  -27.8940  -27.2670   20.3080 C   0  0  0  0  0  0  0  0  0  0  0  0
  -23.7520  -30.1170   21.3850 C   0  0  0  0  0  3  0  0  0  0  0  0
  -25.4270  -28.6880   20.0730 C   0  0  0  0  0  0  0  0  0  0  0  0
  -26.2630  -30.6230   21.4210 C   0  0  0  0  0  2  0  0  0  0  0  0
  -26.4940  -29.2630   20.7760 C   0  0  0  0  0  0  0  0  0  0  0  0
  -27.7220  -28.5600   20.8880 C   0  0  0  0  0  3  0  0  0  0  0  0
  -26.8140  -26.7360   19.5720 C   0  0  0  0  0  3  0  0  0  0  0  0
  -25.5900  -27.4330   19.4600 C   0  0  0  0  0  3  0  0  0  0  0  0
  -24.1320  -29.4700   20.0220 C   0  0  0  0  0  2  0  0  0  0  0  0
  -24.9200  -30.7920   22.0370 N   0  0  0  0  0  0  0  0  0  0  0  0
  -23.5690  -31.7770   23.5720 O   0  0  0  0  0  0  0  0  0  0  0  0
  -23.0850  -29.0490   22.2820 C   0  0  0  0  0  0  0  0  0  0  0  0
  -21.7650  -28.8650   22.1210 N   0  0  0  0  0  0  0  0  0  0  0  0
  -23.7570  -28.3890   23.0810 O   0  0  0  0  0  0  0  0  0  0  0  0
  -21.2830  -29.4620   21.4640 H   0  0  0  0  0  0  0  0  0  0  0  0
  -18.3740  -27.7030   22.5800 C   0  0  0  0  0  0  0  0  0  0  0  0
  -20.9410  -27.8780   22.8200 C   0  0  0  0  0  3  0  0  0  0  0  0
  -20.9970  -26.5000   22.1170 C   0  0  0  0  0  2  0  0  0  0  0  0
  -19.8680  -26.2940   21.1010 C   0  0  0  0  0  2  0  0  0  0  0  0
  -18.5000  -26.4150   21.7850 C   0  0  0  0  0  2  0  0  0  0  0  0
  -19.5170  -28.3970   23.0500 C   0  0  0  0  0  0  0  0  0  0  0  0
  -19.3440  -29.6120   23.7480 C   0  0  0  0  0  3  0  0  0  0  0  0
  -18.0550  -30.1280   23.9850 C   0  0  0  0  0  3  0  0  0  0  0  0
  -16.9260  -29.4260   23.5340 C   0  0  0  0  0  3  0  0  0  0  0  0
  -17.0830  -28.2120   22.8410 C   0  0  0  0  0  3  0  0  0  0  0  0
  -25.8900  -32.2910   23.8630 C   0  0  0  0  0  3  0  0  0  0  0  0
  -25.4700  -33.6730   24.1410 N   0  0  0  0  0  0  0  0  0  0  0  0
  -25.8020  -34.7350   23.3910 C   0  0  0  0  0  0  0  0  0  0  0  0
  -26.5560  -34.6560   22.4180 O   0  0  0  0  0  0  0  0  0  0  0  0
  -24.8020  -33.8020   24.8880 H   0  0  0  0  0  0  0  0  0  0  0  0
  -23.9870  -36.3980   22.8840 C   0  0  0  0  0  1  0  0  0  0  0  0
  -25.2000  -36.0990   23.7810 C   0  0  0  0  0  3  0  0  0  0  0  0
  -27.2120  -37.1410   24.7220 C   0  0  0  0  0  1  0  0  0  0  0  0
  -26.1690  -37.2140   23.7020 N   0  0  0  0  0  0  0  0  0  0  0  0
  -25.6990  -38.1090   23.7930 H   0  0  0  0  0  0  0  0  0  0  0  0
  -26.3210  -31.5650   25.1950 C   0  0  1  0  0  0  0  0  0  0  0  0
  -25.1420  -31.2710   26.1510 C   0  0  0  0  0  1  0  0  0  0  0  0
  -27.0200  -30.2220   24.8840 C   0  0  0  0  0  1  0  0  0  0  0  0
  -27.3530  -32.4310   25.9550 C   0  0  0  0  0  1  0  0  0  0  0  0
  -30.7650  -17.1090   20.0100 C   0  0  0  0  0  0  0  0  0  0  0  0
  -31.0370  -14.5120   19.8280 C   0  0  0  0  0  0  0  0  0  0  0  0
  -30.7620  -12.1390   19.1880 C   0  0  0  0  0  2  0  0  0  0  0  0
  -29.7940  -12.0490   17.9890 C   0  0  0  0  0  2  0  0  0  0  0  0
  -28.3350  -11.9620   18.4770 C   0  0  0  0  0  2  0  0  0  0  0  0
  -27.9960  -13.0340   19.5480 C   0  0  0  0  0  3  0  0  0  0  0  0
  -29.0870  -13.1090   20.6420 C   0  0  0  0  0  2  0  0  0  0  0  0
  -30.3760  -13.3250   19.9720 N   0  0  0  0  0  0  0  0  0  0  0  0
  -32.1860  -14.5400   19.3900 O   0  0  0  0  0  0  0  0  0  0  0  0
  -30.3240  -15.6610   20.0180 N   0  0  0  0  0  4  0  0  0  0  0  0
  -29.3830  -15.5060   20.3470 H   0  0  0  0  0  0  0  0  0  0  0  0
  -25.6940  -13.7680   20.4270 C   0  0  0  0  0  0  0  0  0  0  0  0
  -24.5990  -13.0560   20.8370 C   0  0  0  0  0  0  0  0  0  0  0  0
  -24.9650  -11.6790   20.7350 C   0  0  0  0  0  0  0  0  0  0  0  0
  -26.6610  -12.8280   20.1070 N   0  0  0  0  0  0  0  0  0  0  0  0
  -26.2300  -11.5640   20.3520 N   0  0  0  0  0  0  0  0  0  0  0  0
  -24.1660  -10.4600   20.9300 C   0  0  0  0  0  0  0  0  0  0  0  0
  -24.5490   -9.4640   21.8540 C   0  0  0  0  0  3  0  0  0  0  0  0
  -23.7520   -8.3120   22.0380 C   0  0  0  0  0  3  0  0  0  0  0  0
  -22.5590   -8.1470   21.2950 C   0  0  0  0  0  0  0  0  0  0  0  0
  -22.1930   -9.1320   20.3590 C   0  0  0  0  0  3  0  0  0  0  0  0
  -22.9900  -10.2750   20.1740 C   0  0  0  0  0  3  0  0  0  0  0  0
  -21.7370   -7.0490   21.3870 O   0  0  0  0  0  0  0  0  0  0  0  0
  -21.5960   -6.3540   22.5610 C   0  0  0  0  0  0  0  0  0  0  0  0
  -21.1250   -6.9710   23.7420 C   0  0  0  0  0  3  0  0  0  0  0  0
  -20.9280   -6.2030   24.9060 C   0  0  0  0  0  3  0  0  0  0  0  0
  -21.1940   -4.8210   24.8920 C   0  0  0  0  0  0  0  0  0  0  0  0
  -21.6600   -4.2050   23.7170 C   0  0  0  0  0  3  0  0  0  0  0  0
  -21.8570   -4.9690   22.5540 C   0  0  0  0  0  0  0  0  0  0  0  0
  -22.2840   -4.3650   21.4190 F   0  0  0  0  0  0  0  0  0  0  0  0
  -20.9960   -4.0820   26.0090 F   0  0  0  0  0  0  0  0  0  0  0  0
  -23.2550  -13.6170   21.2040 C   0  0  0  0  0  0  0  0  0  0  0  0
  -22.5490  -12.9600   22.1160 N   0  0  0  0  0  0  0  0  0  0  0  0
  -22.8410  -14.6660   20.7140 O   0  0  0  0  0  0  0  0  0  0  0  0
  -22.8940  -12.1070   22.5310 H   0  0  0  0  0  0  0  0  0  0  0  0
  -21.6470  -13.3150   22.4040 H   0  0  0  0  0  0  0  0  0  0  0  0
  -25.9440  -15.1290   20.2770 N   0  0  0  0  0  0  0  0  0  0  0  0
  -25.2390  -15.8320   20.4690 H   0  0  0  0  0  0  0  0  0  0  0  0
  -26.8020  -15.5210   19.9130 H   0  0  0  0  0  0  0  0  0  0  0  0
  -32.0950  -17.4250   19.2490 C   0  0  0  0  0  2  0  0  0  0  0  0
  -32.6980  -18.7060   19.6630 N   0  0  0  0  0  4  0  0  0  0  0  0
  -33.5340  -18.8610   19.1260 H   0  0  0  0  0  0  0  0  0  0  0  0
  -32.9570  -18.6840   20.6360 H   0  0  0  0  0  0  0  0  0  0  0  0
  -32.0660  -19.4750   19.5180 H   0  0  0  0  0  0  0  0  0  0  0  0
  1  4  2  0
  1  3  1  0
  2  5  2  0
  3  6  2  0
  3 55  1  0
  4  2  1  0
  5  6  1  0
  5  7  1  0
  6  8  1  0
 10 11  1  0
 10 12  1  0
 11 13  1  0
 11  9  1  0
 12  4  1  0
 12  9  1  0
 13 14  1  0
 15 26  2  0
 16 14  1  0
 16 21  1  0
 17 25  1  0
 17 27  1  0
 18 20  1  0
 19 25  1  0
 20 21  2  0
 20 19  1  0
 22 16  2  0
 23 22  1  0
 23 18  2  0
 24 18  1  0
 24 17  1  0
 25 15  1  0
 27 29  2  0
 28 27  1  0
 30 28  1  0
 31 40  2  0
 31 36  1  0
 32 28  1  0
 32 36  1  0
 33 32  1  0
 34 35  1  0
 34 33  1  0
 35 31  1  0
 36 37  2  0
 37 38  1  0
 39 38  2  0
 40 39  1  0
 41 15  1  0
 41 42  1  0
 41 51  1  0
 42 45  1  0
 43 47  1  0
 43 42  1  0
 44 43  2  0
 47 46  1  0
 49 47  1  0
 49 50  1  0
 49 48  1  0
 51 54  1  1
 51 52  1  0
 53 51  1  0
 55 64  2  0
 56 62  1  0
 56 64  1  0
 57 62  1  0
 58 59  1  0
 58 57  1  0
 60 59  1  0
 60 69  1  0
 60 61  1  0
 62 61  1  0
 63 56  2  0
 64 65  1  0
 66 67  2  0
 67 86  1  0
 68 67  1  0
 68 71  1  0
 69 70  1  0
 69 66  1  0
 70 68  2  0
 71 72  1  0
 72 73  2  0
 74 77  1  0
 74 73  1  0
 75 74  2  0
 76 75  1  0
 76 71  2  0
 77 78  1  0
 78 79  1  0
 79 80  2  0
 81 80  1  0
 81 85  1  0
 82 81  2  0
 83 78  2  0
 83 82  1  0
 84 83  1  0
 86 87  1  0
 87 90  1  0
 87 89  1  0
 88 86  2  0
 91 66  1  0
 91 92  1  0
 93 91  1  0
 94 95  1  0
 94 55  1  0
 95 97  1  0
 96 95  1  0
 98 95  1  0
M  ISO  4  13 101  14 101  56 100  64 100
M  END
>  <TORSDO>  (63) 
F 21

>  <SCORE>  (63) 
-12.962

>  <name>  (63) 
62

>  <ligand_id>  (63) 
62

>  <original_smiles>  (63) 
[H]c1c([H])c([H])c2c(c1[H])C([H])([H])C([H])([H])C([H])([H])C2([H])N([H])C(=O)C1([H])N(C(=O)C([H])(N([H])C(=O)C([H])(N([H])C([H])([H])[H])C([H])([H])[H])C(C([H])([H])[H])(C([H])([H])[H])C([H])([H])[H])C([H])([H])c2c([H])c(OC([H])([H])C3([H])C([H])([H])N(c4c([H])c(F)c(F)c(C([H])(N([H])C(=O)N5C([H])([H])C([H])([H])C([H])([H])C([H])(n6nc(-c7c([H])c([H])c(Oc8c([H])c([H])c(F)c([H])c8F)c([H])c7[H])c(C(=O)N([H])[H])c6N([H])[H])C5([H])[H])C([H])([H])[N+]([H])([H])[H])c4[H])C3([H])[H])c([H])c([H])c2C1([H])[H]

>  <smiles>  (63) 
[H]c1c([H])c([H])c2c(c1[H])C([H])([H])C([H])([H])C([H])([H])C2([H])N([H])C(=O)C1([H])N(C(=O)C([H])(N([H])C(=O)C([H])(N([H])C([H])([H])[H])C([H])([H])[H])C(C([H])([H])[H])(C([H])([H])[H])C([H])([H])[H])C([H])([H])c2c([H])c(OC([H])([H])C3([H])C([H])([H])N(c4c([H])c(F)c(F)c(C([H])(N([H])C(=O)N5C([H])([H])C([H])([H])C([H])([H])C([H])(n6nc(-c7c([H])c([H])c(Oc8c([H])c([H])c(F)c([H])c8F)c([H])c7[H])c(C(=O)N([H])[H])c6N([H])[H])C5([H])[H])C([H])([H])[N+]([H])([H])[H])c4[H])C3([H])[H])c([H])c([H])c2C1([H])[H]

$$$$
63:0:0
     RDKit          3D

104112  0  0  1  0  0  0  0  0999 V2000
  -29.8790  -21.9370   19.7310 C   0  0  1  0  0  0  0  0  0  0  0  0
  -31.1230  -20.9790   19.8290 C   0  0  0  0  0  2  0  0  0  0  0  0
  -30.5100  -18.6100   19.1000 C   0  0  0  0  0  3  0  0  0  0  0  0
  -30.2640  -17.2530   19.3780 C   0  0  0  0  0  3  0  0  0  0  0  0
  -30.6910  -17.6510   21.7440 C   0  0  0  0  0  3  0  0  0  0  0  0
  -30.8400  -19.5060   20.1400 C   0  0  0  0  0  0  0  0  0  0  0  0
  -30.3550  -16.7650   20.7020 C   0  0  0  0  0  0  0  0  0  0  0  0
  -30.9620  -19.0020   21.4580 C   0  0  0  0  0  0  0  0  0  0  0  0
  -31.3580  -19.8230   22.4610 F   0  0  0  0  0  0  0  0  0  0  0  0
  -30.7370  -14.3930   20.3550 C   0  0  0  0  0  0  0  0  0  0  0  0
  -30.3400  -12.3000   19.1450 C   0  0  0  0  0  2  0  0  0  0  0  0
  -29.3770  -12.6060   17.9800 C   0  0  0  0  0  2  0  0  0  0  0  0
  -27.9160  -12.4690   18.4480 C   0  0  0  0  0  2  0  0  0  0  0  0
  -27.6280  -13.2540   19.7540 C   0  0  0  0  0  3  0  0  0  0  0  0
  -28.7080  -12.9690   20.8250 C   0  0  0  0  0  2  0  0  0  0  0  0
  -30.0300  -13.2410   20.2330 N   0  0  0  0  0  0  0  0  0  0  0  0
  -31.8390  -14.5700   19.8270 O   0  0  0  0  0  0  0  0  0  0  0  0
  -30.1160  -15.3970   20.9870 N   0  0  0  0  0  0  0  0  0  0  0  0
  -29.3060  -15.1680   21.5430 H   0  0  0  0  0  0  0  0  0  0  0  0
  -25.2450  -13.8640   20.5130 C   0  0  0  0  0  0  0  0  0  0  0  0
  -24.1800  -13.0910   20.8880 C   0  0  0  0  0  0  0  0  0  0  0  0
  -24.6340  -11.7380   20.8260 C   0  0  0  0  0  0  0  0  0  0  0  0
  -26.2820  -12.9810   20.2520 N   0  0  0  0  0  0  0  0  0  0  0  0
  -25.9170  -11.6960   20.4930 N   0  0  0  0  0  0  0  0  0  0  0  0
  -23.9070  -10.4760   21.0100 C   0  0  0  0  0  0  0  0  0  0  0  0
  -24.3270   -9.5150   21.9570 C   0  0  0  0  0  3  0  0  0  0  0  0
  -23.6040   -8.3150   22.1290 C   0  0  0  0  0  3  0  0  0  0  0  0
  -22.4450   -8.0680   21.3530 C   0  0  0  0  0  0  0  0  0  0  0  0
  -22.0430   -9.0180   20.3980 C   0  0  0  0  0  3  0  0  0  0  0  0
  -22.7670  -10.2090   20.2240 C   0  0  0  0  0  3  0  0  0  0  0  0
  -21.6950   -6.9220   21.4350 O   0  0  0  0  0  0  0  0  0  0  0  0
  -21.5970   -6.2050   22.6000 C   0  0  0  0  0  0  0  0  0  0  0  0
  -21.0600   -6.7670   23.7790 C   0  0  0  0  0  3  0  0  0  0  0  0
  -20.9110   -5.9720   24.9340 C   0  0  0  0  0  3  0  0  0  0  0  0
  -21.2910   -4.6170   24.9100 C   0  0  0  0  0  0  0  0  0  0  0  0
  -21.8200   -4.0540   23.7360 C   0  0  0  0  0  3  0  0  0  0  0  0
  -21.9670   -4.8450   22.5830 C   0  0  0  0  0  0  0  0  0  0  0  0
  -22.4570   -4.2910   21.4480 F   0  0  0  0  0  0  0  0  0  0  0  0
  -21.1440   -3.8530   26.0180 F   0  0  0  0  0  0  0  0  0  0  0  0
  -22.7900  -13.5670   21.1970 C   0  0  0  0  0  0  0  0  0  0  0  0
  -22.0740  -12.8530   22.0600 N   0  0  0  0  0  0  0  0  0  0  0  0
  -22.3470  -14.6070   20.7110 O   0  0  0  0  0  0  0  0  0  0  0  0
  -22.4430  -12.0090   22.4700 H   0  0  0  0  0  0  0  0  0  0  0  0
  -21.1430  -13.1540   22.3130 H   0  0  0  0  0  0  0  0  0  0  0  0
  -25.4150  -15.2360   20.3590 N   0  0  0  0  0  0  0  0  0  0  0  0
  -24.6590  -15.8950   20.5030 H   0  0  0  0  0  0  0  0  0  0  0  0
  -26.2750  -15.6790   20.0620 H   0  0  0  0  0  0  0  0  0  0  0  0
  -28.8720  -21.3970   18.6470 C   0  0  0  0  0  2  0  0  0  0  0  0
  -29.4140  -21.2380   17.2740 N   0  0  0  0  0  4  0  0  0  0  0  0
  -29.7350  -22.1000   16.8690 H   0  0  0  0  0  0  0  0  0  0  0  0
  -28.6850  -20.8940   16.6720 H   0  0  0  0  0  0  0  0  0  0  0  0
  -30.1600  -20.5660   17.2340 H   0  0  0  0  0  0  0  0  0  0  0  0
  -29.1050  -21.9630   21.1040 C   0  0  0  0  0  2  0  0  0  0  0  0
  -29.8790  -22.3850   22.2950 N   0  0  0  0  0  4  0  0  0  0  0  0
  -30.5580  -21.6740   22.5410 H   0  0  0  0  0  0  0  0  0  0  0  0
  -29.2550  -22.4620   23.0820 H   0  0  0  0  0  0  0  0  0  0  0  0
  -30.3480  -23.2670   22.1990 H   0  0  0  0  0  0  0  0  0  0  0  0
  -30.3890  -23.3710   19.3160 C   0  0  0  0  0  2  0  0  0  0  0  0
  -29.3900  -24.4770   19.3890 N   0  0  0  0  0  4  0  0  0  0  0  0
  -28.4480  -24.1550   19.2300 H   0  0  0  0  0  0  0  0  0  0  0  0
  -29.4000  -24.8910   20.3120 H   0  0  0  0  0  0  0  0  0  0  0  0
  -29.5950  -25.6190   18.4590 C   0  0  0  0  0  2  0  0  0  0  0  0
  -29.3470  -26.9660   19.1690 C   0  0  0  0  0  2  0  0  0  0  0  0
  -28.4060  -26.7480   20.2190 O   0  0  0  0  0  0  0  0  0  0  0  0
  -24.5610  -31.8860   23.2330 C   0  0  0  0  0  0  0  0  0  0  0  0
  -27.2570  -27.4920   20.1710 C   0  0  0  0  0  0  0  0  0  0  0  0
  -23.3720  -30.4740   21.5850 C   0  0  0  0  0  3  0  0  0  0  0  0
  -24.8470  -28.9470   20.1690 C   0  0  0  0  0  0  0  0  0  0  0  0
  -25.8910  -30.8600   21.3970 C   0  0  0  0  0  2  0  0  0  0  0  0
  -25.9920  -29.4900   20.7630 C   0  0  0  0  0  0  0  0  0  0  0  0
  -27.2030  -28.7660   20.7710 C   0  0  0  0  0  3  0  0  0  0  0  0
  -26.1000  -26.9440   19.5850 C   0  0  0  0  0  3  0  0  0  0  0  0
  -24.8920  -27.6710   19.5780 C   0  0  0  0  0  3  0  0  0  0  0  0
  -23.5920  -29.7920   20.2070 C   0  0  0  0  0  2  0  0  0  0  0  0
  -24.6250  -31.0870   22.1310 N   0  0  0  0  0  0  0  0  0  0  0  0
  -23.4760  -32.1530   23.7680 O   0  0  0  0  0  0  0  0  0  0  0  0
  -22.7230  -29.4490   22.5410 C   0  0  0  0  0  0  0  0  0  0  0  0
  -21.3990  -29.2690   22.4130 N   0  0  0  0  0  0  0  0  0  0  0  0
  -23.4060  -28.8210   23.3550 O   0  0  0  0  0  0  0  0  0  0  0  0
  -20.9100  -29.8270   21.7280 H   0  0  0  0  0  0  0  0  0  0  0  0
  -18.0170  -28.1100   22.9250 C   0  0  0  0  0  0  0  0  0  0  0  0
  -20.5800  -28.3310   23.1790 C   0  0  0  0  0  3  0  0  0  0  0  0
  -20.6600  -26.9080   22.5830 C   0  0  0  0  0  2  0  0  0  0  0  0
  -19.5450  -26.6120   21.5750 C   0  0  0  0  0  2  0  0  0  0  0  0
  -18.1710  -26.7660   22.2330 C   0  0  0  0  0  2  0  0  0  0  0  0
  -19.1490  -28.8520   23.3550 C   0  0  0  0  0  0  0  0  0  0  0  0
  -18.9540  -30.1120   23.9610 C   0  0  0  0  0  3  0  0  0  0  0  0
  -17.6570  -30.6300   24.1430 C   0  0  0  0  0  3  0  0  0  0  0  0
  -16.5390  -29.8840   23.7320 C   0  0  0  0  0  3  0  0  0  0  0  0
  -16.7200  -28.6260   23.1280 C   0  0  0  0  0  3  0  0  0  0  0  0
  -25.8410  -32.5230   23.8600 C   0  0  0  0  0  3  0  0  0  0  0  0
  -26.3570  -31.7540   25.1380 C   0  0  1  0  0  0  0  0  0  0  0  0
  -25.2600  -31.5090   26.2010 C   0  0  0  0  0  1  0  0  0  0  0  0
  -26.9500  -30.3810   24.7460 C   0  0  0  0  0  1  0  0  0  0  0  0
  -27.4960  -32.5560   25.8100 C   0  0  0  0  0  1  0  0  0  0  0  0
  -25.5290  -33.9210   24.1830 N   0  0  0  0  0  0  0  0  0  0  0  0
  -25.8760  -34.9710   23.4260 C   0  0  0  0  0  0  0  0  0  0  0  0
  -26.5640  -34.8650   22.4070 O   0  0  0  0  0  0  0  0  0  0  0  0
  -24.9210  -34.0780   24.9730 H   0  0  0  0  0  0  0  0  0  0  0  0
  -24.1710  -36.7730   23.0100 C   0  0  0  0  0  1  0  0  0  0  0  0
  -25.3780  -36.3600   23.8690 C   0  0  0  0  0  3  0  0  0  0  0  0
  -27.4790  -37.2330   24.7920 C   0  0  0  0  0  1  0  0  0  0  0  0
  -26.4200  -37.4070   23.8010 N   0  0  0  0  0  0  0  0  0  0  0  0
  -26.0130  -38.3290   23.9310 H   0  0  0  0  0  0  0  0  0  0  0  0
  1  2  1  1
  1 53  1  0
  2  6  1  0
  3  4  2  0
  3  6  1  0
  4  7  1  0
  6  8  2  0
  7 18  1  0
  7  5  2  0
  8  5  1  0
  8  9  1  0
 10 18  1  0
 11 16  1  0
 12 13  1  0
 12 11  1  0
 14 13  1  0
 14 23  1  0
 14 15  1  0
 16 10  1  0
 16 15  1  0
 17 10  2  0
 18 19  1  0
 20 21  2  0
 21 40  1  0
 22 21  1  0
 22 25  1  0
 23 24  1  0
 23 20  1  0
 24 22  2  0
 25 26  1  0
 26 27  2  0
 28 31  1  0
 28 27  1  0
 29 28  2  0
 30 29  1  0
 30 25  2  0
 31 32  1  0
 32 33  1  0
 33 34  2  0
 35 34  1  0
 35 39  1  0
 36 35  2  0
 37 32  2  0
 37 36  1  0
 38 37  1  0
 40 41  1  0
 41 44  1  0
 41 43  1  0
 42 40  2  0
 45 46  1  0
 45 20  1  0
 47 45  1  0
 48  1  1  0
 49 48  1  0
 50 49  1  0
 51 49  1  0
 52 49  1  0
 53 54  1  0
 54 55  1  0
 54 56  1  0
 57 54  1  0
 58 59  1  0
 58  1  1  0
 59 61  1  0
 60 59  1  0
 62 63  1  0
 62 59  1  0
 63 64  1  0
 65 76  2  0
 66 64  1  0
 66 71  1  0
 67 75  1  0
 67 77  1  0
 68 74  1  0
 68 70  1  0
 69 75  1  0
 70 71  2  0
 70 69  1  0
 72 66  2  0
 73 72  1  0
 73 68  2  0
 74 67  1  0
 75 65  1  0
 77 79  2  0
 78 77  1  0
 80 78  1  0
 81 90  2  0
 81 86  1  0
 82 78  1  0
 82 86  1  0
 83 82  1  0
 84 85  1  0
 84 83  1  0
 85 81  1  0
 86 87  2  0
 87 88  1  0
 89 88  2  0
 90 89  1  0
 91 65  1  0
 91 96  1  0
 91 92  1  0
 92 95  1  1
 92 93  1  0
 94 92  1  0
 96 99  1  0
 97101  1  0
 97 96  1  0
 98 97  2  0
101100  1  0
103101  1  0
103104  1  0
103102  1  0
M  ISO  4  10 100  18 100  63 101  64 101
M  END
>  <TORSDO>  (64) 
F 26

>  <SCORE>  (64) 
-12.636

>  <name>  (64) 
63

>  <ligand_id>  (64) 
63

>  <original_smiles>  (64) 
[H]c1c([H])c([H])c2c(c1[H])C([H])([H])C([H])([H])C([H])([H])C2([H])N([H])C(=O)C1([H])N(C(=O)C([H])(N([H])C(=O)C([H])(N([H])C([H])([H])[H])C([H])([H])[H])C(C([H])([H])[H])(C([H])([H])[H])C([H])([H])[H])C([H])([H])c2c([H])c(OC([H])([H])C([H])([H])[N+]([H])([H])C([H])([H])C(C([H])([H])c3c([H])c([H])c(N([H])C(=O)N4C([H])([H])C([H])([H])C([H])([H])C([H])(n5nc(-c6c([H])c([H])c(Oc7c([H])c([H])c(F)c([H])c7F)c([H])c6[H])c(C(=O)N([H])[H])c5N([H])[H])C4([H])[H])c([H])c3F)(C([H])([H])[N+]([H])([H])[H])C([H])([H])[N+]([H])([H])[H])c([H])c([H])c2C1([H])[H]

>  <smiles>  (64) 
[H]c1c([H])c([H])c2c(c1[H])C([H])([H])C([H])([H])C([H])([H])C2([H])N([H])C(=O)C1([H])N(C(=O)C([H])(N([H])C(=O)C([H])(N([H])C([H])([H])[H])C([H])([H])[H])C(C([H])([H])[H])(C([H])([H])[H])C([H])([H])[H])C([H])([H])c2c([H])c(OC([H])([H])C([H])([H])[N+]([H])([H])C([H])([H])C(C([H])([H])c3c([H])c([H])c(N([H])C(=O)N4C([H])([H])C([H])([H])C([H])([H])C([H])(n5nc(-c6c([H])c([H])c(Oc7c([H])c([H])c(F)c([H])c7F)c([H])c6[H])c(C(=O)N([H])[H])c5N([H])[H])C4([H])[H])c([H])c3F)(C([H])([H])[N+]([H])([H])[H])C([H])([H])[N+]([H])([H])[H])c([H])c([H])c2C1([H])[H]

$$$$
64:0:0
     RDKit          3D

 98106  0  0  1  0  0  0  0  0999 V2000
  -30.0120  -20.3750   21.8090 N   0  0  0  0  0  0  0  0  0  0  0  0
  -30.5530  -20.9400   22.4590 H   0  0  0  0  0  0  0  0  0  0  0  0
  -32.3240  -17.4020   19.8870 C   0  0  0  0  0  3  0  0  0  0  0  0
  -32.0890  -19.6200   20.8610 C   0  0  0  0  0  3  0  0  0  0  0  0
  -30.1750  -18.1090   20.8070 C   0  0  0  0  0  3  0  0  0  0  0  0
  -32.8880  -18.6480   20.2250 C   0  0  0  0  0  0  0  0  0  0  0  0
  -30.9720  -17.1170   20.1790 C   0  0  0  0  0  0  0  0  0  0  0  0
  -30.7330  -19.3670   21.1480 C   0  0  0  0  0  0  0  0  0  0  0  0
  -31.1210  -14.7490   19.4680 C   0  0  0  0  0  0  0  0  0  0  0  0
  -30.9800  -12.3350   18.9570 C   0  0  0  0  0  2  0  0  0  0  0  0
  -29.9810  -12.0720   17.8140 C   0  0  0  0  0  2  0  0  0  0  0  0
  -28.5490  -11.9300   18.3630 C   0  0  0  0  0  2  0  0  0  0  0  0
  -28.1620  -13.0780   19.3340 C   0  0  0  0  0  3  0  0  0  0  0  0
  -29.2690  -13.3000   20.3890 C   0  0  0  0  0  2  0  0  0  0  0  0
  -30.5340  -13.5410   19.6730 N   0  0  0  0  0  0  0  0  0  0  0  0
  -32.1610  -14.8890   18.8180 O   0  0  0  0  0  0  0  0  0  0  0  0
  -30.4420  -15.8160   19.9290 N   0  0  0  0  0  0  0  0  0  0  0  0
  -29.4940  -15.6410   20.2330 H   0  0  0  0  0  0  0  0  0  0  0  0
  -25.8890  -13.7460   20.3400 C   0  0  0  0  0  0  0  0  0  0  0  0
  -24.8380  -12.9990   20.8010 C   0  0  0  0  0  0  0  0  0  0  0  0
  -25.2330  -11.6350   20.6610 C   0  0  0  0  0  0  0  0  0  0  0  0
  -26.8620  -12.8360   19.9550 N   0  0  0  0  0  0  0  0  0  0  0  0
  -26.4770  -11.5590   20.2030 N   0  0  0  0  0  0  0  0  0  0  0  0
  -24.4790  -10.3940   20.8840 C   0  0  0  0  0  0  0  0  0  0  0  0
  -24.8360   -9.4850   21.9050 C   0  0  0  0  0  3  0  0  0  0  0  0
  -24.0850   -8.3080   22.1100 C   0  0  0  0  0  3  0  0  0  0  0  0
  -22.9620   -8.0320   21.2950 C   0  0  0  0  0  0  0  0  0  0  0  0
  -22.6240   -8.9290   20.2660 C   0  0  0  0  0  3  0  0  0  0  0  0
  -23.3770  -10.0970   20.0590 C   0  0  0  0  0  3  0  0  0  0  0  0
  -22.1880   -6.9020   21.4060 O   0  0  0  0  0  0  0  0  0  0  0  0
  -21.8800   -6.3570   22.6270 C   0  0  0  0  0  0  0  0  0  0  0  0
  -21.1940   -7.0910   23.6180 C   0  0  0  0  0  3  0  0  0  0  0  0
  -20.8340   -6.4700   24.8310 C   0  0  0  0  0  3  0  0  0  0  0  0
  -21.1550   -5.1180   25.0540 C   0  0  0  0  0  0  0  0  0  0  0  0
  -21.8340   -4.3840   24.0640 C   0  0  0  0  0  3  0  0  0  0  0  0
  -22.1940   -5.0020   22.8540 C   0  0  0  0  0  0  0  0  0  0  0  0
  -22.8300   -4.2850   21.8970 F   0  0  0  0  0  0  0  0  0  0  0  0
  -20.8040   -4.5190   26.2150 F   0  0  0  0  0  0  0  0  0  0  0  0
  -23.5040  -13.5190   21.2540 C   0  0  0  0  0  0  0  0  0  0  0  0
  -22.8600  -12.8240   22.1850 N   0  0  0  0  0  0  0  0  0  0  0  0
  -23.0460  -14.5740   20.8170 O   0  0  0  0  0  0  0  0  0  0  0  0
  -23.2450  -11.9690   22.5590 H   0  0  0  0  0  0  0  0  0  0  0  0
  -21.9690  -13.1520   22.5300 H   0  0  0  0  0  0  0  0  0  0  0  0
  -26.0930  -15.1160   20.1990 N   0  0  0  0  0  0  0  0  0  0  0  0
  -25.3720  -15.7940   20.4210 H   0  0  0  0  0  0  0  0  0  0  0  0
  -26.9160  -15.5360   19.7860 H   0  0  0  0  0  0  0  0  0  0  0  0
  -34.3560  -18.9120   19.9250 C   0  0  1  0  0  0  0  0  0  0  0  0
  -34.5910  -18.7360   18.6260 F   0  0  0  0  0  0  0  0  0  0  0  0
  -34.7220  -20.1530   20.2510 F   0  0  0  0  0  0  0  0  0  0  0  0
  -35.1090  -18.0560   20.6150 F   0  0  0  0  0  0  0  0  0  0  0  0
  -28.9340  -21.0910   21.1290 C   0  0  0  0  0  2  0  0  0  0  0  0
  -29.1060  -22.6250   21.2780 C   0  0  0  0  0  2  0  0  0  0  0  0
  -28.3800  -23.4030   20.2470 N   0  0  0  0  0  4  0  0  0  0  0  0
  -28.6100  -23.0340   19.3380 H   0  0  0  0  0  0  0  0  0  0  0  0
  -27.3950  -23.2460   20.3960 H   0  0  0  0  0  0  0  0  0  0  0  0
  -28.6470  -24.8700   20.2710 C   0  0  0  0  0  2  0  0  0  0  0  0
  -27.6520  -25.6580   19.3930 C   0  0  0  0  0  2  0  0  0  0  0  0
  -27.8010  -27.0770   19.5720 O   0  0  0  0  0  0  0  0  0  0  0  0
  -24.6000  -32.1020   23.4540 C   0  0  0  0  0  0  0  0  0  0  0  0
  -26.6530  -27.8290   19.7430 C   0  0  0  0  0  0  0  0  0  0  0  0
  -23.1400  -30.8620   21.8920 C   0  0  0  0  0  3  0  0  0  0  0  0
  -24.3360  -29.4000   20.1810 C   0  0  0  0  0  0  0  0  0  0  0  0
  -25.6290  -31.1640   21.3860 C   0  0  0  0  0  2  0  0  0  0  0  0
  -25.5790  -29.8430   20.6480 C   0  0  0  0  0  0  0  0  0  0  0  0
  -26.7390  -29.0650   20.4290 C   0  0  0  0  0  3  0  0  0  0  0  0
  -25.3890  -27.4130   19.2590 C   0  0  0  0  0  3  0  0  0  0  0  0
  -24.2350  -28.1850   19.4850 C   0  0  0  0  0  3  0  0  0  0  0  0
  -23.1420  -30.2850   20.4510 C   0  0  0  0  0  2  0  0  0  0  0  0
  -24.4830  -31.3850   22.3000 N   0  0  0  0  0  0  0  0  0  0  0  0
  -23.6100  -32.3620   24.1510 O   0  0  0  0  0  0  0  0  0  0  0  0
  -22.5820  -29.7880   22.8550 C   0  0  0  0  0  0  0  0  0  0  0  0
  -21.3270  -29.3700   22.6220 N   0  0  0  0  0  0  0  0  0  0  0  0
  -23.2790  -29.3320   23.7650 O   0  0  0  0  0  0  0  0  0  0  0  0
  -20.8190  -29.7990   21.8600 H   0  0  0  0  0  0  0  0  0  0  0  0
  -18.2930  -27.4140   22.7090 C   0  0  0  0  0  0  0  0  0  0  0  0
  -20.6090  -28.3430   23.3760 C   0  0  0  0  0  3  0  0  0  0  0  0
  -21.1560  -26.9330   23.0530 C   0  0  0  0  0  2  0  0  0  0  0  0
  -20.3890  -26.2340   21.9270 C   0  0  0  0  0  2  0  0  0  0  0  0
  -18.9090  -26.0910   22.2920 C   0  0  0  0  0  2  0  0  0  0  0  0
  -19.0930  -28.4770   23.2050 C   0  0  0  0  0  0  0  0  0  0  0  0
  -18.4740  -29.6990   23.5450 C   0  0  0  0  0  3  0  0  0  0  0  0
  -17.0840  -29.8650   23.4040 C   0  0  0  0  0  3  0  0  0  0  0  0
  -16.2940  -28.8040   22.9310 C   0  0  0  0  0  3  0  0  0  0  0  0
  -16.8980  -27.5820   22.5870 C   0  0  0  0  0  3  0  0  0  0  0  0
  -25.9790  -32.6500   23.9400 C   0  0  0  0  0  3  0  0  0  0  0  0
  -25.7860  -34.0540   24.3270 N   0  0  0  0  0  0  0  0  0  0  0  0
  -26.1160  -35.1040   23.5640 C   0  0  0  0  0  0  0  0  0  0  0  0
  -26.6880  -34.9890   22.4770 O   0  0  0  0  0  0  0  0  0  0  0  0
  -25.2700  -34.2210   25.1790 H   0  0  0  0  0  0  0  0  0  0  0  0
  -24.4830  -37.0080   23.3850 C   0  0  0  0  0  1  0  0  0  0  0  0
  -25.7530  -36.5060   24.0910 C   0  0  0  0  0  3  0  0  0  0  0  0
  -27.9980  -37.2270   24.7730 C   0  0  0  0  0  1  0  0  0  0  0  0
  -26.8390  -37.4960   23.9250 N   0  0  0  0  0  0  0  0  0  0  0  0
  -26.5070  -38.4340   24.1320 H   0  0  0  0  0  0  0  0  0  0  0  0
  -26.5890  -31.8210   25.1370 C   0  0  1  0  0  0  0  0  0  0  0  0
  -25.5850  -31.5530   26.2820 C   0  0  0  0  0  1  0  0  0  0  0  0
  -27.1160  -30.4550   24.6390 C   0  0  0  0  0  1  0  0  0  0  0  0
  -27.8010  -32.5730   25.7310 C   0  0  0  0  0  1  0  0  0  0  0  0
  1  2  1  0
  3  7  2  0
  3  6  1  0
  4  8  1  0
  5  8  2  0
  6  4  2  0
  7  5  1  0
  8  1  1  0
  9 15  1  0
  9 17  1  0
 10 15  1  0
 11 12  1  0
 11 10  1  0
 13 12  1  0
 13 22  1  0
 13 14  1  0
 15 14  1  0
 16  9  2  0
 17  7  1  0
 17 18  1  0
 19 20  2  0
 20 39  1  0
 21 20  1  0
 21 24  1  0
 22 23  1  0
 22 19  1  0
 23 21  2  0
 24 25  1  0
 25 26  2  0
 27 30  1  0
 27 26  1  0
 28 27  2  0
 29 28  1  0
 29 24  2  0
 30 31  1  0
 31 36  2  0
 31 32  1  0
 32 33  2  0
 33 34  1  0
 34 38  1  0
 35 34  2  0
 36 35  1  0
 37 36  1  0
 39 40  1  0
 40 43  1  0
 40 42  1  0
 41 39  2  0
 44 19  1  0
 44 45  1  0
 46 44  1  0
 47  6  1  0
 47 49  1  1
 47 50  1  0
 48 47  1  0
 51 52  1  0
 51  1  1  0
 53 56  1  0
 53 55  1  0
 53 52  1  0
 54 53  1  0
 57 58  1  0
 57 56  1  0
 58 60  1  0
 59 70  2  0
 60 65  1  0
 61 69  1  0
 61 71  1  0
 62 68  1  0
 62 64  1  0
 63 69  1  0
 64 63  1  0
 65 64  2  0
 66 67  1  0
 66 60  2  0
 67 62  2  0
 68 61  1  0
 69 59  1  0
 71 73  2  0
 72 71  1  0
 74 72  1  0
 75 80  1  0
 76 72  1  0
 77 76  1  0
 78 79  1  0
 78 77  1  0
 79 75  1  0
 80 76  1  0
 80 81  2  0
 82 81  1  0
 83 82  2  0
 84 75  2  0
 84 83  1  0
 85 59  1  0
 85 86  1  0
 85 95  1  0
 86 89  1  0
 87 91  1  0
 87 86  1  0
 88 87  2  0
 91 90  1  0
 93 91  1  0
 93 94  1  0
 93 92  1  0
 95 98  1  1
 95 96  1  0
 97 95  1  0
M  ISO  4   9 100  17 100  57 101  58 101
M  END
>  <TORSDO>  (65) 
F 23

>  <SCORE>  (65) 
-11.250

>  <name>  (65) 
64

>  <ligand_id>  (65) 
64

>  <original_smiles>  (65) 
[H]c1c([H])c([H])c2c(c1[H])C([H])([H])C([H])([H])C([H])([H])C2([H])N([H])C(=O)C1([H])N(C(=O)C([H])(N([H])C(=O)C([H])(N([H])C([H])([H])[H])C([H])([H])[H])C(C([H])([H])[H])(C([H])([H])[H])C([H])([H])[H])C([H])([H])c2c([H])c(OC([H])([H])C([H])([H])[N+]([H])([H])C([H])([H])C([H])([H])N([H])c3c([H])c(N([H])C(=O)N4C([H])([H])C([H])([H])C([H])([H])C([H])(n5nc(-c6c([H])c([H])c(Oc7c([H])c([H])c(F)c([H])c7F)c([H])c6[H])c(C(=O)N([H])[H])c5N([H])[H])C4([H])[H])c([H])c(C(F)(F)F)c3[H])c([H])c([H])c2C1([H])[H]

>  <smiles>  (65) 
[H]c1c([H])c([H])c2c(c1[H])C([H])([H])C([H])([H])C([H])([H])C2([H])N([H])C(=O)C1([H])N(C(=O)C([H])(N([H])C(=O)C([H])(N([H])C([H])([H])[H])C([H])([H])[H])C(C([H])([H])[H])(C([H])([H])[H])C([H])([H])[H])C([H])([H])c2c([H])c(OC([H])([H])C([H])([H])[N+]([H])([H])C([H])([H])C([H])([H])N([H])c3c([H])c(N([H])C(=O)N4C([H])([H])C([H])([H])C([H])([H])C([H])(n5nc(-c6c([H])c([H])c(Oc7c([H])c([H])c(F)c([H])c7F)c([H])c6[H])c(C(=O)N([H])[H])c5N([H])[H])C4([H])[H])c([H])c(C(F)(F)F)c3[H])c([H])c([H])c2C1([H])[H]

$$$$
65:0:0
     RDKit          3D

 96104  0  0  1  0  0  0  0  0999 V2000
  -28.2770  -22.0710   20.2400 C   0  0  0  0  0  0  0  0  0  0  0  0
  -28.4990  -20.7620   20.0880 N   0  0  0  0  0  0  0  0  0  0  0  0
  -28.3490  -22.6410   21.3340 O   0  0  0  0  0  0  0  0  0  0  0  0
  -28.4070  -20.3810   19.1540 H   0  0  0  0  0  0  0  0  0  0  0  0
  -27.9340  -22.8580   18.9740 C   0  0  0  0  0  2  0  0  0  0  0  0
  -28.4590  -25.1700   18.2300 C   0  0  0  0  0  0  0  0  0  0  0  0
  -28.1730  -24.2790   19.1810 N   0  0  0  0  0  0  0  0  0  0  0  0
  -28.5310  -24.8610   17.0390 O   0  0  0  0  0  0  0  0  0  0  0  0
  -28.1530  -24.6020   20.1420 H   0  0  0  0  0  0  0  0  0  0  0  0
  -28.6940  -26.6200   18.6710 C   0  0  0  0  0  2  0  0  0  0  0  0
  -28.2080  -26.8430   19.9980 O   0  0  0  0  0  0  0  0  0  0  0  0
  -24.5270  -31.9510   23.2880 C   0  0  0  0  0  0  0  0  0  0  0  0
  -27.0300  -27.5430   20.0730 C   0  0  0  0  0  0  0  0  0  0  0  0
  -23.2500  -30.5800   21.6670 C   0  0  0  0  0  3  0  0  0  0  0  0
  -24.6410  -29.0350   20.1910 C   0  0  0  0  0  0  0  0  0  0  0  0
  -25.7700  -30.9140   21.3980 C   0  0  0  0  0  2  0  0  0  0  0  0
  -25.8180  -29.5480   20.7540 C   0  0  0  0  0  0  0  0  0  0  0  0
  -27.0120  -28.8000   20.7090 C   0  0  0  0  0  3  0  0  0  0  0  0
  -25.8370  -27.0270   19.5220 C   0  0  0  0  0  3  0  0  0  0  0  0
  -24.6430  -27.7660   19.5840 C   0  0  0  0  0  3  0  0  0  0  0  0
  -23.4080  -29.9040   20.2770 C   0  0  0  0  0  2  0  0  0  0  0  0
  -24.5350  -31.1640   22.1740 N   0  0  0  0  0  0  0  0  0  0  0  0
  -23.4670  -32.2320   23.8630 O   0  0  0  0  0  0  0  0  0  0  0  0
  -22.6160  -29.5580   22.6370 C   0  0  0  0  0  0  0  0  0  0  0  0
  -21.2990  -29.3440   22.4990 N   0  0  0  0  0  0  0  0  0  0  0  0
  -23.3070  -28.9590   23.4670 O   0  0  0  0  0  0  0  0  0  0  0  0
  -20.8030  -29.8870   21.8050 H   0  0  0  0  0  0  0  0  0  0  0  0
  -17.9620  -28.0260   22.9190 C   0  0  0  0  0  0  0  0  0  0  0  0
  -20.4950  -28.4010   23.2740 C   0  0  0  0  0  3  0  0  0  0  0  0
  -20.6770  -26.9550   22.7550 C   0  0  0  0  0  2  0  0  0  0  0  0
  -19.6290  -26.5500   21.7140 C   0  0  0  0  0  2  0  0  0  0  0  0
  -18.2190  -26.6620   22.3020 C   0  0  0  0  0  2  0  0  0  0  0  0
  -19.0320  -28.8500   23.3600 C   0  0  0  0  0  0  0  0  0  0  0  0
  -18.7400  -30.1250   23.8910 C   0  0  0  0  0  3  0  0  0  0  0  0
  -17.4100  -30.5750   23.9920 C   0  0  0  0  0  3  0  0  0  0  0  0
  -16.3540  -29.7500   23.5690 C   0  0  0  0  0  3  0  0  0  0  0  0
  -16.6320  -28.4780   23.0360 C   0  0  0  0  0  3  0  0  0  0  0  0
  -25.8420  -32.5530   23.8740 C   0  0  0  0  0  3  0  0  0  0  0  0
  -25.5680  -33.9540   24.2210 N   0  0  0  0  0  0  0  0  0  0  0  0
  -25.9000  -35.0050   23.4600 C   0  0  0  0  0  0  0  0  0  0  0  0
  -26.5410  -34.8970   22.4110 O   0  0  0  0  0  0  0  0  0  0  0  0
  -25.0040  -34.1160   25.0410 H   0  0  0  0  0  0  0  0  0  0  0  0
  -24.1880  -36.8250   23.1660 C   0  0  0  0  0  1  0  0  0  0  0  0
  -25.4460  -36.3970   23.9380 C   0  0  0  0  0  3  0  0  0  0  0  0
  -27.6180  -37.2460   24.7090 C   0  0  0  0  0  1  0  0  0  0  0  0
  -26.4910  -37.4340   23.7990 N   0  0  0  0  0  0  0  0  0  0  0  0
  -26.1020  -38.3590   23.9620 H   0  0  0  0  0  0  0  0  0  0  0  0
  -26.3870  -31.7640   25.1280 C   0  0  1  0  0  0  0  0  0  0  0  0
  -25.3230  -31.5330   26.2260 C   0  0  0  0  0  1  0  0  0  0  0  0
  -26.9430  -30.3840   24.7080 C   0  0  0  0  0  1  0  0  0  0  0  0
  -27.5660  -32.5400   25.7630 C   0  0  0  0  0  1  0  0  0  0  0  0
  -28.9300  -19.8420   21.1370 C   0  0  0  0  0  2  0  0  0  0  0  0
  -30.9640  -19.0100   19.7780 C   0  0  0  0  0  2  0  0  0  0  0  0
  -30.9640  -18.7690   22.2890 C   0  0  0  0  0  2  0  0  0  0  0  0
  -30.5740  -17.5310   19.6290 C   0  0  0  0  0  2  0  0  0  0  0  0
  -30.5950  -17.2800   22.1540 C   0  0  0  0  0  2  0  0  0  0  0  0
  -30.4610  -19.6200   21.1040 C   0  0  0  0  0  3  0  0  0  0  0  0
  -31.0800  -16.6830   20.8170 C   0  0  0  0  0  3  0  0  0  0  0  0
  -31.2020  -14.3140   20.0120 C   0  0  0  0  0  0  0  0  0  0  0  0
  -30.8080  -12.1150   18.9700 C   0  0  0  0  0  2  0  0  0  0  0  0
  -29.8420  -12.2700   17.7790 C   0  0  0  0  0  2  0  0  0  0  0  0
  -28.3740  -12.2040   18.2500 C   0  0  0  0  0  2  0  0  0  0  0  0
  -28.0920  -13.1380   19.4570 C   0  0  0  0  0  3  0  0  0  0  0  0
  -29.1600  -12.9400   20.5560 C   0  0  0  0  0  2  0  0  0  0  0  0
  -30.4860  -13.1630   19.9480 N   0  0  0  0  0  0  0  0  0  0  0  0
  -32.2740  -14.4820   19.4230 O   0  0  0  0  0  0  0  0  0  0  0  0
  -30.6150  -15.3030   20.7020 N   0  0  0  0  0  0  0  0  0  0  0  0
  -29.7340  -15.0760   21.1370 H   0  0  0  0  0  0  0  0  0  0  0  0
  -25.7530  -13.8830   20.2370 C   0  0  0  0  0  0  0  0  0  0  0  0
  -24.6560  -13.1710   20.6490 C   0  0  0  0  0  0  0  0  0  0  0  0
  -25.0420  -11.7960   20.6110 C   0  0  0  0  0  0  0  0  0  0  0  0
  -26.7400  -12.9440   19.9780 N   0  0  0  0  0  0  0  0  0  0  0  0
  -26.3160  -11.6850   20.2580 N   0  0  0  0  0  0  0  0  0  0  0  0
  -24.2570  -10.5750   20.8360 C   0  0  0  0  0  0  0  0  0  0  0  0
  -24.6500   -9.6110   21.7910 C   0  0  0  0  0  3  0  0  0  0  0  0
  -23.8680   -8.4550   22.0020 C   0  0  0  0  0  3  0  0  0  0  0  0
  -22.6830   -8.2530   21.2550 C   0  0  0  0  0  0  0  0  0  0  0  0
  -22.3090   -9.2050   20.2910 C   0  0  0  0  0  3  0  0  0  0  0  0
  -23.0910  -10.3540   20.0790 C   0  0  0  0  0  3  0  0  0  0  0  0
  -21.8760   -7.1480   21.3740 O   0  0  0  0  0  0  0  0  0  0  0  0
  -21.7620   -6.4620   22.5570 C   0  0  0  0  0  0  0  0  0  0  0  0
  -21.3370   -7.0940   23.7450 C   0  0  0  0  0  3  0  0  0  0  0  0
  -21.1660   -6.3370   24.9220 C   0  0  0  0  0  3  0  0  0  0  0  0
  -21.4130   -4.9510   24.9110 C   0  0  0  0  0  0  0  0  0  0  0  0
  -21.8310   -4.3190   23.7270 C   0  0  0  0  0  3  0  0  0  0  0  0
  -22.0030   -5.0730   22.5530 C   0  0  0  0  0  0  0  0  0  0  0  0
  -22.3860   -4.4560   21.4090 F   0  0  0  0  0  0  0  0  0  0  0  0
  -21.2420   -4.2220   26.0390 F   0  0  0  0  0  0  0  0  0  0  0  0
  -23.2970  -13.7240   20.9690 C   0  0  0  0  0  0  0  0  0  0  0  0
  -22.5720  -13.0830   21.8780 N   0  0  0  0  0  0  0  0  0  0  0  0
  -22.8900  -14.7600   20.4470 O   0  0  0  0  0  0  0  0  0  0  0  0
  -22.9150  -12.2430   22.3220 H   0  0  0  0  0  0  0  0  0  0  0  0
  -21.6620  -13.4370   22.1360 H   0  0  0  0  0  0  0  0  0  0  0  0
  -25.9870  -15.2410   20.0470 N   0  0  0  0  0  0  0  0  0  0  0  0
  -25.2650  -15.9410   20.1800 H   0  0  0  0  0  0  0  0  0  0  0  0
  -26.8540  -15.6290   19.6980 H   0  0  0  0  0  0  0  0  0  0  0  0
  1  3  2  0
  2  1  1  0
  2 52  1  0
  4  2  1  0
  5  7  1  0
  5  1  1  0
  6 10  1  0
  6  7  1  0
  7  9  1  0
  8  6  2  0
 10 11  1  0
 11 13  1  0
 12 23  2  0
 13 18  1  0
 14 22  1  0
 14 24  1  0
 15 21  1  0
 15 17  1  0
 16 22  1  0
 17 16  1  0
 18 17  2  0
 19 20  1  0
 19 13  2  0
 20 15  2  0
 21 14  1  0
 22 12  1  0
 24 26  2  0
 25 24  1  0
 27 25  1  0
 28 37  2  0
 28 33  1  0
 29 25  1  0
 29 33  1  0
 30 29  1  0
 31 32  1  0
 31 30  1  0
 32 28  1  0
 33 34  2  0
 34 35  1  0
 36 35  2  0
 37 36  1  0
 38 12  1  0
 38 39  1  0
 38 48  1  0
 39 42  1  0
 40 44  1  0
 40 39  1  0
 41 40  2  0
 44 43  1  0
 46 44  1  0
 46 47  1  0
 46 45  1  0
 48 51  1  1
 48 49  1  0
 50 48  1  0
 53 57  1  0
 55 53  1  0
 55 58  1  0
 56 54  1  0
 57 52  1  0
 57 54  1  0
 58 67  1  0
 58 56  1  0
 59 67  1  0
 60 65  1  0
 61 62  1  0
 61 60  1  0
 63 62  1  0
 63 72  1  0
 63 64  1  0
 65 59  1  0
 65 64  1  0
 66 59  2  0
 67 68  1  0
 69 70  2  0
 70 89  1  0
 71 70  1  0
 71 74  1  0
 72 69  1  0
 72 73  1  0
 73 71  2  0
 74 75  1  0
 75 76  2  0
 77 80  1  0
 77 76  1  0
 78 77  2  0
 79 78  1  0
 79 74  2  0
 80 81  1  0
 81 82  1  0
 82 83  2  0
 84 83  1  0
 84 88  1  0
 85 84  2  0
 86 81  2  0
 86 85  1  0
 87 86  1  0
 89 90  1  0
 90 93  1  0
 90 92  1  0
 91 89  2  0
 94 95  1  0
 94 69  1  0
 96 94  1  0
M  ISO  4  10 101  11 101  59 100  67 100
M  END
>  <TORSDO>  (66) 
F 21

>  <SCORE>  (66) 
-13.112

>  <name>  (66) 
65

>  <ligand_id>  (66) 
65

>  <original_smiles>  (66) 
[H]c1c([H])c([H])c2c(c1[H])C([H])([H])C([H])([H])C([H])([H])C2([H])N([H])C(=O)C1([H])N(C(=O)C([H])(N([H])C(=O)C([H])(N([H])C([H])([H])[H])C([H])([H])[H])C(C([H])([H])[H])(C([H])([H])[H])C([H])([H])[H])C([H])([H])c2c([H])c(OC([H])([H])C(=O)N([H])C([H])([H])C(=O)N([H])C([H])([H])C3([H])C([H])([H])C([H])([H])C([H])(N([H])C(=O)N4C([H])([H])C([H])([H])C([H])([H])C([H])(n5nc(-c6c([H])c([H])c(Oc7c([H])c([H])c(F)c([H])c7F)c([H])c6[H])c(C(=O)N([H])[H])c5N([H])[H])C4([H])[H])C([H])([H])C3([H])[H])c([H])c([H])c2C1([H])[H]

>  <smiles>  (66) 
[H]c1c([H])c([H])c2c(c1[H])C([H])([H])C([H])([H])C([H])([H])C2([H])N([H])C(=O)C1([H])N(C(=O)C([H])(N([H])C(=O)C([H])(N([H])C([H])([H])[H])C([H])([H])[H])C(C([H])([H])[H])(C([H])([H])[H])C([H])([H])[H])C([H])([H])c2c([H])c(OC([H])([H])C(=O)N([H])C([H])([H])C(=O)N([H])C([H])([H])C3([H])C([H])([H])C([H])([H])C([H])(N([H])C(=O)N4C([H])([H])C([H])([H])C([H])([H])C([H])(n5nc(-c6c([H])c([H])c(Oc7c([H])c([H])c(F)c([H])c7F)c([H])c6[H])c(C(=O)N([H])[H])c5N([H])[H])C4([H])[H])C([H])([H])C3([H])[H])c([H])c([H])c2C1([H])[H]

$$$$
66:0:0
     RDKit          3D

 94102  0  0  1  0  0  0  0  0999 V2000
  -29.7490  -21.6870   20.7190 C   0  0  0  0  0  0  0  0  0  0  0  0
  -29.8420  -22.0690   21.9930 N   0  0  0  0  0  4  0  0  0  0  0  0
  -29.5880  -22.7040   19.8080 N   0  0  0  0  0  0  0  0  0  0  0  0
  -29.9700  -21.3700   22.7090 H   0  0  0  0  0  0  0  0  0  0  0  0
  -29.7520  -23.0280   22.2790 H   0  0  0  0  0  0  0  0  0  0  0  0
  -29.5240  -22.4120   18.8400 H   0  0  0  0  0  0  0  0  0  0  0  0
  -31.0520  -19.5330   20.0750 C   0  0  0  0  0  3  0  0  0  0  0  0
  -31.1770  -18.1010   20.0630 C   0  0  0  0  0  3  0  0  0  0  0  0
  -28.8830  -17.9160   20.7460 C   0  0  0  0  0  3  0  0  0  0  0  0
  -29.8460  -20.1910   20.4610 C   0  0  0  0  0  0  0  0  0  0  0  0
  -30.0910  -17.2490   20.4190 C   0  0  0  0  0  0  0  0  0  0  0  0
  -28.7600  -19.3330   20.7800 C   0  0  0  0  0  0  0  0  0  0  0  0
  -27.5700  -19.8630   21.1540 F   0  0  0  0  0  0  0  0  0  0  0  0
  -30.8340  -14.7830   19.8870 C   0  0  0  0  0  0  0  0  0  0  0  0
  -30.5330  -12.5720   18.7770 C   0  0  0  0  0  2  0  0  0  0  0  0
  -29.4970  -12.7420   17.6410 C   0  0  0  0  0  2  0  0  0  0  0  0
  -28.0570  -12.6010   18.1730 C   0  0  0  0  0  2  0  0  0  0  0  0
  -27.8100  -13.4390   19.4550 C   0  0  0  0  0  3  0  0  0  0  0  0
  -28.9430  -13.2150   20.4840 C   0  0  0  0  0  2  0  0  0  0  0  0
  -30.2160  -13.5600   19.8270 N   0  0  0  0  0  0  0  0  0  0  0  0
  -31.9440  -14.9730   19.3740 O   0  0  0  0  0  0  0  0  0  0  0  0
  -30.0780  -15.7820   20.4410 N   0  0  0  0  0  0  0  0  0  0  0  0
  -29.2710  -15.3970   20.9050 H   0  0  0  0  0  0  0  0  0  0  0  0
  -25.4980  -14.0870   20.3740 C   0  0  0  0  0  0  0  0  0  0  0  0
  -24.4370  -13.3330   20.7980 C   0  0  0  0  0  0  0  0  0  0  0  0
  -24.8490  -11.9690   20.6810 C   0  0  0  0  0  0  0  0  0  0  0  0
  -26.4920  -13.1830   20.0280 N   0  0  0  0  0  0  0  0  0  0  0  0
  -26.1110  -11.9040   20.2720 N   0  0  0  0  0  0  0  0  0  0  0  0
  -24.0980  -10.7230   20.8800 C   0  0  0  0  0  0  0  0  0  0  0  0
  -24.5260   -9.7430   21.8010 C   0  0  0  0  0  3  0  0  0  0  0  0
  -23.7770   -8.5610   21.9880 C   0  0  0  0  0  3  0  0  0  0  0  0
  -22.5860   -8.3510   21.2520 C   0  0  0  0  0  0  0  0  0  0  0  0
  -22.1780   -9.3210   20.3190 C   0  0  0  0  0  3  0  0  0  0  0  0
  -22.9270  -10.4940   20.1310 C   0  0  0  0  0  3  0  0  0  0  0  0
  -21.8090   -7.2230   21.3490 O   0  0  0  0  0  0  0  0  0  0  0  0
  -21.6950   -6.5250   22.5260 C   0  0  0  0  0  0  0  0  0  0  0  0
  -21.2090   -7.1300   23.7050 C   0  0  0  0  0  3  0  0  0  0  0  0
  -21.0420   -6.3600   24.8740 C   0  0  0  0  0  3  0  0  0  0  0  0
  -21.3510   -4.9860   24.8630 C   0  0  0  0  0  0  0  0  0  0  0  0
  -21.8300   -4.3810   23.6870 C   0  0  0  0  0  3  0  0  0  0  0  0
  -21.9980   -5.1490   22.5210 C   0  0  0  0  0  0  0  0  0  0  0  0
  -22.4400   -4.5580   21.3850 F   0  0  0  0  0  0  0  0  0  0  0  0
  -21.1840   -4.2440   25.9820 F   0  0  0  0  0  0  0  0  0  0  0  0
  -23.0810  -13.8410   21.1940 C   0  0  0  0  0  0  0  0  0  0  0  0
  -22.4050  -13.1420   22.1020 N   0  0  0  0  0  0  0  0  0  0  0  0
  -22.6310  -14.8890   20.7350 O   0  0  0  0  0  0  0  0  0  0  0  0
  -22.7830  -12.2920   22.4930 H   0  0  0  0  0  0  0  0  0  0  0  0
  -21.4980  -13.4630   22.4090 H   0  0  0  0  0  0  0  0  0  0  0  0
  -25.6950  -15.4580   20.2310 N   0  0  0  0  0  0  0  0  0  0  0  0
  -24.9510  -16.1250   20.4040 H   0  0  0  0  0  0  0  0  0  0  0  0
  -26.5050  -15.8750   19.7920 H   0  0  0  0  0  0  0  0  0  0  0  0
  -29.6640  -24.2190   20.0280 C   0  0  0  0  0  3  0  0  0  0  0  0
  -28.4550  -25.1300   19.5460 C   0  0  0  0  0  3  0  0  0  0  0  0
  -28.5490  -26.5900   19.7890 O   0  0  0  0  0  0  0  0  0  0  0  0
  -24.5270  -31.6080   23.0520 C   0  0  0  0  0  0  0  0  0  0  0  0
  -27.3730  -27.3590   19.7770 C   0  0  0  0  0  0  0  0  0  0  0  0
  -23.3920  -30.2230   21.3500 C   0  0  0  0  0  3  0  0  0  0  0  0
  -24.9180  -28.8250   19.8500 C   0  0  0  0  0  0  0  0  0  0  0  0
  -25.9070  -30.6940   21.1720 C   0  0  0  0  0  2  0  0  0  0  0  0
  -26.0600  -29.3540   20.4630 C   0  0  0  0  0  0  0  0  0  0  0  0
  -27.2900  -28.6340   20.4160 C   0  0  0  0  0  3  0  0  0  0  0  0
  -26.2030  -26.8790   19.1450 C   0  0  0  0  0  3  0  0  0  0  0  0
  -24.9900  -27.5920   19.1830 C   0  0  0  0  0  3  0  0  0  0  0  0
  -23.6340  -29.6260   19.9400 C   0  0  0  0  0  2  0  0  0  0  0  0
  -24.6270  -30.8580   21.9150 N   0  0  0  0  0  0  0  0  0  0  0  0
  -23.4330  -31.8010   23.6020 O   0  0  0  0  0  0  0  0  0  0  0  0
  -22.7920  -29.1280   22.2640 C   0  0  0  0  0  0  0  0  0  0  0  0
  -21.4800  -28.8780   22.1270 N   0  0  0  0  0  0  0  0  0  0  0  0
  -23.5080  -28.5070   23.0560 O   0  0  0  0  0  0  0  0  0  0  0  0
  -20.9580  -29.4340   21.4650 H   0  0  0  0  0  0  0  0  0  0  0  0
  -18.1740  -27.4850   22.5890 C   0  0  0  0  0  0  0  0  0  0  0  0
  -20.7170  -27.8620   22.8560 C   0  0  0  0  0  3  0  0  0  0  0  0
  -20.8880  -26.4680   22.2090 C   0  0  0  0  0  2  0  0  0  0  0  0
  -19.7960  -26.1400   21.1880 C   0  0  0  0  0  2  0  0  0  0  0  0
  -18.4130  -26.1810   21.8460 C   0  0  0  0  0  2  0  0  0  0  0  0
  -19.2550  -28.2820   23.0490 C   0  0  0  0  0  0  0  0  0  0  0  0
  -18.9760  -29.5010   23.7050 C   0  0  0  0  0  3  0  0  0  0  0  0
  -17.6500  -29.9240   23.9030 C   0  0  0  0  0  3  0  0  0  0  0  0
  -16.5820  -29.1250   23.4580 C   0  0  0  0  0  3  0  0  0  0  0  0
  -16.8450  -27.9060   22.8070 C   0  0  0  0  0  3  0  0  0  0  0  0
  -25.7780  -32.2810   23.6970 C   0  0  0  0  0  3  0  0  0  0  0  0
  -26.3150  -31.5060   24.9630 C   0  0  1  0  0  0  0  0  0  0  0  0
  -25.2230  -31.1980   26.0140 C   0  0  0  0  0  1  0  0  0  0  0  0
  -26.9620  -30.1640   24.5480 C   0  0  0  0  0  1  0  0  0  0  0  0
  -27.4230  -32.3340   25.6540 C   0  0  0  0  0  1  0  0  0  0  0  0
  -25.4060  -33.6580   24.0540 N   0  0  0  0  0  0  0  0  0  0  0  0
  -25.6990  -34.7410   23.3210 C   0  0  0  0  0  0  0  0  0  0  0  0
  -26.3800  -34.6870   22.2930 O   0  0  0  0  0  0  0  0  0  0  0  0
  -24.8000  -33.7690   24.8540 H   0  0  0  0  0  0  0  0  0  0  0  0
  -23.8930  -36.4620   22.9990 C   0  0  0  0  0  1  0  0  0  0  0  0
  -25.1500  -36.0970   23.8040 C   0  0  0  0  0  3  0  0  0  0  0  0
  -27.2370  -37.0650   24.6620 C   0  0  0  0  0  1  0  0  0  0  0  0
  -26.1350  -37.1960   23.7120 N   0  0  0  0  0  0  0  0  0  0  0  0
  -25.6870  -38.0960   23.8680 H   0  0  0  0  0  0  0  0  0  0  0  0
  1  2  2  0
  2  5  1  0
  2  4  1  0
  3 52  1  0
  3  1  1  0
  6  3  1  0
  7 10  1  0
  8  7  2  0
  8 11  1  0
  9 12  1  0
 10  1  1  0
 10 12  2  0
 11 22  1  0
 11  9  2  0
 12 13  1  0
 14 22  1  0
 15 20  1  0
 16 17  1  0
 16 15  1  0
 18 17  1  0
 18 27  1  0
 18 19  1  0
 20 14  1  0
 20 19  1  0
 21 14  2  0
 22 23  1  0
 24 25  2  0
 25 44  1  0
 26 25  1  0
 26 29  1  0
 27 28  1  0
 27 24  1  0
 28 26  2  0
 29 30  1  0
 30 31  2  0
 32 35  1  0
 32 31  1  0
 33 32  2  0
 34 33  1  0
 34 29  2  0
 35 36  1  0
 36 37  1  0
 37 38  2  0
 39 38  1  0
 39 43  1  0
 40 39  2  0
 41 36  2  0
 41 40  1  0
 42 41  1  0
 44 45  1  0
 45 48  1  0
 45 47  1  0
 46 44  2  0
 49 24  1  0
 49 50  1  0
 51 49  1  0
 53 54  1  0
 53 52  2  0
 55 66  2  0
 56 54  1  0
 56 61  1  0
 57 65  1  0
 57 67  1  0
 58 64  1  0
 58 60  1  0
 59 65  1  0
 60 59  1  0
 61 60  2  0
 62 63  1  0
 62 56  2  0
 63 58  2  0
 64 57  1  0
 65 55  1  0
 67 69  2  0
 68 67  1  0
 70 68  1  0
 71 80  2  0
 71 76  1  0
 72 68  1  0
 72 76  1  0
 73 72  1  0
 74 75  1  0
 74 73  1  0
 75 71  1  0
 76 77  2  0
 77 78  1  0
 79 78  2  0
 80 79  1  0
 81 55  1  0
 81 86  1  0
 81 82  1  0
 82 85  1  1
 82 83  1  0
 84 82  1  0
 86 89  1  0
 87 91  1  0
 87 86  1  0
 88 87  2  0
 91 90  1  0
 93 91  1  0
 93 94  1  0
 93 92  1  0
M  ISO  4  14 100  22 100  53 101  54 101
M  END
>  <TORSDO>  (67) 
F 19

>  <SCORE>  (67) 
-12.894

>  <name>  (67) 
66

>  <ligand_id>  (67) 
66

>  <original_smiles>  (67) 
[H]c1c([H])c([H])c2c(c1[H])C([H])([H])C([H])([H])C([H])([H])C2([H])N([H])C(=O)C1([H])N(C(=O)C([H])(N([H])C(=O)C([H])(N([H])C([H])([H])[H])C([H])([H])[H])C(C([H])([H])[H])(C([H])([H])[H])C([H])([H])[H])C([H])([H])c2c([H])c(OC([H])([H])C([H])([H])[N+]([H])=C(c3c([H])c([H])c(N([H])C(=O)N4C([H])([H])C([H])([H])C([H])([H])C([H])(n5nc(-c6c([H])c([H])c(Oc7c([H])c([H])c(F)c([H])c7F)c([H])c6[H])c(C(=O)N([H])[H])c5N([H])[H])C4([H])[H])c([H])c3F)N([H])[H])c([H])c([H])c2C1([H])[H]

>  <smiles>  (67) 
[H]c1c([H])c([H])c2c(c1[H])C([H])([H])C([H])([H])C([H])([H])C2([H])N([H])C(=O)C1([H])N(C(=O)C([H])(N([H])C(=O)C([H])(N([H])C([H])([H])[H])C([H])([H])[H])C(C([H])([H])[H])(C([H])([H])[H])C([H])([H])[H])C([H])([H])c2c([H])c(OC([H])([H])C([H])([H])[N+]([H])=C(c3c([H])c([H])c(N([H])C(=O)N4C([H])([H])C([H])([H])C([H])([H])C([H])(n5nc(-c6c([H])c([H])c(Oc7c([H])c([H])c(F)c([H])c7F)c([H])c6[H])c(C(=O)N([H])[H])c5N([H])[H])C4([H])[H])c([H])c3F)N([H])[H])c([H])c([H])c2C1([H])[H]

$$$$
67:0:0
     RDKit          3D

 89 97  0  0  1  0  0  0  0  0999 V2000
  -27.7260  -20.8780   20.2840 C   0  0  0  0  0  3  0  0  0  0  0  0
  -30.2230  -19.9120   20.2150 C   0  0  0  0  0  3  0  0  0  0  0  0
  -28.5510  -22.1150   20.2650 C   0  0  0  0  0  0  0  0  0  0  0  0
  -29.3510  -18.6910   20.2370 C   0  0  0  0  0  0  0  0  0  0  0  0
  -28.0540  -19.3980   20.2740 C   0  0  0  0  0  0  0  0  0  0  0  0
  -29.8820  -21.4220   20.2280 C   0  0  0  0  0  0  0  0  0  0  0  0
  -26.9770  -18.5760   20.3010 F   0  0  0  0  0  0  0  0  0  0  0  0
  -30.9560  -22.2460   20.1980 F   0  0  0  0  0  0  0  0  0  0  0  0
  -30.3410  -15.6820   20.1200 C   0  0  0  0  0  0  0  0  0  0  0  0
  -30.4420  -13.1580   19.2640 C   0  0  0  0  0  2  0  0  0  0  0  0
  -29.5100  -12.7880   18.0750 C   0  0  0  0  0  2  0  0  0  0  0  0
  -28.0980  -12.4300   18.5680 C   0  0  0  0  0  2  0  0  0  0  0  0
  -27.6230  -13.4070   19.6670 C   0  0  0  0  0  3  0  0  0  0  0  0
  -28.6890  -13.6860   20.7510 C   0  0  0  0  0  2  0  0  0  0  0  0
  -29.8450  -14.3120   20.0690 N   0  0  0  0  0  0  0  0  0  0  0  0
  -31.5660  -15.6710   19.8890 O   0  0  0  0  0  0  0  0  0  0  0  0
  -29.5030  -16.9770   20.2420 N   0  0  0  0  0  0  0  0  0  0  0  0
  -28.5670  -16.6220   20.3680 H   0  0  0  0  0  0  0  0  0  0  0  0
  -25.2870  -13.9080   20.5340 C   0  0  0  0  0  0  0  0  0  0  0  0
  -24.2440  -13.1110   20.9160 C   0  0  0  0  0  0  0  0  0  0  0  0
  -24.7190  -11.7660   20.8240 C   0  0  0  0  0  0  0  0  0  0  0  0
  -26.3250  -13.0500   20.2220 N   0  0  0  0  0  0  0  0  0  0  0  0
  -25.9990  -11.7520   20.4650 N   0  0  0  0  0  0  0  0  0  0  0  0
  -24.0030  -10.4940   20.9990 C   0  0  0  0  0  0  0  0  0  0  0  0
  -24.4360   -9.5210   21.9270 C   0  0  0  0  0  3  0  0  0  0  0  0
  -23.7150   -8.3190   22.0920 C   0  0  0  0  0  3  0  0  0  0  0  0
  -22.5470   -8.0800   21.3300 C   0  0  0  0  0  0  0  0  0  0  0  0
  -22.1330   -9.0410   20.3920 C   0  0  0  0  0  3  0  0  0  0  0  0
  -22.8540  -10.2350   20.2240 C   0  0  0  0  0  3  0  0  0  0  0  0
  -21.7990   -6.9300   21.4060 O   0  0  0  0  0  0  0  0  0  0  0  0
  -21.6950   -6.2130   22.5720 C   0  0  0  0  0  0  0  0  0  0  0  0
  -21.1570   -6.7780   23.7480 C   0  0  0  0  0  3  0  0  0  0  0  0
  -21.0040   -5.9860   24.9030 C   0  0  0  0  0  3  0  0  0  0  0  0
  -21.3790   -4.6300   24.8820 C   0  0  0  0  0  0  0  0  0  0  0  0
  -21.9110   -4.0640   23.7100 C   0  0  0  0  0  3  0  0  0  0  0  0
  -22.0650   -4.8530   22.5570 C   0  0  0  0  0  0  0  0  0  0  0  0
  -22.5580   -4.2970   21.4250 F   0  0  0  0  0  0  0  0  0  0  0  0
  -21.2260   -3.8670   25.9910 F   0  0  0  0  0  0  0  0  0  0  0  0
  -22.8550  -13.5720   21.2440 C   0  0  0  0  0  0  0  0  0  0  0  0
  -22.1630  -12.8550   22.1210 N   0  0  0  0  0  0  0  0  0  0  0  0
  -22.3940  -14.6050   20.7600 O   0  0  0  0  0  0  0  0  0  0  0  0
  -22.5510  -12.0200   22.5350 H   0  0  0  0  0  0  0  0  0  0  0  0
  -21.2310  -13.1450   22.3840 H   0  0  0  0  0  0  0  0  0  0  0  0
  -25.4310  -15.2850   20.3950 N   0  0  0  0  0  0  0  0  0  0  0  0
  -24.6610  -15.9230   20.5640 H   0  0  0  0  0  0  0  0  0  0  0  0
  -26.2480  -15.7470   20.0220 H   0  0  0  0  0  0  0  0  0  0  0  0
  -27.7890  -23.7860   20.2720 C   0  0  0  0  0  0  0  0  0  0  0  0
  -26.5640  -23.6370   20.2780 O   0  0  0  0  0  0  0  0  0  0  0  0
  -28.1620  -25.5750   20.2870 O   0  0  0  0  0  0  0  0  0  0  0  0
  -24.6910  -31.8750   23.2360 C   0  0  0  0  0  0  0  0  0  0  0  0
  -27.2230  -26.8120   20.2420 C   0  0  0  0  0  0  0  0  0  0  0  0
  -23.5050  -30.4810   21.5970 C   0  0  0  0  0  3  0  0  0  0  0  0
  -24.9560  -28.8410   20.1840 C   0  0  0  0  0  0  0  0  0  0  0  0
  -26.0850  -30.6220   21.4840 C   0  0  0  0  0  2  0  0  0  0  0  0
  -26.1480  -29.1920   20.8290 C   0  0  0  0  0  0  0  0  0  0  0  0
  -27.2650  -28.2030   20.8350 C   0  0  0  0  0  3  0  0  0  0  0  0
  -25.9980  -26.6790   19.5360 C   0  0  0  0  0  3  0  0  0  0  0  0
  -24.9170  -27.6080   19.5160 C   0  0  0  0  0  3  0  0  0  0  0  0
  -23.7480  -29.7900   20.2250 C   0  0  0  0  0  2  0  0  0  0  0  0
  -24.7840  -31.0250   22.1580 N   0  0  0  0  0  0  0  0  0  0  0  0
  -23.5970  -32.1770   23.7440 O   0  0  0  0  0  0  0  0  0  0  0  0
  -22.7860  -29.5010   22.5630 C   0  0  0  0  0  0  0  0  0  0  0  0
  -21.4550  -29.3440   22.4300 N   0  0  0  0  0  0  0  0  0  0  0  0
  -23.4380  -28.8800   23.4060 O   0  0  0  0  0  0  0  0  0  0  0  0
  -20.9780  -29.8950   21.7300 H   0  0  0  0  0  0  0  0  0  0  0  0
  -18.0630  -28.1420   22.9390 C   0  0  0  0  0  0  0  0  0  0  0  0
  -20.6240  -28.4090   23.2000 C   0  0  0  0  0  3  0  0  0  0  0  0
  -20.7230  -26.9760   22.6260 C   0  0  0  0  0  2  0  0  0  0  0  0
  -19.6220  -26.6560   21.6100 C   0  0  0  0  0  2  0  0  0  0  0  0
  -18.2400  -26.7960   22.2550 C   0  0  0  0  0  2  0  0  0  0  0  0
  -19.1820  -28.9060   23.3680 C   0  0  0  0  0  0  0  0  0  0  0  0
  -18.9590  -30.1620   23.9730 C   0  0  0  0  0  3  0  0  0  0  0  0
  -17.6520  -30.6560   24.1490 C   0  0  0  0  0  3  0  0  0  0  0  0
  -16.5490  -29.8900   23.7320 C   0  0  0  0  0  3  0  0  0  0  0  0
  -16.7560  -28.6350   23.1340 C   0  0  0  0  0  3  0  0  0  0  0  0
  -25.9540  -32.5230   23.8800 C   0  0  0  0  0  3  0  0  0  0  0  0
  -25.6340  -33.9250   24.2090 N   0  0  0  0  0  0  0  0  0  0  0  0
  -25.9430  -34.9870   23.4520 C   0  0  0  0  0  0  0  0  0  0  0  0
  -26.5860  -34.8890   22.4030 O   0  0  0  0  0  0  0  0  0  0  0  0
  -25.0590  -34.0740   25.0250 H   0  0  0  0  0  0  0  0  0  0  0  0
  -24.1930  -36.7790   23.1740 C   0  0  0  0  0  1  0  0  0  0  0  0
  -25.4700  -36.3770   23.9300 C   0  0  0  0  0  3  0  0  0  0  0  0
  -27.6270  -37.2880   24.6740 C   0  0  0  0  0  1  0  0  0  0  0  0
  -26.4900  -37.4370   23.7690 N   0  0  0  0  0  0  0  0  0  0  0  0
  -26.0820  -38.3560   23.9220 H   0  0  0  0  0  0  0  0  0  0  0  0
  -26.4420  -31.7670   25.1770 C   0  0  1  0  0  0  0  0  0  0  0  0
  -25.3300  -31.5510   26.2310 C   0  0  0  0  0  1  0  0  0  0  0  0
  -27.0230  -30.3780   24.8270 C   0  0  0  0  0  1  0  0  0  0  0  0
  -27.5870  -32.5630   25.8470 C   0  0  0  0  0  1  0  0  0  0  0  0
  2  6  2  0
  2  4  1  0
  3 47  1  0
  3  1  2  0
  4 17  1  0
  4  5  2  0
  5  1  1  0
  5  7  1  0
  6  3  1  0
  8  6  1  0
  9 17  1  0
 10 15  1  0
 11 12  1  0
 11 10  1  0
 13 12  1  0
 13 22  1  0
 13 14  1  0
 15  9  1  0
 15 14  1  0
 16  9  2  0
 17 18  1  0
 19 20  2  0
 20 39  1  0
 21 20  1  0
 21 24  1  0
 22 23  1  0
 22 19  1  0
 23 21  2  0
 24 25  1  0
 25 26  2  0
 27 30  1  0
 27 26  1  0
 28 27  2  0
 29 28  1  0
 29 24  2  0
 30 31  1  0
 31 32  1  0
 32 33  2  0
 34 33  1  0
 34 38  1  0
 35 34  2  0
 36 31  2  0
 36 35  1  0
 37 36  1  0
 39 40  1  0
 40 43  1  0
 40 42  1  0
 41 39  2  0
 44 19  1  0
 44 45  1  0
 46 44  1  0
 47 48  2  0
 47 49  1  0
 50 61  2  0
 51 49  1  0
 51 56  1  0
 52 60  1  0
 52 62  1  0
 53 59  1  0
 53 55  1  0
 54 60  1  0
 55 56  2  0
 55 54  1  0
 57 51  2  0
 58 57  1  0
 58 53  2  0
 59 52  1  0
 60 50  1  0
 62 64  2  0
 63 62  1  0
 65 63  1  0
 66 75  2  0
 66 71  1  0
 67 63  1  0
 67 71  1  0
 68 67  1  0
 69 70  1  0
 69 68  1  0
 70 66  1  0
 71 72  2  0
 72 73  1  0
 74 73  2  0
 75 74  1  0
 76 50  1  0
 76 77  1  0
 76 86  1  0
 77 80  1  0
 78 82  1  0
 78 77  1  0
 79 78  2  0
 82 81  1  0
 84 85  1  0
 84 82  1  0
 84 83  1  0
 86 89  1  1
 86 87  1  0
 88 86  1  0
M  ISO  4   9 100  17 100  47 101  49 101
M  END
>  <TORSDO>  (68) 
F 17

>  <SCORE>  (68) 
-16.609

>  <name>  (68) 
67

>  <ligand_id>  (68) 
67

>  <original_smiles>  (68) 
[H]c1c([H])c([H])c2c(c1[H])C([H])([H])C([H])([H])C([H])([H])C2([H])N([H])C(=O)C1([H])N(C(=O)C([H])(N([H])C(=O)C([H])(N([H])C([H])([H])[H])C([H])([H])[H])C(C([H])([H])[H])(C([H])([H])[H])C([H])([H])[H])C([H])([H])c2c([H])c(OC(=O)c3c([H])c(F)c(N([H])C(=O)N4C([H])([H])C([H])([H])C([H])([H])C([H])(n5nc(-c6c([H])c([H])c(Oc7c([H])c([H])c(F)c([H])c7F)c([H])c6[H])c(C(=O)N([H])[H])c5N([H])[H])C4([H])[H])c([H])c3F)c([H])c([H])c2C1([H])[H]

>  <smiles>  (68) 
[H]c1c([H])c([H])c2c(c1[H])C([H])([H])C([H])([H])C([H])([H])C2([H])N([H])C(=O)C1([H])N(C(=O)C([H])(N([H])C(=O)C([H])(N([H])C([H])([H])[H])C([H])([H])[H])C(C([H])([H])[H])(C([H])([H])[H])C([H])([H])[H])C([H])([H])c2c([H])c(OC(=O)c3c([H])c(F)c(N([H])C(=O)N4C([H])([H])C([H])([H])C([H])([H])C([H])(n5nc(-c6c([H])c([H])c(Oc7c([H])c([H])c(F)c([H])c7F)c([H])c6[H])c(C(=O)N([H])[H])c5N([H])[H])C4([H])[H])c([H])c3F)c([H])c([H])c2C1([H])[H]

$$$$
68:0:0
     RDKit          3D

 91 99  0  0  1  0  0  0  0  0999 V2000
  -28.8430  -22.4830   20.2780 C   0  0  0  0  0  0  0  0  0  0  0  0
  -29.8330  -21.5370   20.2590 N   0  0  0  0  0  0  0  0  0  0  0  0
  -27.6500  -22.1720   20.2290 O   0  0  0  0  0  0  0  0  0  0  0  0
  -30.7630  -21.9300   20.1990 H   0  0  0  0  0  0  0  0  0  0  0  0
  -30.9300  -19.3270   19.8830 C   0  0  0  0  0  3  0  0  0  0  0  0
  -28.7040  -19.3100   20.7930 C   0  0  0  0  0  3  0  0  0  0  0  0
  -30.9840  -17.9020   19.9490 C   0  0  0  0  0  3  0  0  0  0  0  0
  -28.7610  -17.8870   20.8690 C   0  0  0  0  0  3  0  0  0  0  0  0
  -29.7920  -20.0740   20.2980 C   0  0  0  0  0  0  0  0  0  0  0  0
  -29.8960  -17.1400   20.4510 C   0  0  0  0  0  0  0  0  0  0  0  0
  -30.6220  -14.6700   20.0660 C   0  0  0  0  0  0  0  0  0  0  0  0
  -30.3530  -12.4730   18.9360 C   0  0  0  0  0  2  0  0  0  0  0  0
  -29.3360  -12.6480   17.7860 C   0  0  0  0  0  2  0  0  0  0  0  0
  -27.8900  -12.4760   18.2960 C   0  0  0  0  0  2  0  0  0  0  0  0
  -27.6100  -13.2950   19.5840 C   0  0  0  0  0  3  0  0  0  0  0  0
  -28.7310  -13.0850   20.6270 C   0  0  0  0  0  2  0  0  0  0  0  0
  -30.0090  -13.4480   19.9910 N   0  0  0  0  0  0  0  0  0  0  0  0
  -31.7480  -14.8550   19.5910 O   0  0  0  0  0  0  0  0  0  0  0  0
  -29.8490  -15.6830   20.5630 N   0  0  0  0  0  0  0  0  0  0  0  0
  -28.9980  -15.3310   20.9750 H   0  0  0  0  0  0  0  0  0  0  0  0
  -25.2620  -13.8780   20.4570 C   0  0  0  0  0  0  0  0  0  0  0  0
  -24.2160  -13.0940   20.8650 C   0  0  0  0  0  0  0  0  0  0  0  0
  -24.6720  -11.7440   20.7660 C   0  0  0  0  0  0  0  0  0  0  0  0
  -26.2880  -13.0040   20.1350 N   0  0  0  0  0  0  0  0  0  0  0  0
  -25.9410  -11.7130   20.3800 N   0  0  0  0  0  0  0  0  0  0  0  0
  -23.9540  -10.4780   20.9600 C   0  0  0  0  0  0  0  0  0  0  0  0
  -24.4110   -9.5030   21.8740 C   0  0  0  0  0  3  0  0  0  0  0  0
  -23.6940   -8.3000   22.0550 C   0  0  0  0  0  3  0  0  0  0  0  0
  -22.5070   -8.0640   21.3220 C   0  0  0  0  0  0  0  0  0  0  0  0
  -22.0700   -9.0280   20.3970 C   0  0  0  0  0  3  0  0  0  0  0  0
  -22.7860  -10.2220   20.2140 C   0  0  0  0  0  3  0  0  0  0  0  0
  -21.7590   -6.9150   21.4150 O   0  0  0  0  0  0  0  0  0  0  0  0
  -21.6970   -6.1890   22.5770 C   0  0  0  0  0  0  0  0  0  0  0  0
  -21.2380   -6.7560   23.7870 C   0  0  0  0  0  3  0  0  0  0  0  0
  -21.1240   -5.9550   24.9410 C   0  0  0  0  0  3  0  0  0  0  0  0
  -21.4570   -4.5880   24.8860 C   0  0  0  0  0  0  0  0  0  0  0  0
  -21.9090   -4.0220   23.6820 C   0  0  0  0  0  3  0  0  0  0  0  0
  -22.0250   -4.8200   22.5300 C   0  0  0  0  0  0  0  0  0  0  0  0
  -22.4400   -4.2630   21.3660 F   0  0  0  0  0  0  0  0  0  0  0  0
  -21.3410   -3.8170   25.9930 F   0  0  0  0  0  0  0  0  0  0  0  0
  -22.8380  -13.5650   21.2330 C   0  0  0  0  0  0  0  0  0  0  0  0
  -22.1620  -12.8460   22.1230 N   0  0  0  0  0  0  0  0  0  0  0  0
  -22.3710  -14.6030   20.7680 O   0  0  0  0  0  0  0  0  0  0  0  0
  -22.5530  -12.0050   22.5220 H   0  0  0  0  0  0  0  0  0  0  0  0
  -21.2400  -13.1430   22.4110 H   0  0  0  0  0  0  0  0  0  0  0  0
  -25.4190  -15.2530   20.3120 N   0  0  0  0  0  0  0  0  0  0  0  0
  -24.6540  -15.8980   20.4770 H   0  0  0  0  0  0  0  0  0  0  0  0
  -26.2320  -15.6990   19.9070 H   0  0  0  0  0  0  0  0  0  0  0  0
  -29.2280  -24.0150   20.3500 C   0  0  0  0  0  3  0  0  0  0  0  0
  -28.1040  -25.0750   19.9880 C   0  0  0  0  0  3  0  0  0  0  0  0
  -28.3380  -26.5210   20.2070 O   0  0  0  0  0  0  0  0  0  0  0  0
  -24.6180  -31.8920   23.2640 C   0  0  0  0  0  0  0  0  0  0  0  0
  -27.2210  -27.3700   20.1600 C   0  0  0  0  0  0  0  0  0  0  0  0
  -23.4120  -30.5170   21.6090 C   0  0  0  0  0  3  0  0  0  0  0  0
  -24.8590  -28.9840   20.1680 C   0  0  0  0  0  0  0  0  0  0  0  0
  -25.9540  -30.8330   21.4320 C   0  0  0  0  0  2  0  0  0  0  0  0
  -26.0300  -29.4630   20.7700 C   0  0  0  0  0  0  0  0  0  0  0  0
  -27.2140  -28.6680   20.7570 C   0  0  0  0  0  3  0  0  0  0  0  0
  -26.0260  -26.9470   19.5320 C   0  0  0  0  0  3  0  0  0  0  0  0
  -24.8590  -27.7300   19.5390 C   0  0  0  0  0  3  0  0  0  0  0  0
  -23.6250  -29.8590   20.2210 C   0  0  0  0  0  2  0  0  0  0  0  0
  -24.6810  -31.0970   22.1590 N   0  0  0  0  0  0  0  0  0  0  0  0
  -23.5340  -32.1680   23.8010 O   0  0  0  0  0  0  0  0  0  0  0  0
  -22.7470  -29.4890   22.5550 C   0  0  0  0  0  0  0  0  0  0  0  0
  -21.4220  -29.3100   22.4180 N   0  0  0  0  0  0  0  0  0  0  0  0
  -23.4210  -28.8570   23.3730 O   0  0  0  0  0  0  0  0  0  0  0  0
  -20.9380  -29.8710   21.7310 H   0  0  0  0  0  0  0  0  0  0  0  0
  -18.0420  -28.1100   22.8840 C   0  0  0  0  0  0  0  0  0  0  0  0
  -20.5980  -28.3680   23.1760 C   0  0  0  0  0  3  0  0  0  0  0  0
  -20.7050  -26.9390   22.5930 C   0  0  0  0  0  2  0  0  0  0  0  0
  -19.6110  -26.6230   21.5680 C   0  0  0  0  0  2  0  0  0  0  0  0
  -18.2240  -26.7640   22.2030 C   0  0  0  0  0  2  0  0  0  0  0  0
  -19.1570  -28.8690   23.3280 C   0  0  0  0  0  0  0  0  0  0  0  0
  -18.9330  -30.1280   23.9250 C   0  0  0  0  0  3  0  0  0  0  0  0
  -17.6270  -30.6290   24.0830 C   0  0  0  0  0  3  0  0  0  0  0  0
  -16.5260  -29.8660   23.6560 C   0  0  0  0  0  3  0  0  0  0  0  0
  -16.7350  -28.6090   23.0620 C   0  0  0  0  0  3  0  0  0  0  0  0
  -25.9020  -32.5140   23.8960 C   0  0  0  0  0  3  0  0  0  0  0  0
  -26.4050  -31.7350   25.1730 C   0  0  1  0  0  0  0  0  0  0  0  0
  -25.3030  -31.5020   26.2320 C   0  0  0  0  0  1  0  0  0  0  0  0
  -26.9820  -30.3550   24.7800 C   0  0  0  0  0  1  0  0  0  0  0  0
  -27.5580  -32.5180   25.8440 C   0  0  0  0  0  1  0  0  0  0  0  0
  -25.6010  -33.9140   24.2280 N   0  0  0  0  0  0  0  0  0  0  0  0
  -25.9220  -34.9630   23.4620 C   0  0  0  0  0  0  0  0  0  0  0  0
  -26.5730  -34.8570   22.4190 O   0  0  0  0  0  0  0  0  0  0  0  0
  -25.0200  -34.0700   25.0380 H   0  0  0  0  0  0  0  0  0  0  0  0
  -24.1770  -36.7490   23.1480 C   0  0  0  0  0  1  0  0  0  0  0  0
  -25.4440  -36.3550   23.9240 C   0  0  0  0  0  3  0  0  0  0  0  0
  -27.5990  -37.2530   24.6840 C   0  0  0  0  0  1  0  0  0  0  0  0
  -26.4700  -37.4090   23.7710 N   0  0  0  0  0  0  0  0  0  0  0  0
  -26.0650  -38.3300   23.9220 H   0  0  0  0  0  0  0  0  0  0  0  0
  1 49  1  0
  2  1  1  0
  2  9  1  0
  3  1  2  0
  4  2  1  0
  5  7  2  0
  5  9  1  0
  6  8  1  0
  7 10  1  0
  9  6  2  0
 10 19  1  0
 10  8  2  0
 11 19  1  0
 12 17  1  0
 13 14  1  0
 13 12  1  0
 15 14  1  0
 15 24  1  0
 15 16  1  0
 17 11  1  0
 17 16  1  0
 18 11  2  0
 19 20  1  0
 21 22  2  0
 22 41  1  0
 23 22  1  0
 23 26  1  0
 24 25  1  0
 24 21  1  0
 25 23  2  0
 26 27  1  0
 27 28  2  0
 29 32  1  0
 29 28  1  0
 30 29  2  0
 31 30  1  0
 31 26  2  0
 32 33  1  0
 33 34  1  0
 34 35  2  0
 36 35  1  0
 36 40  1  0
 37 36  2  0
 38 33  2  0
 38 37  1  0
 39 38  1  0
 41 42  1  0
 42 45  1  0
 42 44  1  0
 43 41  2  0
 46 21  1  0
 46 47  1  0
 48 46  1  0
 50 51  1  0
 50 49  2  0
 52 63  2  0
 53 51  1  0
 53 58  1  0
 54 62  1  0
 54 64  1  0
 55 61  1  0
 55 57  1  0
 56 62  1  0
 57 56  1  0
 58 57  2  0
 59 60  1  0
 59 53  2  0
 60 55  2  0
 61 54  1  0
 62 52  1  0
 64 66  2  0
 65 64  1  0
 67 65  1  0
 68 77  2  0
 68 73  1  0
 69 65  1  0
 69 73  1  0
 70 69  1  0
 71 72  1  0
 71 70  1  0
 72 68  1  0
 73 74  2  0
 74 75  1  0
 76 75  2  0
 77 76  1  0
 78 52  1  0
 78 83  1  0
 78 79  1  0
 79 82  1  1
 79 80  1  0
 81 79  1  0
 83 86  1  0
 84 88  1  0
 84 83  1  0
 85 84  2  0
 88 87  1  0
 90 91  1  0
 90 88  1  0
 90 89  1  0
M  ISO  4  11 100  19 100  50 101  51 101
M  END
>  <TORSDO>  (69) 
F 19

>  <SCORE>  (69) 
-13.934

>  <name>  (69) 
68

>  <ligand_id>  (69) 
68

>  <original_smiles>  (69) 
[H]c1c([H])c([H])c2c(c1[H])C([H])([H])C([H])([H])C([H])([H])C2([H])N([H])C(=O)C1([H])N(C(=O)C([H])(N([H])C(=O)C([H])(N([H])C([H])([H])[H])C([H])([H])[H])C(C([H])([H])[H])(C([H])([H])[H])C([H])([H])[H])C([H])([H])c2c([H])c(OC([H])([H])C([H])([H])C(=O)N([H])c3c([H])c([H])c(N([H])C(=O)N4C([H])([H])C([H])([H])C([H])([H])C([H])(n5nc(-c6c([H])c([H])c(Oc7c([H])c([H])c(F)c([H])c7F)c([H])c6[H])c(C(=O)N([H])[H])c5N([H])[H])C4([H])[H])c([H])c3[H])c([H])c([H])c2C1([H])[H]

>  <smiles>  (69) 
[H]c1c([H])c([H])c2c(c1[H])C([H])([H])C([H])([H])C([H])([H])C2([H])N([H])C(=O)C1([H])N(C(=O)C([H])(N([H])C(=O)C([H])(N([H])C([H])([H])[H])C([H])([H])[H])C(C([H])([H])[H])(C([H])([H])[H])C([H])([H])[H])C([H])([H])c2c([H])c(OC([H])([H])C([H])([H])C(=O)N([H])c3c([H])c([H])c(N([H])C(=O)N4C([H])([H])C([H])([H])C([H])([H])C([H])(n5nc(-c6c([H])c([H])c(Oc7c([H])c([H])c(F)c([H])c7F)c([H])c6[H])c(C(=O)N([H])[H])c5N([H])[H])C4([H])[H])c([H])c3[H])c([H])c([H])c2C1([H])[H]

$$$$
69:0:0
     RDKit          3D

 97105  0  0  1  0  0  0  0  0999 V2000
  -29.7200  -21.6280   19.6640 C   0  0  0  0  0  1  0  0  0  0  0  0
  -30.1290  -21.8090   21.0610 N   0  0  0  0  0  0  0  0  0  0  0  0
  -31.3670  -21.0520   21.3090 C   0  0  0  0  0  2  0  0  0  0  0  0
  -30.1750  -18.8710   21.8620 C   0  0  0  0  0  3  0  0  0  0  0  0
  -31.9770  -17.3920   20.2890 C   0  0  0  0  0  3  0  0  0  0  0  0
  -31.2170  -19.5400   21.1880 C   0  0  0  0  0  0  0  0  0  0  0  0
  -30.9220  -16.7180   20.9540 C   0  0  0  0  0  0  0  0  0  0  0  0
  -30.0320  -17.4730   21.7470 C   0  0  0  0  0  0  0  0  0  0  0  0
  -32.1210  -18.7910   20.4060 C   0  0  0  0  0  0  0  0  0  0  0  0
  -29.0240  -16.8430   22.3960 F   0  0  0  0  0  0  0  0  0  0  0  0
  -33.1310  -19.4120   19.7500 F   0  0  0  0  0  0  0  0  0  0  0  0
  -31.1840  -14.3810   20.0700 C   0  0  0  0  0  0  0  0  0  0  0  0
  -30.7510  -12.2490   18.9080 C   0  0  0  0  0  2  0  0  0  0  0  0
  -29.7540  -12.4690   17.7530 C   0  0  0  0  0  2  0  0  0  0  0  0
  -28.3030  -12.3580   18.2570 C   0  0  0  0  0  2  0  0  0  0  0  0
  -28.0460  -13.2100   19.5270 C   0  0  0  0  0  3  0  0  0  0  0  0
  -29.1470  -12.9720   20.5850 C   0  0  0  0  0  2  0  0  0  0  0  0
  -30.4590  -13.2360   19.9610 N   0  0  0  0  0  0  0  0  0  0  0  0
  -32.2340  -14.5600   19.4460 O   0  0  0  0  0  0  0  0  0  0  0  0
  -30.6620  -15.3150   20.8820 N   0  0  0  0  0  0  0  0  0  0  0  0
  -29.8410  -15.0220   21.3890 H   0  0  0  0  0  0  0  0  0  0  0  0
  -25.6910  -13.8630   20.3420 C   0  0  0  0  0  0  0  0  0  0  0  0
  -24.6270  -13.1110   20.7630 C   0  0  0  0  0  0  0  0  0  0  0  0
  -25.0610  -11.7510   20.7140 C   0  0  0  0  0  0  0  0  0  0  0  0
  -26.7100  -12.9630   20.0690 N   0  0  0  0  0  0  0  0  0  0  0  0
  -26.3340  -11.6880   20.3460 N   0  0  0  0  0  0  0  0  0  0  0  0
  -24.3210  -10.5020   20.9410 C   0  0  0  0  0  0  0  0  0  0  0  0
  -24.7250   -9.5740   21.9260 C   0  0  0  0  0  3  0  0  0  0  0  0
  -23.9870   -8.3900   22.1380 C   0  0  0  0  0  3  0  0  0  0  0  0
  -22.8330   -8.1240   21.3640 C   0  0  0  0  0  0  0  0  0  0  0  0
  -22.4490   -9.0400   20.3700 C   0  0  0  0  0  3  0  0  0  0  0  0
  -23.1860  -10.2170   20.1560 C   0  0  0  0  0  3  0  0  0  0  0  0
  -22.0690   -6.9880   21.4830 O   0  0  0  0  0  0  0  0  0  0  0  0
  -21.9020   -6.3570   22.6880 C   0  0  0  0  0  0  0  0  0  0  0  0
  -21.3620   -7.0230   23.8100 C   0  0  0  0  0  3  0  0  0  0  0  0
  -21.1420   -6.3170   25.0100 C   0  0  0  0  0  3  0  0  0  0  0  0
  -21.4500   -4.9470   25.0880 C   0  0  0  0  0  0  0  0  0  0  0  0
  -21.9810   -4.2790   23.9700 C   0  0  0  0  0  3  0  0  0  0  0  0
  -22.2030   -4.9820   22.7730 C   0  0  0  0  0  0  0  0  0  0  0  0
  -22.6950   -4.3300   21.6930 F   0  0  0  0  0  0  0  0  0  0  0  0
  -21.2310   -4.2660   26.2380 F   0  0  0  0  0  0  0  0  0  0  0  0
  -23.2530  -13.6140   21.1010 C   0  0  0  0  0  0  0  0  0  0  0  0
  -22.5680  -12.9480   22.0240 N   0  0  0  0  0  0  0  0  0  0  0  0
  -22.7960  -14.6300   20.5810 O   0  0  0  0  0  0  0  0  0  0  0  0
  -22.9520  -12.1250   22.4660 H   0  0  0  0  0  0  0  0  0  0  0  0
  -21.6470  -13.2650   22.2940 H   0  0  0  0  0  0  0  0  0  0  0  0
  -25.8710  -15.2300   20.1550 N   0  0  0  0  0  0  0  0  0  0  0  0
  -25.1260  -15.9020   20.3080 H   0  0  0  0  0  0  0  0  0  0  0  0
  -26.7270  -15.6580   19.8240 H   0  0  0  0  0  0  0  0  0  0  0  0
  -30.3340  -23.2490   21.2830 C   0  0  0  0  0  2  0  0  0  0  0  0
  -30.1650  -23.6900   22.7590 C   0  0  0  0  0  2  0  0  0  0  0  0
  -30.1660  -25.1640   22.9450 N   0  0  0  0  0  4  0  0  0  0  0  0
  -31.0700  -25.5470   22.7130 H   0  0  0  0  0  0  0  0  0  0  0  0
  -30.0420  -25.3240   23.9330 H   0  0  0  0  0  0  0  0  0  0  0  0
  -29.0910  -25.9040   22.2400 C   0  0  0  0  0  2  0  0  0  0  0  0
  -29.6160  -26.7320   21.0480 C   0  0  0  0  0  2  0  0  0  0  0  0
  -28.7090  -26.6540   19.9520 O   0  0  0  0  0  0  0  0  0  0  0  0
  -24.5890  -31.6110   23.0670 C   0  0  0  0  0  0  0  0  0  0  0  0
  -27.5390  -27.3750   20.0080 C   0  0  0  0  0  0  0  0  0  0  0  0
  -23.5060  -30.2120   21.3360 C   0  0  0  0  0  3  0  0  0  0  0  0
  -25.0770  -28.7570   19.9480 C   0  0  0  0  0  0  0  0  0  0  0  0
  -26.0150  -30.6730   21.2550 C   0  0  0  0  0  2  0  0  0  0  0  0
  -26.1810  -29.3170   20.6030 C   0  0  0  0  0  0  0  0  0  0  0  0
  -27.4130  -28.6310   20.6430 C   0  0  0  0  0  3  0  0  0  0  0  0
  -26.4210  -26.8250   19.3460 C   0  0  0  0  0  3  0  0  0  0  0  0
  -25.1870  -27.5030   19.3220 C   0  0  0  0  0  3  0  0  0  0  0  0
  -23.8020  -29.5700   19.9530 C   0  0  0  0  0  2  0  0  0  0  0  0
  -24.7190  -30.8420   21.9490 N   0  0  0  0  0  0  0  0  0  0  0  0
  -23.4760  -31.8360   23.5630 O   0  0  0  0  0  0  0  0  0  0  0  0
  -22.8450  -29.1480   22.2420 C   0  0  0  0  0  0  0  0  0  0  0  0
  -21.5230  -28.9690   22.0870 N   0  0  0  0  0  0  0  0  0  0  0  0
  -23.5200  -28.4850   23.0340 O   0  0  0  0  0  0  0  0  0  0  0  0
  -21.0420  -29.5570   21.4210 H   0  0  0  0  0  0  0  0  0  0  0  0
  -18.1400  -27.7800   22.5170 C   0  0  0  0  0  0  0  0  0  0  0  0
  -20.6990  -27.9960   22.8020 C   0  0  0  0  0  3  0  0  0  0  0  0
  -20.7880  -26.6000   22.1420 C   0  0  0  0  0  2  0  0  0  0  0  0
  -19.6830  -26.3480   21.1100 C   0  0  0  0  0  2  0  0  0  0  0  0
  -18.3030  -26.4700   21.7630 C   0  0  0  0  0  2  0  0  0  0  0  0
  -19.2650  -28.5030   22.9910 C   0  0  0  0  0  0  0  0  0  0  0  0
  -19.0620  -29.7330   23.6540 C   0  0  0  0  0  3  0  0  0  0  0  0
  -17.7650  -30.2400   23.8470 C   0  0  0  0  0  3  0  0  0  0  0  0
  -16.6520  -29.5140   23.3900 C   0  0  0  0  0  3  0  0  0  0  0  0
  -16.8400  -28.2840   22.7320 C   0  0  0  0  0  3  0  0  0  0  0  0
  -25.8260  -32.2660   23.7590 C   0  0  0  0  0  3  0  0  0  0  0  0
  -25.4450  -33.6290   24.1530 N   0  0  0  0  0  0  0  0  0  0  0  0
  -25.7320  -34.7310   23.4460 C   0  0  0  0  0  0  0  0  0  0  0  0
  -26.4190  -34.7090   22.4200 O   0  0  0  0  0  0  0  0  0  0  0  0
  -24.8420  -33.7170   24.9570 H   0  0  0  0  0  0  0  0  0  0  0  0
  -23.9070  -36.4350   23.1540 C   0  0  0  0  0  1  0  0  0  0  0  0
  -25.1670  -36.0700   23.9560 C   0  0  0  0  0  3  0  0  0  0  0  0
  -27.2430  -37.0350   24.8410 C   0  0  0  0  0  1  0  0  0  0  0  0
  -26.1400  -37.1820   23.8940 N   0  0  0  0  0  0  0  0  0  0  0  0
  -25.6830  -38.0720   24.0750 H   0  0  0  0  0  0  0  0  0  0  0  0
  -26.3450  -31.4480   25.0040 C   0  0  1  0  0  0  0  0  0  0  0  0
  -25.2390  -31.1000   26.0270 C   0  0  0  0  0  1  0  0  0  0  0  0
  -26.9980  -30.1230   24.5460 C   0  0  0  0  0  1  0  0  0  0  0  0
  -27.4450  -32.2510   25.7410 C   0  0  0  0  0  1  0  0  0  0  0  0
  1  2  1  0
  2 50  1  0
  2  3  1  0
  5  9  2  0
  5  7  1  0
  6  3  1  0
  6  4  2  0
  7  8  2  0
  8  4  1  0
  8 10  1  0
  9  6  1  0
 11  9  1  0
 12 20  1  0
 13 18  1  0
 14 15  1  0
 14 13  1  0
 16 15  1  0
 16 25  1  0
 16 17  1  0
 18 12  1  0
 18 17  1  0
 19 12  2  0
 20  7  1  0
 20 21  1  0
 22 23  2  0
 23 42  1  0
 24 23  1  0
 24 27  1  0
 25 22  1  0
 25 26  1  0
 26 24  2  0
 27 28  1  0
 28 29  2  0
 30 33  1  0
 30 29  1  0
 31 30  2  0
 32 31  1  0
 32 27  2  0
 33 34  1  0
 34 39  2  0
 34 35  1  0
 35 36  2  0
 36 37  1  0
 37 41  1  0
 38 37  2  0
 39 38  1  0
 40 39  1  0
 42 43  1  0
 43 46  1  0
 43 45  1  0
 44 42  2  0
 47 48  1  0
 47 22  1  0
 49 47  1  0
 50 51  1  0
 51 52  1  0
 52 54  1  0
 53 52  1  0
 55 52  1  0
 56 55  1  0
 57 59  1  0
 57 56  1  0
 58 69  2  0
 59 64  1  0
 60 68  1  0
 60 70  1  0
 61 67  1  0
 61 63  1  0
 62 68  1  0
 63 64  2  0
 63 62  1  0
 65 59  2  0
 66 65  1  0
 66 61  2  0
 67 60  1  0
 68 58  1  0
 70 72  2  0
 71 70  1  0
 73 71  1  0
 74 83  2  0
 74 79  1  0
 75 71  1  0
 75 79  1  0
 76 75  1  0
 77 78  1  0
 77 76  1  0
 78 74  1  0
 79 80  2  0
 80 81  1  0
 82 81  2  0
 83 82  1  0
 84 58  1  0
 84 85  1  0
 84 94  1  0
 85 88  1  0
 86 90  1  0
 86 85  1  0
 87 86  2  0
 90 89  1  0
 92 90  1  0
 92 93  1  0
 92 91  1  0
 94 97  1  1
 94 95  1  0
 96 94  1  0
M  ISO  4  12 100  20 100  56 101  57 101
M  END
>  <TORSDO>  (70) 
F 23

>  <SCORE>  (70) 
-11.219

>  <name>  (70) 
69

>  <ligand_id>  (70) 
69

>  <original_smiles>  (70) 
[H]c1c([H])c([H])c2c(c1[H])C([H])([H])C([H])([H])C([H])([H])C2([H])N([H])C(=O)C1([H])N(C(=O)C([H])(N([H])C(=O)C([H])(N([H])C([H])([H])[H])C([H])([H])[H])C(C([H])([H])[H])(C([H])([H])[H])C([H])([H])[H])C([H])([H])c2c([H])c(OC([H])([H])C([H])([H])[N+]([H])([H])C([H])([H])C([H])([H])N(C([H])([H])[H])C([H])([H])c3c([H])c(F)c(N([H])C(=O)N4C([H])([H])C([H])([H])C([H])([H])C([H])(n5nc(-c6c([H])c([H])c(Oc7c([H])c([H])c(F)c([H])c7F)c([H])c6[H])c(C(=O)N([H])[H])c5N([H])[H])C4([H])[H])c([H])c3F)c([H])c([H])c2C1([H])[H]

>  <smiles>  (70) 
[H]c1c([H])c([H])c2c(c1[H])C([H])([H])C([H])([H])C([H])([H])C2([H])N([H])C(=O)C1([H])N(C(=O)C([H])(N([H])C(=O)C([H])(N([H])C([H])([H])[H])C([H])([H])[H])C(C([H])([H])[H])(C([H])([H])[H])C([H])([H])[H])C([H])([H])c2c([H])c(OC([H])([H])C([H])([H])[N+]([H])([H])C([H])([H])C([H])([H])N(C([H])([H])[H])C([H])([H])c3c([H])c(F)c(N([H])C(=O)N4C([H])([H])C([H])([H])C([H])([H])C([H])(n5nc(-c6c([H])c([H])c(Oc7c([H])c([H])c(F)c([H])c7F)c([H])c6[H])c(C(=O)N([H])[H])c5N([H])[H])C4([H])[H])c([H])c3F)c([H])c([H])c2C1([H])[H]

$$$$
70:0:0
     RDKit          3D

 91 99  0  0  1  0  0  0  0  0999 V2000
  -27.5220  -21.8020   18.3920 C   0  0  0  0  0  2  0  0  0  0  0  0
  -28.9900  -21.4010   18.5880 C   0  0  0  0  0  2  0  0  0  0  0  0
  -27.1390  -22.6030   19.6460 C   0  0  0  0  0  2  0  0  0  0  0  0
  -29.2770  -21.6720   20.0710 C   0  0  0  0  0  3  0  0  0  0  0  0
  -28.3970  -22.8410   20.3990 N   0  0  1  0  0  4  0  0  0  0  0  0
  -28.2000  -22.8280   21.3920 H   0  0  0  0  0  0  0  0  0  0  0  0
  -28.9700  -20.4010   20.9320 C   0  0  0  0  0  2  0  0  0  0  0  0
  -29.8360  -19.3070   20.5790 O   0  0  0  0  0  0  0  0  0  0  0  0
  -29.3750  -18.0100   20.9890 C   0  0  0  0  0  2  0  0  0  0  0  0
  -30.4590  -16.9380   20.7020 C   0  0  0  0  0  2  0  0  0  0  0  0
  -30.6990  -14.4810   20.3920 C   0  0  0  0  0  0  0  0  0  0  0  0
  -30.3840  -12.3120   19.2690 C   0  0  0  0  0  2  0  0  0  0  0  0
  -29.4430  -12.5140   18.0640 C   0  0  0  0  0  2  0  0  0  0  0  0
  -27.9710  -12.3830   18.4980 C   0  0  0  0  0  2  0  0  0  0  0  0
  -27.6370  -13.2300   19.7560 C   0  0  0  0  0  3  0  0  0  0  0  0
  -28.6960  -13.0230   20.8640 C   0  0  0  0  0  2  0  0  0  0  0  0
  -30.0170  -13.3090   20.2870 N   0  0  0  0  0  0  0  0  0  0  0  0
  -31.8360  -14.6360   19.9390 O   0  0  0  0  0  0  0  0  0  0  0  0
  -30.0000  -15.5410   20.8380 N   0  0  0  0  0  0  0  0  0  0  0  0
  -29.0600  -15.3740   21.1670 H   0  0  0  0  0  0  0  0  0  0  0  0
  -25.2410  -13.8460   20.4660 C   0  0  0  0  0  0  0  0  0  0  0  0
  -24.1740  -13.0770   20.8440 C   0  0  0  0  0  0  0  0  0  0  0  0
  -24.6330  -11.7250   20.8240 C   0  0  0  0  0  0  0  0  0  0  0  0
  -26.2860  -12.9610   20.2410 N   0  0  0  0  0  0  0  0  0  0  0  0
  -25.9230  -11.6820   20.5150 N   0  0  0  0  0  0  0  0  0  0  0  0
  -23.9060  -10.4660   21.0260 C   0  0  0  0  0  0  0  0  0  0  0  0
  -24.3450   -9.5010   21.9590 C   0  0  0  0  0  3  0  0  0  0  0  0
  -23.6190   -8.3050   22.1490 C   0  0  0  0  0  3  0  0  0  0  0  0
  -22.4390   -8.0660   21.4040 C   0  0  0  0  0  0  0  0  0  0  0  0
  -22.0180   -9.0190   20.4610 C   0  0  0  0  0  3  0  0  0  0  0  0
  -22.7450  -10.2070   20.2690 C   0  0  0  0  0  3  0  0  0  0  0  0
  -21.6840   -6.9230   21.5030 O   0  0  0  0  0  0  0  0  0  0  0  0
  -21.6490   -6.1800   22.6560 C   0  0  0  0  0  0  0  0  0  0  0  0
  -21.2470   -6.7360   23.8900 C   0  0  0  0  0  3  0  0  0  0  0  0
  -21.1590   -5.9190   25.0350 C   0  0  0  0  0  3  0  0  0  0  0  0
  -21.4650   -4.5480   24.9470 C   0  0  0  0  0  0  0  0  0  0  0  0
  -21.8600   -3.9920   23.7180 C   0  0  0  0  0  3  0  0  0  0  0  0
  -21.9490   -4.8060   22.5750 C   0  0  0  0  0  0  0  0  0  0  0  0
  -22.3100   -4.2590   21.3890 F   0  0  0  0  0  0  0  0  0  0  0  0
  -21.3730   -3.7610   26.0450 F   0  0  0  0  0  0  0  0  0  0  0  0
  -22.7770  -13.5600   21.1140 C   0  0  0  0  0  0  0  0  0  0  0  0
  -22.0500  -12.8730   21.9880 N   0  0  0  0  0  0  0  0  0  0  0  0
  -22.3390  -14.5810   20.5860 O   0  0  0  0  0  0  0  0  0  0  0  0
  -22.4160  -12.0480   22.4400 H   0  0  0  0  0  0  0  0  0  0  0  0
  -21.1130  -13.1770   22.2100 H   0  0  0  0  0  0  0  0  0  0  0  0
  -25.4070  -15.2140   20.2750 N   0  0  0  0  0  0  0  0  0  0  0  0
  -24.6360  -15.8650   20.3720 H   0  0  0  0  0  0  0  0  0  0  0  0
  -26.2480  -15.6470   19.9140 H   0  0  0  0  0  0  0  0  0  0  0  0
  -28.9840  -24.1900   20.0820 C   0  0  0  0  0  2  0  0  0  0  0  0
  -28.2630  -25.3720   20.7970 C   0  0  0  0  0  2  0  0  0  0  0  0
  -28.4130  -26.6500   20.1340 O   0  0  0  0  0  0  0  0  0  0  0  0
  -24.6530  -31.8710   23.2160 C   0  0  0  0  0  0  0  0  0  0  0  0
  -27.2700  -27.4250   20.1160 C   0  0  0  0  0  0  0  0  0  0  0  0
  -23.4350  -30.4740   21.5780 C   0  0  0  0  0  3  0  0  0  0  0  0
  -24.8810  -28.9420   20.1370 C   0  0  0  0  0  0  0  0  0  0  0  0
  -25.9620  -30.8310   21.3660 C   0  0  0  0  0  2  0  0  0  0  0  0
  -26.0440  -29.4610   20.7200 C   0  0  0  0  0  0  0  0  0  0  0  0
  -27.2440  -28.7120   20.7030 C   0  0  0  0  0  3  0  0  0  0  0  0
  -26.0940  -26.9310   19.5080 C   0  0  0  0  0  3  0  0  0  0  0  0
  -24.9020  -27.6760   19.5250 C   0  0  0  0  0  3  0  0  0  0  0  0
  -23.6360  -29.7990   20.1940 C   0  0  0  0  0  2  0  0  0  0  0  0
  -24.7010  -31.0740   22.1110 N   0  0  0  0  0  0  0  0  0  0  0  0
  -23.5740  -32.1430   23.7630 O   0  0  0  0  0  0  0  0  0  0  0  0
  -22.7890  -29.4510   22.5400 C   0  0  0  0  0  0  0  0  0  0  0  0
  -21.4630  -29.2750   22.4250 N   0  0  0  0  0  0  0  0  0  0  0  0
  -23.4780  -28.8190   23.3440 O   0  0  0  0  0  0  0  0  0  0  0  0
  -20.9690  -29.8370   21.7450 H   0  0  0  0  0  0  0  0  0  0  0  0
  -18.0880  -28.0910   22.9460 C   0  0  0  0  0  0  0  0  0  0  0  0
  -20.6500  -28.3370   23.1970 C   0  0  0  0  0  3  0  0  0  0  0  0
  -20.7410  -26.9080   22.6130 C   0  0  0  0  0  2  0  0  0  0  0  0
  -19.6290  -26.5960   21.6070 C   0  0  0  0  0  2  0  0  0  0  0  0
  -18.2530  -26.7430   22.2630 C   0  0  0  0  0  2  0  0  0  0  0  0
  -19.2130  -28.8460   23.3710 C   0  0  0  0  0  0  0  0  0  0  0  0
  -19.0060  -30.1080   23.9690 C   0  0  0  0  0  3  0  0  0  0  0  0
  -17.7050  -30.6140   24.1470 C   0  0  0  0  0  3  0  0  0  0  0  0
  -16.5930  -29.8560   23.7390 C   0  0  0  0  0  3  0  0  0  0  0  0
  -16.7860  -28.5960   23.1440 C   0  0  0  0  0  3  0  0  0  0  0  0
  -25.9420  -32.4990   23.8290 C   0  0  0  0  0  3  0  0  0  0  0  0
  -25.6360  -33.8940   24.1730 N   0  0  0  0  0  0  0  0  0  0  0  0
  -25.9600  -34.9520   23.4170 C   0  0  0  0  0  0  0  0  0  0  0  0
  -26.6200  -34.8550   22.3780 O   0  0  0  0  0  0  0  0  0  0  0  0
  -25.0510  -34.0430   24.9810 H   0  0  0  0  0  0  0  0  0  0  0  0
  -24.2260  -36.7440   23.0870 C   0  0  0  0  0  1  0  0  0  0  0  0
  -25.4750  -36.3360   23.8860 C   0  0  0  0  0  3  0  0  0  0  0  0
  -27.6150  -37.2180   24.7040 C   0  0  0  0  0  1  0  0  0  0  0  0
  -26.5050  -37.3910   23.7720 N   0  0  0  0  0  0  0  0  0  0  0  0
  -26.0990  -38.3100   23.9290 H   0  0  0  0  0  0  0  0  0  0  0  0
  -26.4750  -31.7170   25.0930 C   0  0  1  0  0  0  0  0  0  0  0  0
  -25.3950  -31.4710   26.1710 C   0  0  0  0  0  1  0  0  0  0  0  0
  -27.0530  -30.3430   24.6820 C   0  0  0  0  0  1  0  0  0  0  0  0
  -27.6350  -32.5050   25.7480 C   0  0  0  0  0  1  0  0  0  0  0  0
  1  2  1  0
  1  3  1  0
  2  4  1  0
  3  5  1  0
  4  5  1  0
  4  7  1  0
  5  6  1  1
  8  7  1  0
  8  9  1  0
 10 19  1  0
 10  9  1  0
 11 19  1  0
 12 17  1  0
 13 14  1  0
 13 12  1  0
 15 14  1  0
 15 24  1  0
 15 16  1  0
 17 11  1  0
 17 16  1  0
 18 11  2  0
 19 20  1  0
 21 22  2  0
 22 41  1  0
 23 22  1  0
 23 26  1  0
 24 21  1  0
 24 25  1  0
 25 23  2  0
 26 27  1  0
 27 28  2  0
 29 32  1  0
 29 28  1  0
 30 29  2  0
 31 30  1  0
 31 26  2  0
 32 33  1  0
 33 34  1  0
 34 35  2  0
 36 35  1  0
 36 40  1  0
 37 36  2  0
 38 33  2  0
 38 37  1  0
 39 38  1  0
 41 42  1  0
 42 45  1  0
 42 44  1  0
 43 41  2  0
 46 47  1  0
 46 21  1  0
 48 46  1  0
 49  5  1  0
 49 50  1  0
 51 50  1  0
 52 63  2  0
 53 51  1  0
 53 58  1  0
 54 62  1  0
 54 64  1  0
 55 61  1  0
 55 57  1  0
 56 62  1  0
 57 56  1  0
 58 57  2  0
 59 60  1  0
 59 53  2  0
 60 55  2  0
 61 54  1  0
 62 52  1  0
 64 66  2  0
 65 64  1  0
 67 65  1  0
 68 77  2  0
 68 73  1  0
 69 65  1  0
 69 73  1  0
 70 69  1  0
 71 72  1  0
 71 70  1  0
 72 68  1  0
 73 74  2  0
 74 75  1  0
 76 75  2  0
 77 76  1  0
 78 52  1  0
 78 79  1  0
 78 88  1  0
 79 82  1  0
 80 84  1  0
 80 79  1  0
 81 80  2  0
 84 83  1  0
 86 84  1  0
 86 87  1  0
 86 85  1  0
 88 91  1  1
 88 89  1  0
 90 88  1  0
M  ISO  4  11 100  19 100  50 101  51 101
M  END
>  <TORSDO>  (71) 
F 22

>  <SCORE>  (71) 
-13.022

>  <name>  (71) 
70

>  <ligand_id>  (71) 
70

>  <original_smiles>  (71) 
[H]c1c([H])c([H])c2c(c1[H])C([H])([H])C([H])([H])C([H])([H])C2([H])N([H])C(=O)C1([H])N(C(=O)C([H])(N([H])C(=O)C([H])(N([H])C([H])([H])[H])C([H])([H])[H])C(C([H])([H])[H])(C([H])([H])[H])C([H])([H])[H])C([H])([H])c2c([H])c(OC([H])([H])C([H])([H])[N+]3([H])C([H])([H])C([H])([H])C([H])([H])C3([H])C([H])([H])OC([H])([H])C([H])([H])N([H])C(=O)N3C([H])([H])C([H])([H])C([H])([H])C([H])(n4nc(-c5c([H])c([H])c(Oc6c([H])c([H])c(F)c([H])c6F)c([H])c5[H])c(C(=O)N([H])[H])c4N([H])[H])C3([H])[H])c([H])c([H])c2C1([H])[H]

>  <smiles>  (71) 
[H]c1c([H])c([H])c2c(c1[H])C([H])([H])C([H])([H])C([H])([H])C2([H])N([H])C(=O)C1([H])N(C(=O)C([H])(N([H])C(=O)C([H])(N([H])C([H])([H])[H])C([H])([H])[H])C(C([H])([H])[H])(C([H])([H])[H])C([H])([H])[H])C([H])([H])c2c([H])c(OC([H])([H])C([H])([H])[N+]3([H])C([H])([H])C([H])([H])C([H])([H])C3([H])C([H])([H])OC([H])([H])C([H])([H])N([H])C(=O)N3C([H])([H])C([H])([H])C([H])([H])C([H])(n4nc(-c5c([H])c([H])c(Oc6c([H])c([H])c(F)c([H])c6F)c([H])c5[H])c(C(=O)N([H])[H])c4N([H])[H])C3([H])[H])c([H])c([H])c2C1([H])[H]

$$$$
71:0:0
     RDKit          3D

 95103  0  0  1  0  0  0  0  0999 V2000
  -29.8540  -22.0820   19.8330 C   0  0  0  0  0  2  0  0  0  0  0  0
  -31.4400  -21.2720   18.0670 C   0  0  0  0  0  1  0  0  0  0  0  0
  -30.5770  -20.9630   19.2090 N   0  0  0  0  0  0  0  0  0  0  0  0
  -29.9730  -17.9180   21.3570 C   0  0  0  0  0  3  0  0  0  0  0  0
  -30.1030  -19.2670   20.9470 C   0  0  0  0  0  3  0  0  0  0  0  0
  -30.4250  -17.1970   19.0890 C   0  0  0  0  0  3  0  0  0  0  0  0
  -30.1580  -16.8640   20.4360 C   0  0  0  0  0  0  0  0  0  0  0  0
  -30.4060  -19.6060   19.6030 C   0  0  0  0  0  0  0  0  0  0  0  0
  -30.5450  -18.5340   18.6750 C   0  0  0  0  0  0  0  0  0  0  0  0
  -30.7800  -18.7550   17.3570 F   0  0  0  0  0  0  0  0  0  0  0  0
  -30.7000  -14.4620   20.3240 C   0  0  0  0  0  0  0  0  0  0  0  0
  -30.3510  -12.3320   19.1560 C   0  0  0  0  0  2  0  0  0  0  0  0
  -29.4010  -12.5940   17.9680 C   0  0  0  0  0  2  0  0  0  0  0  0
  -27.9310  -12.4660   18.4120 C   0  0  0  0  0  2  0  0  0  0  0  0
  -27.6210  -13.2700   19.7050 C   0  0  0  0  0  3  0  0  0  0  0  0
  -28.6890  -13.0120   20.7940 C   0  0  0  0  0  2  0  0  0  0  0  0
  -30.0120  -13.2950   20.2150 N   0  0  0  0  0  0  0  0  0  0  0  0
  -31.8270  -14.6230   19.8470 O   0  0  0  0  0  0  0  0  0  0  0  0
  -30.0200  -15.5010   20.8490 N   0  0  0  0  0  0  0  0  0  0  0  0
  -29.2050  -15.2720   21.3960 H   0  0  0  0  0  0  0  0  0  0  0  0
  -25.2240  -13.8740   20.4270 C   0  0  0  0  0  0  0  0  0  0  0  0
  -24.1610  -13.1010   20.8100 C   0  0  0  0  0  0  0  0  0  0  0  0
  -24.6270  -11.7500   20.7820 C   0  0  0  0  0  0  0  0  0  0  0  0
  -26.2710  -12.9950   20.1930 N   0  0  0  0  0  0  0  0  0  0  0  0
  -25.9140  -11.7120   20.4630 N   0  0  0  0  0  0  0  0  0  0  0  0
  -23.9060  -10.4870   20.9860 C   0  0  0  0  0  0  0  0  0  0  0  0
  -24.3440   -9.5300   21.9280 C   0  0  0  0  0  3  0  0  0  0  0  0
  -23.6230   -8.3310   22.1200 C   0  0  0  0  0  3  0  0  0  0  0  0
  -22.4510   -8.0800   21.3670 C   0  0  0  0  0  0  0  0  0  0  0  0
  -22.0330   -9.0250   20.4140 C   0  0  0  0  0  3  0  0  0  0  0  0
  -22.7530  -10.2160   20.2220 C   0  0  0  0  0  3  0  0  0  0  0  0
  -21.7000   -6.9330   21.4670 O   0  0  0  0  0  0  0  0  0  0  0  0
  -21.6550   -6.2030   22.6280 C   0  0  0  0  0  0  0  0  0  0  0  0
  -21.2110   -6.7660   23.8460 C   0  0  0  0  0  3  0  0  0  0  0  0
  -21.1120   -5.9610   24.9980 C   0  0  0  0  0  3  0  0  0  0  0  0
  -21.4450   -4.5940   24.9340 C   0  0  0  0  0  0  0  0  0  0  0  0
  -21.8810   -4.0320   23.7230 C   0  0  0  0  0  3  0  0  0  0  0  0
  -21.9810   -4.8340   22.5720 C   0  0  0  0  0  0  0  0  0  0  0  0
  -22.3810   -4.2800   21.4010 F   0  0  0  0  0  0  0  0  0  0  0  0
  -21.3430   -3.8200   26.0390 F   0  0  0  0  0  0  0  0  0  0  0  0
  -22.7660  -13.5750   21.0920 C   0  0  0  0  0  0  0  0  0  0  0  0
  -22.0480  -12.8800   21.9680 N   0  0  0  0  0  0  0  0  0  0  0  0
  -22.3200  -14.5960   20.5720 O   0  0  0  0  0  0  0  0  0  0  0  0
  -22.4220  -12.0530   22.4100 H   0  0  0  0  0  0  0  0  0  0  0  0
  -21.1110  -13.1780   22.1990 H   0  0  0  0  0  0  0  0  0  0  0  0
  -25.3850  -15.2440   20.2410 N   0  0  0  0  0  0  0  0  0  0  0  0
  -24.6190  -15.8990   20.3530 H   0  0  0  0  0  0  0  0  0  0  0  0
  -26.2360  -15.6820   19.9100 H   0  0  0  0  0  0  0  0  0  0  0  0
  -30.7840  -23.0330   20.6310 C   0  0  0  0  0  2  0  0  0  0  0  0
  -31.4730  -25.3400   21.0670 C   0  0  0  0  0  1  0  0  0  0  0  0
  -30.3550  -24.4630   20.6330 N   0  0  2  0  0  4  0  0  0  0  0  0
  -30.1820  -24.7100   19.6680 H   0  0  0  0  0  0  0  0  0  0  0  0
  -29.0820  -24.7040   21.3740 C   0  0  0  0  0  2  0  0  0  0  0  0
  -28.6190  -26.1800   21.4350 C   0  0  0  0  0  2  0  0  0  0  0  0
  -28.3180  -26.6950   20.1340 O   0  0  0  0  0  0  0  0  0  0  0  0
  -24.5550  -31.8790   23.2280 C   0  0  0  0  0  0  0  0  0  0  0  0
  -27.1850  -27.4700   20.1180 C   0  0  0  0  0  0  0  0  0  0  0  0
  -23.3390  -30.4800   21.5880 C   0  0  0  0  0  3  0  0  0  0  0  0
  -24.7870  -28.9530   20.1440 C   0  0  0  0  0  0  0  0  0  0  0  0
  -25.8570  -30.8530   21.3680 C   0  0  0  0  0  2  0  0  0  0  0  0
  -25.9450  -29.4840   20.7310 C   0  0  0  0  0  0  0  0  0  0  0  0
  -27.1480  -28.7450   20.7250 C   0  0  0  0  0  3  0  0  0  0  0  0
  -26.0230  -26.9540   19.5150 C   0  0  0  0  0  3  0  0  0  0  0  0
  -24.8200  -27.6860   19.5340 C   0  0  0  0  0  3  0  0  0  0  0  0
  -23.5400  -29.8050   20.2050 C   0  0  0  0  0  2  0  0  0  0  0  0
  -24.6020  -31.0840   22.1210 N   0  0  0  0  0  0  0  0  0  0  0  0
  -23.4780  -32.1480   23.7780 O   0  0  0  0  0  0  0  0  0  0  0  0
  -22.6980  -29.4550   22.5500 C   0  0  0  0  0  0  0  0  0  0  0  0
  -21.3730  -29.2710   22.4300 N   0  0  0  0  0  0  0  0  0  0  0  0
  -23.3880  -28.8280   23.3590 O   0  0  0  0  0  0  0  0  0  0  0  0
  -20.8770  -29.8290   21.7480 H   0  0  0  0  0  0  0  0  0  0  0  0
  -18.0030  -28.0730   22.9410 C   0  0  0  0  0  0  0  0  0  0  0  0
  -20.5620  -28.3300   23.2010 C   0  0  0  0  0  3  0  0  0  0  0  0
  -20.6620  -26.9010   22.6170 C   0  0  0  0  0  2  0  0  0  0  0  0
  -19.5550  -26.5840   21.6070 C   0  0  0  0  0  2  0  0  0  0  0  0
  -18.1760  -26.7260   22.2600 C   0  0  0  0  0  2  0  0  0  0  0  0
  -19.1250  -28.8330   23.3690 C   0  0  0  0  0  0  0  0  0  0  0  0
  -18.9100  -30.0940   23.9650 C   0  0  0  0  0  3  0  0  0  0  0  0
  -17.6070  -30.5970   24.1390 C   0  0  0  0  0  3  0  0  0  0  0  0
  -16.5000  -29.8350   23.7280 C   0  0  0  0  0  3  0  0  0  0  0  0
  -16.6990  -28.5730   23.1360 C   0  0  0  0  0  3  0  0  0  0  0  0
  -25.8460  -32.5080   23.8400 C   0  0  0  0  0  3  0  0  0  0  0  0
  -25.5440  -33.9070   24.1700 N   0  0  0  0  0  0  0  0  0  0  0  0
  -25.8830  -34.9560   23.4070 C   0  0  0  0  0  0  0  0  0  0  0  0
  -26.5550  -34.8480   22.3790 O   0  0  0  0  0  0  0  0  0  0  0  0
  -24.9480  -34.0660   24.9680 H   0  0  0  0  0  0  0  0  0  0  0  0
  -24.1700  -36.7590   23.0330 C   0  0  0  0  0  1  0  0  0  0  0  0
  -25.3990  -36.3470   23.8590 C   0  0  0  0  0  3  0  0  0  0  0  0
  -27.5290  -37.2180   24.7170 C   0  0  0  0  0  1  0  0  0  0  0  0
  -26.4400  -37.3930   23.7590 N   0  0  0  0  0  0  0  0  0  0  0  0
  -26.0380  -38.3160   23.9020 H   0  0  0  0  0  0  0  0  0  0  0  0
  -26.3720  -31.7340   25.1120 C   0  0  1  0  0  0  0  0  0  0  0  0
  -25.2860  -31.4950   26.1860 C   0  0  0  0  0  1  0  0  0  0  0  0
  -26.9510  -30.3580   24.7090 C   0  0  0  0  0  1  0  0  0  0  0  0
  -27.5290  -32.5250   25.7680 C   0  0  0  0  0  1  0  0  0  0  0  0
  1 49  1  0
  2  3  1  0
  3  8  1  0
  3  1  1  0
  5  4  1  0
  6  7  1  0
  7 19  1  0
  7  4  2  0
  8  5  2  0
  9  6  2  0
  9  8  1  0
 10  9  1  0
 11 19  1  0
 12 17  1  0
 13 14  1  0
 13 12  1  0
 15 14  1  0
 15 24  1  0
 15 16  1  0
 17 11  1  0
 17 16  1  0
 18 11  2  0
 19 20  1  0
 21 22  2  0
 22 41  1  0
 23 22  1  0
 23 26  1  0
 24 21  1  0
 24 25  1  0
 25 23  2  0
 26 27  1  0
 27 28  2  0
 29 32  1  0
 29 28  1  0
 30 29  2  0
 31 30  1  0
 31 26  2  0
 32 33  1  0
 33 34  1  0
 34 35  2  0
 36 35  1  0
 36 40  1  0
 37 36  2  0
 38 33  2  0
 38 37  1  0
 39 38  1  0
 41 42  1  0
 42 45  1  0
 42 44  1  0
 43 41  2  0
 46 47  1  0
 46 21  1  0
 48 46  1  0
 49 51  1  0
 51 50  1  0
 51 53  1  0
 51 52  1  6
 53 54  1  0
 55 54  1  0
 56 67  2  0
 57 55  1  0
 57 62  1  0
 58 66  1  0
 58 68  1  0
 59 65  1  0
 59 61  1  0
 60 66  1  0
 61 60  1  0
 62 61  2  0
 63 64  1  0
 63 57  2  0
 64 59  2  0
 65 58  1  0
 66 56  1  0
 68 70  2  0
 69 68  1  0
 71 69  1  0
 72 81  2  0
 72 77  1  0
 73 69  1  0
 73 77  1  0
 74 73  1  0
 75 76  1  0
 75 74  1  0
 76 72  1  0
 77 78  2  0
 78 79  1  0
 80 79  2  0
 81 80  1  0
 82 56  1  0
 82 83  1  0
 82 92  1  0
 83 86  1  0
 84 88  1  0
 84 83  1  0
 85 84  2  0
 88 87  1  0
 90 88  1  0
 90 91  1  0
 90 89  1  0
 92 95  1  1
 92 93  1  0
 94 92  1  0
M  ISO  4  11 100  19 100  54 101  55 101
M  END
>  <TORSDO>  (72) 
F 22

>  <SCORE>  (72) 
-13.179

>  <name>  (72) 
71

>  <ligand_id>  (72) 
71

>  <original_smiles>  (72) 
[H]c1c([H])c([H])c2c(c1[H])C([H])([H])C([H])([H])C([H])([H])C2([H])N([H])C(=O)C1([H])N(C(=O)C([H])(N([H])C(=O)C([H])(N([H])C([H])([H])[H])C([H])([H])[H])C(C([H])([H])[H])(C([H])([H])[H])C([H])([H])[H])C([H])([H])c2c([H])c(OC([H])([H])C([H])([H])[N+]([H])(C([H])([H])[H])C([H])([H])C([H])([H])N(c3c([H])c([H])c(N([H])C(=O)N4C([H])([H])C([H])([H])C([H])([H])C([H])(n5nc(-c6c([H])c([H])c(Oc7c([H])c([H])c(F)c([H])c7F)c([H])c6[H])c(C(=O)N([H])[H])c5N([H])[H])C4([H])[H])c([H])c3F)C([H])([H])[H])c([H])c([H])c2C1([H])[H]

>  <smiles>  (72) 
[H]c1c([H])c([H])c2c(c1[H])C([H])([H])C([H])([H])C([H])([H])C2([H])N([H])C(=O)C1([H])N(C(=O)C([H])(N([H])C(=O)C([H])(N([H])C([H])([H])[H])C([H])([H])[H])C(C([H])([H])[H])(C([H])([H])[H])C([H])([H])[H])C([H])([H])c2c([H])c(OC([H])([H])C([H])([H])[N+]([H])(C([H])([H])[H])C([H])([H])C([H])([H])N(c3c([H])c([H])c(N([H])C(=O)N4C([H])([H])C([H])([H])C([H])([H])C([H])(n5nc(-c6c([H])c([H])c(Oc7c([H])c([H])c(F)c([H])c7F)c([H])c6[H])c(C(=O)N([H])[H])c5N([H])[H])C4([H])[H])c([H])c3F)C([H])([H])[H])c([H])c([H])c2C1([H])[H]

$$$$
72:0:0
     RDKit          3D

 88 96  0  0  1  0  0  0  0  0999 V2000
  -30.3810  -20.9850   20.1060 C   0  0  0  0  0  3  0  0  0  0  0  0
  -29.9550  -22.4060   20.0450 C   0  0  0  0  0  3  0  0  0  0  0  0
  -28.1960  -20.2710   20.1550 C   0  0  0  0  0  3  0  0  0  0  0  0
  -29.5580  -19.7760   20.1580 C   0  0  0  0  0  0  0  0  0  0  0  0
  -28.5900  -22.8980   20.0410 C   0  0  0  0  0  0  0  0  0  0  0  0
  -27.7580  -21.6910   20.0950 C   0  0  0  0  0  0  0  0  0  0  0  0
  -26.4190  -21.8890   20.0560 F   0  0  0  0  0  0  0  0  0  0  0  0
  -30.2490  -18.1820   20.2170 C   0  0  0  0  0  2  0  0  0  0  0  0
  -30.4970  -15.3320   20.1400 C   0  0  0  0  0  0  0  0  0  0  0  0
  -30.4030  -12.9290   19.2070 C   0  0  0  0  0  2  0  0  0  0  0  0
  -29.4590  -12.7780   17.9890 C   0  0  0  0  0  2  0  0  0  0  0  0
  -28.0150  -12.5190   18.4520 C   0  0  0  0  0  2  0  0  0  0  0  0
  -27.5960  -13.4600   19.6100 C   0  0  0  0  0  3  0  0  0  0  0  0
  -28.6660  -13.5650   20.7180 C   0  0  0  0  0  2  0  0  0  0  0  0
  -29.8960  -14.0510   20.0710 N   0  0  0  0  0  0  0  0  0  0  0  0
  -31.7090  -15.3220   19.8920 O   0  0  0  0  0  0  0  0  0  0  0  0
  -29.7780  -16.6090   20.2770 N   0  0  0  0  0  0  0  0  0  0  0  0
  -28.7870  -16.4900   20.4240 H   0  0  0  0  0  0  0  0  0  0  0  0
  -25.2280  -14.0080   20.3840 C   0  0  0  0  0  0  0  0  0  0  0  0
  -24.1750  -13.2250   20.7680 C   0  0  0  0  0  0  0  0  0  0  0  0
  -24.6520  -11.8780   20.7410 C   0  0  0  0  0  0  0  0  0  0  0  0
  -26.2740  -13.1390   20.1350 N   0  0  0  0  0  0  0  0  0  0  0  0
  -25.9410  -11.8520   20.4180 N   0  0  0  0  0  0  0  0  0  0  0  0
  -23.9380  -10.6110   20.9430 C   0  0  0  0  0  0  0  0  0  0  0  0
  -24.3650   -9.6650   21.9000 C   0  0  0  0  0  3  0  0  0  0  0  0
  -23.6470   -8.4640   22.0900 C   0  0  0  0  0  3  0  0  0  0  0  0
  -22.4870   -8.2020   21.3240 C   0  0  0  0  0  0  0  0  0  0  0  0
  -22.0780   -9.1380   20.3570 C   0  0  0  0  0  3  0  0  0  0  0  0
  -22.7970  -10.3280   20.1660 C   0  0  0  0  0  3  0  0  0  0  0  0
  -21.7410   -7.0520   21.4240 O   0  0  0  0  0  0  0  0  0  0  0  0
  -21.6710   -6.3380   22.5930 C   0  0  0  0  0  0  0  0  0  0  0  0
  -21.1700   -6.9060   23.7840 C   0  0  0  0  0  3  0  0  0  0  0  0
  -21.0510   -6.1150   24.9450 C   0  0  0  0  0  3  0  0  0  0  0  0
  -21.4230   -4.7590   24.9150 C   0  0  0  0  0  0  0  0  0  0  0  0
  -21.9170   -4.1900   23.7280 C   0  0  0  0  0  3  0  0  0  0  0  0
  -22.0390   -4.9780   22.5700 C   0  0  0  0  0  0  0  0  0  0  0  0
  -22.4950   -4.4190   21.4230 F   0  0  0  0  0  0  0  0  0  0  0  0
  -21.3020   -3.9970   26.0270 F   0  0  0  0  0  0  0  0  0  0  0  0
  -22.7770  -13.6930   21.0450 C   0  0  0  0  0  0  0  0  0  0  0  0
  -22.0600  -12.9970   21.9190 N   0  0  0  0  0  0  0  0  0  0  0  0
  -22.3290  -14.7130   20.5210 O   0  0  0  0  0  0  0  0  0  0  0  0
  -22.4370  -12.1730   22.3650 H   0  0  0  0  0  0  0  0  0  0  0  0
  -21.1210  -13.2910   22.1480 H   0  0  0  0  0  0  0  0  0  0  0  0
  -25.3740  -15.3790   20.1960 N   0  0  0  0  0  0  0  0  0  0  0  0
  -24.5990  -16.0220   20.3040 H   0  0  0  0  0  0  0  0  0  0  0  0
  -26.2040  -15.8210   19.8200 H   0  0  0  0  0  0  0  0  0  0  0  0
  -27.9200  -24.4800   19.7810 C   0  0  0  0  0  2  0  0  0  0  0  0
  -28.2740  -26.0250   20.1400 O   0  0  0  0  0  0  0  0  0  0  0  0
  -24.6560  -31.8530   23.2300 C   0  0  0  0  0  0  0  0  0  0  0  0
  -27.2710  -27.1180   20.0860 C   0  0  0  0  0  0  0  0  0  0  0  0
  -23.4800  -30.4920   21.5500 C   0  0  0  0  0  3  0  0  0  0  0  0
  -24.9490  -28.9530   20.0880 C   0  0  0  0  0  0  0  0  0  0  0  0
  -26.0430  -30.7430   21.4150 C   0  0  0  0  0  2  0  0  0  0  0  0
  -26.1310  -29.3570   20.7220 C   0  0  0  0  0  0  0  0  0  0  0  0
  -27.2880  -28.4600   20.7020 C   0  0  0  0  0  3  0  0  0  0  0  0
  -26.0590  -26.8650   19.4030 C   0  0  0  0  0  3  0  0  0  0  0  0
  -24.9360  -27.7270   19.4090 C   0  0  0  0  0  3  0  0  0  0  0  0
  -23.7200  -29.8530   20.1550 C   0  0  0  0  0  2  0  0  0  0  0  0
  -24.7470  -31.0540   22.1200 N   0  0  0  0  0  0  0  0  0  0  0  0
  -23.5620  -32.1160   23.7550 O   0  0  0  0  0  0  0  0  0  0  0  0
  -22.7950  -29.4600   22.4820 C   0  0  0  0  0  0  0  0  0  0  0  0
  -21.4660  -29.2910   22.3520 N   0  0  0  0  0  0  0  0  0  0  0  0
  -23.4650  -28.8130   23.2910 O   0  0  0  0  0  0  0  0  0  0  0  0
  -20.9790  -29.8650   21.6780 H   0  0  0  0  0  0  0  0  0  0  0  0
  -18.0860  -28.0710   22.8460 C   0  0  0  0  0  0  0  0  0  0  0  0
  -20.6480  -28.3270   23.0960 C   0  0  0  0  0  3  0  0  0  0  0  0
  -20.7430  -26.9170   22.4690 C   0  0  0  0  0  2  0  0  0  0  0  0
  -19.6320  -26.6320   21.4540 C   0  0  0  0  0  2  0  0  0  0  0  0
  -18.2560  -26.7490   22.1160 C   0  0  0  0  0  2  0  0  0  0  0  0
  -19.2080  -28.8190   23.2930 C   0  0  0  0  0  0  0  0  0  0  0  0
  -18.9920  -30.0550   23.9390 C   0  0  0  0  0  3  0  0  0  0  0  0
  -17.6870  -30.5450   24.1400 C   0  0  0  0  0  3  0  0  0  0  0  0
  -16.5800  -29.7950   23.7080 C   0  0  0  0  0  3  0  0  0  0  0  0
  -16.7800  -28.5590   23.0670 C   0  0  0  0  0  3  0  0  0  0  0  0
  -25.9200  -32.4890   23.8830 C   0  0  0  0  0  3  0  0  0  0  0  0
  -25.6030  -33.8890   24.2130 N   0  0  0  0  0  0  0  0  0  0  0  0
  -25.9140  -34.9470   23.4510 C   0  0  0  0  0  0  0  0  0  0  0  0
  -26.5620  -34.8460   22.4050 O   0  0  0  0  0  0  0  0  0  0  0  0
  -25.0230  -34.0400   25.0260 H   0  0  0  0  0  0  0  0  0  0  0  0
  -24.1530  -36.7230   23.1620 C   0  0  0  0  0  1  0  0  0  0  0  0
  -25.4330  -36.3350   23.9190 C   0  0  0  0  0  3  0  0  0  0  0  0
  -27.5860  -37.2590   24.6580 C   0  0  0  0  0  1  0  0  0  0  0  0
  -26.4480  -37.3990   23.7530 N   0  0  0  0  0  0  0  0  0  0  0  0
  -26.0370  -38.3160   23.9020 H   0  0  0  0  0  0  0  0  0  0  0  0
  -26.4000  -31.7210   25.1770 C   0  0  1  0  0  0  0  0  0  0  0  0
  -25.2790  -31.4930   26.2180 C   0  0  0  0  0  1  0  0  0  0  0  0
  -26.9870  -30.3390   24.8120 C   0  0  0  0  0  1  0  0  0  0  0  0
  -27.5360  -32.5140   25.8650 C   0  0  0  0  0  1  0  0  0  0  0  0
  1  4  1  0
  2  1  2  0
  3  4  2  0
  4  8  1  0
  5  2  1  0
  5  6  2  0
  6  3  1  0
  7  6  1  0
  8 17  1  0
  9 17  1  0
 10 15  1  0
 11 12  1  0
 11 10  1  0
 13 12  1  0
 13 22  1  0
 13 14  1  0
 15  9  1  0
 15 14  1  0
 16  9  2  0
 17 18  1  0
 19 20  2  0
 20 39  1  0
 21 20  1  0
 21 24  1  0
 22 19  1  0
 22 23  1  0
 23 21  2  0
 24 25  1  0
 25 26  2  0
 27 30  1  0
 27 26  1  0
 28 27  2  0
 29 28  1  0
 29 24  2  0
 30 31  1  0
 31 32  1  0
 32 33  2  0
 34 33  1  0
 34 38  1  0
 35 34  2  0
 36 31  2  0
 36 35  1  0
 37 36  1  0
 39 40  1  0
 40 43  1  0
 40 42  1  0
 41 39  2  0
 44 45  1  0
 44 19  1  0
 46 44  1  0
 47  5  1  0
 47 48  1  0
 49 60  2  0
 50 48  1  0
 50 55  1  0
 51 59  1  0
 51 61  1  0
 52 58  1  0
 52 54  1  0
 53 59  1  0
 54 53  1  0
 55 54  2  0
 56 57  1  0
 56 50  2  0
 57 52  2  0
 58 51  1  0
 59 49  1  0
 61 63  2  0
 62 61  1  0
 64 62  1  0
 65 74  2  0
 65 70  1  0
 66 62  1  0
 66 70  1  0
 67 66  1  0
 68 69  1  0
 68 67  1  0
 69 65  1  0
 70 71  2  0
 71 72  1  0
 73 72  2  0
 74 73  1  0
 75 49  1  0
 75 76  1  0
 75 85  1  0
 76 79  1  0
 77 81  1  0
 77 76  1  0
 78 77  2  0
 81 80  1  0
 83 84  1  0
 83 81  1  0
 83 82  1  0
 85 88  1  1
 85 86  1  0
 87 85  1  0
M  ISO  4   9 100  17 100  47 101  48 101
M  END
>  <TORSDO>  (73) 
F 18

>  <SCORE>  (73) 
-15.644

>  <name>  (73) 
72

>  <ligand_id>  (73) 
72

>  <original_smiles>  (73) 
[H]c1c([H])c([H])c2c(c1[H])C([H])([H])C([H])([H])C([H])([H])C2([H])N([H])C(=O)C1([H])N(C(=O)C([H])(N([H])C(=O)C([H])(N([H])C([H])([H])[H])C([H])([H])[H])C(C([H])([H])[H])(C([H])([H])[H])C([H])([H])[H])C([H])([H])c2c([H])c(OC([H])([H])c3c([H])c([H])c(C([H])([H])N([H])C(=O)N4C([H])([H])C([H])([H])C([H])([H])C([H])(n5nc(-c6c([H])c([H])c(Oc7c([H])c([H])c(F)c([H])c7F)c([H])c6[H])c(C(=O)N([H])[H])c5N([H])[H])C4([H])[H])c([H])c3F)c([H])c([H])c2C1([H])[H]

>  <smiles>  (73) 
[H]c1c([H])c([H])c2c(c1[H])C([H])([H])C([H])([H])C([H])([H])C2([H])N([H])C(=O)C1([H])N(C(=O)C([H])(N([H])C(=O)C([H])(N([H])C([H])([H])[H])C([H])([H])[H])C(C([H])([H])[H])(C([H])([H])[H])C([H])([H])[H])C([H])([H])c2c([H])c(OC([H])([H])c3c([H])c([H])c(C([H])([H])N([H])C(=O)N4C([H])([H])C([H])([H])C([H])([H])C([H])(n5nc(-c6c([H])c([H])c(Oc7c([H])c([H])c(F)c([H])c7F)c([H])c6[H])c(C(=O)N([H])[H])c5N([H])[H])C4([H])[H])c([H])c3F)c([H])c([H])c2C1([H])[H]

$$$$
73:0:0
     RDKit          3D

 94102  0  0  1  0  0  0  0  0999 V2000
  -29.1090  -21.7050   20.8110 C   0  0  0  0  0  3  0  0  0  0  0  0
  -28.3890  -19.2250   20.7840 C   0  0  0  0  0  3  0  0  0  0  0  0
  -30.6640  -19.6000   20.1290 C   0  0  0  0  0  3  0  0  0  0  0  0
  -28.6060  -17.8220   20.7500 C   0  0  0  0  0  3  0  0  0  0  0  0
  -30.8850  -18.1740   20.0840 C   0  0  0  0  0  3  0  0  0  0  0  0
  -29.4080  -20.1720   20.5030 C   0  0  0  0  0  0  0  0  0  0  0  0
  -29.8570  -17.2430   20.4220 C   0  0  0  0  0  0  0  0  0  0  0  0
  -30.7650  -14.7790   20.0680 C   0  0  0  0  0  0  0  0  0  0  0  0
  -30.5600  -12.5490   18.9670 C   0  0  0  0  0  2  0  0  0  0  0  0
  -29.5720  -12.6960   17.7860 C   0  0  0  0  0  2  0  0  0  0  0  0
  -28.1100  -12.5320   18.2560 C   0  0  0  0  0  2  0  0  0  0  0  0
  -27.7930  -13.3660   19.5250 C   0  0  0  0  0  3  0  0  0  0  0  0
  -28.8870  -13.1680   20.6000 C   0  0  0  0  0  2  0  0  0  0  0  0
  -30.1790  -13.5380   19.9950 N   0  0  0  0  0  0  0  0  0  0  0  0
  -31.9070  -14.9780   19.6440 O   0  0  0  0  0  0  0  0  0  0  0  0
  -29.9230  -15.7750   20.4930 N   0  0  0  0  0  0  0  0  0  0  0  0
  -29.0700  -15.3670   20.8370 H   0  0  0  0  0  0  0  0  0  0  0  0
  -25.4200  -13.9660   20.3090 C   0  0  0  0  0  0  0  0  0  0  0  0
  -24.3630  -13.1920   20.7080 C   0  0  0  0  0  0  0  0  0  0  0  0
  -24.8230  -11.8410   20.6560 C   0  0  0  0  0  0  0  0  0  0  0  0
  -26.4570  -13.0850   20.0440 N   0  0  0  0  0  0  0  0  0  0  0  0
  -26.1050  -11.8020   20.3110 N   0  0  0  0  0  0  0  0  0  0  0  0
  -24.1010  -10.5780   20.8590 C   0  0  0  0  0  0  0  0  0  0  0  0
  -24.5100   -9.6420   21.8340 C   0  0  0  0  0  3  0  0  0  0  0  0
  -23.7900   -8.4430   22.0210 C   0  0  0  0  0  3  0  0  0  0  0  0
  -22.6460   -8.1720   21.2340 C   0  0  0  0  0  0  0  0  0  0  0  0
  -22.2560   -9.0960   20.2490 C   0  0  0  0  0  3  0  0  0  0  0  0
  -22.9780  -10.2880   20.0600 C   0  0  0  0  0  3  0  0  0  0  0  0
  -21.8990   -7.0230   21.3300 O   0  0  0  0  0  0  0  0  0  0  0  0
  -21.7560   -6.3540   22.5190 C   0  0  0  0  0  0  0  0  0  0  0  0
  -21.1990   -6.9710   23.6600 C   0  0  0  0  0  3  0  0  0  0  0  0
  -21.0070   -6.2260   24.8420 C   0  0  0  0  0  3  0  0  0  0  0  0
  -21.3620   -4.8650   24.8800 C   0  0  0  0  0  0  0  0  0  0  0  0
  -21.9120   -4.2470   23.7430 C   0  0  0  0  0  3  0  0  0  0  0  0
  -22.1050   -4.9890   22.5650 C   0  0  0  0  0  0  0  0  0  0  0  0
  -22.6150   -4.3830   21.4660 F   0  0  0  0  0  0  0  0  0  0  0  0
  -21.1710   -4.1460   26.0110 F   0  0  0  0  0  0  0  0  0  0  0  0
  -22.9740  -13.6690   21.0190 C   0  0  0  0  0  0  0  0  0  0  0  0
  -22.2680  -12.9680   21.8980 N   0  0  0  0  0  0  0  0  0  0  0  0
  -22.5240  -14.6970   20.5140 O   0  0  0  0  0  0  0  0  0  0  0  0
  -22.6450  -12.1360   22.3280 H   0  0  0  0  0  0  0  0  0  0  0  0
  -21.3350  -13.2680   22.1470 H   0  0  0  0  0  0  0  0  0  0  0  0
  -25.5760  -15.3370   20.1300 N   0  0  0  0  0  0  0  0  0  0  0  0
  -24.7910  -15.9700   20.2250 H   0  0  0  0  0  0  0  0  0  0  0  0
  -26.3820  -15.7670   19.6960 H   0  0  0  0  0  0  0  0  0  0  0  0
  -29.7310  -22.0770   22.1880 C   0  0  1  0  0  0  0  0  0  0  0  0
  -29.4610  -21.1490   23.1080 F   0  0  0  0  0  0  0  0  0  0  0  0
  -31.0560  -22.1900   22.0680 F   0  0  0  0  0  0  0  0  0  0  0  0
  -29.2530  -23.2360   22.6340 F   0  0  0  0  0  0  0  0  0  0  0  0
  -29.4730  -22.7770   19.8280 N   0  0  0  0  0  0  0  0  0  0  0  0
  -30.3430  -23.1580   20.1890 H   0  0  0  0  0  0  0  0  0  0  0  0
  -28.5660  -23.9630   19.5720 C   0  0  0  0  0  2  0  0  0  0  0  0
  -28.4970  -25.2360   20.5410 C   0  0  0  0  0  2  0  0  0  0  0  0
  -28.4480  -26.6090   19.9780 O   0  0  0  0  0  0  0  0  0  0  0  0
  -24.6950  -31.8520   23.2610 C   0  0  0  0  0  0  0  0  0  0  0  0
  -27.2880  -27.3920   20.0610 C   0  0  0  0  0  0  0  0  0  0  0  0
  -23.4700  -30.4910   21.6010 C   0  0  0  0  0  3  0  0  0  0  0  0
  -24.9050  -28.9710   20.1240 C   0  0  0  0  0  0  0  0  0  0  0  0
  -26.0010  -30.8320   21.3800 C   0  0  0  0  0  2  0  0  0  0  0  0
  -26.0770  -29.4650   20.7070 C   0  0  0  0  0  0  0  0  0  0  0  0
  -27.2750  -28.6900   20.6580 C   0  0  0  0  0  3  0  0  0  0  0  0
  -26.0900  -26.9340   19.4750 C   0  0  0  0  0  3  0  0  0  0  0  0
  -24.9110  -27.7100   19.5000 C   0  0  0  0  0  3  0  0  0  0  0  0
  -23.6660  -29.8430   20.2030 C   0  0  0  0  0  2  0  0  0  0  0  0
  -24.7410  -31.0750   22.1390 N   0  0  0  0  0  0  0  0  0  0  0  0
  -23.6200  -32.1100   23.8230 O   0  0  0  0  0  0  0  0  0  0  0  0
  -22.8250  -29.4520   22.5480 C   0  0  0  0  0  0  0  0  0  0  0  0
  -21.4990  -29.2610   22.4280 N   0  0  0  0  0  0  0  0  0  0  0  0
  -23.5150  -28.8200   23.3520 O   0  0  0  0  0  0  0  0  0  0  0  0
  -20.9970  -29.8260   21.7570 H   0  0  0  0  0  0  0  0  0  0  0  0
  -18.1480  -27.9910   22.9020 C   0  0  0  0  0  0  0  0  0  0  0  0
  -20.6990  -28.2990   23.1870 C   0  0  0  0  0  3  0  0  0  0  0  0
  -20.8330  -26.8750   22.5980 C   0  0  0  0  0  2  0  0  0  0  0  0
  -19.7420  -26.5410   21.5750 C   0  0  0  0  0  2  0  0  0  0  0  0
  -18.3550  -26.6520   22.2120 C   0  0  0  0  0  2  0  0  0  0  0  0
  -19.2490  -28.7700   23.3450 C   0  0  0  0  0  0  0  0  0  0  0  0
  -19.0000  -30.0230   23.9470 C   0  0  0  0  0  3  0  0  0  0  0  0
  -17.6850  -30.4960   24.1120 C   0  0  0  0  0  3  0  0  0  0  0  0
  -16.5990  -29.7130   23.6850 C   0  0  0  0  0  3  0  0  0  0  0  0
  -16.8310  -28.4620   23.0840 C   0  0  0  0  0  3  0  0  0  0  0  0
  -25.9860  -32.4720   23.8800 C   0  0  0  0  0  3  0  0  0  0  0  0
  -25.6830  -33.8640   24.2440 N   0  0  0  0  0  0  0  0  0  0  0  0
  -26.0050  -34.9330   23.5050 C   0  0  0  0  0  0  0  0  0  0  0  0
  -26.6560  -34.8500   22.4600 O   0  0  0  0  0  0  0  0  0  0  0  0
  -25.1050  -34.0020   25.0620 H   0  0  0  0  0  0  0  0  0  0  0  0
  -24.2770  -36.7360   23.2120 C   0  0  0  0  0  1  0  0  0  0  0  0
  -25.5260  -36.3110   23.9980 C   0  0  0  0  0  3  0  0  0  0  0  0
  -27.6710  -37.1750   24.8250 C   0  0  0  0  0  1  0  0  0  0  0  0
  -26.5590  -37.3640   23.8970 N   0  0  0  0  0  0  0  0  0  0  0  0
  -26.1570  -38.2820   24.0690 H   0  0  0  0  0  0  0  0  0  0  0  0
  -26.5220  -31.6750   25.1330 C   0  0  1  0  0  0  0  0  0  0  0  0
  -25.4450  -31.4150   26.2120 C   0  0  0  0  0  1  0  0  0  0  0  0
  -27.0980  -30.3060   24.7010 C   0  0  0  0  0  1  0  0  0  0  0  0
  -27.6800  -32.4560   25.7970 C   0  0  0  0  0  1  0  0  0  0  0  0
  1 50  1  0
  1 46  1  0
  3  6  1  0
  4  2  1  0
  5  3  2  0
  5  7  1  0
  6  2  2  0
  6  1  1  0
  7 16  1  0
  7  4  2  0
  8 16  1  0
  9 14  1  0
 10 11  1  0
 10  9  1  0
 12 11  1  0
 12 21  1  0
 12 13  1  0
 14  8  1  0
 14 13  1  0
 15  8  2  0
 16 17  1  0
 18 19  2  0
 19 38  1  0
 20 19  1  0
 20 23  1  0
 21 18  1  0
 21 22  1  0
 22 20  2  0
 23 24  1  0
 24 25  2  0
 26 29  1  0
 26 25  1  0
 27 26  2  0
 28 27  1  0
 28 23  2  0
 29 30  1  0
 30 35  2  0
 30 31  1  0
 31 32  2  0
 32 33  1  0
 33 37  1  0
 34 33  2  0
 35 34  1  0
 36 35  1  0
 38 39  1  0
 39 42  1  0
 39 41  1  0
 40 38  2  0
 43 44  1  0
 43 18  1  0
 45 43  1  0
 46 49  1  1
 46 47  1  0
 48 46  1  0
 50 51  1  0
 52 50  1  0
 52 53  1  0
 54 56  1  0
 54 53  1  0
 55 66  2  0
 56 61  1  0
 57 65  1  0
 57 67  1  0
 58 64  1  0
 58 60  1  0
 59 65  1  0
 60 59  1  0
 61 60  2  0
 62 63  1  0
 62 56  2  0
 63 58  2  0
 64 57  1  0
 65 55  1  0
 67 69  2  0
 68 67  1  0
 70 68  1  0
 71 80  2  0
 71 76  1  0
 72 68  1  0
 72 76  1  0
 73 72  1  0
 74 75  1  0
 74 73  1  0
 75 71  1  0
 76 77  2  0
 77 78  1  0
 79 78  2  0
 80 79  1  0
 81 55  1  0
 81 82  1  0
 81 91  1  0
 82 85  1  0
 83 87  1  0
 83 82  1  0
 84 83  2  0
 87 86  1  0
 89 87  1  0
 89 90  1  0
 89 88  1  0
 91 94  1  1
 91 92  1  0
 93 91  1  0
M  ISO  4   8 100  16 100  53 101  54 101
M  END
>  <TORSDO>  (74) 
F 21

>  <SCORE>  (74) 
-13.305

>  <name>  (74) 
73

>  <ligand_id>  (74) 
73

>  <original_smiles>  (74) 
[H]c1c([H])c([H])c2c(c1[H])C([H])([H])C([H])([H])C([H])([H])C2([H])N([H])C(=O)C1([H])N(C(=O)C([H])(N([H])C(=O)C([H])(N([H])C([H])([H])[H])C([H])([H])[H])C(C([H])([H])[H])(C([H])([H])[H])C([H])([H])[H])C([H])([H])c2c([H])c(OC([H])([H])C([H])([H])N([H])C([H])(c3c([H])c([H])c(N([H])C(=O)N4C([H])([H])C([H])([H])C([H])([H])C([H])(n5nc(-c6c([H])c([H])c(Oc7c([H])c([H])c(F)c([H])c7F)c([H])c6[H])c(C(=O)N([H])[H])c5N([H])[H])C4([H])[H])c([H])c3[H])C(F)(F)F)c([H])c([H])c2C1([H])[H]

>  <smiles>  (74) 
[H]c1c([H])c([H])c2c(c1[H])C([H])([H])C([H])([H])C([H])([H])C2([H])N([H])C(=O)C1([H])N(C(=O)C([H])(N([H])C(=O)C([H])(N([H])C([H])([H])[H])C([H])([H])[H])C(C([H])([H])[H])(C([H])([H])[H])C([H])([H])[H])C([H])([H])c2c([H])c(OC([H])([H])C([H])([H])N([H])C([H])(c3c([H])c([H])c(N([H])C(=O)N4C([H])([H])C([H])([H])C([H])([H])C([H])(n5nc(-c6c([H])c([H])c(Oc7c([H])c([H])c(F)c([H])c7F)c([H])c6[H])c(C(=O)N([H])[H])c5N([H])[H])C4([H])[H])c([H])c3[H])C(F)(F)F)c([H])c([H])c2C1([H])[H]

$$$$
74:0:0
     RDKit          3D

 95103  0  0  1  0  0  0  0  0999 V2000
  -33.8160  -21.5240   18.8940 C   0  0  0  0  0  1  0  0  0  0  0  0
  -32.3690  -21.7300   19.1600 N   0  0  1  0  0  4  0  0  0  0  0  0
  -31.8910  -21.6170   18.2730 H   0  0  0  0  0  0  0  0  0  0  0  0
  -31.7770  -20.6430   19.9950 C   0  0  0  0  0  2  0  0  0  0  0  0
  -30.7210  -14.5070   20.4420 C   0  0  0  0  0  0  0  0  0  0  0  0
  -30.3810  -12.3370   19.3340 C   0  0  0  0  0  2  0  0  0  0  0  0
  -29.4320  -12.5290   18.1360 C   0  0  0  0  0  2  0  0  0  0  0  0
  -27.9560  -12.4130   18.5670 C   0  0  0  0  0  2  0  0  0  0  0  0
  -27.6220  -13.2380   19.8390 C   0  0  0  0  0  3  0  0  0  0  0  0
  -28.6980  -13.0630   20.9350 C   0  0  0  0  0  2  0  0  0  0  0  0
  -30.0140  -13.3460   20.3390 N   0  0  0  0  0  0  0  0  0  0  0  0
  -31.9090  -14.5970   20.1260 O   0  0  0  0  0  0  0  0  0  0  0  0
  -31.3180  -19.4650   19.1170 C   0  0  0  0  0  0  0  0  0  0  0  0
  -30.3990  -17.2290   18.8050 C   0  0  0  0  0  2  0  0  0  0  0  0
  -30.8940  -18.0480   21.1380 C   0  0  0  0  0  3  0  0  0  0  0  0
  -29.3950  -16.3050   19.5060 C   0  0  0  0  0  2  0  0  0  0  0  0
  -30.4500  -16.6340   21.6570 C   0  0  0  0  0  3  0  0  0  0  0  0
  -30.8760  -18.3060   19.6780 N   0  0  0  0  0  0  0  0  0  0  0  0
  -30.0070  -15.6410   20.6580 N   0  0  0  0  0  0  0  0  0  0  0  0
  -31.3570  -19.6280   17.8910 O   0  0  0  0  0  0  0  0  0  0  0  0
  -25.2310  -13.8470   20.5550 C   0  0  0  0  0  0  0  0  0  0  0  0
  -24.1630  -13.0750   20.9230 C   0  0  0  0  0  0  0  0  0  0  0  0
  -24.6260  -11.7240   20.8920 C   0  0  0  0  0  0  0  0  0  0  0  0
  -26.2750  -12.9630   20.3270 N   0  0  0  0  0  0  0  0  0  0  0  0
  -25.9160  -11.6810   20.5900 N   0  0  0  0  0  0  0  0  0  0  0  0
  -23.8990  -10.4610   21.0770 C   0  0  0  0  0  0  0  0  0  0  0  0
  -24.3410   -9.4870   22.0030 C   0  0  0  0  0  3  0  0  0  0  0  0
  -23.6190   -8.2880   22.1780 C   0  0  0  0  0  3  0  0  0  0  0  0
  -22.4410   -8.0520   21.4290 C   0  0  0  0  0  0  0  0  0  0  0  0
  -22.0210   -9.0120   20.4920 C   0  0  0  0  0  3  0  0  0  0  0  0
  -22.7430  -10.2040   20.3160 C   0  0  0  0  0  3  0  0  0  0  0  0
  -21.6870   -6.9070   21.5170 O   0  0  0  0  0  0  0  0  0  0  0  0
  -21.6530   -6.1550   22.6630 C   0  0  0  0  0  0  0  0  0  0  0  0
  -21.2530   -6.7000   23.9030 C   0  0  0  0  0  3  0  0  0  0  0  0
  -21.1760   -5.8730   25.0410 C   0  0  0  0  0  3  0  0  0  0  0  0
  -21.4810   -4.5020   24.9380 C   0  0  0  0  0  0  0  0  0  0  0  0
  -21.8680   -3.9580   23.7020 C   0  0  0  0  0  3  0  0  0  0  0  0
  -21.9530   -4.7820   22.5670 C   0  0  0  0  0  0  0  0  0  0  0  0
  -22.3120   -4.2510   21.3720 F   0  0  0  0  0  0  0  0  0  0  0  0
  -21.3940   -3.7010   26.0260 F   0  0  0  0  0  0  0  0  0  0  0  0
  -22.7650  -13.5510   21.1930 C   0  0  0  0  0  0  0  0  0  0  0  0
  -22.0350  -12.8470   22.0530 N   0  0  0  0  0  0  0  0  0  0  0  0
  -22.3280  -14.5790   20.6790 O   0  0  0  0  0  0  0  0  0  0  0  0
  -22.3990  -12.0160   22.4930 H   0  0  0  0  0  0  0  0  0  0  0  0
  -21.0930  -13.1400   22.2710 H   0  0  0  0  0  0  0  0  0  0  0  0
  -25.4030  -15.2170   20.3750 N   0  0  0  0  0  0  0  0  0  0  0  0
  -24.6500  -15.8940   20.4640 H   0  0  0  0  0  0  0  0  0  0  0  0
  -26.2810  -15.6300   20.0870 H   0  0  0  0  0  0  0  0  0  0  0  0
  -32.0710  -23.1110   19.6280 C   0  0  0  0  0  2  0  0  0  0  0  0
  -31.9510  -24.1200   18.4530 C   0  0  0  0  0  2  0  0  0  0  0  0
  -30.4190  -24.8600   16.7580 C   0  0  0  0  0  1  0  0  0  0  0  0
  -30.5470  -24.4410   18.1560 N   0  0  0  0  0  0  0  0  0  0  0  0
  -30.1250  -25.5290   19.0520 C   0  0  0  0  0  2  0  0  0  0  0  0
  -28.6110  -25.7770   19.1030 C   0  0  0  0  0  2  0  0  0  0  0  0
  -28.4200  -26.7830   20.0950 O   0  0  0  0  0  0  0  0  0  0  0  0
  -24.5810  -31.8770   23.2420 C   0  0  0  0  0  0  0  0  0  0  0  0
  -27.2180  -27.4500   20.1280 C   0  0  0  0  0  0  0  0  0  0  0  0
  -23.3680  -30.4710   21.6070 C   0  0  0  0  0  3  0  0  0  0  0  0
  -24.8140  -28.9290   20.1820 C   0  0  0  0  0  0  0  0  0  0  0  0
  -25.8910  -30.8280   21.4020 C   0  0  0  0  0  2  0  0  0  0  0  0
  -25.9710  -29.4580   20.7670 C   0  0  0  0  0  0  0  0  0  0  0  0
  -27.1710  -28.7170   20.7510 C   0  0  0  0  0  3  0  0  0  0  0  0
  -26.0350  -26.9220   19.5610 C   0  0  0  0  0  3  0  0  0  0  0  0
  -24.8360  -27.6570   19.5880 C   0  0  0  0  0  3  0  0  0  0  0  0
  -23.5710  -29.7870   20.2280 C   0  0  0  0  0  2  0  0  0  0  0  0
  -24.6310  -31.0750   22.1410 N   0  0  0  0  0  0  0  0  0  0  0  0
  -23.5010  -32.1530   23.7830 O   0  0  0  0  0  0  0  0  0  0  0  0
  -22.7230  -29.4510   22.5710 C   0  0  0  0  0  0  0  0  0  0  0  0
  -21.4000  -29.2640   22.4430 N   0  0  0  0  0  0  0  0  0  0  0  0
  -23.4080  -28.8330   23.3900 O   0  0  0  0  0  0  0  0  0  0  0  0
  -20.9090  -29.8130   21.7520 H   0  0  0  0  0  0  0  0  0  0  0  0
  -18.0310  -28.0580   22.9330 C   0  0  0  0  0  0  0  0  0  0  0  0
  -20.5850  -28.3270   23.2160 C   0  0  0  0  0  3  0  0  0  0  0  0
  -20.6980  -26.8930   22.6480 C   0  0  0  0  0  2  0  0  0  0  0  0
  -19.6010  -26.5600   21.6310 C   0  0  0  0  0  2  0  0  0  0  0  0
  -18.2170  -26.7040   22.2680 C   0  0  0  0  0  2  0  0  0  0  0  0
  -19.1440  -28.8260   23.3640 C   0  0  0  0  0  0  0  0  0  0  0  0
  -18.9190  -30.0950   23.9430 C   0  0  0  0  0  3  0  0  0  0  0  0
  -17.6110  -30.5920   24.1000 C   0  0  0  0  0  3  0  0  0  0  0  0
  -16.5110  -29.8190   23.6870 C   0  0  0  0  0  3  0  0  0  0  0  0
  -16.7220  -28.5540   23.1090 C   0  0  0  0  0  3  0  0  0  0  0  0
  -25.8700  -32.5080   23.8530 C   0  0  0  0  0  3  0  0  0  0  0  0
  -25.5630  -33.9050   24.1850 N   0  0  0  0  0  0  0  0  0  0  0  0
  -25.8900  -34.9580   23.4230 C   0  0  0  0  0  0  0  0  0  0  0  0
  -26.5570  -34.8550   22.3900 O   0  0  0  0  0  0  0  0  0  0  0  0
  -24.9720  -34.0610   24.9890 H   0  0  0  0  0  0  0  0  0  0  0  0
  -24.1600  -36.7480   23.0690 C   0  0  0  0  0  1  0  0  0  0  0  0
  -25.4010  -36.3450   23.8810 C   0  0  0  0  0  3  0  0  0  0  0  0
  -27.5340  -37.2280   24.7140 C   0  0  0  0  0  1  0  0  0  0  0  0
  -26.4310  -37.4000   23.7710 N   0  0  0  0  0  0  0  0  0  0  0  0
  -26.0230  -38.3170   23.9240 H   0  0  0  0  0  0  0  0  0  0  0  0
  -26.3990  -31.7360   25.1240 C   0  0  1  0  0  0  0  0  0  0  0  0
  -25.3150  -31.4930   26.1980 C   0  0  0  0  0  1  0  0  0  0  0  0
  -26.9830  -30.3610   24.7240 C   0  0  0  0  0  1  0  0  0  0  0  0
  -27.5530  -32.5320   25.7790 C   0  0  0  0  0  1  0  0  0  0  0  0
  1  2  1  0
  2 49  1  0
  2  4  1  0
  2  3  1  6
  5 19  1  0
  6 11  1  0
  7  8  1  0
  7  6  1  0
  9  8  1  0
  9 24  1  0
  9 10  1  0
 11  5  1  0
 11 10  1  0
 12  5  2  0
 13 18  1  0
 13  4  1  0
 14 16  1  0
 14 18  1  0
 15 17  2  0
 16 19  1  0
 18 15  1  0
 19 17  1  0
 20 13  2  0
 21 22  2  0
 22 41  1  0
 23 22  1  0
 23 26  1  0
 24 21  1  0
 24 25  1  0
 25 23  2  0
 26 27  1  0
 27 28  2  0
 29 32  1  0
 29 28  1  0
 30 29  2  0
 31 30  1  0
 31 26  2  0
 32 33  1  0
 33 34  1  0
 34 35  2  0
 36 35  1  0
 36 40  1  0
 37 36  2  0
 38 33  2  0
 38 37  1  0
 39 38  1  0
 41 42  1  0
 42 45  1  0
 42 44  1  0
 43 41  2  0
 46 47  1  0
 46 21  1  0
 48 46  1  0
 50 49  1  0
 51 52  1  0
 52 50  1  0
 52 53  1  0
 53 54  1  0
 54 55  1  0
 55 57  1  0
 56 67  2  0
 57 62  1  0
 58 66  1  0
 58 68  1  0
 59 65  1  0
 59 61  1  0
 60 66  1  0
 61 60  1  0
 62 61  2  0
 63 64  1  0
 63 57  2  0
 64 59  2  0
 65 58  1  0
 66 56  1  0
 68 70  2  0
 69 68  1  0
 71 69  1  0
 72 81  2  0
 72 77  1  0
 73 69  1  0
 73 77  1  0
 74 73  1  0
 75 76  1  0
 75 74  1  0
 76 72  1  0
 77 78  2  0
 78 79  1  0
 80 79  2  0
 81 80  1  0
 82 56  1  0
 82 83  1  0
 82 92  1  0
 83 86  1  0
 84 88  1  0
 84 83  1  0
 85 84  2  0
 88 87  1  0
 90 88  1  0
 90 91  1  0
 90 89  1  0
 92 95  1  1
 92 93  1  0
 94 92  1  0
M  ISO  4   5 100  19 100  54 101  55 101
M  END
>  <TORSDO>  (75) 
F 22

>  <SCORE>  (75) 
-13.234

>  <name>  (75) 
74

>  <ligand_id>  (75) 
74

>  <original_smiles>  (75) 
[H]c1c([H])c([H])c2c(c1[H])C([H])([H])C([H])([H])C([H])([H])C2([H])N([H])C(=O)C1([H])N(C(=O)C([H])(N([H])C(=O)C([H])(N([H])C([H])([H])[H])C([H])([H])[H])C(C([H])([H])[H])(C([H])([H])[H])C([H])([H])[H])C([H])([H])c2c([H])c(OC([H])([H])C([H])([H])N(C([H])([H])[H])C([H])([H])C([H])([H])[N+]([H])(C([H])([H])[H])C([H])([H])C(=O)N3C([H])([H])C([H])([H])N(C(=O)N4C([H])([H])C([H])([H])C([H])([H])C([H])(n5nc(-c6c([H])c([H])c(Oc7c([H])c([H])c(F)c([H])c7F)c([H])c6[H])c(C(=O)N([H])[H])c5N([H])[H])C4([H])[H])C([H])([H])C3([H])[H])c([H])c([H])c2C1([H])[H]

>  <smiles>  (75) 
[H]c1c([H])c([H])c2c(c1[H])C([H])([H])C([H])([H])C([H])([H])C2([H])N([H])C(=O)C1([H])N(C(=O)C([H])(N([H])C(=O)C([H])(N([H])C([H])([H])[H])C([H])([H])[H])C(C([H])([H])[H])(C([H])([H])[H])C([H])([H])[H])C([H])([H])c2c([H])c(OC([H])([H])C([H])([H])N(C([H])([H])[H])C([H])([H])C([H])([H])[N+]([H])(C([H])([H])[H])C([H])([H])C(=O)N3C([H])([H])C([H])([H])N(C(=O)N4C([H])([H])C([H])([H])C([H])([H])C([H])(n5nc(-c6c([H])c([H])c(Oc7c([H])c([H])c(F)c([H])c7F)c([H])c6[H])c(C(=O)N([H])[H])c5N([H])[H])C4([H])[H])C([H])([H])C3([H])[H])c([H])c([H])c2C1([H])[H]

$$$$
75:0:0
     RDKit          3D

 95103  0  0  1  0  0  0  0  0999 V2000
  -28.5810  -22.3920   18.3220 C   0  0  0  0  0  1  0  0  0  0  0  0
  -28.9860  -21.9200   19.6430 N   0  0  0  0  0  0  0  0  0  0  0  0
  -30.2540  -21.1780   19.6200 C   0  0  0  0  0  2  0  0  0  0  0  0
  -31.1230  -19.0790   20.7790 C   0  0  0  0  0  3  0  0  0  0  0  0
  -29.0640  -17.4800   19.7580 C   0  0  0  0  0  3  0  0  0  0  0  0
  -30.1440  -19.6790   19.9500 C   0  0  0  0  0  0  0  0  0  0  0  0
  -30.0380  -16.8900   20.5930 C   0  0  0  0  0  0  0  0  0  0  0  0
  -31.0770  -17.7030   21.0990 C   0  0  0  0  0  0  0  0  0  0  0  0
  -29.1230  -18.8500   19.4210 C   0  0  0  0  0  0  0  0  0  0  0  0
  -32.0190  -17.1780   21.9200 F   0  0  0  0  0  0  0  0  0  0  0  0
  -28.1860  -19.3440   18.5770 F   0  0  0  0  0  0  0  0  0  0  0  0
  -30.6460  -14.5070   20.4650 C   0  0  0  0  0  0  0  0  0  0  0  0
  -30.3460  -12.3420   19.3270 C   0  0  0  0  0  2  0  0  0  0  0  0
  -29.3970  -12.5630   18.1300 C   0  0  0  0  0  2  0  0  0  0  0  0
  -27.9230  -12.4260   18.5650 C   0  0  0  0  0  2  0  0  0  0  0  0
  -27.5950  -13.2520   19.8390 C   0  0  0  0  0  3  0  0  0  0  0  0
  -28.6610  -13.0220   20.9360 C   0  0  0  0  0  2  0  0  0  0  0  0
  -29.9840  -13.3220   20.3620 N   0  0  0  0  0  0  0  0  0  0  0  0
  -31.7770  -14.6880   20.0060 O   0  0  0  0  0  0  0  0  0  0  0  0
  -29.9020  -15.5150   20.9500 N   0  0  0  0  0  0  0  0  0  0  0  0
  -28.9830  -15.2260   21.2440 H   0  0  0  0  0  0  0  0  0  0  0  0
  -25.2020  -13.8590   20.5670 C   0  0  0  0  0  0  0  0  0  0  0  0
  -24.1340  -13.0860   20.9350 C   0  0  0  0  0  0  0  0  0  0  0  0
  -24.5890  -11.7340   20.8850 C   0  0  0  0  0  0  0  0  0  0  0  0
  -26.2430  -12.9760   20.3220 N   0  0  0  0  0  0  0  0  0  0  0  0
  -25.8770  -11.6930   20.5710 N   0  0  0  0  0  0  0  0  0  0  0  0
  -23.8590  -10.4720   21.0650 C   0  0  0  0  0  0  0  0  0  0  0  0
  -24.2760   -9.5060   22.0070 C   0  0  0  0  0  3  0  0  0  0  0  0
  -23.5490   -8.3070   22.1740 C   0  0  0  0  0  3  0  0  0  0  0  0
  -22.3900   -8.0670   21.4000 C   0  0  0  0  0  0  0  0  0  0  0  0
  -21.9920   -9.0220   20.4470 C   0  0  0  0  0  3  0  0  0  0  0  0
  -22.7200  -10.2120   20.2780 C   0  0  0  0  0  3  0  0  0  0  0  0
  -21.6350   -6.9210   21.4760 O   0  0  0  0  0  0  0  0  0  0  0  0
  -21.5630   -6.1820   22.6290 C   0  0  0  0  0  0  0  0  0  0  0  0
  -21.0760   -6.7290   23.8360 C   0  0  0  0  0  3  0  0  0  0  0  0
  -20.9540   -5.9140   24.9790 C   0  0  0  0  0  3  0  0  0  0  0  0
  -21.3080   -4.5540   24.9160 C   0  0  0  0  0  0  0  0  0  0  0  0
  -21.7890   -4.0060   23.7140 C   0  0  0  0  0  3  0  0  0  0  0  0
  -21.9130   -4.8180   22.5730 C   0  0  0  0  0  0  0  0  0  0  0  0
  -22.3560   -4.2790   21.4110 F   0  0  0  0  0  0  0  0  0  0  0  0
  -21.1830   -3.7690   26.0120 F   0  0  0  0  0  0  0  0  0  0  0  0
  -22.7390  -13.5650   21.2220 C   0  0  0  0  0  0  0  0  0  0  0  0
  -22.0070  -12.8520   22.0710 N   0  0  0  0  0  0  0  0  0  0  0  0
  -22.3070  -14.6060   20.7280 O   0  0  0  0  0  0  0  0  0  0  0  0
  -22.3690  -12.0100   22.4960 H   0  0  0  0  0  0  0  0  0  0  0  0
  -21.0720  -13.1550   22.3030 H   0  0  0  0  0  0  0  0  0  0  0  0
  -25.3700  -15.2300   20.4020 N   0  0  0  0  0  0  0  0  0  0  0  0
  -24.6020  -15.8840   20.5100 H   0  0  0  0  0  0  0  0  0  0  0  0
  -26.2080  -15.6660   20.0450 H   0  0  0  0  0  0  0  0  0  0  0  0
  -28.8230  -22.8940   20.7380 C   0  0  0  0  0  2  0  0  0  0  0  0
  -29.2850  -24.3740   20.5160 C   0  0  1  0  0  0  0  0  0  0  0  0
  -29.4890  -24.8700   21.7370 F   0  0  0  0  0  0  0  0  0  0  0  0
  -30.4380  -24.4230   19.8500 F   0  0  0  0  0  0  0  0  0  0  0  0
  -28.2110  -25.2810   19.8530 C   0  0  0  0  0  2  0  0  0  0  0  0
  -28.3220  -26.6890   20.1660 O   0  0  0  0  0  0  0  0  0  0  0  0
  -24.5420  -31.8940   23.2750 C   0  0  0  0  0  0  0  0  0  0  0  0
  -27.1540  -27.4380   20.1520 C   0  0  0  0  0  0  0  0  0  0  0  0
  -23.3240  -30.5050   21.6330 C   0  0  0  0  0  3  0  0  0  0  0  0
  -24.7640  -28.9730   20.1940 C   0  0  0  0  0  0  0  0  0  0  0  0
  -25.8540  -30.8480   21.4290 C   0  0  0  0  0  2  0  0  0  0  0  0
  -25.9300  -29.4780   20.7820 C   0  0  0  0  0  0  0  0  0  0  0  0
  -27.1250  -28.7180   20.7610 C   0  0  0  0  0  3  0  0  0  0  0  0
  -25.9650  -26.9650   19.5440 C   0  0  0  0  0  3  0  0  0  0  0  0
  -24.7780  -27.7150   19.5740 C   0  0  0  0  0  3  0  0  0  0  0  0
  -23.5240  -29.8350   20.2490 C   0  0  0  0  0  2  0  0  0  0  0  0
  -24.5920  -31.0970   22.1710 N   0  0  0  0  0  0  0  0  0  0  0  0
  -23.4640  -32.1670   23.8200 O   0  0  0  0  0  0  0  0  0  0  0  0
  -22.6720  -29.4810   22.5910 C   0  0  0  0  0  0  0  0  0  0  0  0
  -21.3480  -29.2950   22.4610 N   0  0  0  0  0  0  0  0  0  0  0  0
  -23.3550  -28.8570   23.4080 O   0  0  0  0  0  0  0  0  0  0  0  0
  -20.8580  -29.8520   21.7770 H   0  0  0  0  0  0  0  0  0  0  0  0
  -17.9740  -28.0970   22.9560 C   0  0  0  0  0  0  0  0  0  0  0  0
  -20.5320  -28.3560   23.2310 C   0  0  0  0  0  3  0  0  0  0  0  0
  -20.6350  -26.9240   22.6550 C   0  0  0  0  0  2  0  0  0  0  0  0
  -19.5350  -26.6010   21.6400 C   0  0  0  0  0  2  0  0  0  0  0  0
  -18.1520  -26.7470   22.2810 C   0  0  0  0  0  2  0  0  0  0  0  0
  -19.0920  -28.8580   23.3880 C   0  0  0  0  0  0  0  0  0  0  0  0
  -18.8730  -30.1220   23.9790 C   0  0  0  0  0  3  0  0  0  0  0  0
  -17.5670  -30.6250   24.1400 C   0  0  0  0  0  3  0  0  0  0  0  0
  -16.4640  -29.8600   23.7250 C   0  0  0  0  0  3  0  0  0  0  0  0
  -16.6680  -28.5970   23.1390 C   0  0  0  0  0  3  0  0  0  0  0  0
  -25.8320  -32.5190   23.8920 C   0  0  0  0  0  3  0  0  0  0  0  0
  -25.5350  -33.9210   24.2070 N   0  0  0  0  0  0  0  0  0  0  0  0
  -25.8840  -34.9630   23.4410 C   0  0  0  0  0  0  0  0  0  0  0  0
  -26.5600  -34.8430   22.4150 O   0  0  0  0  0  0  0  0  0  0  0  0
  -24.9340  -34.0890   25.0000 H   0  0  0  0  0  0  0  0  0  0  0  0
  -24.1880  -36.7780   23.0440 C   0  0  0  0  0  1  0  0  0  0  0  0
  -25.4070  -36.3600   23.8820 C   0  0  0  0  0  3  0  0  0  0  0  0
  -27.5320  -37.2250   24.7550 C   0  0  0  0  0  1  0  0  0  0  0  0
  -26.4560  -37.3980   23.7830 N   0  0  0  0  0  0  0  0  0  0  0  0
  -26.0580  -38.3250   23.9130 H   0  0  0  0  0  0  0  0  0  0  0  0
  -26.3420  -31.7530   25.1740 C   0  0  1  0  0  0  0  0  0  0  0  0
  -25.2460  -31.5300   26.2410 C   0  0  0  0  0  1  0  0  0  0  0  0
  -26.9190  -30.3690   24.7910 C   0  0  0  0  0  1  0  0  0  0  0  0
  -27.4950  -32.5460   25.8340 C   0  0  0  0  0  1  0  0  0  0  0  0
  1  2  1  0
  2 50  1  0
  3  2  1  0
  3  6  1  0
  4  8  1  0
  5  7  1  0
  6  4  2  0
  7 20  1  0
  7  8  2  0
  8 10  1  0
  9  5  2  0
  9  6  1  0
 11  9  1  0
 12 20  1  0
 13 18  1  0
 14 15  1  0
 14 13  1  0
 16 15  1  0
 16 25  1  0
 16 17  1  0
 18 12  1  0
 18 17  1  0
 19 12  2  0
 20 21  1  0
 22 23  2  0
 23 42  1  0
 24 23  1  0
 24 27  1  0
 25 22  1  0
 25 26  1  0
 26 24  2  0
 27 28  1  0
 28 29  2  0
 30 33  1  0
 30 29  1  0
 31 30  2  0
 32 31  1  0
 32 27  2  0
 33 34  1  0
 34 35  1  0
 35 36  2  0
 37 36  1  0
 37 41  1  0
 38 37  2  0
 39 34  2  0
 39 38  1  0
 40 39  1  0
 42 43  1  0
 43 46  1  0
 43 45  1  0
 44 42  2  0
 47 48  1  0
 47 22  1  0
 49 47  1  0
 51 50  1  0
 51 52  1  1
 53 51  1  0
 54 55  1  0
 54 51  1  0
 56 67  2  0
 57 55  1  0
 57 62  1  0
 58 66  1  0
 58 68  1  0
 59 65  1  0
 59 61  1  0
 60 66  1  0
 61 60  1  0
 62 61  2  0
 63 64  1  0
 63 57  2  0
 64 59  2  0
 65 58  1  0
 66 56  1  0
 68 70  2  0
 69 68  1  0
 71 69  1  0
 72 81  2  0
 72 77  1  0
 73 69  1  0
 73 77  1  0
 74 73  1  0
 75 76  1  0
 75 74  1  0
 76 72  1  0
 77 78  2  0
 78 79  1  0
 80 79  2  0
 81 80  1  0
 82 56  1  0
 82 83  1  0
 82 92  1  0
 83 86  1  0
 84 88  1  0
 84 83  1  0
 85 84  2  0
 88 87  1  0
 90 88  1  0
 90 91  1  0
 90 89  1  0
 92 95  1  1
 92 93  1  0
 94 92  1  0
M  ISO  4  12 100  20 100  54 101  55 101
M  END
>  <TORSDO>  (76) 
F 21

>  <SCORE>  (76) 
-13.539

>  <name>  (76) 
75

>  <ligand_id>  (76) 
75

>  <original_smiles>  (76) 
[H]c1c([H])c([H])c2c(c1[H])C([H])([H])C([H])([H])C([H])([H])C2([H])N([H])C(=O)C1([H])N(C(=O)C([H])(N([H])C(=O)C([H])(N([H])C([H])([H])[H])C([H])([H])[H])C(C([H])([H])[H])(C([H])([H])[H])C([H])([H])[H])C([H])([H])c2c([H])c(OC([H])([H])C(F)(F)C([H])([H])N(C([H])([H])[H])C([H])([H])c3c([H])c(F)c(N([H])C(=O)N4C([H])([H])C([H])([H])C([H])([H])C([H])(n5nc(-c6c([H])c([H])c(Oc7c([H])c([H])c(F)c([H])c7F)c([H])c6[H])c(C(=O)N([H])[H])c5N([H])[H])C4([H])[H])c([H])c3F)c([H])c([H])c2C1([H])[H]

>  <smiles>  (76) 
[H]c1c([H])c([H])c2c(c1[H])C([H])([H])C([H])([H])C([H])([H])C2([H])N([H])C(=O)C1([H])N(C(=O)C([H])(N([H])C(=O)C([H])(N([H])C([H])([H])[H])C([H])([H])[H])C(C([H])([H])[H])(C([H])([H])[H])C([H])([H])[H])C([H])([H])c2c([H])c(OC([H])([H])C(F)(F)C([H])([H])N(C([H])([H])[H])C([H])([H])c3c([H])c(F)c(N([H])C(=O)N4C([H])([H])C([H])([H])C([H])([H])C([H])(n5nc(-c6c([H])c([H])c(Oc7c([H])c([H])c(F)c([H])c7F)c([H])c6[H])c(C(=O)N([H])[H])c5N([H])[H])C4([H])[H])c([H])c3F)c([H])c([H])c2C1([H])[H]

$$$$
76:0:0
     RDKit          3D

 92100  0  0  1  0  0  0  0  0999 V2000
  -28.4770  -23.2760   19.8240 C   0  0  0  0  0  3  0  0  0  0  0  0
  -29.6310  -23.5610   18.9380 N   0  0  0  0  0  4  0  0  0  0  0  0
  -30.4480  -23.8220   19.4570 H   0  0  0  0  0  0  0  0  0  0  0  0
  -29.4020  -24.3450   18.3430 H   0  0  0  0  0  0  0  0  0  0  0  0
  -29.8660  -22.7720   18.3630 H   0  0  0  0  0  0  0  0  0  0  0  0
  -28.6810  -21.7450   20.5650 C   0  0  0  0  0  2  0  0  0  0  0  0
  -27.4790  -18.8340   20.2520 C   0  0  0  0  0  2  0  0  0  0  0  0
  -27.6720  -19.9170   19.1570 C   0  0  0  0  0  2  0  0  0  0  0  0
  -28.9790  -18.8980   20.5380 C   0  0  0  0  0  3  0  0  0  0  0  0
  -28.9070  -20.3450   19.8440 N   0  0  0  0  0  0  0  0  0  0  0  0
  -30.4660  -15.0160   20.1540 C   0  0  0  0  0  0  0  0  0  0  0  0
  -30.4160  -12.6450   19.2530 C   0  0  0  0  0  2  0  0  0  0  0  0
  -29.4640  -12.5640   18.0240 C   0  0  0  0  0  2  0  0  0  0  0  0
  -28.0020  -12.3540   18.4550 C   0  0  0  0  0  2  0  0  0  0  0  0
  -27.6090  -13.2850   19.6240 C   0  0  0  0  0  3  0  0  0  0  0  0
  -28.6600  -13.2950   20.7580 C   0  0  0  0  0  2  0  0  0  0  0  0
  -29.9210  -13.7250   20.1590 N   0  0  0  0  0  0  0  0  0  0  0  0
  -31.6470  -15.0960   19.8080 O   0  0  0  0  0  0  0  0  0  0  0  0
  -29.7740  -17.5380   19.9500 C   0  0  0  0  0  0  0  0  0  0  0  0
  -29.6490  -16.1790   20.3890 N   0  0  0  0  0  0  0  0  0  0  0  0
  -30.5380  -17.7830   19.0150 O   0  0  0  0  0  0  0  0  0  0  0  0
  -28.8410  -16.0120   20.9660 H   0  0  0  0  0  0  0  0  0  0  0  0
  -25.2490  -13.8390   20.4090 C   0  0  0  0  0  0  0  0  0  0  0  0
  -24.1990  -13.0490   20.7910 C   0  0  0  0  0  0  0  0  0  0  0  0
  -24.6820  -11.7050   20.7650 C   0  0  0  0  0  0  0  0  0  0  0  0
  -26.2900  -12.9680   20.1510 N   0  0  0  0  0  0  0  0  0  0  0  0
  -25.9670  -11.6830   20.4370 N   0  0  0  0  0  0  0  0  0  0  0  0
  -23.9710  -10.4390   20.9620 C   0  0  0  0  0  0  0  0  0  0  0  0
  -24.4170   -9.4950   21.9120 C   0  0  0  0  0  3  0  0  0  0  0  0
  -23.7200   -8.2830   22.1010 C   0  0  0  0  0  3  0  0  0  0  0  0
  -22.5580   -8.0160   21.3410 C   0  0  0  0  0  0  0  0  0  0  0  0
  -22.1350   -8.9420   20.3710 C   0  0  0  0  0  3  0  0  0  0  0  0
  -22.8360  -10.1450   20.1810 C   0  0  0  0  0  3  0  0  0  0  0  0
  -21.8160   -6.8640   21.4460 O   0  0  0  0  0  0  0  0  0  0  0  0
  -21.7420   -6.1590   22.6190 C   0  0  0  0  0  0  0  0  0  0  0  0
  -21.2610   -6.7400   23.8130 C   0  0  0  0  0  3  0  0  0  0  0  0
  -21.1320   -5.9540   24.9770 C   0  0  0  0  0  3  0  0  0  0  0  0
  -21.4860   -4.5920   24.9520 C   0  0  0  0  0  0  0  0  0  0  0  0
  -21.9620   -4.0130   23.7640 C   0  0  0  0  0  3  0  0  0  0  0  0
  -22.0930   -4.7930   22.6020 C   0  0  0  0  0  0  0  0  0  0  0  0
  -22.5320   -4.2200   21.4540 F   0  0  0  0  0  0  0  0  0  0  0  0
  -21.3570   -3.8380   26.0700 F   0  0  0  0  0  0  0  0  0  0  0  0
  -22.8010  -13.5100   21.0650 C   0  0  0  0  0  0  0  0  0  0  0  0
  -22.0970  -12.8120   21.9500 N   0  0  0  0  0  0  0  0  0  0  0  0
  -22.3450  -14.5240   20.5380 O   0  0  0  0  0  0  0  0  0  0  0  0
  -22.4930  -12.0010   22.4020 H   0  0  0  0  0  0  0  0  0  0  0  0
  -21.1520  -13.0840   22.1700 H   0  0  0  0  0  0  0  0  0  0  0  0
  -25.4060  -15.2100   20.2240 N   0  0  0  0  0  0  0  0  0  0  0  0
  -24.6470  -15.8800   20.3080 H   0  0  0  0  0  0  0  0  0  0  0  0
  -26.2450  -15.6180   19.8370 H   0  0  0  0  0  0  0  0  0  0  0  0
  -28.1700  -24.7250   20.6480 C   0  0  0  0  0  2  0  0  0  0  0  0
  -28.2860  -26.2020   20.1480 O   0  0  0  0  0  0  0  0  0  0  0  0
  -24.6370  -31.8610   23.2070 C   0  0  0  0  0  0  0  0  0  0  0  0
  -27.2120  -27.1570   20.1690 C   0  0  0  0  0  0  0  0  0  0  0  0
  -23.4400  -30.4600   21.5720 C   0  0  0  0  0  3  0  0  0  0  0  0
  -24.8850  -28.8850   20.1470 C   0  0  0  0  0  0  0  0  0  0  0  0
  -25.9920  -30.7430   21.3870 C   0  0  0  0  0  2  0  0  0  0  0  0
  -26.0670  -29.3470   20.7360 C   0  0  0  0  0  0  0  0  0  0  0  0
  -27.2430  -28.5060   20.7050 C   0  0  0  0  0  3  0  0  0  0  0  0
  -26.0070  -26.7940   19.5400 C   0  0  0  0  0  3  0  0  0  0  0  0
  -24.8670  -27.6280   19.5250 C   0  0  0  0  0  3  0  0  0  0  0  0
  -23.6520  -29.7750   20.1970 C   0  0  0  0  0  2  0  0  0  0  0  0
  -24.7110  -31.0450   22.1100 N   0  0  0  0  0  0  0  0  0  0  0  0
  -23.5500  -32.1310   23.7420 O   0  0  0  0  0  0  0  0  0  0  0  0
  -22.7710  -29.4520   22.5380 C   0  0  0  0  0  0  0  0  0  0  0  0
  -21.4420  -29.2790   22.4150 N   0  0  0  0  0  0  0  0  0  0  0  0
  -23.4480  -28.8290   23.3580 O   0  0  0  0  0  0  0  0  0  0  0  0
  -20.9550  -29.8290   21.7220 H   0  0  0  0  0  0  0  0  0  0  0  0
  -18.0660  -28.0690   22.9390 C   0  0  0  0  0  0  0  0  0  0  0  0
  -20.6250  -28.3390   23.1900 C   0  0  0  0  0  3  0  0  0  0  0  0
  -20.7270  -26.9080   22.6150 C   0  0  0  0  0  2  0  0  0  0  0  0
  -19.6210  -26.5830   21.6060 C   0  0  0  0  0  2  0  0  0  0  0  0
  -18.2420  -26.7220   22.2580 C   0  0  0  0  0  2  0  0  0  0  0  0
  -19.1840  -28.8340   23.3630 C   0  0  0  0  0  0  0  0  0  0  0  0
  -18.9630  -30.0940   23.9640 C   0  0  0  0  0  3  0  0  0  0  0  0
  -17.6560  -30.5880   24.1400 C   0  0  0  0  0  3  0  0  0  0  0  0
  -16.5530  -29.8220   23.7310 C   0  0  0  0  0  3  0  0  0  0  0  0
  -16.7580  -28.5630   23.1360 C   0  0  0  0  0  3  0  0  0  0  0  0
  -25.9090  -32.5050   23.8380 C   0  0  0  0  0  3  0  0  0  0  0  0
  -26.4170  -31.7430   25.1230 C   0  0  1  0  0  0  0  0  0  0  0  0
  -25.3220  -31.5110   26.1900 C   0  0  0  0  0  1  0  0  0  0  0  0
  -27.0040  -30.3660   24.7460 C   0  0  0  0  0  1  0  0  0  0  0  0
  -27.5630  -32.5430   25.7860 C   0  0  0  0  0  1  0  0  0  0  0  0
  -25.5880  -33.9040   24.1650 N   0  0  0  0  0  0  0  0  0  0  0  0
  -25.9180  -34.9600   23.4120 C   0  0  0  0  0  0  0  0  0  0  0  0
  -26.5900  -34.8620   22.3820 O   0  0  0  0  0  0  0  0  0  0  0  0
  -24.9890  -34.0490   24.9640 H   0  0  0  0  0  0  0  0  0  0  0  0
  -24.1880  -36.7600   23.0580 C   0  0  0  0  0  1  0  0  0  0  0  0
  -25.4250  -36.3470   23.8740 C   0  0  0  0  0  3  0  0  0  0  0  0
  -27.5520  -37.2410   24.7220 C   0  0  0  0  0  1  0  0  0  0  0  0
  -26.4560  -37.4050   23.7690 N   0  0  0  0  0  0  0  0  0  0  0  0
  -26.0440  -38.3220   23.9150 H   0  0  0  0  0  0  0  0  0  0  0  0
  1  6  1  0
  1 51  1  0
  2  3  1  0
  2  1  1  0
  4  2  1  0
  5  2  1  0
  7  9  1  0
  8 10  1  0
  8  7  1  0
  9 19  1  0
 10  9  1  0
 10  6  1  0
 11 17  1  0
 11 20  1  0
 12 17  1  0
 13 14  1  0
 13 12  1  0
 15 14  1  0
 15 26  1  0
 15 16  1  0
 17 16  1  0
 18 11  2  0
 19 20  1  0
 20 22  1  0
 21 19  2  0
 23 24  2  0
 24 43  1  0
 25 24  1  0
 25 28  1  0
 26 23  1  0
 26 27  1  0
 27 25  2  0
 28 29  1  0
 29 30  2  0
 31 34  1  0
 31 30  1  0
 32 31  2  0
 33 32  1  0
 33 28  2  0
 34 35  1  0
 35 36  1  0
 36 37  2  0
 38 37  1  0
 38 42  1  0
 39 38  2  0
 40 35  2  0
 40 39  1  0
 41 40  1  0
 43 44  1  0
 44 47  1  0
 44 46  1  0
 45 43  2  0
 48 49  1  0
 48 23  1  0
 50 48  1  0
 52 54  1  0
 52 51  1  0
 53 64  2  0
 54 59  1  0
 55 63  1  0
 55 65  1  0
 56 62  1  0
 56 58  1  0
 57 63  1  0
 58 57  1  0
 59 58  2  0
 60 54  2  0
 61 60  1  0
 61 56  2  0
 62 55  1  0
 63 53  1  0
 65 67  2  0
 66 65  1  0
 68 66  1  0
 69 78  2  0
 69 74  1  0
 70 66  1  0
 70 74  1  0
 71 70  1  0
 72 73  1  0
 72 71  1  0
 73 69  1  0
 74 75  2  0
 75 76  1  0
 77 76  2  0
 78 77  1  0
 79 53  1  0
 79 84  1  0
 79 80  1  0
 80 83  1  1
 80 81  1  0
 82 80  1  0
 84 87  1  0
 85 89  1  0
 85 84  1  0
 86 85  2  0
 89 88  1  0
 91 89  1  0
 91 92  1  0
 91 90  1  0
M  ISO  4  11 100  20 100  51 101  52 101
M  END
>  <TORSDO>  (77) 
F 20

>  <SCORE>  (77) 
-15.297

>  <name>  (77) 
76

>  <ligand_id>  (77) 
76

>  <original_smiles>  (77) 
[H]c1c([H])c([H])c2c(c1[H])C([H])([H])C([H])([H])C([H])([H])C2([H])N([H])C(=O)C1([H])N(C(=O)C([H])(N([H])C(=O)C([H])(N([H])C([H])([H])[H])C([H])([H])[H])C(C([H])([H])[H])(C([H])([H])[H])C([H])([H])[H])C([H])([H])c2c([H])c(OC([H])([H])C([H])(C([H])([H])N3C([H])([H])C([H])([H])C3([H])C(=O)N([H])C(=O)N3C([H])([H])C([H])([H])C([H])([H])C([H])(n4nc(-c5c([H])c([H])c(Oc6c([H])c([H])c(F)c([H])c6F)c([H])c5[H])c(C(=O)N([H])[H])c4N([H])[H])C3([H])[H])[N+]([H])([H])[H])c([H])c([H])c2C1([H])[H]

>  <smiles>  (77) 
[H]c1c([H])c([H])c2c(c1[H])C([H])([H])C([H])([H])C([H])([H])C2([H])N([H])C(=O)C1([H])N(C(=O)C([H])(N([H])C(=O)C([H])(N([H])C([H])([H])[H])C([H])([H])[H])C(C([H])([H])[H])(C([H])([H])[H])C([H])([H])[H])C([H])([H])c2c([H])c(OC([H])([H])C([H])(C([H])([H])N3C([H])([H])C([H])([H])C3([H])C(=O)N([H])C(=O)N3C([H])([H])C([H])([H])C([H])([H])C([H])(n4nc(-c5c([H])c([H])c(Oc6c([H])c([H])c(F)c([H])c6F)c([H])c5[H])c(C(=O)N([H])[H])c4N([H])[H])C3([H])[H])[N+]([H])([H])[H])c([H])c([H])c2C1([H])[H]

$$$$
77:0:0
     RDKit          3D

 91 99  0  0  1  0  0  0  0  0999 V2000
  -28.9840  -23.4060   20.2160 C   0  0  0  0  0  0  0  0  0  0  0  0
  -28.5330  -22.0740   20.0580 N   0  0  0  0  0  0  0  0  0  0  0  0
  -30.1440  -23.6320   20.5700 O   0  0  0  0  0  0  0  0  0  0  0  0
  -27.5480  -22.0810   19.8230 H   0  0  0  0  0  0  0  0  0  0  0  0
  -30.6150  -18.6040   20.2960 C   0  0  0  0  0  3  0  0  0  0  0  0
  -30.3410  -20.0470   20.2500 C   0  0  0  0  0  3  0  0  0  0  0  0
  -28.2990  -18.1820   20.2110 C   0  0  0  0  0  3  0  0  0  0  0  0
  -29.5970  -17.5800   20.2820 C   0  0  0  0  0  0  0  0  0  0  0  0
  -29.0190  -20.6250   20.1720 C   0  0  0  0  0  0  0  0  0  0  0  0
  -28.0240  -19.5980   20.1470 C   0  0  0  0  0  0  0  0  0  0  0  0
  -26.7300  -19.9890   20.0570 F   0  0  0  0  0  0  0  0  0  0  0  0
  -30.5510  -14.9620   20.1150 C   0  0  0  0  0  0  0  0  0  0  0  0
  -30.4380  -12.6340   19.1180 C   0  0  0  0  0  2  0  0  0  0  0  0
  -29.4590  -12.6410   17.9190 C   0  0  0  0  0  2  0  0  0  0  0  0
  -28.0060  -12.4260   18.3900 C   0  0  0  0  0  2  0  0  0  0  0  0
  -27.6440  -13.3100   19.6110 C   0  0  0  0  0  3  0  0  0  0  0  0
  -28.7370  -13.2580   20.7010 C   0  0  0  0  0  2  0  0  0  0  0  0
  -29.9960  -13.6850   20.0730 N   0  0  0  0  0  0  0  0  0  0  0  0
  -31.7310  -15.0980   19.7720 O   0  0  0  0  0  0  0  0  0  0  0  0
  -29.6790  -16.0480   20.3690 N   0  0  0  0  0  0  0  0  0  0  0  0
  -28.7830  -15.6540   20.6080 H   0  0  0  0  0  0  0  0  0  0  0  0
  -25.2800  -13.8790   20.4200 C   0  0  0  0  0  0  0  0  0  0  0  0
  -24.2290  -13.0980   20.8130 C   0  0  0  0  0  0  0  0  0  0  0  0
  -24.6940  -11.7480   20.7490 C   0  0  0  0  0  0  0  0  0  0  0  0
  -26.3180  -13.0050   20.1380 N   0  0  0  0  0  0  0  0  0  0  0  0
  -25.9750  -11.7180   20.4010 N   0  0  0  0  0  0  0  0  0  0  0  0
  -23.9740  -10.4820   20.9410 C   0  0  0  0  0  0  0  0  0  0  0  0
  -24.4040   -9.5240   21.8840 C   0  0  0  0  0  3  0  0  0  0  0  0
  -23.6830   -8.3230   22.0640 C   0  0  0  0  0  3  0  0  0  0  0  0
  -22.5180   -8.0720   21.3000 C   0  0  0  0  0  0  0  0  0  0  0  0
  -22.1080   -9.0210   20.3460 C   0  0  0  0  0  3  0  0  0  0  0  0
  -22.8300  -10.2120   20.1650 C   0  0  0  0  0  3  0  0  0  0  0  0
  -21.7710   -6.9240   21.3890 O   0  0  0  0  0  0  0  0  0  0  0  0
  -21.6710   -6.2170   22.5600 C   0  0  0  0  0  0  0  0  0  0  0  0
  -21.1670   -6.8020   23.7430 C   0  0  0  0  0  3  0  0  0  0  0  0
  -21.0170   -6.0230   24.9060 C   0  0  0  0  0  3  0  0  0  0  0  0
  -21.3610   -4.6570   24.8890 C   0  0  0  0  0  0  0  0  0  0  0  0
  -21.8590   -4.0710   23.7110 C   0  0  0  0  0  3  0  0  0  0  0  0
  -22.0100   -4.8490   22.5500 C   0  0  0  0  0  0  0  0  0  0  0  0
  -22.4700   -4.2740   21.4130 F   0  0  0  0  0  0  0  0  0  0  0  0
  -21.2100   -3.9060   26.0050 F   0  0  0  0  0  0  0  0  0  0  0  0
  -22.8380  -13.5690   21.1280 C   0  0  0  0  0  0  0  0  0  0  0  0
  -22.1370  -12.8660   22.0090 N   0  0  0  0  0  0  0  0  0  0  0  0
  -22.3840  -14.5970   20.6260 O   0  0  0  0  0  0  0  0  0  0  0  0
  -22.5180  -12.0350   22.4370 H   0  0  0  0  0  0  0  0  0  0  0  0
  -21.2060  -13.1640   22.2620 H   0  0  0  0  0  0  0  0  0  0  0  0
  -25.4330  -15.2520   20.2490 N   0  0  0  0  0  0  0  0  0  0  0  0
  -24.6480  -15.8850   20.3550 H   0  0  0  0  0  0  0  0  0  0  0  0
  -26.2200  -15.6750   19.7760 H   0  0  0  0  0  0  0  0  0  0  0  0
  -27.9800  -24.6920   19.9200 C   0  0  0  0  0  2  0  0  0  0  0  0
  -28.3120  -26.1880   20.1970 O   0  0  0  0  0  0  0  0  0  0  0  0
  -24.6660  -31.8440   23.2340 C   0  0  0  0  0  0  0  0  0  0  0  0
  -27.2610  -27.1790   20.1420 C   0  0  0  0  0  0  0  0  0  0  0  0
  -23.4720  -30.4670   21.5760 C   0  0  0  0  0  3  0  0  0  0  0  0
  -24.9260  -28.9180   20.1340 C   0  0  0  0  0  0  0  0  0  0  0  0
  -26.0270  -30.7400   21.4210 C   0  0  0  0  0  2  0  0  0  0  0  0
  -26.1060  -29.3580   20.7490 C   0  0  0  0  0  0  0  0  0  0  0  0
  -27.2740  -28.5040   20.7380 C   0  0  0  0  0  3  0  0  0  0  0  0
  -26.0520  -26.8450   19.4880 C   0  0  0  0  0  3  0  0  0  0  0  0
  -24.9120  -27.6740   19.4900 C   0  0  0  0  0  3  0  0  0  0  0  0
  -23.6970  -29.8110   20.1890 C   0  0  0  0  0  2  0  0  0  0  0  0
  -24.7420  -31.0380   22.1320 N   0  0  0  0  0  0  0  0  0  0  0  0
  -23.5780  -32.1210   23.7620 O   0  0  0  0  0  0  0  0  0  0  0  0
  -22.7940  -29.4450   22.5230 C   0  0  0  0  0  0  0  0  0  0  0  0
  -21.4650  -29.2810   22.3990 N   0  0  0  0  0  0  0  0  0  0  0  0
  -23.4660  -28.8030   23.3340 O   0  0  0  0  0  0  0  0  0  0  0  0
  -20.9790  -29.8510   21.7200 H   0  0  0  0  0  0  0  0  0  0  0  0
  -18.0770  -28.1010   22.9080 C   0  0  0  0  0  0  0  0  0  0  0  0
  -20.6410  -28.3360   23.1580 C   0  0  0  0  0  3  0  0  0  0  0  0
  -20.7240  -26.9140   22.5550 C   0  0  0  0  0  2  0  0  0  0  0  0
  -19.6100  -26.6210   21.5450 C   0  0  0  0  0  2  0  0  0  0  0  0
  -18.2360  -26.7640   22.2040 C   0  0  0  0  0  2  0  0  0  0  0  0
  -19.2060  -28.8470   23.3430 C   0  0  0  0  0  0  0  0  0  0  0  0
  -19.0010  -30.0970   23.9630 C   0  0  0  0  0  3  0  0  0  0  0  0
  -17.7010  -30.6040   24.1540 C   0  0  0  0  0  3  0  0  0  0  0  0
  -16.5880  -29.8560   23.7330 C   0  0  0  0  0  3  0  0  0  0  0  0
  -16.7770  -28.6060   23.1170 C   0  0  0  0  0  3  0  0  0  0  0  0
  -25.9420  -32.4740   23.8720 C   0  0  0  0  0  3  0  0  0  0  0  0
  -25.6290  -33.8700   24.2110 N   0  0  0  0  0  0  0  0  0  0  0  0
  -25.9410  -34.9310   23.4540 C   0  0  0  0  0  0  0  0  0  0  0  0
  -26.5900  -34.8350   22.4080 O   0  0  0  0  0  0  0  0  0  0  0  0
  -25.0490  -34.0180   25.0240 H   0  0  0  0  0  0  0  0  0  0  0  0
  -24.1860  -36.7120   23.1640 C   0  0  0  0  0  1  0  0  0  0  0  0
  -25.4600  -36.3150   23.9290 C   0  0  0  0  0  3  0  0  0  0  0  0
  -27.6110  -37.2250   24.6860 C   0  0  0  0  0  1  0  0  0  0  0  0
  -26.4790  -37.3770   23.7770 N   0  0  0  0  0  0  0  0  0  0  0  0
  -26.0690  -38.2950   23.9310 H   0  0  0  0  0  0  0  0  0  0  0  0
  -26.4440  -31.6960   25.1500 C   0  0  1  0  0  0  0  0  0  0  0  0
  -25.3410  -31.4590   26.2070 C   0  0  0  0  0  1  0  0  0  0  0  0
  -27.0260  -30.3170   24.7630 C   0  0  0  0  0  1  0  0  0  0  0  0
  -27.5910  -32.4850   25.8250 C   0  0  0  0  0  1  0  0  0  0  0  0
  1  3  2  0
  2  9  1  0
  2  1  1  0
  4  2  1  0
  6  5  2  0
  7  8  2  0
  8  5  1  0
  8 20  1  0
  9  6  1  0
 10  9  2  0
 10  7  1  0
 11 10  1  0
 12 20  1  0
 13 18  1  0
 14 15  1  0
 14 13  1  0
 16 15  1  0
 16 25  1  0
 16 17  1  0
 18 12  1  0
 18 17  1  0
 19 12  2  0
 20 21  1  0
 22 23  2  0
 23 42  1  0
 24 23  1  0
 24 27  1  0
 25 26  1  0
 25 22  1  0
 26 24  2  0
 27 28  1  0
 28 29  2  0
 30 33  1  0
 30 29  1  0
 31 30  2  0
 32 31  1  0
 32 27  2  0
 33 34  1  0
 34 35  1  0
 35 36  2  0
 37 36  1  0
 37 41  1  0
 38 37  2  0
 39 34  2  0
 39 38  1  0
 40 39  1  0
 42 43  1  0
 43 46  1  0
 43 45  1  0
 44 42  2  0
 47 48  1  0
 47 22  1  0
 49 47  1  0
 50 51  1  0
 50  1  1  0
 52 63  2  0
 53 51  1  0
 53 58  1  0
 54 62  1  0
 54 64  1  0
 55 61  1  0
 55 57  1  0
 56 62  1  0
 57 56  1  0
 58 57  2  0
 59 60  1  0
 59 53  2  0
 60 55  2  0
 61 54  1  0
 62 52  1  0
 64 66  2  0
 65 64  1  0
 67 65  1  0
 68 77  2  0
 68 73  1  0
 69 65  1  0
 69 73  1  0
 70 69  1  0
 71 72  1  0
 71 70  1  0
 72 68  1  0
 73 74  2  0
 74 75  1  0
 76 75  2  0
 77 76  1  0
 78 52  1  0
 78 79  1  0
 78 88  1  0
 79 82  1  0
 80 84  1  0
 80 79  1  0
 81 80  2  0
 84 83  1  0
 86 84  1  0
 86 87  1  0
 86 85  1  0
 88 91  1  1
 88 89  1  0
 90 88  1  0
M  ISO  4  12 100  20 100  50 101  51 101
M  END
>  <TORSDO>  (78) 
F 18

>  <SCORE>  (78) 
-14.264

>  <name>  (78) 
77

>  <ligand_id>  (78) 
77

>  <original_smiles>  (78) 
[H]c1c([H])c([H])c2c(c1[H])C([H])([H])C([H])([H])C([H])([H])C2([H])N([H])C(=O)C1([H])N(C(=O)C([H])(N([H])C(=O)C([H])(N([H])C([H])([H])[H])C([H])([H])[H])C(C([H])([H])[H])(C([H])([H])[H])C([H])([H])[H])C([H])([H])c2c([H])c(OC([H])([H])C(=O)N([H])c3c([H])c([H])c(N([H])C(=O)N4C([H])([H])C([H])([H])C([H])([H])C([H])(n5nc(-c6c([H])c([H])c(Oc7c([H])c([H])c(F)c([H])c7F)c([H])c6[H])c(C(=O)N([H])[H])c5N([H])[H])C4([H])[H])c([H])c3F)c([H])c([H])c2C1([H])[H]

>  <smiles>  (78) 
[H]c1c([H])c([H])c2c(c1[H])C([H])([H])C([H])([H])C([H])([H])C2([H])N([H])C(=O)C1([H])N(C(=O)C([H])(N([H])C(=O)C([H])(N([H])C([H])([H])[H])C([H])([H])[H])C(C([H])([H])[H])(C([H])([H])[H])C([H])([H])[H])C([H])([H])c2c([H])c(OC([H])([H])C(=O)N([H])c3c([H])c([H])c(N([H])C(=O)N4C([H])([H])C([H])([H])C([H])([H])C([H])(n5nc(-c6c([H])c([H])c(Oc7c([H])c([H])c(F)c([H])c7F)c([H])c6[H])c(C(=O)N([H])[H])c5N([H])[H])C4([H])[H])c([H])c3F)c([H])c([H])c2C1([H])[H]

$$$$
78:0:0
     RDKit          3D

 95103  0  0  1  0  0  0  0  0999 V2000
  -28.9540  -22.6270   20.5320 C   0  0  0  0  0  3  0  0  0  0  0  0
  -28.0870  -22.3700   21.5140 F   0  0  0  0  0  0  0  0  0  0  0  0
  -30.1390  -21.5960   20.6630 C   0  0  0  0  0  2  0  0  0  0  0  0
  -29.0620  -17.8900   19.8600 C   0  0  0  0  0  2  0  0  0  0  0  0
  -30.4970  -17.8760   21.8640 C   0  0  0  0  0  2  0  0  0  0  0  0
  -29.3840  -19.4060   19.6330 C   0  0  0  0  0  2  0  0  0  0  0  0
  -30.8220  -19.3850   21.6210 C   0  0  0  0  0  2  0  0  0  0  0  0
  -30.2120  -17.1130   20.5530 C   0  0  0  0  0  3  0  0  0  0  0  0
  -29.7610  -20.1430   20.8800 N   0  0  1  0  0  4  0  0  0  0  0  0
  -28.9480  -20.1690   21.4800 H   0  0  0  0  0  0  0  0  0  0  0  0
  -30.6490  -14.5900   20.3870 C   0  0  0  0  0  0  0  0  0  0  0  0
  -30.3750  -12.3900   19.2930 C   0  0  0  0  0  2  0  0  0  0  0  0
  -29.4210  -12.5600   18.0920 C   0  0  0  0  0  2  0  0  0  0  0  0
  -27.9520  -12.4080   18.5380 C   0  0  0  0  0  2  0  0  0  0  0  0
  -27.6180  -13.2550   19.7960 C   0  0  0  0  0  3  0  0  0  0  0  0
  -28.6900  -13.0770   20.8950 C   0  0  0  0  0  2  0  0  0  0  0  0
  -29.9980  -13.3930   20.3040 N   0  0  0  0  0  0  0  0  0  0  0  0
  -31.7960  -14.7410   19.9560 O   0  0  0  0  0  0  0  0  0  0  0  0
  -29.8990  -15.6630   20.7590 N   0  0  0  0  0  0  0  0  0  0  0  0
  -28.9720  -15.4420   21.0890 H   0  0  0  0  0  0  0  0  0  0  0  0
  -25.2340  -13.8510   20.5550 C   0  0  0  0  0  0  0  0  0  0  0  0
  -24.1700  -13.0730   20.9270 C   0  0  0  0  0  0  0  0  0  0  0  0
  -24.6290  -11.7210   20.8680 C   0  0  0  0  0  0  0  0  0  0  0  0
  -26.2740  -12.9710   20.2920 N   0  0  0  0  0  0  0  0  0  0  0  0
  -25.9140  -11.6850   20.5400 N   0  0  0  0  0  0  0  0  0  0  0  0
  -23.9020  -10.4580   21.0470 C   0  0  0  0  0  0  0  0  0  0  0  0
  -24.3250   -9.4900   21.9840 C   0  0  0  0  0  3  0  0  0  0  0  0
  -23.5990   -8.2910   22.1520 C   0  0  0  0  0  3  0  0  0  0  0  0
  -22.4360   -8.0510   21.3820 C   0  0  0  0  0  0  0  0  0  0  0  0
  -22.0330   -9.0090   20.4350 C   0  0  0  0  0  3  0  0  0  0  0  0
  -22.7600  -10.1990   20.2640 C   0  0  0  0  0  3  0  0  0  0  0  0
  -21.6830   -6.9050   21.4590 O   0  0  0  0  0  0  0  0  0  0  0  0
  -21.5940   -6.1780   22.6190 C   0  0  0  0  0  0  0  0  0  0  0  0
  -21.0900   -6.7390   23.8130 C   0  0  0  0  0  3  0  0  0  0  0  0
  -20.9510   -5.9380   24.9640 C   0  0  0  0  0  3  0  0  0  0  0  0
  -21.3060   -4.5760   24.9220 C   0  0  0  0  0  0  0  0  0  0  0  0
  -21.8020   -4.0140   23.7320 C   0  0  0  0  0  3  0  0  0  0  0  0
  -21.9430   -4.8130   22.5830 C   0  0  0  0  0  0  0  0  0  0  0  0
  -22.4020   -4.2620   21.4340 F   0  0  0  0  0  0  0  0  0  0  0  0
  -21.1640   -3.8040   26.0240 F   0  0  0  0  0  0  0  0  0  0  0  0
  -22.7790  -13.5490   21.2270 C   0  0  0  0  0  0  0  0  0  0  0  0
  -22.0620  -12.8410   22.0930 N   0  0  0  0  0  0  0  0  0  0  0  0
  -22.3360  -14.5820   20.7290 O   0  0  0  0  0  0  0  0  0  0  0  0
  -22.4330  -12.0040   22.5190 H   0  0  0  0  0  0  0  0  0  0  0  0
  -21.1280  -13.1410   22.3350 H   0  0  0  0  0  0  0  0  0  0  0  0
  -25.4010  -15.2240   20.3960 N   0  0  0  0  0  0  0  0  0  0  0  0
  -24.6340  -15.8750   20.5220 H   0  0  0  0  0  0  0  0  0  0  0  0
  -26.2400  -15.6620   20.0400 H   0  0  0  0  0  0  0  0  0  0  0  0
  -29.3040  -24.1800   20.5690 C   0  0  0  0  0  3  0  0  0  0  0  0
  -29.6970  -24.6030   21.9330 N   0  0  0  0  0  4  0  0  0  0  0  0
  -28.9980  -24.3240   22.6020 H   0  0  0  0  0  0  0  0  0  0  0  0
  -29.7760  -25.6060   21.9620 H   0  0  0  0  0  0  0  0  0  0  0  0
  -30.5830  -24.2210   22.2120 H   0  0  0  0  0  0  0  0  0  0  0  0
  -28.1470  -25.1220   20.0760 C   0  0  0  0  0  2  0  0  0  0  0  0
  -28.3480  -26.5650   20.2500 O   0  0  0  0  0  0  0  0  0  0  0  0
  -24.5670  -31.8780   23.2540 C   0  0  0  0  0  0  0  0  0  0  0  0
  -27.2100  -27.3750   20.1910 C   0  0  0  0  0  0  0  0  0  0  0  0
  -23.3720  -30.4800   21.6070 C   0  0  0  0  0  3  0  0  0  0  0  0
  -24.8300  -28.9460   20.1820 C   0  0  0  0  0  0  0  0  0  0  0  0
  -25.9070  -30.8190   21.4280 C   0  0  0  0  0  2  0  0  0  0  0  0
  -25.9930  -29.4470   20.7800 C   0  0  0  0  0  0  0  0  0  0  0  0
  -27.1850  -28.6720   20.7770 C   0  0  0  0  0  3  0  0  0  0  0  0
  -26.0240  -26.9190   19.5650 C   0  0  0  0  0  3  0  0  0  0  0  0
  -24.8450  -27.6860   19.5670 C   0  0  0  0  0  3  0  0  0  0  0  0
  -23.5890  -29.8100   20.2250 C   0  0  0  0  0  2  0  0  0  0  0  0
  -24.6340  -31.0750   22.1530 N   0  0  0  0  0  0  0  0  0  0  0  0
  -23.4820  -32.1510   23.7860 O   0  0  0  0  0  0  0  0  0  0  0  0
  -22.7120  -29.4570   22.5610 C   0  0  0  0  0  0  0  0  0  0  0  0
  -21.3870  -29.2790   22.4310 N   0  0  0  0  0  0  0  0  0  0  0  0
  -23.3920  -28.8260   23.3760 O   0  0  0  0  0  0  0  0  0  0  0  0
  -20.8990  -29.8400   21.7460 H   0  0  0  0  0  0  0  0  0  0  0  0
  -18.0040  -28.1060   22.9390 C   0  0  0  0  0  0  0  0  0  0  0  0
  -20.5660  -28.3400   23.1980 C   0  0  0  0  0  3  0  0  0  0  0  0
  -20.6520  -26.9140   22.6070 C   0  0  0  0  0  2  0  0  0  0  0  0
  -19.5420  -26.6110   21.5960 C   0  0  0  0  0  2  0  0  0  0  0  0
  -18.1650  -26.7620   22.2500 C   0  0  0  0  0  2  0  0  0  0  0  0
  -19.1310  -28.8550   23.3700 C   0  0  0  0  0  0  0  0  0  0  0  0
  -18.9270  -30.1140   23.9740 C   0  0  0  0  0  3  0  0  0  0  0  0
  -17.6280  -30.6250   24.1520 C   0  0  0  0  0  3  0  0  0  0  0  0
  -16.5150  -29.8740   23.7380 C   0  0  0  0  0  3  0  0  0  0  0  0
  -16.7040  -28.6160   23.1370 C   0  0  0  0  0  3  0  0  0  0  0  0
  -25.8480  -32.5110   23.8810 C   0  0  0  0  0  3  0  0  0  0  0  0
  -25.5380  -33.9100   24.2040 N   0  0  0  0  0  0  0  0  0  0  0  0
  -25.8600  -34.9580   23.4340 C   0  0  0  0  0  0  0  0  0  0  0  0
  -26.5210  -34.8490   22.3980 O   0  0  0  0  0  0  0  0  0  0  0  0
  -24.9510  -34.0690   25.0100 H   0  0  0  0  0  0  0  0  0  0  0  0
  -24.1210  -36.7410   23.0840 C   0  0  0  0  0  1  0  0  0  0  0  0
  -25.3720  -36.3480   23.8860 C   0  0  0  0  0  3  0  0  0  0  0  0
  -27.5090  -37.2500   24.6910 C   0  0  0  0  0  1  0  0  0  0  0  0
  -26.4000  -37.4040   23.7540 N   0  0  0  0  0  0  0  0  0  0  0  0
  -25.9910  -38.3240   23.8940 H   0  0  0  0  0  0  0  0  0  0  0  0
  -26.3560  -31.7430   25.1630 C   0  0  1  0  0  0  0  0  0  0  0  0
  -25.2560  -31.5060   26.2230 C   0  0  0  0  0  1  0  0  0  0  0  0
  -26.9440  -30.3650   24.7780 C   0  0  0  0  0  1  0  0  0  0  0  0
  -27.5020  -32.5400   25.8310 C   0  0  0  0  0  1  0  0  0  0  0  0
  1 49  1  0
  1  3  1  0
  1  2  1  0
  3  9  1  0
  4  8  1  0
  6  4  1  0
  6  9  1  0
  7  5  1  0
  8 19  1  0
  8  5  1  0
  9 10  1  1
  9  7  1  0
 11 19  1  0
 12 17  1  0
 13 14  1  0
 13 12  1  0
 15 14  1  0
 15 24  1  0
 15 16  1  0
 17 11  1  0
 17 16  1  0
 18 11  2  0
 19 20  1  0
 21 22  2  0
 22 41  1  0
 23 22  1  0
 23 26  1  0
 24 25  1  0
 24 21  1  0
 25 23  2  0
 26 27  1  0
 27 28  2  0
 29 32  1  0
 29 28  1  0
 30 29  2  0
 31 30  1  0
 31 26  2  0
 32 33  1  0
 33 34  1  0
 34 35  2  0
 36 35  1  0
 36 40  1  0
 37 36  2  0
 38 33  2  0
 38 37  1  0
 39 38  1  0
 41 42  1  0
 42 45  1  0
 42 44  1  0
 43 41  2  0
 46 47  1  0
 46 21  1  0
 48 46  1  0
 49 54  1  0
 49 50  1  0
 50 52  1  0
 50 53  1  0
 50 51  1  0
 54 55  1  0
 56 67  2  0
 57 55  1  0
 57 62  1  0
 58 66  1  0
 58 68  1  0
 59 65  1  0
 59 61  1  0
 60 66  1  0
 61 60  1  0
 62 61  2  0
 63 64  1  0
 63 57  2  0
 64 59  2  0
 65 58  1  0
 66 56  1  0
 68 70  2  0
 69 68  1  0
 71 69  1  0
 72 81  2  0
 72 77  1  0
 73 69  1  0
 73 77  1  0
 74 73  1  0
 75 76  1  0
 75 74  1  0
 76 72  1  0
 77 78  2  0
 78 79  1  0
 80 79  2  0
 81 80  1  0
 82 56  1  0
 82 83  1  0
 82 92  1  0
 83 86  1  0
 84 88  1  0
 84 83  1  0
 85 84  2  0
 88 87  1  0
 90 88  1  0
 90 91  1  0
 90 89  1  0
 92 95  1  1
 92 93  1  0
 94 92  1  0
M  ISO  4  11 100  19 100  54 101  55 101
M  END
>  <TORSDO>  (79) 
F 21

>  <SCORE>  (79) 
-13.819

>  <name>  (79) 
78

>  <ligand_id>  (79) 
78

>  <original_smiles>  (79) 
[H]c1c([H])c([H])c2c(c1[H])C([H])([H])C([H])([H])C([H])([H])C2([H])N([H])C(=O)C1([H])N(C(=O)C([H])(N([H])C(=O)C([H])(N([H])C([H])([H])[H])C([H])([H])[H])C(C([H])([H])[H])(C([H])([H])[H])C([H])([H])[H])C([H])([H])c2c([H])c(OC([H])([H])C([H])(C([H])(F)C([H])([H])[N+]3([H])C([H])([H])C([H])([H])C([H])(N([H])C(=O)N4C([H])([H])C([H])([H])C([H])([H])C([H])(n5nc(-c6c([H])c([H])c(Oc7c([H])c([H])c(F)c([H])c7F)c([H])c6[H])c(C(=O)N([H])[H])c5N([H])[H])C4([H])[H])C([H])([H])C3([H])[H])[N+]([H])([H])[H])c([H])c([H])c2C1([H])[H]

>  <smiles>  (79) 
[H]c1c([H])c([H])c2c(c1[H])C([H])([H])C([H])([H])C([H])([H])C2([H])N([H])C(=O)C1([H])N(C(=O)C([H])(N([H])C(=O)C([H])(N([H])C([H])([H])[H])C([H])([H])[H])C(C([H])([H])[H])(C([H])([H])[H])C([H])([H])[H])C([H])([H])c2c([H])c(OC([H])([H])C([H])(C([H])(F)C([H])([H])[N+]3([H])C([H])([H])C([H])([H])C([H])(N([H])C(=O)N4C([H])([H])C([H])([H])C([H])([H])C([H])(n5nc(-c6c([H])c([H])c(Oc7c([H])c([H])c(F)c([H])c7F)c([H])c6[H])c(C(=O)N([H])[H])c5N([H])[H])C4([H])[H])C([H])([H])C3([H])[H])[N+]([H])([H])[H])c([H])c([H])c2C1([H])[H]

$$$$
79:0:0
     RDKit          3D

 91 99  0  0  1  0  0  0  0  0999 V2000
  -28.9830  -23.2830   20.2790 C   0  0  0  0  0  0  0  0  0  0  0  0
  -28.7110  -21.8590   20.3840 N   0  0  0  0  0  0  0  0  0  0  0  0
  -30.1460  -23.6620   20.1360 O   0  0  0  0  0  0  0  0  0  0  0  0
  -27.7180  -21.6800   20.3590 H   0  0  0  0  0  0  0  0  0  0  0  0
  -31.3300  -18.1900   20.9670 C   0  0  0  0  0  3  0  0  0  0  0  0
  -31.7310  -19.5210   21.2080 C   0  0  0  0  0  3  0  0  0  0  0  0
  -29.1680  -19.0920   20.3410 C   0  0  0  0  0  3  0  0  0  0  0  0
  -30.0280  -17.8600   20.5410 C   0  0  0  0  0  0  0  0  0  0  0  0
  -29.5600  -20.5410   20.5470 C   0  0  0  0  0  0  0  0  0  0  0  0
  -30.8910  -20.6450   21.0350 C   0  0  0  0  0  0  0  0  0  0  0  0
  -31.4080  -21.8340   21.4130 F   0  0  0  0  0  0  0  0  0  0  0  0
  -30.4850  -15.1180   20.3240 C   0  0  0  0  0  0  0  0  0  0  0  0
  -30.3900  -12.7490   19.3720 C   0  0  0  0  0  2  0  0  0  0  0  0
  -29.4420  -12.6500   18.1540 C   0  0  0  0  0  2  0  0  0  0  0  0
  -27.9930  -12.4030   18.6110 C   0  0  0  0  0  2  0  0  0  0  0  0
  -27.5790  -13.3310   19.7820 C   0  0  0  0  0  3  0  0  0  0  0  0
  -28.6490  -13.3930   20.8920 C   0  0  0  0  0  2  0  0  0  0  0  0
  -29.8920  -13.8490   20.2540 N   0  0  0  0  0  0  0  0  0  0  0  0
  -31.6970  -15.1480   20.0780 O   0  0  0  0  0  0  0  0  0  0  0  0
  -29.7060  -16.3350   20.4160 N   0  0  0  0  0  0  0  0  0  0  0  0
  -28.7170  -16.1350   20.4180 H   0  0  0  0  0  0  0  0  0  0  0  0
  -25.2100  -13.8740   20.5710 C   0  0  0  0  0  0  0  0  0  0  0  0
  -24.1590  -13.0840   20.9450 C   0  0  0  0  0  0  0  0  0  0  0  0
  -24.6360  -11.7390   20.8890 C   0  0  0  0  0  0  0  0  0  0  0  0
  -26.2560  -13.0090   20.3020 N   0  0  0  0  0  0  0  0  0  0  0  0
  -25.9230  -11.7190   20.5610 N   0  0  0  0  0  0  0  0  0  0  0  0
  -23.9220  -10.4670   21.0680 C   0  0  0  0  0  0  0  0  0  0  0  0
  -24.3710   -9.4900   21.9840 C   0  0  0  0  0  3  0  0  0  0  0  0
  -23.6550   -8.2850   22.1530 C   0  0  0  0  0  3  0  0  0  0  0  0
  -22.4750   -8.0490   21.4080 C   0  0  0  0  0  0  0  0  0  0  0  0
  -22.0450   -9.0160   20.4810 C   0  0  0  0  0  3  0  0  0  0  0  0
  -22.7620  -10.2120   20.3100 C   0  0  0  0  0  3  0  0  0  0  0  0
  -21.7290   -6.8980   21.4890 O   0  0  0  0  0  0  0  0  0  0  0  0
  -21.6940   -6.1420   22.6330 C   0  0  0  0  0  0  0  0  0  0  0  0
  -21.2510   -6.6730   23.8640 C   0  0  0  0  0  3  0  0  0  0  0  0
  -21.1650   -5.8420   24.9990 C   0  0  0  0  0  3  0  0  0  0  0  0
  -21.5120   -4.4810   24.9030 C   0  0  0  0  0  0  0  0  0  0  0  0
  -21.9470   -3.9490   23.6770 C   0  0  0  0  0  3  0  0  0  0  0  0
  -22.0350   -4.7770   22.5450 C   0  0  0  0  0  0  0  0  0  0  0  0
  -22.4350   -4.2550   21.3600 F   0  0  0  0  0  0  0  0  0  0  0  0
  -21.4220   -3.6800   25.9910 F   0  0  0  0  0  0  0  0  0  0  0  0
  -22.7610  -13.5460   21.2370 C   0  0  0  0  0  0  0  0  0  0  0  0
  -22.0500  -12.8370   22.1070 N   0  0  0  0  0  0  0  0  0  0  0  0
  -22.3090  -14.5710   20.7290 O   0  0  0  0  0  0  0  0  0  0  0  0
  -22.4310  -12.0080   22.5380 H   0  0  0  0  0  0  0  0  0  0  0  0
  -21.1140  -13.1270   22.3450 H   0  0  0  0  0  0  0  0  0  0  0  0
  -25.3580  -15.2480   20.4070 N   0  0  0  0  0  0  0  0  0  0  0  0
  -24.5790  -15.8880   20.5260 H   0  0  0  0  0  0  0  0  0  0  0  0
  -26.1800  -15.6960   20.0290 H   0  0  0  0  0  0  0  0  0  0  0  0
  -27.8600  -24.5430   20.2350 C   0  0  0  0  0  2  0  0  0  0  0  0
  -28.2100  -26.0960   20.2720 O   0  0  0  0  0  0  0  0  0  0  0  0
  -24.6750  -31.9280   23.2570 C   0  0  0  0  0  0  0  0  0  0  0  0
  -27.1840  -27.1350   20.2190 C   0  0  0  0  0  0  0  0  0  0  0  0
  -23.4570  -30.5440   21.6250 C   0  0  0  0  0  3  0  0  0  0  0  0
  -24.8830  -28.9500   20.1930 C   0  0  0  0  0  0  0  0  0  0  0  0
  -26.0170  -30.7700   21.4510 C   0  0  0  0  0  2  0  0  0  0  0  0
  -26.0740  -29.3700   20.7990 C   0  0  0  0  0  0  0  0  0  0  0  0
  -27.2250  -28.4820   20.7900 C   0  0  0  0  0  3  0  0  0  0  0  0
  -25.9650  -26.8380   19.5710 C   0  0  0  0  0  3  0  0  0  0  0  0
  -24.8460  -27.6990   19.5610 C   0  0  0  0  0  3  0  0  0  0  0  0
  -23.6680  -29.8670   20.2460 C   0  0  0  0  0  2  0  0  0  0  0  0
  -24.7380  -31.1030   22.1660 N   0  0  0  0  0  0  0  0  0  0  0  0
  -23.5930  -32.2230   23.7880 O   0  0  0  0  0  0  0  0  0  0  0  0
  -22.7690  -29.5460   22.5910 C   0  0  0  0  0  0  0  0  0  0  0  0
  -21.4390  -29.3830   22.4660 N   0  0  0  0  0  0  0  0  0  0  0  0
  -23.4360  -28.9180   23.4180 O   0  0  0  0  0  0  0  0  0  0  0  0
  -20.9570  -29.9390   21.7750 H   0  0  0  0  0  0  0  0  0  0  0  0
  -18.0530  -28.1940   22.9740 C   0  0  0  0  0  0  0  0  0  0  0  0
  -20.6140  -28.4520   23.2410 C   0  0  0  0  0  3  0  0  0  0  0  0
  -20.7120  -27.0160   22.6740 C   0  0  0  0  0  2  0  0  0  0  0  0
  -19.6100  -26.6910   21.6600 C   0  0  0  0  0  2  0  0  0  0  0  0
  -18.2280  -26.8410   22.3020 C   0  0  0  0  0  2  0  0  0  0  0  0
  -19.1740  -28.9560   23.4010 C   0  0  0  0  0  0  0  0  0  0  0  0
  -18.9560  -30.2190   23.9910 C   0  0  0  0  0  3  0  0  0  0  0  0
  -17.6510  -30.7220   24.1570 C   0  0  0  0  0  3  0  0  0  0  0  0
  -16.5460  -29.9570   23.7450 C   0  0  0  0  0  3  0  0  0  0  0  0
  -16.7480  -28.6940   23.1600 C   0  0  0  0  0  3  0  0  0  0  0  0
  -25.9590  -32.5560   23.8790 C   0  0  0  0  0  3  0  0  0  0  0  0
  -25.6540  -33.9540   24.2240 N   0  0  0  0  0  0  0  0  0  0  0  0
  -25.9600  -35.0140   23.4640 C   0  0  0  0  0  0  0  0  0  0  0  0
  -26.5950  -34.9180   22.4110 O   0  0  0  0  0  0  0  0  0  0  0  0
  -25.0850  -34.1010   25.0440 H   0  0  0  0  0  0  0  0  0  0  0  0
  -24.2110  -36.8060   23.2010 C   0  0  0  0  0  1  0  0  0  0  0  0
  -25.4910  -36.4010   23.9490 C   0  0  0  0  0  3  0  0  0  0  0  0
  -27.6570  -37.2980   24.6820 C   0  0  0  0  0  1  0  0  0  0  0  0
  -26.5140  -37.4590   23.7890 N   0  0  0  0  0  0  0  0  0  0  0  0
  -26.1110  -38.3770   23.9530 H   0  0  0  0  0  0  0  0  0  0  0  0
  -26.4730  -31.7770   25.1530 C   0  0  1  0  0  0  0  0  0  0  0  0
  -25.3810  -31.5430   26.2240 C   0  0  0  0  0  1  0  0  0  0  0  0
  -27.0480  -30.3970   24.7610 C   0  0  0  0  0  1  0  0  0  0  0  0
  -27.6300  -32.5630   25.8140 C   0  0  0  0  0  1  0  0  0  0  0  0
  1  2  1  0
  2  9  1  0
  3  1  2  0
  4  2  1  0
  5  6  1  0
  7  8  1  0
  7  9  2  0
  8  5  2  0
  9 10  1  0
 10  6  2  0
 10 11  1  0
 12 20  1  0
 13 18  1  0
 14 15  1  0
 14 13  1  0
 16 15  1  0
 16 25  1  0
 16 17  1  0
 18 12  1  0
 18 17  1  0
 19 12  2  0
 20 21  1  0
 20  8  1  0
 22 23  2  0
 23 42  1  0
 24 23  1  0
 24 27  1  0
 25 26  1  0
 25 22  1  0
 26 24  2  0
 27 28  1  0
 28 29  2  0
 30 33  1  0
 30 29  1  0
 31 30  2  0
 32 31  1  0
 32 27  2  0
 33 34  1  0
 34 35  1  0
 35 36  2  0
 37 36  1  0
 37 41  1  0
 38 37  2  0
 39 34  2  0
 39 38  1  0
 40 39  1  0
 42 43  1  0
 43 46  1  0
 43 45  1  0
 44 42  2  0
 47 48  1  0
 47 22  1  0
 49 47  1  0
 50 51  1  0
 50  1  1  0
 52 63  2  0
 53 51  1  0
 53 58  1  0
 54 62  1  0
 54 64  1  0
 55 61  1  0
 55 57  1  0
 56 62  1  0
 57 56  1  0
 58 57  2  0
 59 53  2  0
 60 59  1  0
 60 55  2  0
 61 54  1  0
 62 52  1  0
 64 66  2  0
 65 64  1  0
 67 65  1  0
 68 77  2  0
 68 73  1  0
 69 65  1  0
 69 73  1  0
 70 69  1  0
 71 72  1  0
 71 70  1  0
 72 68  1  0
 73 74  2  0
 74 75  1  0
 76 75  2  0
 77 76  1  0
 78 52  1  0
 78 79  1  0
 78 88  1  0
 79 82  1  0
 80 84  1  0
 80 79  1  0
 81 80  2  0
 84 83  1  0
 86 84  1  0
 86 87  1  0
 86 85  1  0
 88 91  1  1
 88 89  1  0
 90 88  1  0
M  ISO  4  12 100  20 100  50 101  51 101
M  END
>  <TORSDO>  (80) 
F 18

>  <SCORE>  (80) 
-14.816

>  <name>  (80) 
79

>  <ligand_id>  (80) 
79

>  <original_smiles>  (80) 
[H]c1c([H])c([H])c2c(c1[H])C([H])([H])C([H])([H])C([H])([H])C2([H])N([H])C(=O)C1([H])N(C(=O)C([H])(N([H])C(=O)C([H])(N([H])C([H])([H])[H])C([H])([H])[H])C(C([H])([H])[H])(C([H])([H])[H])C([H])([H])[H])C([H])([H])c2c([H])c(OC([H])([H])C(=O)N([H])c3c([H])c(N([H])C(=O)N4C([H])([H])C([H])([H])C([H])([H])C([H])(n5nc(-c6c([H])c([H])c(Oc7c([H])c([H])c(F)c([H])c7F)c([H])c6[H])c(C(=O)N([H])[H])c5N([H])[H])C4([H])[H])c([H])c([H])c3F)c([H])c([H])c2C1([H])[H]

>  <smiles>  (80) 
[H]c1c([H])c([H])c2c(c1[H])C([H])([H])C([H])([H])C([H])([H])C2([H])N([H])C(=O)C1([H])N(C(=O)C([H])(N([H])C(=O)C([H])(N([H])C([H])([H])[H])C([H])([H])[H])C(C([H])([H])[H])(C([H])([H])[H])C([H])([H])[H])C([H])([H])c2c([H])c(OC([H])([H])C(=O)N([H])c3c([H])c(N([H])C(=O)N4C([H])([H])C([H])([H])C([H])([H])C([H])(n5nc(-c6c([H])c([H])c(Oc7c([H])c([H])c(F)c([H])c7F)c([H])c6[H])c(C(=O)N([H])[H])c5N([H])[H])C4([H])[H])c([H])c([H])c3F)c([H])c([H])c2C1([H])[H]

$$$$
80:0:0
     RDKit          3D

 98106  0  0  1  0  0  0  0  0999 V2000
  -28.6840  -19.9210   21.3730 C   0  0  0  0  0  2  0  0  0  0  0  0
  -28.9300  -21.4020   21.0350 C   0  0  0  0  0  2  0  0  0  0  0  0
  -29.2150  -22.3230   22.2290 C   0  0  0  0  0  2  0  0  0  0  0  0
  -28.9900  -24.6370   21.2910 C   0  0  0  0  0  0  0  0  0  0  0  0
  -29.7210  -23.6090   21.7430 N   0  0  0  0  0  0  0  0  0  0  0  0
  -27.7580  -24.6300   21.3230 O   0  0  0  0  0  0  0  0  0  0  0  0
  -30.7270  -23.6920   21.6450 H   0  0  0  0  0  0  0  0  0  0  0  0
  -29.7690  -25.8240   20.6910 C   0  0  0  0  0  2  0  0  0  0  0  0
  -29.4080  -27.0650   21.3110 O   0  0  0  0  0  0  0  0  0  0  0  0
  -24.7600  -31.9170   23.5660 C   0  0  0  0  0  0  0  0  0  0  0  0
  -28.1690  -27.6330   21.0870 C   0  0  0  0  0  0  0  0  0  0  0  0
  -23.9130  -30.3650   21.8380 C   0  0  0  0  0  3  0  0  0  0  0  0
  -25.6760  -28.9200   20.6960 C   0  0  0  0  0  0  0  0  0  0  0  0
  -26.4030  -30.9380   21.9760 C   0  0  0  0  0  2  0  0  0  0  0  0
  -26.6910  -29.5620   21.4120 C   0  0  0  0  0  0  0  0  0  0  0  0
  -27.9380  -28.9300   21.5980 C   0  0  0  0  0  3  0  0  0  0  0  0
  -27.1280  -26.9950   20.3670 C   0  0  0  0  0  3  0  0  0  0  0  0
  -25.8900  -27.6350   20.1690 C   0  0  0  0  0  3  0  0  0  0  0  0
  -24.3700  -29.6660   20.5300 C   0  0  0  0  0  2  0  0  0  0  0  0
  -25.0340  -31.0900   22.5200 N   0  0  0  0  0  0  0  0  0  0  0  0
  -23.5960  -32.1140   23.9380 O   0  0  0  0  0  0  0  0  0  0  0  0
  -23.2240  -29.3180   22.7420 C   0  0  0  0  0  0  0  0  0  0  0  0
  -21.9350  -29.0540   22.4760 N   0  0  0  0  0  0  0  0  0  0  0  0
  -23.8480  -28.7480   23.6420 O   0  0  0  0  0  0  0  0  0  0  0  0
  -21.4860  -29.5750   21.7360 H   0  0  0  0  0  0  0  0  0  0  0  0
  -18.5760  -27.7380   22.6890 C   0  0  0  0  0  0  0  0  0  0  0  0
  -21.0940  -28.0770   23.1670 C   0  0  0  0  0  3  0  0  0  0  0  0
  -21.2950  -26.6610   22.5810 C   0  0  0  0  0  2  0  0  0  0  0  0
  -20.2850  -26.3170   21.4830 C   0  0  0  0  0  2  0  0  0  0  0  0
  -18.8510  -26.4060   22.0150 C   0  0  0  0  0  2  0  0  0  0  0  0
  -19.6310  -28.5310   23.2140 C   0  0  0  0  0  0  0  0  0  0  0  0
  -19.3230  -29.7800   23.7920 C   0  0  0  0  0  3  0  0  0  0  0  0
  -17.9950  -30.2460   23.8370 C   0  0  0  0  0  3  0  0  0  0  0  0
  -16.9540  -29.4500   23.3260 C   0  0  0  0  0  3  0  0  0  0  0  0
  -17.2440  -28.1950   22.7620 C   0  0  0  0  0  3  0  0  0  0  0  0
  -25.8930  -32.6750   24.3270 C   0  0  0  0  0  3  0  0  0  0  0  0
  -25.4850  -34.0810   24.4350 N   0  0  0  0  0  0  0  0  0  0  0  0
  -25.8960  -35.0560   23.6130 C   0  0  0  0  0  0  0  0  0  0  0  0
  -26.7260  -34.8740   22.7190 O   0  0  0  0  0  0  0  0  0  0  0  0
  -24.7590  -34.2890   25.1060 H   0  0  0  0  0  0  0  0  0  0  0  0
  -24.1660  -36.6850   22.7910 C   0  0  0  0  0  1  0  0  0  0  0  0
  -25.2880  -36.4580   23.8150 C   0  0  0  0  0  3  0  0  0  0  0  0
  -27.2420  -37.5550   24.8190 C   0  0  0  0  0  1  0  0  0  0  0  0
  -26.2820  -37.5480   23.7180 N   0  0  0  0  0  0  0  0  0  0  0  0
  -25.8210  -38.4540   23.6960 H   0  0  0  0  0  0  0  0  0  0  0  0
  -26.1970  -32.0670   25.7510 C   0  0  1  0  0  0  0  0  0  0  0  0
  -24.9320  -31.8500   26.6130 C   0  0  0  0  0  1  0  0  0  0  0  0
  -26.9230  -30.7070   25.6250 C   0  0  0  0  0  1  0  0  0  0  0  0
  -27.1520  -33.0050   26.5260 C   0  0  0  0  0  1  0  0  0  0  0  0
  -28.8730  -19.1510   20.1380 N   0  0  0  0  0  0  0  0  0  0  0  0
  -31.6720  -14.3160   19.8730 C   0  0  0  0  0  0  0  0  0  0  0  0
  -31.2000  -12.0240   19.0590 C   0  0  0  0  0  2  0  0  0  0  0  0
  -30.2300  -12.0800   17.8600 C   0  0  0  0  0  2  0  0  0  0  0  0
  -28.7560  -12.1210   18.3230 C   0  0  0  0  0  2  0  0  0  0  0  0
  -28.5230  -13.1640   19.4520 C   0  0  0  0  0  3  0  0  0  0  0  0
  -29.5880  -12.9550   20.5510 C   0  0  0  0  0  2  0  0  0  0  0  0
  -30.9020  -13.1840   19.9310 N   0  0  0  0  0  0  0  0  0  0  0  0
  -32.7770  -14.2740   19.3150 O   0  0  0  0  0  0  0  0  0  0  0  0
  -29.8400  -17.2910   21.5030 C   0  0  0  0  0  2  0  0  0  0  0  0
  -30.8940  -17.9180   19.3200 C   0  0  0  0  0  2  0  0  0  0  0  0
  -30.1720  -15.8090   21.2880 C   0  0  0  0  0  2  0  0  0  0  0  0
  -31.8510  -16.7750   19.7490 C   0  0  0  0  0  2  0  0  0  0  0  0
  -29.5840  -17.8770   20.1160 C   0  0  0  0  0  3  0  0  0  0  0  0
  -31.1530  -15.5400   20.2110 N   0  0  0  0  0  0  0  0  0  0  0  0
  -26.2790  -14.0940   20.3010 C   0  0  0  0  0  0  0  0  0  0  0  0
  -25.1240  -13.4750   20.6910 C   0  0  0  0  0  0  0  0  0  0  0  0
  -25.3710  -12.0730   20.5690 C   0  0  0  0  0  0  0  0  0  0  0  0
  -27.1670  -13.0780   19.9820 N   0  0  0  0  0  0  0  0  0  0  0  0
  -26.6190  -11.8530   20.1860 N   0  0  0  0  0  0  0  0  0  0  0  0
  -24.4750  -10.9240   20.7390 C   0  0  0  0  0  0  0  0  0  0  0  0
  -24.8010   -9.8560   21.6030 C   0  0  0  0  0  3  0  0  0  0  0  0
  -23.9140   -8.7710   21.7620 C   0  0  0  0  0  3  0  0  0  0  0  0
  -22.6860   -8.7490   21.0590 C   0  0  0  0  0  0  0  0  0  0  0  0
  -22.3770   -9.8080   20.1840 C   0  0  0  0  0  3  0  0  0  0  0  0
  -23.2620  -10.8850   20.0220 C   0  0  0  0  0  3  0  0  0  0  0  0
  -21.7710   -7.7260   21.1340 O   0  0  0  0  0  0  0  0  0  0  0  0
  -21.5910   -7.0020   22.2850 C   0  0  0  0  0  0  0  0  0  0  0  0
  -21.2720   -7.6220   23.5140 C   0  0  0  0  0  3  0  0  0  0  0  0
  -21.0210   -6.8330   24.6540 C   0  0  0  0  0  3  0  0  0  0  0  0
  -21.0850   -5.4290   24.5710 C   0  0  0  0  0  0  0  0  0  0  0  0
  -21.3990   -4.8120   23.3500 C   0  0  0  0  0  3  0  0  0  0  0  0
  -21.6470   -5.5950   22.2090 C   0  0  0  0  0  0  0  0  0  0  0  0
  -21.9220   -4.9920   21.0280 F   0  0  0  0  0  0  0  0  0  0  0  0
  -20.8410   -4.6730   25.6680 F   0  0  0  0  0  0  0  0  0  0  0  0
  -23.8310  -14.1410   21.0660 C   0  0  0  0  0  0  0  0  0  0  0  0
  -23.0610  -13.5210   21.9540 N   0  0  0  0  0  0  0  0  0  0  0  0
  -23.5230  -15.2420   20.6140 O   0  0  0  0  0  0  0  0  0  0  0  0
  -23.3300  -12.6320   22.3440 H   0  0  0  0  0  0  0  0  0  0  0  0
  -22.1870  -13.9370   22.2450 H   0  0  0  0  0  0  0  0  0  0  0  0
  -26.6310  -15.4340   20.1670 N   0  0  0  0  0  0  0  0  0  0  0  0
  -25.8760  -16.1040   20.1180 H   0  0  0  0  0  0  0  0  0  0  0  0
  -27.4710  -15.7500   19.7000 H   0  0  0  0  0  0  0  0  0  0  0  0
  -28.2030  -19.5390   18.8990 C   0  0  0  0  0  2  0  0  0  0  0  0
  -26.7500  -19.0460   18.8220 C   0  0  0  0  0  2  0  0  0  0  0  0
  -26.1290  -20.0260   16.6550 C   0  0  0  0  0  1  0  0  0  0  0  0
  -24.4840  -19.9780   18.5000 C   0  0  0  0  0  1  0  0  0  0  0  0
  -25.9130  -20.0480   18.1220 N   0  0  1  0  0  4  0  0  0  0  0  0
  -26.2340  -20.9500   18.4380 H   0  0  0  0  0  0  0  0  0  0  0  0
  2  1  1  0
  2  3  1  0
  4  6  2  0
  4  5  1  0
  5  3  1  0
  7  5  1  0
  8  4  1  0
  8  9  1  0
 10 21  2  0
 11  9  1  0
 11 16  1  0
 12 20  1  0
 12 22  1  0
 13 15  1  0
 14 20  1  0
 15 16  2  0
 15 14  1  0
 17 11  2  0
 18 17  1  0
 18 13  2  0
 19 13  1  0
 19 12  1  0
 20 10  1  0
 22 24  2  0
 23 22  1  0
 25 23  1  0
 26 35  2  0
 26 31  1  0
 27 23  1  0
 27 31  1  0
 28 27  1  0
 29 30  1  0
 29 28  1  0
 30 26  1  0
 31 32  2  0
 32 33  1  0
 34 33  2  0
 35 34  1  0
 36 10  1  0
 36 37  1  0
 36 46  1  0
 37 40  1  0
 38 42  1  0
 38 37  1  0
 39 38  2  0
 42 41  1  0
 44 42  1  0
 44 43  1  0
 45 44  1  0
 46 49  1  1
 46 47  1  0
 48 46  1  0
 50  1  1  0
 51 57  1  0
 51 64  1  0
 52 57  1  0
 53 54  1  0
 53 52  1  0
 55 54  1  0
 55 68  1  0
 55 56  1  0
 57 56  1  0
 58 51  2  0
 60 62  1  0
 60 63  1  0
 61 59  1  0
 62 64  1  0
 63 50  1  0
 63 59  1  0
 64 61  1  0
 65 66  2  0
 66 85  1  0
 67 66  1  0
 67 70  1  0
 68 69  1  0
 68 65  1  0
 69 67  2  0
 70 71  1  0
 71 72  2  0
 73 76  1  0
 73 72  1  0
 74 73  2  0
 75 74  1  0
 75 70  2  0
 76 77  1  0
 77 78  1  0
 78 79  2  0
 80 79  1  0
 80 84  1  0
 81 80  2  0
 82 77  2  0
 82 81  1  0
 83 82  1  0
 85 86  1  0
 86 89  1  0
 86 88  1  0
 87 85  2  0
 90 65  1  0
 91 90  1  0
 92 90  1  0
 93 50  1  0
 94 93  1  0
 95 97  1  0
 97 98  1  1
 97 96  1  0
 97 94  1  0
M  ISO  4   8 101   9 101  51 100  64 100
M  END
>  <TORSDO>  (81) 
F 24

>  <SCORE>  (81) 
-9.569

>  <name>  (81) 
80

>  <ligand_id>  (81) 
80

>  <original_smiles>  (81) 
[H]c1c([H])c([H])c2c(c1[H])C([H])([H])C([H])([H])C([H])([H])C2([H])N([H])C(=O)C1([H])N(C(=O)C([H])(N([H])C(=O)C([H])(N([H])C([H])([H])[H])C([H])([H])[H])C(C([H])([H])[H])(C([H])([H])[H])C([H])([H])[H])C([H])([H])c2c([H])c(OC([H])([H])C(=O)N([H])C([H])([H])C([H])([H])C([H])([H])N(C([H])([H])C([H])([H])[N+]([H])(C([H])([H])[H])C([H])([H])[H])C3([H])C([H])([H])C([H])([H])N(C(=O)N4C([H])([H])C([H])([H])C([H])([H])C([H])(n5nc(-c6c([H])c([H])c(Oc7c([H])c([H])c(F)c([H])c7F)c([H])c6[H])c(C(=O)N([H])[H])c5N([H])[H])C4([H])[H])C([H])([H])C3([H])[H])c([H])c([H])c2C1([H])[H]

>  <smiles>  (81) 
[H]c1c([H])c([H])c2c(c1[H])C([H])([H])C([H])([H])C([H])([H])C2([H])N([H])C(=O)C1([H])N(C(=O)C([H])(N([H])C(=O)C([H])(N([H])C([H])([H])[H])C([H])([H])[H])C(C([H])([H])[H])(C([H])([H])[H])C([H])([H])[H])C([H])([H])c2c([H])c(OC([H])([H])C(=O)N([H])C([H])([H])C([H])([H])C([H])([H])N(C([H])([H])C([H])([H])[N+]([H])(C([H])([H])[H])C([H])([H])[H])C3([H])C([H])([H])C([H])([H])N(C(=O)N4C([H])([H])C([H])([H])C([H])([H])C([H])(n5nc(-c6c([H])c([H])c(Oc7c([H])c([H])c(F)c([H])c7F)c([H])c6[H])c(C(=O)N([H])[H])c5N([H])[H])C4([H])[H])C([H])([H])C3([H])[H])c([H])c([H])c2C1([H])[H]

$$$$
81:0:0
     RDKit          3D

 93101  0  0  1  0  0  0  0  0999 V2000
  -29.4150  -20.6240   20.9030 C   0  0  0  0  0  2  0  0  0  0  0  0
  -28.6830  -16.7330   19.5380 C   0  0  0  0  0  3  0  0  0  0  0  0
  -27.3980  -18.4130   18.4140 C   0  0  0  0  0  3  0  0  0  0  0  0
  -28.9100  -19.1380   20.2830 C   0  0  0  0  0  0  0  0  0  0  0  0
  -29.2230  -17.6230   20.5070 C   0  0  0  0  0  0  0  0  0  0  0  0
  -27.7960  -17.0930   18.5250 C   0  0  0  0  0  0  0  0  0  0  0  0
  -27.9410  -19.3910   19.2510 C   0  0  0  0  0  0  0  0  0  0  0  0
  -27.3060  -16.1550   17.6800 F   0  0  0  0  0  0  0  0  0  0  0  0
  -27.4620  -20.6330   19.0030 F   0  0  0  0  0  0  0  0  0  0  0  0
  -30.6370  -15.4360   21.5110 C   0  0  0  0  0  0  0  0  0  0  0  0
  -30.7430  -13.0210   20.6730 C   0  0  0  0  0  2  0  0  0  0  0  0
  -30.0330  -12.7680   19.3260 C   0  0  0  0  0  2  0  0  0  0  0  0
  -28.5450  -12.4590   19.5590 C   0  0  0  0  0  2  0  0  0  0  0  0
  -27.8880  -13.4340   20.5690 C   0  0  0  0  0  3  0  0  0  0  0  0
  -28.7480  -13.6800   21.8270 C   0  0  0  0  0  2  0  0  0  0  0  0
  -30.0540  -14.1660   21.3560 N   0  0  0  0  0  0  0  0  0  0  0  0
  -31.8710  -15.4360   21.4860 O   0  0  0  0  0  0  0  0  0  0  0  0
  -29.9640  -16.7320   21.5370 N   0  0  0  0  0  0  0  0  0  0  0  0
  -30.4570  -17.3150   22.1990 H   0  0  0  0  0  0  0  0  0  0  0  0
  -25.4140  -13.8980   20.9550 C   0  0  0  0  0  0  0  0  0  0  0  0
  -24.3450  -13.0760   21.1720 C   0  0  0  0  0  0  0  0  0  0  0  0
  -24.8730  -11.7490   21.2380 C   0  0  0  0  0  0  0  0  0  0  0  0
  -26.5190  -13.0680   20.8880 N   0  0  0  0  0  0  0  0  0  0  0  0
  -26.1960  -11.7710   21.1270 N   0  0  0  0  0  0  0  0  0  0  0  0
  -24.1880  -10.4560   21.3370 C   0  0  0  0  0  0  0  0  0  0  0  0
  -24.5080   -9.5250   22.3500 C   0  0  0  0  0  3  0  0  0  0  0  0
  -23.8200   -8.2960   22.4340 C   0  0  0  0  0  3  0  0  0  0  0  0
  -22.7990   -7.9880   21.5040 C   0  0  0  0  0  0  0  0  0  0  0  0
  -22.5000   -8.9090   20.4840 C   0  0  0  0  0  3  0  0  0  0  0  0
  -23.1880  -10.1310   20.3980 C   0  0  0  0  0  3  0  0  0  0  0  0
  -22.0940   -6.8100   21.4950 O   0  0  0  0  0  0  0  0  0  0  0  0
  -21.8770   -6.0930   22.6450 C   0  0  0  0  0  0  0  0  0  0  0  0
  -21.2000   -6.6490   23.7540 C   0  0  0  0  0  3  0  0  0  0  0  0
  -20.9370   -5.8550   24.8880 C   0  0  0  0  0  3  0  0  0  0  0  0
  -21.3430   -4.5080   24.9150 C   0  0  0  0  0  0  0  0  0  0  0  0
  -22.0150   -3.9520   23.8110 C   0  0  0  0  0  3  0  0  0  0  0  0
  -22.2780   -4.7420   22.6790 C   0  0  0  0  0  0  0  0  0  0  0  0
  -22.9050   -4.1970   21.6100 F   0  0  0  0  0  0  0  0  0  0  0  0
  -21.0840   -3.7430   26.0020 F   0  0  0  0  0  0  0  0  0  0  0  0
  -22.9030  -13.4880   21.2140 C   0  0  0  0  0  0  0  0  0  0  0  0
  -22.0840  -12.7720   21.9760 N   0  0  0  0  0  0  0  0  0  0  0  0
  -22.5030  -14.4810   20.6080 O   0  0  0  0  0  0  0  0  0  0  0  0
  -22.4150  -11.9720   22.4930 H   0  0  0  0  0  0  0  0  0  0  0  0
  -21.1110  -13.0360   22.0470 H   0  0  0  0  0  0  0  0  0  0  0  0
  -25.5420  -15.2740   20.7850 N   0  0  0  0  0  0  0  0  0  0  0  0
  -24.7460  -15.9010   20.7970 H   0  0  0  0  0  0  0  0  0  0  0  0
  -26.4210  -15.7500   20.6350 H   0  0  0  0  0  0  0  0  0  0  0  0
  -29.1020  -23.4800   20.6560 C   0  0  0  0  0  0  0  0  0  0  0  0
  -28.8260  -22.0790   20.4700 N   0  0  0  0  0  0  0  0  0  0  0  0
  -30.1020  -23.7830   21.3120 O   0  0  0  0  0  0  0  0  0  0  0  0
  -27.9970  -21.9460   19.8980 H   0  0  0  0  0  0  0  0  0  0  0  0
  -28.1680  -24.7640   20.0760 C   0  0  0  0  0  2  0  0  0  0  0  0
  -28.4590  -26.3150   20.2790 O   0  0  0  0  0  0  0  0  0  0  0  0
  -24.7150  -31.9700   23.3190 C   0  0  0  0  0  0  0  0  0  0  0  0
  -27.4140  -27.3310   20.2070 C   0  0  0  0  0  0  0  0  0  0  0  0
  -23.5630  -30.5910   21.6350 C   0  0  0  0  0  3  0  0  0  0  0  0
  -25.0590  -29.0760   20.1850 C   0  0  0  0  0  0  0  0  0  0  0  0
  -26.1170  -30.8940   21.5110 C   0  0  0  0  0  2  0  0  0  0  0  0
  -26.2250  -29.5150   20.8230 C   0  0  0  0  0  0  0  0  0  0  0  0
  -27.4000  -28.6600   20.8190 C   0  0  0  0  0  3  0  0  0  0  0  0
  -26.2200  -27.0170   19.5190 C   0  0  0  0  0  3  0  0  0  0  0  0
  -25.0730  -27.8420   19.5170 C   0  0  0  0  0  3  0  0  0  0  0  0
  -23.8150  -29.9540   20.2420 C   0  0  0  0  0  2  0  0  0  0  0  0
  -24.8180  -31.1730   22.2110 N   0  0  0  0  0  0  0  0  0  0  0  0
  -23.6160  -32.2200   23.8390 O   0  0  0  0  0  0  0  0  0  0  0  0
  -22.8900  -29.5490   22.5640 C   0  0  0  0  0  0  0  0  0  0  0  0
  -21.5660  -29.3580   22.4220 N   0  0  0  0  0  0  0  0  0  0  0  0
  -23.5650  -28.9150   23.3800 O   0  0  0  0  0  0  0  0  0  0  0  0
  -21.0760  -29.9220   21.7420 H   0  0  0  0  0  0  0  0  0  0  0  0
  -18.2020  -28.0910   22.8800 C   0  0  0  0  0  0  0  0  0  0  0  0
  -20.7550  -28.3880   23.1630 C   0  0  0  0  0  3  0  0  0  0  0  0
  -20.8810  -26.9730   22.5500 C   0  0  0  0  0  2  0  0  0  0  0  0
  -19.7890  -26.6620   21.5220 C   0  0  0  0  0  2  0  0  0  0  0  0
  -18.4030  -26.7660   22.1640 C   0  0  0  0  0  2  0  0  0  0  0  0
  -19.3070  -28.8600   23.3350 C   0  0  0  0  0  0  0  0  0  0  0  0
  -19.0620  -30.0980   23.9670 C   0  0  0  0  0  3  0  0  0  0  0  0
  -17.7480  -30.5690   24.1450 C   0  0  0  0  0  3  0  0  0  0  0  0
  -16.6580  -29.7980   23.7040 C   0  0  0  0  0  3  0  0  0  0  0  0
  -16.8860  -28.5600   23.0760 C   0  0  0  0  0  3  0  0  0  0  0  0
  -25.9700  -32.6200   23.9780 C   0  0  0  0  0  3  0  0  0  0  0  0
  -26.4930  -31.8200   25.2330 C   0  0  1  0  0  0  0  0  0  0  0  0
  -25.3990  -31.5200   26.2840 C   0  0  0  0  0  1  0  0  0  0  0  0
  -27.1150  -30.4700   24.8080 C   0  0  0  0  0  1  0  0  0  0  0  0
  -27.6200  -32.6200   25.9300 C   0  0  0  0  0  1  0  0  0  0  0  0
  -25.6150  -33.9950   24.3620 N   0  0  0  0  0  0  0  0  0  0  0  0
  -25.9450  -35.0940   23.6700 C   0  0  0  0  0  0  0  0  0  0  0  0
  -26.6450  -35.0560   22.6530 O   0  0  0  0  0  0  0  0  0  0  0  0
  -24.9950  -34.0960   25.1510 H   0  0  0  0  0  0  0  0  0  0  0  0
  -24.1940  -36.8750   23.3530 C   0  0  0  0  0  1  0  0  0  0  0  0
  -25.4180  -36.4490   24.1820 C   0  0  0  0  0  3  0  0  0  0  0  0
  -27.5090  -37.3300   25.1240 C   0  0  0  0  0  1  0  0  0  0  0  0
  -26.4330  -37.5240   24.1550 N   0  0  0  0  0  0  0  0  0  0  0  0
  -26.0060  -38.4290   24.3340 H   0  0  0  0  0  0  0  0  0  0  0  0
  2  5  1  0
  3  6  1  0
  3  7  2  0
  4  5  2  0
  4  1  1  0
  5 18  1  0
  6  2  2  0
  7  4  1  0
  8  6  1  0
  9  7  1  0
 10 18  1  0
 11 16  1  0
 12 13  1  0
 12 11  1  0
 14 13  1  0
 14 23  1  0
 14 15  1  0
 16 10  1  0
 16 15  1  0
 17 10  2  0
 18 19  1  0
 20 21  2  0
 21 40  1  0
 21 22  1  0
 22 25  1  0
 23 20  1  0
 23 24  1  0
 24 22  2  0
 25 26  1  0
 26 27  2  0
 28 27  1  0
 29 28  2  0
 30 29  1  0
 30 25  2  0
 31 28  1  0
 31 32  1  0
 32 37  2  0
 32 33  1  0
 33 34  2  0
 34 35  1  0
 35 39  1  0
 36 35  2  0
 37 36  1  0
 38 37  1  0
 40 41  1  0
 41 44  1  0
 41 43  1  0
 42 40  2  0
 45 46  1  0
 45 20  1  0
 47 45  1  0
 48 50  2  0
 49 48  1  0
 49  1  1  0
 51 49  1  0
 52 53  1  0
 52 48  1  0
 54 65  2  0
 55 53  1  0
 55 60  1  0
 56 64  1  0
 56 66  1  0
 57 63  1  0
 57 59  1  0
 58 64  1  0
 59 58  1  0
 60 59  2  0
 61 55  2  0
 62 61  1  0
 62 57  2  0
 63 56  1  0
 64 54  1  0
 66 68  2  0
 67 66  1  0
 69 67  1  0
 70 79  2  0
 70 75  1  0
 71 67  1  0
 71 75  1  0
 72 71  1  0
 73 74  1  0
 73 72  1  0
 74 70  1  0
 75 76  2  0
 76 77  1  0
 78 77  2  0
 79 78  1  0
 80 54  1  0
 80 85  1  0
 80 81  1  0
 81 84  1  1
 81 82  1  0
 83 81  1  0
 85 88  1  0
 86 90  1  0
 86 85  1  0
 87 86  2  0
 90 89  1  0
 92 90  1  0
 92 93  1  0
 92 91  1  0
M  ISO  4  10 100  18 100  52 101  53 101
M  END
>  <TORSDO>  (82) 
F 19

>  <SCORE>  (82) 
-11.840

>  <name>  (82) 
81

>  <ligand_id>  (82) 
81

>  <original_smiles>  (82) 
[H]c1c([H])c([H])c2c(c1[H])C([H])([H])C([H])([H])C([H])([H])C2([H])N([H])C(=O)C1([H])N(C(=O)C([H])(N([H])C(=O)C([H])(N([H])C([H])([H])[H])C([H])([H])[H])C(C([H])([H])[H])(C([H])([H])[H])C([H])([H])[H])C([H])([H])c2c([H])c(OC([H])([H])C(=O)N([H])C([H])([H])c3c(F)c([H])c(F)c([H])c3N([H])C(=O)N3C([H])([H])C([H])([H])C([H])([H])C([H])(n4nc(-c5c([H])c([H])c(Oc6c([H])c([H])c(F)c([H])c6F)c([H])c5[H])c(C(=O)N([H])[H])c4N([H])[H])C3([H])[H])c([H])c([H])c2C1([H])[H]

>  <smiles>  (82) 
[H]c1c([H])c([H])c2c(c1[H])C([H])([H])C([H])([H])C([H])([H])C2([H])N([H])C(=O)C1([H])N(C(=O)C([H])(N([H])C(=O)C([H])(N([H])C([H])([H])[H])C([H])([H])[H])C(C([H])([H])[H])(C([H])([H])[H])C([H])([H])[H])C([H])([H])c2c([H])c(OC([H])([H])C(=O)N([H])C([H])([H])c3c(F)c([H])c(F)c([H])c3N([H])C(=O)N3C([H])([H])C([H])([H])C([H])([H])C([H])(n4nc(-c5c([H])c([H])c(Oc6c([H])c([H])c(F)c([H])c6F)c([H])c5[H])c(C(=O)N([H])[H])c4N([H])[H])C3([H])[H])c([H])c([H])c2C1([H])[H]

$$$$
82:0:0
     RDKit          3D

 95103  0  0  1  0  0  0  0  0999 V2000
  -29.1910  -22.4170   21.6590 N   0  0  0  0  0  4  0  0  0  0  0  0
  -29.5970  -22.9840   22.3870 H   0  0  0  0  0  0  0  0  0  0  0  0
  -28.2820  -22.1320   21.9890 H   0  0  0  0  0  0  0  0  0  0  0  0
  -30.6440  -20.8370   22.8590 C   0  0  0  0  0  0  0  0  0  0  0  0
  -30.7640  -19.3110   22.8380 C   0  0  0  0  0  0  0  0  0  0  0  0
  -29.4300  -19.9530   21.0110 C   0  0  0  0  0  2  0  0  0  0  0  0
  -30.0890  -21.2480   21.5130 C   0  0  0  0  0  3  0  0  0  0  0  0
  -30.1370  -18.8870   21.7240 N   0  0  0  0  0  0  0  0  0  0  0  0
  -30.9430  -21.5790   23.8050 O   0  0  0  0  0  0  0  0  0  0  0  0
  -31.3280  -18.6180   23.6950 O   0  0  0  0  0  0  0  0  0  0  0  0
  -29.9210  -17.4850   21.3590 C   0  0  0  0  0  2  0  0  0  0  0  0
  -31.2160  -16.6420   21.3850 C   0  0  0  0  0  2  0  0  0  0  0  0
  -31.3980  -14.3190   20.4630 C   0  0  0  0  0  0  0  0  0  0  0  0
  -30.9890  -12.1440   19.3720 C   0  0  0  0  0  2  0  0  0  0  0  0
  -30.0620  -12.3240   18.1540 C   0  0  0  0  0  2  0  0  0  0  0  0
  -28.5790  -12.2940   18.5750 C   0  0  0  0  0  2  0  0  0  0  0  0
  -28.2810  -13.2290   19.7780 C   0  0  0  0  0  3  0  0  0  0  0  0
  -29.3060  -12.9890   20.9090 C   0  0  0  0  0  2  0  0  0  0  0  0
  -30.6610  -13.1830   20.3570 N   0  0  0  0  0  0  0  0  0  0  0  0
  -32.4440  -14.5220   19.8370 O   0  0  0  0  0  0  0  0  0  0  0  0
  -30.8670  -15.2330   21.2790 N   0  0  0  0  0  0  0  0  0  0  0  0
  -30.0490  -14.9320   21.7880 H   0  0  0  0  0  0  0  0  0  0  0  0
  -25.9470  -14.0270   20.5320 C   0  0  0  0  0  0  0  0  0  0  0  0
  -24.8150  -13.3400   20.8810 C   0  0  0  0  0  0  0  0  0  0  0  0
  -25.1510  -11.9550   20.7890 C   0  0  0  0  0  0  0  0  0  0  0  0
  -26.9070  -13.0650   20.2540 N   0  0  0  0  0  0  0  0  0  0  0  0
  -26.4290  -11.8120   20.4630 N   0  0  0  0  0  0  0  0  0  0  0  0
  -24.3160  -10.7570   20.9370 C   0  0  0  0  0  0  0  0  0  0  0  0
  -24.6700   -9.7170   21.8260 C   0  0  0  0  0  3  0  0  0  0  0  0
  -23.8430   -8.5820   21.9640 C   0  0  0  0  0  3  0  0  0  0  0  0
  -22.6470   -8.4800   21.2150 C   0  0  0  0  0  0  0  0  0  0  0  0
  -22.3090   -9.5070   20.3170 C   0  0  0  0  0  3  0  0  0  0  0  0
  -23.1360  -10.6350   20.1770 C   0  0  0  0  0  3  0  0  0  0  0  0
  -21.7950   -7.4030   21.2650 O   0  0  0  0  0  0  0  0  0  0  0  0
  -21.6620   -6.6430   22.4000 C   0  0  0  0  0  0  0  0  0  0  0  0
  -21.2590   -7.2070   23.6320 C   0  0  0  0  0  3  0  0  0  0  0  0
  -21.0680   -6.3790   24.7550 C   0  0  0  0  0  3  0  0  0  0  0  0
  -21.2660   -4.9900   24.6490 C   0  0  0  0  0  0  0  0  0  0  0  0
  -21.6590   -4.4260   23.4220 C   0  0  0  0  0  3  0  0  0  0  0  0
  -21.8540   -5.2510   22.3000 C   0  0  0  0  0  0  0  0  0  0  0  0
  -22.2130   -4.7010   21.1160 F   0  0  0  0  0  0  0  0  0  0  0  0
  -21.0720   -4.1930   25.7250 F   0  0  0  0  0  0  0  0  0  0  0  0
  -23.4690  -13.9290   21.1890 C   0  0  0  0  0  0  0  0  0  0  0  0
  -22.6990  -13.2810   22.0550 N   0  0  0  0  0  0  0  0  0  0  0  0
  -23.1110  -14.9980   20.6950 O   0  0  0  0  0  0  0  0  0  0  0  0
  -22.9980  -12.4140   22.4750 H   0  0  0  0  0  0  0  0  0  0  0  0
  -21.7940  -13.6590   22.3010 H   0  0  0  0  0  0  0  0  0  0  0  0
  -26.2330  -15.3830   20.4120 N   0  0  0  0  0  0  0  0  0  0  0  0
  -25.5260  -16.0950   20.5670 H   0  0  0  0  0  0  0  0  0  0  0  0
  -27.1150  -15.7620   20.0890 H   0  0  0  0  0  0  0  0  0  0  0  0
  -29.0370  -23.2550   20.4500 C   0  0  0  0  0  2  0  0  0  0  0  0
  -28.2880  -24.5620   20.7720 C   0  0  0  0  0  3  0  0  0  0  0  0
  -27.0590  -24.2550   21.1940 F   0  0  0  0  0  0  0  0  0  0  0  0
  -28.2130  -25.5360   19.5800 C   0  0  0  0  0  2  0  0  0  0  0  0
  -28.1570  -26.8880   20.0310 O   0  0  0  0  0  0  0  0  0  0  0  0
  -24.5910  -32.0190   23.3900 C   0  0  0  0  0  0  0  0  0  0  0  0
  -26.9570  -27.5610   20.1180 C   0  0  0  0  0  0  0  0  0  0  0  0
  -23.2620  -30.6710   21.7980 C   0  0  0  0  0  3  0  0  0  0  0  0
  -24.5940  -29.1060   20.2900 C   0  0  0  0  0  0  0  0  0  0  0  0
  -25.7790  -30.9680   21.4650 C   0  0  0  0  0  2  0  0  0  0  0  0
  -25.7920  -29.6000   20.8170 C   0  0  0  0  0  0  0  0  0  0  0  0
  -26.9720  -28.8330   20.7300 C   0  0  0  0  0  3  0  0  0  0  0  0
  -25.7350  -27.0690   19.6010 C   0  0  0  0  0  3  0  0  0  0  0  0
  -24.5590  -27.8390   19.6840 C   0  0  0  0  0  3  0  0  0  0  0  0
  -23.3790  -29.9960   20.4040 C   0  0  0  0  0  2  0  0  0  0  0  0
  -24.5670  -31.2330   22.2760 N   0  0  0  0  0  0  0  0  0  0  0  0
  -23.5470  -32.3150   23.9880 O   0  0  0  0  0  0  0  0  0  0  0  0
  -22.6310  -29.6600   22.7800 C   0  0  0  0  0  0  0  0  0  0  0  0
  -21.3260  -29.3970   22.6100 N   0  0  0  0  0  0  0  0  0  0  0  0
  -23.3150  -29.1100   23.6470 O   0  0  0  0  0  0  0  0  0  0  0  0
  -20.8340  -29.8960   21.8820 H   0  0  0  0  0  0  0  0  0  0  0  0
  -18.0520  -27.9000   22.9030 C   0  0  0  0  0  0  0  0  0  0  0  0
  -20.5300  -28.4490   23.3880 C   0  0  0  0  0  3  0  0  0  0  0  0
  -20.8290  -26.9920   22.9650 C   0  0  0  0  0  2  0  0  0  0  0  0
  -19.8730  -26.4680   21.8880 C   0  0  0  0  0  2  0  0  0  0  0  0
  -18.4250  -26.5220   22.3830 C   0  0  0  0  0  2  0  0  0  0  0  0
  -19.0410  -28.8110   23.3590 C   0  0  0  0  0  0  0  0  0  0  0  0
  -18.6420  -30.0920   23.7980 C   0  0  0  0  0  3  0  0  0  0  0  0
  -17.2860  -30.4660   23.7890 C   0  0  0  0  0  3  0  0  0  0  0  0
  -16.3090  -29.5560   23.3510 C   0  0  0  0  0  3  0  0  0  0  0  0
  -16.6920  -28.2750   22.9130 C   0  0  0  0  0  3  0  0  0  0  0  0
  -25.9240  -32.6040   23.9530 C   0  0  0  0  0  3  0  0  0  0  0  0
  -25.6790  -34.0100   24.3020 N   0  0  0  0  0  0  0  0  0  0  0  0
  -25.9960  -35.0530   23.5230 C   0  0  0  0  0  0  0  0  0  0  0  0
  -26.5990  -34.9300   22.4530 O   0  0  0  0  0  0  0  0  0  0  0  0
  -25.1380  -34.1810   25.1370 H   0  0  0  0  0  0  0  0  0  0  0  0
  -24.2870  -36.8810   23.2930 C   0  0  0  0  0  1  0  0  0  0  0  0
  -25.5790  -36.4530   24.0090 C   0  0  0  0  0  3  0  0  0  0  0  0
  -27.7920  -37.2910   24.6650 C   0  0  0  0  0  1  0  0  0  0  0  0
  -26.6240  -37.4810   23.8080 N   0  0  0  0  0  0  0  0  0  0  0  0
  -26.2520  -38.4120   23.9790 H   0  0  0  0  0  0  0  0  0  0  0  0
  -26.4770  -31.8070   25.1970 C   0  0  1  0  0  0  0  0  0  0  0  0
  -25.4200  -31.5630   26.2990 C   0  0  0  0  0  1  0  0  0  0  0  0
  -27.0270  -30.4290   24.7560 C   0  0  0  0  0  1  0  0  0  0  0  0
  -27.6610  -32.5740   25.8300 C   0  0  0  0  0  1  0  0  0  0  0  0
  1  3  1  0
  1  2  1  0
  4  9  2  0
  5  4  1  0
  5 10  2  0
  6  7  1  0
  6  8  1  0
  7  1  1  0
  7  4  1  0
  8  5  1  0
 11 12  1  0
 11  8  1  0
 13 21  1  0
 14 19  1  0
 15 16  1  0
 15 14  1  0
 17 16  1  0
 17 26  1  0
 17 18  1  0
 19 13  1  0
 19 18  1  0
 20 13  2  0
 21 12  1  0
 21 22  1  0
 23 24  2  0
 24 43  1  0
 25 24  1  0
 25 28  1  0
 26 27  1  0
 26 23  1  0
 27 25  2  0
 28 29  1  0
 29 30  2  0
 31 34  1  0
 31 30  1  0
 32 31  2  0
 33 32  1  0
 33 28  2  0
 34 35  1  0
 35 36  1  0
 36 37  2  0
 38 37  1  0
 38 42  1  0
 39 38  2  0
 40 35  2  0
 40 39  1  0
 41 40  1  0
 43 44  1  0
 44 47  1  0
 44 46  1  0
 45 43  2  0
 48 23  1  0
 48 49  1  0
 50 48  1  0
 51 52  1  0
 51  1  1  0
 52 53  1  0
 54 55  1  0
 54 52  1  0
 55 57  1  0
 56 67  2  0
 57 62  1  0
 58 66  1  0
 58 68  1  0
 59 65  1  0
 59 61  1  0
 60 66  1  0
 61 60  1  0
 62 61  2  0
 63 64  1  0
 63 57  2  0
 64 59  2  0
 65 58  1  0
 66 56  1  0
 68 70  2  0
 69 68  1  0
 71 69  1  0
 72 81  2  0
 72 77  1  0
 73 69  1  0
 74 73  1  0
 75 76  1  0
 75 74  1  0
 76 72  1  0
 77 73  1  0
 77 78  2  0
 79 78  1  0
 80 79  2  0
 81 80  1  0
 82 56  1  0
 82 83  1  0
 82 92  1  0
 83 86  1  0
 84 88  1  0
 84 83  1  0
 85 84  2  0
 88 87  1  0
 90 91  1  0
 90 88  1  0
 90 89  1  0
 92 95  1  1
 92 93  1  0
 94 92  1  0
M  ISO  4  13 100  21 100  54 101  55 101
M  END
>  <TORSDO>  (83) 
F 22

>  <SCORE>  (83) 
-12.145

>  <name>  (83) 
82

>  <ligand_id>  (83) 
82

>  <original_smiles>  (83) 
[H]c1c([H])c([H])c2c(c1[H])C([H])([H])C([H])([H])C([H])([H])C2([H])N([H])C(=O)C1([H])N(C(=O)C([H])(N([H])C(=O)C([H])(N([H])C([H])([H])[H])C([H])([H])[H])C(C([H])([H])[H])(C([H])([H])[H])C([H])([H])[H])C([H])([H])c2c([H])c(OC([H])([H])C([H])(F)C([H])([H])[N+]([H])([H])C3([H])C(=O)C(=O)N(C([H])([H])C([H])([H])N([H])C(=O)N4C([H])([H])C([H])([H])C([H])([H])C([H])(n5nc(-c6c([H])c([H])c(Oc7c([H])c([H])c(F)c([H])c7F)c([H])c6[H])c(C(=O)N([H])[H])c5N([H])[H])C4([H])[H])C3([H])[H])c([H])c([H])c2C1([H])[H]

>  <smiles>  (83) 
[H]c1c([H])c([H])c2c(c1[H])C([H])([H])C([H])([H])C([H])([H])C2([H])N([H])C(=O)C1([H])N(C(=O)C([H])(N([H])C(=O)C([H])(N([H])C([H])([H])[H])C([H])([H])[H])C(C([H])([H])[H])(C([H])([H])[H])C([H])([H])[H])C([H])([H])c2c([H])c(OC([H])([H])C([H])(F)C([H])([H])[N+]([H])([H])C3([H])C(=O)C(=O)N(C([H])([H])C([H])([H])N([H])C(=O)N4C([H])([H])C([H])([H])C([H])([H])C([H])(n5nc(-c6c([H])c([H])c(Oc7c([H])c([H])c(F)c([H])c7F)c([H])c6[H])c(C(=O)N([H])[H])c5N([H])[H])C4([H])[H])C3([H])[H])c([H])c([H])c2C1([H])[H]

$$$$
83:0:0
     RDKit          3D

 93101  0  0  1  0  0  0  0  0999 V2000
  -29.4070  -21.1860   20.7280 C   0  0  0  0  0  2  0  0  0  0  0  0
  -30.3090  -17.4140   18.4840 C   0  0  0  0  0  3  0  0  0  0  0  0
  -30.2430  -18.6700   17.8440 C   0  0  0  0  0  3  0  0  0  0  0  0
  -29.6540  -19.8180   19.9380 C   0  0  0  0  0  0  0  0  0  0  0  0
  -30.0390  -17.2740   19.8640 C   0  0  0  0  0  0  0  0  0  0  0  0
  -29.9270  -19.8500   18.5520 C   0  0  0  0  0  0  0  0  0  0  0  0
  -29.6970  -18.5030   20.5720 C   0  0  0  0  0  0  0  0  0  0  0  0
  -29.9070  -21.0240   17.8740 F   0  0  0  0  0  0  0  0  0  0  0  0
  -29.4110  -18.4160   21.8930 F   0  0  0  0  0  0  0  0  0  0  0  0
  -30.7520  -14.7820   20.0860 C   0  0  0  0  0  0  0  0  0  0  0  0
  -30.5050  -12.5170   19.0740 C   0  0  0  0  0  2  0  0  0  0  0  0
  -29.5200  -12.6310   17.8880 C   0  0  0  0  0  2  0  0  0  0  0  0
  -28.0650  -12.4660   18.3680 C   0  0  0  0  0  2  0  0  0  0  0  0
  -27.7510  -13.3180   19.6270 C   0  0  0  0  0  3  0  0  0  0  0  0
  -28.8550  -13.1960   20.7020 C   0  0  0  0  0  2  0  0  0  0  0  0
  -30.1310  -13.5530   20.0670 N   0  0  0  0  0  0  0  0  0  0  0  0
  -31.9020  -14.8930   19.6530 O   0  0  0  0  0  0  0  0  0  0  0  0
  -30.0230  -15.9070   20.4490 N   0  0  0  0  0  0  0  0  0  0  0  0
  -29.2330  -15.7200   21.0500 H   0  0  0  0  0  0  0  0  0  0  0  0
  -25.4010  -13.8970   20.4790 C   0  0  0  0  0  0  0  0  0  0  0  0
  -24.3480  -13.1180   20.8750 C   0  0  0  0  0  0  0  0  0  0  0  0
  -24.8010  -11.7660   20.7820 C   0  0  0  0  0  0  0  0  0  0  0  0
  -26.4270  -13.0210   20.1690 N   0  0  0  0  0  0  0  0  0  0  0  0
  -26.0750  -11.7300   20.4120 N   0  0  0  0  0  0  0  0  0  0  0  0
  -24.0740  -10.5010   20.9680 C   0  0  0  0  0  0  0  0  0  0  0  0
  -24.5010   -9.5370   21.9050 C   0  0  0  0  0  3  0  0  0  0  0  0
  -23.7770   -8.3370   22.0800 C   0  0  0  0  0  3  0  0  0  0  0  0
  -22.6110   -8.0960   21.3150 C   0  0  0  0  0  0  0  0  0  0  0  0
  -22.2030   -9.0510   20.3650 C   0  0  0  0  0  3  0  0  0  0  0  0
  -22.9280  -10.2410   20.1890 C   0  0  0  0  0  3  0  0  0  0  0  0
  -21.8550   -6.9510   21.3980 O   0  0  0  0  0  0  0  0  0  0  0  0
  -21.7380   -6.2500   22.5710 C   0  0  0  0  0  0  0  0  0  0  0  0
  -21.1750   -6.8270   23.7310 C   0  0  0  0  0  3  0  0  0  0  0  0
  -21.0090   -6.0480   24.8930 C   0  0  0  0  0  3  0  0  0  0  0  0
  -21.3950   -4.6960   24.8990 C   0  0  0  0  0  0  0  0  0  0  0  0
  -21.9510   -4.1180   23.7430 C   0  0  0  0  0  3  0  0  0  0  0  0
  -22.1200   -4.8930   22.5830 C   0  0  0  0  0  0  0  0  0  0  0  0
  -22.6350   -4.3250   21.4660 F   0  0  0  0  0  0  0  0  0  0  0  0
  -21.2300   -3.9470   26.0140 F   0  0  0  0  0  0  0  0  0  0  0  0
  -22.9670  -13.5940   21.2250 C   0  0  0  0  0  0  0  0  0  0  0  0
  -22.2740  -12.8740   22.1000 N   0  0  0  0  0  0  0  0  0  0  0  0
  -22.5140  -14.6400   20.7610 O   0  0  0  0  0  0  0  0  0  0  0  0
  -22.6540  -12.0290   22.4990 H   0  0  0  0  0  0  0  0  0  0  0  0
  -21.3490  -13.1710   22.3760 H   0  0  0  0  0  0  0  0  0  0  0  0
  -25.5690  -15.2710   20.3300 N   0  0  0  0  0  0  0  0  0  0  0  0
  -24.8170  -15.9320   20.4870 H   0  0  0  0  0  0  0  0  0  0  0  0
  -26.4020  -15.7040   19.9510 H   0  0  0  0  0  0  0  0  0  0  0  0
  -28.9890  -23.7870   20.5230 C   0  0  0  0  0  0  0  0  0  0  0  0
  -28.9090  -22.4760   20.0740 N   0  0  0  0  0  0  0  0  0  0  0  0
  -29.6810  -24.0690   21.5030 O   0  0  0  0  0  0  0  0  0  0  0  0
  -28.3600  -22.3440   19.2330 H   0  0  0  0  0  0  0  0  0  0  0  0
  -28.1310  -24.9470   19.8290 C   0  0  0  0  0  2  0  0  0  0  0  0
  -28.2960  -26.3760   20.2840 O   0  0  0  0  0  0  0  0  0  0  0  0
  -24.5740  -31.8970   23.1790 C   0  0  0  0  0  0  0  0  0  0  0  0
  -27.2010  -27.2710   20.1820 C   0  0  0  0  0  0  0  0  0  0  0  0
  -23.3810  -30.4790   21.5480 C   0  0  0  0  0  3  0  0  0  0  0  0
  -24.8420  -28.9160   20.1440 C   0  0  0  0  0  0  0  0  0  0  0  0
  -25.9250  -30.7850   21.3810 C   0  0  0  0  0  2  0  0  0  0  0  0
  -26.0080  -29.3960   20.7520 C   0  0  0  0  0  0  0  0  0  0  0  0
  -27.1870  -28.5820   20.7700 C   0  0  0  0  0  3  0  0  0  0  0  0
  -26.0180  -26.8790   19.5110 C   0  0  0  0  0  3  0  0  0  0  0  0
  -24.8520  -27.6650   19.5130 C   0  0  0  0  0  3  0  0  0  0  0  0
  -23.6050  -29.7920   20.1750 C   0  0  0  0  0  2  0  0  0  0  0  0
  -24.6440  -31.0730   22.0910 N   0  0  0  0  0  0  0  0  0  0  0  0
  -23.4860  -32.1780   23.7040 O   0  0  0  0  0  0  0  0  0  0  0  0
  -22.7150  -29.4720   22.5160 C   0  0  0  0  0  0  0  0  0  0  0  0
  -21.3880  -29.2940   22.3890 N   0  0  0  0  0  0  0  0  0  0  0  0
  -23.3890  -28.8550   23.3450 O   0  0  0  0  0  0  0  0  0  0  0  0
  -20.9020  -29.8440   21.6950 H   0  0  0  0  0  0  0  0  0  0  0  0
  -18.0050  -28.1270   22.9220 C   0  0  0  0  0  0  0  0  0  0  0  0
  -20.5680  -28.3640   23.1680 C   0  0  0  0  0  3  0  0  0  0  0  0
  -20.6520  -26.9300   22.5940 C   0  0  0  0  0  2  0  0  0  0  0  0
  -19.5380  -26.6160   21.5900 C   0  0  0  0  0  2  0  0  0  0  0  0
  -18.1630  -26.7760   22.2470 C   0  0  0  0  0  2  0  0  0  0  0  0
  -19.1340  -28.8800   23.3410 C   0  0  0  0  0  0  0  0  0  0  0  0
  -18.9320  -30.1430   23.9360 C   0  0  0  0  0  3  0  0  0  0  0  0
  -17.6330  -30.6560   24.1160 C   0  0  0  0  0  3  0  0  0  0  0  0
  -16.5190  -29.9010   23.7120 C   0  0  0  0  0  3  0  0  0  0  0  0
  -16.7050  -28.6390   23.1220 C   0  0  0  0  0  3  0  0  0  0  0  0
  -25.8520  -32.5390   23.7980 C   0  0  0  0  0  3  0  0  0  0  0  0
  -26.3910  -31.7580   25.0590 C   0  0  1  0  0  0  0  0  0  0  0  0
  -25.3100  -31.4800   26.1290 C   0  0  0  0  0  1  0  0  0  0  0  0
  -26.9990  -30.3970   24.6430 C   0  0  0  0  0  1  0  0  0  0  0  0
  -27.5310  -32.5620   25.7270 C   0  0  0  0  0  1  0  0  0  0  0  0
  -25.5260  -33.9280   24.1520 N   0  0  0  0  0  0  0  0  0  0  0  0
  -25.8290  -34.9970   23.4040 C   0  0  0  0  0  0  0  0  0  0  0  0
  -26.4830  -34.9190   22.3600 O   0  0  0  0  0  0  0  0  0  0  0  0
  -24.9440  -34.0610   24.9670 H   0  0  0  0  0  0  0  0  0  0  0  0
  -24.0820  -36.7810   23.0860 C   0  0  0  0  0  1  0  0  0  0  0  0
  -25.3280  -36.3720   23.8890 C   0  0  0  0  0  3  0  0  0  0  0  0
  -27.4480  -37.2710   24.7430 C   0  0  0  0  0  1  0  0  0  0  0  0
  -26.3490  -37.4380   23.7950 N   0  0  0  0  0  0  0  0  0  0  0  0
  -25.9320  -38.3530   23.9490 H   0  0  0  0  0  0  0  0  0  0  0  0
  2  5  1  0
  3  2  2  0
  3  6  1  0
  4  7  1  0
  4  1  1  0
  5 18  1  0
  5  7  2  0
  6  4  2  0
  7  9  1  0
  8  6  1  0
 10 18  1  0
 11 16  1  0
 12 13  1  0
 12 11  1  0
 14 13  1  0
 14 23  1  0
 14 15  1  0
 16 10  1  0
 16 15  1  0
 17 10  2  0
 18 19  1  0
 20 21  2  0
 21 40  1  0
 22 21  1  0
 22 25  1  0
 23 24  1  0
 23 20  1  0
 24 22  2  0
 25 26  1  0
 26 27  2  0
 28 31  1  0
 28 27  1  0
 29 28  2  0
 30 29  1  0
 30 25  2  0
 31 32  1  0
 32 37  2  0
 32 33  1  0
 33 34  2  0
 34 35  1  0
 35 39  1  0
 36 35  2  0
 37 36  1  0
 38 37  1  0
 40 41  1  0
 41 44  1  0
 41 43  1  0
 42 40  2  0
 45 20  1  0
 45 46  1  0
 47 45  1  0
 48 50  2  0
 49 48  1  0
 49  1  1  0
 51 49  1  0
 52 53  1  0
 52 48  1  0
 54 65  2  0
 55 53  1  0
 55 60  1  0
 56 64  1  0
 56 66  1  0
 57 63  1  0
 57 59  1  0
 58 64  1  0
 59 60  2  0
 59 58  1  0
 61 62  1  0
 61 55  2  0
 62 57  2  0
 63 56  1  0
 64 54  1  0
 66 68  2  0
 67 66  1  0
 69 67  1  0
 70 79  2  0
 70 75  1  0
 71 67  1  0
 71 75  1  0
 72 71  1  0
 73 74  1  0
 73 72  1  0
 74 70  1  0
 75 76  2  0
 76 77  1  0
 78 77  2  0
 79 78  1  0
 80 54  1  0
 80 85  1  0
 80 81  1  0
 81 84  1  1
 81 82  1  0
 83 81  1  0
 85 88  1  0
 86 90  1  0
 86 85  1  0
 87 86  2  0
 90 89  1  0
 92 90  1  0
 92 93  1  0
 92 91  1  0
M  ISO  4  10 100  18 100  52 101  53 101
M  END
>  <TORSDO>  (84) 
F 19

>  <SCORE>  (84) 
-13.898

>  <name>  (84) 
83

>  <ligand_id>  (84) 
83

>  <original_smiles>  (84) 
[H]c1c([H])c([H])c2c(c1[H])C([H])([H])C([H])([H])C([H])([H])C2([H])N([H])C(=O)C1([H])N(C(=O)C([H])(N([H])C(=O)C([H])(N([H])C([H])([H])[H])C([H])([H])[H])C(C([H])([H])[H])(C([H])([H])[H])C([H])([H])[H])C([H])([H])c2c([H])c(OC([H])([H])C(=O)N([H])C([H])([H])c3c(F)c([H])c([H])c(N([H])C(=O)N4C([H])([H])C([H])([H])C([H])([H])C([H])(n5nc(-c6c([H])c([H])c(Oc7c([H])c([H])c(F)c([H])c7F)c([H])c6[H])c(C(=O)N([H])[H])c5N([H])[H])C4([H])[H])c3F)c([H])c([H])c2C1([H])[H]

>  <smiles>  (84) 
[H]c1c([H])c([H])c2c(c1[H])C([H])([H])C([H])([H])C([H])([H])C2([H])N([H])C(=O)C1([H])N(C(=O)C([H])(N([H])C(=O)C([H])(N([H])C([H])([H])[H])C([H])([H])[H])C(C([H])([H])[H])(C([H])([H])[H])C([H])([H])[H])C([H])([H])c2c([H])c(OC([H])([H])C(=O)N([H])C([H])([H])c3c(F)c([H])c([H])c(N([H])C(=O)N4C([H])([H])C([H])([H])C([H])([H])C([H])(n5nc(-c6c([H])c([H])c(Oc7c([H])c([H])c(F)c([H])c7F)c([H])c6[H])c(C(=O)N([H])[H])c5N([H])[H])C4([H])[H])c3F)c([H])c([H])c2C1([H])[H]

$$$$
84:0:0
     RDKit          3D

 95103  0  0  1  0  0  0  0  0999 V2000
  -30.2130  -20.1810   19.7970 C   0  0  0  0  0  0  0  0  0  0  0  0
  -30.2280  -17.2520   20.1360 C   0  0  0  0  0  0  0  0  0  0  0  0
  -29.2360  -19.5130   20.5830 C   0  0  0  0  0  0  0  0  0  0  0  0
  -31.1790  -19.3400   19.1760 C   0  0  0  0  0  0  0  0  0  0  0  0
  -29.2480  -18.0890   20.7410 C   0  0  0  0  0  0  0  0  0  0  0  0
  -31.1820  -17.9220   19.3190 C   0  0  0  0  0  0  0  0  0  0  0  0
  -28.2910  -20.2400   21.2250 F   0  0  0  0  0  0  0  0  0  0  0  0
  -32.1620  -19.9070   18.4330 F   0  0  0  0  0  0  0  0  0  0  0  0
  -28.2910  -17.5100   21.5090 F   0  0  0  0  0  0  0  0  0  0  0  0
  -32.1220  -17.2240   18.6420 F   0  0  0  0  0  0  0  0  0  0  0  0
  -30.8980  -14.7390   19.9120 C   0  0  0  0  0  0  0  0  0  0  0  0
  -30.5890  -12.5000   18.8790 C   0  0  0  0  0  2  0  0  0  0  0  0
  -29.5590  -12.6570   17.7400 C   0  0  0  0  0  2  0  0  0  0  0  0
  -28.1240  -12.4940   18.2780 C   0  0  0  0  0  2  0  0  0  0  0  0
  -27.8660  -13.3470   19.5470 C   0  0  0  0  0  3  0  0  0  0  0  0
  -29.0090  -13.1900   20.5760 C   0  0  0  0  0  2  0  0  0  0  0  0
  -30.2730  -13.5200   19.8990 N   0  0  0  0  0  0  0  0  0  0  0  0
  -32.0310  -14.8730   19.4450 O   0  0  0  0  0  0  0  0  0  0  0  0
  -30.1420  -15.7990   20.3420 N   0  0  0  0  0  0  0  0  0  0  0  0
  -29.3120  -15.5150   20.8380 H   0  0  0  0  0  0  0  0  0  0  0  0
  -25.5640  -13.9510   20.5160 C   0  0  0  0  0  0  0  0  0  0  0  0
  -24.5150  -13.1800   20.9380 C   0  0  0  0  0  0  0  0  0  0  0  0
  -24.9360  -11.8230   20.7870 C   0  0  0  0  0  0  0  0  0  0  0  0
  -26.5590  -13.0640   20.1350 N   0  0  0  0  0  0  0  0  0  0  0  0
  -26.1910  -11.7750   20.3560 N   0  0  0  0  0  0  0  0  0  0  0  0
  -24.1930  -10.5680   20.9710 C   0  0  0  0  0  0  0  0  0  0  0  0
  -24.6210   -9.5840   21.8870 C   0  0  0  0  0  3  0  0  0  0  0  0
  -23.8820   -8.3950   22.0590 C   0  0  0  0  0  3  0  0  0  0  0  0
  -22.7000   -8.1800   21.3120 C   0  0  0  0  0  0  0  0  0  0  0  0
  -22.2900   -9.1540   20.3830 C   0  0  0  0  0  3  0  0  0  0  0  0
  -23.0300  -10.3340   20.2100 C   0  0  0  0  0  3  0  0  0  0  0  0
  -21.9310   -7.0440   21.3950 O   0  0  0  0  0  0  0  0  0  0  0  0
  -21.7900   -6.3560   22.5730 C   0  0  0  0  0  0  0  0  0  0  0  0
  -21.2340   -6.9560   23.7240 C   0  0  0  0  0  3  0  0  0  0  0  0
  -21.0420   -6.1930   24.8920 C   0  0  0  0  0  3  0  0  0  0  0  0
  -21.3910   -4.8290   24.9090 C   0  0  0  0  0  0  0  0  0  0  0  0
  -21.9390   -4.2280   23.7620 C   0  0  0  0  0  3  0  0  0  0  0  0
  -22.1340   -4.9880   22.5960 C   0  0  0  0  0  0  0  0  0  0  0  0
  -22.6430   -4.4000   21.4890 F   0  0  0  0  0  0  0  0  0  0  0  0
  -21.1960   -4.0940   26.0290 F   0  0  0  0  0  0  0  0  0  0  0  0
  -23.1620  -13.6740   21.3650 C   0  0  0  0  0  0  0  0  0  0  0  0
  -22.4950  -12.9480   22.2560 N   0  0  0  0  0  0  0  0  0  0  0  0
  -22.7070  -14.7360   20.9460 O   0  0  0  0  0  0  0  0  0  0  0  0
  -22.8740  -12.0860   22.6190 H   0  0  0  0  0  0  0  0  0  0  0  0
  -21.5940  -13.2670   22.5840 H   0  0  0  0  0  0  0  0  0  0  0  0
  -25.7460  -15.3260   20.4050 N   0  0  0  0  0  0  0  0  0  0  0  0
  -25.0020  -15.9790   20.6260 H   0  0  0  0  0  0  0  0  0  0  0  0
  -26.5580  -15.7750   20.0020 H   0  0  0  0  0  0  0  0  0  0  0  0
  -30.3900  -21.7470   19.7060 C   0  0  0  0  0  2  0  0  0  0  0  0
  -29.4460  -24.1060   19.8080 C   0  0  0  0  0  0  0  0  0  0  0  0
  -29.2690  -22.7470   19.6950 N   0  0  0  0  0  0  0  0  0  0  0  0
  -30.5350  -24.5740   20.1480 O   0  0  0  0  0  0  0  0  0  0  0  0
  -28.3500  -22.4200   19.4260 H   0  0  0  0  0  0  0  0  0  0  0  0
  -28.2730  -25.0920   19.4460 C   0  0  0  0  0  2  0  0  0  0  0  0
  -28.4520  -26.5200   19.8130 O   0  0  0  0  0  0  0  0  0  0  0  0
  -24.5140  -31.6540   23.0290 C   0  0  0  0  0  0  0  0  0  0  0  0
  -27.3050  -27.3310   19.7950 C   0  0  0  0  0  0  0  0  0  0  0  0
  -23.3720  -30.2870   21.3220 C   0  0  0  0  0  3  0  0  0  0  0  0
  -24.8840  -28.8570   19.8420 C   0  0  0  0  0  0  0  0  0  0  0  0
  -25.8990  -30.7020   21.1720 C   0  0  0  0  0  2  0  0  0  0  0  0
  -26.0310  -29.3560   20.4700 C   0  0  0  0  0  0  0  0  0  0  0  0
  -27.2440  -28.6050   20.4420 C   0  0  0  0  0  3  0  0  0  0  0  0
  -26.1270  -26.8890   19.1430 C   0  0  0  0  0  3  0  0  0  0  0  0
  -24.9330  -27.6280   19.1720 C   0  0  0  0  0  3  0  0  0  0  0  0
  -23.6170  -29.6810   19.9140 C   0  0  0  0  0  2  0  0  0  0  0  0
  -24.6130  -30.8960   21.8990 N   0  0  0  0  0  0  0  0  0  0  0  0
  -23.4190  -31.8690   23.5670 O   0  0  0  0  0  0  0  0  0  0  0  0
  -22.7390  -29.2050   22.2310 C   0  0  0  0  0  0  0  0  0  0  0  0
  -21.4150  -29.0100   22.1100 N   0  0  0  0  0  0  0  0  0  0  0  0
  -23.4400  -28.5480   23.0060 O   0  0  0  0  0  0  0  0  0  0  0  0
  -20.9090  -29.5950   21.4610 H   0  0  0  0  0  0  0  0  0  0  0  0
  -18.0610  -27.7530   22.6080 C   0  0  0  0  0  0  0  0  0  0  0  0
  -20.6210  -28.0170   22.8380 C   0  0  0  0  0  3  0  0  0  0  0  0
  -20.7210  -26.6250   22.1710 C   0  0  0  0  0  2  0  0  0  0  0  0
  -19.5990  -26.3580   21.1630 C   0  0  0  0  0  2  0  0  0  0  0  0
  -18.2320  -26.4500   21.8450 C   0  0  0  0  0  2  0  0  0  0  0  0
  -19.1830  -28.4970   23.0610 C   0  0  0  0  0  0  0  0  0  0  0  0
  -18.9660  -29.7180   23.7360 C   0  0  0  0  0  3  0  0  0  0  0  0
  -17.6620  -30.1960   23.9610 C   0  0  0  0  0  3  0  0  0  0  0  0
  -16.5540  -29.4490   23.5240 C   0  0  0  0  0  3  0  0  0  0  0  0
  -16.7550  -28.2290   22.8530 C   0  0  0  0  0  3  0  0  0  0  0  0
  -25.7700  -32.3030   23.6870 C   0  0  0  0  0  3  0  0  0  0  0  0
  -26.2900  -31.5090   24.9490 C   0  0  1  0  0  0  0  0  0  0  0  0
  -25.1880  -31.2090   25.9920 C   0  0  0  0  0  1  0  0  0  0  0  0
  -26.9200  -30.1610   24.5280 C   0  0  0  0  0  1  0  0  0  0  0  0
  -27.4060  -32.3160   25.6530 C   0  0  0  0  0  1  0  0  0  0  0  0
  -25.4170  -33.6810   24.0540 N   0  0  0  0  0  0  0  0  0  0  0  0
  -25.7060  -34.7620   23.3170 C   0  0  0  0  0  0  0  0  0  0  0  0
  -26.3670  -34.7060   22.2770 O   0  0  0  0  0  0  0  0  0  0  0  0
  -24.8290  -33.7960   24.8660 H   0  0  0  0  0  0  0  0  0  0  0  0
  -23.9060  -36.4980   23.0330 C   0  0  0  0  0  1  0  0  0  0  0  0
  -25.1760  -36.1230   23.8100 C   0  0  0  0  0  3  0  0  0  0  0  0
  -27.2830  -37.0830   24.6300 C   0  0  0  0  0  1  0  0  0  0  0  0
  -26.1670  -37.2150   23.6990 N   0  0  0  0  0  0  0  0  0  0  0  0
  -25.7270  -38.1180   23.8580 H   0  0  0  0  0  0  0  0  0  0  0  0
  1  3  1  0
  2 19  1  0
  2  5  1  0
  3  5  2  0
  3  7  1  0
  4  6  1  0
  4  1  2  0
  5  9  1  0
  6  2  2  0
  8  4  1  0
 10  6  1  0
 11 19  1  0
 12 17  1  0
 13 14  1  0
 13 12  1  0
 15 14  1  0
 15 24  1  0
 15 16  1  0
 17 11  1  0
 17 16  1  0
 18 11  2  0
 19 20  1  0
 21 22  2  0
 22 41  1  0
 23 22  1  0
 23 26  1  0
 24 25  1  0
 24 21  1  0
 25 23  2  0
 26 27  1  0
 27 28  2  0
 29 32  1  0
 29 28  1  0
 30 29  2  0
 31 30  1  0
 31 26  2  0
 32 33  1  0
 33 38  2  0
 33 34  1  0
 34 35  2  0
 35 36  1  0
 36 40  1  0
 37 36  2  0
 38 37  1  0
 39 38  1  0
 41 42  1  0
 42 45  1  0
 42 44  1  0
 43 41  2  0
 46 21  1  0
 46 47  1  0
 48 46  1  0
 49  1  1  0
 50 52  2  0
 51 49  1  0
 51 50  1  0
 53 51  1  0
 54 50  1  0
 54 55  1  0
 56 67  2  0
 57 55  1  0
 57 62  1  0
 58 66  1  0
 58 68  1  0
 59 65  1  0
 59 61  1  0
 60 66  1  0
 61 60  1  0
 62 61  2  0
 63 64  1  0
 63 57  2  0
 64 59  2  0
 65 58  1  0
 66 56  1  0
 68 70  2  0
 69 68  1  0
 71 69  1  0
 72 81  2  0
 72 77  1  0
 73 69  1  0
 73 77  1  0
 74 73  1  0
 75 76  1  0
 75 74  1  0
 76 72  1  0
 77 78  2  0
 78 79  1  0
 80 79  2  0
 81 80  1  0
 82 56  1  0
 82 87  1  0
 82 83  1  0
 83 86  1  1
 83 84  1  0
 85 83  1  0
 87 90  1  0
 88 92  1  0
 88 87  1  0
 89 88  2  0
 92 91  1  0
 94 92  1  0
 94 95  1  0
 94 93  1  0
M  ISO  4  11 100  19 100  54 101  55 101
M  END
>  <TORSDO>  (85) 
F 19

>  <SCORE>  (85) 
-13.211

>  <name>  (85) 
84

>  <ligand_id>  (85) 
84

>  <original_smiles>  (85) 
[H]c1c([H])c([H])c2c(c1[H])C([H])([H])C([H])([H])C([H])([H])C2([H])N([H])C(=O)C1([H])N(C(=O)C([H])(N([H])C(=O)C([H])(N([H])C([H])([H])[H])C([H])([H])[H])C(C([H])([H])[H])(C([H])([H])[H])C([H])([H])[H])C([H])([H])c2c([H])c(OC([H])([H])C(=O)N([H])C([H])([H])c3c(F)c(F)c(N([H])C(=O)N4C([H])([H])C([H])([H])C([H])([H])C([H])(n5nc(-c6c([H])c([H])c(Oc7c([H])c([H])c(F)c([H])c7F)c([H])c6[H])c(C(=O)N([H])[H])c5N([H])[H])C4([H])[H])c(F)c3F)c([H])c([H])c2C1([H])[H]

>  <smiles>  (85) 
[H]c1c([H])c([H])c2c(c1[H])C([H])([H])C([H])([H])C([H])([H])C2([H])N([H])C(=O)C1([H])N(C(=O)C([H])(N([H])C(=O)C([H])(N([H])C([H])([H])[H])C([H])([H])[H])C(C([H])([H])[H])(C([H])([H])[H])C([H])([H])[H])C([H])([H])c2c([H])c(OC([H])([H])C(=O)N([H])C([H])([H])c3c(F)c(F)c(N([H])C(=O)N4C([H])([H])C([H])([H])C([H])([H])C([H])(n5nc(-c6c([H])c([H])c(Oc7c([H])c([H])c(F)c([H])c7F)c([H])c6[H])c(C(=O)N([H])[H])c5N([H])[H])C4([H])[H])c(F)c3F)c([H])c([H])c2C1([H])[H]

$$$$
85:0:0
     RDKit          3D

 95104  0  0  1  0  0  0  0  0999 V2000
  -28.1660  -22.3260   22.7500 C   0  0  0  0  0  2  0  0  0  0  0  0
  -29.0210  -21.2040   22.2160 C   0  0  0  0  0  2  0  0  0  0  0  0
  -27.7110  -22.9610   21.4450 C   0  0  0  0  0  2  0  0  0  0  0  0
  -29.8110  -21.8760   21.0710 C   0  0  0  0  0  3  0  0  0  0  0  0
  -28.9080  -22.9870   20.5380 N   0  0  2  0  0  4  0  0  0  0  0  0
  -28.5680  -22.7010   19.6270 H   0  0  0  0  0  0  0  0  0  0  0  0
  -30.4750  -20.8510   20.0660 C   0  0  0  0  0  0  0  0  0  0  0  0
  -28.3110  -18.2760   19.6850 C   0  0  0  0  0  2  0  0  0  0  0  0
  -28.6140  -19.5980   18.9600 C   0  0  0  0  0  2  0  0  0  0  0  0
  -29.5870  -18.4680   20.5340 C   0  0  0  0  0  3  0  0  0  0  0  0
  -29.8970  -19.6220   19.6560 N   0  0  0  0  0  0  0  0  0  0  0  0
  -31.5880  -21.1220   19.6060 O   0  0  0  0  0  0  0  0  0  0  0  0
  -31.2690  -15.0030   20.2520 C   0  0  0  0  0  0  0  0  0  0  0  0
  -31.0230  -12.6860   19.4540 C   0  0  0  0  0  2  0  0  0  0  0  0
  -30.1170  -12.6750   18.2020 C   0  0  0  0  0  2  0  0  0  0  0  0
  -28.6280  -12.6010   18.5910 C   0  0  0  0  0  2  0  0  0  0  0  0
  -28.2390  -13.5720   19.7360 C   0  0  0  0  0  3  0  0  0  0  0  0
  -29.2700  -13.5670   20.8810 C   0  0  0  0  0  2  0  0  0  0  0  0
  -30.5900  -13.8180   20.2860 N   0  0  0  0  0  0  0  0  0  0  0  0
  -32.4900  -15.0280   20.0760 O   0  0  0  0  0  0  0  0  0  0  0  0
  -30.6270  -17.2930   20.6650 C   0  0  0  0  0  0  0  0  0  0  0  0
  -30.2910  -16.3010   18.4900 C   0  0  0  0  0  1  0  0  0  0  0  0
  -30.5250  -16.1210   19.9460 N   0  0  0  0  0  0  0  0  0  0  0  0
  -31.4840  -17.4640   21.5400 O   0  0  0  0  0  0  0  0  0  0  0  0
  -25.8760  -14.2500   20.4540 C   0  0  0  0  0  0  0  0  0  0  0  0
  -24.7730  -13.5170   20.7910 C   0  0  0  0  0  0  0  0  0  0  0  0
  -25.1790  -12.1520   20.7300 C   0  0  0  0  0  0  0  0  0  0  0  0
  -26.8820  -13.3320   20.2070 N   0  0  0  0  0  0  0  0  0  0  0  0
  -26.4690  -12.0610   20.4360 N   0  0  0  0  0  0  0  0  0  0  0  0
  -24.3990  -10.9210   20.8820 C   0  0  0  0  0  0  0  0  0  0  0  0
  -24.7540   -9.9430   21.8350 C   0  0  0  0  0  3  0  0  0  0  0  0
  -23.9840   -8.7680   21.9710 C   0  0  0  0  0  3  0  0  0  0  0  0
  -22.8490   -8.5660   21.1510 C   0  0  0  0  0  0  0  0  0  0  0  0
  -22.5170   -9.5310   20.1880 C   0  0  0  0  0  3  0  0  0  0  0  0
  -23.2850  -10.6980   20.0490 C   0  0  0  0  0  3  0  0  0  0  0  0
  -22.0530   -7.4470   21.1980 O   0  0  0  0  0  0  0  0  0  0  0  0
  -21.8660   -6.7520   22.3610 C   0  0  0  0  0  0  0  0  0  0  0  0
  -21.3060   -7.3530   23.5090 C   0  0  0  0  0  3  0  0  0  0  0  0
  -21.0660   -6.5830   24.6630 C   0  0  0  0  0  3  0  0  0  0  0  0
  -21.3700   -5.2090   24.6690 C   0  0  0  0  0  0  0  0  0  0  0  0
  -21.9190   -4.6040   23.5240 C   0  0  0  0  0  3  0  0  0  0  0  0
  -22.1600   -5.3730   22.3720 C   0  0  0  0  0  0  0  0  0  0  0  0
  -22.6740   -4.7830   21.2660 F   0  0  0  0  0  0  0  0  0  0  0  0
  -21.1320   -4.4630   25.7750 F   0  0  0  0  0  0  0  0  0  0  0  0
  -23.3970  -14.0550   21.0570 C   0  0  0  0  0  0  0  0  0  0  0  0
  -22.6360  -13.3770   21.9110 N   0  0  0  0  0  0  0  0  0  0  0  0
  -23.0110  -15.1050   20.5500 O   0  0  0  0  0  0  0  0  0  0  0  0
  -22.9630  -12.5300   22.3500 H   0  0  0  0  0  0  0  0  0  0  0  0
  -21.7090  -13.7190   22.1320 H   0  0  0  0  0  0  0  0  0  0  0  0
  -26.0980  -15.6140   20.3070 N   0  0  0  0  0  0  0  0  0  0  0  0
  -25.3520  -16.2920   20.4000 H   0  0  0  0  0  0  0  0  0  0  0  0
  -26.9610  -16.0050   19.9550 H   0  0  0  0  0  0  0  0  0  0  0  0
  -29.5020  -24.3890   20.3730 C   0  0  0  0  0  2  0  0  0  0  0  0
  -28.4290  -25.5510   20.4040 C   0  0  0  0  0  2  0  0  0  0  0  0
  -28.6730  -26.9210   19.9520 O   0  0  0  0  0  0  0  0  0  0  0  0
  -24.6620  -31.9110   23.2320 C   0  0  0  0  0  0  0  0  0  0  0  0
  -27.5120  -27.7060   19.9500 C   0  0  0  0  0  0  0  0  0  0  0  0
  -23.5280  -30.5350   21.5260 C   0  0  0  0  0  3  0  0  0  0  0  0
  -25.0560  -29.1550   20.0190 C   0  0  0  0  0  0  0  0  0  0  0  0
  -26.0440  -31.0110   21.3590 C   0  0  0  0  0  2  0  0  0  0  0  0
  -26.1960  -29.6830   20.6370 C   0  0  0  0  0  0  0  0  0  0  0  0
  -27.4320  -28.9780   20.5860 C   0  0  0  0  0  3  0  0  0  0  0  0
  -26.3490  -27.2330   19.3050 C   0  0  0  0  0  3  0  0  0  0  0  0
  -25.1350  -27.9380   19.3280 C   0  0  0  0  0  3  0  0  0  0  0  0
  -23.7740  -29.9500   20.1110 C   0  0  0  0  0  2  0  0  0  0  0  0
  -24.7600  -31.1650   22.0960 N   0  0  0  0  0  0  0  0  0  0  0  0
  -23.5680  -32.1080   23.7820 O   0  0  0  0  0  0  0  0  0  0  0  0
  -22.9240  -29.4380   22.4320 C   0  0  0  0  0  0  0  0  0  0  0  0
  -21.6070  -29.2090   22.2940 N   0  0  0  0  0  0  0  0  0  0  0  0
  -23.6330  -28.8040   23.2150 O   0  0  0  0  0  0  0  0  0  0  0  0
  -21.0940  -29.7680   21.6270 H   0  0  0  0  0  0  0  0  0  0  0  0
  -18.2780  -27.8750   22.7580 C   0  0  0  0  0  0  0  0  0  0  0  0
  -20.8290  -28.2050   23.0200 C   0  0  0  0  0  3  0  0  0  0  0  0
  -20.9760  -26.8150   22.3620 C   0  0  0  0  0  2  0  0  0  0  0  0
  -19.8720  -26.5120   21.3430 C   0  0  0  0  0  2  0  0  0  0  0  0
  -18.4930  -26.5740   22.0070 C   0  0  0  0  0  2  0  0  0  0  0  0
  -19.3750  -28.6490   23.2190 C   0  0  0  0  0  0  0  0  0  0  0  0
  -19.1180  -29.8710   23.8800 C   0  0  0  0  0  3  0  0  0  0  0  0
  -17.7980  -30.3150   24.0880 C   0  0  0  0  0  3  0  0  0  0  0  0
  -16.7170  -29.5330   23.6470 C   0  0  0  0  0  3  0  0  0  0  0  0
  -16.9560  -28.3170   22.9840 C   0  0  0  0  0  3  0  0  0  0  0  0
  -25.9160  -32.5740   23.8810 C   0  0  0  0  0  3  0  0  0  0  0  0
  -26.4160  -31.8210   25.1740 C   0  0  1  0  0  0  0  0  0  0  0  0
  -25.2960  -31.5470   26.2050 C   0  0  0  0  0  1  0  0  0  0  0  0
  -27.0500  -30.4600   24.8010 C   0  0  0  0  0  1  0  0  0  0  0  0
  -27.5230  -32.6480   25.8670 C   0  0  0  0  0  1  0  0  0  0  0  0
  -25.5730  -33.9670   24.1890 N   0  0  0  0  0  0  0  0  0  0  0  0
  -25.9080  -35.0220   23.4350 C   0  0  0  0  0  0  0  0  0  0  0  0
  -26.6070  -34.9220   22.4220 O   0  0  0  0  0  0  0  0  0  0  0  0
  -24.9590  -34.1130   24.9760 H   0  0  0  0  0  0  0  0  0  0  0  0
  -24.1530  -36.7650   23.0220 C   0  0  0  0  0  1  0  0  0  0  0  0
  -25.3820  -36.4000   23.8680 C   0  0  0  0  0  3  0  0  0  0  0  0
  -27.4710  -37.3360   24.7500 C   0  0  0  0  0  1  0  0  0  0  0  0
  -26.3940  -37.4740   23.7740 N   0  0  0  0  0  0  0  0  0  0  0  0
  -25.9660  -38.3860   23.9040 H   0  0  0  0  0  0  0  0  0  0  0  0
  2  1  1  0
  3  1  1  0
  4  7  1  0
  4  2  1  0
  5  4  1  0
  5  3  1  0
  5  6  1  6
  8 10  1  0
  9 11  1  0
  9  8  1  0
 10 21  1  0
 11  7  1  0
 11 10  1  0
 12  7  2  0
 13 19  1  0
 14 19  1  0
 15 16  1  0
 15 14  1  0
 17 16  1  0
 17 28  1  0
 17 18  1  0
 19 18  1  0
 20 13  2  0
 21 24  2  0
 22 23  1  0
 23 13  1  0
 23 21  1  0
 25 26  2  0
 26 45  1  0
 27 26  1  0
 27 30  1  0
 28 29  1  0
 28 25  1  0
 29 27  2  0
 30 31  1  0
 31 32  2  0
 33 36  1  0
 33 32  1  0
 34 33  2  0
 35 34  1  0
 35 30  2  0
 36 37  1  0
 37 42  2  0
 37 38  1  0
 38 39  2  0
 39 40  1  0
 40 44  1  0
 41 40  2  0
 42 41  1  0
 43 42  1  0
 45 46  1  0
 46 49  1  0
 46 48  1  0
 47 45  2  0
 50 51  1  0
 50 25  1  0
 52 50  1  0
 53 54  1  0
 53  5  1  0
 55 54  1  0
 56 67  2  0
 57 55  1  0
 57 62  1  0
 58 66  1  0
 58 68  1  0
 59 65  1  0
 59 61  1  0
 60 66  1  0
 61 60  1  0
 62 61  2  0
 63 64  1  0
 63 57  2  0
 64 59  2  0
 65 58  1  0
 66 56  1  0
 68 70  2  0
 69 68  1  0
 71 69  1  0
 72 81  2  0
 72 77  1  0
 73 69  1  0
 73 77  1  0
 74 73  1  0
 75 76  1  0
 75 74  1  0
 76 72  1  0
 77 78  2  0
 78 79  1  0
 80 79  2  0
 81 80  1  0
 82 56  1  0
 82 87  1  0
 82 83  1  0
 83 86  1  1
 83 84  1  0
 85 83  1  0
 87 90  1  0
 88 92  1  0
 88 87  1  0
 89 88  2  0
 92 91  1  0
 94 92  1  0
 94 95  1  0
 94 93  1  0
M  ISO  4  13 100  23 100  54 101  55 101
M  END
>  <TORSDO>  (86) 
F 19

>  <SCORE>  (86) 
-12.425

>  <name>  (86) 
85

>  <ligand_id>  (86) 
85

>  <original_smiles>  (86) 
[H]c1c([H])c([H])c2c(c1[H])C([H])([H])C([H])([H])C([H])([H])C2([H])N([H])C(=O)C1([H])N(C(=O)C([H])(N([H])C(=O)C([H])(N([H])C([H])([H])[H])C([H])([H])[H])C(C([H])([H])[H])(C([H])([H])[H])C([H])([H])[H])C([H])([H])c2c([H])c(OC([H])([H])C([H])([H])[N+]3([H])C([H])([H])C([H])([H])C([H])([H])C3([H])C(=O)N3C([H])([H])C([H])([H])C3([H])C(=O)N(C(=O)N3C([H])([H])C([H])([H])C([H])([H])C([H])(n4nc(-c5c([H])c([H])c(Oc6c([H])c([H])c(F)c([H])c6F)c([H])c5[H])c(C(=O)N([H])[H])c4N([H])[H])C3([H])[H])C([H])([H])[H])c([H])c([H])c2C1([H])[H]

>  <smiles>  (86) 
[H]c1c([H])c([H])c2c(c1[H])C([H])([H])C([H])([H])C([H])([H])C2([H])N([H])C(=O)C1([H])N(C(=O)C([H])(N([H])C(=O)C([H])(N([H])C([H])([H])[H])C([H])([H])[H])C(C([H])([H])[H])(C([H])([H])[H])C([H])([H])[H])C([H])([H])c2c([H])c(OC([H])([H])C([H])([H])[N+]3([H])C([H])([H])C([H])([H])C([H])([H])C3([H])C(=O)N3C([H])([H])C([H])([H])C3([H])C(=O)N(C(=O)N3C([H])([H])C([H])([H])C([H])([H])C([H])(n4nc(-c5c([H])c([H])c(Oc6c([H])c([H])c(F)c([H])c6F)c([H])c5[H])c(C(=O)N([H])[H])c4N([H])[H])C3([H])[H])C([H])([H])[H])c([H])c([H])c2C1([H])[H]

$$$$
86:0:0
     RDKit          3D

 95103  0  0  1  0  0  0  0  0999 V2000
  -29.1530  -20.6050   20.6500 C   0  0  0  0  0  2  0  0  0  0  0  0
  -28.2740  -19.4590   20.1040 C   0  0  0  0  0  0  0  0  0  0  0  0
  -28.9910  -16.5950   17.8830 C   0  0  0  0  0  2  0  0  0  0  0  0
  -30.3790  -17.1410   18.1860 C   0  0  0  0  0  2  0  0  0  0  0  0
  -28.0360  -17.6010   18.5270 C   0  0  0  0  0  2  0  0  0  0  0  0
  -30.2200  -17.9200   19.5040 C   0  0  0  0  0  3  0  0  0  0  0  0
  -28.8170  -18.3660   19.5070 N   0  0  0  0  0  0  0  0  0  0  0  0
  -27.0510  -19.6130   20.1440 O   0  0  0  0  0  0  0  0  0  0  0  0
  -30.9640  -14.7240   21.1470 C   0  0  0  0  0  0  0  0  0  0  0  0
  -30.8160  -12.4490   20.2470 C   0  0  0  0  0  2  0  0  0  0  0  0
  -30.0370  -12.5230   18.9180 C   0  0  0  0  0  2  0  0  0  0  0  0
  -28.5200  -12.4020   19.1700 C   0  0  0  0  0  2  0  0  0  0  0  0
  -28.0130  -13.3380   20.3030 C   0  0  0  0  0  3  0  0  0  0  0  0
  -28.9320  -13.2830   21.5420 C   0  0  0  0  0  2  0  0  0  0  0  0
  -30.3070  -13.5370   21.0890 N   0  0  0  0  0  0  0  0  0  0  0  0
  -32.1940  -14.7900   21.1010 O   0  0  0  0  0  0  0  0  0  0  0  0
  -30.6440  -17.0780   20.7420 C   0  0  0  0  0  0  0  0  0  0  0  0
  -30.1960  -15.8040   20.8680 N   0  0  0  0  0  0  0  0  0  0  0  0
  -31.4270  -17.5890   21.5490 O   0  0  0  0  0  0  0  0  0  0  0  0
  -29.3030  -15.5930   20.4630 H   0  0  0  0  0  0  0  0  0  0  0  0
  -25.5610  -13.9740   20.7320 C   0  0  0  0  0  0  0  0  0  0  0  0
  -24.4490  -13.2160   20.9740 C   0  0  0  0  0  0  0  0  0  0  0  0
  -24.8990  -11.8600   21.0110 C   0  0  0  0  0  0  0  0  0  0  0  0
  -26.6170  -13.0800   20.6340 N   0  0  0  0  0  0  0  0  0  0  0  0
  -26.2160  -11.8060   20.8660 N   0  0  0  0  0  0  0  0  0  0  0  0
  -24.1430  -10.6070   21.1230 C   0  0  0  0  0  0  0  0  0  0  0  0
  -24.4900   -9.6210   22.0720 C   0  0  0  0  0  3  0  0  0  0  0  0
  -23.7380   -8.4310   22.1730 C   0  0  0  0  0  3  0  0  0  0  0  0
  -22.6260   -8.2200   21.3230 C   0  0  0  0  0  0  0  0  0  0  0  0
  -22.2990   -9.1950   20.3650 C   0  0  0  0  0  3  0  0  0  0  0  0
  -23.0520  -10.3770   20.2610 C   0  0  0  0  0  3  0  0  0  0  0  0
  -21.8500   -7.0860   21.3330 O   0  0  0  0  0  0  0  0  0  0  0  0
  -21.7270   -6.3090   22.4570 C   0  0  0  0  0  0  0  0  0  0  0  0
  -21.2400   -6.8340   23.6740 C   0  0  0  0  0  3  0  0  0  0  0  0
  -21.0650   -5.9850   24.7850 C   0  0  0  0  0  3  0  0  0  0  0  0
  -21.3650   -4.6150   24.6800 C   0  0  0  0  0  0  0  0  0  0  0  0
  -21.8440   -4.0890   23.4670 C   0  0  0  0  0  3  0  0  0  0  0  0
  -22.0220   -4.9350   22.3580 C   0  0  0  0  0  0  0  0  0  0  0  0
  -22.4640   -4.4210   21.1840 F   0  0  0  0  0  0  0  0  0  0  0  0
  -21.1900   -3.7980   25.7450 F   0  0  0  0  0  0  0  0  0  0  0  0
  -23.0360  -13.7100   21.0730 C   0  0  0  0  0  0  0  0  0  0  0  0
  -22.2070  -13.0380   21.8630 N   0  0  0  0  0  0  0  0  0  0  0  0
  -22.6710  -14.7290   20.4870 O   0  0  0  0  0  0  0  0  0  0  0  0
  -22.5130  -12.2160   22.3620 H   0  0  0  0  0  0  0  0  0  0  0  0
  -21.2540  -13.3530   21.9740 H   0  0  0  0  0  0  0  0  0  0  0  0
  -25.7530  -15.3410   20.5690 N   0  0  0  0  0  0  0  0  0  0  0  0
  -24.9780  -15.9960   20.5800 H   0  0  0  0  0  0  0  0  0  0  0  0
  -26.6410  -15.7850   20.3860 H   0  0  0  0  0  0  0  0  0  0  0  0
  -29.0780  -21.8870   19.7590 C   0  0  0  0  0  2  0  0  0  0  0  0
  -28.5470  -24.3310   19.9330 C   0  0  0  0  0  0  0  0  0  0  0  0
  -28.7990  -23.1320   20.4960 N   0  0  0  0  0  0  0  0  0  0  0  0
  -28.5120  -24.4850   18.7100 O   0  0  0  0  0  0  0  0  0  0  0  0
  -28.8220  -23.0960   21.5070 H   0  0  0  0  0  0  0  0  0  0  0  0
  -28.3010  -25.5240   20.8840 C   0  0  0  0  0  2  0  0  0  0  0  0
  -28.3680  -26.7960   20.2050 O   0  0  0  0  0  0  0  0  0  0  0  0
  -24.5460  -31.9720   23.2660 C   0  0  0  0  0  0  0  0  0  0  0  0
  -27.2010  -27.5270   20.2080 C   0  0  0  0  0  0  0  0  0  0  0  0
  -23.3430  -30.5600   21.6290 C   0  0  0  0  0  3  0  0  0  0  0  0
  -24.8000  -29.0190   20.2100 C   0  0  0  0  0  0  0  0  0  0  0  0
  -25.8650  -30.9300   21.4240 C   0  0  0  0  0  2  0  0  0  0  0  0
  -25.9570  -29.5550   20.7920 C   0  0  0  0  0  0  0  0  0  0  0  0
  -27.1630  -28.8190   20.7790 C   0  0  0  0  0  3  0  0  0  0  0  0
  -26.0290  -27.0010   19.6230 C   0  0  0  0  0  3  0  0  0  0  0  0
  -24.8320  -27.7430   19.6210 C   0  0  0  0  0  3  0  0  0  0  0  0
  -23.5530  -29.8730   20.2530 C   0  0  0  0  0  2  0  0  0  0  0  0
  -24.6030  -31.1680   22.1660 N   0  0  0  0  0  0  0  0  0  0  0  0
  -23.4650  -32.2420   23.8070 O   0  0  0  0  0  0  0  0  0  0  0  0
  -22.6950  -29.5410   22.5950 C   0  0  0  0  0  0  0  0  0  0  0  0
  -21.3710  -29.3560   22.4680 N   0  0  0  0  0  0  0  0  0  0  0  0
  -23.3800  -28.9210   23.4120 O   0  0  0  0  0  0  0  0  0  0  0  0
  -20.8790  -29.9100   21.7810 H   0  0  0  0  0  0  0  0  0  0  0  0
  -17.9990  -28.1550   22.9640 C   0  0  0  0  0  0  0  0  0  0  0  0
  -20.5550  -28.4190   23.2400 C   0  0  0  0  0  3  0  0  0  0  0  0
  -20.6630  -26.9870   22.6690 C   0  0  0  0  0  2  0  0  0  0  0  0
  -19.5630  -26.6590   21.6540 C   0  0  0  0  0  2  0  0  0  0  0  0
  -18.1800  -26.8030   22.2950 C   0  0  0  0  0  2  0  0  0  0  0  0
  -19.1150  -28.9220   23.3940 C   0  0  0  0  0  0  0  0  0  0  0  0
  -18.8930  -30.1870   23.9790 C   0  0  0  0  0  3  0  0  0  0  0  0
  -17.5870  -30.6870   24.1390 C   0  0  0  0  0  3  0  0  0  0  0  0
  -16.4850  -29.9170   23.7250 C   0  0  0  0  0  3  0  0  0  0  0  0
  -16.6920  -28.6540   23.1450 C   0  0  0  0  0  3  0  0  0  0  0  0
  -25.8320  -32.6070   23.8840 C   0  0  0  0  0  3  0  0  0  0  0  0
  -26.3470  -31.8460   25.1670 C   0  0  1  0  0  0  0  0  0  0  0  0
  -25.2520  -31.6150   26.2350 C   0  0  0  0  0  1  0  0  0  0  0  0
  -26.9300  -30.4650   24.7830 C   0  0  0  0  0  1  0  0  0  0  0  0
  -27.4950  -32.6450   25.8260 C   0  0  0  0  0  1  0  0  0  0  0  0
  -25.5250  -34.0080   24.1990 N   0  0  0  0  0  0  0  0  0  0  0  0
  -25.8720  -35.0530   23.4340 C   0  0  0  0  0  0  0  0  0  0  0  0
  -26.5560  -34.9360   22.4120 O   0  0  0  0  0  0  0  0  0  0  0  0
  -24.9240  -34.1720   24.9930 H   0  0  0  0  0  0  0  0  0  0  0  0
  -24.1610  -36.8490   23.0330 C   0  0  0  0  0  1  0  0  0  0  0  0
  -25.3840  -36.4460   23.8720 C   0  0  0  0  0  3  0  0  0  0  0  0
  -27.5080  -37.3250   24.7340 C   0  0  0  0  0  1  0  0  0  0  0  0
  -26.4240  -37.4930   23.7700 N   0  0  0  0  0  0  0  0  0  0  0  0
  -26.0210  -38.4170   23.9040 H   0  0  0  0  0  0  0  0  0  0  0  0
  2  8  2  0
  2  1  1  0
  3  4  1  0
  3  5  1  0
  4  6  1  0
  5  7  1  0
  6  7  1  0
  6 17  1  0
  7  2  1  0
 10 15  1  0
 11 12  1  0
 11 10  1  0
 13 12  1  0
 13 24  1  0
 13 14  1  0
 15  9  1  0
 15 14  1  0
 16  9  2  0
 17 18  1  0
 17 19  2  0
 18  9  1  0
 20 18  1  0
 21 22  2  0
 22 23  1  0
 22 41  1  0
 23 26  1  0
 24 21  1  0
 24 25  1  0
 25 23  2  0
 26 27  1  0
 27 28  2  0
 29 32  1  0
 29 28  1  0
 30 29  2  0
 31 30  1  0
 31 26  2  0
 32 33  1  0
 33 34  1  0
 34 35  2  0
 36 35  1  0
 36 40  1  0
 37 36  2  0
 38 33  2  0
 38 37  1  0
 39 38  1  0
 41 42  1  0
 42 45  1  0
 42 44  1  0
 43 41  2  0
 46 47  1  0
 46 21  1  0
 48 46  1  0
 49 51  1  0
 49  1  1  0
 50 51  1  0
 50 54  1  0
 51 53  1  0
 52 50  2  0
 55 57  1  0
 55 54  1  0
 56 67  2  0
 57 62  1  0
 58 66  1  0
 58 68  1  0
 59 65  1  0
 59 61  1  0
 60 66  1  0
 61 60  1  0
 62 61  2  0
 63 57  2  0
 64 63  1  0
 64 59  2  0
 65 58  1  0
 66 56  1  0
 68 70  2  0
 69 68  1  0
 71 69  1  0
 72 81  2  0
 72 77  1  0
 73 69  1  0
 73 77  1  0
 74 73  1  0
 75 76  1  0
 75 74  1  0
 76 72  1  0
 77 78  2  0
 78 79  1  0
 80 79  2  0
 81 80  1  0
 82 56  1  0
 82 87  1  0
 82 83  1  0
 83 86  1  1
 83 84  1  0
 85 83  1  0
 87 90  1  0
 88 92  1  0
 88 87  1  0
 89 88  2  0
 92 91  1  0
 94 92  1  0
 94 95  1  0
 94 93  1  0
M  ISO  4   9 100  18 100  54 101  55 101
M  END
>  <TORSDO>  (87) 
F 20

>  <SCORE>  (87) 
-12.179

>  <name>  (87) 
86

>  <ligand_id>  (87) 
86

>  <original_smiles>  (87) 
[H]c1c([H])c([H])c2c(c1[H])C([H])([H])C([H])([H])C([H])([H])C2([H])N([H])C(=O)C1([H])N(C(=O)C([H])(N([H])C(=O)C([H])(N([H])C([H])([H])[H])C([H])([H])[H])C(C([H])([H])[H])(C([H])([H])[H])C([H])([H])[H])C([H])([H])c2c([H])c(OC([H])([H])C(=O)N([H])C([H])([H])C([H])([H])C(=O)N3C([H])([H])C([H])([H])C([H])([H])C3([H])C(=O)N([H])C(=O)N3C([H])([H])C([H])([H])C([H])([H])C([H])(n4nc(-c5c([H])c([H])c(Oc6c([H])c([H])c(F)c([H])c6F)c([H])c5[H])c(C(=O)N([H])[H])c4N([H])[H])C3([H])[H])c([H])c([H])c2C1([H])[H]

>  <smiles>  (87) 
[H]c1c([H])c([H])c2c(c1[H])C([H])([H])C([H])([H])C([H])([H])C2([H])N([H])C(=O)C1([H])N(C(=O)C([H])(N([H])C(=O)C([H])(N([H])C([H])([H])[H])C([H])([H])[H])C(C([H])([H])[H])(C([H])([H])[H])C([H])([H])[H])C([H])([H])c2c([H])c(OC([H])([H])C(=O)N([H])C([H])([H])C([H])([H])C(=O)N3C([H])([H])C([H])([H])C([H])([H])C3([H])C(=O)N([H])C(=O)N3C([H])([H])C([H])([H])C([H])([H])C([H])(n4nc(-c5c([H])c([H])c(Oc6c([H])c([H])c(F)c([H])c6F)c([H])c5[H])c(C(=O)N([H])[H])c4N([H])[H])C3([H])[H])c([H])c([H])c2C1([H])[H]

$$$$
87:0:0
     RDKit          3D

 95103  0  0  1  0  0  0  0  0999 V2000
  -28.6300  -21.7370   22.1890 C   0  0  0  0  0  1  0  0  0  0  0  0
  -29.2140  -21.8500   20.8560 N   0  0  0  0  0  0  0  0  0  0  0  0
  -29.0980  -20.5560   20.1440 C   0  0  0  0  0  2  0  0  0  0  0  0
  -31.7520  -17.2360   21.2300 C   0  0  0  0  0  3  0  0  0  0  0  0
  -32.2090  -18.5640   21.3060 C   0  0  0  0  0  3  0  0  0  0  0  0
  -30.0180  -19.3980   20.5900 C   0  0  0  0  0  0  0  0  0  0  0  0
  -30.4310  -16.9610   20.8100 C   0  0  0  0  0  0  0  0  0  0  0  0
  -31.3600  -19.6350   20.9720 C   0  0  0  0  0  0  0  0  0  0  0  0
  -29.5640  -18.0480   20.5140 C   0  0  0  0  0  0  0  0  0  0  0  0
  -31.8680  -20.8920   21.0030 F   0  0  0  0  0  0  0  0  0  0  0  0
  -28.2950  -17.7820   20.1150 F   0  0  0  0  0  0  0  0  0  0  0  0
  -30.6190  -14.5840   20.1170 C   0  0  0  0  0  0  0  0  0  0  0  0
  -30.2610  -12.4380   18.9490 C   0  0  0  0  0  2  0  0  0  0  0  0
  -29.2610  -12.6420   17.7940 C   0  0  0  0  0  2  0  0  0  0  0  0
  -27.8130  -12.4830   18.2960 C   0  0  0  0  0  2  0  0  0  0  0  0
  -27.5300  -13.3070   19.5800 C   0  0  0  0  0  3  0  0  0  0  0  0
  -28.6420  -13.0990   20.6340 C   0  0  0  0  0  2  0  0  0  0  0  0
  -29.9300  -13.4150   19.9990 N   0  0  0  0  0  0  0  0  0  0  0  0
  -31.7230  -14.7480   19.5880 O   0  0  0  0  0  0  0  0  0  0  0  0
  -29.9630  -15.6100   20.7000 N   0  0  0  0  0  0  0  0  0  0  0  0
  -28.9930  -15.4470   20.9260 H   0  0  0  0  0  0  0  0  0  0  0  0
  -25.1620  -13.8800   20.4050 C   0  0  0  0  0  0  0  0  0  0  0  0
  -24.1210  -13.0920   20.8220 C   0  0  0  0  0  0  0  0  0  0  0  0
  -24.5970  -11.7460   20.7650 C   0  0  0  0  0  0  0  0  0  0  0  0
  -26.2050  -13.0130   20.1230 N   0  0  0  0  0  0  0  0  0  0  0  0
  -25.8720  -11.7240   20.3980 N   0  0  0  0  0  0  0  0  0  0  0  0
  -23.8970  -10.4750   20.9860 C   0  0  0  0  0  0  0  0  0  0  0  0
  -24.3610   -9.5300   21.9270 C   0  0  0  0  0  3  0  0  0  0  0  0
  -23.6590   -8.3230   22.1350 C   0  0  0  0  0  3  0  0  0  0  0  0
  -22.4800   -8.0520   21.4000 C   0  0  0  0  0  0  0  0  0  0  0  0
  -22.0360   -8.9850   20.4470 C   0  0  0  0  0  3  0  0  0  0  0  0
  -22.7380  -10.1840   20.2390 C   0  0  0  0  0  3  0  0  0  0  0  0
  -21.7480   -6.8940   21.5170 O   0  0  0  0  0  0  0  0  0  0  0  0
  -21.7050   -6.1840   22.6900 C   0  0  0  0  0  0  0  0  0  0  0  0
  -21.2520   -6.7640   23.8950 C   0  0  0  0  0  3  0  0  0  0  0  0
  -21.1590   -5.9780   25.0620 C   0  0  0  0  0  3  0  0  0  0  0  0
  -21.5080   -4.6160   25.0240 C   0  0  0  0  0  0  0  0  0  0  0  0
  -21.9550   -4.0350   23.8230 C   0  0  0  0  0  3  0  0  0  0  0  0
  -22.0500   -4.8180   22.6590 C   0  0  0  0  0  0  0  0  0  0  0  0
  -22.4610   -4.2500   21.4990 F   0  0  0  0  0  0  0  0  0  0  0  0
  -21.4120   -3.8590   26.1420 F   0  0  0  0  0  0  0  0  0  0  0  0
  -22.7330  -13.5520   21.1600 C   0  0  0  0  0  0  0  0  0  0  0  0
  -22.0540  -12.8420   22.0550 N   0  0  0  0  0  0  0  0  0  0  0  0
  -22.2600  -14.5750   20.6680 O   0  0  0  0  0  0  0  0  0  0  0  0
  -22.4510  -12.0140   22.4750 H   0  0  0  0  0  0  0  0  0  0  0  0
  -21.1240  -13.1300   22.3240 H   0  0  0  0  0  0  0  0  0  0  0  0
  -25.3000  -15.2530   20.2220 N   0  0  0  0  0  0  0  0  0  0  0  0
  -24.5290  -15.8950   20.3650 H   0  0  0  0  0  0  0  0  0  0  0  0
  -26.1290  -15.7060   19.8550 H   0  0  0  0  0  0  0  0  0  0  0  0
  -28.5810  -22.9360   20.0720 C   0  0  0  0  0  2  0  0  0  0  0  0
  -28.6300  -24.3820   20.6760 C   0  0  1  0  0  0  0  0  0  0  0  0
  -27.6360  -24.5220   21.5530 F   0  0  0  0  0  0  0  0  0  0  0  0
  -29.7950  -24.5620   21.3020 F   0  0  0  0  0  0  0  0  0  0  0  0
  -28.4950  -25.4990   19.5980 C   0  0  0  0  0  2  0  0  0  0  0  0
  -28.3540  -26.8340   20.1380 O   0  0  0  0  0  0  0  0  0  0  0  0
  -24.5510  -31.9720   23.2680 C   0  0  0  0  0  0  0  0  0  0  0  0
  -27.1430  -27.5140   20.1440 C   0  0  0  0  0  0  0  0  0  0  0  0
  -23.3140  -30.5690   21.6480 C   0  0  0  0  0  3  0  0  0  0  0  0
  -24.7420  -29.0330   20.1960 C   0  0  0  0  0  0  0  0  0  0  0  0
  -25.8370  -30.9270   21.4080 C   0  0  0  0  0  2  0  0  0  0  0  0
  -25.9100  -29.5560   20.7610 C   0  0  0  0  0  0  0  0  0  0  0  0
  -27.1090  -28.8060   20.7250 C   0  0  0  0  0  3  0  0  0  0  0  0
  -25.9430  -27.0030   19.5920 C   0  0  0  0  0  3  0  0  0  0  0  0
  -24.7550  -27.7580   19.6070 C   0  0  0  0  0  3  0  0  0  0  0  0
  -23.4970  -29.8890   20.2660 C   0  0  0  0  0  2  0  0  0  0  0  0
  -24.5870  -31.1700   22.1670 N   0  0  0  0  0  0  0  0  0  0  0  0
  -23.4800  -32.2470   23.8270 O   0  0  0  0  0  0  0  0  0  0  0  0
  -22.6800  -29.5500   22.6220 C   0  0  0  0  0  0  0  0  0  0  0  0
  -21.3590  -29.3440   22.4930 N   0  0  0  0  0  0  0  0  0  0  0  0
  -23.3710  -28.9490   23.4490 O   0  0  0  0  0  0  0  0  0  0  0  0
  -20.8640  -29.8780   21.7930 H   0  0  0  0  0  0  0  0  0  0  0  0
  -18.0090  -28.0790   22.9750 C   0  0  0  0  0  0  0  0  0  0  0  0
  -20.5560  -28.4040   23.2720 C   0  0  0  0  0  3  0  0  0  0  0  0
  -20.7020  -26.9650   22.7230 C   0  0  0  0  0  2  0  0  0  0  0  0
  -19.6200  -26.5960   21.7030 C   0  0  0  0  0  2  0  0  0  0  0  0
  -18.2280  -26.7200   22.3290 C   0  0  0  0  0  2  0  0  0  0  0  0
  -19.1040  -28.8750   23.4030 C   0  0  0  0  0  0  0  0  0  0  0  0
  -18.8480  -30.1440   23.9650 C   0  0  0  0  0  3  0  0  0  0  0  0
  -17.5300  -30.6170   24.1070 C   0  0  0  0  0  3  0  0  0  0  0  0
  -16.4500  -29.8170   23.6980 C   0  0  0  0  0  3  0  0  0  0  0  0
  -16.6900  -28.5500   23.1350 C   0  0  0  0  0  3  0  0  0  0  0  0
  -25.8500  -32.6020   23.8650 C   0  0  0  0  0  3  0  0  0  0  0  0
  -25.5490  -34.0000   24.1950 N   0  0  0  0  0  0  0  0  0  0  0  0
  -25.8730  -35.0500   23.4300 C   0  0  0  0  0  0  0  0  0  0  0  0
  -26.5290  -34.9440   22.3890 O   0  0  0  0  0  0  0  0  0  0  0  0
  -24.9640  -34.1580   25.0030 H   0  0  0  0  0  0  0  0  0  0  0  0
  -24.1430  -36.8470   23.0970 C   0  0  0  0  0  1  0  0  0  0  0  0
  -25.3930  -36.4400   23.8920 C   0  0  0  0  0  3  0  0  0  0  0  0
  -27.5390  -37.3230   24.6960 C   0  0  0  0  0  1  0  0  0  0  0  0
  -26.4260  -37.4920   23.7660 N   0  0  0  0  0  0  0  0  0  0  0  0
  -26.0220  -38.4110   23.9180 H   0  0  0  0  0  0  0  0  0  0  0  0
  -26.3880  -31.8320   25.1340 C   0  0  1  0  0  0  0  0  0  0  0  0
  -25.3100  -31.5930   26.2160 C   0  0  0  0  0  1  0  0  0  0  0  0
  -26.9660  -30.4540   24.7330 C   0  0  0  0  0  1  0  0  0  0  0  0
  -27.5470  -32.6280   25.7790 C   0  0  0  0  0  1  0  0  0  0  0  0
  2  1  1  0
  3  6  1  0
  3  2  1  0
  4  5  1  0
  6  8  1  0
  7  4  2  0
  8 10  1  0
  8  5  2  0
  9  6  2  0
  9  7  1  0
 11  9  1  0
 12 20  1  0
 13 18  1  0
 14 15  1  0
 14 13  1  0
 16 15  1  0
 16 25  1  0
 16 17  1  0
 18 12  1  0
 18 17  1  0
 19 12  2  0
 20  7  1  0
 20 21  1  0
 22 23  2  0
 23 42  1  0
 24 23  1  0
 24 27  1  0
 25 26  1  0
 25 22  1  0
 26 24  2  0
 27 28  1  0
 28 29  2  0
 30 33  1  0
 30 29  1  0
 31 30  2  0
 32 31  1  0
 32 27  2  0
 33 34  1  0
 34 35  1  0
 35 36  2  0
 37 36  1  0
 37 41  1  0
 38 37  2  0
 39 34  2  0
 39 38  1  0
 40 39  1  0
 42 43  1  0
 43 46  1  0
 43 45  1  0
 44 42  2  0
 47 48  1  0
 47 22  1  0
 49 47  1  0
 50 51  1  0
 50  2  1  0
 51 53  1  1
 51 52  1  0
 54 55  1  0
 54 51  1  0
 55 57  1  0
 56 67  2  0
 57 62  1  0
 58 66  1  0
 58 68  1  0
 59 65  1  0
 59 61  1  0
 60 66  1  0
 61 60  1  0
 62 61  2  0
 63 64  1  0
 63 57  2  0
 64 59  2  0
 65 58  1  0
 66 56  1  0
 68 70  2  0
 69 68  1  0
 71 69  1  0
 72 81  2  0
 72 77  1  0
 73 69  1  0
 73 77  1  0
 74 73  1  0
 75 76  1  0
 75 74  1  0
 76 72  1  0
 77 78  2  0
 78 79  1  0
 80 79  2  0
 81 80  1  0
 82 56  1  0
 82 83  1  0
 82 92  1  0
 83 86  1  0
 84 88  1  0
 84 83  1  0
 85 84  2  0
 88 87  1  0
 90 88  1  0
 90 91  1  0
 90 89  1  0
 92 95  1  1
 92 93  1  0
 94 92  1  0
M  ISO  4  12 100  20 100  54 101  55 101
M  END
>  <TORSDO>  (88) 
F 21

>  <SCORE>  (88) 
-13.591

>  <name>  (88) 
87

>  <ligand_id>  (88) 
87

>  <original_smiles>  (88) 
[H]c1c([H])c([H])c2c(c1[H])C([H])([H])C([H])([H])C([H])([H])C2([H])N([H])C(=O)C1([H])N(C(=O)C([H])(N([H])C(=O)C([H])(N([H])C([H])([H])[H])C([H])([H])[H])C(C([H])([H])[H])(C([H])([H])[H])C([H])([H])[H])C([H])([H])c2c([H])c(OC([H])([H])C(F)(F)C([H])([H])N(C([H])([H])[H])C([H])([H])c3c(F)c([H])c([H])c(N([H])C(=O)N4C([H])([H])C([H])([H])C([H])([H])C([H])(n5nc(-c6c([H])c([H])c(Oc7c([H])c([H])c(F)c([H])c7F)c([H])c6[H])c(C(=O)N([H])[H])c5N([H])[H])C4([H])[H])c3F)c([H])c([H])c2C1([H])[H]

>  <smiles>  (88) 
[H]c1c([H])c([H])c2c(c1[H])C([H])([H])C([H])([H])C([H])([H])C2([H])N([H])C(=O)C1([H])N(C(=O)C([H])(N([H])C(=O)C([H])(N([H])C([H])([H])[H])C([H])([H])[H])C(C([H])([H])[H])(C([H])([H])[H])C([H])([H])[H])C([H])([H])c2c([H])c(OC([H])([H])C(F)(F)C([H])([H])N(C([H])([H])[H])C([H])([H])c3c(F)c([H])c([H])c(N([H])C(=O)N4C([H])([H])C([H])([H])C([H])([H])C([H])(n5nc(-c6c([H])c([H])c(Oc7c([H])c([H])c(F)c([H])c7F)c([H])c6[H])c(C(=O)N([H])[H])c5N([H])[H])C4([H])[H])c3F)c([H])c([H])c2C1([H])[H]

$$$$
88:0:0
     RDKit          3D

 91 99  0  0  1  0  0  0  0  0999 V2000
  -28.8900  -22.9490   20.4080 C   0  0  0  0  0  3  0  0  0  0  0  0
  -30.4970  -15.2040   20.0330 C   0  0  0  0  0  0  0  0  0  0  0  0
  -30.3530  -12.8000   19.1110 C   0  0  0  0  0  2  0  0  0  0  0  0
  -29.3800  -12.6580   17.9170 C   0  0  0  0  0  2  0  0  0  0  0  0
  -27.9510  -12.3980   18.4210 C   0  0  0  0  0  2  0  0  0  0  0  0
  -27.5630  -13.3430   19.5870 C   0  0  0  0  0  3  0  0  0  0  0  0
  -28.6630  -13.4650   20.6640 C   0  0  0  0  0  2  0  0  0  0  0  0
  -29.8720  -13.9380   19.9750 N   0  0  0  0  0  0  0  0  0  0  0  0
  -31.7000  -15.1710   19.7380 O   0  0  0  0  0  0  0  0  0  0  0  0
  -28.7380  -21.4130   19.6510 C   0  0  0  0  0  0  0  0  0  0  0  0
  -29.0090  -18.8790   18.9170 C   0  0  0  0  0  3  0  0  0  0  0  0
  -29.6670  -19.1900   21.1210 C   0  0  0  0  0  3  0  0  0  0  0  0
  -29.9840  -17.5570   18.9610 C   0  0  0  0  0  3  0  0  0  0  0  0
  -29.5780  -17.4950   21.2100 C   0  0  0  0  0  3  0  0  0  0  0  0
  -29.1500  -20.0130   19.9310 N   0  0  0  0  0  0  0  0  0  0  0  0
  -29.8030  -16.5090   20.0410 N   0  0  0  0  0  0  0  0  0  0  0  0
  -28.1790  -21.5470   18.5570 O   0  0  0  0  0  0  0  0  0  0  0  0
  -25.2240  -13.8850   20.4420 C   0  0  0  0  0  0  0  0  0  0  0  0
  -24.1800  -13.0970   20.8420 C   0  0  0  0  0  0  0  0  0  0  0  0
  -24.6510  -11.7490   20.7750 C   0  0  0  0  0  0  0  0  0  0  0  0
  -26.2610  -13.0170   20.1490 N   0  0  0  0  0  0  0  0  0  0  0  0
  -25.9320  -11.7270   20.4190 N   0  0  0  0  0  0  0  0  0  0  0  0
  -23.9400  -10.4800   20.9730 C   0  0  0  0  0  0  0  0  0  0  0  0
  -24.3900   -9.5150   21.9020 C   0  0  0  0  0  3  0  0  0  0  0  0
  -23.6730   -8.3130   22.0890 C   0  0  0  0  0  3  0  0  0  0  0  0
  -22.4940   -8.0660   21.3470 C   0  0  0  0  0  0  0  0  0  0  0  0
  -22.0640   -9.0190   20.4070 C   0  0  0  0  0  3  0  0  0  0  0  0
  -22.7790  -10.2120   20.2170 C   0  0  0  0  0  3  0  0  0  0  0  0
  -21.7480   -6.9150   21.4450 O   0  0  0  0  0  0  0  0  0  0  0  0
  -21.6870   -6.1950   22.6100 C   0  0  0  0  0  0  0  0  0  0  0  0
  -21.2200   -6.7630   23.8160 C   0  0  0  0  0  3  0  0  0  0  0  0
  -21.1070   -5.9670   24.9720 C   0  0  0  0  0  3  0  0  0  0  0  0
  -21.4520   -4.6020   24.9250 C   0  0  0  0  0  0  0  0  0  0  0  0
  -21.9110   -4.0320   23.7250 C   0  0  0  0  0  3  0  0  0  0  0  0
  -22.0230   -4.8260   22.5690 C   0  0  0  0  0  0  0  0  0  0  0  0
  -22.4460   -4.2670   21.4100 F   0  0  0  0  0  0  0  0  0  0  0  0
  -21.3350   -3.8350   26.0340 F   0  0  0  0  0  0  0  0  0  0  0  0
  -22.7930  -13.5630   21.1710 C   0  0  0  0  0  0  0  0  0  0  0  0
  -22.1070  -12.8540   22.0590 N   0  0  0  0  0  0  0  0  0  0  0  0
  -22.3320  -14.5910   20.6760 O   0  0  0  0  0  0  0  0  0  0  0  0
  -22.4950  -12.0200   22.4760 H   0  0  0  0  0  0  0  0  0  0  0  0
  -21.1800  -13.1500   22.3310 H   0  0  0  0  0  0  0  0  0  0  0  0
  -25.3790  -15.2580   20.2730 N   0  0  0  0  0  0  0  0  0  0  0  0
  -24.6170  -15.9170   20.3880 H   0  0  0  0  0  0  0  0  0  0  0  0
  -26.2170  -15.6840   19.8950 H   0  0  0  0  0  0  0  0  0  0  0  0
  -30.3280  -23.2840   20.4290 N   0  0  0  0  0  4  0  0  0  0  0  0
  -30.6890  -23.3320   19.4900 H   0  0  0  0  0  0  0  0  0  0  0  0
  -30.8530  -22.5920   20.9350 H   0  0  0  0  0  0  0  0  0  0  0  0
  -30.4730  -24.1770   20.8670 H   0  0  0  0  0  0  0  0  0  0  0  0
  -28.0450  -24.4340   19.9470 C   0  0  0  0  0  2  0  0  0  0  0  0
  -28.2210  -25.9980   20.3390 O   0  0  0  0  0  0  0  0  0  0  0  0
  -24.6790  -31.8790   23.3090 C   0  0  0  0  0  0  0  0  0  0  0  0
  -27.2030  -27.0620   20.2490 C   0  0  0  0  0  0  0  0  0  0  0  0
  -23.4730  -30.5060   21.6590 C   0  0  0  0  0  3  0  0  0  0  0  0
  -24.9070  -28.9140   20.2220 C   0  0  0  0  0  0  0  0  0  0  0  0
  -26.0390  -30.7130   21.5150 C   0  0  0  0  0  2  0  0  0  0  0  0
  -26.0950  -29.3190   20.8420 C   0  0  0  0  0  0  0  0  0  0  0  0
  -27.2390  -28.4120   20.8330 C   0  0  0  0  0  3  0  0  0  0  0  0
  -25.9850  -26.7910   19.5860 C   0  0  0  0  0  3  0  0  0  0  0  0
  -24.8700  -27.6660   19.5810 C   0  0  0  0  0  3  0  0  0  0  0  0
  -23.6930  -29.8370   20.2770 C   0  0  0  0  0  2  0  0  0  0  0  0
  -24.7510  -31.0560   22.2150 N   0  0  0  0  0  0  0  0  0  0  0  0
  -23.5930  -32.1750   23.8340 O   0  0  0  0  0  0  0  0  0  0  0  0
  -22.7750  -29.5050   22.6180 C   0  0  0  0  0  0  0  0  0  0  0  0
  -21.4460  -29.3420   22.4820 N   0  0  0  0  0  0  0  0  0  0  0  0
  -23.4350  -28.8780   23.4510 O   0  0  0  0  0  0  0  0  0  0  0  0
  -20.9690  -29.8950   21.7850 H   0  0  0  0  0  0  0  0  0  0  0  0
  -18.0600  -28.1270   22.9400 C   0  0  0  0  0  0  0  0  0  0  0  0
  -20.6130  -28.4060   23.2460 C   0  0  0  0  0  3  0  0  0  0  0  0
  -20.7310  -26.9700   22.6850 C   0  0  0  0  0  2  0  0  0  0  0  0
  -19.6490  -26.6350   21.6530 C   0  0  0  0  0  2  0  0  0  0  0  0
  -18.2530  -26.7780   22.2650 C   0  0  0  0  0  2  0  0  0  0  0  0
  -19.1680  -28.8990   23.3840 C   0  0  0  0  0  0  0  0  0  0  0  0
  -18.9310  -30.1590   23.9760 C   0  0  0  0  0  3  0  0  0  0  0  0
  -17.6210  -30.6510   24.1240 C   0  0  0  0  0  3  0  0  0  0  0  0
  -16.5280  -29.8770   23.6960 C   0  0  0  0  0  3  0  0  0  0  0  0
  -16.7490  -28.6170   23.1110 C   0  0  0  0  0  3  0  0  0  0  0  0
  -25.9590  -32.5030   23.9440 C   0  0  0  0  0  3  0  0  0  0  0  0
  -26.4450  -31.7380   25.2370 C   0  0  1  0  0  0  0  0  0  0  0  0
  -25.3320  -31.5330   26.2920 C   0  0  0  0  0  1  0  0  0  0  0  0
  -27.0110  -30.3450   24.8800 C   0  0  0  0  0  1  0  0  0  0  0  0
  -27.6040  -32.5200   25.8990 C   0  0  0  0  0  1  0  0  0  0  0  0
  -25.6620  -33.9100   24.2650 N   0  0  0  0  0  0  0  0  0  0  0  0
  -25.9920  -34.9600   23.5010 C   0  0  0  0  0  0  0  0  0  0  0  0
  -26.6450  -34.8440   22.4600 O   0  0  0  0  0  0  0  0  0  0  0  0
  -25.0820  -34.0740   25.0740 H   0  0  0  0  0  0  0  0  0  0  0  0
  -24.2590  -36.7610   23.2010 C   0  0  0  0  0  1  0  0  0  0  0  0
  -25.5300  -36.3560   23.9640 C   0  0  0  0  0  3  0  0  0  0  0  0
  -27.7000  -37.2430   24.7000 C   0  0  0  0  0  1  0  0  0  0  0  0
  -26.5630  -37.4040   23.7980 N   0  0  0  0  0  0  0  0  0  0  0  0
  -26.1680  -38.3280   23.9480 H   0  0  0  0  0  0  0  0  0  0  0  0
  1 50  1  0
  1 46  1  0
  2 16  1  0
  3  8  1  0
  4  5  1  0
  4  3  1  0
  6  5  1  0
  6 21  1  0
  6  7  1  0
  8  2  1  0
  8  7  1  0
  9  2  2  0
 10 15  1  0
 10  1  1  0
 11 13  2  0
 11 15  1  0
 12 14  2  0
 13 16  1  0
 15 12  1  0
 16 14  1  0
 17 10  2  0
 18 19  2  0
 19 38  1  0
 20 19  1  0
 20 23  1  0
 21 22  1  0
 21 18  1  0
 22 20  2  0
 23 24  1  0
 24 25  2  0
 26 29  1  0
 26 25  1  0
 27 26  2  0
 28 27  1  0
 28 23  2  0
 29 30  1  0
 30 31  1  0
 31 32  2  0
 33 32  1  0
 33 37  1  0
 34 33  2  0
 35 30  2  0
 35 34  1  0
 36 35  1  0
 38 39  1  0
 39 42  1  0
 39 41  1  0
 40 38  2  0
 43 44  1  0
 43 18  1  0
 45 43  1  0
 46 49  1  0
 46 48  1  0
 47 46  1  0
 50 51  1  0
 52 63  2  0
 53 51  1  0
 53 58  1  0
 54 62  1  0
 54 64  1  0
 55 61  1  0
 55 57  1  0
 56 62  1  0
 57 56  1  0
 58 57  2  0
 59 53  2  0
 60 59  1  0
 60 55  2  0
 61 54  1  0
 62 52  1  0
 64 66  2  0
 65 64  1  0
 67 65  1  0
 68 77  2  0
 68 73  1  0
 69 65  1  0
 69 73  1  0
 70 69  1  0
 71 72  1  0
 71 70  1  0
 72 68  1  0
 73 74  2  0
 74 75  1  0
 76 75  2  0
 77 76  1  0
 78 52  1  0
 78 83  1  0
 78 79  1  0
 79 82  1  1
 79 80  1  0
 81 79  1  0
 83 86  1  0
 84 88  1  0
 84 83  1  0
 85 84  2  0
 88 87  1  0
 90 91  1  0
 90 88  1  0
 90 89  1  0
M  ISO  4   2 100  16 100  50 101  51 101
M  END
>  <TORSDO>  (89) 
F 18

>  <SCORE>  (89) 
-16.000

>  <name>  (89) 
88

>  <ligand_id>  (89) 
88

>  <original_smiles>  (89) 
[H]c1c([H])c([H])c2c(c1[H])C([H])([H])C([H])([H])C([H])([H])C2([H])N([H])C(=O)C1([H])N(C(=O)C([H])(N([H])C(=O)C([H])(N([H])C([H])([H])[H])C([H])([H])[H])C(C([H])([H])[H])(C([H])([H])[H])C([H])([H])[H])C([H])([H])c2c([H])c(OC([H])([H])C([H])(C(=O)N3C([H])([H])C([H])([H])N(C(=O)N4C([H])([H])C([H])([H])C([H])([H])C([H])(n5nc(-c6c([H])c([H])c(Oc7c([H])c([H])c(F)c([H])c7F)c([H])c6[H])c(C(=O)N([H])[H])c5N([H])[H])C4([H])[H])C([H])([H])C3([H])[H])[N+]([H])([H])[H])c([H])c([H])c2C1([H])[H]

>  <smiles>  (89) 
[H]c1c([H])c([H])c2c(c1[H])C([H])([H])C([H])([H])C([H])([H])C2([H])N([H])C(=O)C1([H])N(C(=O)C([H])(N([H])C(=O)C([H])(N([H])C([H])([H])[H])C([H])([H])[H])C(C([H])([H])[H])(C([H])([H])[H])C([H])([H])[H])C([H])([H])c2c([H])c(OC([H])([H])C([H])(C(=O)N3C([H])([H])C([H])([H])N(C(=O)N4C([H])([H])C([H])([H])C([H])([H])C([H])(n5nc(-c6c([H])c([H])c(Oc7c([H])c([H])c(F)c([H])c7F)c([H])c6[H])c(C(=O)N([H])[H])c5N([H])[H])C4([H])[H])C([H])([H])C3([H])[H])[N+]([H])([H])[H])c([H])c([H])c2C1([H])[H]

$$$$
89:0:0
     RDKit          3D

 94103  0  0  1  0  0  0  0  0999 V2000
  -27.5090  -20.0960   19.9710 C   0  0  0  0  0  2  0  0  0  0  0  0
  -27.1640  -21.5850   19.9780 C   0  0  0  0  0  2  0  0  0  0  0  0
  -28.7680  -20.5350   20.7410 C   0  0  0  0  0  3  0  0  0  0  0  0
  -28.6090  -21.7850   19.9760 N   0  0  0  0  0  0  0  0  0  0  0  0
  -30.0640  -19.7120   20.5920 C   0  0  0  0  0  2  0  0  0  0  0  0
  -30.3030  -18.9980   22.9450 C   0  0  0  0  0  1  0  0  0  0  0  0
  -30.0440  -18.5680   21.5490 N   0  0  2  0  0  4  0  0  0  0  0  0
  -29.0870  -18.2520   21.5310 H   0  0  0  0  0  0  0  0  0  0  0  0
  -31.5310  -14.4620   19.9270 C   0  0  0  0  0  0  0  0  0  0  0  0
  -31.1370  -12.2560   18.8890 C   0  0  0  0  0  2  0  0  0  0  0  0
  -30.1100  -12.4310   17.7500 C   0  0  0  0  0  2  0  0  0  0  0  0
  -28.6650  -12.3590   18.2890 C   0  0  0  0  0  2  0  0  0  0  0  0
  -28.4450  -13.2510   19.5400 C   0  0  0  0  0  3  0  0  0  0  0  0
  -29.5690  -13.0050   20.5710 C   0  0  0  0  0  2  0  0  0  0  0  0
  -30.8530  -13.2810   19.9040 N   0  0  0  0  0  0  0  0  0  0  0  0
  -32.6230  -14.6120   19.3680 O   0  0  0  0  0  0  0  0  0  0  0  0
  -30.2510  -16.0130   21.5160 C   0  0  0  0  0  2  0  0  0  0  0  0
  -30.8380  -16.9210   19.7090 C   0  0  0  0  0  2  0  0  0  0  0  0
  -30.8640  -17.3750   21.1700 C   0  0  0  0  0  3  0  0  0  0  0  0
  -30.7660  -15.5420   20.2230 N   0  0  0  0  0  0  0  0  0  0  0  0
  -26.1800  -13.9900   20.5160 C   0  0  0  0  0  0  0  0  0  0  0  0
  -25.0870  -13.2750   20.9250 C   0  0  0  0  0  0  0  0  0  0  0  0
  -25.4240  -11.8990   20.7440 C   0  0  0  0  0  0  0  0  0  0  0  0
  -27.1190  -13.0510   20.1180 N   0  0  0  0  0  0  0  0  0  0  0  0
  -26.6730  -11.7830   20.3100 N   0  0  0  0  0  0  0  0  0  0  0  0
  -24.6140  -10.6850   20.9020 C   0  0  0  0  0  0  0  0  0  0  0  0
  -24.9880   -9.6630   21.8030 C   0  0  0  0  0  3  0  0  0  0  0  0
  -24.1840   -8.5120   21.9520 C   0  0  0  0  0  3  0  0  0  0  0  0
  -22.9900   -8.3790   21.2040 C   0  0  0  0  0  0  0  0  0  0  0  0
  -22.6340   -9.3890   20.2930 C   0  0  0  0  0  3  0  0  0  0  0  0
  -23.4390  -10.5300   20.1400 C   0  0  0  0  0  3  0  0  0  0  0  0
  -22.1610   -7.2850   21.2630 O   0  0  0  0  0  0  0  0  0  0  0  0
  -21.9960   -6.5710   22.4230 C   0  0  0  0  0  0  0  0  0  0  0  0
  -21.5470   -7.1780   23.6160 C   0  0  0  0  0  3  0  0  0  0  0  0
  -21.3230   -6.3920   24.7650 C   0  0  0  0  0  3  0  0  0  0  0  0
  -21.5410   -5.0010   24.7210 C   0  0  0  0  0  0  0  0  0  0  0  0
  -21.9840   -4.3940   23.5330 C   0  0  0  0  0  3  0  0  0  0  0  0
  -22.2070   -5.1770   22.3860 C   0  0  0  0  0  0  0  0  0  0  0  0
  -22.6120   -4.5850   21.2370 F   0  0  0  0  0  0  0  0  0  0  0  0
  -21.3220   -4.2450   25.8220 F   0  0  0  0  0  0  0  0  0  0  0  0
  -23.7670  -13.8320   21.3710 C   0  0  0  0  0  0  0  0  0  0  0  0
  -23.0870  -13.1410   22.2790 N   0  0  0  0  0  0  0  0  0  0  0  0
  -23.3530  -14.9110   20.9500 O   0  0  0  0  0  0  0  0  0  0  0  0
  -23.4370  -12.2640   22.6350 H   0  0  0  0  0  0  0  0  0  0  0  0
  -22.2030  -13.4930   22.6200 H   0  0  0  0  0  0  0  0  0  0  0  0
  -26.4480  -15.3530   20.4290 N   0  0  0  0  0  0  0  0  0  0  0  0
  -25.7480  -16.0540   20.6400 H   0  0  0  0  0  0  0  0  0  0  0  0
  -27.2720  -15.7380   19.9850 H   0  0  0  0  0  0  0  0  0  0  0  0
  -29.0460  -23.0230   20.6530 C   0  0  0  0  0  2  0  0  0  0  0  0
  -28.3490  -24.3240   20.1450 C   0  0  0  0  0  3  0  0  0  0  0  0
  -27.0960  -24.3630   20.8120 O   0  0  0  0  0  0  0  0  0  0  0  0
  -26.7060  -25.2130   20.6350 H   0  0  0  0  0  0  0  0  0  0  0  0
  -29.0860  -25.6550   20.4570 C   0  0  0  0  0  2  0  0  0  0  0  0
  -28.8870  -26.6690   19.4550 O   0  0  0  0  0  0  0  0  0  0  0  0
  -24.8850  -31.3310   23.0650 C   0  0  0  0  0  0  0  0  0  0  0  0
  -27.7060  -27.3680   19.5400 C   0  0  0  0  0  0  0  0  0  0  0  0
  -23.7440  -30.0970   21.2490 C   0  0  0  0  0  3  0  0  0  0  0  0
  -25.2660  -28.7800   19.6810 C   0  0  0  0  0  0  0  0  0  0  0  0
  -26.2580  -30.5510   21.1390 C   0  0  0  0  0  2  0  0  0  0  0  0
  -26.3950  -29.2640   20.3550 C   0  0  0  0  0  0  0  0  0  0  0  0
  -27.6180  -28.5590   20.2910 C   0  0  0  0  0  3  0  0  0  0  0  0
  -26.5750  -26.9190   18.8270 C   0  0  0  0  0  3  0  0  0  0  0  0
  -25.3490  -27.6040   18.9160 C   0  0  0  0  0  3  0  0  0  0  0  0
  -23.9930  -29.5860   19.8050 C   0  0  0  0  0  2  0  0  0  0  0  0
  -24.9790  -30.6680   21.8770 N   0  0  0  0  0  0  0  0  0  0  0  0
  -23.7900  -31.5030   23.6160 O   0  0  0  0  0  0  0  0  0  0  0  0
  -23.1130  -28.9520   22.0720 C   0  0  0  0  0  0  0  0  0  0  0  0
  -21.7930  -28.7600   21.9150 N   0  0  0  0  0  0  0  0  0  0  0  0
  -23.8060  -28.2450   22.8070 O   0  0  0  0  0  0  0  0  0  0  0  0
  -21.2940  -29.3860   21.2990 H   0  0  0  0  0  0  0  0  0  0  0  0
  -18.4470  -27.4340   22.2230 C   0  0  0  0  0  0  0  0  0  0  0  0
  -20.9930  -27.7180   22.5590 C   0  0  0  0  0  3  0  0  0  0  0  0
  -21.1390  -26.3680   21.8200 C   0  0  0  0  0  2  0  0  0  0  0  0
  -20.0560  -26.1410   20.7590 C   0  0  0  0  0  2  0  0  0  0  0  0
  -18.6640  -26.1780   21.3960 C   0  0  0  0  0  2  0  0  0  0  0  0
  -19.5420  -28.1660   22.7540 C   0  0  0  0  0  0  0  0  0  0  0  0
  -19.2840  -29.3470   23.4840 C   0  0  0  0  0  3  0  0  0  0  0  0
  -17.9660  -29.7960   23.6890 C   0  0  0  0  0  3  0  0  0  0  0  0
  -16.8860  -29.0580   23.1740 C   0  0  0  0  0  3  0  0  0  0  0  0
  -17.1260  -27.8790   22.4470 C   0  0  0  0  0  3  0  0  0  0  0  0
  -26.1450  -31.9200   23.7730 C   0  0  0  0  0  3  0  0  0  0  0  0
  -25.7850  -33.2520   24.2760 N   0  0  0  0  0  0  0  0  0  0  0  0
  -26.1020  -34.4040   23.6700 C   0  0  0  0  0  0  0  0  0  0  0  0
  -26.8000  -34.4560   22.6530 O   0  0  0  0  0  0  0  0  0  0  0  0
  -25.1650  -33.2850   25.0720 H   0  0  0  0  0  0  0  0  0  0  0  0
  -24.3260  -36.1780   23.5070 C   0  0  0  0  0  1  0  0  0  0  0  0
  -25.5590  -35.7060   24.2910 C   0  0  0  0  0  3  0  0  0  0  0  0
  -27.6430  -36.5360   25.2900 C   0  0  0  0  0  1  0  0  0  0  0  0
  -26.5600  -36.7940   24.3440 N   0  0  0  0  0  0  0  0  0  0  0  0
  -26.1220  -37.6740   24.5970 H   0  0  0  0  0  0  0  0  0  0  0  0
  -26.6840  -31.0080   24.9430 C   0  0  1  0  0  0  0  0  0  0  0  0
  -25.5970  -30.6020   25.9660 C   0  0  0  0  0  1  0  0  0  0  0  0
  -27.3090  -29.7100   24.3790 C   0  0  0  0  0  1  0  0  0  0  0  0
  -27.8110  -31.7440   25.7040 C   0  0  0  0  0  1  0  0  0  0  0  0
  1  2  1  0
  1  3  1  0
  3  5  1  0
  4  2  1  0
  4 49  1  0
  4  3  1  0
  5  7  1  0
  7  6  1  0
  7  8  1  1
  9 20  1  0
 10 15  1  0
 11 12  1  0
 11 10  1  0
 13 12  1  0
 13 24  1  0
 13 14  1  0
 15  9  1  0
 15 14  1  0
 16  9  2  0
 18 20  1  0
 18 19  1  0
 19 17  1  0
 19  7  1  0
 20 17  1  0
 21 22  2  0
 22 41  1  0
 23 26  1  0
 23 22  1  0
 24 25  1  0
 24 21  1  0
 25 23  2  0
 26 27  1  0
 27 28  2  0
 29 32  1  0
 29 28  1  0
 30 29  2  0
 31 30  1  0
 31 26  2  0
 32 33  1  0
 33 34  1  0
 34 35  2  0
 36 35  1  0
 36 40  1  0
 37 36  2  0
 38 33  2  0
 38 37  1  0
 39 38  1  0
 41 42  1  0
 42 45  1  0
 42 44  1  0
 43 41  2  0
 46 21  1  0
 46 47  1  0
 48 46  1  0
 50 53  1  0
 50 49  1  0
 50 51  1  0
 52 51  1  0
 54 56  1  0
 54 53  1  0
 55 66  2  0
 56 61  1  0
 57 65  1  0
 57 67  1  0
 58 64  1  0
 58 60  1  0
 59 65  1  0
 60 59  1  0
 61 60  2  0
 62 63  1  0
 62 56  2  0
 63 58  2  0
 64 57  1  0
 65 55  1  0
 67 69  2  0
 68 67  1  0
 70 68  1  0
 71 80  2  0
 71 76  1  0
 72 68  1  0
 72 76  1  0
 73 72  1  0
 74 75  1  0
 74 73  1  0
 75 71  1  0
 76 77  2  0
 77 78  1  0
 79 78  2  0
 80 79  1  0
 81 55  1  0
 81 82  1  0
 81 91  1  0
 82 85  1  0
 83 82  1  0
 83 87  1  0
 84 83  2  0
 87 86  1  0
 87 89  1  0
 89 90  1  0
 89 88  1  0
 91 94  1  1
 91 92  1  0
 93 91  1  0
M  ISO  4   9 100  20 100  53 101  54 101
M  END
>  <TORSDO>  (90) 
F 22

>  <SCORE>  (90) 
-10.086

>  <name>  (90) 
89

>  <ligand_id>  (90) 
89

>  <original_smiles>  (90) 
[H]OC([H])(C([H])([H])Oc1c([H])c([H])c2c(c1[H])C([H])([H])N(C(=O)C([H])(N([H])C(=O)C([H])(N([H])C([H])([H])[H])C([H])([H])[H])C(C([H])([H])[H])(C([H])([H])[H])C([H])([H])[H])C([H])(C(=O)N([H])C1([H])c3c([H])c([H])c([H])c([H])c3C([H])([H])C([H])([H])C1([H])[H])C2([H])[H])C([H])([H])N1C([H])([H])C([H])([H])C1([H])C([H])([H])[N+]([H])(C([H])([H])[H])C1([H])C([H])([H])N(C(=O)N2C([H])([H])C([H])([H])C([H])([H])C([H])(n3nc(-c4c([H])c([H])c(Oc5c([H])c([H])c(F)c([H])c5F)c([H])c4[H])c(C(=O)N([H])[H])c3N([H])[H])C2([H])[H])C1([H])[H]

>  <smiles>  (90) 
[H]OC([H])(C([H])([H])Oc1c([H])c([H])c2c(c1[H])C([H])([H])N(C(=O)C([H])(N([H])C(=O)C([H])(N([H])C([H])([H])[H])C([H])([H])[H])C(C([H])([H])[H])(C([H])([H])[H])C([H])([H])[H])C([H])(C(=O)N([H])C1([H])c3c([H])c([H])c([H])c([H])c3C([H])([H])C([H])([H])C1([H])[H])C2([H])[H])C([H])([H])N1C([H])([H])C([H])([H])C1([H])C([H])([H])[N+]([H])(C([H])([H])[H])C1([H])C([H])([H])N(C(=O)N2C([H])([H])C([H])([H])C([H])([H])C([H])(n3nc(-c4c([H])c([H])c(Oc5c([H])c([H])c(F)c([H])c5F)c([H])c4[H])c(C(=O)N([H])[H])c3N([H])[H])C2([H])[H])C1([H])[H]

$$$$
90:0:0
     RDKit          3D

 94102  0  0  1  0  0  0  0  0999 V2000
  -28.8960  -17.9590   20.6870 C   0  0  0  0  0  3  0  0  0  0  0  0
  -30.0730  -20.1340   20.5430 C   0  0  0  0  0  0  0  0  0  0  0  0
  -30.0900  -17.1930   20.5640 C   0  0  0  0  0  0  0  0  0  0  0  0
  -28.8830  -19.3830   20.6820 C   0  0  0  0  0  0  0  0  0  0  0  0
  -31.2710  -19.3800   20.3900 C   0  0  0  0  0  0  0  0  0  0  0  0
  -31.2860  -17.9530   20.4100 C   0  0  0  0  0  0  0  0  0  0  0  0
  -27.7080  -20.0400   20.8400 F   0  0  0  0  0  0  0  0  0  0  0  0
  -32.4520  -20.0350   20.2670 F   0  0  0  0  0  0  0  0  0  0  0  0
  -32.4890  -17.3390   20.3260 F   0  0  0  0  0  0  0  0  0  0  0  0
  -30.7400  -14.6780   20.2270 C   0  0  0  0  0  0  0  0  0  0  0  0
  -30.4510  -12.4580   19.1490 C   0  0  0  0  0  2  0  0  0  0  0  0
  -29.4930  -12.6310   17.9510 C   0  0  0  0  0  2  0  0  0  0  0  0
  -28.0220  -12.5050   18.4010 C   0  0  0  0  0  2  0  0  0  0  0  0
  -27.7070  -13.3560   19.6610 C   0  0  0  0  0  3  0  0  0  0  0  0
  -28.7820  -13.1620   20.7540 C   0  0  0  0  0  2  0  0  0  0  0  0
  -30.0910  -13.4740   20.1570 N   0  0  0  0  0  0  0  0  0  0  0  0
  -31.8840  -14.8060   19.7910 O   0  0  0  0  0  0  0  0  0  0  0  0
  -29.9740  -15.7310   20.6490 N   0  0  0  0  0  0  0  0  0  0  0  0
  -29.0740  -15.4120   20.9730 H   0  0  0  0  0  0  0  0  0  0  0  0
  -25.3370  -13.9940   20.4230 C   0  0  0  0  0  0  0  0  0  0  0  0
  -24.2630  -13.2400   20.8120 C   0  0  0  0  0  0  0  0  0  0  0  0
  -24.6980  -11.8800   20.7650 C   0  0  0  0  0  0  0  0  0  0  0  0
  -26.3620  -13.0960   20.1680 N   0  0  0  0  0  0  0  0  0  0  0  0
  -25.9830  -11.8180   20.4310 N   0  0  0  0  0  0  0  0  0  0  0  0
  -23.9520  -10.6300   20.9660 C   0  0  0  0  0  0  0  0  0  0  0  0
  -24.3680   -9.6620   21.9060 C   0  0  0  0  0  3  0  0  0  0  0  0
  -23.6250   -8.4780   22.0930 C   0  0  0  0  0  3  0  0  0  0  0  0
  -22.4470   -8.2540   21.3410 C   0  0  0  0  0  0  0  0  0  0  0  0
  -22.0480   -9.2100   20.3910 C   0  0  0  0  0  3  0  0  0  0  0  0
  -22.7930  -10.3870   20.2020 C   0  0  0  0  0  3  0  0  0  0  0  0
  -21.6730   -7.1220   21.4370 O   0  0  0  0  0  0  0  0  0  0  0  0
  -21.5940   -6.4010   22.6010 C   0  0  0  0  0  0  0  0  0  0  0  0
  -21.1120   -6.9710   23.7990 C   0  0  0  0  0  3  0  0  0  0  0  0
  -20.9810   -6.1750   24.9540 C   0  0  0  0  0  3  0  0  0  0  0  0
  -21.3250   -4.8100   24.9130 C   0  0  0  0  0  0  0  0  0  0  0  0
  -21.8010   -4.2390   23.7200 C   0  0  0  0  0  3  0  0  0  0  0  0
  -21.9330   -5.0330   22.5670 C   0  0  0  0  0  0  0  0  0  0  0  0
  -22.3720   -4.4720   21.4150 F   0  0  0  0  0  0  0  0  0  0  0  0
  -21.1910   -4.0440   26.0210 F   0  0  0  0  0  0  0  0  0  0  0  0
  -22.8810  -13.7430   21.1110 C   0  0  0  0  0  0  0  0  0  0  0  0
  -22.1520  -13.0540   21.9820 N   0  0  0  0  0  0  0  0  0  0  0  0
  -22.4550  -14.7830   20.6080 O   0  0  0  0  0  0  0  0  0  0  0  0
  -22.5070  -12.2150   22.4140 H   0  0  0  0  0  0  0  0  0  0  0  0
  -21.2230  -13.3730   22.2250 H   0  0  0  0  0  0  0  0  0  0  0  0
  -25.5210  -15.3620   20.2440 N   0  0  0  0  0  0  0  0  0  0  0  0
  -24.7530  -16.0170   20.3420 H   0  0  0  0  0  0  0  0  0  0  0  0
  -26.3460  -15.7780   19.8340 H   0  0  0  0  0  0  0  0  0  0  0  0
  -30.1140  -21.6950   20.7430 C   0  0  0  0  0  2  0  0  0  0  0  0
  -29.3320  -22.3430   18.4750 C   0  0  0  0  0  1  0  0  0  0  0  0
  -29.2410  -22.6300   19.9270 N   0  0  2  0  0  4  0  0  0  0  0  0
  -28.2940  -22.4000   20.1980 H   0  0  0  0  0  0  0  0  0  0  0  0
  -29.4430  -24.1120   20.2540 C   0  0  0  0  0  3  0  0  0  0  0  0
  -28.3290  -25.1280   19.7630 C   0  0  0  0  0  3  0  0  0  0  0  0
  -28.4640  -26.5620   20.0920 O   0  0  0  0  0  0  0  0  0  0  0  0
  -24.5380  -31.7810   23.1200 C   0  0  0  0  0  0  0  0  0  0  0  0
  -27.3190  -27.3680   20.0180 C   0  0  0  0  0  0  0  0  0  0  0  0
  -23.3990  -30.3980   21.4190 C   0  0  0  0  0  3  0  0  0  0  0  0
  -24.9150  -28.9150   19.9920 C   0  0  0  0  0  0  0  0  0  0  0  0
  -25.9350  -30.7770   21.3020 C   0  0  0  0  0  2  0  0  0  0  0  0
  -26.0570  -29.4180   20.6270 C   0  0  0  0  0  0  0  0  0  0  0  0
  -27.2610  -28.6560   20.6320 C   0  0  0  0  0  3  0  0  0  0  0  0
  -26.1500  -26.9180   19.3570 C   0  0  0  0  0  3  0  0  0  0  0  0
  -24.9620  -27.6710   19.3490 C   0  0  0  0  0  3  0  0  0  0  0  0
  -23.6590  -29.7610   20.0290 C   0  0  0  0  0  2  0  0  0  0  0  0
  -24.6420  -31.0020   22.0050 N   0  0  0  0  0  0  0  0  0  0  0  0
  -23.4370  -32.0240   23.6350 O   0  0  0  0  0  0  0  0  0  0  0  0
  -22.7380  -29.3450   22.3380 C   0  0  0  0  0  0  0  0  0  0  0  0
  -21.4070  -29.1930   22.2230 N   0  0  0  0  0  0  0  0  0  0  0  0
  -23.4190  -28.6700   23.1160 O   0  0  0  0  0  0  0  0  0  0  0  0
  -20.9180  -29.7910   21.5710 H   0  0  0  0  0  0  0  0  0  0  0  0
  -18.0090  -28.0860   22.7810 C   0  0  0  0  0  0  0  0  0  0  0  0
  -20.5840  -28.2340   22.9610 C   0  0  0  0  0  3  0  0  0  0  0  0
  -20.6080  -26.8430   22.2870 C   0  0  0  0  0  2  0  0  0  0  0  0
  -19.4560  -26.6300   21.3000 C   0  0  0  0  0  2  0  0  0  0  0  0
  -18.1070  -26.7810   22.0090 C   0  0  0  0  0  2  0  0  0  0  0  0
  -19.1720  -28.7760   23.2160 C   0  0  0  0  0  0  0  0  0  0  0  0
  -19.0250  -30.0000   23.9020 C   0  0  0  0  0  3  0  0  0  0  0  0
  -17.7490  -30.5360   24.1550 C   0  0  0  0  0  3  0  0  0  0  0  0
  -16.6010  -29.8420   23.7360 C   0  0  0  0  0  3  0  0  0  0  0  0
  -16.7310  -28.6190   23.0560 C   0  0  0  0  0  3  0  0  0  0  0  0
  -25.7930  -32.4230   23.7870 C   0  0  0  0  0  3  0  0  0  0  0  0
  -26.2830  -31.6430   25.0680 C   0  0  1  0  0  0  0  0  0  0  0  0
  -25.1640  -31.3780   26.1030 C   0  0  0  0  0  1  0  0  0  0  0  0
  -26.8960  -30.2790   24.6750 C   0  0  0  0  0  1  0  0  0  0  0  0
  -27.4040  -32.4440   25.7720 C   0  0  0  0  0  1  0  0  0  0  0  0
  -25.4540  -33.8120   24.1260 N   0  0  0  0  0  0  0  0  0  0  0  0
  -25.7840  -34.8790   23.3860 C   0  0  0  0  0  0  0  0  0  0  0  0
  -26.4750  -34.7980   22.3670 O   0  0  0  0  0  0  0  0  0  0  0  0
  -24.8420  -33.9470   24.9190 H   0  0  0  0  0  0  0  0  0  0  0  0
  -24.0420  -36.6520   23.0070 C   0  0  0  0  0  1  0  0  0  0  0  0
  -25.2640  -36.2530   23.8490 C   0  0  0  0  0  3  0  0  0  0  0  0
  -27.3530  -37.1630   24.7630 C   0  0  0  0  0  1  0  0  0  0  0  0
  -26.2850  -37.3210   23.7800 N   0  0  0  0  0  0  0  0  0  0  0  0
  -25.8600  -38.2340   23.9180 H   0  0  0  0  0  0  0  0  0  0  0  0
  2  4  2  0
  2 48  1  0
  3 18  1  0
  3  1  2  0
  4  1  1  0
  4  7  1  0
  5  6  2  0
  5  2  1  0
  6  3  1  0
  8  5  1  0
  9  6  1  0
 10 18  1  0
 11 16  1  0
 12 13  1  0
 12 11  1  0
 14 13  1  0
 14 23  1  0
 14 15  1  0
 16 10  1  0
 16 15  1  0
 17 10  2  0
 18 19  1  0
 20 21  2  0
 21 40  1  0
 22 21  1  0
 22 25  1  0
 23 20  1  0
 23 24  1  0
 24 22  2  0
 25 26  1  0
 26 27  2  0
 28 31  1  0
 28 27  1  0
 29 28  2  0
 30 29  1  0
 30 25  2  0
 31 32  1  0
 32 33  1  0
 33 34  2  0
 35 34  1  0
 35 39  1  0
 36 35  2  0
 37 32  2  0
 37 36  1  0
 38 37  1  0
 40 41  1  0
 41 44  1  0
 41 43  1  0
 42 40  2  0
 45 46  1  0
 45 20  1  0
 47 45  1  0
 49 50  1  0
 50 51  1  1
 50 52  1  0
 50 48  1  0
 53 54  1  0
 53 52  2  0
 55 66  2  0
 56 54  1  0
 56 61  1  0
 57 65  1  0
 57 67  1  0
 58 64  1  0
 58 60  1  0
 59 65  1  0
 60 61  2  0
 60 59  1  0
 62 56  2  0
 63 62  1  0
 63 58  2  0
 64 57  1  0
 65 55  1  0
 67 69  2  0
 68 67  1  0
 70 68  1  0
 71 80  2  0
 71 76  1  0
 72 68  1  0
 72 76  1  0
 73 72  1  0
 74 75  1  0
 74 73  1  0
 75 71  1  0
 76 77  2  0
 77 78  1  0
 79 78  2  0
 80 79  1  0
 81 55  1  0
 81 86  1  0
 81 82  1  0
 82 85  1  1
 82 83  1  0
 84 82  1  0
 86 89  1  0
 87 91  1  0
 87 86  1  0
 88 87  2  0
 91 90  1  0
 93 91  1  0
 93 94  1  0
 93 92  1  0
M  ISO  4  10 100  18 100  53 101  54 101
M  END
>  <TORSDO>  (91) 
F 20

>  <SCORE>  (91) 
-13.935

>  <name>  (91) 
90

>  <ligand_id>  (91) 
90

>  <original_smiles>  (91) 
[H]c1c([H])c([H])c2c(c1[H])C([H])([H])C([H])([H])C([H])([H])C2([H])N([H])C(=O)C1([H])N(C(=O)C([H])(N([H])C(=O)C([H])(N([H])C([H])([H])[H])C([H])([H])[H])C(C([H])([H])[H])(C([H])([H])[H])C([H])([H])[H])C([H])([H])c2c([H])c(OC([H])([H])C([H])([H])[N+]([H])(C([H])([H])[H])C([H])([H])c3c(F)c([H])c(N([H])C(=O)N4C([H])([H])C([H])([H])C([H])([H])C([H])(n5nc(-c6c([H])c([H])c(Oc7c([H])c([H])c(F)c([H])c7F)c([H])c6[H])c(C(=O)N([H])[H])c5N([H])[H])C4([H])[H])c(F)c3F)c([H])c([H])c2C1([H])[H]

>  <smiles>  (91) 
[H]c1c([H])c([H])c2c(c1[H])C([H])([H])C([H])([H])C([H])([H])C2([H])N([H])C(=O)C1([H])N(C(=O)C([H])(N([H])C(=O)C([H])(N([H])C([H])([H])[H])C([H])([H])[H])C(C([H])([H])[H])(C([H])([H])[H])C([H])([H])[H])C([H])([H])c2c([H])c(OC([H])([H])C([H])([H])[N+]([H])(C([H])([H])[H])C([H])([H])c3c(F)c([H])c(N([H])C(=O)N4C([H])([H])C([H])([H])C([H])([H])C([H])(n5nc(-c6c([H])c([H])c(Oc7c([H])c([H])c(F)c([H])c7F)c([H])c6[H])c(C(=O)N([H])[H])c5N([H])[H])C4([H])[H])c(F)c3F)c([H])c([H])c2C1([H])[H]

$$$$
91:0:0
     RDKit          3D

 97106  0  0  1  0  0  0  0  0999 V2000
  -30.4230  -21.8220   22.4960 C   0  0  0  0  0  2  0  0  0  0  0  0
  -29.6350  -23.0540   22.0670 C   0  0  0  0  0  2  0  0  0  0  0  0
  -30.3900  -21.3520   21.0420 C   0  0  0  0  0  3  0  0  0  0  0  0
  -29.5480  -22.5050   20.7090 N   0  0  2  0  0  4  0  0  0  0  0  0
  -28.6320  -22.1210   20.5000 H   0  0  0  0  0  0  0  0  0  0  0  0
  -29.6160  -20.0370   20.8350 C   0  0  0  0  0  0  0  0  0  0  0  0
  -30.3290  -18.9070   20.7060 N   0  0  0  0  0  0  0  0  0  0  0  0
  -28.3810  -20.0600   20.7890 O   0  0  0  0  0  0  0  0  0  0  0  0
  -31.3360  -18.9910   20.7400 H   0  0  0  0  0  0  0  0  0  0  0  0
  -30.8850  -14.7040   19.2070 C   0  0  0  0  0  0  0  0  0  0  0  0
  -30.4300  -12.6460   17.9300 C   0  0  0  0  0  2  0  0  0  0  0  0
  -29.2840  -12.9370   16.9400 C   0  0  0  0  0  2  0  0  0  0  0  0
  -27.9070  -12.7420   17.6100 C   0  0  0  0  0  2  0  0  0  0  0  0
  -27.7970  -13.4610   18.9820 C   0  0  0  0  0  3  0  0  0  0  0  0
  -29.0280  -13.1400   19.8560 C   0  0  0  0  0  2  0  0  0  0  0  0
  -30.2300  -13.5200   19.0950 N   0  0  0  0  0  0  0  0  0  0  0  0
  -31.9240  -14.9640   18.5910 O   0  0  0  0  0  0  0  0  0  0  0  0
  -29.8990  -16.9620   19.1770 C   0  0  0  0  0  2  0  0  0  0  0  0
  -30.7140  -16.4290   20.9860 C   0  0  0  0  0  3  0  0  0  0  0  0
  -29.7590  -17.5590   20.5710 C   0  0  0  0  0  3  0  0  0  0  0  0
  -30.1830  -15.6730   19.8390 N   0  0  0  0  0  0  0  0  0  0  0  0
  -25.5560  -13.9780   20.1430 C   0  0  0  0  0  0  0  0  0  0  0  0
  -24.5760  -13.1630   20.6440 C   0  0  0  0  0  0  0  0  0  0  0  0
  -25.0330  -11.8260   20.4420 C   0  0  0  0  0  0  0  0  0  0  0  0
  -26.5490  -13.1330   19.6690 N   0  0  0  0  0  0  0  0  0  0  0  0
  -26.2480  -11.8310   19.9050 N   0  0  0  0  0  0  0  0  0  0  0  0
  -24.3610  -10.5390   20.6700 C   0  0  0  0  0  0  0  0  0  0  0  0
  -24.8190   -9.6360   21.6530 C   0  0  0  0  0  3  0  0  0  0  0  0
  -24.1480   -8.4120   21.8670 C   0  0  0  0  0  3  0  0  0  0  0  0
  -23.0090   -8.0830   21.0980 C   0  0  0  0  0  0  0  0  0  0  0  0
  -22.5710   -8.9760   20.1050 C   0  0  0  0  0  3  0  0  0  0  0  0
  -23.2410  -10.1910   19.8890 C   0  0  0  0  0  3  0  0  0  0  0  0
  -22.3090   -6.9080   21.2190 O   0  0  0  0  0  0  0  0  0  0  0  0
  -22.0530   -6.3450   22.4430 C   0  0  0  0  0  0  0  0  0  0  0  0
  -21.4540   -7.0790   23.4900 C   0  0  0  0  0  3  0  0  0  0  0  0
  -21.1430   -6.4410   24.7080 C   0  0  0  0  0  3  0  0  0  0  0  0
  -21.4210   -5.0710   24.8790 C   0  0  0  0  0  0  0  0  0  0  0  0
  -22.0130   -4.3380   23.8360 C   0  0  0  0  0  3  0  0  0  0  0  0
  -22.3250   -4.9720   22.6200 C   0  0  0  0  0  0  0  0  0  0  0  0
  -22.8720   -4.2550   21.6110 F   0  0  0  0  0  0  0  0  0  0  0  0
  -21.1180   -4.4590   26.0470 F   0  0  0  0  0  0  0  0  0  0  0  0
  -23.2440  -13.5930   21.1900 C   0  0  0  0  0  0  0  0  0  0  0  0
  -22.7320  -12.8870   22.1920 N   0  0  0  0  0  0  0  0  0  0  0  0
  -22.6710  -14.5930   20.7580 O   0  0  0  0  0  0  0  0  0  0  0  0
  -23.2090  -12.0820   22.5680 H   0  0  0  0  0  0  0  0  0  0  0  0
  -21.8450  -13.1580   22.5950 H   0  0  0  0  0  0  0  0  0  0  0  0
  -25.6780  -15.3600   20.0330 N   0  0  0  0  0  0  0  0  0  0  0  0
  -24.9310  -15.9870   20.3050 H   0  0  0  0  0  0  0  0  0  0  0  0
  -26.4330  -15.8280   19.5460 H   0  0  0  0  0  0  0  0  0  0  0  0
  -30.4880  -15.7090   22.2980 C   0  0  0  0  0  0  0  0  0  0  0  0
  -29.0440  -15.5100   22.7490 C   0  0  0  0  0  1  0  0  0  0  0  0
  -31.3860  -15.2590   23.0120 O   0  0  0  0  0  0  0  0  0  0  0  0
  -30.0490  -23.3700   19.6150 C   0  0  0  0  0  2  0  0  0  0  0  0
  -28.9870  -24.4110   19.2440 C   0  0  0  0  0  0  0  0  0  0  0  0
  -28.1990  -24.1880   18.3200 O   0  0  0  0  0  0  0  0  0  0  0  0
  -28.9120  -25.7010   20.0810 C   0  0  0  0  0  2  0  0  0  0  0  0
  -28.6630  -26.8370   19.2520 O   0  0  0  0  0  0  0  0  0  0  0  0
  -24.6030  -31.3500   22.9860 C   0  0  0  0  0  0  0  0  0  0  0  0
  -27.4450  -27.4510   19.4090 C   0  0  0  0  0  0  0  0  0  0  0  0
  -23.4620  -30.1170   21.1680 C   0  0  0  0  0  3  0  0  0  0  0  0
  -24.9850  -28.8190   19.5900 C   0  0  0  0  0  0  0  0  0  0  0  0
  -25.9710  -30.5990   21.0450 C   0  0  0  0  0  2  0  0  0  0  0  0
  -26.1140  -29.3190   20.2500 C   0  0  0  0  0  0  0  0  0  0  0  0
  -27.3490  -28.6420   20.1580 C   0  0  0  0  0  3  0  0  0  0  0  0
  -26.3000  -26.9530   18.7530 C   0  0  0  0  0  3  0  0  0  0  0  0
  -25.0690  -27.6320   18.8430 C   0  0  0  0  0  3  0  0  0  0  0  0
  -23.7070  -29.6170   19.7200 C   0  0  0  0  0  2  0  0  0  0  0  0
  -24.6950  -30.6960   21.7930 N   0  0  0  0  0  0  0  0  0  0  0  0
  -23.5080  -31.5110   23.5410 O   0  0  0  0  0  0  0  0  0  0  0  0
  -22.8450  -28.9600   21.9870 C   0  0  0  0  0  0  0  0  0  0  0  0
  -21.5320  -28.7380   21.8120 N   0  0  0  0  0  0  0  0  0  0  0  0
  -23.5450  -28.2710   22.7340 O   0  0  0  0  0  0  0  0  0  0  0  0
  -21.0280  -29.3520   21.1880 H   0  0  0  0  0  0  0  0  0  0  0  0
  -18.2080  -27.3520   22.0890 C   0  0  0  0  0  0  0  0  0  0  0  0
  -20.7480  -27.6800   22.4470 C   0  0  0  0  0  3  0  0  0  0  0  0
  -20.9230  -26.3350   21.7060 C   0  0  0  0  0  2  0  0  0  0  0  0
  -19.8540  -26.0900   20.6370 C   0  0  0  0  0  2  0  0  0  0  0  0
  -18.4570  -26.1020   21.2630 C   0  0  0  0  0  2  0  0  0  0  0  0
  -19.2860  -28.1020   22.6320 C   0  0  0  0  0  0  0  0  0  0  0  0
  -19.0020  -29.2770   23.3610 C   0  0  0  0  0  3  0  0  0  0  0  0
  -17.6740  -29.7020   23.5540 C   0  0  0  0  0  3  0  0  0  0  0  0
  -16.6110  -28.9470   23.0280 C   0  0  0  0  0  3  0  0  0  0  0  0
  -16.8800  -27.7730   22.3020 C   0  0  0  0  0  3  0  0  0  0  0  0
  -25.8600  -31.9450   23.6930 C   0  0  0  0  0  3  0  0  0  0  0  0
  -25.5240  -33.3110   24.1180 N   0  0  0  0  0  0  0  0  0  0  0  0
  -25.8830  -34.4210   23.4580 C   0  0  0  0  0  0  0  0  0  0  0  0
  -26.6010  -34.4020   22.4540 O   0  0  0  0  0  0  0  0  0  0  0  0
  -24.8930  -33.4000   24.9000 H   0  0  0  0  0  0  0  0  0  0  0  0
  -24.1590  -36.2250   23.1550 C   0  0  0  0  0  1  0  0  0  0  0  0
  -25.3610  -35.7650   23.9970 C   0  0  0  0  0  3  0  0  0  0  0  0
  -27.4380  -36.5920   25.0110 C   0  0  0  0  0  1  0  0  0  0  0  0
  -26.3890  -36.8280   24.0230 N   0  0  0  0  0  0  0  0  0  0  0  0
  -25.9670  -37.7320   24.2180 H   0  0  0  0  0  0  0  0  0  0  0  0
  -26.3520  -31.0830   24.9190 C   0  0  1  0  0  0  0  0  0  0  0  0
  -25.2290  -30.7350   25.9230 C   0  0  0  0  0  1  0  0  0  0  0  0
  -26.9780  -29.7550   24.4330 C   0  0  0  0  0  1  0  0  0  0  0  0
  -27.4610  -31.8430   25.6830 C   0  0  0  0  0  1  0  0  0  0  0  0
  2  1  1  0
  3  6  1  0
  3  1  1  0
  4  3  1  0
  4  2  1  0
  4  5  1  6
  7  9  1  0
  7  6  1  0
  8  6  2  0
 10 21  1  0
 11 16  1  0
 12 13  1  0
 12 11  1  0
 14 13  1  0
 14 25  1  0
 14 15  1  0
 16 10  1  0
 16 15  1  0
 17 10  2  0
 18 21  1  0
 18 20  1  0
 19 50  1  0
 20  7  1  0
 20 19  1  0
 21 19  1  0
 22 23  2  0
 23 42  1  0
 24 23  1  0
 24 27  1  0
 25 26  1  0
 25 22  1  0
 26 24  2  0
 27 28  1  0
 28 29  2  0
 30 33  1  0
 30 29  1  0
 31 30  2  0
 32 31  1  0
 32 27  2  0
 33 34  1  0
 34 39  2  0
 34 35  1  0
 35 36  2  0
 36 37  1  0
 37 41  1  0
 38 37  2  0
 39 38  1  0
 40 39  1  0
 42 43  1  0
 43 45  1  0
 43 46  1  0
 44 42  2  0
 47 22  1  0
 47 48  1  0
 49 47  1  0
 50 51  1  0
 50 52  2  0
 53  4  1  0
 54 53  1  0
 54 56  1  0
 55 54  2  0
 57 59  1  0
 57 56  1  0
 58 69  2  0
 59 64  1  0
 60 68  1  0
 60 70  1  0
 61 67  1  0
 61 63  1  0
 62 68  1  0
 63 62  1  0
 64 63  2  0
 65 66  1  0
 65 59  2  0
 66 61  2  0
 67 60  1  0
 68 58  1  0
 70 72  2  0
 71 70  1  0
 73 71  1  0
 74 83  2  0
 74 79  1  0
 75 71  1  0
 75 79  1  0
 76 75  1  0
 77 78  1  0
 77 76  1  0
 78 74  1  0
 79 80  2  0
 80 81  1  0
 82 81  2  0
 83 82  1  0
 84 58  1  0
 84 85  1  0
 84 94  1  0
 85 88  1  0
 86 90  1  0
 86 85  1  0
 87 86  2  0
 90 89  1  0
 90 92  1  0
 92 93  1  0
 92 91  1  0
 94 97  1  1
 94 95  1  0
 96 94  1  0
M  ISO  4  10 100  21 100  56 101  57 101
M  END
>  <TORSDO>  (92) 
F 21

>  <SCORE>  (92) 
-5.003

>  <name>  (92) 
91

>  <ligand_id>  (92) 
91

>  <original_smiles>  (92) 
[H]c1c([H])c([H])c2c(c1[H])C([H])([H])C([H])([H])C([H])([H])C2([H])N([H])C(=O)C1([H])N(C(=O)C([H])(N([H])C(=O)C([H])(N([H])C([H])([H])[H])C([H])([H])[H])C(C([H])([H])[H])(C([H])([H])[H])C([H])([H])[H])C([H])([H])c2c([H])c(OC([H])([H])C(=O)C([H])([H])[N+]3([H])C([H])([H])C([H])([H])C3([H])C(=O)N([H])C3([H])C([H])([H])N(C(=O)N4C([H])([H])C([H])([H])C([H])([H])C([H])(n5nc(-c6c([H])c([H])c(Oc7c([H])c([H])c(F)c([H])c7F)c([H])c6[H])c(C(=O)N([H])[H])c5N([H])[H])C4([H])[H])C3([H])C(=O)C([H])([H])[H])c([H])c([H])c2C1([H])[H]

>  <smiles>  (92) 
[H]c1c([H])c([H])c2c(c1[H])C([H])([H])C([H])([H])C([H])([H])C2([H])N([H])C(=O)C1([H])N(C(=O)C([H])(N([H])C(=O)C([H])(N([H])C([H])([H])[H])C([H])([H])[H])C(C([H])([H])[H])(C([H])([H])[H])C([H])([H])[H])C([H])([H])c2c([H])c(OC([H])([H])C(=O)C([H])([H])[N+]3([H])C([H])([H])C([H])([H])C3([H])C(=O)N([H])C3([H])C([H])([H])N(C(=O)N4C([H])([H])C([H])([H])C([H])([H])C([H])(n5nc(-c6c([H])c([H])c(Oc7c([H])c([H])c(F)c([H])c7F)c([H])c6[H])c(C(=O)N([H])[H])c5N([H])[H])C4([H])[H])C3([H])C(=O)C([H])([H])[H])c([H])c([H])c2C1([H])[H]

$$$$
92:0:0
     RDKit          3D

 97106  0  0  1  0  0  0  0  0999 V2000
  -35.8680  -20.3000   22.4190 C   0  0  0  0  0  3  0  0  0  0  0  0
  -38.5820  -21.0010   22.5280 C   0  0  0  0  0  0  0  0  0  0  0  0
  -37.6750  -21.4860   23.4800 C   0  0  0  0  0  0  0  0  0  0  0  0
  -38.1640  -20.0690   21.5130 C   0  0  0  0  0  0  0  0  0  0  0  0
  -36.3190  -21.1480   23.4410 C   0  0  0  0  0  0  0  0  0  0  0  0
  -36.7700  -19.7780   21.4710 C   0  0  0  0  0  0  0  0  0  0  0  0
  -39.9260  -21.6860   22.8200 C   0  0  0  0  0  2  0  0  0  0  0  0
  -38.3410  -22.4010   24.4830 C   0  0  0  0  0  2  0  0  0  0  0  0
  -39.5530  -22.8080   23.7470 N   0  0  1  0  0  4  0  0  0  0  0  0
  -35.4510  -21.6510   24.3530 F   0  0  0  0  0  0  0  0  0  0  0  0
  -36.2480  -18.9790   20.5110 F   0  0  0  0  0  0  0  0  0  0  0  0
  -39.1710  -23.4840   23.1070 H   0  0  0  0  0  0  0  0  0  0  0  0
  -39.1310  -19.3080   20.5510 C   0  0  0  0  0  2  0  0  0  0  0  0
  -39.1130  -17.2890   18.9450 C   0  0  0  0  0  0  0  0  0  0  0  0
  -38.3230  -16.1870   16.8890 C   0  0  0  0  0  2  0  0  0  0  0  0
  -37.4270  -17.2020   16.1500 C   0  0  0  0  0  2  0  0  0  0  0  0
  -35.9750  -17.0270   16.6240 C   0  0  0  0  0  2  0  0  0  0  0  0
  -35.8540  -17.0530   18.1690 C   0  0  0  0  0  3  0  0  0  0  0  0
  -36.8810  -16.1140   18.8420 C   0  0  0  0  0  2  0  0  0  0  0  0
  -38.2150  -16.4640   18.3300 N   0  0  0  0  0  0  0  0  0  0  0  0
  -40.2500  -17.4680   18.5100 O   0  0  0  0  0  0  0  0  0  0  0  0
  -38.5890  -18.0780   19.9100 N   0  0  0  0  0  0  0  0  0  0  0  0
  -37.6850  -17.7750   20.2300 H   0  0  0  0  0  0  0  0  0  0  0  0
  -33.4570  -17.6580   18.8630 C   0  0  0  0  0  0  0  0  0  0  0  0
  -32.3670  -16.8750   19.1470 C   0  0  0  0  0  0  0  0  0  0  0  0
  -32.8080  -15.5210   19.0350 C   0  0  0  0  0  0  0  0  0  0  0  0
  -34.4930  -16.7680   18.6060 N   0  0  0  0  0  0  0  0  0  0  0  0
  -34.1050  -15.4780   18.7600 N   0  0  0  0  0  0  0  0  0  0  0  0
  -32.0540  -14.2600   19.1200 C   0  0  0  0  0  0  0  0  0  0  0  0
  -31.9860  -13.5120   20.3170 C   0  0  0  0  0  3  0  0  0  0  0  0
  -31.2360  -12.3170   20.3700 C   0  0  0  0  0  3  0  0  0  0  0  0
  -30.5470  -11.8570   19.2200 C   0  0  0  0  0  0  0  0  0  0  0  0
  -30.6390  -12.5920   18.0250 C   0  0  0  0  0  3  0  0  0  0  0  0
  -31.3920  -13.7780   17.9730 C   0  0  0  0  0  3  0  0  0  0  0  0
  -29.8210  -10.6890   19.1760 O   0  0  0  0  0  0  0  0  0  0  0  0
  -28.7570  -10.4720   20.0160 C   0  0  0  0  0  0  0  0  0  0  0  0
  -27.5760  -11.2430   19.9370 C   0  0  0  0  0  3  0  0  0  0  0  0
  -26.4790  -10.9370   20.7650 C   0  0  0  0  0  3  0  0  0  0  0  0
  -26.5570   -9.8620   21.6710 C   0  0  0  0  0  0  0  0  0  0  0  0
  -27.7280   -9.0880   21.7450 C   0  0  0  0  0  3  0  0  0  0  0  0
  -28.8230   -9.3910   20.9180 C   0  0  0  0  0  0  0  0  0  0  0  0
  -29.9430   -8.6290   20.9780 F   0  0  0  0  0  0  0  0  0  0  0  0
  -25.5010   -9.5640   22.4630 F   0  0  0  0  0  0  0  0  0  0  0  0
  -30.9720  -17.3590   19.4150 C   0  0  0  0  0  0  0  0  0  0  0  0
  -30.2370  -16.6630   20.2760 N   0  0  0  0  0  0  0  0  0  0  0  0
  -30.5360  -18.3830   18.9000 O   0  0  0  0  0  0  0  0  0  0  0  0
  -30.5990  -15.8300   20.7190 H   0  0  0  0  0  0  0  0  0  0  0  0
  -29.3000  -16.9680   20.4980 H   0  0  0  0  0  0  0  0  0  0  0  0
  -33.6520  -19.0320   18.7770 N   0  0  0  0  0  0  0  0  0  0  0  0
  -32.8920  -19.7000   18.8490 H   0  0  0  0  0  0  0  0  0  0  0  0
  -34.5350  -19.4690   18.5420 H   0  0  0  0  0  0  0  0  0  0  0  0
  -40.6170  -23.6150   24.4510 C   0  0  0  0  0  2  0  0  0  0  0  0
  -40.2030  -24.8380   25.3800 C   0  0  0  0  0  3  0  0  0  0  0  0
  -38.8250  -25.1870   25.1740 O   0  0  0  0  0  0  0  0  0  0  0  0
  -38.6370  -26.0090   25.6290 H   0  0  0  0  0  0  0  0  0  0  0  0
  -41.0430  -26.1050   24.9940 C   0  0  0  0  0  2  0  0  0  0  0  0
  -40.3610  -27.0760   24.1460 O   0  0  0  0  0  0  0  0  0  0  0  0
  -37.5850  -29.4350   17.9630 C   0  0  0  0  0  0  0  0  0  0  0  0
  -39.9780  -26.7530   22.8360 C   0  0  0  0  0  0  0  0  0  0  0  0
  -37.8030  -26.9900   18.1890 C   0  0  0  0  0  3  0  0  0  0  0  0
  -39.2070  -26.1800   20.1450 C   0  0  0  0  0  0  0  0  0  0  0  0
  -39.3940  -28.5630   19.4450 C   0  0  0  0  0  2  0  0  0  0  0  0
  -39.5070  -27.4960   20.5220 C   0  0  0  0  0  0  0  0  0  0  0  0
  -39.8810  -27.7880   21.8620 C   0  0  0  0  0  3  0  0  0  0  0  0
  -39.6560  -25.4370   22.4130 C   0  0  0  0  0  3  0  0  0  0  0  0
  -39.2640  -25.1530   21.0960 C   0  0  0  0  0  3  0  0  0  0  0  0
  -38.8120  -25.9400   18.7030 C   0  0  0  0  0  2  0  0  0  0  0  0
  -38.2270  -28.3820   18.5410 N   0  0  0  0  0  0  0  0  0  0  0  0
  -36.6830  -29.2610   17.1310 O   0  0  0  0  0  0  0  0  0  0  0  0
  -36.3870  -26.6290   18.6940 C   0  0  0  0  0  0  0  0  0  0  0  0
  -35.7590  -25.6330   18.0490 N   0  0  0  0  0  0  0  0  0  0  0  0
  -35.8800  -27.2320   19.6470 O   0  0  0  0  0  0  0  0  0  0  0  0
  -36.2440  -25.1910   17.2800 H   0  0  0  0  0  0  0  0  0  0  0  0
  -33.1800  -23.3780   16.8890 C   0  0  0  0  0  0  0  0  0  0  0  0
  -34.4260  -25.1150   18.3500 C   0  0  0  0  0  3  0  0  0  0  0  0
  -34.4840  -24.0020   19.4260 C   0  0  0  0  0  2  0  0  0  0  0  0
  -34.6030  -22.5940   18.8390 C   0  0  0  0  0  2  0  0  0  0  0  0
  -33.4080  -22.2920   17.9280 C   0  0  0  0  0  2  0  0  0  0  0  0
  -33.6790  -24.6970   17.0760 C   0  0  0  0  0  0  0  0  0  0  0  0
  -33.4790  -25.6500   16.0530 C   0  0  0  0  0  3  0  0  0  0  0  0
  -32.7860  -25.3060   14.8730 C   0  0  0  0  0  3  0  0  0  0  0  0
  -32.2880  -24.0030   14.7030 C   0  0  0  0  0  3  0  0  0  0  0  0
  -32.4850  -23.0400   15.7070 C   0  0  0  0  0  3  0  0  0  0  0  0
  -37.9710  -30.9130   18.2970 C   0  0  0  0  0  3  0  0  0  0  0  0
  -38.7910  -31.4240   17.1920 N   0  0  0  0  0  0  0  0  0  0  0  0
  -40.1300  -31.4270   17.1820 C   0  0  0  0  0  0  0  0  0  0  0  0
  -40.8090  -31.0580   18.1450 O   0  0  0  0  0  0  0  0  0  0  0  0
  -38.3080  -31.6910   16.3450 H   0  0  0  0  0  0  0  0  0  0  0  0
  -41.2660  -30.6930   15.0610 C   0  0  0  0  0  1  0  0  0  0  0  0
  -40.8260  -31.9070   15.8970 C   0  0  0  0  0  3  0  0  0  0  0  0
  -41.6060  -34.1100   16.6440 C   0  0  0  0  0  1  0  0  0  0  0  0
  -41.9840  -32.7890   16.1500 N   0  0  0  0  0  0  0  0  0  0  0  0
  -42.5230  -32.9200   15.3000 H   0  0  0  0  0  0  0  0  0  0  0  0
  -36.7150  -31.8380   18.5380 C   0  0  1  0  0  0  0  0  0  0  0  0
  -35.6400  -31.7460   17.4280 C   0  0  0  0  0  1  0  0  0  0  0  0
  -36.0290  -31.4870   19.8810 C   0  0  0  0  0  1  0  0  0  0  0  0
  -37.1690  -33.3150   18.6350 C   0  0  0  0  0  1  0  0  0  0  0  0
  1  5  1  0
  2  7  1  0
  2  3  1  0
  3  8  1  0
  4  2  2  0
  5  3  2  0
  5 10  1  0
  6  4  1  0
  6  1  2  0
  7  9  1  0
  9 52  1  0
  9  8  1  0
 11  6  1  0
  9 12  1  6
 13  4  1  0
 14 22  1  0
 15 20  1  0
 16 17  1  0
 16 15  1  0
 18 17  1  0
 18 27  1  0
 18 19  1  0
 20 19  1  0
 20 14  1  0
 21 14  2  0
 22 23  1  0
 22 13  1  0
 24 25  2  0
 25 44  1  0
 26 29  1  0
 26 25  1  0
 27 28  1  0
 27 24  1  0
 28 26  2  0
 29 30  1  0
 30 31  2  0
 32 31  1  0
 33 32  2  0
 34 33  1  0
 34 29  2  0
 35 32  1  0
 35 36  1  0
 36 41  1  0
 37 36  2  0
 37 38  1  0
 38 39  2  0
 39 40  1  0
 39 43  1  0
 41 42  1  0
 41 40  2  0
 44 45  1  0
 45 48  1  0
 45 47  1  0
 46 44  2  0
 49 50  1  0
 49 24  1  0
 51 49  1  0
 53 52  1  0
 54 53  1  0
 54 55  1  0
 56 53  1  0
 57 56  1  0
 58 68  1  0
 59 57  1  0
 60 68  1  0
 60 70  1  0
 60 67  1  0
 61 63  2  0
 61 66  1  0
 62 63  1  0
 63 64  1  0
 64 59  2  0
 65 59  1  0
 66 65  2  0
 67 61  1  0
 68 62  1  0
 69 58  2  0
 70 72  2  0
 71 70  1  0
 73 71  1  0
 74 79  1  0
 74 78  1  0
 75 71  1  0
 75 76  1  0
 77 76  1  0
 78 77  1  0
 79 75  1  0
 80 79  2  0
 81 80  1  0
 82 81  2  0
 82 83  1  0
 83 74  2  0
 84 58  1  0
 84 94  1  0
 85 84  1  0
 86 85  1  0
 86 87  2  0
 88 85  1  0
 90 89  1  0
 90 92  1  0
 90 86  1  0
 92 91  1  0
 93 92  1  0
 94 97  1  1
 94 96  1  0
 95 94  1  0
M  ISO  4  14 100  22 100  56 101  57 101
M  END
>  <TORSDO>  (93) 
F 21

>  <SCORE>  (93) 
-4.075

>  <name>  (93) 
92

>  <ligand_id>  (93) 
92

>  <original_smiles>  (93) 
[H]OC([H])(C([H])([H])Oc1c([H])c([H])c2c(c1[H])C([H])([H])N(C(=O)C([H])(N([H])C(=O)C([H])(N([H])C([H])([H])[H])C([H])([H])[H])C(C([H])([H])[H])(C([H])([H])[H])C([H])([H])[H])C([H])(C(=O)N([H])C1([H])c3c([H])c([H])c([H])c([H])c3C([H])([H])C([H])([H])C1([H])[H])C2([H])[H])C([H])([H])[N+]1([H])C([H])([H])c2c(F)c([H])c(F)c(C([H])([H])N([H])C(=O)N3C([H])([H])C([H])([H])C([H])([H])C([H])(n4nc(-c5c([H])c([H])c(Oc6c([H])c([H])c(F)c([H])c6F)c([H])c5[H])c(C(=O)N([H])[H])c4N([H])[H])C3([H])[H])c2C1([H])[H]

>  <smiles>  (93) 
[H]OC([H])(C([H])([H])Oc1c([H])c([H])c2c(c1[H])C([H])([H])N(C(=O)C([H])(N([H])C(=O)C([H])(N([H])C([H])([H])[H])C([H])([H])[H])C(C([H])([H])[H])(C([H])([H])[H])C([H])([H])[H])C([H])(C(=O)N([H])C1([H])c3c([H])c([H])c([H])c([H])c3C([H])([H])C([H])([H])C1([H])[H])C2([H])[H])C([H])([H])[N+]1([H])C([H])([H])c2c(F)c([H])c(F)c(C([H])([H])N([H])C(=O)N3C([H])([H])C([H])([H])C([H])([H])C([H])(n4nc(-c5c([H])c([H])c(Oc6c([H])c([H])c(F)c([H])c6F)c([H])c5[H])c(C(=O)N([H])[H])c4N([H])[H])C3([H])[H])c2C1([H])[H]

$$$$
93:0:0
     RDKit          3D

 93101  0  0  1  0  0  0  0  0999 V2000
  -29.0670  -21.0950   19.6930 C   0  0  0  0  0  2  0  0  0  0  0  0
  -29.3430  -18.4340   20.0480 C   0  0  0  0  0  3  0  0  0  0  0  0
  -31.1250  -18.8410   22.1380 C   0  0  0  0  0  3  0  0  0  0  0  0
  -29.6180  -19.8060   20.4550 C   0  0  0  0  0  0  0  0  0  0  0  0
  -29.9620  -17.2640   20.6540 C   0  0  0  0  0  0  0  0  0  0  0  0
  -30.5300  -19.9630   21.5210 C   0  0  0  0  0  0  0  0  0  0  0  0
  -30.8540  -17.5210   21.7210 C   0  0  0  0  0  0  0  0  0  0  0  0
  -30.8640  -21.2010   21.9540 F   0  0  0  0  0  0  0  0  0  0  0  0
  -31.4280  -16.4960   22.3970 F   0  0  0  0  0  0  0  0  0  0  0  0
  -30.4420  -14.7480   20.1110 C   0  0  0  0  0  0  0  0  0  0  0  0
  -30.1960  -12.5240   18.9940 C   0  0  0  0  0  2  0  0  0  0  0  0
  -29.1820  -12.6420   17.8340 C   0  0  0  0  0  2  0  0  0  0  0  0
  -27.7410  -12.4420   18.3450 C   0  0  0  0  0  2  0  0  0  0  0  0
  -27.4360  -13.2770   19.6180 C   0  0  0  0  0  3  0  0  0  0  0  0
  -28.5610  -13.1410   20.6680 C   0  0  0  0  0  2  0  0  0  0  0  0
  -29.8150  -13.5280   20.0110 N   0  0  0  0  0  0  0  0  0  0  0  0
  -31.6170  -14.8690   19.7550 O   0  0  0  0  0  0  0  0  0  0  0  0
  -29.6360  -15.8600   20.3120 N   0  0  0  0  0  0  0  0  0  0  0  0
  -28.6510  -15.6500   20.3000 H   0  0  0  0  0  0  0  0  0  0  0  0
  -25.0830  -13.8270   20.4800 C   0  0  0  0  0  0  0  0  0  0  0  0
  -24.0470  -13.0320   20.8880 C   0  0  0  0  0  0  0  0  0  0  0  0
  -24.5230  -11.6880   20.8090 C   0  0  0  0  0  0  0  0  0  0  0  0
  -26.1230  -12.9640   20.1730 N   0  0  0  0  0  0  0  0  0  0  0  0
  -25.7970  -11.6720   20.4350 N   0  0  0  0  0  0  0  0  0  0  0  0
  -23.8220  -10.4130   21.0100 C   0  0  0  0  0  0  0  0  0  0  0  0
  -24.2960   -9.4460   21.9240 C   0  0  0  0  0  3  0  0  0  0  0  0
  -23.5940   -8.2360   22.1130 C   0  0  0  0  0  3  0  0  0  0  0  0
  -22.4040   -7.9850   21.3900 C   0  0  0  0  0  0  0  0  0  0  0  0
  -21.9490   -8.9420   20.4650 C   0  0  0  0  0  3  0  0  0  0  0  0
  -22.6510  -10.1430   20.2740 C   0  0  0  0  0  3  0  0  0  0  0  0
  -21.6700   -6.8280   21.4910 O   0  0  0  0  0  0  0  0  0  0  0  0
  -21.6590   -6.0800   22.6410 C   0  0  0  0  0  0  0  0  0  0  0  0
  -21.2360   -6.6200   23.8760 C   0  0  0  0  0  3  0  0  0  0  0  0
  -21.1750   -5.7970   25.0190 C   0  0  0  0  0  3  0  0  0  0  0  0
  -21.5270   -4.4360   24.9280 C   0  0  0  0  0  0  0  0  0  0  0  0
  -21.9430   -3.8970   23.6980 C   0  0  0  0  0  3  0  0  0  0  0  0
  -22.0060   -4.7170   22.5580 C   0  0  0  0  0  0  0  0  0  0  0  0
  -22.3880   -4.1880   21.3710 F   0  0  0  0  0  0  0  0  0  0  0  0
  -21.4600   -3.6450   26.0240 F   0  0  0  0  0  0  0  0  0  0  0  0
  -22.6590  -13.4860   21.2380 C   0  0  0  0  0  0  0  0  0  0  0  0
  -21.9810  -12.7630   22.1210 N   0  0  0  0  0  0  0  0  0  0  0  0
  -22.1850  -14.5180   20.7620 O   0  0  0  0  0  0  0  0  0  0  0  0
  -22.3770  -11.9270   22.5270 H   0  0  0  0  0  0  0  0  0  0  0  0
  -21.0520  -13.0490   22.3990 H   0  0  0  0  0  0  0  0  0  0  0  0
  -25.2180  -15.2030   20.3200 N   0  0  0  0  0  0  0  0  0  0  0  0
  -24.4460  -15.8390   20.4860 H   0  0  0  0  0  0  0  0  0  0  0  0
  -26.0280  -15.6620   19.9250 H   0  0  0  0  0  0  0  0  0  0  0  0
  -28.9500  -23.7140   19.9970 C   0  0  0  0  0  0  0  0  0  0  0  0
  -28.6640  -22.4080   20.3690 N   0  0  0  0  0  0  0  0  0  0  0  0
  -29.8970  -23.9320   19.2300 O   0  0  0  0  0  0  0  0  0  0  0  0
  -27.9170  -22.3170   21.0450 H   0  0  0  0  0  0  0  0  0  0  0  0
  -28.0370  -24.9480   20.4900 C   0  0  0  0  0  2  0  0  0  0  0  0
  -28.3160  -26.4130   20.2720 O   0  0  0  0  0  0  0  0  0  0  0  0
  -24.5780  -31.8980   23.2430 C   0  0  0  0  0  0  0  0  0  0  0  0
  -27.2120  -27.2960   20.2360 C   0  0  0  0  0  0  0  0  0  0  0  0
  -23.3920  -30.4980   21.5940 C   0  0  0  0  0  3  0  0  0  0  0  0
  -24.8570  -28.9370   20.1910 C   0  0  0  0  0  0  0  0  0  0  0  0
  -25.9370  -30.8060   21.4390 C   0  0  0  0  0  2  0  0  0  0  0  0
  -26.0250  -29.4210   20.7970 C   0  0  0  0  0  0  0  0  0  0  0  0
  -27.2080  -28.6160   20.8020 C   0  0  0  0  0  3  0  0  0  0  0  0
  -26.0180  -26.8730   19.6130 C   0  0  0  0  0  3  0  0  0  0  0  0
  -24.8580  -27.6720   19.5870 C   0  0  0  0  0  3  0  0  0  0  0  0
  -23.6240  -29.8190   20.2200 C   0  0  0  0  0  2  0  0  0  0  0  0
  -24.6540  -31.0860   22.1490 N   0  0  0  0  0  0  0  0  0  0  0  0
  -23.4880  -32.1790   23.7650 O   0  0  0  0  0  0  0  0  0  0  0  0
  -22.7150  -29.4850   22.5490 C   0  0  0  0  0  0  0  0  0  0  0  0
  -21.3890  -29.3110   22.4090 N   0  0  0  0  0  0  0  0  0  0  0  0
  -23.3820  -28.8600   23.3780 O   0  0  0  0  0  0  0  0  0  0  0  0
  -20.9100  -29.8680   21.7150 H   0  0  0  0  0  0  0  0  0  0  0  0
  -18.0010  -28.1360   22.8890 C   0  0  0  0  0  0  0  0  0  0  0  0
  -20.5590  -28.3780   23.1730 C   0  0  0  0  0  3  0  0  0  0  0  0
  -20.6540  -26.9470   22.5950 C   0  0  0  0  0  2  0  0  0  0  0  0
  -19.5560  -26.6350   21.5750 C   0  0  0  0  0  2  0  0  0  0  0  0
  -18.1720  -26.7880   22.2110 C   0  0  0  0  0  2  0  0  0  0  0  0
  -19.1220  -28.8900   23.3270 C   0  0  0  0  0  0  0  0  0  0  0  0
  -18.9080  -30.1530   23.9220 C   0  0  0  0  0  3  0  0  0  0  0  0
  -17.6050  -30.6610   24.0830 C   0  0  0  0  0  3  0  0  0  0  0  0
  -16.4980  -29.9050   23.6610 C   0  0  0  0  0  3  0  0  0  0  0  0
  -16.6980  -28.6440   23.0700 C   0  0  0  0  0  3  0  0  0  0  0  0
  -25.8520  -32.5320   23.8810 C   0  0  0  0  0  3  0  0  0  0  0  0
  -26.3420  -31.7740   25.1740 C   0  0  1  0  0  0  0  0  0  0  0  0
  -25.2300  -31.5530   26.2260 C   0  0  0  0  0  1  0  0  0  0  0  0
  -26.9260  -30.3880   24.8080 C   0  0  0  0  0  1  0  0  0  0  0  0
  -27.4860  -32.5690   25.8470 C   0  0  0  0  0  1  0  0  0  0  0  0
  -25.5440  -33.9350   24.1920 N   0  0  0  0  0  0  0  0  0  0  0  0
  -25.8930  -34.9800   23.4310 C   0  0  0  0  0  0  0  0  0  0  0  0
  -26.5780  -34.8640   22.4100 O   0  0  0  0  0  0  0  0  0  0  0  0
  -24.9380  -34.1000   24.9840 H   0  0  0  0  0  0  0  0  0  0  0  0
  -24.1850  -36.7830   23.0280 C   0  0  0  0  0  1  0  0  0  0  0  0
  -25.4060  -36.3760   23.8680 C   0  0  0  0  0  3  0  0  0  0  0  0
  -27.5280  -37.2540   24.7400 C   0  0  0  0  0  1  0  0  0  0  0  0
  -26.4480  -37.4210   23.7700 N   0  0  0  0  0  0  0  0  0  0  0  0
  -26.0460  -38.3450   23.8990 H   0  0  0  0  0  0  0  0  0  0  0  0
  1 49  1  0
  1  4  1  0
  2  4  2  0
  2  5  1  0
  4  6  1  0
  5  7  2  0
  6  8  1  0
  6  3  2  0
  7  3  1  0
  7  9  1  0
 10 18  1  0
 11 16  1  0
 12 13  1  0
 12 11  1  0
 14 13  1  0
 14 23  1  0
 14 15  1  0
 16 10  1  0
 16 15  1  0
 17 10  2  0
 18  5  1  0
 19 18  1  0
 20 21  2  0
 21 40  1  0
 22 21  1  0
 22 25  1  0
 23 24  1  0
 23 20  1  0
 24 22  2  0
 25 26  1  0
 26 27  2  0
 28 31  1  0
 28 27  1  0
 29 28  2  0
 30 29  1  0
 30 25  2  0
 31 32  1  0
 32 33  1  0
 33 34  2  0
 35 34  1  0
 35 39  1  0
 36 35  2  0
 37 32  2  0
 37 36  1  0
 38 37  1  0
 40 41  1  0
 41 44  1  0
 41 43  1  0
 42 40  2  0
 45 20  1  0
 45 46  1  0
 47 45  1  0
 48 49  1  0
 48 52  1  0
 49 51  1  0
 50 48  2  0
 53 52  1  0
 54 65  2  0
 55 53  1  0
 55 60  1  0
 56 64  1  0
 56 66  1  0
 57 63  1  0
 57 59  1  0
 58 64  1  0
 59 60  2  0
 59 58  1  0
 61 55  2  0
 62 61  1  0
 62 57  2  0
 63 56  1  0
 64 54  1  0
 66 68  2  0
 67 66  1  0
 69 67  1  0
 70 79  2  0
 70 75  1  0
 71 67  1  0
 71 75  1  0
 72 71  1  0
 73 74  1  0
 73 72  1  0
 74 70  1  0
 75 76  2  0
 76 77  1  0
 78 77  2  0
 79 78  1  0
 80 54  1  0
 80 85  1  0
 80 81  1  0
 81 84  1  1
 81 82  1  0
 83 81  1  0
 85 88  1  0
 86 90  1  0
 86 85  1  0
 87 86  2  0
 90 89  1  0
 92 90  1  0
 92 93  1  0
 92 91  1  0
M  ISO  4  10 100  18 100  52 101  53 101
M  END
>  <TORSDO>  (94) 
F 19

>  <SCORE>  (94) 
-14.317

>  <name>  (94) 
93

>  <ligand_id>  (94) 
93

>  <original_smiles>  (94) 
[H]c1c([H])c([H])c2c(c1[H])C([H])([H])C([H])([H])C([H])([H])C2([H])N([H])C(=O)C1([H])N(C(=O)C([H])(N([H])C(=O)C([H])(N([H])C([H])([H])[H])C([H])([H])[H])C(C([H])([H])[H])(C([H])([H])[H])C([H])([H])[H])C([H])([H])c2c([H])c(OC([H])([H])C(=O)N([H])C([H])([H])c3c([H])c(N([H])C(=O)N4C([H])([H])C([H])([H])C([H])([H])C([H])(n5nc(-c6c([H])c([H])c(Oc7c([H])c([H])c(F)c([H])c7F)c([H])c6[H])c(C(=O)N([H])[H])c5N([H])[H])C4([H])[H])c(F)c([H])c3F)c([H])c([H])c2C1([H])[H]

>  <smiles>  (94) 
[H]c1c([H])c([H])c2c(c1[H])C([H])([H])C([H])([H])C([H])([H])C2([H])N([H])C(=O)C1([H])N(C(=O)C([H])(N([H])C(=O)C([H])(N([H])C([H])([H])[H])C([H])([H])[H])C(C([H])([H])[H])(C([H])([H])[H])C([H])([H])[H])C([H])([H])c2c([H])c(OC([H])([H])C(=O)N([H])C([H])([H])c3c([H])c(N([H])C(=O)N4C([H])([H])C([H])([H])C([H])([H])C([H])(n5nc(-c6c([H])c([H])c(Oc7c([H])c([H])c(F)c([H])c7F)c([H])c6[H])c(C(=O)N([H])[H])c5N([H])[H])C4([H])[H])c(F)c([H])c3F)c([H])c([H])c2C1([H])[H]

$$$$
94:0:0
     RDKit          3D

103111  0  0  1  0  0  0  0  0999 V2000
  -31.3240  -20.9140   20.7760 C   0  0  0  0  0  0  0  0  0  0  0  0
  -30.7960  -22.7360   22.3660 C   0  0  0  0  0  2  0  0  0  0  0  0
  -29.1100  -22.0990   20.7430 C   0  0  0  0  0  2  0  0  0  0  0  0
  -30.8110  -24.1800   21.8270 C   0  0  0  0  0  2  0  0  0  0  0  0
  -29.0910  -23.5200   20.1530 C   0  0  0  0  0  2  0  0  0  0  0  0
  -30.4490  -21.8190   21.2750 N   0  0  0  0  0  0  0  0  0  0  0  0
  -29.5290  -24.5330   21.1510 N   0  0  2  0  0  4  0  0  0  0  0  0
  -32.4590  -20.7670   21.2410 O   0  0  0  0  0  0  0  0  0  0  0  0
  -28.8170  -24.5290   21.8700 H   0  0  0  0  0  0  0  0  0  0  0  0
  -30.9070  -20.0470   19.5840 C   0  0  0  0  0  2  0  0  0  0  0  0
  -31.8790  -20.1580   18.4780 N   0  0  0  0  0  4  0  0  0  0  0  0
  -32.4300  -19.3150   18.4840 H   0  0  0  0  0  0  0  0  0  0  0  0
  -32.5080  -20.9150   18.6920 H   0  0  0  0  0  0  0  0  0  0  0  0
  -31.2690  -20.3570   17.1480 C   0  0  0  0  0  2  0  0  0  0  0  0
  -32.2290  -21.0950   16.1930 C   0  0  0  0  0  2  0  0  0  0  0  0
  -30.9010  -21.0120   14.0400 C   0  0  0  0  0  1  0  0  0  0  0  0
  -31.5740  -21.9510   15.0690 C   0  0  1  0  0  0  0  0  0  0  0  0
  -30.6700  -24.0450   16.1970 C   0  0  0  0  0  0  0  0  0  0  0  0
  -29.8730  -26.3390   15.8300 C   0  0  0  0  0  2  0  0  0  0  0  0
  -29.2340  -27.0270   17.0440 C   0  0  0  0  0  2  0  0  0  0  0  0
  -27.7390  -26.6840   17.1260 C   0  0  0  0  0  2  0  0  0  0  0  0
  -27.4780  -25.1590   17.0470 C   0  0  0  0  0  3  0  0  0  0  0  0
  -28.2280  -24.5210   15.8560 C   0  0  0  0  0  2  0  0  0  0  0  0
  -29.6520  -24.8910   15.9270 N   0  0  0  0  0  0  0  0  0  0  0  0
  -31.7470  -24.3960   16.6830 O   0  0  0  0  0  0  0  0  0  0  0  0
  -30.5280  -22.8650   15.5680 N   0  0  0  0  0  0  0  0  0  0  0  0
  -29.5930  -22.6960   15.2220 H   0  0  0  0  0  0  0  0  0  0  0  0
  -25.2520  -24.1970   17.9160 C   0  0  0  0  0  0  0  0  0  0  0  0
  -23.9720  -24.2730   17.4330 C   0  0  0  0  0  0  0  0  0  0  0  0
  -24.0530  -25.0170   16.2170 C   0  0  0  0  0  0  0  0  0  0  0  0
  -26.0450  -24.8710   16.9990 N   0  0  0  0  0  0  0  0  0  0  0  0
  -25.3170  -25.3190   15.9450 N   0  0  0  0  0  0  0  0  0  0  0  0
  -22.9950  -25.5070   15.3240 C   0  0  0  0  0  0  0  0  0  0  0  0
  -23.0070  -25.2260   13.9400 C   0  0  0  0  0  3  0  0  0  0  0  0
  -21.9680  -25.6930   13.1060 C   0  0  0  0  0  3  0  0  0  0  0  0
  -20.9020  -26.4450   13.6540 C   0  0  0  0  0  0  0  0  0  0  0  0
  -20.9070  -26.7410   15.0280 C   0  0  0  0  0  3  0  0  0  0  0  0
  -21.9440  -26.2810   15.8550 C   0  0  0  0  0  3  0  0  0  0  0  0
  -19.8640  -26.9620   12.9160 O   0  0  0  0  0  0  0  0  0  0  0  0
  -19.3890  -26.3250   11.7970 C   0  0  0  0  0  0  0  0  0  0  0  0
  -18.8810  -25.0090   11.8480 C   0  0  0  0  0  3  0  0  0  0  0  0
  -18.3390  -24.4180   10.6900 C   0  0  0  0  0  3  0  0  0  0  0  0
  -18.2950  -25.1430    9.4830 C   0  0  0  0  0  0  0  0  0  0  0  0
  -18.7960  -26.4560    9.4320 C   0  0  0  0  0  3  0  0  0  0  0  0
  -19.3380  -27.0460   10.5870 C   0  0  0  0  0  0  0  0  0  0  0  0
  -19.8000  -28.3190   10.5380 F   0  0  0  0  0  0  0  0  0  0  0  0
  -17.7680  -24.5800    8.3720 F   0  0  0  0  0  0  0  0  0  0  0  0
  -22.7310  -23.7670   18.1080 C   0  0  0  0  0  0  0  0  0  0  0  0
  -21.7650  -23.2850   17.3330 N   0  0  0  0  0  0  0  0  0  0  0  0
  -22.6290  -23.7500   19.3340 O   0  0  0  0  0  0  0  0  0  0  0  0
  -21.8560  -23.2810   16.3280 H   0  0  0  0  0  0  0  0  0  0  0  0
  -20.9220  -22.9160   17.7500 H   0  0  0  0  0  0  0  0  0  0  0  0
  -25.8040  -23.6300   19.0610 N   0  0  0  0  0  0  0  0  0  0  0  0
  -25.2380  -23.1810   19.7720 H   0  0  0  0  0  0  0  0  0  0  0  0
  -26.7850  -23.6810   19.3090 H   0  0  0  0  0  0  0  0  0  0  0  0
  -32.7050  -22.7550   14.3550 C   0  0  0  0  0  2  0  0  0  0  0  0
  -32.2100  -23.7020   13.3400 N   0  0  0  0  0  4  0  0  0  0  0  0
  -31.7400  -23.2150   12.5980 H   0  0  0  0  0  0  0  0  0  0  0  0
  -32.9850  -24.1970   12.9370 H   0  0  0  0  0  0  0  0  0  0  0  0
  -31.5830  -24.3750   13.7400 H   0  0  0  0  0  0  0  0  0  0  0  0
  -29.5050  -25.9140   20.6070 C   0  0  0  0  0  2  0  0  0  0  0  0
  -30.0580  -26.9120   21.6300 C   0  0  0  0  0  2  0  0  0  0  0  0
  -29.0820  -27.1000   22.6580 O   0  0  0  0  0  0  0  0  0  0  0  0
  -27.1980  -29.8400   28.9380 C   0  0  0  0  0  0  0  0  0  0  0  0
  -29.3970  -27.9840   23.6620 C   0  0  0  0  0  0  0  0  0  0  0  0
  -29.1390  -30.9100   27.8400 C   0  0  0  0  0  3  0  0  0  0  0  0
  -30.0680  -29.6930   25.8040 C   0  0  0  0  0  0  0  0  0  0  0  0
  -28.5650  -28.4630   27.3800 C   0  0  0  0  0  2  0  0  0  0  0  0
  -29.1530  -28.6510   25.9990 C   0  0  0  0  0  0  0  0  0  0  0  0
  -28.8040  -27.8040   24.9280 C   0  0  0  0  0  3  0  0  0  0  0  0
  -30.2980  -29.0560   23.4700 C   0  0  0  0  0  3  0  0  0  0  0  0
  -30.6360  -29.9090   24.5360 C   0  0  0  0  0  3  0  0  0  0  0  0
  -30.3970  -30.5480   27.0060 C   0  0  0  0  0  2  0  0  0  0  0  0
  -28.2400  -29.7340   28.0670 N   0  0  0  0  0  0  0  0  0  0  0  0
  -27.0050  -30.8820   29.5810 O   0  0  0  0  0  0  0  0  0  0  0  0
  -28.4280  -32.1030   27.1620 C   0  0  0  0  0  0  0  0  0  0  0  0
  -29.2230  -33.0530   26.6420 N   0  0  0  0  0  0  0  0  0  0  0  0
  -27.1980  -32.1480   27.0880 O   0  0  0  0  0  0  0  0  0  0  0  0
  -30.2220  -32.9440   26.7510 H   0  0  0  0  0  0  0  0  0  0  0  0
  -30.2000  -35.4790   24.1510 C   0  0  0  0  0  0  0  0  0  0  0  0
  -28.7800  -34.2480   25.9250 C   0  0  0  0  0  3  0  0  0  0  0  0
  -27.8310  -33.8780   24.7620 C   0  0  0  0  0  2  0  0  0  0  0  0
  -28.5570  -33.6970   23.4250 C   0  0  0  0  0  2  0  0  0  0  0  0
  -29.2960  -34.9800   23.0360 C   0  0  0  0  0  2  0  0  0  0  0  0
  -29.9670  -35.1220   25.5050 C   0  0  0  0  0  0  0  0  0  0  0  0
  -30.8590  -35.5840   26.4980 C   0  0  0  0  0  3  0  0  0  0  0  0
  -31.9620  -36.3890   26.1580 C   0  0  0  0  0  3  0  0  0  0  0  0
  -32.1780  -36.7530   24.8170 C   0  0  0  0  0  3  0  0  0  0  0  0
  -31.2970  -36.3020   23.8190 C   0  0  0  0  0  3  0  0  0  0  0  0
  -26.2150  -28.6540   29.1870 C   0  0  0  0  0  3  0  0  0  0  0  0
  -25.1810  -28.4460   28.0120 C   0  0  1  0  0  0  0  0  0  0  0  0
  -24.5700  -29.7630   27.4810 C   0  0  0  0  0  1  0  0  0  0  0  0
  -25.8510  -27.7210   26.8210 C   0  0  0  0  0  1  0  0  0  0  0  0
  -24.0220  -27.5390   28.4870 C   0  0  0  0  0  1  0  0  0  0  0  0
  -25.5180  -28.9160   30.4520 N   0  0  0  0  0  0  0  0  0  0  0  0
  -25.8370  -28.3550   31.6270 C   0  0  0  0  0  0  0  0  0  0  0  0
  -26.7160  -27.4960   31.7410 O   0  0  0  0  0  0  0  0  0  0  0  0
  -24.8230  -29.6490   30.4420 H   0  0  0  0  0  0  0  0  0  0  0  0
  -25.9220  -29.8010   33.6810 C   0  0  0  0  0  1  0  0  0  0  0  0
  -25.0580  -28.8220   32.8700 C   0  0  0  0  0  3  0  0  0  0  0  0
  -23.5720  -26.8870   33.1350 C   0  0  0  0  0  1  0  0  0  0  0  0
  -24.6150  -27.7110   33.7400 N   0  0  0  0  0  0  0  0  0  0  0  0
  -24.2660  -28.0650   34.6270 H   0  0  0  0  0  0  0  0  0  0  0  0
  1  8  2  0
  1  6  1  0
  3  6  1  0
  4  2  1  0
  5  3  1  0
  5  7  1  0
  6  2  1  0
  7  4  1  0
  7  9  1  1
 10  1  1  0
 11 12  1  0
 11 13  1  0
 11 10  1  0
 14 11  1  0
 15 14  1  0
 17 16  1  6
 17 26  1  0
 17 15  1  0
 18 25  2  0
 19 24  1  0
 19 20  1  0
 20 21  1  0
 22 23  1  0
 22 21  1  0
 23 24  1  0
 24 18  1  0
 26 18  1  0
 27 26  1  0
 28 53  1  0
 29 28  2  0
 29 48  1  0
 30 29  1  0
 31 22  1  0
 31 28  1  0
 32 30  2  0
 32 31  1  0
 33 38  1  0
 33 30  1  0
 34 33  2  0
 35 36  2  0
 35 34  1  0
 36 37  1  0
 37 38  2  0
 39 36  1  0
 40 41  1  0
 40 39  1  0
 42 41  2  0
 43 42  1  0
 44 43  2  0
 44 45  1  0
 45 40  2  0
 46 45  1  0
 47 43  1  0
 48 50  2  0
 49 52  1  0
 49 48  1  0
 51 49  1  0
 53 55  1  0
 53 54  1  0
 56 17  1  0
 57 60  1  0
 57 56  1  0
 58 57  1  0
 59 57  1  0
 61  7  1  0
 61 62  1  0
 62 63  1  0
 63 65  1  0
 64 75  2  0
 65 70  1  0
 66 76  1  0
 66 74  1  0
 67 69  1  0
 67 73  1  0
 68 74  1  0
 69 68  1  0
 70 69  2  0
 71 65  2  0
 71 72  1  0
 72 67  2  0
 73 66  1  0
 74 64  1  0
 77 79  1  0
 77 76  1  0
 78 76  2  0
 80 85  1  0
 81 77  1  0
 82 81  1  0
 83 82  1  0
 84 83  1  0
 84 80  1  0
 85 81  1  0
 85 86  2  0
 87 86  1  0
 88 87  2  0
 89 80  2  0
 89 88  1  0
 90 64  1  0
 90 95  1  0
 91 94  1  1
 91 90  1  0
 92 91  1  0
 93 91  1  0
 95 96  1  0
 96 97  2  0
 96100  1  0
 98 95  1  0
100 99  1  0
100102  1  0
101102  1  0
102103  1  0
M  ISO  4  18 100  26 100  62 101  63 101
M  END
>  <TORSDO>  (95) 
F 25

>  <SCORE>  (95) 
-4.845

>  <name>  (95) 
94

>  <ligand_id>  (95) 
94

>  <original_smiles>  (95) 
[H]c1c([H])c([H])c2c(c1[H])C([H])([H])C([H])([H])C([H])([H])C2([H])N([H])C(=O)C1([H])N(C(=O)C([H])(N([H])C(=O)C([H])(N([H])C([H])([H])[H])C([H])([H])[H])C(C([H])([H])[H])(C([H])([H])[H])C([H])([H])[H])C([H])([H])c2c([H])c(OC([H])([H])C([H])([H])[N+]3([H])C([H])([H])C([H])([H])N(C(=O)C([H])([H])[N+]([H])([H])C([H])([H])C([H])([H])C(N([H])C(=O)N4C([H])([H])C([H])([H])C([H])([H])C([H])(n5nc(-c6c([H])c([H])c(Oc7c([H])c([H])c(F)c([H])c7F)c([H])c6[H])c(C(=O)N([H])[H])c5N([H])[H])C4([H])[H])(C([H])([H])[H])C([H])([H])[N+]([H])([H])[H])C([H])([H])C3([H])[H])c([H])c([H])c2C1([H])[H]

>  <smiles>  (95) 
[H]c1c([H])c([H])c2c(c1[H])C([H])([H])C([H])([H])C([H])([H])C2([H])N([H])C(=O)C1([H])N(C(=O)C([H])(N([H])C(=O)C([H])(N([H])C([H])([H])[H])C([H])([H])[H])C(C([H])([H])[H])(C([H])([H])[H])C([H])([H])[H])C([H])([H])c2c([H])c(OC([H])([H])C([H])([H])[N+]3([H])C([H])([H])C([H])([H])N(C(=O)C([H])([H])[N+]([H])([H])C([H])([H])C([H])([H])C(N([H])C(=O)N4C([H])([H])C([H])([H])C([H])([H])C([H])(n5nc(-c6c([H])c([H])c(Oc7c([H])c([H])c(F)c([H])c7F)c([H])c6[H])c(C(=O)N([H])[H])c5N([H])[H])C4([H])[H])(C([H])([H])[H])C([H])([H])[N+]([H])([H])[H])C([H])([H])C3([H])[H])c([H])c([H])c2C1([H])[H]

$$$$
95:0:0
     RDKit          3D

102109  0  0  1  0  0  0  0  0999 V2000
  -29.1500  -19.0240   20.6240 N   0  0  2  0  0  4  0  0  0  0  0  0
  -29.5330  -19.2760   19.7240 H   0  0  0  0  0  0  0  0  0  0  0  0
  -27.7060  -18.6870   20.3770 C   0  0  0  0  0  2  0  0  0  0  0  0
  -26.6750  -21.7030   18.1660 C   0  0  0  0  0  3  0  0  0  0  0  0
  -26.9530  -19.6020   19.4020 C   0  0  0  0  0  0  0  0  0  0  0  0
  -27.3960  -20.9070   19.0740 C   0  0  0  0  0  3  0  0  0  0  0  0
  -25.5050  -21.2100   17.5640 C   0  0  0  0  0  0  0  0  0  0  0  0
  -25.7510  -19.1300   18.8180 C   0  0  0  0  0  0  0  0  0  0  0  0
  -25.0350  -19.9270   17.9020 C   0  0  0  0  0  0  0  0  0  0  0  0
  -28.5240  -21.4110   19.6280 F   0  0  0  0  0 15  0  0  0  0  0  0
  -24.8340  -21.9690   16.6640 F   0  0  0  0  0  0  0  0  0  0  0  0
  -25.2780  -17.9000   19.1380 F   0  0  0  0  0  0  0  0  0  0  0  0
  -23.8890  -19.4650   17.3490 F   0  0  0  0  0  0  0  0  0  0  0  0
  -29.9060  -17.8240   21.1470 C   0  0  0  0  0  2  0  0  0  0  0  0
  -29.7180  -16.4830   20.3380 C   0  0  0  0  0  2  0  0  0  0  0  0
  -31.0330  -14.3680   20.0800 C   0  0  0  0  0  0  0  0  0  0  0  0
  -30.5780  -12.2200   18.9450 C   0  0  0  0  0  2  0  0  0  0  0  0
  -29.6150  -12.4510   17.7650 C   0  0  0  0  0  2  0  0  0  0  0  0
  -28.1470  -12.3690   18.2330 C   0  0  0  0  0  2  0  0  0  0  0  0
  -27.8800  -13.2300   19.4980 C   0  0  0  0  0  3  0  0  0  0  0  0
  -28.9630  -12.9990   20.5790 C   0  0  0  0  0  2  0  0  0  0  0  0
  -30.2770  -13.2410   19.9640 N   0  0  0  0  0  0  0  0  0  0  0  0
  -32.1270  -14.4960   19.5250 O   0  0  0  0  0  0  0  0  0  0  0  0
  -30.5640  -15.3770   20.8390 N   0  0  0  0  0  0  0  0  0  0  0  0
  -31.3260  -15.7570   21.3830 H   0  0  0  0  0  0  0  0  0  0  0  0
  -25.5340  -13.9380   20.2690 C   0  0  0  0  0  0  0  0  0  0  0  0
  -24.4480  -13.2180   20.6880 C   0  0  0  0  0  0  0  0  0  0  0  0
  -24.8520  -11.8480   20.6640 C   0  0  0  0  0  0  0  0  0  0  0  0
  -26.5350  -13.0130   20.0220 N   0  0  0  0  0  0  0  0  0  0  0  0
  -26.1290  -11.7510   20.3140 N   0  0  0  0  0  0  0  0  0  0  0  0
  -24.0800  -10.6190   20.8910 C   0  0  0  0  0  0  0  0  0  0  0  0
  -24.5110   -9.6380   21.8090 C   0  0  0  0  0  3  0  0  0  0  0  0
  -23.7430   -8.4730   22.0260 C   0  0  0  0  0  3  0  0  0  0  0  0
  -22.5290   -8.2830   21.3260 C   0  0  0  0  0  0  0  0  0  0  0  0
  -22.1140   -9.2520   20.3940 C   0  0  0  0  0  3  0  0  0  0  0  0
  -22.8840  -10.4080   20.1760 C   0  0  0  0  0  3  0  0  0  0  0  0
  -21.7270   -7.1750   21.4570 O   0  0  0  0  0  0  0  0  0  0  0  0
  -21.6950   -6.4420   22.6160 C   0  0  0  0  0  0  0  0  0  0  0  0
  -21.3170   -7.0140   23.8500 C   0  0  0  0  0  3  0  0  0  0  0  0
  -21.2320   -6.2090   25.0020 C   0  0  0  0  0  3  0  0  0  0  0  0
  -21.5110   -4.8310   24.9220 C   0  0  0  0  0  0  0  0  0  0  0  0
  -21.8820   -4.2580   23.6930 C   0  0  0  0  0  3  0  0  0  0  0  0
  -21.9710   -5.0620   22.5430 C   0  0  0  0  0  0  0  0  0  0  0  0
  -22.3080   -4.4990   21.3560 F   0  0  0  0  0  0  0  0  0  0  0  0
  -21.4200   -4.0560   26.0270 F   0  0  0  0  0  0  0  0  0  0  0  0
  -23.0800  -13.7560   20.9920 C   0  0  0  0  0  0  0  0  0  0  0  0
  -22.3850  -13.1600   21.9540 N   0  0  0  0  0  0  0  0  0  0  0  0
  -22.6400  -14.7440   20.4080 O   0  0  0  0  0  0  0  0  0  0  0  0
  -22.7520  -12.3610   22.4490 H   0  0  0  0  0  0  0  0  0  0  0  0
  -21.4670  -13.5040   22.1970 H   0  0  0  0  0  0  0  0  0  0  0  0
  -25.7450  -15.2950   20.0430 N   0  0  0  0  0  0  0  0  0  0  0  0
  -24.9400  -15.9050   20.0090 H   0  0  0  0  0  0  0  0  0  0  0  0
  -26.5010  -15.6040   19.4500 H   0  0  0  0  0  0  0  0  0  0  0  0
  -29.2050  -20.2540   21.5040 C   0  0  0  0  0  2  0  0  0  0  0  0
  -30.4880  -21.1530   21.5450 C   0  0  0  0  0  2  0  0  0  0  0  0
  -30.8950  -22.1000   20.3640 C   0  0  0  0  0  2  0  0  0  0  0  0
  -30.1300  -23.3750   18.4030 C   0  0  0  0  0  1  0  0  0  0  0  0
  -29.9040  -23.1110   19.8480 N   0  0  2  0  0  4  0  0  0  0  0  0
  -29.0230  -22.6180   19.8440 H   0  0  0  0  0  0  0  0  0  0  0  0
  -29.6520  -24.3620   20.6590 C   0  0  0  0  0  2  0  0  0  0  0  0
  -30.2660  -25.7120   20.1430 C   0  0  0  0  0  2  0  0  0  0  0  0
  -29.8760  -26.8830   20.9120 O   0  0  0  0  0  0  0  0  0  0  0  0
  -25.2030  -31.7480   23.3250 C   0  0  0  0  0  0  0  0  0  0  0  0
  -28.6390  -27.4910   20.7310 C   0  0  0  0  0  0  0  0  0  0  0  0
  -24.3680  -30.2190   21.5730 C   0  0  0  0  0  3  0  0  0  0  0  0
  -26.1350  -28.8030   20.3960 C   0  0  0  0  0  0  0  0  0  0  0  0
  -26.8600  -30.7920   21.7210 C   0  0  0  0  0  2  0  0  0  0  0  0
  -27.1540  -29.4260   21.1260 C   0  0  0  0  0  0  0  0  0  0  0  0
  -28.4030  -28.7740   21.2930 C   0  0  0  0  0  3  0  0  0  0  0  0
  -27.5820  -26.8810   20.0110 C   0  0  0  0  0  3  0  0  0  0  0  0
  -26.3440  -27.5310   19.8420 C   0  0  0  0  0  3  0  0  0  0  0  0
  -24.8260  -29.5490   20.2520 C   0  0  0  0  0  2  0  0  0  0  0  0
  -25.4860  -30.9390   22.2640 N   0  0  0  0  0  0  0  0  0  0  0  0
  -24.0370  -31.9260   23.7030 O   0  0  0  0  0  0  0  0  0  0  0  0
  -23.6870  -29.1520   22.4600 C   0  0  0  0  0  0  0  0  0  0  0  0
  -22.3830  -28.9240   22.2310 N   0  0  0  0  0  0  0  0  0  0  0  0
  -24.3320  -28.5320   23.3100 O   0  0  0  0  0  0  0  0  0  0  0  0
  -21.9220  -29.4770   21.5220 H   0  0  0  0  0  0  0  0  0  0  0  0
  -18.9920  -27.7330   22.6020 C   0  0  0  0  0  0  0  0  0  0  0  0
  -21.5490  -27.9400   22.9210 C   0  0  0  0  0  3  0  0  0  0  0  0
  -21.6440  -26.5560   22.2410 C   0  0  0  0  0  2  0  0  0  0  0  0
  -20.5520  -26.3220   21.1920 C   0  0  0  0  0  2  0  0  0  0  0  0
  -19.1630  -26.4360   21.8300 C   0  0  0  0  0  2  0  0  0  0  0  0
  -20.1140  -28.4480   23.1010 C   0  0  0  0  0  0  0  0  0  0  0  0
  -19.9020  -29.6680   23.7800 C   0  0  0  0  0  3  0  0  0  0  0  0
  -18.6010  -30.1710   23.9670 C   0  0  0  0  0  3  0  0  0  0  0  0
  -17.4930  -29.4510   23.4850 C   0  0  0  0  0  3  0  0  0  0  0  0
  -17.6910  -28.2340   22.8080 C   0  0  0  0  0  3  0  0  0  0  0  0
  -26.3280  -32.5060   24.0960 C   0  0  0  0  0  3  0  0  0  0  0  0
  -26.8000  -31.7590   25.4020 C   0  0  1  0  0  0  0  0  0  0  0  0
  -25.6350  -31.2940   26.3070 C   0  0  0  0  0  1  0  0  0  0  0  0
  -27.6440  -30.5140   25.0450 C   0  0  0  0  0  1  0  0  0  0  0  0
  -27.7130  -32.6870   26.2360 C   0  0  0  0  0  1  0  0  0  0  0  0
  -25.8160  -33.8450   24.4210 N   0  0  0  0  0  0  0  0  0  0  0  0
  -26.0600  -34.9490   23.7020 C   0  0  0  0  0  0  0  0  0  0  0  0
  -26.8100  -34.9570   22.7220 O   0  0  0  0  0  0  0  0  0  0  0  0
  -25.1490  -33.9040   25.1770 H   0  0  0  0  0  0  0  0  0  0  0  0
  -24.1250  -36.4910   23.2610 C   0  0  0  0  0  1  0  0  0  0  0  0
  -25.3630  -36.2500   24.1400 C   0  0  0  0  0  3  0  0  0  0  0  0
  -27.3090  -37.4000   25.0960 C   0  0  0  0  0  1  0  0  0  0  0  0
  -26.2460  -37.4360   24.0950 N   0  0  0  0  0  0  0  0  0  0  0  0
  -25.7110  -38.2900   24.2310 H   0  0  0  0  0  0  0  0  0  0  0  0
  1 14  1  0
  1 54  1  0
  1  2  1  6
  3  1  1  0
  4  6  1  0
  5  3  1  0
  6  5  2  0
  7  9  1  0
  7  4  2  0
  8 12  1  0
  8  5  1  0
  9  8  2  0
 11  7  1  0
 13  9  1  0
 15 24  1  0
 15 14  1  0
 16 24  1  0
 17 22  1  0
 18 19  1  0
 18 17  1  0
 20 19  1  0
 20 29  1  0
 20 21  1  0
 22 16  1  0
 22 21  1  0
 23 16  2  0
 24 25  1  0
 26 27  2  0
 27 46  1  0
 28 27  1  0
 28 31  1  0
 29 26  1  0
 29 30  1  0
 30 28  2  0
 31 32  1  0
 32 33  2  0
 34 37  1  0
 34 33  1  0
 35 34  2  0
 36 35  1  0
 36 31  2  0
 37 38  1  0
 38 39  1  0
 39 40  2  0
 41 40  1  0
 41 45  1  0
 42 41  2  0
 43 38  2  0
 43 42  1  0
 44 43  1  0
 46 47  1  0
 47 50  1  0
 47 49  1  0
 48 46  2  0
 51 26  1  0
 52 51  1  0
 53 51  1  0
 54 55  1  0
 56 55  1  0
 57 58  1  0
 58 56  1  0
 58 60  1  0
 58 59  1  6
 61 60  1  0
 61 62  1  0
 63 74  2  0
 64 62  1  0
 64 69  1  0
 65 73  1  0
 65 75  1  0
 66 68  1  0
 67 73  1  0
 68 69  2  0
 68 67  1  0
 70 64  2  0
 71 70  1  0
 71 66  2  0
 72 66  1  0
 72 65  1  0
 73 63  1  0
 75 77  2  0
 76 75  1  0
 78 76  1  0
 79 88  2  0
 79 84  1  0
 80 76  1  0
 80 84  1  0
 81 80  1  0
 82 83  1  0
 82 81  1  0
 83 79  1  0
 84 85  2  0
 85 86  1  0
 87 86  2  0
 88 87  1  0
 89 63  1  0
 89 94  1  0
 89 90  1  0
 90 93  1  1
 90 91  1  0
 92 90  1  0
 94 97  1  0
 95 99  1  0
 95 94  1  0
 96 95  2  0
 99 98  1  0
101 99  1  0
101102  1  0
101100  1  0
M  ISO  4  16 100  24 100  61 101  62 101
M  END
>  <TORSDO>  (96) 
F 26

>  <SCORE>  (96) 
-9.303

>  <name>  (96) 
95

>  <ligand_id>  (96) 
95

>  <original_smiles>  (96) 
[H]c1c([H])c([H])c2c(c1[H])C([H])([H])C([H])([H])C([H])([H])C2([H])N([H])C(=O)C1([H])N(C(=O)C([H])(N([H])C(=O)C([H])(N([H])C([H])([H])[H])C([H])([H])[H])C(C([H])([H])[H])(C([H])([H])[H])C([H])([H])[H])C([H])([H])c2c([H])c(OC([H])([H])C([H])([H])[N+]([H])(C([H])([H])[H])C([H])([H])C([H])([H])C([H])([H])[N+]([H])(C([H])([H])c3c(F)c([H])c(F)c(F)c3F)C([H])([H])C([H])([H])N([H])C(=O)N3C([H])([H])C([H])([H])C([H])([H])C([H])(n4nc(-c5c([H])c([H])c(Oc6c([H])c([H])c(F)c([H])c6F)c([H])c5[H])c(C(=O)N([H])[H])c4N([H])[H])C3([H])[H])c([H])c([H])c2C1([H])[H]

>  <smiles>  (96) 
[H]c1c([H])c([H])c2c(c1[H])C([H])([H])C([H])([H])C([H])([H])C2([H])N([H])C(=O)C1([H])N(C(=O)C([H])(N([H])C(=O)C([H])(N([H])C([H])([H])[H])C([H])([H])[H])C(C([H])([H])[H])(C([H])([H])[H])C([H])([H])[H])C([H])([H])c2c([H])c(OC([H])([H])C([H])([H])[N+]([H])(C([H])([H])[H])C([H])([H])C([H])([H])C([H])([H])[N+]([H])(C([H])([H])c3c(F)c([H])c(F)c(F)c3F)C([H])([H])C([H])([H])N([H])C(=O)N3C([H])([H])C([H])([H])C([H])([H])C([H])(n4nc(-c5c([H])c([H])c(Oc6c([H])c([H])c(F)c([H])c6F)c([H])c5[H])c(C(=O)N([H])[H])c4N([H])[H])C3([H])[H])c([H])c([H])c2C1([H])[H]

$$$$
