0:0:0
     RDKit          3D

 96104  0  0  1  0  0  0  0  0999 V2000
  -30.6610  -21.9350   22.1710 C   0  0  0  0  0  1  0  0  0  0  0  0
  -29.6360  -21.7510   21.1130 N   0  0  1  0  0  4  0  0  0  0  0  0
  -30.1140  -21.6980   20.2210 H   0  0  0  0  0  0  0  0  0  0  0  0
  -28.9460  -20.4300   21.2390 C   0  0  0  0  0  2  0  0  0  0  0  0
  -29.6830  -17.9720   21.0530 C   0  0  0  0  0  3  0  0  0  0  0  0
  -30.6380  -18.4130   18.4480 C   0  0  0  0  0  3  0  0  0  0  0  0
  -29.6350  -19.2790   20.4990 C   0  0  0  0  0  0  0  0  0  0  0  0
  -30.1880  -16.8760   20.3040 C   0  0  0  0  0  0  0  0  0  0  0  0
  -30.1450  -19.4890   19.2010 C   0  0  0  0  0  0  0  0  0  0  0  0
  -30.6300  -17.1110   18.9730 C   0  0  0  0  0  0  0  0  0  0  0  0
  -30.1340  -20.7340   18.6660 F   0  0  0  0  0  0  0  0  0  0  0  0
  -31.0000  -16.0940   18.1590 F   0  0  0  0  0  0  0  0  0  0  0  0
  -30.8930  -14.5130   20.4690 C   0  0  0  0  0  0  0  0  0  0  0  0
  -30.6100  -12.3520   19.3350 C   0  0  0  0  0  2  0  0  0  0  0  0
  -29.6930  -12.5750   18.1140 C   0  0  0  0  0  2  0  0  0  0  0  0
  -28.2050  -12.4650   18.5090 C   0  0  0  0  0  2  0  0  0  0  0  0
  -27.8570  -13.2880   19.7800 C   0  0  0  0  0  3  0  0  0  0  0  0
  -28.8910  -13.0420   20.9020 C   0  0  0  0  0  2  0  0  0  0  0  0
  -30.2290  -13.3320   20.3620 N   0  0  0  0  0  0  0  0  0  0  0  0
  -32.0560  -14.6660   20.0930 O   0  0  0  0  0  0  0  0  0  0  0  0
  -30.1430  -15.5600   20.8670 N   0  0  0  0  0  0  0  0  0  0  0  0
  -29.3120  -15.3310   21.3880 H   0  0  0  0  0  0  0  0  0  0  0  0
  -25.4440  -13.9120   20.4360 C   0  0  0  0  0  0  0  0  0  0  0  0
  -24.3680  -13.1450   20.7980 C   0  0  0  0  0  0  0  0  0  0  0  0
  -24.8290  -11.7920   20.7950 C   0  0  0  0  0  0  0  0  0  0  0  0
  -26.4930  -13.0260   20.2360 N   0  0  0  0  0  0  0  0  0  0  0  0
  -26.1250  -11.7470   20.5100 N   0  0  0  0  0  0  0  0  0  0  0  0
  -24.1000  -10.5310   20.9910 C   0  0  0  0  0  0  0  0  0  0  0  0
  -24.5160   -9.5790   21.9490 C   0  0  0  0  0  3  0  0  0  0  0  0
  -23.7890   -8.3840   22.1340 C   0  0  0  0  0  3  0  0  0  0  0  0
  -22.6300   -8.1320   21.3610 C   0  0  0  0  0  0  0  0  0  0  0  0
  -22.2320   -9.0730   20.3940 C   0  0  0  0  0  3  0  0  0  0  0  0
  -22.9600  -10.2600   20.2080 C   0  0  0  0  0  3  0  0  0  0  0  0
  -21.8740   -6.9880   21.4520 O   0  0  0  0  0  0  0  0  0  0  0  0
  -21.7980   -6.2650   22.6160 C   0  0  0  0  0  0  0  0  0  0  0  0
  -21.3340   -6.8370   23.8210 C   0  0  0  0  0  3  0  0  0  0  0  0
  -21.2100   -6.0400   24.9770 C   0  0  0  0  0  3  0  0  0  0  0  0
  -21.5370   -4.6720   24.9280 C   0  0  0  0  0  0  0  0  0  0  0  0
  -21.9930   -4.0990   23.7280 C   0  0  0  0  0  3  0  0  0  0  0  0
  -22.1200   -4.8930   22.5750 C   0  0  0  0  0  0  0  0  0  0  0  0
  -22.5400   -4.3300   21.4160 F   0  0  0  0  0  0  0  0  0  0  0  0
  -21.4100   -3.9050   26.0350 F   0  0  0  0  0  0  0  0  0  0  0  0
  -22.9640  -13.6230   21.0350 C   0  0  0  0  0  0  0  0  0  0  0  0
  -22.2190  -12.9450   21.9010 N   0  0  0  0  0  0  0  0  0  0  0  0
  -22.5350  -14.6370   20.4870 O   0  0  0  0  0  0  0  0  0  0  0  0
  -22.5750  -12.1240   22.3690 H   0  0  0  0  0  0  0  0  0  0  0  0
  -21.2750  -13.2500   22.0940 H   0  0  0  0  0  0  0  0  0  0  0  0
  -25.6170  -15.2780   20.2410 N   0  0  0  0  0  0  0  0  0  0  0  0
  -24.8590  -15.9430   20.3470 H   0  0  0  0  0  0  0  0  0  0  0  0
  -26.4760  -15.7010   19.9140 H   0  0  0  0  0  0  0  0  0  0  0  0
  -28.6690  -22.8870   20.9830 C   0  0  0  0  0  2  0  0  0  0  0  0
  -30.1450  -24.3930   19.4750 C   0  0  0  0  0  1  0  0  0  0  0  0
  -29.2430  -24.3220   20.7190 C   0  0  2  0  0  0  0  0  0  0  0  0
  -29.9450  -24.7170   21.7840 F   0  0  0  0  0  0  0  0  0  0  0  0
  -28.0520  -25.3000   20.5660 C   0  0  0  0  0  2  0  0  0  0  0  0
  -28.3580  -26.6710   20.2220 O   0  0  0  0  0  0  0  0  0  0  0  0
  -24.5870  -31.8940   23.2490 C   0  0  0  0  0  0  0  0  0  0  0  0
  -27.2300  -27.4680   20.1470 C   0  0  0  0  0  0  0  0  0  0  0  0
  -23.3860  -30.5050   21.5930 C   0  0  0  0  0  3  0  0  0  0  0  0
  -24.8490  -28.9970   20.1490 C   0  0  0  0  0  0  0  0  0  0  0  0
  -25.9150  -30.8700   21.4080 C   0  0  0  0  0  2  0  0  0  0  0  0
  -26.0070  -29.5060   20.7530 C   0  0  0  0  0  0  0  0  0  0  0  0
  -27.2020  -28.7470   20.7540 C   0  0  0  0  0  3  0  0  0  0  0  0
  -26.0620  -27.0060   19.4950 C   0  0  0  0  0  3  0  0  0  0  0  0
  -24.8740  -27.7500   19.5110 C   0  0  0  0  0  3  0  0  0  0  0  0
  -23.6020  -29.8470   20.2040 C   0  0  0  0  0  2  0  0  0  0  0  0
  -24.6470  -31.1030   22.1420 N   0  0  0  0  0  0  0  0  0  0  0  0
  -23.5040  -32.1600   23.7890 O   0  0  0  0  0  0  0  0  0  0  0  0
  -22.7380  -29.4680   22.5400 C   0  0  0  0  0  0  0  0  0  0  0  0
  -21.4130  -29.2870   22.4130 N   0  0  0  0  0  0  0  0  0  0  0  0
  -23.4250  -28.8350   23.3460 O   0  0  0  0  0  0  0  0  0  0  0  0
  -20.9190  -29.8510   21.7350 H   0  0  0  0  0  0  0  0  0  0  0  0
  -18.0400  -28.0940   22.9100 C   0  0  0  0  0  0  0  0  0  0  0  0
  -20.5990  -28.3410   23.1750 C   0  0  0  0  0  3  0  0  0  0  0  0
  -20.6950  -26.9160   22.5830 C   0  0  0  0  0  2  0  0  0  0  0  0
  -19.5900  -26.6080   21.5700 C   0  0  0  0  0  2  0  0  0  0  0  0
  -18.2110  -26.7520   22.2190 C   0  0  0  0  0  2  0  0  0  0  0  0
  -19.1610  -28.8470   23.3450 C   0  0  0  0  0  0  0  0  0  0  0  0
  -18.9490  -30.1050   23.9500 C   0  0  0  0  0  3  0  0  0  0  0  0
  -17.6460  -30.6090   24.1270 C   0  0  0  0  0  3  0  0  0  0  0  0
  -16.5390  -29.8510   23.7100 C   0  0  0  0  0  3  0  0  0  0  0  0
  -16.7360  -28.5950   23.1070 C   0  0  0  0  0  3  0  0  0  0  0  0
  -25.8710  -32.5250   23.8750 C   0  0  0  0  0  3  0  0  0  0  0  0
  -25.5610  -33.9200   24.2100 N   0  0  0  0  0  0  0  0  0  0  0  0
  -25.8800  -34.9730   23.4460 C   0  0  0  0  0  0  0  0  0  0  0  0
  -26.5400  -34.8720   22.4080 O   0  0  0  0  0  0  0  0  0  0  0  0
  -24.9820  -34.0750   25.0220 H   0  0  0  0  0  0  0  0  0  0  0  0
  -24.1420  -36.7550   23.1060 C   0  0  0  0  0  1  0  0  0  0  0  0
  -25.3910  -36.3590   23.9070 C   0  0  0  0  0  3  0  0  0  0  0  0
  -27.5280  -37.2510   24.7220 C   0  0  0  0  0  1  0  0  0  0  0  0
  -26.4170  -37.4170   23.7870 N   0  0  0  0  0  0  0  0  0  0  0  0
  -26.0070  -38.3330   23.9430 H   0  0  0  0  0  0  0  0  0  0  0  0
  -26.3920  -31.7460   25.1440 C   0  0  1  0  0  0  0  0  0  0  0  0
  -25.3010  -31.4970   26.2100 C   0  0  0  0  0  1  0  0  0  0  0  0
  -26.9800  -30.3730   24.7430 C   0  0  0  0  0  1  0  0  0  0  0  0
  -27.5400  -32.5390   25.8120 C   0  0  0  0  0  1  0  0  0  0  0  0
  2  4  1  0
  2  1  1  0
  2  3  1  6
  6 10  2  0
  6  9  1  0
  7  5  1  0
  7  4  1  0
  8 21  1  0
  8  5  2  0
  9  7  2  0
 10  8  1  0
 11  9  1  0
 12 10  1  0
 13 21  1  0
 14 19  1  0
 15 16  1  0
 15 14  1  0
 17 16  1  0
 17 26  1  0
 17 18  1  0
 19 13  1  0
 19 18  1  0
 20 13  2  0
 21 22  1  0
 23 24  2  0
 24 43  1  0
 25 24  1  0
 25 28  1  0
 26 23  1  0
 26 27  1  0
 27 25  2  0
 28 29  1  0
 29 30  2  0
 31 34  1  0
 31 30  1  0
 32 31  2  0
 33 32  1  0
 33 28  2  0
 34 35  1  0
 35 36  1  0
 36 37  2  0
 38 37  1  0
 38 42  1  0
 39 38  2  0
 40 35  2  0
 40 39  1  0
 41 40  1  0
 43 44  1  0
 44 47  1  0
 44 46  1  0
 45 43  2  0
 48 49  1  0
 48 23  1  0
 50 48  1  0
 51  2  1  0
 53 52  1  6
 53 51  1  0
 53 54  1  0
 55 53  1  0
 56 55  1  0
 57 68  2  0
 58 56  1  0
 58 63  1  0
 59 67  1  0
 59 69  1  0
 60 66  1  0
 60 62  1  0
 61 67  1  0
 62 63  2  0
 62 61  1  0
 64 65  1  0
 64 58  2  0
 65 60  2  0
 66 59  1  0
 67 57  1  0
 69 71  2  0
 70 69  1  0
 72 70  1  0
 73 82  2  0
 73 78  1  0
 74 70  1  0
 74 78  1  0
 75 74  1  0
 76 77  1  0
 76 75  1  0
 77 73  1  0
 78 79  2  0
 79 80  1  0
 81 80  2  0
 82 81  1  0
 83 57  1  0
 83 84  1  0
 83 93  1  0
 84 87  1  0
 85 89  1  0
 85 84  1  0
 86 85  2  0
 89 88  1  0
 91 89  1  0
 91 92  1  0
 91 90  1  0
 93 96  1  1
 93 94  1  0
 95 93  1  0
M  ISO  4  13 100  21 100  55 101  56 101
M  END
>  <TORSDO>  (1) 
F 21

>  <SCORE>  (1) 
-13.649

>  <name>  (1) 
0

>  <ligand_id>  (1) 
0

>  <original_smiles>  (1) 
[H]c1c([H])c([H])c2c(c1[H])C([H])([H])C([H])([H])C([H])([H])C2([H])N([H])C(=O)C1([H])N(C(=O)C([H])(N([H])C(=O)C([H])(N([H])C([H])([H])[H])C([H])([H])[H])C(C([H])([H])[H])(C([H])([H])[H])C([H])([H])[H])C([H])([H])c2c([H])c(OC([H])([H])C(F)(C([H])([H])[H])C([H])([H])[N+]([H])(C([H])([H])[H])C([H])([H])c3c([H])c(N([H])C(=O)N4C([H])([H])C([H])([H])C([H])([H])C([H])(n5nc(-c6c([H])c([H])c(Oc7c([H])c([H])c(F)c([H])c7F)c([H])c6[H])c(C(=O)N([H])[H])c5N([H])[H])C4([H])[H])c(F)c([H])c3F)c([H])c([H])c2C1([H])[H]

>  <smiles>  (1) 
[H]c1c([H])c([H])c2c(c1[H])C([H])([H])C([H])([H])C([H])([H])C2([H])N([H])C(=O)C1([H])N(C(=O)C([H])(N([H])C(=O)C([H])(N([H])C([H])([H])[H])C([H])([H])[H])C(C([H])([H])[H])(C([H])([H])[H])C([H])([H])[H])C([H])([H])c2c([H])c(OC([H])([H])C(F)(C([H])([H])[H])C([H])([H])[N+]([H])(C([H])([H])[H])C([H])([H])c3c([H])c(N([H])C(=O)N4C([H])([H])C([H])([H])C([H])([H])C([H])(n5nc(-c6c([H])c([H])c(Oc7c([H])c([H])c(F)c([H])c7F)c([H])c6[H])c(C(=O)N([H])[H])c5N([H])[H])C4([H])[H])c(F)c([H])c3F)c([H])c([H])c2C1([H])[H]

$$$$
1:0:0
     RDKit          3D

 91 99  0  0  1  0  0  0  0  0999 V2000
  -29.4340  -21.4500   18.8010 C   0  0  0  0  0  3  0  0  0  0  0  0
  -28.8560  -19.8460   20.8570 C   0  0  0  0  0  3  0  0  0  0  0  0
  -29.7780  -19.9460   18.8190 C   0  0  0  0  0  0  0  0  0  0  0  0
  -28.7730  -22.3660   19.7860 C   0  0  0  0  0  0  0  0  0  0  0  0
  -29.5250  -18.9250   19.8900 C   0  0  0  0  0  0  0  0  0  0  0  0
  -28.5230  -21.3370   20.8290 C   0  0  0  0  0  0  0  0  0  0  0  0
  -27.8380  -21.7850   21.9100 F   0  0  0  0  0  0  0  0  0  0  0  0
  -30.4400  -15.8870   19.8570 C   0  0  0  0  0  0  0  0  0  0  0  0
  -30.5350  -13.3350   19.0980 C   0  0  0  0  0  2  0  0  0  0  0  0
  -29.6040  -12.9340   17.9180 C   0  0  0  0  0  2  0  0  0  0  0  0
  -28.1880  -12.6000   18.4200 C   0  0  0  0  0  2  0  0  0  0  0  0
  -27.7170  -13.6080   19.4940 C   0  0  0  0  0  3  0  0  0  0  0  0
  -28.7850  -13.9090   20.5710 C   0  0  0  0  0  2  0  0  0  0  0  0
  -29.9420  -14.5150   19.8700 N   0  0  0  0  0  0  0  0  0  0  0  0
  -31.6560  -15.8590   19.5920 O   0  0  0  0  0  0  0  0  0  0  0  0
  -29.6270  -17.2020   20.0130 N   0  0  0  0  0  0  0  0  0  0  0  0
  -28.7420  -16.8820   20.3770 H   0  0  0  0  0  0  0  0  0  0  0  0
  -25.3840  -14.1330   20.3560 C   0  0  0  0  0  0  0  0  0  0  0  0
  -24.3400  -13.3510   20.7600 C   0  0  0  0  0  0  0  0  0  0  0  0
  -24.8060  -12.0010   20.6960 C   0  0  0  0  0  0  0  0  0  0  0  0
  -26.4170  -13.2650   20.0590 N   0  0  0  0  0  0  0  0  0  0  0  0
  -26.0860  -11.9740   20.3300 N   0  0  0  0  0  0  0  0  0  0  0  0
  -24.0860  -10.7370   20.8970 C   0  0  0  0  0  0  0  0  0  0  0  0
  -24.5100   -9.7850   21.8490 C   0  0  0  0  0  3  0  0  0  0  0  0
  -23.7820   -8.5900   22.0410 C   0  0  0  0  0  3  0  0  0  0  0  0
  -22.6170   -8.3370   21.2800 C   0  0  0  0  0  0  0  0  0  0  0  0
  -22.2110   -9.2780   20.3180 C   0  0  0  0  0  3  0  0  0  0  0  0
  -22.9400  -10.4650   20.1230 C   0  0  0  0  0  3  0  0  0  0  0  0
  -21.8660   -7.1890   21.3760 O   0  0  0  0  0  0  0  0  0  0  0  0
  -21.7600   -6.4970   22.5550 C   0  0  0  0  0  0  0  0  0  0  0  0
  -21.1820   -7.0720   23.7100 C   0  0  0  0  0  3  0  0  0  0  0  0
  -21.0300   -6.3020   24.8790 C   0  0  0  0  0  3  0  0  0  0  0  0
  -21.4450   -4.9570   24.8970 C   0  0  0  0  0  0  0  0  0  0  0  0
  -22.0190   -4.3820   23.7500 C   0  0  0  0  0  3  0  0  0  0  0  0
  -22.1720   -5.1490   22.5820 C   0  0  0  0  0  0  0  0  0  0  0  0
  -22.7050   -4.5840   21.4710 F   0  0  0  0  0  0  0  0  0  0  0  0
  -21.2940   -4.2160   26.0180 F   0  0  0  0  0  0  0  0  0  0  0  0
  -22.9540  -13.8270   21.0810 C   0  0  0  0  0  0  0  0  0  0  0  0
  -22.2540  -13.1350   21.9730 N   0  0  0  0  0  0  0  0  0  0  0  0
  -22.4960  -14.8510   20.5740 O   0  0  0  0  0  0  0  0  0  0  0  0
  -22.6310  -12.3090   22.4130 H   0  0  0  0  0  0  0  0  0  0  0  0
  -21.3270  -13.4440   22.2300 H   0  0  0  0  0  0  0  0  0  0  0  0
  -25.5340  -15.5060   20.1840 N   0  0  0  0  0  0  0  0  0  0  0  0
  -24.7540  -16.1430   20.3130 H   0  0  0  0  0  0  0  0  0  0  0  0
  -26.3340  -15.9430   19.7440 H   0  0  0  0  0  0  0  0  0  0  0  0
  -30.3770  -19.4430   17.5060 C   0  0  1  0  0  0  0  0  0  0  0  0
  -31.2280  -20.3460   17.0130 F   0  0  0  0  0  0  0  0  0  0  0  0
  -31.0360  -18.2920   17.6450 F   0  0  0  0  0  0  0  0  0  0  0  0
  -29.3860  -19.2590   16.6270 F   0  0  0  0  0  0  0  0  0  0  0  0
  -28.0490  -24.0810   19.5820 C   0  0  0  0  0  2  0  0  0  0  0  0
  -28.2660  -25.7740   19.9750 O   0  0  0  0  0  0  0  0  0  0  0  0
  -24.6740  -31.8870   23.1530 C   0  0  0  0  0  0  0  0  0  0  0  0
  -27.2890  -26.9810   19.9500 C   0  0  0  0  0  0  0  0  0  0  0  0
  -23.5070  -30.5280   21.4700 C   0  0  0  0  0  3  0  0  0  0  0  0
  -24.9810  -28.9640   19.9890 C   0  0  0  0  0  0  0  0  0  0  0  0
  -26.0830  -30.7220   21.3480 C   0  0  0  0  0  2  0  0  0  0  0  0
  -26.1720  -29.3200   20.6330 C   0  0  0  0  0  0  0  0  0  0  0  0
  -27.3090  -28.3540   20.5850 C   0  0  0  0  0  3  0  0  0  0  0  0
  -26.0600  -26.8390   19.2570 C   0  0  0  0  0  3  0  0  0  0  0  0
  -24.9630  -27.7510   19.2800 C   0  0  0  0  0  3  0  0  0  0  0  0
  -23.7530  -29.8840   20.0750 C   0  0  0  0  0  2  0  0  0  0  0  0
  -24.7780  -31.0750   22.0430 N   0  0  0  0  0  0  0  0  0  0  0  0
  -23.5770  -32.1480   23.6770 O   0  0  0  0  0  0  0  0  0  0  0  0
  -22.8120  -29.5020   22.4030 C   0  0  0  0  0  0  0  0  0  0  0  0
  -21.4820  -29.3310   22.2800 N   0  0  0  0  0  0  0  0  0  0  0  0
  -23.4810  -28.8590   23.2160 O   0  0  0  0  0  0  0  0  0  0  0  0
  -20.9890  -29.8960   21.6040 H   0  0  0  0  0  0  0  0  0  0  0  0
  -18.1090  -28.0840   22.8060 C   0  0  0  0  0  0  0  0  0  0  0  0
  -20.6740  -28.3540   23.0210 C   0  0  0  0  0  3  0  0  0  0  0  0
  -20.7670  -26.9510   22.3770 C   0  0  0  0  0  2  0  0  0  0  0  0
  -19.6440  -26.6750   21.3710 C   0  0  0  0  0  2  0  0  0  0  0  0
  -18.2780  -26.7750   22.0530 C   0  0  0  0  0  2  0  0  0  0  0  0
  -19.2330  -28.8340   23.2470 C   0  0  0  0  0  0  0  0  0  0  0  0
  -19.0170  -30.0560   23.9200 C   0  0  0  0  0  3  0  0  0  0  0  0
  -17.7110  -30.5310   24.1490 C   0  0  0  0  0  3  0  0  0  0  0  0
  -16.6030  -29.7800   23.7220 C   0  0  0  0  0  3  0  0  0  0  0  0
  -16.8030  -28.5570   23.0560 C   0  0  0  0  0  3  0  0  0  0  0  0
  -25.9270  -32.5380   23.8130 C   0  0  0  0  0  3  0  0  0  0  0  0
  -26.4100  -31.7730   25.1080 C   0  0  1  0  0  0  0  0  0  0  0  0
  -25.2880  -31.5290   26.1450 C   0  0  0  0  0  1  0  0  0  0  0  0
  -27.0130  -30.3950   24.7490 C   0  0  0  0  0  1  0  0  0  0  0  0
  -27.5370  -32.5760   25.8000 C   0  0  0  0  0  1  0  0  0  0  0  0
  -25.5940  -33.9350   24.1550 N   0  0  0  0  0  0  0  0  0  0  0  0
  -25.9100  -35.0070   23.4140 C   0  0  0  0  0  0  0  0  0  0  0  0
  -26.5700  -34.9250   22.3760 O   0  0  0  0  0  0  0  0  0  0  0  0
  -25.0010  -34.0700   24.9610 H   0  0  0  0  0  0  0  0  0  0  0  0
  -24.1580  -36.7950   23.1320 C   0  0  0  0  0  1  0  0  0  0  0  0
  -25.4240  -36.3880   23.9020 C   0  0  0  0  0  3  0  0  0  0  0  0
  -27.5560  -37.3080   24.7050 C   0  0  0  0  0  1  0  0  0  0  0  0
  -26.4430  -37.4540   23.7700 N   0  0  0  0  0  0  0  0  0  0  0  0
  -26.0280  -38.3700   23.9110 H   0  0  0  0  0  0  0  0  0  0  0  0
  1  3  2  0
  1  4  1  0
  3  5  1  0
  4  6  2  0
  5 16  1  0
  5  2  2  0
  6  2  1  0
  6  7  1  0
  8 14  1  0
  8 16  1  0
  9 14  1  0
 10 11  1  0
 10  9  1  0
 12 11  1  0
 12 21  1  0
 12 13  1  0
 14 13  1  0
 15  8  2  0
 16 17  1  0
 18 19  2  0
 19 38  1  0
 20 19  1  0
 20 23  1  0
 21 22  1  0
 21 18  1  0
 22 20  2  0
 23 24  1  0
 24 25  2  0
 26 29  1  0
 26 25  1  0
 27 26  2  0
 28 27  1  0
 28 23  2  0
 29 30  1  0
 30 35  2  0
 30 31  1  0
 31 32  2  0
 32 33  1  0
 33 37  1  0
 34 33  2  0
 35 34  1  0
 36 35  1  0
 38 39  1  0
 39 42  1  0
 39 41  1  0
 40 38  2  0
 43 44  1  0
 43 18  1  0
 45 43  1  0
 46 48  1  1
 46  3  1  0
 47 46  1  0
 49 46  1  0
 50  4  1  0
 50 51  1  0
 52 63  2  0
 53 51  1  0
 53 58  1  0
 54 62  1  0
 54 64  1  0
 55 61  1  0
 55 57  1  0
 56 62  1  0
 57 56  1  0
 58 57  2  0
 59 60  1  0
 59 53  2  0
 60 55  2  0
 61 54  1  0
 62 52  1  0
 64 66  2  0
 65 64  1  0
 67 65  1  0
 68 77  2  0
 68 73  1  0
 69 65  1  0
 69 73  1  0
 70 69  1  0
 71 72  1  0
 71 70  1  0
 72 68  1  0
 73 74  2  0
 74 75  1  0
 76 75  2  0
 77 76  1  0
 78 52  1  0
 78 83  1  0
 78 79  1  0
 79 82  1  1
 79 80  1  0
 81 79  1  0
 83 86  1  0
 84 88  1  0
 84 83  1  0
 85 84  2  0
 88 87  1  0
 90 88  1  0
 90 91  1  0
 90 89  1  0
M  ISO  4   8 100  16 100  50 101  51 101
M  END
>  <TORSDO>  (2) 
F 18

>  <SCORE>  (2) 
-16.182

>  <name>  (2) 
1

>  <ligand_id>  (2) 
1

>  <original_smiles>  (2) 
[H]c1c([H])c([H])c2c(c1[H])C([H])([H])C([H])([H])C([H])([H])C2([H])N([H])C(=O)C1([H])N(C(=O)C([H])(N([H])C(=O)C([H])(N([H])C([H])([H])[H])C([H])([H])[H])C(C([H])([H])[H])(C([H])([H])[H])C([H])([H])[H])C([H])([H])c2c([H])c(OC([H])([H])c3c([H])c(C(F)(F)F)c(N([H])C(=O)N4C([H])([H])C([H])([H])C([H])([H])C([H])(n5nc(-c6c([H])c([H])c(Oc7c([H])c([H])c(F)c([H])c7F)c([H])c6[H])c(C(=O)N([H])[H])c5N([H])[H])C4([H])[H])c([H])c3F)c([H])c([H])c2C1([H])[H]

>  <smiles>  (2) 
[H]c1c([H])c([H])c2c(c1[H])C([H])([H])C([H])([H])C([H])([H])C2([H])N([H])C(=O)C1([H])N(C(=O)C([H])(N([H])C(=O)C([H])(N([H])C([H])([H])[H])C([H])([H])[H])C(C([H])([H])[H])(C([H])([H])[H])C([H])([H])[H])C([H])([H])c2c([H])c(OC([H])([H])c3c([H])c(C(F)(F)F)c(N([H])C(=O)N4C([H])([H])C([H])([H])C([H])([H])C([H])(n5nc(-c6c([H])c([H])c(Oc7c([H])c([H])c(F)c([H])c7F)c([H])c6[H])c(C(=O)N([H])[H])c5N([H])[H])C4([H])[H])c([H])c3F)c([H])c([H])c2C1([H])[H]

$$$$
2:0:0
     RDKit          3D

 96104  0  0  1  0  0  0  0  0999 V2000
  -30.1690  -22.4640   22.5540 C   0  0  0  0  0  2  0  0  0  0  0  0
  -29.9920  -21.1330   21.7640 C   0  0  0  0  0  2  0  0  0  0  0  0
  -31.8980  -18.2180   20.2890 C   0  0  0  0  0  2  0  0  0  0  0  0
  -31.0300  -18.0590   22.6850 C   0  0  0  0  0  2  0  0  0  0  0  0
  -31.2320  -19.6110   20.2420 C   0  0  0  0  0  2  0  0  0  0  0  0
  -31.6560  -19.4750   22.7120 C   0  0  0  0  0  2  0  0  0  0  0  0
  -31.2450  -17.2900   21.3440 C   0  0  0  0  0  3  0  0  0  0  0  0
  -31.2380  -20.3280   21.5570 N   0  0  2  0  0  4  0  0  0  0  0  0
  -31.9820  -21.0020   21.4710 H   0  0  0  0  0  0  0  0  0  0  0  0
  -30.5730  -14.4260   20.2710 C   0  0  0  0  0  0  0  0  0  0  0  0
  -30.3320  -12.2660   19.1030 C   0  0  0  0  0  2  0  0  0  0  0  0
  -29.3370  -12.4710   17.9390 C   0  0  0  0  0  2  0  0  0  0  0  0
  -27.8790  -12.2960   18.4140 C   0  0  0  0  0  2  0  0  0  0  0  0
  -27.5650  -13.1060   19.7010 C   0  0  0  0  0  3  0  0  0  0  0  0
  -28.6650  -12.8560   20.7560 C   0  0  0  0  0  2  0  0  0  0  0  0
  -29.9590  -13.2190   20.1540 N   0  0  0  0  0  0  0  0  0  0  0  0
  -31.7140  -14.6480   19.8620 O   0  0  0  0  0  0  0  0  0  0  0  0
  -29.8990  -16.7030   20.8430 C   0  0  0  0  0  0  0  0  0  0  0  0
  -29.7130  -15.3930   20.6260 N   0  0  0  0  0  0  0  0  0  0  0  0
  -28.9380  -17.4680   20.7210 O   0  0  0  0  0  0  0  0  0  0  0  0
  -28.7520  -15.0990   20.5960 H   0  0  0  0  0  0  0  0  0  0  0  0
  -25.1790  -13.6650   20.5170 C   0  0  0  0  0  0  0  0  0  0  0  0
  -24.1370  -12.8620   20.9080 C   0  0  0  0  0  0  0  0  0  0  0  0
  -24.6210  -11.5210   20.8280 C   0  0  0  0  0  0  0  0  0  0  0  0
  -26.2310  -12.8060   20.2240 N   0  0  0  0  0  0  0  0  0  0  0  0
  -25.9020  -11.5140   20.4740 N   0  0  0  0  0  0  0  0  0  0  0  0
  -23.9250  -10.2420   21.0180 C   0  0  0  0  0  0  0  0  0  0  0  0
  -24.3620   -9.3060   21.9820 C   0  0  0  0  0  3  0  0  0  0  0  0
  -23.6700   -8.0880   22.1580 C   0  0  0  0  0  3  0  0  0  0  0  0
  -22.5290   -7.8010   21.3750 C   0  0  0  0  0  0  0  0  0  0  0  0
  -22.1120   -8.7260   20.4030 C   0  0  0  0  0  3  0  0  0  0  0  0
  -22.8030   -9.9370   20.2220 C   0  0  0  0  0  3  0  0  0  0  0  0
  -21.8070   -6.6340   21.4620 O   0  0  0  0  0  0  0  0  0  0  0  0
  -21.6950   -5.9440   22.6420 C   0  0  0  0  0  0  0  0  0  0  0  0
  -21.1260   -6.5300   23.7940 C   0  0  0  0  0  3  0  0  0  0  0  0
  -20.9620   -5.7640   24.9650 C   0  0  0  0  0  3  0  0  0  0  0  0
  -21.3560   -4.4130   24.9850 C   0  0  0  0  0  0  0  0  0  0  0  0
  -21.9160   -3.8260   23.8370 C   0  0  0  0  0  3  0  0  0  0  0  0
  -22.0840   -4.5900   22.6690 C   0  0  0  0  0  0  0  0  0  0  0  0
  -22.6040   -4.0130   21.5590 F   0  0  0  0  0  0  0  0  0  0  0  0
  -21.1890   -3.6760   26.1070 F   0  0  0  0  0  0  0  0  0  0  0  0
  -22.7400  -13.3080   21.2370 C   0  0  0  0  0  0  0  0  0  0  0  0
  -22.0530  -12.5860   22.1190 N   0  0  0  0  0  0  0  0  0  0  0  0
  -22.2640  -14.3300   20.7490 O   0  0  0  0  0  0  0  0  0  0  0  0
  -22.4460  -11.7640   22.5490 H   0  0  0  0  0  0  0  0  0  0  0  0
  -21.1160  -12.8680   22.3640 H   0  0  0  0  0  0  0  0  0  0  0  0
  -25.2960  -15.0410   20.3710 N   0  0  0  0  0  0  0  0  0  0  0  0
  -24.5110  -15.6510   20.5680 H   0  0  0  0  0  0  0  0  0  0  0  0
  -26.1080  -15.5460   20.0380 H   0  0  0  0  0  0  0  0  0  0  0  0
  -31.0350  -23.5680   21.8720 C   0  0  0  0  0  2  0  0  0  0  0  0
  -30.2250  -25.4640   23.2580 C   0  0  0  0  0  1  0  0  0  0  0  0
  -30.4630  -24.9520   21.8840 N   0  0  2  0  0  4  0  0  0  0  0  0
  -31.2190  -25.5350   21.5410 H   0  0  0  0  0  0  0  0  0  0  0  0
  -29.3400  -25.1550   20.9080 C   0  0  0  0  0  2  0  0  0  0  0  0
  -28.6540  -26.5480   20.9120 C   0  0  0  0  0  2  0  0  0  0  0  0
  -27.6930  -26.5640   19.8490 O   0  0  0  0  0  0  0  0  0  0  0  0
  -24.2430  -31.9220   23.1190 C   0  0  0  0  0  0  0  0  0  0  0  0
  -26.5940  -27.3890   19.9570 C   0  0  0  0  0  0  0  0  0  0  0  0
  -22.9080  -30.5700   21.5320 C   0  0  0  0  0  3  0  0  0  0  0  0
  -24.2470  -28.9820   20.0470 C   0  0  0  0  0  0  0  0  0  0  0  0
  -25.4360  -30.8330   21.2340 C   0  0  0  0  0  2  0  0  0  0  0  0
  -25.4450  -29.4600   20.5970 C   0  0  0  0  0  0  0  0  0  0  0  0
  -26.6180  -28.6690   20.5650 C   0  0  0  0  0  3  0  0  0  0  0  0
  -25.3840  -26.9340   19.3940 C   0  0  0  0  0  3  0  0  0  0  0  0
  -24.2100  -27.7130   19.4450 C   0  0  0  0  0  3  0  0  0  0  0  0
  -23.0320  -29.8830   20.1460 C   0  0  0  0  0  2  0  0  0  0  0  0
  -24.2130  -31.1220   22.0180 N   0  0  0  0  0  0  0  0  0  0  0  0
  -23.2000  -32.2340   23.7120 O   0  0  0  0  0  0  0  0  0  0  0  0
  -22.2620  -29.5750   22.5200 C   0  0  0  0  0  0  0  0  0  0  0  0
  -20.9290  -29.4220   22.4310 N   0  0  0  0  0  0  0  0  0  0  0  0
  -22.9520  -28.9430   23.3220 O   0  0  0  0  0  0  0  0  0  0  0  0
  -20.4340  -29.9730   21.7450 H   0  0  0  0  0  0  0  0  0  0  0  0
  -17.5450  -28.3140   23.0060 C   0  0  0  0  0  0  0  0  0  0  0  0
  -20.1120  -28.5160   23.2310 C   0  0  0  0  0  3  0  0  0  0  0  0
  -20.1750  -27.0750   22.6780 C   0  0  0  0  0  2  0  0  0  0  0  0
  -19.0480  -26.7610   21.6880 C   0  0  0  0  0  2  0  0  0  0  0  0
  -17.6800  -26.9470   22.3530 C   0  0  0  0  0  2  0  0  0  0  0  0
  -18.6880  -29.0560   23.4030 C   0  0  0  0  0  0  0  0  0  0  0  0
  -18.5100  -30.3350   23.9740 C   0  0  0  0  0  3  0  0  0  0  0  0
  -17.2210  -30.8700   24.1560 C   0  0  0  0  0  3  0  0  0  0  0  0
  -16.0910  -30.1220   23.7830 C   0  0  0  0  0  3  0  0  0  0  0  0
  -16.2530  -28.8490   23.2080 C   0  0  0  0  0  3  0  0  0  0  0  0
  -25.5820  -32.4960   23.6760 C   0  0  0  0  0  3  0  0  0  0  0  0
  -25.3320  -33.8900   24.0600 N   0  0  0  0  0  0  0  0  0  0  0  0
  -25.7150  -34.9550   23.3410 C   0  0  0  0  0  0  0  0  0  0  0  0
  -26.3900  -34.8630   22.3130 O   0  0  0  0  0  0  0  0  0  0  0  0
  -24.7380  -34.0400   24.8630 H   0  0  0  0  0  0  0  0  0  0  0  0
  -24.0930  -36.8470   23.0250 C   0  0  0  0  0  1  0  0  0  0  0  0
  -25.2830  -36.3420   23.8540 C   0  0  0  0  0  3  0  0  0  0  0  0
  -27.4270  -37.0760   24.7910 C   0  0  0  0  0  1  0  0  0  0  0  0
  -26.3700  -37.3430   23.8220 N   0  0  0  0  0  0  0  0  0  0  0  0
  -26.0020  -38.2730   24.0030 H   0  0  0  0  0  0  0  0  0  0  0  0
  -26.1550  -31.6740   24.8970 C   0  0  1  0  0  0  0  0  0  0  0  0
  -25.1200  -31.4300   26.0170 C   0  0  0  0  0  1  0  0  0  0  0  0
  -26.6890  -30.2980   24.4320 C   0  0  0  0  0  1  0  0  0  0  0  0
  -27.3630  -32.4210   25.5100 C   0  0  0  0  0  1  0  0  0  0  0  0
  2  1  1  0
  3  7  1  0
  4  6  1  0
  5  3  1  0
  5  8  1  0
  7 18  1  0
  7  4  1  0
  8  2  1  0
  8  6  1  0
  8  9  1  6
 10 19  1  0
 11 16  1  0
 12 13  1  0
 12 11  1  0
 14 13  1  0
 14 25  1  0
 14 15  1  0
 16 10  1  0
 16 15  1  0
 17 10  2  0
 19 18  1  0
 20 18  2  0
 21 19  1  0
 22 23  2  0
 23 42  1  0
 24 23  1  0
 24 27  1  0
 25 26  1  0
 25 22  1  0
 26 24  2  0
 27 28  1  0
 28 29  2  0
 30 33  1  0
 30 29  1  0
 31 30  2  0
 32 31  1  0
 32 27  2  0
 33 34  1  0
 34 39  2  0
 34 35  1  0
 35 36  2  0
 36 37  1  0
 37 41  1  0
 38 37  2  0
 39 38  1  0
 40 39  1  0
 42 43  1  0
 43 46  1  0
 43 45  1  0
 44 42  2  0
 47 22  1  0
 47 48  1  0
 49 47  1  0
 50 52  1  0
 50  1  1  0
 52 51  1  0
 52 53  1  6
 54 55  1  0
 54 52  1  0
 56 58  1  0
 56 55  1  0
 57 68  2  0
 58 63  1  0
 59 67  1  0
 59 69  1  0
 60 66  1  0
 60 62  1  0
 61 67  1  0
 62 61  1  0
 63 62  2  0
 64 65  1  0
 64 58  2  0
 65 60  2  0
 66 59  1  0
 67 57  1  0
 69 71  2  0
 70 69  1  0
 72 70  1  0
 73 82  2  0
 73 78  1  0
 74 70  1  0
 74 78  1  0
 75 74  1  0
 76 77  1  0
 76 75  1  0
 77 73  1  0
 78 79  2  0
 79 80  1  0
 81 80  2  0
 82 81  1  0
 83 57  1  0
 83 84  1  0
 83 93  1  0
 84 87  1  0
 85 89  1  0
 85 84  1  0
 86 85  2  0
 89 88  1  0
 91 89  1  0
 91 92  1  0
 91 90  1  0
 93 96  1  1
 93 94  1  0
 95 93  1  0
M  ISO  4  10 100  19 100  55 101  56 101
M  END
>  <TORSDO>  (3) 
F 22

>  <SCORE>  (3) 
-11.911

>  <name>  (3) 
2

>  <ligand_id>  (3) 
2

>  <original_smiles>  (3) 
[H]c1c([H])c([H])c2c(c1[H])C([H])([H])C([H])([H])C([H])([H])C2([H])N([H])C(=O)C1([H])N(C(=O)C([H])(N([H])C(=O)C([H])(N([H])C([H])([H])[H])C([H])([H])[H])C(C([H])([H])[H])(C([H])([H])[H])C([H])([H])[H])C([H])([H])c2c([H])c(OC([H])([H])C([H])([H])[N+]([H])(C([H])([H])[H])C([H])([H])C([H])([H])C([H])([H])[N+]3([H])C([H])([H])C([H])([H])C([H])(C(=O)N([H])C(=O)N4C([H])([H])C([H])([H])C([H])([H])C([H])(n5nc(-c6c([H])c([H])c(Oc7c([H])c([H])c(F)c([H])c7F)c([H])c6[H])c(C(=O)N([H])[H])c5N([H])[H])C4([H])[H])C([H])([H])C3([H])[H])c([H])c([H])c2C1([H])[H]

>  <smiles>  (3) 
[H]c1c([H])c([H])c2c(c1[H])C([H])([H])C([H])([H])C([H])([H])C2([H])N([H])C(=O)C1([H])N(C(=O)C([H])(N([H])C(=O)C([H])(N([H])C([H])([H])[H])C([H])([H])[H])C(C([H])([H])[H])(C([H])([H])[H])C([H])([H])[H])C([H])([H])c2c([H])c(OC([H])([H])C([H])([H])[N+]([H])(C([H])([H])[H])C([H])([H])C([H])([H])C([H])([H])[N+]3([H])C([H])([H])C([H])([H])C([H])(C(=O)N([H])C(=O)N4C([H])([H])C([H])([H])C([H])([H])C([H])(n5nc(-c6c([H])c([H])c(Oc7c([H])c([H])c(F)c([H])c7F)c([H])c6[H])c(C(=O)N([H])[H])c5N([H])[H])C4([H])[H])C([H])([H])C3([H])[H])c([H])c([H])c2C1([H])[H]

$$$$
3:0:0
     RDKit          3D

 93102  0  0  1  0  0  0  0  0999 V2000
  -30.2290  -23.4600   18.0000 C   0  0  0  0  0  3  0  0  0  0  0  0
  -29.9270  -22.1320   18.3640 C   0  0  0  0  0  3  0  0  0  0  0  0
  -29.7420  -24.5370   18.7670 C   0  0  0  0  0  3  0  0  0  0  0  0
  -28.6880  -22.9520   20.2930 C   0  0  0  0  0  3  0  0  0  0  0  0
  -29.1660  -21.8590   19.5240 C   0  0  0  0  0  0  0  0  0  0  0  0
  -28.9460  -24.2940   19.9060 C   0  0  0  0  0  0  0  0  0  0  0  0
  -28.7500  -20.4090   19.8450 C   0  0  0  0  0  2  0  0  0  0  0  0
  -31.1450  -19.9090   20.4530 C   0  0  0  0  0  1  0  0  0  0  0  0
  -29.7170  -19.5090   20.5620 N   0  0  2  0  0  4  0  0  0  0  0  0
  -29.4860  -19.6400   21.5350 H   0  0  0  0  0  0  0  0  0  0  0  0
  -30.7220  -14.6320   20.8490 C   0  0  0  0  0  0  0  0  0  0  0  0
  -30.5460  -12.3670   19.9210 C   0  0  0  0  0  2  0  0  0  0  0  0
  -29.7050  -12.4540   18.6290 C   0  0  0  0  0  2  0  0  0  0  0  0
  -28.2030  -12.3340   18.9530 C   0  0  0  0  0  2  0  0  0  0  0  0
  -27.7460  -13.2510   20.1190 C   0  0  0  0  0  3  0  0  0  0  0  0
  -28.7200  -13.1860   21.3170 C   0  0  0  0  0  2  0  0  0  0  0  0
  -30.0770  -13.4360   20.8120 N   0  0  0  0  0  0  0  0  0  0  0  0
  -31.9460  -14.7420   20.7500 O   0  0  0  0  0  0  0  0  0  0  0  0
  -29.9710  -17.5490   18.9270 C   0  0  0  0  0  2  0  0  0  0  0  0
  -29.8680  -16.0330   19.0800 C   0  0  0  0  0  2  0  0  0  0  0  0
  -29.9800  -16.9840   21.2530 C   0  0  0  0  0  2  0  0  0  0  0  0
  -29.4540  -18.0570   20.2640 C   0  0  0  0  0  3  0  0  0  0  0  0
  -29.9420  -15.6970   20.5210 N   0  0  0  0  0  0  0  0  0  0  0  0
  -25.3040  -13.8620   20.6330 C   0  0  0  0  0  0  0  0  0  0  0  0
  -24.2140  -13.0920   20.9360 C   0  0  0  0  0  0  0  0  0  0  0  0
  -24.6860  -11.7450   20.9830 C   0  0  0  0  0  0  0  0  0  0  0  0
  -26.3680  -12.9820   20.5130 N   0  0  0  0  0  0  0  0  0  0  0  0
  -25.9970  -11.7060   20.7870 N   0  0  0  0  0  0  0  0  0  0  0  0
  -23.9560  -10.4820   21.1500 C   0  0  0  0  0  0  0  0  0  0  0  0
  -24.3440   -9.5280   22.1170 C   0  0  0  0  0  3  0  0  0  0  0  0
  -23.6160   -8.3280   22.2690 C   0  0  0  0  0  3  0  0  0  0  0  0
  -22.4880   -8.0740   21.4540 C   0  0  0  0  0  0  0  0  0  0  0  0
  -22.1190   -9.0170   20.4800 C   0  0  0  0  0  3  0  0  0  0  0  0
  -22.8470  -10.2090   20.3240 C   0  0  0  0  0  3  0  0  0  0  0  0
  -21.7360   -6.9260   21.5160 O   0  0  0  0  0  0  0  0  0  0  0  0
  -21.6500   -6.1830   22.6650 C   0  0  0  0  0  0  0  0  0  0  0  0
  -21.2010   -6.7420   23.8820 C   0  0  0  0  0  3  0  0  0  0  0  0
  -21.0630   -5.9260   25.0230 C   0  0  0  0  0  3  0  0  0  0  0  0
  -21.3620   -4.5520   24.9470 C   0  0  0  0  0  0  0  0  0  0  0  0
  -21.8040   -3.9930   23.7360 C   0  0  0  0  0  3  0  0  0  0  0  0
  -21.9450   -4.8060   22.5980 C   0  0  0  0  0  0  0  0  0  0  0  0
  -22.3520   -4.2580   21.4260 F   0  0  0  0  0  0  0  0  0  0  0  0
  -21.2220   -3.7660   26.0400 F   0  0  0  0  0  0  0  0  0  0  0  0
  -22.7970  -13.5650   21.0790 C   0  0  0  0  0  0  0  0  0  0  0  0
  -22.0070  -12.8890   21.9060 N   0  0  0  0  0  0  0  0  0  0  0  0
  -22.3960  -14.5690   20.4940 O   0  0  0  0  0  0  0  0  0  0  0  0
  -22.3420  -12.0760   22.4010 H   0  0  0  0  0  0  0  0  0  0  0  0
  -21.0540  -13.1920   22.0490 H   0  0  0  0  0  0  0  0  0  0  0  0
  -25.4770  -15.2280   20.4290 N   0  0  0  0  0  0  0  0  0  0  0  0
  -24.7050  -15.8860   20.4640 H   0  0  0  0  0  0  0  0  0  0  0  0
  -26.3550  -15.6600   20.1710 H   0  0  0  0  0  0  0  0  0  0  0  0
  -28.3670  -25.4530   20.7210 C   0  0  0  0  0  2  0  0  0  0  0  0
  -28.4300  -26.7450   20.0830 O   0  0  0  0  0  0  0  0  0  0  0  0
  -24.6280  -31.9190   23.2020 C   0  0  0  0  0  0  0  0  0  0  0  0
  -27.2610  -27.4770   20.1050 C   0  0  0  0  0  0  0  0  0  0  0  0
  -23.4080  -30.5030   21.5790 C   0  0  0  0  0  3  0  0  0  0  0  0
  -24.8540  -28.9650   20.1430 C   0  0  0  0  0  0  0  0  0  0  0  0
  -25.9300  -30.8760   21.3480 C   0  0  0  0  0  2  0  0  0  0  0  0
  -26.0180  -29.5020   20.7120 C   0  0  0  0  0  0  0  0  0  0  0  0
  -27.2270  -28.7680   20.6830 C   0  0  0  0  0  3  0  0  0  0  0  0
  -26.0830  -26.9570   19.5260 C   0  0  0  0  0  3  0  0  0  0  0  0
  -24.8820  -27.6940   19.5460 C   0  0  0  0  0  3  0  0  0  0  0  0
  -23.6060  -29.8160   20.2010 C   0  0  0  0  0  2  0  0  0  0  0  0
  -24.6740  -31.1150   22.1010 N   0  0  0  0  0  0  0  0  0  0  0  0
  -23.5530  -32.1880   23.7560 O   0  0  0  0  0  0  0  0  0  0  0  0
  -22.7750  -29.4830   22.5530 C   0  0  0  0  0  0  0  0  0  0  0  0
  -21.4500  -29.2930   22.4420 N   0  0  0  0  0  0  0  0  0  0  0  0
  -23.4720  -28.8660   23.3620 O   0  0  0  0  0  0  0  0  0  0  0  0
  -20.9480  -29.8470   21.7630 H   0  0  0  0  0  0  0  0  0  0  0  0
  -18.0930  -28.0660   22.9720 C   0  0  0  0  0  0  0  0  0  0  0  0
  -20.6490  -28.3510   23.2260 C   0  0  0  0  0  3  0  0  0  0  0  0
  -20.7630  -26.9160   22.6610 C   0  0  0  0  0  2  0  0  0  0  0  0
  -19.6580  -26.5760   21.6550 C   0  0  0  0  0  2  0  0  0  0  0  0
  -18.2790  -26.7130   22.3070 C   0  0  0  0  0  2  0  0  0  0  0  0
  -19.2070  -28.8420   23.3890 C   0  0  0  0  0  0  0  0  0  0  0  0
  -18.9810  -30.1100   23.9680 C   0  0  0  0  0  3  0  0  0  0  0  0
  -17.6720  -30.5990   24.1380 C   0  0  0  0  0  3  0  0  0  0  0  0
  -16.5730  -29.8210   23.7370 C   0  0  0  0  0  3  0  0  0  0  0  0
  -16.7850  -28.5570   23.1590 C   0  0  0  0  0  3  0  0  0  0  0  0
  -25.9190  -32.5570   23.8020 C   0  0  0  0  0  3  0  0  0  0  0  0
  -26.4750  -31.7790   25.0570 C   0  0  1  0  0  0  0  0  0  0  0  0
  -25.4100  -31.5200   26.1480 C   0  0  0  0  0  1  0  0  0  0  0  0
  -27.0620  -30.4110   24.6350 C   0  0  0  0  0  1  0  0  0  0  0  0
  -27.6350  -32.5780   25.6980 C   0  0  0  0  0  1  0  0  0  0  0  0
  -25.6040  -33.9500   24.1510 N   0  0  0  0  0  0  0  0  0  0  0  0
  -25.9170  -35.0110   23.3960 C   0  0  0  0  0  0  0  0  0  0  0  0
  -26.5710  -34.9220   22.3530 O   0  0  0  0  0  0  0  0  0  0  0  0
  -25.0230  -34.0930   24.9630 H   0  0  0  0  0  0  0  0  0  0  0  0
  -24.1700  -36.7910   23.0790 C   0  0  0  0  0  1  0  0  0  0  0  0
  -25.4250  -36.3910   23.8720 C   0  0  0  0  0  3  0  0  0  0  0  0
  -27.5650  -37.2830   24.6800 C   0  0  0  0  0  1  0  0  0  0  0  0
  -26.4470  -37.4540   23.7560 N   0  0  0  0  0  0  0  0  0  0  0  0
  -26.0370  -38.3670   23.9220 H   0  0  0  0  0  0  0  0  0  0  0  0
  1  2  2  0
  1  3  1  0
  2  5  1  0
  3  6  2  0
  5  7  1  0
  5  4  2  0
  6  4  1  0
  6 52  1  0
  7  9  1  0
  8  9  1  0
  9 10  1  1
 12 17  1  0
 13 14  1  0
 13 12  1  0
 15 14  1  0
 15 27  1  0
 15 16  1  0
 17 11  1  0
 17 16  1  0
 18 11  2  0
 19 20  1  0
 19 22  1  0
 20 23  1  0
 22  9  1  0
 22 21  1  0
 23 11  1  0
 23 21  1  0
 24 25  2  0
 25 26  1  0
 25 44  1  0
 26 29  1  0
 27 24  1  0
 27 28  1  0
 28 26  2  0
 29 30  1  0
 30 31  2  0
 32 35  1  0
 32 31  1  0
 33 32  2  0
 34 33  1  0
 34 29  2  0
 35 36  1  0
 36 37  1  0
 37 38  2  0
 39 38  1  0
 39 43  1  0
 40 39  2  0
 41 36  2  0
 41 40  1  0
 42 41  1  0
 44 45  1  0
 45 48  1  0
 45 47  1  0
 46 44  2  0
 49 50  1  0
 49 24  1  0
 51 49  1  0
 53 55  1  0
 53 52  1  0
 54 65  2  0
 55 60  1  0
 56 64  1  0
 56 66  1  0
 57 63  1  0
 57 59  1  0
 58 64  1  0
 59 58  1  0
 60 59  2  0
 61 62  1  0
 61 55  2  0
 62 57  2  0
 63 56  1  0
 64 54  1  0
 66 68  2  0
 67 66  1  0
 69 67  1  0
 70 79  2  0
 70 75  1  0
 71 67  1  0
 71 75  1  0
 72 71  1  0
 73 74  1  0
 73 72  1  0
 74 70  1  0
 75 76  2  0
 76 77  1  0
 78 77  2  0
 79 78  1  0
 80 54  1  0
 80 85  1  0
 80 81  1  0
 81 84  1  1
 81 82  1  0
 83 81  1  0
 85 88  1  0
 86 90  1  0
 86 85  1  0
 87 86  2  0
 90 89  1  0
 92 90  1  0
 92 93  1  0
 92 91  1  0
M  ISO  4  11 100  23 100  52 101  53 101
M  END
>  <TORSDO>  (4) 
F 19

>  <SCORE>  (4) 
-14.159

>  <name>  (4) 
3

>  <ligand_id>  (4) 
3

>  <original_smiles>  (4) 
[H]c1c([H])c([H])c2c(c1[H])C([H])([H])C([H])([H])C([H])([H])C2([H])N([H])C(=O)C1([H])N(C(=O)C([H])(N([H])C(=O)C([H])(N([H])C([H])([H])[H])C([H])([H])[H])C(C([H])([H])[H])(C([H])([H])[H])C([H])([H])[H])C([H])([H])c2c([H])c(OC([H])([H])c3c([H])c([H])c([H])c(C([H])([H])[N+]([H])(C([H])([H])[H])C4([H])C([H])([H])N(C(=O)N5C([H])([H])C([H])([H])C([H])([H])C([H])(n6nc(-c7c([H])c([H])c(Oc8c([H])c([H])c(F)c([H])c8F)c([H])c7[H])c(C(=O)N([H])[H])c6N([H])[H])C5([H])[H])C([H])([H])C4([H])[H])c3[H])c([H])c([H])c2C1([H])[H]

>  <smiles>  (4) 
[H]c1c([H])c([H])c2c(c1[H])C([H])([H])C([H])([H])C([H])([H])C2([H])N([H])C(=O)C1([H])N(C(=O)C([H])(N([H])C(=O)C([H])(N([H])C([H])([H])[H])C([H])([H])[H])C(C([H])([H])[H])(C([H])([H])[H])C([H])([H])[H])C([H])([H])c2c([H])c(OC([H])([H])c3c([H])c([H])c([H])c(C([H])([H])[N+]([H])(C([H])([H])[H])C4([H])C([H])([H])N(C(=O)N5C([H])([H])C([H])([H])C([H])([H])C([H])(n6nc(-c7c([H])c([H])c(Oc8c([H])c([H])c(F)c([H])c8F)c([H])c7[H])c(C(=O)N([H])[H])c6N([H])[H])C5([H])[H])C([H])([H])C4([H])[H])c3[H])c([H])c([H])c2C1([H])[H]

$$$$
4:0:0
     RDKit          3D

 92100  0  0  1  0  0  0  0  0999 V2000
  -29.1660  -23.0390   20.2040 C   0  0  0  0  0  3  0  0  0  0  0  0
  -28.1120  -20.2990   20.3000 C   0  0  0  0  0  3  0  0  0  0  0  0
  -28.2840  -18.8230   20.3470 C   0  0  0  0  0  3  0  0  0  0  0  0
  -30.5750  -19.0370   20.2760 C   0  0  0  0  0  3  0  0  0  0  0  0
  -29.1690  -21.2940   20.2450 C   0  0  0  0  0  0  0  0  0  0  0  0
  -29.5220  -18.0420   20.3360 C   0  0  0  0  0  0  0  0  0  0  0  0
  -30.4100  -20.5120   20.2400 C   0  0  0  0  0  0  0  0  0  0  0  0
  -31.5580  -21.2320   20.1780 F   0  0  0  0  0  0  0  0  0  0  0  0
  -30.4300  -15.2580   20.2550 C   0  0  0  0  0  0  0  0  0  0  0  0
  -30.4390  -12.8340   19.3580 C   0  0  0  0  0  2  0  0  0  0  0  0
  -29.5020  -12.6640   18.1350 C   0  0  0  0  0  2  0  0  0  0  0  0
  -28.0550  -12.3930   18.5830 C   0  0  0  0  0  2  0  0  0  0  0  0
  -27.6130  -13.3380   19.7280 C   0  0  0  0  0  3  0  0  0  0  0  0
  -28.6710  -13.4430   20.8470 C   0  0  0  0  0  2  0  0  0  0  0  0
  -29.9040  -13.9440   20.2200 N   0  0  0  0  0  0  0  0  0  0  0  0
  -31.6390  -15.3290   19.9910 O   0  0  0  0  0  0  0  0  0  0  0  0
  -29.5670  -16.4360   20.4000 N   0  0  0  0  0  0  0  0  0  0  0  0
  -28.6410  -16.0780   20.5760 H   0  0  0  0  0  0  0  0  0  0  0  0
  -25.2410  -13.8820   20.5000 C   0  0  0  0  0  0  0  0  0  0  0  0
  -24.1880  -13.0950   20.8730 C   0  0  0  0  0  0  0  0  0  0  0  0
  -24.6630  -11.7480   20.8260 C   0  0  0  0  0  0  0  0  0  0  0  0
  -26.2880  -13.0150   20.2410 N   0  0  0  0  0  0  0  0  0  0  0  0
  -25.9530  -11.7250   20.5050 N   0  0  0  0  0  0  0  0  0  0  0  0
  -23.9460  -10.4790   21.0090 C   0  0  0  0  0  0  0  0  0  0  0  0
  -24.3690   -9.5220   21.9570 C   0  0  0  0  0  3  0  0  0  0  0  0
  -23.6490   -8.3180   22.1290 C   0  0  0  0  0  3  0  0  0  0  0  0
  -22.4930   -8.0670   21.3530 C   0  0  0  0  0  0  0  0  0  0  0  0
  -22.0900   -9.0130   20.3950 C   0  0  0  0  0  3  0  0  0  0  0  0
  -22.8100  -10.2070   20.2210 C   0  0  0  0  0  3  0  0  0  0  0  0
  -21.7460   -6.9150   21.4330 O   0  0  0  0  0  0  0  0  0  0  0  0
  -21.6540   -6.1980   22.5990 C   0  0  0  0  0  0  0  0  0  0  0  0
  -21.1440   -6.7670   23.7860 C   0  0  0  0  0  3  0  0  0  0  0  0
  -21.0010   -5.9730   24.9420 C   0  0  0  0  0  3  0  0  0  0  0  0
  -21.3590   -4.6120   24.9120 C   0  0  0  0  0  0  0  0  0  0  0  0
  -21.8620   -4.0430   23.7290 C   0  0  0  0  0  3  0  0  0  0  0  0
  -22.0060   -4.8320   22.5750 C   0  0  0  0  0  0  0  0  0  0  0  0
  -22.4710   -4.2730   21.4330 F   0  0  0  0  0  0  0  0  0  0  0  0
  -21.2130   -3.8480   26.0200 F   0  0  0  0  0  0  0  0  0  0  0  0
  -22.7890  -13.5600   21.1540 C   0  0  0  0  0  0  0  0  0  0  0  0
  -22.0730  -12.8590   22.0250 N   0  0  0  0  0  0  0  0  0  0  0  0
  -22.3410  -14.5830   20.6360 O   0  0  0  0  0  0  0  0  0  0  0  0
  -22.4500  -12.0320   22.4660 H   0  0  0  0  0  0  0  0  0  0  0  0
  -21.1350  -13.1530   22.2570 H   0  0  0  0  0  0  0  0  0  0  0  0
  -25.3900  -15.2550   20.3280 N   0  0  0  0  0  0  0  0  0  0  0  0
  -24.6040  -15.8890   20.4290 H   0  0  0  0  0  0  0  0  0  0  0  0
  -26.1970  -15.6950   19.9070 H   0  0  0  0  0  0  0  0  0  0  0  0
  -30.0910  -23.3860   19.1100 N   0  0  0  0  0  4  0  0  0  0  0  0
  -29.6660  -23.2300   18.2130 H   0  0  0  0  0  0  0  0  0  0  0  0
  -30.9160  -22.8100   19.1860 H   0  0  0  0  0  0  0  0  0  0  0  0
  -30.3620  -24.3530   19.1730 H   0  0  0  0  0  0  0  0  0  0  0  0
  -27.9870  -24.3600   20.2030 C   0  0  0  0  0  2  0  0  0  0  0  0
  -28.2150  -25.9800   20.2490 O   0  0  0  0  0  0  0  0  0  0  0  0
  -24.6490  -31.8790   23.2440 C   0  0  0  0  0  0  0  0  0  0  0  0
  -27.1840  -27.0410   20.2060 C   0  0  0  0  0  0  0  0  0  0  0  0
  -23.4430  -30.4910   21.6070 C   0  0  0  0  0  3  0  0  0  0  0  0
  -24.8800  -28.8930   20.1750 C   0  0  0  0  0  0  0  0  0  0  0  0
  -26.0060  -30.7100   21.4440 C   0  0  0  0  0  2  0  0  0  0  0  0
  -26.0710  -29.3050   20.7870 C   0  0  0  0  0  0  0  0  0  0  0  0
  -27.2180  -28.4000   20.7760 C   0  0  0  0  0  3  0  0  0  0  0  0
  -25.9620  -26.7660   19.5510 C   0  0  0  0  0  3  0  0  0  0  0  0
  -24.8490  -27.6430   19.5380 C   0  0  0  0  0  3  0  0  0  0  0  0
  -23.6640  -29.8120   20.2270 C   0  0  0  0  0  2  0  0  0  0  0  0
  -24.7210  -31.0520   22.1530 N   0  0  0  0  0  0  0  0  0  0  0  0
  -23.5630  -32.1690   23.7730 O   0  0  0  0  0  0  0  0  0  0  0  0
  -22.7540  -29.4920   22.5720 C   0  0  0  0  0  0  0  0  0  0  0  0
  -21.4240  -29.3230   22.4470 N   0  0  0  0  0  0  0  0  0  0  0  0
  -23.4220  -28.8680   23.4020 O   0  0  0  0  0  0  0  0  0  0  0  0
  -20.9400  -29.8770   21.7550 H   0  0  0  0  0  0  0  0  0  0  0  0
  -18.0450  -28.1060   22.9520 C   0  0  0  0  0  0  0  0  0  0  0  0
  -20.6030  -28.3840   23.2190 C   0  0  0  0  0  3  0  0  0  0  0  0
  -20.7120  -26.9510   22.6490 C   0  0  0  0  0  2  0  0  0  0  0  0
  -19.6120  -26.6210   21.6340 C   0  0  0  0  0  2  0  0  0  0  0  0
  -18.2300  -26.7590   22.2770 C   0  0  0  0  0  2  0  0  0  0  0  0
  -19.1600  -28.8780   23.3810 C   0  0  0  0  0  0  0  0  0  0  0  0
  -18.9310  -30.1370   23.9750 C   0  0  0  0  0  3  0  0  0  0  0  0
  -17.6220  -30.6270   24.1450 C   0  0  0  0  0  3  0  0  0  0  0  0
  -16.5230  -29.8550   23.7300 C   0  0  0  0  0  3  0  0  0  0  0  0
  -16.7360  -28.5960   23.1390 C   0  0  0  0  0  3  0  0  0  0  0  0
  -25.9260  -32.5150   23.8730 C   0  0  0  0  0  3  0  0  0  0  0  0
  -26.4320  -31.7480   25.1560 C   0  0  1  0  0  0  0  0  0  0  0  0
  -25.3350  -31.5210   26.2230 C   0  0  0  0  0  1  0  0  0  0  0  0
  -27.0100  -30.3640   24.7800 C   0  0  0  0  0  1  0  0  0  0  0  0
  -27.5850  -32.5380   25.8180 C   0  0  0  0  0  1  0  0  0  0  0  0
  -25.6150  -33.9150   24.2100 N   0  0  0  0  0  0  0  0  0  0  0  0
  -25.9160  -34.9730   23.4440 C   0  0  0  0  0  0  0  0  0  0  0  0
  -26.5470  -34.8720   22.3880 O   0  0  0  0  0  0  0  0  0  0  0  0
  -25.0470  -34.0660   25.0310 H   0  0  0  0  0  0  0  0  0  0  0  0
  -24.1570  -36.7560   23.1820 C   0  0  0  0  0  1  0  0  0  0  0  0
  -25.4450  -36.3620   23.9220 C   0  0  0  0  0  3  0  0  0  0  0  0
  -27.6110  -37.2780   24.6320 C   0  0  0  0  0  1  0  0  0  0  0  0
  -26.4610  -37.4220   23.7430 N   0  0  0  0  0  0  0  0  0  0  0  0
  -26.0550  -38.3420   23.8970 H   0  0  0  0  0  0  0  0  0  0  0  0
  1 51  1  0
  1  5  1  0
  2  3  1  0
  4  6  1  0
  5  2  2  0
  6  3  2  0
  6 17  1  0
  7  5  1  0
  7  4  2  0
  8  7  1  0
  9 17  1  0
 10 15  1  0
 11 12  1  0
 11 10  1  0
 13 12  1  0
 13 22  1  0
 13 14  1  0
 15  9  1  0
 15 14  1  0
 16  9  2  0
 17 18  1  0
 19 20  2  0
 20 39  1  0
 21 20  1  0
 21 24  1  0
 22 19  1  0
 22 23  1  0
 23 21  2  0
 24 25  1  0
 25 26  2  0
 27 30  1  0
 27 26  1  0
 28 27  2  0
 29 28  1  0
 29 24  2  0
 30 31  1  0
 31 32  1  0
 32 33  2  0
 34 33  1  0
 34 38  1  0
 35 34  2  0
 36 31  2  0
 36 35  1  0
 37 36  1  0
 39 40  1  0
 40 43  1  0
 40 42  1  0
 41 39  2  0
 44 45  1  0
 44 19  1  0
 46 44  1  0
 47 50  1  0
 47 49  1  0
 47  1  1  0
 48 47  1  0
 51 52  1  0
 53 64  2  0
 54 52  1  0
 54 59  1  0
 55 63  1  0
 55 65  1  0
 56 62  1  0
 56 58  1  0
 57 63  1  0
 58 57  1  0
 59 58  2  0
 60 54  2  0
 61 60  1  0
 61 56  2  0
 62 55  1  0
 63 53  1  0
 65 67  2  0
 66 65  1  0
 68 66  1  0
 69 78  2  0
 69 74  1  0
 70 66  1  0
 70 74  1  0
 71 70  1  0
 72 73  1  0
 72 71  1  0
 73 69  1  0
 74 75  2  0
 75 76  1  0
 77 76  2  0
 78 77  1  0
 79 53  1  0
 79 84  1  0
 79 80  1  0
 80 83  1  1
 80 81  1  0
 82 80  1  0
 84 87  1  0
 85 89  1  0
 85 84  1  0
 86 85  2  0
 89 88  1  0
 91 92  1  0
 91 89  1  0
 91 90  1  0
M  ISO  4   9 100  17 100  51 101  52 101
M  END
>  <TORSDO>  (5) 
F 19

>  <SCORE>  (5) 
-15.742

>  <name>  (5) 
4

>  <ligand_id>  (5) 
4

>  <original_smiles>  (5) 
[H]c1c([H])c([H])c2c(c1[H])C([H])([H])C([H])([H])C([H])([H])C2([H])N([H])C(=O)C1([H])N(C(=O)C([H])(N([H])C(=O)C([H])(N([H])C([H])([H])[H])C([H])([H])[H])C(C([H])([H])[H])(C([H])([H])[H])C([H])([H])[H])C([H])([H])c2c([H])c(OC([H])([H])C([H])(c3c([H])c([H])c(N([H])C(=O)N4C([H])([H])C([H])([H])C([H])([H])C([H])(n5nc(-c6c([H])c([H])c(Oc7c([H])c([H])c(F)c([H])c7F)c([H])c6[H])c(C(=O)N([H])[H])c5N([H])[H])C4([H])[H])c([H])c3F)[N+]([H])([H])[H])c([H])c([H])c2C1([H])[H]

>  <smiles>  (5) 
[H]c1c([H])c([H])c2c(c1[H])C([H])([H])C([H])([H])C([H])([H])C2([H])N([H])C(=O)C1([H])N(C(=O)C([H])(N([H])C(=O)C([H])(N([H])C([H])([H])[H])C([H])([H])[H])C(C([H])([H])[H])(C([H])([H])[H])C([H])([H])[H])C([H])([H])c2c([H])c(OC([H])([H])C([H])(c3c([H])c([H])c(N([H])C(=O)N4C([H])([H])C([H])([H])C([H])([H])C([H])(n5nc(-c6c([H])c([H])c(Oc7c([H])c([H])c(F)c([H])c7F)c([H])c6[H])c(C(=O)N([H])[H])c5N([H])[H])C4([H])[H])c([H])c3F)[N+]([H])([H])[H])c([H])c([H])c2C1([H])[H]

$$$$
5:0:0
     RDKit          3D

 88 96  0  0  1  0  0  0  0  0999 V2000
  -27.8940  -20.9890   19.5120 C   0  0  0  0  0  3  0  0  0  0  0  0
  -29.9650  -19.9190   20.8410 C   0  0  0  0  0  3  0  0  0  0  0  0
  -28.5200  -22.1740   20.1600 C   0  0  0  0  0  0  0  0  0  0  0  0
  -29.2980  -18.7430   20.1870 C   0  0  0  0  0  0  0  0  0  0  0  0
  -28.2140  -19.5050   19.5220 C   0  0  0  0  0  0  0  0  0  0  0  0
  -29.6270  -21.4280   20.8420 C   0  0  0  0  0  0  0  0  0  0  0  0
  -27.3520  -18.7400   18.8100 F   0  0  0  0  0  0  0  0  0  0  0  0
  -30.4500  -22.1900   21.6020 F   0  0  0  0  0  0  0  0  0  0  0  0
  -30.2630  -15.7180   20.2050 C   0  0  0  0  0  0  0  0  0  0  0  0
  -30.3860  -13.1840   19.3710 C   0  0  0  0  0  2  0  0  0  0  0  0
  -29.4730  -12.7830   18.1760 C   0  0  0  0  0  2  0  0  0  0  0  0
  -28.0530  -12.4250   18.6490 C   0  0  0  0  0  2  0  0  0  0  0  0
  -27.5550  -13.4170   19.7260 C   0  0  0  0  0  3  0  0  0  0  0  0
  -28.6050  -13.7180   20.8190 C   0  0  0  0  0  2  0  0  0  0  0  0
  -29.7640  -14.3480   20.1410 N   0  0  0  0  0  0  0  0  0  0  0  0
  -31.4990  -15.6930   20.0490 O   0  0  0  0  0  0  0  0  0  0  0  0
  -29.4270  -17.0220   20.2120 N   0  0  0  0  0  0  0  0  0  0  0  0
  -28.4830  -16.6750   20.1270 H   0  0  0  0  0  0  0  0  0  0  0  0
  -25.2060  -13.9250   20.5550 C   0  0  0  0  0  0  0  0  0  0  0  0
  -24.1570  -13.1330   20.9270 C   0  0  0  0  0  0  0  0  0  0  0  0
  -24.6340  -11.7880   20.8590 C   0  0  0  0  0  0  0  0  0  0  0  0
  -26.2500  -13.0660   20.2690 N   0  0  0  0  0  0  0  0  0  0  0  0
  -25.9210  -11.7700   20.5210 N   0  0  0  0  0  0  0  0  0  0  0  0
  -23.9150  -10.5160   21.0350 C   0  0  0  0  0  0  0  0  0  0  0  0
  -24.3400   -9.5490   21.9710 C   0  0  0  0  0  3  0  0  0  0  0  0
  -23.6190   -8.3460   22.1360 C   0  0  0  0  0  3  0  0  0  0  0  0
  -22.4550   -8.1040   21.3690 C   0  0  0  0  0  0  0  0  0  0  0  0
  -22.0490   -9.0600   20.4210 C   0  0  0  0  0  3  0  0  0  0  0  0
  -22.7700  -10.2540   20.2540 C   0  0  0  0  0  3  0  0  0  0  0  0
  -21.7040   -6.9560   21.4450 O   0  0  0  0  0  0  0  0  0  0  0  0
  -21.6120   -6.2330   22.6080 C   0  0  0  0  0  0  0  0  0  0  0  0
  -21.0670   -6.7850   23.7880 C   0  0  0  0  0  3  0  0  0  0  0  0
  -20.9280   -5.9850   24.9410 C   0  0  0  0  0  3  0  0  0  0  0  0
  -21.3170   -4.6330   24.9120 C   0  0  0  0  0  0  0  0  0  0  0  0
  -21.8540   -4.0800   23.7360 C   0  0  0  0  0  3  0  0  0  0  0  0
  -21.9980   -4.8770   22.5870 C   0  0  0  0  0  0  0  0  0  0  0  0
  -22.4960   -4.3310   21.4490 F   0  0  0  0  0  0  0  0  0  0  0  0
  -21.1780   -3.8630   26.0170 F   0  0  0  0  0  0  0  0  0  0  0  0
  -22.7610  -13.5980   21.2260 C   0  0  0  0  0  0  0  0  0  0  0  0
  -22.0490  -12.8900   22.0970 N   0  0  0  0  0  0  0  0  0  0  0  0
  -22.3120  -14.6250   20.7210 O   0  0  0  0  0  0  0  0  0  0  0  0
  -22.4310  -12.0640   22.5310 H   0  0  0  0  0  0  0  0  0  0  0  0
  -21.1120  -13.1810   22.3290 H   0  0  0  0  0  0  0  0  0  0  0  0
  -25.3510  -15.3010   20.4000 N   0  0  0  0  0  0  0  0  0  0  0  0
  -24.5710  -15.9390   20.5170 H   0  0  0  0  0  0  0  0  0  0  0  0
  -26.1720  -15.7460   20.0150 H   0  0  0  0  0  0  0  0  0  0  0  0
  -27.7970  -23.9000   20.1220 C   0  0  0  0  0  2  0  0  0  0  0  0
  -28.1150  -25.6070   20.3040 O   0  0  0  0  0  0  0  0  0  0  0  0
  -24.6400  -31.8990   23.2580 C   0  0  0  0  0  0  0  0  0  0  0  0
  -27.1530  -26.8260   20.2580 C   0  0  0  0  0  0  0  0  0  0  0  0
  -23.4450  -30.5020   21.6300 C   0  0  0  0  0  3  0  0  0  0  0  0
  -24.8860  -28.8550   20.2110 C   0  0  0  0  0  0  0  0  0  0  0  0
  -26.0230  -30.6420   21.4970 C   0  0  0  0  0  2  0  0  0  0  0  0
  -26.0830  -29.2110   20.8400 C   0  0  0  0  0  0  0  0  0  0  0  0
  -27.2040  -28.2250   20.8300 C   0  0  0  0  0  3  0  0  0  0  0  0
  -25.9160  -26.6760   19.5800 C   0  0  0  0  0  3  0  0  0  0  0  0
  -24.8380  -27.6130   19.5570 C   0  0  0  0  0  3  0  0  0  0  0  0
  -23.6790  -29.8030   20.2600 C   0  0  0  0  0  2  0  0  0  0  0  0
  -24.7270  -31.0460   22.1800 N   0  0  0  0  0  0  0  0  0  0  0  0
  -23.5500  -32.2000   23.7730 O   0  0  0  0  0  0  0  0  0  0  0  0
  -22.7300  -29.5250   22.6040 C   0  0  0  0  0  0  0  0  0  0  0  0
  -21.3990  -29.3610   22.4690 N   0  0  0  0  0  0  0  0  0  0  0  0
  -23.3830  -28.9140   23.4510 O   0  0  0  0  0  0  0  0  0  0  0  0
  -20.9210  -29.9000   21.7610 H   0  0  0  0  0  0  0  0  0  0  0  0
  -18.0170  -28.1300   22.9670 C   0  0  0  0  0  0  0  0  0  0  0  0
  -20.5740  -28.4270   23.2450 C   0  0  0  0  0  3  0  0  0  0  0  0
  -20.6930  -26.9900   22.6880 C   0  0  0  0  0  2  0  0  0  0  0  0
  -19.6010  -26.6450   21.6700 C   0  0  0  0  0  2  0  0  0  0  0  0
  -18.2130  -26.7790   22.3010 C   0  0  0  0  0  2  0  0  0  0  0  0
  -19.1250  -28.9100   23.3960 C   0  0  0  0  0  0  0  0  0  0  0  0
  -18.8850  -30.1720   23.9850 C   0  0  0  0  0  3  0  0  0  0  0  0
  -17.5720  -30.6560   24.1450 C   0  0  0  0  0  3  0  0  0  0  0  0
  -16.4800  -29.8740   23.7310 C   0  0  0  0  0  3  0  0  0  0  0  0
  -16.7030  -28.6130   23.1470 C   0  0  0  0  0  3  0  0  0  0  0  0
  -25.9070  -32.5480   23.8930 C   0  0  0  0  0  3  0  0  0  0  0  0
  -25.5950  -33.9540   24.2130 N   0  0  0  0  0  0  0  0  0  0  0  0
  -25.9230  -35.0090   23.4550 C   0  0  0  0  0  0  0  0  0  0  0  0
  -26.5810  -34.8990   22.4170 O   0  0  0  0  0  0  0  0  0  0  0  0
  -25.0060  -34.1110   25.0170 H   0  0  0  0  0  0  0  0  0  0  0  0
  -24.2000  -36.8190   23.1360 C   0  0  0  0  0  1  0  0  0  0  0  0
  -25.4570  -36.4060   23.9180 C   0  0  0  0  0  3  0  0  0  0  0  0
  -27.6040  -37.2990   24.7090 C   0  0  0  0  0  1  0  0  0  0  0  0
  -26.4940  -37.4530   23.7730 N   0  0  0  0  0  0  0  0  0  0  0  0
  -26.0950  -38.3790   23.9010 H   0  0  0  0  0  0  0  0  0  0  0  0
  -26.3940  -31.7990   25.1980 C   0  0  1  0  0  0  0  0  0  0  0  0
  -25.2810  -31.5960   26.2550 C   0  0  0  0  0  1  0  0  0  0  0  0
  -26.9690  -30.4050   24.8590 C   0  0  0  0  0  1  0  0  0  0  0  0
  -27.5440  -32.5940   25.8610 C   0  0  0  0  0  1  0  0  0  0  0  0
  1  5  2  0
  1  3  1  0
  2  6  1  0
  3  6  2  0
  4 17  1  0
  4  2  2  0
  5  4  1  0
  6  8  1  0
  7  5  1  0
  9 17  1  0
 10 15  1  0
 11 12  1  0
 11 10  1  0
 13 12  1  0
 13 22  1  0
 13 14  1  0
 15  9  1  0
 15 14  1  0
 16  9  2  0
 18 17  1  0
 19 20  2  0
 20 39  1  0
 21 20  1  0
 21 24  1  0
 22 23  1  0
 22 19  1  0
 23 21  2  0
 24 25  1  0
 25 26  2  0
 27 30  1  0
 27 26  1  0
 28 27  2  0
 29 28  1  0
 29 24  2  0
 30 31  1  0
 31 32  1  0
 32 33  2  0
 34 33  1  0
 34 38  1  0
 35 34  2  0
 36 31  2  0
 36 35  1  0
 37 36  1  0
 39 40  1  0
 40 43  1  0
 40 42  1  0
 41 39  2  0
 44 45  1  0
 44 19  1  0
 46 44  1  0
 47  3  1  0
 47 48  1  0
 49 60  2  0
 50 48  1  0
 50 55  1  0
 51 59  1  0
 51 61  1  0
 52 58  1  0
 52 54  1  0
 53 59  1  0
 54 53  1  0
 55 54  2  0
 56 50  2  0
 57 56  1  0
 57 52  2  0
 58 51  1  0
 59 49  1  0
 61 63  2  0
 62 61  1  0
 64 62  1  0
 65 74  2  0
 65 70  1  0
 66 62  1  0
 66 70  1  0
 67 66  1  0
 68 69  1  0
 68 67  1  0
 69 65  1  0
 70 71  2  0
 71 72  1  0
 73 72  2  0
 74 73  1  0
 75 49  1  0
 75 76  1  0
 75 85  1  0
 76 79  1  0
 77 81  1  0
 77 76  1  0
 78 77  2  0
 81 80  1  0
 83 84  1  0
 83 81  1  0
 83 82  1  0
 85 88  1  1
 85 86  1  0
 87 85  1  0
M  ISO  4   9 100  17 100  47 101  48 101
M  END
>  <TORSDO>  (6) 
F 17

>  <SCORE>  (6) 
-16.814

>  <name>  (6) 
5

>  <ligand_id>  (6) 
5

>  <original_smiles>  (6) 
[H]c1c([H])c([H])c2c(c1[H])C([H])([H])C([H])([H])C([H])([H])C2([H])N([H])C(=O)C1([H])N(C(=O)C([H])(N([H])C(=O)C([H])(N([H])C([H])([H])[H])C([H])([H])[H])C(C([H])([H])[H])(C([H])([H])[H])C([H])([H])[H])C([H])([H])c2c([H])c(OC([H])([H])c3c([H])c(F)c(N([H])C(=O)N4C([H])([H])C([H])([H])C([H])([H])C([H])(n5nc(-c6c([H])c([H])c(Oc7c([H])c([H])c(F)c([H])c7F)c([H])c6[H])c(C(=O)N([H])[H])c5N([H])[H])C4([H])[H])c([H])c3F)c([H])c([H])c2C1([H])[H]

>  <smiles>  (6) 
[H]c1c([H])c([H])c2c(c1[H])C([H])([H])C([H])([H])C([H])([H])C2([H])N([H])C(=O)C1([H])N(C(=O)C([H])(N([H])C(=O)C([H])(N([H])C([H])([H])[H])C([H])([H])[H])C(C([H])([H])[H])(C([H])([H])[H])C([H])([H])[H])C([H])([H])c2c([H])c(OC([H])([H])c3c([H])c(F)c(N([H])C(=O)N4C([H])([H])C([H])([H])C([H])([H])C([H])(n5nc(-c6c([H])c([H])c(Oc7c([H])c([H])c(F)c([H])c7F)c([H])c6[H])c(C(=O)N([H])[H])c5N([H])[H])C4([H])[H])c([H])c3F)c([H])c([H])c2C1([H])[H]

$$$$
6:0:0
     RDKit          3D

 94102  0  0  1  0  0  0  0  0999 V2000
  -29.1090  -22.1110   19.4300 C   0  0  0  0  0  2  0  0  0  0  0  0
  -30.7550  -18.3980   19.4840 C   0  0  0  0  0  3  0  0  0  0  0  0
  -28.8020  -18.3080   20.8130 C   0  0  0  0  0  3  0  0  0  0  0  0
  -29.4580  -20.5730   19.8850 C   0  0  0  0  0  0  0  0  0  0  0  0
  -29.8670  -17.5490   20.2170 C   0  0  0  0  0  0  0  0  0  0  0  0
  -30.5550  -19.8280   19.3200 C   0  0  0  0  0  0  0  0  0  0  0  0
  -28.6030  -19.7360   20.6630 C   0  0  0  0  0  0  0  0  0  0  0  0
  -31.4380  -20.4920   18.5370 F   0  0  0  0  0  0  0  0  0  0  0  0
  -27.5270  -20.3050   21.2570 F   0  0  0  0  0  0  0  0  0  0  0  0
  -30.7210  -14.9630   19.9450 C   0  0  0  0  0  0  0  0  0  0  0  0
  -30.5560  -12.6590   18.9320 C   0  0  0  0  0  2  0  0  0  0  0  0
  -29.5300  -12.6950   17.7730 C   0  0  0  0  0  2  0  0  0  0  0  0
  -28.0970  -12.4820   18.2980 C   0  0  0  0  0  2  0  0  0  0  0  0
  -27.7870  -13.3530   19.5430 C   0  0  0  0  0  3  0  0  0  0  0  0
  -28.9200  -13.2750   20.5900 C   0  0  0  0  0  2  0  0  0  0  0  0
  -30.1620  -13.6940   19.9230 N   0  0  0  0  0  0  0  0  0  0  0  0
  -31.8630  -15.1170   19.4990 O   0  0  0  0  0  0  0  0  0  0  0  0
  -29.9070  -16.0350   20.3510 N   0  0  0  0  0  0  0  0  0  0  0  0
  -29.0740  -15.6680   20.7890 H   0  0  0  0  0  0  0  0  0  0  0  0
  -25.4690  -13.9150   20.4800 C   0  0  0  0  0  0  0  0  0  0  0  0
  -24.4270  -13.1290   20.8910 C   0  0  0  0  0  0  0  0  0  0  0  0
  -24.8750  -11.7790   20.7570 C   0  0  0  0  0  0  0  0  0  0  0  0
  -26.4830  -13.0440   20.1180 N   0  0  0  0  0  0  0  0  0  0  0  0
  -26.1380  -11.7500   20.3470 N   0  0  0  0  0  0  0  0  0  0  0  0
  -24.1520  -10.5120   20.9370 C   0  0  0  0  0  0  0  0  0  0  0  0
  -24.5960   -9.5320   21.8500 C   0  0  0  0  0  3  0  0  0  0  0  0
  -23.8730   -8.3300   22.0190 C   0  0  0  0  0  3  0  0  0  0  0  0
  -22.6930   -8.1020   21.2750 C   0  0  0  0  0  0  0  0  0  0  0  0
  -22.2670   -9.0720   20.3490 C   0  0  0  0  0  3  0  0  0  0  0  0
  -22.9900  -10.2640   20.1780 C   0  0  0  0  0  3  0  0  0  0  0  0
  -21.9410   -6.9550   21.3540 O   0  0  0  0  0  0  0  0  0  0  0  0
  -21.8480   -6.2350   22.5180 C   0  0  0  0  0  0  0  0  0  0  0  0
  -21.3340   -6.7990   23.7050 C   0  0  0  0  0  3  0  0  0  0  0  0
  -21.1920   -6.0030   24.8590 C   0  0  0  0  0  3  0  0  0  0  0  0
  -21.5530   -4.6440   24.8260 C   0  0  0  0  0  0  0  0  0  0  0  0
  -22.0610   -4.0780   23.6450 C   0  0  0  0  0  3  0  0  0  0  0  0
  -22.2050   -4.8700   22.4920 C   0  0  0  0  0  0  0  0  0  0  0  0
  -22.6740   -4.3160   21.3490 F   0  0  0  0  0  0  0  0  0  0  0  0
  -21.4100   -3.8760   25.9330 F   0  0  0  0  0  0  0  0  0  0  0  0
  -23.0590  -13.5990   21.2910 C   0  0  0  0  0  0  0  0  0  0  0  0
  -22.3920  -12.8660   22.1740 N   0  0  0  0  0  0  0  0  0  0  0  0
  -22.5930  -14.6510   20.8550 O   0  0  0  0  0  0  0  0  0  0  0  0
  -22.7840  -12.0140   22.5490 H   0  0  0  0  0  0  0  0  0  0  0  0
  -21.4770  -13.1610   22.4830 H   0  0  0  0  0  0  0  0  0  0  0  0
  -25.6300  -15.2930   20.3590 N   0  0  0  0  0  0  0  0  0  0  0  0
  -24.8710  -15.9390   20.5450 H   0  0  0  0  0  0  0  0  0  0  0  0
  -26.4330  -15.7400   19.9350 H   0  0  0  0  0  0  0  0  0  0  0  0
  -28.8490  -23.4830   20.3310 C   0  0  0  0  0  3  0  0  0  0  0  0
  -27.8130  -23.1990   21.3460 N   0  0  0  0  0  4  0  0  0  0  0  0
  -26.8970  -23.1610   20.9320 H   0  0  0  0  0  0  0  0  0  0  0  0
  -27.8040  -23.9130   22.0550 H   0  0  0  0  0  0  0  0  0  0  0  0
  -27.9820  -22.3100   21.7910 H   0  0  0  0  0  0  0  0  0  0  0  0
  -28.4540  -24.9060   19.5490 C   0  0  0  0  0  2  0  0  0  0  0  0
  -28.4030  -26.3360   20.1280 O   0  0  0  0  0  0  0  0  0  0  0  0
  -24.6600  -31.8640   23.1310 C   0  0  0  0  0  0  0  0  0  0  0  0
  -27.2990  -27.2480   20.0380 C   0  0  0  0  0  0  0  0  0  0  0  0
  -23.4710  -30.4640   21.4870 C   0  0  0  0  0  3  0  0  0  0  0  0
  -24.9330  -28.9300   20.0410 C   0  0  0  0  0  0  0  0  0  0  0  0
  -26.0160  -30.7780   21.3090 C   0  0  0  0  0  2  0  0  0  0  0  0
  -26.1050  -29.3960   20.6470 C   0  0  0  0  0  0  0  0  0  0  0  0
  -27.2830  -28.5680   20.6350 C   0  0  0  0  0  3  0  0  0  0  0  0
  -26.0940  -26.8770   19.3930 C   0  0  0  0  0  3  0  0  0  0  0  0
  -24.9390  -27.6820   19.4030 C   0  0  0  0  0  3  0  0  0  0  0  0
  -23.6920  -29.8030   20.1010 C   0  0  0  0  0  2  0  0  0  0  0  0
  -24.7350  -31.0560   22.0310 N   0  0  0  0  0  0  0  0  0  0  0  0
  -23.5740  -32.1280   23.6680 O   0  0  0  0  0  0  0  0  0  0  0  0
  -22.8160  -29.4370   22.4440 C   0  0  0  0  0  0  0  0  0  0  0  0
  -21.4940  -29.2300   22.3060 N   0  0  0  0  0  0  0  0  0  0  0  0
  -23.4970  -28.8310   23.2730 O   0  0  0  0  0  0  0  0  0  0  0  0
  -20.9990  -29.7720   21.6110 H   0  0  0  0  0  0  0  0  0  0  0  0
  -18.1450  -27.9290   22.7640 C   0  0  0  0  0  0  0  0  0  0  0  0
  -20.6900  -28.2730   23.0710 C   0  0  0  0  0  3  0  0  0  0  0  0
  -20.8450  -26.8400   22.5100 C   0  0  0  0  0  2  0  0  0  0  0  0
  -19.7710  -26.4750   21.4810 C   0  0  0  0  0  2  0  0  0  0  0  0
  -18.3750  -26.5810   22.1010 C   0  0  0  0  0  2  0  0  0  0  0  0
  -19.2320  -28.7300   23.2040 C   0  0  0  0  0  0  0  0  0  0  0  0
  -18.9620  -29.9890   23.7840 C   0  0  0  0  0  3  0  0  0  0  0  0
  -17.6400  -30.4480   23.9270 C   0  0  0  0  0  3  0  0  0  0  0  0
  -16.5670  -29.6450   23.5010 C   0  0  0  0  0  3  0  0  0  0  0  0
  -16.8210  -28.3870   22.9250 C   0  0  0  0  0  3  0  0  0  0  0  0
  -25.9350  -32.5110   23.7550 C   0  0  0  0  0  3  0  0  0  0  0  0
  -26.4740  -31.7280   25.0150 C   0  0  1  0  0  0  0  0  0  0  0  0
  -25.3940  -31.4490   26.0860 C   0  0  0  0  0  1  0  0  0  0  0  0
  -27.0830  -30.3690   24.5980 C   0  0  0  0  0  1  0  0  0  0  0  0
  -27.6130  -32.5340   25.6840 C   0  0  0  0  0  1  0  0  0  0  0  0
  -25.5990  -33.8970   24.1180 N   0  0  0  0  0  0  0  0  0  0  0  0
  -25.8980  -34.9740   23.3790 C   0  0  0  0  0  0  0  0  0  0  0  0
  -26.5520  -34.9070   22.3360 O   0  0  0  0  0  0  0  0  0  0  0  0
  -25.0140  -34.0220   24.9320 H   0  0  0  0  0  0  0  0  0  0  0  0
  -24.1320  -36.7440   23.0910 C   0  0  0  0  0  1  0  0  0  0  0  0
  -25.3920  -36.3430   23.8760 C   0  0  0  0  0  3  0  0  0  0  0  0
  -27.5160  -37.2550   24.7050 C   0  0  0  0  0  1  0  0  0  0  0  0
  -26.4040  -37.4170   23.7740 N   0  0  0  0  0  0  0  0  0  0  0  0
  -25.9810  -38.3270   23.9400 H   0  0  0  0  0  0  0  0  0  0  0  0
  1  4  1  0
  2  5  1  0
  4  7  2  0
  5 18  1  0
  5  3  2  0
  6  2  2  0
  6  4  1  0
  7  3  1  0
  7  9  1  0
  8  6  1  0
 10 18  1  0
 11 16  1  0
 12 13  1  0
 12 11  1  0
 14 13  1  0
 14 23  1  0
 14 15  1  0
 16 10  1  0
 16 15  1  0
 17 10  2  0
 18 19  1  0
 20 21  2  0
 21 40  1  0
 22 21  1  0
 22 25  1  0
 23 24  1  0
 23 20  1  0
 24 22  2  0
 25 26  1  0
 26 27  2  0
 28 31  1  0
 28 27  1  0
 29 28  2  0
 30 29  1  0
 30 25  2  0
 31 32  1  0
 32 33  1  0
 33 34  2  0
 35 34  1  0
 35 39  1  0
 36 35  2  0
 37 32  2  0
 37 36  1  0
 38 37  1  0
 40 41  1  0
 41 44  1  0
 41 43  1  0
 42 40  2  0
 45 20  1  0
 45 46  1  0
 47 45  1  0
 48  1  1  0
 48 49  1  0
 49 52  1  0
 49 51  1  0
 50 49  1  0
 53 54  1  0
 53 48  1  0
 55 66  2  0
 56 54  1  0
 56 61  1  0
 57 65  1  0
 57 67  1  0
 58 64  1  0
 58 60  1  0
 59 65  1  0
 60 59  1  0
 61 60  2  0
 62 63  1  0
 62 56  2  0
 63 58  2  0
 64 57  1  0
 65 55  1  0
 67 69  2  0
 68 67  1  0
 70 68  1  0
 71 80  2  0
 71 76  1  0
 72 68  1  0
 72 76  1  0
 73 72  1  0
 74 75  1  0
 74 73  1  0
 75 71  1  0
 76 77  2  0
 77 78  1  0
 79 78  2  0
 80 79  1  0
 81 55  1  0
 81 86  1  0
 81 82  1  0
 82 85  1  1
 82 83  1  0
 84 82  1  0
 86 89  1  0
 87 91  1  0
 87 86  1  0
 88 87  2  0
 91 90  1  0
 93 91  1  0
 93 94  1  0
 93 92  1  0
M  ISO  4  10 100  18 100  53 101  54 101
M  END
>  <TORSDO>  (7) 
F 20

>  <SCORE>  (7) 
-13.242

>  <name>  (7) 
6

>  <ligand_id>  (7) 
6

>  <original_smiles>  (7) 
[H]c1c([H])c([H])c2c(c1[H])C([H])([H])C([H])([H])C([H])([H])C2([H])N([H])C(=O)C1([H])N(C(=O)C([H])(N([H])C(=O)C([H])(N([H])C([H])([H])[H])C([H])([H])[H])C(C([H])([H])[H])(C([H])([H])[H])C([H])([H])[H])C([H])([H])c2c([H])c(OC([H])([H])C([H])(C([H])([H])c3c(F)c([H])c(N([H])C(=O)N4C([H])([H])C([H])([H])C([H])([H])C([H])(n5nc(-c6c([H])c([H])c(Oc7c([H])c([H])c(F)c([H])c7F)c([H])c6[H])c(C(=O)N([H])[H])c5N([H])[H])C4([H])[H])c([H])c3F)[N+]([H])([H])[H])c([H])c([H])c2C1([H])[H]

>  <smiles>  (7) 
[H]c1c([H])c([H])c2c(c1[H])C([H])([H])C([H])([H])C([H])([H])C2([H])N([H])C(=O)C1([H])N(C(=O)C([H])(N([H])C(=O)C([H])(N([H])C([H])([H])[H])C([H])([H])[H])C(C([H])([H])[H])(C([H])([H])[H])C([H])([H])[H])C([H])([H])c2c([H])c(OC([H])([H])C([H])(C([H])([H])c3c(F)c([H])c(N([H])C(=O)N4C([H])([H])C([H])([H])C([H])([H])C([H])(n5nc(-c6c([H])c([H])c(Oc7c([H])c([H])c(F)c([H])c7F)c([H])c6[H])c(C(=O)N([H])[H])c5N([H])[H])C4([H])[H])c([H])c3F)[N+]([H])([H])[H])c([H])c([H])c2C1([H])[H]

$$$$
7:0:0
     RDKit          3D

 98107  0  0  1  0  0  0  0  0999 V2000
  -31.2600  -22.4400   21.4810 C   0  0  0  0  0  0  0  0  0  0  0  0
  -31.5630  -21.5030   20.5620 N   0  0  0  0  0  0  0  0  0  0  0  0
  -32.2000  -23.0510   21.9950 O   0  0  0  0  0  0  0  0  0  0  0  0
  -32.5520  -21.4330   20.3650 H   0  0  0  0  0  0  0  0  0  0  0  0
  -28.7360  -21.7260   21.9870 C   0  0  0  0  0  2  0  0  0  0  0  0
  -27.9580  -22.5970   20.9970 C   0  0  0  0  0  2  0  0  0  0  0  0
  -29.8250  -22.7970   21.9730 C   0  0  0  0  0  3  0  0  0  0  0  0
  -28.9600  -23.6660   21.1450 N   0  0  1  0  0  4  0  0  0  0  0  0
  -28.5940  -24.3820   21.7570 H   0  0  0  0  0  0  0  0  0  0  0  0
  -29.4720  -24.3160   19.9000 C   0  0  0  0  0  2  0  0  0  0  0  0
  -28.4320  -25.2480   19.2340 C   0  0  0  0  0  2  0  0  0  0  0  0
  -28.4350  -26.5750   19.7950 O   0  0  0  0  0  0  0  0  0  0  0  0
  -24.6480  -31.5810   23.1260 C   0  0  0  0  0  0  0  0  0  0  0  0
  -27.2670  -27.3190   19.7690 C   0  0  0  0  0  0  0  0  0  0  0  0
  -23.4440  -30.3260   21.3680 C   0  0  0  0  0  3  0  0  0  0  0  0
  -24.8920  -28.8730   19.8510 C   0  0  0  0  0  0  0  0  0  0  0  0
  -25.9780  -30.6520   21.2300 C   0  0  0  0  0  2  0  0  0  0  0  0
  -26.0490  -29.3280   20.4950 C   0  0  0  0  0  0  0  0  0  0  0  0
  -27.2350  -28.5590   20.4510 C   0  0  0  0  0  3  0  0  0  0  0  0
  -26.0920  -26.8940   19.0990 C   0  0  0  0  0  3  0  0  0  0  0  0
  -24.9110  -27.6570   19.1490 C   0  0  0  0  0  3  0  0  0  0  0  0
  -23.6630  -29.7490   19.9440 C   0  0  0  0  0  2  0  0  0  0  0  0
  -24.7080  -30.8640   21.9680 N   0  0  0  0  0  0  0  0  0  0  0  0
  -23.5630  -31.8320   23.6710 O   0  0  0  0  0  0  0  0  0  0  0  0
  -22.7620  -29.2490   22.2410 C   0  0  0  0  0  0  0  0  0  0  0  0
  -21.4300  -29.1330   22.1190 N   0  0  0  0  0  0  0  0  0  0  0  0
  -23.4290  -28.5250   22.9860 O   0  0  0  0  0  0  0  0  0  0  0  0
  -20.9540  -29.7660   21.4920 H   0  0  0  0  0  0  0  0  0  0  0  0
  -18.0080  -28.0760   22.6040 C   0  0  0  0  0  0  0  0  0  0  0  0
  -20.5840  -28.1620   22.8130 C   0  0  0  0  0  3  0  0  0  0  0  0
  -20.5860  -26.7980   22.0830 C   0  0  0  0  0  2  0  0  0  0  0  0
  -19.4390  -26.6480   21.0780 C   0  0  0  0  0  2  0  0  0  0  0  0
  -18.0870  -26.8000   21.7820 C   0  0  0  0  0  2  0  0  0  0  0  0
  -19.1820  -28.7230   23.0750 C   0  0  0  0  0  0  0  0  0  0  0  0
  -19.0560  -29.9240   23.8040 C   0  0  0  0  0  3  0  0  0  0  0  0
  -17.7900  -30.4770   24.0690 C   0  0  0  0  0  3  0  0  0  0  0  0
  -16.6300  -29.8240   23.6140 C   0  0  0  0  0  3  0  0  0  0  0  0
  -16.7410  -28.6260   22.8870 C   0  0  0  0  0  3  0  0  0  0  0  0
  -25.9360  -32.1420   23.8080 C   0  0  0  0  0  3  0  0  0  0  0  0
  -25.6660  -33.5350   24.1860 N   0  0  0  0  0  0  0  0  0  0  0  0
  -26.0510  -34.6050   23.4780 C   0  0  0  0  0  0  0  0  0  0  0  0
  -26.7460  -34.5210   22.4610 O   0  0  0  0  0  0  0  0  0  0  0  0
  -25.0530  -33.6760   24.9760 H   0  0  0  0  0  0  0  0  0  0  0  0
  -24.3890  -36.4650   23.1480 C   0  0  0  0  0  1  0  0  0  0  0  0
  -25.5930  -35.9900   23.9770 C   0  0  0  0  0  3  0  0  0  0  0  0
  -27.7180  -36.7820   24.9190 C   0  0  0  0  0  1  0  0  0  0  0  0
  -26.6610  -37.0120   23.9380 N   0  0  0  0  0  0  0  0  0  0  0  0
  -26.2760  -37.9380   24.0980 H   0  0  0  0  0  0  0  0  0  0  0  0
  -26.3920  -31.3020   25.0640 C   0  0  1  0  0  0  0  0  0  0  0  0
  -25.2640  -31.0590   26.0930 C   0  0  0  0  0  1  0  0  0  0  0  0
  -26.9380  -29.9220   24.6260 C   0  0  0  0  0  1  0  0  0  0  0  0
  -27.5470  -32.0280   25.7940 C   0  0  0  0  0  1  0  0  0  0  0  0
  -30.7420  -20.6280   19.7270 C   0  0  0  0  0  2  0  0  0  0  0  0
  -31.7570  -18.4590   20.6370 C   0  0  0  0  0  3  0  0  0  0  0  0
  -31.6620  -17.0800   20.9170 C   0  0  0  0  0  3  0  0  0  0  0  0
  -29.2750  -17.1480   20.4350 C   0  0  0  0  0  3  0  0  0  0  0  0
  -30.6230  -19.1820   20.2030 C   0  0  0  0  0  0  0  0  0  0  0  0
  -30.4260  -16.4070   20.7700 C   0  0  0  0  0  0  0  0  0  0  0  0
  -29.3770  -18.5190   20.1250 C   0  0  0  0  0  0  0  0  0  0  0  0
  -28.2730  -19.1870   19.7150 F   0  0  0  0  0  0  0  0  0  0  0  0
  -30.8050  -14.0890   20.0770 C   0  0  0  0  0  0  0  0  0  0  0  0
  -30.3690  -11.9620   18.9070 C   0  0  0  0  0  2  0  0  0  0  0  0
  -29.3390  -12.1750   17.7820 C   0  0  0  0  0  2  0  0  0  0  0  0
  -27.9010  -12.0520   18.3220 C   0  0  0  0  0  2  0  0  0  0  0  0
  -27.6690  -12.9040   19.5980 C   0  0  0  0  0  3  0  0  0  0  0  0
  -28.7960  -12.6640   20.6270 C   0  0  0  0  0  2  0  0  0  0  0  0
  -30.0900  -12.9350   19.9750 N   0  0  0  0  0  0  0  0  0  0  0  0
  -31.8280  -14.3030   19.4180 O   0  0  0  0  0  0  0  0  0  0  0  0
  -30.2990  -15.0000   20.9250 N   0  0  0  0  0  0  0  0  0  0  0  0
  -29.4780  -14.6780   21.4140 H   0  0  0  0  0  0  0  0  0  0  0  0
  -25.3470  -13.5490   20.5080 C   0  0  0  0  0  0  0  0  0  0  0  0
  -24.2930  -12.7930   20.9450 C   0  0  0  0  0  0  0  0  0  0  0  0
  -24.7170  -11.4320   20.8480 C   0  0  0  0  0  0  0  0  0  0  0  0
  -26.3490  -12.6500   20.1750 N   0  0  0  0  0  0  0  0  0  0  0  0
  -25.9760  -11.3710   20.4330 N   0  0  0  0  0  0  0  0  0  0  0  0
  -23.9800  -10.1820   21.0700 C   0  0  0  0  0  0  0  0  0  0  0  0
  -24.4070   -9.2290   22.0220 C   0  0  0  0  0  3  0  0  0  0  0  0
  -23.6700   -8.0420   22.2280 C   0  0  0  0  0  3  0  0  0  0  0  0
  -22.4910   -7.8010   21.4840 C   0  0  0  0  0  0  0  0  0  0  0  0
  -22.0820   -8.7420   20.5220 C   0  0  0  0  0  3  0  0  0  0  0  0
  -22.8200   -9.9200   20.3140 C   0  0  0  0  0  3  0  0  0  0  0  0
  -21.7230   -6.6660   21.6000 O   0  0  0  0  0  0  0  0  0  0  0  0
  -21.6220   -5.9860   22.7870 C   0  0  0  0  0  0  0  0  0  0  0  0
  -21.0870   -6.5860   23.9470 C   0  0  0  0  0  3  0  0  0  0  0  0
  -20.9360   -5.8300   25.1260 C   0  0  0  0  0  3  0  0  0  0  0  0
  -21.3090   -4.4720   25.1450 C   0  0  0  0  0  0  0  0  0  0  0  0
  -21.8370   -3.8710   23.9890 C   0  0  0  0  0  3  0  0  0  0  0  0
  -21.9910   -4.6250   22.8130 C   0  0  0  0  0  0  0  0  0  0  0  0
  -22.4820   -4.0350   21.6960 F   0  0  0  0  0  0  0  0  0  0  0  0
  -21.1570   -3.7430   26.2760 F   0  0  0  0  0  0  0  0  0  0  0  0
  -22.9330  -13.2930   21.3420 C   0  0  0  0  0  0  0  0  0  0  0  0
  -22.2550  -12.5860   22.2380 N   0  0  0  0  0  0  0  0  0  0  0  0
  -22.4860  -14.3480   20.8920 O   0  0  0  0  0  0  0  0  0  0  0  0
  -22.6320  -11.7320   22.6260 H   0  0  0  0  0  0  0  0  0  0  0  0
  -21.3450  -12.9010   22.5410 H   0  0  0  0  0  0  0  0  0  0  0  0
  -25.5330  -14.9190   20.3480 N   0  0  0  0  0  0  0  0  0  0  0  0
  -24.7990  -15.5920   20.5410 H   0  0  0  0  0  0  0  0  0  0  0  0
  -26.3630  -15.3420   19.9520 H   0  0  0  0  0  0  0  0  0  0  0  0
  1  3  2  0
  2  1  1  0
  4  2  1  0
  6  8  1  0
  6  5  1  0
  7  1  1  0
  7  5  1  0
  8  9  1  1
  8  7  1  0
 10  8  1  0
 11 12  1  0
 11 10  1  0
 13 24  2  0
 14 12  1  0
 14 19  1  0
 15 23  1  0
 15 25  1  0
 16 22  1  0
 16 18  1  0
 17 23  1  0
 18 17  1  0
 19 18  2  0
 20 21  1  0
 20 14  2  0
 21 16  2  0
 22 15  1  0
 23 13  1  0
 25 27  2  0
 26 25  1  0
 28 26  1  0
 29 38  2  0
 29 34  1  0
 30 26  1  0
 30 34  1  0
 31 30  1  0
 32 33  1  0
 32 31  1  0
 33 29  1  0
 34 35  2  0
 35 36  1  0
 37 36  2  0
 38 37  1  0
 39 13  1  0
 39 40  1  0
 39 49  1  0
 40 43  1  0
 41 45  1  0
 41 40  1  0
 42 41  2  0
 45 44  1  0
 47 45  1  0
 47 48  1  0
 47 46  1  0
 49 52  1  1
 49 50  1  0
 51 49  1  0
 53 57  1  0
 53  2  1  0
 54 55  1  0
 56 58  1  0
 57 54  2  0
 58 55  2  0
 58 69  1  0
 59 57  1  0
 59 56  2  0
 60 59  1  0
 61 69  1  0
 62 67  1  0
 63 64  1  0
 63 62  1  0
 65 64  1  0
 65 74  1  0
 65 66  1  0
 67 61  1  0
 67 66  1  0
 68 61  2  0
 69 70  1  0
 71 72  2  0
 72 91  1  0
 73 72  1  0
 73 76  1  0
 74 75  1  0
 74 71  1  0
 75 73  2  0
 76 77  1  0
 77 78  2  0
 79 82  1  0
 79 78  1  0
 80 79  2  0
 81 80  1  0
 81 76  2  0
 82 83  1  0
 83 88  2  0
 83 84  1  0
 84 85  2  0
 85 86  1  0
 86 90  1  0
 87 86  2  0
 88 87  1  0
 89 88  1  0
 91 92  1  0
 92 95  1  0
 92 94  1  0
 93 91  2  0
 96 71  1  0
 96 97  1  0
 98 96  1  0
M  ISO  4  11 101  12 101  61 100  69 100
M  END
>  <TORSDO>  (8) 
F 21

>  <SCORE>  (8) 
-12.017

>  <name>  (8) 
7

>  <ligand_id>  (8) 
7

>  <original_smiles>  (8) 
[H]c1c([H])c([H])c2c(c1[H])C([H])([H])C([H])([H])C([H])([H])C2([H])N([H])C(=O)C1([H])N(C(=O)C([H])(N([H])C(=O)C([H])(N([H])C([H])([H])[H])C([H])([H])[H])C(C([H])([H])[H])(C([H])([H])[H])C([H])([H])[H])C([H])([H])c2c([H])c(OC([H])([H])C([H])([H])[N+]3([H])C([H])([H])C([H])([H])C3([H])C(=O)N([H])C([H])([H])c3c([H])c([H])c(N([H])C(=O)N4C([H])([H])C([H])([H])C([H])([H])C([H])(n5nc(-c6c([H])c([H])c(Oc7c([H])c([H])c(F)c([H])c7F)c([H])c6[H])c(C(=O)N([H])[H])c5N([H])[H])C4([H])[H])c([H])c3F)c([H])c([H])c2C1([H])[H]

>  <smiles>  (8) 
[H]c1c([H])c([H])c2c(c1[H])C([H])([H])C([H])([H])C([H])([H])C2([H])N([H])C(=O)C1([H])N(C(=O)C([H])(N([H])C(=O)C([H])(N([H])C([H])([H])[H])C([H])([H])[H])C(C([H])([H])[H])(C([H])([H])[H])C([H])([H])[H])C([H])([H])c2c([H])c(OC([H])([H])C([H])([H])[N+]3([H])C([H])([H])C([H])([H])C3([H])C(=O)N([H])C([H])([H])c3c([H])c([H])c(N([H])C(=O)N4C([H])([H])C([H])([H])C([H])([H])C([H])(n5nc(-c6c([H])c([H])c(Oc7c([H])c([H])c(F)c([H])c7F)c([H])c6[H])c(C(=O)N([H])[H])c5N([H])[H])C4([H])[H])c([H])c3F)c([H])c([H])c2C1([H])[H]

$$$$
8:0:0
     RDKit          3D

 90 98  0  0  1  0  0  0  0  0999 V2000
  -28.3640  -18.8880   20.3280 C   0  0  0  0  0  3  0  0  0  0  0  0
  -30.6550  -19.0900   20.2600 C   0  0  0  0  0  3  0  0  0  0  0  0
  -29.2590  -21.3480   20.2700 C   0  0  0  0  0  0  0  0  0  0  0  0
  -29.5970  -18.0990   20.3200 C   0  0  0  0  0  0  0  0  0  0  0  0
  -28.1930  -20.3650   20.3060 C   0  0  0  0  0  0  0  0  0  0  0  0
  -30.4990  -20.5680   20.2390 C   0  0  0  0  0  0  0  0  0  0  0  0
  -26.9240  -20.8400   20.3390 F   0  0  0  0  0  0  0  0  0  0  0  0
  -31.6520  -21.2800   20.2090 F   0  0  0  0  0  0  0  0  0  0  0  0
  -30.4720  -15.3000   20.2560 C   0  0  0  0  0  0  0  0  0  0  0  0
  -30.4560  -12.8730   19.3720 C   0  0  0  0  0  2  0  0  0  0  0  0
  -29.5250  -12.7200   18.1430 C   0  0  0  0  0  2  0  0  0  0  0  0
  -28.0710  -12.4600   18.5820 C   0  0  0  0  0  2  0  0  0  0  0  0
  -27.6360  -13.4040   19.7320 C   0  0  0  0  0  3  0  0  0  0  0  0
  -28.6930  -13.5010   20.8540 C   0  0  0  0  0  2  0  0  0  0  0  0
  -29.9320  -13.9910   20.2280 N   0  0  0  0  0  0  0  0  0  0  0  0
  -31.6830  -15.3560   19.9940 O   0  0  0  0  0  0  0  0  0  0  0  0
  -29.6230  -16.4910   20.3860 N   0  0  0  0  0  0  0  0  0  0  0  0
  -28.6910  -16.1470   20.5570 H   0  0  0  0  0  0  0  0  0  0  0  0
  -25.2670  -13.9670   20.4990 C   0  0  0  0  0  0  0  0  0  0  0  0
  -24.2060  -13.1900   20.8740 C   0  0  0  0  0  0  0  0  0  0  0  0
  -24.6690  -11.8380   20.8250 C   0  0  0  0  0  0  0  0  0  0  0  0
  -26.3070  -13.0910   20.2410 N   0  0  0  0  0  0  0  0  0  0  0  0
  -25.9590  -11.8040   20.5060 N   0  0  0  0  0  0  0  0  0  0  0  0
  -23.9390  -10.5770   21.0050 C   0  0  0  0  0  0  0  0  0  0  0  0
  -24.3600   -9.6070   21.9410 C   0  0  0  0  0  3  0  0  0  0  0  0
  -23.6280   -8.4120   22.1110 C   0  0  0  0  0  3  0  0  0  0  0  0
  -22.4620   -8.1770   21.3450 C   0  0  0  0  0  0  0  0  0  0  0  0
  -22.0620   -9.1350   20.3970 C   0  0  0  0  0  3  0  0  0  0  0  0
  -22.7940  -10.3220   20.2240 C   0  0  0  0  0  3  0  0  0  0  0  0
  -21.7030   -7.0330   21.4250 O   0  0  0  0  0  0  0  0  0  0  0  0
  -21.6180   -6.3060   22.5850 C   0  0  0  0  0  0  0  0  0  0  0  0
  -21.1050   -6.8630   23.7780 C   0  0  0  0  0  3  0  0  0  0  0  0
  -20.9690   -6.0590   24.9280 C   0  0  0  0  0  3  0  0  0  0  0  0
  -21.3350   -4.7000   24.8850 C   0  0  0  0  0  0  0  0  0  0  0  0
  -21.8400   -4.1440   23.6970 C   0  0  0  0  0  3  0  0  0  0  0  0
  -21.9780   -4.9440   22.5490 C   0  0  0  0  0  0  0  0  0  0  0  0
  -22.4450   -4.3980   21.4010 F   0  0  0  0  0  0  0  0  0  0  0  0
  -21.1990   -3.9250   25.9870 F   0  0  0  0  0  0  0  0  0  0  0  0
  -22.8110  -13.6690   21.1530 C   0  0  0  0  0  0  0  0  0  0  0  0
  -22.0870  -12.9740   22.0220 N   0  0  0  0  0  0  0  0  0  0  0  0
  -22.3730  -14.6950   20.6350 O   0  0  0  0  0  0  0  0  0  0  0  0
  -22.4560  -12.1460   22.4660 H   0  0  0  0  0  0  0  0  0  0  0  0
  -21.1490  -13.2730   22.2480 H   0  0  0  0  0  0  0  0  0  0  0  0
  -25.4250  -15.3390   20.3210 N   0  0  0  0  0  0  0  0  0  0  0  0
  -24.6340  -15.9680   20.3930 H   0  0  0  0  0  0  0  0  0  0  0  0
  -26.2190  -15.7560   19.8550 H   0  0  0  0  0  0  0  0  0  0  0  0
  -29.2360  -23.0840   20.3940 C   0  0  0  0  0  3  0  0  0  0  0  0
  -29.6310  -23.2970   21.6520 F   0  0  0  0  0  0  0  0  0  0  0  0
  -28.1210  -24.4300   20.1070 C   0  0  0  0  0  2  0  0  0  0  0  0
  -28.3140  -26.0410   20.3040 O   0  0  0  0  0  0  0  0  0  0  0  0
  -24.6790  -31.8880   23.3050 C   0  0  0  0  0  0  0  0  0  0  0  0
  -27.2760  -27.0950   20.2470 C   0  0  0  0  0  0  0  0  0  0  0  0
  -23.4980  -30.5110   21.6400 C   0  0  0  0  0  3  0  0  0  0  0  0
  -24.9600  -28.9310   20.2070 C   0  0  0  0  0  0  0  0  0  0  0  0
  -26.0610  -30.7420   21.5090 C   0  0  0  0  0  2  0  0  0  0  0  0
  -26.1400  -29.3450   20.8360 C   0  0  0  0  0  0  0  0  0  0  0  0
  -27.2930  -28.4480   20.8310 C   0  0  0  0  0  3  0  0  0  0  0  0
  -26.0630  -26.8150   19.5780 C   0  0  0  0  0  3  0  0  0  0  0  0
  -24.9430  -27.6850   19.5590 C   0  0  0  0  0  3  0  0  0  0  0  0
  -23.7350  -29.8420   20.2580 C   0  0  0  0  0  2  0  0  0  0  0  0
  -24.7670  -31.0730   22.2060 N   0  0  0  0  0  0  0  0  0  0  0  0
  -23.5880  -32.1700   23.8230 O   0  0  0  0  0  0  0  0  0  0  0  0
  -22.8010  -29.5030   22.5880 C   0  0  0  0  0  0  0  0  0  0  0  0
  -21.4730  -29.3360   22.4500 N   0  0  0  0  0  0  0  0  0  0  0  0
  -23.4600  -28.8710   23.4170 O   0  0  0  0  0  0  0  0  0  0  0  0
  -20.9940  -29.8960   21.7570 H   0  0  0  0  0  0  0  0  0  0  0  0
  -18.0860  -28.1260   22.9250 C   0  0  0  0  0  0  0  0  0  0  0  0
  -20.6450  -28.3880   23.2030 C   0  0  0  0  0  3  0  0  0  0  0  0
  -20.7480  -26.9650   22.6080 C   0  0  0  0  0  2  0  0  0  0  0  0
  -19.6510  -26.6570   21.5850 C   0  0  0  0  0  2  0  0  0  0  0  0
  -18.2660  -26.7900   22.2260 C   0  0  0  0  0  2  0  0  0  0  0  0
  -19.2030  -28.8840   23.3700 C   0  0  0  0  0  0  0  0  0  0  0  0
  -18.9790  -30.1340   23.9870 C   0  0  0  0  0  3  0  0  0  0  0  0
  -17.6720  -30.6280   24.1600 C   0  0  0  0  0  3  0  0  0  0  0  0
  -16.5710  -29.8680   23.7300 C   0  0  0  0  0  3  0  0  0  0  0  0
  -16.7780  -28.6190   23.1180 C   0  0  0  0  0  3  0  0  0  0  0  0
  -25.9470  -32.5220   23.9550 C   0  0  0  0  0  3  0  0  0  0  0  0
  -25.6410  -33.9280   24.2710 N   0  0  0  0  0  0  0  0  0  0  0  0
  -25.9570  -34.9760   23.4970 C   0  0  0  0  0  0  0  0  0  0  0  0
  -26.6010  -34.8590   22.4520 O   0  0  0  0  0  0  0  0  0  0  0  0
  -25.0620  -34.0910   25.0820 H   0  0  0  0  0  0  0  0  0  0  0  0
  -24.2090  -36.7640   23.1910 C   0  0  0  0  0  1  0  0  0  0  0  0
  -25.4860  -36.3720   23.9530 C   0  0  0  0  0  3  0  0  0  0  0  0
  -27.6450  -37.2870   24.6850 C   0  0  0  0  0  1  0  0  0  0  0  0
  -26.5100  -37.4250   23.7770 N   0  0  0  0  0  0  0  0  0  0  0  0
  -26.1050  -38.3490   23.9110 H   0  0  0  0  0  0  0  0  0  0  0  0
  -26.4210  -31.7630   25.2560 C   0  0  1  0  0  0  0  0  0  0  0  0
  -25.2980  -31.5530   26.2990 C   0  0  0  0  0  1  0  0  0  0  0  0
  -26.9980  -30.3730   24.9060 C   0  0  0  0  0  1  0  0  0  0  0  0
  -27.5620  -32.5540   25.9370 C   0  0  0  0  0  1  0  0  0  0  0  0
  2  4  2  0
  3  5  1  0
  3 47  1  0
  4  1  1  0
  4 17  1  0
  5  1  2  0
  5  7  1  0
  6  2  1  0
  6  3  2  0
  8  6  1  0
  9 17  1  0
 10 15  1  0
 11 12  1  0
 11 10  1  0
 13 12  1  0
 13 22  1  0
 13 14  1  0
 15  9  1  0
 15 14  1  0
 16  9  2  0
 17 18  1  0
 19 20  2  0
 20 39  1  0
 21 20  1  0
 21 24  1  0
 22 19  1  0
 22 23  1  0
 23 21  2  0
 24 25  1  0
 25 26  2  0
 27 30  1  0
 27 26  1  0
 28 27  2  0
 29 28  1  0
 29 24  2  0
 30 31  1  0
 31 32  1  0
 32 33  2  0
 34 33  1  0
 34 38  1  0
 35 34  2  0
 36 31  2  0
 36 35  1  0
 37 36  1  0
 39 40  1  0
 40 43  1  0
 40 42  1  0
 41 39  2  0
 44 45  1  0
 44 19  1  0
 46 44  1  0
 47 48  1  0
 49 50  1  0
 49 47  1  0
 51 62  2  0
 52 50  1  0
 52 57  1  0
 53 61  1  0
 53 63  1  0
 54 60  1  0
 54 56  1  0
 55 61  1  0
 56 55  1  0
 57 56  2  0
 58 52  2  0
 59 58  1  0
 59 54  2  0
 60 53  1  0
 61 51  1  0
 63 65  2  0
 64 63  1  0
 66 64  1  0
 67 76  2  0
 67 72  1  0
 68 64  1  0
 68 72  1  0
 69 68  1  0
 70 71  1  0
 70 69  1  0
 71 67  1  0
 72 73  2  0
 73 74  1  0
 75 74  2  0
 76 75  1  0
 77 51  1  0
 77 78  1  0
 77 87  1  0
 78 81  1  0
 79 83  1  0
 79 78  1  0
 80 79  2  0
 83 82  1  0
 85 86  1  0
 85 83  1  0
 85 84  1  0
 87 90  1  1
 87 88  1  0
 89 87  1  0
M  ISO  4   9 100  17 100  49 101  50 101
M  END
>  <TORSDO>  (9) 
F 18

>  <SCORE>  (9) 
-15.444

>  <name>  (9) 
8

>  <ligand_id>  (9) 
8

>  <original_smiles>  (9) 
[H]c1c([H])c([H])c2c(c1[H])C([H])([H])C([H])([H])C([H])([H])C2([H])N([H])C(=O)C1([H])N(C(=O)C([H])(N([H])C(=O)C([H])(N([H])C([H])([H])[H])C([H])([H])[H])C(C([H])([H])[H])(C([H])([H])[H])C([H])([H])[H])C([H])([H])c2c([H])c(OC([H])([H])C([H])(F)c3c(F)c([H])c(N([H])C(=O)N4C([H])([H])C([H])([H])C([H])([H])C([H])(n5nc(-c6c([H])c([H])c(Oc7c([H])c([H])c(F)c([H])c7F)c([H])c6[H])c(C(=O)N([H])[H])c5N([H])[H])C4([H])[H])c([H])c3F)c([H])c([H])c2C1([H])[H]

>  <smiles>  (9) 
[H]c1c([H])c([H])c2c(c1[H])C([H])([H])C([H])([H])C([H])([H])C2([H])N([H])C(=O)C1([H])N(C(=O)C([H])(N([H])C(=O)C([H])(N([H])C([H])([H])[H])C([H])([H])[H])C(C([H])([H])[H])(C([H])([H])[H])C([H])([H])[H])C([H])([H])c2c([H])c(OC([H])([H])C([H])(F)c3c(F)c([H])c(N([H])C(=O)N4C([H])([H])C([H])([H])C([H])([H])C([H])(n5nc(-c6c([H])c([H])c(Oc7c([H])c([H])c(F)c([H])c7F)c([H])c6[H])c(C(=O)N([H])[H])c5N([H])[H])C4([H])[H])c([H])c3F)c([H])c([H])c2C1([H])[H]

$$$$
9:0:0
     RDKit          3D

 96104  0  0  1  0  0  0  0  0999 V2000
  -30.7010  -18.5260   20.9920 C   0  0  0  0  0  2  0  0  0  0  0  0
  -28.7780  -18.1310   19.6080 C   0  0  0  0  0  2  0  0  0  0  0  0
  -30.7120  -20.0560   20.5080 C   0  0  0  0  0  2  0  0  0  0  0  0
  -28.6760  -19.6910   19.2100 C   0  0  0  0  0  3  0  0  0  0  0  0
  -30.1680  -17.4800   19.9570 C   0  0  0  0  0  3  0  0  0  0  0  0
  -29.3960  -20.6950   20.1000 N   0  0  2  0  0  4  0  0  0  0  0  0
  -28.8260  -20.7660   20.9320 H   0  0  0  0  0  0  0  0  0  0  0  0
  -30.8480  -14.8350   20.1020 C   0  0  0  0  0  0  0  0  0  0  0  0
  -30.5930  -12.5470   19.1020 C   0  0  0  0  0  2  0  0  0  0  0  0
  -29.6410  -12.6510   17.8880 C   0  0  0  0  0  2  0  0  0  0  0  0
  -28.1720  -12.5210   18.3330 C   0  0  0  0  0  2  0  0  0  0  0  0
  -27.8440  -13.4100   19.5620 C   0  0  0  0  0  3  0  0  0  0  0  0
  -28.9120  -13.2790   20.6710 C   0  0  0  0  0  2  0  0  0  0  0  0
  -30.2100  -13.6070   20.0670 N   0  0  0  0  0  0  0  0  0  0  0  0
  -32.0190  -14.9180   19.7230 O   0  0  0  0  0  0  0  0  0  0  0  0
  -30.0760  -15.9750   20.3590 N   0  0  0  0  0  0  0  0  0  0  0  0
  -29.1690  -15.7160   20.7180 H   0  0  0  0  0  0  0  0  0  0  0  0
  -25.4790  -14.0820   20.2870 C   0  0  0  0  0  0  0  0  0  0  0  0
  -24.3950  -13.3470   20.6820 C   0  0  0  0  0  0  0  0  0  0  0  0
  -24.8180  -11.9820   20.6740 C   0  0  0  0  0  0  0  0  0  0  0  0
  -26.4950  -13.1680   20.0640 N   0  0  0  0  0  0  0  0  0  0  0  0
  -26.1060  -11.9020   20.3610 N   0  0  0  0  0  0  0  0  0  0  0  0
  -24.0570  -10.7460   20.8920 C   0  0  0  0  0  0  0  0  0  0  0  0
  -24.4820   -9.7690   21.8200 C   0  0  0  0  0  3  0  0  0  0  0  0
  -23.7200   -8.5990   22.0260 C   0  0  0  0  0  3  0  0  0  0  0  0
  -22.5200   -8.3960   21.3030 C   0  0  0  0  0  0  0  0  0  0  0  0
  -22.1150   -9.3590   20.3630 C   0  0  0  0  0  3  0  0  0  0  0  0
  -22.8760  -10.5220   20.1550 C   0  0  0  0  0  3  0  0  0  0  0  0
  -21.7320   -7.2760   21.4160 O   0  0  0  0  0  0  0  0  0  0  0  0
  -21.7070   -6.5270   22.5650 C   0  0  0  0  0  0  0  0  0  0  0  0
  -21.3840   -7.0940   23.8160 C   0  0  0  0  0  3  0  0  0  0  0  0
  -21.3020   -6.2750   24.9600 C   0  0  0  0  0  3  0  0  0  0  0  0
  -21.5350   -4.8910   24.8540 C   0  0  0  0  0  0  0  0  0  0  0  0
  -21.8510   -4.3240   23.6060 C   0  0  0  0  0  3  0  0  0  0  0  0
  -21.9340   -5.1400   22.4650 C   0  0  0  0  0  0  0  0  0  0  0  0
  -22.2180   -4.5850   21.2620 F   0  0  0  0  0  0  0  0  0  0  0  0
  -21.4490   -4.1020   25.9510 F   0  0  0  0  0  0  0  0  0  0  0  0
  -23.0130  -13.8700   20.9500 C   0  0  0  0  0  0  0  0  0  0  0  0
  -22.2760  -13.2250   21.8470 N   0  0  0  0  0  0  0  0  0  0  0  0
  -22.5980  -14.8890   20.3990 O   0  0  0  0  0  0  0  0  0  0  0  0
  -22.6230  -12.3980   22.3110 H   0  0  0  0  0  0  0  0  0  0  0  0
  -21.3530  -13.5640   22.0770 H   0  0  0  0  0  0  0  0  0  0  0  0
  -25.6800  -15.4430   20.0720 N   0  0  0  0  0  0  0  0  0  0  0  0
  -24.9110  -16.1010   20.1250 H   0  0  0  0  0  0  0  0  0  0  0  0
  -26.5060  -15.8190   19.6270 H   0  0  0  0  0  0  0  0  0  0  0  0
  -27.1820  -20.0930   19.2230 C   0  0  0  0  0  0  0  0  0  0  0  0
  -26.6890  -20.7500   20.1480 O   0  0  0  0  0  0  0  0  0  0  0  0
  -26.2920  -19.6010   18.0730 C   0  0  0  0  0  2  0  0  0  0  0  0
  -24.9460  -20.1860   18.2240 N   0  0  0  0  0  4  0  0  0  0  0  0
  -24.5500  -19.8940   19.0990 H   0  0  0  0  0  0  0  0  0  0  0  0
  -24.3450  -19.9010   17.4720 H   0  0  0  0  0  0  0  0  0  0  0  0
  -25.0120  -21.1870   18.2410 H   0  0  0  0  0  0  0  0  0  0  0  0
  -29.5250  -22.1600   19.5220 C   0  0  0  0  0  3  0  0  0  0  0  0
  -28.7890  -23.5070   20.1490 C   0  0  0  0  0  3  0  0  0  0  0  0
  -28.7890  -24.9340   19.3150 C   0  0  0  0  0  2  0  0  0  0  0  0
  -28.6700  -26.3470   19.8820 O   0  0  0  0  0  0  0  0  0  0  0  0
  -24.7750  -31.6190   23.0590 C   0  0  0  0  0  0  0  0  0  0  0  0
  -27.5360  -27.2070   19.8080 C   0  0  0  0  0  0  0  0  0  0  0  0
  -23.6300  -30.2700   21.3390 C   0  0  0  0  0  3  0  0  0  0  0  0
  -25.1360  -28.8210   19.8450 C   0  0  0  0  0  0  0  0  0  0  0  0
  -26.1660  -30.6410   21.2050 C   0  0  0  0  0  2  0  0  0  0  0  0
  -26.2890  -29.2920   20.4850 C   0  0  0  0  0  0  0  0  0  0  0  0
  -27.4840  -28.4950   20.4550 C   0  0  0  0  0  3  0  0  0  0  0  0
  -26.3510  -26.8130   19.1430 C   0  0  0  0  0  3  0  0  0  0  0  0
  -25.1740  -27.5930   19.1640 C   0  0  0  0  0  3  0  0  0  0  0  0
  -23.8790  -29.6710   19.9270 C   0  0  0  0  0  2  0  0  0  0  0  0
  -24.8750  -30.8610   21.9240 N   0  0  0  0  0  0  0  0  0  0  0  0
  -23.6800  -31.8410   23.5930 O   0  0  0  0  0  0  0  0  0  0  0  0
  -22.9830  -29.1890   22.2400 C   0  0  0  0  0  0  0  0  0  0  0  0
  -21.6550  -29.0190   22.1260 N   0  0  0  0  0  0  0  0  0  0  0  0
  -23.6770  -28.5120   23.0040 O   0  0  0  0  0  0  0  0  0  0  0  0
  -21.1530  -29.6150   21.4830 H   0  0  0  0  0  0  0  0  0  0  0  0
  -18.2860  -27.7900   22.6350 C   0  0  0  0  0  0  0  0  0  0  0  0
  -20.8530  -28.0260   22.8450 C   0  0  0  0  0  3  0  0  0  0  0  0
  -20.9330  -26.6440   22.1570 C   0  0  0  0  0  2  0  0  0  0  0  0
  -19.8010  -26.4020   21.1540 C   0  0  0  0  0  2  0  0  0  0  0  0
  -18.4380  -26.4980   21.8490 C   0  0  0  0  0  2  0  0  0  0  0  0
  -19.4200  -28.5160   23.0880 C   0  0  0  0  0  0  0  0  0  0  0  0
  -19.2260  -29.7280   23.7840 C   0  0  0  0  0  3  0  0  0  0  0  0
  -17.9290  -30.2160   24.0290 C   0  0  0  0  0  3  0  0  0  0  0  0
  -16.8110  -29.4880   23.5920 C   0  0  0  0  0  3  0  0  0  0  0  0
  -16.9890  -28.2760   22.9000 C   0  0  0  0  0  3  0  0  0  0  0  0
  -26.0320  -32.2600   23.7250 C   0  0  0  0  0  3  0  0  0  0  0  0
  -25.6640  -33.6160   24.1630 N   0  0  0  0  0  0  0  0  0  0  0  0
  -25.9580  -34.7380   23.4960 C   0  0  0  0  0  0  0  0  0  0  0  0
  -26.6390  -34.7440   22.4680 O   0  0  0  0  0  0  0  0  0  0  0  0
  -25.0580  -33.6790   24.9680 H   0  0  0  0  0  0  0  0  0  0  0  0
  -24.1620  -36.4880   23.2730 C   0  0  0  0  0  1  0  0  0  0  0  0
  -25.4120  -36.0660   24.0600 C   0  0  0  0  0  3  0  0  0  0  0  0
  -27.5070  -36.9630   24.9770 C   0  0  0  0  0  1  0  0  0  0  0  0
  -26.4040  -37.1640   24.0410 N   0  0  0  0  0  0  0  0  0  0  0  0
  -25.9610  -38.0500   24.2650 H   0  0  0  0  0  0  0  0  0  0  0  0
  -26.5820  -31.4190   24.9420 C   0  0  1  0  0  0  0  0  0  0  0  0
  -25.5060  -31.0680   25.9960 C   0  0  0  0  0  1  0  0  0  0  0  0
  -27.2130  -30.0950   24.4560 C   0  0  0  0  0  1  0  0  0  0  0  0
  -27.7080  -32.2070   25.6570 C   0  0  0  0  0  1  0  0  0  0  0  0
  2  5  1  0
  3  1  1  0
  4 46  1  0
  4  2  1  0
  4  6  1  0
  5 16  1  0
  5  1  1  0
  6  3  1  0
  6  7  1  1
  8 16  1  0
  9 14  1  0
 10 11  1  0
 10  9  1  0
 12 11  1  0
 12 21  1  0
 12 13  1  0
 14  8  1  0
 14 13  1  0
 15  8  2  0
 16 17  1  0
 18 19  2  0
 19 38  1  0
 20 19  1  0
 20 23  1  0
 21 18  1  0
 21 22  1  0
 22 20  2  0
 23 24  1  0
 24 25  2  0
 26 29  1  0
 26 25  1  0
 27 26  2  0
 28 27  1  0
 28 23  2  0
 29 30  1  0
 30 31  1  0
 31 32  2  0
 33 32  1  0
 33 37  1  0
 34 33  2  0
 35 30  2  0
 35 34  1  0
 36 35  1  0
 38 39  1  0
 39 42  1  0
 39 41  1  0
 40 38  2  0
 43 44  1  0
 43 18  1  0
 45 43  1  0
 46 47  2  0
 48 49  1  0
 48 46  1  0
 49 52  1  0
 49 50  1  0
 51 49  1  0
 53  6  1  0
 53 54  2  0
 55 56  1  0
 55 54  1  0
 57 68  2  0
 58 56  1  0
 58 63  1  0
 59 67  1  0
 59 69  1  0
 60 66  1  0
 60 62  1  0
 61 67  1  0
 62 61  1  0
 63 62  2  0
 64 65  1  0
 64 58  2  0
 65 60  2  0
 66 59  1  0
 67 57  1  0
 69 71  2  0
 70 69  1  0
 72 70  1  0
 73 82  2  0
 73 78  1  0
 74 70  1  0
 74 78  1  0
 75 74  1  0
 76 77  1  0
 76 75  1  0
 77 73  1  0
 78 79  2  0
 79 80  1  0
 81 80  2  0
 82 81  1  0
 83 57  1  0
 83 84  1  0
 83 93  1  0
 84 87  1  0
 85 89  1  0
 85 84  1  0
 86 85  2  0
 89 88  1  0
 91 89  1  0
 91 92  1  0
 91 90  1  0
 93 96  1  1
 93 94  1  0
 95 93  1  0
M  ISO  4   8 100  16 100  55 101  56 101
M  END
>  <TORSDO>  (10) 
F 22

>  <SCORE>  (10) 
-11.673

>  <name>  (10) 
9

>  <ligand_id>  (10) 
9

>  <original_smiles>  (10) 
[H]c1c([H])c([H])c2c(c1[H])C([H])([H])C([H])([H])C([H])([H])C2([H])N([H])C(=O)C1([H])N(C(=O)C([H])(N([H])C(=O)C([H])(N([H])C([H])([H])[H])C([H])([H])[H])C(C([H])([H])[H])(C([H])([H])[H])C([H])([H])[H])C([H])([H])c2c([H])c(OC([H])([H])C([H])([H])C([H])([H])[N+]3([H])C([H])([H])C([H])([H])C([H])(N([H])C(=O)N4C([H])([H])C([H])([H])C([H])([H])C([H])(n5nc(-c6c([H])c([H])c(Oc7c([H])c([H])c(F)c([H])c7F)c([H])c6[H])c(C(=O)N([H])[H])c5N([H])[H])C4([H])[H])C([H])([H])C3([H])C(=O)C([H])([H])[N+]([H])([H])[H])c([H])c([H])c2C1([H])[H]

>  <smiles>  (10) 
[H]c1c([H])c([H])c2c(c1[H])C([H])([H])C([H])([H])C([H])([H])C2([H])N([H])C(=O)C1([H])N(C(=O)C([H])(N([H])C(=O)C([H])(N([H])C([H])([H])[H])C([H])([H])[H])C(C([H])([H])[H])(C([H])([H])[H])C([H])([H])[H])C([H])([H])c2c([H])c(OC([H])([H])C([H])([H])C([H])([H])[N+]3([H])C([H])([H])C([H])([H])C([H])(N([H])C(=O)N4C([H])([H])C([H])([H])C([H])([H])C([H])(n5nc(-c6c([H])c([H])c(Oc7c([H])c([H])c(F)c([H])c7F)c([H])c6[H])c(C(=O)N([H])[H])c5N([H])[H])C4([H])[H])C([H])([H])C3([H])C(=O)C([H])([H])[N+]([H])([H])[H])c([H])c([H])c2C1([H])[H]

$$$$
10:0:0
     RDKit          3D

 92100  0  0  1  0  0  0  0  0999 V2000
  -29.1970  -19.0890   20.4430 C   0  0  0  0  0  3  0  0  0  0  0  0
  -31.3750  -19.5020   18.8370 C   0  0  0  0  0  3  0  0  0  0  0  0
  -29.4710  -20.5250   20.0420 C   0  0  0  0  0  0  0  0  0  0  0  0
  -29.9970  -17.8540   20.0790 C   0  0  0  0  0  0  0  0  0  0  0  0
  -30.6100  -20.6280   19.2070 C   0  0  0  0  0  0  0  0  0  0  0  0
  -31.0870  -18.1780   19.2290 C   0  0  0  0  0  0  0  0  0  0  0  0
  -30.9620  -21.8140   18.6600 F   0  0  0  0  0  0  0  0  0  0  0  0
  -31.8690  -17.2160   18.6950 F   0  0  0  0  0  0  0  0  0  0  0  0
  -30.4990  -15.1040   20.2750 C   0  0  0  0  0  0  0  0  0  0  0  0
  -30.3710  -12.7280   19.3590 C   0  0  0  0  0  2  0  0  0  0  0  0
  -29.4280  -12.6530   18.1370 C   0  0  0  0  0  2  0  0  0  0  0  0
  -27.9750  -12.4200   18.5900 C   0  0  0  0  0  2  0  0  0  0  0  0
  -27.5720  -13.3430   19.7700 C   0  0  0  0  0  3  0  0  0  0  0  0
  -28.6450  -13.3990   20.8780 C   0  0  0  0  0  2  0  0  0  0  0  0
  -29.8920  -13.8400   20.2400 N   0  0  0  0  0  0  0  0  0  0  0  0
  -31.7130  -15.0920   20.0510 O   0  0  0  0  0  0  0  0  0  0  0  0
  -29.7490  -16.3370   20.4120 N   0  0  0  0  0  0  0  0  0  0  0  0
  -28.8080  -16.1560   20.7230 H   0  0  0  0  0  0  0  0  0  0  0  0
  -25.2060  -13.8970   20.5610 C   0  0  0  0  0  0  0  0  0  0  0  0
  -24.1520  -13.1120   20.9390 C   0  0  0  0  0  0  0  0  0  0  0  0
  -24.6230  -11.7630   20.8860 C   0  0  0  0  0  0  0  0  0  0  0  0
  -26.2490  -13.0270   20.2930 N   0  0  0  0  0  0  0  0  0  0  0  0
  -25.9090  -11.7380   20.5540 N   0  0  0  0  0  0  0  0  0  0  0  0
  -23.9020  -10.4960   21.0700 C   0  0  0  0  0  0  0  0  0  0  0  0
  -24.3500   -9.5180   21.9860 C   0  0  0  0  0  3  0  0  0  0  0  0
  -23.6280   -8.3180   22.1600 C   0  0  0  0  0  3  0  0  0  0  0  0
  -22.4440   -8.0870   21.4210 C   0  0  0  0  0  0  0  0  0  0  0  0
  -22.0150   -9.0530   20.4940 C   0  0  0  0  0  3  0  0  0  0  0  0
  -22.7380  -10.2460   20.3170 C   0  0  0  0  0  3  0  0  0  0  0  0
  -21.6930   -6.9400   21.5070 O   0  0  0  0  0  0  0  0  0  0  0  0
  -21.6580   -6.1860   22.6530 C   0  0  0  0  0  0  0  0  0  0  0  0
  -21.2300   -6.7240   23.8860 C   0  0  0  0  0  3  0  0  0  0  0  0
  -21.1440   -5.8960   25.0230 C   0  0  0  0  0  3  0  0  0  0  0  0
  -21.4750   -4.5300   24.9280 C   0  0  0  0  0  0  0  0  0  0  0  0
  -21.8960   -3.9920   23.6990 C   0  0  0  0  0  3  0  0  0  0  0  0
  -21.9830   -4.8170   22.5650 C   0  0  0  0  0  0  0  0  0  0  0  0
  -22.3700   -4.2890   21.3780 F   0  0  0  0  0  0  0  0  0  0  0  0
  -21.3840   -3.7340   26.0180 F   0  0  0  0  0  0  0  0  0  0  0  0
  -22.7570  -13.5800   21.2310 C   0  0  0  0  0  0  0  0  0  0  0  0
  -22.0440  -12.8770   22.1040 N   0  0  0  0  0  0  0  0  0  0  0  0
  -22.3100  -14.6070   20.7220 O   0  0  0  0  0  0  0  0  0  0  0  0
  -22.4200  -12.0500   22.5410 H   0  0  0  0  0  0  0  0  0  0  0  0
  -21.1070  -13.1720   22.3380 H   0  0  0  0  0  0  0  0  0  0  0  0
  -25.3600  -15.2700   20.3930 N   0  0  0  0  0  0  0  0  0  0  0  0
  -24.5860  -15.9140   20.5070 H   0  0  0  0  0  0  0  0  0  0  0  0
  -26.1880  -15.7130   20.0170 H   0  0  0  0  0  0  0  0  0  0  0  0
  -28.9510  -23.2600   20.3070 C   0  0  0  0  0  0  0  0  0  0  0  0
  -28.6520  -21.8400   20.2870 N   0  0  0  0  0  0  0  0  0  0  0  0
  -30.1250  -23.6040   20.4540 O   0  0  0  0  0  0  0  0  0  0  0  0
  -27.6590  -21.6720   20.3820 H   0  0  0  0  0  0  0  0  0  0  0  0
  -27.8480  -24.5350   20.2200 C   0  0  0  0  0  2  0  0  0  0  0  0
  -28.1970  -26.0860   20.3210 O   0  0  0  0  0  0  0  0  0  0  0  0
  -24.6360  -31.9320   23.2530 C   0  0  0  0  0  0  0  0  0  0  0  0
  -27.1720  -27.1250   20.2570 C   0  0  0  0  0  0  0  0  0  0  0  0
  -23.4310  -30.5370   21.6210 C   0  0  0  0  0  3  0  0  0  0  0  0
  -24.8680  -28.9380   20.2080 C   0  0  0  0  0  0  0  0  0  0  0  0
  -25.9930  -30.7620   21.4680 C   0  0  0  0  0  2  0  0  0  0  0  0
  -26.0540  -29.3610   20.8200 C   0  0  0  0  0  0  0  0  0  0  0  0
  -27.2060  -28.4740   20.8230 C   0  0  0  0  0  3  0  0  0  0  0  0
  -25.9550  -26.8220   19.6050 C   0  0  0  0  0  3  0  0  0  0  0  0
  -24.8360  -27.6820   19.5840 C   0  0  0  0  0  3  0  0  0  0  0  0
  -23.6510  -29.8520   20.2470 C   0  0  0  0  0  2  0  0  0  0  0  0
  -24.7070  -31.1010   22.1680 N   0  0  0  0  0  0  0  0  0  0  0  0
  -23.5490  -32.2290   23.7750 O   0  0  0  0  0  0  0  0  0  0  0  0
  -22.7370  -29.5430   22.5880 C   0  0  0  0  0  0  0  0  0  0  0  0
  -21.4080  -29.3820   22.4590 N   0  0  0  0  0  0  0  0  0  0  0  0
  -23.4000  -28.9180   23.4200 O   0  0  0  0  0  0  0  0  0  0  0  0
  -20.9280  -29.9380   21.7640 H   0  0  0  0  0  0  0  0  0  0  0  0
  -18.0160  -28.2090   22.9660 C   0  0  0  0  0  0  0  0  0  0  0  0
  -20.5770  -28.4570   23.2340 C   0  0  0  0  0  3  0  0  0  0  0  0
  -20.6700  -27.0190   22.6700 C   0  0  0  0  0  2  0  0  0  0  0  0
  -19.5670  -26.6980   21.6560 C   0  0  0  0  0  2  0  0  0  0  0  0
  -18.1850  -26.8550   22.2970 C   0  0  0  0  0  2  0  0  0  0  0  0
  -19.1390  -28.9670   23.3920 C   0  0  0  0  0  0  0  0  0  0  0  0
  -18.9250  -30.2320   23.9820 C   0  0  0  0  0  3  0  0  0  0  0  0
  -17.6230  -30.7400   24.1470 C   0  0  0  0  0  3  0  0  0  0  0  0
  -16.5150  -29.9800   23.7350 C   0  0  0  0  0  3  0  0  0  0  0  0
  -16.7120  -28.7160   23.1500 C   0  0  0  0  0  3  0  0  0  0  0  0
  -25.9140  -32.5640   23.8820 C   0  0  0  0  0  3  0  0  0  0  0  0
  -25.6060  -33.9660   24.2120 N   0  0  0  0  0  0  0  0  0  0  0  0
  -25.9280  -35.0210   23.4510 C   0  0  0  0  0  0  0  0  0  0  0  0
  -26.5790  -34.9160   22.4080 O   0  0  0  0  0  0  0  0  0  0  0  0
  -25.0230  -34.1210   25.0210 H   0  0  0  0  0  0  0  0  0  0  0  0
  -24.1900  -36.8170   23.1440 C   0  0  0  0  0  1  0  0  0  0  0  0
  -25.4550  -36.4120   23.9200 C   0  0  0  0  0  3  0  0  0  0  0  0
  -27.6070  -37.3080   24.6920 C   0  0  0  0  0  1  0  0  0  0  0  0
  -26.4840  -37.4630   23.7710 N   0  0  0  0  0  0  0  0  0  0  0  0
  -26.0820  -38.3870   23.9120 H   0  0  0  0  0  0  0  0  0  0  0  0
  -26.4170  -31.7970   25.1670 C   0  0  1  0  0  0  0  0  0  0  0  0
  -25.3160  -31.5730   26.2290 C   0  0  0  0  0  1  0  0  0  0  0  0
  -26.9940  -30.4130   24.7930 C   0  0  0  0  0  1  0  0  0  0  0  0
  -27.5690  -32.5880   25.8300 C   0  0  0  0  0  1  0  0  0  0  0  0
  2  5  2  0
  2  6  1  0
  3 48  1  0
  3  1  2  0
  4 17  1  0
  4  1  1  0
  5  3  1  0
  6  4  2  0
  7  5  1  0
  8  6  1  0
  9 17  1  0
 10 15  1  0
 11 12  1  0
 11 10  1  0
 13 12  1  0
 13 22  1  0
 13 14  1  0
 15  9  1  0
 15 14  1  0
 16  9  2  0
 17 18  1  0
 19 20  2  0
 20 39  1  0
 21 20  1  0
 21 24  1  0
 22 23  1  0
 22 19  1  0
 23 21  2  0
 24 25  1  0
 25 26  2  0
 27 30  1  0
 27 26  1  0
 28 27  2  0
 29 28  1  0
 29 24  2  0
 30 31  1  0
 31 32  1  0
 32 33  2  0
 34 33  1  0
 34 38  1  0
 35 34  2  0
 36 31  2  0
 36 35  1  0
 37 36  1  0
 39 40  1  0
 40 43  1  0
 40 42  1  0
 41 39  2  0
 44 45  1  0
 44 19  1  0
 46 44  1  0
 47 49  2  0
 48 47  1  0
 48 50  1  0
 51 47  1  0
 51 52  1  0
 53 64  2  0
 54 52  1  0
 54 59  1  0
 55 63  1  0
 55 65  1  0
 56 62  1  0
 56 58  1  0
 57 63  1  0
 58 59  2  0
 58 57  1  0
 60 54  2  0
 61 60  1  0
 61 56  2  0
 62 55  1  0
 63 53  1  0
 65 67  2  0
 66 65  1  0
 68 66  1  0
 69 78  2  0
 69 74  1  0
 70 66  1  0
 70 74  1  0
 71 70  1  0
 72 73  1  0
 72 71  1  0
 73 69  1  0
 74 75  2  0
 75 76  1  0
 77 76  2  0
 78 77  1  0
 79 53  1  0
 79 80  1  0
 79 89  1  0
 80 83  1  0
 81 85  1  0
 81 80  1  0
 82 81  2  0
 85 84  1  0
 87 88  1  0
 87 85  1  0
 87 86  1  0
 89 92  1  1
 89 90  1  0
 91 89  1  0
M  ISO  4   9 100  17 100  51 101  52 101
M  END
>  <TORSDO>  (11) 
F 18

>  <SCORE>  (11) 
-14.652

>  <name>  (11) 
10

>  <ligand_id>  (11) 
10

>  <original_smiles>  (11) 
[H]c1c([H])c([H])c2c(c1[H])C([H])([H])C([H])([H])C([H])([H])C2([H])N([H])C(=O)C1([H])N(C(=O)C([H])(N([H])C(=O)C([H])(N([H])C([H])([H])[H])C([H])([H])[H])C(C([H])([H])[H])(C([H])([H])[H])C([H])([H])[H])C([H])([H])c2c([H])c(OC([H])([H])C(=O)N([H])c3c([H])c(N([H])C(=O)N4C([H])([H])C([H])([H])C([H])([H])C([H])(n5nc(-c6c([H])c([H])c(Oc7c([H])c([H])c(F)c([H])c7F)c([H])c6[H])c(C(=O)N([H])[H])c5N([H])[H])C4([H])[H])c(F)c([H])c3F)c([H])c([H])c2C1([H])[H]

>  <smiles>  (11) 
[H]c1c([H])c([H])c2c(c1[H])C([H])([H])C([H])([H])C([H])([H])C2([H])N([H])C(=O)C1([H])N(C(=O)C([H])(N([H])C(=O)C([H])(N([H])C([H])([H])[H])C([H])([H])[H])C(C([H])([H])[H])(C([H])([H])[H])C([H])([H])[H])C([H])([H])c2c([H])c(OC([H])([H])C(=O)N([H])c3c([H])c(N([H])C(=O)N4C([H])([H])C([H])([H])C([H])([H])C([H])(n5nc(-c6c([H])c([H])c(Oc7c([H])c([H])c(F)c([H])c7F)c([H])c6[H])c(C(=O)N([H])[H])c5N([H])[H])C4([H])[H])c(F)c([H])c3F)c([H])c([H])c2C1([H])[H]

$$$$
11:0:0
     RDKit          3D

 95104  0  0  1  0  0  0  0  0999 V2000
  -30.6350  -21.8940   18.7730 C   0  0  0  0  0  0  0  0  0  0  0  0
  -29.2440  -22.4710   18.5210 C   0  0  0  0  0  2  0  0  0  0  0  0
  -30.2420  -21.6200   20.2330 C   0  0  0  0  0  3  0  0  0  0  0  0
  -29.0860  -22.5780   19.9860 N   0  0  1  0  0  4  0  0  0  0  0  0
  -31.6360  -21.7010   18.0770 O   0  0  0  0  0  0  0  0  0  0  0  0
  -28.2170  -22.1580   20.2930 H   0  0  0  0  0  0  0  0  0  0  0  0
  -31.1630  -17.8220   20.5720 C   0  0  0  0  0  3  0  0  0  0  0  0
  -28.7610  -17.9610   20.5200 C   0  0  0  0  0  3  0  0  0  0  0  0
  -30.0730  -20.0620   20.3990 C   0  0  0  0  0  0  0  0  0  0  0  0
  -29.9230  -17.1340   20.5710 C   0  0  0  0  0  0  0  0  0  0  0  0
  -31.2320  -19.2430   20.4970 C   0  0  0  0  0  0  0  0  0  0  0  0
  -28.8300  -19.3870   20.4290 C   0  0  0  0  0  0  0  0  0  0  0  0
  -32.4530  -19.8290   20.5080 F   0  0  0  0  0  0  0  0  0  0  0  0
  -27.6910  -20.1200   20.3560 F   0  0  0  0  0  0  0  0  0  0  0  0
  -30.5810  -14.6420   20.2430 C   0  0  0  0  0  0  0  0  0  0  0  0
  -30.3410  -12.4350   19.1200 C   0  0  0  0  0  2  0  0  0  0  0  0
  -29.3690  -12.6010   17.9330 C   0  0  0  0  0  2  0  0  0  0  0  0
  -27.9060  -12.4370   18.3930 C   0  0  0  0  0  2  0  0  0  0  0  0
  -27.5810  -13.2710   19.6610 C   0  0  0  0  0  3  0  0  0  0  0  0
  -28.6640  -13.0740   20.7440 C   0  0  0  0  0  2  0  0  0  0  0  0
  -29.9610  -13.4250   20.1480 N   0  0  0  0  0  0  0  0  0  0  0  0
  -31.7320  -14.8100   19.8270 O   0  0  0  0  0  0  0  0  0  0  0  0
  -29.7820  -15.6780   20.6510 N   0  0  0  0  0  0  0  0  0  0  0  0
  -28.8660  -15.3580   20.9300 H   0  0  0  0  0  0  0  0  0  0  0  0
  -25.2050  -13.8670   20.4390 C   0  0  0  0  0  0  0  0  0  0  0  0
  -24.1460  -13.0900   20.8260 C   0  0  0  0  0  0  0  0  0  0  0  0
  -24.6060  -11.7390   20.7690 C   0  0  0  0  0  0  0  0  0  0  0  0
  -26.2420  -12.9870   20.1710 N   0  0  0  0  0  0  0  0  0  0  0  0
  -25.8880  -11.7030   20.4320 N   0  0  0  0  0  0  0  0  0  0  0  0
  -23.8840  -10.4750   20.9630 C   0  0  0  0  0  0  0  0  0  0  0  0
  -24.3220   -9.5090   21.8970 C   0  0  0  0  0  3  0  0  0  0  0  0
  -23.6010   -8.3100   22.0790 C   0  0  0  0  0  3  0  0  0  0  0  0
  -22.4270   -8.0670   21.3270 C   0  0  0  0  0  0  0  0  0  0  0  0
  -22.0070   -9.0210   20.3840 C   0  0  0  0  0  3  0  0  0  0  0  0
  -22.7280  -10.2120   20.2000 C   0  0  0  0  0  3  0  0  0  0  0  0
  -21.6770   -6.9200   21.4170 O   0  0  0  0  0  0  0  0  0  0  0  0
  -21.6130   -6.1910   22.5790 C   0  0  0  0  0  0  0  0  0  0  0  0
  -21.1160   -6.7430   23.7800 C   0  0  0  0  0  3  0  0  0  0  0  0
  -21.0030   -5.9390   24.9310 C   0  0  0  0  0  3  0  0  0  0  0  0
  -21.3790   -4.5830   24.8830 C   0  0  0  0  0  0  0  0  0  0  0  0
  -21.8690   -4.0300   23.6870 C   0  0  0  0  0  3  0  0  0  0  0  0
  -21.9830   -4.8320   22.5370 C   0  0  0  0  0  0  0  0  0  0  0  0
  -22.4370   -4.2900   21.3810 F   0  0  0  0  0  0  0  0  0  0  0  0
  -21.2620   -3.8070   25.9850 F   0  0  0  0  0  0  0  0  0  0  0  0
  -22.7540  -13.5660   21.1310 C   0  0  0  0  0  0  0  0  0  0  0  0
  -22.0430  -12.8600   22.0040 N   0  0  0  0  0  0  0  0  0  0  0  0
  -22.3050  -14.5960   20.6310 O   0  0  0  0  0  0  0  0  0  0  0  0
  -22.4190  -12.0270   22.4330 H   0  0  0  0  0  0  0  0  0  0  0  0
  -21.1100  -13.1590   22.2490 H   0  0  0  0  0  0  0  0  0  0  0  0
  -25.3650  -15.2390   20.2700 N   0  0  0  0  0  0  0  0  0  0  0  0
  -24.5900  -15.8830   20.3910 H   0  0  0  0  0  0  0  0  0  0  0  0
  -26.1810  -15.6740   19.8600 H   0  0  0  0  0  0  0  0  0  0  0  0
  -29.2320  -24.0180   20.4930 C   0  0  0  0  0  3  0  0  0  0  0  0
  -28.1210  -25.0610   20.0390 C   0  0  0  0  0  3  0  0  0  0  0  0
  -28.3260  -26.5040   20.2980 O   0  0  0  0  0  0  0  0  0  0  0  0
  -24.5680  -31.8690   23.2720 C   0  0  0  0  0  0  0  0  0  0  0  0
  -27.2100  -27.3480   20.2100 C   0  0  0  0  0  0  0  0  0  0  0  0
  -23.3840  -30.4920   21.6020 C   0  0  0  0  0  3  0  0  0  0  0  0
  -24.8490  -28.9590   20.1780 C   0  0  0  0  0  0  0  0  0  0  0  0
  -25.9240  -30.8090   21.4570 C   0  0  0  0  0  2  0  0  0  0  0  0
  -26.0100  -29.4400   20.7970 C   0  0  0  0  0  0  0  0  0  0  0  0
  -27.1930  -28.6460   20.8070 C   0  0  0  0  0  3  0  0  0  0  0  0
  -26.0280  -26.9250   19.5550 C   0  0  0  0  0  3  0  0  0  0  0  0
  -24.8590  -27.7070   19.5470 C   0  0  0  0  0  3  0  0  0  0  0  0
  -23.6140  -29.8330   20.2180 C   0  0  0  0  0  2  0  0  0  0  0  0
  -24.6430  -31.0720   22.1680 N   0  0  0  0  0  0  0  0  0  0  0  0
  -23.4800  -32.1420   23.7970 O   0  0  0  0  0  0  0  0  0  0  0  0
  -22.7090  -29.4630   22.5400 C   0  0  0  0  0  0  0  0  0  0  0  0
  -21.3850  -29.2820   22.3870 N   0  0  0  0  0  0  0  0  0  0  0  0
  -23.3740  -28.8320   23.3660 O   0  0  0  0  0  0  0  0  0  0  0  0
  -20.9080  -29.8410   21.6940 H   0  0  0  0  0  0  0  0  0  0  0  0
  -17.9990  -28.0970   22.8360 C   0  0  0  0  0  0  0  0  0  0  0  0
  -20.5560  -28.3400   23.1380 C   0  0  0  0  0  3  0  0  0  0  0  0
  -20.6580  -26.9140   22.5460 C   0  0  0  0  0  2  0  0  0  0  0  0
  -19.5650  -26.6100   21.5150 C   0  0  0  0  0  2  0  0  0  0  0  0
  -18.1770  -26.7550   22.1450 C   0  0  0  0  0  2  0  0  0  0  0  0
  -19.1170  -28.8480   23.2890 C   0  0  0  0  0  0  0  0  0  0  0  0
  -18.8980  -30.1040   23.8940 C   0  0  0  0  0  3  0  0  0  0  0  0
  -17.5940  -30.6110   24.0500 C   0  0  0  0  0  3  0  0  0  0  0  0
  -16.4910  -29.8570   23.6140 C   0  0  0  0  0  3  0  0  0  0  0  0
  -16.6940  -28.6020   23.0140 C   0  0  0  0  0  3  0  0  0  0  0  0
  -25.8460  -32.4920   23.9160 C   0  0  0  0  0  3  0  0  0  0  0  0
  -26.3230  -31.7300   25.2130 C   0  0  1  0  0  0  0  0  0  0  0  0
  -25.1990  -31.5140   26.2540 C   0  0  0  0  0  1  0  0  0  0  0  0
  -26.9020  -30.3420   24.8510 C   0  0  0  0  0  1  0  0  0  0  0  0
  -27.4640  -32.5190   25.8960 C   0  0  0  0  0  1  0  0  0  0  0  0
  -25.5480  -33.8980   24.2220 N   0  0  0  0  0  0  0  0  0  0  0  0
  -25.8940  -34.9350   23.4500 C   0  0  0  0  0  0  0  0  0  0  0  0
  -26.5700  -34.8090   22.4240 O   0  0  0  0  0  0  0  0  0  0  0  0
  -24.9490  -34.0700   25.0160 H   0  0  0  0  0  0  0  0  0  0  0  0
  -24.1870  -36.7390   23.0530 C   0  0  0  0  0  1  0  0  0  0  0  0
  -25.4180  -36.3340   23.8810 C   0  0  0  0  0  3  0  0  0  0  0  0
  -27.5470  -37.2180   24.7270 C   0  0  0  0  0  1  0  0  0  0  0  0
  -26.4620  -37.3760   23.7630 N   0  0  0  0  0  0  0  0  0  0  0  0
  -26.0630  -38.3020   23.8860 H   0  0  0  0  0  0  0  0  0  0  0  0
  1  3  1  0
  2  1  1  0
  2  4  1  0
  3  9  1  0
  4  3  1  0
  4  6  1  6
  4 53  1  0
  5  1  2  0
  8 10  2  0
  9 12  2  0
  9 11  1  0
 10  7  1  0
 10 23  1  0
 11 13  1  0
 11  7  2  0
 12  8  1  0
 14 12  1  0
 15 23  1  0
 16 21  1  0
 17 18  1  0
 17 16  1  0
 19 18  1  0
 19 28  1  0
 19 20  1  0
 21 15  1  0
 21 20  1  0
 22 15  2  0
 23 24  1  0
 25 26  2  0
 26 45  1  0
 27 26  1  0
 27 30  1  0
 28 29  1  0
 28 25  1  0
 29 27  2  0
 30 31  1  0
 31 32  2  0
 33 36  1  0
 33 32  1  0
 34 33  2  0
 35 34  1  0
 35 30  2  0
 36 37  1  0
 37 38  1  0
 38 39  2  0
 40 39  1  0
 40 44  1  0
 41 40  2  0
 42 37  2  0
 42 41  1  0
 43 42  1  0
 45 46  1  0
 46 49  1  0
 46 48  1  0
 47 45  2  0
 50 51  1  0
 50 25  1  0
 52 50  1  0
 54 55  1  0
 54 53  2  0
 56 67  2  0
 57 55  1  0
 57 62  1  0
 58 66  1  0
 58 68  1  0
 59 65  1  0
 59 61  1  0
 60 66  1  0
 61 62  2  0
 61 60  1  0
 63 57  2  0
 64 63  1  0
 64 59  2  0
 65 58  1  0
 66 56  1  0
 68 70  2  0
 69 68  1  0
 71 69  1  0
 72 81  2  0
 72 77  1  0
 73 69  1  0
 73 77  1  0
 74 73  1  0
 75 76  1  0
 75 74  1  0
 76 72  1  0
 77 78  2  0
 78 79  1  0
 80 79  2  0
 81 80  1  0
 82 56  1  0
 82 87  1  0
 82 83  1  0
 83 86  1  1
 83 84  1  0
 85 83  1  0
 87 90  1  0
 88 92  1  0
 88 87  1  0
 89 88  2  0
 92 91  1  0
 94 92  1  0
 94 95  1  0
 94 93  1  0
M  ISO  4  15 100  23 100  54 101  55 101
M  END
>  <TORSDO>  (12) 
F 19

>  <SCORE>  (12) 
-14.547

>  <name>  (12) 
11

>  <ligand_id>  (12) 
11

>  <original_smiles>  (12) 
[H]c1c([H])c([H])c2c(c1[H])C([H])([H])C([H])([H])C([H])([H])C2([H])N([H])C(=O)C1([H])N(C(=O)C([H])(N([H])C(=O)C([H])(N([H])C([H])([H])[H])C([H])([H])[H])C(C([H])([H])[H])(C([H])([H])[H])C([H])([H])[H])C([H])([H])c2c([H])c(OC([H])([H])C([H])([H])[N+]3([H])C([H])([H])C(=O)C3([H])c3c(F)c([H])c(N([H])C(=O)N4C([H])([H])C([H])([H])C([H])([H])C([H])(n5nc(-c6c([H])c([H])c(Oc7c([H])c([H])c(F)c([H])c7F)c([H])c6[H])c(C(=O)N([H])[H])c5N([H])[H])C4([H])[H])c([H])c3F)c([H])c([H])c2C1([H])[H]

>  <smiles>  (12) 
[H]c1c([H])c([H])c2c(c1[H])C([H])([H])C([H])([H])C([H])([H])C2([H])N([H])C(=O)C1([H])N(C(=O)C([H])(N([H])C(=O)C([H])(N([H])C([H])([H])[H])C([H])([H])[H])C(C([H])([H])[H])(C([H])([H])[H])C([H])([H])[H])C([H])([H])c2c([H])c(OC([H])([H])C([H])([H])[N+]3([H])C([H])([H])C(=O)C3([H])c3c(F)c([H])c(N([H])C(=O)N4C([H])([H])C([H])([H])C([H])([H])C([H])(n5nc(-c6c([H])c([H])c(Oc7c([H])c([H])c(F)c([H])c7F)c([H])c6[H])c(C(=O)N([H])[H])c5N([H])[H])C4([H])[H])c([H])c3F)c([H])c([H])c2C1([H])[H]

$$$$
12:0:0
     RDKit          3D

 95103  0  0  1  0  0  0  0  0999 V2000
  -31.0930  -21.5290   19.4120 C   0  0  0  0  0  0  0  0  0  0  0  0
  -30.8360  -20.8020   18.4440 O   0  0  0  0  0  0  0  0  0  0  0  0
  -31.4010  -23.0110   19.2220 C   0  0  0  0  0  2  0  0  0  0  0  0
  -29.8840  -24.9100   19.7460 C   0  0  0  0  0  0  0  0  0  0  0  0
  -30.1490  -23.7570   19.1220 N   0  0  0  0  0  0  0  0  0  0  0  0
  -30.7170  -25.4810   20.4570 O   0  0  0  0  0  0  0  0  0  0  0  0
  -29.4200  -23.3530   18.5480 H   0  0  0  0  0  0  0  0  0  0  0  0
  -28.4800  -25.4870   19.5500 C   0  0  0  0  0  2  0  0  0  0  0  0
  -28.4150  -26.7830   20.1390 O   0  0  0  0  0  0  0  0  0  0  0  0
  -24.5890  -31.8760   23.2440 C   0  0  0  0  0  0  0  0  0  0  0  0
  -27.2090  -27.4450   20.1420 C   0  0  0  0  0  0  0  0  0  0  0  0
  -23.3680  -30.4750   21.6100 C   0  0  0  0  0  3  0  0  0  0  0  0
  -24.8070  -28.9310   20.1820 C   0  0  0  0  0  0  0  0  0  0  0  0
  -25.8900  -30.8310   21.3950 C   0  0  0  0  0  2  0  0  0  0  0  0
  -25.9650  -29.4590   20.7630 C   0  0  0  0  0  0  0  0  0  0  0  0
  -27.1650  -28.7190   20.7470 C   0  0  0  0  0  3  0  0  0  0  0  0
  -26.0280  -26.9210   19.5640 C   0  0  0  0  0  3  0  0  0  0  0  0
  -24.8300  -27.6590   19.5850 C   0  0  0  0  0  3  0  0  0  0  0  0
  -23.5660  -29.7910   20.2310 C   0  0  0  0  0  2  0  0  0  0  0  0
  -24.6350  -31.0750   22.1420 N   0  0  0  0  0  0  0  0  0  0  0  0
  -23.5120  -32.1510   23.7900 O   0  0  0  0  0  0  0  0  0  0  0  0
  -22.7230  -29.4560   22.5750 C   0  0  0  0  0  0  0  0  0  0  0  0
  -21.3970  -29.2750   22.4520 N   0  0  0  0  0  0  0  0  0  0  0  0
  -23.4090  -28.8300   23.3880 O   0  0  0  0  0  0  0  0  0  0  0  0
  -20.9070  -29.8310   21.7660 H   0  0  0  0  0  0  0  0  0  0  0  0
  -18.0240  -28.0890   22.9570 C   0  0  0  0  0  0  0  0  0  0  0  0
  -20.5810  -28.3420   23.2270 C   0  0  0  0  0  3  0  0  0  0  0  0
  -20.6800  -26.9090   22.6560 C   0  0  0  0  0  2  0  0  0  0  0  0
  -19.5780  -26.5840   21.6420 C   0  0  0  0  0  2  0  0  0  0  0  0
  -18.1970  -26.7360   22.2870 C   0  0  0  0  0  2  0  0  0  0  0  0
  -19.1440  -28.8490   23.3830 C   0  0  0  0  0  0  0  0  0  0  0  0
  -18.9290  -30.1170   23.9670 C   0  0  0  0  0  3  0  0  0  0  0  0
  -17.6250  -30.6240   24.1290 C   0  0  0  0  0  3  0  0  0  0  0  0
  -16.5190  -29.8580   23.7190 C   0  0  0  0  0  3  0  0  0  0  0  0
  -16.7190  -28.5930   23.1390 C   0  0  0  0  0  3  0  0  0  0  0  0
  -25.8820  -32.5020   23.8550 C   0  0  0  0  0  3  0  0  0  0  0  0
  -25.5780  -33.8990   24.1940 N   0  0  0  0  0  0  0  0  0  0  0  0
  -25.9020  -34.9530   23.4330 C   0  0  0  0  0  0  0  0  0  0  0  0
  -26.5610  -34.8520   22.3940 O   0  0  0  0  0  0  0  0  0  0  0  0
  -24.9930  -34.0510   25.0020 H   0  0  0  0  0  0  0  0  0  0  0  0
  -24.1670  -36.7420   23.1030 C   0  0  0  0  0  1  0  0  0  0  0  0
  -25.4190  -36.3400   23.8990 C   0  0  0  0  0  3  0  0  0  0  0  0
  -27.5650  -37.2220   24.7000 C   0  0  0  0  0  1  0  0  0  0  0  0
  -26.4500  -37.3940   23.7740 N   0  0  0  0  0  0  0  0  0  0  0  0
  -26.0450  -38.3130   23.9290 H   0  0  0  0  0  0  0  0  0  0  0  0
  -26.4120  -31.7240   25.1200 C   0  0  1  0  0  0  0  0  0  0  0  0
  -25.3320  -31.4820   26.1990 C   0  0  0  0  0  1  0  0  0  0  0  0
  -26.9880  -30.3490   24.7100 C   0  0  0  0  0  1  0  0  0  0  0  0
  -27.5720  -32.5120   25.7740 C   0  0  0  0  0  1  0  0  0  0  0  0
  -31.0470  -20.9880   20.8420 C   0  0  0  0  0  2  0  0  0  0  0  0
  -31.7660  -17.2370   20.7590 C   0  0  0  0  0  2  0  0  0  0  0  0
  -29.3030  -17.5820   21.1430 C   0  0  0  0  0  2  0  0  0  0  0  0
  -32.0030  -18.7200   21.0870 C   0  0  0  0  0  2  0  0  0  0  0  0
  -29.5930  -19.0660   21.4480 C   0  0  0  0  0  2  0  0  0  0  0  0
  -30.5070  -16.6730   21.4640 C   0  0  0  0  0  3  0  0  0  0  0  0
  -30.8120  -19.5310   20.7400 N   0  0  1  0  0  4  0  0  0  0  0  0
  -30.6490  -19.4260   19.7430 H   0  0  0  0  0  0  0  0  0  0  0  0
  -30.7000  -14.3840   20.3110 C   0  0  0  0  0  0  0  0  0  0  0  0
  -30.2830  -12.3240   19.0280 C   0  0  0  0  0  2  0  0  0  0  0  0
  -29.2980  -12.6130   17.8780 C   0  0  0  0  0  2  0  0  0  0  0  0
  -27.8410  -12.4760   18.3620 C   0  0  0  0  0  2  0  0  0  0  0  0
  -27.5710  -13.2570   19.6770 C   0  0  0  0  0  3  0  0  0  0  0  0
  -28.6620  -12.9510   20.7290 C   0  0  0  0  0  2  0  0  0  0  0  0
  -29.9770  -13.2480   20.1290 N   0  0  0  0  0  0  0  0  0  0  0  0
  -31.7460  -14.6080   19.6970 O   0  0  0  0  0  0  0  0  0  0  0  0
  -30.1530  -15.2750   21.1540 N   0  0  0  0  0  0  0  0  0  0  0  0
  -29.3150  -14.9360   21.6030 H   0  0  0  0  0  0  0  0  0  0  0  0
  -25.1920  -13.8600   20.4610 C   0  0  0  0  0  0  0  0  0  0  0  0
  -24.1360  -13.0830   20.8580 C   0  0  0  0  0  0  0  0  0  0  0  0
  -24.5960  -11.7320   20.8010 C   0  0  0  0  0  0  0  0  0  0  0  0
  -26.2310  -12.9810   20.1920 N   0  0  0  0  0  0  0  0  0  0  0  0
  -25.8760  -11.6960   20.4510 N   0  0  0  0  0  0  0  0  0  0  0  0
  -23.8780  -10.4670   21.0030 C   0  0  0  0  0  0  0  0  0  0  0  0
  -24.3450   -9.4900   21.9090 C   0  0  0  0  0  3  0  0  0  0  0  0
  -23.6270   -8.2890   22.1000 C   0  0  0  0  0  3  0  0  0  0  0  0
  -22.4280   -8.0580   21.3850 C   0  0  0  0  0  0  0  0  0  0  0  0
  -21.9790   -9.0240   20.4680 C   0  0  0  0  0  3  0  0  0  0  0  0
  -22.6980  -10.2160   20.2740 C   0  0  0  0  0  3  0  0  0  0  0  0
  -21.6800   -6.9100   21.4860 O   0  0  0  0  0  0  0  0  0  0  0  0
  -21.6780   -6.1500   22.6270 C   0  0  0  0  0  0  0  0  0  0  0  0
  -21.3150   -6.6890   23.8820 C   0  0  0  0  0  3  0  0  0  0  0  0
  -21.2600   -5.8570   25.0170 C   0  0  0  0  0  3  0  0  0  0  0  0
  -21.5560   -4.4860   24.9010 C   0  0  0  0  0  0  0  0  0  0  0  0
  -21.9130   -3.9460   23.6520 C   0  0  0  0  0  3  0  0  0  0  0  0
  -21.9700   -4.7760   22.5190 C   0  0  0  0  0  0  0  0  0  0  0  0
  -22.2930   -4.2460   21.3140 F   0  0  0  0  0  0  0  0  0  0  0  0
  -21.4960   -3.6830   25.9890 F   0  0  0  0  0  0  0  0  0  0  0  0
  -22.7470  -13.5560   21.1790 C   0  0  0  0  0  0  0  0  0  0  0  0
  -22.0500  -12.8540   22.0660 N   0  0  0  0  0  0  0  0  0  0  0  0
  -22.2900  -14.5830   20.6800 O   0  0  0  0  0  0  0  0  0  0  0  0
  -22.4320  -12.0240   22.4930 H   0  0  0  0  0  0  0  0  0  0  0  0
  -21.1190  -13.1520   22.3220 H   0  0  0  0  0  0  0  0  0  0  0  0
  -25.3500  -15.2310   20.2910 N   0  0  0  0  0  0  0  0  0  0  0  0
  -24.5880  -15.8860   20.4290 H   0  0  0  0  0  0  0  0  0  0  0  0
  -26.1920  -15.6710   19.9380 H   0  0  0  0  0  0  0  0  0  0  0  0
  1 50  1  0
  2  1  2  0
  3  1  1  0
  4  6  2  0
  5  3  1  0
  5  4  1  0
  7  5  1  0
  8  4  1  0
  8  9  1  0
  9 11  1  0
 10 21  2  0
 11 16  1  0
 12 20  1  0
 12 22  1  0
 13 19  1  0
 13 15  1  0
 14 20  1  0
 15 14  1  0
 16 15  2  0
 17 18  1  0
 17 11  2  0
 18 13  2  0
 19 12  1  0
 20 10  1  0
 22 24  2  0
 23 22  1  0
 25 23  1  0
 26 35  2  0
 26 31  1  0
 27 23  1  0
 27 31  1  0
 28 27  1  0
 29 30  1  0
 29 28  1  0
 30 26  1  0
 31 32  2  0
 32 33  1  0
 34 33  2  0
 35 34  1  0
 36 10  1  0
 36 37  1  0
 36 46  1  0
 37 40  1  0
 38 42  1  0
 38 37  1  0
 39 38  2  0
 42 41  1  0
 44 42  1  0
 44 45  1  0
 44 43  1  0
 46 49  1  1
 46 47  1  0
 48 46  1  0
 51 53  1  0
 51 55  1  0
 52 54  1  0
 52 55  1  0
 55 66  1  0
 56 50  1  0
 56 53  1  0
 56 54  1  0
 56 57  1  6
 58 66  1  0
 59 64  1  0
 60 61  1  0
 60 59  1  0
 62 61  1  0
 62 71  1  0
 62 63  1  0
 64 58  1  0
 64 63  1  0
 65 58  2  0
 66 67  1  0
 68 69  2  0
 69 88  1  0
 70 69  1  0
 70 73  1  0
 71 72  1  0
 71 68  1  0
 72 70  2  0
 73 74  1  0
 74 75  2  0
 76 79  1  0
 76 75  1  0
 77 76  2  0
 78 77  1  0
 78 73  2  0
 79 80  1  0
 80 81  1  0
 81 82  2  0
 83 82  1  0
 83 87  1  0
 84 83  2  0
 85 80  2  0
 85 84  1  0
 86 85  1  0
 88 89  1  0
 89 92  1  0
 89 91  1  0
 90 88  2  0
 93 94  1  0
 93 68  1  0
 95 93  1  0
M  ISO  4   8 101   9 101  58 100  66 100
M  END
>  <TORSDO>  (13) 
F 21

>  <SCORE>  (13) 
-13.199

>  <name>  (13) 
12

>  <ligand_id>  (13) 
12

>  <original_smiles>  (13) 
[H]c1c([H])c([H])c2c(c1[H])C([H])([H])C([H])([H])C([H])([H])C2([H])N([H])C(=O)C1([H])N(C(=O)C([H])(N([H])C(=O)C([H])(N([H])C([H])([H])[H])C([H])([H])[H])C(C([H])([H])[H])(C([H])([H])[H])C([H])([H])[H])C([H])([H])c2c([H])c(OC([H])([H])C(=O)N([H])C([H])([H])C(=O)C([H])([H])[N+]3([H])C([H])([H])C([H])([H])C([H])(N([H])C(=O)N4C([H])([H])C([H])([H])C([H])([H])C([H])(n5nc(-c6c([H])c([H])c(Oc7c([H])c([H])c(F)c([H])c7F)c([H])c6[H])c(C(=O)N([H])[H])c5N([H])[H])C4([H])[H])C([H])([H])C3([H])[H])c([H])c([H])c2C1([H])[H]

>  <smiles>  (13) 
[H]c1c([H])c([H])c2c(c1[H])C([H])([H])C([H])([H])C([H])([H])C2([H])N([H])C(=O)C1([H])N(C(=O)C([H])(N([H])C(=O)C([H])(N([H])C([H])([H])[H])C([H])([H])[H])C(C([H])([H])[H])(C([H])([H])[H])C([H])([H])[H])C([H])([H])c2c([H])c(OC([H])([H])C(=O)N([H])C([H])([H])C(=O)C([H])([H])[N+]3([H])C([H])([H])C([H])([H])C([H])(N([H])C(=O)N4C([H])([H])C([H])([H])C([H])([H])C([H])(n5nc(-c6c([H])c([H])c(Oc7c([H])c([H])c(F)c([H])c7F)c([H])c6[H])c(C(=O)N([H])[H])c5N([H])[H])C4([H])[H])C([H])([H])C3([H])[H])c([H])c([H])c2C1([H])[H]

$$$$
13:0:0
     RDKit          3D

100109  0  0  1  0  0  0  0  0999 V2000
  -27.0440  -21.4970   20.8440 C   0  0  0  0  0  0  0  0  0  0  0  0
  -27.4640  -20.3020   21.2650 N   0  0  0  0  0  0  0  0  0  0  0  0
  -27.0170  -21.8210   19.6520 O   0  0  0  0  0  0  0  0  0  0  0  0
  -27.4560  -20.1210   22.2590 H   0  0  0  0  0  0  0  0  0  0  0  0
  -24.2000  -22.9900   21.7200 C   0  0  0  0  0  2  0  0  0  0  0  0
  -25.1880  -22.1140   22.4840 C   0  0  0  0  0  2  0  0  0  0  0  0
  -25.0100  -24.2650   21.4950 C   0  0  0  0  0  2  0  0  0  0  0  0
  -26.5710  -22.4940   21.9080 C   0  0  0  0  0  3  0  0  0  0  0  0
  -26.4010  -23.8090   21.2450 N   0  0  2  0  0  4  0  0  0  0  0  0
  -26.4630  -23.5130   20.2740 H   0  0  0  0  0  0  0  0  0  0  0  0
  -27.4760  -24.8170   21.4810 C   0  0  0  0  0  2  0  0  0  0  0  0
  -28.1800  -25.2710   20.1730 C   0  0  0  0  0  2  0  0  0  0  0  0
  -28.3480  -26.6960   20.1170 O   0  0  0  0  0  0  0  0  0  0  0  0
  -24.6110  -31.8740   23.2160 C   0  0  0  0  0  0  0  0  0  0  0  0
  -27.1950  -27.4480   20.0770 C   0  0  0  0  0  0  0  0  0  0  0  0
  -23.3910  -30.5040   21.5630 C   0  0  0  0  0  3  0  0  0  0  0  0
  -24.8230  -28.9800   20.1160 C   0  0  0  0  0  0  0  0  0  0  0  0
  -25.9220  -30.8380   21.3690 C   0  0  0  0  0  2  0  0  0  0  0  0
  -25.9900  -29.4780   20.7100 C   0  0  0  0  0  0  0  0  0  0  0  0
  -27.1800  -28.7180   20.6920 C   0  0  0  0  0  3  0  0  0  0  0  0
  -26.0120  -26.9740   19.4610 C   0  0  0  0  0  3  0  0  0  0  0  0
  -24.8270  -27.7240   19.4960 C   0  0  0  0  0  3  0  0  0  0  0  0
  -23.5920  -29.8510   20.1720 C   0  0  0  0  0  2  0  0  0  0  0  0
  -24.6600  -31.0840   22.1070 N   0  0  0  0  0  0  0  0  0  0  0  0
  -23.5320  -32.1520   23.7580 O   0  0  0  0  0  0  0  0  0  0  0  0
  -22.7380  -29.4700   22.5060 C   0  0  0  0  0  0  0  0  0  0  0  0
  -21.4110  -29.3050   22.3780 N   0  0  0  0  0  0  0  0  0  0  0  0
  -23.4180  -28.8230   23.3070 O   0  0  0  0  0  0  0  0  0  0  0  0
  -20.9260  -29.8700   21.6950 H   0  0  0  0  0  0  0  0  0  0  0  0
  -18.0280  -28.1360   22.8520 C   0  0  0  0  0  0  0  0  0  0  0  0
  -20.5850  -28.3670   23.1360 C   0  0  0  0  0  3  0  0  0  0  0  0
  -20.6810  -26.9430   22.5450 C   0  0  0  0  0  2  0  0  0  0  0  0
  -19.5790  -26.6350   21.5260 C   0  0  0  0  0  2  0  0  0  0  0  0
  -18.1990  -26.7890   22.1700 C   0  0  0  0  0  2  0  0  0  0  0  0
  -19.1510  -28.8840   23.2900 C   0  0  0  0  0  0  0  0  0  0  0  0
  -18.9440  -30.1450   23.8880 C   0  0  0  0  0  3  0  0  0  0  0  0
  -17.6450  -30.6620   24.0530 C   0  0  0  0  0  3  0  0  0  0  0  0
  -16.5350  -29.9080   23.6310 C   0  0  0  0  0  3  0  0  0  0  0  0
  -16.7260  -28.6480   23.0380 C   0  0  0  0  0  3  0  0  0  0  0  0
  -25.9040  -32.4830   23.8420 C   0  0  0  0  0  3  0  0  0  0  0  0
  -25.5930  -33.8630   24.2360 N   0  0  0  0  0  0  0  0  0  0  0  0
  -25.9060  -34.9470   23.5150 C   0  0  0  0  0  0  0  0  0  0  0  0
  -26.5620  -34.8920   22.4700 O   0  0  0  0  0  0  0  0  0  0  0  0
  -25.0090  -33.9840   25.0510 H   0  0  0  0  0  0  0  0  0  0  0  0
  -24.1500  -36.7310   23.2640 C   0  0  0  0  0  1  0  0  0  0  0  0
  -25.4120  -36.3110   24.0340 C   0  0  0  0  0  3  0  0  0  0  0  0
  -27.5590  -37.1810   24.8470 C   0  0  0  0  0  1  0  0  0  0  0  0
  -26.4310  -37.3790   23.9410 N   0  0  0  0  0  0  0  0  0  0  0  0
  -26.0200  -38.2870   24.1380 H   0  0  0  0  0  0  0  0  0  0  0  0
  -26.4490  -31.6550   25.0700 C   0  0  1  0  0  0  0  0  0  0  0  0
  -25.3770  -31.3650   26.1450 C   0  0  0  0  0  1  0  0  0  0  0  0
  -27.0330  -30.3000   24.6040 C   0  0  0  0  0  1  0  0  0  0  0  0
  -27.6080  -32.4260   25.7470 C   0  0  0  0  0  1  0  0  0  0  0  0
  -27.9470  -19.2300   20.4070 C   0  0  0  0  0  2  0  0  0  0  0  0
  -29.1840  -17.1550   21.1290 C   0  0  0  0  0  3  0  0  0  0  0  0
  -31.4670  -17.2370   21.9980 C   0  0  0  0  0  3  0  0  0  0  0  0
  -29.1810  -18.5540   20.9770 C   0  0  0  0  0  0  0  0  0  0  0  0
  -30.3300  -16.4960   21.6110 C   0  0  0  0  0  0  0  0  0  0  0  0
  -31.4650  -18.6380   21.8570 C   0  0  0  0  0  0  0  0  0  0  0  0
  -30.3300  -19.2960   21.3370 C   0  0  0  0  0  0  0  0  0  0  0  0
  -32.5590  -19.3540   22.2090 F   0  0  0  0  0  0  0  0  0  0  0  0
  -30.3570  -20.6410   21.1800 F   0  0  0  0  0  0  0  0  0  0  0  0
  -30.7730  -14.3290   20.6870 C   0  0  0  0  0  0  0  0  0  0  0  0
  -30.4180  -12.2660   19.3860 C   0  0  0  0  0  2  0  0  0  0  0  0
  -29.4880  -12.5270   18.1860 C   0  0  0  0  0  2  0  0  0  0  0  0
  -28.0090  -12.3940   18.6000 C   0  0  0  0  0  2  0  0  0  0  0  0
  -27.6730  -13.2020   19.8820 C   0  0  0  0  0  3  0  0  0  0  0  0
  -28.7090  -12.9140   20.9910 C   0  0  0  0  0  2  0  0  0  0  0  0
  -30.0580  -13.1980   20.4630 N   0  0  0  0  0  0  0  0  0  0  0  0
  -31.7970  -14.6290   20.0630 O   0  0  0  0  0  0  0  0  0  0  0  0
  -30.3060  -15.0900   21.6800 N   0  0  0  0  0  0  0  0  0  0  0  0
  -29.5050  -14.6790   22.1330 H   0  0  0  0  0  0  0  0  0  0  0  0
  -25.2630  -13.8180   20.5650 C   0  0  0  0  0  0  0  0  0  0  0  0
  -24.1880  -13.0450   20.9190 C   0  0  0  0  0  0  0  0  0  0  0  0
  -24.6440  -11.6920   20.8750 C   0  0  0  0  0  0  0  0  0  0  0  0
  -26.3080  -12.9340   20.3380 N   0  0  0  0  0  0  0  0  0  0  0  0
  -25.9360  -11.6500   20.5760 N   0  0  0  0  0  0  0  0  0  0  0  0
  -23.9090  -10.4310   21.0420 C   0  0  0  0  0  0  0  0  0  0  0  0
  -24.3630   -9.4220   21.9200 C   0  0  0  0  0  3  0  0  0  0  0  0
  -23.6300   -8.2250   22.0750 C   0  0  0  0  0  3  0  0  0  0  0  0
  -22.4280   -8.0310   21.3550 C   0  0  0  0  0  0  0  0  0  0  0  0
  -21.9920   -9.0290   20.4650 C   0  0  0  0  0  3  0  0  0  0  0  0
  -22.7260  -10.2170   20.3070 C   0  0  0  0  0  3  0  0  0  0  0  0
  -21.6640   -6.8910   21.4250 O   0  0  0  0  0  0  0  0  0  0  0  0
  -21.6860   -6.0760   22.5280 C   0  0  0  0  0  0  0  0  0  0  0  0
  -21.4020   -6.5650   23.8230 C   0  0  0  0  0  3  0  0  0  0  0  0
  -21.3650   -5.6790   24.9180 C   0  0  0  0  0  3  0  0  0  0  0  0
  -21.6050   -4.3060   24.7220 C   0  0  0  0  0  0  0  0  0  0  0  0
  -21.8810   -3.8160   23.4330 C   0  0  0  0  0  3  0  0  0  0  0  0
  -21.9200   -4.6990   22.3400 C   0  0  0  0  0  0  0  0  0  0  0  0
  -22.1660   -4.2180   21.0980 F   0  0  0  0  0  0  0  0  0  0  0  0
  -21.5620   -3.4530   25.7730 F   0  0  0  0  0  0  0  0  0  0  0  0
  -22.7900  -13.5280   21.1850 C   0  0  0  0  0  0  0  0  0  0  0  0
  -22.0520  -12.8280   22.0400 N   0  0  0  0  0  0  0  0  0  0  0  0
  -22.3590  -14.5590   20.6710 O   0  0  0  0  0  0  0  0  0  0  0  0
  -22.4110  -11.9960   22.4820 H   0  0  0  0  0  0  0  0  0  0  0  0
  -21.1160  -13.1340   22.2590 H   0  0  0  0  0  0  0  0  0  0  0  0
  -25.4330  -15.1880   20.3990 N   0  0  0  0  0  0  0  0  0  0  0  0
  -24.6600  -15.8380   20.4900 H   0  0  0  0  0  0  0  0  0  0  0  0
  -26.2740  -15.6160   20.0380 H   0  0  0  0  0  0  0  0  0  0  0  0
  1  2  1  0
  2  4  1  0
  3  1  2  0
  5  6  1  0
  7  5  1  0
  8  1  1  0
  8  6  1  0
  9 11  1  0
  9  7  1  0
  9  8  1  0
  9 10  1  6
 12 11  1  0
 13 12  1  0
 14 25  2  0
 15 13  1  0
 15 20  1  0
 16 24  1  0
 16 26  1  0
 17 23  1  0
 17 19  1  0
 18 24  1  0
 19 18  1  0
 20 19  2  0
 21 22  1  0
 21 15  2  0
 22 17  2  0
 23 16  1  0
 24 14  1  0
 26 28  2  0
 27 26  1  0
 29 27  1  0
 30 39  2  0
 30 35  1  0
 31 27  1  0
 31 35  1  0
 32 31  1  0
 33 34  1  0
 33 32  1  0
 34 30  1  0
 35 36  2  0
 36 37  1  0
 38 37  2  0
 39 38  1  0
 40 14  1  0
 40 41  1  0
 40 50  1  0
 41 44  1  0
 42 46  1  0
 42 41  1  0
 43 42  2  0
 46 45  1  0
 48 46  1  0
 48 49  1  0
 48 47  1  0
 50 53  1  1
 50 51  1  0
 52 50  1  0
 54 57  1  0
 54  2  1  0
 55 58  1  0
 57 55  2  0
 57 60  1  0
 58 71  1  0
 58 56  2  0
 59 56  1  0
 59 61  1  0
 60 59  2  0
 62 60  1  0
 63 71  1  0
 64 69  1  0
 65 66  1  0
 65 64  1  0
 67 66  1  0
 67 76  1  0
 67 68  1  0
 69 63  1  0
 69 68  1  0
 70 63  2  0
 71 72  1  0
 73 74  2  0
 74 93  1  0
 75 74  1  0
 75 78  1  0
 76 73  1  0
 76 77  1  0
 77 75  2  0
 78 79  1  0
 79 80  2  0
 81 84  1  0
 81 80  1  0
 82 81  2  0
 83 82  1  0
 83 78  2  0
 84 85  1  0
 85 86  1  0
 86 87  2  0
 88 87  1  0
 88 92  1  0
 89 88  2  0
 90 85  2  0
 90 89  1  0
 91 90  1  0
 93 94  1  0
 94 97  1  0
 94 96  1  0
 95 93  2  0
 98 99  1  0
 98 73  1  0
100 98  1  0
M  ISO  4  12 101  13 101  63 100  71 100
M  END
>  <TORSDO>  (14) 
F 21

>  <SCORE>  (14) 
-6.551

>  <name>  (14) 
13

>  <ligand_id>  (14) 
13

>  <original_smiles>  (14) 
[H]c1c([H])c([H])c2c(c1[H])C([H])([H])C([H])([H])C([H])([H])C2([H])N([H])C(=O)C1([H])N(C(=O)C([H])(N([H])C(=O)C([H])(N([H])C([H])([H])[H])C([H])([H])[H])C(C([H])([H])[H])(C([H])([H])[H])C([H])([H])[H])C([H])([H])c2c([H])c(OC([H])([H])C([H])([H])[N+]3([H])C([H])([H])C([H])([H])C([H])([H])C3([H])C(=O)N([H])C([H])([H])c3c([H])c(N([H])C(=O)N4C([H])([H])C([H])([H])C([H])([H])C([H])(n5nc(-c6c([H])c([H])c(Oc7c([H])c([H])c(F)c([H])c7F)c([H])c6[H])c(C(=O)N([H])[H])c5N([H])[H])C4([H])[H])c([H])c(F)c3F)c([H])c([H])c2C1([H])[H]

>  <smiles>  (14) 
[H]c1c([H])c([H])c2c(c1[H])C([H])([H])C([H])([H])C([H])([H])C2([H])N([H])C(=O)C1([H])N(C(=O)C([H])(N([H])C(=O)C([H])(N([H])C([H])([H])[H])C([H])([H])[H])C(C([H])([H])[H])(C([H])([H])[H])C([H])([H])[H])C([H])([H])c2c([H])c(OC([H])([H])C([H])([H])[N+]3([H])C([H])([H])C([H])([H])C([H])([H])C3([H])C(=O)N([H])C([H])([H])c3c([H])c(N([H])C(=O)N4C([H])([H])C([H])([H])C([H])([H])C([H])(n5nc(-c6c([H])c([H])c(Oc7c([H])c([H])c(F)c([H])c7F)c([H])c6[H])c(C(=O)N([H])[H])c5N([H])[H])C4([H])[H])c([H])c(F)c3F)c([H])c([H])c2C1([H])[H]

$$$$
14:0:0
     RDKit          3D

 97106  0  0  1  0  0  0  0  0999 V2000
  -28.6030  -20.7510   20.4710 C   0  0  0  0  0  2  0  0  0  0  0  0
  -28.0510  -23.0450   21.4410 C   0  0  0  0  0  3  0  0  0  0  0  0
  -28.0600  -24.4600   21.4280 C   0  0  0  0  0  3  0  0  0  0  0  0
  -29.2600  -24.4250   19.3260 C   0  0  0  0  0  3  0  0  0  0  0  0
  -28.6540  -22.2940   20.4040 C   0  0  0  0  0  0  0  0  0  0  0  0
  -28.6610  -25.1700   20.3630 C   0  0  0  0  0  0  0  0  0  0  0  0
  -29.2550  -23.0110   19.3380 C   0  0  0  0  0  0  0  0  0  0  0  0
  -29.8320  -22.3490   18.3050 F   0  0  0  0  0  0  0  0  0  0  0  0
  -28.6960  -26.5580   20.3210 O   0  0  0  0  0  0  0  0  0  0  0  0
  -24.6500  -31.6830   23.2070 C   0  0  0  0  0  0  0  0  0  0  0  0
  -27.5130  -27.2700   20.2770 C   0  0  0  0  0  0  0  0  0  0  0  0
  -23.5370  -30.2290   21.5440 C   0  0  0  0  0  3  0  0  0  0  0  0
  -25.0800  -28.7170   20.1830 C   0  0  0  0  0  0  0  0  0  0  0  0
  -26.0580  -30.6520   21.4250 C   0  0  0  0  0  2  0  0  0  0  0  0
  -26.2030  -29.2760   20.8080 C   0  0  0  0  0  0  0  0  0  0  0  0
  -27.4220  -28.5600   20.8530 C   0  0  0  0  0  3  0  0  0  0  0  0
  -26.3760  -26.7320   19.6340 C   0  0  0  0  0  3  0  0  0  0  0  0
  -25.1620  -27.4450   19.5910 C   0  0  0  0  0  3  0  0  0  0  0  0
  -23.8120  -29.5420   20.1790 C   0  0  0  0  0  2  0  0  0  0  0  0
  -24.7640  -30.8720   22.1170 N   0  0  0  0  0  0  0  0  0  0  0  0
  -23.5450  -31.9290   23.7100 O   0  0  0  0  0  0  0  0  0  0  0  0
  -22.8840  -29.1990   22.4950 C   0  0  0  0  0  0  0  0  0  0  0  0
  -21.5700  -28.9750   22.3260 N   0  0  0  0  0  0  0  0  0  0  0  0
  -23.5600  -28.6030   23.3390 O   0  0  0  0  0  0  0  0  0  0  0  0
  -21.0870  -29.5070   21.6150 H   0  0  0  0  0  0  0  0  0  0  0  0
  -18.2260  -27.6560   22.7020 C   0  0  0  0  0  0  0  0  0  0  0  0
  -20.7570  -28.0200   23.0780 C   0  0  0  0  0  3  0  0  0  0  0  0
  -20.9380  -26.5840   22.5340 C   0  0  0  0  0  2  0  0  0  0  0  0
  -19.8940  -26.1970   21.4800 C   0  0  0  0  0  2  0  0  0  0  0  0
  -18.4830  -26.3020   22.0630 C   0  0  0  0  0  2  0  0  0  0  0  0
  -19.2930  -28.4690   23.1650 C   0  0  0  0  0  0  0  0  0  0  0  0
  -18.9990  -29.7330   23.7200 C   0  0  0  0  0  3  0  0  0  0  0  0
  -17.6700  -30.1860   23.8160 C   0  0  0  0  0  3  0  0  0  0  0  0
  -16.6170  -29.3720   23.3670 C   0  0  0  0  0  3  0  0  0  0  0  0
  -16.8950  -28.1080   22.8180 C   0  0  0  0  0  3  0  0  0  0  0  0
  -25.8960  -32.3580   23.8600 C   0  0  0  0  0  3  0  0  0  0  0  0
  -26.4000  -31.6120   25.1550 C   0  0  1  0  0  0  0  0  0  0  0  0
  -25.2800  -31.3290   26.1830 C   0  0  0  0  0  1  0  0  0  0  0  0
  -27.0540  -30.2600   24.7880 C   0  0  0  0  0  1  0  0  0  0  0  0
  -27.4940  -32.4540   25.8550 C   0  0  0  0  0  1  0  0  0  0  0  0
  -25.5390  -33.7480   24.1680 N   0  0  0  0  0  0  0  0  0  0  0  0
  -25.8840  -34.8060   23.4200 C   0  0  0  0  0  0  0  0  0  0  0  0
  -26.6110  -34.7140   22.4270 O   0  0  0  0  0  0  0  0  0  0  0  0
  -24.9040  -33.8940   24.9390 H   0  0  0  0  0  0  0  0  0  0  0  0
  -24.1260  -36.5450   22.9690 C   0  0  0  0  0  1  0  0  0  0  0  0
  -25.3390  -36.1820   23.8430 C   0  0  0  0  0  3  0  0  0  0  0  0
  -27.4080  -37.1280   24.7630 C   0  0  0  0  0  1  0  0  0  0  0  0
  -26.3460  -37.2630   23.7710 N   0  0  0  0  0  0  0  0  0  0  0  0
  -25.9100  -38.1720   23.8950 H   0  0  0  0  0  0  0  0  0  0  0  0
  -30.0380  -18.7810   19.6580 C   0  0  0  0  0  0  0  0  0  0  0  0
  -29.5510  -20.0410   19.6010 N   0  0  0  0  0  0  0  0  0  0  0  0
  -30.7360  -18.3680   18.7300 O   0  0  0  0  0  0  0  0  0  0  0  0
  -29.8020  -20.5700   18.7720 H   0  0  0  0  0  0  0  0  0  0  0  0
  -31.5450  -17.1900   21.7770 C   0  0  0  0  0  2  0  0  0  0  0  0
  -29.7600  -17.8440   20.8700 C   0  0  0  0  0  3  0  0  0  0  0  0
  -30.4540  -16.4450   21.0180 C   0  0  0  0  0  3  0  0  0  0  0  0
  -29.8850  -18.2480   23.3480 C   0  0  0  0  0  1  0  0  0  0  0  0
  -30.5630  -18.2630   22.0280 N   0  0  1  0  0  4  0  0  0  0  0  0
  -30.9750  -19.1660   21.8570 H   0  0  0  0  0  0  0  0  0  0  0  0
  -31.6150  -14.5580   19.7620 C   0  0  0  0  0  0  0  0  0  0  0  0
  -31.1120  -12.4380   18.6160 C   0  0  0  0  0  2  0  0  0  0  0  0
  -30.0760  -12.7380   17.5100 C   0  0  0  0  0  2  0  0  0  0  0  0
  -28.6390  -12.6860   18.0720 C   0  0  0  0  0  2  0  0  0  0  0  0
  -28.4770  -13.4790   19.3990 C   0  0  0  0  0  3  0  0  0  0  0  0
  -29.6200  -13.1510   20.3860 C   0  0  0  0  0  2  0  0  0  0  0  0
  -30.8830  -13.4160   19.6920 N   0  0  0  0  0  0  0  0  0  0  0  0
  -32.7570  -14.6380   19.3120 O   0  0  0  0  0  0  0  0  0  0  0  0
  -30.8950  -15.7000   19.8170 N   0  0  0  0  0  0  0  0  0  0  0  0
  -31.2490  -16.3560   19.1290 H   0  0  0  0  0  0  0  0  0  0  0  0
  -26.2190  -14.2060   20.3900 C   0  0  0  0  0  0  0  0  0  0  0  0
  -25.1340  -13.4900   20.8150 C   0  0  0  0  0  0  0  0  0  0  0  0
  -25.4800  -12.1130   20.6510 C   0  0  0  0  0  0  0  0  0  0  0  0
  -27.1610  -13.2690   19.9960 N   0  0  0  0  0  0  0  0  0  0  0  0
  -26.7270  -12.0010   20.2130 N   0  0  0  0  0  0  0  0  0  0  0  0
  -24.6770  -10.8960   20.8310 C   0  0  0  0  0  0  0  0  0  0  0  0
  -25.0420   -9.9060   21.7700 C   0  0  0  0  0  3  0  0  0  0  0  0
  -24.2450   -8.7530   21.9400 C   0  0  0  0  0  3  0  0  0  0  0  0
  -23.0700   -8.5830   21.1700 C   0  0  0  0  0  0  0  0  0  0  0  0
  -22.7230   -9.5620   20.2220 C   0  0  0  0  0  3  0  0  0  0  0  0
  -23.5200  -10.7060   20.0490 C   0  0  0  0  0  3  0  0  0  0  0  0
  -22.2500   -7.4840   21.2500 O   0  0  0  0  0  0  0  0  0  0  0  0
  -22.0280   -6.8370   22.4380 C   0  0  0  0  0  0  0  0  0  0  0  0
  -21.4980   -7.5050   23.5650 C   0  0  0  0  0  3  0  0  0  0  0  0
  -21.2190   -6.7850   24.7430 C   0  0  0  0  0  3  0  0  0  0  0  0
  -21.4620   -5.4000   24.7980 C   0  0  0  0  0  0  0  0  0  0  0  0
  -21.9860   -4.7310   23.6760 C   0  0  0  0  0  3  0  0  0  0  0  0
  -22.2650   -5.4490   22.4990 C   0  0  0  0  0  0  0  0  0  0  0  0
  -22.7500   -4.7960   21.4150 F   0  0  0  0  0  0  0  0  0  0  0  0
  -21.1850   -4.7060   25.9270 F   0  0  0  0  0  0  0  0  0  0  0  0
  -23.8100  -14.0460   21.2550 C   0  0  0  0  0  0  0  0  0  0  0  0
  -23.1300  -13.3650   22.1700 N   0  0  0  0  0  0  0  0  0  0  0  0
  -23.3930  -15.1190   20.8200 O   0  0  0  0  0  0  0  0  0  0  0  0
  -23.4820  -12.4970   22.5450 H   0  0  0  0  0  0  0  0  0  0  0  0
  -22.2430  -13.7160   22.5000 H   0  0  0  0  0  0  0  0  0  0  0  0
  -26.4750  -15.5690   20.2840 N   0  0  0  0  0  0  0  0  0  0  0  0
  -25.7550  -16.2610   20.4620 H   0  0  0  0  0  0  0  0  0  0  0  0
  -27.2840  -15.9420   19.8030 H   0  0  0  0  0  0  0  0  0  0  0  0
  3  2  1  0
  4  7  2  0
  4  6  1  0
  5  1  1  0
  5  2  2  0
  6  3  2  0
  7  5  1  0
  8  7  1  0
  9  6  1  0
 10 21  2  0
 11  9  1  0
 11 16  1  0
 12 20  1  0
 12 22  1  0
 13 15  1  0
 14 20  1  0
 15 16  2  0
 15 14  1  0
 17 11  2  0
 18 17  1  0
 18 13  2  0
 19 13  1  0
 19 12  1  0
 20 10  1  0
 22 24  2  0
 23 22  1  0
 25 23  1  0
 26 35  2  0
 26 31  1  0
 27 23  1  0
 27 31  1  0
 28 27  1  0
 29 30  1  0
 29 28  1  0
 30 26  1  0
 31 32  2  0
 32 33  1  0
 34 33  2  0
 35 34  1  0
 36 10  1  0
 36 41  1  0
 36 37  1  0
 37 40  1  1
 37 38  1  0
 39 37  1  0
 41 44  1  0
 42 46  1  0
 42 41  1  0
 43 42  2  0
 46 45  1  0
 48 46  1  0
 48 49  1  0
 48 47  1  0
 51 50  1  0
 51  1  1  0
 52 50  2  0
 53 51  1  0
 54 58  1  0
 55 50  1  0
 55 56  1  0
 55 58  1  0
 56 68  1  0
 56 54  1  0
 58 57  1  0
 58 59  1  6
 60 68  1  0
 61 66  1  0
 62 63  1  0
 62 61  1  0
 64 63  1  0
 64 73  1  0
 64 65  1  0
 66 60  1  0
 66 65  1  0
 67 60  2  0
 69 68  1  0
 70 71  2  0
 71 90  1  0
 72 71  1  0
 72 75  1  0
 73 74  1  0
 73 70  1  0
 74 72  2  0
 75 76  1  0
 76 77  2  0
 78 81  1  0
 78 77  1  0
 79 78  2  0
 80 79  1  0
 80 75  2  0
 81 82  1  0
 82 87  2  0
 82 83  1  0
 83 84  2  0
 84 85  1  0
 85 89  1  0
 86 85  2  0
 87 86  1  0
 88 87  1  0
 90 91  1  0
 91 94  1  0
 91 93  1  0
 92 90  2  0
 95 70  1  0
 95 96  1  0
 97 95  1  0
M  ISO  4   6 101   9 101  60 100  68 100
M  END
>  <TORSDO>  (15) 
F 19

>  <SCORE>  (15) 
-11.314

>  <name>  (15) 
14

>  <ligand_id>  (15) 
14

>  <original_smiles>  (15) 
[H]c1c([H])c([H])c2c(c1[H])C([H])([H])C([H])([H])C([H])([H])C2([H])N([H])C(=O)C1([H])N(C(=O)C([H])(N([H])C(=O)C([H])(N([H])C([H])([H])[H])C([H])([H])[H])C(C([H])([H])[H])(C([H])([H])[H])C([H])([H])[H])C([H])([H])c2c([H])c(Oc3c([H])c([H])c(C([H])([H])N([H])C(=O)C4([H])C([H])(N([H])C(=O)N5C([H])([H])C([H])([H])C([H])([H])C([H])(n6nc(-c7c([H])c([H])c(Oc8c([H])c([H])c(F)c([H])c8F)c([H])c7[H])c(C(=O)N([H])[H])c6N([H])[H])C5([H])[H])C([H])([H])[N+]4([H])C([H])([H])[H])c(F)c3[H])c([H])c([H])c2C1([H])[H]

>  <smiles>  (15) 
[H]c1c([H])c([H])c2c(c1[H])C([H])([H])C([H])([H])C([H])([H])C2([H])N([H])C(=O)C1([H])N(C(=O)C([H])(N([H])C(=O)C([H])(N([H])C([H])([H])[H])C([H])([H])[H])C(C([H])([H])[H])(C([H])([H])[H])C([H])([H])[H])C([H])([H])c2c([H])c(Oc3c([H])c([H])c(C([H])([H])N([H])C(=O)C4([H])C([H])(N([H])C(=O)N5C([H])([H])C([H])([H])C([H])([H])C([H])(n6nc(-c7c([H])c([H])c(Oc8c([H])c([H])c(F)c([H])c8F)c([H])c7[H])c(C(=O)N([H])[H])c6N([H])[H])C5([H])[H])C([H])([H])[N+]4([H])C([H])([H])[H])c(F)c3[H])c([H])c([H])c2C1([H])[H]

$$$$
15:0:0
     RDKit          3D

 93101  0  0  1  0  0  0  0  0999 V2000
  -31.1330  -21.1730   17.9030 C   0  0  0  0  0  2  0  0  0  0  0  0
  -30.6390  -19.7440   18.0880 C   0  0  0  0  0  2  0  0  0  0  0  0
  -31.3890  -21.5350   19.3730 C   0  0  0  0  0  2  0  0  0  0  0  0
  -29.9630  -19.7070   19.5010 C   0  0  0  0  0  3  0  0  0  0  0  0
  -30.1760  -21.1030   20.0750 N   0  0  0  0  0  0  0  0  0  0  0  0
  -29.1040  -22.1630   19.8260 C   0  0  0  0  0  2  0  0  0  0  0  0
  -29.2600  -23.6490   20.4380 C   0  0  0  0  0  3  0  0  0  0  0  0
  -28.2200  -24.7800   19.9750 C   0  0  0  0  0  3  0  0  0  0  0  0
  -28.3780  -26.2050   20.4120 O   0  0  0  0  0  0  0  0  0  0  0  0
  -24.6610  -31.7340   23.2860 C   0  0  0  0  0  0  0  0  0  0  0  0
  -27.2830  -27.0920   20.3250 C   0  0  0  0  0  0  0  0  0  0  0  0
  -23.4820  -30.3490   21.6150 C   0  0  0  0  0  3  0  0  0  0  0  0
  -24.9500  -28.7700   20.2340 C   0  0  0  0  0  0  0  0  0  0  0  0
  -26.0360  -30.6110   21.5210 C   0  0  0  0  0  2  0  0  0  0  0  0
  -26.1120  -29.2290   20.8770 C   0  0  0  0  0  0  0  0  0  0  0  0
  -27.2720  -28.4010   20.9200 C   0  0  0  0  0  3  0  0  0  0  0  0
  -26.0980  -26.7000   19.6570 C   0  0  0  0  0  3  0  0  0  0  0  0
  -24.9520  -27.5130   19.6180 C   0  0  0  0  0  3  0  0  0  0  0  0
  -23.7290  -29.6660   20.2450 C   0  0  0  0  0  2  0  0  0  0  0  0
  -24.7430  -30.9180   22.1930 N   0  0  0  0  0  0  0  0  0  0  0  0
  -23.5660  -32.0320   23.7850 O   0  0  0  0  0  0  0  0  0  0  0  0
  -22.7720  -29.3460   22.5590 C   0  0  0  0  0  0  0  0  0  0  0  0
  -21.4440  -29.1990   22.4010 N   0  0  0  0  0  0  0  0  0  0  0  0
  -23.4140  -28.7030   23.3920 O   0  0  0  0  0  0  0  0  0  0  0  0
  -20.9810  -29.7680   21.7060 H   0  0  0  0  0  0  0  0  0  0  0  0
  -18.0270  -28.1070   22.8440 C   0  0  0  0  0  0  0  0  0  0  0  0
  -20.5880  -28.2830   23.1570 C   0  0  0  0  0  3  0  0  0  0  0  0
  -20.6550  -26.8490   22.5780 C   0  0  0  0  0  2  0  0  0  0  0  0
  -19.5580  -26.5660   21.5460 C   0  0  0  0  0  2  0  0  0  0  0  0
  -18.1710  -26.7550   22.1670 C   0  0  0  0  0  2  0  0  0  0  0  0
  -19.1610  -28.8300   23.2980 C   0  0  0  0  0  0  0  0  0  0  0  0
  -18.9750  -30.0980   23.8900 C   0  0  0  0  0  3  0  0  0  0  0  0
  -17.6840  -30.6380   24.0430 C   0  0  0  0  0  3  0  0  0  0  0  0
  -16.5620  -29.9080   23.6100 C   0  0  0  0  0  3  0  0  0  0  0  0
  -16.7350  -28.6470   23.0130 C   0  0  0  0  0  3  0  0  0  0  0  0
  -25.9350  -32.3500   23.9400 C   0  0  0  0  0  3  0  0  0  0  0  0
  -25.6370  -33.7560   24.2450 N   0  0  0  0  0  0  0  0  0  0  0  0
  -25.9910  -34.7950   23.4770 C   0  0  0  0  0  0  0  0  0  0  0  0
  -26.6700  -34.6690   22.4530 O   0  0  0  0  0  0  0  0  0  0  0  0
  -25.0350  -33.9230   25.0370 H   0  0  0  0  0  0  0  0  0  0  0  0
  -24.2940  -36.6060   23.0780 C   0  0  0  0  0  1  0  0  0  0  0  0
  -25.5180  -36.1960   23.9100 C   0  0  0  0  0  3  0  0  0  0  0  0
  -27.6490  -37.0700   24.7610 C   0  0  0  0  0  1  0  0  0  0  0  0
  -26.5670  -37.2330   23.7960 N   0  0  0  0  0  0  0  0  0  0  0  0
  -26.1690  -38.1600   23.9150 H   0  0  0  0  0  0  0  0  0  0  0  0
  -26.3930  -31.5850   25.2400 C   0  0  1  0  0  0  0  0  0  0  0  0
  -25.2610  -31.3780   26.2730 C   0  0  0  0  0  1  0  0  0  0  0  0
  -26.9690  -30.1920   24.8940 C   0  0  0  0  0  1  0  0  0  0  0  0
  -27.5310  -32.3670   25.9350 C   0  0  0  0  0  1  0  0  0  0  0  0
  -30.5070  -18.4290   20.3480 C   0  0  0  0  0  3  0  0  0  0  0  0
  -29.9150  -18.4160   21.6950 N   0  0  0  0  0  4  0  0  0  0  0  0
  -28.9250  -18.2600   21.6750 H   0  0  0  0  0  0  0  0  0  0  0  0
  -30.0770  -19.3100   22.1240 H   0  0  0  0  0  0  0  0  0  0  0  0
  -30.3520  -17.7110   22.2630 H   0  0  0  0  0  0  0  0  0  0  0  0
  -30.3400  -17.0000   19.6210 C   0  0  0  0  0  2  0  0  0  0  0  0
  -30.8720  -14.5070   20.0010 C   0  0  0  0  0  0  0  0  0  0  0  0
  -30.4700  -12.2980   18.9280 C   0  0  0  0  0  2  0  0  0  0  0  0
  -29.4680  -12.4820   17.7620 C   0  0  0  0  0  2  0  0  0  0  0  0
  -28.0200  -12.3650   18.2750 C   0  0  0  0  0  2  0  0  0  0  0  0
  -27.7600  -13.2100   19.5510 C   0  0  0  0  0  3  0  0  0  0  0  0
  -28.8820  -13.0180   20.6010 C   0  0  0  0  0  2  0  0  0  0  0  0
  -30.1720  -13.3250   19.9540 N   0  0  0  0  0  0  0  0  0  0  0  0
  -32.0080  -14.5810   19.5250 O   0  0  0  0  0  0  0  0  0  0  0  0
  -30.1990  -15.6590   20.3330 N   0  0  0  0  0  0  0  0  0  0  0  0
  -29.2960  -15.4840   20.7510 H   0  0  0  0  0  0  0  0  0  0  0  0
  -25.4380  -13.8530   20.4330 C   0  0  0  0  0  0  0  0  0  0  0  0
  -24.3680  -13.1050   20.8460 C   0  0  0  0  0  0  0  0  0  0  0  0
  -24.7880  -11.7400   20.7680 C   0  0  0  0  0  0  0  0  0  0  0  0
  -26.4370  -12.9480   20.1130 N   0  0  0  0  0  0  0  0  0  0  0  0
  -26.0580  -11.6720   20.3810 N   0  0  0  0  0  0  0  0  0  0  0  0
  -24.0370  -10.4940   20.9790 C   0  0  0  0  0  0  0  0  0  0  0  0
  -24.4800   -9.5090   21.8920 C   0  0  0  0  0  3  0  0  0  0  0  0
  -23.7300   -8.3300   22.0930 C   0  0  0  0  0  3  0  0  0  0  0  0
  -22.5230   -8.1260   21.3840 C   0  0  0  0  0  0  0  0  0  0  0  0
  -22.0990   -9.0980   20.4620 C   0  0  0  0  0  3  0  0  0  0  0  0
  -22.8480  -10.2690   20.2580 C   0  0  0  0  0  3  0  0  0  0  0  0
  -21.7460   -6.9980   21.4930 O   0  0  0  0  0  0  0  0  0  0  0  0
  -21.7070   -6.2600   22.6510 C   0  0  0  0  0  0  0  0  0  0  0  0
  -21.2880   -6.8180   23.8790 C   0  0  0  0  0  3  0  0  0  0  0  0
  -21.1970   -6.0030   25.0260 C   0  0  0  0  0  3  0  0  0  0  0  0
  -21.5150   -4.6340   24.9470 C   0  0  0  0  0  0  0  0  0  0  0  0
  -21.9250   -4.0770   23.7230 C   0  0  0  0  0  3  0  0  0  0  0  0
  -22.0190   -4.8880   22.5780 C   0  0  0  0  0  0  0  0  0  0  0  0
  -22.3920   -4.3400   21.3960 F   0  0  0  0  0  0  0  0  0  0  0  0
  -21.4280   -3.8540   26.0510 F   0  0  0  0  0  0  0  0  0  0  0  0
  -23.0010  -13.6160   21.1980 C   0  0  0  0  0  0  0  0  0  0  0  0
  -22.2970  -12.9280   22.0880 N   0  0  0  0  0  0  0  0  0  0  0  0
  -22.5640  -14.6610   20.7140 O   0  0  0  0  0  0  0  0  0  0  0  0
  -22.6660  -12.0860   22.5020 H   0  0  0  0  0  0  0  0  0  0  0  0
  -21.3820  -13.2530   22.3640 H   0  0  0  0  0  0  0  0  0  0  0  0
  -25.6440  -15.2240   20.2780 N   0  0  0  0  0  0  0  0  0  0  0  0
  -24.9190  -15.9070   20.4670 H   0  0  0  0  0  0  0  0  0  0  0  0
  -26.4810  -15.6350   19.8830 H   0  0  0  0  0  0  0  0  0  0  0  0
  1  2  1  0
  1  3  1  0
  2  4  1  0
  3  5  1  0
  4  5  1  0
  4 50  1  0
  6  5  1  0
  6  7  1  0
  8  9  1  0
  8  7  2  0
 10 21  2  0
 11  9  1  0
 11 16  1  0
 12 20  1  0
 12 22  1  0
 13 19  1  0
 13 15  1  0
 14 20  1  0
 15 16  2  0
 15 14  1  0
 17 11  2  0
 18 17  1  0
 18 13  2  0
 19 12  1  0
 20 10  1  0
 22 24  2  0
 23 22  1  0
 25 23  1  0
 26 35  2  0
 26 31  1  0
 27 23  1  0
 27 31  1  0
 28 27  1  0
 29 30  1  0
 29 28  1  0
 30 26  1  0
 31 32  2  0
 32 33  1  0
 34 33  2  0
 35 34  1  0
 36 10  1  0
 36 37  1  0
 36 46  1  0
 37 40  1  0
 38 42  1  0
 38 37  1  0
 39 38  2  0
 42 41  1  0
 44 42  1  0
 44 45  1  0
 44 43  1  0
 46 49  1  1
 46 47  1  0
 48 46  1  0
 50 55  1  0
 50 51  1  0
 51 53  1  0
 51 54  1  0
 52 51  1  0
 55 64  1  0
 56 64  1  0
 57 62  1  0
 58 59  1  0
 58 57  1  0
 60 59  1  0
 60 69  1  0
 60 61  1  0
 62 56  1  0
 62 61  1  0
 63 56  2  0
 64 65  1  0
 66 67  2  0
 67 86  1  0
 68 67  1  0
 68 71  1  0
 69 70  1  0
 69 66  1  0
 70 68  2  0
 71 72  1  0
 72 73  2  0
 74 77  1  0
 74 73  1  0
 75 74  2  0
 76 75  1  0
 76 71  2  0
 77 78  1  0
 78 79  1  0
 79 80  2  0
 81 80  1  0
 81 85  1  0
 82 81  2  0
 83 78  2  0
 83 82  1  0
 84 83  1  0
 86 87  1  0
 87 90  1  0
 87 89  1  0
 88 86  2  0
 91 66  1  0
 91 92  1  0
 93 91  1  0
M  ISO  4   8 101   9 101  56 100  64 100
M  END
>  <TORSDO>  (16) 
F 22

>  <SCORE>  (16) 
-12.933

>  <name>  (16) 
15

>  <ligand_id>  (16) 
15

>  <original_smiles>  (16) 
[H]c1c([H])c([H])c2c(c1[H])C([H])([H])C([H])([H])C([H])([H])C2([H])N([H])C(=O)C1([H])N(C(=O)C([H])(N([H])C(=O)C([H])(N([H])C([H])([H])[H])C([H])([H])[H])C(C([H])([H])[H])(C([H])([H])[H])C([H])([H])[H])C([H])([H])c2c([H])c(OC([H])([H])C([H])([H])C([H])([H])N3C([H])([H])C([H])([H])C([H])([H])C3([H])C([H])(C([H])([H])N([H])C(=O)N3C([H])([H])C([H])([H])C([H])([H])C([H])(n4nc(-c5c([H])c([H])c(Oc6c([H])c([H])c(F)c([H])c6F)c([H])c5[H])c(C(=O)N([H])[H])c4N([H])[H])C3([H])[H])[N+]([H])([H])[H])c([H])c([H])c2C1([H])[H]

>  <smiles>  (16) 
[H]c1c([H])c([H])c2c(c1[H])C([H])([H])C([H])([H])C([H])([H])C2([H])N([H])C(=O)C1([H])N(C(=O)C([H])(N([H])C(=O)C([H])(N([H])C([H])([H])[H])C([H])([H])[H])C(C([H])([H])[H])(C([H])([H])[H])C([H])([H])[H])C([H])([H])c2c([H])c(OC([H])([H])C([H])([H])C([H])([H])N3C([H])([H])C([H])([H])C([H])([H])C3([H])C([H])(C([H])([H])N([H])C(=O)N3C([H])([H])C([H])([H])C([H])([H])C([H])(n4nc(-c5c([H])c([H])c(Oc6c([H])c([H])c(F)c([H])c6F)c([H])c5[H])c(C(=O)N([H])[H])c4N([H])[H])C3([H])[H])[N+]([H])([H])[H])c([H])c([H])c2C1([H])[H]

$$$$
16:0:0
     RDKit          3D

 95103  0  0  1  0  0  0  0  0999 V2000
  -31.0580  -21.4890   20.9620 C   0  0  0  0  0  0  0  0  0  0  0  0
  -31.3300  -20.1760   20.8200 N   0  0  0  0  0  0  0  0  0  0  0  0
  -31.9740  -22.2800   21.1880 O   0  0  0  0  0  0  0  0  0  0  0  0
  -32.2670  -19.9120   21.0930 H   0  0  0  0  0  0  0  0  0  0  0  0
  -29.0260  -18.1990   18.6110 C   0  0  0  0  0  3  0  0  0  0  0  0
  -29.7490  -19.2810   19.1440 C   0  0  0  0  0  3  0  0  0  0  0  0
  -29.0880  -16.9370   19.2260 C   0  0  0  0  0  3  0  0  0  0  0  0
  -30.5970  -17.8390   20.9220 C   0  0  0  0  0  3  0  0  0  0  0  0
  -30.5250  -19.1170   20.3140 C   0  0  0  0  0  0  0  0  0  0  0  0
  -29.8800  -16.7460   20.3800 C   0  0  0  0  0  0  0  0  0  0  0  0
  -30.6460  -14.4560   20.4990 C   0  0  0  0  0  0  0  0  0  0  0  0
  -30.3520  -12.3040   19.3500 C   0  0  0  0  0  2  0  0  0  0  0  0
  -29.4140  -12.5460   18.1480 C   0  0  0  0  0  2  0  0  0  0  0  0
  -27.9370  -12.4160   18.5710 C   0  0  0  0  0  2  0  0  0  0  0  0
  -27.6020  -13.2250   19.8520 C   0  0  0  0  0  3  0  0  0  0  0  0
  -28.6570  -12.9720   20.9550 C   0  0  0  0  0  2  0  0  0  0  0  0
  -29.9860  -13.2720   20.3930 N   0  0  0  0  0  0  0  0  0  0  0  0
  -31.7790  -14.6480   20.0460 O   0  0  0  0  0  0  0  0  0  0  0  0
  -29.9120  -15.4660   20.9920 N   0  0  0  0  0  0  0  0  0  0  0  0
  -29.0360  -15.1530   21.3810 H   0  0  0  0  0  0  0  0  0  0  0  0
  -25.1970  -13.8380   20.5370 C   0  0  0  0  0  0  0  0  0  0  0  0
  -24.1270  -13.0660   20.9050 C   0  0  0  0  0  0  0  0  0  0  0  0
  -24.5890  -11.7150   20.8810 C   0  0  0  0  0  0  0  0  0  0  0  0
  -26.2440  -12.9560   20.3200 N   0  0  0  0  0  0  0  0  0  0  0  0
  -25.8810  -11.6750   20.5820 N   0  0  0  0  0  0  0  0  0  0  0  0
  -23.8640  -10.4530   21.0720 C   0  0  0  0  0  0  0  0  0  0  0  0
  -24.3070   -9.4800   21.9950 C   0  0  0  0  0  3  0  0  0  0  0  0
  -23.5830   -8.2820   22.1750 C   0  0  0  0  0  3  0  0  0  0  0  0
  -22.4030   -8.0480   21.4300 C   0  0  0  0  0  0  0  0  0  0  0  0
  -21.9790   -9.0090   20.4950 C   0  0  0  0  0  3  0  0  0  0  0  0
  -22.7040  -10.1990   20.3150 C   0  0  0  0  0  3  0  0  0  0  0  0
  -21.6500   -6.9030   21.5180 O   0  0  0  0  0  0  0  0  0  0  0  0
  -21.6230   -6.1460   22.6610 C   0  0  0  0  0  0  0  0  0  0  0  0
  -21.2300   -6.6880   23.9030 C   0  0  0  0  0  3  0  0  0  0  0  0
  -21.1490   -5.8580   25.0400 C   0  0  0  0  0  3  0  0  0  0  0  0
  -21.4520   -4.4870   24.9340 C   0  0  0  0  0  0  0  0  0  0  0  0
  -21.8390   -3.9440   23.6960 C   0  0  0  0  0  3  0  0  0  0  0  0
  -21.9210   -4.7720   22.5620 C   0  0  0  0  0  0  0  0  0  0  0  0
  -22.2730   -4.2390   21.3670 F   0  0  0  0  0  0  0  0  0  0  0  0
  -21.3680   -3.6870   26.0230 F   0  0  0  0  0  0  0  0  0  0  0  0
  -22.7270  -13.5440   21.1710 C   0  0  0  0  0  0  0  0  0  0  0  0
  -21.9960  -12.8500   22.0360 N   0  0  0  0  0  0  0  0  0  0  0  0
  -22.2910  -14.5680   20.6480 O   0  0  0  0  0  0  0  0  0  0  0  0
  -22.3620  -12.0220   22.4830 H   0  0  0  0  0  0  0  0  0  0  0  0
  -21.0590  -13.1530   22.2560 H   0  0  0  0  0  0  0  0  0  0  0  0
  -25.3610  -15.2100   20.3560 N   0  0  0  0  0  0  0  0  0  0  0  0
  -24.5920  -15.8640   20.4590 H   0  0  0  0  0  0  0  0  0  0  0  0
  -26.2120  -15.6510   20.0340 H   0  0  0  0  0  0  0  0  0  0  0  0
  -29.6260  -22.0400   20.8780 C   0  0  0  0  0  2  0  0  0  0  0  0
  -29.5040  -23.1290   19.8760 N   0  0  0  0  0  4  0  0  0  0  0  0
  -28.6300  -22.9810   19.4000 H   0  0  0  0  0  0  0  0  0  0  0  0
  -30.2340  -23.0070   19.1910 H   0  0  0  0  0  0  0  0  0  0  0  0
  -29.5230  -24.5350   20.3730 C   0  0  0  0  0  2  0  0  0  0  0  0
  -28.3500  -25.3480   19.7860 C   0  0  0  0  0  2  0  0  0  0  0  0
  -28.3780  -26.7270   20.1890 O   0  0  0  0  0  0  0  0  0  0  0  0
  -24.5750  -31.9020   23.2480 C   0  0  0  0  0  0  0  0  0  0  0  0
  -27.1930  -27.4430   20.1590 C   0  0  0  0  0  0  0  0  0  0  0  0
  -23.3560  -30.5040   21.6110 C   0  0  0  0  0  3  0  0  0  0  0  0
  -24.7970  -28.9630   20.1800 C   0  0  0  0  0  0  0  0  0  0  0  0
  -25.8820  -30.8510   21.4020 C   0  0  0  0  0  2  0  0  0  0  0  0
  -25.9600  -29.4780   20.7670 C   0  0  0  0  0  0  0  0  0  0  0  0
  -27.1570  -28.7260   20.7560 C   0  0  0  0  0  3  0  0  0  0  0  0
  -26.0080  -26.9510   19.5570 C   0  0  0  0  0  3  0  0  0  0  0  0
  -24.8170  -27.6970   19.5740 C   0  0  0  0  0  3  0  0  0  0  0  0
  -23.5560  -29.8240   20.2310 C   0  0  0  0  0  2  0  0  0  0  0  0
  -24.6230  -31.1010   22.1450 N   0  0  0  0  0  0  0  0  0  0  0  0
  -23.4970  -32.1770   23.7920 O   0  0  0  0  0  0  0  0  0  0  0  0
  -22.7070  -29.4850   22.5740 C   0  0  0  0  0  0  0  0  0  0  0  0
  -21.3820  -29.3030   22.4500 N   0  0  0  0  0  0  0  0  0  0  0  0
  -23.3920  -28.8590   23.3880 O   0  0  0  0  0  0  0  0  0  0  0  0
  -20.8910  -29.8640   21.7670 H   0  0  0  0  0  0  0  0  0  0  0  0
  -18.0070  -28.1120   22.9450 C   0  0  0  0  0  0  0  0  0  0  0  0
  -20.5630  -28.3700   23.2220 C   0  0  0  0  0  3  0  0  0  0  0  0
  -20.6660  -26.9350   22.6540 C   0  0  0  0  0  2  0  0  0  0  0  0
  -19.5670  -26.6080   21.6390 C   0  0  0  0  0  2  0  0  0  0  0  0
  -18.1840  -26.7590   22.2790 C   0  0  0  0  0  2  0  0  0  0  0  0
  -19.1240  -28.8760   23.3740 C   0  0  0  0  0  0  0  0  0  0  0  0
  -18.9050  -30.1440   23.9550 C   0  0  0  0  0  3  0  0  0  0  0  0
  -17.6000  -30.6460   24.1150 C   0  0  0  0  0  3  0  0  0  0  0  0
  -16.4980  -29.8800   23.7020 C   0  0  0  0  0  3  0  0  0  0  0  0
  -16.7010  -28.6150   23.1220 C   0  0  0  0  0  3  0  0  0  0  0  0
  -25.8670  -32.5260   23.8620 C   0  0  0  0  0  3  0  0  0  0  0  0
  -25.5660  -33.9250   24.1930 N   0  0  0  0  0  0  0  0  0  0  0  0
  -25.9000  -34.9750   23.4310 C   0  0  0  0  0  0  0  0  0  0  0  0
  -26.5640  -34.8690   22.3970 O   0  0  0  0  0  0  0  0  0  0  0  0
  -24.9770  -34.0820   24.9970 H   0  0  0  0  0  0  0  0  0  0  0  0
  -24.1750  -36.7730   23.0800 C   0  0  0  0  0  1  0  0  0  0  0  0
  -25.4170  -36.3650   23.8880 C   0  0  0  0  0  3  0  0  0  0  0  0
  -27.5580  -37.2420   24.7100 C   0  0  0  0  0  1  0  0  0  0  0  0
  -26.4520  -37.4150   23.7720 N   0  0  0  0  0  0  0  0  0  0  0  0
  -26.0490  -38.3360   23.9220 H   0  0  0  0  0  0  0  0  0  0  0  0
  -26.3920  -31.7520   25.1330 C   0  0  1  0  0  0  0  0  0  0  0  0
  -25.3080  -31.5160   26.2090 C   0  0  0  0  0  1  0  0  0  0  0  0
  -26.9660  -30.3730   24.7310 C   0  0  0  0  0  1  0  0  0  0  0  0
  -27.5490  -32.5400   25.7880 C   0  0  0  0  0  1  0  0  0  0  0  0
  1  3  2  0
  2  1  1  0
  2  4  1  0
  5  6  2  0
  5  7  1  0
  6  9  1  0
  7 10  2  0
  9  2  1  0
  9  8  2  0
 10  8  1  0
 10 19  1  0
 11 19  1  0
 12 17  1  0
 13 14  1  0
 13 12  1  0
 15 14  1  0
 15 24  1  0
 15 16  1  0
 17 11  1  0
 17 16  1  0
 18 11  2  0
 19 20  1  0
 21 22  2  0
 22 41  1  0
 23 22  1  0
 23 26  1  0
 24 21  1  0
 24 25  1  0
 25 23  2  0
 26 27  1  0
 27 28  2  0
 29 32  1  0
 29 28  1  0
 30 29  2  0
 31 30  1  0
 31 26  2  0
 32 33  1  0
 33 34  1  0
 34 35  2  0
 36 35  1  0
 36 40  1  0
 37 36  2  0
 38 33  2  0
 38 37  1  0
 39 38  1  0
 41 42  1  0
 42 45  1  0
 42 44  1  0
 43 41  2  0
 46 47  1  0
 46 21  1  0
 48 46  1  0
 49  1  1  0
 50 53  1  0
 50 49  1  0
 51 50  1  0
 52 50  1  0
 54 55  1  0
 54 53  1  0
 56 67  2  0
 57 55  1  0
 57 62  1  0
 58 66  1  0
 58 68  1  0
 59 65  1  0
 59 61  1  0
 60 66  1  0
 61 60  1  0
 62 61  2  0
 63 64  1  0
 63 57  2  0
 64 59  2  0
 65 58  1  0
 66 56  1  0
 68 70  2  0
 69 68  1  0
 71 69  1  0
 72 81  2  0
 72 77  1  0
 73 69  1  0
 73 77  1  0
 74 73  1  0
 75 76  1  0
 75 74  1  0
 76 72  1  0
 77 78  2  0
 78 79  1  0
 80 79  2  0
 81 80  1  0
 82 56  1  0
 82 83  1  0
 82 92  1  0
 83 86  1  0
 84 88  1  0
 84 83  1  0
 85 84  2  0
 88 87  1  0
 90 88  1  0
 90 91  1  0
 90 89  1  0
 92 95  1  1
 92 93  1  0
 94 92  1  0
M  ISO  4  11 100  19 100  54 101  55 101
M  END
>  <TORSDO>  (17) 
F 21

>  <SCORE>  (17) 
-13.656

>  <name>  (17) 
16

>  <ligand_id>  (17) 
16

>  <original_smiles>  (17) 
[H]c1c([H])c(N([H])C(=O)N2C([H])([H])C([H])([H])C([H])([H])C([H])(n3nc(-c4c([H])c([H])c(Oc5c([H])c([H])c(F)c([H])c5F)c([H])c4[H])c(C(=O)N([H])[H])c3N([H])[H])C2([H])[H])c([H])c(N([H])C(=O)C([H])([H])[N+]([H])([H])C([H])([H])C([H])([H])Oc2c([H])c([H])c3c(c2[H])C([H])([H])N(C(=O)C([H])(N([H])C(=O)C([H])(N([H])C([H])([H])[H])C([H])([H])[H])C(C([H])([H])[H])(C([H])([H])[H])C([H])([H])[H])C([H])(C(=O)N([H])C2([H])c4c([H])c([H])c([H])c([H])c4C([H])([H])C([H])([H])C2([H])[H])C3([H])[H])c1[H]

>  <smiles>  (17) 
[H]c1c([H])c(N([H])C(=O)N2C([H])([H])C([H])([H])C([H])([H])C([H])(n3nc(-c4c([H])c([H])c(Oc5c([H])c([H])c(F)c([H])c5F)c([H])c4[H])c(C(=O)N([H])[H])c3N([H])[H])C2([H])[H])c([H])c(N([H])C(=O)C([H])([H])[N+]([H])([H])C([H])([H])C([H])([H])Oc2c([H])c([H])c3c(c2[H])C([H])([H])N(C(=O)C([H])(N([H])C(=O)C([H])(N([H])C([H])([H])[H])C([H])([H])[H])C(C([H])([H])[H])(C([H])([H])[H])C([H])([H])[H])C([H])(C(=O)N([H])C2([H])c4c([H])c([H])c([H])c([H])c4C([H])([H])C([H])([H])C2([H])[H])C3([H])[H])c1[H]

$$$$
17:0:0
     RDKit          3D

 93101  0  0  1  0  0  0  0  0999 V2000
  -28.6160  -23.3560   20.0570 C   0  0  0  0  0  0  0  0  0  0  0  0
  -28.9080  -22.1640   20.7730 N   0  0  0  0  0  0  0  0  0  0  0  0
  -28.7190  -23.3560   18.8280 O   0  0  0  0  0  0  0  0  0  0  0  0
  -28.9520  -22.3570   21.7630 H   0  0  0  0  0  0  0  0  0  0  0  0
  -28.2670  -19.7460   19.9100 C   0  0  0  0  0  3  0  0  0  0  0  0
  -30.5660  -18.5390   20.9100 C   0  0  0  0  0  3  0  0  0  0  0  0
  -29.1980  -20.6820   20.4720 C   0  0  0  0  0  0  0  0  0  0  0  0
  -29.6100  -17.6050   20.3850 C   0  0  0  0  0  0  0  0  0  0  0  0
  -30.3600  -19.9850   20.9700 C   0  0  0  0  0  0  0  0  0  0  0  0
  -28.4550  -18.3020   19.8840 C   0  0  0  0  0  0  0  0  0  0  0  0
  -31.3170  -20.7280   21.5770 F   0  0  0  0  0  0  0  0  0  0  0  0
  -27.4490  -17.5430   19.3850 F   0  0  0  0  0  0  0  0  0  0  0  0
  -30.4920  -14.9640   20.3330 C   0  0  0  0  0  0  0  0  0  0  0  0
  -30.4180  -12.6140   19.3750 C   0  0  0  0  0  2  0  0  0  0  0  0
  -29.4740  -12.5800   18.1500 C   0  0  0  0  0  2  0  0  0  0  0  0
  -28.0090  -12.3690   18.5830 C   0  0  0  0  0  2  0  0  0  0  0  0
  -27.6060  -13.2810   19.7700 C   0  0  0  0  0  3  0  0  0  0  0  0
  -28.6670  -13.2650   20.8920 C   0  0  0  0  0  2  0  0  0  0  0  0
  -29.9370  -13.6870   20.2870 N   0  0  0  0  0  0  0  0  0  0  0  0
  -31.6950  -15.0830   20.0710 O   0  0  0  0  0  0  0  0  0  0  0  0
  -29.6090  -16.0680   20.4400 N   0  0  0  0  0  0  0  0  0  0  0  0
  -28.6630  -15.7210   20.4660 H   0  0  0  0  0  0  0  0  0  0  0  0
  -25.2210  -13.8580   20.5060 C   0  0  0  0  0  0  0  0  0  0  0  0
  -24.1610  -13.0800   20.8790 C   0  0  0  0  0  0  0  0  0  0  0  0
  -24.6300  -11.7310   20.8530 C   0  0  0  0  0  0  0  0  0  0  0  0
  -26.2680  -12.9820   20.2690 N   0  0  0  0  0  0  0  0  0  0  0  0
  -25.9220  -11.6980   20.5430 N   0  0  0  0  0  0  0  0  0  0  0  0
  -23.9080  -10.4670   21.0460 C   0  0  0  0  0  0  0  0  0  0  0  0
  -24.3490   -9.4970   21.9730 C   0  0  0  0  0  3  0  0  0  0  0  0
  -23.6250   -8.2990   22.1550 C   0  0  0  0  0  3  0  0  0  0  0  0
  -22.4470   -8.0610   21.4080 C   0  0  0  0  0  0  0  0  0  0  0  0
  -22.0240   -9.0180   20.4700 C   0  0  0  0  0  3  0  0  0  0  0  0
  -22.7490  -10.2090   20.2870 C   0  0  0  0  0  3  0  0  0  0  0  0
  -21.6940   -6.9140   21.5000 O   0  0  0  0  0  0  0  0  0  0  0  0
  -21.6630   -6.1630   22.6470 C   0  0  0  0  0  0  0  0  0  0  0  0
  -21.2600   -6.7090   23.8850 C   0  0  0  0  0  3  0  0  0  0  0  0
  -21.1750   -5.8840   25.0240 C   0  0  0  0  0  3  0  0  0  0  0  0
  -21.4860   -4.5140   24.9280 C   0  0  0  0  0  0  0  0  0  0  0  0
  -21.8830   -3.9670   23.6950 C   0  0  0  0  0  3  0  0  0  0  0  0
  -21.9680   -4.7890   22.5580 C   0  0  0  0  0  0  0  0  0  0  0  0
  -22.3310   -4.2530   21.3680 F   0  0  0  0  0  0  0  0  0  0  0  0
  -21.3960   -3.7200   26.0200 F   0  0  0  0  0  0  0  0  0  0  0  0
  -22.7610  -13.5520   21.1450 C   0  0  0  0  0  0  0  0  0  0  0  0
  -22.0340  -12.8590   22.0130 N   0  0  0  0  0  0  0  0  0  0  0  0
  -22.3200  -14.5730   20.6180 O   0  0  0  0  0  0  0  0  0  0  0  0
  -22.4030  -12.0330   22.4630 H   0  0  0  0  0  0  0  0  0  0  0  0
  -21.0960  -13.1600   22.2360 H   0  0  0  0  0  0  0  0  0  0  0  0
  -25.3740  -15.2290   20.3210 N   0  0  0  0  0  0  0  0  0  0  0  0
  -24.5870  -15.8620   20.4190 H   0  0  0  0  0  0  0  0  0  0  0  0
  -26.1870  -15.6840   19.9240 H   0  0  0  0  0  0  0  0  0  0  0  0
  -28.6410  -24.8590   22.2150 C   0  0  0  0  0  1  0  0  0  0  0  0
  -28.0930  -24.7650   20.7830 C   0  0  0  0  0  3  0  0  0  0  0  0
  -28.2840  -26.1900   20.1860 O   0  0  0  0  0  0  0  0  0  0  0  0
  -24.6400  -31.8730   23.2200 C   0  0  0  0  0  0  0  0  0  0  0  0
  -27.2180  -27.1610   20.2020 C   0  0  0  0  0  0  0  0  0  0  0  0
  -23.4350  -30.4670   21.5930 C   0  0  0  0  0  3  0  0  0  0  0  0
  -24.8810  -28.8870   20.1720 C   0  0  0  0  0  0  0  0  0  0  0  0
  -25.9860  -30.7420   21.4110 C   0  0  0  0  0  2  0  0  0  0  0  0
  -26.0630  -29.3460   20.7690 C   0  0  0  0  0  0  0  0  0  0  0  0
  -27.2370  -28.5010   20.7610 C   0  0  0  0  0  3  0  0  0  0  0  0
  -26.0100  -26.7950   19.5750 C   0  0  0  0  0  3  0  0  0  0  0  0
  -24.8660  -27.6230   19.5600 C   0  0  0  0  0  3  0  0  0  0  0  0
  -23.6510  -29.7810   20.2170 C   0  0  0  0  0  2  0  0  0  0  0  0
  -24.7080  -31.0490   22.1300 N   0  0  0  0  0  0  0  0  0  0  0  0
  -23.5570  -32.1560   23.7530 O   0  0  0  0  0  0  0  0  0  0  0  0
  -22.7640  -29.4620   22.5640 C   0  0  0  0  0  0  0  0  0  0  0  0
  -21.4350  -29.2900   22.4460 N   0  0  0  0  0  0  0  0  0  0  0  0
  -23.4420  -28.8400   23.3860 O   0  0  0  0  0  0  0  0  0  0  0  0
  -20.9450  -29.8440   21.7580 H   0  0  0  0  0  0  0  0  0  0  0  0
  -18.0600  -28.0820   22.9690 C   0  0  0  0  0  0  0  0  0  0  0  0
  -20.6190  -28.3560   23.2260 C   0  0  0  0  0  3  0  0  0  0  0  0
  -20.7240  -26.9200   22.6630 C   0  0  0  0  0  2  0  0  0  0  0  0
  -19.6210  -26.5850   21.6530 C   0  0  0  0  0  2  0  0  0  0  0  0
  -18.2400  -26.7290   22.3010 C   0  0  0  0  0  2  0  0  0  0  0  0
  -19.1780  -28.8530   23.3890 C   0  0  0  0  0  0  0  0  0  0  0  0
  -18.9530  -30.1180   23.9760 C   0  0  0  0  0  3  0  0  0  0  0  0
  -17.6460  -30.6110   24.1470 C   0  0  0  0  0  3  0  0  0  0  0  0
  -16.5450  -29.8380   23.7410 C   0  0  0  0  0  3  0  0  0  0  0  0
  -16.7520  -28.5760   23.1580 C   0  0  0  0  0  3  0  0  0  0  0  0
  -25.9210  -32.5140   23.8370 C   0  0  0  0  0  3  0  0  0  0  0  0
  -25.6050  -33.9110   24.1740 N   0  0  0  0  0  0  0  0  0  0  0  0
  -25.9260  -34.9710   23.4200 C   0  0  0  0  0  0  0  0  0  0  0  0
  -26.5860  -34.8750   22.3810 O   0  0  0  0  0  0  0  0  0  0  0  0
  -25.0170  -34.0590   24.9820 H   0  0  0  0  0  0  0  0  0  0  0  0
  -24.1890  -36.7630   23.0910 C   0  0  0  0  0  1  0  0  0  0  0  0
  -25.4390  -36.3560   23.8890 C   0  0  0  0  0  3  0  0  0  0  0  0
  -27.5810  -37.2440   24.7000 C   0  0  0  0  0  1  0  0  0  0  0  0
  -26.4680  -37.4140   23.7700 N   0  0  0  0  0  0  0  0  0  0  0  0
  -26.0610  -38.3310   23.9270 H   0  0  0  0  0  0  0  0  0  0  0  0
  -26.4440  -31.7470   25.1140 C   0  0  1  0  0  0  0  0  0  0  0  0
  -25.3580  -31.5150   26.1910 C   0  0  0  0  0  1  0  0  0  0  0  0
  -27.0240  -30.3660   24.7280 C   0  0  0  0  0  1  0  0  0  0  0  0
  -27.5980  -32.5430   25.7670 C   0  0  0  0  0  1  0  0  0  0  0  0
  1  2  1  0
  1 52  1  0
  2  4  1  0
  3  1  2  0
  5  7  1  0
  6  9  1  0
  7  2  1  0
  7  9  2  0
  8 21  1  0
  8  6  2  0
  9 11  1  0
 10  5  2  0
 10  8  1  0
 12 10  1  0
 13 21  1  0
 14 19  1  0
 15 16  1  0
 15 14  1  0
 17 16  1  0
 17 26  1  0
 17 18  1  0
 19 13  1  0
 19 18  1  0
 20 13  2  0
 21 22  1  0
 23 24  2  0
 24 43  1  0
 25 24  1  0
 25 28  1  0
 26 23  1  0
 26 27  1  0
 27 25  2  0
 28 29  1  0
 29 30  2  0
 31 34  1  0
 31 30  1  0
 32 31  2  0
 33 32  1  0
 33 28  2  0
 34 35  1  0
 35 36  1  0
 36 37  2  0
 38 37  1  0
 38 42  1  0
 39 38  2  0
 40 35  2  0
 40 39  1  0
 41 40  1  0
 43 44  1  0
 44 47  1  0
 44 46  1  0
 45 43  2  0
 48 49  1  0
 48 23  1  0
 50 48  1  0
 52 51  1  0
 53 55  1  0
 53 52  1  0
 54 65  2  0
 55 60  1  0
 56 64  1  0
 56 66  1  0
 57 63  1  0
 57 59  1  0
 58 64  1  0
 59 58  1  0
 60 59  2  0
 61 55  2  0
 62 61  1  0
 62 57  2  0
 63 56  1  0
 64 54  1  0
 66 68  2  0
 67 66  1  0
 69 67  1  0
 70 79  2  0
 70 75  1  0
 71 67  1  0
 71 75  1  0
 72 71  1  0
 73 74  1  0
 73 72  1  0
 74 70  1  0
 75 76  2  0
 76 77  1  0
 78 77  2  0
 79 78  1  0
 80 54  1  0
 80 81  1  0
 80 90  1  0
 81 84  1  0
 82 86  1  0
 82 81  1  0
 83 82  2  0
 86 85  1  0
 88 86  1  0
 88 89  1  0
 88 87  1  0
 90 93  1  1
 90 91  1  0
 92 90  1  0
M  ISO  4  13 100  21 100  52 101  53 101
M  END
>  <TORSDO>  (18) 
F 18

>  <SCORE>  (18) 
-15.070

>  <name>  (18) 
17

>  <ligand_id>  (18) 
17

>  <original_smiles>  (18) 
[H]c1c([H])c([H])c2c(c1[H])C([H])([H])C([H])([H])C([H])([H])C2([H])N([H])C(=O)C1([H])N(C(=O)C([H])(N([H])C(=O)C([H])(N([H])C([H])([H])[H])C([H])([H])[H])C(C([H])([H])[H])(C([H])([H])[H])C([H])([H])[H])C([H])([H])c2c([H])c(OC([H])(C(=O)N([H])c3c([H])c(F)c(N([H])C(=O)N4C([H])([H])C([H])([H])C([H])([H])C([H])(n5nc(-c6c([H])c([H])c(Oc7c([H])c([H])c(F)c([H])c7F)c([H])c6[H])c(C(=O)N([H])[H])c5N([H])[H])C4([H])[H])c([H])c3F)C([H])([H])[H])c([H])c([H])c2C1([H])[H]

>  <smiles>  (18) 
[H]c1c([H])c([H])c2c(c1[H])C([H])([H])C([H])([H])C([H])([H])C2([H])N([H])C(=O)C1([H])N(C(=O)C([H])(N([H])C(=O)C([H])(N([H])C([H])([H])[H])C([H])([H])[H])C(C([H])([H])[H])(C([H])([H])[H])C([H])([H])[H])C([H])([H])c2c([H])c(OC([H])(C(=O)N([H])c3c([H])c(F)c(N([H])C(=O)N4C([H])([H])C([H])([H])C([H])([H])C([H])(n5nc(-c6c([H])c([H])c(Oc7c([H])c([H])c(F)c([H])c7F)c([H])c6[H])c(C(=O)N([H])[H])c5N([H])[H])C4([H])[H])c([H])c3F)C([H])([H])[H])c([H])c([H])c2C1([H])[H]

$$$$
18:0:0
     RDKit          3D

 93102  0  0  1  0  0  0  0  0999 V2000
  -29.3060  -20.6170   21.3870 C   0  0  0  0  0  3  0  0  0  0  0  0
  -28.9430  -22.0600   21.5210 C   0  0  0  0  0  3  0  0  0  0  0  0
  -28.4630  -22.1910   19.2730 C   0  0  0  0  0  3  0  0  0  0  0  0
  -29.2690  -19.8350   20.1600 C   0  0  0  0  0  0  0  0  0  0  0  0
  -28.5060  -22.9850   20.4710 C   0  0  0  0  0  0  0  0  0  0  0  0
  -28.8050  -20.7690   19.1340 C   0  0  0  0  0  0  0  0  0  0  0  0
  -28.6340  -20.2630   17.8900 F   0  0  0  0  0  0  0  0  0  0  0  0
  -30.4840  -15.3350   20.4160 C   0  0  0  0  0  0  0  0  0  0  0  0
  -30.4770  -12.9010   19.5710 C   0  0  0  0  0  2  0  0  0  0  0  0
  -29.5910  -12.6920   18.3170 C   0  0  0  0  0  2  0  0  0  0  0  0
  -28.1240  -12.4560   18.7180 C   0  0  0  0  0  2  0  0  0  0  0  0
  -27.6450  -13.4320   19.8240 C   0  0  0  0  0  3  0  0  0  0  0  0
  -28.6600  -13.5720   20.9750 C   0  0  0  0  0  2  0  0  0  0  0  0
  -29.9150  -14.0410   20.3690 N   0  0  0  0  0  0  0  0  0  0  0  0
  -31.7230  -15.3360   20.3560 O   0  0  0  0  0  0  0  0  0  0  0  0
  -29.8320  -16.5300   18.5640 C   0  0  0  0  0  2  0  0  0  0  0  0
  -29.6330  -18.1940   19.7060 C   0  0  0  0  0  3  0  0  0  0  0  0
  -30.6610  -17.8330   18.6570 C   0  0  0  0  0  3  0  0  0  0  0  0
  -29.7050  -16.5450   20.0700 N   0  0  0  0  0  0  0  0  0  0  0  0
  -25.2500  -13.9920   20.5060 C   0  0  0  0  0  0  0  0  0  0  0  0
  -24.1780  -13.2130   20.8430 C   0  0  0  0  0  0  0  0  0  0  0  0
  -24.6520  -11.8640   20.8370 C   0  0  0  0  0  0  0  0  0  0  0  0
  -26.3030  -13.1190   20.2990 N   0  0  0  0  0  0  0  0  0  0  0  0
  -25.9520  -11.8350   20.5680 N   0  0  0  0  0  0  0  0  0  0  0  0
  -23.9250  -10.6000   21.0110 C   0  0  0  0  0  0  0  0  0  0  0  0
  -24.3300   -9.6370   21.9610 C   0  0  0  0  0  3  0  0  0  0  0  0
  -23.6030   -8.4380   22.1220 C   0  0  0  0  0  3  0  0  0  0  0  0
  -22.4550   -8.1940   21.3310 C   0  0  0  0  0  0  0  0  0  0  0  0
  -22.0700   -9.1430   20.3690 C   0  0  0  0  0  3  0  0  0  0  0  0
  -22.7990  -10.3330   20.2070 C   0  0  0  0  0  3  0  0  0  0  0  0
  -21.7010   -7.0480   21.4010 O   0  0  0  0  0  0  0  0  0  0  0  0
  -21.6130   -6.3120   22.5560 C   0  0  0  0  0  0  0  0  0  0  0  0
  -21.1190   -6.8680   23.7570 C   0  0  0  0  0  3  0  0  0  0  0  0
  -20.9800   -6.0590   24.9020 C   0  0  0  0  0  3  0  0  0  0  0  0
  -21.3240   -4.6950   24.8470 C   0  0  0  0  0  0  0  0  0  0  0  0
  -21.8090   -4.1390   23.6500 C   0  0  0  0  0  3  0  0  0  0  0  0
  -21.9490   -4.9450   22.5070 C   0  0  0  0  0  0  0  0  0  0  0  0
  -22.3980   -4.4000   21.3520 F   0  0  0  0  0  0  0  0  0  0  0  0
  -21.1850   -3.9140   25.9440 F   0  0  0  0  0  0  0  0  0  0  0  0
  -22.7720  -13.6840   21.0640 C   0  0  0  0  0  0  0  0  0  0  0  0
  -22.0220  -12.9960   21.9190 N   0  0  0  0  0  0  0  0  0  0  0  0
  -22.3430  -14.6970   20.5140 O   0  0  0  0  0  0  0  0  0  0  0  0
  -22.3790  -12.1750   22.3840 H   0  0  0  0  0  0  0  0  0  0  0  0
  -21.0750  -13.2940   22.1110 H   0  0  0  0  0  0  0  0  0  0  0  0
  -25.4160  -15.3640   20.3310 N   0  0  0  0  0  0  0  0  0  0  0  0
  -24.6500  -16.0210   20.4260 H   0  0  0  0  0  0  0  0  0  0  0  0
  -26.2890  -15.8040   20.0690 H   0  0  0  0  0  0  0  0  0  0  0  0
  -31.8400  -19.7010   17.5730 C   0  0  0  0  0  1  0  0  0  0  0  0
  -30.8290  -17.9770   16.1650 C   0  0  0  0  0  1  0  0  0  0  0  0
  -30.7490  -18.7040   17.4520 N   0  0  1  0  0  4  0  0  0  0  0  0
  -29.8900  -19.2470   17.4160 H   0  0  0  0  0  0  0  0  0  0  0  0
  -27.7700  -24.5290   20.6730 C   0  0  0  0  0  2  0  0  0  0  0  0
  -28.1590  -26.0580   20.3320 O   0  0  0  0  0  0  0  0  0  0  0  0
  -24.5670  -31.9540   23.2530 C   0  0  0  0  0  0  0  0  0  0  0  0
  -27.1530  -27.1350   20.2780 C   0  0  0  0  0  0  0  0  0  0  0  0
  -23.3810  -30.5410   21.6210 C   0  0  0  0  0  3  0  0  0  0  0  0
  -24.8410  -28.9580   20.2050 C   0  0  0  0  0  0  0  0  0  0  0  0
  -25.9390  -30.7980   21.4610 C   0  0  0  0  0  2  0  0  0  0  0  0
  -26.0230  -29.3880   20.8230 C   0  0  0  0  0  0  0  0  0  0  0  0
  -27.1800  -28.4990   20.8330 C   0  0  0  0  0  3  0  0  0  0  0  0
  -25.9500  -26.8520   19.5940 C   0  0  0  0  0  3  0  0  0  0  0  0
  -24.8260  -27.7110   19.5640 C   0  0  0  0  0  3  0  0  0  0  0  0
  -23.6130  -29.8600   20.2450 C   0  0  0  0  0  2  0  0  0  0  0  0
  -24.6510  -31.1250   22.1650 N   0  0  0  0  0  0  0  0  0  0  0  0
  -23.4790  -32.2330   23.7810 O   0  0  0  0  0  0  0  0  0  0  0  0
  -22.7040  -29.5390   22.5910 C   0  0  0  0  0  0  0  0  0  0  0  0
  -21.3770  -29.3540   22.4650 N   0  0  0  0  0  0  0  0  0  0  0  0
  -23.3780  -28.9300   23.4260 O   0  0  0  0  0  0  0  0  0  0  0  0
  -20.8870  -29.9040   21.7720 H   0  0  0  0  0  0  0  0  0  0  0  0
  -18.0080  -28.1100   22.9720 C   0  0  0  0  0  0  0  0  0  0  0  0
  -20.5630  -28.4130   23.2430 C   0  0  0  0  0  3  0  0  0  0  0  0
  -20.6840  -26.9760   22.6810 C   0  0  0  0  0  2  0  0  0  0  0  0
  -19.5900  -26.6320   21.6650 C   0  0  0  0  0  2  0  0  0  0  0  0
  -18.2060  -26.7590   22.3060 C   0  0  0  0  0  2  0  0  0  0  0  0
  -19.1140  -28.8920   23.3970 C   0  0  0  0  0  0  0  0  0  0  0  0
  -18.8730  -30.1540   23.9850 C   0  0  0  0  0  3  0  0  0  0  0  0
  -17.5600  -30.6340   24.1470 C   0  0  0  0  0  3  0  0  0  0  0  0
  -16.4690  -29.8500   23.7350 C   0  0  0  0  0  3  0  0  0  0  0  0
  -16.6940  -28.5900   23.1550 C   0  0  0  0  0  3  0  0  0  0  0  0
  -25.8380  -32.6090   23.8780 C   0  0  0  0  0  3  0  0  0  0  0  0
  -25.5190  -34.0140   24.1840 N   0  0  0  0  0  0  0  0  0  0  0  0
  -25.8650  -35.0610   23.4210 C   0  0  0  0  0  0  0  0  0  0  0  0
  -26.5510  -34.9440   22.4040 O   0  0  0  0  0  0  0  0  0  0  0  0
  -24.9170  -34.1760   24.9770 H   0  0  0  0  0  0  0  0  0  0  0  0
  -24.1600  -36.8670   23.0050 C   0  0  0  0  0  1  0  0  0  0  0  0
  -25.3730  -36.4570   23.8550 C   0  0  0  0  0  3  0  0  0  0  0  0
  -27.4860  -37.3360   24.7490 C   0  0  0  0  0  1  0  0  0  0  0  0
  -26.4150  -37.5040   23.7670 N   0  0  0  0  0  0  0  0  0  0  0  0
  -26.0110  -38.4280   23.8960 H   0  0  0  0  0  0  0  0  0  0  0  0
  -26.3370  -31.8680   25.1790 C   0  0  1  0  0  0  0  0  0  0  0  0
  -25.2320  -31.6520   26.2400 C   0  0  0  0  0  1  0  0  0  0  0  0
  -26.9250  -30.4820   24.8300 C   0  0  0  0  0  1  0  0  0  0  0  0
  -27.4780  -32.6790   25.8370 C   0  0  0  0  0  1  0  0  0  0  0  0
  1  2  1  0
  3  5  1  0
  4  1  2  0
  5 52  1  0
  5  2  2  0
  6  3  2  0
  6  4  1  0
  7  6  1  0
  9 14  1  0
 10 11  1  0
 10  9  1  0
 12 11  1  0
 12 23  1  0
 12 13  1  0
 14  8  1  0
 14 13  1  0
 15  8  2  0
 16 18  1  0
 16 19  1  0
 17 19  1  0
 17  4  1  0
 18 50  1  0
 18 17  1  0
 19  8  1  0
 20 21  2  0
 21 40  1  0
 22 21  1  0
 22 25  1  0
 23 20  1  0
 23 24  1  0
 24 22  2  0
 25 26  1  0
 26 27  2  0
 28 31  1  0
 28 27  1  0
 29 28  2  0
 30 29  1  0
 30 25  2  0
 31 32  1  0
 32 33  1  0
 33 34  2  0
 35 34  1  0
 35 39  1  0
 36 35  2  0
 37 32  2  0
 37 36  1  0
 38 37  1  0
 40 41  1  0
 41 44  1  0
 41 43  1  0
 42 40  2  0
 45 46  1  0
 45 20  1  0
 47 45  1  0
 49 50  1  0
 50 48  1  0
 50 51  1  6
 53 52  1  0
 54 65  2  0
 55 53  1  0
 55 60  1  0
 56 64  1  0
 56 66  1  0
 57 63  1  0
 57 59  1  0
 58 64  1  0
 59 60  2  0
 59 58  1  0
 61 55  2  0
 62 61  1  0
 62 57  2  0
 63 56  1  0
 64 54  1  0
 66 68  2  0
 67 66  1  0
 69 67  1  0
 70 79  2  0
 70 75  1  0
 71 67  1  0
 71 75  1  0
 72 71  1  0
 73 74  1  0
 73 72  1  0
 74 70  1  0
 75 76  2  0
 76 77  1  0
 78 77  2  0
 79 78  1  0
 80 54  1  0
 80 81  1  0
 80 90  1  0
 81 84  1  0
 82 86  1  0
 82 81  1  0
 83 82  2  0
 86 85  1  0
 88 86  1  0
 88 89  1  0
 88 87  1  0
 90 93  1  1
 90 91  1  0
 92 90  1  0
M  ISO  4   8 100  19 100  52 101  53 101
M  END
>  <TORSDO>  (19) 
F 18

>  <SCORE>  (19) 
-15.460

>  <name>  (19) 
18

>  <ligand_id>  (19) 
18

>  <original_smiles>  (19) 
[H]c1c([H])c([H])c2c(c1[H])C([H])([H])C([H])([H])C([H])([H])C2([H])N([H])C(=O)C1([H])N(C(=O)C([H])(N([H])C(=O)C([H])(N([H])C([H])([H])[H])C([H])([H])[H])C(C([H])([H])[H])(C([H])([H])[H])C([H])([H])[H])C([H])([H])c2c([H])c(OC([H])([H])c3c([H])c([H])c(C4([H])N(C(=O)N5C([H])([H])C([H])([H])C([H])([H])C([H])(n6nc(-c7c([H])c([H])c(Oc8c([H])c([H])c(F)c([H])c8F)c([H])c7[H])c(C(=O)N([H])[H])c6N([H])[H])C5([H])[H])C([H])([H])C4([H])[N+]([H])(C([H])([H])[H])C([H])([H])[H])c(F)c3[H])c([H])c([H])c2C1([H])[H]

>  <smiles>  (19) 
[H]c1c([H])c([H])c2c(c1[H])C([H])([H])C([H])([H])C([H])([H])C2([H])N([H])C(=O)C1([H])N(C(=O)C([H])(N([H])C(=O)C([H])(N([H])C([H])([H])[H])C([H])([H])[H])C(C([H])([H])[H])(C([H])([H])[H])C([H])([H])[H])C([H])([H])c2c([H])c(OC([H])([H])c3c([H])c([H])c(C4([H])N(C(=O)N5C([H])([H])C([H])([H])C([H])([H])C([H])(n6nc(-c7c([H])c([H])c(Oc8c([H])c([H])c(F)c([H])c8F)c([H])c7[H])c(C(=O)N([H])[H])c6N([H])[H])C5([H])[H])C([H])([H])C4([H])[N+]([H])(C([H])([H])[H])C([H])([H])[H])c(F)c3[H])c([H])c([H])c2C1([H])[H]

$$$$
19:0:0
     RDKit          3D

 94103  0  0  1  0  0  0  0  0999 V2000
  -29.9550  -22.0640   22.4850 C   0  0  0  0  0  2  0  0  0  0  0  0
  -28.5280  -22.4580   22.1130 C   0  0  0  0  0  2  0  0  0  0  0  0
  -30.1090  -21.6520   21.0200 C   0  0  0  0  0  3  0  0  0  0  0  0
  -28.9780  -22.6160   20.7240 N   0  0  2  0  0  4  0  0  0  0  0  0
  -28.3240  -22.2120   20.0660 H   0  0  0  0  0  0  0  0  0  0  0  0
  -31.1140  -17.8600   20.9380 C   0  0  0  0  0  3  0  0  0  0  0  0
  -28.7790  -17.9840   20.3670 C   0  0  0  0  0  3  0  0  0  0  0  0
  -30.0100  -20.0980   20.7690 C   0  0  0  0  0  0  0  0  0  0  0  0
  -29.9140  -17.1660   20.6370 C   0  0  0  0  0  0  0  0  0  0  0  0
  -31.1540  -19.2840   21.0090 C   0  0  0  0  0  0  0  0  0  0  0  0
  -28.8240  -19.4100   20.4170 C   0  0  0  0  0  0  0  0  0  0  0  0
  -32.3200  -19.8790   21.3560 F   0  0  0  0  0  0  0  0  0  0  0  0
  -27.7040  -20.1240   20.1460 F   0  0  0  0  0  0  0  0  0  0  0  0
  -30.6050  -14.6690   20.3720 C   0  0  0  0  0  0  0  0  0  0  0  0
  -30.4030  -12.4450   19.2810 C   0  0  0  0  0  2  0  0  0  0  0  0
  -29.4520  -12.5850   18.0710 C   0  0  0  0  0  2  0  0  0  0  0  0
  -27.9790  -12.4240   18.5010 C   0  0  0  0  0  2  0  0  0  0  0  0
  -27.6250  -13.2790   19.7460 C   0  0  0  0  0  3  0  0  0  0  0  0
  -28.6830  -13.1030   20.8580 C   0  0  0  0  0  2  0  0  0  0  0  0
  -29.9940  -13.4470   20.2830 N   0  0  0  0  0  0  0  0  0  0  0  0
  -31.7750  -14.8360   20.0140 O   0  0  0  0  0  0  0  0  0  0  0  0
  -29.7650  -15.7100   20.6650 N   0  0  0  0  0  0  0  0  0  0  0  0
  -28.8240  -15.3900   20.8350 H   0  0  0  0  0  0  0  0  0  0  0  0
  -25.2300  -13.8880   20.4550 C   0  0  0  0  0  0  0  0  0  0  0  0
  -24.1620  -13.1180   20.8280 C   0  0  0  0  0  0  0  0  0  0  0  0
  -24.6230  -11.7660   20.8060 C   0  0  0  0  0  0  0  0  0  0  0  0
  -26.2740  -13.0040   20.2280 N   0  0  0  0  0  0  0  0  0  0  0  0
  -25.9140  -11.7240   20.5000 N   0  0  0  0  0  0  0  0  0  0  0  0
  -23.8960  -10.5050   21.0010 C   0  0  0  0  0  0  0  0  0  0  0  0
  -24.3220   -9.5450   21.9440 C   0  0  0  0  0  3  0  0  0  0  0  0
  -23.5960   -8.3490   22.1260 C   0  0  0  0  0  3  0  0  0  0  0  0
  -22.4290   -8.1040   21.3630 C   0  0  0  0  0  0  0  0  0  0  0  0
  -22.0230   -9.0530   20.4090 C   0  0  0  0  0  3  0  0  0  0  0  0
  -22.7490  -10.2410   20.2250 C   0  0  0  0  0  3  0  0  0  0  0  0
  -21.6740   -6.9590   21.4530 O   0  0  0  0  0  0  0  0  0  0  0  0
  -21.6110   -6.2300   22.6130 C   0  0  0  0  0  0  0  0  0  0  0  0
  -21.1610   -6.7950   23.8270 C   0  0  0  0  0  3  0  0  0  0  0  0
  -21.0460   -5.9900   24.9780 C   0  0  0  0  0  3  0  0  0  0  0  0
  -21.3700   -4.6220   24.9170 C   0  0  0  0  0  0  0  0  0  0  0  0
  -21.8130   -4.0560   23.7080 C   0  0  0  0  0  3  0  0  0  0  0  0
  -21.9300   -4.8580   22.5590 C   0  0  0  0  0  0  0  0  0  0  0  0
  -22.3370   -4.3020   21.3920 F   0  0  0  0  0  0  0  0  0  0  0  0
  -21.2520   -3.8470   26.0200 F   0  0  0  0  0  0  0  0  0  0  0  0
  -22.7640  -13.5970   21.0930 C   0  0  0  0  0  0  0  0  0  0  0  0
  -22.0310  -12.9050   21.9580 N   0  0  0  0  0  0  0  0  0  0  0  0
  -22.3290  -14.6210   20.5650 O   0  0  0  0  0  0  0  0  0  0  0  0
  -22.3950  -12.0790   22.4070 H   0  0  0  0  0  0  0  0  0  0  0  0
  -21.0920  -13.2080   22.1740 H   0  0  0  0  0  0  0  0  0  0  0  0
  -25.3930  -15.2560   20.2650 N   0  0  0  0  0  0  0  0  0  0  0  0
  -24.6150  -15.9010   20.3520 H   0  0  0  0  0  0  0  0  0  0  0  0
  -26.2130  -15.6820   19.8550 H   0  0  0  0  0  0  0  0  0  0  0  0
  -29.3340  -24.0650   20.3780 C   0  0  0  0  0  3  0  0  0  0  0  0
  -28.1220  -25.0560   20.1270 C   0  0  0  0  0  3  0  0  0  0  0  0
  -28.3540  -26.5210   20.1640 O   0  0  0  0  0  0  0  0  0  0  0  0
  -24.6270  -31.8810   23.2380 C   0  0  0  0  0  0  0  0  0  0  0  0
  -27.2250  -27.3560   20.1340 C   0  0  0  0  0  0  0  0  0  0  0  0
  -23.4110  -30.4900   21.6010 C   0  0  0  0  0  3  0  0  0  0  0  0
  -24.8520  -28.9530   20.1570 C   0  0  0  0  0  0  0  0  0  0  0  0
  -25.9480  -30.8180   21.3950 C   0  0  0  0  0  2  0  0  0  0  0  0
  -26.0250  -29.4440   20.7430 C   0  0  0  0  0  0  0  0  0  0  0  0
  -27.2150  -28.6580   20.7210 C   0  0  0  0  0  3  0  0  0  0  0  0
  -26.0230  -26.9160   19.5270 C   0  0  0  0  0  3  0  0  0  0  0  0
  -24.8530  -27.6940   19.5420 C   0  0  0  0  0  3  0  0  0  0  0  0
  -23.6150  -29.8230   20.2160 C   0  0  0  0  0  2  0  0  0  0  0  0
  -24.6810  -31.0790   22.1360 N   0  0  0  0  0  0  0  0  0  0  0  0
  -23.5480  -32.1530   23.7830 O   0  0  0  0  0  0  0  0  0  0  0  0
  -22.7580  -29.4660   22.5600 C   0  0  0  0  0  0  0  0  0  0  0  0
  -21.4310  -29.2860   22.4400 N   0  0  0  0  0  0  0  0  0  0  0  0
  -23.4430  -28.8380   23.3710 O   0  0  0  0  0  0  0  0  0  0  0  0
  -20.9380  -29.8460   21.7590 H   0  0  0  0  0  0  0  0  0  0  0  0
  -18.0590  -28.0800   22.9480 C   0  0  0  0  0  0  0  0  0  0  0  0
  -20.6180  -28.3450   23.2120 C   0  0  0  0  0  3  0  0  0  0  0  0
  -20.7220  -26.9140   22.6320 C   0  0  0  0  0  2  0  0  0  0  0  0
  -19.6180  -26.5910   21.6210 C   0  0  0  0  0  2  0  0  0  0  0  0
  -18.2380  -26.7310   22.2690 C   0  0  0  0  0  2  0  0  0  0  0  0
  -19.1780  -28.8430   23.3750 C   0  0  0  0  0  0  0  0  0  0  0  0
  -18.9570  -30.1050   23.9700 C   0  0  0  0  0  3  0  0  0  0  0  0
  -17.6510  -30.6030   24.1410 C   0  0  0  0  0  3  0  0  0  0  0  0
  -16.5480  -29.8360   23.7280 C   0  0  0  0  0  3  0  0  0  0  0  0
  -16.7530  -28.5760   23.1380 C   0  0  0  0  0  3  0  0  0  0  0  0
  -25.9140  -32.5100   23.8540 C   0  0  0  0  0  3  0  0  0  0  0  0
  -26.4400  -31.7310   25.1220 C   0  0  1  0  0  0  0  0  0  0  0  0
  -25.3560  -31.4870   26.1970 C   0  0  0  0  0  1  0  0  0  0  0  0
  -27.0200  -30.3560   24.7170 C   0  0  0  0  0  1  0  0  0  0  0  0
  -27.5960  -32.5220   25.7800 C   0  0  0  0  0  1  0  0  0  0  0  0
  -25.6070  -33.9060   24.1940 N   0  0  0  0  0  0  0  0  0  0  0  0
  -25.9250  -34.9620   23.4330 C   0  0  0  0  0  0  0  0  0  0  0  0
  -26.5780  -34.8640   22.3910 O   0  0  0  0  0  0  0  0  0  0  0  0
  -25.0280  -34.0570   25.0070 H   0  0  0  0  0  0  0  0  0  0  0  0
  -24.1860  -36.7510   23.1150 C   0  0  0  0  0  1  0  0  0  0  0  0
  -25.4420  -36.3480   23.9030 C   0  0  0  0  0  3  0  0  0  0  0  0
  -27.5880  -37.2380   24.6990 C   0  0  0  0  0  1  0  0  0  0  0  0
  -26.4690  -37.4050   23.7740 N   0  0  0  0  0  0  0  0  0  0  0  0
  -26.0630  -38.3230   23.9310 H   0  0  0  0  0  0  0  0  0  0  0  0
  2  1  1  0
  3  8  1  0
  3  1  1  0
  4  3  1  0
  4  2  1  0
  4  5  1  6
  6 10  1  0
  7 11  2  0
  7  9  1  0
  8 10  2  0
  9 22  1  0
  9  6  2  0
 10 12  1  0
 11  8  1  0
 13 11  1  0
 14 22  1  0
 15 20  1  0
 16 17  1  0
 16 15  1  0
 18 17  1  0
 18 27  1  0
 18 19  1  0
 20 14  1  0
 20 19  1  0
 21 14  2  0
 22 23  1  0
 24 25  2  0
 25 44  1  0
 26 25  1  0
 26 29  1  0
 27 24  1  0
 27 28  1  0
 28 26  2  0
 29 30  1  0
 30 31  2  0
 32 35  1  0
 32 31  1  0
 33 32  2  0
 34 33  1  0
 34 29  2  0
 35 36  1  0
 36 37  1  0
 37 38  2  0
 39 38  1  0
 39 43  1  0
 40 39  2  0
 41 36  2  0
 41 40  1  0
 42 41  1  0
 44 45  1  0
 45 48  1  0
 45 47  1  0
 46 44  2  0
 49 50  1  0
 49 24  1  0
 51 49  1  0
 52  4  1  0
 53 54  1  0
 53 52  2  0
 55 66  2  0
 56 54  1  0
 56 61  1  0
 57 65  1  0
 57 67  1  0
 58 64  1  0
 58 60  1  0
 59 65  1  0
 60 59  1  0
 61 60  2  0
 62 63  1  0
 62 56  2  0
 63 58  2  0
 64 57  1  0
 65 55  1  0
 67 69  2  0
 68 67  1  0
 70 68  1  0
 71 80  2  0
 71 76  1  0
 72 68  1  0
 72 76  1  0
 73 72  1  0
 74 75  1  0
 74 73  1  0
 75 71  1  0
 76 77  2  0
 77 78  1  0
 79 78  2  0
 80 79  1  0
 81 55  1  0
 81 86  1  0
 81 82  1  0
 82 85  1  1
 82 83  1  0
 84 82  1  0
 86 89  1  0
 87 91  1  0
 87 86  1  0
 88 87  2  0
 91 90  1  0
 93 91  1  0
 93 94  1  0
 93 92  1  0
M  ISO  4  14 100  22 100  53 101  54 101
M  END
>  <TORSDO>  (20) 
F 19

>  <SCORE>  (20) 
-14.710

>  <name>  (20) 
19

>  <ligand_id>  (20) 
19

>  <original_smiles>  (20) 
[H]c1c([H])c([H])c2c(c1[H])C([H])([H])C([H])([H])C([H])([H])C2([H])N([H])C(=O)C1([H])N(C(=O)C([H])(N([H])C(=O)C([H])(N([H])C([H])([H])[H])C([H])([H])[H])C(C([H])([H])[H])(C([H])([H])[H])C([H])([H])[H])C([H])([H])c2c([H])c(OC([H])([H])C([H])([H])[N+]3([H])C([H])([H])C([H])([H])C3([H])c3c(F)c([H])c(N([H])C(=O)N4C([H])([H])C([H])([H])C([H])([H])C([H])(n5nc(-c6c([H])c([H])c(Oc7c([H])c([H])c(F)c([H])c7F)c([H])c6[H])c(C(=O)N([H])[H])c5N([H])[H])C4([H])[H])c([H])c3F)c([H])c([H])c2C1([H])[H]

>  <smiles>  (20) 
[H]c1c([H])c([H])c2c(c1[H])C([H])([H])C([H])([H])C([H])([H])C2([H])N([H])C(=O)C1([H])N(C(=O)C([H])(N([H])C(=O)C([H])(N([H])C([H])([H])[H])C([H])([H])[H])C(C([H])([H])[H])(C([H])([H])[H])C([H])([H])[H])C([H])([H])c2c([H])c(OC([H])([H])C([H])([H])[N+]3([H])C([H])([H])C([H])([H])C3([H])c3c(F)c([H])c(N([H])C(=O)N4C([H])([H])C([H])([H])C([H])([H])C([H])(n5nc(-c6c([H])c([H])c(Oc7c([H])c([H])c(F)c([H])c7F)c([H])c6[H])c(C(=O)N([H])[H])c5N([H])[H])C4([H])[H])c([H])c3F)c([H])c([H])c2C1([H])[H]

$$$$
20:0:0
     RDKit          3D

 87 95  0  0  1  0  0  0  0  0999 V2000
  -29.1620  -21.3200   21.2240 C   0  0  0  0  0  3  0  0  0  0  0  0
  -29.5080  -19.8210   21.2250 C   0  0  0  0  0  3  0  0  0  0  0  0
  -28.7390  -19.6470   19.1540 C   0  0  0  0  0  3  0  0  0  0  0  0
  -28.5580  -22.1990   20.1760 C   0  0  0  0  0  0  0  0  0  0  0  0
  -29.3490  -18.7600   20.1840 C   0  0  0  0  0  0  0  0  0  0  0  0
  -28.3970  -21.1370   19.1390 C   0  0  0  0  0  0  0  0  0  0  0  0
  -27.7890  -21.5550   18.0020 F   0  0  0  0  0  0  0  0  0  0  0  0
  -30.2680  -15.7300   20.1340 C   0  0  0  0  0  0  0  0  0  0  0  0
  -30.3760  -13.1970   19.2960 C   0  0  0  0  0  2  0  0  0  0  0  0
  -29.4510  -12.8100   18.1070 C   0  0  0  0  0  2  0  0  0  0  0  0
  -28.0400  -12.4500   18.5980 C   0  0  0  0  0  2  0  0  0  0  0  0
  -27.5550  -13.4350   19.6850 C   0  0  0  0  0  3  0  0  0  0  0  0
  -28.6170  -13.7300   20.7710 C   0  0  0  0  0  2  0  0  0  0  0  0
  -29.7690  -14.3580   20.0860 N   0  0  0  0  0  0  0  0  0  0  0  0
  -31.4940  -15.7090   19.9180 O   0  0  0  0  0  0  0  0  0  0  0  0
  -29.4350  -17.0380   20.2320 N   0  0  0  0  0  0  0  0  0  0  0  0
  -28.4900  -16.6940   20.3130 H   0  0  0  0  0  0  0  0  0  0  0  0
  -25.2170  -13.9370   20.5420 C   0  0  0  0  0  0  0  0  0  0  0  0
  -24.1740  -13.1430   20.9250 C   0  0  0  0  0  0  0  0  0  0  0  0
  -24.6500  -11.7980   20.8420 C   0  0  0  0  0  0  0  0  0  0  0  0
  -26.2560  -13.0800   20.2400 N   0  0  0  0  0  0  0  0  0  0  0  0
  -25.9320  -11.7820   20.4870 N   0  0  0  0  0  0  0  0  0  0  0  0
  -23.9340  -10.5270   21.0200 C   0  0  0  0  0  0  0  0  0  0  0  0
  -24.3650   -9.5580   21.9530 C   0  0  0  0  0  3  0  0  0  0  0  0
  -23.6440   -8.3570   22.1220 C   0  0  0  0  0  3  0  0  0  0  0  0
  -22.4780   -8.1140   21.3580 C   0  0  0  0  0  0  0  0  0  0  0  0
  -22.0660   -9.0700   20.4140 C   0  0  0  0  0  3  0  0  0  0  0  0
  -22.7870  -10.2640   20.2440 C   0  0  0  0  0  3  0  0  0  0  0  0
  -21.7300   -6.9630   21.4370 O   0  0  0  0  0  0  0  0  0  0  0  0
  -21.6350   -6.2440   22.6020 C   0  0  0  0  0  0  0  0  0  0  0  0
  -21.1110   -6.8090   23.7850 C   0  0  0  0  0  3  0  0  0  0  0  0
  -20.9660   -6.0150   24.9400 C   0  0  0  0  0  3  0  0  0  0  0  0
  -21.3340   -4.6570   24.9120 C   0  0  0  0  0  0  0  0  0  0  0  0
  -21.8510   -4.0910   23.7330 C   0  0  0  0  0  3  0  0  0  0  0  0
  -21.9970   -4.8830   22.5810 C   0  0  0  0  0  0  0  0  0  0  0  0
  -22.4750   -4.3270   21.4410 F   0  0  0  0  0  0  0  0  0  0  0  0
  -21.1880   -3.8920   26.0200 F   0  0  0  0  0  0  0  0  0  0  0  0
  -22.7830  -13.6050   21.2450 C   0  0  0  0  0  0  0  0  0  0  0  0
  -22.0840  -12.8860   22.1150 N   0  0  0  0  0  0  0  0  0  0  0  0
  -22.3280  -14.6400   20.7600 O   0  0  0  0  0  0  0  0  0  0  0  0
  -22.4680  -12.0500   22.5290 H   0  0  0  0  0  0  0  0  0  0  0  0
  -21.1510  -13.1780   22.3730 H   0  0  0  0  0  0  0  0  0  0  0  0
  -25.3610  -15.3140   20.3930 N   0  0  0  0  0  0  0  0  0  0  0  0
  -24.5850  -15.9520   20.5360 H   0  0  0  0  0  0  0  0  0  0  0  0
  -26.1730  -15.7660   19.9940 H   0  0  0  0  0  0  0  0  0  0  0  0
  -27.7900  -23.9050   20.1710 C   0  0  0  0  0  2  0  0  0  0  0  0
  -28.1100  -25.6200   20.3060 O   0  0  0  0  0  0  0  0  0  0  0  0
  -24.6500  -31.9140   23.2530 C   0  0  0  0  0  0  0  0  0  0  0  0
  -27.1510  -26.8400   20.2560 C   0  0  0  0  0  0  0  0  0  0  0  0
  -23.4500  -30.5180   21.6240 C   0  0  0  0  0  3  0  0  0  0  0  0
  -24.8860  -28.8680   20.2060 C   0  0  0  0  0  0  0  0  0  0  0  0
  -26.0280  -30.6580   21.4890 C   0  0  0  0  0  2  0  0  0  0  0  0
  -26.0860  -29.2260   20.8330 C   0  0  0  0  0  0  0  0  0  0  0  0
  -27.2040  -28.2400   20.8250 C   0  0  0  0  0  3  0  0  0  0  0  0
  -25.9170  -26.6910   19.5740 C   0  0  0  0  0  3  0  0  0  0  0  0
  -24.8400  -27.6260   19.5530 C   0  0  0  0  0  3  0  0  0  0  0  0
  -23.6810  -29.8200   20.2540 C   0  0  0  0  0  2  0  0  0  0  0  0
  -24.7330  -31.0630   22.1740 N   0  0  0  0  0  0  0  0  0  0  0  0
  -23.5600  -32.2180   23.7680 O   0  0  0  0  0  0  0  0  0  0  0  0
  -22.7350  -29.5440   22.5990 C   0  0  0  0  0  0  0  0  0  0  0  0
  -21.4050  -29.3780   22.4670 N   0  0  0  0  0  0  0  0  0  0  0  0
  -23.3910  -28.9340   23.4470 O   0  0  0  0  0  0  0  0  0  0  0  0
  -20.9260  -29.9210   21.7620 H   0  0  0  0  0  0  0  0  0  0  0  0
  -18.0260  -28.1370   22.9630 C   0  0  0  0  0  0  0  0  0  0  0  0
  -20.5810  -28.4430   23.2440 C   0  0  0  0  0  3  0  0  0  0  0  0
  -20.7040  -27.0030   22.6930 C   0  0  0  0  0  2  0  0  0  0  0  0
  -19.6170  -26.6520   21.6730 C   0  0  0  0  0  2  0  0  0  0  0  0
  -18.2270  -26.7840   22.3020 C   0  0  0  0  0  2  0  0  0  0  0  0
  -19.1290  -28.9220   23.3910 C   0  0  0  0  0  0  0  0  0  0  0  0
  -18.8830  -30.1850   23.9750 C   0  0  0  0  0  3  0  0  0  0  0  0
  -17.5690  -30.6620   24.1300 C   0  0  0  0  0  3  0  0  0  0  0  0
  -16.4800  -29.8760   23.7150 C   0  0  0  0  0  3  0  0  0  0  0  0
  -16.7100  -28.6140   23.1380 C   0  0  0  0  0  3  0  0  0  0  0  0
  -25.9190  -32.5610   23.8870 C   0  0  0  0  0  3  0  0  0  0  0  0
  -25.6040  -33.9650   24.2180 N   0  0  0  0  0  0  0  0  0  0  0  0
  -25.9100  -35.0260   23.4570 C   0  0  0  0  0  0  0  0  0  0  0  0
  -26.5460  -34.9250   22.4060 O   0  0  0  0  0  0  0  0  0  0  0  0
  -25.0320  -34.1160   25.0350 H   0  0  0  0  0  0  0  0  0  0  0  0
  -24.1590  -36.8190   23.1920 C   0  0  0  0  0  1  0  0  0  0  0  0
  -25.4430  -36.4170   23.9360 C   0  0  0  0  0  3  0  0  0  0  0  0
  -27.6070  -37.3270   24.6600 C   0  0  0  0  0  1  0  0  0  0  0  0
  -26.4630  -37.4760   23.7650 N   0  0  0  0  0  0  0  0  0  0  0  0
  -26.0570  -38.3950   23.9190 H   0  0  0  0  0  0  0  0  0  0  0  0
  -26.4160  -31.8060   25.1830 C   0  0  1  0  0  0  0  0  0  0  0  0
  -25.3090  -31.5910   26.2420 C   0  0  0  0  0  1  0  0  0  0  0  0
  -26.9960  -30.4190   24.8290 C   0  0  0  0  0  1  0  0  0  0  0  0
  -27.5630  -32.6040   25.8460 C   0  0  0  0  0  1  0  0  0  0  0  0
  1  2  1  0
  3  5  1  0
  4  1  2  0
  5 16  1  0
  5  2  2  0
  6  3  2  0
  6  4  1  0
  7  6  1  0
  8 16  1  0
  9 14  1  0
 10 11  1  0
 10  9  1  0
 12 11  1  0
 12 21  1  0
 12 13  1  0
 14  8  1  0
 14 13  1  0
 15  8  2  0
 16 17  1  0
 18 19  2  0
 19 38  1  0
 20 19  1  0
 20 23  1  0
 21 22  1  0
 21 18  1  0
 22 20  2  0
 23 24  1  0
 24 25  2  0
 26 29  1  0
 26 25  1  0
 27 26  2  0
 28 27  1  0
 28 23  2  0
 29 30  1  0
 30 31  1  0
 31 32  2  0
 33 32  1  0
 33 37  1  0
 34 33  2  0
 35 30  2  0
 35 34  1  0
 36 35  1  0
 38 39  1  0
 39 42  1  0
 39 41  1  0
 40 38  2  0
 43 44  1  0
 43 18  1  0
 45 43  1  0
 46  4  1  0
 46 47  1  0
 48 59  2  0
 49 47  1  0
 49 54  1  0
 50 58  1  0
 50 60  1  0
 51 57  1  0
 51 53  1  0
 52 58  1  0
 53 52  1  0
 54 53  2  0
 55 49  2  0
 56 55  1  0
 56 51  2  0
 57 50  1  0
 58 48  1  0
 60 62  2  0
 61 60  1  0
 63 61  1  0
 64 73  2  0
 64 69  1  0
 65 61  1  0
 65 69  1  0
 66 65  1  0
 67 68  1  0
 67 66  1  0
 68 64  1  0
 69 70  2  0
 70 71  1  0
 72 71  2  0
 73 72  1  0
 74 48  1  0
 74 75  1  0
 74 84  1  0
 75 78  1  0
 76 80  1  0
 76 75  1  0
 77 76  2  0
 80 79  1  0
 82 83  1  0
 82 80  1  0
 82 81  1  0
 84 87  1  1
 84 85  1  0
 86 84  1  0
M  ISO  4   8 100  16 100  46 101  47 101
M  END
>  <TORSDO>  (21) 
F 17

>  <SCORE>  (21) 
-16.539

>  <name>  (21) 
20

>  <ligand_id>  (21) 
20

>  <original_smiles>  (21) 
[H]c1c([H])c([H])c2c(c1[H])C([H])([H])C([H])([H])C([H])([H])C2([H])N([H])C(=O)C1([H])N(C(=O)C([H])(N([H])C(=O)C([H])(N([H])C([H])([H])[H])C([H])([H])[H])C(C([H])([H])[H])(C([H])([H])[H])C([H])([H])[H])C([H])([H])c2c([H])c(OC([H])([H])c3c([H])c([H])c(N([H])C(=O)N4C([H])([H])C([H])([H])C([H])([H])C([H])(n5nc(-c6c([H])c([H])c(Oc7c([H])c([H])c(F)c([H])c7F)c([H])c6[H])c(C(=O)N([H])[H])c5N([H])[H])C4([H])[H])c([H])c3F)c([H])c([H])c2C1([H])[H]

>  <smiles>  (21) 
[H]c1c([H])c([H])c2c(c1[H])C([H])([H])C([H])([H])C([H])([H])C2([H])N([H])C(=O)C1([H])N(C(=O)C([H])(N([H])C(=O)C([H])(N([H])C([H])([H])[H])C([H])([H])[H])C(C([H])([H])[H])(C([H])([H])[H])C([H])([H])[H])C([H])([H])c2c([H])c(OC([H])([H])c3c([H])c([H])c(N([H])C(=O)N4C([H])([H])C([H])([H])C([H])([H])C([H])(n5nc(-c6c([H])c([H])c(Oc7c([H])c([H])c(F)c([H])c7F)c([H])c6[H])c(C(=O)N([H])[H])c5N([H])[H])C4([H])[H])c([H])c3F)c([H])c([H])c2C1([H])[H]

$$$$
21:0:0
     RDKit          3D

 97105  0  0  1  0  0  0  0  0999 V2000
  -30.0260  -20.1820   20.1790 C   0  0  0  0  0  2  0  0  0  0  0  0
  -27.7340  -20.4480   20.5930 C   0  0  0  0  0  2  0  0  0  0  0  0
  -28.8420  -21.1520   19.7810 C   0  0  0  0  0  3  0  0  0  0  0  0
  -29.4420  -18.6920   20.1540 C   0  0  0  0  0  3  0  0  0  0  0  0
  -28.0350  -18.9710   20.5760 N   0  0  0  0  0  4  0  0  0  0  0  0
  -27.4050  -18.5050   19.9430 H   0  0  0  0  0  0  0  0  0  0  0  0
  -27.8680  -18.6110   21.5030 H   0  0  0  0  0  0  0  0  0  0  0  0
  -28.1820  -23.7720   20.0390 C   0  0  0  0  0  0  0  0  0  0  0  0
  -29.0190  -22.6830   19.8150 N   0  0  0  0  0  0  0  0  0  0  0  0
  -27.1100  -23.6220   20.6270 O   0  0  0  0  0  0  0  0  0  0  0  0
  -29.8600  -22.9730   19.3320 H   0  0  0  0  0  0  0  0  0  0  0  0
  -28.5370  -25.2140   19.4020 C   0  0  0  0  0  2  0  0  0  0  0  0
  -28.3680  -26.4950   20.1780 O   0  0  0  0  0  0  0  0  0  0  0  0
  -24.6300  -31.8900   23.2120 C   0  0  0  0  0  0  0  0  0  0  0  0
  -27.2610  -27.3680   20.0710 C   0  0  0  0  0  0  0  0  0  0  0  0
  -23.4400  -30.5220   21.5370 C   0  0  0  0  0  3  0  0  0  0  0  0
  -24.9020  -29.0110   20.0700 C   0  0  0  0  0  0  0  0  0  0  0  0
  -25.9810  -30.8470   21.3740 C   0  0  0  0  0  2  0  0  0  0  0  0
  -26.0670  -29.4820   20.6900 C   0  0  0  0  0  0  0  0  0  0  0  0
  -27.2420  -28.6690   20.6830 C   0  0  0  0  0  3  0  0  0  0  0  0
  -26.0770  -26.9660   19.4200 C   0  0  0  0  0  3  0  0  0  0  0  0
  -24.9140  -27.7660   19.4230 C   0  0  0  0  0  3  0  0  0  0  0  0
  -23.6610  -29.8800   20.1400 C   0  0  0  0  0  2  0  0  0  0  0  0
  -24.7010  -31.1080   22.0950 N   0  0  0  0  0  0  0  0  0  0  0  0
  -23.5440  -32.1480   23.7510 O   0  0  0  0  0  0  0  0  0  0  0  0
  -22.7840  -29.4800   22.4740 C   0  0  0  0  0  0  0  0  0  0  0  0
  -21.4560  -29.3090   22.3550 N   0  0  0  0  0  0  0  0  0  0  0  0
  -23.4680  -28.8320   23.2710 O   0  0  0  0  0  0  0  0  0  0  0  0
  -20.9590  -29.9000   21.7030 H   0  0  0  0  0  0  0  0  0  0  0  0
  -18.0830  -28.0970   22.8460 C   0  0  0  0  0  0  0  0  0  0  0  0
  -20.6440  -28.3420   23.0930 C   0  0  0  0  0  3  0  0  0  0  0  0
  -20.7420  -26.9320   22.4600 C   0  0  0  0  0  2  0  0  0  0  0  0
  -19.6180  -26.6350   21.4630 C   0  0  0  0  0  2  0  0  0  0  0  0
  -18.2480  -26.7650   22.1300 C   0  0  0  0  0  2  0  0  0  0  0  0
  -19.2090  -28.8410   23.2870 C   0  0  0  0  0  0  0  0  0  0  0  0
  -19.0010  -30.0800   23.9320 C   0  0  0  0  0  3  0  0  0  0  0  0
  -17.7010  -30.5750   24.1390 C   0  0  0  0  0  3  0  0  0  0  0  0
  -16.5890  -29.8320   23.7090 C   0  0  0  0  0  3  0  0  0  0  0  0
  -16.7830  -28.5950   23.0660 C   0  0  0  0  0  3  0  0  0  0  0  0
  -25.9050  -32.5200   23.8520 C   0  0  0  0  0  3  0  0  0  0  0  0
  -25.5940  -33.9220   24.1780 N   0  0  0  0  0  0  0  0  0  0  0  0
  -25.9300  -34.9740   23.4220 C   0  0  0  0  0  0  0  0  0  0  0  0
  -26.6030  -34.8690   22.3930 O   0  0  0  0  0  0  0  0  0  0  0  0
  -24.9960  -34.0760   24.9780 H   0  0  0  0  0  0  0  0  0  0  0  0
  -24.2040  -36.7680   23.0600 C   0  0  0  0  0  1  0  0  0  0  0  0
  -25.4430  -36.3640   23.8770 C   0  0  0  0  0  3  0  0  0  0  0  0
  -27.5710  -37.2490   24.7200 C   0  0  0  0  0  1  0  0  0  0  0  0
  -26.4770  -37.4140   23.7660 N   0  0  0  0  0  0  0  0  0  0  0  0
  -26.0710  -38.3370   23.9030 H   0  0  0  0  0  0  0  0  0  0  0  0
  -26.3990  -31.7500   25.1380 C   0  0  1  0  0  0  0  0  0  0  0  0
  -25.2900  -31.5140   26.1890 C   0  0  0  0  0  1  0  0  0  0  0  0
  -26.9870  -30.3710   24.7590 C   0  0  0  0  0  1  0  0  0  0  0  0
  -27.5400  -32.5440   25.8160 C   0  0  0  0  0  1  0  0  0  0  0  0
  -30.1330  -17.4080   20.9330 C   0  0  0  0  0  0  0  0  0  0  0  0
  -30.4760  -14.8710   20.0460 C   0  0  0  0  0  0  0  0  0  0  0  0
  -30.2210  -12.6280   18.9330 C   0  0  0  0  0  2  0  0  0  0  0  0
  -29.2040  -12.7470   17.7750 C   0  0  0  0  0  2  0  0  0  0  0  0
  -27.7700  -12.5370   18.2960 C   0  0  0  0  0  2  0  0  0  0  0  0
  -27.4720  -13.3880   19.5570 C   0  0  0  0  0  3  0  0  0  0  0  0
  -28.5970  -13.2550   20.6080 C   0  0  0  0  0  2  0  0  0  0  0  0
  -29.8530  -13.6420   19.9530 N   0  0  0  0  0  0  0  0  0  0  0  0
  -31.6150  -15.0010   19.5940 O   0  0  0  0  0  0  0  0  0  0  0  0
  -29.7490  -15.9630   20.5180 N   0  0  0  0  0  4  0  0  0  0  0  0
  -28.8130  -15.7010   20.8000 H   0  0  0  0  0  0  0  0  0  0  0  0
  -25.1300  -13.9450   20.4380 C   0  0  0  0  0  0  0  0  0  0  0  0
  -24.0970  -13.1550   20.8630 C   0  0  0  0  0  0  0  0  0  0  0  0
  -24.5680  -11.8090   20.7760 C   0  0  0  0  0  0  0  0  0  0  0  0
  -26.1630  -13.0790   20.1200 N   0  0  0  0  0  0  0  0  0  0  0  0
  -25.8360  -11.7900   20.3850 N   0  0  0  0  0  0  0  0  0  0  0  0
  -23.8630  -10.5380   20.9820 C   0  0  0  0  0  0  0  0  0  0  0  0
  -24.3390   -9.5690   21.8900 C   0  0  0  0  0  3  0  0  0  0  0  0
  -23.6340   -8.3630   22.0850 C   0  0  0  0  0  3  0  0  0  0  0  0
  -22.4370   -8.1150   21.3700 C   0  0  0  0  0  0  0  0  0  0  0  0
  -21.9810   -9.0730   20.4470 C   0  0  0  0  0  3  0  0  0  0  0  0
  -22.6890  -10.2710   20.2500 C   0  0  0  0  0  3  0  0  0  0  0  0
  -21.7010   -6.9600   21.4730 O   0  0  0  0  0  0  0  0  0  0  0  0
  -21.6850   -6.2200   22.6280 C   0  0  0  0  0  0  0  0  0  0  0  0
  -21.2570   -6.7660   23.8580 C   0  0  0  0  0  3  0  0  0  0  0  0
  -21.1910   -5.9520   25.0050 C   0  0  0  0  0  3  0  0  0  0  0  0
  -21.5420   -4.5890   24.9240 C   0  0  0  0  0  0  0  0  0  0  0  0
  -21.9620   -4.0420   23.6990 C   0  0  0  0  0  3  0  0  0  0  0  0
  -22.0310   -4.8560   22.5530 C   0  0  0  0  0  0  0  0  0  0  0  0
  -22.4170   -4.3210   21.3710 F   0  0  0  0  0  0  0  0  0  0  0  0
  -21.4730   -3.8030   26.0240 F   0  0  0  0  0  0  0  0  0  0  0  0
  -22.7150  -13.6120   21.2310 C   0  0  0  0  0  0  0  0  0  0  0  0
  -22.0450  -12.8870   22.1190 N   0  0  0  0  0  0  0  0  0  0  0  0
  -22.2410  -14.6480   20.7640 O   0  0  0  0  0  0  0  0  0  0  0  0
  -22.4410  -12.0440   22.5120 H   0  0  0  0  0  0  0  0  0  0  0  0
  -21.1210  -13.1740   22.4090 H   0  0  0  0  0  0  0  0  0  0  0  0
  -25.2700  -15.3170   20.2650 N   0  0  0  0  0  0  0  0  0  0  0  0
  -24.4590  -15.9240   20.3410 H   0  0  0  0  0  0  0  0  0  0  0  0
  -26.0200  -15.7250   19.7240 H   0  0  0  0  0  0  0  0  0  0  0  0
  -31.6710  -17.5350   21.1770 C   0  0  0  0  0  2  0  0  0  0  0  0
  -32.0830  -18.6690   22.0330 N   0  0  0  0  0  4  0  0  0  0  0  0
  -31.8960  -19.5670   21.6270 H   0  0  0  0  0  0  0  0  0  0  0  0
  -33.0740  -18.6170   22.2050 H   0  0  0  0  0  0  0  0  0  0  0  0
  -31.6350  -18.6140   22.9310 H   0  0  0  0  0  0  0  0  0  0  0  0
  3  9  1  0
  3  1  1  0
  3  2  1  0
  4  1  1  0
  4  5  1  0
  4 54  1  0
  5  2  1  0
  5  7  1  0
  6  5  1  0
  8 10  2  0
  9  8  1  0
 11  9  1  0
 12  8  1  0
 12 13  1  0
 14 25  2  0
 15 13  1  0
 15 20  1  0
 16 24  1  0
 16 26  1  0
 17 23  1  0
 17 19  1  0
 18 24  1  0
 19 18  1  0
 20 19  2  0
 21 22  1  0
 21 15  2  0
 22 17  2  0
 23 16  1  0
 24 14  1  0
 26 28  2  0
 27 26  1  0
 29 27  1  0
 30 39  2  0
 30 35  1  0
 31 27  1  0
 31 35  1  0
 32 31  1  0
 33 34  1  0
 33 32  1  0
 34 30  1  0
 35 36  2  0
 36 37  1  0
 38 37  2  0
 39 38  1  0
 40 14  1  0
 40 41  1  0
 40 50  1  0
 41 44  1  0
 42 46  1  0
 42 41  1  0
 43 42  2  0
 46 45  1  0
 48 46  1  0
 48 49  1  0
 48 47  1  0
 50 53  1  1
 50 51  1  0
 52 50  1  0
 54 93  1  0
 55 63  1  0
 56 61  1  0
 57 58  1  0
 57 56  1  0
 59 58  1  0
 59 68  1  0
 59 60  1  0
 61 55  1  0
 61 60  1  0
 62 55  2  0
 63 64  1  0
 63 54  2  0
 65 66  2  0
 66 85  1  0
 67 66  1  0
 67 70  1  0
 68 69  1  0
 68 65  1  0
 69 67  2  0
 70 71  1  0
 71 72  2  0
 73 76  1  0
 73 72  1  0
 74 73  2  0
 75 74  1  0
 75 70  2  0
 76 77  1  0
 77 78  1  0
 78 79  2  0
 80 79  1  0
 80 84  1  0
 81 80  2  0
 82 77  2  0
 82 81  1  0
 83 82  1  0
 85 86  1  0
 86 89  1  0
 86 88  1  0
 87 85  2  0
 90 91  1  0
 90 65  1  0
 92 90  1  0
 93 94  1  0
 94 96  1  0
 94 97  1  0
 95 94  1  0
M  ISO  4  12 101  13 101  55 100  63 100
M  END
>  <TORSDO>  (22) 
F 21

>  <SCORE>  (22) 
-13.472

>  <name>  (22) 
21

>  <ligand_id>  (22) 
21

>  <original_smiles>  (22) 
[H]c1c([H])c([H])c2c(c1[H])C([H])([H])C([H])([H])C([H])([H])C2([H])N([H])C(=O)C1([H])N(C(=O)C([H])(N([H])C(=O)C([H])(N([H])C([H])([H])[H])C([H])([H])[H])C(C([H])([H])[H])(C([H])([H])[H])C([H])([H])[H])C([H])([H])c2c([H])c(OC([H])([H])C(=O)N([H])C3([H])C([H])([H])C([H])(C([H])(N([H])C(=O)N4C([H])([H])C([H])([H])C([H])([H])C([H])(n5nc(-c6c([H])c([H])c(Oc7c([H])c([H])c(F)c([H])c7F)c([H])c6[H])c(C(=O)N([H])[H])c5N([H])[H])C4([H])[H])C([H])([H])[N+]([H])([H])[H])[N+]([H])([H])C3([H])[H])c([H])c([H])c2C1([H])[H]

>  <smiles>  (22) 
[H]c1c([H])c([H])c2c(c1[H])C([H])([H])C([H])([H])C([H])([H])C2([H])N([H])C(=O)C1([H])N(C(=O)C([H])(N([H])C(=O)C([H])(N([H])C([H])([H])[H])C([H])([H])[H])C(C([H])([H])[H])(C([H])([H])[H])C([H])([H])[H])C([H])([H])c2c([H])c(OC([H])([H])C(=O)N([H])C3([H])C([H])([H])C([H])(C([H])(N([H])C(=O)N4C([H])([H])C([H])([H])C([H])([H])C([H])(n5nc(-c6c([H])c([H])c(Oc7c([H])c([H])c(F)c([H])c7F)c([H])c6[H])c(C(=O)N([H])[H])c5N([H])[H])C4([H])[H])C([H])([H])[N+]([H])([H])[H])[N+]([H])([H])C3([H])[H])c([H])c([H])c2C1([H])[H]

$$$$
22:0:0
     RDKit          3D

 96105  0  0  1  0  0  0  0  0999 V2000
  -27.0250  -21.9180   21.2100 C   0  0  0  0  0  2  0  0  0  0  0  0
  -28.3040  -22.6420   21.6310 C   0  0  0  0  0  2  0  0  0  0  0  0
  -28.7990  -21.5670   19.5750 C   0  0  0  0  0  3  0  0  0  0  0  0
  -27.2700  -21.4150   19.7780 C   0  0  0  0  0  3  0  0  0  0  0  0
  -29.1290  -22.7770   20.4230 N   0  0  0  0  0  0  0  0  0  0  0  0
  -29.4530  -19.1750   18.7670 C   0  0  0  0  0  3  0  0  0  0  0  0
  -29.8150  -19.6210   21.0970 C   0  0  0  0  0  3  0  0  0  0  0  0
  -29.7710  -17.7950   18.9670 C   0  0  0  0  0  3  0  0  0  0  0  0
  -30.1190  -18.2390   21.3020 C   0  0  0  0  0  3  0  0  0  0  0  0
  -29.4330  -20.1310   19.8260 C   0  0  0  0  0  0  0  0  0  0  0  0
  -30.0850  -17.2820   20.2530 C   0  0  0  0  0  0  0  0  0  0  0  0
  -30.8770  -14.8380   19.9630 C   0  0  0  0  0  0  0  0  0  0  0  0
  -30.6140  -12.5820   18.9400 C   0  0  0  0  0  2  0  0  0  0  0  0
  -29.6110  -12.7190   17.7720 C   0  0  0  0  0  2  0  0  0  0  0  0
  -28.1600  -12.5790   18.2740 C   0  0  0  0  0  2  0  0  0  0  0  0
  -27.8780  -13.4360   19.5390 C   0  0  0  0  0  3  0  0  0  0  0  0
  -28.9930  -13.2750   20.5960 C   0  0  0  0  0  2  0  0  0  0  0  0
  -30.2730  -13.6070   19.9500 N   0  0  0  0  0  0  0  0  0  0  0  0
  -31.9690  -15.0240   19.4150 O   0  0  0  0  0  0  0  0  0  0  0  0
  -30.1790  -15.8540   20.5540 N   0  0  0  0  0  0  0  0  0  0  0  0
  -29.4620  -15.5120   21.1770 H   0  0  0  0  0  0  0  0  0  0  0  0
  -25.5480  -14.0490   20.4330 C   0  0  0  0  0  0  0  0  0  0  0  0
  -24.4910  -13.2780   20.8420 C   0  0  0  0  0  0  0  0  0  0  0  0
  -24.9220  -11.9210   20.7260 C   0  0  0  0  0  0  0  0  0  0  0  0
  -26.5560  -13.1620   20.0950 N   0  0  0  0  0  0  0  0  0  0  0  0
  -26.1880  -11.8750   20.3280 N   0  0  0  0  0  0  0  0  0  0  0  0
  -24.1870  -10.6660   20.9160 C   0  0  0  0  0  0  0  0  0  0  0  0
  -24.5990   -9.7060   21.8660 C   0  0  0  0  0  3  0  0  0  0  0  0
  -23.8640   -8.5120   22.0450 C   0  0  0  0  0  3  0  0  0  0  0  0
  -22.7030   -8.2730   21.2720 C   0  0  0  0  0  0  0  0  0  0  0  0
  -22.3090   -9.2240   20.3130 C   0  0  0  0  0  3  0  0  0  0  0  0
  -23.0460  -10.4070   20.1320 C   0  0  0  0  0  3  0  0  0  0  0  0
  -21.9380   -7.1340   21.3570 O   0  0  0  0  0  0  0  0  0  0  0  0
  -21.7810   -6.4620   22.5430 C   0  0  0  0  0  0  0  0  0  0  0  0
  -21.2060   -7.0740   23.6790 C   0  0  0  0  0  3  0  0  0  0  0  0
  -21.0020   -6.3230   24.8540 C   0  0  0  0  0  3  0  0  0  0  0  0
  -21.3610   -4.9630   24.8910 C   0  0  0  0  0  0  0  0  0  0  0  0
  -21.9280   -4.3500   23.7600 C   0  0  0  0  0  3  0  0  0  0  0  0
  -22.1350   -5.0980   22.5870 C   0  0  0  0  0  0  0  0  0  0  0  0
  -22.6630   -4.4990   21.4930 F   0  0  0  0  0  0  0  0  0  0  0  0
  -21.1550   -4.2380   26.0170 F   0  0  0  0  0  0  0  0  0  0  0  0
  -23.1250  -13.7700   21.2240 C   0  0  0  0  0  0  0  0  0  0  0  0
  -22.4380  -13.0550   22.1100 N   0  0  0  0  0  0  0  0  0  0  0  0
  -22.6730  -14.8200   20.7710 O   0  0  0  0  0  0  0  0  0  0  0  0
  -22.8100  -12.2020   22.5020 H   0  0  0  0  0  0  0  0  0  0  0  0
  -21.5220  -13.3650   22.4000 H   0  0  0  0  0  0  0  0  0  0  0  0
  -25.7240  -15.4230   20.3040 N   0  0  0  0  0  0  0  0  0  0  0  0
  -24.9720  -16.0720   20.5060 H   0  0  0  0  0  0  0  0  0  0  0  0
  -26.5560  -15.8800   19.9480 H   0  0  0  0  0  0  0  0  0  0  0  0
  -26.4920  -22.1800   18.7840 N   0  0  0  0  0  4  0  0  0  0  0  0
  -26.6320  -23.1680   18.8930 H   0  0  0  0  0  0  0  0  0  0  0  0
  -25.5100  -21.9860   18.8850 H   0  0  0  0  0  0  0  0  0  0  0  0
  -26.7690  -21.9160   17.8540 H   0  0  0  0  0  0  0  0  0  0  0  0
  -28.9450  -24.1270   19.7490 C   0  0  0  0  0  3  0  0  0  0  0  0
  -28.5830  -25.4490   20.5900 C   0  0  0  0  0  3  0  0  0  0  0  0
  -28.5910  -26.7710   19.9390 O   0  0  0  0  0  0  0  0  0  0  0  0
  -24.6950  -31.9160   23.1740 C   0  0  0  0  0  0  0  0  0  0  0  0
  -27.4250  -27.5410   19.9910 C   0  0  0  0  0  0  0  0  0  0  0  0
  -23.5130  -30.5210   21.5070 C   0  0  0  0  0  3  0  0  0  0  0  0
  -24.9970  -29.0370   20.0430 C   0  0  0  0  0  0  0  0  0  0  0  0
  -26.0290  -30.9310   21.2990 C   0  0  0  0  0  2  0  0  0  0  0  0
  -26.1490  -29.5650   20.6380 C   0  0  0  0  0  0  0  0  0  0  0  0
  -27.3660  -28.8240   20.6110 C   0  0  0  0  0  3  0  0  0  0  0  0
  -26.2510  -27.0530   19.3800 C   0  0  0  0  0  3  0  0  0  0  0  0
  -25.0460  -27.7850   19.4080 C   0  0  0  0  0  3  0  0  0  0  0  0
  -23.7350  -29.8720   20.1120 C   0  0  0  0  0  2  0  0  0  0  0  0
  -24.7650  -31.1380   22.0530 N   0  0  0  0  0  0  0  0  0  0  0  0
  -23.6130  -32.1470   23.7310 O   0  0  0  0  0  0  0  0  0  0  0  0
  -22.8890  -29.4680   22.4520 C   0  0  0  0  0  0  0  0  0  0  0  0
  -21.5650  -29.2690   22.3440 N   0  0  0  0  0  0  0  0  0  0  0  0
  -23.5950  -28.8330   23.2410 O   0  0  0  0  0  0  0  0  0  0  0  0
  -21.0560  -29.8380   21.6840 H   0  0  0  0  0  0  0  0  0  0  0  0
  -18.2200  -28.0020   22.8650 C   0  0  0  0  0  0  0  0  0  0  0  0
  -20.7770  -28.2970   23.1020 C   0  0  0  0  0  3  0  0  0  0  0  0
  -20.8910  -26.8860   22.4800 C   0  0  0  0  0  2  0  0  0  0  0  0
  -19.7770  -26.5770   21.4730 C   0  0  0  0  0  2  0  0  0  0  0  0
  -18.4070  -26.6770   22.1450 C   0  0  0  0  0  2  0  0  0  0  0  0
  -19.3320  -28.7700   23.2990 C   0  0  0  0  0  0  0  0  0  0  0  0
  -19.1010  -30.0130   23.9300 C   0  0  0  0  0  3  0  0  0  0  0  0
  -17.7890  -30.4820   24.1360 C   0  0  0  0  0  3  0  0  0  0  0  0
  -16.6920  -29.7100   23.7150 C   0  0  0  0  0  3  0  0  0  0  0  0
  -16.9090  -28.4730   23.0830 C   0  0  0  0  0  3  0  0  0  0  0  0
  -25.9700  -32.5630   23.8040 C   0  0  0  0  0  3  0  0  0  0  0  0
  -26.5020  -31.7820   25.0690 C   0  0  1  0  0  0  0  0  0  0  0  0
  -25.4140  -31.5100   26.1330 C   0  0  0  0  0  1  0  0  0  0  0  0
  -27.1080  -30.4230   24.6520 C   0  0  0  0  0  1  0  0  0  0  0  0
  -27.6420  -32.5860   25.7390 C   0  0  0  0  0  1  0  0  0  0  0  0
  -25.6410  -33.9530   24.1500 N   0  0  0  0  0  0  0  0  0  0  0  0
  -25.9580  -35.0180   23.4000 C   0  0  0  0  0  0  0  0  0  0  0  0
  -26.6280  -34.9330   22.3670 O   0  0  0  0  0  0  0  0  0  0  0  0
  -25.0520  -34.0920   24.9570 H   0  0  0  0  0  0  0  0  0  0  0  0
  -24.2070  -36.7880   23.0560 C   0  0  0  0  0  1  0  0  0  0  0  0
  -25.4510  -36.3940   23.8690 C   0  0  0  0  0  3  0  0  0  0  0  0
  -27.5670  -37.3020   24.7230 C   0  0  0  0  0  1  0  0  0  0  0  0
  -26.4690  -37.4620   23.7710 N   0  0  0  0  0  0  0  0  0  0  0  0
  -26.0510  -38.3760   23.9220 H   0  0  0  0  0  0  0  0  0  0  0  0
  1  2  1  0
  3  4  1  0
  3 10  1  0
  3  5  1  0
  4 50  1  0
  4  1  1  0
  5  2  1  0
  6  8  2  0
  6 10  1  0
  7  9  1  0
  8 11  1  0
 10  7  2  0
 11 20  1  0
 11  9  2  0
 12 20  1  0
 13 18  1  0
 14 15  1  0
 14 13  1  0
 16 15  1  0
 16 25  1  0
 16 17  1  0
 18 12  1  0
 18 17  1  0
 19 12  2  0
 20 21  1  0
 22 23  2  0
 23 42  1  0
 24 23  1  0
 24 27  1  0
 25 26  1  0
 25 22  1  0
 26 24  2  0
 27 28  1  0
 28 29  2  0
 30 33  1  0
 30 29  1  0
 31 30  2  0
 32 31  1  0
 32 27  2  0
 33 34  1  0
 34 39  2  0
 34 35  1  0
 35 36  2  0
 36 37  1  0
 37 41  1  0
 38 37  2  0
 39 38  1  0
 40 39  1  0
 42 43  1  0
 43 46  1  0
 43 45  1  0
 44 42  2  0
 47 22  1  0
 47 48  1  0
 49 47  1  0
 50 52  1  0
 50 51  1  0
 53 50  1  0
 54  5  1  0
 54 55  2  0
 56 58  1  0
 56 55  1  0
 57 68  2  0
 58 63  1  0
 59 67  1  0
 59 69  1  0
 60 66  1  0
 60 62  1  0
 61 67  1  0
 62 61  1  0
 63 62  2  0
 64 65  1  0
 64 58  2  0
 65 60  2  0
 66 59  1  0
 67 57  1  0
 69 71  2  0
 70 69  1  0
 72 70  1  0
 73 82  2  0
 73 78  1  0
 74 70  1  0
 74 78  1  0
 75 74  1  0
 76 77  1  0
 76 75  1  0
 77 73  1  0
 78 79  2  0
 79 80  1  0
 81 80  2  0
 82 81  1  0
 83 57  1  0
 83 88  1  0
 83 84  1  0
 84 87  1  1
 84 85  1  0
 86 84  1  0
 88 91  1  0
 89 93  1  0
 89 88  1  0
 90 89  2  0
 93 92  1  0
 95 93  1  0
 95 96  1  0
 95 94  1  0
M  ISO  4  12 100  20 100  55 101  56 101
M  END
>  <TORSDO>  (23) 
F 20

>  <SCORE>  (23) 
-13.035

>  <name>  (23) 
22

>  <ligand_id>  (23) 
22

>  <original_smiles>  (23) 
[H]c1c([H])c([H])c2c(c1[H])C([H])([H])C([H])([H])C([H])([H])C2([H])N([H])C(=O)C1([H])N(C(=O)C([H])(N([H])C(=O)C([H])(N([H])C([H])([H])[H])C([H])([H])[H])C(C([H])([H])[H])(C([H])([H])[H])C([H])([H])[H])C([H])([H])c2c([H])c(OC([H])([H])C([H])([H])N3C([H])([H])C([H])([H])C([H])([N+]([H])([H])[H])C3([H])c3c([H])c([H])c(N([H])C(=O)N4C([H])([H])C([H])([H])C([H])([H])C([H])(n5nc(-c6c([H])c([H])c(Oc7c([H])c([H])c(F)c([H])c7F)c([H])c6[H])c(C(=O)N([H])[H])c5N([H])[H])C4([H])[H])c([H])c3[H])c([H])c([H])c2C1([H])[H]

>  <smiles>  (23) 
[H]c1c([H])c([H])c2c(c1[H])C([H])([H])C([H])([H])C([H])([H])C2([H])N([H])C(=O)C1([H])N(C(=O)C([H])(N([H])C(=O)C([H])(N([H])C([H])([H])[H])C([H])([H])[H])C(C([H])([H])[H])(C([H])([H])[H])C([H])([H])[H])C([H])([H])c2c([H])c(OC([H])([H])C([H])([H])N3C([H])([H])C([H])([H])C([H])([N+]([H])([H])[H])C3([H])c3c([H])c([H])c(N([H])C(=O)N4C([H])([H])C([H])([H])C([H])([H])C([H])(n5nc(-c6c([H])c([H])c(Oc7c([H])c([H])c(F)c([H])c7F)c([H])c6[H])c(C(=O)N([H])[H])c5N([H])[H])C4([H])[H])c([H])c3[H])c([H])c([H])c2C1([H])[H]

$$$$
23:0:0
     RDKit          3D

 95104  0  0  1  0  0  0  0  0999 V2000
  -29.9100  -21.6980   18.2820 C   0  0  0  0  0  2  0  0  0  0  0  0
  -28.9270  -22.4560   20.4330 C   0  0  0  0  0  2  0  0  0  0  0  0
  -30.2860  -23.1580   17.9670 C   0  0  0  0  0  2  0  0  0  0  0  0
  -29.2170  -23.9860   20.0400 C   0  0  0  0  0  3  0  0  0  0  0  0
  -29.7880  -21.4550   19.7250 N   0  0  0  0  0  0  0  0  0  0  0  0
  -29.3180  -24.1000   18.5670 N   0  0  0  0  0  4  0  0  0  0  0  0
  -28.4160  -23.9290   18.1500 H   0  0  0  0  0  0  0  0  0  0  0  0
  -29.5900  -25.0410   18.3270 H   0  0  0  0  0  0  0  0  0  0  0  0
  -28.7330  -19.3180   20.5560 C   0  0  0  0  0  3  0  0  0  0  0  0
  -28.7790  -17.9030   20.7400 C   0  0  0  0  0  3  0  0  0  0  0  0
  -31.0500  -17.8520   19.9610 C   0  0  0  0  0  3  0  0  0  0  0  0
  -29.8370  -20.0450   20.0390 C   0  0  0  0  0  0  0  0  0  0  0  0
  -29.9270  -17.1230   20.4280 C   0  0  0  0  0  0  0  0  0  0  0  0
  -31.0070  -19.2660   19.7780 C   0  0  0  0  0  0  0  0  0  0  0  0
  -32.1310  -19.8800   19.3320 F   0  0  0  0  0  0  0  0  0  0  0  0
  -30.6370  -14.6390   20.1200 C   0  0  0  0  0  0  0  0  0  0  0  0
  -30.3620  -12.4430   18.9910 C   0  0  0  0  0  2  0  0  0  0  0  0
  -29.3550  -12.6280   17.8320 C   0  0  0  0  0  2  0  0  0  0  0  0
  -27.9050  -12.4620   18.3290 C   0  0  0  0  0  2  0  0  0  0  0  0
  -27.6200  -13.2770   19.6190 C   0  0  0  0  0  3  0  0  0  0  0  0
  -28.7330  -13.0640   20.6710 C   0  0  0  0  0  2  0  0  0  0  0  0
  -30.0150  -13.4200   20.0430 N   0  0  0  0  0  0  0  0  0  0  0  0
  -31.7710  -14.8100   19.6620 O   0  0  0  0  0  0  0  0  0  0  0  0
  -29.8650  -15.6680   20.5940 N   0  0  0  0  0  0  0  0  0  0  0  0
  -29.0030  -15.3330   20.9940 H   0  0  0  0  0  0  0  0  0  0  0  0
  -25.2640  -13.8680   20.4610 C   0  0  0  0  0  0  0  0  0  0  0  0
  -24.2140  -13.0890   20.8640 C   0  0  0  0  0  0  0  0  0  0  0  0
  -24.6710  -11.7380   20.7820 C   0  0  0  0  0  0  0  0  0  0  0  0
  -26.2940  -12.9910   20.1600 N   0  0  0  0  0  0  0  0  0  0  0  0
  -25.9450  -11.7040   20.4120 N   0  0  0  0  0  0  0  0  0  0  0  0
  -23.9510  -10.4720   20.9810 C   0  0  0  0  0  0  0  0  0  0  0  0
  -24.4040   -9.5020   21.9010 C   0  0  0  0  0  3  0  0  0  0  0  0
  -23.6840   -8.3020   22.0870 C   0  0  0  0  0  3  0  0  0  0  0  0
  -22.4990   -8.0650   21.3520 C   0  0  0  0  0  0  0  0  0  0  0  0
  -22.0660   -9.0230   20.4180 C   0  0  0  0  0  3  0  0  0  0  0  0
  -22.7860  -10.2150   20.2310 C   0  0  0  0  0  3  0  0  0  0  0  0
  -21.7490   -6.9170   21.4480 O   0  0  0  0  0  0  0  0  0  0  0  0
  -21.6960   -6.1870   22.6080 C   0  0  0  0  0  0  0  0  0  0  0  0
  -21.2120   -6.7370   23.8150 C   0  0  0  0  0  3  0  0  0  0  0  0
  -21.1110   -5.9300   24.9660 C   0  0  0  0  0  3  0  0  0  0  0  0
  -21.4830   -4.5740   24.9100 C   0  0  0  0  0  0  0  0  0  0  0  0
  -21.9610   -4.0230   23.7080 C   0  0  0  0  0  3  0  0  0  0  0  0
  -22.0640   -4.8270   22.5590 C   0  0  0  0  0  0  0  0  0  0  0  0
  -22.5050   -4.2860   21.3970 F   0  0  0  0  0  0  0  0  0  0  0  0
  -21.3800   -3.7970   26.0130 F   0  0  0  0  0  0  0  0  0  0  0  0
  -22.8320  -13.5620   21.2140 C   0  0  0  0  0  0  0  0  0  0  0  0
  -22.1460  -12.8470   22.0980 N   0  0  0  0  0  0  0  0  0  0  0  0
  -22.3730  -14.6000   20.7390 O   0  0  0  0  0  0  0  0  0  0  0  0
  -22.5330  -12.0090   22.5030 H   0  0  0  0  0  0  0  0  0  0  0  0
  -21.2200  -13.1450   22.3750 H   0  0  0  0  0  0  0  0  0  0  0  0
  -25.4240  -15.2420   20.3050 N   0  0  0  0  0  0  0  0  0  0  0  0
  -24.6610  -15.8930   20.4630 H   0  0  0  0  0  0  0  0  0  0  0  0
  -26.2460  -15.6850   19.9150 H   0  0  0  0  0  0  0  0  0  0  0  0
  -28.2130  -25.0880   20.5950 C   0  0  0  0  0  2  0  0  0  0  0  0
  -28.4370  -26.5080   20.2230 O   0  0  0  0  0  0  0  0  0  0  0  0
  -24.6390  -31.8780   23.1990 C   0  0  0  0  0  0  0  0  0  0  0  0
  -27.3150  -27.3460   20.1810 C   0  0  0  0  0  0  0  0  0  0  0  0
  -23.4640  -30.4750   21.5430 C   0  0  0  0  0  3  0  0  0  0  0  0
  -24.9420  -28.9360   20.1370 C   0  0  0  0  0  0  0  0  0  0  0  0
  -26.0030  -30.8100   21.3930 C   0  0  0  0  0  2  0  0  0  0  0  0
  -26.0990  -29.4330   20.7490 C   0  0  0  0  0  0  0  0  0  0  0  0
  -27.2900  -28.6500   20.7610 C   0  0  0  0  0  3  0  0  0  0  0  0
  -26.1400  -26.9070   19.5300 C   0  0  0  0  0  3  0  0  0  0  0  0
  -24.9630  -27.6780   19.5180 C   0  0  0  0  0  3  0  0  0  0  0  0
  -23.6990  -29.8010   20.1670 C   0  0  0  0  0  2  0  0  0  0  0  0
  -24.7200  -31.0710   22.1020 N   0  0  0  0  0  0  0  0  0  0  0  0
  -23.5480  -32.1510   23.7190 O   0  0  0  0  0  0  0  0  0  0  0  0
  -22.7930  -29.4550   22.4930 C   0  0  0  0  0  0  0  0  0  0  0  0
  -21.4680  -29.2820   22.3560 N   0  0  0  0  0  0  0  0  0  0  0  0
  -23.4640  -28.8220   23.3120 O   0  0  0  0  0  0  0  0  0  0  0  0
  -20.9850  -29.8460   21.6690 H   0  0  0  0  0  0  0  0  0  0  0  0
  -18.0780  -28.1210   22.8500 C   0  0  0  0  0  0  0  0  0  0  0  0
  -20.6400  -28.3440   23.1160 C   0  0  0  0  0  3  0  0  0  0  0  0
  -20.7220  -26.9200   22.5220 C   0  0  0  0  0  2  0  0  0  0  0  0
  -19.6150  -26.6240   21.5070 C   0  0  0  0  0  2  0  0  0  0  0  0
  -18.2360  -26.7780   22.1560 C   0  0  0  0  0  2  0  0  0  0  0  0
  -19.2070  -28.8630   23.2870 C   0  0  0  0  0  0  0  0  0  0  0  0
  -19.0050  -30.1210   23.8950 C   0  0  0  0  0  3  0  0  0  0  0  0
  -17.7070  -30.6360   24.0720 C   0  0  0  0  0  3  0  0  0  0  0  0
  -16.5930  -29.8890   23.6520 C   0  0  0  0  0  3  0  0  0  0  0  0
  -16.7790  -28.6330   23.0470 C   0  0  0  0  0  3  0  0  0  0  0  0
  -25.9110  -32.5160   23.8400 C   0  0  0  0  0  3  0  0  0  0  0  0
  -25.5910  -33.9130   24.1640 N   0  0  0  0  0  0  0  0  0  0  0  0
  -25.9230  -34.9660   23.4070 C   0  0  0  0  0  0  0  0  0  0  0  0
  -26.6010  -34.8650   22.3800 O   0  0  0  0  0  0  0  0  0  0  0  0
  -24.9900  -34.0650   24.9610 H   0  0  0  0  0  0  0  0  0  0  0  0
  -24.1960  -36.7560   23.0270 C   0  0  0  0  0  1  0  0  0  0  0  0
  -25.4250  -36.3530   23.8580 C   0  0  0  0  0  3  0  0  0  0  0  0
  -27.5390  -37.2460   24.7320 C   0  0  0  0  0  1  0  0  0  0  0  0
  -26.4560  -37.4100   23.7660 N   0  0  0  0  0  0  0  0  0  0  0  0
  -26.0430  -38.3270   23.9060 H   0  0  0  0  0  0  0  0  0  0  0  0
  -26.4110  -31.7480   25.1250 C   0  0  1  0  0  0  0  0  0  0  0  0
  -25.3030  -31.5040   26.1760 C   0  0  0  0  0  1  0  0  0  0  0  0
  -27.0070  -30.3730   24.7430 C   0  0  0  0  0  1  0  0  0  0  0  0
  -27.5480  -32.5480   25.8030 C   0  0  0  0  0  1  0  0  0  0  0  0
  1  5  1  0
  3  1  1  0
  3  6  1  0
  4  2  1  0
  4 54  1  0
  5 12  1  0
  5  2  1  0
  6  4  1  0
  7  6  1  0
  8  6  1  0
  9 10  1  0
 11 13  1  0
 12  9  2  0
 13 24  1  0
 13 10  2  0
 14 11  2  0
 14 12  1  0
 15 14  1  0
 16 24  1  0
 17 22  1  0
 18 19  1  0
 18 17  1  0
 20 19  1  0
 20 29  1  0
 20 21  1  0
 22 16  1  0
 22 21  1  0
 23 16  2  0
 24 25  1  0
 26 27  2  0
 27 46  1  0
 28 27  1  0
 28 31  1  0
 29 30  1  0
 29 26  1  0
 30 28  2  0
 31 32  1  0
 32 33  2  0
 34 37  1  0
 34 33  1  0
 35 34  2  0
 36 35  1  0
 36 31  2  0
 37 38  1  0
 38 39  1  0
 39 40  2  0
 41 40  1  0
 41 45  1  0
 42 41  2  0
 43 38  2  0
 43 42  1  0
 44 43  1  0
 46 47  1  0
 47 50  1  0
 47 49  1  0
 48 46  2  0
 51 26  1  0
 51 52  1  0
 53 51  1  0
 55 54  1  0
 56 67  2  0
 57 55  1  0
 57 62  1  0
 58 66  1  0
 58 68  1  0
 59 65  1  0
 59 61  1  0
 60 66  1  0
 61 62  2  0
 61 60  1  0
 63 57  2  0
 64 63  1  0
 64 59  2  0
 65 58  1  0
 66 56  1  0
 68 70  2  0
 69 68  1  0
 71 69  1  0
 72 81  2  0
 72 77  1  0
 73 69  1  0
 73 77  1  0
 74 73  1  0
 75 76  1  0
 75 74  1  0
 76 72  1  0
 77 78  2  0
 78 79  1  0
 80 79  2  0
 81 80  1  0
 82 56  1  0
 82 83  1  0
 82 92  1  0
 83 86  1  0
 84 88  1  0
 84 83  1  0
 85 84  2  0
 88 87  1  0
 90 88  1  0
 90 91  1  0
 90 89  1  0
 92 95  1  1
 92 93  1  0
 94 92  1  0
M  ISO  4  16 100  24 100  54 101  55 101
M  END
>  <TORSDO>  (24) 
F 18

>  <SCORE>  (24) 
-14.699

>  <name>  (24) 
23

>  <ligand_id>  (24) 
23

>  <original_smiles>  (24) 
[H]c1c([H])c([H])c2c(c1[H])C([H])([H])C([H])([H])C([H])([H])C2([H])N([H])C(=O)C1([H])N(C(=O)C([H])(N([H])C(=O)C([H])(N([H])C([H])([H])[H])C([H])([H])[H])C(C([H])([H])[H])(C([H])([H])[H])C([H])([H])[H])C([H])([H])c2c([H])c(OC([H])([H])C3([H])C([H])([H])N(c4c([H])c([H])c(N([H])C(=O)N5C([H])([H])C([H])([H])C([H])([H])C([H])(n6nc(-c7c([H])c([H])c(Oc8c([H])c([H])c(F)c([H])c8F)c([H])c7[H])c(C(=O)N([H])[H])c6N([H])[H])C5([H])[H])c([H])c4F)C([H])([H])C([H])([H])[N+]3([H])[H])c([H])c([H])c2C1([H])[H]

>  <smiles>  (24) 
[H]c1c([H])c([H])c2c(c1[H])C([H])([H])C([H])([H])C([H])([H])C2([H])N([H])C(=O)C1([H])N(C(=O)C([H])(N([H])C(=O)C([H])(N([H])C([H])([H])[H])C([H])([H])[H])C(C([H])([H])[H])(C([H])([H])[H])C([H])([H])[H])C([H])([H])c2c([H])c(OC([H])([H])C3([H])C([H])([H])N(c4c([H])c([H])c(N([H])C(=O)N5C([H])([H])C([H])([H])C([H])([H])C([H])(n6nc(-c7c([H])c([H])c(Oc8c([H])c([H])c(F)c([H])c8F)c([H])c7[H])c(C(=O)N([H])[H])c6N([H])[H])C5([H])[H])c([H])c4F)C([H])([H])C([H])([H])[N+]3([H])[H])c([H])c([H])c2C1([H])[H]

$$$$
24:0:0
     RDKit          3D

 96106  0  0  1  0  0  0  0  0999 V2000
  -29.9550  -21.2190   19.6370 C   0  0  0  0  0  0  0  0  0  0  0  0
  -30.3300  -20.7380   20.8620 N   0  0  0  0  0  0  0  0  0  0  0  0
  -30.2310  -20.6420   18.5800 O   0  0  0  0  0  0  0  0  0  0  0  0
  -32.3280  -15.3160   19.9270 C   0  0  0  0  0  0  0  0  0  0  0  0
  -31.9860  -13.0500   18.9760 C   0  0  0  0  0  2  0  0  0  0  0  0
  -31.0200  -13.0970   17.7750 C   0  0  0  0  0  2  0  0  0  0  0  0
  -29.5570  -12.9710   18.2440 C   0  0  0  0  0  2  0  0  0  0  0  0
  -29.2360  -13.9250   19.4200 C   0  0  0  0  0  3  0  0  0  0  0  0
  -30.3210  -13.8070   20.5240 C   0  0  0  0  0  2  0  0  0  0  0  0
  -31.6060  -14.1460   19.8990 N   0  0  0  0  0  0  0  0  0  0  0  0
  -33.4810  -15.3060   19.4810 O   0  0  0  0  0  0  0  0  0  0  0  0
  -32.3210  -19.0080   20.7220 C   0  0  0  0  0  2  0  0  0  0  0  0
  -29.9170  -18.2780   20.6070 C   0  0  0  0  0  2  0  0  0  0  0  0
  -32.4440  -17.8000   19.7450 C   0  0  0  0  0  2  0  0  0  0  0  0
  -30.4610  -16.8540   20.8630 C   0  0  0  0  0  2  0  0  0  0  0  0
  -30.8670  -19.3620   21.1430 C   0  0  0  0  0  3  0  0  0  0  0  0
  -31.7390  -16.5490   20.1760 N   0  0  0  0  0  0  0  0  0  0  0  0
  -26.9180  -14.6460   20.2730 C   0  0  0  0  0  0  0  0  0  0  0  0
  -25.8220  -13.9210   20.6530 C   0  0  0  0  0  0  0  0  0  0  0  0
  -26.1970  -12.5480   20.5270 C   0  0  0  0  0  0  0  0  0  0  0  0
  -27.8940  -13.7160   19.9480 N   0  0  0  0  0  0  0  0  0  0  0  0
  -27.4660  -12.4470   20.1590 N   0  0  0  0  0  0  0  0  0  0  0  0
  -25.4040  -11.3220   20.6780 C   0  0  0  0  0  0  0  0  0  0  0  0
  -25.6880  -10.3810   21.6910 C   0  0  0  0  0  3  0  0  0  0  0  0
  -24.9010   -9.2170   21.8260 C   0  0  0  0  0  3  0  0  0  0  0  0
  -23.8180   -8.9870   20.9470 C   0  0  0  0  0  0  0  0  0  0  0  0
  -23.5540   -9.9170   19.9250 C   0  0  0  0  0  3  0  0  0  0  0  0
  -24.3420  -11.0720   19.7880 C   0  0  0  0  0  3  0  0  0  0  0  0
  -23.0140   -7.8750   20.9880 O   0  0  0  0  0  0  0  0  0  0  0  0
  -22.5580   -7.3600   22.1750 C   0  0  0  0  0  0  0  0  0  0  0  0
  -21.7720   -8.1240   23.0650 C   0  0  0  0  0  3  0  0  0  0  0  0
  -21.2660   -7.5340   24.2410 C   0  0  0  0  0  3  0  0  0  0  0  0
  -21.5350   -6.1820   24.5220 C   0  0  0  0  0  0  0  0  0  0  0  0
  -22.3130   -5.4180   23.6340 C   0  0  0  0  0  3  0  0  0  0  0  0
  -22.8210   -6.0050   22.4620 C   0  0  0  0  0  0  0  0  0  0  0  0
  -23.5520   -5.2600   21.5990 F   0  0  0  0  0  0  0  0  0  0  0  0
  -21.0420   -5.6130   25.6470 F   0  0  0  0  0  0  0  0  0  0  0  0
  -24.4690  -14.4630   21.0130 C   0  0  0  0  0  0  0  0  0  0  0  0
  -23.7580  -13.7910   21.9110 N   0  0  0  0  0  0  0  0  0  0  0  0
  -24.0540  -15.5170   20.5340 O   0  0  0  0  0  0  0  0  0  0  0  0
  -24.1070  -12.9370   22.3220 H   0  0  0  0  0  0  0  0  0  0  0  0
  -22.8520  -14.1370   22.1960 H   0  0  0  0  0  0  0  0  0  0  0  0
  -27.1540  -16.0130   20.1570 N   0  0  0  0  0  0  0  0  0  0  0  0
  -26.4310  -16.7000   20.3370 H   0  0  0  0  0  0  0  0  0  0  0  0
  -28.0070  -16.4200   19.7990 H   0  0  0  0  0  0  0  0  0  0  0  0
  -27.6300  -22.0880   19.0710 C   0  0  0  0  0  2  0  0  0  0  0  0
  -28.1130  -22.5010   17.6800 C   0  0  0  0  0  2  0  0  0  0  0  0
  -29.0260  -22.4820   19.5650 C   0  0  0  0  0  3  0  0  0  0  0  0
  -29.1570  -23.3100   18.3340 N   0  0  2  0  0  4  0  0  0  0  0  0
  -30.0590  -23.1660   17.8990 H   0  0  0  0  0  0  0  0  0  0  0  0
  -28.7420  -24.7600   18.3700 C   0  0  0  0  0  3  0  0  0  0  0  0
  -29.5350  -25.7460   19.2730 C   0  0  0  0  0  3  0  0  0  0  0  0
  -29.2520  -27.1600   19.0720 O   0  0  0  0  0  0  0  0  0  0  0  0
  -24.8690  -31.0390   23.1940 C   0  0  0  0  0  0  0  0  0  0  0  0
  -27.9750  -27.6540   19.2810 C   0  0  0  0  0  0  0  0  0  0  0  0
  -23.7940  -29.7400   21.3880 C   0  0  0  0  0  3  0  0  0  0  0  0
  -25.3720  -28.7300   19.6600 C   0  0  0  0  0  0  0  0  0  0  0  0
  -26.2140  -30.5470   21.1500 C   0  0  0  0  0  2  0  0  0  0  0  0
  -26.4740  -29.3310   20.2810 C   0  0  0  0  0  0  0  0  0  0  0  0
  -27.7750  -28.8030   20.0880 C   0  0  0  0  0  3  0  0  0  0  0  0
  -26.8480  -27.0900   18.6410 C   0  0  0  0  0  3  0  0  0  0  0  0
  -25.5550  -27.6100   18.8360 C   0  0  0  0  0  3  0  0  0  0  0  0
  -24.0140  -29.3460   19.9040 C   0  0  0  0  0  2  0  0  0  0  0  0
  -24.9780  -30.4510   21.9690 N   0  0  0  0  0  0  0  0  0  0  0  0
  -23.7980  -31.0280   23.8180 O   0  0  0  0  0  0  0  0  0  0  0  0
  -23.3880  -28.4760   22.1800 C   0  0  0  0  0  0  0  0  0  0  0  0
  -22.1560  -27.9940   21.9490 N   0  0  0  0  0  0  0  0  0  0  0  0
  -24.1800  -27.9380   22.9590 O   0  0  0  0  0  0  0  0  0  0  0  0
  -21.5660  -28.4960   21.3010 H   0  0  0  0  0  0  0  0  0  0  0  0
  -19.2290  -25.8730   21.9770 C   0  0  0  0  0  0  0  0  0  0  0  0
  -21.5750  -26.7950   22.5530 C   0  0  0  0  0  3  0  0  0  0  0  0
  -22.1290  -25.5120   21.8900 C   0  0  0  0  0  2  0  0  0  0  0  0
  -21.2580  -25.0030   20.7380 C   0  0  0  0  0  2  0  0  0  0  0  0
  -19.8390  -24.6990   21.2310 C   0  0  0  0  0  2  0  0  0  0  0  0
  -20.0440  -26.8660   22.5830 C   0  0  0  0  0  0  0  0  0  0  0  0
  -19.4250  -27.9560   23.2340 C   0  0  0  0  0  3  0  0  0  0  0  0
  -18.0230  -28.0610   23.2860 C   0  0  0  0  0  3  0  0  0  0  0  0
  -17.2210  -27.0670   22.6980 C   0  0  0  0  0  3  0  0  0  0  0  0
  -17.8240  -25.9750   22.0480 C   0  0  0  0  0  3  0  0  0  0  0  0
  -26.0760  -31.7720   23.8590 C   0  0  0  0  0  3  0  0  0  0  0  0
  -26.6410  -31.0170   25.1250 C   0  0  1  0  0  0  0  0  0  0  0  0
  -25.5570  -30.6530   26.1660 C   0  0  0  0  0  1  0  0  0  0  0  0
  -27.3520  -29.7100   24.7080 C   0  0  0  0  0  1  0  0  0  0  0  0
  -27.7020  -31.8950   25.8270 C   0  0  0  0  0  1  0  0  0  0  0  0
  -25.6280  -33.1240   24.2180 N   0  0  0  0  0  0  0  0  0  0  0  0
  -25.8740  -34.2240   23.4930 C   0  0  0  0  0  0  0  0  0  0  0  0
  -26.5730  -34.2140   22.4770 O   0  0  0  0  0  0  0  0  0  0  0  0
  -25.0040  -33.2000   25.0080 H   0  0  0  0  0  0  0  0  0  0  0  0
  -23.9900  -35.8510   23.1400 C   0  0  0  0  0  1  0  0  0  0  0  0
  -25.2450  -35.5460   23.9730 C   0  0  0  0  0  3  0  0  0  0  0  0
  -27.2590  -36.6100   24.8880 C   0  0  0  0  0  1  0  0  0  0  0  0
  -26.1740  -36.6950   23.9140 N   0  0  0  0  0  0  0  0  0  0  0  0
  -25.6760  -37.5690   24.0670 H   0  0  0  0  0  0  0  0  0  0  0  0
  -28.8900  -21.7510   22.7130 C   0  0  0  0  0  2  0  0  0  0  0  0
  -30.0390  -21.1160   23.4540 C   0  0  0  0  0  2  0  0  0  0  0  0
  -30.2330  -21.6040   22.0220 C   0  0  0  0  0  3  0  0  0  0  0  0
  1  2  1  0
  2 96  1  0
  3  1  2  0
  4 17  1  0
  5 10  1  0
  6  7  1  0
  6  5  1  0
  8  7  1  0
  8 21  1  0
  8  9  1  0
 10  4  1  0
 10  9  1  0
 11  4  2  0
 12 16  1  0
 13 15  1  0
 13 16  1  0
 14 17  1  0
 14 12  1  0
 16  2  1  0
 17 15  1  0
 18 19  2  0
 19 38  1  0
 20 19  1  0
 20 23  1  0
 21 22  1  0
 21 18  1  0
 22 20  2  0
 23 24  1  0
 24 25  2  0
 26 29  1  0
 26 25  1  0
 27 26  2  0
 28 27  1  0
 28 23  2  0
 29 30  1  0
 30 35  2  0
 30 31  1  0
 31 32  2  0
 32 33  1  0
 33 37  1  0
 34 33  2  0
 35 34  1  0
 36 35  1  0
 38 39  1  0
 39 42  1  0
 39 41  1  0
 40 38  2  0
 43 18  1  0
 43 44  1  0
 45 43  1  0
 46 48  1  0
 47 49  1  0
 47 46  1  0
 48  1  1  0
 49 51  1  0
 49 48  1  0
 49 50  1  6
 51 52  2  0
 53 52  1  0
 53 55  1  0
 54 65  2  0
 55 60  1  0
 56 64  1  0
 56 66  1  0
 57 63  1  0
 57 59  1  0
 58 64  1  0
 59 58  1  0
 60 59  2  0
 61 62  1  0
 61 55  2  0
 62 57  2  0
 63 56  1  0
 64 54  1  0
 66 68  2  0
 67 66  1  0
 69 67  1  0
 70 79  2  0
 70 75  1  0
 71 67  1  0
 71 75  1  0
 72 71  1  0
 73 74  1  0
 73 72  1  0
 74 70  1  0
 75 76  2  0
 76 77  1  0
 78 77  2  0
 79 78  1  0
 80 54  1  0
 80 85  1  0
 80 81  1  0
 81 84  1  1
 81 82  1  0
 83 81  1  0
 85 88  1  0
 86 90  1  0
 86 85  1  0
 87 86  2  0
 90 89  1  0
 92 90  1  0
 92 93  1  0
 92 91  1  0
 94 95  1  0
 96 94  1  0
 96 95  1  0
M  ISO  4   4 100  17 100  52 101  53 101
M  END
>  <TORSDO>  (25) 
F 20

>  <SCORE>  (25) 
-8.760

>  <name>  (25) 
24

>  <ligand_id>  (25) 
24

>  <original_smiles>  (25) 
[H]c1c([H])c([H])c2c(c1[H])C([H])([H])C([H])([H])C([H])([H])C2([H])N([H])C(=O)C1([H])N(C(=O)C([H])(N([H])C(=O)C([H])(N([H])C([H])([H])[H])C([H])([H])[H])C(C([H])([H])[H])(C([H])([H])[H])C([H])([H])[H])C([H])([H])c2c([H])c(OC([H])([H])C([H])([H])[N+]3([H])C([H])([H])C([H])([H])C3([H])C(=O)N(C3([H])C([H])([H])C([H])([H])N(C(=O)N4C([H])([H])C([H])([H])C([H])([H])C([H])(n5nc(-c6c([H])c([H])c(Oc7c([H])c([H])c(F)c([H])c7F)c([H])c6[H])c(C(=O)N([H])[H])c5N([H])[H])C4([H])[H])C([H])([H])C3([H])[H])C3([H])C([H])([H])C3([H])[H])c([H])c([H])c2C1([H])[H]

>  <smiles>  (25) 
[H]c1c([H])c([H])c2c(c1[H])C([H])([H])C([H])([H])C([H])([H])C2([H])N([H])C(=O)C1([H])N(C(=O)C([H])(N([H])C(=O)C([H])(N([H])C([H])([H])[H])C([H])([H])[H])C(C([H])([H])[H])(C([H])([H])[H])C([H])([H])[H])C([H])([H])c2c([H])c(OC([H])([H])C([H])([H])[N+]3([H])C([H])([H])C([H])([H])C3([H])C(=O)N(C3([H])C([H])([H])C([H])([H])N(C(=O)N4C([H])([H])C([H])([H])C([H])([H])C([H])(n5nc(-c6c([H])c([H])c(Oc7c([H])c([H])c(F)c([H])c7F)c([H])c6[H])c(C(=O)N([H])[H])c5N([H])[H])C4([H])[H])C([H])([H])C3([H])[H])C3([H])C([H])([H])C3([H])[H])c([H])c([H])c2C1([H])[H]

$$$$
25:0:0
     RDKit          3D

 93 95  0  0  1  0  0  0  0  0999 V2000
  -22.2010  -24.8470   20.0930 C   0  0  0  0  0  2  0  0  0  0  0  0
  -21.7010  -26.2990   19.6210 C   0  0  0  0  0  2  0  0  0  0  0  0
  -23.7060  -25.1350   20.3180 C   0  0  0  0  0  1  0  0  0  0  0  0
  -22.7980  -27.0110   20.0820 N   0  0  0  0  0  2  0  0  0  0  0  0
  -23.4900  -27.3230   19.4150 H   0  0  0  0  0  0  0  0  0  0  0  0
  -26.1700  -22.6030   20.8280 C   0  0  0  0  0  3  0  0  0  0  0  0
  -27.0330  -21.1890   20.7750 C   0  0  0  0  0  3  0  0  0  0  0  0
  -26.1450  -20.7380   19.0280 C   0  0  0  0  0  3  0  0  0  0  0  0
  -25.0650  -23.4180   20.0070 C   0  0  0  0  0  3  0  0  0  0  0  0
  -27.2930  -19.9310   19.8140 C   0  0  0  0  0  3  0  0  0  0  0  0
  -25.2490  -22.1380   19.0720 C   0  0  0  0  0  0  0  0  0  0  0  0
  -24.3320  -22.1580   18.0660 F   0  0  0  0  0  0  0  0  0  0  0  0
  -29.4190  -16.8230   19.5990 C   0  0  0  0  0  0  0  0  0  0  0  0
  -30.3550  -14.2120   18.7980 C   0  0  0  0  0  2  0  0  0  0  0  0
  -29.6410  -13.2600   17.7570 C   0  0  0  0  0  2  0  0  0  0  0  0
  -28.3930  -12.5940   18.3450 C   0  0  0  0  0  2  0  0  0  0  0  0
  -27.7330  -13.6110   19.2840 C   0  0  0  0  0  3  0  0  0  0  0  0
  -28.6640  -14.2530   20.3230 C   0  0  0  0  0  2  0  0  0  0  0  0
  -29.4240  -15.2730   19.5560 N   0  0  0  0  0  0  0  0  0  0  0  0
  -30.6820  -16.9050   19.3460 O   0  0  0  0  0  0  0  0  0  0  0  0
  -28.1860  -18.1090   19.7800 N   0  0  0  0  0  2  0  0  0  0  0  0
  -27.4190  -17.4890   20.0050 H   0  0  0  0  0  0  0  0  0  0  0  0
  -25.5710  -14.0670   20.4160 C   0  0  0  0  0  0  0  0  0  0  0  0
  -24.5660  -13.2640   20.8500 C   0  0  0  0  0  0  0  0  0  0  0  0
  -24.9890  -11.9220   20.5940 C   0  0  0  0  0  0  0  0  0  0  0  0
  -26.5200  -13.2050   19.9140 N   0  0  0  0  0  0  0  0  0  0  0  0
  -26.2130  -11.9010   20.0840 N   0  0  0  0  0  0  0  0  0  0  0  0
  -24.2620  -10.6620   20.7310 C   0  0  0  0  0  0  0  0  0  0  0  0
  -24.7370   -9.6200   21.5560 C   0  0  0  0  0  3  0  0  0  0  0  0
  -24.0020   -8.4240   21.6820 C   0  0  0  0  0  3  0  0  0  0  0  0
  -22.7820   -8.2660   20.9840 C   0  0  0  0  0  0  0  0  0  0  0  0
  -22.3290   -9.2970   20.1430 C   0  0  0  0  0  3  0  0  0  0  0  0
  -23.0630  -10.4850   20.0130 C   0  0  0  0  0  3  0  0  0  0  0  0
  -22.0100   -7.1340   21.0310 O   0  0  0  0  0  0  0  0  0  0  0  0
  -21.9270   -6.3690   22.1650 C   0  0  0  0  0  0  0  0  0  0  0  0
  -21.5140   -6.9110   23.4020 C   0  0  0  0  0  3  0  0  0  0  0  0
  -21.3770   -6.0720   24.5250 C   0  0  0  0  0  3  0  0  0  0  0  0
  -21.6450   -4.6940   24.4120 C   0  0  0  0  0  0  0  0  0  0  0  0
  -22.0540   -4.1530   23.1810 C   0  0  0  0  0  3  0  0  0  0  0  0
  -22.1920   -4.9890   22.0600 C   0  0  0  0  0  0  0  0  0  0  0  0
  -22.5660   -4.4620   20.8680 F   0  0  0  0  0  0  0  0  0  0  0  0
  -21.5050   -3.8860   25.4890 F   0  0  0  0  0  0  0  0  0  0  0  0
  -23.2400  -13.7350   21.3580 C   0  0  0  0  0  0  0  0  0  0  0  0
  -22.6180  -12.9680   22.2440 N   0  0  0  0  0  0  0  0  0  0  0  0
  -22.7750  -14.8190   21.0030 O   0  0  0  0  0  0  0  0  0  0  0  0
  -23.0130  -12.0900   22.5450 H   0  0  0  0  0  0  0  0  0  0  0  0
  -21.7290  -13.2610   22.6280 H   0  0  0  0  0  0  0  0  0  0  0  0
  -25.7520  -15.4480   20.3590 N   0  0  0  0  0  0  0  0  0  0  0  0
  -24.9510  -16.0410   20.5490 H   0  0  0  0  0  0  0  0  0  0  0  0
  -26.3290  -15.8180   19.6170 H   0  0  0  0  0  0  0  0  0  0  0  0
  -22.1570  -28.7460   21.0720 C   0  0  0  0  0 15  0  0  0  0  0  0
  -23.5430  -29.4130   23.3420 C   0  0  0  0  0 15  0  0  0  0  0  0
  -25.5570  -28.5590   22.9530 O   0  0  0  0  0  1  0  0  0  0  0  0
  -24.7100  -31.6560   22.8920 C   0  0  0  0  0  0  0  0  0  0  0  0
  -26.3960  -27.8770   21.7780 C   0  0  0  0  0  3  0  0  0  0  0  0
  -24.2480  -29.2000   21.2390 C   0  0  0  0  0  2  0  0  0  0  0  0
  -25.5140  -28.9240   19.5760 C   0  0  0  0  0  3  0  0  0  0  0  0
  -26.1510  -30.9190   21.0340 C   0  0  0  0  0  2  0  0  0  0  0  0
  -26.5000  -29.5940   20.3740 C   0  0  0  0  0  3  0  0  0  0  0  0
  -27.2860  -28.7860   21.2050 C   0  0  0  0  0  2  0  0  0  0  0  0
  -26.0010  -26.9660   20.7060 C   0  0  0  0  0  2  0  0  0  0  0  0
  -25.5350  -27.5210   19.4930 C   0  0  0  0  0  2  0  0  0  0  0  0
  -24.1680  -29.4220   19.7640 C   0  0  0  0  0  2  0  0  0  0  0  0
  -24.9550  -30.6660   21.8380 N   0  0  0  0  0  0  0  0  0  0  0  0
  -23.5560  -32.0520   23.1850 O   0  0  0  0  0  0  0  0  0  0  0  0
  -23.6120  -27.1790   22.5470 C   0  0  0  0  0  2  0  0  0  0  0  0
  -22.1620  -27.2100   23.1690 N   0  0  0  0  0  0  0  0  0  0  0  0
  -24.1650  -26.7790   23.5150 O   0  0  0  0  0  1  0  0  0  0  0  0
  -22.3230  -26.5950   23.9600 H   0  0  0  0  0  0  0  0  0  0  0  0
  -17.9220  -27.9100   22.6880 C   0  0  0  0  0  0  0  0  0  0  0  0
  -20.5500  -27.3840   23.1950 C   0  0  0  0  0  3  0  0  0  0  0  0
  -20.1380  -25.9910   22.6380 C   0  0  0  0  0  2  0  0  0  0  0  0
  -19.1780  -26.2120   21.4660 C   0  0  0  0  0  2  0  0  0  0  0  0
  -17.8530  -26.5540   22.0560 C   0  0  0  0  0  2  0  0  0  0  0  0
  -19.2000  -28.4510   23.1680 C   0  0  0  0  0  0  0  0  0  0  0  0
  -19.0160  -29.7350   23.7700 C   0  0  0  0  0  3  0  0  0  0  0  0
  -17.7320  -30.4110   23.8520 C   0  0  0  0  0  3  0  0  0  0  0  0
  -16.5560  -29.8150   23.3730 C   0  0  0  0  0  3  0  0  0  0  0  0
  -16.6510  -28.5520   22.8120 C   0  0  0  0  0  3  0  0  0  0  0  0
  -25.7710  -32.2860   23.8890 C   0  0  0  0  0  3  0  0  0  0  0  0
  -26.0850  -31.5430   25.2760 C   0  0  1  0  0  0  0  0  0  0  0  0
  -24.9070  -31.4100   26.2910 C   0  0  0  0  0  1  0  0  0  0  0  0
  -26.7270  -30.1670   25.0530 C   0  0  0  0  0  1  0  0  0  0  0  0
  -27.1680  -32.3710   26.0050 C   0  0  0  0  0  1  0  0  0  0  0  0
  -25.3620  -33.6710   24.2390 N   0  0  0  0  0  0  0  0  0  0  0  0
  -25.8060  -34.7630   23.6090 C   0  0  0  0  0  0  0  0  0  0  0  0
  -26.5760  -34.6870   22.6500 O   0  0  0  0  0  0  0  0  0  0  0  0
  -24.6300  -33.7780   24.9290 H   0  0  0  0  0  0  0  0  0  0  0  0
  -24.1170  -36.5970   23.2650 C   0  0  0  0  0  1  0  0  0  0  0  0
  -25.3270  -36.1440   24.0970 C   0  0  0  0  0  3  0  0  0  0  0  0
  -27.4490  -36.9790   25.0220 C   0  0  0  0  0  1  0  0  0  0  0  0
  -26.3850  -37.1820   24.0440 N   0  0  0  0  0  0  0  0  0  0  0  0
  -25.9900  -38.1060   24.1920 H   0  0  0  0  0  0  0  0  0  0  0  0
  1  3  1  0
  2  4  1  0
  2  1  1  0
  5  4  1  0
  7  6  1  0
  8 11  2  0
  8 10  1  0
  9  6  2  0
 10  7  2  0
 11  9  1  0
 12 11  1  0
 13 21  1  0
 14 19  1  0
 15 16  1  0
 15 14  1  0
 17 16  1  0
 17 26  1  0
 17 18  1  0
 19 13  1  0
 19 18  1  0
 20 13  2  0
 21 22  1  0
 23 24  2  0
 24 43  1  0
 25 28  1  0
 25 24  1  0
 26 27  1  0
 26 23  1  0
 27 25  2  0
 28 29  1  0
 29 30  2  0
 31 34  1  0
 31 30  1  0
 32 31  2  0
 33 32  1  0
 33 28  2  0
 34 35  1  0
 35 36  1  0
 36 37  2  0
 38 37  1  0
 38 42  1  0
 39 38  2  0
 40 35  2  0
 40 39  1  0
 41 40  1  0
 43 44  1  0
 44 46  1  0
 44 47  1  0
 45 43  2  0
 48 23  1  0
 48 49  1  0
 50 48  1  0
 54 65  2  0
 55 53  1  0
 56 64  1  0
 57 62  1  0
 57 63  1  0
 57 59  1  0
 58 64  1  0
 59 58  1  0
 59 60  1  0
 60 55  1  0
 61 55  1  0
 62 61  1  0
 63 56  1  0
 64 54  1  0
 66 67  1  0
 66 68  1  0
 67 69  1  0
 70 79  2  0
 70 75  1  0
 71 67  1  0
 72 71  1  0
 73 74  1  0
 73 72  1  0
 74 70  1  0
 75 71  1  0
 75 76  2  0
 76 77  1  0
 78 77  2  0
 79 78  1  0
 80 54  1  0
 80 85  1  0
 80 81  1  0
 81 84  1  1
 81 82  1  0
 83 81  1  0
 85 88  1  0
 86 90  1  0
 86 85  1  0
 87 86  2  0
 90 89  1  0
 92 90  1  0
 92 93  1  0
 92 91  1  0
M  ISO  4  13 100  21 100  52 101  53 101
M  END
>  <TORSDO>  (26) 
F 19

>  <SCORE>  (26) 
-12.406

>  <name>  (26) 
25

>  <ligand_id>  (26) 
25

>  <original_smiles>  (26) 
[H]c1c([H])c([H])c2c(c1[H])C([H])([H])C([H])([H])C([H])([H])C2([H])N([H])C(=O)C1([H])N(C(=O)C([H])(N([H])C(=O)C([H])(N([H])C([H])([H])[H])C([H])([H])[H])C(C([H])([H])[H])(C([H])([H])[H])C([H])([H])[H])C([H])([H])c2c([H])c(OC([H])([H])C([H])([H])[N+]3([H])C([H])([H])C([H])([H])C3([H])c3c([H])c([H])c(N([H])C(=O)N4C([H])([H])C([H])([H])C([H])([H])C([H])(n5nc(-c6c([H])c([H])c(Oc7c([H])c([H])c(F)c([H])c7F)c([H])c6[H])c(C(=O)N([H])[H])c5N([H])[H])C4([H])[H])c([H])c3F)c([H])c([H])c2C1([H])[H]

>  <smiles>  (26) 
[H]c1c([H])c([H])c2c(c1[H])C([H])([H])C([H])([H])C([H])([H])C2([H])N([H])C(=O)C1([H])N(C(=O)C([H])(N([H])C(=O)C([H])(N([H])C([H])([H])[H])C([H])([H])[H])C(C([H])([H])[H])(C([H])([H])[H])C([H])([H])[H])C([H])([H])c2c([H])c(OC([H])([H])C([H])([H])[N+]3([H])C([H])([H])C([H])([H])C3([H])c3c([H])c([H])c(N([H])C(=O)N4C([H])([H])C([H])([H])C([H])([H])C([H])(n5nc(-c6c([H])c([H])c(Oc7c([H])c([H])c(F)c([H])c7F)c([H])c6[H])c(C(=O)N([H])[H])c5N([H])[H])C4([H])[H])c([H])c3F)c([H])c([H])c2C1([H])[H]

$$$$
26:0:0
     RDKit          3D

 94102  0  0  1  0  0  0  0  0999 V2000
  -28.4900  -18.0890   20.0310 C   0  0  0  0  0  3  0  0  0  0  0  0
  -29.6530  -20.2700   21.3640 C   0  0  0  0  0  3  0  0  0  0  0  0
  -29.5590  -17.8560   20.9240 C   0  0  0  0  0  0  0  0  0  0  0  0
  -28.5440  -20.4940   20.5160 C   0  0  0  0  0  0  0  0  0  0  0  0
  -30.1520  -18.9650   21.5710 C   0  0  0  0  0  0  0  0  0  0  0  0
  -27.9850  -19.3910   19.8310 C   0  0  0  0  0  0  0  0  0  0  0  0
  -31.1860  -18.7810   22.4240 F   0  0  0  0  0  0  0  0  0  0  0  0
  -26.9230  -19.5740   19.0120 F   0  0  0  0  0  0  0  0  0  0  0  0
  -30.0170  -16.4290   21.2390 C   0  0  0  0  0  2  0  0  0  0  0  0
  -31.1110  -14.5520   20.0300 C   0  0  0  0  0  0  0  0  0  0  0  0
  -30.7200  -12.3860   18.9410 C   0  0  0  0  0  2  0  0  0  0  0  0
  -29.7340  -12.6100   17.7720 C   0  0  0  0  0  2  0  0  0  0  0  0
  -28.2730  -12.5310   18.2610 C   0  0  0  0  0  2  0  0  0  0  0  0
  -28.0120  -13.3780   19.5380 C   0  0  0  0  0  3  0  0  0  0  0  0
  -29.1090  -13.1380   20.6010 C   0  0  0  0  0  2  0  0  0  0  0  0
  -30.4090  -13.3930   19.9660 N   0  0  0  0  0  0  0  0  0  0  0  0
  -32.2710  -14.6630   19.6300 O   0  0  0  0  0  0  0  0  0  0  0  0
  -30.3540  -15.6600   20.0420 N   0  0  0  0  0  0  0  0  0  0  0  0
  -30.6890  -16.2970   19.3340 H   0  0  0  0  0  0  0  0  0  0  0  0
  -25.6660  -14.0540   20.3470 C   0  0  0  0  0  0  0  0  0  0  0  0
  -24.5850  -13.3150   20.7470 C   0  0  0  0  0  0  0  0  0  0  0  0
  -24.9960  -11.9490   20.6820 C   0  0  0  0  0  0  0  0  0  0  0  0
  -26.6700  -13.1410   20.0680 N   0  0  0  0  0  0  0  0  0  0  0  0
  -26.2730  -11.8690   20.3260 N   0  0  0  0  0  0  0  0  0  0  0  0
  -24.2350  -10.7100   20.8840 C   0  0  0  0  0  0  0  0  0  0  0  0
  -24.6340   -9.7430   21.8340 C   0  0  0  0  0  3  0  0  0  0  0  0
  -23.8750   -8.5680   22.0200 C   0  0  0  0  0  3  0  0  0  0  0  0
  -22.7020   -8.3530   21.2590 C   0  0  0  0  0  0  0  0  0  0  0  0
  -22.3200   -9.3070   20.2990 C   0  0  0  0  0  3  0  0  0  0  0  0
  -23.0800  -10.4740   20.1110 C   0  0  0  0  0  3  0  0  0  0  0  0
  -21.9160   -7.2300   21.3560 O   0  0  0  0  0  0  0  0  0  0  0  0
  -21.7850   -6.5430   22.5360 C   0  0  0  0  0  0  0  0  0  0  0  0
  -21.3010   -7.1620   23.7090 C   0  0  0  0  0  3  0  0  0  0  0  0
  -21.1180   -6.4020   24.8820 C   0  0  0  0  0  3  0  0  0  0  0  0
  -21.4060   -5.0240   24.8810 C   0  0  0  0  0  0  0  0  0  0  0  0
  -21.8830   -4.4050   23.7120 C   0  0  0  0  0  3  0  0  0  0  0  0
  -22.0680   -5.1620   22.5420 C   0  0  0  0  0  0  0  0  0  0  0  0
  -22.5090   -4.5560   21.4130 F   0  0  0  0  0  0  0  0  0  0  0  0
  -21.2210   -4.2900   26.0040 F   0  0  0  0  0  0  0  0  0  0  0  0
  -23.2160  -13.8390   21.0790 C   0  0  0  0  0  0  0  0  0  0  0  0
  -22.5020  -13.1640   21.9760 N   0  0  0  0  0  0  0  0  0  0  0  0
  -22.7920  -14.8810   20.5820 O   0  0  0  0  0  0  0  0  0  0  0  0
  -22.8610  -12.3230   22.4050 H   0  0  0  0  0  0  0  0  0  0  0  0
  -21.5850  -13.4950   22.2410 H   0  0  0  0  0  0  0  0  0  0  0  0
  -25.8750  -15.4190   20.1810 N   0  0  0  0  0  0  0  0  0  0  0  0
  -25.1400  -16.1010   20.3270 H   0  0  0  0  0  0  0  0  0  0  0  0
  -26.7370  -15.8230   19.8400 H   0  0  0  0  0  0  0  0  0  0  0  0
  -27.8680  -21.8680   20.4690 C   0  0  0  0  0  2  0  0  0  0  0  0
  -28.5850  -22.9390   19.7320 N   0  0  0  0  0  4  0  0  0  0  0  0
  -28.5250  -22.7310   18.7470 H   0  0  0  0  0  0  0  0  0  0  0  0
  -29.5620  -22.9130   19.9810 H   0  0  0  0  0  0  0  0  0  0  0  0
  -28.0380  -24.3040   20.0100 C   0  0  0  0  0  2  0  0  0  0  0  0
  -28.6030  -25.4350   19.1050 C   0  0  0  0  0  2  0  0  0  0  0  0
  -28.4670  -26.7530   19.6780 O   0  0  0  0  0  0  0  0  0  0  0  0
  -24.5190  -31.6460   23.0390 C   0  0  0  0  0  0  0  0  0  0  0  0
  -27.2510  -27.4140   19.7070 C   0  0  0  0  0  0  0  0  0  0  0  0
  -23.3320  -30.2880   21.3440 C   0  0  0  0  0  3  0  0  0  0  0  0
  -24.8100  -28.8580   19.8320 C   0  0  0  0  0  0  0  0  0  0  0  0
  -25.8470  -30.7150   21.1470 C   0  0  0  0  0  2  0  0  0  0  0  0
  -25.9590  -29.3770   20.4390 C   0  0  0  0  0  0  0  0  0  0  0  0
  -27.1750  -28.6560   20.3820 C   0  0  0  0  0  3  0  0  0  0  0  0
  -26.0790  -26.9170   19.0900 C   0  0  0  0  0  3  0  0  0  0  0  0
  -24.8640  -27.6240   19.1620 C   0  0  0  0  0  3  0  0  0  0  0  0
  -23.5490  -29.6860   19.9310 C   0  0  0  0  0  2  0  0  0  0  0  0
  -24.5830  -30.9010   21.8990 N   0  0  0  0  0  0  0  0  0  0  0  0
  -23.4370  -31.8620   23.6030 O   0  0  0  0  0  0  0  0  0  0  0  0
  -22.7200  -29.2070   22.2620 C   0  0  0  0  0  0  0  0  0  0  0  0
  -21.3970  -28.9960   22.1420 N   0  0  0  0  0  0  0  0  0  0  0  0
  -23.4280  -28.5650   23.0410 O   0  0  0  0  0  0  0  0  0  0  0  0
  -20.8930  -29.5400   21.4560 H   0  0  0  0  0  0  0  0  0  0  0  0
  -18.0580  -27.7240   22.6640 C   0  0  0  0  0  0  0  0  0  0  0  0
  -20.6140  -28.0200   22.8970 C   0  0  0  0  0  3  0  0  0  0  0  0
  -20.7240  -26.6130   22.2670 C   0  0  0  0  0  2  0  0  0  0  0  0
  -19.6190  -26.3380   21.2430 C   0  0  0  0  0  2  0  0  0  0  0  0
  -18.2500  -26.4080   21.9280 C   0  0  0  0  0  2  0  0  0  0  0  0
  -19.1700  -28.4890   23.1070 C   0  0  0  0  0  0  0  0  0  0  0  0
  -18.9400  -29.7190   23.7600 C   0  0  0  0  0  3  0  0  0  0  0  0
  -17.6310  -30.1850   23.9740 C   0  0  0  0  0  3  0  0  0  0  0  0
  -16.5320  -29.4140   23.5510 C   0  0  0  0  0  3  0  0  0  0  0  0
  -16.7470  -28.1870   22.8990 C   0  0  0  0  0  3  0  0  0  0  0  0
  -25.7950  -32.2820   23.6730 C   0  0  0  0  0  3  0  0  0  0  0  0
  -25.4540  -33.6550   24.0720 N   0  0  0  0  0  0  0  0  0  0  0  0
  -25.7410  -34.7500   23.3540 C   0  0  0  0  0  0  0  0  0  0  0  0
  -26.3960  -34.7120   22.3090 O   0  0  0  0  0  0  0  0  0  0  0  0
  -24.8750  -33.7550   24.8930 H   0  0  0  0  0  0  0  0  0  0  0  0
  -23.9530  -36.5000   23.1130 C   0  0  0  0  0  1  0  0  0  0  0  0
  -25.2220  -36.1020   23.8820 C   0  0  0  0  0  3  0  0  0  0  0  0
  -27.3440  -37.0160   24.7110 C   0  0  0  0  0  1  0  0  0  0  0  0
  -26.2200  -37.1900   23.7940 N   0  0  0  0  0  0  0  0  0  0  0  0
  -25.7900  -38.0900   23.9880 H   0  0  0  0  0  0  0  0  0  0  0  0
  -26.3540  -31.4650   24.9030 C   0  0  1  0  0  0  0  0  0  0  0  0
  -25.2880  -31.1490   25.9780 C   0  0  0  0  0  1  0  0  0  0  0  0
  -26.9630  -30.1230   24.4360 C   0  0  0  0  0  1  0  0  0  0  0  0
  -27.4990  -32.2550   25.5790 C   0  0  0  0  0  1  0  0  0  0  0  0
  1  3  1  0
  2  5  1  0
  3  9  1  0
  3  5  2  0
  4  2  2  0
  5  7  1  0
  6  1  2  0
  6  4  1  0
  8  6  1  0
 10 18  1  0
 11 16  1  0
 12 13  1  0
 12 11  1  0
 14 13  1  0
 14 23  1  0
 14 15  1  0
 16 10  1  0
 16 15  1  0
 17 10  2  0
 18  9  1  0
 19 18  1  0
 20 21  2  0
 21 40  1  0
 22 21  1  0
 22 25  1  0
 23 24  1  0
 23 20  1  0
 24 22  2  0
 25 26  1  0
 26 27  2  0
 28 31  1  0
 28 27  1  0
 29 28  2  0
 30 29  1  0
 30 25  2  0
 31 32  1  0
 32 37  2  0
 32 33  1  0
 33 34  2  0
 35 34  1  0
 35 39  1  0
 36 35  2  0
 37 36  1  0
 38 37  1  0
 40 41  1  0
 41 44  1  0
 41 43  1  0
 42 40  2  0
 45 46  1  0
 45 20  1  0
 47 45  1  0
 48  4  1  0
 49 51  1  0
 49 52  1  0
 49 48  1  0
 50 49  1  0
 53 54  1  0
 53 52  1  0
 54 56  1  0
 55 66  2  0
 56 61  1  0
 57 65  1  0
 57 67  1  0
 58 64  1  0
 58 60  1  0
 59 65  1  0
 60 59  1  0
 61 60  2  0
 62 63  1  0
 62 56  2  0
 63 58  2  0
 64 57  1  0
 65 55  1  0
 67 69  2  0
 68 67  1  0
 70 68  1  0
 71 80  2  0
 71 76  1  0
 72 68  1  0
 72 76  1  0
 73 72  1  0
 74 75  1  0
 74 73  1  0
 75 71  1  0
 76 77  2  0
 77 78  1  0
 79 78  2  0
 80 79  1  0
 81 55  1  0
 81 82  1  0
 81 91  1  0
 82 85  1  0
 83 87  1  0
 83 82  1  0
 84 83  2  0
 87 86  1  0
 89 87  1  0
 89 90  1  0
 89 88  1  0
 91 94  1  1
 91 92  1  0
 93 91  1  0
M  ISO  4  10 100  18 100  53 101  54 101
M  END
>  <TORSDO>  (27) 
F 21

>  <SCORE>  (27) 
-13.055

>  <name>  (27) 
26

>  <ligand_id>  (27) 
26

>  <original_smiles>  (27) 
[H]c1c([H])c([H])c2c(c1[H])C([H])([H])C([H])([H])C([H])([H])C2([H])N([H])C(=O)C1([H])N(C(=O)C([H])(N([H])C(=O)C([H])(N([H])C([H])([H])[H])C([H])([H])[H])C(C([H])([H])[H])(C([H])([H])[H])C([H])([H])[H])C([H])([H])c2c([H])c(OC([H])([H])C([H])([H])[N+]([H])([H])C([H])([H])c3c([H])c(F)c(C([H])([H])N([H])C(=O)N4C([H])([H])C([H])([H])C([H])([H])C([H])(n5nc(-c6c([H])c([H])c(Oc7c([H])c([H])c(F)c([H])c7F)c([H])c6[H])c(C(=O)N([H])[H])c5N([H])[H])C4([H])[H])c([H])c3F)c([H])c([H])c2C1([H])[H]

>  <smiles>  (27) 
[H]c1c([H])c([H])c2c(c1[H])C([H])([H])C([H])([H])C([H])([H])C2([H])N([H])C(=O)C1([H])N(C(=O)C([H])(N([H])C(=O)C([H])(N([H])C([H])([H])[H])C([H])([H])[H])C(C([H])([H])[H])(C([H])([H])[H])C([H])([H])[H])C([H])([H])c2c([H])c(OC([H])([H])C([H])([H])[N+]([H])([H])C([H])([H])c3c([H])c(F)c(C([H])([H])N([H])C(=O)N4C([H])([H])C([H])([H])C([H])([H])C([H])(n5nc(-c6c([H])c([H])c(Oc7c([H])c([H])c(F)c([H])c7F)c([H])c6[H])c(C(=O)N([H])[H])c5N([H])[H])C4([H])[H])c([H])c3F)c([H])c([H])c2C1([H])[H]

$$$$
27:0:0
     RDKit          3D

 93101  0  0  1  0  0  0  0  0999 V2000
  -29.1650  -23.0540   20.2430 C   0  0  0  0  0  3  0  0  0  0  0  0
  -28.1030  -20.3100   20.2560 C   0  0  0  0  0  3  0  0  0  0  0  0
  -30.5640  -19.0530   20.3290 C   0  0  0  0  0  3  0  0  0  0  0  0
  -29.1610  -21.3070   20.2720 C   0  0  0  0  0  0  0  0  0  0  0  0
  -29.5070  -18.0620   20.3210 C   0  0  0  0  0  0  0  0  0  0  0  0
  -28.2640  -18.8310   20.2850 C   0  0  0  0  0  0  0  0  0  0  0  0
  -30.4010  -20.5270   20.3110 C   0  0  0  0  0  0  0  0  0  0  0  0
  -27.1240  -18.1010   20.2740 F   0  0  0  0  0  0  0  0  0  0  0  0
  -31.5470  -21.2500   20.3090 F   0  0  0  0  0  0  0  0  0  0  0  0
  -30.3910  -15.2740   20.2290 C   0  0  0  0  0  0  0  0  0  0  0  0
  -30.3740  -12.8530   19.3230 C   0  0  0  0  0  2  0  0  0  0  0  0
  -29.4190  -12.6880   18.1130 C   0  0  0  0  0  2  0  0  0  0  0  0
  -27.9780  -12.4210   18.5850 C   0  0  0  0  0  2  0  0  0  0  0  0
  -27.5550  -13.3680   19.7360 C   0  0  0  0  0  3  0  0  0  0  0  0
  -28.6300  -13.4670   20.8390 C   0  0  0  0  0  2  0  0  0  0  0  0
  -29.8560  -13.9640   20.1940 N   0  0  0  0  0  0  0  0  0  0  0  0
  -31.5980  -15.3370   19.9590 O   0  0  0  0  0  0  0  0  0  0  0  0
  -29.5370  -16.4570   20.3710 N   0  0  0  0  0  0  0  0  0  0  0  0
  -28.5990  -16.1210   20.5220 H   0  0  0  0  0  0  0  0  0  0  0  0
  -25.1980  -13.9190   20.5450 C   0  0  0  0  0  0  0  0  0  0  0  0
  -24.1450  -13.1350   20.9270 C   0  0  0  0  0  0  0  0  0  0  0  0
  -24.6130  -11.7860   20.8660 C   0  0  0  0  0  0  0  0  0  0  0  0
  -26.2370  -13.0480   20.2660 N   0  0  0  0  0  0  0  0  0  0  0  0
  -25.8980  -11.7580   20.5270 N   0  0  0  0  0  0  0  0  0  0  0  0
  -23.8920  -10.5200   21.0530 C   0  0  0  0  0  0  0  0  0  0  0  0
  -24.3380   -9.5420   21.9700 C   0  0  0  0  0  3  0  0  0  0  0  0
  -23.6150   -8.3430   22.1460 C   0  0  0  0  0  3  0  0  0  0  0  0
  -22.4310   -8.1130   21.4050 C   0  0  0  0  0  0  0  0  0  0  0  0
  -22.0040   -9.0800   20.4770 C   0  0  0  0  0  3  0  0  0  0  0  0
  -22.7280  -10.2710   20.2990 C   0  0  0  0  0  3  0  0  0  0  0  0
  -21.6770   -6.9670   21.4910 O   0  0  0  0  0  0  0  0  0  0  0  0
  -21.6350   -6.2190   22.6390 C   0  0  0  0  0  0  0  0  0  0  0  0
  -21.1720   -6.7570   23.8610 C   0  0  0  0  0  3  0  0  0  0  0  0
  -21.0780   -5.9340   25.0010 C   0  0  0  0  0  3  0  0  0  0  0  0
  -21.4350   -4.5740   24.9210 C   0  0  0  0  0  0  0  0  0  0  0  0
  -21.8910   -4.0360   23.7040 C   0  0  0  0  0  3  0  0  0  0  0  0
  -21.9860   -4.8560   22.5670 C   0  0  0  0  0  0  0  0  0  0  0  0
  -22.4050   -4.3270   21.3920 F   0  0  0  0  0  0  0  0  0  0  0  0
  -21.3370   -3.7820   26.0150 F   0  0  0  0  0  0  0  0  0  0  0  0
  -22.7540  -13.6060   21.2330 C   0  0  0  0  0  0  0  0  0  0  0  0
  -22.0480  -12.9040   22.1110 N   0  0  0  0  0  0  0  0  0  0  0  0
  -22.3030  -14.6320   20.7260 O   0  0  0  0  0  0  0  0  0  0  0  0
  -22.4280  -12.0730   22.5420 H   0  0  0  0  0  0  0  0  0  0  0  0
  -21.1150  -13.2020   22.3590 H   0  0  0  0  0  0  0  0  0  0  0  0
  -25.3490  -15.2940   20.3840 N   0  0  0  0  0  0  0  0  0  0  0  0
  -24.5750  -15.9320   20.5300 H   0  0  0  0  0  0  0  0  0  0  0  0
  -26.1710  -15.7600   20.0240 H   0  0  0  0  0  0  0  0  0  0  0  0
  -30.1050  -23.4020   19.1650 N   0  0  0  0  0  4  0  0  0  0  0  0
  -29.6970  -23.2390   18.2600 H   0  0  0  0  0  0  0  0  0  0  0  0
  -30.9340  -22.8370   19.2560 H   0  0  0  0  0  0  0  0  0  0  0  0
  -30.3680  -24.3710   19.2260 H   0  0  0  0  0  0  0  0  0  0  0  0
  -27.9930  -24.3820   20.2430 C   0  0  0  0  0  2  0  0  0  0  0  0
  -28.2300  -26.0010   20.2980 O   0  0  0  0  0  0  0  0  0  0  0  0
  -24.6900  -31.9350   23.2620 C   0  0  0  0  0  0  0  0  0  0  0  0
  -27.2050  -27.0700   20.2470 C   0  0  0  0  0  0  0  0  0  0  0  0
  -23.4810  -30.5490   21.6250 C   0  0  0  0  0  3  0  0  0  0  0  0
  -24.9140  -28.9370   20.2030 C   0  0  0  0  0  0  0  0  0  0  0  0
  -26.0460  -30.7520   21.4700 C   0  0  0  0  0  2  0  0  0  0  0  0
  -26.1050  -29.3440   20.8170 C   0  0  0  0  0  0  0  0  0  0  0  0
  -27.2460  -28.4310   20.8140 C   0  0  0  0  0  3  0  0  0  0  0  0
  -25.9840  -26.8010   19.5890 C   0  0  0  0  0  3  0  0  0  0  0  0
  -24.8750  -27.6840   19.5700 C   0  0  0  0  0  3  0  0  0  0  0  0
  -23.7030  -29.8650   20.2480 C   0  0  0  0  0  2  0  0  0  0  0  0
  -24.7620  -31.1040   22.1730 N   0  0  0  0  0  0  0  0  0  0  0  0
  -23.6050  -32.2330   23.7850 O   0  0  0  0  0  0  0  0  0  0  0  0
  -22.7830  -29.5570   22.5910 C   0  0  0  0  0  0  0  0  0  0  0  0
  -21.4530  -29.3960   22.4620 N   0  0  0  0  0  0  0  0  0  0  0  0
  -23.4440  -28.9330   23.4250 O   0  0  0  0  0  0  0  0  0  0  0  0
  -20.9740  -29.9510   21.7670 H   0  0  0  0  0  0  0  0  0  0  0  0
  -18.0650  -28.2040   22.9610 C   0  0  0  0  0  0  0  0  0  0  0  0
  -20.6240  -28.4650   23.2330 C   0  0  0  0  0  3  0  0  0  0  0  0
  -20.7230  -27.0290   22.6670 C   0  0  0  0  0  2  0  0  0  0  0  0
  -19.6240  -26.7050   21.6500 C   0  0  0  0  0  2  0  0  0  0  0  0
  -18.2410  -26.8520   22.2890 C   0  0  0  0  0  2  0  0  0  0  0  0
  -19.1830  -28.9680   23.3900 C   0  0  0  0  0  0  0  0  0  0  0  0
  -18.9610  -30.2310   23.9830 C   0  0  0  0  0  3  0  0  0  0  0  0
  -17.6550  -30.7300   24.1470 C   0  0  0  0  0  3  0  0  0  0  0  0
  -16.5520  -29.9640   23.7310 C   0  0  0  0  0  3  0  0  0  0  0  0
  -16.7580  -28.7030   23.1430 C   0  0  0  0  0  3  0  0  0  0  0  0
  -25.9690  -32.5650   23.8930 C   0  0  0  0  0  3  0  0  0  0  0  0
  -26.4700  -31.7950   25.1750 C   0  0  1  0  0  0  0  0  0  0  0  0
  -25.3700  -31.5700   26.2400 C   0  0  0  0  0  1  0  0  0  0  0  0
  -27.0450  -30.4100   24.7990 C   0  0  0  0  0  1  0  0  0  0  0  0
  -27.6240  -32.5810   25.8410 C   0  0  0  0  0  1  0  0  0  0  0  0
  -25.6640  -33.9660   24.2300 N   0  0  0  0  0  0  0  0  0  0  0  0
  -25.9700  -35.0230   23.4650 C   0  0  0  0  0  0  0  0  0  0  0  0
  -26.6020  -34.9210   22.4100 O   0  0  0  0  0  0  0  0  0  0  0  0
  -25.0960  -34.1190   25.0490 H   0  0  0  0  0  0  0  0  0  0  0  0
  -24.2210  -36.8160   23.1990 C   0  0  0  0  0  1  0  0  0  0  0  0
  -25.5040  -36.4140   23.9430 C   0  0  0  0  0  3  0  0  0  0  0  0
  -27.6710  -37.3190   24.6640 C   0  0  0  0  0  1  0  0  0  0  0  0
  -26.5260  -37.4690   23.7700 N   0  0  0  0  0  0  0  0  0  0  0  0
  -26.1240  -38.3910   23.9210 H   0  0  0  0  0  0  0  0  0  0  0  0
  1 52  1  0
  1  4  1  0
  2  4  2  0
  2  6  1  0
  4  7  1  0
  5  3  1  0
  5 18  1  0
  6  5  2  0
  7  3  2  0
  8  6  1  0
  9  7  1  0
 10 18  1  0
 11 16  1  0
 12 13  1  0
 12 11  1  0
 14 13  1  0
 14 23  1  0
 14 15  1  0
 16 10  1  0
 16 15  1  0
 17 10  2  0
 18 19  1  0
 20 21  2  0
 21 40  1  0
 22 21  1  0
 22 25  1  0
 23 24  1  0
 23 20  1  0
 24 22  2  0
 25 26  1  0
 26 27  2  0
 28 31  1  0
 28 27  1  0
 29 28  2  0
 30 29  1  0
 30 25  2  0
 31 32  1  0
 32 33  1  0
 33 34  2  0
 35 34  1  0
 35 39  1  0
 36 35  2  0
 37 32  2  0
 37 36  1  0
 38 37  1  0
 40 41  1  0
 41 44  1  0
 41 43  1  0
 42 40  2  0
 45 46  1  0
 45 20  1  0
 47 45  1  0
 48 51  1  0
 48 50  1  0
 48  1  1  0
 49 48  1  0
 52 53  1  0
 54 65  2  0
 55 53  1  0
 55 60  1  0
 56 64  1  0
 56 66  1  0
 57 63  1  0
 57 59  1  0
 58 64  1  0
 59 58  1  0
 60 59  2  0
 61 55  2  0
 62 61  1  0
 62 57  2  0
 63 56  1  0
 64 54  1  0
 66 68  2  0
 67 66  1  0
 69 67  1  0
 70 79  2  0
 70 75  1  0
 71 67  1  0
 71 75  1  0
 72 71  1  0
 73 74  1  0
 73 72  1  0
 74 70  1  0
 75 76  2  0
 76 77  1  0
 78 77  2  0
 79 78  1  0
 80 54  1  0
 80 85  1  0
 80 81  1  0
 81 84  1  1
 81 82  1  0
 83 81  1  0
 85 88  1  0
 86 90  1  0
 86 85  1  0
 87 86  2  0
 90 89  1  0
 92 93  1  0
 92 90  1  0
 92 91  1  0
M  ISO  4  10 100  18 100  52 101  53 101
M  END
>  <TORSDO>  (28) 
F 19

>  <SCORE>  (28) 
-15.997

>  <name>  (28) 
27

>  <ligand_id>  (28) 
27

>  <original_smiles>  (28) 
[H]c1c([H])c([H])c2c(c1[H])C([H])([H])C([H])([H])C([H])([H])C2([H])N([H])C(=O)C1([H])N(C(=O)C([H])(N([H])C(=O)C([H])(N([H])C([H])([H])[H])C([H])([H])[H])C(C([H])([H])[H])(C([H])([H])[H])C([H])([H])[H])C([H])([H])c2c([H])c(OC([H])([H])C([H])(c3c([H])c(F)c(N([H])C(=O)N4C([H])([H])C([H])([H])C([H])([H])C([H])(n5nc(-c6c([H])c([H])c(Oc7c([H])c([H])c(F)c([H])c7F)c([H])c6[H])c(C(=O)N([H])[H])c5N([H])[H])C4([H])[H])c([H])c3F)[N+]([H])([H])[H])c([H])c([H])c2C1([H])[H]

>  <smiles>  (28) 
[H]c1c([H])c([H])c2c(c1[H])C([H])([H])C([H])([H])C([H])([H])C2([H])N([H])C(=O)C1([H])N(C(=O)C([H])(N([H])C(=O)C([H])(N([H])C([H])([H])[H])C([H])([H])[H])C(C([H])([H])[H])(C([H])([H])[H])C([H])([H])[H])C([H])([H])c2c([H])c(OC([H])([H])C([H])(c3c([H])c(F)c(N([H])C(=O)N4C([H])([H])C([H])([H])C([H])([H])C([H])(n5nc(-c6c([H])c([H])c(Oc7c([H])c([H])c(F)c([H])c7F)c([H])c6[H])c(C(=O)N([H])[H])c5N([H])[H])C4([H])[H])c([H])c3F)[N+]([H])([H])[H])c([H])c([H])c2C1([H])[H]

$$$$
28:0:0
     RDKit          3D

 93102  0  0  1  0  0  0  0  0999 V2000
  -27.6380  -21.2960   18.8510 C   0  0  0  0  0  2  0  0  0  0  0  0
  -28.5880  -22.2480   18.1250 C   0  0  0  0  0  2  0  0  0  0  0  0
  -28.3880  -21.6890   20.1270 C   0  0  0  0  0  3  0  0  0  0  0  0
  -28.8060  -22.9410   19.4080 N   0  0  2  0  0  4  0  0  0  0  0  0
  -29.7920  -23.1100   19.5630 H   0  0  0  0  0  0  0  0  0  0  0  0
  -29.5590  -20.6850   20.4260 C   0  0  0  0  0  0  0  0  0  0  0  0
  -29.2790  -19.3730   20.6650 N   0  0  0  0  0  0  0  0  0  0  0  0
  -30.7200  -21.0930   20.3560 O   0  0  0  0  0  0  0  0  0  0  0  0
  -28.3010  -19.1370   20.7660 H   0  0  0  0  0  0  0  0  0  0  0  0
  -30.6200  -14.6510   20.6590 C   0  0  0  0  0  0  0  0  0  0  0  0
  -30.4410  -12.4010   19.6490 C   0  0  0  0  0  2  0  0  0  0  0  0
  -29.5540  -12.4970   18.3890 C   0  0  0  0  0  2  0  0  0  0  0  0
  -28.0610  -12.3620   18.7550 C   0  0  0  0  0  2  0  0  0  0  0  0
  -27.6450  -13.2470   19.9600 C   0  0  0  0  0  3  0  0  0  0  0  0
  -28.6570  -13.1370   21.1220 C   0  0  0  0  0  2  0  0  0  0  0  0
  -29.9880  -13.4440   20.5820 N   0  0  0  0  0  0  0  0  0  0  0  0
  -31.8320  -14.7690   20.4540 O   0  0  0  0  0  0  0  0  0  0  0  0
  -30.1120  -17.6210   19.1140 C   0  0  0  0  0  2  0  0  0  0  0  0
  -29.4130  -16.2750   19.3150 C   0  0  0  0  0  2  0  0  0  0  0  0
  -30.0000  -16.9880   21.4470 C   0  0  0  0  0  2  0  0  0  0  0  0
  -30.2200  -18.2250   20.5100 C   0  0  0  0  0  3  0  0  0  0  0  0
  -29.8070  -15.7570   20.6320 N   0  0  0  0  0  0  0  0  0  0  0  0
  -25.2240  -13.8540   20.5660 C   0  0  0  0  0  0  0  0  0  0  0  0
  -24.1440  -13.0830   20.8970 C   0  0  0  0  0  0  0  0  0  0  0  0
  -24.6120  -11.7330   20.9110 C   0  0  0  0  0  0  0  0  0  0  0  0
  -26.2800  -12.9730   20.3940 N   0  0  0  0  0  0  0  0  0  0  0  0
  -25.9140  -11.6940   20.6640 N   0  0  0  0  0  0  0  0  0  0  0  0
  -23.8840  -10.4710   21.0880 C   0  0  0  0  0  0  0  0  0  0  0  0
  -24.2900   -9.5140   22.0430 C   0  0  0  0  0  3  0  0  0  0  0  0
  -23.5640   -8.3150   22.2080 C   0  0  0  0  0  3  0  0  0  0  0  0
  -22.4190   -8.0660   21.4150 C   0  0  0  0  0  0  0  0  0  0  0  0
  -22.0330   -9.0110   20.4490 C   0  0  0  0  0  3  0  0  0  0  0  0
  -22.7590  -10.2020   20.2830 C   0  0  0  0  0  3  0  0  0  0  0  0
  -21.6670   -6.9180   21.4860 O   0  0  0  0  0  0  0  0  0  0  0  0
  -21.5890   -6.1810   22.6400 C   0  0  0  0  0  0  0  0  0  0  0  0
  -21.1290   -6.7380   23.8520 C   0  0  0  0  0  3  0  0  0  0  0  0
  -20.9990   -5.9260   24.9970 C   0  0  0  0  0  3  0  0  0  0  0  0
  -21.3200   -4.5570   24.9290 C   0  0  0  0  0  0  0  0  0  0  0  0
  -21.7720   -3.9980   23.7210 C   0  0  0  0  0  3  0  0  0  0  0  0
  -21.9040   -4.8080   22.5800 C   0  0  0  0  0  0  0  0  0  0  0  0
  -22.3210   -4.2600   21.4120 F   0  0  0  0  0  0  0  0  0  0  0  0
  -21.1870   -3.7740   26.0250 F   0  0  0  0  0  0  0  0  0  0  0  0
  -22.7340  -13.5580   21.0960 C   0  0  0  0  0  0  0  0  0  0  0  0
  -21.9680  -12.8690   21.9350 N   0  0  0  0  0  0  0  0  0  0  0  0
  -22.3170  -14.5740   20.5420 O   0  0  0  0  0  0  0  0  0  0  0  0
  -22.3170  -12.0460   22.4030 H   0  0  0  0  0  0  0  0  0  0  0  0
  -21.0190  -13.1690   22.1100 H   0  0  0  0  0  0  0  0  0  0  0  0
  -25.3910  -15.2230   20.3760 N   0  0  0  0  0  0  0  0  0  0  0  0
  -24.6200  -15.8790   20.4500 H   0  0  0  0  0  0  0  0  0  0  0  0
  -26.2650  -15.6630   20.1160 H   0  0  0  0  0  0  0  0  0  0  0  0
  -27.9710  -24.2060   19.4860 C   0  0  0  0  0  2  0  0  0  0  0  0
  -28.3650  -25.2890   20.5410 C   0  0  0  0  0  2  0  0  0  0  0  0
  -28.3310  -26.6840   20.1050 O   0  0  0  0  0  0  0  0  0  0  0  0
  -24.5440  -31.9090   23.2320 C   0  0  0  0  0  0  0  0  0  0  0  0
  -27.1510  -27.4140   20.1500 C   0  0  0  0  0  0  0  0  0  0  0  0
  -23.3260  -30.5120   21.5970 C   0  0  0  0  0  3  0  0  0  0  0  0
  -24.7660  -28.9610   20.1680 C   0  0  0  0  0  0  0  0  0  0  0  0
  -25.8560  -30.8520   21.3860 C   0  0  0  0  0  2  0  0  0  0  0  0
  -25.9330  -29.4760   20.7470 C   0  0  0  0  0  0  0  0  0  0  0  0
  -27.1290  -28.7130   20.7240 C   0  0  0  0  0  3  0  0  0  0  0  0
  -25.9620  -26.9220   19.5700 C   0  0  0  0  0  3  0  0  0  0  0  0
  -24.7780  -27.6870   19.5760 C   0  0  0  0  0  3  0  0  0  0  0  0
  -23.5270  -29.8300   20.2180 C   0  0  0  0  0  2  0  0  0  0  0  0
  -24.5950  -31.1070   22.1300 N   0  0  0  0  0  0  0  0  0  0  0  0
  -23.4660  -32.1860   23.7760 O   0  0  0  0  0  0  0  0  0  0  0  0
  -22.6760  -29.4950   22.5610 C   0  0  0  0  0  0  0  0  0  0  0  0
  -21.3500  -29.3180   22.4400 N   0  0  0  0  0  0  0  0  0  0  0  0
  -23.3610  -28.8670   23.3740 O   0  0  0  0  0  0  0  0  0  0  0  0
  -20.8600  -29.8740   21.7550 H   0  0  0  0  0  0  0  0  0  0  0  0
  -17.9730  -28.1340   22.9550 C   0  0  0  0  0  0  0  0  0  0  0  0
  -20.5330  -28.3820   23.2140 C   0  0  0  0  0  3  0  0  0  0  0  0
  -20.6280  -26.9510   22.6350 C   0  0  0  0  0  2  0  0  0  0  0  0
  -19.5190  -26.6340   21.6270 C   0  0  0  0  0  2  0  0  0  0  0  0
  -18.1400  -26.7840   22.2780 C   0  0  0  0  0  2  0  0  0  0  0  0
  -19.0970  -28.8910   23.3800 C   0  0  0  0  0  0  0  0  0  0  0  0
  -18.8860  -30.1550   23.9730 C   0  0  0  0  0  3  0  0  0  0  0  0
  -17.5840  -30.6600   24.1470 C   0  0  0  0  0  3  0  0  0  0  0  0
  -16.4750  -29.9000   23.7380 C   0  0  0  0  0  3  0  0  0  0  0  0
  -16.6700  -28.6390   23.1470 C   0  0  0  0  0  3  0  0  0  0  0  0
  -25.8350  -32.5370   23.8460 C   0  0  0  0  0  3  0  0  0  0  0  0
  -26.3550  -31.7650   25.1210 C   0  0  1  0  0  0  0  0  0  0  0  0
  -25.2660  -31.5340   26.1950 C   0  0  0  0  0  1  0  0  0  0  0  0
  -26.9300  -30.3860   24.7270 C   0  0  0  0  0  1  0  0  0  0  0  0
  -27.5120  -32.5570   25.7760 C   0  0  0  0  0  1  0  0  0  0  0  0
  -25.5330  -33.9370   24.1750 N   0  0  0  0  0  0  0  0  0  0  0  0
  -25.8760  -34.9870   23.4160 C   0  0  0  0  0  0  0  0  0  0  0  0
  -26.5500  -34.8780   22.3870 O   0  0  0  0  0  0  0  0  0  0  0  0
  -24.9370  -34.0950   24.9730 H   0  0  0  0  0  0  0  0  0  0  0  0
  -24.1690  -36.7950   23.0420 C   0  0  0  0  0  1  0  0  0  0  0  0
  -25.3960  -36.3780   23.8690 C   0  0  0  0  0  3  0  0  0  0  0  0
  -27.5260  -37.2400   24.7310 C   0  0  0  0  0  1  0  0  0  0  0  0
  -26.4390  -37.4230   23.7750 N   0  0  0  0  0  0  0  0  0  0  0  0
  -26.0380  -38.3450   23.9210 H   0  0  0  0  0  0  0  0  0  0  0  0
  1  3  1  0
  2  1  1  0
  2  4  1  0
  3  6  1  0
  4 51  1  0
  4  5  1  1
  4  3  1  0
  6  7  1  0
  7  9  1  0
  8  6  2  0
 11 16  1  0
 12 13  1  0
 12 11  1  0
 14 13  1  0
 14 26  1  0
 14 15  1  0
 16 10  1  0
 16 15  1  0
 17 10  2  0
 18 19  1  0
 18 21  1  0
 19 22  1  0
 21  7  1  0
 21 20  1  0
 22 10  1  0
 22 20  1  0
 23 24  2  0
 24 25  1  0
 24 43  1  0
 25 28  1  0
 26 23  1  0
 26 27  1  0
 27 25  2  0
 28 29  1  0
 29 30  2  0
 31 34  1  0
 31 30  1  0
 32 31  2  0
 33 32  1  0
 33 28  2  0
 34 35  1  0
 35 36  1  0
 36 37  2  0
 38 37  1  0
 38 42  1  0
 39 38  2  0
 40 35  2  0
 40 39  1  0
 41 40  1  0
 43 44  1  0
 44 47  1  0
 44 46  1  0
 45 43  2  0
 48 49  1  0
 48 23  1  0
 50 48  1  0
 51 52  1  0
 53 55  1  0
 53 52  1  0
 54 65  2  0
 55 60  1  0
 56 64  1  0
 56 66  1  0
 57 63  1  0
 57 59  1  0
 58 64  1  0
 59 58  1  0
 60 59  2  0
 61 62  1  0
 61 55  2  0
 62 57  2  0
 63 56  1  0
 64 54  1  0
 66 68  2  0
 67 66  1  0
 69 67  1  0
 70 79  2  0
 70 75  1  0
 71 67  1  0
 71 75  1  0
 72 71  1  0
 73 74  1  0
 73 72  1  0
 74 70  1  0
 75 76  2  0
 76 77  1  0
 78 77  2  0
 79 78  1  0
 80 54  1  0
 80 85  1  0
 80 81  1  0
 81 84  1  1
 81 82  1  0
 83 81  1  0
 85 88  1  0
 86 90  1  0
 86 85  1  0
 87 86  2  0
 90 89  1  0
 92 90  1  0
 92 93  1  0
 92 91  1  0
M  ISO  4  10 100  22 100  52 101  53 101
M  END
>  <TORSDO>  (29) 
F 19

>  <SCORE>  (29) 
-14.498

>  <name>  (29) 
28

>  <ligand_id>  (29) 
28

>  <original_smiles>  (29) 
[H]c1c([H])c([H])c2c(c1[H])C([H])([H])C([H])([H])C([H])([H])C2([H])N([H])C(=O)C1([H])N(C(=O)C([H])(N([H])C(=O)C([H])(N([H])C([H])([H])[H])C([H])([H])[H])C(C([H])([H])[H])(C([H])([H])[H])C([H])([H])[H])C([H])([H])c2c([H])c(OC([H])([H])C([H])([H])[N+]3([H])C([H])([H])C([H])([H])C3([H])C(=O)N([H])C3([H])C([H])([H])N(C(=O)N4C([H])([H])C([H])([H])C([H])([H])C([H])(n5nc(-c6c([H])c([H])c(Oc7c([H])c([H])c(F)c([H])c7F)c([H])c6[H])c(C(=O)N([H])[H])c5N([H])[H])C4([H])[H])C([H])([H])C3([H])[H])c([H])c([H])c2C1([H])[H]

>  <smiles>  (29) 
[H]c1c([H])c([H])c2c(c1[H])C([H])([H])C([H])([H])C([H])([H])C2([H])N([H])C(=O)C1([H])N(C(=O)C([H])(N([H])C(=O)C([H])(N([H])C([H])([H])[H])C([H])([H])[H])C(C([H])([H])[H])(C([H])([H])[H])C([H])([H])[H])C([H])([H])c2c([H])c(OC([H])([H])C([H])([H])[N+]3([H])C([H])([H])C([H])([H])C3([H])C(=O)N([H])C3([H])C([H])([H])N(C(=O)N4C([H])([H])C([H])([H])C([H])([H])C([H])(n5nc(-c6c([H])c([H])c(Oc7c([H])c([H])c(F)c([H])c7F)c([H])c6[H])c(C(=O)N([H])[H])c5N([H])[H])C4([H])[H])C([H])([H])C3([H])[H])c([H])c([H])c2C1([H])[H]

$$$$
29:0:0
     RDKit          3D

 92100  0  0  1  0  0  0  0  0999 V2000
  -30.1540  -21.6960   20.5780 C   0  0  0  0  0  0  0  0  0  0  0  0
  -29.1800  -22.5970   20.2390 N   0  0  0  0  0  0  0  0  0  0  0  0
  -31.2290  -22.1220   21.0090 O   0  0  0  0  0  0  0  0  0  0  0  0
  -28.3030  -22.2470   19.8780 H   0  0  0  0  0  0  0  0  0  0  0  0
  -31.2010  -19.3550   20.3740 C   0  0  0  0  0  3  0  0  0  0  0  0
  -31.1730  -17.9280   20.3800 C   0  0  0  0  0  3  0  0  0  0  0  0
  -28.8010  -19.4450   20.4500 C   0  0  0  0  0  3  0  0  0  0  0  0
  -30.0260  -20.1630   20.4170 C   0  0  0  0  0  0  0  0  0  0  0  0
  -29.9490  -17.2140   20.4350 C   0  0  0  0  0  0  0  0  0  0  0  0
  -28.7700  -18.0130   20.4580 C   0  0  0  0  0  0  0  0  0  0  0  0
  -27.5720  -17.3840   20.5040 F   0  0  0  0  0  0  0  0  0  0  0  0
  -30.5780  -14.7090   20.0550 C   0  0  0  0  0  0  0  0  0  0  0  0
  -30.2750  -12.5140   18.9210 C   0  0  0  0  0  2  0  0  0  0  0  0
  -29.2600  -12.7020   17.7720 C   0  0  0  0  0  2  0  0  0  0  0  0
  -27.8150  -12.5410   18.2850 C   0  0  0  0  0  2  0  0  0  0  0  0
  -27.5450  -13.3600   19.5760 C   0  0  0  0  0  3  0  0  0  0  0  0
  -28.6670  -13.1470   20.6170 C   0  0  0  0  0  2  0  0  0  0  0  0
  -29.9430  -13.4960   19.9730 N   0  0  0  0  0  0  0  0  0  0  0  0
  -31.7180  -14.8600   19.6060 O   0  0  0  0  0  0  0  0  0  0  0  0
  -29.8090  -15.7550   20.4910 N   0  0  0  0  0  0  0  0  0  0  0  0
  -28.9030  -15.4620   20.8260 H   0  0  0  0  0  0  0  0  0  0  0  0
  -25.2020  -13.9640   20.4430 C   0  0  0  0  0  0  0  0  0  0  0  0
  -24.1490  -13.1930   20.8520 C   0  0  0  0  0  0  0  0  0  0  0  0
  -24.5940  -11.8380   20.7620 C   0  0  0  0  0  0  0  0  0  0  0  0
  -26.2230  -13.0800   20.1310 N   0  0  0  0  0  0  0  0  0  0  0  0
  -25.8650  -11.7940   20.3810 N   0  0  0  0  0  0  0  0  0  0  0  0
  -23.8650  -10.5790   20.9610 C   0  0  0  0  0  0  0  0  0  0  0  0
  -24.3100   -9.6050   21.8820 C   0  0  0  0  0  3  0  0  0  0  0  0
  -23.5810   -8.4110   22.0690 C   0  0  0  0  0  3  0  0  0  0  0  0
  -22.3930   -8.1820   21.3370 C   0  0  0  0  0  0  0  0  0  0  0  0
  -21.9650   -9.1450   20.4050 C   0  0  0  0  0  3  0  0  0  0  0  0
  -22.6950  -10.3310   20.2150 C   0  0  0  0  0  3  0  0  0  0  0  0
  -21.6330   -7.0410   21.4330 O   0  0  0  0  0  0  0  0  0  0  0  0
  -21.5640   -6.3210   22.5990 C   0  0  0  0  0  0  0  0  0  0  0  0
  -21.1030   -6.8940   23.8030 C   0  0  0  0  0  3  0  0  0  0  0  0
  -20.9810   -6.0990   24.9610 C   0  0  0  0  0  3  0  0  0  0  0  0
  -21.3110   -4.7320   24.9140 C   0  0  0  0  0  0  0  0  0  0  0  0
  -21.7650   -4.1570   23.7140 C   0  0  0  0  0  3  0  0  0  0  0  0
  -21.8880   -4.9490   22.5580 C   0  0  0  0  0  0  0  0  0  0  0  0
  -22.3050   -4.3860   21.3990 F   0  0  0  0  0  0  0  0  0  0  0  0
  -21.1870   -3.9650   26.0230 F   0  0  0  0  0  0  0  0  0  0  0  0
  -22.7760  -13.6780   21.2170 C   0  0  0  0  0  0  0  0  0  0  0  0
  -22.0920  -12.9670   22.1060 N   0  0  0  0  0  0  0  0  0  0  0  0
  -22.3200  -14.7200   20.7490 O   0  0  0  0  0  0  0  0  0  0  0  0
  -22.4730  -12.1230   22.5070 H   0  0  0  0  0  0  0  0  0  0  0  0
  -21.1720  -13.2740   22.3920 H   0  0  0  0  0  0  0  0  0  0  0  0
  -25.3700  -15.3370   20.2950 N   0  0  0  0  0  0  0  0  0  0  0  0
  -24.6230  -15.9930   20.4960 H   0  0  0  0  0  0  0  0  0  0  0  0
  -26.2270  -15.7990   20.0180 H   0  0  0  0  0  0  0  0  0  0  0  0
  -29.3480  -24.0970   20.3960 C   0  0  0  0  0  3  0  0  0  0  0  0
  -28.1900  -25.0720   19.9160 C   0  0  0  0  0  3  0  0  0  0  0  0
  -28.3700  -26.5270   20.1480 O   0  0  0  0  0  0  0  0  0  0  0  0
  -24.6040  -31.8730   23.1920 C   0  0  0  0  0  0  0  0  0  0  0  0
  -27.2410  -27.3600   20.0970 C   0  0  0  0  0  0  0  0  0  0  0  0
  -23.4070  -30.4820   21.5410 C   0  0  0  0  0  3  0  0  0  0  0  0
  -24.8640  -28.9530   20.1010 C   0  0  0  0  0  0  0  0  0  0  0  0
  -25.9430  -30.8190   21.3560 C   0  0  0  0  0  2  0  0  0  0  0  0
  -26.0300  -29.4460   20.7000 C   0  0  0  0  0  0  0  0  0  0  0  0
  -27.2210  -28.6610   20.6880 C   0  0  0  0  0  3  0  0  0  0  0  0
  -26.0500  -26.9220   19.4710 C   0  0  0  0  0  3  0  0  0  0  0  0
  -24.8760  -27.6960   19.4780 C   0  0  0  0  0  3  0  0  0  0  0  0
  -23.6220  -29.8190   20.1550 C   0  0  0  0  0  2  0  0  0  0  0  0
  -24.6700  -31.0740   22.0870 N   0  0  0  0  0  0  0  0  0  0  0  0
  -23.5200  -32.1410   23.7290 O   0  0  0  0  0  0  0  0  0  0  0  0
  -22.7510  -29.4530   22.4930 C   0  0  0  0  0  0  0  0  0  0  0  0
  -21.4240  -29.2800   22.3730 N   0  0  0  0  0  0  0  0  0  0  0  0
  -23.4340  -28.8160   23.2980 O   0  0  0  0  0  0  0  0  0  0  0  0
  -20.9320  -29.8460   21.6960 H   0  0  0  0  0  0  0  0  0  0  0  0
  -18.0430  -28.1060   22.9010 C   0  0  0  0  0  0  0  0  0  0  0  0
  -20.6070  -28.3350   23.1370 C   0  0  0  0  0  3  0  0  0  0  0  0
  -20.6870  -26.9150   22.5310 C   0  0  0  0  0  2  0  0  0  0  0  0
  -19.5660  -26.6230   21.5290 C   0  0  0  0  0  2  0  0  0  0  0  0
  -18.1950  -26.7690   22.1970 C   0  0  0  0  0  2  0  0  0  0  0  0
  -19.1760  -28.8490   23.3280 C   0  0  0  0  0  0  0  0  0  0  0  0
  -18.9780  -30.1020   23.9480 C   0  0  0  0  0  3  0  0  0  0  0  0
  -17.6810  -30.6130   24.1440 C   0  0  0  0  0  3  0  0  0  0  0  0
  -16.5630  -29.8670   23.7320 C   0  0  0  0  0  3  0  0  0  0  0  0
  -16.7450  -28.6150   23.1170 C   0  0  0  0  0  3  0  0  0  0  0  0
  -25.8840  -32.5060   23.8180 C   0  0  0  0  0  3  0  0  0  0  0  0
  -26.3910  -31.7390   25.1020 C   0  0  1  0  0  0  0  0  0  0  0  0
  -25.2900  -31.5050   26.1620 C   0  0  0  0  0  1  0  0  0  0  0  0
  -26.9770  -30.3610   24.7180 C   0  0  0  0  0  1  0  0  0  0  0  0
  -27.5370  -32.5360   25.7700 C   0  0  0  0  0  1  0  0  0  0  0  0
  -25.5750  -33.9070   24.1420 N   0  0  0  0  0  0  0  0  0  0  0  0
  -25.8980  -34.9550   23.3730 C   0  0  0  0  0  0  0  0  0  0  0  0
  -26.5600  -34.8460   22.3370 O   0  0  0  0  0  0  0  0  0  0  0  0
  -24.9870  -34.0650   24.9470 H   0  0  0  0  0  0  0  0  0  0  0  0
  -24.1610  -36.7400   23.0240 C   0  0  0  0  0  1  0  0  0  0  0  0
  -25.4130  -36.3450   23.8250 C   0  0  0  0  0  3  0  0  0  0  0  0
  -27.5500  -37.2460   24.6320 C   0  0  0  0  0  1  0  0  0  0  0  0
  -26.4410  -37.4010   23.6930 N   0  0  0  0  0  0  0  0  0  0  0  0
  -26.0330  -38.3210   23.8330 H   0  0  0  0  0  0  0  0  0  0  0  0
  1  3  2  0
  2 50  1  0
  2  1  1  0
  4  2  1  0
  5  6  2  0
  5  8  1  0
  6  9  1  0
  7 10  1  0
  8  7  2  0
  8  1  1  0
  9 10  2  0
  9 20  1  0
 10 11  1  0
 12 20  1  0
 13 18  1  0
 14 15  1  0
 14 13  1  0
 16 15  1  0
 16 25  1  0
 16 17  1  0
 18 12  1  0
 18 17  1  0
 19 12  2  0
 20 21  1  0
 22 23  2  0
 23 42  1  0
 24 23  1  0
 24 27  1  0
 25 26  1  0
 25 22  1  0
 26 24  2  0
 27 28  1  0
 28 29  2  0
 30 33  1  0
 30 29  1  0
 31 30  2  0
 32 31  1  0
 32 27  2  0
 33 34  1  0
 34 35  1  0
 35 36  2  0
 37 36  1  0
 37 41  1  0
 38 37  2  0
 39 34  2  0
 39 38  1  0
 40 39  1  0
 42 43  1  0
 43 46  1  0
 43 45  1  0
 44 42  2  0
 47 22  1  0
 47 48  1  0
 49 47  1  0
 51 52  1  0
 51 50  2  0
 53 64  2  0
 54 52  1  0
 54 59  1  0
 55 63  1  0
 55 65  1  0
 56 62  1  0
 56 58  1  0
 57 63  1  0
 58 57  1  0
 59 58  2  0
 60 61  1  0
 60 54  2  0
 61 56  2  0
 62 55  1  0
 63 53  1  0
 65 67  2  0
 66 65  1  0
 68 66  1  0
 69 78  2  0
 69 74  1  0
 70 66  1  0
 70 74  1  0
 71 70  1  0
 72 73  1  0
 72 71  1  0
 73 69  1  0
 74 75  2  0
 75 76  1  0
 77 76  2  0
 78 77  1  0
 79 53  1  0
 79 84  1  0
 79 80  1  0
 80 83  1  1
 80 81  1  0
 82 80  1  0
 84 87  1  0
 85 89  1  0
 85 84  1  0
 86 85  2  0
 89 88  1  0
 91 89  1  0
 91 92  1  0
 91 90  1  0
M  ISO  4  12 100  20 100  51 101  52 101
M  END
>  <TORSDO>  (30) 
F 19

>  <SCORE>  (30) 
-14.373

>  <name>  (30) 
29

>  <ligand_id>  (30) 
29

>  <original_smiles>  (30) 
[H]c1c([H])c([H])c2c(c1[H])C([H])([H])C([H])([H])C([H])([H])C2([H])N([H])C(=O)C1([H])N(C(=O)C([H])(N([H])C(=O)C([H])(N([H])C([H])([H])[H])C([H])([H])[H])C(C([H])([H])[H])(C([H])([H])[H])C([H])([H])[H])C([H])([H])c2c([H])c(OC([H])([H])C([H])([H])N([H])C(=O)c3c([H])c([H])c(N([H])C(=O)N4C([H])([H])C([H])([H])C([H])([H])C([H])(n5nc(-c6c([H])c([H])c(Oc7c([H])c([H])c(F)c([H])c7F)c([H])c6[H])c(C(=O)N([H])[H])c5N([H])[H])C4([H])[H])c(F)c3[H])c([H])c([H])c2C1([H])[H]

>  <smiles>  (30) 
[H]c1c([H])c([H])c2c(c1[H])C([H])([H])C([H])([H])C([H])([H])C2([H])N([H])C(=O)C1([H])N(C(=O)C([H])(N([H])C(=O)C([H])(N([H])C([H])([H])[H])C([H])([H])[H])C(C([H])([H])[H])(C([H])([H])[H])C([H])([H])[H])C([H])([H])c2c([H])c(OC([H])([H])C([H])([H])N([H])C(=O)c3c([H])c([H])c(N([H])C(=O)N4C([H])([H])C([H])([H])C([H])([H])C([H])(n5nc(-c6c([H])c([H])c(Oc7c([H])c([H])c(F)c([H])c7F)c([H])c6[H])c(C(=O)N([H])[H])c5N([H])[H])C4([H])[H])c(F)c3[H])c([H])c([H])c2C1([H])[H]

$$$$
30:0:0
     RDKit          3D

 96104  0  0  1  0  0  0  0  0999 V2000
  -29.6280  -21.6760   20.9850 C   0  0  0  0  0  3  0  0  0  0  0  0
  -29.0830  -20.3690   20.3480 C   0  0  0  0  0  0  0  0  0  0  0  0
  -29.7750  -19.2210   20.5080 N   0  0  0  0  0  0  0  0  0  0  0  0
  -28.0030  -20.4010   19.7510 O   0  0  0  0  0  0  0  0  0  0  0  0
  -30.6770  -19.2840   20.9600 H   0  0  0  0  0  0  0  0  0  0  0  0
  -30.5300  -14.4140   19.7210 C   0  0  0  0  0  0  0  0  0  0  0  0
  -30.0870  -12.3190   18.4850 C   0  0  0  0  0  2  0  0  0  0  0  0
  -28.9960  -12.5710   17.4210 C   0  0  0  0  0  2  0  0  0  0  0  0
  -27.5840  -12.4070   18.0220 C   0  0  0  0  0  2  0  0  0  0  0  0
  -27.4170  -13.1560   19.3700 C   0  0  0  0  0  3  0  0  0  0  0  0
  -28.6040  -12.8300   20.3060 C   0  0  0  0  0  2  0  0  0  0  0  0
  -29.8320  -13.2410   19.6070 N   0  0  0  0  0  0  0  0  0  0  0  0
  -31.6100  -14.5630   19.1400 O   0  0  0  0  0  0  0  0  0  0  0  0
  -28.9040  -17.1950   21.6120 C   0  0  0  0  0  2  0  0  0  0  0  0
  -29.0060  -15.6970   21.3220 C   0  0  0  0  0  2  0  0  0  0  0  0
  -30.2130  -16.8750   19.6400 C   0  0  0  0  0  2  0  0  0  0  0  0
  -29.2330  -17.8710   20.2870 C   0  0  0  0  0  3  0  0  0  0  0  0
  -29.8600  -15.5310   20.1390 N   0  0  0  0  0  0  0  0  0  0  0  0
  -25.1250  -13.7290   20.3910 C   0  0  0  0  0  0  0  0  0  0  0  0
  -24.1080  -12.9390   20.8530 C   0  0  0  0  0  0  0  0  0  0  0  0
  -24.5560  -11.5910   20.6980 C   0  0  0  0  0  0  0  0  0  0  0  0
  -26.1320  -12.8620   19.9960 N   0  0  0  0  0  0  0  0  0  0  0  0
  -25.7970  -11.5680   20.2330 N   0  0  0  0  0  0  0  0  0  0  0  0
  -23.8540  -10.3200   20.9120 C   0  0  0  0  0  0  0  0  0  0  0  0
  -24.3560   -9.3380   21.7940 C   0  0  0  0  0  3  0  0  0  0  0  0
  -23.6530   -8.1320   21.9970 C   0  0  0  0  0  3  0  0  0  0  0  0
  -22.4340   -7.8980   21.3180 C   0  0  0  0  0  0  0  0  0  0  0  0
  -21.9500   -8.8680   20.4220 C   0  0  0  0  0  3  0  0  0  0  0  0
  -22.6540  -10.0670   20.2180 C   0  0  0  0  0  3  0  0  0  0  0  0
  -21.6960   -6.7450   21.4340 O   0  0  0  0  0  0  0  0  0  0  0  0
  -21.6740   -6.0190   22.5980 C   0  0  0  0  0  0  0  0  0  0  0  0
  -21.2600   -6.5890   23.8220 C   0  0  0  0  0  3  0  0  0  0  0  0
  -21.1830   -5.7900   24.9800 C   0  0  0  0  0  3  0  0  0  0  0  0
  -21.5100   -4.4220   24.9160 C   0  0  0  0  0  0  0  0  0  0  0  0
  -21.9150   -3.8520   23.6960 C   0  0  0  0  0  3  0  0  0  0  0  0
  -21.9930   -4.6480   22.5400 C   0  0  0  0  0  0  0  0  0  0  0  0
  -22.3650   -4.0880   21.3630 F   0  0  0  0  0  0  0  0  0  0  0  0
  -21.4290   -3.6510   26.0260 F   0  0  0  0  0  0  0  0  0  0  0  0
  -22.7570  -13.4000   21.3190 C   0  0  0  0  0  0  0  0  0  0  0  0
  -22.1470  -12.6680   22.2450 N   0  0  0  0  0  0  0  0  0  0  0  0
  -22.2540  -14.4410   20.8980 O   0  0  0  0  0  0  0  0  0  0  0  0
  -22.5690  -11.8240   22.6040 H   0  0  0  0  0  0  0  0  0  0  0  0
  -21.2450  -12.9550   22.6000 H   0  0  0  0  0  0  0  0  0  0  0  0
  -25.2700  -15.1080   20.2570 N   0  0  0  0  0  0  0  0  0  0  0  0
  -24.5220  -15.7530   20.4890 H   0  0  0  0  0  0  0  0  0  0  0  0
  -26.0670  -15.5620   19.8310 H   0  0  0  0  0  0  0  0  0  0  0  0
  -28.6820  -22.7760   20.6510 N   0  0  0  0  0  4  0  0  0  0  0  0
  -28.3010  -22.4730   19.7630 H   0  0  0  0  0  0  0  0  0  0  0  0
  -27.9120  -22.7230   21.2990 H   0  0  0  0  0  0  0  0  0  0  0  0
  -29.1800  -24.1850   20.5280 C   0  0  0  0  0  2  0  0  0  0  0  0
  -28.0680  -25.1110   19.9820 C   0  0  0  0  0  2  0  0  0  0  0  0
  -28.2530  -26.5290   20.1980 O   0  0  0  0  0  0  0  0  0  0  0  0
  -24.3940  -31.7330   23.1990 C   0  0  0  0  0  0  0  0  0  0  0  0
  -27.0960  -27.2930   20.1380 C   0  0  0  0  0  0  0  0  0  0  0  0
  -23.2170  -30.3230   21.5460 C   0  0  0  0  0  3  0  0  0  0  0  0
  -24.6960  -28.8080   20.1280 C   0  0  0  0  0  0  0  0  0  0  0  0
  -25.7460  -30.6950   21.3780 C   0  0  0  0  0  2  0  0  0  0  0  0
  -25.8480  -29.3270   20.7320 C   0  0  0  0  0  0  0  0  0  0  0  0
  -27.0520  -28.5780   20.7340 C   0  0  0  0  0  3  0  0  0  0  0  0
  -25.9220  -26.8130   19.5050 C   0  0  0  0  0  3  0  0  0  0  0  0
  -24.7290  -27.5510   19.5110 C   0  0  0  0  0  3  0  0  0  0  0  0
  -23.4450  -29.6560   20.1660 C   0  0  0  0  0  2  0  0  0  0  0  0
  -24.4700  -30.9310   22.0980 N   0  0  0  0  0  0  0  0  0  0  0  0
  -23.3040  -31.9970   23.7260 O   0  0  0  0  0  0  0  0  0  0  0  0
  -22.5660  -29.2910   22.4950 C   0  0  0  0  0  0  0  0  0  0  0  0
  -21.2490  -29.0790   22.3360 N   0  0  0  0  0  0  0  0  0  0  0  0
  -23.2420  -28.6860   23.3310 O   0  0  0  0  0  0  0  0  0  0  0  0
  -20.7650  -29.6210   21.6340 H   0  0  0  0  0  0  0  0  0  0  0  0
  -17.8920  -27.8030   22.7460 C   0  0  0  0  0  0  0  0  0  0  0  0
  -20.4340  -28.1290   23.0930 C   0  0  0  0  0  3  0  0  0  0  0  0
  -20.5890  -26.6950   22.5390 C   0  0  0  0  0  2  0  0  0  0  0  0
  -19.5280  -26.3300   21.4960 C   0  0  0  0  0  2  0  0  0  0  0  0
  -18.1230  -26.4500   22.0950 C   0  0  0  0  0  2  0  0  0  0  0  0
  -18.9770  -28.5990   23.2000 C   0  0  0  0  0  0  0  0  0  0  0  0
  -18.7090  -29.8650   23.7660 C   0  0  0  0  0  3  0  0  0  0  0  0
  -17.3880  -30.3350   23.8830 C   0  0  0  0  0  3  0  0  0  0  0  0
  -16.3160  -29.5370   23.4470 C   0  0  0  0  0  3  0  0  0  0  0  0
  -16.5690  -28.2730   22.8850 C   0  0  0  0  0  3  0  0  0  0  0  0
  -25.6670  -32.3740   23.8300 C   0  0  0  0  0  3  0  0  0  0  0  0
  -25.3550  -33.7790   24.1240 N   0  0  0  0  0  0  0  0  0  0  0  0
  -25.6830  -34.8110   23.3340 C   0  0  0  0  0  0  0  0  0  0  0  0
  -26.3530  -34.6810   22.3050 O   0  0  0  0  0  0  0  0  0  0  0  0
  -24.7640  -33.9550   24.9230 H   0  0  0  0  0  0  0  0  0  0  0  0
  -23.9350  -36.5750   22.9440 C   0  0  0  0  0  1  0  0  0  0  0  0
  -25.1890  -36.2090   23.7520 C   0  0  0  0  0  3  0  0  0  0  0  0
  -27.3240  -37.1410   24.5290 C   0  0  0  0  0  1  0  0  0  0  0  0
  -26.2120  -37.2670   23.5910 N   0  0  0  0  0  0  0  0  0  0  0  0
  -25.7980  -38.1870   23.7110 H   0  0  0  0  0  0  0  0  0  0  0  0
  -26.1580  -31.6280   25.1320 C   0  0  1  0  0  0  0  0  0  0  0  0
  -25.0420  -31.4040   26.1790 C   0  0  0  0  0  1  0  0  0  0  0  0
  -26.7550  -30.2470   24.7760 C   0  0  0  0  0  1  0  0  0  0  0  0
  -27.2910  -32.4390   25.8040 C   0  0  0  0  0  1  0  0  0  0  0  0
  -29.7570  -21.4540   22.5220 C   0  0  0  0  0  2  0  0  0  0  0  0
  -31.6770  -23.1190   22.8630 C   0  0  0  0  0  1  0  0  0  0  0  0
  -30.4710  -22.1410   24.8470 C   0  0  0  0  0  1  0  0  0  0  0  0
  -30.3270  -22.5990   23.3880 C   0  0  0  0  0  3  0  0  0  0  0  0
  1 93  1  0
  2  3  1  0
  2  1  1  0
  3  5  1  0
  4  2  2  0
  6 18  1  0
  7 12  1  0
  8  9  1  0
  8  7  1  0
 10  9  1  0
 10 22  1  0
 10 11  1  0
 12  6  1  0
 12 11  1  0
 13  6  2  0
 15 14  1  0
 16 18  1  0
 16 17  1  0
 17  3  1  0
 17 14  1  0
 18 15  1  0
 19 20  2  0
 20 39  1  0
 21 20  1  0
 21 24  1  0
 22 23  1  0
 22 19  1  0
 23 21  2  0
 24 25  1  0
 25 26  2  0
 27 30  1  0
 27 26  1  0
 28 27  2  0
 29 28  1  0
 29 24  2  0
 30 31  1  0
 31 32  1  0
 32 33  2  0
 34 33  1  0
 34 38  1  0
 35 34  2  0
 36 31  2  0
 36 35  1  0
 37 36  1  0
 39 40  1  0
 40 43  1  0
 40 42  1  0
 41 39  2  0
 44 19  1  0
 44 45  1  0
 46 44  1  0
 47  1  1  0
 47 49  1  0
 48 47  1  0
 50 47  1  0
 51 52  1  0
 51 50  1  0
 53 64  2  0
 54 52  1  0
 54 59  1  0
 55 63  1  0
 55 65  1  0
 56 62  1  0
 56 58  1  0
 57 63  1  0
 58 59  2  0
 58 57  1  0
 60 61  1  0
 60 54  2  0
 61 56  2  0
 62 55  1  0
 63 53  1  0
 65 67  2  0
 66 65  1  0
 68 66  1  0
 69 78  2  0
 69 74  1  0
 70 66  1  0
 70 74  1  0
 71 70  1  0
 72 73  1  0
 72 71  1  0
 73 69  1  0
 74 75  2  0
 75 76  1  0
 77 76  2  0
 78 77  1  0
 79 53  1  0
 79 80  1  0
 79 89  1  0
 80 83  1  0
 81 85  1  0
 81 80  1  0
 82 81  2  0
 85 84  1  0
 87 88  1  0
 87 85  1  0
 87 86  1  0
 89 92  1  1
 89 90  1  0
 91 89  1  0
 93 96  1  0
 94 96  1  0
 96 95  1  0
M  ISO  4   6 100  18 100  51 101  52 101
M  END
>  <TORSDO>  (31) 
F 22

>  <SCORE>  (31) 
-9.914

>  <name>  (31) 
30

>  <ligand_id>  (31) 
30

>  <original_smiles>  (31) 
[H]c1c([H])c([H])c2c(c1[H])C([H])([H])C([H])([H])C([H])([H])C2([H])N([H])C(=O)C1([H])N(C(=O)C([H])(N([H])C(=O)C([H])(N([H])C([H])([H])[H])C([H])([H])[H])C(C([H])([H])[H])(C([H])([H])[H])C([H])([H])[H])C([H])([H])c2c([H])c(OC([H])([H])C([H])([H])[N+]([H])([H])C([H])(C(=O)N([H])C3([H])C([H])([H])N(C(=O)N4C([H])([H])C([H])([H])C([H])([H])C([H])(n5nc(-c6c([H])c([H])c(Oc7c([H])c([H])c(F)c([H])c7F)c([H])c6[H])c(C(=O)N([H])[H])c5N([H])[H])C4([H])[H])C([H])([H])C3([H])[H])C([H])([H])C([H])(C([H])([H])[H])C([H])([H])[H])c([H])c([H])c2C1([H])[H]

>  <smiles>  (31) 
[H]c1c([H])c([H])c2c(c1[H])C([H])([H])C([H])([H])C([H])([H])C2([H])N([H])C(=O)C1([H])N(C(=O)C([H])(N([H])C(=O)C([H])(N([H])C([H])([H])[H])C([H])([H])[H])C(C([H])([H])[H])(C([H])([H])[H])C([H])([H])[H])C([H])([H])c2c([H])c(OC([H])([H])C([H])([H])[N+]([H])([H])C([H])(C(=O)N([H])C3([H])C([H])([H])N(C(=O)N4C([H])([H])C([H])([H])C([H])([H])C([H])(n5nc(-c6c([H])c([H])c(Oc7c([H])c([H])c(F)c([H])c7F)c([H])c6[H])c(C(=O)N([H])[H])c5N([H])[H])C4([H])[H])C([H])([H])C3([H])[H])C([H])([H])C([H])(C([H])([H])[H])C([H])([H])[H])c([H])c([H])c2C1([H])[H]

$$$$
31:0:0
     RDKit          3D

 94102  0  0  1  0  0  0  0  0999 V2000
  -29.8810  -22.2280   20.8780 C   0  0  0  0  0  2  0  0  0  0  0  0
  -28.6060  -18.1520   19.8170 C   0  0  0  0  0  3  0  0  0  0  0  0
  -27.6520  -19.1880   19.9370 C   0  0  0  0  0  3  0  0  0  0  0  0
  -30.3740  -19.7300   20.4020 C   0  0  0  0  0  3  0  0  0  0  0  0
  -29.9680  -18.3960   20.0940 C   0  0  0  0  0  0  0  0  0  0  0  0
  -29.4280  -20.7980   20.4860 C   0  0  0  0  0  0  0  0  0  0  0  0
  -28.0510  -20.5010   20.2570 C   0  0  0  0  0  0  0  0  0  0  0  0
  -27.1040  -21.4640   20.3370 F   0  0  0  0  0  0  0  0  0  0  0  0
  -30.9590  -17.2080   20.1780 C   0  0  0  0  0  2  0  0  0  0  0  0
  -31.0820  -14.7160   19.8470 C   0  0  0  0  0  0  0  0  0  0  0  0
  -30.7900  -12.3790   19.0760 C   0  0  0  0  0  2  0  0  0  0  0  0
  -29.8240  -12.2950   17.8820 C   0  0  0  0  0  2  0  0  0  0  0  0
  -28.3680  -12.2120   18.3640 C   0  0  0  0  0  2  0  0  0  0  0  0
  -28.0170  -13.2690   19.4400 C   0  0  0  0  0  3  0  0  0  0  0  0
  -29.0930  -13.3370   20.5340 C   0  0  0  0  0  2  0  0  0  0  0  0
  -30.3950  -13.5450   19.8750 N   0  0  0  0  0  0  0  0  0  0  0  0
  -32.2910  -14.7770   19.5920 O   0  0  0  0  0  0  0  0  0  0  0  0
  -30.3580  -15.8590   19.8720 N   0  0  0  0  0  0  0  0  0  0  0  0
  -29.4760  -15.7860   19.3420 H   0  0  0  0  0  0  0  0  0  0  0  0
  -25.7320  -14.0010   20.3130 C   0  0  0  0  0  0  0  0  0  0  0  0
  -24.6420  -13.2870   20.7380 C   0  0  0  0  0  0  0  0  0  0  0  0
  -25.0230  -11.9080   20.6920 C   0  0  0  0  0  0  0  0  0  0  0  0
  -26.6940  -13.0550   20.0030 N   0  0  0  0  0  0  0  0  0  0  0  0
  -26.2780  -11.7940   20.2800 N   0  0  0  0  0  0  0  0  0  0  0  0
  -24.2390  -10.6810   20.9100 C   0  0  0  0  0  0  0  0  0  0  0  0
  -24.6360   -9.6620   21.8150 C   0  0  0  0  0  3  0  0  0  0  0  0
  -23.8340   -8.5020   21.9700 C   0  0  0  0  0  3  0  0  0  0  0  0
  -22.6230   -8.3700   21.2550 C   0  0  0  0  0  0  0  0  0  0  0  0
  -22.2520   -9.3750   20.3410 C   0  0  0  0  0  3  0  0  0  0  0  0
  -23.0540  -10.5130   20.1800 C   0  0  0  0  0  3  0  0  0  0  0  0
  -21.7960   -7.2830   21.3640 O   0  0  0  0  0  0  0  0  0  0  0  0
  -21.7090   -6.5540   22.5230 C   0  0  0  0  0  0  0  0  0  0  0  0
  -21.3410   -7.1520   23.7520 C   0  0  0  0  0  3  0  0  0  0  0  0
  -21.2030   -6.3670   24.9090 C   0  0  0  0  0  3  0  0  0  0  0  0
  -21.4220   -4.9760   24.8520 C   0  0  0  0  0  0  0  0  0  0  0  0
  -21.7890   -4.3770   23.6390 C   0  0  0  0  0  3  0  0  0  0  0  0
  -21.9180   -5.1650   22.4740 C   0  0  0  0  0  0  0  0  0  0  0  0
  -22.2570   -4.5640   21.3080 F   0  0  0  0  0  0  0  0  0  0  0  0
  -21.2710   -4.2280   25.9670 F   0  0  0  0  0  0  0  0  0  0  0  0
  -23.2880  -13.8520   21.0370 C   0  0  0  0  0  0  0  0  0  0  0  0
  -22.5370  -13.2320   21.9380 N   0  0  0  0  0  0  0  0  0  0  0  0
  -22.8850  -14.8880   20.5060 O   0  0  0  0  0  0  0  0  0  0  0  0
  -22.8900  -12.4380   22.4500 H   0  0  0  0  0  0  0  0  0  0  0  0
  -21.6140  -13.5870   22.1310 H   0  0  0  0  0  0  0  0  0  0  0  0
  -25.9710  -15.3600   20.1460 N   0  0  0  0  0  0  0  0  0  0  0  0
  -25.2540  -16.0700   20.2800 H   0  0  0  0  0  0  0  0  0  0  0  0
  -26.8290  -15.7240   19.7420 H   0  0  0  0  0  0  0  0  0  0  0  0
  -28.9010  -23.2840   20.5070 N   0  0  0  0  0  4  0  0  0  0  0  0
  -28.0460  -22.9580   20.9450 H   0  0  0  0  0  0  0  0  0  0  0  0
  -28.7180  -23.2700   19.5180 H   0  0  0  0  0  0  0  0  0  0  0  0
  -29.1100  -24.6810   21.0260 C   0  0  0  0  0  2  0  0  0  0  0  0
  -29.4690  -25.3910   18.4820 C   0  0  0  0  0  1  0  0  0  0  0  0
  -29.5030  -25.7670   19.9840 C   0  0  0  0  0  3  0  0  0  0  0  0
  -29.0640  -27.1100   20.3410 O   0  0  0  0  0  0  0  0  0  0  0  0
  -24.6410  -31.8730   23.2690 C   0  0  0  0  0  0  0  0  0  0  0  0
  -27.7780  -27.6490   20.3040 C   0  0  0  0  0  0  0  0  0  0  0  0
  -23.6140  -30.4100   21.5450 C   0  0  0  0  0  3  0  0  0  0  0  0
  -25.2540  -28.9810   20.1900 C   0  0  0  0  0  0  0  0  0  0  0  0
  -26.1090  -30.9560   21.4680 C   0  0  0  0  0  2  0  0  0  0  0  0
  -26.3380  -29.5950   20.8230 C   0  0  0  0  0  0  0  0  0  0  0  0
  -27.5990  -28.9480   20.8550 C   0  0  0  0  0  3  0  0  0  0  0  0
  -26.6540  -27.0210   19.7290 C   0  0  0  0  0  3  0  0  0  0  0  0
  -25.4090  -27.6880   19.6430 C   0  0  0  0  0  3  0  0  0  0  0  0
  -23.9470  -29.7510   20.1750 C   0  0  0  0  0  2  0  0  0  0  0  0
  -24.8010  -31.0930   22.1550 N   0  0  0  0  0  0  0  0  0  0  0  0
  -23.5190  -32.0590   23.7570 O   0  0  0  0  0  0  0  0  0  0  0  0
  -22.9890  -29.3400   22.4660 C   0  0  0  0  0  0  0  0  0  0  0  0
  -21.6830  -29.0900   22.2910 N   0  0  0  0  0  0  0  0  0  0  0  0
  -23.6780  -28.7410   23.2980 O   0  0  0  0  0  0  0  0  0  0  0  0
  -21.1830  -29.6320   21.5970 H   0  0  0  0  0  0  0  0  0  0  0  0
  -18.3660  -27.7150   22.6670 C   0  0  0  0  0  0  0  0  0  0  0  0
  -20.8970  -28.0920   23.0130 C   0  0  0  0  0  3  0  0  0  0  0  0
  -21.0900  -26.6880   22.3980 C   0  0  0  0  0  2  0  0  0  0  0  0
  -20.0340  -26.3410   21.3450 C   0  0  0  0  0  2  0  0  0  0  0  0
  -18.6300  -26.3980   21.9550 C   0  0  0  0  0  2  0  0  0  0  0  0
  -19.4330  -28.5180   23.1470 C   0  0  0  0  0  0  0  0  0  0  0  0
  -19.1380  -29.7500   23.7710 C   0  0  0  0  0  3  0  0  0  0  0  0
  -17.8070  -30.1790   23.9200 C   0  0  0  0  0  3  0  0  0  0  0  0
  -16.7510  -29.3750   23.4540 C   0  0  0  0  0  3  0  0  0  0  0  0
  -17.0330  -28.1430   22.8330 C   0  0  0  0  0  3  0  0  0  0  0  0
  -25.8500  -32.5880   23.9560 C   0  0  0  0  0  3  0  0  0  0  0  0
  -25.4520  -33.9760   24.2260 N   0  0  0  0  0  0  0  0  0  0  0  0
  -25.7820  -35.0250   23.4590 C   0  0  0  0  0  0  0  0  0  0  0  0
  -26.5180  -34.9310   22.4750 O   0  0  0  0  0  0  0  0  0  0  0  0
  -24.8080  -34.1260   24.9890 H   0  0  0  0  0  0  0  0  0  0  0  0
  -23.9840  -36.7190   22.9510 C   0  0  0  0  0  1  0  0  0  0  0  0
  -25.1960  -36.4000   23.8440 C   0  0  0  0  0  3  0  0  0  0  0  0
  -27.2340  -37.4180   24.7710 C   0  0  0  0  0  1  0  0  0  0  0  0
  -26.1820  -37.5050   23.7600 N   0  0  0  0  0  0  0  0  0  0  0  0
  -25.7150  -38.4030   23.8650 H   0  0  0  0  0  0  0  0  0  0  0  0
  -26.3210  -31.8780   25.2840 C   0  0  1  0  0  0  0  0  0  0  0  0
  -25.1720  -31.6060   26.2810 C   0  0  0  0  0  1  0  0  0  0  0  0
  -27.0050  -30.5300   24.9690 C   0  0  0  0  0  1  0  0  0  0  0  0
  -27.3760  -32.7470   26.0140 C   0  0  0  0  0  1  0  0  0  0  0  0
  2  3  2  0
  2  5  1  0
  3  7  1  0
  4  6  1  0
  5  9  1  0
  5  4  2  0
  6  1  1  0
  7  8  1  0
  7  6  2  0
 10 18  1  0
 10 16  1  0
 11 16  1  0
 12 13  1  0
 12 11  1  0
 14 13  1  0
 14 23  1  0
 14 15  1  0
 16 15  1  0
 17 10  2  0
 18  9  1  0
 19 18  1  0
 20 21  2  0
 21 40  1  0
 22 21  1  0
 22 25  1  0
 23 24  1  0
 23 20  1  0
 24 22  2  0
 25 26  1  0
 26 27  2  0
 28 31  1  0
 28 27  1  0
 29 28  2  0
 30 29  1  0
 30 25  2  0
 31 32  1  0
 32 33  1  0
 33 34  2  0
 35 34  1  0
 35 39  1  0
 36 35  2  0
 37 32  2  0
 37 36  1  0
 38 37  1  0
 40 41  1  0
 41 44  1  0
 41 43  1  0
 42 40  2  0
 45 46  1  0
 45 20  1  0
 47 45  1  0
 48  1  1  0
 48 49  1  0
 48 51  1  0
 50 48  1  0
 53 52  1  0
 53 54  1  0
 53 51  1  0
 55 66  2  0
 56 54  1  0
 56 61  1  0
 57 65  1  0
 57 67  1  0
 58 60  1  0
 59 65  1  0
 60 61  2  0
 60 59  1  0
 62 56  2  0
 63 62  1  0
 63 58  2  0
 64 58  1  0
 64 57  1  0
 65 55  1  0
 67 69  2  0
 68 67  1  0
 70 68  1  0
 71 80  2  0
 71 76  1  0
 72 68  1  0
 72 76  1  0
 73 72  1  0
 74 75  1  0
 74 73  1  0
 75 71  1  0
 76 77  2  0
 77 78  1  0
 79 78  2  0
 80 79  1  0
 81 55  1  0
 81 82  1  0
 81 91  1  0
 82 85  1  0
 83 87  1  0
 83 82  1  0
 84 83  2  0
 87 86  1  0
 89 87  1  0
 89 90  1  0
 89 88  1  0
 91 94  1  1
 91 92  1  0
 93 91  1  0
M  ISO  4  10 100  18 100  53 101  54 101
M  END
>  <TORSDO>  (32) 
F 21

>  <SCORE>  (32) 
-12.904

>  <name>  (32) 
31

>  <ligand_id>  (32) 
31

>  <original_smiles>  (32) 
[H]c1c([H])c([H])c2c(c1[H])C([H])([H])C([H])([H])C([H])([H])C2([H])N([H])C(=O)C1([H])N(C(=O)C([H])(N([H])C(=O)C([H])(N([H])C([H])([H])[H])C([H])([H])[H])C(C([H])([H])[H])(C([H])([H])[H])C([H])([H])[H])C([H])([H])c2c([H])c(OC([H])(C([H])([H])[H])C([H])([H])[N+]([H])([H])C([H])([H])c3c([H])c(C([H])([H])N([H])C(=O)N4C([H])([H])C([H])([H])C([H])([H])C([H])(n5nc(-c6c([H])c([H])c(Oc7c([H])c([H])c(F)c([H])c7F)c([H])c6[H])c(C(=O)N([H])[H])c5N([H])[H])C4([H])[H])c([H])c([H])c3F)c([H])c([H])c2C1([H])[H]

>  <smiles>  (32) 
[H]c1c([H])c([H])c2c(c1[H])C([H])([H])C([H])([H])C([H])([H])C2([H])N([H])C(=O)C1([H])N(C(=O)C([H])(N([H])C(=O)C([H])(N([H])C([H])([H])[H])C([H])([H])[H])C(C([H])([H])[H])(C([H])([H])[H])C([H])([H])[H])C([H])([H])c2c([H])c(OC([H])(C([H])([H])[H])C([H])([H])[N+]([H])([H])C([H])([H])c3c([H])c(C([H])([H])N([H])C(=O)N4C([H])([H])C([H])([H])C([H])([H])C([H])(n5nc(-c6c([H])c([H])c(Oc7c([H])c([H])c(F)c([H])c7F)c([H])c6[H])c(C(=O)N([H])[H])c5N([H])[H])C4([H])[H])c([H])c([H])c3F)c([H])c([H])c2C1([H])[H]

$$$$
32:0:0
     RDKit          3D

 95104  0  0  1  0  0  0  0  0999 V2000
  -30.4890  -22.4640   21.5850 C   0  0  0  0  0  2  0  0  0  0  0  0
  -30.0180  -23.9260   21.4150 C   0  0  0  0  0  2  0  0  0  0  0  0
  -29.3260  -21.6200   21.0280 C   0  0  0  0  0  3  0  0  0  0  0  0
  -29.1640  -23.9270   20.1360 C   0  0  0  0  0  3  0  0  0  0  0  0
  -28.7830  -22.4730   19.9250 N   0  0  0  0  0  4  0  0  0  0  0  0
  -27.7880  -22.3390   19.8380 H   0  0  0  0  0  0  0  0  0  0  0  0
  -29.2120  -22.1590   19.0700 H   0  0  0  0  0  0  0  0  0  0  0  0
  -28.4360  -19.2070   20.6600 C   0  0  0  0  0  3  0  0  0  0  0  0
  -30.9600  -17.9990   20.5420 C   0  0  0  0  0  3  0  0  0  0  0  0
  -29.5590  -20.0710   20.7610 C   0  0  0  0  0  0  0  0  0  0  0  0
  -29.8230  -17.1490   20.4920 C   0  0  0  0  0  0  0  0  0  0  0  0
  -28.5650  -17.7990   20.5240 C   0  0  0  0  0  0  0  0  0  0  0  0
  -30.8320  -19.4200   20.6860 C   0  0  0  0  0  0  0  0  0  0  0  0
  -27.4480  -17.0460   20.4190 F   0  0  0  0  0  0  0  0  0  0  0  0
  -31.9710  -20.1440   20.7650 F   0  0  0  0  0  0  0  0  0  0  0  0
  -30.6510  -14.6920   20.0690 C   0  0  0  0  0  0  0  0  0  0  0  0
  -30.4040  -12.5100   18.9090 C   0  0  0  0  0  2  0  0  0  0  0  0
  -29.3800  -12.7200   17.7750 C   0  0  0  0  0  2  0  0  0  0  0  0
  -27.9280  -12.5490   18.2730 C   0  0  0  0  0  2  0  0  0  0  0  0
  -27.6520  -13.3180   19.5930 C   0  0  0  0  0  3  0  0  0  0  0  0
  -28.7830  -13.0930   20.6240 C   0  0  0  0  0  2  0  0  0  0  0  0
  -30.0570  -13.4620   19.9840 N   0  0  0  0  0  0  0  0  0  0  0  0
  -31.7990  -14.8980   19.6630 O   0  0  0  0  0  0  0  0  0  0  0  0
  -29.7880  -15.6920   20.4160 N   0  0  0  0  0  0  0  0  0  0  0  0
  -28.8690  -15.3250   20.6200 H   0  0  0  0  0  0  0  0  0  0  0  0
  -25.3010  -13.8850   20.4630 C   0  0  0  0  0  0  0  0  0  0  0  0
  -24.2590  -13.0990   20.8680 C   0  0  0  0  0  0  0  0  0  0  0  0
  -24.7190  -11.7500   20.7640 C   0  0  0  0  0  0  0  0  0  0  0  0
  -26.3350  -13.0160   20.1510 N   0  0  0  0  0  0  0  0  0  0  0  0
  -25.9920  -11.7230   20.3850 N   0  0  0  0  0  0  0  0  0  0  0  0
  -24.0050  -10.4840   20.9540 C   0  0  0  0  0  0  0  0  0  0  0  0
  -24.4360   -9.5210   21.8920 C   0  0  0  0  0  3  0  0  0  0  0  0
  -23.7170   -8.3200   22.0660 C   0  0  0  0  0  3  0  0  0  0  0  0
  -22.5520   -8.0720   21.3030 C   0  0  0  0  0  0  0  0  0  0  0  0
  -22.1400   -9.0260   20.3550 C   0  0  0  0  0  3  0  0  0  0  0  0
  -22.8580  -10.2190   20.1790 C   0  0  0  0  0  3  0  0  0  0  0  0
  -21.8050   -6.9230   21.3870 O   0  0  0  0  0  0  0  0  0  0  0  0
  -21.6810   -6.2300   22.5650 C   0  0  0  0  0  0  0  0  0  0  0  0
  -21.1370   -6.8230   23.7240 C   0  0  0  0  0  3  0  0  0  0  0  0
  -20.9610   -6.0550   24.8940 C   0  0  0  0  0  3  0  0  0  0  0  0
  -21.3180   -4.6930   24.8990 C   0  0  0  0  0  0  0  0  0  0  0  0
  -21.8490   -4.0970   23.7420 C   0  0  0  0  0  3  0  0  0  0  0  0
  -22.0260   -4.8640   22.5770 C   0  0  0  0  0  0  0  0  0  0  0  0
  -22.5190   -4.2780   21.4600 F   0  0  0  0  0  0  0  0  0  0  0  0
  -21.1420   -3.9520   26.0210 F   0  0  0  0  0  0  0  0  0  0  0  0
  -22.8820  -13.5690   21.2400 C   0  0  0  0  0  0  0  0  0  0  0  0
  -22.2130  -12.8530   22.1360 N   0  0  0  0  0  0  0  0  0  0  0  0
  -22.4120  -14.6070   20.7730 O   0  0  0  0  0  0  0  0  0  0  0  0
  -22.6050  -12.0140   22.5400 H   0  0  0  0  0  0  0  0  0  0  0  0
  -21.2910  -13.1490   22.4220 H   0  0  0  0  0  0  0  0  0  0  0  0
  -25.4330  -15.2610   20.3170 N   0  0  0  0  0  0  0  0  0  0  0  0
  -24.6540  -15.8830   20.4950 H   0  0  0  0  0  0  0  0  0  0  0  0
  -26.2930  -15.7690   20.1450 H   0  0  0  0  0  0  0  0  0  0  0  0
  -27.9800  -24.9850   20.1080 C   0  0  0  0  0  2  0  0  0  0  0  0
  -28.3070  -26.4400   20.0530 O   0  0  0  0  0  0  0  0  0  0  0  0
  -24.6390  -31.7910   23.2260 C   0  0  0  0  0  0  0  0  0  0  0  0
  -27.2220  -27.3340   20.0150 C   0  0  0  0  0  0  0  0  0  0  0  0
  -23.4380  -30.4630   21.5320 C   0  0  0  0  0  3  0  0  0  0  0  0
  -24.8840  -28.9740   20.0510 C   0  0  0  0  0  0  0  0  0  0  0  0
  -25.9850  -30.7800   21.3690 C   0  0  0  0  0  2  0  0  0  0  0  0
  -26.0540  -29.4260   20.6730 C   0  0  0  0  0  0  0  0  0  0  0  0
  -27.2330  -28.6170   20.6450 C   0  0  0  0  0  3  0  0  0  0  0  0
  -26.0310  -26.9530   19.3530 C   0  0  0  0  0  3  0  0  0  0  0  0
  -24.8750  -27.7440   19.3820 C   0  0  0  0  0  3  0  0  0  0  0  0
  -23.6530  -29.8520   20.1250 C   0  0  0  0  0  2  0  0  0  0  0  0
  -24.7060  -31.0290   22.0960 N   0  0  0  0  0  0  0  0  0  0  0  0
  -23.5510  -32.0450   23.7650 O   0  0  0  0  0  0  0  0  0  0  0  0
  -22.7760  -29.4020   22.4470 C   0  0  0  0  0  0  0  0  0  0  0  0
  -21.4500  -29.2290   22.3120 N   0  0  0  0  0  0  0  0  0  0  0  0
  -23.4530  -28.7430   23.2410 O   0  0  0  0  0  0  0  0  0  0  0  0
  -20.9630  -29.8200   21.6530 H   0  0  0  0  0  0  0  0  0  0  0  0
  -18.0610  -28.0460   22.7920 C   0  0  0  0  0  0  0  0  0  0  0  0
  -20.6260  -28.2600   23.0390 C   0  0  0  0  0  3  0  0  0  0  0  0
  -20.6990  -26.8590   22.3930 C   0  0  0  0  0  2  0  0  0  0  0  0
  -19.5790  -26.6020   21.3790 C   0  0  0  0  0  2  0  0  0  0  0  0
  -18.2080  -26.7310   22.0460 C   0  0  0  0  0  2  0  0  0  0  0  0
  -19.1940  -28.7720   23.2450 C   0  0  0  0  0  0  0  0  0  0  0  0
  -18.9970  -30.0070   23.9040 C   0  0  0  0  0  3  0  0  0  0  0  0
  -17.6980  -30.5150   24.1040 C   0  0  0  0  0  3  0  0  0  0  0  0
  -16.5820  -29.7860   23.6620 C   0  0  0  0  0  3  0  0  0  0  0  0
  -16.7640  -28.5500   23.0150 C   0  0  0  0  0  3  0  0  0  0  0  0
  -25.9160  -32.4010   23.8770 C   0  0  0  0  0  3  0  0  0  0  0  0
  -25.6130  -33.7970   24.2200 N   0  0  0  0  0  0  0  0  0  0  0  0
  -25.9330  -34.8530   23.4590 C   0  0  0  0  0  0  0  0  0  0  0  0
  -26.5790  -34.7520   22.4140 O   0  0  0  0  0  0  0  0  0  0  0  0
  -25.0270  -33.9420   25.0280 H   0  0  0  0  0  0  0  0  0  0  0  0
  -24.1800  -36.6370   23.1760 C   0  0  0  0  0  1  0  0  0  0  0  0
  -25.4610  -36.2440   23.9330 C   0  0  0  0  0  3  0  0  0  0  0  0
  -27.6260  -37.1460   24.6600 C   0  0  0  0  0  1  0  0  0  0  0  0
  -26.4830  -37.3000   23.7630 N   0  0  0  0  0  0  0  0  0  0  0  0
  -26.0820  -38.2230   23.9060 H   0  0  0  0  0  0  0  0  0  0  0  0
  -26.3950  -31.6060   25.1520 C   0  0  1  0  0  0  0  0  0  0  0  0
  -25.2760  -31.3630   26.1940 C   0  0  0  0  0  1  0  0  0  0  0  0
  -26.9710  -30.2270   24.7530 C   0  0  0  0  0  1  0  0  0  0  0  0
  -27.5420  -32.3780   25.8430 C   0  0  0  0  0  1  0  0  0  0  0  0
  2  1  1  0
  3 10  1  0
  3  1  1  0
  4 54  1  0
  4  2  1  0
  5  4  1  0
  5  3  1  0
  6  5  1  0
  7  5  1  0
  8 10  1  0
  9 13  1  0
 11 12  1  0
 11  9  2  0
 12  8  2  0
 13 10  2  0
 13 15  1  0
 14 12  1  0
 16 24  1  0
 17 22  1  0
 18 19  1  0
 18 17  1  0
 20 19  1  0
 20 29  1  0
 20 21  1  0
 22 16  1  0
 22 21  1  0
 23 16  2  0
 24 11  1  0
 24 25  1  0
 26 27  2  0
 27 46  1  0
 28 27  1  0
 28 31  1  0
 29 30  1  0
 29 26  1  0
 30 28  2  0
 31 32  1  0
 32 33  2  0
 34 37  1  0
 34 33  1  0
 35 34  2  0
 36 35  1  0
 36 31  2  0
 37 38  1  0
 38 43  2  0
 38 39  1  0
 39 40  2  0
 40 41  1  0
 41 45  1  0
 42 41  2  0
 43 42  1  0
 44 43  1  0
 46 47  1  0
 47 50  1  0
 47 49  1  0
 48 46  2  0
 51 26  1  0
 51 52  1  0
 53 51  1  0
 55 54  1  0
 56 67  2  0
 57 55  1  0
 57 62  1  0
 58 66  1  0
 58 68  1  0
 59 65  1  0
 59 61  1  0
 60 66  1  0
 61 60  1  0
 62 61  2  0
 63 64  1  0
 63 57  2  0
 64 59  2  0
 65 58  1  0
 66 56  1  0
 68 70  2  0
 69 68  1  0
 71 69  1  0
 72 81  2  0
 72 77  1  0
 73 69  1  0
 73 77  1  0
 74 73  1  0
 75 76  1  0
 75 74  1  0
 76 72  1  0
 77 78  2  0
 78 79  1  0
 80 79  2  0
 81 80  1  0
 82 56  1  0
 82 83  1  0
 82 92  1  0
 83 86  1  0
 84 88  1  0
 84 83  1  0
 85 84  2  0
 88 87  1  0
 90 91  1  0
 90 88  1  0
 90 89  1  0
 92 95  1  1
 92 93  1  0
 94 92  1  0
M  ISO  4  16 100  24 100  54 101  55 101
M  END
>  <TORSDO>  (33) 
F 18

>  <SCORE>  (33) 
-14.819

>  <name>  (33) 
32

>  <ligand_id>  (33) 
32

>  <original_smiles>  (33) 
[H]c1c([H])c([H])c2c(c1[H])C([H])([H])C([H])([H])C([H])([H])C2([H])N([H])C(=O)C1([H])N(C(=O)C([H])(N([H])C(=O)C([H])(N([H])C([H])([H])[H])C([H])([H])[H])C(C([H])([H])[H])(C([H])([H])[H])C([H])([H])[H])C([H])([H])c2c([H])c(OC([H])([H])C3([H])C([H])([H])C([H])([H])C([H])(c4c([H])c(F)c(N([H])C(=O)N5C([H])([H])C([H])([H])C([H])([H])C([H])(n6nc(-c7c([H])c([H])c(Oc8c([H])c([H])c(F)c([H])c8F)c([H])c7[H])c(C(=O)N([H])[H])c6N([H])[H])C5([H])[H])c([H])c4F)[N+]3([H])[H])c([H])c([H])c2C1([H])[H]

>  <smiles>  (33) 
[H]c1c([H])c([H])c2c(c1[H])C([H])([H])C([H])([H])C([H])([H])C2([H])N([H])C(=O)C1([H])N(C(=O)C([H])(N([H])C(=O)C([H])(N([H])C([H])([H])[H])C([H])([H])[H])C(C([H])([H])[H])(C([H])([H])[H])C([H])([H])[H])C([H])([H])c2c([H])c(OC([H])([H])C3([H])C([H])([H])C([H])([H])C([H])(c4c([H])c(F)c(N([H])C(=O)N5C([H])([H])C([H])([H])C([H])([H])C([H])(n6nc(-c7c([H])c([H])c(Oc8c([H])c([H])c(F)c([H])c8F)c([H])c7[H])c(C(=O)N([H])[H])c6N([H])[H])C5([H])[H])c([H])c4F)[N+]3([H])[H])c([H])c([H])c2C1([H])[H]

$$$$
33:0:0
     RDKit          3D

 97106  0  0  1  0  0  0  0  0999 V2000
  -29.8480  -20.7630   20.7070 C   0  0  0  0  0  2  0  0  0  0  0  0
  -32.1130  -21.7290   21.1710 C   0  0  0  0  0  2  0  0  0  0  0  0
  -29.2840  -22.1960   20.5840 C   0  0  0  0  0  2  0  0  0  0  0  0
  -31.4990  -23.1330   21.0760 C   0  0  0  0  0  2  0  0  0  0  0  0
  -31.0790  -20.6870   21.6410 C   0  0  0  0  0  3  0  0  0  0  0  0
  -30.3340  -23.1580   20.1570 N   0  0  2  0  0  4  0  0  0  0  0  0
  -30.6480  -22.8550   19.2450 H   0  0  0  0  0  0  0  0  0  0  0  0
  -31.7200  -19.2790   21.6720 C   0  0  0  0  0  2  0  0  0  0  0  0
  -31.1620  -18.0850   23.7520 C   0  0  0  0  0  1  0  0  0  0  0  0
  -30.8510  -18.2570   22.3140 N   0  0  2  0  0  4  0  0  0  0  0  0
  -29.9040  -18.6010   22.2690 H   0  0  0  0  0  0  0  0  0  0  0  0
  -30.5750  -14.4670   20.0470 C   0  0  0  0  0  0  0  0  0  0  0  0
  -30.2390  -12.3490   18.8430 C   0  0  0  0  0  2  0  0  0  0  0  0
  -29.2080  -12.5670   17.7160 C   0  0  0  0  0  2  0  0  0  0  0  0
  -27.7730  -12.3910   18.2480 C   0  0  0  0  0  2  0  0  0  0  0  0
  -27.5060  -13.1940   19.5520 C   0  0  0  0  0  3  0  0  0  0  0  0
  -28.6390  -12.9480   20.5750 C   0  0  0  0  0  2  0  0  0  0  0  0
  -29.9150  -13.2880   19.9240 N   0  0  0  0  0  0  0  0  0  0  0  0
  -31.6270  -14.7260   19.4520 O   0  0  0  0  0  0  0  0  0  0  0  0
  -30.0800  -15.7950   22.1000 C   0  0  0  0  0  2  0  0  0  0  0  0
  -29.9870  -16.8700   20.3500 C   0  0  0  0  0  2  0  0  0  0  0  0
  -30.8910  -16.9740   21.5730 C   0  0  0  0  0  3  0  0  0  0  0  0
  -29.8850  -15.4350   20.6810 N   0  0  0  0  0  0  0  0  0  0  0  0
  -25.1300  -13.7270   20.3900 C   0  0  0  0  0  0  0  0  0  0  0  0
  -24.1150  -12.9210   20.8350 C   0  0  0  0  0  0  0  0  0  0  0  0
  -24.6240  -11.5870   20.7910 C   0  0  0  0  0  0  0  0  0  0  0  0
  -26.1930  -12.8810   20.1120 N   0  0  0  0  0  0  0  0  0  0  0  0
  -25.8940  -11.5900   20.4050 N   0  0  0  0  0  0  0  0  0  0  0  0
  -23.9630  -10.3010   21.0370 C   0  0  0  0  0  0  0  0  0  0  0  0
  -24.4380   -9.4000   22.0140 C   0  0  0  0  0  3  0  0  0  0  0  0
  -23.7700   -8.1770   22.2440 C   0  0  0  0  0  3  0  0  0  0  0  0
  -22.6140   -7.8480   21.4950 C   0  0  0  0  0  0  0  0  0  0  0  0
  -22.1610   -8.7390   20.5060 C   0  0  0  0  0  3  0  0  0  0  0  0
  -22.8300   -9.9520   20.2760 C   0  0  0  0  0  3  0  0  0  0  0  0
  -21.9130   -6.6730   21.6340 O   0  0  0  0  0  0  0  0  0  0  0  0
  -21.8370   -6.0180   22.8360 C   0  0  0  0  0  0  0  0  0  0  0  0
  -21.3020   -6.6350   23.9880 C   0  0  0  0  0  3  0  0  0  0  0  0
  -21.1790   -5.9050   25.1860 C   0  0  0  0  0  3  0  0  0  0  0  0
  -21.5790   -4.5560   25.2320 C   0  0  0  0  0  0  0  0  0  0  0  0
  -22.1070   -3.9380   24.0860 C   0  0  0  0  0  3  0  0  0  0  0  0
  -22.2320   -4.6660   22.8900 C   0  0  0  0  0  0  0  0  0  0  0  0
  -22.7210   -4.0610   21.7800 F   0  0  0  0  0  0  0  0  0  0  0  0
  -21.4540   -3.8490   26.3810 F   0  0  0  0  0  0  0  0  0  0  0  0
  -22.7210  -13.3480   21.1900 C   0  0  0  0  0  0  0  0  0  0  0  0
  -22.0720  -12.6330   22.1020 N   0  0  0  0  0  0  0  0  0  0  0  0
  -22.2140  -14.3530   20.6930 O   0  0  0  0  0  0  0  0  0  0  0  0
  -22.4940  -11.8180   22.5250 H   0  0  0  0  0  0  0  0  0  0  0  0
  -21.1400  -12.9040   22.3810 H   0  0  0  0  0  0  0  0  0  0  0  0
  -25.2290  -15.0980   20.1760 N   0  0  0  0  0  0  0  0  0  0  0  0
  -24.4350  -15.7220   20.2830 H   0  0  0  0  0  0  0  0  0  0  0  0
  -26.0420  -15.5480   19.7750 H   0  0  0  0  0  0  0  0  0  0  0  0
  -29.8620  -24.5480   19.9410 C   0  0  0  0  0  2  0  0  0  0  0  0
  -28.7730  -24.6880   18.8540 C   0  0  0  0  0  3  0  0  0  0  0  0
  -29.1890  -24.0240   17.6680 O   0  0  0  0  0  0  0  0  0  0  0  0
  -29.5900  -24.6670   17.0900 H   0  0  0  0  0  0  0  0  0  0  0  0
  -28.5080  -26.1670   18.5330 C   0  0  0  0  0  2  0  0  0  0  0  0
  -28.2280  -26.8690   19.7420 O   0  0  0  0  0  0  0  0  0  0  0  0
  -24.5420  -31.8630   23.1840 C   0  0  0  0  0  0  0  0  0  0  0  0
  -27.0310  -27.5350   19.8390 C   0  0  0  0  0  0  0  0  0  0  0  0
  -23.2590  -30.5220   21.5460 C   0  0  0  0  0  3  0  0  0  0  0  0
  -24.6410  -29.0160   20.0260 C   0  0  0  0  0  0  0  0  0  0  0  0
  -25.7760  -30.8720   21.2620 C   0  0  0  0  0  2  0  0  0  0  0  0
  -25.8210  -29.5200   20.5830 C   0  0  0  0  0  0  0  0  0  0  0  0
  -27.0160  -28.7780   20.5020 C   0  0  0  0  0  3  0  0  0  0  0  0
  -25.8270  -27.0190   19.3080 C   0  0  0  0  0  3  0  0  0  0  0  0
  -24.6330  -27.7600   19.3950 C   0  0  0  0  0  3  0  0  0  0  0  0
  -23.4080  -29.8820   20.1410 C   0  0  0  0  0  2  0  0  0  0  0  0
  -24.5460  -31.0980   22.0560 N   0  0  0  0  0  0  0  0  0  0  0  0
  -23.4850  -32.1270   23.7730 O   0  0  0  0  0  0  0  0  0  0  0  0
  -22.6360  -29.4770   22.4980 C   0  0  0  0  0  0  0  0  0  0  0  0
  -21.3140  -29.2780   22.3810 N   0  0  0  0  0  0  0  0  0  0  0  0
  -23.3380  -28.8490   23.2940 O   0  0  0  0  0  0  0  0  0  0  0  0
  -20.8080  -29.8410   21.7110 H   0  0  0  0  0  0  0  0  0  0  0  0
  -17.9690  -28.0010   22.8550 C   0  0  0  0  0  0  0  0  0  0  0  0
  -20.5180  -28.3180   23.1430 C   0  0  0  0  0  3  0  0  0  0  0  0
  -20.6580  -26.8920   22.5610 C   0  0  0  0  0  2  0  0  0  0  0  0
  -19.5700  -26.5460   21.5400 C   0  0  0  0  0  2  0  0  0  0  0  0
  -18.1810  -26.6580   22.1760 C   0  0  0  0  0  2  0  0  0  0  0  0
  -19.0660  -28.7880   23.2930 C   0  0  0  0  0  0  0  0  0  0  0  0
  -18.8150  -30.0460   23.8830 C   0  0  0  0  0  3  0  0  0  0  0  0
  -17.4980  -30.5160   24.0410 C   0  0  0  0  0  3  0  0  0  0  0  0
  -16.4150  -29.7250   23.6200 C   0  0  0  0  0  3  0  0  0  0  0  0
  -16.6500  -28.4710   23.0320 C   0  0  0  0  0  3  0  0  0  0  0  0
  -25.8580  -32.4590   23.7750 C   0  0  0  0  0  3  0  0  0  0  0  0
  -25.5870  -33.8560   24.1360 N   0  0  0  0  0  0  0  0  0  0  0  0
  -25.9240  -34.9130   23.3860 C   0  0  0  0  0  0  0  0  0  0  0  0
  -26.5700  -34.8130   22.3380 O   0  0  0  0  0  0  0  0  0  0  0  0
  -25.0140  -34.0100   24.9540 H   0  0  0  0  0  0  0  0  0  0  0  0
  -24.2310  -36.7490   23.0880 C   0  0  0  0  0  1  0  0  0  0  0  0
  -25.4740  -36.3020   23.8750 C   0  0  0  0  0  3  0  0  0  0  0  0
  -27.6360  -37.1270   24.6970 C   0  0  0  0  0  1  0  0  0  0  0  0
  -26.5280  -37.3350   23.7680 N   0  0  0  0  0  0  0  0  0  0  0  0
  -26.1430  -38.2610   23.9370 H   0  0  0  0  0  0  0  0  0  0  0  0
  -26.4040  -31.6550   25.0190 C   0  0  1  0  0  0  0  0  0  0  0  0
  -25.3420  -31.4130   26.1160 C   0  0  0  0  0  1  0  0  0  0  0  0
  -26.9510  -30.2780   24.5780 C   0  0  0  0  0  1  0  0  0  0  0  0
  -27.5880  -32.4180   25.6580 C   0  0  0  0  0  1  0  0  0  0  0  0
  1  5  1  0
  2  5  1  0
  3  1  1  0
  4  2  1  0
  5  8  1  0
  6  3  1  0
  6  4  1  0
  6  7  1  6
  8 10  1  0
 10  9  1  0
 10 11  1  1
 12 23  1  0
 13 18  1  0
 14 15  1  0
 14 13  1  0
 16 15  1  0
 16 27  1  0
 16 17  1  0
 18 12  1  0
 18 17  1  0
 19 12  2  0
 21 23  1  0
 21 22  1  0
 22 20  1  0
 22 10  1  0
 23 20  1  0
 24 25  2  0
 25 44  1  0
 26 25  1  0
 26 29  1  0
 27 24  1  0
 27 28  1  0
 28 26  2  0
 29 30  1  0
 30 31  2  0
 32 35  1  0
 32 31  1  0
 33 32  2  0
 34 33  1  0
 34 29  2  0
 35 36  1  0
 36 41  2  0
 36 37  1  0
 37 38  2  0
 38 39  1  0
 39 43  1  0
 40 39  2  0
 41 40  1  0
 42 41  1  0
 44 45  1  0
 45 48  1  0
 45 47  1  0
 46 44  2  0
 49 50  1  0
 49 24  1  0
 51 49  1  0
 52  6  1  0
 53 56  1  0
 53 52  1  0
 54 53  1  0
 55 54  1  0
 56 57  1  0
 57 59  1  0
 58 69  2  0
 59 64  1  0
 60 68  1  0
 60 70  1  0
 61 67  1  0
 61 63  1  0
 62 68  1  0
 63 62  1  0
 64 63  2  0
 65 66  1  0
 65 59  2  0
 66 61  2  0
 67 60  1  0
 68 58  1  0
 70 72  2  0
 71 70  1  0
 73 71  1  0
 74 83  2  0
 74 79  1  0
 75 71  1  0
 75 79  1  0
 76 75  1  0
 77 78  1  0
 77 76  1  0
 78 74  1  0
 79 80  2  0
 80 81  1  0
 82 81  2  0
 83 82  1  0
 84 58  1  0
 84 85  1  0
 84 94  1  0
 85 88  1  0
 86 90  1  0
 86 85  1  0
 87 86  2  0
 90 89  1  0
 92 90  1  0
 92 93  1  0
 92 91  1  0
 94 97  1  1
 94 95  1  0
 96 94  1  0
M  ISO  4  12 100  23 100  56 101  57 101
M  END
>  <TORSDO>  (34) 
F 22

>  <SCORE>  (34) 
-11.931

>  <name>  (34) 
33

>  <ligand_id>  (34) 
33

>  <original_smiles>  (34) 
[H]OC([H])(C([H])([H])Oc1c([H])c([H])c2c(c1[H])C([H])([H])N(C(=O)C([H])(N([H])C(=O)C([H])(N([H])C([H])([H])[H])C([H])([H])[H])C(C([H])([H])[H])(C([H])([H])[H])C([H])([H])[H])C([H])(C(=O)N([H])C1([H])c3c([H])c([H])c([H])c([H])c3C([H])([H])C([H])([H])C1([H])[H])C2([H])[H])C([H])([H])[N+]1([H])C([H])([H])C([H])([H])C([H])(C([H])([H])[N+]([H])(C([H])([H])[H])C2([H])C([H])([H])N(C(=O)N3C([H])([H])C([H])([H])C([H])([H])C([H])(n4nc(-c5c([H])c([H])c(Oc6c([H])c([H])c(F)c([H])c6F)c([H])c5[H])c(C(=O)N([H])[H])c4N([H])[H])C3([H])[H])C2([H])[H])C([H])([H])C1([H])[H]

>  <smiles>  (34) 
[H]OC([H])(C([H])([H])Oc1c([H])c([H])c2c(c1[H])C([H])([H])N(C(=O)C([H])(N([H])C(=O)C([H])(N([H])C([H])([H])[H])C([H])([H])[H])C(C([H])([H])[H])(C([H])([H])[H])C([H])([H])[H])C([H])(C(=O)N([H])C1([H])c3c([H])c([H])c([H])c([H])c3C([H])([H])C([H])([H])C1([H])[H])C2([H])[H])C([H])([H])[N+]1([H])C([H])([H])C([H])([H])C([H])(C([H])([H])[N+]([H])(C([H])([H])[H])C2([H])C([H])([H])N(C(=O)N3C([H])([H])C([H])([H])C([H])([H])C([H])(n4nc(-c5c([H])c([H])c(Oc6c([H])c([H])c(F)c([H])c6F)c([H])c5[H])c(C(=O)N([H])[H])c4N([H])[H])C3([H])[H])C2([H])[H])C([H])([H])C1([H])[H]

$$$$
34:0:0
     RDKit          3D

 93101  0  0  1  0  0  0  0  0999 V2000
  -28.1930  -23.1410   20.4640 C   0  0  0  0  0  3  0  0  0  0  0  0
  -26.7900  -22.7090   20.2870 N   0  0  0  0  0  4  0  0  0  0  0  0
  -26.6690  -22.2740   19.3840 H   0  0  0  0  0  0  0  0  0  0  0  0
  -26.1550  -23.4850   20.3710 H   0  0  0  0  0  0  0  0  0  0  0  0
  -26.5400  -22.0310   20.9860 H   0  0  0  0  0  0  0  0  0  0  0  0
  -29.2180  -21.7860   20.2120 C   0  0  0  0  0  2  0  0  0  0  0  0
  -28.4440  -17.3670   19.1420 C   0  0  0  0  0  3  0  0  0  0  0  0
  -27.7690  -18.4730   18.5710 C   0  0  0  0  0  3  0  0  0  0  0  0
  -29.5550  -18.9530   20.6020 C   0  0  0  0  0  3  0  0  0  0  0  0
  -28.8880  -20.1560   20.0030 C   0  0  0  0  0  0  0  0  0  0  0  0
  -29.3670  -17.5190   20.1960 C   0  0  0  0  0  0  0  0  0  0  0  0
  -27.9810  -19.8140   18.9740 C   0  0  0  0  0  0  0  0  0  0  0  0
  -27.3180  -20.7990   18.3220 F   0  0  0  0  0  0  0  0  0  0  0  0
  -30.5390  -15.0150   20.3880 C   0  0  0  0  0  0  0  0  0  0  0  0
  -30.3990  -12.6530   19.4550 C   0  0  0  0  0  2  0  0  0  0  0  0
  -29.4970  -12.5880   18.2030 C   0  0  0  0  0  2  0  0  0  0  0  0
  -28.0300  -12.3750   18.6110 C   0  0  0  0  0  2  0  0  0  0  0  0
  -27.6000  -13.3090   19.7710 C   0  0  0  0  0  3  0  0  0  0  0  0
  -28.6300  -13.3570   20.9180 C   0  0  0  0  0  2  0  0  0  0  0  0
  -29.9070  -13.7690   20.3260 N   0  0  0  0  0  0  0  0  0  0  0  0
  -31.7270  -15.0320   20.0490 O   0  0  0  0  0  0  0  0  0  0  0  0
  -29.9290  -16.2320   20.8380 N   0  0  0  0  0  0  0  0  0  0  0  0
  -30.4200  -16.4800   21.6860 H   0  0  0  0  0  0  0  0  0  0  0  0
  -25.2060  -13.8910   20.4450 C   0  0  0  0  0  0  0  0  0  0  0  0
  -24.1360  -13.1200   20.8040 C   0  0  0  0  0  0  0  0  0  0  0  0
  -24.6030  -11.7690   20.8040 C   0  0  0  0  0  0  0  0  0  0  0  0
  -26.2550  -13.0120   20.2450 N   0  0  0  0  0  0  0  0  0  0  0  0
  -25.9010  -11.7310   20.5260 N   0  0  0  0  0  0  0  0  0  0  0  0
  -23.8740  -10.5090   20.9950 C   0  0  0  0  0  0  0  0  0  0  0  0
  -24.2880   -9.5510   21.9480 C   0  0  0  0  0  3  0  0  0  0  0  0
  -23.5550   -8.3590   22.1270 C   0  0  0  0  0  3  0  0  0  0  0  0
  -22.3960   -8.1140   21.3530 C   0  0  0  0  0  0  0  0  0  0  0  0
  -22.0030   -9.0600   20.3900 C   0  0  0  0  0  3  0  0  0  0  0  0
  -22.7340  -10.2440   20.2080 C   0  0  0  0  0  3  0  0  0  0  0  0
  -21.6390   -6.9710   21.4390 O   0  0  0  0  0  0  0  0  0  0  0  0
  -21.5700   -6.2400   22.5980 C   0  0  0  0  0  0  0  0  0  0  0  0
  -21.1230   -6.8060   23.8110 C   0  0  0  0  0  3  0  0  0  0  0  0
  -21.0030   -6.0020   24.9620 C   0  0  0  0  0  3  0  0  0  0  0  0
  -21.3160   -4.6310   24.9000 C   0  0  0  0  0  0  0  0  0  0  0  0
  -21.7560   -4.0630   23.6910 C   0  0  0  0  0  3  0  0  0  0  0  0
  -21.8780   -4.8650   22.5420 C   0  0  0  0  0  0  0  0  0  0  0  0
  -22.2820   -4.3090   21.3750 F   0  0  0  0  0  0  0  0  0  0  0  0
  -21.1940   -3.8550   26.0030 F   0  0  0  0  0  0  0  0  0  0  0  0
  -22.7340  -13.6010   21.0350 C   0  0  0  0  0  0  0  0  0  0  0  0
  -21.9860  -12.9180   21.8940 N   0  0  0  0  0  0  0  0  0  0  0  0
  -22.3100  -14.6190   20.4870 O   0  0  0  0  0  0  0  0  0  0  0  0
  -22.3390  -12.0940   22.3570 H   0  0  0  0  0  0  0  0  0  0  0  0
  -21.0420  -13.2230   22.0880 H   0  0  0  0  0  0  0  0  0  0  0  0
  -25.3720  -15.2590   20.2480 N   0  0  0  0  0  0  0  0  0  0  0  0
  -24.6020  -15.9150   20.3230 H   0  0  0  0  0  0  0  0  0  0  0  0
  -26.2420  -15.7000   19.9810 H   0  0  0  0  0  0  0  0  0  0  0  0
  -28.3650  -24.6930   19.7580 C   0  0  0  0  0  2  0  0  0  0  0  0
  -28.2450  -26.1610   20.3180 O   0  0  0  0  0  0  0  0  0  0  0  0
  -24.6060  -31.8670   23.2220 C   0  0  0  0  0  0  0  0  0  0  0  0
  -27.1770  -27.1300   20.1900 C   0  0  0  0  0  0  0  0  0  0  0  0
  -23.4030  -30.4650   21.5870 C   0  0  0  0  0  3  0  0  0  0  0  0
  -24.8480  -28.8850   20.1560 C   0  0  0  0  0  0  0  0  0  0  0  0
  -25.9560  -30.7280   21.4180 C   0  0  0  0  0  2  0  0  0  0  0  0
  -26.0250  -29.3310   20.7670 C   0  0  0  0  0  0  0  0  0  0  0  0
  -27.1840  -28.4670   20.7700 C   0  0  0  0  0  3  0  0  0  0  0  0
  -25.9770  -26.7900   19.5300 C   0  0  0  0  0  3  0  0  0  0  0  0
  -24.8380  -27.6320   19.5210 C   0  0  0  0  0  3  0  0  0  0  0  0
  -23.6210  -29.7830   20.2090 C   0  0  0  0  0  2  0  0  0  0  0  0
  -24.6750  -31.0430   22.1310 N   0  0  0  0  0  0  0  0  0  0  0  0
  -23.5220  -32.1520   23.7530 O   0  0  0  0  0  0  0  0  0  0  0  0
  -22.7270  -29.4620   22.5550 C   0  0  0  0  0  0  0  0  0  0  0  0
  -21.3990  -29.2900   22.4330 N   0  0  0  0  0  0  0  0  0  0  0  0
  -23.4010  -28.8400   23.3790 O   0  0  0  0  0  0  0  0  0  0  0  0
  -20.9110  -29.8430   21.7420 H   0  0  0  0  0  0  0  0  0  0  0  0
  -18.0230  -28.0770   22.9360 C   0  0  0  0  0  0  0  0  0  0  0  0
  -20.5800  -28.3550   23.2080 C   0  0  0  0  0  3  0  0  0  0  0  0
  -20.6900  -26.9190   22.6420 C   0  0  0  0  0  2  0  0  0  0  0  0
  -19.5920  -26.5850   21.6280 C   0  0  0  0  0  2  0  0  0  0  0  0
  -18.2090  -26.7260   22.2680 C   0  0  0  0  0  2  0  0  0  0  0  0
  -19.1370  -28.8500   23.3630 C   0  0  0  0  0  0  0  0  0  0  0  0
  -18.9080  -30.1130   23.9500 C   0  0  0  0  0  3  0  0  0  0  0  0
  -17.5990  -30.6050   24.1130 C   0  0  0  0  0  3  0  0  0  0  0  0
  -16.5000  -29.8300   23.7020 C   0  0  0  0  0  3  0  0  0  0  0  0
  -16.7130  -28.5680   23.1190 C   0  0  0  0  0  3  0  0  0  0  0  0
  -25.8850  -32.5060   23.8450 C   0  0  0  0  0  3  0  0  0  0  0  0
  -26.3980  -31.7440   25.1290 C   0  0  1  0  0  0  0  0  0  0  0  0
  -25.3020  -31.5170   26.1970 C   0  0  0  0  0  1  0  0  0  0  0  0
  -26.9790  -30.3610   24.7520 C   0  0  0  0  0  1  0  0  0  0  0  0
  -27.5510  -32.5390   25.7860 C   0  0  0  0  0  1  0  0  0  0  0  0
  -25.5740  -33.9070   24.1740 N   0  0  0  0  0  0  0  0  0  0  0  0
  -25.9090  -34.9630   23.4210 C   0  0  0  0  0  0  0  0  0  0  0  0
  -26.5770  -34.8600   22.3890 O   0  0  0  0  0  0  0  0  0  0  0  0
  -24.9820  -34.0600   24.9770 H   0  0  0  0  0  0  0  0  0  0  0  0
  -24.1880  -36.7650   23.0730 C   0  0  0  0  0  1  0  0  0  0  0  0
  -25.4260  -36.3520   23.8840 C   0  0  0  0  0  3  0  0  0  0  0  0
  -27.5610  -37.2290   24.7210 C   0  0  0  0  0  1  0  0  0  0  0  0
  -26.4610  -37.4020   23.7760 N   0  0  0  0  0  0  0  0  0  0  0  0
  -26.0580  -38.3230   23.9280 H   0  0  0  0  0  0  0  0  0  0  0  0
  1 52  1  0
  2  4  1  0
  2  1  1  0
  2  5  1  0
  3  2  1  0
  6  1  1  0
  7 11  1  0
  8 12  1  0
  8  7  2  0
 10  6  1  0
 10  9  1  0
 11  9  2  0
 11 22  1  0
 12 10  2  0
 13 12  1  0
 14 22  1  0
 15 20  1  0
 16 17  1  0
 16 15  1  0
 18 17  1  0
 18 27  1  0
 18 19  1  0
 20 14  1  0
 20 19  1  0
 21 14  2  0
 22 23  1  0
 24 25  2  0
 25 26  1  0
 25 44  1  0
 26 29  1  0
 27 24  1  0
 27 28  1  0
 28 26  2  0
 29 30  1  0
 30 31  2  0
 32 35  1  0
 32 31  1  0
 33 32  2  0
 34 33  1  0
 34 29  2  0
 35 36  1  0
 36 37  1  0
 37 38  2  0
 39 38  1  0
 39 43  1  0
 40 39  2  0
 41 36  2  0
 41 40  1  0
 42 41  1  0
 44 45  1  0
 45 48  1  0
 45 47  1  0
 46 44  2  0
 49 50  1  0
 49 24  1  0
 51 49  1  0
 52 53  1  0
 54 65  2  0
 55 53  1  0
 55 60  1  0
 56 64  1  0
 56 66  1  0
 57 63  1  0
 57 59  1  0
 58 64  1  0
 59 60  2  0
 59 58  1  0
 61 55  2  0
 62 61  1  0
 62 57  2  0
 63 56  1  0
 64 54  1  0
 66 68  2  0
 67 66  1  0
 69 67  1  0
 70 79  2  0
 70 75  1  0
 71 67  1  0
 71 75  1  0
 72 71  1  0
 73 74  1  0
 73 72  1  0
 74 70  1  0
 75 76  2  0
 76 77  1  0
 78 77  2  0
 79 78  1  0
 80 54  1  0
 80 85  1  0
 80 81  1  0
 81 84  1  1
 81 82  1  0
 83 81  1  0
 85 88  1  0
 86 90  1  0
 86 85  1  0
 87 86  2  0
 90 89  1  0
 92 90  1  0
 92 93  1  0
 92 91  1  0
M  ISO  4  14 100  22 100  52 101  53 101
M  END
>  <TORSDO>  (35) 
F 20

>  <SCORE>  (35) 
-15.786

>  <name>  (35) 
34

>  <ligand_id>  (35) 
34

>  <original_smiles>  (35) 
[H]c1c([H])c([H])c2c(c1[H])C([H])([H])C([H])([H])C([H])([H])C2([H])N([H])C(=O)C1([H])N(C(=O)C([H])(N([H])C(=O)C([H])(N([H])C([H])([H])[H])C([H])([H])[H])C(C([H])([H])[H])(C([H])([H])[H])C([H])([H])[H])C([H])([H])c2c([H])c(OC([H])([H])C([H])(C([H])([H])c3c([H])c(N([H])C(=O)N4C([H])([H])C([H])([H])C([H])([H])C([H])(n5nc(-c6c([H])c([H])c(Oc7c([H])c([H])c(F)c([H])c7F)c([H])c6[H])c(C(=O)N([H])[H])c5N([H])[H])C4([H])[H])c([H])c([H])c3F)[N+]([H])([H])[H])c([H])c([H])c2C1([H])[H]

>  <smiles>  (35) 
[H]c1c([H])c([H])c2c(c1[H])C([H])([H])C([H])([H])C([H])([H])C2([H])N([H])C(=O)C1([H])N(C(=O)C([H])(N([H])C(=O)C([H])(N([H])C([H])([H])[H])C([H])([H])[H])C(C([H])([H])[H])(C([H])([H])[H])C([H])([H])[H])C([H])([H])c2c([H])c(OC([H])([H])C([H])(C([H])([H])c3c([H])c(N([H])C(=O)N4C([H])([H])C([H])([H])C([H])([H])C([H])(n5nc(-c6c([H])c([H])c(Oc7c([H])c([H])c(F)c([H])c7F)c([H])c6[H])c(C(=O)N([H])[H])c5N([H])[H])C4([H])[H])c([H])c([H])c3F)[N+]([H])([H])[H])c([H])c([H])c2C1([H])[H]

$$$$
35:0:0
     RDKit          3D

 97106  0  0  1  0  0  0  0  0999 V2000
  -27.8970  -21.3090   21.2410 C   0  0  0  0  0  2  0  0  0  0  0  0
  -29.2280  -20.9730   19.1060 C   0  0  0  0  0  2  0  0  0  0  0  0
  -28.8080  -22.5170   21.5610 C   0  0  0  0  0  2  0  0  0  0  0  0
  -30.0960  -22.1790   19.5160 C   0  0  0  0  0  2  0  0  0  0  0  0
  -28.5270  -20.2600   20.2900 C   0  0  0  0  0  3  0  0  0  0  0  0
  -29.3250  -23.1610   20.3230 N   0  0  2  0  0  4  0  0  0  0  0  0
  -28.5130  -23.4340   19.7910 H   0  0  0  0  0  0  0  0  0  0  0  0
  -29.3680  -19.2390   20.9900 N   0  0  0  0  0  4  0  0  0  0  0  0
  -30.3350  -19.5190   21.0380 H   0  0  0  0  0  0  0  0  0  0  0  0
  -29.0350  -19.1780   21.9400 H   0  0  0  0  0  0  0  0  0  0  0  0
  -30.8560  -14.5630   20.4800 C   0  0  0  0  0  0  0  0  0  0  0  0
  -30.5790  -12.3660   19.4360 C   0  0  0  0  0  2  0  0  0  0  0  0
  -29.6660  -12.5590   18.2060 C   0  0  0  0  0  2  0  0  0  0  0  0
  -28.1800  -12.4540   18.6060 C   0  0  0  0  0  2  0  0  0  0  0  0
  -27.8140  -13.3030   19.8540 C   0  0  0  0  0  3  0  0  0  0  0  0
  -28.8570  -13.1270   20.9840 C   0  0  0  0  0  2  0  0  0  0  0  0
  -30.1910  -13.3820   20.4190 N   0  0  0  0  0  0  0  0  0  0  0  0
  -32.0610  -14.6870   20.2450 O   0  0  0  0  0  0  0  0  0  0  0  0
  -29.7960  -17.6740   19.0340 C   0  0  0  0  0  2  0  0  0  0  0  0
  -29.9480  -16.1630   18.9220 C   0  0  0  0  0  2  0  0  0  0  0  0
  -29.9960  -16.7630   21.2220 C   0  0  0  0  0  2  0  0  0  0  0  0
  -29.2530  -17.8600   20.4430 C   0  0  0  0  0  3  0  0  0  0  0  0
  -30.0480  -15.6270   20.2930 N   0  0  0  0  0  0  0  0  0  0  0  0
  -25.4040  -13.9220   20.5060 C   0  0  0  0  0  0  0  0  0  0  0  0
  -24.3280  -13.1520   20.8570 C   0  0  0  0  0  0  0  0  0  0  0  0
  -24.7910  -11.8010   20.8490 C   0  0  0  0  0  0  0  0  0  0  0  0
  -26.4540  -13.0370   20.3100 N   0  0  0  0  0  0  0  0  0  0  0  0
  -26.0880  -11.7580   20.5740 N   0  0  0  0  0  0  0  0  0  0  0  0
  -24.0630  -10.5410   21.0320 C   0  0  0  0  0  0  0  0  0  0  0  0
  -24.4680   -9.5870   21.9920 C   0  0  0  0  0  3  0  0  0  0  0  0
  -23.7390   -8.3910   22.1620 C   0  0  0  0  0  3  0  0  0  0  0  0
  -22.5940   -8.1380   21.3700 C   0  0  0  0  0  0  0  0  0  0  0  0
  -22.2110   -9.0800   20.3990 C   0  0  0  0  0  3  0  0  0  0  0  0
  -22.9400  -10.2690   20.2280 C   0  0  0  0  0  3  0  0  0  0  0  0
  -21.8410   -6.9910   21.4480 O   0  0  0  0  0  0  0  0  0  0  0  0
  -21.7490   -6.2690   22.6100 C   0  0  0  0  0  0  0  0  0  0  0  0
  -21.2510   -6.8370   23.8030 C   0  0  0  0  0  3  0  0  0  0  0  0
  -21.1080   -6.0410   24.9560 C   0  0  0  0  0  3  0  0  0  0  0  0
  -21.4520   -4.6760   24.9160 C   0  0  0  0  0  0  0  0  0  0  0  0
  -21.9440   -4.1070   23.7290 C   0  0  0  0  0  3  0  0  0  0  0  0
  -22.0890   -4.9010   22.5780 C   0  0  0  0  0  0  0  0  0  0  0  0
  -22.5440   -4.3430   21.4290 F   0  0  0  0  0  0  0  0  0  0  0  0
  -21.3080   -3.9080   26.0220 F   0  0  0  0  0  0  0  0  0  0  0  0
  -22.9230  -13.6300   21.0920 C   0  0  0  0  0  0  0  0  0  0  0  0
  -22.1760  -12.9380   21.9460 N   0  0  0  0  0  0  0  0  0  0  0  0
  -22.4980  -14.6520   20.5550 O   0  0  0  0  0  0  0  0  0  0  0  0
  -22.5330  -12.1110   22.3990 H   0  0  0  0  0  0  0  0  0  0  0  0
  -21.2330  -13.2390   22.1450 H   0  0  0  0  0  0  0  0  0  0  0  0
  -25.5720  -15.2900   20.3180 N   0  0  0  0  0  0  0  0  0  0  0  0
  -24.8020  -15.9440   20.3970 H   0  0  0  0  0  0  0  0  0  0  0  0
  -26.4270  -15.7210   19.9910 H   0  0  0  0  0  0  0  0  0  0  0  0
  -30.0790  -24.4200   20.5920 C   0  0  0  0  0  2  0  0  0  0  0  0
  -30.1600  -25.3710   19.3660 C   0  0  0  0  0  3  0  0  0  0  0  0
  -31.1510  -26.3680   19.5500 O   0  0  0  0  0  0  0  0  0  0  0  0
  -30.7610  -27.0430   20.1020 H   0  0  0  0  0  0  0  0  0  0  0  0
  -28.8380  -26.0900   19.0520 C   0  0  0  0  0  2  0  0  0  0  0  0
  -28.5090  -26.9070   20.1720 O   0  0  0  0  0  0  0  0  0  0  0  0
  -24.5940  -31.9620   23.2480 C   0  0  0  0  0  0  0  0  0  0  0  0
  -27.3090  -27.5780   20.1550 C   0  0  0  0  0  0  0  0  0  0  0  0
  -23.4120  -30.5500   21.5950 C   0  0  0  0  0  3  0  0  0  0  0  0
  -24.8890  -29.0340   20.1760 C   0  0  0  0  0  0  0  0  0  0  0  0
  -25.9320  -30.9380   21.4160 C   0  0  0  0  0  2  0  0  0  0  0  0
  -26.0340  -29.5690   20.7780 C   0  0  0  0  0  0  0  0  0  0  0  0
  -27.2410  -28.8400   20.7800 C   0  0  0  0  0  3  0  0  0  0  0  0
  -26.1410  -27.0440   19.5590 C   0  0  0  0  0  3  0  0  0  0  0  0
  -24.9350  -27.7660   19.5720 C   0  0  0  0  0  3  0  0  0  0  0  0
  -23.6360  -29.8790   20.2140 C   0  0  0  0  0  2  0  0  0  0  0  0
  -24.6630  -31.1650   22.1450 N   0  0  0  0  0  0  0  0  0  0  0  0
  -23.5060  -32.2240   23.7800 O   0  0  0  0  0  0  0  0  0  0  0  0
  -22.7680  -29.5180   22.5480 C   0  0  0  0  0  0  0  0  0  0  0  0
  -21.4440  -29.3340   22.4200 N   0  0  0  0  0  0  0  0  0  0  0  0
  -23.4540  -28.8900   23.3570 O   0  0  0  0  0  0  0  0  0  0  0  0
  -20.9530  -29.8970   21.7390 H   0  0  0  0  0  0  0  0  0  0  0  0
  -18.0670  -28.1590   22.9350 C   0  0  0  0  0  0  0  0  0  0  0  0
  -20.6290  -28.3880   23.1800 C   0  0  0  0  0  3  0  0  0  0  0  0
  -20.7130  -26.9670   22.5750 C   0  0  0  0  0  2  0  0  0  0  0  0
  -19.5930  -26.6730   21.5700 C   0  0  0  0  0  2  0  0  0  0  0  0
  -18.2210  -26.8200   22.2330 C   0  0  0  0  0  2  0  0  0  0  0  0
  -19.1980  -28.9030   23.3650 C   0  0  0  0  0  0  0  0  0  0  0  0
  -19.0000  -30.1580   23.9790 C   0  0  0  0  0  3  0  0  0  0  0  0
  -17.7020  -30.6690   24.1690 C   0  0  0  0  0  3  0  0  0  0  0  0
  -16.5850  -29.9210   23.7570 C   0  0  0  0  0  3  0  0  0  0  0  0
  -16.7690  -28.6670   23.1460 C   0  0  0  0  0  3  0  0  0  0  0  0
  -25.8700  -32.6030   23.8780 C   0  0  0  0  0  3  0  0  0  0  0  0
  -25.5540  -34.0030   24.1860 N   0  0  0  0  0  0  0  0  0  0  0  0
  -25.9060  -35.0460   23.4240 C   0  0  0  0  0  0  0  0  0  0  0  0
  -26.6020  -34.9320   22.4110 O   0  0  0  0  0  0  0  0  0  0  0  0
  -24.9420  -34.1660   24.9720 H   0  0  0  0  0  0  0  0  0  0  0  0
  -24.2030  -36.8440   22.9850 C   0  0  0  0  0  1  0  0  0  0  0  0
  -25.4050  -36.4390   23.8520 C   0  0  0  0  0  3  0  0  0  0  0  0
  -27.5030  -37.3200   24.7730 C   0  0  0  0  0  1  0  0  0  0  0  0
  -26.4470  -37.4850   23.7790 N   0  0  0  0  0  0  0  0  0  0  0  0
  -26.0390  -38.4090   23.9020 H   0  0  0  0  0  0  0  0  0  0  0  0
  -26.3740  -31.8460   25.1670 C   0  0  1  0  0  0  0  0  0  0  0  0
  -25.2690  -31.6080   26.2220 C   0  0  0  0  0  1  0  0  0  0  0  0
  -26.9750  -30.4710   24.7910 C   0  0  0  0  0  1  0  0  0  0  0  0
  -27.5090  -32.6550   25.8390 C   0  0  0  0  0  1  0  0  0  0  0  0
  1  3  1  0
  2  4  1  0
  2  5  1  0
  4  6  1  0
  5  8  1  0
  5  1  1  0
  6 52  1  0
  6  3  1  0
  6  7  1  6
  8  9  1  0
  8 10  1  0
 12 17  1  0
 13 14  1  0
 13 12  1  0
 15 14  1  0
 15 27  1  0
 15 16  1  0
 17 11  1  0
 17 16  1  0
 18 11  2  0
 19 22  1  0
 20 19  1  0
 20 23  1  0
 22  8  1  0
 22 21  1  0
 23 11  1  0
 23 21  1  0
 24 25  2  0
 25 44  1  0
 26 25  1  0
 26 29  1  0
 27 24  1  0
 27 28  1  0
 28 26  2  0
 29 30  1  0
 30 31  2  0
 32 35  1  0
 32 31  1  0
 33 32  2  0
 34 33  1  0
 34 29  2  0
 35 36  1  0
 36 37  1  0
 37 38  2  0
 39 38  1  0
 39 43  1  0
 40 39  2  0
 41 36  2  0
 41 40  1  0
 42 41  1  0
 44 45  1  0
 45 48  1  0
 45 47  1  0
 46 44  2  0
 49 50  1  0
 49 24  1  0
 51 49  1  0
 53 56  1  0
 53 54  1  0
 53 52  1  0
 54 55  1  0
 56 57  1  0
 58 69  2  0
 59 57  1  0
 59 64  1  0
 60 68  1  0
 60 70  1  0
 61 67  1  0
 61 63  1  0
 62 68  1  0
 63 64  2  0
 63 62  1  0
 65 66  1  0
 65 59  2  0
 66 61  2  0
 67 60  1  0
 68 58  1  0
 70 72  2  0
 71 70  1  0
 73 71  1  0
 74 83  2  0
 74 79  1  0
 75 71  1  0
 75 79  1  0
 76 75  1  0
 77 78  1  0
 77 76  1  0
 78 74  1  0
 79 80  2  0
 80 81  1  0
 82 81  2  0
 83 82  1  0
 84 58  1  0
 84 85  1  0
 84 94  1  0
 85 88  1  0
 86 90  1  0
 86 85  1  0
 87 86  2  0
 90 89  1  0
 92 90  1  0
 92 93  1  0
 92 91  1  0
 94 97  1  1
 94 95  1  0
 96 94  1  0
M  ISO  4  11 100  23 100  56 101  57 101
M  END
>  <TORSDO>  (36) 
F 21

>  <SCORE>  (36) 
-13.786

>  <name>  (36) 
35

>  <ligand_id>  (36) 
35

>  <original_smiles>  (36) 
[H]OC([H])(C([H])([H])Oc1c([H])c([H])c2c(c1[H])C([H])([H])N(C(=O)C([H])(N([H])C(=O)C([H])(N([H])C([H])([H])[H])C([H])([H])[H])C(C([H])([H])[H])(C([H])([H])[H])C([H])([H])[H])C([H])(C(=O)N([H])C1([H])c3c([H])c([H])c([H])c([H])c3C([H])([H])C([H])([H])C1([H])[H])C2([H])[H])C([H])([H])[N+]1([H])C([H])([H])C([H])([H])C([H])([N+]([H])([H])C2([H])C([H])([H])N(C(=O)N3C([H])([H])C([H])([H])C([H])([H])C([H])(n4nc(-c5c([H])c([H])c(Oc6c([H])c([H])c(F)c([H])c6F)c([H])c5[H])c(C(=O)N([H])[H])c4N([H])[H])C3([H])[H])C([H])([H])C2([H])[H])C([H])([H])C1([H])[H]

>  <smiles>  (36) 
[H]OC([H])(C([H])([H])Oc1c([H])c([H])c2c(c1[H])C([H])([H])N(C(=O)C([H])(N([H])C(=O)C([H])(N([H])C([H])([H])[H])C([H])([H])[H])C(C([H])([H])[H])(C([H])([H])[H])C([H])([H])[H])C([H])(C(=O)N([H])C1([H])c3c([H])c([H])c([H])c([H])c3C([H])([H])C([H])([H])C1([H])[H])C2([H])[H])C([H])([H])[N+]1([H])C([H])([H])C([H])([H])C([H])([N+]([H])([H])C2([H])C([H])([H])N(C(=O)N3C([H])([H])C([H])([H])C([H])([H])C([H])(n4nc(-c5c([H])c([H])c(Oc6c([H])c([H])c(F)c([H])c6F)c([H])c5[H])c(C(=O)N([H])[H])c4N([H])[H])C3([H])[H])C([H])([H])C2([H])[H])C([H])([H])C1([H])[H]

$$$$
36:0:0
     RDKit          3D

 93101  0  0  1  0  0  0  0  0999 V2000
  -27.9940  -22.0660   19.2810 C   0  0  0  0  0  3  0  0  0  0  0  0
  -29.1320  -22.1470   21.2630 C   0  0  0  0  0  3  0  0  0  0  0  0
  -28.6890  -21.2070   20.2400 C   0  0  0  0  0  0  0  0  0  0  0  0
  -28.2220  -24.4660   20.3270 C   0  0  0  0  0  0  0  0  0  0  0  0
  -27.7870  -23.5350   19.2980 C   0  0  0  0  0  0  0  0  0  0  0  0
  -28.9270  -23.6250   21.2980 C   0  0  0  0  0  0  0  0  0  0  0  0
  -27.1390  -24.0510   18.2280 F   0  0  0  0  0  0  0  0  0  0  0  0
  -29.4730  -24.2690   22.3580 F   0  0  0  0  0  0  0  0  0  0  0  0
  -28.2010  -25.9970   20.3250 O   0  0  0  0  0  0  0  0  0  0  0  0
  -24.6120  -31.9110   23.2740 C   0  0  0  0  0  0  0  0  0  0  0  0
  -27.1380  -27.0280   20.2920 C   0  0  0  0  0  0  0  0  0  0  0  0
  -23.4030  -30.5110   21.6440 C   0  0  0  0  0  3  0  0  0  0  0  0
  -24.8400  -28.8880   20.2360 C   0  0  0  0  0  0  0  0  0  0  0  0
  -25.9640  -30.7160   21.4910 C   0  0  0  0  0  2  0  0  0  0  0  0
  -26.0270  -29.3020   20.8520 C   0  0  0  0  0  0  0  0  0  0  0  0
  -27.1680  -28.3880   20.8600 C   0  0  0  0  0  3  0  0  0  0  0  0
  -25.9220  -26.7530   19.6320 C   0  0  0  0  0  3  0  0  0  0  0  0
  -24.8080  -27.6320   19.6110 C   0  0  0  0  0  3  0  0  0  0  0  0
  -23.6270  -29.8150   20.2730 C   0  0  0  0  0  2  0  0  0  0  0  0
  -24.6810  -31.0720   22.1910 N   0  0  0  0  0  0  0  0  0  0  0  0
  -23.5260  -32.2100   23.7970 O   0  0  0  0  0  0  0  0  0  0  0  0
  -22.7110  -29.5250   22.6180 C   0  0  0  0  0  0  0  0  0  0  0  0
  -21.3840  -29.3480   22.4810 N   0  0  0  0  0  0  0  0  0  0  0  0
  -23.3720  -28.9160   23.4630 O   0  0  0  0  0  0  0  0  0  0  0  0
  -20.9030  -29.8860   21.7720 H   0  0  0  0  0  0  0  0  0  0  0  0
  -18.0080  -28.1210   22.9640 C   0  0  0  0  0  0  0  0  0  0  0  0
  -20.5610  -28.4180   23.2600 C   0  0  0  0  0  3  0  0  0  0  0  0
  -20.6840  -26.9770   22.7150 C   0  0  0  0  0  2  0  0  0  0  0  0
  -19.6000  -26.6220   21.6910 C   0  0  0  0  0  2  0  0  0  0  0  0
  -18.2070  -26.7640   22.3120 C   0  0  0  0  0  2  0  0  0  0  0  0
  -19.1120  -28.9040   23.3950 C   0  0  0  0  0  0  0  0  0  0  0  0
  -18.8670  -30.1710   23.9680 C   0  0  0  0  0  3  0  0  0  0  0  0
  -17.5530  -30.6570   24.1110 C   0  0  0  0  0  3  0  0  0  0  0  0
  -16.4640  -29.8710   23.6960 C   0  0  0  0  0  3  0  0  0  0  0  0
  -16.6920  -28.6050   23.1290 C   0  0  0  0  0  3  0  0  0  0  0  0
  -25.8900  -32.5500   23.8970 C   0  0  0  0  0  3  0  0  0  0  0  0
  -26.3860  -31.7970   25.1940 C   0  0  1  0  0  0  0  0  0  0  0  0
  -25.2790  -31.5930   26.2560 C   0  0  0  0  0  1  0  0  0  0  0  0
  -26.9610  -30.4090   24.8390 C   0  0  0  0  0  1  0  0  0  0  0  0
  -27.5380  -32.5910   25.8550 C   0  0  0  0  0  1  0  0  0  0  0  0
  -25.5870  -33.9530   24.2160 N   0  0  0  0  0  0  0  0  0  0  0  0
  -25.9090  -35.0030   23.4460 C   0  0  0  0  0  0  0  0  0  0  0  0
  -26.5560  -34.8860   22.4020 O   0  0  0  0  0  0  0  0  0  0  0  0
  -25.0180  -34.1150   25.0340 H   0  0  0  0  0  0  0  0  0  0  0  0
  -24.1800  -36.8010   23.1120 C   0  0  0  0  0  1  0  0  0  0  0  0
  -25.4370  -36.3980   23.9000 C   0  0  0  0  0  3  0  0  0  0  0  0
  -27.5890  -37.2900   24.6820 C   0  0  0  0  0  1  0  0  0  0  0  0
  -26.4720  -37.4470   23.7540 N   0  0  0  0  0  0  0  0  0  0  0  0
  -26.0720  -38.3700   23.8980 H   0  0  0  0  0  0  0  0  0  0  0  0
  -28.6950  -19.4500   20.1850 C   0  0  0  0  0  3  0  0  0  0  0  0
  -28.0470  -19.0770   18.9230 N   0  0  0  0  0  4  0  0  0  0  0  0
  -28.6340  -19.3360   18.1490 H   0  0  0  0  0  0  0  0  0  0  0  0
  -27.1540  -19.5260   18.8310 H   0  0  0  0  0  0  0  0  0  0  0  0
  -27.9080  -18.0840   18.8900 H   0  0  0  0  0  0  0  0  0  0  0  0
  -29.8520  -18.1320   20.4600 C   0  0  0  0  0  2  0  0  0  0  0  0
  -30.3810  -15.2530   20.2910 C   0  0  0  0  0  0  0  0  0  0  0  0
  -30.3530  -12.8230   19.4050 C   0  0  0  0  0  2  0  0  0  0  0  0
  -29.4220  -12.6560   18.1790 C   0  0  0  0  0  2  0  0  0  0  0  0
  -27.9760  -12.3830   18.6310 C   0  0  0  0  0  2  0  0  0  0  0  0
  -27.5380  -13.3340   19.7730 C   0  0  0  0  0  3  0  0  0  0  0  0
  -28.5960  -13.4540   20.8880 C   0  0  0  0  0  2  0  0  0  0  0  0
  -29.8240  -13.9510   20.2520 N   0  0  0  0  0  0  0  0  0  0  0  0
  -31.5910  -15.2870   20.0340 O   0  0  0  0  0  0  0  0  0  0  0  0
  -29.5950  -16.4900   20.4250 N   0  0  0  0  0  0  0  0  0  0  0  0
  -28.6310  -16.2580   20.6160 H   0  0  0  0  0  0  0  0  0  0  0  0
  -25.1750  -13.8780   20.5650 C   0  0  0  0  0  0  0  0  0  0  0  0
  -24.1210  -13.0920   20.9380 C   0  0  0  0  0  0  0  0  0  0  0  0
  -24.5920  -11.7450   20.8800 C   0  0  0  0  0  0  0  0  0  0  0  0
  -26.2160  -13.0110   20.2940 N   0  0  0  0  0  0  0  0  0  0  0  0
  -25.8790  -11.7200   20.5530 N   0  0  0  0  0  0  0  0  0  0  0  0
  -23.8740  -10.4780   21.0600 C   0  0  0  0  0  0  0  0  0  0  0  0
  -24.3120   -9.5040   21.9840 C   0  0  0  0  0  3  0  0  0  0  0  0
  -23.5900   -8.3040   22.1540 C   0  0  0  0  0  3  0  0  0  0  0  0
  -22.4160   -8.0670   21.4000 C   0  0  0  0  0  0  0  0  0  0  0  0
  -21.9960   -9.0310   20.4650 C   0  0  0  0  0  3  0  0  0  0  0  0
  -22.7200  -10.2220   20.2940 C   0  0  0  0  0  3  0  0  0  0  0  0
  -21.6620   -6.9200   21.4810 O   0  0  0  0  0  0  0  0  0  0  0  0
  -21.6030   -6.1780   22.6350 C   0  0  0  0  0  0  0  0  0  0  0  0
  -21.1290   -6.7230   23.8490 C   0  0  0  0  0  3  0  0  0  0  0  0
  -21.0210   -5.9060   24.9910 C   0  0  0  0  0  3  0  0  0  0  0  0
  -21.3740   -4.5450   24.9220 C   0  0  0  0  0  0  0  0  0  0  0  0
  -21.8420   -4.0000   23.7130 C   0  0  0  0  0  3  0  0  0  0  0  0
  -21.9540   -4.8150   22.5720 C   0  0  0  0  0  0  0  0  0  0  0  0
  -22.3840   -4.2790   21.4030 F   0  0  0  0  0  0  0  0  0  0  0  0
  -21.2640   -3.7580   26.0170 F   0  0  0  0  0  0  0  0  0  0  0  0
  -22.7260  -13.5590   21.2320 C   0  0  0  0  0  0  0  0  0  0  0  0
  -22.0130  -12.8500   22.0990 N   0  0  0  0  0  0  0  0  0  0  0  0
  -22.2790  -14.5900   20.7280 O   0  0  0  0  0  0  0  0  0  0  0  0
  -22.3880  -12.0150   22.5260 H   0  0  0  0  0  0  0  0  0  0  0  0
  -21.0780  -13.1440   22.3400 H   0  0  0  0  0  0  0  0  0  0  0  0
  -25.3240  -15.2530   20.4020 N   0  0  0  0  0  0  0  0  0  0  0  0
  -24.5480  -15.8930   20.5200 H   0  0  0  0  0  0  0  0  0  0  0  0
  -26.1480  -15.6970   20.0240 H   0  0  0  0  0  0  0  0  0  0  0  0
  1  5  2  0
  1  3  1  0
  2  6  1  0
  3  2  2  0
  4  6  2  0
  5  4  1  0
  6  8  1  0
  7  5  1  0
  9  4  1  0
 10 21  2  0
 11  9  1  0
 11 16  1  0
 12 20  1  0
 12 22  1  0
 13 19  1  0
 13 15  1  0
 14 20  1  0
 15 16  2  0
 15 14  1  0
 17 11  2  0
 18 17  1  0
 18 13  2  0
 19 12  1  0
 20 10  1  0
 22 24  2  0
 23 22  1  0
 25 23  1  0
 26 35  2  0
 26 31  1  0
 27 23  1  0
 27 31  1  0
 28 27  1  0
 29 30  1  0
 29 28  1  0
 30 26  1  0
 31 32  2  0
 32 33  1  0
 34 33  2  0
 35 34  1  0
 36 10  1  0
 36 41  1  0
 36 37  1  0
 37 40  1  1
 37 38  1  0
 39 37  1  0
 41 44  1  0
 42 46  1  0
 42 41  1  0
 43 42  2  0
 46 45  1  0
 48 49  1  0
 48 46  1  0
 48 47  1  0
 50  3  1  0
 50 55  1  0
 51 50  1  0
 52 51  1  0
 53 51  1  0
 54 51  1  0
 56 64  1  0
 57 62  1  0
 58 59  1  0
 58 57  1  0
 60 59  1  0
 60 69  1  0
 60 61  1  0
 62 56  1  0
 62 61  1  0
 63 56  2  0
 64 55  1  0
 64 65  1  0
 66 67  2  0
 67 86  1  0
 68 67  1  0
 68 71  1  0
 69 70  1  0
 69 66  1  0
 70 68  2  0
 71 72  1  0
 72 73  2  0
 74 77  1  0
 74 73  1  0
 75 74  2  0
 76 75  1  0
 76 71  2  0
 77 78  1  0
 78 79  1  0
 79 80  2  0
 81 80  1  0
 81 85  1  0
 82 81  2  0
 83 78  2  0
 83 82  1  0
 84 83  1  0
 86 87  1  0
 87 90  1  0
 87 89  1  0
 88 86  2  0
 91 92  1  0
 91 66  1  0
 93 91  1  0
M  ISO  4   4 101   9 101  56 100  64 100
M  END
>  <TORSDO>  (37) 
F 19

>  <SCORE>  (37) 
-15.825

>  <name>  (37) 
36

>  <ligand_id>  (37) 
36

>  <original_smiles>  (37) 
[H]c1c([H])c([H])c2c(c1[H])C([H])([H])C([H])([H])C([H])([H])C2([H])N([H])C(=O)C1([H])N(C(=O)C([H])(N([H])C(=O)C([H])(N([H])C([H])([H])[H])C([H])([H])[H])C(C([H])([H])[H])(C([H])([H])[H])C([H])([H])[H])C([H])([H])c2c([H])c(Oc3c(F)c([H])c(C([H])(C([H])([H])N([H])C(=O)N4C([H])([H])C([H])([H])C([H])([H])C([H])(n5nc(-c6c([H])c([H])c(Oc7c([H])c([H])c(F)c([H])c7F)c([H])c6[H])c(C(=O)N([H])[H])c5N([H])[H])C4([H])[H])[N+]([H])([H])[H])c([H])c3F)c([H])c([H])c2C1([H])[H]

>  <smiles>  (37) 
[H]c1c([H])c([H])c2c(c1[H])C([H])([H])C([H])([H])C([H])([H])C2([H])N([H])C(=O)C1([H])N(C(=O)C([H])(N([H])C(=O)C([H])(N([H])C([H])([H])[H])C([H])([H])[H])C(C([H])([H])[H])(C([H])([H])[H])C([H])([H])[H])C([H])([H])c2c([H])c(Oc3c(F)c([H])c(C([H])(C([H])([H])N([H])C(=O)N4C([H])([H])C([H])([H])C([H])([H])C([H])(n5nc(-c6c([H])c([H])c(Oc7c([H])c([H])c(F)c([H])c7F)c([H])c6[H])c(C(=O)N([H])[H])c5N([H])[H])C4([H])[H])[N+]([H])([H])[H])c([H])c3F)c([H])c([H])c2C1([H])[H]

$$$$
37:0:0
     RDKit          3D

 91 99  0  0  1  0  0  0  0  0999 V2000
  -27.1050  -19.8830   20.0140 C   0  0  0  0  0  2  0  0  0  0  0  0
  -28.2620  -19.5830   20.9790 C   0  0  0  0  0  2  0  0  0  0  0  0
  -27.7110  -20.7500   18.8920 C   0  0  0  0  0  2  0  0  0  0  0  0
  -29.5340  -19.9010   20.1770 C   0  0  0  0  0  3  0  0  0  0  0  0
  -29.0920  -21.0930   19.3120 N   0  0  2  0  0  4  0  0  0  0  0  0
  -29.6950  -21.1280   18.5020 H   0  0  0  0  0  0  0  0  0  0  0  0
  -29.9790  -18.5540   19.3900 C   0  0  0  0  0  0  0  0  0  0  0  0
  -29.6950  -18.3760   18.2010 O   0  0  0  0  0  0  0  0  0  0  0  0
  -30.7840  -17.3980   20.1310 C   0  0  0  0  0  2  0  0  0  0  0  0
  -31.0940  -14.8130   19.7980 C   0  0  0  0  0  0  0  0  0  0  0  0
  -30.8330  -12.4780   18.9620 C   0  0  0  0  0  2  0  0  0  0  0  0
  -29.8420  -12.4690   17.7780 C   0  0  0  0  0  2  0  0  0  0  0  0
  -28.3910  -12.3440   18.2840 C   0  0  0  0  0  2  0  0  0  0  0  0
  -28.0740  -13.3350   19.4370 C   0  0  0  0  0  3  0  0  0  0  0  0
  -29.1770  -13.3190   20.5170 C   0  0  0  0  0  2  0  0  0  0  0  0
  -30.4500  -13.6020   19.8430 N   0  0  0  0  0  0  0  0  0  0  0  0
  -32.2700  -14.8890   19.4340 O   0  0  0  0  0  0  0  0  0  0  0  0
  -30.3390  -15.9490   19.9900 N   0  0  0  0  0  0  0  0  0  0  0  0
  -29.3630  -15.7840   20.1780 H   0  0  0  0  0  0  0  0  0  0  0  0
  -25.7660  -14.0290   20.3150 C   0  0  0  0  0  0  0  0  0  0  0  0
  -24.6850  -13.3000   20.7330 C   0  0  0  0  0  0  0  0  0  0  0  0
  -25.0790  -11.9280   20.6470 C   0  0  0  0  0  0  0  0  0  0  0  0
  -26.7490  -13.1050   20.0000 N   0  0  0  0  0  0  0  0  0  0  0  0
  -26.3460  -11.8350   20.2630 N   0  0  0  0  0  0  0  0  0  0  0  0
  -24.3010  -10.7000   20.8520 C   0  0  0  0  0  0  0  0  0  0  0  0
  -24.6700   -9.7470   21.8270 C   0  0  0  0  0  3  0  0  0  0  0  0
  -23.8960   -8.5810   22.0180 C   0  0  0  0  0  3  0  0  0  0  0  0
  -22.7390   -8.3610   21.2330 C   0  0  0  0  0  0  0  0  0  0  0  0
  -22.3900   -9.3020   20.2470 C   0  0  0  0  0  3  0  0  0  0  0  0
  -23.1650  -10.4580   20.0550 C   0  0  0  0  0  3  0  0  0  0  0  0
  -21.9410   -7.2470   21.3320 O   0  0  0  0  0  0  0  0  0  0  0  0
  -21.7530   -6.6010   22.5270 C   0  0  0  0  0  0  0  0  0  0  0  0
  -21.1690   -7.2440   23.6390 C   0  0  0  0  0  3  0  0  0  0  0  0
  -20.9290   -6.5220   24.8250 C   0  0  0  0  0  3  0  0  0  0  0  0
  -21.2640   -5.1560   24.8990 C   0  0  0  0  0  0  0  0  0  0  0  0
  -21.8410   -4.5130   23.7910 C   0  0  0  0  0  3  0  0  0  0  0  0
  -22.0810   -5.2320   22.6070 C   0  0  0  0  0  0  0  0  0  0  0  0
  -22.6180   -4.6020   21.5350 F   0  0  0  0  0  0  0  0  0  0  0  0
  -21.0270   -4.4610   26.0360 F   0  0  0  0  0  0  0  0  0  0  0  0
  -23.3320  -13.8370   21.0940 C   0  0  0  0  0  0  0  0  0  0  0  0
  -22.6240  -13.1620   21.9930 N   0  0  0  0  0  0  0  0  0  0  0  0
  -22.9130  -14.8890   20.6130 O   0  0  0  0  0  0  0  0  0  0  0  0
  -22.9790  -12.3100   22.4020 H   0  0  0  0  0  0  0  0  0  0  0  0
  -21.7160  -13.5030   22.2780 H   0  0  0  0  0  0  0  0  0  0  0  0
  -25.9840  -15.3940   20.1530 N   0  0  0  0  0  0  0  0  0  0  0  0
  -25.2450  -16.0710   20.3020 H   0  0  0  0  0  0  0  0  0  0  0  0
  -26.8060  -15.7980   19.7220 H   0  0  0  0  0  0  0  0  0  0  0  0
  -29.1190  -22.4760   19.9930 C   0  0  0  0  0  2  0  0  0  0  0  0
  -28.7830  -23.8260   19.1640 C   0  0  0  0  0  3  0  0  0  0  0  0
  -28.3440  -25.1300   20.0000 C   0  0  0  0  0  3  0  0  0  0  0  0
  -28.3920  -26.5010   19.4230 O   0  0  0  0  0  0  0  0  0  0  0  0
  -24.6790  -31.5870   23.0120 C   0  0  0  0  0  0  0  0  0  0  0  0
  -27.2570  -27.3200   19.5350 C   0  0  0  0  0  0  0  0  0  0  0  0
  -23.4420  -30.2990   21.3050 C   0  0  0  0  0  3  0  0  0  0  0  0
  -24.8690  -28.8810   19.7220 C   0  0  0  0  0  0  0  0  0  0  0  0
  -25.9680  -30.6760   21.0640 C   0  0  0  0  0  2  0  0  0  0  0  0
  -26.0490  -29.3500   20.3130 C   0  0  0  0  0  0  0  0  0  0  0  0
  -27.2500  -28.5860   20.2020 C   0  0  0  0  0  3  0  0  0  0  0  0
  -26.0530  -26.8980   18.9360 C   0  0  0  0  0  3  0  0  0  0  0  0
  -24.8720  -27.6620   19.0230 C   0  0  0  0  0  3  0  0  0  0  0  0
  -23.6200  -29.7290   19.8720 C   0  0  0  0  0  2  0  0  0  0  0  0
  -24.7170  -30.8680   21.8510 N   0  0  0  0  0  0  0  0  0  0  0  0
  -23.6110  -31.8020   23.6030 O   0  0  0  0  0  0  0  0  0  0  0  0
  -22.8240  -29.2030   22.2060 C   0  0  0  0  0  0  0  0  0  0  0  0
  -21.4970  -29.0100   22.1020 N   0  0  0  0  0  0  0  0  0  0  0  0
  -23.5360  -28.5320   22.9570 O   0  0  0  0  0  0  0  0  0  0  0  0
  -20.9790  -29.6060   21.4710 H   0  0  0  0  0  0  0  0  0  0  0  0
  -18.1620  -27.6950   22.5780 C   0  0  0  0  0  0  0  0  0  0  0  0
  -20.7180  -27.9990   22.8210 C   0  0  0  0  0  3  0  0  0  0  0  0
  -20.8420  -26.6120   22.1490 C   0  0  0  0  0  2  0  0  0  0  0  0
  -19.7300  -26.3300   21.1340 C   0  0  0  0  0  2  0  0  0  0  0  0
  -18.3570  -26.4000   21.8080 C   0  0  0  0  0  2  0  0  0  0  0  0
  -19.2710  -28.4530   23.0410 C   0  0  0  0  0  0  0  0  0  0  0  0
  -19.0340  -29.6640   23.7250 C   0  0  0  0  0  3  0  0  0  0  0  0
  -17.7210  -30.1190   23.9500 C   0  0  0  0  0  3  0  0  0  0  0  0
  -16.6270  -29.3600   23.5010 C   0  0  0  0  0  3  0  0  0  0  0  0
  -16.8480  -28.1480   22.8210 C   0  0  0  0  0  3  0  0  0  0  0  0
  -25.9740  -32.1900   23.6400 C   0  0  0  0  0  3  0  0  0  0  0  0
  -25.6640  -33.5640   24.0630 N   0  0  0  0  0  0  0  0  0  0  0  0
  -25.9910  -34.6640   23.3740 C   0  0  0  0  0  0  0  0  0  0  0  0
  -26.6570  -34.6280   22.3350 O   0  0  0  0  0  0  0  0  0  0  0  0
  -25.0760  -33.6640   24.8770 H   0  0  0  0  0  0  0  0  0  0  0  0
  -24.2700  -36.4830   23.1360 C   0  0  0  0  0  1  0  0  0  0  0  0
  -25.5080  -36.0190   23.9230 C   0  0  0  0  0  3  0  0  0  0  0  0
  -27.6340  -36.8480   24.8310 C   0  0  0  0  0  1  0  0  0  0  0  0
  -26.5430  -37.0750   23.8860 N   0  0  0  0  0  0  0  0  0  0  0  0
  -26.1380  -37.9870   24.0800 H   0  0  0  0  0  0  0  0  0  0  0  0
  -26.5260  -31.3480   24.8570 C   0  0  1  0  0  0  0  0  0  0  0  0
  -25.4610  -31.0490   25.9380 C   0  0  0  0  0  1  0  0  0  0  0  0
  -27.0990  -29.9950   24.3720 C   0  0  0  0  0  1  0  0  0  0  0  0
  -27.6970  -32.1020   25.5310 C   0  0  0  0  0  1  0  0  0  0  0  0
  1  2  1  0
  3  5  1  0
  3  1  1  0
  4  7  1  0
  4  2  1  0
  5 48  1  0
  5  4  1  0
  5  6  1  6
  7  9  1  0
  8  7  2  0
 10 16  1  0
 10 18  1  0
 11 16  1  0
 12 13  1  0
 12 11  1  0
 14 13  1  0
 14 23  1  0
 14 15  1  0
 16 15  1  0
 17 10  2  0
 18  9  1  0
 18 19  1  0
 20 21  2  0
 21 40  1  0
 22 21  1  0
 22 25  1  0
 23 24  1  0
 23 20  1  0
 24 22  2  0
 25 26  1  0
 26 27  2  0
 28 31  1  0
 28 27  1  0
 29 28  2  0
 30 29  1  0
 30 25  2  0
 31 32  1  0
 32 37  2  0
 32 33  1  0
 33 34  2  0
 34 35  1  0
 35 39  1  0
 36 35  2  0
 37 36  1  0
 38 37  1  0
 40 41  1  0
 41 44  1  0
 41 43  1  0
 42 40  2  0
 45 46  1  0
 45 20  1  0
 47 45  1  0
 49 48  1  0
 49 50  2  0
 51 53  1  0
 51 50  1  0
 52 63  2  0
 53 58  1  0
 54 62  1  0
 54 64  1  0
 55 61  1  0
 55 57  1  0
 56 62  1  0
 57 56  1  0
 58 57  2  0
 59 60  1  0
 59 53  2  0
 60 55  2  0
 61 54  1  0
 62 52  1  0
 64 66  2  0
 65 64  1  0
 67 65  1  0
 68 77  2  0
 68 73  1  0
 69 65  1  0
 69 73  1  0
 70 69  1  0
 71 72  1  0
 71 70  1  0
 72 68  1  0
 73 74  2  0
 74 75  1  0
 76 75  2  0
 77 76  1  0
 78 52  1  0
 78 79  1  0
 78 88  1  0
 79 82  1  0
 80 84  1  0
 80 79  1  0
 81 80  2  0
 84 83  1  0
 86 84  1  0
 86 87  1  0
 86 85  1  0
 88 91  1  1
 88 89  1  0
 90 88  1  0
M  ISO  4  10 100  18 100  50 101  51 101
M  END
>  <TORSDO>  (38) 
F 21

>  <SCORE>  (38) 
-11.519

>  <name>  (38) 
37

>  <ligand_id>  (38) 
37

>  <original_smiles>  (38) 
[H]c1c([H])c([H])c2c(c1[H])C([H])([H])C([H])([H])C([H])([H])C2([H])N([H])C(=O)C1([H])N(C(=O)C([H])(N([H])C(=O)C([H])(N([H])C([H])([H])[H])C([H])([H])[H])C(C([H])([H])[H])(C([H])([H])[H])C([H])([H])[H])C([H])([H])c2c([H])c(OC([H])([H])C([H])([H])C([H])([H])[N+]3([H])C([H])([H])C([H])([H])C([H])([H])C3([H])C(=O)C([H])([H])N([H])C(=O)N3C([H])([H])C([H])([H])C([H])([H])C([H])(n4nc(-c5c([H])c([H])c(Oc6c([H])c([H])c(F)c([H])c6F)c([H])c5[H])c(C(=O)N([H])[H])c4N([H])[H])C3([H])[H])c([H])c([H])c2C1([H])[H]

>  <smiles>  (38) 
[H]c1c([H])c([H])c2c(c1[H])C([H])([H])C([H])([H])C([H])([H])C2([H])N([H])C(=O)C1([H])N(C(=O)C([H])(N([H])C(=O)C([H])(N([H])C([H])([H])[H])C([H])([H])[H])C(C([H])([H])[H])(C([H])([H])[H])C([H])([H])[H])C([H])([H])c2c([H])c(OC([H])([H])C([H])([H])C([H])([H])[N+]3([H])C([H])([H])C([H])([H])C([H])([H])C3([H])C(=O)C([H])([H])N([H])C(=O)N3C([H])([H])C([H])([H])C([H])([H])C([H])(n4nc(-c5c([H])c([H])c(Oc6c([H])c([H])c(F)c([H])c6F)c([H])c5[H])c(C(=O)N([H])[H])c4N([H])[H])C3([H])[H])c([H])c([H])c2C1([H])[H]

$$$$
38:0:0
     RDKit          3D

 97106  0  0  1  0  0  0  0  0999 V2000
  -29.6720  -21.4050   19.7450 C   0  0  0  0  0  2  0  0  0  0  0  0
  -27.3650  -21.2420   20.4270 C   0  0  0  0  0  2  0  0  0  0  0  0
  -29.1820  -19.9510   19.6670 C   0  0  0  0  0  3  0  0  0  0  0  0
  -28.5860  -22.1500   20.5250 C   0  0  0  0  0  3  0  0  0  0  0  0
  -26.9590  -18.8510   20.0050 C   0  0  0  0  0  1  0  0  0  0  0  0
  -27.9220  -19.8820   20.4460 N   0  0  2  0  0  4  0  0  0  0  0  0
  -28.1790  -19.6820   21.4010 H   0  0  0  0  0  0  0  0  0  0  0  0
  -32.1910  -18.4270   21.5050 C   0  0  0  0  0  3  0  0  0  0  0  0
  -31.2120  -19.3500   21.0900 C   0  0  0  0  0  3  0  0  0  0  0  0
  -32.2240  -17.1310   20.9500 C   0  0  0  0  0  3  0  0  0  0  0  0
  -30.2620  -17.6670   19.6020 C   0  0  0  0  0  3  0  0  0  0  0  0
  -30.2390  -18.9700   20.1380 C   0  0  0  0  0  0  0  0  0  0  0  0
  -31.2570  -16.7510   19.9960 C   0  0  0  0  0  0  0  0  0  0  0  0
  -31.9630  -14.3820   19.5720 C   0  0  0  0  0  0  0  0  0  0  0  0
  -31.5590  -12.0550   18.8740 C   0  0  0  0  0  2  0  0  0  0  0  0
  -30.5330  -12.0730   17.7170 C   0  0  0  0  0  2  0  0  0  0  0  0
  -29.0830  -12.1330   18.2450 C   0  0  0  0  0  2  0  0  0  0  0  0
  -28.8730  -13.2200   19.3300 C   0  0  0  0  0  3  0  0  0  0  0  0
  -29.9820  -13.1130   20.4060 C   0  0  0  0  0  2  0  0  0  0  0  0
  -31.2820  -13.2190   19.7160 N   0  0  0  0  0  0  0  0  0  0  0  0
  -33.1240  -14.4650   19.1560 O   0  0  0  0  0  0  0  0  0  0  0  0
  -31.1190  -15.4210   19.5480 N   0  0  0  0  0  0  0  0  0  0  0  0
  -30.1610  -15.1200   19.4570 H   0  0  0  0  0  0  0  0  0  0  0  0
  -26.7010  -14.2050   20.3060 C   0  0  0  0  0  0  0  0  0  0  0  0
  -25.5430  -13.6120   20.7300 C   0  0  0  0  0  0  0  0  0  0  0  0
  -25.7390  -12.2040   20.5680 C   0  0  0  0  0  0  0  0  0  0  0  0
  -27.5390  -13.1670   19.9200 N   0  0  0  0  0  0  0  0  0  0  0  0
  -26.9660  -11.9570   20.1310 N   0  0  0  0  0  0  0  0  0  0  0  0
  -24.8100  -11.0830   20.7410 C   0  0  0  0  0  0  0  0  0  0  0  0
  -25.1120   -9.9990   21.5920 C   0  0  0  0  0  3  0  0  0  0  0  0
  -24.1920   -8.9400   21.7510 C   0  0  0  0  0  3  0  0  0  0  0  0
  -22.9560   -8.9660   21.0620 C   0  0  0  0  0  0  0  0  0  0  0  0
  -22.6760  -10.0370   20.1950 C   0  0  0  0  0  3  0  0  0  0  0  0
  -23.5950  -11.0850   20.0340 C   0  0  0  0  0  3  0  0  0  0  0  0
  -22.0100   -7.9730   21.1380 O   0  0  0  0  0  0  0  0  0  0  0  0
  -21.8490   -7.2230   22.2740 C   0  0  0  0  0  0  0  0  0  0  0  0
  -21.5280   -7.8110   23.5180 C   0  0  0  0  0  3  0  0  0  0  0  0
  -21.3020   -6.9970   24.6450 C   0  0  0  0  0  3  0  0  0  0  0  0
  -21.3890   -5.5960   24.5310 C   0  0  0  0  0  0  0  0  0  0  0  0
  -21.7050   -5.0080   23.2940 C   0  0  0  0  0  3  0  0  0  0  0  0
  -21.9330   -5.8200   22.1690 C   0  0  0  0  0  0  0  0  0  0  0  0
  -22.2170   -5.2480   20.9740 F   0  0  0  0  0  0  0  0  0  0  0  0
  -21.1630   -4.8120   25.6120 F   0  0  0  0  0  0  0  0  0  0  0  0
  -24.2870  -14.3140   21.1670 C   0  0  0  0  0  0  0  0  0  0  0  0
  -23.5210  -13.7030   22.0600 N   0  0  0  0  0  0  0  0  0  0  0  0
  -24.0050  -15.4360   20.7460 O   0  0  0  0  0  0  0  0  0  0  0  0
  -23.7650  -12.7950   22.4280 H   0  0  0  0  0  0  0  0  0  0  0  0
  -22.6790  -14.1520   22.3860 H   0  0  0  0  0  0  0  0  0  0  0  0
  -27.0970  -15.5380   20.1990 N   0  0  0  0  0  0  0  0  0  0  0  0
  -26.4370  -16.2880   20.3810 H   0  0  0  0  0  0  0  0  0  0  0  0
  -27.9480  -15.8560   19.7590 H   0  0  0  0  0  0  0  0  0  0  0  0
  -28.8090  -24.6140   20.3900 C   0  0  0  0  0  0  0  0  0  0  0  0
  -28.3270  -23.4590   19.9450 N   0  0  0  0  0  0  0  0  0  0  0  0
  -29.3110  -24.7580   21.5090 O   0  0  0  0  0  0  0  0  0  0  0  0
  -27.9060  -23.4820   19.0260 H   0  0  0  0  0  0  0  0  0  0  0  0
  -28.7440  -25.7690   19.3960 C   0  0  0  0  0  2  0  0  0  0  0  0
  -28.4970  -26.9590   20.1150 O   0  0  0  0  0  0  0  0  0  0  0  0
  -24.5560  -31.8530   23.3240 C   0  0  0  0  0  0  0  0  0  0  0  0
  -27.2420  -27.5180   20.1630 C   0  0  0  0  0  0  0  0  0  0  0  0
  -23.3570  -30.4620   21.6670 C   0  0  0  0  0  3  0  0  0  0  0  0
  -24.8100  -28.9430   20.2270 C   0  0  0  0  0  0  0  0  0  0  0  0
  -25.8630  -30.8560   21.4470 C   0  0  0  0  0  2  0  0  0  0  0  0
  -25.9560  -29.4860   20.8150 C   0  0  0  0  0  0  0  0  0  0  0  0
  -27.1660  -28.7730   20.7890 C   0  0  0  0  0  3  0  0  0  0  0  0
  -26.0690  -26.9600   19.5920 C   0  0  0  0  0  3  0  0  0  0  0  0
  -24.8550  -27.6770   19.6190 C   0  0  0  0  0  3  0  0  0  0  0  0
  -23.5620  -29.7930   20.2790 C   0  0  0  0  0  2  0  0  0  0  0  0
  -24.6140  -31.0690   22.2100 N   0  0  0  0  0  0  0  0  0  0  0  0
  -23.4730  -32.1070   23.8710 O   0  0  0  0  0  0  0  0  0  0  0  0
  -22.7100  -29.4300   22.6150 C   0  0  0  0  0  0  0  0  0  0  0  0
  -21.3970  -29.2110   22.4420 N   0  0  0  0  0  0  0  0  0  0  0  0
  -23.3880  -28.8270   23.4500 O   0  0  0  0  0  0  0  0  0  0  0  0
  -20.9140  -29.7550   21.7420 H   0  0  0  0  0  0  0  0  0  0  0  0
  -18.0690  -27.8370   22.7580 C   0  0  0  0  0  0  0  0  0  0  0  0
  -20.5860  -28.2390   23.1700 C   0  0  0  0  0  3  0  0  0  0  0  0
  -20.8070  -26.8110   22.6250 C   0  0  0  0  0  2  0  0  0  0  0  0
  -19.7750  -26.4010   21.5670 C   0  0  0  0  0  2  0  0  0  0  0  0
  -18.3650  -26.4730   22.1480 C   0  0  0  0  0  2  0  0  0  0  0  0
  -19.1160  -28.6730   23.2260 C   0  0  0  0  0  0  0  0  0  0  0  0
  -18.7970  -29.9430   23.7620 C   0  0  0  0  0  3  0  0  0  0  0  0
  -17.4570  -30.3740   23.8360 C   0  0  0  0  0  3  0  0  0  0  0  0
  -16.4240  -29.5370   23.3730 C   0  0  0  0  0  3  0  0  0  0  0  0
  -16.7320  -28.2730   22.8410 C   0  0  0  0  0  3  0  0  0  0  0  0
  -25.8390  -32.4830   23.9540 C   0  0  0  0  0  3  0  0  0  0  0  0
  -26.3250  -31.7320   25.2520 C   0  0  1  0  0  0  0  0  0  0  0  0
  -25.2070  -31.4970   26.2960 C   0  0  0  0  0  1  0  0  0  0  0  0
  -26.9170  -30.3550   24.8740 C   0  0  0  0  0  1  0  0  0  0  0  0
  -27.4520  -32.5360   25.9400 C   0  0  0  0  0  1  0  0  0  0  0  0
  -25.5470  -33.8930   24.2490 N   0  0  0  0  0  0  0  0  0  0  0  0
  -25.8970  -34.9210   23.4640 C   0  0  0  0  0  0  0  0  0  0  0  0
  -26.5760  -34.7850   22.4430 O   0  0  0  0  0  0  0  0  0  0  0  0
  -24.9490  -34.0740   25.0410 H   0  0  0  0  0  0  0  0  0  0  0  0
  -24.1900  -36.7200   23.0470 C   0  0  0  0  0  1  0  0  0  0  0  0
  -25.4200  -36.3250   23.8800 C   0  0  0  0  0  3  0  0  0  0  0  0
  -27.5570  -37.2110   24.7040 C   0  0  0  0  0  1  0  0  0  0  0  0
  -26.4640  -37.3650   23.7460 N   0  0  0  0  0  0  0  0  0  0  0  0
  -26.0650  -38.2920   23.8650 H   0  0  0  0  0  0  0  0  0  0  0  0
  1  4  1  0
  2  6  1  0
  2  4  1  0
  3  1  1  0
  3 12  1  0
  3  6  1  0
  4 53  1  0
  5  6  1  0
  6  7  1  1
  9  8  1  0
 10  8  2  0
 11 13  2  0
 11 12  1  0
 12  9  2  0
 13 10  1  0
 14 20  1  0
 15 20  1  0
 16 17  1  0
 16 15  1  0
 18 17  1  0
 18 27  1  0
 18 19  1  0
 20 19  1  0
 21 14  2  0
 22 14  1  0
 22 13  1  0
 23 22  1  0
 24 25  2  0
 25 44  1  0
 26 25  1  0
 26 29  1  0
 27 28  1  0
 27 24  1  0
 28 26  2  0
 29 30  1  0
 30 31  2  0
 32 35  1  0
 32 31  1  0
 33 32  2  0
 34 33  1  0
 34 29  2  0
 35 36  1  0
 36 37  1  0
 37 38  2  0
 39 38  1  0
 39 43  1  0
 40 39  2  0
 41 36  2  0
 41 40  1  0
 42 41  1  0
 44 45  1  0
 45 48  1  0
 45 47  1  0
 46 44  2  0
 49 24  1  0
 49 50  1  0
 51 49  1  0
 52 54  2  0
 53 52  1  0
 55 53  1  0
 56 57  1  0
 56 52  1  0
 57 59  1  0
 58 69  2  0
 59 64  1  0
 60 68  1  0
 60 70  1  0
 61 67  1  0
 61 63  1  0
 62 68  1  0
 63 62  1  0
 64 63  2  0
 65 66  1  0
 65 59  2  0
 66 61  2  0
 67 60  1  0
 68 58  1  0
 70 72  2  0
 71 70  1  0
 73 71  1  0
 74 83  2  0
 74 79  1  0
 75 71  1  0
 75 79  1  0
 76 75  1  0
 77 78  1  0
 77 76  1  0
 78 74  1  0
 79 80  2  0
 80 81  1  0
 82 81  2  0
 83 82  1  0
 84 58  1  0
 84 89  1  0
 84 85  1  0
 85 88  1  1
 85 86  1  0
 87 85  1  0
 89 92  1  0
 90 94  1  0
 90 89  1  0
 91 90  2  0
 94 93  1  0
 96 97  1  0
 96 94  1  0
 96 95  1  0
M  ISO  4  14 100  22 100  56 101  57 101
M  END
>  <TORSDO>  (39) 
F 19

>  <SCORE>  (39) 
-12.400

>  <name>  (39) 
38

>  <ligand_id>  (39) 
38

>  <original_smiles>  (39) 
[H]c1c([H])c([H])c2c(c1[H])C([H])([H])C([H])([H])C([H])([H])C2([H])N([H])C(=O)C1([H])N(C(=O)C([H])(N([H])C(=O)C([H])(N([H])C([H])([H])[H])C([H])([H])[H])C(C([H])([H])[H])(C([H])([H])[H])C([H])([H])[H])C([H])([H])c2c([H])c(OC([H])([H])C(=O)N([H])C3([H])C([H])([H])C([H])(c4c([H])c([H])c([H])c(N([H])C(=O)N5C([H])([H])C([H])([H])C([H])([H])C([H])(n6nc(-c7c([H])c([H])c(Oc8c([H])c([H])c(F)c([H])c8F)c([H])c7[H])c(C(=O)N([H])[H])c6N([H])[H])C5([H])[H])c4[H])[N+]([H])(C([H])([H])[H])C3([H])[H])c([H])c([H])c2C1([H])[H]

>  <smiles>  (39) 
[H]c1c([H])c([H])c2c(c1[H])C([H])([H])C([H])([H])C([H])([H])C2([H])N([H])C(=O)C1([H])N(C(=O)C([H])(N([H])C(=O)C([H])(N([H])C([H])([H])[H])C([H])([H])[H])C(C([H])([H])[H])(C([H])([H])[H])C([H])([H])[H])C([H])([H])c2c([H])c(OC([H])([H])C(=O)N([H])C3([H])C([H])([H])C([H])(c4c([H])c([H])c([H])c(N([H])C(=O)N5C([H])([H])C([H])([H])C([H])([H])C([H])(n6nc(-c7c([H])c([H])c(Oc8c([H])c([H])c(F)c([H])c8F)c([H])c7[H])c(C(=O)N([H])[H])c6N([H])[H])C5([H])[H])c4[H])[N+]([H])(C([H])([H])[H])C3([H])[H])c([H])c([H])c2C1([H])[H]

$$$$
39:0:0
     RDKit          3D

 99108  0  0  1  0  0  0  0  0999 V2000
  -30.0600  -21.2100   22.2640 C   0  0  0  0  0  2  0  0  0  0  0  0
  -31.0640  -21.3690   19.9490 C   0  0  0  0  0  2  0  0  0  0  0  0
  -30.5500  -22.6510   22.4870 C   0  0  0  0  0  2  0  0  0  0  0  0
  -31.5120  -22.8040   20.3320 C   0  0  0  0  0  2  0  0  0  0  0  0
  -30.8500  -20.4430   21.1740 C   0  0  0  0  0  3  0  0  0  0  0  0
  -30.5170  -23.4080   21.2280 N   0  0  0  0  0  0  0  0  0  0  0  0
  -28.7250  -16.6920   20.4990 C   0  0  0  0  0  3  0  0  0  0  0  0
  -28.1550  -17.9090   20.1040 C   0  0  0  0  0  3  0  0  0  0  0  0
  -30.7670  -17.8450   21.1590 C   0  0  0  0  0  3  0  0  0  0  0  0
  -30.1680  -19.0990   20.8340 C   0  0  0  0  0  0  0  0  0  0  0  0
  -30.0450  -16.6300   20.9750 C   0  0  0  0  0  0  0  0  0  0  0  0
  -28.8720  -19.1040   20.2580 C   0  0  0  0  0  0  0  0  0  0  0  0
  -28.2730  -20.2580   19.8830 F   0  0  0  0  0  0  0  0  0  0  0  0
  -31.0190  -14.4500   20.4520 C   0  0  0  0  0  0  0  0  0  0  0  0
  -30.6990  -12.2610   19.3330 C   0  0  0  0  0  2  0  0  0  0  0  0
  -29.7690  -12.4070   18.1110 C   0  0  0  0  0  2  0  0  0  0  0  0
  -28.2900  -12.2910   18.5240 C   0  0  0  0  0  2  0  0  0  0  0  0
  -27.9420  -13.1960   19.7320 C   0  0  0  0  0  3  0  0  0  0  0  0
  -28.9770  -13.0110   20.8690 C   0  0  0  0  0  2  0  0  0  0  0  0
  -30.3290  -13.2780   20.3330 N   0  0  0  0  0  0  0  0  0  0  0  0
  -32.0570  -14.6840   19.8240 O   0  0  0  0  0  0  0  0  0  0  0  0
  -30.5210  -15.3350   21.3370 N   0  0  0  0  0  0  0  0  0  0  0  0
  -29.8880  -14.8580   21.9590 H   0  0  0  0  0  0  0  0  0  0  0  0
  -25.5460  -13.8790   20.4080 C   0  0  0  0  0  0  0  0  0  0  0  0
  -24.4600  -13.1430   20.7920 C   0  0  0  0  0  0  0  0  0  0  0  0
  -24.8830  -11.7800   20.7750 C   0  0  0  0  0  0  0  0  0  0  0  0
  -26.5730  -12.9690   20.2000 N   0  0  0  0  0  0  0  0  0  0  0  0
  -26.1730  -11.7010   20.4730 N   0  0  0  0  0  0  0  0  0  0  0  0
  -24.1200  -10.5420   20.9710 C   0  0  0  0  0  0  0  0  0  0  0  0
  -24.5100   -9.5780   21.9250 C   0  0  0  0  0  3  0  0  0  0  0  0
  -23.7480   -8.4020   22.1090 C   0  0  0  0  0  3  0  0  0  0  0  0
  -22.5840   -8.1850   21.3360 C   0  0  0  0  0  0  0  0  0  0  0  0
  -22.2100   -9.1380   20.3710 C   0  0  0  0  0  3  0  0  0  0  0  0
  -22.9730  -10.3050   20.1880 C   0  0  0  0  0  3  0  0  0  0  0  0
  -21.7980   -7.0600   21.4260 O   0  0  0  0  0  0  0  0  0  0  0  0
  -21.6940   -6.3480   22.5920 C   0  0  0  0  0  0  0  0  0  0  0  0
  -21.2260   -6.9370   23.7860 C   0  0  0  0  0  3  0  0  0  0  0  0
  -21.0700   -6.1510   24.9460 C   0  0  0  0  0  3  0  0  0  0  0  0
  -21.3690   -4.7750   24.9110 C   0  0  0  0  0  0  0  0  0  0  0  0
  -21.8280   -4.1850   23.7200 C   0  0  0  0  0  3  0  0  0  0  0  0
  -21.9880   -4.9690   22.5630 C   0  0  0  0  0  0  0  0  0  0  0  0
  -22.4110   -4.3910   21.4130 F   0  0  0  0  0  0  0  0  0  0  0  0
  -21.2100   -4.0180   26.0200 F   0  0  0  0  0  0  0  0  0  0  0  0
  -23.0770  -13.6650   21.0550 C   0  0  0  0  0  0  0  0  0  0  0  0
  -22.3300  -13.0100   21.9360 N   0  0  0  0  0  0  0  0  0  0  0  0
  -22.6660  -14.6910   20.5130 O   0  0  0  0  0  0  0  0  0  0  0  0
  -22.6730  -12.1800   22.3970 H   0  0  0  0  0  0  0  0  0  0  0  0
  -21.4010  -13.3430   22.1520 H   0  0  0  0  0  0  0  0  0  0  0  0
  -25.7280  -15.2400   20.1930 N   0  0  0  0  0  0  0  0  0  0  0  0
  -24.9550  -15.8920   20.2650 H   0  0  0  0  0  0  0  0  0  0  0  0
  -26.5410  -15.6370   19.7420 H   0  0  0  0  0  0  0  0  0  0  0  0
  -30.6820  -24.8430   21.5340 C   0  0  0  0  0  2  0  0  0  0  0  0
  -30.5620  -25.8190   20.3230 C   0  0  0  0  0  3  0  0  0  0  0  0
  -31.9030  -26.2430   19.8590 N   0  0  0  0  0  4  0  0  0  0  0  0
  -32.3680  -26.8120   20.5460 H   0  0  0  0  0  0  0  0  0  0  0  0
  -31.8340  -26.7760   19.0100 H   0  0  0  0  0  0  0  0  0  0  0  0
  -32.4850  -25.4470   19.6690 H   0  0  0  0  0  0  0  0  0  0  0  0
  -29.6360  -27.0540   20.5860 C   0  0  0  0  0  2  0  0  0  0  0  0
  -28.3520  -26.6870   20.0990 O   0  0  0  0  0  0  0  0  0  0  0  0
  -24.5400  -31.9280   23.2330 C   0  0  0  0  0  0  0  0  0  0  0  0
  -27.2570  -27.5190   20.1700 C   0  0  0  0  0  0  0  0  0  0  0  0
  -23.3600  -30.5180   21.5790 C   0  0  0  0  0  3  0  0  0  0  0  0
  -24.8430  -28.9960   20.1710 C   0  0  0  0  0  0  0  0  0  0  0  0
  -25.8850  -30.9010   21.4040 C   0  0  0  0  0  2  0  0  0  0  0  0
  -25.9940  -29.5310   20.7680 C   0  0  0  0  0  0  0  0  0  0  0  0
  -27.2090  -28.8010   20.7720 C   0  0  0  0  0  3  0  0  0  0  0  0
  -26.0870  -27.0000   19.5820 C   0  0  0  0  0  3  0  0  0  0  0  0
  -24.8840  -27.7260   19.5760 C   0  0  0  0  0  3  0  0  0  0  0  0
  -23.5900  -29.8410   20.2030 C   0  0  0  0  0  2  0  0  0  0  0  0
  -24.6120  -31.1290   22.1310 N   0  0  0  0  0  0  0  0  0  0  0  0
  -23.4520  -32.1920   23.7640 O   0  0  0  0  0  0  0  0  0  0  0  0
  -22.7070  -29.4910   22.5330 C   0  0  0  0  0  0  0  0  0  0  0  0
  -21.3820  -29.3130   22.4050 N   0  0  0  0  0  0  0  0  0  0  0  0
  -23.3890  -28.8580   23.3420 O   0  0  0  0  0  0  0  0  0  0  0  0
  -20.8930  -29.8750   21.7210 H   0  0  0  0  0  0  0  0  0  0  0  0
  -17.9980  -28.1530   22.9220 C   0  0  0  0  0  0  0  0  0  0  0  0
  -20.5620  -28.3720   23.1680 C   0  0  0  0  0  3  0  0  0  0  0  0
  -20.6390  -26.9510   22.5650 C   0  0  0  0  0  2  0  0  0  0  0  0
  -19.5210  -26.6610   21.5580 C   0  0  0  0  0  2  0  0  0  0  0  0
  -18.1480  -26.8130   22.2220 C   0  0  0  0  0  2  0  0  0  0  0  0
  -19.1320  -28.8930   23.3520 C   0  0  0  0  0  0  0  0  0  0  0  0
  -18.9380  -30.1490   23.9670 C   0  0  0  0  0  3  0  0  0  0  0  0
  -17.6420  -30.6650   24.1560 C   0  0  0  0  0  3  0  0  0  0  0  0
  -16.5240  -29.9210   23.7440 C   0  0  0  0  0  3  0  0  0  0  0  0
  -16.7020  -28.6680   23.1320 C   0  0  0  0  0  3  0  0  0  0  0  0
  -25.8160  -32.5680   23.8640 C   0  0  0  0  0  3  0  0  0  0  0  0
  -25.4950  -33.9640   24.1910 N   0  0  0  0  0  0  0  0  0  0  0  0
  -25.8510  -35.0190   23.4450 C   0  0  0  0  0  0  0  0  0  0  0  0
  -26.5540  -34.9190   22.4360 O   0  0  0  0  0  0  0  0  0  0  0  0
  -24.8770  -34.1140   24.9750 H   0  0  0  0  0  0  0  0  0  0  0  0
  -24.1510  -36.8210   23.0210 C   0  0  0  0  0  1  0  0  0  0  0  0
  -25.3470  -36.4040   23.8910 C   0  0  0  0  0  3  0  0  0  0  0  0
  -27.4410  -37.2680   24.8390 C   0  0  0  0  0  1  0  0  0  0  0  0
  -26.3890  -37.4530   23.8420 N   0  0  0  0  0  0  0  0  0  0  0  0
  -25.9800  -38.3730   23.9800 H   0  0  0  0  0  0  0  0  0  0  0  0
  -26.3300  -31.7970   25.1420 C   0  0  1  0  0  0  0  0  0  0  0  0
  -25.2290  -31.5410   26.1980 C   0  0  0  0  0  1  0  0  0  0  0  0
  -26.9330  -30.4290   24.7470 C   0  0  0  0  0  1  0  0  0  0  0  0
  -27.4630  -32.6030   25.8180 C   0  0  0  0  0  1  0  0  0  0  0  0
  1  3  1  0
  2  4  1  0
  2  5  1  0
  4  6  1  0
  5 10  1  0
  5  1  1  0
  6 52  1  0
  6  3  1  0
  7 11  1  0
  8 12  1  0
  8  7  2  0
 10  9  1  0
 11  9  2  0
 11 22  1  0
 12 10  2  0
 13 12  1  0
 14 22  1  0
 15 20  1  0
 16 17  1  0
 16 15  1  0
 18 17  1  0
 18 27  1  0
 18 19  1  0
 20 14  1  0
 20 19  1  0
 21 14  2  0
 22 23  1  0
 24 25  2  0
 25 44  1  0
 26 25  1  0
 26 29  1  0
 27 24  1  0
 27 28  1  0
 28 26  2  0
 29 30  1  0
 30 31  2  0
 32 35  1  0
 32 31  1  0
 33 32  2  0
 34 33  1  0
 34 29  2  0
 35 36  1  0
 36 37  1  0
 37 38  2  0
 39 38  1  0
 39 43  1  0
 40 39  2  0
 41 36  2  0
 41 40  1  0
 42 41  1  0
 44 45  1  0
 45 48  1  0
 45 47  1  0
 46 44  2  0
 49 50  1  0
 49 24  1  0
 51 49  1  0
 53 58  1  0
 53 52  1  0
 54 53  1  0
 54 55  1  0
 56 54  1  0
 57 54  1  0
 59 61  1  0
 59 58  1  0
 60 71  2  0
 61 66  1  0
 62 70  1  0
 62 72  1  0
 63 69  1  0
 63 65  1  0
 64 70  1  0
 65 66  2  0
 65 64  1  0
 67 61  2  0
 68 67  1  0
 68 63  2  0
 69 62  1  0
 70 60  1  0
 72 74  2  0
 73 72  1  0
 75 73  1  0
 76 85  2  0
 76 81  1  0
 77 73  1  0
 77 81  1  0
 78 77  1  0
 79 80  1  0
 79 78  1  0
 80 76  1  0
 81 82  2  0
 82 83  1  0
 84 83  2  0
 85 84  1  0
 86 60  1  0
 86 87  1  0
 86 96  1  0
 87 90  1  0
 88 92  1  0
 88 87  1  0
 89 88  2  0
 92 91  1  0
 94 92  1  0
 94 95  1  0
 94 93  1  0
 96 99  1  1
 96 97  1  0
 98 96  1  0
M  ISO  4  14 100  22 100  58 101  59 101
M  END
>  <TORSDO>  (40) 
F 21

>  <SCORE>  (40) 
-14.291

>  <name>  (40) 
39

>  <ligand_id>  (40) 
39

>  <original_smiles>  (40) 
[H]c1c([H])c([H])c2c(c1[H])C([H])([H])C([H])([H])C([H])([H])C2([H])N([H])C(=O)C1([H])N(C(=O)C([H])(N([H])C(=O)C([H])(N([H])C([H])([H])[H])C([H])([H])[H])C(C([H])([H])[H])(C([H])([H])[H])C([H])([H])[H])C([H])([H])c2c([H])c(OC([H])([H])C([H])(C([H])([H])N3C([H])([H])C([H])([H])C([H])(c4c([H])c(N([H])C(=O)N5C([H])([H])C([H])([H])C([H])([H])C([H])(n6nc(-c7c([H])c([H])c(Oc8c([H])c([H])c(F)c([H])c8F)c([H])c7[H])c(C(=O)N([H])[H])c6N([H])[H])C5([H])[H])c([H])c([H])c4F)C([H])([H])C3([H])[H])[N+]([H])([H])[H])c([H])c([H])c2C1([H])[H]

>  <smiles>  (40) 
[H]c1c([H])c([H])c2c(c1[H])C([H])([H])C([H])([H])C([H])([H])C2([H])N([H])C(=O)C1([H])N(C(=O)C([H])(N([H])C(=O)C([H])(N([H])C([H])([H])[H])C([H])([H])[H])C(C([H])([H])[H])(C([H])([H])[H])C([H])([H])[H])C([H])([H])c2c([H])c(OC([H])([H])C([H])(C([H])([H])N3C([H])([H])C([H])([H])C([H])(c4c([H])c(N([H])C(=O)N5C([H])([H])C([H])([H])C([H])([H])C([H])(n6nc(-c7c([H])c([H])c(Oc8c([H])c([H])c(F)c([H])c8F)c([H])c7[H])c(C(=O)N([H])[H])c6N([H])[H])C5([H])[H])c([H])c([H])c4F)C([H])([H])C3([H])[H])[N+]([H])([H])[H])c([H])c([H])c2C1([H])[H]

$$$$
40:0:0
     RDKit          3D

 96105  0  0  1  0  0  0  0  0999 V2000
  -29.3460  -22.7160   22.4770 C   0  0  0  0  0  2  0  0  0  0  0  0
  -30.1460  -22.1230   20.1960 C   0  0  0  0  0  2  0  0  0  0  0  0
  -29.9370  -24.1310   22.3070 C   0  0  0  0  0  2  0  0  0  0  0  0
  -30.7320  -23.5420   20.0490 C   0  0  0  0  0  2  0  0  0  0  0  0
  -30.1300  -21.6640   21.6680 C   0  0  0  0  0  3  0  0  0  0  0  0
  -30.0080  -24.5440   20.8770 N   0  0  2  0  0  4  0  0  0  0  0  0
  -29.0630  -24.5860   20.5200 H   0  0  0  0  0  0  0  0  0  0  0  0
  -29.5440  -20.2400   21.8560 C   0  0  0  0  0  2  0  0  0  0  0  0
  -30.3750  -19.1810   21.2400 N   0  0  0  0  0  4  0  0  0  0  0  0
  -30.3570  -19.2980   20.2400 H   0  0  0  0  0  0  0  0  0  0  0  0
  -31.3290  -19.2900   21.5420 H   0  0  0  0  0  0  0  0  0  0  0  0
  -30.7050  -17.1760   22.6630 C   0  0  0  0  0  2  0  0  0  0  0  0
  -30.9150  -16.7030   21.2340 C   0  0  0  0  0  3  0  0  0  0  0  0
  -29.9160  -17.8070   21.5470 C   0  0  0  0  0  3  0  0  0  0  0  0
  -30.9870  -14.4980   20.1230 C   0  0  0  0  0  0  0  0  0  0  0  0
  -30.6190  -12.3750   18.9190 C   0  0  0  0  0  2  0  0  0  0  0  0
  -29.6380  -12.5830   17.7490 C   0  0  0  0  0  2  0  0  0  0  0  0
  -28.1780  -12.4560   18.2250 C   0  0  0  0  0  2  0  0  0  0  0  0
  -27.8870  -13.3040   19.4910 C   0  0  0  0  0  3  0  0  0  0  0  0
  -28.9680  -13.0550   20.5680 C   0  0  0  0  0  2  0  0  0  0  0  0
  -30.2860  -13.3440   19.9730 N   0  0  0  0  0  0  0  0  0  0  0  0
  -32.0240  -14.7510   19.5010 O   0  0  0  0  0  0  0  0  0  0  0  0
  -30.4400  -15.3820   20.9680 N   0  0  0  0  0  0  0  0  0  0  0  0
  -29.5940  -15.0840   21.4310 H   0  0  0  0  0  0  0  0  0  0  0  0
  -25.5150  -13.9440   20.2650 C   0  0  0  0  0  0  0  0  0  0  0  0
  -24.4490  -13.1840   20.6670 C   0  0  0  0  0  0  0  0  0  0  0  0
  -24.8940  -11.8280   20.6230 C   0  0  0  0  0  0  0  0  0  0  0  0
  -26.5430  -13.0500   20.0070 N   0  0  0  0  0  0  0  0  0  0  0  0
  -26.1720  -11.7730   20.2760 N   0  0  0  0  0  0  0  0  0  0  0  0
  -24.1600  -10.5740   20.8370 C   0  0  0  0  0  0  0  0  0  0  0  0
  -24.5720   -9.6330   21.8070 C   0  0  0  0  0  3  0  0  0  0  0  0
  -23.8400   -8.4420   22.0060 C   0  0  0  0  0  3  0  0  0  0  0  0
  -22.6820   -8.1850   21.2350 C   0  0  0  0  0  0  0  0  0  0  0  0
  -22.2890   -9.1130   20.2560 C   0  0  0  0  0  3  0  0  0  0  0  0
  -23.0210  -10.2950   20.0550 C   0  0  0  0  0  3  0  0  0  0  0  0
  -21.9240   -7.0430   21.3410 O   0  0  0  0  0  0  0  0  0  0  0  0
  -21.8010   -6.3690   22.5300 C   0  0  0  0  0  0  0  0  0  0  0  0
  -21.2940   -6.9930   23.6910 C   0  0  0  0  0  3  0  0  0  0  0  0
  -21.1190   -6.2440   24.8720 C   0  0  0  0  0  3  0  0  0  0  0  0
  -21.4410   -4.8730   24.8930 C   0  0  0  0  0  0  0  0  0  0  0  0
  -21.9400   -4.2500   23.7360 C   0  0  0  0  0  3  0  0  0  0  0  0
  -22.1170   -4.9960   22.5560 C   0  0  0  0  0  0  0  0  0  0  0  0
  -22.5790   -4.3850   21.4390 F   0  0  0  0  0  0  0  0  0  0  0  0
  -21.2650   -4.1520   26.0240 F   0  0  0  0  0  0  0  0  0  0  0  0
  -23.0660  -13.6770   20.9830 C   0  0  0  0  0  0  0  0  0  0  0  0
  -22.3660  -12.9990   21.8870 N   0  0  0  0  0  0  0  0  0  0  0  0
  -22.6160  -14.6980   20.4650 O   0  0  0  0  0  0  0  0  0  0  0  0
  -22.7420  -12.1740   22.3270 H   0  0  0  0  0  0  0  0  0  0  0  0
  -21.4390  -13.3110   22.1410 H   0  0  0  0  0  0  0  0  0  0  0  0
  -25.6890  -15.3120   20.0810 N   0  0  0  0  0  0  0  0  0  0  0  0
  -24.9330  -15.9760   20.2050 H   0  0  0  0  0  0  0  0  0  0  0  0
  -26.5340  -15.7370   19.7180 H   0  0  0  0  0  0  0  0  0  0  0  0
  -30.5670  -25.9110   20.6900 C   0  0  0  0  0  2  0  0  0  0  0  0
  -29.5360  -27.0310   20.9040 C   0  0  0  0  0  3  0  0  0  0  0  0
  -30.1830  -28.1920   20.6290 F   0  0  0  0  0  0  0  0  0  0  0  0
  -28.5250  -26.8330   20.0120 O   0  0  0  0  0  0  0  0  0  0  0  0
  -24.6070  -31.8960   23.2220 C   0  0  0  0  0  0  0  0  0  0  0  0
  -27.3620  -27.5650   20.1110 C   0  0  0  0  0  0  0  0  0  0  0  0
  -23.4290  -30.4900   21.5580 C   0  0  0  0  0  3  0  0  0  0  0  0
  -24.9190  -28.9910   20.1300 C   0  0  0  0  0  0  0  0  0  0  0  0
  -25.9420  -30.9080   21.3690 C   0  0  0  0  0  2  0  0  0  0  0  0
  -26.0560  -29.5410   20.7290 C   0  0  0  0  0  0  0  0  0  0  0  0
  -27.2760  -28.8370   20.7260 C   0  0  0  0  0  3  0  0  0  0  0  0
  -26.2050  -27.0220   19.5120 C   0  0  0  0  0  3  0  0  0  0  0  0
  -24.9840  -27.7240   19.5220 C   0  0  0  0  0  3  0  0  0  0  0  0
  -23.6560  -29.8220   20.1740 C   0  0  0  0  0  2  0  0  0  0  0  0
  -24.6770  -31.1110   22.1100 N   0  0  0  0  0  0  0  0  0  0  0  0
  -23.5210  -32.1430   23.7620 O   0  0  0  0  0  0  0  0  0  0  0  0
  -22.7930  -29.4500   22.5050 C   0  0  0  0  0  0  0  0  0  0  0  0
  -21.4740  -29.2430   22.3650 N   0  0  0  0  0  0  0  0  0  0  0  0
  -23.4840  -28.8280   23.3180 O   0  0  0  0  0  0  0  0  0  0  0  0
  -20.9790  -29.7980   21.6810 H   0  0  0  0  0  0  0  0  0  0  0  0
  -18.1170  -27.9940   22.8270 C   0  0  0  0  0  0  0  0  0  0  0  0
  -20.6690  -28.2850   23.1200 C   0  0  0  0  0  3  0  0  0  0  0  0
  -20.7960  -26.8630   22.5250 C   0  0  0  0  0  2  0  0  0  0  0  0
  -19.7040  -26.5380   21.5000 C   0  0  0  0  0  2  0  0  0  0  0  0
  -18.3170  -26.6550   22.1370 C   0  0  0  0  0  2  0  0  0  0  0  0
  -19.2220  -28.7670   23.2740 C   0  0  0  0  0  0  0  0  0  0  0  0
  -18.9820  -30.0210   23.8760 C   0  0  0  0  0  3  0  0  0  0  0  0
  -17.6700  -30.5030   24.0380 C   0  0  0  0  0  3  0  0  0  0  0  0
  -16.5790  -29.7280   23.6080 C   0  0  0  0  0  3  0  0  0  0  0  0
  -16.8040  -28.4750   23.0080 C   0  0  0  0  0  3  0  0  0  0  0  0
  -25.8830  -32.5370   23.8550 C   0  0  0  0  0  3  0  0  0  0  0  0
  -25.5650  -33.9360   24.1660 N   0  0  0  0  0  0  0  0  0  0  0  0
  -25.9220  -34.9830   23.4090 C   0  0  0  0  0  0  0  0  0  0  0  0
  -26.6240  -34.8720   22.4000 O   0  0  0  0  0  0  0  0  0  0  0  0
  -24.9460  -34.0970   24.9460 H   0  0  0  0  0  0  0  0  0  0  0  0
  -24.2160  -36.7780   22.9710 C   0  0  0  0  0  1  0  0  0  0  0  0
  -25.4190  -36.3740   23.8390 C   0  0  0  0  0  3  0  0  0  0  0  0
  -27.5180  -37.2540   24.7590 C   0  0  0  0  0  1  0  0  0  0  0  0
  -26.4600  -37.4220   23.7680 N   0  0  0  0  0  0  0  0  0  0  0  0
  -26.0500  -38.3450   23.8950 H   0  0  0  0  0  0  0  0  0  0  0  0
  -26.3900  -31.7770   25.1410 C   0  0  1  0  0  0  0  0  0  0  0  0
  -25.2870  -31.5370   26.1960 C   0  0  0  0  0  1  0  0  0  0  0  0
  -26.9900  -30.4030   24.7600 C   0  0  0  0  0  1  0  0  0  0  0  0
  -27.5260  -32.5850   25.8130 C   0  0  0  0  0  1  0  0  0  0  0  0
  2  5  1  0
  3  1  1  0
  4  2  1  0
  4  6  1  0
  5  8  1  0
  5  1  1  0
  6  3  1  0
  6  7  1  6
  9 11  1  0
  9  8  1  0
 10  9  1  0
 13 23  1  0
 13 14  1  0
 13 12  1  0
 14  9  1  0
 14 12  1  0
 15 23  1  0
 16 21  1  0
 17 18  1  0
 17 16  1  0
 19 18  1  0
 19 28  1  0
 19 20  1  0
 21 15  1  0
 21 20  1  0
 22 15  2  0
 23 24  1  0
 25 26  2  0
 26 45  1  0
 27 26  1  0
 27 30  1  0
 28 25  1  0
 28 29  1  0
 29 27  2  0
 30 31  1  0
 31 32  2  0
 33 36  1  0
 33 32  1  0
 34 33  2  0
 35 34  1  0
 35 30  2  0
 36 37  1  0
 37 42  2  0
 37 38  1  0
 38 39  2  0
 39 40  1  0
 40 44  1  0
 41 40  2  0
 42 41  1  0
 43 42  1  0
 45 46  1  0
 46 49  1  0
 46 48  1  0
 47 45  2  0
 50 51  1  0
 50 25  1  0
 52 50  1  0
 53  6  1  0
 53 54  1  0
 54 55  1  0
 56 58  1  0
 56 54  1  0
 57 68  2  0
 58 63  1  0
 59 67  1  0
 59 69  1  0
 60 66  1  0
 60 62  1  0
 61 67  1  0
 62 61  1  0
 63 62  2  0
 64 65  1  0
 64 58  2  0
 65 60  2  0
 66 59  1  0
 67 57  1  0
 69 71  2  0
 70 69  1  0
 72 70  1  0
 73 82  2  0
 73 78  1  0
 74 70  1  0
 74 78  1  0
 75 74  1  0
 76 77  1  0
 76 75  1  0
 77 73  1  0
 78 79  2  0
 79 80  1  0
 81 80  2  0
 82 81  1  0
 83 57  1  0
 83 84  1  0
 83 93  1  0
 84 87  1  0
 85 89  1  0
 85 84  1  0
 86 85  2  0
 89 88  1  0
 91 89  1  0
 91 92  1  0
 91 90  1  0
 93 96  1  1
 93 94  1  0
 95 93  1  0
M  ISO  4  15 100  23 100  54 101  56 101
M  END
>  <TORSDO>  (41) 
F 21

>  <SCORE>  (41) 
-13.017

>  <name>  (41) 
40

>  <ligand_id>  (41) 
40

>  <original_smiles>  (41) 
[H]c1c([H])c([H])c2c(c1[H])C([H])([H])C([H])([H])C([H])([H])C2([H])N([H])C(=O)C1([H])N(C(=O)C([H])(N([H])C(=O)C([H])(N([H])C([H])([H])[H])C([H])([H])[H])C(C([H])([H])[H])(C([H])([H])[H])C([H])([H])[H])C([H])([H])c2c([H])c(OC([H])(F)C([H])([H])[N+]3([H])C([H])([H])C([H])([H])C([H])(C([H])([H])[N+]([H])([H])C4([H])C([H])([H])C4([H])N([H])C(=O)N4C([H])([H])C([H])([H])C([H])([H])C([H])(n5nc(-c6c([H])c([H])c(Oc7c([H])c([H])c(F)c([H])c7F)c([H])c6[H])c(C(=O)N([H])[H])c5N([H])[H])C4([H])[H])C([H])([H])C3([H])[H])c([H])c([H])c2C1([H])[H]

>  <smiles>  (41) 
[H]c1c([H])c([H])c2c(c1[H])C([H])([H])C([H])([H])C([H])([H])C2([H])N([H])C(=O)C1([H])N(C(=O)C([H])(N([H])C(=O)C([H])(N([H])C([H])([H])[H])C([H])([H])[H])C(C([H])([H])[H])(C([H])([H])[H])C([H])([H])[H])C([H])([H])c2c([H])c(OC([H])(F)C([H])([H])[N+]3([H])C([H])([H])C([H])([H])C([H])(C([H])([H])[N+]([H])([H])C4([H])C([H])([H])C4([H])N([H])C(=O)N4C([H])([H])C([H])([H])C([H])([H])C([H])(n5nc(-c6c([H])c([H])c(Oc7c([H])c([H])c(F)c([H])c7F)c([H])c6[H])c(C(=O)N([H])[H])c5N([H])[H])C4([H])[H])C([H])([H])C3([H])[H])c([H])c([H])c2C1([H])[H]

$$$$
41:0:0
     RDKit          3D

 87 95  0  0  1  0  0  0  0  0999 V2000
  -29.1620  -21.3200   21.2240 C   0  0  0  0  0  3  0  0  0  0  0  0
  -29.5080  -19.8210   21.2250 C   0  0  0  0  0  3  0  0  0  0  0  0
  -28.7390  -19.6470   19.1540 C   0  0  0  0  0  3  0  0  0  0  0  0
  -28.5580  -22.1990   20.1760 C   0  0  0  0  0  0  0  0  0  0  0  0
  -29.3490  -18.7600   20.1840 C   0  0  0  0  0  0  0  0  0  0  0  0
  -28.3970  -21.1370   19.1390 C   0  0  0  0  0  0  0  0  0  0  0  0
  -27.7890  -21.5550   18.0020 F   0  0  0  0  0  0  0  0  0  0  0  0
  -30.2680  -15.7300   20.1340 C   0  0  0  0  0  0  0  0  0  0  0  0
  -30.3760  -13.1970   19.2960 C   0  0  0  0  0  2  0  0  0  0  0  0
  -29.4510  -12.8100   18.1070 C   0  0  0  0  0  2  0  0  0  0  0  0
  -28.0400  -12.4500   18.5980 C   0  0  0  0  0  2  0  0  0  0  0  0
  -27.5550  -13.4350   19.6850 C   0  0  0  0  0  3  0  0  0  0  0  0
  -28.6170  -13.7300   20.7710 C   0  0  0  0  0  2  0  0  0  0  0  0
  -29.7690  -14.3580   20.0860 N   0  0  0  0  0  0  0  0  0  0  0  0
  -31.4940  -15.7090   19.9180 O   0  0  0  0  0  0  0  0  0  0  0  0
  -29.4350  -17.0380   20.2320 N   0  0  0  0  0  0  0  0  0  0  0  0
  -28.4900  -16.6940   20.3130 H   0  0  0  0  0  0  0  0  0  0  0  0
  -25.2170  -13.9370   20.5420 C   0  0  0  0  0  0  0  0  0  0  0  0
  -24.1740  -13.1430   20.9250 C   0  0  0  0  0  0  0  0  0  0  0  0
  -24.6500  -11.7980   20.8420 C   0  0  0  0  0  0  0  0  0  0  0  0
  -26.2560  -13.0800   20.2400 N   0  0  0  0  0  0  0  0  0  0  0  0
  -25.9320  -11.7820   20.4870 N   0  0  0  0  0  0  0  0  0  0  0  0
  -23.9340  -10.5270   21.0200 C   0  0  0  0  0  0  0  0  0  0  0  0
  -24.3650   -9.5580   21.9530 C   0  0  0  0  0  3  0  0  0  0  0  0
  -23.6440   -8.3570   22.1220 C   0  0  0  0  0  3  0  0  0  0  0  0
  -22.4780   -8.1140   21.3580 C   0  0  0  0  0  0  0  0  0  0  0  0
  -22.0660   -9.0700   20.4140 C   0  0  0  0  0  3  0  0  0  0  0  0
  -22.7870  -10.2640   20.2440 C   0  0  0  0  0  3  0  0  0  0  0  0
  -21.7300   -6.9630   21.4370 O   0  0  0  0  0  0  0  0  0  0  0  0
  -21.6350   -6.2440   22.6020 C   0  0  0  0  0  0  0  0  0  0  0  0
  -21.1110   -6.8090   23.7850 C   0  0  0  0  0  3  0  0  0  0  0  0
  -20.9660   -6.0150   24.9400 C   0  0  0  0  0  3  0  0  0  0  0  0
  -21.3340   -4.6570   24.9120 C   0  0  0  0  0  0  0  0  0  0  0  0
  -21.8510   -4.0910   23.7330 C   0  0  0  0  0  3  0  0  0  0  0  0
  -21.9970   -4.8830   22.5810 C   0  0  0  0  0  0  0  0  0  0  0  0
  -22.4750   -4.3270   21.4410 F   0  0  0  0  0  0  0  0  0  0  0  0
  -21.1880   -3.8920   26.0200 F   0  0  0  0  0  0  0  0  0  0  0  0
  -22.7830  -13.6050   21.2450 C   0  0  0  0  0  0  0  0  0  0  0  0
  -22.0840  -12.8860   22.1150 N   0  0  0  0  0  0  0  0  0  0  0  0
  -22.3280  -14.6400   20.7600 O   0  0  0  0  0  0  0  0  0  0  0  0
  -22.4680  -12.0500   22.5290 H   0  0  0  0  0  0  0  0  0  0  0  0
  -21.1510  -13.1780   22.3730 H   0  0  0  0  0  0  0  0  0  0  0  0
  -25.3610  -15.3140   20.3930 N   0  0  0  0  0  0  0  0  0  0  0  0
  -24.5850  -15.9520   20.5360 H   0  0  0  0  0  0  0  0  0  0  0  0
  -26.1730  -15.7660   19.9940 H   0  0  0  0  0  0  0  0  0  0  0  0
  -27.7900  -23.9050   20.1710 C   0  0  0  0  0  2  0  0  0  0  0  0
  -28.1100  -25.6200   20.3060 O   0  0  0  0  0  0  0  0  0  0  0  0
  -24.6500  -31.9140   23.2530 C   0  0  0  0  0  0  0  0  0  0  0  0
  -27.1510  -26.8400   20.2560 C   0  0  0  0  0  0  0  0  0  0  0  0
  -23.4500  -30.5180   21.6240 C   0  0  0  0  0  3  0  0  0  0  0  0
  -24.8860  -28.8680   20.2060 C   0  0  0  0  0  0  0  0  0  0  0  0
  -26.0280  -30.6580   21.4890 C   0  0  0  0  0  2  0  0  0  0  0  0
  -26.0860  -29.2260   20.8330 C   0  0  0  0  0  0  0  0  0  0  0  0
  -27.2040  -28.2400   20.8250 C   0  0  0  0  0  3  0  0  0  0  0  0
  -25.9170  -26.6910   19.5740 C   0  0  0  0  0  3  0  0  0  0  0  0
  -24.8400  -27.6260   19.5530 C   0  0  0  0  0  3  0  0  0  0  0  0
  -23.6810  -29.8200   20.2540 C   0  0  0  0  0  2  0  0  0  0  0  0
  -24.7330  -31.0630   22.1740 N   0  0  0  0  0  0  0  0  0  0  0  0
  -23.5600  -32.2180   23.7680 O   0  0  0  0  0  0  0  0  0  0  0  0
  -22.7350  -29.5440   22.5990 C   0  0  0  0  0  0  0  0  0  0  0  0
  -21.4050  -29.3780   22.4670 N   0  0  0  0  0  0  0  0  0  0  0  0
  -23.3910  -28.9340   23.4470 O   0  0  0  0  0  0  0  0  0  0  0  0
  -20.9260  -29.9210   21.7620 H   0  0  0  0  0  0  0  0  0  0  0  0
  -18.0260  -28.1370   22.9630 C   0  0  0  0  0  0  0  0  0  0  0  0
  -20.5810  -28.4430   23.2440 C   0  0  0  0  0  3  0  0  0  0  0  0
  -20.7040  -27.0030   22.6930 C   0  0  0  0  0  2  0  0  0  0  0  0
  -19.6170  -26.6520   21.6730 C   0  0  0  0  0  2  0  0  0  0  0  0
  -18.2270  -26.7840   22.3020 C   0  0  0  0  0  2  0  0  0  0  0  0
  -19.1290  -28.9220   23.3910 C   0  0  0  0  0  0  0  0  0  0  0  0
  -18.8830  -30.1850   23.9750 C   0  0  0  0  0  3  0  0  0  0  0  0
  -17.5690  -30.6620   24.1300 C   0  0  0  0  0  3  0  0  0  0  0  0
  -16.4800  -29.8760   23.7150 C   0  0  0  0  0  3  0  0  0  0  0  0
  -16.7100  -28.6140   23.1380 C   0  0  0  0  0  3  0  0  0  0  0  0
  -25.9190  -32.5610   23.8870 C   0  0  0  0  0  3  0  0  0  0  0  0
  -25.6040  -33.9650   24.2180 N   0  0  0  0  0  0  0  0  0  0  0  0
  -25.9100  -35.0260   23.4570 C   0  0  0  0  0  0  0  0  0  0  0  0
  -26.5460  -34.9250   22.4060 O   0  0  0  0  0  0  0  0  0  0  0  0
  -25.0320  -34.1160   25.0350 H   0  0  0  0  0  0  0  0  0  0  0  0
  -24.1590  -36.8190   23.1920 C   0  0  0  0  0  1  0  0  0  0  0  0
  -25.4430  -36.4170   23.9360 C   0  0  0  0  0  3  0  0  0  0  0  0
  -27.6070  -37.3270   24.6600 C   0  0  0  0  0  1  0  0  0  0  0  0
  -26.4630  -37.4760   23.7650 N   0  0  0  0  0  0  0  0  0  0  0  0
  -26.0570  -38.3950   23.9190 H   0  0  0  0  0  0  0  0  0  0  0  0
  -26.4160  -31.8060   25.1830 C   0  0  1  0  0  0  0  0  0  0  0  0
  -25.3090  -31.5910   26.2420 C   0  0  0  0  0  1  0  0  0  0  0  0
  -26.9960  -30.4190   24.8290 C   0  0  0  0  0  1  0  0  0  0  0  0
  -27.5630  -32.6040   25.8460 C   0  0  0  0  0  1  0  0  0  0  0  0
  1  2  1  0
  3  5  1  0
  4  1  2  0
  5 16  1  0
  5  2  2  0
  6  3  2  0
  6  4  1  0
  7  6  1  0
  8 16  1  0
  9 14  1  0
 10 11  1  0
 10  9  1  0
 12 11  1  0
 12 21  1  0
 12 13  1  0
 14  8  1  0
 14 13  1  0
 15  8  2  0
 16 17  1  0
 18 19  2  0
 19 38  1  0
 20 19  1  0
 20 23  1  0
 21 22  1  0
 21 18  1  0
 22 20  2  0
 23 24  1  0
 24 25  2  0
 26 29  1  0
 26 25  1  0
 27 26  2  0
 28 27  1  0
 28 23  2  0
 29 30  1  0
 30 31  1  0
 31 32  2  0
 33 32  1  0
 33 37  1  0
 34 33  2  0
 35 30  2  0
 35 34  1  0
 36 35  1  0
 38 39  1  0
 39 42  1  0
 39 41  1  0
 40 38  2  0
 43 44  1  0
 43 18  1  0
 45 43  1  0
 46  4  1  0
 46 47  1  0
 48 59  2  0
 49 47  1  0
 49 54  1  0
 50 58  1  0
 50 60  1  0
 51 57  1  0
 51 53  1  0
 52 58  1  0
 53 52  1  0
 54 53  2  0
 55 49  2  0
 56 55  1  0
 56 51  2  0
 57 50  1  0
 58 48  1  0
 60 62  2  0
 61 60  1  0
 63 61  1  0
 64 73  2  0
 64 69  1  0
 65 61  1  0
 65 69  1  0
 66 65  1  0
 67 68  1  0
 67 66  1  0
 68 64  1  0
 69 70  2  0
 70 71  1  0
 72 71  2  0
 73 72  1  0
 74 48  1  0
 74 75  1  0
 74 84  1  0
 75 78  1  0
 76 80  1  0
 76 75  1  0
 77 76  2  0
 80 79  1  0
 82 83  1  0
 82 80  1  0
 82 81  1  0
 84 87  1  1
 84 85  1  0
 86 84  1  0
M  ISO  4   8 100  16 100  46 101  47 101
M  END
>  <TORSDO>  (42) 
F 17

>  <SCORE>  (42) 
-16.539

>  <name>  (42) 
41

>  <ligand_id>  (42) 
41

>  <original_smiles>  (42) 
[H]c1c([H])c([H])c2c(c1[H])C([H])([H])C([H])([H])C([H])([H])C2([H])N([H])C(=O)C1([H])N(C(=O)C([H])(N([H])C(=O)C([H])(N([H])C([H])([H])[H])C([H])([H])[H])C(C([H])([H])[H])(C([H])([H])[H])C([H])([H])[H])C([H])([H])c2c([H])c(OC([H])([H])c3c([H])c([H])c(N([H])C(=O)N4C([H])([H])C([H])([H])C([H])([H])C([H])(n5nc(-c6c([H])c([H])c(Oc7c([H])c([H])c(F)c([H])c7F)c([H])c6[H])c(C(=O)N([H])[H])c5N([H])[H])C4([H])[H])c([H])c3F)c([H])c([H])c2C1([H])[H]

>  <smiles>  (42) 
[H]c1c([H])c([H])c2c(c1[H])C([H])([H])C([H])([H])C([H])([H])C2([H])N([H])C(=O)C1([H])N(C(=O)C([H])(N([H])C(=O)C([H])(N([H])C([H])([H])[H])C([H])([H])[H])C(C([H])([H])[H])(C([H])([H])[H])C([H])([H])[H])C([H])([H])c2c([H])c(OC([H])([H])c3c([H])c([H])c(N([H])C(=O)N4C([H])([H])C([H])([H])C([H])([H])C([H])(n5nc(-c6c([H])c([H])c(Oc7c([H])c([H])c(F)c([H])c7F)c([H])c6[H])c(C(=O)N([H])[H])c5N([H])[H])C4([H])[H])c([H])c3F)c([H])c([H])c2C1([H])[H]

$$$$
42:0:0
     RDKit          3D

 89 98  0  0  1  0  0  0  0  0999 V2000
  -29.4820  -21.1050   22.0360 C   0  0  0  0  0  2  0  0  0  0  0  0
  -28.1100  -21.7080   21.6960 C   0  0  0  0  0  2  0  0  0  0  0  0
  -29.6090  -20.7740   20.5490 C   0  0  0  0  0  3  0  0  0  0  0  0
  -28.6240  -22.0130   20.3570 N   0  0  2  0  0  4  0  0  0  0  0  0
  -27.9410  -21.7900   19.6470 H   0  0  0  0  0  0  0  0  0  0  0  0
  -29.1850  -19.1980   20.2090 C   0  0  0  0  0  0  0  0  0  0  0  0
  -28.0220  -18.9140   19.8950 O   0  0  0  0  0  0  0  0  0  0  0  0
  -30.7200  -15.2070   20.2550 C   0  0  0  0  0  0  0  0  0  0  0  0
  -30.6180  -12.8360   19.3790 C   0  0  0  0  0  2  0  0  0  0  0  0
  -29.6880  -12.7630   18.1480 C   0  0  0  0  0  2  0  0  0  0  0  0
  -28.2300  -12.5320   18.5940 C   0  0  0  0  0  2  0  0  0  0  0  0
  -27.8100  -13.4820   19.7480 C   0  0  0  0  0  3  0  0  0  0  0  0
  -28.8650  -13.5410   20.8700 C   0  0  0  0  0  2  0  0  0  0  0  0
  -30.1250  -13.9470   20.2410 N   0  0  0  0  0  0  0  0  0  0  0  0
  -31.9390  -15.2440   20.0500 O   0  0  0  0  0  0  0  0  0  0  0  0
  -30.1770  -17.1750   18.9550 C   0  0  0  0  0  2  0  0  0  0  0  0
  -30.2430  -17.9340   20.2370 C   0  0  0  0  0  3  0  0  0  0  0  0
  -29.9320  -16.3960   20.1350 N   0  0  0  0  0  0  0  0  0  0  0  0
  -25.4430  -14.0470   20.5330 C   0  0  0  0  0  0  0  0  0  0  0  0
  -24.3840  -13.2650   20.9000 C   0  0  0  0  0  0  0  0  0  0  0  0
  -24.8490  -11.9140   20.8420 C   0  0  0  0  0  0  0  0  0  0  0  0
  -26.4820  -13.1740   20.2610 N   0  0  0  0  0  0  0  0  0  0  0  0
  -26.1360  -11.8840   20.5160 N   0  0  0  0  0  0  0  0  0  0  0  0
  -24.1270  -10.6480   21.0220 C   0  0  0  0  0  0  0  0  0  0  0  0
  -24.5380   -9.6910   21.9750 C   0  0  0  0  0  3  0  0  0  0  0  0
  -23.8160   -8.4900   22.1420 C   0  0  0  0  0  3  0  0  0  0  0  0
  -22.6680   -8.2370   21.3550 C   0  0  0  0  0  0  0  0  0  0  0  0
  -22.2750   -9.1820   20.3910 C   0  0  0  0  0  3  0  0  0  0  0  0
  -22.9970  -10.3750   20.2230 C   0  0  0  0  0  3  0  0  0  0  0  0
  -21.9190   -7.0870   21.4300 O   0  0  0  0  0  0  0  0  0  0  0  0
  -21.7990   -6.3810   22.6000 C   0  0  0  0  0  0  0  0  0  0  0  0
  -21.2160   -6.9480   23.7540 C   0  0  0  0  0  3  0  0  0  0  0  0
  -21.0480   -6.1650   24.9140 C   0  0  0  0  0  3  0  0  0  0  0  0
  -21.4530   -4.8160   24.9190 C   0  0  0  0  0  0  0  0  0  0  0  0
  -22.0320   -4.2500   23.7690 C   0  0  0  0  0  3  0  0  0  0  0  0
  -22.2010   -5.0300   22.6120 C   0  0  0  0  0  0  0  0  0  0  0  0
  -22.7380   -4.4740   21.4990 F   0  0  0  0  0  0  0  0  0  0  0  0
  -21.2850   -4.0610   26.0300 F   0  0  0  0  0  0  0  0  0  0  0  0
  -22.9880  -13.7350   21.1940 C   0  0  0  0  0  0  0  0  0  0  0  0
  -22.2690  -13.0250   22.0570 N   0  0  0  0  0  0  0  0  0  0  0  0
  -22.5450  -14.7670   20.6930 O   0  0  0  0  0  0  0  0  0  0  0  0
  -22.6390  -12.1900   22.4850 H   0  0  0  0  0  0  0  0  0  0  0  0
  -21.3330  -13.3230   22.2930 H   0  0  0  0  0  0  0  0  0  0  0  0
  -25.6080  -15.4210   20.3800 N   0  0  0  0  0  0  0  0  0  0  0  0
  -24.8500  -16.0810   20.5240 H   0  0  0  0  0  0  0  0  0  0  0  0
  -26.4700  -15.8670   20.0900 H   0  0  0  0  0  0  0  0  0  0  0  0
  -29.0800  -23.5440   20.2320 C   0  0  0  0  0  3  0  0  0  0  0  0
  -28.0030  -24.8380   20.1110 C   0  0  0  0  0  3  0  0  0  0  0  0
  -28.3030  -26.3740   20.1390 O   0  0  0  0  0  0  0  0  0  0  0  0
  -24.6450  -31.9800   23.2430 C   0  0  0  0  0  0  0  0  0  0  0  0
  -27.2460  -27.3560   20.1030 C   0  0  0  0  0  0  0  0  0  0  0  0
  -23.4530  -30.6100   21.5780 C   0  0  0  0  0  3  0  0  0  0  0  0
  -24.9100  -29.0860   20.1130 C   0  0  0  0  0  0  0  0  0  0  0  0
  -26.0040  -30.9030   21.4110 C   0  0  0  0  0  2  0  0  0  0  0  0
  -26.0880  -29.5250   20.7310 C   0  0  0  0  0  0  0  0  0  0  0  0
  -27.2580  -28.6760   20.7090 C   0  0  0  0  0  3  0  0  0  0  0  0
  -26.0410  -27.0240   19.4440 C   0  0  0  0  0  3  0  0  0  0  0  0
  -24.9000  -27.8510   19.4520 C   0  0  0  0  0  3  0  0  0  0  0  0
  -23.6780  -29.9720   20.1810 C   0  0  0  0  0  2  0  0  0  0  0  0
  -24.7200  -31.1850   22.1320 N   0  0  0  0  0  0  0  0  0  0  0  0
  -23.5580  -32.2410   23.7810 O   0  0  0  0  0  0  0  0  0  0  0  0
  -22.7870  -29.5720   22.5180 C   0  0  0  0  0  0  0  0  0  0  0  0
  -21.4670  -29.3630   22.3690 N   0  0  0  0  0  0  0  0  0  0  0  0
  -23.4630  -28.9580   23.3460 O   0  0  0  0  0  0  0  0  0  0  0  0
  -20.9750  -29.9170   21.6810 H   0  0  0  0  0  0  0  0  0  0  0  0
  -18.1120  -28.0610   22.8110 C   0  0  0  0  0  0  0  0  0  0  0  0
  -20.6610  -28.3900   23.1120 C   0  0  0  0  0  3  0  0  0  0  0  0
  -20.8110  -26.9690   22.5180 C   0  0  0  0  0  2  0  0  0  0  0  0
  -19.7240  -26.6210   21.4960 C   0  0  0  0  0  2  0  0  0  0  0  0
  -18.3330  -26.7230   22.1270 C   0  0  0  0  0  2  0  0  0  0  0  0
  -19.2050  -28.8490   23.2650 C   0  0  0  0  0  0  0  0  0  0  0  0
  -18.9440  -30.0970   23.8720 C   0  0  0  0  0  3  0  0  0  0  0  0
  -17.6230  -30.5580   24.0310 C   0  0  0  0  0  3  0  0  0  0  0  0
  -16.5470  -29.7700   23.5920 C   0  0  0  0  0  3  0  0  0  0  0  0
  -16.7920  -28.5250   22.9860 C   0  0  0  0  0  3  0  0  0  0  0  0
  -25.9200  -32.6140   23.8770 C   0  0  0  0  0  3  0  0  0  0  0  0
  -26.4260  -31.8420   25.1590 C   0  0  1  0  0  0  0  0  0  0  0  0
  -25.3210  -31.5860   26.2100 C   0  0  0  0  0  1  0  0  0  0  0  0
  -27.0290  -30.4710   24.7730 C   0  0  0  0  0  1  0  0  0  0  0  0
  -27.5590  -32.6430   25.8410 C   0  0  0  0  0  1  0  0  0  0  0  0
  -25.6060  -34.0130   24.2130 N   0  0  0  0  0  0  0  0  0  0  0  0
  -25.9120  -35.0700   23.4480 C   0  0  0  0  0  0  0  0  0  0  0  0
  -26.5540  -34.9700   22.3990 O   0  0  0  0  0  0  0  0  0  0  0  0
  -25.0380  -34.1630   25.0340 H   0  0  0  0  0  0  0  0  0  0  0  0
  -24.1640  -36.8540   23.1410 C   0  0  0  0  0  1  0  0  0  0  0  0
  -25.4310  -36.4570   23.9170 C   0  0  0  0  0  3  0  0  0  0  0  0
  -27.5730  -37.3690   24.7010 C   0  0  0  0  0  1  0  0  0  0  0  0
  -26.4540  -37.5160   23.7730 N   0  0  0  0  0  0  0  0  0  0  0  0
  -26.0430  -38.4350   23.9180 H   0  0  0  0  0  0  0  0  0  0  0  0
  2  1  1  0
  3  6  1  0
  3  1  1  0
  4  3  1  0
  4  2  1  0
  4  5  1  6
  7  6  2  0
  9 14  1  0
 10 11  1  0
 10  9  1  0
 12 11  1  0
 12 22  1  0
 12 13  1  0
 14  8  1  0
 14 13  1  0
 15  8  2  0
 16 18  1  0
 16 17  1  0
 17  6  1  0
 18 17  1  0
 18  8  1  0
 19 20  2  0
 20 39  1  0
 21 20  1  0
 21 24  1  0
 22 23  1  0
 22 19  1  0
 23 21  2  0
 24 25  1  0
 25 26  2  0
 27 30  1  0
 27 26  1  0
 28 27  2  0
 29 28  1  0
 29 24  2  0
 30 31  1  0
 31 36  2  0
 31 32  1  0
 32 33  2  0
 33 34  1  0
 34 38  1  0
 35 34  2  0
 36 35  1  0
 37 36  1  0
 39 40  1  0
 40 43  1  0
 40 42  1  0
 41 39  2  0
 44 45  1  0
 44 19  1  0
 46 44  1  0
 47  4  1  0
 48 49  1  0
 48 47  2  0
 50 61  2  0
 51 49  1  0
 51 56  1  0
 52 60  1  0
 52 62  1  0
 53 59  1  0
 53 55  1  0
 54 60  1  0
 55 54  1  0
 56 55  2  0
 57 58  1  0
 57 51  2  0
 58 53  2  0
 59 52  1  0
 60 50  1  0
 62 64  2  0
 63 62  1  0
 65 63  1  0
 66 75  2  0
 66 71  1  0
 67 63  1  0
 67 71  1  0
 68 67  1  0
 69 70  1  0
 69 68  1  0
 70 66  1  0
 71 72  2  0
 72 73  1  0
 74 73  2  0
 75 74  1  0
 76 50  1  0
 76 81  1  0
 76 77  1  0
 77 80  1  1
 77 78  1  0
 79 77  1  0
 81 84  1  0
 82 86  1  0
 82 81  1  0
 83 82  2  0
 86 85  1  0
 88 86  1  0
 88 89  1  0
 88 87  1  0
M  ISO  4   8 100  18 100  48 101  49 101
M  END
>  <TORSDO>  (43) 
F 19

>  <SCORE>  (43) 
-14.065

>  <name>  (43) 
42

>  <ligand_id>  (43) 
42

>  <original_smiles>  (43) 
[H]c1c([H])c([H])c2c(c1[H])C([H])([H])C([H])([H])C([H])([H])C2([H])N([H])C(=O)C1([H])N(C(=O)C([H])(N([H])C(=O)C([H])(N([H])C([H])([H])[H])C([H])([H])[H])C(C([H])([H])[H])(C([H])([H])[H])C([H])([H])[H])C([H])([H])c2c([H])c(OC([H])([H])C([H])([H])[N+]3([H])C([H])([H])C([H])([H])C3([H])C(=O)C3([H])N(C(=O)N4C([H])([H])C([H])([H])C([H])([H])C([H])(n5nc(-c6c([H])c([H])c(Oc7c([H])c([H])c(F)c([H])c7F)c([H])c6[H])c(C(=O)N([H])[H])c5N([H])[H])C4([H])[H])C3([H])[H])c([H])c([H])c2C1([H])[H]

>  <smiles>  (43) 
[H]c1c([H])c([H])c2c(c1[H])C([H])([H])C([H])([H])C([H])([H])C2([H])N([H])C(=O)C1([H])N(C(=O)C([H])(N([H])C(=O)C([H])(N([H])C([H])([H])[H])C([H])([H])[H])C(C([H])([H])[H])(C([H])([H])[H])C([H])([H])[H])C([H])([H])c2c([H])c(OC([H])([H])C([H])([H])[N+]3([H])C([H])([H])C([H])([H])C3([H])C(=O)C3([H])N(C(=O)N4C([H])([H])C([H])([H])C([H])([H])C([H])(n5nc(-c6c([H])c([H])c(Oc7c([H])c([H])c(F)c([H])c7F)c([H])c6[H])c(C(=O)N([H])[H])c5N([H])[H])C4([H])[H])C3([H])[H])c([H])c([H])c2C1([H])[H]

$$$$
43:0:0
     RDKit          3D

 88 96  0  0  1  0  0  0  0  0999 V2000
  -27.8940  -20.9890   19.5120 C   0  0  0  0  0  3  0  0  0  0  0  0
  -29.9650  -19.9190   20.8410 C   0  0  0  0  0  3  0  0  0  0  0  0
  -28.5200  -22.1740   20.1600 C   0  0  0  0  0  0  0  0  0  0  0  0
  -29.2980  -18.7430   20.1870 C   0  0  0  0  0  0  0  0  0  0  0  0
  -28.2140  -19.5050   19.5220 C   0  0  0  0  0  0  0  0  0  0  0  0
  -29.6270  -21.4280   20.8420 C   0  0  0  0  0  0  0  0  0  0  0  0
  -27.3520  -18.7400   18.8100 F   0  0  0  0  0  0  0  0  0  0  0  0
  -30.4500  -22.1900   21.6020 F   0  0  0  0  0  0  0  0  0  0  0  0
  -30.2630  -15.7180   20.2050 C   0  0  0  0  0  0  0  0  0  0  0  0
  -30.3860  -13.1840   19.3710 C   0  0  0  0  0  2  0  0  0  0  0  0
  -29.4730  -12.7830   18.1760 C   0  0  0  0  0  2  0  0  0  0  0  0
  -28.0530  -12.4250   18.6490 C   0  0  0  0  0  2  0  0  0  0  0  0
  -27.5550  -13.4170   19.7260 C   0  0  0  0  0  3  0  0  0  0  0  0
  -28.6050  -13.7180   20.8190 C   0  0  0  0  0  2  0  0  0  0  0  0
  -29.7640  -14.3480   20.1410 N   0  0  0  0  0  0  0  0  0  0  0  0
  -31.4990  -15.6930   20.0490 O   0  0  0  0  0  0  0  0  0  0  0  0
  -29.4270  -17.0220   20.2120 N   0  0  0  0  0  0  0  0  0  0  0  0
  -28.4830  -16.6750   20.1270 H   0  0  0  0  0  0  0  0  0  0  0  0
  -25.2060  -13.9250   20.5550 C   0  0  0  0  0  0  0  0  0  0  0  0
  -24.1570  -13.1330   20.9270 C   0  0  0  0  0  0  0  0  0  0  0  0
  -24.6340  -11.7880   20.8590 C   0  0  0  0  0  0  0  0  0  0  0  0
  -26.2500  -13.0660   20.2690 N   0  0  0  0  0  0  0  0  0  0  0  0
  -25.9210  -11.7700   20.5210 N   0  0  0  0  0  0  0  0  0  0  0  0
  -23.9150  -10.5160   21.0350 C   0  0  0  0  0  0  0  0  0  0  0  0
  -24.3400   -9.5490   21.9710 C   0  0  0  0  0  3  0  0  0  0  0  0
  -23.6190   -8.3460   22.1360 C   0  0  0  0  0  3  0  0  0  0  0  0
  -22.4550   -8.1040   21.3690 C   0  0  0  0  0  0  0  0  0  0  0  0
  -22.0490   -9.0600   20.4210 C   0  0  0  0  0  3  0  0  0  0  0  0
  -22.7700  -10.2540   20.2540 C   0  0  0  0  0  3  0  0  0  0  0  0
  -21.7040   -6.9560   21.4450 O   0  0  0  0  0  0  0  0  0  0  0  0
  -21.6120   -6.2330   22.6080 C   0  0  0  0  0  0  0  0  0  0  0  0
  -21.0670   -6.7850   23.7880 C   0  0  0  0  0  3  0  0  0  0  0  0
  -20.9280   -5.9850   24.9410 C   0  0  0  0  0  3  0  0  0  0  0  0
  -21.3170   -4.6330   24.9120 C   0  0  0  0  0  0  0  0  0  0  0  0
  -21.8540   -4.0800   23.7360 C   0  0  0  0  0  3  0  0  0  0  0  0
  -21.9980   -4.8770   22.5870 C   0  0  0  0  0  0  0  0  0  0  0  0
  -22.4960   -4.3310   21.4490 F   0  0  0  0  0  0  0  0  0  0  0  0
  -21.1780   -3.8630   26.0170 F   0  0  0  0  0  0  0  0  0  0  0  0
  -22.7610  -13.5980   21.2260 C   0  0  0  0  0  0  0  0  0  0  0  0
  -22.0490  -12.8900   22.0970 N   0  0  0  0  0  0  0  0  0  0  0  0
  -22.3120  -14.6250   20.7210 O   0  0  0  0  0  0  0  0  0  0  0  0
  -22.4310  -12.0640   22.5310 H   0  0  0  0  0  0  0  0  0  0  0  0
  -21.1120  -13.1810   22.3290 H   0  0  0  0  0  0  0  0  0  0  0  0
  -25.3510  -15.3010   20.4000 N   0  0  0  0  0  0  0  0  0  0  0  0
  -24.5710  -15.9390   20.5170 H   0  0  0  0  0  0  0  0  0  0  0  0
  -26.1720  -15.7460   20.0150 H   0  0  0  0  0  0  0  0  0  0  0  0
  -27.7970  -23.9000   20.1220 C   0  0  0  0  0  2  0  0  0  0  0  0
  -28.1150  -25.6070   20.3040 O   0  0  0  0  0  0  0  0  0  0  0  0
  -24.6400  -31.8990   23.2580 C   0  0  0  0  0  0  0  0  0  0  0  0
  -27.1530  -26.8260   20.2580 C   0  0  0  0  0  0  0  0  0  0  0  0
  -23.4450  -30.5020   21.6300 C   0  0  0  0  0  3  0  0  0  0  0  0
  -24.8860  -28.8550   20.2110 C   0  0  0  0  0  0  0  0  0  0  0  0
  -26.0230  -30.6420   21.4970 C   0  0  0  0  0  2  0  0  0  0  0  0
  -26.0830  -29.2110   20.8400 C   0  0  0  0  0  0  0  0  0  0  0  0
  -27.2040  -28.2250   20.8300 C   0  0  0  0  0  3  0  0  0  0  0  0
  -25.9160  -26.6760   19.5800 C   0  0  0  0  0  3  0  0  0  0  0  0
  -24.8380  -27.6130   19.5570 C   0  0  0  0  0  3  0  0  0  0  0  0
  -23.6790  -29.8030   20.2600 C   0  0  0  0  0  2  0  0  0  0  0  0
  -24.7270  -31.0460   22.1800 N   0  0  0  0  0  0  0  0  0  0  0  0
  -23.5500  -32.2000   23.7730 O   0  0  0  0  0  0  0  0  0  0  0  0
  -22.7300  -29.5250   22.6040 C   0  0  0  0  0  0  0  0  0  0  0  0
  -21.3990  -29.3610   22.4690 N   0  0  0  0  0  0  0  0  0  0  0  0
  -23.3830  -28.9140   23.4510 O   0  0  0  0  0  0  0  0  0  0  0  0
  -20.9210  -29.9000   21.7610 H   0  0  0  0  0  0  0  0  0  0  0  0
  -18.0170  -28.1300   22.9670 C   0  0  0  0  0  0  0  0  0  0  0  0
  -20.5740  -28.4270   23.2450 C   0  0  0  0  0  3  0  0  0  0  0  0
  -20.6930  -26.9900   22.6880 C   0  0  0  0  0  2  0  0  0  0  0  0
  -19.6010  -26.6450   21.6700 C   0  0  0  0  0  2  0  0  0  0  0  0
  -18.2130  -26.7790   22.3010 C   0  0  0  0  0  2  0  0  0  0  0  0
  -19.1250  -28.9100   23.3960 C   0  0  0  0  0  0  0  0  0  0  0  0
  -18.8850  -30.1720   23.9850 C   0  0  0  0  0  3  0  0  0  0  0  0
  -17.5720  -30.6560   24.1450 C   0  0  0  0  0  3  0  0  0  0  0  0
  -16.4800  -29.8740   23.7310 C   0  0  0  0  0  3  0  0  0  0  0  0
  -16.7030  -28.6130   23.1470 C   0  0  0  0  0  3  0  0  0  0  0  0
  -25.9070  -32.5480   23.8930 C   0  0  0  0  0  3  0  0  0  0  0  0
  -25.5950  -33.9540   24.2130 N   0  0  0  0  0  0  0  0  0  0  0  0
  -25.9230  -35.0090   23.4550 C   0  0  0  0  0  0  0  0  0  0  0  0
  -26.5810  -34.8990   22.4170 O   0  0  0  0  0  0  0  0  0  0  0  0
  -25.0060  -34.1110   25.0170 H   0  0  0  0  0  0  0  0  0  0  0  0
  -24.2000  -36.8190   23.1360 C   0  0  0  0  0  1  0  0  0  0  0  0
  -25.4570  -36.4060   23.9180 C   0  0  0  0  0  3  0  0  0  0  0  0
  -27.6040  -37.2990   24.7090 C   0  0  0  0  0  1  0  0  0  0  0  0
  -26.4940  -37.4530   23.7730 N   0  0  0  0  0  0  0  0  0  0  0  0
  -26.0950  -38.3790   23.9010 H   0  0  0  0  0  0  0  0  0  0  0  0
  -26.3940  -31.7990   25.1980 C   0  0  1  0  0  0  0  0  0  0  0  0
  -25.2810  -31.5960   26.2550 C   0  0  0  0  0  1  0  0  0  0  0  0
  -26.9690  -30.4050   24.8590 C   0  0  0  0  0  1  0  0  0  0  0  0
  -27.5440  -32.5940   25.8610 C   0  0  0  0  0  1  0  0  0  0  0  0
  1  5  2  0
  1  3  1  0
  2  6  1  0
  3  6  2  0
  4 17  1  0
  4  2  2  0
  5  4  1  0
  6  8  1  0
  7  5  1  0
  9 17  1  0
 10 15  1  0
 11 12  1  0
 11 10  1  0
 13 12  1  0
 13 22  1  0
 13 14  1  0
 15  9  1  0
 15 14  1  0
 16  9  2  0
 18 17  1  0
 19 20  2  0
 20 39  1  0
 21 20  1  0
 21 24  1  0
 22 23  1  0
 22 19  1  0
 23 21  2  0
 24 25  1  0
 25 26  2  0
 27 30  1  0
 27 26  1  0
 28 27  2  0
 29 28  1  0
 29 24  2  0
 30 31  1  0
 31 32  1  0
 32 33  2  0
 34 33  1  0
 34 38  1  0
 35 34  2  0
 36 31  2  0
 36 35  1  0
 37 36  1  0
 39 40  1  0
 40 43  1  0
 40 42  1  0
 41 39  2  0
 44 45  1  0
 44 19  1  0
 46 44  1  0
 47  3  1  0
 47 48  1  0
 49 60  2  0
 50 48  1  0
 50 55  1  0
 51 59  1  0
 51 61  1  0
 52 58  1  0
 52 54  1  0
 53 59  1  0
 54 53  1  0
 55 54  2  0
 56 50  2  0
 57 56  1  0
 57 52  2  0
 58 51  1  0
 59 49  1  0
 61 63  2  0
 62 61  1  0
 64 62  1  0
 65 74  2  0
 65 70  1  0
 66 62  1  0
 66 70  1  0
 67 66  1  0
 68 69  1  0
 68 67  1  0
 69 65  1  0
 70 71  2  0
 71 72  1  0
 73 72  2  0
 74 73  1  0
 75 49  1  0
 75 76  1  0
 75 85  1  0
 76 79  1  0
 77 81  1  0
 77 76  1  0
 78 77  2  0
 81 80  1  0
 83 84  1  0
 83 81  1  0
 83 82  1  0
 85 88  1  1
 85 86  1  0
 87 85  1  0
M  ISO  4   9 100  17 100  47 101  48 101
M  END
>  <TORSDO>  (44) 
F 17

>  <SCORE>  (44) 
-16.814

>  <name>  (44) 
43

>  <ligand_id>  (44) 
43

>  <original_smiles>  (44) 
[H]c1c([H])c([H])c2c(c1[H])C([H])([H])C([H])([H])C([H])([H])C2([H])N([H])C(=O)C1([H])N(C(=O)C([H])(N([H])C(=O)C([H])(N([H])C([H])([H])[H])C([H])([H])[H])C(C([H])([H])[H])(C([H])([H])[H])C([H])([H])[H])C([H])([H])c2c([H])c(OC([H])([H])c3c([H])c(F)c(N([H])C(=O)N4C([H])([H])C([H])([H])C([H])([H])C([H])(n5nc(-c6c([H])c([H])c(Oc7c([H])c([H])c(F)c([H])c7F)c([H])c6[H])c(C(=O)N([H])[H])c5N([H])[H])C4([H])[H])c([H])c3F)c([H])c([H])c2C1([H])[H]

>  <smiles>  (44) 
[H]c1c([H])c([H])c2c(c1[H])C([H])([H])C([H])([H])C([H])([H])C2([H])N([H])C(=O)C1([H])N(C(=O)C([H])(N([H])C(=O)C([H])(N([H])C([H])([H])[H])C([H])([H])[H])C(C([H])([H])[H])(C([H])([H])[H])C([H])([H])[H])C([H])([H])c2c([H])c(OC([H])([H])c3c([H])c(F)c(N([H])C(=O)N4C([H])([H])C([H])([H])C([H])([H])C([H])(n5nc(-c6c([H])c([H])c(Oc7c([H])c([H])c(F)c([H])c7F)c([H])c6[H])c(C(=O)N([H])[H])c5N([H])[H])C4([H])[H])c([H])c3F)c([H])c([H])c2C1([H])[H]

$$$$
44:0:0
     RDKit          3D

 94103  0  0  1  0  0  0  0  0999 V2000
  -28.5240  -20.2920   19.5350 C   0  0  0  0  0  3  0  0  0  0  0  0
  -28.1030  -21.7080   19.4270 C   0  0  0  0  0  3  0  0  0  0  0  0
  -29.8740  -20.8850   21.3000 C   0  0  0  0  0  3  0  0  0  0  0  0
  -29.4610  -19.7360   20.4910 C   0  0  0  0  0  0  0  0  0  0  0  0
  -28.5250  -22.8570   20.2260 C   0  0  0  0  0  0  0  0  0  0  0  0
  -29.4470  -22.3080   21.2040 C   0  0  0  0  0  0  0  0  0  0  0  0
  -29.9690  -23.1650   22.1140 F   0  0  0  0  0  0  0  0  0  0  0  0
  -30.4850  -15.3070   20.5320 C   0  0  0  0  0  0  0  0  0  0  0  0
  -30.4490  -12.8670   19.6930 C   0  0  0  0  0  2  0  0  0  0  0  0
  -29.5730  -12.6370   18.4390 C   0  0  0  0  0  2  0  0  0  0  0  0
  -28.1060  -12.3910   18.8320 C   0  0  0  0  0  2  0  0  0  0  0  0
  -27.6130  -13.3730   19.9250 C   0  0  0  0  0  3  0  0  0  0  0  0
  -28.6260  -13.5540   21.0760 C   0  0  0  0  0  2  0  0  0  0  0  0
  -29.8780  -14.0260   20.4630 N   0  0  0  0  0  0  0  0  0  0  0  0
  -31.7240  -15.2740   20.4790 O   0  0  0  0  0  0  0  0  0  0  0  0
  -30.3890  -17.5990   18.2090 C   0  0  0  0  0  2  0  0  0  0  0  0
  -29.3400  -16.7260   18.9380 C   0  0  0  0  0  2  0  0  0  0  0  0
  -30.2500  -18.1850   20.5180 C   0  0  0  0  0  3  0  0  0  0  0  0
  -31.1990  -18.3130   19.3080 C   0  0  0  0  0  3  0  0  0  0  0  0
  -29.7940  -16.6050   20.3270 N   0  0  0  0  0  0  0  0  0  0  0  0
  -25.2140  -13.9260   20.5860 C   0  0  0  0  0  0  0  0  0  0  0  0
  -24.1410  -13.1450   20.9190 C   0  0  0  0  0  0  0  0  0  0  0  0
  -24.6170  -11.7970   20.9190 C   0  0  0  0  0  0  0  0  0  0  0  0
  -26.2700  -13.0550   20.3930 N   0  0  0  0  0  0  0  0  0  0  0  0
  -25.9210  -11.7700   20.6630 N   0  0  0  0  0  0  0  0  0  0  0  0
  -23.8880  -10.5330   21.0910 C   0  0  0  0  0  0  0  0  0  0  0  0
  -24.2870   -9.5720   22.0460 C   0  0  0  0  0  3  0  0  0  0  0  0
  -23.5560   -8.3740   22.2050 C   0  0  0  0  0  3  0  0  0  0  0  0
  -22.4140   -8.1280   21.4060 C   0  0  0  0  0  0  0  0  0  0  0  0
  -22.0360   -9.0770   20.4400 C   0  0  0  0  0  3  0  0  0  0  0  0
  -22.7680  -10.2660   20.2800 C   0  0  0  0  0  3  0  0  0  0  0  0
  -21.6570   -6.9810   21.4730 O   0  0  0  0  0  0  0  0  0  0  0  0
  -21.5630   -6.2480   22.6300 C   0  0  0  0  0  0  0  0  0  0  0  0
  -21.0660   -6.8070   23.8270 C   0  0  0  0  0  3  0  0  0  0  0  0
  -20.9200   -6.0010   24.9740 C   0  0  0  0  0  3  0  0  0  0  0  0
  -21.2620   -4.6360   24.9230 C   0  0  0  0  0  0  0  0  0  0  0  0
  -21.7540   -4.0770   23.7300 C   0  0  0  0  0  3  0  0  0  0  0  0
  -21.9020   -4.8810   22.5860 C   0  0  0  0  0  0  0  0  0  0  0  0
  -22.3560   -4.3320   21.4340 F   0  0  0  0  0  0  0  0  0  0  0  0
  -21.1160   -3.8580   26.0210 F   0  0  0  0  0  0  0  0  0  0  0  0
  -22.7310  -13.6180   21.1240 C   0  0  0  0  0  0  0  0  0  0  0  0
  -21.9710  -12.9280   21.9680 N   0  0  0  0  0  0  0  0  0  0  0  0
  -22.3100  -14.6340   20.5730 O   0  0  0  0  0  0  0  0  0  0  0  0
  -22.3230  -12.1050   22.4350 H   0  0  0  0  0  0  0  0  0  0  0  0
  -21.0250  -13.2300   22.1520 H   0  0  0  0  0  0  0  0  0  0  0  0
  -25.3770  -15.2950   20.4050 N   0  0  0  0  0  0  0  0  0  0  0  0
  -24.6050  -15.9470   20.4920 H   0  0  0  0  0  0  0  0  0  0  0  0
  -26.2440  -15.7430   20.1370 H   0  0  0  0  0  0  0  0  0  0  0  0
  -32.5240  -17.6990   19.5380 N   0  0  0  0  0  4  0  0  0  0  0  0
  -32.4280  -16.7340   19.8400 H   0  0  0  0  0  0  0  0  0  0  0  0
  -33.0200  -18.2000   20.2540 H   0  0  0  0  0  0  0  0  0  0  0  0
  -33.0820  -17.7300   18.7040 H   0  0  0  0  0  0  0  0  0  0  0  0
  -27.7790  -24.4150   20.0530 C   0  0  0  0  0  2  0  0  0  0  0  0
  -28.1670  -25.9800   20.2390 O   0  0  0  0  0  0  0  0  0  0  0  0
  -24.6090  -31.8930   23.2390 C   0  0  0  0  0  0  0  0  0  0  0  0
  -27.1610  -27.0710   20.1800 C   0  0  0  0  0  0  0  0  0  0  0  0
  -23.4040  -30.4990   21.6060 C   0  0  0  0  0  3  0  0  0  0  0  0
  -24.8460  -28.9130   20.1670 C   0  0  0  0  0  0  0  0  0  0  0  0
  -25.9670  -30.7300   21.4360 C   0  0  0  0  0  2  0  0  0  0  0  0
  -26.0390  -29.3270   20.7750 C   0  0  0  0  0  0  0  0  0  0  0  0
  -27.1920  -28.4260   20.7580 C   0  0  0  0  0  3  0  0  0  0  0  0
  -25.9380  -26.8020   19.5240 C   0  0  0  0  0  3  0  0  0  0  0  0
  -24.8190  -27.6670   19.5220 C   0  0  0  0  0  3  0  0  0  0  0  0
  -23.6220  -29.8210   20.2260 C   0  0  0  0  0  2  0  0  0  0  0  0
  -24.6810  -31.0660   22.1470 N   0  0  0  0  0  0  0  0  0  0  0  0
  -23.5240  -32.1750   23.7730 O   0  0  0  0  0  0  0  0  0  0  0  0
  -22.7250  -29.4950   22.5740 C   0  0  0  0  0  0  0  0  0  0  0  0
  -21.3970  -29.3120   22.4510 N   0  0  0  0  0  0  0  0  0  0  0  0
  -23.4000  -28.8800   23.4050 O   0  0  0  0  0  0  0  0  0  0  0  0
  -20.9050  -29.8640   21.7620 H   0  0  0  0  0  0  0  0  0  0  0  0
  -18.0320  -28.0540   22.9590 C   0  0  0  0  0  0  0  0  0  0  0  0
  -20.5860  -28.3670   23.2270 C   0  0  0  0  0  3  0  0  0  0  0  0
  -20.7120  -26.9310   22.6650 C   0  0  0  0  0  2  0  0  0  0  0  0
  -19.6190  -26.5830   21.6490 C   0  0  0  0  0  2  0  0  0  0  0  0
  -18.2330  -26.7050   22.2890 C   0  0  0  0  0  2  0  0  0  0  0  0
  -19.1350  -28.8410   23.3840 C   0  0  0  0  0  0  0  0  0  0  0  0
  -18.8900  -30.0990   23.9750 C   0  0  0  0  0  3  0  0  0  0  0  0
  -17.5760  -30.5740   24.1400 C   0  0  0  0  0  3  0  0  0  0  0  0
  -16.4870  -29.7870   23.7260 C   0  0  0  0  0  3  0  0  0  0  0  0
  -16.7160  -28.5290   23.1430 C   0  0  0  0  0  3  0  0  0  0  0  0
  -25.8850  -32.5350   23.8610 C   0  0  0  0  0  3  0  0  0  0  0  0
  -26.3950  -31.7780   25.1490 C   0  0  1  0  0  0  0  0  0  0  0  0
  -25.2980  -31.5560   26.2180 C   0  0  0  0  0  1  0  0  0  0  0  0
  -26.9740  -30.3910   24.7850 C   0  0  0  0  0  1  0  0  0  0  0  0
  -27.5490  -32.5760   25.8000 C   0  0  0  0  0  1  0  0  0  0  0  0
  -25.5690  -33.9370   24.1890 N   0  0  0  0  0  0  0  0  0  0  0  0
  -25.8980  -34.9940   23.4350 C   0  0  0  0  0  0  0  0  0  0  0  0
  -26.5610  -34.8920   22.4000 O   0  0  0  0  0  0  0  0  0  0  0  0
  -24.9750  -34.0870   24.9910 H   0  0  0  0  0  0  0  0  0  0  0  0
  -24.1740  -36.8010   23.0990 C   0  0  0  0  0  1  0  0  0  0  0  0
  -25.4190  -36.3850   23.8990 C   0  0  0  0  0  3  0  0  0  0  0  0
  -27.5600  -37.2680   24.7210 C   0  0  0  0  0  1  0  0  0  0  0  0
  -26.4550  -37.4350   23.7820 N   0  0  0  0  0  0  0  0  0  0  0  0
  -26.0510  -38.3570   23.9300 H   0  0  0  0  0  0  0  0  0  0  0  0
  1  4  1  0
  2  1  2  0
  2  5  1  0
  4  3  2  0
  5  6  2  0
  6  3  1  0
  6  7  1  0
  9 14  1  0
 10 11  1  0
 10  9  1  0
 12 11  1  0
 12 24  1  0
 12 13  1  0
 14  8  1  0
 14 13  1  0
 15  8  2  0
 16 17  1  0
 16 19  1  0
 17 20  1  0
 18  4  1  0
 19 49  1  0
 19 18  1  0
 20 18  1  0
 20  8  1  0
 21 22  2  0
 22 23  1  0
 22 41  1  0
 23 26  1  0
 24 21  1  0
 24 25  1  0
 25 23  2  0
 26 27  1  0
 27 28  2  0
 29 32  1  0
 29 28  1  0
 30 29  2  0
 31 30  1  0
 31 26  2  0
 32 33  1  0
 33 34  1  0
 34 35  2  0
 36 35  1  0
 36 40  1  0
 37 36  2  0
 38 33  2  0
 38 37  1  0
 39 38  1  0
 41 42  1  0
 42 45  1  0
 42 44  1  0
 43 41  2  0
 46 47  1  0
 46 21  1  0
 48 46  1  0
 49 50  1  0
 49 51  1  0
 52 49  1  0
 53  5  1  0
 53 54  1  0
 55 66  2  0
 56 54  1  0
 56 61  1  0
 57 65  1  0
 57 67  1  0
 58 64  1  0
 58 60  1  0
 59 65  1  0
 60 59  1  0
 61 60  2  0
 62 56  2  0
 63 62  1  0
 63 58  2  0
 64 57  1  0
 65 55  1  0
 67 69  2  0
 68 67  1  0
 70 68  1  0
 71 80  2  0
 71 76  1  0
 72 68  1  0
 72 76  1  0
 73 72  1  0
 74 75  1  0
 74 73  1  0
 75 71  1  0
 76 77  2  0
 77 78  1  0
 79 78  2  0
 80 79  1  0
 81 55  1  0
 81 86  1  0
 81 82  1  0
 82 85  1  1
 82 83  1  0
 84 82  1  0
 86 89  1  0
 87 91  1  0
 87 86  1  0
 88 87  2  0
 91 90  1  0
 93 91  1  0
 93 94  1  0
 93 92  1  0
M  ISO  4   8 100  20 100  53 101  54 101
M  END
>  <TORSDO>  (45) 
F 18

>  <SCORE>  (45) 
-16.021

>  <name>  (45) 
44

>  <ligand_id>  (45) 
44

>  <original_smiles>  (45) 
[H]c1c([H])c([H])c2c(c1[H])C([H])([H])C([H])([H])C([H])([H])C2([H])N([H])C(=O)C1([H])N(C(=O)C([H])(N([H])C(=O)C([H])(N([H])C([H])([H])[H])C([H])([H])[H])C(C([H])([H])[H])(C([H])([H])[H])C([H])([H])[H])C([H])([H])c2c([H])c(OC([H])([H])c3c([H])c([H])c(C4([H])N(C(=O)N5C([H])([H])C([H])([H])C([H])([H])C([H])(n6nc(-c7c([H])c([H])c(Oc8c([H])c([H])c(F)c([H])c8F)c([H])c7[H])c(C(=O)N([H])[H])c6N([H])[H])C5([H])[H])C([H])([H])C([H])([H])C4([H])[N+]([H])([H])[H])c([H])c3F)c([H])c([H])c2C1([H])[H]

>  <smiles>  (45) 
[H]c1c([H])c([H])c2c(c1[H])C([H])([H])C([H])([H])C([H])([H])C2([H])N([H])C(=O)C1([H])N(C(=O)C([H])(N([H])C(=O)C([H])(N([H])C([H])([H])[H])C([H])([H])[H])C(C([H])([H])[H])(C([H])([H])[H])C([H])([H])[H])C([H])([H])c2c([H])c(OC([H])([H])c3c([H])c([H])c(C4([H])N(C(=O)N5C([H])([H])C([H])([H])C([H])([H])C([H])(n6nc(-c7c([H])c([H])c(Oc8c([H])c([H])c(F)c([H])c8F)c([H])c7[H])c(C(=O)N([H])[H])c6N([H])[H])C5([H])[H])C([H])([H])C([H])([H])C4([H])[N+]([H])([H])[H])c([H])c3F)c([H])c([H])c2C1([H])[H]

$$$$
45:0:0
     RDKit          3D

 92100  0  0  1  0  0  0  0  0999 V2000
  -29.9490  -20.5990   19.0170 C   0  0  0  0  0  0  0  0  0  0  0  0
  -29.1590  -19.9220   21.1150 C   0  0  0  0  0  2  0  0  0  0  0  0
  -29.6910  -21.2400   20.3890 C   0  0  0  0  0  3  0  0  0  0  0  0
  -29.3640  -18.6120   20.2240 C   0  0  0  0  0  3  0  0  0  0  0  0
  -29.8560  -19.2580   19.0110 N   0  0  0  0  0  0  0  0  0  0  0  0
  -30.2300  -21.2660   18.0220 O   0  0  0  0  0  0  0  0  0  0  0  0
  -30.0070  -18.7210   18.1680 H   0  0  0  0  0  0  0  0  0  0  0  0
  -29.0940  -23.8160   20.3160 C   0  0  0  0  0  0  0  0  0  0  0  0
  -28.7740  -22.4650   20.3090 N   0  0  0  0  0  0  0  0  0  0  0  0
  -30.2530  -24.1790   20.5320 O   0  0  0  0  0  0  0  0  0  0  0  0
  -27.8080  -22.2530   20.1040 H   0  0  0  0  0  0  0  0  0  0  0  0
  -27.9820  -24.9320   20.0280 C   0  0  0  0  0  2  0  0  0  0  0  0
  -28.2960  -26.3950   20.2370 O   0  0  0  0  0  0  0  0  0  0  0  0
  -24.6580  -31.9070   23.2940 C   0  0  0  0  0  0  0  0  0  0  0  0
  -27.2130  -27.3120   20.1850 C   0  0  0  0  0  0  0  0  0  0  0  0
  -23.4380  -30.5310   21.6500 C   0  0  0  0  0  3  0  0  0  0  0  0
  -24.8700  -28.9850   20.1990 C   0  0  0  0  0  0  0  0  0  0  0  0
  -25.9850  -30.8210   21.4590 C   0  0  0  0  0  2  0  0  0  0  0  0
  -26.0510  -29.4460   20.7950 C   0  0  0  0  0  0  0  0  0  0  0  0
  -27.2260  -28.6220   20.7770 C   0  0  0  0  0  3  0  0  0  0  0  0
  -26.0040  -26.9280   19.5560 C   0  0  0  0  0  3  0  0  0  0  0  0
  -24.8520  -27.7350   19.5680 C   0  0  0  0  0  3  0  0  0  0  0  0
  -23.6420  -29.8700   20.2620 C   0  0  0  0  0  2  0  0  0  0  0  0
  -24.7140  -31.1030   22.1900 N   0  0  0  0  0  0  0  0  0  0  0  0
  -23.5790  -32.1870   23.8350 O   0  0  0  0  0  0  0  0  0  0  0  0
  -22.7730  -29.5090   22.6040 C   0  0  0  0  0  0  0  0  0  0  0  0
  -21.4480  -29.3250   22.4690 N   0  0  0  0  0  0  0  0  0  0  0  0
  -23.4490  -28.8860   23.4280 O   0  0  0  0  0  0  0  0  0  0  0  0
  -20.9620  -29.8810   21.7790 H   0  0  0  0  0  0  0  0  0  0  0  0
  -18.0730  -28.1030   22.9450 C   0  0  0  0  0  0  0  0  0  0  0  0
  -20.6280  -28.3830   23.2340 C   0  0  0  0  0  3  0  0  0  0  0  0
  -20.7450  -26.9510   22.6640 C   0  0  0  0  0  2  0  0  0  0  0  0
  -19.6530  -26.6180   21.6420 C   0  0  0  0  0  2  0  0  0  0  0  0
  -18.2650  -26.7540   22.2730 C   0  0  0  0  0  2  0  0  0  0  0  0
  -19.1830  -28.8750   23.3820 C   0  0  0  0  0  0  0  0  0  0  0  0
  -18.9490  -30.1370   23.9700 C   0  0  0  0  0  3  0  0  0  0  0  0
  -17.6390  -30.6290   24.1240 C   0  0  0  0  0  3  0  0  0  0  0  0
  -16.5440  -29.8540   23.7020 C   0  0  0  0  0  3  0  0  0  0  0  0
  -16.7620  -28.5940   23.1190 C   0  0  0  0  0  3  0  0  0  0  0  0
  -25.9460  -32.5280   23.9140 C   0  0  0  0  0  3  0  0  0  0  0  0
  -26.4530  -31.7560   25.1930 C   0  0  1  0  0  0  0  0  0  0  0  0
  -25.3560  -31.5320   26.2610 C   0  0  0  0  0  1  0  0  0  0  0  0
  -27.0240  -30.3700   24.8080 C   0  0  0  0  0  1  0  0  0  0  0  0
  -27.6110  -32.5400   25.8530 C   0  0  0  0  0  1  0  0  0  0  0  0
  -25.6500  -33.9300   24.2420 N   0  0  0  0  0  0  0  0  0  0  0  0
  -25.9730  -34.9780   23.4720 C   0  0  0  0  0  0  0  0  0  0  0  0
  -26.6220  -34.8660   22.4280 O   0  0  0  0  0  0  0  0  0  0  0  0
  -25.0720  -34.0910   25.0530 H   0  0  0  0  0  0  0  0  0  0  0  0
  -24.2440  -36.7770   23.1510 C   0  0  0  0  0  1  0  0  0  0  0  0
  -25.5030  -36.3720   23.9330 C   0  0  0  0  0  3  0  0  0  0  0  0
  -27.6600  -37.2550   24.7060 C   0  0  0  0  0  1  0  0  0  0  0  0
  -26.5380  -37.4200   23.7870 N   0  0  0  0  0  0  0  0  0  0  0  0
  -26.1380  -38.3420   23.9360 H   0  0  0  0  0  0  0  0  0  0  0  0
  -30.3140  -17.3870   20.7110 C   0  0  0  0  0  2  0  0  0  0  0  0
  -30.6030  -14.7900   20.3620 C   0  0  0  0  0  0  0  0  0  0  0  0
  -30.3930  -12.5140   19.3490 C   0  0  0  0  0  2  0  0  0  0  0  0
  -29.4540  -12.5730   18.1250 C   0  0  0  0  0  2  0  0  0  0  0  0
  -27.9850  -12.4030   18.5580 C   0  0  0  0  0  2  0  0  0  0  0  0
  -27.6090  -13.3000   19.7670 C   0  0  0  0  0  3  0  0  0  0  0  0
  -28.6680  -13.2220   20.8880 C   0  0  0  0  0  2  0  0  0  0  0  0
  -29.9630  -13.5730   20.2900 N   0  0  0  0  0  0  0  0  0  0  0  0
  -31.7910  -14.8790   20.0460 O   0  0  0  0  0  0  0  0  0  0  0  0
  -29.8530  -15.9320   20.6010 N   0  0  0  0  0  0  0  0  0  0  0  0
  -28.8740  -15.7680   20.7840 H   0  0  0  0  0  0  0  0  0  0  0  0
  -25.2220  -13.8930   20.4950 C   0  0  0  0  0  0  0  0  0  0  0  0
  -24.1550  -13.1200   20.8650 C   0  0  0  0  0  0  0  0  0  0  0  0
  -24.6170  -11.7690   20.8360 C   0  0  0  0  0  0  0  0  0  0  0  0
  -26.2650  -13.0130   20.2590 N   0  0  0  0  0  0  0  0  0  0  0  0
  -25.9080  -11.7300   20.5280 N   0  0  0  0  0  0  0  0  0  0  0  0
  -23.8900  -10.5060   21.0230 C   0  0  0  0  0  0  0  0  0  0  0  0
  -24.3150   -9.5420   21.9630 C   0  0  0  0  0  3  0  0  0  0  0  0
  -23.5860   -8.3450   22.1400 C   0  0  0  0  0  3  0  0  0  0  0  0
  -22.4180   -8.1060   21.3760 C   0  0  0  0  0  0  0  0  0  0  0  0
  -22.0130   -9.0600   20.4260 C   0  0  0  0  0  3  0  0  0  0  0  0
  -22.7420  -10.2470   20.2480 C   0  0  0  0  0  3  0  0  0  0  0  0
  -21.6630   -6.9620   21.4620 O   0  0  0  0  0  0  0  0  0  0  0  0
  -21.5920   -6.2310   22.6210 C   0  0  0  0  0  0  0  0  0  0  0  0
  -21.1280   -6.7930   23.8300 C   0  0  0  0  0  3  0  0  0  0  0  0
  -21.0070   -5.9880   24.9800 C   0  0  0  0  0  3  0  0  0  0  0  0
  -21.3390   -4.6210   24.9210 C   0  0  0  0  0  0  0  0  0  0  0  0
  -21.7950   -4.0580   23.7170 C   0  0  0  0  0  3  0  0  0  0  0  0
  -21.9180   -4.8600   22.5690 C   0  0  0  0  0  0  0  0  0  0  0  0
  -22.3390   -4.3080   21.4060 F   0  0  0  0  0  0  0  0  0  0  0  0
  -21.2140   -3.8460   26.0240 F   0  0  0  0  0  0  0  0  0  0  0  0
  -22.7580  -13.5980   21.1340 C   0  0  0  0  0  0  0  0  0  0  0  0
  -22.0270  -12.9020   21.9980 N   0  0  0  0  0  0  0  0  0  0  0  0
  -22.3230  -14.6250   20.6130 O   0  0  0  0  0  0  0  0  0  0  0  0
  -22.3920  -12.0720   22.4400 H   0  0  0  0  0  0  0  0  0  0  0  0
  -21.0900  -13.2050   22.2210 H   0  0  0  0  0  0  0  0  0  0  0  0
  -25.3850  -15.2640   20.3150 N   0  0  0  0  0  0  0  0  0  0  0  0
  -24.6120  -15.9130   20.4130 H   0  0  0  0  0  0  0  0  0  0  0  0
  -26.2200  -15.6990   19.9470 H   0  0  0  0  0  0  0  0  0  0  0  0
  1  3  1  0
  3  9  1  0
  3  2  1  0
  4 54  1  0
  4  2  1  0
  5  1  1  0
  5  4  1  0
  6  1  2  0
  7  5  1  0
  8 10  2  0
  9  8  1  0
 11  9  1  0
 12 13  1  0
 12  8  1  0
 14 25  2  0
 15 13  1  0
 15 20  1  0
 16 24  1  0
 16 26  1  0
 17 23  1  0
 17 19  1  0
 18 24  1  0
 19 18  1  0
 20 19  2  0
 21 22  1  0
 21 15  2  0
 22 17  2  0
 23 16  1  0
 24 14  1  0
 26 28  2  0
 27 26  1  0
 29 27  1  0
 30 39  2  0
 30 35  1  0
 31 27  1  0
 31 35  1  0
 32 31  1  0
 33 34  1  0
 33 32  1  0
 34 30  1  0
 35 36  2  0
 36 37  1  0
 38 37  2  0
 39 38  1  0
 40 14  1  0
 40 45  1  0
 40 41  1  0
 41 44  1  1
 41 42  1  0
 43 41  1  0
 45 48  1  0
 46 50  1  0
 46 45  1  0
 47 46  2  0
 50 49  1  0
 52 50  1  0
 52 53  1  0
 52 51  1  0
 55 63  1  0
 56 61  1  0
 57 58  1  0
 57 56  1  0
 59 58  1  0
 59 68  1  0
 59 60  1  0
 61 55  1  0
 61 60  1  0
 62 55  2  0
 63 54  1  0
 63 64  1  0
 65 66  2  0
 66 85  1  0
 67 66  1  0
 67 70  1  0
 68 65  1  0
 68 69  1  0
 69 67  2  0
 70 71  1  0
 71 72  2  0
 73 76  1  0
 73 72  1  0
 74 73  2  0
 75 74  1  0
 75 70  2  0
 76 77  1  0
 77 78  1  0
 78 79  2  0
 80 79  1  0
 80 84  1  0
 81 80  2  0
 82 77  2  0
 82 81  1  0
 83 82  1  0
 85 86  1  0
 86 89  1  0
 86 88  1  0
 87 85  2  0
 90 91  1  0
 90 65  1  0
 92 90  1  0
M  ISO  4  12 101  13 101  55 100  63 100
M  END
>  <TORSDO>  (46) 
F 19

>  <SCORE>  (46) 
-14.025

>  <name>  (46) 
45

>  <ligand_id>  (46) 
45

>  <original_smiles>  (46) 
[H]c1c([H])c([H])c2c(c1[H])C([H])([H])C([H])([H])C([H])([H])C2([H])N([H])C(=O)C1([H])N(C(=O)C([H])(N([H])C(=O)C([H])(N([H])C([H])([H])[H])C([H])([H])[H])C(C([H])([H])[H])(C([H])([H])[H])C([H])([H])[H])C([H])([H])c2c([H])c(OC([H])([H])C(=O)N([H])C3([H])C(=O)N([H])C([H])(C([H])([H])N([H])C(=O)N4C([H])([H])C([H])([H])C([H])([H])C([H])(n5nc(-c6c([H])c([H])c(Oc7c([H])c([H])c(F)c([H])c7F)c([H])c6[H])c(C(=O)N([H])[H])c5N([H])[H])C4([H])[H])C3([H])[H])c([H])c([H])c2C1([H])[H]

>  <smiles>  (46) 
[H]c1c([H])c([H])c2c(c1[H])C([H])([H])C([H])([H])C([H])([H])C2([H])N([H])C(=O)C1([H])N(C(=O)C([H])(N([H])C(=O)C([H])(N([H])C([H])([H])[H])C([H])([H])[H])C(C([H])([H])[H])(C([H])([H])[H])C([H])([H])[H])C([H])([H])c2c([H])c(OC([H])([H])C(=O)N([H])C3([H])C(=O)N([H])C([H])(C([H])([H])N([H])C(=O)N4C([H])([H])C([H])([H])C([H])([H])C([H])(n5nc(-c6c([H])c([H])c(Oc7c([H])c([H])c(F)c([H])c7F)c([H])c6[H])c(C(=O)N([H])[H])c5N([H])[H])C4([H])[H])C3([H])[H])c([H])c([H])c2C1([H])[H]

$$$$
46:0:0
     RDKit          3D

 91 99  0  0  1  0  0  0  0  0999 V2000
  -29.1440  -18.9410   20.4060 C   0  0  0  0  0  3  0  0  0  0  0  0
  -31.4290  -18.1680   20.5240 C   0  0  0  0  0  3  0  0  0  0  0  0
  -29.5180  -20.3940   20.4070 C   0  0  0  0  0  0  0  0  0  0  0  0
  -30.0750  -17.7700   20.4620 C   0  0  0  0  0  0  0  0  0  0  0  0
  -31.8310  -19.5230   20.5350 C   0  0  0  0  0  0  0  0  0  0  0  0
  -30.9150  -20.6010   20.4810 C   0  0  0  0  0  0  0  0  0  0  0  0
  -33.1560  -19.7990   20.5990 F   0  0  0  0  0  0  0  0  0  0  0  0
  -31.4190  -21.8580   20.5000 F   0  0  0  0  0  0  0  0  0  0  0  0
  -30.5240  -15.0540   20.3110 C   0  0  0  0  0  0  0  0  0  0  0  0
  -30.3880  -12.7140   19.3360 C   0  0  0  0  0  2  0  0  0  0  0  0
  -29.4380  -12.6770   18.1170 C   0  0  0  0  0  2  0  0  0  0  0  0
  -27.9820  -12.4560   18.5690 C   0  0  0  0  0  2  0  0  0  0  0  0
  -27.5890  -13.3580   19.7690 C   0  0  0  0  0  3  0  0  0  0  0  0
  -28.6630  -13.3680   20.8760 C   0  0  0  0  0  2  0  0  0  0  0  0
  -29.9180  -13.7990   20.2470 N   0  0  0  0  0  0  0  0  0  0  0  0
  -31.7250  -15.0930   20.0200 O   0  0  0  0  0  0  0  0  0  0  0  0
  -29.7540  -16.2540   20.4800 N   0  0  0  0  0  0  0  0  0  0  0  0
  -28.7770  -16.0490   20.6220 H   0  0  0  0  0  0  0  0  0  0  0  0
  -25.2170  -13.9040   20.5580 C   0  0  0  0  0  0  0  0  0  0  0  0
  -24.1660  -13.1150   20.9360 C   0  0  0  0  0  0  0  0  0  0  0  0
  -24.6430  -11.7690   20.8820 C   0  0  0  0  0  0  0  0  0  0  0  0
  -26.2640  -13.0390   20.2890 N   0  0  0  0  0  0  0  0  0  0  0  0
  -25.9290  -11.7490   20.5490 N   0  0  0  0  0  0  0  0  0  0  0  0
  -23.9300  -10.4980   21.0680 C   0  0  0  0  0  0  0  0  0  0  0  0
  -24.3800   -9.5240   21.9870 C   0  0  0  0  0  3  0  0  0  0  0  0
  -23.6640   -8.3200   22.1630 C   0  0  0  0  0  3  0  0  0  0  0  0
  -22.4830   -8.0820   21.4190 C   0  0  0  0  0  0  0  0  0  0  0  0
  -22.0520   -9.0430   20.4900 C   0  0  0  0  0  3  0  0  0  0  0  0
  -22.7680  -10.2390   20.3120 C   0  0  0  0  0  3  0  0  0  0  0  0
  -21.7380   -6.9300   21.5040 O   0  0  0  0  0  0  0  0  0  0  0  0
  -21.7020   -6.1800   22.6530 C   0  0  0  0  0  0  0  0  0  0  0  0
  -21.2480   -6.7140   23.8780 C   0  0  0  0  0  3  0  0  0  0  0  0
  -21.1620   -5.8890   25.0180 C   0  0  0  0  0  3  0  0  0  0  0  0
  -21.5180   -4.5310   24.9320 C   0  0  0  0  0  0  0  0  0  0  0  0
  -21.9650   -3.9950   23.7110 C   0  0  0  0  0  3  0  0  0  0  0  0
  -22.0530   -4.8170   22.5740 C   0  0  0  0  0  0  0  0  0  0  0  0
  -22.4630   -4.2910   21.3950 F   0  0  0  0  0  0  0  0  0  0  0  0
  -21.4280   -3.7350   26.0240 F   0  0  0  0  0  0  0  0  0  0  0  0
  -22.7690  -13.5770   21.2300 C   0  0  0  0  0  0  0  0  0  0  0  0
  -22.0600  -12.8720   22.1040 N   0  0  0  0  0  0  0  0  0  0  0  0
  -22.3160  -14.6020   20.7220 O   0  0  0  0  0  0  0  0  0  0  0  0
  -22.4410  -12.0460   22.5410 H   0  0  0  0  0  0  0  0  0  0  0  0
  -21.1220  -13.1640   22.3430 H   0  0  0  0  0  0  0  0  0  0  0  0
  -25.3630  -15.2780   20.3950 N   0  0  0  0  0  0  0  0  0  0  0  0
  -24.5830  -15.9140   20.5220 H   0  0  0  0  0  0  0  0  0  0  0  0
  -26.1840  -15.7320   20.0170 H   0  0  0  0  0  0  0  0  0  0  0  0
  -28.5550  -21.7080   20.3100 C   0  0  0  0  0  0  0  0  0  0  0  0
  -27.3490  -21.5090   20.1430 O   0  0  0  0  0  0  0  0  0  0  0  0
  -28.9830  -23.3200   20.4220 C   0  0  0  0  0  3  0  0  0  0  0  0
  -27.9560  -24.6550   20.1720 C   0  0  0  0  0  3  0  0  0  0  0  0
  -28.2380  -26.1930   20.3430 O   0  0  0  0  0  0  0  0  0  0  0  0
  -24.6350  -31.9390   23.2880 C   0  0  0  0  0  0  0  0  0  0  0  0
  -27.1930  -27.1940   20.2700 C   0  0  0  0  0  0  0  0  0  0  0  0
  -23.4340  -30.5490   21.6470 C   0  0  0  0  0  3  0  0  0  0  0  0
  -24.8780  -28.9660   20.2270 C   0  0  0  0  0  0  0  0  0  0  0  0
  -25.9910  -30.7990   21.4890 C   0  0  0  0  0  2  0  0  0  0  0  0
  -26.0590  -29.4030   20.8380 C   0  0  0  0  0  0  0  0  0  0  0  0
  -27.2180  -28.5350   20.8400 C   0  0  0  0  0  3  0  0  0  0  0  0
  -25.9840  -26.8650   19.6180 C   0  0  0  0  0  3  0  0  0  0  0  0
  -24.8550  -27.7110   19.6010 C   0  0  0  0  0  3  0  0  0  0  0  0
  -23.6570  -29.8710   20.2700 C   0  0  0  0  0  2  0  0  0  0  0  0
  -24.7070  -31.1180   22.1970 N   0  0  0  0  0  0  0  0  0  0  0  0
  -23.5490  -32.2300   23.8120 O   0  0  0  0  0  0  0  0  0  0  0  0
  -22.7470  -29.5470   22.6090 C   0  0  0  0  0  0  0  0  0  0  0  0
  -21.4180  -29.3790   22.4740 N   0  0  0  0  0  0  0  0  0  0  0  0
  -23.4110  -28.9220   23.4390 O   0  0  0  0  0  0  0  0  0  0  0  0
  -20.9380  -29.9340   21.7800 H   0  0  0  0  0  0  0  0  0  0  0  0
  -18.0310  -28.1880   22.9620 C   0  0  0  0  0  0  0  0  0  0  0  0
  -20.5880  -28.4460   23.2430 C   0  0  0  0  0  3  0  0  0  0  0  0
  -20.6910  -27.0130   22.6730 C   0  0  0  0  0  2  0  0  0  0  0  0
  -19.5940  -26.6880   21.6530 C   0  0  0  0  0  2  0  0  0  0  0  0
  -18.2090  -26.8380   22.2890 C   0  0  0  0  0  2  0  0  0  0  0  0
  -19.1490  -28.9510   23.3950 C   0  0  0  0  0  0  0  0  0  0  0  0
  -18.9260  -30.2130   23.9870 C   0  0  0  0  0  3  0  0  0  0  0  0
  -17.6210  -30.7150   24.1460 C   0  0  0  0  0  3  0  0  0  0  0  0
  -16.5190  -29.9520   23.7260 C   0  0  0  0  0  3  0  0  0  0  0  0
  -16.7240  -28.6890   23.1400 C   0  0  0  0  0  3  0  0  0  0  0  0
  -25.9140  -32.5700   23.9220 C   0  0  0  0  0  3  0  0  0  0  0  0
  -26.4110  -31.8030   25.2090 C   0  0  1  0  0  0  0  0  0  0  0  0
  -25.3040  -31.5790   26.2670 C   0  0  0  0  0  1  0  0  0  0  0  0
  -26.9880  -30.4180   24.8350 C   0  0  0  0  0  1  0  0  0  0  0  0
  -27.5600  -32.5930   25.8780 C   0  0  0  0  0  1  0  0  0  0  0  0
  -25.6080  -33.9720   24.2460 N   0  0  0  0  0  0  0  0  0  0  0  0
  -25.9270  -35.0220   23.4790 C   0  0  0  0  0  0  0  0  0  0  0  0
  -26.5750  -34.9120   22.4350 O   0  0  0  0  0  0  0  0  0  0  0  0
  -25.0280  -34.1310   25.0570 H   0  0  0  0  0  0  0  0  0  0  0  0
  -24.1830  -36.8120   23.1720 C   0  0  0  0  0  1  0  0  0  0  0  0
  -25.4540  -36.4150   23.9400 C   0  0  0  0  0  3  0  0  0  0  0  0
  -27.6120  -37.3190   24.6900 C   0  0  0  0  0  1  0  0  0  0  0  0
  -26.4790  -37.4690   23.7790 N   0  0  0  0  0  0  0  0  0  0  0  0
  -26.0760  -38.3900   23.9230 H   0  0  0  0  0  0  0  0  0  0  0  0
  1  3  2  0
  1  4  1  0
  2  5  1  0
  3  6  1  0
  4 17  1  0
  4  2  2  0
  5  7  1  0
  6  8  1  0
  6  5  2  0
  9 17  1  0
 10 15  1  0
 11 12  1  0
 11 10  1  0
 13 12  1  0
 13 22  1  0
 13 14  1  0
 15  9  1  0
 15 14  1  0
 16  9  2  0
 17 18  1  0
 19 20  2  0
 20 39  1  0
 21 20  1  0
 21 24  1  0
 22 23  1  0
 22 19  1  0
 23 21  2  0
 24 25  1  0
 25 26  2  0
 27 30  1  0
 27 26  1  0
 28 27  2  0
 29 28  1  0
 29 24  2  0
 30 31  1  0
 31 32  1  0
 32 33  2  0
 34 33  1  0
 34 38  1  0
 35 34  2  0
 36 31  2  0
 36 35  1  0
 37 36  1  0
 39 40  1  0
 40 43  1  0
 40 42  1  0
 41 39  2  0
 44 45  1  0
 44 19  1  0
 46 44  1  0
 47  3  1  0
 47 49  1  0
 48 47  2  0
 50 51  1  0
 50 49  2  0
 52 63  2  0
 53 51  1  0
 53 58  1  0
 54 62  1  0
 54 64  1  0
 55 61  1  0
 55 57  1  0
 56 62  1  0
 57 58  2  0
 57 56  1  0
 59 53  2  0
 60 59  1  0
 60 55  2  0
 61 54  1  0
 62 52  1  0
 64 66  2  0
 65 64  1  0
 67 65  1  0
 68 77  2  0
 68 73  1  0
 69 65  1  0
 69 73  1  0
 70 69  1  0
 71 72  1  0
 71 70  1  0
 72 68  1  0
 73 74  2  0
 74 75  1  0
 76 75  2  0
 77 76  1  0
 78 52  1  0
 78 83  1  0
 78 79  1  0
 79 82  1  1
 79 80  1  0
 81 79  1  0
 83 86  1  0
 84 88  1  0
 84 83  1  0
 85 84  2  0
 88 87  1  0
 90 91  1  0
 90 88  1  0
 90 89  1  0
M  ISO  4   9 100  17 100  50 101  51 101
M  END
>  <TORSDO>  (47) 
F 19

>  <SCORE>  (47) 
-15.176

>  <name>  (47) 
46

>  <ligand_id>  (47) 
46

>  <original_smiles>  (47) 
[H]c1c([H])c([H])c2c(c1[H])C([H])([H])C([H])([H])C([H])([H])C2([H])N([H])C(=O)C1([H])N(C(=O)C([H])(N([H])C(=O)C([H])(N([H])C([H])([H])[H])C([H])([H])[H])C(C([H])([H])[H])(C([H])([H])[H])C([H])([H])[H])C([H])([H])c2c([H])c(OC([H])([H])C([H])([H])C(=O)c3c([H])c(N([H])C(=O)N4C([H])([H])C([H])([H])C([H])([H])C([H])(n5nc(-c6c([H])c([H])c(Oc7c([H])c([H])c(F)c([H])c7F)c([H])c6[H])c(C(=O)N([H])[H])c5N([H])[H])C4([H])[H])c([H])c(F)c3F)c([H])c([H])c2C1([H])[H]

>  <smiles>  (47) 
[H]c1c([H])c([H])c2c(c1[H])C([H])([H])C([H])([H])C([H])([H])C2([H])N([H])C(=O)C1([H])N(C(=O)C([H])(N([H])C(=O)C([H])(N([H])C([H])([H])[H])C([H])([H])[H])C(C([H])([H])[H])(C([H])([H])[H])C([H])([H])[H])C([H])([H])c2c([H])c(OC([H])([H])C([H])([H])C(=O)c3c([H])c(N([H])C(=O)N4C([H])([H])C([H])([H])C([H])([H])C([H])(n5nc(-c6c([H])c([H])c(Oc7c([H])c([H])c(F)c([H])c7F)c([H])c6[H])c(C(=O)N([H])[H])c5N([H])[H])C4([H])[H])c([H])c(F)c3F)c([H])c([H])c2C1([H])[H]

$$$$
47:0:0
     RDKit          3D

 99107  0  0  1  0  0  0  0  0999 V2000
  -29.7510  -18.1930   20.4940 C   0  0  0  0  0  3  0  0  0  0  0  0
  -29.8830  -16.7850   18.5190 C   0  0  0  0  0  3  0  0  0  0  0  0
  -29.7320  -19.2170   18.2600 C   0  0  0  0  0  0  0  0  0  0  0  0
  -29.7030  -19.3720   19.6830 C   0  0  0  0  0  0  0  0  0  0  0  0
  -29.8740  -16.8920   19.9260 C   0  0  0  0  0  0  0  0  0  0  0  0
  -29.8050  -17.9190   17.7010 C   0  0  0  0  0  0  0  0  0  0  0  0
  -29.8230  -17.7400   16.3570 F   0  0  0  0  0  0  0  0  0  0  0  0
  -30.6850  -14.6060   20.3770 C   0  0  0  0  0  0  0  0  0  0  0  0
  -30.3730  -12.4500   19.2350 C   0  0  0  0  0  2  0  0  0  0  0  0
  -29.4310  -12.6740   18.0330 C   0  0  0  0  0  2  0  0  0  0  0  0
  -27.9530  -12.5720   18.4610 C   0  0  0  0  0  2  0  0  0  0  0  0
  -27.6320  -13.3760   19.7520 C   0  0  0  0  0  3  0  0  0  0  0  0
  -28.6940  -13.1280   20.8500 C   0  0  0  0  0  2  0  0  0  0  0  0
  -30.0150  -13.4240   20.2790 N   0  0  0  0  0  0  0  0  0  0  0  0
  -31.8420  -14.7460   19.9700 O   0  0  0  0  0  0  0  0  0  0  0  0
  -29.9460  -15.6900   20.7180 N   0  0  0  0  0  0  0  0  0  0  0  0
  -29.1270  -15.4940   21.2750 H   0  0  0  0  0  0  0  0  0  0  0  0
  -25.2350  -13.9840   20.4590 C   0  0  0  0  0  0  0  0  0  0  0  0
  -24.1650  -13.2150   20.8330 C   0  0  0  0  0  0  0  0  0  0  0  0
  -24.6250  -11.8620   20.8130 C   0  0  0  0  0  0  0  0  0  0  0  0
  -26.2800  -13.1010   20.2330 N   0  0  0  0  0  0  0  0  0  0  0  0
  -25.9170  -11.8200   20.5050 N   0  0  0  0  0  0  0  0  0  0  0  0
  -23.8970  -10.6030   21.0110 C   0  0  0  0  0  0  0  0  0  0  0  0
  -24.3360   -9.6370   21.9420 C   0  0  0  0  0  3  0  0  0  0  0  0
  -23.6120   -8.4410   22.1300 C   0  0  0  0  0  3  0  0  0  0  0  0
  -22.4320   -8.2020   21.3870 C   0  0  0  0  0  0  0  0  0  0  0  0
  -22.0090   -9.1580   20.4470 C   0  0  0  0  0  3  0  0  0  0  0  0
  -22.7330  -10.3470   20.2580 C   0  0  0  0  0  3  0  0  0  0  0  0
  -21.6780   -7.0580   21.4840 O   0  0  0  0  0  0  0  0  0  0  0  0
  -21.6500   -6.3080   22.6320 C   0  0  0  0  0  0  0  0  0  0  0  0
  -21.2640   -6.8610   23.8720 C   0  0  0  0  0  3  0  0  0  0  0  0
  -21.1820   -6.0390   25.0140 C   0  0  0  0  0  3  0  0  0  0  0  0
  -21.4760   -4.6660   24.9150 C   0  0  0  0  0  0  0  0  0  0  0  0
  -21.8530   -4.1120   23.6800 C   0  0  0  0  0  3  0  0  0  0  0  0
  -21.9370   -4.9310   22.5400 C   0  0  0  0  0  0  0  0  0  0  0  0
  -22.2820   -4.3880   21.3470 F   0  0  0  0  0  0  0  0  0  0  0  0
  -21.3900   -3.8750   26.0100 F   0  0  0  0  0  0  0  0  0  0  0  0
  -22.7690  -13.6960   21.1020 C   0  0  0  0  0  0  0  0  0  0  0  0
  -22.0380  -13.0100   21.9750 N   0  0  0  0  0  0  0  0  0  0  0  0
  -22.3320  -14.7170   20.5740 O   0  0  0  0  0  0  0  0  0  0  0  0
  -22.4010  -12.1860   22.4290 H   0  0  0  0  0  0  0  0  0  0  0  0
  -21.1010  -13.3180   22.1930 H   0  0  0  0  0  0  0  0  0  0  0  0
  -25.4030  -15.3530   20.2720 N   0  0  0  0  0  0  0  0  0  0  0  0
  -24.6380  -16.0100   20.3760 H   0  0  0  0  0  0  0  0  0  0  0  0
  -26.2580  -15.7890   19.9490 H   0  0  0  0  0  0  0  0  0  0  0  0
  -29.7000  -20.3880   17.3160 C   0  0  0  0  0  0  0  0  0  0  0  0
  -30.8090  -20.6140   16.6220 N   0  0  0  0  0  0  0  0  0  0  0  0
  -28.7000  -21.0900   17.1800 O   0  0  0  0  0  0  0  0  0  0  0  0
  -31.6070  -20.0060   16.7260 H   0  0  0  0  0  0  0  0  0  0  0  0
  -30.8430  -21.3690   15.9520 H   0  0  0  0  0  0  0  0  0  0  0  0
  -29.7920  -20.7720   20.3580 C   0  0  0  0  0  2  0  0  0  0  0  0
  -28.5140  -21.6750   20.3930 C   0  0  0  0  0  2  0  0  0  0  0  0
  -28.7310  -23.0110   21.0380 N   0  0  0  0  0  4  0  0  0  0  0  0
  -29.6770  -23.0720   21.3830 H   0  0  0  0  0  0  0  0  0  0  0  0
  -28.1310  -23.0390   21.8500 H   0  0  0  0  0  0  0  0  0  0  0  0
  -28.4600  -24.2370   20.2130 C   0  0  0  0  0  2  0  0  0  0  0  0
  -28.4100  -25.5520   21.0580 C   0  0  0  0  0  3  0  0  0  0  0  0
  -29.5060  -25.5710   21.8580 F   0  0  0  0  0  0  0  0  0  0  0  0
  -28.3900  -26.7090   20.3090 O   0  0  0  0  0  0  0  0  0  0  0  0
  -24.5840  -32.0040   23.2900 C   0  0  0  0  0  0  0  0  0  0  0  0
  -27.2450  -27.4810   20.3190 C   0  0  0  0  0  0  0  0  0  0  0  0
  -23.3950  -30.5790   21.6570 C   0  0  0  0  0  3  0  0  0  0  0  0
  -24.8620  -29.0120   20.2750 C   0  0  0  0  0  0  0  0  0  0  0  0
  -25.9260  -30.9230   21.4830 C   0  0  0  0  0  2  0  0  0  0  0  0
  -26.0160  -29.5370   20.8700 C   0  0  0  0  0  0  0  0  0  0  0  0
  -27.2150  -28.7800   20.8880 C   0  0  0  0  0  3  0  0  0  0  0  0
  -26.0760  -26.9790   19.7110 C   0  0  0  0  0  3  0  0  0  0  0  0
  -24.8880  -27.7340   19.6910 C   0  0  0  0  0  3  0  0  0  0  0  0
  -23.6200  -29.8780   20.2920 C   0  0  0  0  0  2  0  0  0  0  0  0
  -24.6520  -31.1850   22.2020 N   0  0  0  0  0  0  0  0  0  0  0  0
  -23.4960  -32.2870   23.8130 O   0  0  0  0  0  0  0  0  0  0  0  0
  -22.7280  -29.5740   22.6250 C   0  0  0  0  0  0  0  0  0  0  0  0
  -21.4050  -29.3940   22.4860 N   0  0  0  0  0  0  0  0  0  0  0  0
  -23.4010  -28.9580   23.4570 O   0  0  0  0  0  0  0  0  0  0  0  0
  -20.9250  -29.9450   21.7870 H   0  0  0  0  0  0  0  0  0  0  0  0
  -18.0210  -28.2150   22.9600 C   0  0  0  0  0  0  0  0  0  0  0  0
  -20.5760  -28.4700   23.2590 C   0  0  0  0  0  3  0  0  0  0  0  0
  -20.6810  -27.0300   22.7040 C   0  0  0  0  0  2  0  0  0  0  0  0
  -19.5890  -26.6960   21.6820 C   0  0  0  0  0  2  0  0  0  0  0  0
  -18.2010  -26.8550   22.3080 C   0  0  0  0  0  2  0  0  0  0  0  0
  -19.1370  -28.9790   23.3930 C   0  0  0  0  0  0  0  0  0  0  0  0
  -18.9140  -30.2520   23.9620 C   0  0  0  0  0  3  0  0  0  0  0  0
  -17.6100  -30.7590   24.1050 C   0  0  0  0  0  3  0  0  0  0  0  0
  -16.5080  -29.9920   23.6890 C   0  0  0  0  0  3  0  0  0  0  0  0
  -16.7140  -28.7220   23.1220 C   0  0  0  0  0  3  0  0  0  0  0  0
  -25.8620  -32.6430   23.9170 C   0  0  0  0  0  3  0  0  0  0  0  0
  -25.5510  -34.0440   24.2290 N   0  0  0  0  0  0  0  0  0  0  0  0
  -25.8880  -35.0870   23.4600 C   0  0  0  0  0  0  0  0  0  0  0  0
  -26.5640  -34.9710   22.4330 O   0  0  0  0  0  0  0  0  0  0  0  0
  -24.9530  -34.2080   25.0260 H   0  0  0  0  0  0  0  0  0  0  0  0
  -24.1560  -36.8700   23.0740 C   0  0  0  0  0  1  0  0  0  0  0  0
  -25.3950  -36.4810   23.8960 C   0  0  0  0  0  3  0  0  0  0  0  0
  -27.5270  -37.3770   24.7210 C   0  0  0  0  0  1  0  0  0  0  0  0
  -26.4260  -37.5340   23.7740 N   0  0  0  0  0  0  0  0  0  0  0  0
  -26.0190  -38.4560   23.9090 H   0  0  0  0  0  0  0  0  0  0  0  0
  -26.3680  -31.8840   25.2050 C   0  0  1  0  0  0  0  0  0  0  0  0
  -25.2660  -31.6550   26.2660 C   0  0  0  0  0  1  0  0  0  0  0  0
  -26.9580  -30.5050   24.8280 C   0  0  0  0  0  1  0  0  0  0  0  0
  -27.5110  -32.6880   25.8700 C   0  0  0  0  0  1  0  0  0  0  0  0
  2  5  2  0
  3  4  1  0
  4 51  1  0
  4  1  2  0
  5  1  1  0
  5 16  1  0
  6  3  2  0
  6  2  1  0
  7  6  1  0
  8 16  1  0
  9 14  1  0
 10 11  1  0
 10  9  1  0
 12 11  1  0
 12 21  1  0
 12 13  1  0
 14  8  1  0
 14 13  1  0
 15  8  2  0
 16 17  1  0
 18 19  2  0
 19 38  1  0
 20 19  1  0
 20 23  1  0
 21 18  1  0
 21 22  1  0
 22 20  2  0
 23 24  1  0
 24 25  2  0
 26 29  1  0
 26 25  1  0
 27 26  2  0
 28 27  1  0
 28 23  2  0
 29 30  1  0
 30 31  1  0
 31 32  2  0
 33 32  1  0
 33 37  1  0
 34 33  2  0
 35 30  2  0
 35 34  1  0
 36 35  1  0
 38 39  1  0
 39 42  1  0
 39 41  1  0
 40 38  2  0
 43 44  1  0
 43 18  1  0
 45 43  1  0
 46  3  1  0
 47 49  1  0
 47 46  1  0
 48 46  2  0
 50 47  1  0
 51 52  1  0
 52 53  1  0
 53 54  1  0
 53 55  1  0
 56 53  1  0
 56 57  1  0
 57 58  1  0
 59 61  1  0
 59 57  1  0
 60 71  2  0
 61 66  1  0
 62 70  1  0
 62 72  1  0
 63 69  1  0
 63 65  1  0
 64 70  1  0
 65 66  2  0
 65 64  1  0
 67 61  2  0
 68 67  1  0
 68 63  2  0
 69 62  1  0
 70 60  1  0
 72 74  2  0
 73 72  1  0
 75 73  1  0
 76 85  2  0
 76 81  1  0
 77 73  1  0
 77 81  1  0
 78 77  1  0
 79 80  1  0
 79 78  1  0
 80 76  1  0
 81 82  2  0
 82 83  1  0
 84 83  2  0
 85 84  1  0
 86 60  1  0
 86 87  1  0
 86 96  1  0
 87 90  1  0
 88 92  1  0
 88 87  1  0
 89 88  2  0
 92 91  1  0
 94 92  1  0
 94 95  1  0
 94 93  1  0
 96 99  1  1
 96 97  1  0
 98 96  1  0
M  ISO  4   8 100  16 100  57 101  59 101
M  END
>  <TORSDO>  (48) 
F 22

>  <SCORE>  (48) 
-12.910

>  <name>  (48) 
47

>  <ligand_id>  (48) 
47

>  <original_smiles>  (48) 
[H]c1c([H])c([H])c2c(c1[H])C([H])([H])C([H])([H])C([H])([H])C2([H])N([H])C(=O)C1([H])N(C(=O)C([H])(N([H])C(=O)C([H])(N([H])C([H])([H])[H])C([H])([H])[H])C(C([H])([H])[H])(C([H])([H])[H])C([H])([H])[H])C([H])([H])c2c([H])c(OC([H])(F)C([H])([H])[N+]([H])([H])C([H])([H])C([H])([H])c3c([H])c(N([H])C(=O)N4C([H])([H])C([H])([H])C([H])([H])C([H])(n5nc(-c6c([H])c([H])c(Oc7c([H])c([H])c(F)c([H])c7F)c([H])c6[H])c(C(=O)N([H])[H])c5N([H])[H])C4([H])[H])c([H])c(F)c3C(=O)N([H])[H])c([H])c([H])c2C1([H])[H]

>  <smiles>  (48) 
[H]c1c([H])c([H])c2c(c1[H])C([H])([H])C([H])([H])C([H])([H])C2([H])N([H])C(=O)C1([H])N(C(=O)C([H])(N([H])C(=O)C([H])(N([H])C([H])([H])[H])C([H])([H])[H])C(C([H])([H])[H])(C([H])([H])[H])C([H])([H])[H])C([H])([H])c2c([H])c(OC([H])(F)C([H])([H])[N+]([H])([H])C([H])([H])C([H])([H])c3c([H])c(N([H])C(=O)N4C([H])([H])C([H])([H])C([H])([H])C([H])(n5nc(-c6c([H])c([H])c(Oc7c([H])c([H])c(F)c([H])c7F)c([H])c6[H])c(C(=O)N([H])[H])c5N([H])[H])C4([H])[H])c([H])c(F)c3C(=O)N([H])[H])c([H])c([H])c2C1([H])[H]

$$$$
48:0:0
     RDKit          3D

 89 97  0  0  1  0  0  0  0  0999 V2000
  -30.1570  -20.8770   19.3060 C   0  0  0  0  0  3  0  0  0  0  0  0
  -27.8590  -21.7310   20.4530 C   0  0  0  0  0  3  0  0  0  0  0  0
  -29.4630  -19.7320   19.8910 C   0  0  0  0  0  0  0  0  0  0  0  0
  -28.5600  -22.8730   19.8620 C   0  0  0  0  0  0  0  0  0  0  0  0
  -28.2620  -20.2980   20.4840 C   0  0  0  0  0  0  0  0  0  0  0  0
  -29.7550  -22.3030   19.2720 C   0  0  0  0  0  0  0  0  0  0  0  0
  -27.4350  -19.4420   21.1280 F   0  0  0  0  0  0  0  0  0  0  0  0
  -30.5690  -23.1470   18.5970 F   0  0  0  0  0  0  0  0  0  0  0  0
  -30.1760  -18.1470   19.9590 C   0  0  0  0  0  2  0  0  0  0  0  0
  -30.4510  -15.2970   19.8910 C   0  0  0  0  0  0  0  0  0  0  0  0
  -30.3150  -12.8900   18.9740 C   0  0  0  0  0  2  0  0  0  0  0  0
  -29.3090  -12.7430   17.8060 C   0  0  0  0  0  2  0  0  0  0  0  0
  -27.8900  -12.4880   18.3430 C   0  0  0  0  0  2  0  0  0  0  0  0
  -27.5340  -13.4290   19.5220 C   0  0  0  0  0  3  0  0  0  0  0  0
  -28.6610  -13.5300   20.5730 C   0  0  0  0  0  2  0  0  0  0  0  0
  -29.8540  -14.0140   19.8620 N   0  0  0  0  0  0  0  0  0  0  0  0
  -31.6470  -15.2950   19.5720 O   0  0  0  0  0  0  0  0  0  0  0  0
  -29.7310  -16.5680   20.0700 N   0  0  0  0  0  0  0  0  0  0  0  0
  -28.7540  -16.4400   20.2850 H   0  0  0  0  0  0  0  0  0  0  0  0
  -25.2290  -13.9850   20.4620 C   0  0  0  0  0  0  0  0  0  0  0  0
  -24.1910  -13.2050   20.8860 C   0  0  0  0  0  0  0  0  0  0  0  0
  -24.6440  -11.8540   20.7860 C   0  0  0  0  0  0  0  0  0  0  0  0
  -26.2450  -13.1100   20.1190 N   0  0  0  0  0  0  0  0  0  0  0  0
  -25.9090  -11.8200   20.3810 N   0  0  0  0  0  0  0  0  0  0  0  0
  -23.9220  -10.5910   20.9940 C   0  0  0  0  0  0  0  0  0  0  0  0
  -24.3940   -9.6080   21.8910 C   0  0  0  0  0  3  0  0  0  0  0  0
  -23.6690   -8.4130   22.0890 C   0  0  0  0  0  3  0  0  0  0  0  0
  -22.4590   -8.1920   21.3890 C   0  0  0  0  0  0  0  0  0  0  0  0
  -22.0060   -9.1630   20.4790 C   0  0  0  0  0  3  0  0  0  0  0  0
  -22.7300  -10.3500   20.2800 C   0  0  0  0  0  3  0  0  0  0  0  0
  -21.7020   -7.0510   21.4990 O   0  0  0  0  0  0  0  0  0  0  0  0
  -21.6900   -6.3030   22.6490 C   0  0  0  0  0  0  0  0  0  0  0  0
  -21.2730   -6.8430   23.8860 C   0  0  0  0  0  3  0  0  0  0  0  0
  -21.2110   -6.0210   25.0290 C   0  0  0  0  0  3  0  0  0  0  0  0
  -21.5540   -4.6580   24.9360 C   0  0  0  0  0  0  0  0  0  0  0  0
  -21.9620   -4.1170   23.7040 C   0  0  0  0  0  3  0  0  0  0  0  0
  -22.0280   -4.9370   22.5640 C   0  0  0  0  0  0  0  0  0  0  0  0
  -22.4020   -4.4050   21.3750 F   0  0  0  0  0  0  0  0  0  0  0  0
  -21.4850   -3.8660   26.0310 F   0  0  0  0  0  0  0  0  0  0  0  0
  -22.8210  -13.6840   21.2660 C   0  0  0  0  0  0  0  0  0  0  0  0
  -22.1520  -12.9720   22.1660 N   0  0  0  0  0  0  0  0  0  0  0  0
  -22.3560  -14.7240   20.8020 O   0  0  0  0  0  0  0  0  0  0  0  0
  -22.5430  -12.1290   22.5610 H   0  0  0  0  0  0  0  0  0  0  0  0
  -21.2360  -13.2730   22.4650 H   0  0  0  0  0  0  0  0  0  0  0  0
  -25.3870  -15.3600   20.3090 N   0  0  0  0  0  0  0  0  0  0  0  0
  -24.6300  -16.0110   20.4920 H   0  0  0  0  0  0  0  0  0  0  0  0
  -26.2060  -15.8080   19.9190 H   0  0  0  0  0  0  0  0  0  0  0  0
  -27.8650  -24.4430   19.6070 C   0  0  0  0  0  2  0  0  0  0  0  0
  -28.2120  -25.9860   19.9840 O   0  0  0  0  0  0  0  0  0  0  0  0
  -24.6080  -31.7990   23.1070 C   0  0  0  0  0  0  0  0  0  0  0  0
  -27.2080  -27.0780   19.9370 C   0  0  0  0  0  0  0  0  0  0  0  0
  -23.4260  -30.4450   21.4250 C   0  0  0  0  0  3  0  0  0  0  0  0
  -24.8910  -28.9130   19.9500 C   0  0  0  0  0  0  0  0  0  0  0  0
  -25.9890  -30.6970   21.2850 C   0  0  0  0  0  2  0  0  0  0  0  0
  -26.0740  -29.3140   20.5840 C   0  0  0  0  0  0  0  0  0  0  0  0
  -27.2300  -28.4170   20.5570 C   0  0  0  0  0  3  0  0  0  0  0  0
  -25.9950  -26.8270   19.2560 C   0  0  0  0  0  3  0  0  0  0  0  0
  -24.8740  -27.6890   19.2680 C   0  0  0  0  0  3  0  0  0  0  0  0
  -23.6620  -29.8130   20.0280 C   0  0  0  0  0  2  0  0  0  0  0  0
  -24.6960  -31.0050   21.9940 N   0  0  0  0  0  0  0  0  0  0  0  0
  -23.5170  -32.0600   23.6390 O   0  0  0  0  0  0  0  0  0  0  0  0
  -22.7450  -29.4070   22.3570 C   0  0  0  0  0  0  0  0  0  0  0  0
  -21.4140  -29.2520   22.2450 N   0  0  0  0  0  0  0  0  0  0  0  0
  -23.4220  -28.7460   23.1490 O   0  0  0  0  0  0  0  0  0  0  0  0
  -20.9210  -29.8370   21.5850 H   0  0  0  0  0  0  0  0  0  0  0  0
  -18.0280  -28.0720   22.7940 C   0  0  0  0  0  0  0  0  0  0  0  0
  -20.5980  -28.2880   22.9920 C   0  0  0  0  0  3  0  0  0  0  0  0
  -20.6590  -26.8860   22.3400 C   0  0  0  0  0  2  0  0  0  0  0  0
  -19.5220  -26.6360   21.3450 C   0  0  0  0  0  2  0  0  0  0  0  0
  -18.1620  -26.7610   22.0390 C   0  0  0  0  0  2  0  0  0  0  0  0
  -19.1700  -28.7970   23.2280 C   0  0  0  0  0  0  0  0  0  0  0  0
  -18.9860  -30.0250   23.8990 C   0  0  0  0  0  3  0  0  0  0  0  0
  -17.6940  -30.5300   24.1370 C   0  0  0  0  0  3  0  0  0  0  0  0
  -16.5670  -29.8030   23.7170 C   0  0  0  0  0  3  0  0  0  0  0  0
  -16.7350  -28.5740   23.0520 C   0  0  0  0  0  3  0  0  0  0  0  0
  -25.8750  -32.4340   23.7570 C   0  0  0  0  0  3  0  0  0  0  0  0
  -25.5540  -33.8300   24.1030 N   0  0  0  0  0  0  0  0  0  0  0  0
  -25.8720  -34.8960   23.3570 C   0  0  0  0  0  0  0  0  0  0  0  0
  -26.5300  -34.8100   22.3160 O   0  0  0  0  0  0  0  0  0  0  0  0
  -24.9700  -33.9710   24.9130 H   0  0  0  0  0  0  0  0  0  0  0  0
  -24.1210  -36.6800   23.0660 C   0  0  0  0  0  1  0  0  0  0  0  0
  -25.3870  -36.2780   23.8390 C   0  0  0  0  0  3  0  0  0  0  0  0
  -27.5300  -37.1810   24.6280 C   0  0  0  0  0  1  0  0  0  0  0  0
  -26.4070  -37.3420   23.7070 N   0  0  0  0  0  0  0  0  0  0  0  0
  -25.9950  -38.2570   23.8690 H   0  0  0  0  0  0  0  0  0  0  0  0
  -26.3660  -31.6570   25.0420 C   0  0  1  0  0  0  0  0  0  0  0  0
  -25.2540  -31.4180   26.0890 C   0  0  0  0  0  1  0  0  0  0  0  0
  -26.9550  -30.2790   24.6620 C   0  0  0  0  0  1  0  0  0  0  0  0
  -27.5060  -32.4470   25.7290 C   0  0  0  0  0  1  0  0  0  0  0  0
  1  3  1  0
  2  5  1  0
  3  9  1  0
  3  5  2  0
  4  2  2  0
  5  7  1  0
  6  1  2  0
  6  4  1  0
  8  6  1  0
  9 18  1  0
 10 18  1  0
 11 16  1  0
 12 13  1  0
 12 11  1  0
 14 13  1  0
 14 23  1  0
 14 15  1  0
 16 10  1  0
 16 15  1  0
 17 10  2  0
 18 19  1  0
 20 21  2  0
 21 40  1  0
 22 21  1  0
 22 25  1  0
 23 24  1  0
 23 20  1  0
 24 22  2  0
 25 26  1  0
 26 27  2  0
 28 31  1  0
 28 27  1  0
 29 28  2  0
 30 29  1  0
 30 25  2  0
 31 32  1  0
 32 33  1  0
 33 34  2  0
 35 34  1  0
 35 39  1  0
 36 35  2  0
 37 32  2  0
 37 36  1  0
 38 37  1  0
 40 41  1  0
 41 44  1  0
 41 43  1  0
 42 40  2  0
 45 20  1  0
 45 46  1  0
 47 45  1  0
 48  4  1  0
 48 49  1  0
 50 61  2  0
 51 49  1  0
 51 56  1  0
 52 60  1  0
 52 62  1  0
 53 59  1  0
 53 55  1  0
 54 60  1  0
 55 54  1  0
 56 55  2  0
 57 58  1  0
 57 51  2  0
 58 53  2  0
 59 52  1  0
 60 50  1  0
 62 64  2  0
 63 62  1  0
 65 63  1  0
 66 75  2  0
 66 71  1  0
 67 63  1  0
 67 71  1  0
 68 67  1  0
 69 70  1  0
 69 68  1  0
 70 66  1  0
 71 72  2  0
 72 73  1  0
 74 73  2  0
 75 74  1  0
 76 50  1  0
 76 77  1  0
 76 86  1  0
 77 80  1  0
 78 82  1  0
 78 77  1  0
 79 78  2  0
 82 81  1  0
 84 82  1  0
 84 85  1  0
 84 83  1  0
 86 89  1  1
 86 87  1  0
 88 86  1  0
M  ISO  4  10 100  18 100  48 101  49 101
M  END
>  <TORSDO>  (49) 
F 18

>  <SCORE>  (49) 
-15.230

>  <name>  (49) 
48

>  <ligand_id>  (49) 
48

>  <original_smiles>  (49) 
[H]c1c([H])c([H])c2c(c1[H])C([H])([H])C([H])([H])C([H])([H])C2([H])N([H])C(=O)C1([H])N(C(=O)C([H])(N([H])C(=O)C([H])(N([H])C([H])([H])[H])C([H])([H])[H])C(C([H])([H])[H])(C([H])([H])[H])C([H])([H])[H])C([H])([H])c2c([H])c(OC([H])([H])c3c([H])c(F)c(C([H])([H])N([H])C(=O)N4C([H])([H])C([H])([H])C([H])([H])C([H])(n5nc(-c6c([H])c([H])c(Oc7c([H])c([H])c(F)c([H])c7F)c([H])c6[H])c(C(=O)N([H])[H])c5N([H])[H])C4([H])[H])c([H])c3F)c([H])c([H])c2C1([H])[H]

>  <smiles>  (49) 
[H]c1c([H])c([H])c2c(c1[H])C([H])([H])C([H])([H])C([H])([H])C2([H])N([H])C(=O)C1([H])N(C(=O)C([H])(N([H])C(=O)C([H])(N([H])C([H])([H])[H])C([H])([H])[H])C(C([H])([H])[H])(C([H])([H])[H])C([H])([H])[H])C([H])([H])c2c([H])c(OC([H])([H])c3c([H])c(F)c(C([H])([H])N([H])C(=O)N4C([H])([H])C([H])([H])C([H])([H])C([H])(n5nc(-c6c([H])c([H])c(Oc7c([H])c([H])c(F)c([H])c7F)c([H])c6[H])c(C(=O)N([H])[H])c5N([H])[H])C4([H])[H])c([H])c3F)c([H])c([H])c2C1([H])[H]

$$$$
49:0:0
     RDKit          3D

 90 98  0  0  1  0  0  0  0  0999 V2000
  -28.7110  -21.8040   19.4690 C   0  0  0  0  0  2  0  0  0  0  0  0
  -28.4610  -19.8940   21.0990 C   0  0  0  0  0  2  0  0  0  0  0  0
  -28.0090  -18.7950   20.1200 C   0  0  0  0  0  3  0  0  0  0  0  0
  -29.3350  -19.0210   19.3890 C   0  0  0  0  0  3  0  0  0  0  0  0
  -26.6770  -18.9110   19.3700 C   0  0  0  0  0  1  0  0  0  0  0  0
  -29.3380  -20.4720   20.0770 N   0  0  1  0  0  4  0  0  0  0  0  0
  -30.2430  -20.6980   20.4640 H   0  0  0  0  0  0  0  0  0  0  0  0
  -30.4950  -17.8170   19.6390 C   0  0  0  0  0  2  0  0  0  0  0  0
  -30.9910  -15.1100   19.9000 C   0  0  0  0  0  0  0  0  0  0  0  0
  -30.9520  -12.6400   19.3210 C   0  0  0  0  0  2  0  0  0  0  0  0
  -30.0440  -12.3610   18.1030 C   0  0  0  0  0  2  0  0  0  0  0  0
  -28.5790  -12.1860   18.5440 C   0  0  0  0  0  2  0  0  0  0  0  0
  -28.1260  -13.2790   19.5440 C   0  0  0  0  0  3  0  0  0  0  0  0
  -29.1530  -13.5000   20.6710 C   0  0  0  0  0  2  0  0  0  0  0  0
  -30.4250  -13.8430   20.0240 N   0  0  0  0  0  0  0  0  0  0  0  0
  -32.2010  -15.1670   19.6560 O   0  0  0  0  0  0  0  0  0  0  0  0
  -30.1760  -16.2750   19.8500 N   0  0  0  0  0  0  0  0  0  0  0  0
  -29.1960  -16.0750   19.9800 H   0  0  0  0  0  0  0  0  0  0  0  0
  -25.7790  -13.9390   20.3220 C   0  0  0  0  0  0  0  0  0  0  0  0
  -24.6940  -13.1980   20.7040 C   0  0  0  0  0  0  0  0  0  0  0  0
  -25.1130  -11.8330   20.6630 C   0  0  0  0  0  0  0  0  0  0  0  0
  -26.7860  -13.0260   20.0620 N   0  0  0  0  0  0  0  0  0  0  0  0
  -26.3960  -11.7560   20.3350 N   0  0  0  0  0  0  0  0  0  0  0  0
  -24.3470  -10.5940   20.8570 C   0  0  0  0  0  0  0  0  0  0  0  0
  -24.6660   -9.6800   21.8850 C   0  0  0  0  0  3  0  0  0  0  0  0
  -23.9020   -8.5070   22.0640 C   0  0  0  0  0  3  0  0  0  0  0  0
  -22.8060   -8.2380   21.2110 C   0  0  0  0  0  0  0  0  0  0  0  0
  -22.5070   -9.1380   20.1730 C   0  0  0  0  0  3  0  0  0  0  0  0
  -23.2710  -10.3030   19.9960 C   0  0  0  0  0  3  0  0  0  0  0  0
  -22.0230   -7.1120   21.2930 O   0  0  0  0  0  0  0  0  0  0  0  0
  -21.7120   -6.5370   22.5000 C   0  0  0  0  0  0  0  0  0  0  0  0
  -21.0340   -7.2500   23.5120 C   0  0  0  0  0  3  0  0  0  0  0  0
  -20.6740   -6.5990   24.7080 C   0  0  0  0  0  3  0  0  0  0  0  0
  -20.9810   -5.2390   24.8930 C   0  0  0  0  0  0  0  0  0  0  0  0
  -21.6510   -4.5260   23.8820 C   0  0  0  0  0  3  0  0  0  0  0  0
  -22.0130   -5.1730   22.6880 C   0  0  0  0  0  0  0  0  0  0  0  0
  -22.6390   -4.4760   21.7110 F   0  0  0  0  0  0  0  0  0  0  0  0
  -20.6270   -4.6120   26.0390 F   0  0  0  0  0  0  0  0  0  0  0  0
  -23.3160  -13.7200   20.9900 C   0  0  0  0  0  0  0  0  0  0  0  0
  -22.5820  -13.0590   21.8740 N   0  0  0  0  0  0  0  0  0  0  0  0
  -22.9030  -14.7530   20.4600 O   0  0  0  0  0  0  0  0  0  0  0  0
  -22.9270  -12.2230   22.3230 H   0  0  0  0  0  0  0  0  0  0  0  0
  -21.6590  -13.3950   22.1140 H   0  0  0  0  0  0  0  0  0  0  0  0
  -25.9820  -15.3060   20.1480 N   0  0  0  0  0  0  0  0  0  0  0  0
  -25.2230  -15.9700   20.2660 H   0  0  0  0  0  0  0  0  0  0  0  0
  -26.8130  -15.7260   19.7560 H   0  0  0  0  0  0  0  0  0  0  0  0
  -28.9410  -23.3030   20.1540 C   0  0  0  0  0  0  0  0  0  0  0  0
  -29.8210  -23.4190   21.0150 O   0  0  0  0  0  0  0  0  0  0  0  0
  -28.0580  -24.6530   19.7490 C   0  0  0  0  0  2  0  0  0  0  0  0
  -28.3530  -26.1120   20.2410 O   0  0  0  0  0  0  0  0  0  0  0  0
  -24.7090  -31.7320   23.3360 C   0  0  0  0  0  0  0  0  0  0  0  0
  -27.3320  -27.1350   20.1650 C   0  0  0  0  0  0  0  0  0  0  0  0
  -23.5470  -30.4230   21.6020 C   0  0  0  0  0  3  0  0  0  0  0  0
  -25.0250  -28.9130   20.1390 C   0  0  0  0  0  0  0  0  0  0  0  0
  -26.1060  -30.6740   21.5210 C   0  0  0  0  0  2  0  0  0  0  0  0
  -26.1890  -29.3150   20.8070 C   0  0  0  0  0  0  0  0  0  0  0  0
  -27.3430  -28.4420   20.8040 C   0  0  0  0  0  3  0  0  0  0  0  0
  -26.1470  -26.8460   19.4530 C   0  0  0  0  0  3  0  0  0  0  0  0
  -25.0220  -27.6960   19.4440 C   0  0  0  0  0  3  0  0  0  0  0  0
  -23.8020  -29.8160   20.1960 C   0  0  0  0  0  2  0  0  0  0  0  0
  -24.8050  -30.9630   22.2090 N   0  0  0  0  0  0  0  0  0  0  0  0
  -23.6100  -31.9960   23.8490 O   0  0  0  0  0  0  0  0  0  0  0  0
  -22.8400  -29.3730   22.4950 C   0  0  0  0  0  0  0  0  0  0  0  0
  -21.5200  -29.1950   22.3050 N   0  0  0  0  0  0  0  0  0  0  0  0
  -23.4830  -28.7230   23.3240 O   0  0  0  0  0  0  0  0  0  0  0  0
  -21.0550  -29.7770   21.6210 H   0  0  0  0  0  0  0  0  0  0  0  0
  -18.1300  -27.9550   22.6240 C   0  0  0  0  0  0  0  0  0  0  0  0
  -20.6750  -28.2230   23.0060 C   0  0  0  0  0  3  0  0  0  0  0  0
  -20.8110  -26.8140   22.3830 C   0  0  0  0  0  2  0  0  0  0  0  0
  -19.7540  -26.5230   21.3140 C   0  0  0  0  0  2  0  0  0  0  0  0
  -18.3450  -26.6360   21.9040 C   0  0  0  0  0  2  0  0  0  0  0  0
  -19.2250  -28.7090   23.1270 C   0  0  0  0  0  0  0  0  0  0  0  0
  -18.9700  -29.9460   23.7600 C   0  0  0  0  0  3  0  0  0  0  0  0
  -17.6530  -30.4280   23.8960 C   0  0  0  0  0  3  0  0  0  0  0  0
  -16.5740  -29.6710   23.4070 C   0  0  0  0  0  3  0  0  0  0  0  0
  -16.8140  -28.4380   22.7760 C   0  0  0  0  0  3  0  0  0  0  0  0
  -25.9730  -32.3300   24.0250 C   0  0  0  0  0  3  0  0  0  0  0  0
  -26.3640  -31.5830   25.3590 C   0  0  1  0  0  0  0  0  0  0  0  0
  -25.1890  -31.4250   26.3510 C   0  0  0  0  0  1  0  0  0  0  0  0
  -26.9140  -30.1700   25.0590 C   0  0  0  0  0  1  0  0  0  0  0  0
  -27.4940  -32.3540   26.0790 C   0  0  0  0  0  1  0  0  0  0  0  0
  -25.7040  -33.7510   24.2960 N   0  0  0  0  0  0  0  0  0  0  0  0
  -26.1160  -34.7670   23.5260 C   0  0  0  0  0  0  0  0  0  0  0  0
  -26.8270  -34.6060   22.5310 O   0  0  0  0  0  0  0  0  0  0  0  0
  -25.0830  -33.9550   25.0650 H   0  0  0  0  0  0  0  0  0  0  0  0
  -24.4830  -36.6240   23.0470 C   0  0  0  0  0  1  0  0  0  0  0  0
  -25.6690  -36.1900   23.9230 C   0  0  0  0  0  3  0  0  0  0  0  0
  -27.7970  -37.0200   24.8280 C   0  0  0  0  0  1  0  0  0  0  0  0
  -26.7490  -37.1960   23.8270 N   0  0  0  0  0  0  0  0  0  0  0  0
  -26.3730  -38.1370   23.9250 H   0  0  0  0  0  0  0  0  0  0  0  0
  1  6  1  0
  1 47  1  0
  3  5  1  0
  3  2  1  0
  4  8  1  0
  4  6  1  0
  4  3  1  0
  6  7  1  1
  6  2  1  0
  8 17  1  0
  9 15  1  0
 10 15  1  0
 11 12  1  0
 11 10  1  0
 13 12  1  0
 13 22  1  0
 13 14  1  0
 15 14  1  0
 16  9  2  0
 17  9  1  0
 17 18  1  0
 19 20  2  0
 20 39  1  0
 21 20  1  0
 21 24  1  0
 22 19  1  0
 22 23  1  0
 23 21  2  0
 24 25  1  0
 25 26  2  0
 27 30  1  0
 27 26  1  0
 28 27  2  0
 29 28  1  0
 29 24  2  0
 30 31  1  0
 31 36  2  0
 31 32  1  0
 32 33  2  0
 33 34  1  0
 34 38  1  0
 35 34  2  0
 36 35  1  0
 37 36  1  0
 39 40  1  0
 40 43  1  0
 40 42  1  0
 41 39  2  0
 44 45  1  0
 44 19  1  0
 46 44  1  0
 47 48  2  0
 49 47  1  0
 49 50  1  0
 51 62  2  0
 52 50  1  0
 52 57  1  0
 53 61  1  0
 53 63  1  0
 54 60  1  0
 54 56  1  0
 55 61  1  0
 56 55  1  0
 57 56  2  0
 58 52  2  0
 59 58  1  0
 59 54  2  0
 60 53  1  0
 61 51  1  0
 63 65  2  0
 64 63  1  0
 66 64  1  0
 67 76  2  0
 67 72  1  0
 68 64  1  0
 68 72  1  0
 69 68  1  0
 70 71  1  0
 70 69  1  0
 71 67  1  0
 72 73  2  0
 73 74  1  0
 75 74  2  0
 76 75  1  0
 77 51  1  0
 77 82  1  0
 77 78  1  0
 78 81  1  1
 78 79  1  0
 80 78  1  0
 82 85  1  0
 83 87  1  0
 83 82  1  0
 84 83  2  0
 87 86  1  0
 89 87  1  0
 89 90  1  0
 89 88  1  0
M  ISO  4   9 100  17 100  49 101  50 101
M  END
>  <TORSDO>  (50) 
F 20

>  <SCORE>  (50) 
-12.216

>  <name>  (50) 
49

>  <ligand_id>  (50) 
49

>  <original_smiles>  (50) 
[H]c1c([H])c([H])c2c(c1[H])C([H])([H])C([H])([H])C([H])([H])C2([H])N([H])C(=O)C1([H])N(C(=O)C([H])(N([H])C(=O)C([H])(N([H])C([H])([H])[H])C([H])([H])[H])C(C([H])([H])[H])(C([H])([H])[H])C([H])([H])[H])C([H])([H])c2c([H])c(OC([H])([H])C(=O)C([H])([H])[N+]3([H])C([H])([H])C([H])(C([H])([H])[H])C3([H])C([H])([H])N([H])C(=O)N3C([H])([H])C([H])([H])C([H])([H])C([H])(n4nc(-c5c([H])c([H])c(Oc6c([H])c([H])c(F)c([H])c6F)c([H])c5[H])c(C(=O)N([H])[H])c4N([H])[H])C3([H])[H])c([H])c([H])c2C1([H])[H]

>  <smiles>  (50) 
[H]c1c([H])c([H])c2c(c1[H])C([H])([H])C([H])([H])C([H])([H])C2([H])N([H])C(=O)C1([H])N(C(=O)C([H])(N([H])C(=O)C([H])(N([H])C([H])([H])[H])C([H])([H])[H])C(C([H])([H])[H])(C([H])([H])[H])C([H])([H])[H])C([H])([H])c2c([H])c(OC([H])([H])C(=O)C([H])([H])[N+]3([H])C([H])([H])C([H])(C([H])([H])[H])C3([H])C([H])([H])N([H])C(=O)N3C([H])([H])C([H])([H])C([H])([H])C([H])(n4nc(-c5c([H])c([H])c(Oc6c([H])c([H])c(F)c([H])c6F)c([H])c5[H])c(C(=O)N([H])[H])c4N([H])[H])C3([H])[H])c([H])c([H])c2C1([H])[H]

$$$$
50:0:0
     RDKit          3D

 95104  0  0  1  0  0  0  0  0999 V2000
  -28.3070  -19.2570   20.8120 C   0  0  0  0  0  2  0  0  0  0  0  0
  -27.8740  -20.7160   20.9200 C   0  0  0  0  0  2  0  0  0  0  0  0
  -29.6850  -19.7770   20.3860 C   0  0  0  0  0  3  0  0  0  0  0  0
  -28.9220  -21.0770   19.9600 N   0  0  2  0  0  4  0  0  0  0  0  0
  -28.5680  -20.9550   19.0230 H   0  0  0  0  0  0  0  0  0  0  0  0
  -31.3810  -17.0590   17.9280 C   0  0  0  0  0  3  0  0  0  0  0  0
  -32.1050  -19.2990   17.4400 C   0  0  0  0  0  3  0  0  0  0  0  0
  -30.5540  -18.9080   19.3510 C   0  0  0  0  0  0  0  0  0  0  0  0
  -30.7360  -17.4360   19.1470 C   0  0  0  0  0  0  0  0  0  0  0  0
  -32.0570  -17.9530   17.0950 C   0  0  0  0  0  0  0  0  0  0  0  0
  -31.3540  -19.7530   18.5270 C   0  0  0  0  0  0  0  0  0  0  0  0
  -32.7180  -17.5090   15.9970 F   0  0  0  0  0  0  0  0  0  0  0  0
  -31.4470  -21.0690   18.7920 F   0  0  0  0  0  0  0  0  0  0  0  0
  -31.0720  -15.0000   19.9560 C   0  0  0  0  0  0  0  0  0  0  0  0
  -30.8030  -12.6940   19.0550 C   0  0  0  0  0  2  0  0  0  0  0  0
  -29.8610  -12.7150   17.8350 C   0  0  0  0  0  2  0  0  0  0  0  0
  -28.3760  -12.6300   18.2500 C   0  0  0  0  0  2  0  0  0  0  0  0
  -28.0280  -13.5330   19.4690 C   0  0  0  0  0  3  0  0  0  0  0  0
  -29.0990  -13.4980   20.5790 C   0  0  0  0  0  2  0  0  0  0  0  0
  -30.3880  -13.8020   19.9500 N   0  0  0  0  0  0  0  0  0  0  0  0
  -32.2790  -14.9810   19.7010 O   0  0  0  0  0  0  0  0  0  0  0  0
  -30.3830  -16.2320   19.9700 N   0  0  0  0  0  0  0  0  0  0  0  0
  -29.4590  -16.2280   20.3750 H   0  0  0  0  0  0  0  0  0  0  0  0
  -25.6860  -14.1690   20.3040 C   0  0  0  0  0  0  0  0  0  0  0  0
  -24.6110  -13.4210   20.6960 C   0  0  0  0  0  0  0  0  0  0  0  0
  -25.0300  -12.0570   20.6200 C   0  0  0  0  0  0  0  0  0  0  0  0
  -26.6930  -13.2660   20.0010 N   0  0  0  0  0  0  0  0  0  0  0  0
  -26.3090  -11.9890   20.2580 N   0  0  0  0  0  0  0  0  0  0  0  0
  -24.2630  -10.8170   20.8130 C   0  0  0  0  0  0  0  0  0  0  0  0
  -24.6640   -9.8330   21.7460 C   0  0  0  0  0  3  0  0  0  0  0  0
  -23.9010   -8.6560   21.9170 C   0  0  0  0  0  3  0  0  0  0  0  0
  -22.7220   -8.4550   21.1560 C   0  0  0  0  0  0  0  0  0  0  0  0
  -22.3400   -9.4280   20.2140 C   0  0  0  0  0  3  0  0  0  0  0  0
  -23.1030  -10.5950   20.0410 C   0  0  0  0  0  3  0  0  0  0  0  0
  -21.9320   -7.3340   21.2430 O   0  0  0  0  0  0  0  0  0  0  0  0
  -21.8350   -6.6060   22.4030 C   0  0  0  0  0  0  0  0  0  0  0  0
  -21.3420   -7.1730   23.5980 C   0  0  0  0  0  3  0  0  0  0  0  0
  -21.1900   -6.3710   24.7470 C   0  0  0  0  0  3  0  0  0  0  0  0
  -21.5290   -5.0050   24.7020 C   0  0  0  0  0  0  0  0  0  0  0  0
  -22.0140   -4.4380   23.5110 C   0  0  0  0  0  3  0  0  0  0  0  0
  -22.1660   -5.2360   22.3660 C   0  0  0  0  0  0  0  0  0  0  0  0
  -22.6170   -4.6810   21.2130 F   0  0  0  0  0  0  0  0  0  0  0  0
  -21.3780   -4.2320   25.8040 F   0  0  0  0  0  0  0  0  0  0  0  0
  -23.2380  -13.9390   21.0210 C   0  0  0  0  0  0  0  0  0  0  0  0
  -22.5100  -13.2570   21.8970 N   0  0  0  0  0  0  0  0  0  0  0  0
  -22.8240  -14.9900   20.5320 O   0  0  0  0  0  0  0  0  0  0  0  0
  -22.8600  -12.4100   22.3210 H   0  0  0  0  0  0  0  0  0  0  0  0
  -21.5860  -13.5880   22.1470 H   0  0  0  0  0  0  0  0  0  0  0  0
  -25.8890  -15.5380   20.1540 N   0  0  0  0  0  0  0  0  0  0  0  0
  -25.1410  -16.2060   20.2990 H   0  0  0  0  0  0  0  0  0  0  0  0
  -26.7110  -15.9450   19.7260 H   0  0  0  0  0  0  0  0  0  0  0  0
  -29.4240  -22.5310   20.1640 C   0  0  0  0  0  2  0  0  0  0  0  0
  -28.3920  -23.8030   20.1330 C   0  0  0  0  0  2  0  0  0  0  0  0
  -28.8800  -25.2250   19.4990 C   0  0  0  0  0  2  0  0  0  0  0  0
  -28.6450  -26.6290   19.9860 O   0  0  0  0  0  0  0  0  0  0  0  0
  -24.6960  -31.7320   23.1390 C   0  0  0  0  0  0  0  0  0  0  0  0
  -27.4810  -27.4150   19.8780 C   0  0  0  0  0  0  0  0  0  0  0  0
  -23.5470  -30.3680   21.4280 C   0  0  0  0  0  3  0  0  0  0  0  0
  -25.0520  -28.9520   19.9080 C   0  0  0  0  0  0  0  0  0  0  0  0
  -26.0650  -30.8070   21.2460 C   0  0  0  0  0  2  0  0  0  0  0  0
  -26.1990  -29.4630   20.5250 C   0  0  0  0  0  0  0  0  0  0  0  0
  -27.4080  -28.7090   20.4950 C   0  0  0  0  0  3  0  0  0  0  0  0
  -26.3090  -26.9560   19.2350 C   0  0  0  0  0  3  0  0  0  0  0  0
  -25.1120  -27.7070   19.2510 C   0  0  0  0  0  3  0  0  0  0  0  0
  -23.7830  -29.7750   20.0110 C   0  0  0  0  0  2  0  0  0  0  0  0
  -24.7890  -30.9850   21.9970 N   0  0  0  0  0  0  0  0  0  0  0  0
  -23.6080  -31.9220   23.6980 O   0  0  0  0  0  0  0  0  0  0  0  0
  -22.9370  -29.2730   22.3370 C   0  0  0  0  0  0  0  0  0  0  0  0
  -21.6200  -29.0380   22.1990 N   0  0  0  0  0  0  0  0  0  0  0  0
  -23.6450  -28.6470   23.1280 O   0  0  0  0  0  0  0  0  0  0  0  0
  -21.1060  -29.5920   21.5310 H   0  0  0  0  0  0  0  0  0  0  0  0
  -18.3150  -27.6460   22.6480 C   0  0  0  0  0  0  0  0  0  0  0  0
  -20.8570  -28.0230   22.9260 C   0  0  0  0  0  3  0  0  0  0  0  0
  -21.0320  -26.6290   22.2800 C   0  0  0  0  0  2  0  0  0  0  0  0
  -19.9430  -26.3000   21.2520 C   0  0  0  0  0  2  0  0  0  0  0  0
  -18.5580  -26.3450   21.9000 C   0  0  0  0  0  2  0  0  0  0  0  0
  -19.3950  -28.4400   23.1180 C   0  0  0  0  0  0  0  0  0  0  0  0
  -19.1110  -29.6560   23.7760 C   0  0  0  0  0  3  0  0  0  0  0  0
  -17.7810  -30.0780   23.9700 C   0  0  0  0  0  3  0  0  0  0  0  0
  -16.7190  -29.2810   23.5150 C   0  0  0  0  0  3  0  0  0  0  0  0
  -16.9840  -28.0650   22.8590 C   0  0  0  0  0  3  0  0  0  0  0  0
  -25.9550  -32.3900   23.7890 C   0  0  0  0  0  3  0  0  0  0  0  0
  -26.4670  -31.6260   25.0700 C   0  0  1  0  0  0  0  0  0  0  0  0
  -25.3580  -31.3640   26.1150 C   0  0  0  0  0  1  0  0  0  0  0  0
  -27.0890  -30.2680   24.6790 C   0  0  0  0  0  1  0  0  0  0  0  0
  -27.5880  -32.4430   25.7540 C   0  0  0  0  0  1  0  0  0  0  0  0
  -25.6100  -33.7780   24.1300 N   0  0  0  0  0  0  0  0  0  0  0  0
  -25.9260  -34.8460   23.3840 C   0  0  0  0  0  0  0  0  0  0  0  0
  -26.6060  -34.7660   22.3570 O   0  0  0  0  0  0  0  0  0  0  0  0
  -25.0210  -33.9150   24.9400 H   0  0  0  0  0  0  0  0  0  0  0  0
  -24.1590  -36.5950   23.0210 C   0  0  0  0  0  1  0  0  0  0  0  0
  -25.3980  -36.2150   23.8480 C   0  0  0  0  0  3  0  0  0  0  0  0
  -27.4940  -37.1430   24.7320 C   0  0  0  0  0  1  0  0  0  0  0  0
  -26.4070  -37.2950   23.7660 N   0  0  0  0  0  0  0  0  0  0  0  0
  -25.9720  -38.2030   23.9210 H   0  0  0  0  0  0  0  0  0  0  0  0
  1  2  1  0
  3  8  1  0
  3  1  1  0
  4 52  1  0
  4  3  1  0
  4  2  1  0
  4  5  1  6
  6  9  1  0
  7 11  2  0
  9  8  2  0
  9 22  1  0
 10  7  1  0
 10  6  2  0
 11 13  1  0
 11  8  1  0
 12 10  1  0
 14 22  1  0
 15 20  1  0
 16 17  1  0
 16 15  1  0
 18 17  1  0
 18 27  1  0
 18 19  1  0
 20 14  1  0
 20 19  1  0
 21 14  2  0
 22 23  1  0
 24 25  2  0
 25 44  1  0
 26 25  1  0
 26 29  1  0
 27 28  1  0
 27 24  1  0
 28 26  2  0
 29 30  1  0
 30 31  2  0
 32 35  1  0
 32 31  1  0
 33 32  2  0
 34 33  1  0
 34 29  2  0
 35 36  1  0
 36 37  1  0
 37 38  2  0
 39 38  1  0
 39 43  1  0
 40 39  2  0
 41 36  2  0
 41 40  1  0
 42 41  1  0
 44 45  1  0
 45 48  1  0
 45 47  1  0
 46 44  2  0
 49 50  1  0
 49 24  1  0
 51 49  1  0
 53 52  1  0
 54 55  1  0
 54 53  1  0
 56 67  2  0
 57 55  1  0
 57 62  1  0
 58 66  1  0
 58 68  1  0
 59 65  1  0
 59 61  1  0
 60 66  1  0
 61 60  1  0
 62 61  2  0
 63 64  1  0
 63 57  2  0
 64 59  2  0
 65 58  1  0
 66 56  1  0
 68 70  2  0
 69 68  1  0
 71 69  1  0
 72 81  2  0
 72 77  1  0
 73 69  1  0
 73 77  1  0
 74 73  1  0
 75 76  1  0
 75 74  1  0
 76 72  1  0
 77 78  2  0
 78 79  1  0
 80 79  2  0
 81 80  1  0
 82 56  1  0
 82 87  1  0
 82 83  1  0
 83 86  1  1
 83 84  1  0
 85 83  1  0
 87 90  1  0
 88 92  1  0
 88 87  1  0
 89 88  2  0
 92 91  1  0
 94 92  1  0
 94 95  1  0
 94 93  1  0
M  ISO  4  14 100  22 100  54 101  55 101
M  END
>  <TORSDO>  (51) 
F 20

>  <SCORE>  (51) 
-12.693

>  <name>  (51) 
50

>  <ligand_id>  (51) 
50

>  <original_smiles>  (51) 
[H]c1c([H])c([H])c2c(c1[H])C([H])([H])C([H])([H])C([H])([H])C2([H])N([H])C(=O)C1([H])N(C(=O)C([H])(N([H])C(=O)C([H])(N([H])C([H])([H])[H])C([H])([H])[H])C(C([H])([H])[H])(C([H])([H])[H])C([H])([H])[H])C([H])([H])c2c([H])c(OC([H])([H])C([H])([H])C([H])([H])[N+]3([H])C([H])([H])C([H])([H])C3([H])c3c(F)c([H])c(F)c([H])c3N([H])C(=O)N3C([H])([H])C([H])([H])C([H])([H])C([H])(n4nc(-c5c([H])c([H])c(Oc6c([H])c([H])c(F)c([H])c6F)c([H])c5[H])c(C(=O)N([H])[H])c4N([H])[H])C3([H])[H])c([H])c([H])c2C1([H])[H]

>  <smiles>  (51) 
[H]c1c([H])c([H])c2c(c1[H])C([H])([H])C([H])([H])C([H])([H])C2([H])N([H])C(=O)C1([H])N(C(=O)C([H])(N([H])C(=O)C([H])(N([H])C([H])([H])[H])C([H])([H])[H])C(C([H])([H])[H])(C([H])([H])[H])C([H])([H])[H])C([H])([H])c2c([H])c(OC([H])([H])C([H])([H])C([H])([H])[N+]3([H])C([H])([H])C([H])([H])C3([H])c3c(F)c([H])c(F)c([H])c3N([H])C(=O)N3C([H])([H])C([H])([H])C([H])([H])C([H])(n4nc(-c5c([H])c([H])c(Oc6c([H])c([H])c(F)c([H])c6F)c([H])c5[H])c(C(=O)N([H])[H])c4N([H])[H])C3([H])[H])c([H])c([H])c2C1([H])[H]

$$$$
51:0:0
     RDKit          3D

 92100  0  0  1  0  0  0  0  0999 V2000
  -30.0930  -21.6440   19.8970 C   0  0  0  0  0  2  0  0  0  0  0  0
  -28.7710  -19.4130   20.5200 C   0  0  0  0  0  3  0  0  0  0  0  0
  -28.7470  -17.9920   20.6850 C   0  0  0  0  0  3  0  0  0  0  0  0
  -31.0920  -17.8640   20.1880 C   0  0  0  0  0  3  0  0  0  0  0  0
  -29.9650  -20.0980   20.1810 C   0  0  0  0  0  0  0  0  0  0  0  0
  -29.8980  -17.1700   20.5150 C   0  0  0  0  0  0  0  0  0  0  0  0
  -31.1180  -19.2800   20.0270 C   0  0  0  0  0  0  0  0  0  0  0  0
  -32.2960  -19.8620   19.6960 F   0  0  0  0  0  0  0  0  0  0  0  0
  -30.5860  -14.6620   20.3240 C   0  0  0  0  0  0  0  0  0  0  0  0
  -30.3620  -12.4310   19.2500 C   0  0  0  0  0  2  0  0  0  0  0  0
  -29.4080  -12.5780   18.0450 C   0  0  0  0  0  2  0  0  0  0  0  0
  -27.9400  -12.4120   18.4850 C   0  0  0  0  0  2  0  0  0  0  0  0
  -27.5940  -13.2600   19.7380 C   0  0  0  0  0  3  0  0  0  0  0  0
  -28.6620  -13.0970   20.8420 C   0  0  0  0  0  2  0  0  0  0  0  0
  -29.9680  -13.4400   20.2530 N   0  0  0  0  0  0  0  0  0  0  0  0
  -31.7480  -14.8110   19.9310 O   0  0  0  0  0  0  0  0  0  0  0  0
  -29.7820  -15.7150   20.6820 N   0  0  0  0  0  0  0  0  0  0  0  0
  -28.8750  -15.4090   20.9980 H   0  0  0  0  0  0  0  0  0  0  0  0
  -25.2070  -13.8530   20.4820 C   0  0  0  0  0  0  0  0  0  0  0  0
  -24.1460  -13.0790   20.8630 C   0  0  0  0  0  0  0  0  0  0  0  0
  -24.6100  -11.7280   20.8260 C   0  0  0  0  0  0  0  0  0  0  0  0
  -26.2500  -12.9750   20.2340 N   0  0  0  0  0  0  0  0  0  0  0  0
  -25.8980  -11.6910   20.5020 N   0  0  0  0  0  0  0  0  0  0  0  0
  -23.8880  -10.4630   21.0240 C   0  0  0  0  0  0  0  0  0  0  0  0
  -24.3300   -9.4960   21.9530 C   0  0  0  0  0  3  0  0  0  0  0  0
  -23.6090   -8.2980   22.1370 C   0  0  0  0  0  3  0  0  0  0  0  0
  -22.4320   -8.0550   21.3890 C   0  0  0  0  0  0  0  0  0  0  0  0
  -22.0100   -9.0100   20.4490 C   0  0  0  0  0  3  0  0  0  0  0  0
  -22.7310  -10.2020   20.2630 C   0  0  0  0  0  3  0  0  0  0  0  0
  -21.6820   -6.9080   21.4840 O   0  0  0  0  0  0  0  0  0  0  0  0
  -21.6410   -6.1680   22.6380 C   0  0  0  0  0  0  0  0  0  0  0  0
  -21.2130   -6.7220   23.8640 C   0  0  0  0  0  3  0  0  0  0  0  0
  -21.1180   -5.9070   25.0110 C   0  0  0  0  0  3  0  0  0  0  0  0
  -21.4410   -4.5390   24.9320 C   0  0  0  0  0  0  0  0  0  0  0  0
  -21.8610   -3.9850   23.7110 C   0  0  0  0  0  3  0  0  0  0  0  0
  -21.9590   -4.7950   22.5670 C   0  0  0  0  0  0  0  0  0  0  0  0
  -22.3450   -4.2520   21.3870 F   0  0  0  0  0  0  0  0  0  0  0  0
  -21.3430   -3.7540   26.0300 F   0  0  0  0  0  0  0  0  0  0  0  0
  -22.7510  -13.5540   21.1490 C   0  0  0  0  0  0  0  0  0  0  0  0
  -22.0300  -12.8550   22.0200 N   0  0  0  0  0  0  0  0  0  0  0  0
  -22.3070  -14.5800   20.6360 O   0  0  0  0  0  0  0  0  0  0  0  0
  -22.4000  -12.0260   22.4610 H   0  0  0  0  0  0  0  0  0  0  0  0
  -21.0930  -13.1560   22.2510 H   0  0  0  0  0  0  0  0  0  0  0  0
  -25.3650  -15.2240   20.3030 N   0  0  0  0  0  0  0  0  0  0  0  0
  -24.5860  -15.8650   20.4010 H   0  0  0  0  0  0  0  0  0  0  0  0
  -26.1890  -15.6620   19.9120 H   0  0  0  0  0  0  0  0  0  0  0  0
  -29.2420  -24.0320   20.1650 C   0  0  0  0  0  0  0  0  0  0  0  0
  -29.0660  -22.6720   20.2810 N   0  0  0  0  0  0  0  0  0  0  0  0
  -30.3360  -24.4960   19.8360 O   0  0  0  0  0  0  0  0  0  0  0  0
  -28.1540  -22.3390   20.5650 H   0  0  0  0  0  0  0  0  0  0  0  0
  -28.0440  -25.0250   20.4090 C   0  0  0  0  0  2  0  0  0  0  0  0
  -28.3200  -26.4710   20.1830 O   0  0  0  0  0  0  0  0  0  0  0  0
  -24.6270  -31.8890   23.2370 C   0  0  0  0  0  0  0  0  0  0  0  0
  -27.2090  -27.3320   20.1550 C   0  0  0  0  0  0  0  0  0  0  0  0
  -23.4130  -30.5000   21.5980 C   0  0  0  0  0  3  0  0  0  0  0  0
  -24.8520  -28.9530   20.1610 C   0  0  0  0  0  0  0  0  0  0  0  0
  -25.9520  -30.8080   21.4090 C   0  0  0  0  0  2  0  0  0  0  0  0
  -26.0240  -29.4310   20.7610 C   0  0  0  0  0  0  0  0  0  0  0  0
  -27.2060  -28.6300   20.7540 C   0  0  0  0  0  3  0  0  0  0  0  0
  -26.0190  -26.9210   19.5130 C   0  0  0  0  0  3  0  0  0  0  0  0
  -24.8510  -27.7040   19.5280 C   0  0  0  0  0  3  0  0  0  0  0  0
  -23.6210  -29.8320   20.2130 C   0  0  0  0  0  2  0  0  0  0  0  0
  -24.6830  -31.0830   22.1370 N   0  0  0  0  0  0  0  0  0  0  0  0
  -23.5460  -32.1690   23.7750 O   0  0  0  0  0  0  0  0  0  0  0  0
  -22.7520  -29.4800   22.5550 C   0  0  0  0  0  0  0  0  0  0  0  0
  -21.4240  -29.3070   22.4320 N   0  0  0  0  0  0  0  0  0  0  0  0
  -23.4300  -28.8480   23.3690 O   0  0  0  0  0  0  0  0  0  0  0  0
  -20.9350  -29.8680   21.7480 H   0  0  0  0  0  0  0  0  0  0  0  0
  -18.0440  -28.1240   22.9410 C   0  0  0  0  0  0  0  0  0  0  0  0
  -20.6050  -28.3710   23.2050 C   0  0  0  0  0  3  0  0  0  0  0  0
  -20.6990  -26.9410   22.6270 C   0  0  0  0  0  2  0  0  0  0  0  0
  -19.5930  -26.6240   21.6160 C   0  0  0  0  0  2  0  0  0  0  0  0
  -18.2130  -26.7740   22.2650 C   0  0  0  0  0  2  0  0  0  0  0  0
  -19.1670  -28.8810   23.3690 C   0  0  0  0  0  0  0  0  0  0  0  0
  -18.9550  -30.1440   23.9640 C   0  0  0  0  0  3  0  0  0  0  0  0
  -17.6520  -30.6490   24.1350 C   0  0  0  0  0  3  0  0  0  0  0  0
  -16.5440  -29.8900   23.7200 C   0  0  0  0  0  3  0  0  0  0  0  0
  -16.7410  -28.6290   23.1290 C   0  0  0  0  0  3  0  0  0  0  0  0
  -25.9150  -32.5150   23.8550 C   0  0  0  0  0  3  0  0  0  0  0  0
  -26.4350  -31.7360   25.1250 C   0  0  1  0  0  0  0  0  0  0  0  0
  -25.3470  -31.4960   26.1970 C   0  0  0  0  0  1  0  0  0  0  0  0
  -27.0120  -30.3580   24.7240 C   0  0  0  0  0  1  0  0  0  0  0  0
  -27.5920  -32.5220   25.7850 C   0  0  0  0  0  1  0  0  0  0  0  0
  -25.6090  -33.9120   24.1950 N   0  0  0  0  0  0  0  0  0  0  0  0
  -25.9300  -34.9670   23.4340 C   0  0  0  0  0  0  0  0  0  0  0  0
  -26.5850  -34.8670   22.3930 O   0  0  0  0  0  0  0  0  0  0  0  0
  -25.0290  -34.0640   25.0070 H   0  0  0  0  0  0  0  0  0  0  0  0
  -24.1970  -36.7600   23.1090 C   0  0  0  0  0  1  0  0  0  0  0  0
  -25.4500  -36.3550   23.9020 C   0  0  0  0  0  3  0  0  0  0  0  0
  -27.5960  -37.2380   24.7040 C   0  0  0  0  0  1  0  0  0  0  0  0
  -26.4800  -37.4070   23.7760 N   0  0  0  0  0  0  0  0  0  0  0  0
  -26.0760  -38.3270   23.9320 H   0  0  0  0  0  0  0  0  0  0  0  0
  1  5  1  0
  1 48  1  0
  2  3  1  0
  4  6  1  0
  5  2  2  0
  6 17  1  0
  6  3  2  0
  7  5  1  0
  7  4  2  0
  8  7  1  0
  9 17  1  0
 10 15  1  0
 11 12  1  0
 11 10  1  0
 13 12  1  0
 13 22  1  0
 13 14  1  0
 15  9  1  0
 15 14  1  0
 16  9  2  0
 17 18  1  0
 19 20  2  0
 20 39  1  0
 21 20  1  0
 21 24  1  0
 22 19  1  0
 22 23  1  0
 23 21  2  0
 24 25  1  0
 25 26  2  0
 27 30  1  0
 27 26  1  0
 28 27  2  0
 29 28  1  0
 29 24  2  0
 30 31  1  0
 31 32  1  0
 32 33  2  0
 34 33  1  0
 34 38  1  0
 35 34  2  0
 36 31  2  0
 36 35  1  0
 37 36  1  0
 39 40  1  0
 40 43  1  0
 40 42  1  0
 41 39  2  0
 44 45  1  0
 44 19  1  0
 46 44  1  0
 47 48  1  0
 47 51  1  0
 48 50  1  0
 49 47  2  0
 52 51  1  0
 53 64  2  0
 54 52  1  0
 54 59  1  0
 55 63  1  0
 55 65  1  0
 56 62  1  0
 56 58  1  0
 57 63  1  0
 58 57  1  0
 59 58  2  0
 60 61  1  0
 60 54  2  0
 61 56  2  0
 62 55  1  0
 63 53  1  0
 65 67  2  0
 66 65  1  0
 68 66  1  0
 69 78  2  0
 69 74  1  0
 70 66  1  0
 70 74  1  0
 71 70  1  0
 72 73  1  0
 72 71  1  0
 73 69  1  0
 74 75  2  0
 75 76  1  0
 77 76  2  0
 78 77  1  0
 79 53  1  0
 79 84  1  0
 79 80  1  0
 80 83  1  1
 80 81  1  0
 82 80  1  0
 84 87  1  0
 85 89  1  0
 85 84  1  0
 86 85  2  0
 89 88  1  0
 91 89  1  0
 91 92  1  0
 91 90  1  0
M  ISO  4   9 100  17 100  51 101  52 101
M  END
>  <TORSDO>  (52) 
F 19

>  <SCORE>  (52) 
-14.298

>  <name>  (52) 
51

>  <ligand_id>  (52) 
51

>  <original_smiles>  (52) 
[H]c1c([H])c([H])c2c(c1[H])C([H])([H])C([H])([H])C([H])([H])C2([H])N([H])C(=O)C1([H])N(C(=O)C([H])(N([H])C(=O)C([H])(N([H])C([H])([H])[H])C([H])([H])[H])C(C([H])([H])[H])(C([H])([H])[H])C([H])([H])[H])C([H])([H])c2c([H])c(OC([H])([H])C(=O)N([H])C([H])([H])c3c([H])c([H])c(N([H])C(=O)N4C([H])([H])C([H])([H])C([H])([H])C([H])(n5nc(-c6c([H])c([H])c(Oc7c([H])c([H])c(F)c([H])c7F)c([H])c6[H])c(C(=O)N([H])[H])c5N([H])[H])C4([H])[H])c([H])c3F)c([H])c([H])c2C1([H])[H]

>  <smiles>  (52) 
[H]c1c([H])c([H])c2c(c1[H])C([H])([H])C([H])([H])C([H])([H])C2([H])N([H])C(=O)C1([H])N(C(=O)C([H])(N([H])C(=O)C([H])(N([H])C([H])([H])[H])C([H])([H])[H])C(C([H])([H])[H])(C([H])([H])[H])C([H])([H])[H])C([H])([H])c2c([H])c(OC([H])([H])C(=O)N([H])C([H])([H])c3c([H])c([H])c(N([H])C(=O)N4C([H])([H])C([H])([H])C([H])([H])C([H])(n5nc(-c6c([H])c([H])c(Oc7c([H])c([H])c(F)c([H])c7F)c([H])c6[H])c(C(=O)N([H])[H])c5N([H])[H])C4([H])[H])c([H])c3F)c([H])c([H])c2C1([H])[H]

$$$$
52:0:0
     RDKit          3D

 89 97  0  0  1  0  0  0  0  0999 V2000
  -29.2250  -22.6950   19.7440 C   0  0  0  0  0  0  0  0  0  0  0  0
  -27.0510  -20.1750   19.5310 C   0  0  0  0  0  2  0  0  0  0  0  0
  -28.0510  -19.1130   19.0690 C   0  0  0  0  0  2  0  0  0  0  0  0
  -27.8120  -20.8440   20.6680 C   0  0  0  0  0  2  0  0  0  0  0  0
  -29.4650  -19.6980   19.3390 C   0  0  0  0  0  3  0  0  0  0  0  0
  -29.0690  -21.2170   20.0230 N   0  0  0  0  0  0  0  0  0  0  0  0
  -30.2310  -22.9920   19.0950 O   0  0  0  0  0  0  0  0  0  0  0  0
  -30.9540  -15.4860   19.7530 C   0  0  0  0  0  0  0  0  0  0  0  0
  -30.8440  -13.0010   18.9650 C   0  0  0  0  0  2  0  0  0  0  0  0
  -29.8780  -12.7070   17.7940 C   0  0  0  0  0  2  0  0  0  0  0  0
  -28.4470  -12.4750   18.3110 C   0  0  0  0  0  2  0  0  0  0  0  0
  -28.0510  -13.5160   19.3830 C   0  0  0  0  0  3  0  0  0  0  0  0
  -29.1400  -13.7340   20.4530 C   0  0  0  0  0  2  0  0  0  0  0  0
  -30.3330  -14.2010   19.7320 N   0  0  0  0  0  0  0  0  0  0  0  0
  -32.1730  -15.3990   19.5480 O   0  0  0  0  0  0  0  0  0  0  0  0
  -30.4770  -18.3100   19.8000 C   0  0  0  0  0  0  0  0  0  0  0  0
  -30.2790  -16.8220   19.8440 N   0  0  0  0  0  0  0  0  0  0  0  0
  -31.6020  -18.6620   20.1560 O   0  0  0  0  0  0  0  0  0  0  0  0
  -31.1150  -16.9670   20.3960 H   0  0  0  0  0  0  0  0  0  0  0  0
  -25.7590  -14.1750   20.2680 C   0  0  0  0  0  0  0  0  0  0  0  0
  -24.6740  -13.4450   20.6630 C   0  0  0  0  0  0  0  0  0  0  0  0
  -25.0680  -12.0730   20.5820 C   0  0  0  0  0  0  0  0  0  0  0  0
  -26.7410  -13.2540   19.9550 N   0  0  0  0  0  0  0  0  0  0  0  0
  -26.3420  -11.9810   20.2130 N   0  0  0  0  0  0  0  0  0  0  0  0
  -24.2860  -10.8450   20.7740 C   0  0  0  0  0  0  0  0  0  0  0  0
  -24.6830   -9.8540   21.6980 C   0  0  0  0  0  3  0  0  0  0  0  0
  -23.9000   -8.6930   21.8840 C   0  0  0  0  0  3  0  0  0  0  0  0
  -22.7060   -8.5170   21.1440 C   0  0  0  0  0  0  0  0  0  0  0  0
  -22.3290   -9.4950   20.2080 C   0  0  0  0  0  3  0  0  0  0  0  0
  -23.1130  -10.6460   20.0210 C   0  0  0  0  0  3  0  0  0  0  0  0
  -21.8960   -7.4110   21.2380 O   0  0  0  0  0  0  0  0  0  0  0  0
  -21.7960   -6.6910   22.4000 C   0  0  0  0  0  0  0  0  0  0  0  0
  -21.3440   -7.2770   23.6020 C   0  0  0  0  0  3  0  0  0  0  0  0
  -21.1870   -6.4850   24.7580 C   0  0  0  0  0  3  0  0  0  0  0  0
  -21.4690   -5.1060   24.7110 C   0  0  0  0  0  0  0  0  0  0  0  0
  -21.9130   -4.5190   23.5130 C   0  0  0  0  0  3  0  0  0  0  0  0
  -22.0680   -5.3080   22.3600 C   0  0  0  0  0  0  0  0  0  0  0  0
  -22.4760   -4.7340   21.2020 F   0  0  0  0  0  0  0  0  0  0  0  0
  -21.3100   -4.3420   25.8170 F   0  0  0  0  0  0  0  0  0  0  0  0
  -23.3190  -13.9870   21.0030 C   0  0  0  0  0  0  0  0  0  0  0  0
  -22.5990  -13.3190   21.8980 N   0  0  0  0  0  0  0  0  0  0  0  0
  -22.9080  -15.0370   20.5110 O   0  0  0  0  0  0  0  0  0  0  0  0
  -22.9460  -12.4680   22.3160 H   0  0  0  0  0  0  0  0  0  0  0  0
  -21.6910  -13.6640   22.1700 H   0  0  0  0  0  0  0  0  0  0  0  0
  -25.9900  -15.5420   20.1150 N   0  0  0  0  0  0  0  0  0  0  0  0
  -25.2760  -16.2370   20.3040 H   0  0  0  0  0  0  0  0  0  0  0  0
  -26.8660  -15.9430   19.8060 H   0  0  0  0  0  0  0  0  0  0  0  0
  -28.1750  -24.1110   20.1040 C   0  0  0  0  0  2  0  0  0  0  0  0
  -28.4540  -25.7790   20.1200 O   0  0  0  0  0  0  0  0  0  0  0  0
  -24.6800  -31.7210   23.0900 C   0  0  0  0  0  0  0  0  0  0  0  0
  -27.4340  -26.8970   20.0860 C   0  0  0  0  0  0  0  0  0  0  0  0
  -23.5690  -30.3050   21.4190 C   0  0  0  0  0  3  0  0  0  0  0  0
  -25.0950  -28.7590   20.0080 C   0  0  0  0  0  0  0  0  0  0  0  0
  -26.1340  -30.5880   21.3240 C   0  0  0  0  0  2  0  0  0  0  0  0
  -26.2640  -29.1820   20.6530 C   0  0  0  0  0  0  0  0  0  0  0  0
  -27.4290  -28.2760   20.6570 C   0  0  0  0  0  3  0  0  0  0  0  0
  -26.2330  -26.6520   19.3830 C   0  0  0  0  0  3  0  0  0  0  0  0
  -25.1090  -27.5210   19.3470 C   0  0  0  0  0  3  0  0  0  0  0  0
  -23.8500  -29.6470   20.0400 C   0  0  0  0  0  2  0  0  0  0  0  0
  -24.8170  -30.8980   21.9990 N   0  0  0  0  0  0  0  0  0  0  0  0
  -23.5700  -31.9720   23.5900 O   0  0  0  0  0  0  0  0  0  0  0  0
  -22.8890  -29.2760   22.3610 C   0  0  0  0  0  0  0  0  0  0  0  0
  -21.5640  -29.0820   22.2250 N   0  0  0  0  0  0  0  0  0  0  0  0
  -23.5630  -28.6510   23.1850 O   0  0  0  0  0  0  0  0  0  0  0  0
  -21.0710  -29.6360   21.5390 H   0  0  0  0  0  0  0  0  0  0  0  0
  -18.2090  -27.7730   22.6950 C   0  0  0  0  0  0  0  0  0  0  0  0
  -20.7620  -28.1020   22.9640 C   0  0  0  0  0  3  0  0  0  0  0  0
  -20.9020  -26.6890   22.3530 C   0  0  0  0  0  2  0  0  0  0  0  0
  -19.8060  -26.3580   21.3330 C   0  0  0  0  0  2  0  0  0  0  0  0
  -18.4220  -26.4450   21.9870 C   0  0  0  0  0  2  0  0  0  0  0  0
  -19.3070  -28.5560   23.1430 C   0  0  0  0  0  0  0  0  0  0  0  0
  -19.0500  -29.7930   23.7730 C   0  0  0  0  0  3  0  0  0  0  0  0
  -17.7310  -30.2490   23.9540 C   0  0  0  0  0  3  0  0  0  0  0  0
  -16.6500  -29.4650   23.5200 C   0  0  0  0  0  3  0  0  0  0  0  0
  -16.8870  -28.2290   22.8950 C   0  0  0  0  0  3  0  0  0  0  0  0
  -25.9110  -32.4070   23.7570 C   0  0  0  0  0  3  0  0  0  0  0  0
  -25.5360  -33.7940   24.0890 N   0  0  0  0  0  0  0  0  0  0  0  0
  -25.8600  -34.8780   23.3700 C   0  0  0  0  0  0  0  0  0  0  0  0
  -26.5670  -34.8140   22.3600 O   0  0  0  0  0  0  0  0  0  0  0  0
  -24.9070  -33.9120   24.8710 H   0  0  0  0  0  0  0  0  0  0  0  0
  -24.0860  -36.6280   23.0050 C   0  0  0  0  0  1  0  0  0  0  0  0
  -25.3170  -36.2440   23.8380 C   0  0  0  0  0  3  0  0  0  0  0  0
  -27.3930  -37.1890   24.7510 C   0  0  0  0  0  1  0  0  0  0  0  0
  -26.3190  -37.3300   23.7730 N   0  0  0  0  0  0  0  0  0  0  0  0
  -25.8800  -38.2370   23.9090 H   0  0  0  0  0  0  0  0  0  0  0  0
  -26.4110  -31.6570   25.0540 C   0  0  1  0  0  0  0  0  0  0  0  0
  -25.2850  -31.3710   26.0770 C   0  0  0  0  0  1  0  0  0  0  0  0
  -27.0640  -30.3050   24.6890 C   0  0  0  0  0  1  0  0  0  0  0  0
  -27.5020  -32.4970   25.7580 C   0  0  0  0  0  1  0  0  0  0  0  0
  1  6  1  0
  1 48  1  0
  2  4  1  0
  3  5  1  0
  3  2  1  0
  5 16  1  0
  5  6  1  0
  6  4  1  0
  7  1  2  0
  8 17  1  0
  9 14  1  0
 10 11  1  0
 10  9  1  0
 12 11  1  0
 12 23  1  0
 12 13  1  0
 14  8  1  0
 14 13  1  0
 15  8  2  0
 16 17  1  0
 16 18  2  0
 17 19  1  0
 20 21  2  0
 21 40  1  0
 22 21  1  0
 22 25  1  0
 23 24  1  0
 23 20  1  0
 24 22  2  0
 25 26  1  0
 26 27  2  0
 28 31  1  0
 28 27  1  0
 29 28  2  0
 30 29  1  0
 30 25  2  0
 31 32  1  0
 32 33  1  0
 33 34  2  0
 35 34  1  0
 35 39  1  0
 36 35  2  0
 37 32  2  0
 37 36  1  0
 38 37  1  0
 40 41  1  0
 41 44  1  0
 41 43  1  0
 42 40  2  0
 45 20  1  0
 45 46  1  0
 47 45  1  0
 48 49  1  0
 50 61  2  0
 51 49  1  0
 51 56  1  0
 52 60  1  0
 52 62  1  0
 53 59  1  0
 53 55  1  0
 54 60  1  0
 55 56  2  0
 55 54  1  0
 57 51  2  0
 58 57  1  0
 58 53  2  0
 59 52  1  0
 60 50  1  0
 62 64  2  0
 63 62  1  0
 65 63  1  0
 66 75  2  0
 66 71  1  0
 67 63  1  0
 67 71  1  0
 68 67  1  0
 69 70  1  0
 69 68  1  0
 70 66  1  0
 71 72  2  0
 72 73  1  0
 74 73  2  0
 75 74  1  0
 76 50  1  0
 76 77  1  0
 76 86  1  0
 77 80  1  0
 78 82  1  0
 78 77  1  0
 79 78  2  0
 82 81  1  0
 84 82  1  0
 84 85  1  0
 84 83  1  0
 86 89  1  1
 86 87  1  0
 88 86  1  0
M  ISO  4   8 100  17 100  48 101  49 101
M  END
>  <TORSDO>  (53) 
F 17

>  <SCORE>  (53) 
-15.527

>  <name>  (53) 
52

>  <ligand_id>  (53) 
52

>  <original_smiles>  (53) 
[H]c1c([H])c([H])c2c(c1[H])C([H])([H])C([H])([H])C([H])([H])C2([H])N([H])C(=O)C1([H])N(C(=O)C([H])(N([H])C(=O)C([H])(N([H])C([H])([H])[H])C([H])([H])[H])C(C([H])([H])[H])(C([H])([H])[H])C([H])([H])[H])C([H])([H])c2c([H])c(OC([H])([H])C(=O)N3C([H])([H])C([H])([H])C([H])([H])C3([H])C(=O)N([H])C(=O)N3C([H])([H])C([H])([H])C([H])([H])C([H])(n4nc(-c5c([H])c([H])c(Oc6c([H])c([H])c(F)c([H])c6F)c([H])c5[H])c(C(=O)N([H])[H])c4N([H])[H])C3([H])[H])c([H])c([H])c2C1([H])[H]

>  <smiles>  (53) 
[H]c1c([H])c([H])c2c(c1[H])C([H])([H])C([H])([H])C([H])([H])C2([H])N([H])C(=O)C1([H])N(C(=O)C([H])(N([H])C(=O)C([H])(N([H])C([H])([H])[H])C([H])([H])[H])C(C([H])([H])[H])(C([H])([H])[H])C([H])([H])[H])C([H])([H])c2c([H])c(OC([H])([H])C(=O)N3C([H])([H])C([H])([H])C([H])([H])C3([H])C(=O)N([H])C(=O)N3C([H])([H])C([H])([H])C([H])([H])C([H])(n4nc(-c5c([H])c([H])c(Oc6c([H])c([H])c(F)c([H])c6F)c([H])c5[H])c(C(=O)N([H])[H])c4N([H])[H])C3([H])[H])c([H])c([H])c2C1([H])[H]

$$$$
53:0:0
     RDKit          3D

 96105  0  0  1  0  0  0  0  0999 V2000
  -29.0930  -23.8250   20.5450 C   0  0  0  0  0  2  0  0  0  0  0  0
  -31.1000  -25.1110   20.6300 C   0  0  0  0  0  2  0  0  0  0  0  0
  -29.7090  -25.0290   21.2610 C   0  0  0  0  0  3  0  0  0  0  0  0
  -30.2830  -22.8460   20.4530 C   0  0  0  0  0  3  0  0  0  0  0  0
  -32.6770  -23.2330   21.0140 C   0  0  0  0  0  1  0  0  0  0  0  0
  -31.4790  -23.7160   20.2880 N   0  0  2  0  0  4  0  0  0  0  0  0
  -31.7150  -23.7260   19.3080 H   0  0  0  0  0  0  0  0  0  0  0  0
  -28.8920  -26.3380   21.2710 C   0  0  0  0  0  2  0  0  0  0  0  0
  -28.4840  -26.7640   19.9700 O   0  0  0  0  0  0  0  0  0  0  0  0
  -24.6340  -31.7820   23.2370 C   0  0  0  0  0  0  0  0  0  0  0  0
  -27.3300  -27.5110   19.9950 C   0  0  0  0  0  0  0  0  0  0  0  0
  -23.4320  -30.4080   21.5660 C   0  0  0  0  0  3  0  0  0  0  0  0
  -24.8990  -28.9430   20.0780 C   0  0  0  0  0  0  0  0  0  0  0  0
  -25.9420  -30.8290   21.3470 C   0  0  0  0  0  2  0  0  0  0  0  0
  -26.0480  -29.4790   20.6720 C   0  0  0  0  0  0  0  0  0  0  0  0
  -27.2650  -28.7670   20.6380 C   0  0  0  0  0  3  0  0  0  0  0  0
  -26.1740  -26.9860   19.3870 C   0  0  0  0  0  3  0  0  0  0  0  0
  -24.9550  -27.6920   19.4320 C   0  0  0  0  0  3  0  0  0  0  0  0
  -23.6360  -29.7700   20.1630 C   0  0  0  0  0  2  0  0  0  0  0  0
  -24.6870  -31.0200   22.1090 N   0  0  0  0  0  0  0  0  0  0  0  0
  -23.5570  -32.0200   23.7990 O   0  0  0  0  0  0  0  0  0  0  0  0
  -22.8100  -29.3490   22.5050 C   0  0  0  0  0  0  0  0  0  0  0  0
  -21.4990  -29.1060   22.3480 N   0  0  0  0  0  0  0  0  0  0  0  0
  -23.5060  -28.7490   23.3280 O   0  0  0  0  0  0  0  0  0  0  0  0
  -20.9970  -29.6480   21.6570 H   0  0  0  0  0  0  0  0  0  0  0  0
  -18.1930  -27.6960   22.7010 C   0  0  0  0  0  0  0  0  0  0  0  0
  -20.7120  -28.1250   23.0930 C   0  0  0  0  0  3  0  0  0  0  0  0
  -20.9360  -26.6990   22.5420 C   0  0  0  0  0  2  0  0  0  0  0  0
  -19.9080  -26.2930   21.4800 C   0  0  0  0  0  2  0  0  0  0  0  0
  -18.4900  -26.3540   22.0550 C   0  0  0  0  0  2  0  0  0  0  0  0
  -19.2360  -28.5350   23.1740 C   0  0  0  0  0  0  0  0  0  0  0  0
  -18.9060  -29.7890   23.7330 C   0  0  0  0  0  3  0  0  0  0  0  0
  -17.5640  -30.2030   23.8300 C   0  0  0  0  0  3  0  0  0  0  0  0
  -16.5350  -29.3620   23.3750 C   0  0  0  0  0  3  0  0  0  0  0  0
  -16.8490  -28.1120   22.8140 C   0  0  0  0  0  3  0  0  0  0  0  0
  -25.9190  -32.4140   23.8590 C   0  0  0  0  0  3  0  0  0  0  0  0
  -26.4510  -31.6300   25.1210 C   0  0  1  0  0  0  0  0  0  0  0  0
  -25.3670  -31.3700   26.1940 C   0  0  0  0  0  1  0  0  0  0  0  0
  -27.0410  -30.2630   24.7040 C   0  0  0  0  0  1  0  0  0  0  0  0
  -27.6010  -32.4240   25.7860 C   0  0  0  0  0  1  0  0  0  0  0  0
  -25.6050  -33.8070   24.2050 N   0  0  0  0  0  0  0  0  0  0  0  0
  -25.9160  -34.8660   23.4470 C   0  0  0  0  0  0  0  0  0  0  0  0
  -26.5690  -34.7760   22.4040 O   0  0  0  0  0  0  0  0  0  0  0  0
  -25.0220  -33.9500   25.0170 H   0  0  0  0  0  0  0  0  0  0  0  0
  -24.1580  -36.6360   23.1390 C   0  0  0  0  0  1  0  0  0  0  0  0
  -25.4220  -36.2470   23.9200 C   0  0  0  0  0  3  0  0  0  0  0  0
  -27.5650  -37.1540   24.7030 C   0  0  0  0  0  1  0  0  0  0  0  0
  -26.4380  -37.3140   23.7880 N   0  0  0  0  0  0  0  0  0  0  0  0
  -26.0240  -38.2270   23.9520 H   0  0  0  0  0  0  0  0  0  0  0  0
  -30.1970  -21.7740   19.3320 C   0  0  0  0  0  2  0  0  0  0  0  0
  -27.7840  -21.1510   19.0000 C   0  0  0  0  0  1  0  0  0  0  0  0
  -29.1120  -20.7980   19.5020 N   0  0  0  0  0  0  0  0  0  0  0  0
  -28.6250  -17.0960   19.9470 C   0  0  0  0  0  3  0  0  0  0  0  0
  -30.7230  -17.7160   20.9960 C   0  0  0  0  0  3  0  0  0  0  0  0
  -28.4260  -18.4310   19.5520 C   0  0  0  0  0  3  0  0  0  0  0  0
  -30.5140  -19.0620   20.6070 C   0  0  0  0  0  3  0  0  0  0  0  0
  -29.7730  -16.7240   20.6710 C   0  0  0  0  0  0  0  0  0  0  0  0
  -29.3580  -19.4490   19.8800 C   0  0  0  0  0  0  0  0  0  0  0  0
  -30.5950  -14.4270   20.5080 C   0  0  0  0  0  0  0  0  0  0  0  0
  -30.3470  -12.2550   19.3690 C   0  0  0  0  0  2  0  0  0  0  0  0
  -29.3940  -12.4500   18.1720 C   0  0  0  0  0  2  0  0  0  0  0  0
  -27.9240  -12.2790   18.6060 C   0  0  0  0  0  2  0  0  0  0  0  0
  -27.5770  -13.1070   19.8720 C   0  0  0  0  0  3  0  0  0  0  0  0
  -28.6410  -12.8970   20.9730 C   0  0  0  0  0  2  0  0  0  0  0  0
  -29.9630  -13.2260   20.4050 N   0  0  0  0  0  0  0  0  0  0  0  0
  -31.6950  -14.6610   19.9970 O   0  0  0  0  0  0  0  0  0  0  0  0
  -29.8860  -15.3840   21.1300 N   0  0  0  0  0  0  0  0  0  0  0  0
  -29.0510  -15.0120   21.5540 H   0  0  0  0  0  0  0  0  0  0  0  0
  -25.1660  -13.6800   20.5800 C   0  0  0  0  0  0  0  0  0  0  0  0
  -24.1140  -12.8910   20.9620 C   0  0  0  0  0  0  0  0  0  0  0  0
  -24.6020  -11.5490   20.9440 C   0  0  0  0  0  0  0  0  0  0  0  0
  -26.2290  -12.8170   20.3550 N   0  0  0  0  0  0  0  0  0  0  0  0
  -25.8910  -11.5300   20.6290 N   0  0  0  0  0  0  0  0  0  0  0  0
  -23.9010  -10.2750   21.1520 C   0  0  0  0  0  0  0  0  0  0  0  0
  -24.3500   -9.3330   22.1030 C   0  0  0  0  0  3  0  0  0  0  0  0
  -23.6500   -8.1230   22.2960 C   0  0  0  0  0  3  0  0  0  0  0  0
  -22.4860   -7.8470   21.5400 C   0  0  0  0  0  0  0  0  0  0  0  0
  -22.0560   -8.7790   20.5790 C   0  0  0  0  0  3  0  0  0  0  0  0
  -22.7580   -9.9810   20.3830 C   0  0  0  0  0  3  0  0  0  0  0  0
  -21.7570   -6.6890   21.6420 O   0  0  0  0  0  0  0  0  0  0  0  0
  -21.7210   -5.9600   22.8040 C   0  0  0  0  0  0  0  0  0  0  0  0
  -21.2560   -6.5150   24.0160 C   0  0  0  0  0  3  0  0  0  0  0  0
  -21.1710   -5.7120   25.1710 C   0  0  0  0  0  3  0  0  0  0  0  0
  -21.5400   -4.3540   25.1140 C   0  0  0  0  0  0  0  0  0  0  0  0
  -21.9970   -3.7990   23.9060 C   0  0  0  0  0  3  0  0  0  0  0  0
  -22.0850   -4.6000   22.7540 C   0  0  0  0  0  0  0  0  0  0  0  0
  -22.5070   -4.0540   21.5880 F   0  0  0  0  0  0  0  0  0  0  0  0
  -21.4510   -3.5810   26.2210 F   0  0  0  0  0  0  0  0  0  0  0  0
  -22.7090  -13.3450   21.2370 C   0  0  0  0  0  0  0  0  0  0  0  0
  -21.9980  -12.6440   22.1120 N   0  0  0  0  0  0  0  0  0  0  0  0
  -22.2490  -14.3580   20.7110 O   0  0  0  0  0  0  0  0  0  0  0  0
  -22.3800  -11.8230   22.5600 H   0  0  0  0  0  0  0  0  0  0  0  0
  -21.0560  -12.9320   22.3370 H   0  0  0  0  0  0  0  0  0  0  0  0
  -25.2990  -15.0520   20.3880 N   0  0  0  0  0  0  0  0  0  0  0  0
  -24.5130  -15.6860   20.4860 H   0  0  0  0  0  0  0  0  0  0  0  0
  -26.1390  -15.5130   20.0690 H   0  0  0  0  0  0  0  0  0  0  0  0
  1  3  1  0
  2  3  1  0
  3  8  1  0
  4 50  1  0
  4  1  1  0
  6  4  1  0
  6  2  1  0
  6  5  1  0
  6  7  1  6
  9 11  1  0
  9  8  1  0
 10 21  2  0
 11 16  1  0
 12 20  1  0
 12 22  1  0
 13 19  1  0
 13 15  1  0
 14 20  1  0
 15 14  1  0
 16 15  2  0
 17 18  1  0
 17 11  2  0
 18 13  2  0
 19 12  1  0
 20 10  1  0
 22 24  2  0
 23 22  1  0
 25 23  1  0
 26 35  2  0
 26 31  1  0
 27 23  1  0
 27 31  1  0
 28 27  1  0
 29 30  1  0
 29 28  1  0
 30 26  1  0
 31 32  2  0
 32 33  1  0
 34 33  2  0
 35 34  1  0
 36 10  1  0
 36 41  1  0
 36 37  1  0
 37 40  1  1
 37 38  1  0
 39 37  1  0
 41 44  1  0
 42 46  1  0
 42 41  1  0
 43 42  2  0
 46 45  1  0
 48 46  1  0
 48 49  1  0
 48 47  1  0
 50 52  1  0
 51 52  1  0
 52 58  1  0
 53 57  1  0
 55 58  1  0
 55 53  2  0
 56 54  1  0
 57 54  2  0
 57 67  1  0
 58 56  2  0
 59 67  1  0
 60 65  1  0
 61 62  1  0
 61 60  1  0
 63 62  1  0
 63 72  1  0
 63 64  1  0
 65 59  1  0
 65 64  1  0
 66 59  2  0
 67 68  1  0
 69 70  2  0
 70 89  1  0
 71 70  1  0
 71 74  1  0
 72 69  1  0
 72 73  1  0
 73 71  2  0
 74 75  1  0
 75 76  2  0
 77 80  1  0
 77 76  1  0
 78 77  2  0
 79 78  1  0
 79 74  2  0
 80 81  1  0
 81 82  1  0
 82 83  2  0
 84 83  1  0
 84 88  1  0
 85 84  2  0
 86 81  2  0
 86 85  1  0
 87 86  1  0
 89 90  1  0
 90 93  1  0
 90 92  1  0
 91 89  2  0
 94 95  1  0
 94 69  1  0
 96 94  1  0
M  ISO  4   8 101   9 101  59 100  67 100
M  END
>  <TORSDO>  (54) 
F 20

>  <SCORE>  (54) 
-13.266

>  <name>  (54) 
53

>  <ligand_id>  (54) 
53

>  <original_smiles>  (54) 
[H]c1c([H])c([H])c2c(c1[H])C([H])([H])C([H])([H])C([H])([H])C2([H])N([H])C(=O)C1([H])N(C(=O)C([H])(N([H])C(=O)C([H])(N([H])C([H])([H])[H])C([H])([H])[H])C(C([H])([H])[H])(C([H])([H])[H])C([H])([H])[H])C([H])([H])c2c([H])c(OC([H])([H])C3([H])C([H])([H])C([H])(C([H])([H])N(c4c([H])c([H])c(N([H])C(=O)N5C([H])([H])C([H])([H])C([H])([H])C([H])(n6nc(-c7c([H])c([H])c(Oc8c([H])c([H])c(F)c([H])c8F)c([H])c7[H])c(C(=O)N([H])[H])c6N([H])[H])C5([H])[H])c([H])c4[H])C([H])([H])[H])[N+]([H])(C([H])([H])[H])C3([H])[H])c([H])c([H])c2C1([H])[H]

>  <smiles>  (54) 
[H]c1c([H])c([H])c2c(c1[H])C([H])([H])C([H])([H])C([H])([H])C2([H])N([H])C(=O)C1([H])N(C(=O)C([H])(N([H])C(=O)C([H])(N([H])C([H])([H])[H])C([H])([H])[H])C(C([H])([H])[H])(C([H])([H])[H])C([H])([H])[H])C([H])([H])c2c([H])c(OC([H])([H])C3([H])C([H])([H])C([H])(C([H])([H])N(c4c([H])c([H])c(N([H])C(=O)N5C([H])([H])C([H])([H])C([H])([H])C([H])(n6nc(-c7c([H])c([H])c(Oc8c([H])c([H])c(F)c([H])c8F)c([H])c7[H])c(C(=O)N([H])[H])c6N([H])[H])C5([H])[H])c([H])c4[H])C([H])([H])[H])[N+]([H])(C([H])([H])[H])C3([H])[H])c([H])c([H])c2C1([H])[H]

$$$$
54:0:0
     RDKit          3D

 93101  0  0  1  0  0  0  0  0999 V2000
  -28.8860  -23.4650   20.1150 C   0  0  0  0  0  3  0  0  0  0  0  0
  -30.3330  -23.7600   20.0540 N   0  0  0  0  0  4  0  0  0  0  0  0
  -30.7210  -23.8970   20.9720 H   0  0  0  0  0  0  0  0  0  0  0  0
  -30.4930  -24.6000   19.5250 H   0  0  0  0  0  0  0  0  0  0  0  0
  -30.8340  -23.0140   19.6040 H   0  0  0  0  0  0  0  0  0  0  0  0
  -28.6460  -22.0250   20.9050 C   0  0  0  0  0  2  0  0  0  0  0  0
  -28.1160  -19.5310   20.1110 C   0  0  0  0  0  3  0  0  0  0  0  0
  -28.3470  -18.1100   20.0720 C   0  0  0  0  0  3  0  0  0  0  0  0
  -30.5850  -18.4320   20.7710 C   0  0  0  0  0  3  0  0  0  0  0  0
  -29.0870  -20.4950   20.5220 C   0  0  0  0  0  0  0  0  0  0  0  0
  -29.5790  -17.4700   20.4200 C   0  0  0  0  0  0  0  0  0  0  0  0
  -30.3470  -19.8700   20.8340 C   0  0  0  0  0  0  0  0  0  0  0  0
  -31.3520  -20.6640   21.2730 F   0  0  0  0  0  0  0  0  0  0  0  0
  -30.5060  -14.8840   20.3160 C   0  0  0  0  0  0  0  0  0  0  0  0
  -30.4050  -12.5660   19.3220 C   0  0  0  0  0  2  0  0  0  0  0  0
  -29.4520  -12.5810   18.1030 C   0  0  0  0  0  2  0  0  0  0  0  0
  -27.9870  -12.3800   18.5410 C   0  0  0  0  0  2  0  0  0  0  0  0
  -27.6020  -13.2740   19.7470 C   0  0  0  0  0  3  0  0  0  0  0  0
  -28.6670  -13.2110   20.8640 C   0  0  0  0  0  2  0  0  0  0  0  0
  -29.9480  -13.6160   20.2660 N   0  0  0  0  0  0  0  0  0  0  0  0
  -31.6940  -15.0300   20.0100 O   0  0  0  0  0  0  0  0  0  0  0  0
  -29.6150  -15.9540   20.5040 N   0  0  0  0  0  0  0  0  0  0  0  0
  -28.6950  -15.5700   20.6450 H   0  0  0  0  0  0  0  0  0  0  0  0
  -25.2160  -13.8600   20.4850 C   0  0  0  0  0  0  0  0  0  0  0  0
  -24.1540  -13.0840   20.8620 C   0  0  0  0  0  0  0  0  0  0  0  0
  -24.6200  -11.7350   20.8320 C   0  0  0  0  0  0  0  0  0  0  0  0
  -26.2610  -12.9830   20.2450 N   0  0  0  0  0  0  0  0  0  0  0  0
  -25.9100  -11.7000   20.5180 N   0  0  0  0  0  0  0  0  0  0  0  0
  -23.8980  -10.4710   21.0260 C   0  0  0  0  0  0  0  0  0  0  0  0
  -24.3350   -9.5060   21.9600 C   0  0  0  0  0  3  0  0  0  0  0  0
  -23.6110   -8.3080   22.1420 C   0  0  0  0  0  3  0  0  0  0  0  0
  -22.4370   -8.0670   21.3900 C   0  0  0  0  0  0  0  0  0  0  0  0
  -22.0200   -9.0200   20.4450 C   0  0  0  0  0  3  0  0  0  0  0  0
  -22.7440  -10.2100   20.2610 C   0  0  0  0  0  3  0  0  0  0  0  0
  -21.6860   -6.9190   21.4810 O   0  0  0  0  0  0  0  0  0  0  0  0
  -21.6430   -6.1770   22.6340 C   0  0  0  0  0  0  0  0  0  0  0  0
  -21.2220   -6.7300   23.8620 C   0  0  0  0  0  3  0  0  0  0  0  0
  -21.1270   -5.9140   25.0060 C   0  0  0  0  0  3  0  0  0  0  0  0
  -21.4440   -4.5440   24.9240 C   0  0  0  0  0  0  0  0  0  0  0  0
  -21.8590   -3.9900   23.7000 C   0  0  0  0  0  3  0  0  0  0  0  0
  -21.9550   -4.8040   22.5570 C   0  0  0  0  0  0  0  0  0  0  0  0
  -22.3350   -4.2610   21.3760 F   0  0  0  0  0  0  0  0  0  0  0  0
  -21.3460   -3.7580   26.0210 F   0  0  0  0  0  0  0  0  0  0  0  0
  -22.7560  -13.5600   21.1350 C   0  0  0  0  0  0  0  0  0  0  0  0
  -22.0300  -12.8630   22.0020 N   0  0  0  0  0  0  0  0  0  0  0  0
  -22.3160  -14.5830   20.6130 O   0  0  0  0  0  0  0  0  0  0  0  0
  -22.3990  -12.0360   22.4460 H   0  0  0  0  0  0  0  0  0  0  0  0
  -21.0930  -13.1640   22.2260 H   0  0  0  0  0  0  0  0  0  0  0  0
  -25.3720  -15.2300   20.2990 N   0  0  0  0  0  0  0  0  0  0  0  0
  -24.5910  -15.8710   20.3910 H   0  0  0  0  0  0  0  0  0  0  0  0
  -26.1850  -15.6600   19.8810 H   0  0  0  0  0  0  0  0  0  0  0  0
  -28.0730  -24.8240   20.6380 C   0  0  0  0  0  2  0  0  0  0  0  0
  -28.3010  -26.2820   20.2070 O   0  0  0  0  0  0  0  0  0  0  0  0
  -24.6230  -31.8750   23.2250 C   0  0  0  0  0  0  0  0  0  0  0  0
  -27.2190  -27.2160   20.1930 C   0  0  0  0  0  0  0  0  0  0  0  0
  -23.4240  -30.4800   21.5820 C   0  0  0  0  0  3  0  0  0  0  0  0
  -24.8750  -28.9130   20.1610 C   0  0  0  0  0  0  0  0  0  0  0  0
  -25.9730  -30.7650   21.4140 C   0  0  0  0  0  2  0  0  0  0  0  0
  -26.0510  -29.3770   20.7650 C   0  0  0  0  0  0  0  0  0  0  0  0
  -27.2260  -28.5450   20.7630 C   0  0  0  0  0  3  0  0  0  0  0  0
  -26.0200  -26.8400   19.5500 C   0  0  0  0  0  3  0  0  0  0  0  0
  -24.8690  -27.6550   19.5380 C   0  0  0  0  0  3  0  0  0  0  0  0
  -23.6450  -29.8030   20.2040 C   0  0  0  0  0  2  0  0  0  0  0  0
  -24.6930  -31.0600   22.1300 N   0  0  0  0  0  0  0  0  0  0  0  0
  -23.5380  -32.1560   23.7550 O   0  0  0  0  0  0  0  0  0  0  0  0
  -22.7490  -29.4690   22.5420 C   0  0  0  0  0  0  0  0  0  0  0  0
  -21.4210  -29.2960   22.4140 N   0  0  0  0  0  0  0  0  0  0  0  0
  -23.4220  -28.8420   23.3640 O   0  0  0  0  0  0  0  0  0  0  0  0
  -20.9360  -29.8540   21.7250 H   0  0  0  0  0  0  0  0  0  0  0  0
  -18.0410  -28.0960   22.9060 C   0  0  0  0  0  0  0  0  0  0  0  0
  -20.5990  -28.3600   23.1830 C   0  0  0  0  0  3  0  0  0  0  0  0
  -20.7040  -26.9270   22.6100 C   0  0  0  0  0  2  0  0  0  0  0  0
  -19.6050  -26.6020   21.5920 C   0  0  0  0  0  2  0  0  0  0  0  0
  -18.2210  -26.7460   22.2310 C   0  0  0  0  0  2  0  0  0  0  0  0
  -19.1580  -28.8600   23.3380 C   0  0  0  0  0  0  0  0  0  0  0  0
  -18.9340  -30.1230   23.9300 C   0  0  0  0  0  3  0  0  0  0  0  0
  -17.6270  -30.6210   24.0930 C   0  0  0  0  0  3  0  0  0  0  0  0
  -16.5260  -29.8540   23.6750 C   0  0  0  0  0  3  0  0  0  0  0  0
  -16.7340  -28.5930   23.0870 C   0  0  0  0  0  3  0  0  0  0  0  0
  -25.9030  -32.5080   23.8530 C   0  0  0  0  0  3  0  0  0  0  0  0
  -26.4100  -31.7390   25.1340 C   0  0  1  0  0  0  0  0  0  0  0  0
  -25.3120  -31.5100   26.1990 C   0  0  0  0  0  1  0  0  0  0  0  0
  -26.9880  -30.3570   24.7540 C   0  0  0  0  0  1  0  0  0  0  0  0
  -27.5610  -32.5300   25.7980 C   0  0  0  0  0  1  0  0  0  0  0  0
  -25.5930  -33.9070   24.1830 N   0  0  0  0  0  0  0  0  0  0  0  0
  -25.9270  -34.9620   23.4270 C   0  0  0  0  0  0  0  0  0  0  0  0
  -26.5960  -34.8590   22.3960 O   0  0  0  0  0  0  0  0  0  0  0  0
  -24.9980  -34.0600   24.9840 H   0  0  0  0  0  0  0  0  0  0  0  0
  -24.2030  -36.7630   23.0790 C   0  0  0  0  0  1  0  0  0  0  0  0
  -25.4430  -36.3510   23.8890 C   0  0  0  0  0  3  0  0  0  0  0  0
  -27.5810  -37.2300   24.7200 C   0  0  0  0  0  1  0  0  0  0  0  0
  -26.4790  -37.4020   23.7780 N   0  0  0  0  0  0  0  0  0  0  0  0
  -26.0750  -38.3230   23.9270 H   0  0  0  0  0  0  0  0  0  0  0  0
  1 52  1  0
  1  6  1  0
  2  1  1  0
  2  3  1  0
  4  2  1  0
  5  2  1  0
  7 10  1  0
  8  7  2  0
  8 11  1  0
  9 12  1  0
 10 12  2  0
 10  6  1  0
 11 22  1  0
 11  9  2  0
 12 13  1  0
 14 22  1  0
 15 20  1  0
 16 17  1  0
 16 15  1  0
 18 17  1  0
 18 27  1  0
 18 19  1  0
 20 14  1  0
 20 19  1  0
 21 14  2  0
 22 23  1  0
 24 25  2  0
 25 44  1  0
 26 25  1  0
 26 29  1  0
 27 24  1  0
 27 28  1  0
 28 26  2  0
 29 30  1  0
 30 31  2  0
 32 35  1  0
 32 31  1  0
 33 32  2  0
 34 33  1  0
 34 29  2  0
 35 36  1  0
 36 37  1  0
 37 38  2  0
 39 38  1  0
 39 43  1  0
 40 39  2  0
 41 36  2  0
 41 40  1  0
 42 41  1  0
 44 45  1  0
 45 48  1  0
 45 47  1  0
 46 44  2  0
 49 50  1  0
 49 24  1  0
 51 49  1  0
 53 52  1  0
 54 65  2  0
 55 53  1  0
 55 60  1  0
 56 64  1  0
 56 66  1  0
 57 63  1  0
 57 59  1  0
 58 64  1  0
 59 58  1  0
 60 59  2  0
 61 55  2  0
 62 61  1  0
 62 57  2  0
 63 56  1  0
 64 54  1  0
 66 68  2  0
 67 66  1  0
 69 67  1  0
 70 79  2  0
 70 75  1  0
 71 67  1  0
 71 75  1  0
 72 71  1  0
 73 74  1  0
 73 72  1  0
 74 70  1  0
 75 76  2  0
 76 77  1  0
 78 77  2  0
 79 78  1  0
 80 54  1  0
 80 85  1  0
 80 81  1  0
 81 84  1  1
 81 82  1  0
 83 81  1  0
 85 88  1  0
 86 90  1  0
 86 85  1  0
 87 86  2  0
 90 89  1  0
 92 90  1  0
 92 93  1  0
 92 91  1  0
M  ISO  4  14 100  22 100  52 101  53 101
M  END
>  <TORSDO>  (55) 
F 20

>  <SCORE>  (55) 
-14.302

>  <name>  (55) 
54

>  <ligand_id>  (55) 
54

>  <original_smiles>  (55) 
[H]c1c([H])c([H])c2c(c1[H])C([H])([H])C([H])([H])C([H])([H])C2([H])N([H])C(=O)C1([H])N(C(=O)C([H])(N([H])C(=O)C([H])(N([H])C([H])([H])[H])C([H])([H])[H])C(C([H])([H])[H])(C([H])([H])[H])C([H])([H])[H])C([H])([H])c2c([H])c(OC([H])([H])C([H])(C([H])([H])c3c([H])c([H])c(N([H])C(=O)N4C([H])([H])C([H])([H])C([H])([H])C([H])(n5nc(-c6c([H])c([H])c(Oc7c([H])c([H])c(F)c([H])c7F)c([H])c6[H])c(C(=O)N([H])[H])c5N([H])[H])C4([H])[H])c([H])c3F)[N+]([H])([H])[H])c([H])c([H])c2C1([H])[H]

>  <smiles>  (55) 
[H]c1c([H])c([H])c2c(c1[H])C([H])([H])C([H])([H])C([H])([H])C2([H])N([H])C(=O)C1([H])N(C(=O)C([H])(N([H])C(=O)C([H])(N([H])C([H])([H])[H])C([H])([H])[H])C(C([H])([H])[H])(C([H])([H])[H])C([H])([H])[H])C([H])([H])c2c([H])c(OC([H])([H])C([H])(C([H])([H])c3c([H])c([H])c(N([H])C(=O)N4C([H])([H])C([H])([H])C([H])([H])C([H])(n5nc(-c6c([H])c([H])c(Oc7c([H])c([H])c(F)c([H])c7F)c([H])c6[H])c(C(=O)N([H])[H])c5N([H])[H])C4([H])[H])c([H])c3F)[N+]([H])([H])[H])c([H])c([H])c2C1([H])[H]

$$$$
55:0:0
     RDKit          3D

 95103  0  0  1  0  0  0  0  0999 V2000
  -31.0210  -21.0360   20.8630 C   0  0  0  0  0  3  0  0  0  0  0  0
  -30.2880  -22.0060   20.2790 C   0  0  0  0  0  3  0  0  0  0  0  0
  -29.2040  -17.6510   20.8750 C   0  0  0  0  0  3  0  0  0  0  0  0
  -31.5690  -17.3150   21.3150 C   0  0  0  0  0  3  0  0  0  0  0  0
  -30.7020  -19.5950   21.0020 C   0  0  0  0  0  0  0  0  0  0  0  0
  -30.2850  -16.7700   21.0860 C   0  0  0  0  0  0  0  0  0  0  0  0
  -29.4080  -19.0460   20.8130 C   0  0  0  0  0  0  0  0  0  0  0  0
  -31.7710  -18.7080   21.2750 C   0  0  0  0  0  0  0  0  0  0  0  0
  -28.3390  -19.8440   20.5730 F   0  0  0  0  0  0  0  0  0  0  0  0
  -33.0210  -19.1930   21.4800 F   0  0  0  0  0  0  0  0  0  0  0  0
  -30.6580  -14.4540   20.3170 C   0  0  0  0  0  0  0  0  0  0  0  0
  -30.2900  -12.3770   19.0370 C   0  0  0  0  0  2  0  0  0  0  0  0
  -29.3060  -12.6560   17.8830 C   0  0  0  0  0  2  0  0  0  0  0  0
  -27.8470  -12.5040   18.3600 C   0  0  0  0  0  2  0  0  0  0  0  0
  -27.5640  -13.2850   19.6710 C   0  0  0  0  0  3  0  0  0  0  0  0
  -28.6520  -12.9810   20.7270 C   0  0  0  0  0  2  0  0  0  0  0  0
  -29.9660  -13.2980   20.1370 N   0  0  0  0  0  0  0  0  0  0  0  0
  -31.7310  -14.6880   19.7510 O   0  0  0  0  0  0  0  0  0  0  0  0
  -30.0430  -15.3660   21.0900 N   0  0  0  0  0  0  0  0  0  0  0  0
  -29.1540  -15.0620   21.4570 H   0  0  0  0  0  0  0  0  0  0  0  0
  -25.1790  -13.8800   20.4460 C   0  0  0  0  0  0  0  0  0  0  0  0
  -24.1250  -13.0990   20.8370 C   0  0  0  0  0  0  0  0  0  0  0  0
  -24.5910  -11.7500   20.7830 C   0  0  0  0  0  0  0  0  0  0  0  0
  -26.2230  -13.0050   20.1810 N   0  0  0  0  0  0  0  0  0  0  0  0
  -25.8730  -11.7190   20.4400 N   0  0  0  0  0  0  0  0  0  0  0  0
  -23.8780  -10.4830   20.9890 C   0  0  0  0  0  0  0  0  0  0  0  0
  -24.3340   -9.5180   21.9140 C   0  0  0  0  0  3  0  0  0  0  0  0
  -23.6230   -8.3140   22.1040 C   0  0  0  0  0  3  0  0  0  0  0  0
  -22.4390   -8.0670   21.3690 C   0  0  0  0  0  0  0  0  0  0  0  0
  -22.0020   -9.0210   20.4310 C   0  0  0  0  0  3  0  0  0  0  0  0
  -22.7150  -10.2160   20.2400 C   0  0  0  0  0  3  0  0  0  0  0  0
  -21.6950   -6.9160   21.4690 O   0  0  0  0  0  0  0  0  0  0  0  0
  -21.6650   -6.1780   22.6240 C   0  0  0  0  0  0  0  0  0  0  0  0
  -21.2500   -6.7340   23.8550 C   0  0  0  0  0  3  0  0  0  0  0  0
  -21.1670   -5.9210   25.0030 C   0  0  0  0  0  3  0  0  0  0  0  0
  -21.4870   -4.5520   24.9220 C   0  0  0  0  0  0  0  0  0  0  0  0
  -21.8950   -3.9950   23.6960 C   0  0  0  0  0  3  0  0  0  0  0  0
  -21.9800   -4.8060   22.5510 C   0  0  0  0  0  0  0  0  0  0  0  0
  -22.3540   -4.2600   21.3680 F   0  0  0  0  0  0  0  0  0  0  0  0
  -21.4010   -3.7680   26.0210 F   0  0  0  0  0  0  0  0  0  0  0  0
  -22.7320  -13.5680   21.1490 C   0  0  0  0  0  0  0  0  0  0  0  0
  -22.0290  -12.8620   22.0280 N   0  0  0  0  0  0  0  0  0  0  0  0
  -22.2760  -14.5950   20.6490 O   0  0  0  0  0  0  0  0  0  0  0  0
  -22.4110  -12.0310   22.4550 H   0  0  0  0  0  0  0  0  0  0  0  0
  -21.0970  -13.1610   22.2790 H   0  0  0  0  0  0  0  0  0  0  0  0
  -25.3320  -15.2530   20.2800 N   0  0  0  0  0  0  0  0  0  0  0  0
  -24.5650  -15.8990   20.4340 H   0  0  0  0  0  0  0  0  0  0  0  0
  -26.1720  -15.7060   19.9450 H   0  0  0  0  0  0  0  0  0  0  0  0
  -30.7580  -23.4450   20.1380 C   0  0  0  0  0  2  0  0  0  0  0  0
  -29.9120  -24.4130   20.8710 N   0  0  0  0  0  4  0  0  0  0  0  0
  -29.7910  -24.1020   21.8230 H   0  0  0  0  0  0  0  0  0  0  0  0
  -29.0010  -24.4390   20.4400 H   0  0  0  0  0  0  0  0  0  0  0  0
  -30.4670  -25.7910   20.8620 C   0  0  0  0  0  2  0  0  0  0  0  0
  -29.3930  -26.8620   21.1020 C   0  0  0  0  0  2  0  0  0  0  0  0
  -28.4040  -26.7000   20.0920 O   0  0  0  0  0  0  0  0  0  0  0  0
  -24.5850  -31.8790   23.2320 C   0  0  0  0  0  0  0  0  0  0  0  0
  -27.2690  -27.4750   20.1610 C   0  0  0  0  0  0  0  0  0  0  0  0
  -23.3880  -30.4730   21.5830 C   0  0  0  0  0  3  0  0  0  0  0  0
  -24.8540  -28.9410   20.1660 C   0  0  0  0  0  0  0  0  0  0  0  0
  -25.9060  -30.8510   21.3900 C   0  0  0  0  0  2  0  0  0  0  0  0
  -26.0020  -29.4780   20.7630 C   0  0  0  0  0  0  0  0  0  0  0  0
  -27.2110  -28.7500   20.7700 C   0  0  0  0  0  3  0  0  0  0  0  0
  -26.1080  -26.9500   19.5590 C   0  0  0  0  0  3  0  0  0  0  0  0
  -24.9000  -27.6720   19.5660 C   0  0  0  0  0  3  0  0  0  0  0  0
  -23.6050  -29.7900   20.2050 C   0  0  0  0  0  2  0  0  0  0  0  0
  -24.6440  -31.0820   22.1280 N   0  0  0  0  0  0  0  0  0  0  0  0
  -23.5030  -32.1480   23.7700 O   0  0  0  0  0  0  0  0  0  0  0  0
  -22.7370  -29.4510   22.5420 C   0  0  0  0  0  0  0  0  0  0  0  0
  -21.4140  -29.2690   22.4120 N   0  0  0  0  0  0  0  0  0  0  0  0
  -23.4210  -28.8220   23.3560 O   0  0  0  0  0  0  0  0  0  0  0  0
  -20.9250  -29.8290   21.7260 H   0  0  0  0  0  0  0  0  0  0  0  0
  -18.0360  -28.0920   22.9070 C   0  0  0  0  0  0  0  0  0  0  0  0
  -20.5950  -28.3300   23.1770 C   0  0  0  0  0  3  0  0  0  0  0  0
  -20.6870  -26.9030   22.5910 C   0  0  0  0  0  2  0  0  0  0  0  0
  -19.5820  -26.5940   21.5760 C   0  0  0  0  0  2  0  0  0  0  0  0
  -18.2030  -26.7450   22.2230 C   0  0  0  0  0  2  0  0  0  0  0  0
  -19.1600  -28.8420   23.3410 C   0  0  0  0  0  0  0  0  0  0  0  0
  -18.9510  -30.1050   23.9370 C   0  0  0  0  0  3  0  0  0  0  0  0
  -17.6510  -30.6140   24.1080 C   0  0  0  0  0  3  0  0  0  0  0  0
  -16.5410  -29.8600   23.6940 C   0  0  0  0  0  3  0  0  0  0  0  0
  -16.7340  -28.6000   23.0970 C   0  0  0  0  0  3  0  0  0  0  0  0
  -25.8710  -32.5090   23.8570 C   0  0  0  0  0  3  0  0  0  0  0  0
  -25.5650  -33.9080   24.1810 N   0  0  0  0  0  0  0  0  0  0  0  0
  -25.9080  -34.9570   23.4220 C   0  0  0  0  0  0  0  0  0  0  0  0
  -26.5880  -34.8490   22.3970 O   0  0  0  0  0  0  0  0  0  0  0  0
  -24.9620  -34.0660   24.9740 H   0  0  0  0  0  0  0  0  0  0  0  0
  -24.1920  -36.7530   23.0380 C   0  0  0  0  0  1  0  0  0  0  0  0
  -25.4190  -36.3460   23.8680 C   0  0  0  0  0  3  0  0  0  0  0  0
  -27.5460  -37.2230   24.7270 C   0  0  0  0  0  1  0  0  0  0  0  0
  -26.4560  -37.3960   23.7700 N   0  0  0  0  0  0  0  0  0  0  0  0
  -26.0520  -38.3170   23.9140 H   0  0  0  0  0  0  0  0  0  0  0  0
  -26.3890  -31.7370   25.1310 C   0  0  1  0  0  0  0  0  0  0  0  0
  -25.2980  -31.5000   26.2020 C   0  0  0  0  0  1  0  0  0  0  0  0
  -26.9700  -30.3600   24.7340 C   0  0  0  0  0  1  0  0  0  0  0  0
  -27.5400  -32.5320   25.7930 C   0  0  0  0  0  1  0  0  0  0  0  0
  1  5  1  0
  2  1  2  0
  3  6  1  0
  5  8  2  0
  6 19  1  0
  6  4  2  0
  7  3  2  0
  7  5  1  0
  8  4  1  0
  8 10  1  0
  9  7  1  0
 11 19  1  0
 12 17  1  0
 13 14  1  0
 13 12  1  0
 15 14  1  0
 15 24  1  0
 15 16  1  0
 17 11  1  0
 17 16  1  0
 18 11  2  0
 19 20  1  0
 21 22  2  0
 22 41  1  0
 23 22  1  0
 23 26  1  0
 24 25  1  0
 24 21  1  0
 25 23  2  0
 26 27  1  0
 27 28  2  0
 29 32  1  0
 29 28  1  0
 30 29  2  0
 31 30  1  0
 31 26  2  0
 32 33  1  0
 33 34  1  0
 34 35  2  0
 36 35  1  0
 36 40  1  0
 37 36  2  0
 38 33  2  0
 38 37  1  0
 39 38  1  0
 41 42  1  0
 42 45  1  0
 42 44  1  0
 43 41  2  0
 46 47  1  0
 46 21  1  0
 48 46  1  0
 49  2  1  0
 49 50  1  0
 50 51  1  0
 52 50  1  0
 53 50  1  0
 53 54  1  0
 55 57  1  0
 55 54  1  0
 56 67  2  0
 57 62  1  0
 58 66  1  0
 58 68  1  0
 59 65  1  0
 59 61  1  0
 60 66  1  0
 61 62  2  0
 61 60  1  0
 63 64  1  0
 63 57  2  0
 64 59  2  0
 65 58  1  0
 66 56  1  0
 68 70  2  0
 69 68  1  0
 71 69  1  0
 72 81  2  0
 72 77  1  0
 73 69  1  0
 73 77  1  0
 74 73  1  0
 75 76  1  0
 75 74  1  0
 76 72  1  0
 77 78  2  0
 78 79  1  0
 80 79  2  0
 81 80  1  0
 82 56  1  0
 82 83  1  0
 82 92  1  0
 83 86  1  0
 84 88  1  0
 84 83  1  0
 85 84  2  0
 88 87  1  0
 90 88  1  0
 90 91  1  0
 90 89  1  0
 92 95  1  1
 92 93  1  0
 94 92  1  0
M  ISO  4  11 100  19 100  54 101  55 101
M  END
>  <TORSDO>  (56) 
F 21

>  <SCORE>  (56) 
-13.826

>  <name>  (56) 
55

>  <ligand_id>  (56) 
55

>  <original_smiles>  (56) 
[H]C(=C([H])C([H])([H])[N+]([H])([H])C([H])([H])C([H])([H])Oc1c([H])c([H])c2c(c1[H])C([H])([H])N(C(=O)C([H])(N([H])C(=O)C([H])(N([H])C([H])([H])[H])C([H])([H])[H])C(C([H])([H])[H])(C([H])([H])[H])C([H])([H])[H])C([H])(C(=O)N([H])C1([H])c3c([H])c([H])c([H])c([H])c3C([H])([H])C([H])([H])C1([H])[H])C2([H])[H])c1c(F)c([H])c(N([H])C(=O)N2C([H])([H])C([H])([H])C([H])([H])C([H])(n3nc(-c4c([H])c([H])c(Oc5c([H])c([H])c(F)c([H])c5F)c([H])c4[H])c(C(=O)N([H])[H])c3N([H])[H])C2([H])[H])c([H])c1F

>  <smiles>  (56) 
[H]C(=C([H])C([H])([H])[N+]([H])([H])C([H])([H])C([H])([H])Oc1c([H])c([H])c2c(c1[H])C([H])([H])N(C(=O)C([H])(N([H])C(=O)C([H])(N([H])C([H])([H])[H])C([H])([H])[H])C(C([H])([H])[H])(C([H])([H])[H])C([H])([H])[H])C([H])(C(=O)N([H])C1([H])c3c([H])c([H])c([H])c([H])c3C([H])([H])C([H])([H])C1([H])[H])C2([H])[H])c1c(F)c([H])c(N([H])C(=O)N2C([H])([H])C([H])([H])C([H])([H])C([H])(n3nc(-c4c([H])c([H])c(Oc5c([H])c([H])c(F)c([H])c5F)c([H])c4[H])c(C(=O)N([H])[H])c3N([H])[H])C2([H])[H])c([H])c1F

$$$$
56:0:0
     RDKit          3D

 94102  0  0  1  0  0  0  0  0999 V2000
  -29.0780  -22.9320   20.7790 C   0  0  0  0  0  2  0  0  0  0  0  0
  -28.3600  -21.2010   18.9380 C   0  0  0  0  0  2  0  0  0  0  0  0
  -28.4260  -19.6660   18.7870 C   0  0  0  0  0  2  0  0  0  0  0  0
  -29.5620  -20.2740   20.7730 C   0  0  0  0  0  2  0  0  0  0  0  0
  -28.6180  -21.4690   20.4240 C   0  0  0  0  0  3  0  0  0  0  0  0
  -28.9700  -19.1110   20.0530 N   0  0  2  0  0  4  0  0  0  0  0  0
  -28.1530  -18.8590   20.5900 H   0  0  0  0  0  0  0  0  0  0  0  0
  -29.7390  -17.8290   19.8670 C   0  0  0  0  0  2  0  0  0  0  0  0
  -30.0030  -16.9810   21.1550 C   0  0  0  0  0  2  0  0  0  0  0  0
  -30.6130  -14.5410   20.4860 C   0  0  0  0  0  0  0  0  0  0  0  0
  -30.3900  -12.3660   19.3170 C   0  0  0  0  0  2  0  0  0  0  0  0
  -29.4440  -12.5490   18.1100 C   0  0  0  0  0  2  0  0  0  0  0  0
  -27.9660  -12.4050   18.5290 C   0  0  0  0  0  2  0  0  0  0  0  0
  -27.6180  -13.2370   19.7910 C   0  0  0  0  0  3  0  0  0  0  0  0
  -28.6650  -12.9980   20.9030 C   0  0  0  0  0  2  0  0  0  0  0  0
  -29.9890  -13.3360   20.3500 N   0  0  0  0  0  0  0  0  0  0  0  0
  -31.7430  -14.7700   20.0440 O   0  0  0  0  0  0  0  0  0  0  0  0
  -29.8240  -15.5140   20.9940 N   0  0  0  0  0  0  0  0  0  0  0  0
  -28.9300  -15.1660   21.3080 H   0  0  0  0  0  0  0  0  0  0  0  0
  -25.2120  -13.8580   20.4620 C   0  0  0  0  0  0  0  0  0  0  0  0
  -24.1380  -13.0930   20.8300 C   0  0  0  0  0  0  0  0  0  0  0  0
  -24.5980  -11.7400   20.8220 C   0  0  0  0  0  0  0  0  0  0  0  0
  -26.2580  -12.9730   20.2550 N   0  0  0  0  0  0  0  0  0  0  0  0
  -25.8910  -11.6950   20.5290 N   0  0  0  0  0  0  0  0  0  0  0  0
  -23.8680  -10.4820   21.0190 C   0  0  0  0  0  0  0  0  0  0  0  0
  -24.2990   -9.5190   21.9580 C   0  0  0  0  0  3  0  0  0  0  0  0
  -23.5710   -8.3240   22.1420 C   0  0  0  0  0  3  0  0  0  0  0  0
  -22.3990   -8.0830   21.3860 C   0  0  0  0  0  0  0  0  0  0  0  0
  -21.9890   -9.0340   20.4360 C   0  0  0  0  0  3  0  0  0  0  0  0
  -22.7170  -10.2210   20.2500 C   0  0  0  0  0  3  0  0  0  0  0  0
  -21.6430   -6.9400   21.4790 O   0  0  0  0  0  0  0  0  0  0  0  0
  -21.6000   -6.1970   22.6320 C   0  0  0  0  0  0  0  0  0  0  0  0
  -21.1910   -6.7560   23.8630 C   0  0  0  0  0  3  0  0  0  0  0  0
  -21.0940   -5.9410   25.0080 C   0  0  0  0  0  3  0  0  0  0  0  0
  -21.3960   -4.5680   24.9240 C   0  0  0  0  0  0  0  0  0  0  0  0
  -21.7980   -4.0090   23.6990 C   0  0  0  0  0  3  0  0  0  0  0  0
  -21.8960   -4.8220   22.5550 C   0  0  0  0  0  0  0  0  0  0  0  0
  -22.2640   -4.2740   21.3710 F   0  0  0  0  0  0  0  0  0  0  0  0
  -21.2950   -3.7830   26.0220 F   0  0  0  0  0  0  0  0  0  0  0  0
  -22.7380  -13.5750   21.0800 C   0  0  0  0  0  0  0  0  0  0  0  0
  -21.9990  -12.8900   21.9450 N   0  0  0  0  0  0  0  0  0  0  0  0
  -22.3070  -14.5940   20.5420 O   0  0  0  0  0  0  0  0  0  0  0  0
  -22.3600  -12.0660   22.4030 H   0  0  0  0  0  0  0  0  0  0  0  0
  -21.0590  -13.1940   22.1550 H   0  0  0  0  0  0  0  0  0  0  0  0
  -25.3810  -15.2260   20.2670 N   0  0  0  0  0  0  0  0  0  0  0  0
  -24.6080  -15.8790   20.3430 H   0  0  0  0  0  0  0  0  0  0  0  0
  -26.2220  -15.6500   19.8980 H   0  0  0  0  0  0  0  0  0  0  0  0
  -28.1040  -24.1300   20.4230 C   0  0  0  0  0  3  0  0  0  0  0  0
  -26.7400  -23.8790   20.9520 N   0  0  0  0  0  4  0  0  0  0  0  0
  -26.7530  -23.7390   21.9480 H   0  0  0  0  0  0  0  0  0  0  0  0
  -26.3200  -23.0730   20.5250 H   0  0  0  0  0  0  0  0  0  0  0  0
  -26.1380  -24.6630   20.7680 H   0  0  0  0  0  0  0  0  0  0  0  0
  -28.6070  -25.5340   20.9270 C   0  0  0  0  0  2  0  0  0  0  0  0
  -28.3980  -26.6760   20.0600 O   0  0  0  0  0  0  0  0  0  0  0  0
  -24.6090  -31.8870   23.2390 C   0  0  0  0  0  0  0  0  0  0  0  0
  -27.2270  -27.4030   20.1630 C   0  0  0  0  0  0  0  0  0  0  0  0
  -23.3930  -30.4860   21.6040 C   0  0  0  0  0  3  0  0  0  0  0  0
  -24.8370  -28.9320   20.1820 C   0  0  0  0  0  0  0  0  0  0  0  0
  -25.9200  -30.8280   21.3970 C   0  0  0  0  0  2  0  0  0  0  0  0
  -26.0000  -29.4490   20.7690 C   0  0  0  0  0  0  0  0  0  0  0  0
  -27.1990  -28.6920   20.7570 C   0  0  0  0  0  3  0  0  0  0  0  0
  -26.0510  -26.9120   19.5610 C   0  0  0  0  0  3  0  0  0  0  0  0
  -24.8580  -27.6630   19.5760 C   0  0  0  0  0  3  0  0  0  0  0  0
  -23.5980  -29.8000   20.2260 C   0  0  0  0  0  2  0  0  0  0  0  0
  -24.6590  -31.0840   22.1370 N   0  0  0  0  0  0  0  0  0  0  0  0
  -23.5300  -32.1620   23.7840 O   0  0  0  0  0  0  0  0  0  0  0  0
  -22.7420  -29.4690   22.5690 C   0  0  0  0  0  0  0  0  0  0  0  0
  -21.4150  -29.2910   22.4490 N   0  0  0  0  0  0  0  0  0  0  0  0
  -23.4260  -28.8410   23.3810 O   0  0  0  0  0  0  0  0  0  0  0  0
  -20.9240  -29.8490   21.7650 H   0  0  0  0  0  0  0  0  0  0  0  0
  -18.0400  -28.1020   22.9600 C   0  0  0  0  0  0  0  0  0  0  0  0
  -20.6000  -28.3560   23.2230 C   0  0  0  0  0  3  0  0  0  0  0  0
  -20.6980  -26.9240   22.6450 C   0  0  0  0  0  2  0  0  0  0  0  0
  -19.5910  -26.6030   21.6360 C   0  0  0  0  0  2  0  0  0  0  0  0
  -18.2120  -26.7520   22.2850 C   0  0  0  0  0  2  0  0  0  0  0  0
  -19.1620  -28.8620   23.3860 C   0  0  0  0  0  0  0  0  0  0  0  0
  -18.9490  -30.1260   23.9760 C   0  0  0  0  0  3  0  0  0  0  0  0
  -17.6460  -30.6310   24.1460 C   0  0  0  0  0  3  0  0  0  0  0  0
  -16.5380  -29.8690   23.7370 C   0  0  0  0  0  3  0  0  0  0  0  0
  -16.7370  -28.6060   23.1490 C   0  0  0  0  0  3  0  0  0  0  0  0
  -25.8990  -32.5150   23.8530 C   0  0  0  0  0  3  0  0  0  0  0  0
  -25.5950  -33.9130   24.1880 N   0  0  0  0  0  0  0  0  0  0  0  0
  -25.9220  -34.9660   23.4290 C   0  0  0  0  0  0  0  0  0  0  0  0
  -26.5830  -34.8640   22.3910 O   0  0  0  0  0  0  0  0  0  0  0  0
  -25.0060  -34.0670   24.9950 H   0  0  0  0  0  0  0  0  0  0  0  0
  -24.1900  -36.7580   23.0930 C   0  0  0  0  0  1  0  0  0  0  0  0
  -25.4390  -36.3540   23.8920 C   0  0  0  0  0  3  0  0  0  0  0  0
  -27.5830  -37.2360   24.7000 C   0  0  0  0  0  1  0  0  0  0  0  0
  -26.4710  -37.4080   23.7690 N   0  0  0  0  0  0  0  0  0  0  0  0
  -26.0670  -38.3280   23.9230 H   0  0  0  0  0  0  0  0  0  0  0  0
  -26.4260  -31.7390   25.1220 C   0  0  1  0  0  0  0  0  0  0  0  0
  -25.3420  -31.4980   26.1980 C   0  0  0  0  0  1  0  0  0  0  0  0
  -27.0040  -30.3630   24.7170 C   0  0  0  0  0  1  0  0  0  0  0  0
  -27.5840  -32.5290   25.7760 C   0  0  0  0  0  1  0  0  0  0  0  0
  2  5  1  0
  3  2  1  0
  3  6  1  0
  5  4  1  0
  5  1  1  0
  6  7  1  1
  6  4  1  0
  8  6  1  0
  8  9  1  0
 10 18  1  0
 11 16  1  0
 12 13  1  0
 12 11  1  0
 14 13  1  0
 14 23  1  0
 14 15  1  0
 16 10  1  0
 16 15  1  0
 17 10  2  0
 18  9  1  0
 18 19  1  0
 20 21  2  0
 21 40  1  0
 22 21  1  0
 22 25  1  0
 23 20  1  0
 23 24  1  0
 24 22  2  0
 25 26  1  0
 26 27  2  0
 28 31  1  0
 28 27  1  0
 29 28  2  0
 30 29  1  0
 30 25  2  0
 31 32  1  0
 32 33  1  0
 33 34  2  0
 35 34  1  0
 35 39  1  0
 36 35  2  0
 37 32  2  0
 37 36  1  0
 38 37  1  0
 40 41  1  0
 41 44  1  0
 41 43  1  0
 42 40  2  0
 45 46  1  0
 45 20  1  0
 47 45  1  0
 48  1  1  0
 48 53  1  0
 48 49  1  0
 49 50  1  0
 51 49  1  0
 52 49  1  0
 54 56  1  0
 54 53  1  0
 55 66  2  0
 56 61  1  0
 57 65  1  0
 57 67  1  0
 58 64  1  0
 58 60  1  0
 59 65  1  0
 60 59  1  0
 61 60  2  0
 62 63  1  0
 62 56  2  0
 63 58  2  0
 64 57  1  0
 65 55  1  0
 67 69  2  0
 68 67  1  0
 70 68  1  0
 71 80  2  0
 71 76  1  0
 72 68  1  0
 72 76  1  0
 73 72  1  0
 74 75  1  0
 74 73  1  0
 75 71  1  0
 76 77  2  0
 77 78  1  0
 79 78  2  0
 80 79  1  0
 81 55  1  0
 81 82  1  0
 81 91  1  0
 82 85  1  0
 83 87  1  0
 83 82  1  0
 84 83  2  0
 87 86  1  0
 89 87  1  0
 89 90  1  0
 89 88  1  0
 91 94  1  1
 91 92  1  0
 93 91  1  0
M  ISO  4  10 100  18 100  53 101  54 101
M  END
>  <TORSDO>  (57) 
F 22

>  <SCORE>  (57) 
-13.410

>  <name>  (57) 
56

>  <ligand_id>  (57) 
56

>  <original_smiles>  (57) 
[H]c1c([H])c([H])c2c(c1[H])C([H])([H])C([H])([H])C([H])([H])C2([H])N([H])C(=O)C1([H])N(C(=O)C([H])(N([H])C(=O)C([H])(N([H])C([H])([H])[H])C([H])([H])[H])C(C([H])([H])[H])(C([H])([H])[H])C([H])([H])[H])C([H])([H])c2c([H])c(OC([H])([H])C([H])(C([H])([H])C3([H])C([H])([H])C([H])([H])[N+]([H])(C([H])([H])C([H])([H])N([H])C(=O)N4C([H])([H])C([H])([H])C([H])([H])C([H])(n5nc(-c6c([H])c([H])c(Oc7c([H])c([H])c(F)c([H])c7F)c([H])c6[H])c(C(=O)N([H])[H])c5N([H])[H])C4([H])[H])C3([H])[H])[N+]([H])([H])[H])c([H])c([H])c2C1([H])[H]

>  <smiles>  (57) 
[H]c1c([H])c([H])c2c(c1[H])C([H])([H])C([H])([H])C([H])([H])C2([H])N([H])C(=O)C1([H])N(C(=O)C([H])(N([H])C(=O)C([H])(N([H])C([H])([H])[H])C([H])([H])[H])C(C([H])([H])[H])(C([H])([H])[H])C([H])([H])[H])C([H])([H])c2c([H])c(OC([H])([H])C([H])(C([H])([H])C3([H])C([H])([H])C([H])([H])[N+]([H])(C([H])([H])C([H])([H])N([H])C(=O)N4C([H])([H])C([H])([H])C([H])([H])C([H])(n5nc(-c6c([H])c([H])c(Oc7c([H])c([H])c(F)c([H])c7F)c([H])c6[H])c(C(=O)N([H])[H])c5N([H])[H])C4([H])[H])C3([H])[H])[N+]([H])([H])[H])c([H])c([H])c2C1([H])[H]

$$$$
57:0:0
     RDKit          3D

 90 98  0  0  1  0  0  0  0  0999 V2000
  -31.0370  -17.9100   19.9770 C   0  0  0  0  0  3  0  0  0  0  0  0
  -31.0130  -19.3290   19.8310 C   0  0  0  0  0  3  0  0  0  0  0  0
  -28.7300  -17.9770   20.6360 C   0  0  0  0  0  3  0  0  0  0  0  0
  -29.8880  -17.1860   20.3860 C   0  0  0  0  0  0  0  0  0  0  0  0
  -29.8590  -20.1220   20.0780 C   0  0  0  0  0  0  0  0  0  0  0  0
  -28.7050  -19.3980   20.4900 C   0  0  0  0  0  0  0  0  0  0  0  0
  -27.5490  -20.0520   20.7580 F   0  0  0  0  0  0  0  0  0  0  0  0
  -30.5980  -14.6850   20.1250 C   0  0  0  0  0  0  0  0  0  0  0  0
  -30.3560  -12.4480   19.0640 C   0  0  0  0  0  2  0  0  0  0  0  0
  -29.3690  -12.5900   17.8830 C   0  0  0  0  0  2  0  0  0  0  0  0
  -27.9110  -12.4310   18.3610 C   0  0  0  0  0  2  0  0  0  0  0  0
  -27.6000  -13.2790   19.6230 C   0  0  0  0  0  3  0  0  0  0  0  0
  -28.6980  -13.1110   20.6970 C   0  0  0  0  0  2  0  0  0  0  0  0
  -29.9860  -13.4590   20.0760 N   0  0  0  0  0  0  0  0  0  0  0  0
  -31.7390  -14.8470   19.6810 O   0  0  0  0  0  0  0  0  0  0  0  0
  -29.8100  -15.7270   20.5450 N   0  0  0  0  0  0  0  0  0  0  0  0
  -28.9370  -15.4010   20.9340 H   0  0  0  0  0  0  0  0  0  0  0  0
  -25.2380  -13.8750   20.4420 C   0  0  0  0  0  0  0  0  0  0  0  0
  -24.1830  -13.1000   20.8410 C   0  0  0  0  0  0  0  0  0  0  0  0
  -24.6380  -11.7470   20.7700 C   0  0  0  0  0  0  0  0  0  0  0  0
  -26.2690  -12.9940   20.1530 N   0  0  0  0  0  0  0  0  0  0  0  0
  -25.9140  -11.7080   20.4090 N   0  0  0  0  0  0  0  0  0  0  0  0
  -23.9120  -10.4850   20.9680 C   0  0  0  0  0  0  0  0  0  0  0  0
  -24.3650   -9.5090   21.8830 C   0  0  0  0  0  3  0  0  0  0  0  0
  -23.6420   -8.3110   22.0690 C   0  0  0  0  0  3  0  0  0  0  0  0
  -22.4500   -8.0820   21.3400 C   0  0  0  0  0  0  0  0  0  0  0  0
  -22.0150   -9.0480   20.4150 C   0  0  0  0  0  3  0  0  0  0  0  0
  -22.7400  -10.2360   20.2260 C   0  0  0  0  0  3  0  0  0  0  0  0
  -21.6950   -6.9380   21.4370 O   0  0  0  0  0  0  0  0  0  0  0  0
  -21.6530   -6.1990   22.5920 C   0  0  0  0  0  0  0  0  0  0  0  0
  -21.2070   -6.7480   23.8130 C   0  0  0  0  0  3  0  0  0  0  0  0
  -21.1150   -5.9340   24.9610 C   0  0  0  0  0  3  0  0  0  0  0  0
  -21.4580   -4.5710   24.8850 C   0  0  0  0  0  0  0  0  0  0  0  0
  -21.8970   -4.0200   23.6680 C   0  0  0  0  0  3  0  0  0  0  0  0
  -21.9910   -4.8310   22.5240 C   0  0  0  0  0  0  0  0  0  0  0  0
  -22.3940   -4.2910   21.3490 F   0  0  0  0  0  0  0  0  0  0  0  0
  -21.3620   -3.7860   25.9840 F   0  0  0  0  0  0  0  0  0  0  0  0
  -22.7990  -13.5780   21.1750 C   0  0  0  0  0  0  0  0  0  0  0  0
  -22.1060  -12.8780   22.0650 N   0  0  0  0  0  0  0  0  0  0  0  0
  -22.3450  -14.6100   20.6840 O   0  0  0  0  0  0  0  0  0  0  0  0
  -22.4870  -12.0440   22.4880 H   0  0  0  0  0  0  0  0  0  0  0  0
  -21.1790  -13.1820   22.3300 H   0  0  0  0  0  0  0  0  0  0  0  0
  -25.4000  -15.2470   20.2780 N   0  0  0  0  0  0  0  0  0  0  0  0
  -24.6340  -15.8960   20.4170 H   0  0  0  0  0  0  0  0  0  0  0  0
  -26.2220  -15.6840   19.8800 H   0  0  0  0  0  0  0  0  0  0  0  0
  -29.9680  -21.5220   19.9050 O   0  0  0  0  0  0  0  0  0  0  0  0
  -28.8750  -22.4670   20.1420 C   0  0  0  0  0  3  0  0  0  0  0  0
  -29.2270  -24.0020   19.8750 C   0  0  0  0  0  3  0  0  0  0  0  0
  -28.0550  -25.0580   20.0540 C   0  0  0  0  0  2  0  0  0  0  0  0
  -28.3030  -26.5080   19.8500 O   0  0  0  0  0  0  0  0  0  0  0  0
  -24.6700  -31.8010   23.1690 C   0  0  0  0  0  0  0  0  0  0  0  0
  -27.1900  -27.3650   19.8710 C   0  0  0  0  0  0  0  0  0  0  0  0
  -23.4280  -30.4940   21.4830 C   0  0  0  0  0  3  0  0  0  0  0  0
  -24.8410  -28.9990   19.9700 C   0  0  0  0  0  0  0  0  0  0  0  0
  -25.9690  -30.7950   21.2790 C   0  0  0  0  0  2  0  0  0  0  0  0
  -26.0250  -29.4470   20.5710 C   0  0  0  0  0  0  0  0  0  0  0  0
  -27.2020  -28.6430   20.5130 C   0  0  0  0  0  3  0  0  0  0  0  0
  -25.9840  -26.9800   19.2380 C   0  0  0  0  0  3  0  0  0  0  0  0
  -24.8230  -27.7710   19.2960 C   0  0  0  0  0  3  0  0  0  0  0  0
  -23.6170  -29.8840   20.0710 C   0  0  0  0  0  2  0  0  0  0  0  0
  -24.7090  -31.0450   22.0350 N   0  0  0  0  0  0  0  0  0  0  0  0
  -23.5980  -32.0660   23.7310 O   0  0  0  0  0  0  0  0  0  0  0  0
  -22.7670  -29.4390   22.4030 C   0  0  0  0  0  0  0  0  0  0  0  0
  -21.4370  -29.2880   22.2910 N   0  0  0  0  0  0  0  0  0  0  0  0
  -23.4500  -28.7630   23.1770 O   0  0  0  0  0  0  0  0  0  0  0  0
  -20.9460  -29.8860   21.6410 H   0  0  0  0  0  0  0  0  0  0  0  0
  -18.0450  -28.1480   22.8170 C   0  0  0  0  0  0  0  0  0  0  0  0
  -20.6160  -28.3280   23.0300 C   0  0  0  0  0  3  0  0  0  0  0  0
  -20.6640  -26.9300   22.3690 C   0  0  0  0  0  2  0  0  0  0  0  0
  -19.5260  -26.6940   21.3700 C   0  0  0  0  0  2  0  0  0  0  0  0
  -18.1670  -26.8370   22.0610 C   0  0  0  0  0  2  0  0  0  0  0  0
  -19.1950  -28.8560   23.2580 C   0  0  0  0  0  0  0  0  0  0  0  0
  -19.0250  -30.0880   23.9270 C   0  0  0  0  0  3  0  0  0  0  0  0
  -17.7390  -30.6110   24.1590 C   0  0  0  0  0  3  0  0  0  0  0  0
  -16.6040  -29.8990   23.7320 C   0  0  0  0  0  3  0  0  0  0  0  0
  -16.7580  -28.6700   23.0680 C   0  0  0  0  0  3  0  0  0  0  0  0
  -25.9690  -32.3900   23.8020 C   0  0  0  0  0  3  0  0  0  0  0  0
  -26.4820  -31.5600   25.0420 C   0  0  1  0  0  0  0  0  0  0  0  0
  -25.3960  -31.3020   26.1120 C   0  0  0  0  0  1  0  0  0  0  0  0
  -27.0380  -30.1900   24.5940 C   0  0  0  0  0  1  0  0  0  0  0  0
  -27.6520  -32.3110   25.7230 C   0  0  0  0  0  1  0  0  0  0  0  0
  -25.6830  -33.7790   24.1890 N   0  0  0  0  0  0  0  0  0  0  0  0
  -25.9950  -34.8530   23.4520 C   0  0  0  0  0  0  0  0  0  0  0  0
  -26.6230  -34.7770   22.3920 O   0  0  0  0  0  0  0  0  0  0  0  0
  -25.1190  -33.9120   25.0150 H   0  0  0  0  0  0  0  0  0  0  0  0
  -24.2570  -36.6600   23.2380 C   0  0  0  0  0  1  0  0  0  0  0  0
  -25.5380  -36.2290   23.9710 C   0  0  0  0  0  3  0  0  0  0  0  0
  -27.7130  -37.0900   24.7190 C   0  0  0  0  0  1  0  0  0  0  0  0
  -26.5670  -37.2830   23.8340 N   0  0  0  0  0  0  0  0  0  0  0  0
  -26.1720  -38.2000   24.0220 H   0  0  0  0  0  0  0  0  0  0  0  0
  1  4  1  0
  2  1  2  0
  2  5  1  0
  4 16  1  0
  4  3  2  0
  5  6  2  0
  6  3  1  0
  6  7  1  0
  8 16  1  0
  9 14  1  0
 10 11  1  0
 10  9  1  0
 12 11  1  0
 12 21  1  0
 12 13  1  0
 14  8  1  0
 14 13  1  0
 15  8  2  0
 16 17  1  0
 18 19  2  0
 19 38  1  0
 20 19  1  0
 20 23  1  0
 21 22  1  0
 21 18  1  0
 22 20  2  0
 23 24  1  0
 24 25  2  0
 26 29  1  0
 26 25  1  0
 27 26  2  0
 28 27  1  0
 28 23  2  0
 29 30  1  0
 30 31  1  0
 31 32  2  0
 33 32  1  0
 33 37  1  0
 34 33  2  0
 35 30  2  0
 35 34  1  0
 36 35  1  0
 38 39  1  0
 39 42  1  0
 39 41  1  0
 40 38  2  0
 43 44  1  0
 43 18  1  0
 45 43  1  0
 46  5  1  0
 46 47  1  0
 48 49  1  0
 48 47  2  0
 50 52  1  0
 50 49  1  0
 51 62  2  0
 52 57  1  0
 53 61  1  0
 53 63  1  0
 54 60  1  0
 54 56  1  0
 55 61  1  0
 56 55  1  0
 57 56  2  0
 58 59  1  0
 58 52  2  0
 59 54  2  0
 60 53  1  0
 61 51  1  0
 63 65  2  0
 64 63  1  0
 66 64  1  0
 67 76  2  0
 67 72  1  0
 68 64  1  0
 68 72  1  0
 69 68  1  0
 70 71  1  0
 70 69  1  0
 71 67  1  0
 72 73  2  0
 73 74  1  0
 75 74  2  0
 76 75  1  0
 77 51  1  0
 77 82  1  0
 77 78  1  0
 78 81  1  1
 78 79  1  0
 80 78  1  0
 82 85  1  0
 83 87  1  0
 83 82  1  0
 84 83  2  0
 87 86  1  0
 89 87  1  0
 89 90  1  0
 89 88  1  0
M  ISO  4   8 100  16 100  49 101  50 101
M  END
>  <TORSDO>  (58) 
F 20

>  <SCORE>  (58) 
-13.622

>  <name>  (58) 
57

>  <ligand_id>  (58) 
57

>  <original_smiles>  (58) 
[H]c1c([H])c([H])c2c(c1[H])C([H])([H])C([H])([H])C([H])([H])C2([H])N([H])C(=O)C1([H])N(C(=O)C([H])(N([H])C(=O)C([H])(N([H])C([H])([H])[H])C([H])([H])[H])C(C([H])([H])[H])(C([H])([H])[H])C([H])([H])[H])C([H])([H])c2c([H])c(OC([H])([H])C([H])([H])C([H])([H])Oc3c([H])c([H])c(N([H])C(=O)N4C([H])([H])C([H])([H])C([H])([H])C([H])(n5nc(-c6c([H])c([H])c(Oc7c([H])c([H])c(F)c([H])c7F)c([H])c6[H])c(C(=O)N([H])[H])c5N([H])[H])C4([H])[H])c([H])c3F)c([H])c([H])c2C1([H])[H]

>  <smiles>  (58) 
[H]c1c([H])c([H])c2c(c1[H])C([H])([H])C([H])([H])C([H])([H])C2([H])N([H])C(=O)C1([H])N(C(=O)C([H])(N([H])C(=O)C([H])(N([H])C([H])([H])[H])C([H])([H])[H])C(C([H])([H])[H])(C([H])([H])[H])C([H])([H])[H])C([H])([H])c2c([H])c(OC([H])([H])C([H])([H])C([H])([H])Oc3c([H])c([H])c(N([H])C(=O)N4C([H])([H])C([H])([H])C([H])([H])C([H])(n5nc(-c6c([H])c([H])c(Oc7c([H])c([H])c(F)c([H])c7F)c([H])c6[H])c(C(=O)N([H])[H])c5N([H])[H])C4([H])[H])c([H])c3F)c([H])c([H])c2C1([H])[H]

$$$$
58:0:0
     RDKit          3D

 97106  0  0  1  0  0  0  0  0999 V2000
  -31.0280  -20.9280   19.6280 C   0  0  0  0  0  2  0  0  0  0  0  0
  -31.2870  -22.5640   21.3450 C   0  0  0  0  0  2  0  0  0  0  0  0
  -29.9160  -20.6340   20.6440 C   0  0  0  0  0  3  0  0  0  0  0  0
  -29.8230  -22.0330   21.3760 C   0  0  0  0  0  3  0  0  0  0  0  0
  -32.7830  -22.6670   19.3770 C   0  0  0  0  0  1  0  0  0  0  0  0
  -32.0040  -21.8110   20.2960 N   0  0  2  0  0  4  0  0  0  0  0  0
  -32.6610  -21.2190   20.7810 H   0  0  0  0  0  0  0  0  0  0  0  0
  -30.9380  -16.8780   22.7450 C   0  0  0  0  0  3  0  0  0  0  0  0
  -31.3040  -18.1180   23.2960 C   0  0  0  0  0  3  0  0  0  0  0  0
  -29.8340  -18.0590   20.9180 C   0  0  0  0  0  3  0  0  0  0  0  0
  -30.2320  -19.3310   21.4450 C   0  0  0  0  0  0  0  0  0  0  0  0
  -30.1980  -16.8310   21.5490 C   0  0  0  0  0  0  0  0  0  0  0  0
  -30.9550  -19.3270   22.6650 C   0  0  0  0  0  0  0  0  0  0  0  0
  -31.3420  -20.4740   23.2570 F   0  0  0  0  0  0  0  0  0  0  0  0
  -30.4130  -14.6530   20.3250 C   0  0  0  0  0  0  0  0  0  0  0  0
  -30.1390  -12.5470   19.0360 C   0  0  0  0  0  2  0  0  0  0  0  0
  -29.1250  -12.7500   17.8910 C   0  0  0  0  0  2  0  0  0  0  0  0
  -27.6770  -12.5490   18.3820 C   0  0  0  0  0  2  0  0  0  0  0  0
  -27.3840  -13.3090   19.7060 C   0  0  0  0  0  3  0  0  0  0  0  0
  -28.4980  -13.0550   20.7460 C   0  0  0  0  0  2  0  0  0  0  0  0
  -29.7790  -13.4580   20.1380 N   0  0  0  0  0  0  0  0  0  0  0  0
  -31.4740  -14.9360   19.7600 O   0  0  0  0  0  0  0  0  0  0  0  0
  -29.7400  -15.5560   21.0790 N   0  0  0  0  0  0  0  0  0  0  0  0
  -28.8840  -15.2150   21.4850 H   0  0  0  0  0  0  0  0  0  0  0  0
  -25.0090  -13.8200   20.5520 C   0  0  0  0  0  0  0  0  0  0  0  0
  -23.9830  -13.0030   20.9520 C   0  0  0  0  0  0  0  0  0  0  0  0
  -24.4840  -11.6680   20.8560 C   0  0  0  0  0  0  0  0  0  0  0  0
  -26.0650  -12.9760   20.2400 N   0  0  0  0  0  0  0  0  0  0  0  0
  -25.7560  -11.6770   20.4780 N   0  0  0  0  0  0  0  0  0  0  0  0
  -23.8100  -10.3790   21.0490 C   0  0  0  0  0  0  0  0  0  0  0  0
  -24.2950   -9.4200   21.9660 C   0  0  0  0  0  3  0  0  0  0  0  0
  -23.6210   -8.1940   22.1410 C   0  0  0  0  0  3  0  0  0  0  0  0
  -22.4470   -7.9180   21.4020 C   0  0  0  0  0  0  0  0  0  0  0  0
  -21.9840   -8.8640   20.4690 C   0  0  0  0  0  3  0  0  0  0  0  0
  -22.6590  -10.0820   20.2930 C   0  0  0  0  0  3  0  0  0  0  0  0
  -21.7340   -6.7470   21.4910 O   0  0  0  0  0  0  0  0  0  0  0  0
  -21.7060   -6.0070   22.6450 C   0  0  0  0  0  0  0  0  0  0  0  0
  -21.2260   -6.5390   23.8620 C   0  0  0  0  0  3  0  0  0  0  0  0
  -21.1540   -5.7210   25.0080 C   0  0  0  0  0  3  0  0  0  0  0  0
  -21.5460   -4.3720   24.9360 C   0  0  0  0  0  0  0  0  0  0  0  0
  -22.0160   -3.8380   23.7240 C   0  0  0  0  0  3  0  0  0  0  0  0
  -22.0920   -4.6530   22.5820 C   0  0  0  0  0  0  0  0  0  0  0  0
  -22.5270   -4.1280   21.4110 F   0  0  0  0  0  0  0  0  0  0  0  0
  -21.4660   -3.5830   26.0320 F   0  0  0  0  0  0  0  0  0  0  0  0
  -22.5890  -13.4260   21.3130 C   0  0  0  0  0  0  0  0  0  0  0  0
  -21.9340  -12.6780   22.1950 N   0  0  0  0  0  0  0  0  0  0  0  0
  -22.0900  -14.4530   20.8520 O   0  0  0  0  0  0  0  0  0  0  0  0
  -22.3560  -11.8540   22.5950 H   0  0  0  0  0  0  0  0  0  0  0  0
  -20.9980  -12.9340   22.4740 H   0  0  0  0  0  0  0  0  0  0  0  0
  -25.1270  -15.1970   20.4050 N   0  0  0  0  0  0  0  0  0  0  0  0
  -24.3550  -15.8330   20.5740 H   0  0  0  0  0  0  0  0  0  0  0  0
  -25.9490  -15.6650   20.0430 H   0  0  0  0  0  0  0  0  0  0  0  0
  -27.5020  -22.5150   21.0280 C   0  0  0  0  0  1  0  0  0  0  0  0
  -28.8620  -22.9290   20.6550 N   0  0  0  0  0  0  0  0  0  0  0  0
  -29.0040  -24.4080   20.8340 C   0  0  0  0  0  3  0  0  0  0  0  0
  -27.8950  -25.2760   20.1640 C   0  0  0  0  0  3  0  0  0  0  0  0
  -28.1880  -26.6970   20.0350 O   0  0  0  0  0  0  0  0  0  0  0  0
  -24.5310  -31.9260   23.1790 C   0  0  0  0  0  0  0  0  0  0  0  0
  -27.0700  -27.5130   19.9700 C   0  0  0  0  0  0  0  0  0  0  0  0
  -23.2790  -30.5620   21.5400 C   0  0  0  0  0  3  0  0  0  0  0  0
  -24.6930  -29.0620   20.0360 C   0  0  0  0  0  0  0  0  0  0  0  0
  -25.8040  -30.9190   21.2830 C   0  0  0  0  0  2  0  0  0  0  0  0
  -25.8710  -29.5630   20.6060 C   0  0  0  0  0  0  0  0  0  0  0  0
  -27.0650  -28.8010   20.5610 C   0  0  0  0  0  3  0  0  0  0  0  0
  -25.8780  -27.0520   19.3630 C   0  0  0  0  0  3  0  0  0  0  0  0
  -24.6950  -27.8080   19.4030 C   0  0  0  0  0  3  0  0  0  0  0  0
  -23.4540  -29.9210   20.1370 C   0  0  0  0  0  2  0  0  0  0  0  0
  -24.5570  -31.1510   22.0560 N   0  0  0  0  0  0  0  0  0  0  0  0
  -23.4660  -32.1830   23.7560 O   0  0  0  0  0  0  0  0  0  0  0  0
  -22.6550  -29.5160   22.4940 C   0  0  0  0  0  0  0  0  0  0  0  0
  -21.3310  -29.3100   22.3770 N   0  0  0  0  0  0  0  0  0  0  0  0
  -23.3580  -28.8930   23.2940 O   0  0  0  0  0  0  0  0  0  0  0  0
  -20.8220  -29.8720   21.7090 H   0  0  0  0  0  0  0  0  0  0  0  0
  -17.9880  -28.0240   22.8680 C   0  0  0  0  0  0  0  0  0  0  0  0
  -20.5380  -28.3480   23.1430 C   0  0  0  0  0  3  0  0  0  0  0  0
  -20.6780  -26.9200   22.5660 C   0  0  0  0  0  2  0  0  0  0  0  0
  -19.5870  -26.5700   21.5490 C   0  0  0  0  0  2  0  0  0  0  0  0
  -18.2010  -26.6800   22.1910 C   0  0  0  0  0  2  0  0  0  0  0  0
  -19.0870  -28.8140   23.3010 C   0  0  0  0  0  0  0  0  0  0  0  0
  -18.8340  -30.0700   23.8920 C   0  0  0  0  0  3  0  0  0  0  0  0
  -17.5170  -30.5380   24.0570 C   0  0  0  0  0  3  0  0  0  0  0  0
  -16.4330  -29.7450   23.6400 C   0  0  0  0  0  3  0  0  0  0  0  0
  -16.6710  -28.4900   23.0510 C   0  0  0  0  0  3  0  0  0  0  0  0
  -25.8330  -32.5440   23.7780 C   0  0  0  0  0  3  0  0  0  0  0  0
  -26.3790  -31.7520   25.0300 C   0  0  1  0  0  0  0  0  0  0  0  0
  -25.3170  -31.4980   26.1250 C   0  0  0  0  0  1  0  0  0  0  0  0
  -26.9510  -30.3780   24.6010 C   0  0  0  0  0  1  0  0  0  0  0  0
  -27.5420  -32.5390   25.6790 C   0  0  0  0  0  1  0  0  0  0  0  0
  -25.5340  -33.9370   24.1340 N   0  0  0  0  0  0  0  0  0  0  0  0
  -25.8420  -34.9990   23.3780 C   0  0  0  0  0  0  0  0  0  0  0  0
  -26.4810  -34.9080   22.3260 O   0  0  0  0  0  0  0  0  0  0  0  0
  -24.9670  -34.0820   24.9570 H   0  0  0  0  0  0  0  0  0  0  0  0
  -24.1050  -36.8000   23.0970 C   0  0  0  0  0  1  0  0  0  0  0  0
  -25.3670  -36.3800   23.8680 C   0  0  0  0  0  3  0  0  0  0  0  0
  -27.5220  -37.2580   24.6540 C   0  0  0  0  0  1  0  0  0  0  0  0
  -26.3940  -37.4360   23.7430 N   0  0  0  0  0  0  0  0  0  0  0  0
  -25.9930  -38.3540   23.9090 H   0  0  0  0  0  0  0  0  0  0  0  0
  1  6  1  0
  1  3  1  0
  2  4  1  0
  3  4  1  0
  3 11  1  0
  4 54  1  0
  5  6  1  0
  6  7  1  1
  6  2  1  0
  8  9  1  0
 10 11  2  0
 10 12  1  0
 11 13  1  0
 12  8  2  0
 13 14  1  0
 13  9  2  0
 15 23  1  0
 16 21  1  0
 17 18  1  0
 17 16  1  0
 19 18  1  0
 19 28  1  0
 19 20  1  0
 21 15  1  0
 21 20  1  0
 22 15  2  0
 23 24  1  0
 23 12  1  0
 25 26  2  0
 26 45  1  0
 27 26  1  0
 27 30  1  0
 28 29  1  0
 28 25  1  0
 29 27  2  0
 30 31  1  0
 31 32  2  0
 33 36  1  0
 33 32  1  0
 34 33  2  0
 35 34  1  0
 35 30  2  0
 36 37  1  0
 37 38  1  0
 38 39  2  0
 40 39  1  0
 40 44  1  0
 41 40  2  0
 42 37  2  0
 42 41  1  0
 43 42  1  0
 45 46  1  0
 46 49  1  0
 46 48  1  0
 47 45  2  0
 50 25  1  0
 50 51  1  0
 52 50  1  0
 54 55  1  0
 54 53  1  0
 56 55  2  0
 57 56  1  0
 58 69  2  0
 59 57  1  0
 59 64  1  0
 60 68  1  0
 60 70  1  0
 61 67  1  0
 61 63  1  0
 62 68  1  0
 63 62  1  0
 64 63  2  0
 65 66  1  0
 65 59  2  0
 66 61  2  0
 67 60  1  0
 68 58  1  0
 70 72  2  0
 71 70  1  0
 73 71  1  0
 74 83  2  0
 74 79  1  0
 75 71  1  0
 75 79  1  0
 76 75  1  0
 77 78  1  0
 77 76  1  0
 78 74  1  0
 79 80  2  0
 80 81  1  0
 82 81  2  0
 83 82  1  0
 84 58  1  0
 84 89  1  0
 84 85  1  0
 85 88  1  1
 85 86  1  0
 87 85  1  0
 89 92  1  0
 90 94  1  0
 90 89  1  0
 91 90  2  0
 94 93  1  0
 96 94  1  0
 96 97  1  0
 96 95  1  0
M  ISO  4  15 100  23 100  56 101  57 101
M  END
>  <TORSDO>  (59) 
F 20

>  <SCORE>  (59) 
-13.345

>  <name>  (59) 
58

>  <ligand_id>  (59) 
58

>  <original_smiles>  (59) 
[H]c1c([H])c([H])c2c(c1[H])C([H])([H])C([H])([H])C([H])([H])C2([H])N([H])C(=O)C1([H])N(C(=O)C([H])(N([H])C(=O)C([H])(N([H])C([H])([H])[H])C([H])([H])[H])C(C([H])([H])[H])(C([H])([H])[H])C([H])([H])[H])C([H])([H])c2c([H])c(OC([H])([H])C([H])([H])N(C([H])([H])[H])C3([H])C([H])(c4c([H])c(N([H])C(=O)N5C([H])([H])C([H])([H])C([H])([H])C([H])(n6nc(-c7c([H])c([H])c(Oc8c([H])c([H])c(F)c([H])c8F)c([H])c7[H])c(C(=O)N([H])[H])c6N([H])[H])C5([H])[H])c([H])c([H])c4F)C([H])([H])[N+]([H])(C([H])([H])[H])C3([H])[H])c([H])c([H])c2C1([H])[H]

>  <smiles>  (59) 
[H]c1c([H])c([H])c2c(c1[H])C([H])([H])C([H])([H])C([H])([H])C2([H])N([H])C(=O)C1([H])N(C(=O)C([H])(N([H])C(=O)C([H])(N([H])C([H])([H])[H])C([H])([H])[H])C(C([H])([H])[H])(C([H])([H])[H])C([H])([H])[H])C([H])([H])c2c([H])c(OC([H])([H])C([H])([H])N(C([H])([H])[H])C3([H])C([H])(c4c([H])c(N([H])C(=O)N5C([H])([H])C([H])([H])C([H])([H])C([H])(n6nc(-c7c([H])c([H])c(Oc8c([H])c([H])c(F)c([H])c8F)c([H])c7[H])c(C(=O)N([H])[H])c6N([H])[H])C5([H])[H])c([H])c([H])c4F)C([H])([H])[N+]([H])(C([H])([H])[H])C3([H])[H])c([H])c([H])c2C1([H])[H]

$$$$
59:0:0
     RDKit          3D

 94102  0  0  1  0  0  0  0  0999 V2000
  -28.5610  -20.6690   20.3890 C   0  0  0  0  0  2  0  0  0  0  0  0
  -28.5560  -22.0320   20.9690 N   0  0  0  0  0  4  0  0  0  0  0  0
  -27.6950  -22.1510   21.4770 H   0  0  0  0  0  0  0  0  0  0  0  0
  -29.3140  -22.0950   21.6290 H   0  0  0  0  0  0  0  0  0  0  0  0
  -28.7080  -23.1290   19.9840 C   0  0  0  0  0  2  0  0  0  0  0  0
  -28.4740  -24.5280   20.5990 C   0  0  0  0  0  2  0  0  0  0  0  0
  -28.8640  -25.6900   19.6600 C   0  0  0  0  0  2  0  0  0  0  0  0
  -28.6740  -26.9560   20.2900 O   0  0  0  0  0  0  0  0  0  0  0  0
  -24.6620  -31.9850   23.2880 C   0  0  0  0  0  0  0  0  0  0  0  0
  -27.4460  -27.5870   20.2670 C   0  0  0  0  0  0  0  0  0  0  0  0
  -23.5100  -30.5540   21.6300 C   0  0  0  0  0  3  0  0  0  0  0  0
  -25.0120  -29.0320   20.2430 C   0  0  0  0  0  0  0  0  0  0  0  0
  -26.0330  -30.9550   21.4820 C   0  0  0  0  0  2  0  0  0  0  0  0
  -26.1480  -29.5850   20.8440 C   0  0  0  0  0  0  0  0  0  0  0  0
  -27.3640  -28.8690   20.8510 C   0  0  0  0  0  3  0  0  0  0  0  0
  -26.2820  -27.0310   19.6820 C   0  0  0  0  0  3  0  0  0  0  0  0
  -25.0730  -27.7530   19.6610 C   0  0  0  0  0  3  0  0  0  0  0  0
  -23.7540  -29.8690   20.2600 C   0  0  0  0  0  2  0  0  0  0  0  0
  -24.7510  -31.1810   22.1900 N   0  0  0  0  0  0  0  0  0  0  0  0
  -23.5680  -32.2420   23.8080 O   0  0  0  0  0  0  0  0  0  0  0  0
  -22.8600  -29.5280   22.5860 C   0  0  0  0  0  0  0  0  0  0  0  0
  -21.5400  -29.3260   22.4400 N   0  0  0  0  0  0  0  0  0  0  0  0
  -23.5390  -28.9170   23.4150 O   0  0  0  0  0  0  0  0  0  0  0  0
  -21.0550  -29.8590   21.7310 H   0  0  0  0  0  0  0  0  0  0  0  0
  -18.1720  -28.1040   22.9070 C   0  0  0  0  0  0  0  0  0  0  0  0
  -20.7240  -28.3840   23.2050 C   0  0  0  0  0  3  0  0  0  0  0  0
  -20.8480  -26.9550   22.6320 C   0  0  0  0  0  2  0  0  0  0  0  0
  -19.7600  -26.6190   21.6080 C   0  0  0  0  0  2  0  0  0  0  0  0
  -18.3680  -26.7550   22.2360 C   0  0  0  0  0  2  0  0  0  0  0  0
  -19.2800  -28.8750   23.3480 C   0  0  0  0  0  0  0  0  0  0  0  0
  -19.0460  -30.1370   23.9350 C   0  0  0  0  0  3  0  0  0  0  0  0
  -17.7370  -30.6310   24.0830 C   0  0  0  0  0  3  0  0  0  0  0  0
  -16.6420  -29.8580   23.6610 C   0  0  0  0  0  3  0  0  0  0  0  0
  -16.8600  -28.5940   23.0820 C   0  0  0  0  0  3  0  0  0  0  0  0
  -25.9270  -32.6430   23.9230 C   0  0  0  0  0  3  0  0  0  0  0  0
  -25.5770  -34.0290   24.2620 N   0  0  0  0  0  0  0  0  0  0  0  0
  -25.8730  -35.0930   23.5040 C   0  0  0  0  0  0  0  0  0  0  0  0
  -26.5430  -35.0150   22.4700 O   0  0  0  0  0  0  0  0  0  0  0  0
  -24.9780  -34.1590   25.0640 H   0  0  0  0  0  0  0  0  0  0  0  0
  -24.0880  -36.8340   23.1670 C   0  0  0  0  0  1  0  0  0  0  0  0
  -25.3480  -36.4650   23.9680 C   0  0  0  0  0  3  0  0  0  0  0  0
  -27.4650  -37.4110   24.7800 C   0  0  0  0  0  1  0  0  0  0  0  0
  -26.3470  -37.5490   23.8490 N   0  0  0  0  0  0  0  0  0  0  0  0
  -25.9140  -38.4560   24.0050 H   0  0  0  0  0  0  0  0  0  0  0  0
  -26.4580  -31.8730   25.1960 C   0  0  1  0  0  0  0  0  0  0  0  0
  -25.3650  -31.5680   26.2460 C   0  0  0  0  0  1  0  0  0  0  0  0
  -27.1110  -30.5290   24.7940 C   0  0  0  0  0  1  0  0  0  0  0  0
  -27.5620  -32.7070   25.8900 C   0  0  0  0  0  1  0  0  0  0  0  0
  -29.3570  -19.6680   21.2650 C   0  0  0  0  0  2  0  0  0  0  0  0
  -30.5900  -18.3910   19.6080 C   0  0  0  0  0  1  0  0  0  0  0  0
  -29.5420  -18.3450   20.6420 N   0  0  0  0  0  0  0  0  0  0  0  0
  -30.0180  -15.8730   21.1010 C   0  0  0  0  0  3  0  0  0  0  0  0
  -31.1300  -15.2860   21.9510 C   0  0  0  0  0  0  0  0  0  0  0  0
  -31.6280  -16.2990   22.9630 C   0  0  0  0  0  2  0  0  0  0  0  0
  -30.8860  -17.6010   22.6420 C   0  0  0  0  0  2  0  0  0  0  0  0
  -29.7310  -17.2770   21.6610 C   0  0  0  0  0  3  0  0  0  0  0  0
  -29.3820  -15.4260   20.0750 N   0  0  0  0  0  2  0  0  0  0  0  0
  -31.5810  -14.1360   21.8890 O   0  0  0  0  0  0  0  0  0  0  0  0
  -29.9800  -14.4330   19.3160 C   0  0  0  0  0  0  0  0  0  0  0  0
  -29.5910  -12.2510   18.2430 C   0  0  0  0  0  2  0  0  0  0  0  0
  -28.4340  -12.3940   17.2350 C   0  0  0  0  0  2  0  0  0  0  0  0
  -27.0800  -12.1650   17.9320 C   0  0  0  0  0  2  0  0  0  0  0  0
  -26.9310  -12.9990   19.2320 C   0  0  0  0  0  3  0  0  0  0  0  0
  -28.1820  -12.8580   20.1270 C   0  0  0  0  0  2  0  0  0  0  0  0
  -29.3620  -13.2210   19.3250 N   0  0  0  0  0  0  0  0  0  0  0  0
  -30.9590  -14.6510   18.5990 O   0  0  0  0  0  0  0  0  0  0  0  0
  -24.7100  -13.4690   20.4450 C   0  0  0  0  0  0  0  0  0  0  0  0
  -23.7570  -12.6330   20.9620 C   0  0  0  0  0  0  0  0  0  0  0  0
  -24.2350  -11.3060   20.7420 C   0  0  0  0  0  0  0  0  0  0  0  0
  -25.7090  -12.6450   19.9500 N   0  0  0  0  0  0  0  0  0  0  0  0
  -25.4360  -11.3360   20.1810 N   0  0  0  0  0  0  0  0  0  0  0  0
  -23.5940  -10.0050   20.9790 C   0  0  0  0  0  0  0  0  0  0  0  0
  -24.1580   -9.0550   21.8600 C   0  0  0  0  0  3  0  0  0  0  0  0
  -23.5130   -7.8190   22.0880 C   0  0  0  0  0  3  0  0  0  0  0  0
  -22.2930   -7.5240   21.4340 C   0  0  0  0  0  0  0  0  0  0  0  0
  -21.7480   -8.4650   20.5420 C   0  0  0  0  0  3  0  0  0  0  0  0
  -22.3920   -9.6920   20.3130 C   0  0  0  0  0  3  0  0  0  0  0  0
  -21.6120   -6.3380   21.5710 O   0  0  0  0  0  0  0  0  0  0  0  0
  -21.6280   -5.6300   22.7460 C   0  0  0  0  0  0  0  0  0  0  0  0
  -21.1730   -6.1910   23.9600 C   0  0  0  0  0  3  0  0  0  0  0  0
  -21.1430   -5.4070   25.1290 C   0  0  0  0  0  3  0  0  0  0  0  0
  -21.5590   -4.0610   25.0880 C   0  0  0  0  0  0  0  0  0  0  0  0
  -22.0090   -3.5010   23.8790 C   0  0  0  0  0  3  0  0  0  0  0  0
  -22.0410   -4.2830   22.7110 C   0  0  0  0  0  0  0  0  0  0  0  0
  -22.4530   -3.7310   21.5450 F   0  0  0  0  0  0  0  0  0  0  0  0
  -21.5250   -3.3050   26.2100 F   0  0  0  0  0  0  0  0  0  0  0  0
  -22.4320  -13.0350   21.5430 C   0  0  0  0  0  0  0  0  0  0  0  0
  -21.9180  -12.2530   22.4860 N   0  0  0  0  0  0  0  0  0  0  0  0
  -21.8680  -14.0710   21.1960 O   0  0  0  0  0  0  0  0  0  0  0  0
  -22.3910  -11.4130   22.7810 H   0  0  0  0  0  0  0  0  0  0  0  0
  -21.0390  -12.4990   22.9190 H   0  0  0  0  0  0  0  0  0  0  0  0
  -24.8060  -14.8520   20.3390 N   0  0  0  0  0  0  0  0  0  0  0  0
  -24.0780  -15.4810   20.6570 H   0  0  0  0  0  0  0  0  0  0  0  0
  -25.5900  -15.3310   19.9100 H   0  0  0  0  0  0  0  0  0  0  0  0
  1  2  1  0
  1 49  1  0
  2  3  1  0
  2  4  1  0
  5  6  1  0
  5  2  1  0
  7  8  1  0
  7  6  1  0
  9 20  2  0
 10  8  1  0
 10 15  1  0
 11 19  1  0
 11 21  1  0
 12 18  1  0
 12 14  1  0
 13 19  1  0
 14 15  2  0
 14 13  1  0
 16 10  2  0
 17 16  1  0
 17 12  2  0
 18 11  1  0
 19  9  1  0
 21 23  2  0
 22 21  1  0
 24 22  1  0
 25 34  2  0
 25 30  1  0
 26 22  1  0
 26 30  1  0
 27 26  1  0
 28 29  1  0
 28 27  1  0
 29 25  1  0
 30 31  2  0
 31 32  1  0
 33 32  2  0
 34 33  1  0
 35  9  1  0
 35 36  1  0
 35 45  1  0
 36 39  1  0
 37 41  1  0
 37 36  1  0
 38 37  2  0
 41 40  1  0
 43 41  1  0
 43 44  1  0
 43 42  1  0
 45 48  1  1
 45 46  1  0
 47 45  1  0
 50 51  1  0
 51 49  1  0
 52 57  1  0
 52 56  1  0
 52 53  1  0
 53 54  1  0
 55 54  1  0
 56 51  1  0
 56 55  1  0
 58 53  2  0
 59 65  1  0
 59 57  1  0
 60 65  1  0
 61 62  1  0
 61 60  1  0
 63 62  1  0
 63 70  1  0
 63 64  1  0
 65 64  1  0
 66 59  2  0
 67 68  2  0
 68 87  1  0
 69 68  1  0
 69 72  1  0
 70 71  1  0
 70 67  1  0
 71 69  2  0
 72 73  1  0
 73 74  2  0
 75 78  1  0
 75 74  1  0
 76 75  2  0
 77 76  1  0
 77 72  2  0
 78 79  1  0
 79 80  1  0
 80 81  2  0
 82 81  1  0
 82 86  1  0
 83 82  2  0
 84 79  2  0
 84 83  1  0
 85 84  1  0
 87 88  1  0
 88 90  1  0
 88 91  1  0
 89 87  2  0
 92 67  1  0
 92 93  1  0
 94 92  1  0
M  ISO  4   7 101   8 101  57 100  59 100
M  END
>  <TORSDO>  (60) 
F 23

>  <SCORE>  (60) 
-9.077

>  <name>  (60) 
59

>  <ligand_id>  (60) 
59

>  <original_smiles>  (60) 
[H]c1c([H])c([H])c2c(c1[H])C([H])([H])C([H])([H])C([H])([H])C2([H])N([H])C(=O)C1([H])N(C(=O)C([H])(N([H])C(=O)C([H])(N([H])C([H])([H])[H])C([H])([H])[H])C(C([H])([H])[H])(C([H])([H])[H])C([H])([H])[H])C([H])([H])c2c([H])c(OC([H])([H])C([H])([H])C([H])([H])[N+]([H])([H])C([H])([H])C([H])([H])N(C([H])([H])[H])C3([H])C(=NC(=O)N4C([H])([H])C([H])([H])C([H])([H])C([H])(n5nc(-c6c([H])c([H])c(Oc7c([H])c([H])c(F)c([H])c7F)c([H])c6[H])c(C(=O)N([H])[H])c5N([H])[H])C4([H])[H])C(=O)C([H])([H])C3([H])[H])c([H])c([H])c2C1([H])[H]

>  <smiles>  (60) 
[H]c1c([H])c([H])c2c(c1[H])C([H])([H])C([H])([H])C([H])([H])C2([H])N([H])C(=O)C1([H])N(C(=O)C([H])(N([H])C(=O)C([H])(N([H])C([H])([H])[H])C([H])([H])[H])C(C([H])([H])[H])(C([H])([H])[H])C([H])([H])[H])C([H])([H])c2c([H])c(OC([H])([H])C([H])([H])C([H])([H])[N+]([H])([H])C([H])([H])C([H])([H])N(C([H])([H])[H])C3([H])C(=NC(=O)N4C([H])([H])C([H])([H])C([H])([H])C([H])(n5nc(-c6c([H])c([H])c(Oc7c([H])c([H])c(F)c([H])c7F)c([H])c6[H])c(C(=O)N([H])[H])c5N([H])[H])C4([H])[H])C(=O)C([H])([H])C3([H])[H])c([H])c([H])c2C1([H])[H]

$$$$
60:0:0
     RDKit          3D

 91 99  0  0  1  0  0  0  0  0999 V2000
  -27.9610  -22.4280   21.6120 C   0  0  0  0  0  1  0  0  0  0  0  0
  -28.9570  -22.6790   20.5430 N   0  0  1  0  0  4  0  0  0  0  0  0
  -29.8520  -22.7450   21.0050 H   0  0  0  0  0  0  0  0  0  0  0  0
  -29.0840  -21.5010   19.5850 C   0  0  0  0  0  2  0  0  0  0  0  0
  -28.5220  -19.2280   20.8030 C   0  0  0  0  0  3  0  0  0  0  0  0
  -30.5650  -19.3360   19.5470 C   0  0  0  0  0  3  0  0  0  0  0  0
  -28.7370  -17.8340   21.0170 C   0  0  0  0  0  3  0  0  0  0  0  0
  -30.7700  -17.9330   19.7360 C   0  0  0  0  0  3  0  0  0  0  0  0
  -29.4240  -20.0260   20.0530 C   0  0  0  0  0  0  0  0  0  0  0  0
  -29.8440  -17.1380   20.4630 C   0  0  0  0  0  0  0  0  0  0  0  0
  -30.6620  -14.6950   20.0820 C   0  0  0  0  0  0  0  0  0  0  0  0
  -30.4200  -12.4960   18.9420 C   0  0  0  0  0  2  0  0  0  0  0  0
  -29.4100  -12.6430   17.7810 C   0  0  0  0  0  2  0  0  0  0  0  0
  -27.9580  -12.4790   18.2740 C   0  0  0  0  0  2  0  0  0  0  0  0
  -27.6650  -13.3060   19.5540 C   0  0  0  0  0  3  0  0  0  0  0  0
  -28.7720  -13.0950   20.6120 C   0  0  0  0  0  2  0  0  0  0  0  0
  -30.0560  -13.4680   19.9930 N   0  0  0  0  0  0  0  0  0  0  0  0
  -31.7830  -14.8940   19.6020 O   0  0  0  0  0  0  0  0  0  0  0  0
  -29.8970  -15.6850   20.6370 N   0  0  0  0  0  0  0  0  0  0  0  0
  -29.0910  -15.3080   21.1090 H   0  0  0  0  0  0  0  0  0  0  0  0
  -25.3020  -13.8980   20.3740 C   0  0  0  0  0  0  0  0  0  0  0  0
  -24.2510  -13.1200   20.7790 C   0  0  0  0  0  0  0  0  0  0  0  0
  -24.7130  -11.7700   20.7140 C   0  0  0  0  0  0  0  0  0  0  0  0
  -26.3370  -13.0210   20.0880 N   0  0  0  0  0  0  0  0  0  0  0  0
  -25.9890  -11.7340   20.3520 N   0  0  0  0  0  0  0  0  0  0  0  0
  -23.9950  -10.5040   20.9220 C   0  0  0  0  0  0  0  0  0  0  0  0
  -24.4480   -9.5450   21.8530 C   0  0  0  0  0  3  0  0  0  0  0  0
  -23.7340   -8.3420   22.0460 C   0  0  0  0  0  3  0  0  0  0  0  0
  -22.5520   -8.0930   21.3070 C   0  0  0  0  0  0  0  0  0  0  0  0
  -22.1240   -9.0390   20.3600 C   0  0  0  0  0  3  0  0  0  0  0  0
  -22.8380  -10.2330   20.1660 C   0  0  0  0  0  3  0  0  0  0  0  0
  -21.8100   -6.9420   21.4080 O   0  0  0  0  0  0  0  0  0  0  0  0
  -21.7430   -6.2290   22.5790 C   0  0  0  0  0  0  0  0  0  0  0  0
  -21.2890   -6.8120   23.7840 C   0  0  0  0  0  3  0  0  0  0  0  0
  -21.1720   -6.0240   24.9470 C   0  0  0  0  0  3  0  0  0  0  0  0
  -21.4990   -4.6550   24.9060 C   0  0  0  0  0  0  0  0  0  0  0  0
  -21.9470   -4.0720   23.7080 C   0  0  0  0  0  3  0  0  0  0  0  0
  -22.0670   -4.8570   22.5470 C   0  0  0  0  0  0  0  0  0  0  0  0
  -22.4780   -4.2860   21.3890 F   0  0  0  0  0  0  0  0  0  0  0  0
  -21.3800   -3.8950   26.0220 F   0  0  0  0  0  0  0  0  0  0  0  0
  -22.8670  -13.5930   21.1190 C   0  0  0  0  0  0  0  0  0  0  0  0
  -22.1770  -12.8830   22.0030 N   0  0  0  0  0  0  0  0  0  0  0  0
  -22.4080  -14.6250   20.6330 O   0  0  0  0  0  0  0  0  0  0  0  0
  -22.5620  -12.0480   22.4170 H   0  0  0  0  0  0  0  0  0  0  0  0
  -21.2480  -13.1770   22.2680 H   0  0  0  0  0  0  0  0  0  0  0  0
  -25.4620  -15.2690   20.1950 N   0  0  0  0  0  0  0  0  0  0  0  0
  -24.6960  -15.9230   20.3180 H   0  0  0  0  0  0  0  0  0  0  0  0
  -26.2890  -15.6950   19.7990 H   0  0  0  0  0  0  0  0  0  0  0  0
  -28.7400  -24.0290   19.8480 C   0  0  0  0  0  3  0  0  0  0  0  0
  -28.4130  -25.2950   20.7570 C   0  0  0  0  0  3  0  0  0  0  0  0
  -28.4580  -26.6340   20.1520 O   0  0  0  0  0  0  0  0  0  0  0  0
  -24.6290  -31.8980   23.2250 C   0  0  0  0  0  0  0  0  0  0  0  0
  -27.3010  -27.4100   20.1720 C   0  0  0  0  0  0  0  0  0  0  0  0
  -23.4350  -30.4950   21.5780 C   0  0  0  0  0  3  0  0  0  0  0  0
  -24.9050  -28.9530   20.1610 C   0  0  0  0  0  0  0  0  0  0  0  0
  -25.9660  -30.8500   21.3870 C   0  0  0  0  0  2  0  0  0  0  0  0
  -26.0620  -29.4720   20.7500 C   0  0  0  0  0  0  0  0  0  0  0  0
  -27.2640  -28.7130   20.7440 C   0  0  0  0  0  3  0  0  0  0  0  0
  -26.1180  -26.9180   19.5770 C   0  0  0  0  0  3  0  0  0  0  0  0
  -24.9290  -27.6790   19.5670 C   0  0  0  0  0  3  0  0  0  0  0  0
  -23.6590  -29.8170   20.1990 C   0  0  0  0  0  2  0  0  0  0  0  0
  -24.6950  -31.0970   22.1210 N   0  0  0  0  0  0  0  0  0  0  0  0
  -23.5440  -32.1610   23.7620 O   0  0  0  0  0  0  0  0  0  0  0  0
  -22.7840  -29.4720   22.5370 C   0  0  0  0  0  0  0  0  0  0  0  0
  -21.4610  -29.2830   22.4140 N   0  0  0  0  0  0  0  0  0  0  0  0
  -23.4740  -28.8480   23.3490 O   0  0  0  0  0  0  0  0  0  0  0  0
  -20.9650  -29.8370   21.7280 H   0  0  0  0  0  0  0  0  0  0  0  0
  -18.0940  -28.0710   22.9060 C   0  0  0  0  0  0  0  0  0  0  0  0
  -20.6490  -28.3400   23.1840 C   0  0  0  0  0  3  0  0  0  0  0  0
  -20.7600  -26.9090   22.6080 C   0  0  0  0  0  2  0  0  0  0  0  0
  -19.6620  -26.5820   21.5920 C   0  0  0  0  0  2  0  0  0  0  0  0
  -18.2780  -26.7230   22.2300 C   0  0  0  0  0  2  0  0  0  0  0  0
  -19.2070  -28.8350   23.3420 C   0  0  0  0  0  0  0  0  0  0  0  0
  -18.9800  -30.0990   23.9290 C   0  0  0  0  0  3  0  0  0  0  0  0
  -17.6710  -30.5930   24.0910 C   0  0  0  0  0  3  0  0  0  0  0  0
  -16.5720  -29.8240   23.6730 C   0  0  0  0  0  3  0  0  0  0  0  0
  -16.7840  -28.5650   23.0870 C   0  0  0  0  0  3  0  0  0  0  0  0
  -25.9070  -32.5410   23.8470 C   0  0  0  0  0  3  0  0  0  0  0  0
  -26.4280  -31.7740   25.1260 C   0  0  1  0  0  0  0  0  0  0  0  0
  -25.3360  -31.5290   26.1930 C   0  0  0  0  0  1  0  0  0  0  0  0
  -27.0170  -30.4000   24.7310 C   0  0  0  0  0  1  0  0  0  0  0  0
  -27.5690  -32.5770   25.7920 C   0  0  0  0  0  1  0  0  0  0  0  0
  -25.5870  -33.9370   24.1740 N   0  0  0  0  0  0  0  0  0  0  0  0
  -25.9250  -34.9920   23.4200 C   0  0  0  0  0  0  0  0  0  0  0  0
  -26.6030  -34.8920   22.3950 O   0  0  0  0  0  0  0  0  0  0  0  0
  -24.9800  -34.0870   24.9670 H   0  0  0  0  0  0  0  0  0  0  0  0
  -24.1850  -36.7700   23.0660 C   0  0  0  0  0  1  0  0  0  0  0  0
  -25.4280  -36.3770   23.8770 C   0  0  0  0  0  3  0  0  0  0  0  0
  -27.5570  -37.2710   24.7110 C   0  0  0  0  0  1  0  0  0  0  0  0
  -26.4530  -37.4360   23.7690 N   0  0  0  0  0  0  0  0  0  0  0  0
  -26.0410  -38.3510   23.9210 H   0  0  0  0  0  0  0  0  0  0  0  0
  2  3  1  1
  2  1  1  0
  4  9  1  0
  4  2  1  0
  5  7  1  0
  6  8  2  0
  6  9  1  0
  8 10  1  0
  9  5  2  0
 10 19  1  0
 10  7  2  0
 11 19  1  0
 12 17  1  0
 13 14  1  0
 13 12  1  0
 15 14  1  0
 15 24  1  0
 15 16  1  0
 17 11  1  0
 17 16  1  0
 18 11  2  0
 19 20  1  0
 21 22  2  0
 22 41  1  0
 23 22  1  0
 23 26  1  0
 24 25  1  0
 24 21  1  0
 25 23  2  0
 26 27  1  0
 27 28  2  0
 29 32  1  0
 29 28  1  0
 30 29  2  0
 31 30  1  0
 31 26  2  0
 32 33  1  0
 33 34  1  0
 34 35  2  0
 36 35  1  0
 36 40  1  0
 37 36  2  0
 38 33  2  0
 38 37  1  0
 39 38  1  0
 41 42  1  0
 42 45  1  0
 42 44  1  0
 43 41  2  0
 46 47  1  0
 46 21  1  0
 48 46  1  0
 49  2  1  0
 49 50  2  0
 51 53  1  0
 51 50  1  0
 52 63  2  0
 53 58  1  0
 54 62  1  0
 54 64  1  0
 55 61  1  0
 55 57  1  0
 56 62  1  0
 57 56  1  0
 58 57  2  0
 59 53  2  0
 60 59  1  0
 60 55  2  0
 61 54  1  0
 62 52  1  0
 64 66  2  0
 65 64  1  0
 67 65  1  0
 68 77  2  0
 68 73  1  0
 69 65  1  0
 69 73  1  0
 70 69  1  0
 71 72  1  0
 71 70  1  0
 72 68  1  0
 73 74  2  0
 74 75  1  0
 76 75  2  0
 77 76  1  0
 78 52  1  0
 78 83  1  0
 78 79  1  0
 79 82  1  1
 79 80  1  0
 81 79  1  0
 83 86  1  0
 84 88  1  0
 84 83  1  0
 85 84  2  0
 88 87  1  0
 90 88  1  0
 90 91  1  0
 90 89  1  0
M  ISO  4  11 100  19 100  50 101  51 101
M  END
>  <TORSDO>  (61) 
F 20

>  <SCORE>  (61) 
-13.373

>  <name>  (61) 
60

>  <ligand_id>  (61) 
60

>  <original_smiles>  (61) 
[H]c1c([H])c([H])c2c(c1[H])C([H])([H])C([H])([H])C([H])([H])C2([H])N([H])C(=O)C1([H])N(C(=O)C([H])(N([H])C(=O)C([H])(N([H])C([H])([H])[H])C([H])([H])[H])C(C([H])([H])[H])(C([H])([H])[H])C([H])([H])[H])C([H])([H])c2c([H])c(OC([H])([H])C([H])([H])[N+]([H])(C([H])([H])[H])C([H])([H])c3c([H])c([H])c(N([H])C(=O)N4C([H])([H])C([H])([H])C([H])([H])C([H])(n5nc(-c6c([H])c([H])c(Oc7c([H])c([H])c(F)c([H])c7F)c([H])c6[H])c(C(=O)N([H])[H])c5N([H])[H])C4([H])[H])c([H])c3[H])c([H])c([H])c2C1([H])[H]

>  <smiles>  (61) 
[H]c1c([H])c([H])c2c(c1[H])C([H])([H])C([H])([H])C([H])([H])C2([H])N([H])C(=O)C1([H])N(C(=O)C([H])(N([H])C(=O)C([H])(N([H])C([H])([H])[H])C([H])([H])[H])C(C([H])([H])[H])(C([H])([H])[H])C([H])([H])[H])C([H])([H])c2c([H])c(OC([H])([H])C([H])([H])[N+]([H])(C([H])([H])[H])C([H])([H])c3c([H])c([H])c(N([H])C(=O)N4C([H])([H])C([H])([H])C([H])([H])C([H])(n5nc(-c6c([H])c([H])c(Oc7c([H])c([H])c(F)c([H])c7F)c([H])c6[H])c(C(=O)N([H])[H])c5N([H])[H])C4([H])[H])c([H])c3[H])c([H])c([H])c2C1([H])[H]

$$$$
61:0:0
     RDKit          3D

 92100  0  0  1  0  0  0  0  0999 V2000
  -30.0930  -21.6440   19.8970 C   0  0  0  0  0  2  0  0  0  0  0  0
  -28.7710  -19.4130   20.5200 C   0  0  0  0  0  3  0  0  0  0  0  0
  -28.7470  -17.9920   20.6850 C   0  0  0  0  0  3  0  0  0  0  0  0
  -31.0920  -17.8640   20.1880 C   0  0  0  0  0  3  0  0  0  0  0  0
  -29.9650  -20.0980   20.1810 C   0  0  0  0  0  0  0  0  0  0  0  0
  -29.8980  -17.1700   20.5150 C   0  0  0  0  0  0  0  0  0  0  0  0
  -31.1180  -19.2800   20.0270 C   0  0  0  0  0  0  0  0  0  0  0  0
  -32.2960  -19.8620   19.6960 F   0  0  0  0  0  0  0  0  0  0  0  0
  -30.5860  -14.6620   20.3240 C   0  0  0  0  0  0  0  0  0  0  0  0
  -30.3620  -12.4310   19.2500 C   0  0  0  0  0  2  0  0  0  0  0  0
  -29.4080  -12.5780   18.0450 C   0  0  0  0  0  2  0  0  0  0  0  0
  -27.9400  -12.4120   18.4850 C   0  0  0  0  0  2  0  0  0  0  0  0
  -27.5940  -13.2600   19.7380 C   0  0  0  0  0  3  0  0  0  0  0  0
  -28.6620  -13.0970   20.8420 C   0  0  0  0  0  2  0  0  0  0  0  0
  -29.9680  -13.4400   20.2530 N   0  0  0  0  0  0  0  0  0  0  0  0
  -31.7480  -14.8110   19.9310 O   0  0  0  0  0  0  0  0  0  0  0  0
  -29.7820  -15.7150   20.6820 N   0  0  0  0  0  0  0  0  0  0  0  0
  -28.8750  -15.4090   20.9980 H   0  0  0  0  0  0  0  0  0  0  0  0
  -25.2070  -13.8530   20.4820 C   0  0  0  0  0  0  0  0  0  0  0  0
  -24.1460  -13.0790   20.8630 C   0  0  0  0  0  0  0  0  0  0  0  0
  -24.6100  -11.7280   20.8260 C   0  0  0  0  0  0  0  0  0  0  0  0
  -26.2500  -12.9750   20.2340 N   0  0  0  0  0  0  0  0  0  0  0  0
  -25.8980  -11.6910   20.5020 N   0  0  0  0  0  0  0  0  0  0  0  0
  -23.8880  -10.4630   21.0240 C   0  0  0  0  0  0  0  0  0  0  0  0
  -24.3300   -9.4960   21.9530 C   0  0  0  0  0  3  0  0  0  0  0  0
  -23.6090   -8.2980   22.1370 C   0  0  0  0  0  3  0  0  0  0  0  0
  -22.4320   -8.0550   21.3890 C   0  0  0  0  0  0  0  0  0  0  0  0
  -22.0100   -9.0100   20.4490 C   0  0  0  0  0  3  0  0  0  0  0  0
  -22.7310  -10.2020   20.2630 C   0  0  0  0  0  3  0  0  0  0  0  0
  -21.6820   -6.9080   21.4840 O   0  0  0  0  0  0  0  0  0  0  0  0
  -21.6410   -6.1680   22.6380 C   0  0  0  0  0  0  0  0  0  0  0  0
  -21.2130   -6.7220   23.8640 C   0  0  0  0  0  3  0  0  0  0  0  0
  -21.1180   -5.9070   25.0110 C   0  0  0  0  0  3  0  0  0  0  0  0
  -21.4410   -4.5390   24.9320 C   0  0  0  0  0  0  0  0  0  0  0  0
  -21.8610   -3.9850   23.7110 C   0  0  0  0  0  3  0  0  0  0  0  0
  -21.9590   -4.7950   22.5670 C   0  0  0  0  0  0  0  0  0  0  0  0
  -22.3450   -4.2520   21.3870 F   0  0  0  0  0  0  0  0  0  0  0  0
  -21.3430   -3.7540   26.0300 F   0  0  0  0  0  0  0  0  0  0  0  0
  -22.7510  -13.5540   21.1490 C   0  0  0  0  0  0  0  0  0  0  0  0
  -22.0300  -12.8550   22.0200 N   0  0  0  0  0  0  0  0  0  0  0  0
  -22.3070  -14.5800   20.6360 O   0  0  0  0  0  0  0  0  0  0  0  0
  -22.4000  -12.0260   22.4610 H   0  0  0  0  0  0  0  0  0  0  0  0
  -21.0930  -13.1560   22.2510 H   0  0  0  0  0  0  0  0  0  0  0  0
  -25.3650  -15.2240   20.3030 N   0  0  0  0  0  0  0  0  0  0  0  0
  -24.5860  -15.8650   20.4010 H   0  0  0  0  0  0  0  0  0  0  0  0
  -26.1890  -15.6620   19.9120 H   0  0  0  0  0  0  0  0  0  0  0  0
  -29.2420  -24.0320   20.1650 C   0  0  0  0  0  0  0  0  0  0  0  0
  -29.0660  -22.6720   20.2810 N   0  0  0  0  0  0  0  0  0  0  0  0
  -30.3360  -24.4960   19.8360 O   0  0  0  0  0  0  0  0  0  0  0  0
  -28.1540  -22.3390   20.5650 H   0  0  0  0  0  0  0  0  0  0  0  0
  -28.0440  -25.0250   20.4090 C   0  0  0  0  0  2  0  0  0  0  0  0
  -28.3200  -26.4710   20.1830 O   0  0  0  0  0  0  0  0  0  0  0  0
  -24.6270  -31.8890   23.2370 C   0  0  0  0  0  0  0  0  0  0  0  0
  -27.2090  -27.3320   20.1550 C   0  0  0  0  0  0  0  0  0  0  0  0
  -23.4130  -30.5000   21.5980 C   0  0  0  0  0  3  0  0  0  0  0  0
  -24.8520  -28.9530   20.1610 C   0  0  0  0  0  0  0  0  0  0  0  0
  -25.9520  -30.8080   21.4090 C   0  0  0  0  0  2  0  0  0  0  0  0
  -26.0240  -29.4310   20.7610 C   0  0  0  0  0  0  0  0  0  0  0  0
  -27.2060  -28.6300   20.7540 C   0  0  0  0  0  3  0  0  0  0  0  0
  -26.0190  -26.9210   19.5130 C   0  0  0  0  0  3  0  0  0  0  0  0
  -24.8510  -27.7040   19.5280 C   0  0  0  0  0  3  0  0  0  0  0  0
  -23.6210  -29.8320   20.2130 C   0  0  0  0  0  2  0  0  0  0  0  0
  -24.6830  -31.0830   22.1370 N   0  0  0  0  0  0  0  0  0  0  0  0
  -23.5460  -32.1690   23.7750 O   0  0  0  0  0  0  0  0  0  0  0  0
  -22.7520  -29.4800   22.5550 C   0  0  0  0  0  0  0  0  0  0  0  0
  -21.4240  -29.3070   22.4320 N   0  0  0  0  0  0  0  0  0  0  0  0
  -23.4300  -28.8480   23.3690 O   0  0  0  0  0  0  0  0  0  0  0  0
  -20.9350  -29.8680   21.7480 H   0  0  0  0  0  0  0  0  0  0  0  0
  -18.0440  -28.1240   22.9410 C   0  0  0  0  0  0  0  0  0  0  0  0
  -20.6050  -28.3710   23.2050 C   0  0  0  0  0  3  0  0  0  0  0  0
  -20.6990  -26.9410   22.6270 C   0  0  0  0  0  2  0  0  0  0  0  0
  -19.5930  -26.6240   21.6160 C   0  0  0  0  0  2  0  0  0  0  0  0
  -18.2130  -26.7740   22.2650 C   0  0  0  0  0  2  0  0  0  0  0  0
  -19.1670  -28.8810   23.3690 C   0  0  0  0  0  0  0  0  0  0  0  0
  -18.9550  -30.1440   23.9640 C   0  0  0  0  0  3  0  0  0  0  0  0
  -17.6520  -30.6490   24.1350 C   0  0  0  0  0  3  0  0  0  0  0  0
  -16.5440  -29.8900   23.7200 C   0  0  0  0  0  3  0  0  0  0  0  0
  -16.7410  -28.6290   23.1290 C   0  0  0  0  0  3  0  0  0  0  0  0
  -25.9150  -32.5150   23.8550 C   0  0  0  0  0  3  0  0  0  0  0  0
  -26.4350  -31.7360   25.1250 C   0  0  1  0  0  0  0  0  0  0  0  0
  -25.3470  -31.4960   26.1970 C   0  0  0  0  0  1  0  0  0  0  0  0
  -27.0120  -30.3580   24.7240 C   0  0  0  0  0  1  0  0  0  0  0  0
  -27.5920  -32.5220   25.7850 C   0  0  0  0  0  1  0  0  0  0  0  0
  -25.6090  -33.9120   24.1950 N   0  0  0  0  0  0  0  0  0  0  0  0
  -25.9300  -34.9670   23.4340 C   0  0  0  0  0  0  0  0  0  0  0  0
  -26.5850  -34.8670   22.3930 O   0  0  0  0  0  0  0  0  0  0  0  0
  -25.0290  -34.0640   25.0070 H   0  0  0  0  0  0  0  0  0  0  0  0
  -24.1970  -36.7600   23.1090 C   0  0  0  0  0  1  0  0  0  0  0  0
  -25.4500  -36.3550   23.9020 C   0  0  0  0  0  3  0  0  0  0  0  0
  -27.5960  -37.2380   24.7040 C   0  0  0  0  0  1  0  0  0  0  0  0
  -26.4800  -37.4070   23.7760 N   0  0  0  0  0  0  0  0  0  0  0  0
  -26.0760  -38.3270   23.9320 H   0  0  0  0  0  0  0  0  0  0  0  0
  1  5  1  0
  1 48  1  0
  2  3  1  0
  4  6  1  0
  5  2  2  0
  6 17  1  0
  6  3  2  0
  7  5  1  0
  7  4  2  0
  8  7  1  0
  9 17  1  0
 10 15  1  0
 11 12  1  0
 11 10  1  0
 13 12  1  0
 13 22  1  0
 13 14  1  0
 15  9  1  0
 15 14  1  0
 16  9  2  0
 17 18  1  0
 19 20  2  0
 20 39  1  0
 21 20  1  0
 21 24  1  0
 22 19  1  0
 22 23  1  0
 23 21  2  0
 24 25  1  0
 25 26  2  0
 27 30  1  0
 27 26  1  0
 28 27  2  0
 29 28  1  0
 29 24  2  0
 30 31  1  0
 31 32  1  0
 32 33  2  0
 34 33  1  0
 34 38  1  0
 35 34  2  0
 36 31  2  0
 36 35  1  0
 37 36  1  0
 39 40  1  0
 40 43  1  0
 40 42  1  0
 41 39  2  0
 44 45  1  0
 44 19  1  0
 46 44  1  0
 47 48  1  0
 47 51  1  0
 48 50  1  0
 49 47  2  0
 52 51  1  0
 53 64  2  0
 54 52  1  0
 54 59  1  0
 55 63  1  0
 55 65  1  0
 56 62  1  0
 56 58  1  0
 57 63  1  0
 58 57  1  0
 59 58  2  0
 60 61  1  0
 60 54  2  0
 61 56  2  0
 62 55  1  0
 63 53  1  0
 65 67  2  0
 66 65  1  0
 68 66  1  0
 69 78  2  0
 69 74  1  0
 70 66  1  0
 70 74  1  0
 71 70  1  0
 72 73  1  0
 72 71  1  0
 73 69  1  0
 74 75  2  0
 75 76  1  0
 77 76  2  0
 78 77  1  0
 79 53  1  0
 79 84  1  0
 79 80  1  0
 80 83  1  1
 80 81  1  0
 82 80  1  0
 84 87  1  0
 85 89  1  0
 85 84  1  0
 86 85  2  0
 89 88  1  0
 91 89  1  0
 91 92  1  0
 91 90  1  0
M  ISO  4   9 100  17 100  51 101  52 101
M  END
>  <TORSDO>  (62) 
F 19

>  <SCORE>  (62) 
-14.298

>  <name>  (62) 
61

>  <ligand_id>  (62) 
61

>  <original_smiles>  (62) 
[H]c1c([H])c([H])c2c(c1[H])C([H])([H])C([H])([H])C([H])([H])C2([H])N([H])C(=O)C1([H])N(C(=O)C([H])(N([H])C(=O)C([H])(N([H])C([H])([H])[H])C([H])([H])[H])C(C([H])([H])[H])(C([H])([H])[H])C([H])([H])[H])C([H])([H])c2c([H])c(OC([H])([H])C(=O)N([H])C([H])([H])c3c([H])c([H])c(N([H])C(=O)N4C([H])([H])C([H])([H])C([H])([H])C([H])(n5nc(-c6c([H])c([H])c(Oc7c([H])c([H])c(F)c([H])c7F)c([H])c6[H])c(C(=O)N([H])[H])c5N([H])[H])C4([H])[H])c([H])c3F)c([H])c([H])c2C1([H])[H]

>  <smiles>  (62) 
[H]c1c([H])c([H])c2c(c1[H])C([H])([H])C([H])([H])C([H])([H])C2([H])N([H])C(=O)C1([H])N(C(=O)C([H])(N([H])C(=O)C([H])(N([H])C([H])([H])[H])C([H])([H])[H])C(C([H])([H])[H])(C([H])([H])[H])C([H])([H])[H])C([H])([H])c2c([H])c(OC([H])([H])C(=O)N([H])C([H])([H])c3c([H])c([H])c(N([H])C(=O)N4C([H])([H])C([H])([H])C([H])([H])C([H])(n5nc(-c6c([H])c([H])c(Oc7c([H])c([H])c(F)c([H])c7F)c([H])c6[H])c(C(=O)N([H])[H])c5N([H])[H])C4([H])[H])c([H])c3F)c([H])c([H])c2C1([H])[H]

$$$$
62:0:0
     RDKit          3D

 98107  0  0  1  0  0  0  0  0999 V2000
  -30.8020  -18.6560   22.7710 C   0  0  0  0  0  3  0  0  0  0  0  0
  -30.6680  -17.4190   22.1210 C   0  0  0  0  0  3  0  0  0  0  0  0
  -29.8980  -18.6120   20.1480 C   0  0  0  0  0  3  0  0  0  0  0  0
  -30.5290  -19.8910   22.1330 C   0  0  0  0  0  0  0  0  0  0  0  0
  -30.0930  -19.9210   20.7730 C   0  0  0  0  0  0  0  0  0  0  0  0
  -30.2010  -17.3460   20.7970 C   0  0  0  0  0  0  0  0  0  0  0  0
  -30.7360  -14.8740   20.1890 C   0  0  0  0  0  0  0  0  0  0  0  0
  -30.5060  -12.6410   19.0950 C   0  0  0  0  0  2  0  0  0  0  0  0
  -29.5220  -12.7290   17.9070 C   0  0  0  0  0  2  0  0  0  0  0  0
  -28.0730  -12.5330   18.3920 C   0  0  0  0  0  2  0  0  0  0  0  0
  -27.7280  -13.4150   19.6210 C   0  0  0  0  0  3  0  0  0  0  0  0
  -28.8200  -13.3110   20.7080 C   0  0  0  0  0  2  0  0  0  0  0  0
  -30.0940  -13.6670   20.0720 N   0  0  0  0  0  0  0  0  0  0  0  0
  -31.9400  -14.9690   19.9380 O   0  0  0  0  0  0  0  0  0  0  0  0
  -29.9400  -16.0070   20.2430 N   0  0  0  0  0  0  0  0  0  0  0  0
  -28.9710  -15.8310   20.0280 H   0  0  0  0  0  0  0  0  0  0  0  0
  -25.3550  -13.9980   20.4140 C   0  0  0  0  0  0  0  0  0  0  0  0
  -24.3010  -13.2180   20.8040 C   0  0  0  0  0  0  0  0  0  0  0  0
  -24.7710  -11.8690   20.7630 C   0  0  0  0  0  0  0  0  0  0  0  0
  -26.3980  -13.1240   20.1480 N   0  0  0  0  0  0  0  0  0  0  0  0
  -26.0550  -11.8400   20.4230 N   0  0  0  0  0  0  0  0  0  0  0  0
  -24.0580  -10.6010   20.9630 C   0  0  0  0  0  0  0  0  0  0  0  0
  -24.4960   -9.6480   21.9080 C   0  0  0  0  0  3  0  0  0  0  0  0
  -23.7800   -8.4460   22.0970 C   0  0  0  0  0  3  0  0  0  0  0  0
  -22.6130   -8.1890   21.3380 C   0  0  0  0  0  0  0  0  0  0  0  0
  -22.1950   -9.1310   20.3830 C   0  0  0  0  0  3  0  0  0  0  0  0
  -22.9120  -10.3240   20.1930 C   0  0  0  0  0  3  0  0  0  0  0  0
  -21.8710   -7.0360   21.4350 O   0  0  0  0  0  0  0  0  0  0  0  0
  -21.8030   -6.3200   22.6030 C   0  0  0  0  0  0  0  0  0  0  0  0
  -21.3040   -6.8860   23.7970 C   0  0  0  0  0  3  0  0  0  0  0  0
  -21.1840   -6.0950   24.9560 C   0  0  0  0  0  3  0  0  0  0  0  0
  -21.5550   -4.7370   24.9230 C   0  0  0  0  0  0  0  0  0  0  0  0
  -22.0490   -4.1700   23.7340 C   0  0  0  0  0  3  0  0  0  0  0  0
  -22.1690   -4.9600   22.5780 C   0  0  0  0  0  0  0  0  0  0  0  0
  -22.6250   -4.4040   21.4290 F   0  0  0  0  0  0  0  0  0  0  0  0
  -21.4340   -3.9730   26.0340 F   0  0  0  0  0  0  0  0  0  0  0  0
  -22.9060  -13.6870   21.1030 C   0  0  0  0  0  0  0  0  0  0  0  0
  -22.1910  -12.9810   21.9710 N   0  0  0  0  0  0  0  0  0  0  0  0
  -22.4580  -14.7160   20.6000 O   0  0  0  0  0  0  0  0  0  0  0  0
  -22.5670  -12.1520   22.4060 H   0  0  0  0  0  0  0  0  0  0  0  0
  -21.2570  -13.2820   22.2100 H   0  0  0  0  0  0  0  0  0  0  0  0
  -25.5060  -15.3700   20.2390 N   0  0  0  0  0  0  0  0  0  0  0  0
  -24.7330  -16.0140   20.3670 H   0  0  0  0  0  0  0  0  0  0  0  0
  -26.3370  -15.8200   19.8790 H   0  0  0  0  0  0  0  0  0  0  0  0
  -28.4760  -21.1630   18.1880 C   0  0  0  0  0  2  0  0  0  0  0  0
  -29.9760  -21.1680   18.4770 C   0  0  0  0  0  2  0  0  0  0  0  0
  -27.8400  -21.9440   19.3540 C   0  0  0  0  0  2  0  0  0  0  0  0
  -30.0510  -21.3330   19.9970 C   0  0  0  0  0  3  0  0  0  0  0  0
  -28.9440  -22.3610   20.2600 N   0  0  1  0  0  4  0  0  0  0  0  0
  -28.6610  -22.2180   21.2240 H   0  0  0  0  0  0  0  0  0  0  0  0
  -29.3290  -23.8650   20.1740 C   0  0  0  0  0  3  0  0  0  0  0  0
  -28.1790  -24.9990   20.0950 C   0  0  0  0  0  3  0  0  0  0  0  0
  -28.4360  -26.4810   20.1930 O   0  0  0  0  0  0  0  0  0  0  0  0
  -24.6570  -31.9100   23.2170 C   0  0  0  0  0  0  0  0  0  0  0  0
  -27.3230  -27.3560   20.1510 C   0  0  0  0  0  0  0  0  0  0  0  0
  -23.4730  -30.4940   21.5820 C   0  0  0  0  0  3  0  0  0  0  0  0
  -24.9430  -28.9710   20.1500 C   0  0  0  0  0  0  0  0  0  0  0  0
  -26.0120  -30.8420   21.3940 C   0  0  0  0  0  2  0  0  0  0  0  0
  -26.1110  -29.4630   20.7440 C   0  0  0  0  0  0  0  0  0  0  0  0
  -27.3050  -28.6690   20.7330 C   0  0  0  0  0  3  0  0  0  0  0  0
  -26.1230  -26.9360   19.5290 C   0  0  0  0  0  3  0  0  0  0  0  0
  -24.9540  -27.7160   19.5310 C   0  0  0  0  0  3  0  0  0  0  0  0
  -23.6960  -29.8340   20.1990 C   0  0  0  0  0  2  0  0  0  0  0  0
  -24.7330  -31.0990   22.1220 N   0  0  0  0  0  0  0  0  0  0  0  0
  -23.5690  -32.1700   23.7520 O   0  0  0  0  0  0  0  0  0  0  0  0
  -22.8290  -29.4630   22.5400 C   0  0  0  0  0  0  0  0  0  0  0  0
  -21.5070  -29.2590   22.4110 N   0  0  0  0  0  0  0  0  0  0  0  0
  -23.5180  -28.8510   23.3600 O   0  0  0  0  0  0  0  0  0  0  0  0
  -21.0110  -29.8050   21.7200 H   0  0  0  0  0  0  0  0  0  0  0  0
  -18.1490  -28.0070   22.9180 C   0  0  0  0  0  0  0  0  0  0  0  0
  -20.7030  -28.3080   23.1820 C   0  0  0  0  0  3  0  0  0  0  0  0
  -20.8280  -26.8790   22.6030 C   0  0  0  0  0  2  0  0  0  0  0  0
  -19.7280  -26.5390   21.5930 C   0  0  0  0  0  2  0  0  0  0  0  0
  -18.3460  -26.6610   22.2420 C   0  0  0  0  0  2  0  0  0  0  0  0
  -19.2560  -28.7870   23.3450 C   0  0  0  0  0  0  0  0  0  0  0  0
  -19.0190  -30.0460   23.9410 C   0  0  0  0  0  3  0  0  0  0  0  0
  -17.7070  -30.5230   24.1140 C   0  0  0  0  0  3  0  0  0  0  0  0
  -16.6140  -29.7420   23.7020 C   0  0  0  0  0  3  0  0  0  0  0  0
  -16.8360  -28.4860   23.1100 C   0  0  0  0  0  3  0  0  0  0  0  0
  -25.9290  -32.5650   23.8360 C   0  0  0  0  0  3  0  0  0  0  0  0
  -26.4470  -31.8170   25.1260 C   0  0  1  0  0  0  0  0  0  0  0  0
  -25.3500  -31.5750   26.1880 C   0  0  0  0  0  1  0  0  0  0  0  0
  -27.0550  -30.4440   24.7540 C   0  0  0  0  0  1  0  0  0  0  0  0
  -27.5800  -32.6380   25.7870 C   0  0  0  0  0  1  0  0  0  0  0  0
  -25.6020  -33.9650   24.1470 N   0  0  0  0  0  0  0  0  0  0  0  0
  -25.9240  -35.0110   23.3730 C   0  0  0  0  0  0  0  0  0  0  0  0
  -26.5960  -34.9010   22.3440 O   0  0  0  0  0  0  0  0  0  0  0  0
  -25.0070  -34.1230   24.9460 H   0  0  0  0  0  0  0  0  0  0  0  0
  -24.1860  -36.7880   22.9810 C   0  0  0  0  0  1  0  0  0  0  0  0
  -25.4200  -36.4000   23.8110 C   0  0  0  0  0  3  0  0  0  0  0  0
  -27.5330  -37.3130   24.6660 C   0  0  0  0  0  1  0  0  0  0  0  0
  -26.4470  -37.4610   23.7020 N   0  0  0  0  0  0  0  0  0  0  0  0
  -26.0310  -38.3780   23.8320 H   0  0  0  0  0  0  0  0  0  0  0  0
  -30.6950  -21.1450   22.9500 C   0  0  0  0  0  0  0  0  0  0  0  0
  -31.8630  -21.2940   23.5550 N   0  0  0  0  0  0  0  0  0  0  0  0
  -29.8010  -21.9830   23.0400 O   0  0  0  0  0  0  0  0  0  0  0  0
  -32.5740  -20.5830   23.4640 H   0  0  0  0  0  0  0  0  0  0  0  0
  -32.0450  -22.1150   24.1160 H   0  0  0  0  0  0  0  0  0  0  0  0
  2  1  2  0
  3  5  1  0
  3  6  2  0
  4  1  1  0
  4 94  1  0
  5  4  2  0
  6  2  1  0
  7 15  1  0
  8 13  1  0
  9 10  1  0
  9  8  1  0
 11 10  1  0
 11 20  1  0
 11 12  1  0
 13  7  1  0
 13 12  1  0
 14  7  2  0
 15  6  1  0
 16 15  1  0
 17 18  2  0
 18 37  1  0
 19 18  1  0
 19 22  1  0
 20 17  1  0
 20 21  1  0
 21 19  2  0
 22 23  1  0
 23 24  2  0
 25 28  1  0
 25 24  1  0
 26 25  2  0
 27 26  1  0
 27 22  2  0
 28 29  1  0
 29 30  1  0
 30 31  2  0
 32 31  1  0
 32 36  1  0
 33 32  2  0
 34 29  2  0
 34 33  1  0
 35 34  1  0
 37 38  1  0
 38 41  1  0
 38 40  1  0
 39 37  2  0
 42 43  1  0
 42 17  1  0
 44 42  1  0
 45 46  1  0
 45 47  1  0
 46 48  1  0
 47 49  1  0
 48 49  1  0
 48  5  1  0
 49 50  1  1
 51 49  1  0
 52 51  2  0
 52 53  1  0
 54 65  2  0
 55 53  1  0
 55 60  1  0
 56 64  1  0
 56 66  1  0
 57 63  1  0
 57 59  1  0
 58 64  1  0
 59 58  1  0
 60 59  2  0
 61 62  1  0
 61 55  2  0
 62 57  2  0
 63 56  1  0
 64 54  1  0
 66 68  2  0
 67 66  1  0
 69 67  1  0
 70 79  2  0
 70 75  1  0
 71 67  1  0
 71 75  1  0
 72 71  1  0
 73 74  1  0
 73 72  1  0
 74 70  1  0
 75 76  2  0
 76 77  1  0
 78 77  2  0
 79 78  1  0
 80 54  1  0
 80 85  1  0
 80 81  1  0
 81 84  1  1
 81 82  1  0
 83 81  1  0
 85 88  1  0
 86 90  1  0
 86 85  1  0
 87 86  2  0
 90 89  1  0
 92 90  1  0
 92 93  1  0
 92 91  1  0
 94 96  2  0
 94 95  1  0
 95 98  1  0
 97 95  1  0
M  ISO  4   7 100  15 100  52 101  53 101
M  END
>  <TORSDO>  (63) 
F 20

>  <SCORE>  (63) 
-14.162

>  <name>  (63) 
62

>  <ligand_id>  (63) 
62

>  <original_smiles>  (63) 
[H]c1c([H])c([H])c2c(c1[H])C([H])([H])C([H])([H])C([H])([H])C2([H])N([H])C(=O)C1([H])N(C(=O)C([H])(N([H])C(=O)C([H])(N([H])C([H])([H])[H])C([H])([H])[H])C(C([H])([H])[H])(C([H])([H])[H])C([H])([H])[H])C([H])([H])c2c([H])c(OC([H])([H])C([H])([H])[N+]3([H])C([H])([H])C([H])([H])C([H])([H])C3([H])c3c([H])c(N([H])C(=O)N4C([H])([H])C([H])([H])C([H])([H])C([H])(n5nc(-c6c([H])c([H])c(Oc7c([H])c([H])c(F)c([H])c7F)c([H])c6[H])c(C(=O)N([H])[H])c5N([H])[H])C4([H])[H])c([H])c([H])c3C(=O)N([H])[H])c([H])c([H])c2C1([H])[H]

>  <smiles>  (63) 
[H]c1c([H])c([H])c2c(c1[H])C([H])([H])C([H])([H])C([H])([H])C2([H])N([H])C(=O)C1([H])N(C(=O)C([H])(N([H])C(=O)C([H])(N([H])C([H])([H])[H])C([H])([H])[H])C(C([H])([H])[H])(C([H])([H])[H])C([H])([H])[H])C([H])([H])c2c([H])c(OC([H])([H])C([H])([H])[N+]3([H])C([H])([H])C([H])([H])C([H])([H])C3([H])c3c([H])c(N([H])C(=O)N4C([H])([H])C([H])([H])C([H])([H])C([H])(n5nc(-c6c([H])c([H])c(Oc7c([H])c([H])c(F)c([H])c7F)c([H])c6[H])c(C(=O)N([H])[H])c5N([H])[H])C4([H])[H])c([H])c([H])c3C(=O)N([H])[H])c([H])c([H])c2C1([H])[H]

$$$$
63:0:0
     RDKit          3D

 90 98  0  0  1  0  0  0  0  0999 V2000
  -30.0620  -21.7290   18.8460 C   0  0  0  0  0  3  0  0  0  0  0  0
  -30.3980  -20.2460   19.0830 C   0  0  0  0  0  3  0  0  0  0  0  0
  -28.9670  -20.2190   20.7750 C   0  0  0  0  0  3  0  0  0  0  0  0
  -29.1350  -22.6730   19.5490 C   0  0  0  0  0  0  0  0  0  0  0  0
  -28.6400  -21.7060   20.5730 C   0  0  0  0  0  0  0  0  0  0  0  0
  -29.8740  -19.2640   20.0800 C   0  0  0  0  0  0  0  0  0  0  0  0
  -30.8400  -16.2600   20.4470 C   0  0  0  0  0  0  0  0  0  0  0  0
  -31.0590  -13.6380   19.9880 C   0  0  0  0  0  2  0  0  0  0  0  0
  -30.3090  -13.0930   18.7380 C   0  0  0  0  0  2  0  0  0  0  0  0
  -28.8440  -12.7710   19.0700 C   0  0  0  0  0  2  0  0  0  0  0  0
  -28.2140  -13.8790   19.9420 C   0  0  0  0  0  3  0  0  0  0  0  0
  -29.1120  -14.3330   21.1180 C   0  0  0  0  0  2  0  0  0  0  0  0
  -30.3550  -14.8840   20.5330 N   0  0  0  0  0  0  0  0  0  0  0  0
  -32.0810  -16.2310   20.3430 O   0  0  0  0  0  0  0  0  0  0  0  0
  -30.0010  -17.5650   20.3580 N   0  0  0  0  0  0  0  0  0  0  0  0
  -29.0740  -17.2370   20.5930 H   0  0  0  0  0  0  0  0  0  0  0  0
  -25.8110  -14.4700   20.5180 C   0  0  0  0  0  0  0  0  0  0  0  0
  -24.7080  -13.7140   20.8000 C   0  0  0  0  0  0  0  0  0  0  0  0
  -25.1490  -12.3550   20.8030 C   0  0  0  0  0  0  0  0  0  0  0  0
  -26.8500  -13.5740   20.3530 N   0  0  0  0  0  0  0  0  0  0  0  0
  -26.4600  -12.2930   20.5930 N   0  0  0  0  0  0  0  0  0  0  0  0
  -24.3790  -11.1080   20.9300 C   0  0  0  0  0  0  0  0  0  0  0  0
  -24.7170  -10.1230   21.8830 C   0  0  0  0  0  3  0  0  0  0  0  0
  -23.9450   -8.9460   22.0020 C   0  0  0  0  0  3  0  0  0  0  0  0
  -22.8210   -8.7470   21.1660 C   0  0  0  0  0  0  0  0  0  0  0  0
  -22.5010   -9.7220   20.2040 C   0  0  0  0  0  3  0  0  0  0  0  0
  -23.2740  -10.8890   20.0830 C   0  0  0  0  0  3  0  0  0  0  0  0
  -22.0290   -7.6240   21.1930 O   0  0  0  0  0  0  0  0  0  0  0  0
  -21.8900   -6.8680   22.3280 C   0  0  0  0  0  0  0  0  0  0  0  0
  -21.3910   -7.4160   23.5310 C   0  0  0  0  0  3  0  0  0  0  0  0
  -21.1980   -6.5870   24.6550 C   0  0  0  0  0  3  0  0  0  0  0  0
  -21.4930   -5.2130   24.5760 C   0  0  0  0  0  0  0  0  0  0  0  0
  -21.9850   -4.6650   23.3780 C   0  0  0  0  0  3  0  0  0  0  0  0
  -22.1790   -5.4900   22.2560 C   0  0  0  0  0  0  0  0  0  0  0  0
  -22.6320   -4.9530   21.0980 F   0  0  0  0  0  0  0  0  0  0  0  0
  -21.3000   -4.4150   25.6530 F   0  0  0  0  0  0  0  0  0  0  0  0
  -23.3050  -14.2230   20.9550 C   0  0  0  0  0  0  0  0  0  0  0  0
  -22.4930  -13.5460   21.7560 N   0  0  0  0  0  0  0  0  0  0  0  0
  -22.9390  -15.2590   20.4000 O   0  0  0  0  0  0  0  0  0  0  0  0
  -22.8020  -12.7080   22.2260 H   0  0  0  0  0  0  0  0  0  0  0  0
  -21.5480  -13.8710   21.9050 H   0  0  0  0  0  0  0  0  0  0  0  0
  -26.0120  -15.8370   20.3550 N   0  0  0  0  0  0  0  0  0  0  0  0
  -25.2440  -16.4970   20.3900 H   0  0  0  0  0  0  0  0  0  0  0  0
  -26.8790  -16.2560   20.0470 H   0  0  0  0  0  0  0  0  0  0  0  0
  -27.6080  -22.2910   21.5370 C   0  0  1  0  0  0  0  0  0  0  0  0
  -27.4310  -21.5330   22.6200 F   0  0  0  0  0  0  0  0  0  0  0  0
  -27.9940  -23.4980   21.9550 F   0  0  0  0  0  0  0  0  0  0  0  0
  -26.4360  -22.4090   20.9150 F   0  0  0  0  0  0  0  0  0  0  0  0
  -28.4250  -24.3450   19.0890 C   0  0  0  0  0  2  0  0  0  0  0  0
  -28.5870  -26.0700   19.3170 O   0  0  0  0  0  0  0  0  0  0  0  0
  -24.6970  -31.7240   22.9160 C   0  0  0  0  0  0  0  0  0  0  0  0
  -27.5310  -27.2070   19.3770 C   0  0  0  0  0  0  0  0  0  0  0  0
  -23.5710  -30.4000   21.1780 C   0  0  0  0  0  3  0  0  0  0  0  0
  -25.1010  -29.0260   19.5740 C   0  0  0  0  0  0  0  0  0  0  0  0
  -26.1240  -30.7710   21.0070 C   0  0  0  0  0  2  0  0  0  0  0  0
  -26.2830  -29.4220   20.2120 C   0  0  0  0  0  0  0  0  0  0  0  0
  -27.4780  -28.5400   20.0880 C   0  0  0  0  0  3  0  0  0  0  0  0
  -26.2980  -27.0210   18.7000 C   0  0  0  0  0  3  0  0  0  0  0  0
  -25.1440  -27.8570   18.7950 C   0  0  0  0  0  3  0  0  0  0  0  0
  -23.8220  -29.8620   19.7390 C   0  0  0  0  0  2  0  0  0  0  0  0
  -24.8200  -30.9950   21.7550 N   0  0  0  0  0  0  0  0  0  0  0  0
  -23.6020  -31.8790   23.4830 O   0  0  0  0  0  0  0  0  0  0  0  0
  -22.9670  -29.2770   22.0620 C   0  0  0  0  0  0  0  0  0  0  0  0
  -21.6510  -29.0180   21.9470 N   0  0  0  0  0  0  0  0  0  0  0  0
  -23.6970  -28.6380   22.8260 O   0  0  0  0  0  0  0  0  0  0  0  0
  -21.1060  -29.5860   21.3130 H   0  0  0  0  0  0  0  0  0  0  0  0
  -18.3940  -27.4770   22.4110 C   0  0  0  0  0  0  0  0  0  0  0  0
  -20.9290  -27.9460   22.6420 C   0  0  0  0  0  3  0  0  0  0  0  0
  -21.1360  -26.5870   21.9330 C   0  0  0  0  0  2  0  0  0  0  0  0
  -20.0380  -26.2640   20.9150 C   0  0  0  0  0  2  0  0  0  0  0  0
  -18.6680  -26.2230   21.5970 C   0  0  0  0  0  2  0  0  0  0  0  0
  -19.4550  -28.2940   22.8870 C   0  0  0  0  0  0  0  0  0  0  0  0
  -19.1420  -29.4630   23.6130 C   0  0  0  0  0  3  0  0  0  0  0  0
  -17.8030  -29.8220   23.8630 C   0  0  0  0  0  3  0  0  0  0  0  0
  -16.7590  -29.0030   23.3980 C   0  0  0  0  0  3  0  0  0  0  0  0
  -17.0550  -27.8320   22.6780 C   0  0  0  0  0  3  0  0  0  0  0  0
  -25.9260  -32.4110   23.5860 C   0  0  0  0  0  3  0  0  0  0  0  0
  -26.5290  -31.5690   24.7790 C   0  0  1  0  0  0  0  0  0  0  0  0
  -25.4840  -31.1560   25.8410 C   0  0  0  0  0  1  0  0  0  0  0  0
  -27.2050  -30.2790   24.2640 C   0  0  0  0  0  1  0  0  0  0  0  0
  -27.6310  -32.3870   25.4930 C   0  0  0  0  0  1  0  0  0  0  0  0
  -25.5010  -33.7380   24.0760 N   0  0  0  0  0  0  0  0  0  0  0  0
  -25.7170  -34.8990   23.4440 C   0  0  0  0  0  0  0  0  0  0  0  0
  -26.3510  -34.9730   22.3890 O   0  0  0  0  0  0  0  0  0  0  0  0
  -24.9290  -33.7460   24.9070 H   0  0  0  0  0  0  0  0  0  0  0  0
  -23.8260  -36.5650   23.3820 C   0  0  0  0  0  1  0  0  0  0  0  0
  -25.1420  -36.1830   24.0800 C   0  0  0  0  0  3  0  0  0  0  0  0
  -27.2350  -37.1710   24.9050 C   0  0  0  0  0  1  0  0  0  0  0  0
  -26.0710  -37.3330   24.0370 N   0  0  0  0  0  0  0  0  0  0  0  0
  -25.5940  -38.1900   24.3050 H   0  0  0  0  0  0  0  0  0  0  0  0
  1  2  2  0
  1  4  1  0
  2  6  1  0
  4  5  2  0
  5  3  1  0
  5 45  1  0
  6 15  1  0
  6  3  2  0
  7 13  1  0
  8 13  1  0
  9 10  1  0
  9  8  1  0
 11 10  1  0
 11 20  1  0
 11 12  1  0
 13 12  1  0
 14  7  2  0
 15  7  1  0
 15 16  1  0
 17 18  2  0
 18 19  1  0
 18 37  1  0
 19 22  1  0
 20 17  1  0
 20 21  1  0
 21 19  2  0
 22 23  1  0
 23 24  2  0
 25 28  1  0
 25 24  1  0
 26 25  2  0
 27 26  1  0
 27 22  2  0
 28 29  1  0
 29 30  1  0
 30 31  2  0
 32 31  1  0
 32 36  1  0
 33 32  2  0
 34 29  2  0
 34 33  1  0
 35 34  1  0
 37 38  1  0
 38 41  1  0
 38 40  1  0
 39 37  2  0
 42 43  1  0
 42 17  1  0
 44 42  1  0
 45 47  1  1
 45 46  1  0
 48 45  1  0
 49 50  1  0
 49  4  1  0
 50 52  1  0
 51 62  2  0
 52 57  1  0
 53 61  1  0
 53 63  1  0
 54 60  1  0
 54 56  1  0
 55 61  1  0
 56 55  1  0
 57 56  2  0
 58 59  1  0
 58 52  2  0
 59 54  2  0
 60 53  1  0
 61 51  1  0
 63 65  2  0
 64 63  1  0
 66 64  1  0
 67 76  2  0
 67 72  1  0
 68 64  1  0
 68 72  1  0
 69 68  1  0
 70 71  1  0
 70 69  1  0
 71 67  1  0
 72 73  2  0
 73 74  1  0
 75 74  2  0
 76 75  1  0
 77 51  1  0
 77 82  1  0
 77 78  1  0
 78 81  1  1
 78 79  1  0
 80 78  1  0
 82 85  1  0
 83 82  1  0
 83 87  1  0
 84 83  2  0
 87 86  1  0
 89 87  1  0
 89 90  1  0
 89 88  1  0
M  ISO  4   7 100  15 100  49 101  50 101
M  END
>  <TORSDO>  (64) 
F 18

>  <SCORE>  (64) 
-12.726

>  <name>  (64) 
63

>  <ligand_id>  (64) 
63

>  <original_smiles>  (64) 
[H]c1c([H])c([H])c2c(c1[H])C([H])([H])C([H])([H])C([H])([H])C2([H])N([H])C(=O)C1([H])N(C(=O)C([H])(N([H])C(=O)C([H])(N([H])C([H])([H])[H])C([H])([H])[H])C(C([H])([H])[H])(C([H])([H])[H])C([H])([H])[H])C([H])([H])c2c([H])c(OC([H])([H])c3c([H])c([H])c(N([H])C(=O)N4C([H])([H])C([H])([H])C([H])([H])C([H])(n5nc(-c6c([H])c([H])c(Oc7c([H])c([H])c(F)c([H])c7F)c([H])c6[H])c(C(=O)N([H])[H])c5N([H])[H])C4([H])[H])c([H])c3C(F)(F)F)c([H])c([H])c2C1([H])[H]

>  <smiles>  (64) 
[H]c1c([H])c([H])c2c(c1[H])C([H])([H])C([H])([H])C([H])([H])C2([H])N([H])C(=O)C1([H])N(C(=O)C([H])(N([H])C(=O)C([H])(N([H])C([H])([H])[H])C([H])([H])[H])C(C([H])([H])[H])(C([H])([H])[H])C([H])([H])[H])C([H])([H])c2c([H])c(OC([H])([H])c3c([H])c([H])c(N([H])C(=O)N4C([H])([H])C([H])([H])C([H])([H])C([H])(n5nc(-c6c([H])c([H])c(Oc7c([H])c([H])c(F)c([H])c7F)c([H])c6[H])c(C(=O)N([H])[H])c5N([H])[H])C4([H])[H])c([H])c3C(F)(F)F)c([H])c([H])c2C1([H])[H]

$$$$
64:0:0
     RDKit          3D

 91 99  0  0  1  0  0  0  0  0999 V2000
  -29.4800  -22.9150   18.6540 C   0  0  0  0  0  1  0  0  0  0  0  0
  -28.6050  -22.6040   19.8790 C   0  0  0  0  0  3  0  0  0  0  0  0
  -30.5210  -20.7480   20.6630 C   0  0  0  0  0  2  0  0  0  0  0  0
  -28.5910  -19.5970   20.0980 C   0  0  0  0  0  2  0  0  0  0  0  0
  -30.8640  -19.1910   20.3400 C   0  0  0  0  0  3  0  0  0  0  0  0
  -29.6170  -18.2870   20.5900 C   0  0  0  0  0  3  0  0  0  0  0  0
  -32.1220  -18.7150   21.0820 C   0  0  0  0  0  1  0  0  0  0  0  0
  -29.0550  -21.0920   20.5160 N   0  0  2  0  0  4  0  0  0  0  0  0
  -28.7200  -21.1460   21.4670 H   0  0  0  0  0  0  0  0  0  0  0  0
  -30.3580  -15.3370   20.2580 C   0  0  0  0  0  0  0  0  0  0  0  0
  -30.3640  -12.8800   19.3690 C   0  0  0  0  0  2  0  0  0  0  0  0
  -29.4420  -12.6290   18.1490 C   0  0  0  0  0  2  0  0  0  0  0  0
  -27.9990  -12.3440   18.5990 C   0  0  0  0  0  2  0  0  0  0  0  0
  -27.5390  -13.3160   19.7140 C   0  0  0  0  0  3  0  0  0  0  0  0
  -28.5890  -13.4930   20.8290 C   0  0  0  0  0  2  0  0  0  0  0  0
  -29.8010  -14.0240   20.1800 N   0  0  0  0  0  0  0  0  0  0  0  0
  -31.5880  -15.3250   20.1000 O   0  0  0  0  0  0  0  0  0  0  0  0
  -29.5670  -16.6070   20.3120 N   0  0  0  0  0  0  0  0  0  0  0  0
  -28.5960  -16.3340   20.2690 H   0  0  0  0  0  0  0  0  0  0  0  0
  -25.1690  -13.8660   20.4710 C   0  0  0  0  0  0  0  0  0  0  0  0
  -24.1110  -13.0860   20.8460 C   0  0  0  0  0  0  0  0  0  0  0  0
  -24.5860  -11.7380   20.8230 C   0  0  0  0  0  0  0  0  0  0  0  0
  -26.2160  -12.9940   20.2310 N   0  0  0  0  0  0  0  0  0  0  0  0
  -25.8780  -11.7080   20.5120 N   0  0  0  0  0  0  0  0  0  0  0  0
  -23.8630  -10.4740   21.0190 C   0  0  0  0  0  0  0  0  0  0  0  0
  -24.2990   -9.5090   21.9540 C   0  0  0  0  0  3  0  0  0  0  0  0
  -23.5750   -8.3120   22.1390 C   0  0  0  0  0  3  0  0  0  0  0  0
  -22.3990   -8.0710   21.3890 C   0  0  0  0  0  0  0  0  0  0  0  0
  -21.9820   -9.0240   20.4430 C   0  0  0  0  0  3  0  0  0  0  0  0
  -22.7070  -10.2120   20.2560 C   0  0  0  0  0  3  0  0  0  0  0  0
  -21.6460   -6.9260   21.4840 O   0  0  0  0  0  0  0  0  0  0  0  0
  -21.6080   -6.1820   22.6360 C   0  0  0  0  0  0  0  0  0  0  0  0
  -21.1930   -6.7370   23.8670 C   0  0  0  0  0  3  0  0  0  0  0  0
  -21.1010   -5.9200   25.0120 C   0  0  0  0  0  3  0  0  0  0  0  0
  -21.4140   -4.5510   24.9270 C   0  0  0  0  0  0  0  0  0  0  0  0
  -21.8220   -3.9950   23.7010 C   0  0  0  0  0  3  0  0  0  0  0  0
  -21.9150   -4.8090   22.5580 C   0  0  0  0  0  0  0  0  0  0  0  0
  -22.2880   -4.2650   21.3750 F   0  0  0  0  0  0  0  0  0  0  0  0
  -21.3190   -3.7630   26.0230 F   0  0  0  0  0  0  0  0  0  0  0  0
  -22.7120  -13.5590   21.1060 C   0  0  0  0  0  0  0  0  0  0  0  0
  -21.9830  -12.8670   21.9750 N   0  0  0  0  0  0  0  0  0  0  0  0
  -22.2730  -14.5780   20.5730 O   0  0  0  0  0  0  0  0  0  0  0  0
  -22.3500  -12.0440   22.4270 H   0  0  0  0  0  0  0  0  0  0  0  0
  -21.0430  -13.1680   22.1930 H   0  0  0  0  0  0  0  0  0  0  0  0
  -25.3200  -15.2360   20.2820 N   0  0  0  0  0  0  0  0  0  0  0  0
  -24.5380  -15.8750   20.3750 H   0  0  0  0  0  0  0  0  0  0  0  0
  -26.1430  -15.6740   19.8910 H   0  0  0  0  0  0  0  0  0  0  0  0
  -29.3520  -24.3180   21.7490 C   0  0  0  0  0  1  0  0  0  0  0  0
  -26.9050  -24.0300   21.3820 C   0  0  0  0  0  1  0  0  0  0  0  0
  -28.2590  -24.2120   20.6770 C   0  0  2  0  0  0  0  0  0  0  0  0
  -28.2610  -25.8210   20.1980 O   0  0  0  0  0  0  0  0  0  0  0  0
  -24.6500  -31.8290   23.1990 C   0  0  0  0  0  0  0  0  0  0  0  0
  -27.2250  -26.9090   20.2350 C   0  0  0  0  0  0  0  0  0  0  0  0
  -23.4690  -30.4240   21.5600 C   0  0  0  0  0  3  0  0  0  0  0  0
  -24.9280  -28.8060   20.1610 C   0  0  0  0  0  0  0  0  0  0  0  0
  -26.0380  -30.6300   21.4300 C   0  0  0  0  0  2  0  0  0  0  0  0
  -26.1140  -29.2110   20.7870 C   0  0  0  0  0  0  0  0  0  0  0  0
  -27.2590  -28.2870   20.7930 C   0  0  0  0  0  3  0  0  0  0  0  0
  -26.0100  -26.6670   19.5580 C   0  0  0  0  0  3  0  0  0  0  0  0
  -24.9020  -27.5550   19.5260 C   0  0  0  0  0  3  0  0  0  0  0  0
  -23.7110  -29.7310   20.1900 C   0  0  0  0  0  2  0  0  0  0  0  0
  -24.7420  -30.9890   22.1160 N   0  0  0  0  0  0  0  0  0  0  0  0
  -23.5560  -32.1200   23.7100 O   0  0  0  0  0  0  0  0  0  0  0  0
  -22.7680  -29.4330   22.5260 C   0  0  0  0  0  0  0  0  0  0  0  0
  -21.4350  -29.2810   22.4060 N   0  0  0  0  0  0  0  0  0  0  0  0
  -23.4310  -28.8010   23.3520 O   0  0  0  0  0  0  0  0  0  0  0  0
  -20.9540  -29.8420   21.7170 H   0  0  0  0  0  0  0  0  0  0  0  0
  -18.0440  -28.1020   22.9320 C   0  0  0  0  0  0  0  0  0  0  0  0
  -20.6080  -28.3480   23.1780 C   0  0  0  0  0  3  0  0  0  0  0  0
  -20.6940  -26.9180   22.5960 C   0  0  0  0  0  2  0  0  0  0  0  0
  -19.5820  -26.6090   21.5870 C   0  0  0  0  0  2  0  0  0  0  0  0
  -18.2060  -26.7570   22.2430 C   0  0  0  0  0  2  0  0  0  0  0  0
  -19.1720  -28.8550   23.3560 C   0  0  0  0  0  0  0  0  0  0  0  0
  -18.9640  -30.1120   23.9650 C   0  0  0  0  0  3  0  0  0  0  0  0
  -17.6620  -30.6170   24.1490 C   0  0  0  0  0  3  0  0  0  0  0  0
  -16.5500  -29.8620   23.7380 C   0  0  0  0  0  3  0  0  0  0  0  0
  -16.7420  -28.6060   23.1360 C   0  0  0  0  0  3  0  0  0  0  0  0
  -25.9150  -32.4780   23.8380 C   0  0  0  0  0  3  0  0  0  0  0  0
  -25.5890  -33.8770   24.1690 N   0  0  0  0  0  0  0  0  0  0  0  0
  -25.9200  -34.9400   23.4250 C   0  0  0  0  0  0  0  0  0  0  0  0
  -26.5930  -34.8470   22.3950 O   0  0  0  0  0  0  0  0  0  0  0  0
  -24.9890  -34.0220   24.9670 H   0  0  0  0  0  0  0  0  0  0  0  0
  -24.1860  -36.7370   23.0920 C   0  0  0  0  0  1  0  0  0  0  0  0
  -25.4310  -36.3270   23.8950 C   0  0  0  0  0  3  0  0  0  0  0  0
  -27.5660  -37.2170   24.7230 C   0  0  0  0  0  1  0  0  0  0  0  0
  -26.4600  -37.3850   23.7840 N   0  0  0  0  0  0  0  0  0  0  0  0
  -26.0510  -38.3030   23.9360 H   0  0  0  0  0  0  0  0  0  0  0  0
  -26.4130  -31.7180   25.1300 C   0  0  1  0  0  0  0  0  0  0  0  0
  -25.3060  -31.4920   26.1870 C   0  0  0  0  0  1  0  0  0  0  0  0
  -27.0010  -30.3360   24.7670 C   0  0  0  0  0  1  0  0  0  0  0  0
  -27.5560  -32.5180   25.7980 C   0  0  0  0  0  1  0  0  0  0  0  0
  2  1  1  0
  2  8  1  0
  2 50  1  0
  4  8  1  0
  4  6  1  0
  5  6  1  0
  5  3  1  0
  5  7  1  0
  6 18  1  0
  8  3  1  0
  8  9  1  1
 10 18  1  0
 11 16  1  0
 12 13  1  0
 12 11  1  0
 14 13  1  0
 14 23  1  0
 14 15  1  0
 16 10  1  0
 16 15  1  0
 17 10  2  0
 19 18  1  0
 20 21  2  0
 21 40  1  0
 22 21  1  0
 22 25  1  0
 23 20  1  0
 23 24  1  0
 24 22  2  0
 25 26  1  0
 26 27  2  0
 28 31  1  0
 28 27  1  0
 29 28  2  0
 30 29  1  0
 30 25  2  0
 31 32  1  0
 32 33  1  0
 33 34  2  0
 35 34  1  0
 35 39  1  0
 36 35  2  0
 37 32  2  0
 37 36  1  0
 38 37  1  0
 40 41  1  0
 41 44  1  0
 41 43  1  0
 42 40  2  0
 45 46  1  0
 45 20  1  0
 47 45  1  0
 50 49  1  1
 50 48  1  0
 51 53  1  0
 51 50  1  0
 52 63  2  0
 53 58  1  0
 54 62  1  0
 54 64  1  0
 55 61  1  0
 55 57  1  0
 56 62  1  0
 57 58  2  0
 57 56  1  0
 59 53  2  0
 60 59  1  0
 60 55  2  0
 61 54  1  0
 62 52  1  0
 64 66  2  0
 65 64  1  0
 67 65  1  0
 68 77  2  0
 68 73  1  0
 69 65  1  0
 69 73  1  0
 70 69  1  0
 71 72  1  0
 71 70  1  0
 72 68  1  0
 73 74  2  0
 74 75  1  0
 76 75  2  0
 77 76  1  0
 78 52  1  0
 78 79  1  0
 78 88  1  0
 79 82  1  0
 80 84  1  0
 80 79  1  0
 81 80  2  0
 84 83  1  0
 86 84  1  0
 86 87  1  0
 86 85  1  0
 88 91  1  1
 88 89  1  0
 90 88  1  0
M  ISO  4  10 100  18 100  50 101  51 101
M  END
>  <TORSDO>  (65) 
F 18

>  <SCORE>  (65) 
-16.974

>  <name>  (65) 
64

>  <ligand_id>  (65) 
64

>  <original_smiles>  (65) 
[H]c1c([H])c([H])c2c(c1[H])C([H])([H])C([H])([H])C([H])([H])C2([H])N([H])C(=O)C1([H])N(C(=O)C([H])(N([H])C(=O)C([H])(N([H])C([H])([H])[H])C([H])([H])[H])C(C([H])([H])[H])(C([H])([H])[H])C([H])([H])[H])C([H])([H])c2c([H])c(OC(C([H])([H])[H])(C([H])([H])[H])C([H])(C([H])([H])[H])[N+]3([H])C([H])([H])C([H])(N([H])C(=O)N4C([H])([H])C([H])([H])C([H])([H])C([H])(n5nc(-c6c([H])c([H])c(Oc7c([H])c([H])c(F)c([H])c7F)c([H])c6[H])c(C(=O)N([H])[H])c5N([H])[H])C4([H])[H])C([H])(C([H])([H])[H])C3([H])[H])c([H])c([H])c2C1([H])[H]

>  <smiles>  (65) 
[H]c1c([H])c([H])c2c(c1[H])C([H])([H])C([H])([H])C([H])([H])C2([H])N([H])C(=O)C1([H])N(C(=O)C([H])(N([H])C(=O)C([H])(N([H])C([H])([H])[H])C([H])([H])[H])C(C([H])([H])[H])(C([H])([H])[H])C([H])([H])[H])C([H])([H])c2c([H])c(OC(C([H])([H])[H])(C([H])([H])[H])C([H])(C([H])([H])[H])[N+]3([H])C([H])([H])C([H])(N([H])C(=O)N4C([H])([H])C([H])([H])C([H])([H])C([H])(n5nc(-c6c([H])c([H])c(Oc7c([H])c([H])c(F)c([H])c7F)c([H])c6[H])c(C(=O)N([H])[H])c5N([H])[H])C4([H])[H])C([H])(C([H])([H])[H])C3([H])[H])c([H])c([H])c2C1([H])[H]

$$$$
65:0:0
     RDKit          3D

101110  0  0  1  0  0  0  0  0999 V2000
  -27.9930  -22.2730   21.7770 C   0  0  0  0  0  2  0  0  0  0  0  0
  -28.6890  -22.4740   20.4320 C   0  0  0  0  0  3  0  0  0  0  0  0
  -29.9780  -22.7590   21.2210 C   0  0  0  0  0  3  0  0  0  0  0  0
  -29.2700  -23.5930   23.4530 C   0  0  0  0  0  1  0  0  0  0  0  0
  -29.2720  -22.4850   22.4680 N   0  0  1  0  0  4  0  0  0  0  0  0
  -29.6890  -21.6390   22.8380 H   0  0  0  0  0  0  0  0  0  0  0  0
  -28.1480  -23.6420   19.5910 C   0  0  0  0  0  0  0  0  0  0  0  0
  -27.0940  -23.3570   18.8150 N   0  0  0  0  0  0  0  0  0  0  0  0
  -28.6910  -24.7470   19.6070 O   0  0  0  0  0  0  0  0  0  0  0  0
  -26.7220  -22.4170   18.8830 H   0  0  0  0  0  0  0  0  0  0  0  0
  -26.4700  -24.2060   17.7950 C   0  0  0  0  0  2  0  0  0  0  0  0
  -26.7380  -25.7190   17.9550 C   0  0  0  0  0  2  0  0  0  0  0  0
  -25.7510  -26.4950   17.2680 O   0  0  0  0  0  0  0  0  0  0  0  0
  -26.0410  -30.0990   23.3760 C   0  0  0  0  0  0  0  0  0  0  0  0
  -25.1670  -27.4390   18.0710 C   0  0  0  0  0  0  0  0  0  0  0  0
  -23.9030  -30.2330   22.1390 C   0  0  0  0  0  3  0  0  0  0  0  0
  -23.9410  -29.3310   19.7520 C   0  0  0  0  0  0  0  0  0  0  0  0
  -26.1050  -29.8700   20.8920 C   0  0  0  0  0  2  0  0  0  0  0  0
  -25.3160  -29.0930   19.8580 C   0  0  0  0  0  0  0  0  0  0  0  0
  -25.9370  -28.1480   19.0130 C   0  0  0  0  0  3  0  0  0  0  0  0
  -23.7850  -27.6970   17.9590 C   0  0  0  0  0  3  0  0  0  0  0  0
  -23.1660  -28.6360   18.8060 C   0  0  0  0  0  3  0  0  0  0  0  0
  -23.3540  -30.3580   20.6900 C   0  0  0  0  0  2  0  0  0  0  0  0
  -25.3900  -30.0440   22.1770 N   0  0  0  0  0  0  0  0  0  0  0  0
  -25.4300  -30.3500   24.4250 O   0  0  0  0  0  0  0  0  0  0  0  0
  -23.1190  -29.1210   22.8680 C   0  0  0  0  0  0  0  0  0  0  0  0
  -21.7770  -29.2150   22.8490 N   0  0  0  0  0  0  0  0  0  0  0  0
  -23.7130  -28.1840   23.4110 O   0  0  0  0  0  0  0  0  0  0  0  0
  -21.3660  -30.0150   22.3900 H   0  0  0  0  0  0  0  0  0  0  0  0
  -18.3330  -28.1210   22.8130 C   0  0  0  0  0  0  0  0  0  0  0  0
  -20.8400  -28.2550   23.4340 C   0  0  0  0  0  3  0  0  0  0  0  0
  -20.9700  -26.8730   22.7550 C   0  0  0  0  0  2  0  0  0  0  0  0
  -20.0040  -26.6820   21.5800 C   0  0  0  0  0  2  0  0  0  0  0  0
  -18.5550  -26.8210   22.0570 C   0  0  0  0  0  2  0  0  0  0  0  0
  -19.4090  -28.8010   23.4450 C   0  0  0  0  0  0  0  0  0  0  0  0
  -19.1550  -30.0280   24.0990 C   0  0  0  0  0  3  0  0  0  0  0  0
  -17.8580  -30.5670   24.1340 C   0  0  0  0  0  3  0  0  0  0  0  0
  -16.7930  -29.8820   23.5210 C   0  0  0  0  0  3  0  0  0  0  0  0
  -17.0300  -28.6580   22.8670 C   0  0  0  0  0  3  0  0  0  0  0  0
  -27.5830  -29.8750   23.4810 C   0  0  0  0  0  3  0  0  0  0  0  0
  -28.0810  -30.7010   24.5880 N   0  0  0  0  0  0  0  0  0  0  0  0
  -28.8410  -31.7960   24.4380 C   0  0  0  0  0  0  0  0  0  0  0  0
  -29.2600  -32.1740   23.3390 O   0  0  0  0  0  0  0  0  0  0  0  0
  -27.7250  -30.4830   25.5080 H   0  0  0  0  0  0  0  0  0  0  0  0
  -28.3680  -33.8900   25.7400 C   0  0  0  0  0  1  0  0  0  0  0  0
  -29.1930  -32.5950   25.7040 C   0  0  0  0  0  3  0  0  0  0  0  0
  -31.4660  -31.7420   26.0620 C   0  0  0  0  0  1  0  0  0  0  0  0
  -30.6330  -32.9180   25.8150 N   0  0  0  0  0  0  0  0  0  0  0  0
  -30.7950  -33.5870   26.5630 H   0  0  0  0  0  0  0  0  0  0  0  0
  -27.9760  -28.3620   23.6970 C   0  0  1  0  0  0  0  0  0  0  0  0
  -27.2170  -27.6820   24.8620 C   0  0  0  0  0  1  0  0  0  0  0  0
  -27.6980  -27.5510   22.4120 C   0  0  0  0  0  1  0  0  0  0  0  0
  -29.4950  -28.2480   23.9680 C   0  0  0  0  0  1  0  0  0  0  0  0
  -31.0830  -21.7220   20.9750 C   0  0  0  0  0  0  0  0  0  0  0  0
  -31.1780  -21.2670   19.7190 N   0  0  0  0  0  0  0  0  0  0  0  0
  -31.8110  -21.3470   21.8960 O   0  0  0  0  0  0  0  0  0  0  0  0
  -30.5090  -21.6390   19.0600 H   0  0  0  0  0  0  0  0  0  0  0  0
  -31.5360  -19.9110   17.7560 C   0  0  0  0  0  0  0  0  0  0  0  0
  -31.6180  -18.4080   17.5410 C   0  0  0  0  0  2  0  0  0  0  0  0
  -32.2870  -18.9760   19.8150 C   0  0  0  0  0  2  0  0  0  0  0  0
  -32.1240  -20.3360   19.1020 C   0  0  0  0  0  3  0  0  0  0  0  0
  -32.4790  -17.9140   18.7070 C   0  0  0  0  0  3  0  0  0  0  0  0
  -31.0050  -20.6690   16.9390 O   0  0  0  0  0  0  0  0  0  0  0  0
  -32.8770  -15.4620   19.2760 C   0  0  0  0  0  0  0  0  0  0  0  0
  -33.0020  -13.2080   20.2960 C   0  0  0  0  0  2  0  0  0  0  0  0
  -32.2680  -12.1430   19.4590 C   0  0  0  0  0  2  0  0  0  0  0  0
  -30.7770  -12.1000   19.8390 C   0  0  0  0  0  2  0  0  0  0  0  0
  -30.1220  -13.5030   19.7990 C   0  0  0  0  0  3  0  0  0  0  0  0
  -30.9680  -14.5070   20.6080 C   0  0  0  0  0  2  0  0  0  0  0  0
  -32.3430  -14.5030   20.0740 N   0  0  0  0  0  0  0  0  0  0  0  0
  -33.9620  -15.3430   18.6950 O   0  0  0  0  0  0  0  0  0  0  0  0
  -32.1410  -16.5810   19.2140 N   0  0  0  0  0  0  0  0  0  0  0  0
  -31.2750  -16.5270   19.7330 H   0  0  0  0  0  0  0  0  0  0  0  0
  -27.9030  -14.5180   20.6180 C   0  0  0  0  0  0  0  0  0  0  0  0
  -26.7050  -13.9430   20.9440 C   0  0  0  0  0  0  0  0  0  0  0  0
  -26.8880  -12.5330   20.7930 C   0  0  0  0  0  0  0  0  0  0  0  0
  -28.7450  -13.4690   20.2820 N   0  0  0  0  0  0  0  0  0  0  0  0
  -28.1390  -12.2660   20.4470 N   0  0  0  0  0  0  0  0  0  0  0  0
  -25.9300  -11.4260   20.8950 C   0  0  0  0  0  0  0  0  0  0  0  0
  -26.0690  -10.4160   21.8730 C   0  0  0  0  0  3  0  0  0  0  0  0
  -25.1260   -9.3700   21.9630 C   0  0  0  0  0  3  0  0  0  0  0  0
  -24.0260   -9.3280   21.0720 C   0  0  0  0  0  0  0  0  0  0  0  0
  -23.9040  -10.3250   20.0890 C   0  0  0  0  0  3  0  0  0  0  0  0
  -24.8460  -11.3630   19.9970 C   0  0  0  0  0  3  0  0  0  0  0  0
  -23.0750   -8.3370   21.0660 O   0  0  0  0  0  0  0  0  0  0  0  0
  -22.5420   -7.8450   22.2290 C   0  0  0  0  0  0  0  0  0  0  0  0
  -21.8800   -8.6800   23.1560 C   0  0  0  0  0  3  0  0  0  0  0  0
  -21.2900   -8.1210   24.3070 C   0  0  0  0  0  3  0  0  0  0  0  0
  -21.3460   -6.7340   24.5260 C   0  0  0  0  0  0  0  0  0  0  0  0
  -21.9960   -5.8990   23.6010 C   0  0  0  0  0  3  0  0  0  0  0  0
  -22.5920   -6.4540   22.4540 C   0  0  0  0  0  0  0  0  0  0  0  0
  -23.2000   -5.6430   21.5550 F   0  0  0  0  0  0  0  0  0  0  0  0
  -20.7690   -6.1990   25.6290 F   0  0  0  0  0  0  0  0  0  0  0  0
  -25.4300  -14.6590   21.2890 C   0  0  0  0  0  0  0  0  0  0  0  0
  -24.6030  -14.0680   22.1410 N   0  0  0  0  0  0  0  0  0  0  0  0
  -25.1850  -15.7750   20.8320 O   0  0  0  0  0  0  0  0  0  0  0  0
  -24.8120  -13.1590   22.5290 H   0  0  0  0  0  0  0  0  0  0  0  0
  -23.7470  -14.5310   22.4120 H   0  0  0  0  0  0  0  0  0  0  0  0
  -28.3500  -15.8350   20.5620 N   0  0  0  0  0  0  0  0  0  0  0  0
  -27.7600  -16.6300   20.7760 H   0  0  0  0  0  0  0  0  0  0  0  0
  -29.2890  -16.1030   20.2960 H   0  0  0  0  0  0  0  0  0  0  0  0
  1  5  1  0
  2  7  1  0
  2  3  1  0
  2  1  1  0
  3 54  1  0
  3  5  1  0
  5  6  1  1
  5  4  1  0
  7  9  2  0
  8 10  1  0
  8  7  1  0
 11 12  1  0
 11  8  1  0
 13 12  1  0
 13 15  1  0
 14 25  2  0
 15 20  1  0
 16 24  1  0
 16 26  1  0
 17 19  1  0
 17 23  1  0
 18 24  1  0
 19 18  1  0
 20 19  2  0
 21 15  2  0
 21 22  1  0
 22 17  2  0
 23 16  1  0
 24 14  1  0
 26 28  2  0
 27 26  1  0
 29 27  1  0
 30 39  2  0
 30 35  1  0
 31 27  1  0
 31 35  1  0
 32 31  1  0
 33 34  1  0
 33 32  1  0
 34 30  1  0
 35 36  2  0
 36 37  1  0
 38 37  2  0
 39 38  1  0
 40 14  1  0
 40 50  1  0
 40 41  1  0
 41 44  1  0
 42 41  1  0
 42 46  1  0
 43 42  2  0
 46 45  1  0
 46 48  1  0
 48 47  1  0
 48 49  1  0
 50 53  1  1
 50 51  1  0
 52 50  1  0
 54 56  2  0
 55 54  1  0
 57 55  1  0
 58 61  1  0
 59 58  1  0
 59 62  1  0
 61 55  1  0
 61 60  1  0
 62 72  1  0
 62 60  1  0
 63 58  2  0
 64 70  1  0
 66 67  1  0
 66 65  1  0
 68 67  1  0
 68 77  1  0
 68 69  1  0
 70 65  1  0
 70 69  1  0
 71 64  2  0
 72 64  1  0
 72 73  1  0
 74 75  2  0
 75 94  1  0
 76 79  1  0
 76 75  1  0
 77 78  1  0
 77 74  1  0
 78 76  2  0
 79 80  1  0
 80 81  2  0
 82 81  1  0
 83 82  2  0
 84 83  1  0
 84 79  2  0
 85 82  1  0
 85 86  1  0
 86 91  2  0
 86 87  1  0
 87 88  2  0
 88 89  1  0
 89 93  1  0
 90 89  2  0
 91 90  1  0
 92 91  1  0
 94 95  1  0
 95 98  1  0
 95 97  1  0
 96 94  2  0
 99 74  1  0
 99100  1  0
101 99  1  0
M  ISO  4  12 101  13 101  64 100  72 100
M  END
>  <TORSDO>  (66) 
F 21

>  <SCORE>  (66) 
-8.727

>  <name>  (66) 
65

>  <ligand_id>  (66) 
65

>  <original_smiles>  (66) 
[H]c1c([H])c([H])c2c(c1[H])C([H])([H])C([H])([H])C([H])([H])C2([H])N([H])C(=O)C1([H])N(C(=O)C([H])(N([H])C(=O)C([H])(N([H])C([H])([H])[H])C([H])([H])[H])C(C([H])([H])[H])(C([H])([H])[H])C([H])([H])[H])C([H])([H])c2c([H])c(OC([H])([H])C([H])([H])N([H])C(=O)C3([H])C([H])([H])[N+]([H])(C([H])([H])[H])C3([H])C(=O)N([H])C3([H])C(=O)C([H])([H])C([H])(N([H])C(=O)N4C([H])([H])C([H])([H])C([H])([H])C([H])(n5nc(-c6c([H])c([H])c(Oc7c([H])c([H])c(F)c([H])c7F)c([H])c6[H])c(C(=O)N([H])[H])c5N([H])[H])C4([H])[H])C3([H])[H])c([H])c([H])c2C1([H])[H]

>  <smiles>  (66) 
[H]c1c([H])c([H])c2c(c1[H])C([H])([H])C([H])([H])C([H])([H])C2([H])N([H])C(=O)C1([H])N(C(=O)C([H])(N([H])C(=O)C([H])(N([H])C([H])([H])[H])C([H])([H])[H])C(C([H])([H])[H])(C([H])([H])[H])C([H])([H])[H])C([H])([H])c2c([H])c(OC([H])([H])C([H])([H])N([H])C(=O)C3([H])C([H])([H])[N+]([H])(C([H])([H])[H])C3([H])C(=O)N([H])C3([H])C(=O)C([H])([H])C([H])(N([H])C(=O)N4C([H])([H])C([H])([H])C([H])([H])C([H])(n5nc(-c6c([H])c([H])c(Oc7c([H])c([H])c(F)c([H])c7F)c([H])c6[H])c(C(=O)N([H])[H])c5N([H])[H])C4([H])[H])C3([H])[H])c([H])c([H])c2C1([H])[H]

$$$$
66:0:0
     RDKit          3D

 90 98  0  0  1  0  0  0  0  0999 V2000
  -27.5990  -21.5100   21.4870 C   0  0  0  0  0  1  0  0  0  0  0  0
  -28.4460  -21.7630   20.2310 C   0  0  0  0  0  3  0  0  0  0  0  0
  -29.2110  -19.4020   18.3680 C   0  0  0  0  0  2  0  0  0  0  0  0
  -30.1500  -20.5320   18.8130 C   0  0  0  0  0  2  0  0  0  0  0  0
  -29.0880  -19.0180   19.8490 C   0  0  0  0  0  3  0  0  0  0  0  0
  -29.4720  -20.5470   20.1080 N   0  0  2  0  0  4  0  0  0  0  0  0
  -30.1510  -20.5920   20.8570 H   0  0  0  0  0  0  0  0  0  0  0  0
  -30.5910  -15.1640   20.1670 C   0  0  0  0  0  0  0  0  0  0  0  0
  -30.5000  -12.7960   19.2610 C   0  0  0  0  0  2  0  0  0  0  0  0
  -29.5460  -12.6920   18.0500 C   0  0  0  0  0  2  0  0  0  0  0  0
  -28.0850  -12.4880   18.5030 C   0  0  0  0  0  2  0  0  0  0  0  0
  -27.6850  -13.4290   19.6710 C   0  0  0  0  0  3  0  0  0  0  0  0
  -28.7590  -13.4840   20.7730 C   0  0  0  0  0  2  0  0  0  0  0  0
  -30.0030  -13.9020   20.1230 N   0  0  0  0  0  0  0  0  0  0  0  0
  -31.8130  -15.1960   19.9900 O   0  0  0  0  0  0  0  0  0  0  0  0
  -30.1010  -17.7400   20.2040 C   0  0  0  0  0  0  0  0  0  0  0  0
  -29.7830  -16.3470   20.1450 N   0  0  0  0  0  0  0  0  0  0  0  0
  -31.2340  -18.0780   20.5480 O   0  0  0  0  0  0  0  0  0  0  0  0
  -28.8020  -16.1610   20.0080 H   0  0  0  0  0  0  0  0  0  0  0  0
  -25.3240  -14.0030   20.4780 C   0  0  0  0  0  0  0  0  0  0  0  0
  -24.2680  -13.2230   20.8610 C   0  0  0  0  0  0  0  0  0  0  0  0
  -24.7320  -11.8730   20.8070 C   0  0  0  0  0  0  0  0  0  0  0  0
  -26.3610  -13.1280   20.2010 N   0  0  0  0  0  0  0  0  0  0  0  0
  -26.0160  -11.8420   20.4710 N   0  0  0  0  0  0  0  0  0  0  0  0
  -24.0090  -10.6110   20.9910 C   0  0  0  0  0  0  0  0  0  0  0  0
  -24.4260   -9.6500   21.9400 C   0  0  0  0  0  3  0  0  0  0  0  0
  -23.7000   -8.4530   22.1140 C   0  0  0  0  0  3  0  0  0  0  0  0
  -22.5430   -8.2060   21.3380 C   0  0  0  0  0  0  0  0  0  0  0  0
  -22.1450   -9.1530   20.3770 C   0  0  0  0  0  3  0  0  0  0  0  0
  -22.8720  -10.3420   20.2020 C   0  0  0  0  0  3  0  0  0  0  0  0
  -21.7880   -7.0590   21.4210 O   0  0  0  0  0  0  0  0  0  0  0  0
  -21.6810   -6.3520   22.5910 C   0  0  0  0  0  0  0  0  0  0  0  0
  -21.1520   -6.9270   23.7650 C   0  0  0  0  0  3  0  0  0  0  0  0
  -20.9970   -6.1420   24.9260 C   0  0  0  0  0  3  0  0  0  0  0  0
  -21.3620   -4.7830   24.9080 C   0  0  0  0  0  0  0  0  0  0  0  0
  -21.8810   -4.2060   23.7390 C   0  0  0  0  0  3  0  0  0  0  0  0
  -22.0390   -4.9880   22.5790 C   0  0  0  0  0  0  0  0  0  0  0  0
  -22.5230   -4.4210   21.4490 F   0  0  0  0  0  0  0  0  0  0  0  0
  -21.2030   -4.0260   26.0220 F   0  0  0  0  0  0  0  0  0  0  0  0
  -22.8750  -13.6990   21.1560 C   0  0  0  0  0  0  0  0  0  0  0  0
  -22.1550  -12.9970   22.0230 N   0  0  0  0  0  0  0  0  0  0  0  0
  -22.4340  -14.7320   20.6520 O   0  0  0  0  0  0  0  0  0  0  0  0
  -22.5210  -12.1630   22.4590 H   0  0  0  0  0  0  0  0  0  0  0  0
  -21.2210  -13.3030   22.2560 H   0  0  0  0  0  0  0  0  0  0  0  0
  -25.4770  -15.3770   20.3180 N   0  0  0  0  0  0  0  0  0  0  0  0
  -24.6960  -16.0140   20.4360 H   0  0  0  0  0  0  0  0  0  0  0  0
  -26.3020  -15.8370   19.9580 H   0  0  0  0  0  0  0  0  0  0  0  0
  -28.9330  -23.3890   20.2280 C   0  0  0  0  0  3  0  0  0  0  0  0
  -27.9440  -24.7440   19.9830 C   0  0  0  0  0  3  0  0  0  0  0  0
  -28.2550  -26.2670   20.1810 O   0  0  0  0  0  0  0  0  0  0  0  0
  -24.6490  -31.9510   23.2680 C   0  0  0  0  0  0  0  0  0  0  0  0
  -27.2120  -27.2680   20.1430 C   0  0  0  0  0  0  0  0  0  0  0  0
  -23.4420  -30.5650   21.6280 C   0  0  0  0  0  3  0  0  0  0  0  0
  -24.8810  -29.0210   20.1660 C   0  0  0  0  0  0  0  0  0  0  0  0
  -25.9950  -30.8420   21.4440 C   0  0  0  0  0  2  0  0  0  0  0  0
  -26.0680  -29.4560   20.7710 C   0  0  0  0  0  0  0  0  0  0  0  0
  -27.2310  -28.5940   20.7480 C   0  0  0  0  0  3  0  0  0  0  0  0
  -26.0020  -26.9510   19.4870 C   0  0  0  0  0  3  0  0  0  0  0  0
  -24.8660  -27.7860   19.5060 C   0  0  0  0  0  3  0  0  0  0  0  0
  -23.6490  -29.9090   20.2380 C   0  0  0  0  0  2  0  0  0  0  0  0
  -24.7170  -31.1400   22.1680 N   0  0  0  0  0  0  0  0  0  0  0  0
  -23.5670  -32.2280   23.8070 O   0  0  0  0  0  0  0  0  0  0  0  0
  -22.7830  -29.5380   22.5820 C   0  0  0  0  0  0  0  0  0  0  0  0
  -21.4580  -29.3450   22.4520 N   0  0  0  0  0  0  0  0  0  0  0  0
  -23.4630  -28.9150   23.4030 O   0  0  0  0  0  0  0  0  0  0  0  0
  -20.9590  -29.9100   21.7780 H   0  0  0  0  0  0  0  0  0  0  0  0
  -18.0930  -28.0850   22.9410 C   0  0  0  0  0  0  0  0  0  0  0  0
  -20.6490  -28.3870   23.2110 C   0  0  0  0  0  3  0  0  0  0  0  0
  -20.7700  -26.9610   22.6260 C   0  0  0  0  0  2  0  0  0  0  0  0
  -19.6770  -26.6310   21.6040 C   0  0  0  0  0  2  0  0  0  0  0  0
  -18.2930  -26.7450   22.2510 C   0  0  0  0  0  2  0  0  0  0  0  0
  -19.2010  -28.8640   23.3730 C   0  0  0  0  0  0  0  0  0  0  0  0
  -18.9600  -30.1160   23.9780 C   0  0  0  0  0  3  0  0  0  0  0  0
  -17.6490  -30.6000   24.1460 C   0  0  0  0  0  3  0  0  0  0  0  0
  -16.5560  -29.8200   23.7300 C   0  0  0  0  0  3  0  0  0  0  0  0
  -16.7790  -28.5630   23.1390 C   0  0  0  0  0  3  0  0  0  0  0  0
  -25.9300  -32.5880   23.8880 C   0  0  0  0  0  3  0  0  0  0  0  0
  -26.4530  -31.8170   25.1630 C   0  0  1  0  0  0  0  0  0  0  0  0
  -25.3610  -31.5700   26.2320 C   0  0  0  0  0  1  0  0  0  0  0  0
  -27.0410  -30.4430   24.7710 C   0  0  0  0  0  1  0  0  0  0  0  0
  -27.6060  -32.6110   25.8190 C   0  0  0  0  0  1  0  0  0  0  0  0
  -25.6220  -33.9860   24.2300 N   0  0  0  0  0  0  0  0  0  0  0  0
  -25.9210  -35.0430   23.4630 C   0  0  0  0  0  0  0  0  0  0  0  0
  -26.5550  -34.9430   22.4090 O   0  0  0  0  0  0  0  0  0  0  0  0
  -25.0510  -34.1400   25.0480 H   0  0  0  0  0  0  0  0  0  0  0  0
  -24.1580  -36.8160   23.1860 C   0  0  0  0  0  1  0  0  0  0  0  0
  -25.4430  -36.4310   23.9370 C   0  0  0  0  0  3  0  0  0  0  0  0
  -27.6030  -37.3380   24.6710 C   0  0  0  0  0  1  0  0  0  0  0  0
  -26.4610  -37.4940   23.7740 N   0  0  0  0  0  0  0  0  0  0  0  0
  -26.0530  -38.4100   23.9470 H   0  0  0  0  0  0  0  0  0  0  0  0
  2  1  1  0
  3  4  1  0
  3  5  1  0
  4  6  1  0
  5  6  1  0
  5 16  1  0
  6  2  1  0
  6  7  1  1
  9 14  1  0
 10 11  1  0
 10  9  1  0
 12 11  1  0
 12 23  1  0
 12 13  1  0
 14  8  1  0
 14 13  1  0
 15  8  2  0
 16 18  2  0
 17  8  1  0
 17 16  1  0
 19 17  1  0
 20 21  2  0
 21 40  1  0
 22 21  1  0
 22 25  1  0
 23 24  1  0
 23 20  1  0
 24 22  2  0
 25 26  1  0
 26 27  2  0
 28 31  1  0
 28 27  1  0
 29 28  2  0
 30 29  1  0
 30 25  2  0
 31 32  1  0
 32 33  1  0
 33 34  2  0
 35 34  1  0
 35 39  1  0
 36 35  2  0
 37 32  2  0
 37 36  1  0
 38 37  1  0
 40 41  1  0
 41 44  1  0
 41 43  1  0
 42 40  2  0
 45 46  1  0
 45 20  1  0
 47 45  1  0
 48  2  1  0
 49 50  1  0
 49 48  2  0
 51 62  2  0
 52 50  1  0
 52 57  1  0
 53 61  1  0
 53 63  1  0
 54 60  1  0
 54 56  1  0
 55 61  1  0
 56 55  1  0
 57 56  2  0
 58 59  1  0
 58 52  2  0
 59 54  2  0
 60 53  1  0
 61 51  1  0
 63 65  2  0
 64 63  1  0
 66 64  1  0
 67 76  2  0
 67 72  1  0
 68 64  1  0
 68 72  1  0
 69 68  1  0
 70 71  1  0
 70 69  1  0
 71 67  1  0
 72 73  2  0
 73 74  1  0
 75 74  2  0
 76 75  1  0
 77 51  1  0
 77 82  1  0
 77 78  1  0
 78 81  1  1
 78 79  1  0
 80 78  1  0
 82 85  1  0
 83 87  1  0
 83 82  1  0
 84 83  2  0
 87 86  1  0
 89 87  1  0
 89 90  1  0
 89 88  1  0
M  ISO  4   8 100  17 100  49 101  50 101
M  END
>  <TORSDO>  (67) 
F 19

>  <SCORE>  (67) 
-14.793

>  <name>  (67) 
66

>  <ligand_id>  (67) 
66

>  <original_smiles>  (67) 
[H]c1c([H])c([H])c2c(c1[H])C([H])([H])C([H])([H])C([H])([H])C2([H])N([H])C(=O)C1([H])N(C(=O)C([H])(N([H])C(=O)C([H])(N([H])C([H])([H])[H])C([H])([H])[H])C(C([H])([H])[H])(C([H])([H])[H])C([H])([H])[H])C([H])([H])c2c([H])c(OC([H])([H])C([H])([H])C([H])(C([H])([H])[H])[N+]3([H])C([H])([H])C([H])([H])C3([H])C(=O)N([H])C(=O)N3C([H])([H])C([H])([H])C([H])([H])C([H])(n4nc(-c5c([H])c([H])c(Oc6c([H])c([H])c(F)c([H])c6F)c([H])c5[H])c(C(=O)N([H])[H])c4N([H])[H])C3([H])[H])c([H])c([H])c2C1([H])[H]

>  <smiles>  (67) 
[H]c1c([H])c([H])c2c(c1[H])C([H])([H])C([H])([H])C([H])([H])C2([H])N([H])C(=O)C1([H])N(C(=O)C([H])(N([H])C(=O)C([H])(N([H])C([H])([H])[H])C([H])([H])[H])C(C([H])([H])[H])(C([H])([H])[H])C([H])([H])[H])C([H])([H])c2c([H])c(OC([H])([H])C([H])([H])C([H])(C([H])([H])[H])[N+]3([H])C([H])([H])C([H])([H])C3([H])C(=O)N([H])C(=O)N3C([H])([H])C([H])([H])C([H])([H])C([H])(n4nc(-c5c([H])c([H])c(Oc6c([H])c([H])c(F)c([H])c6F)c([H])c5[H])c(C(=O)N([H])[H])c4N([H])[H])C3([H])[H])c([H])c([H])c2C1([H])[H]

$$$$
67:0:0
     RDKit          3D

 92100  0  0  1  0  0  0  0  0999 V2000
  -31.3430  -18.1820   20.9780 C   0  0  0  0  0  3  0  0  0  0  0  0
  -31.7460  -19.5120   21.2210 C   0  0  0  0  0  3  0  0  0  0  0  0
  -30.0330  -17.8560   20.5750 C   0  0  0  0  0  0  0  0  0  0  0  0
  -29.5610  -20.5290   20.6050 C   0  0  0  0  0  0  0  0  0  0  0  0
  -30.9010  -20.6330   21.0700 C   0  0  0  0  0  0  0  0  0  0  0  0
  -29.1620  -19.0830   20.3960 C   0  0  0  0  0  0  0  0  0  0  0  0
  -31.4220  -21.8210   21.4470 F   0  0  0  0  0  0  0  0  0  0  0  0
  -27.8820  -18.8570   20.0140 F   0  0  0  0  0  0  0  0  0  0  0  0
  -30.4810  -15.1130   20.3580 C   0  0  0  0  0  0  0  0  0  0  0  0
  -30.3900  -12.7440   19.4060 C   0  0  0  0  0  2  0  0  0  0  0  0
  -29.4500  -12.6430   18.1820 C   0  0  0  0  0  2  0  0  0  0  0  0
  -27.9970  -12.3970   18.6320 C   0  0  0  0  0  2  0  0  0  0  0  0
  -27.5770  -13.3260   19.7990 C   0  0  0  0  0  3  0  0  0  0  0  0
  -28.6400  -13.3910   20.9150 C   0  0  0  0  0  2  0  0  0  0  0  0
  -29.8870  -13.8450   20.2850 N   0  0  0  0  0  0  0  0  0  0  0  0
  -31.6940  -15.1400   20.1210 O   0  0  0  0  0  0  0  0  0  0  0  0
  -29.7060  -16.3320   20.4470 N   0  0  0  0  0  0  0  0  0  0  0  0
  -28.7150  -16.1460   20.4370 H   0  0  0  0  0  0  0  0  0  0  0  0
  -25.2010  -13.8700   20.5660 C   0  0  0  0  0  0  0  0  0  0  0  0
  -24.1480  -13.0810   20.9380 C   0  0  0  0  0  0  0  0  0  0  0  0
  -24.6280  -11.7350   20.8950 C   0  0  0  0  0  0  0  0  0  0  0  0
  -26.2510  -13.0050   20.3130 N   0  0  0  0  0  0  0  0  0  0  0  0
  -25.9180  -11.7150   20.5780 N   0  0  0  0  0  0  0  0  0  0  0  0
  -23.9150  -10.4640   21.0800 C   0  0  0  0  0  0  0  0  0  0  0  0
  -24.3640   -9.4920   22.0010 C   0  0  0  0  0  3  0  0  0  0  0  0
  -23.6480   -8.2860   22.1740 C   0  0  0  0  0  3  0  0  0  0  0  0
  -22.4700   -8.0460   21.4270 C   0  0  0  0  0  0  0  0  0  0  0  0
  -22.0410   -9.0080   20.4950 C   0  0  0  0  0  3  0  0  0  0  0  0
  -22.7570  -10.2030   20.3200 C   0  0  0  0  0  3  0  0  0  0  0  0
  -21.7250   -6.8950   21.5110 O   0  0  0  0  0  0  0  0  0  0  0  0
  -21.6910   -6.1420   22.6570 C   0  0  0  0  0  0  0  0  0  0  0  0
  -21.2570   -6.6780   23.8890 C   0  0  0  0  0  3  0  0  0  0  0  0
  -21.1720   -5.8510   25.0260 C   0  0  0  0  0  3  0  0  0  0  0  0
  -21.5110   -4.4880   24.9330 C   0  0  0  0  0  0  0  0  0  0  0  0
  -21.9370   -3.9500   23.7060 C   0  0  0  0  0  3  0  0  0  0  0  0
  -22.0240   -4.7750   22.5710 C   0  0  0  0  0  0  0  0  0  0  0  0
  -22.4160   -4.2470   21.3860 F   0  0  0  0  0  0  0  0  0  0  0  0
  -21.4210   -3.6910   26.0240 F   0  0  0  0  0  0  0  0  0  0  0  0
  -22.7470  -13.5410   21.2150 C   0  0  0  0  0  0  0  0  0  0  0  0
  -22.0330  -12.8380   22.0850 N   0  0  0  0  0  0  0  0  0  0  0  0
  -22.2960  -14.5610   20.6970 O   0  0  0  0  0  0  0  0  0  0  0  0
  -22.4100  -12.0120   22.5260 H   0  0  0  0  0  0  0  0  0  0  0  0
  -21.0920  -13.1290   22.3140 H   0  0  0  0  0  0  0  0  0  0  0  0
  -25.3460  -15.2440   20.3940 N   0  0  0  0  0  0  0  0  0  0  0  0
  -24.5660  -15.8820   20.5060 H   0  0  0  0  0  0  0  0  0  0  0  0
  -26.1740  -15.6940   20.0250 H   0  0  0  0  0  0  0  0  0  0  0  0
  -28.9730  -23.2720   20.3720 C   0  0  0  0  0  0  0  0  0  0  0  0
  -28.7060  -21.8450   20.4610 N   0  0  0  0  0  0  0  0  0  0  0  0
  -30.1330  -23.6550   20.2280 O   0  0  0  0  0  0  0  0  0  0  0  0
  -27.7160  -21.6520   20.4330 H   0  0  0  0  0  0  0  0  0  0  0  0
  -27.8470  -24.5300   20.3450 C   0  0  0  0  0  2  0  0  0  0  0  0
  -28.1950  -26.0860   20.3770 O   0  0  0  0  0  0  0  0  0  0  0  0
  -24.6320  -31.9470   23.2700 C   0  0  0  0  0  0  0  0  0  0  0  0
  -27.1710  -27.1250   20.3050 C   0  0  0  0  0  0  0  0  0  0  0  0
  -23.4290  -30.5470   21.6410 C   0  0  0  0  0  3  0  0  0  0  0  0
  -24.8700  -28.9390   20.2370 C   0  0  0  0  0  0  0  0  0  0  0  0
  -25.9910  -30.7710   21.4900 C   0  0  0  0  0  2  0  0  0  0  0  0
  -26.0560  -29.3650   20.8510 C   0  0  0  0  0  0  0  0  0  0  0  0
  -27.2070  -28.4770   20.8630 C   0  0  0  0  0  3  0  0  0  0  0  0
  -25.9580  -26.8210   19.6470 C   0  0  0  0  0  3  0  0  0  0  0  0
  -24.8390  -27.6820   19.6180 C   0  0  0  0  0  3  0  0  0  0  0  0
  -23.6550  -29.8550   20.2700 C   0  0  0  0  0  2  0  0  0  0  0  0
  -24.7060  -31.1110   22.1880 N   0  0  0  0  0  0  0  0  0  0  0  0
  -23.5450  -32.2470   23.7880 O   0  0  0  0  0  0  0  0  0  0  0  0
  -22.7330  -29.5570   22.6090 C   0  0  0  0  0  0  0  0  0  0  0  0
  -21.4040  -29.3940   22.4750 N   0  0  0  0  0  0  0  0  0  0  0  0
  -23.3930  -28.9360   23.4460 O   0  0  0  0  0  0  0  0  0  0  0  0
  -20.9280  -29.9460   21.7750 H   0  0  0  0  0  0  0  0  0  0  0  0
  -18.0120  -28.2190   22.9700 C   0  0  0  0  0  0  0  0  0  0  0  0
  -20.5710  -28.4720   23.2520 C   0  0  0  0  0  3  0  0  0  0  0  0
  -20.6690  -27.0330   22.6960 C   0  0  0  0  0  2  0  0  0  0  0  0
  -19.5720  -26.7030   21.6790 C   0  0  0  0  0  2  0  0  0  0  0  0
  -18.1870  -26.8610   22.3100 C   0  0  0  0  0  2  0  0  0  0  0  0
  -19.1310  -28.9810   23.3980 C   0  0  0  0  0  0  0  0  0  0  0  0
  -18.9120  -30.2500   23.9780 C   0  0  0  0  0  3  0  0  0  0  0  0
  -17.6080  -30.7570   24.1330 C   0  0  0  0  0  3  0  0  0  0  0  0
  -16.5040  -29.9920   23.7190 C   0  0  0  0  0  3  0  0  0  0  0  0
  -16.7070  -28.7250   23.1430 C   0  0  0  0  0  3  0  0  0  0  0  0
  -25.9100  -32.5810   23.8980 C   0  0  0  0  0  3  0  0  0  0  0  0
  -25.6020  -33.9830   24.2250 N   0  0  0  0  0  0  0  0  0  0  0  0
  -25.9240  -35.0350   23.4600 C   0  0  0  0  0  0  0  0  0  0  0  0
  -26.5740  -34.9270   22.4180 O   0  0  0  0  0  0  0  0  0  0  0  0
  -25.0200  -34.1400   25.0350 H   0  0  0  0  0  0  0  0  0  0  0  0
  -24.1830  -36.8280   23.1470 C   0  0  0  0  0  1  0  0  0  0  0  0
  -25.4490  -36.4280   23.9230 C   0  0  0  0  0  3  0  0  0  0  0  0
  -27.6050  -37.3250   24.6850 C   0  0  0  0  0  1  0  0  0  0  0  0
  -26.4760  -37.4810   23.7710 N   0  0  0  0  0  0  0  0  0  0  0  0
  -26.0730  -38.4020   23.9210 H   0  0  0  0  0  0  0  0  0  0  0  0
  -26.4110  -31.8170   25.1870 C   0  0  1  0  0  0  0  0  0  0  0  0
  -25.3070  -31.5950   26.2480 C   0  0  0  0  0  1  0  0  0  0  0  0
  -26.9870  -30.4320   24.8140 C   0  0  0  0  0  1  0  0  0  0  0  0
  -27.5610  -32.6080   25.8500 C   0  0  0  0  0  1  0  0  0  0  0  0
  1  2  1  0
  3  1  2  0
  4  5  1  0
  5  2  2  0
  5  7  1  0
  6  3  1  0
  6  4  2  0
  8  6  1  0
  9 17  1  0
 10 15  1  0
 11 12  1  0
 11 10  1  0
 13 12  1  0
 13 22  1  0
 13 14  1  0
 15  9  1  0
 15 14  1  0
 16  9  2  0
 17  3  1  0
 18 17  1  0
 19 20  2  0
 20 39  1  0
 21 20  1  0
 21 24  1  0
 22 19  1  0
 22 23  1  0
 23 21  2  0
 24 25  1  0
 25 26  2  0
 27 30  1  0
 27 26  1  0
 28 27  2  0
 29 28  1  0
 29 24  2  0
 30 31  1  0
 31 32  1  0
 32 33  2  0
 34 33  1  0
 34 38  1  0
 35 34  2  0
 36 31  2  0
 36 35  1  0
 37 36  1  0
 39 40  1  0
 40 43  1  0
 40 42  1  0
 41 39  2  0
 44 45  1  0
 44 19  1  0
 46 44  1  0
 47 48  1  0
 48  4  1  0
 49 47  2  0
 50 48  1  0
 51 47  1  0
 51 52  1  0
 53 64  2  0
 54 52  1  0
 54 59  1  0
 55 63  1  0
 55 65  1  0
 56 62  1  0
 56 58  1  0
 57 63  1  0
 58 59  2  0
 58 57  1  0
 60 54  2  0
 61 60  1  0
 61 56  2  0
 62 55  1  0
 63 53  1  0
 65 67  2  0
 66 65  1  0
 68 66  1  0
 69 78  2  0
 69 74  1  0
 70 66  1  0
 70 74  1  0
 71 70  1  0
 72 73  1  0
 72 71  1  0
 73 69  1  0
 74 75  2  0
 75 76  1  0
 77 76  2  0
 78 77  1  0
 79 53  1  0
 79 80  1  0
 79 89  1  0
 80 83  1  0
 81 85  1  0
 81 80  1  0
 82 81  2  0
 85 84  1  0
 87 88  1  0
 87 85  1  0
 87 86  1  0
 89 92  1  1
 89 90  1  0
 91 89  1  0
M  ISO  4   9 100  17 100  51 101  52 101
M  END
>  <TORSDO>  (68) 
F 18

>  <SCORE>  (68) 
-14.950

>  <name>  (68) 
67

>  <ligand_id>  (68) 
67

>  <original_smiles>  (68) 
[H]c1c([H])c([H])c2c(c1[H])C([H])([H])C([H])([H])C([H])([H])C2([H])N([H])C(=O)C1([H])N(C(=O)C([H])(N([H])C(=O)C([H])(N([H])C([H])([H])[H])C([H])([H])[H])C(C([H])([H])[H])(C([H])([H])[H])C([H])([H])[H])C([H])([H])c2c([H])c(OC([H])([H])C(=O)N([H])c3c(F)c([H])c([H])c(N([H])C(=O)N4C([H])([H])C([H])([H])C([H])([H])C([H])(n5nc(-c6c([H])c([H])c(Oc7c([H])c([H])c(F)c([H])c7F)c([H])c6[H])c(C(=O)N([H])[H])c5N([H])[H])C4([H])[H])c3F)c([H])c([H])c2C1([H])[H]

>  <smiles>  (68) 
[H]c1c([H])c([H])c2c(c1[H])C([H])([H])C([H])([H])C([H])([H])C2([H])N([H])C(=O)C1([H])N(C(=O)C([H])(N([H])C(=O)C([H])(N([H])C([H])([H])[H])C([H])([H])[H])C(C([H])([H])[H])(C([H])([H])[H])C([H])([H])[H])C([H])([H])c2c([H])c(OC([H])([H])C(=O)N([H])c3c(F)c([H])c([H])c(N([H])C(=O)N4C([H])([H])C([H])([H])C([H])([H])C([H])(n5nc(-c6c([H])c([H])c(Oc7c([H])c([H])c(F)c([H])c7F)c([H])c6[H])c(C(=O)N([H])[H])c5N([H])[H])C4([H])[H])c3F)c([H])c([H])c2C1([H])[H]

$$$$
68:0:0
     RDKit          3D

 91100  0  0  1  0  0  0  0  0999 V2000
  -28.1240  -19.4840   20.4710 C   0  0  0  0  0  3  0  0  0  0  0  0
  -30.7080  -18.4970   20.2790 C   0  0  0  0  0  3  0  0  0  0  0  0
  -29.1200  -20.5020   20.4330 C   0  0  0  0  0  0  0  0  0  0  0  0
  -29.6790  -17.4950   20.3570 C   0  0  0  0  0  0  0  0  0  0  0  0
  -28.3830  -18.0730   20.4420 C   0  0  0  0  0  0  0  0  0  0  0  0
  -30.4400  -19.9340   20.3250 C   0  0  0  0  0  0  0  0  0  0  0  0
  -27.3290  -17.2320   20.5240 F   0  0  0  0  0  0  0  0  0  0  0  0
  -31.4960  -20.7810   20.2990 F   0  0  0  0  0  0  0  0  0  0  0  0
  -30.5810  -14.9190   20.0810 C   0  0  0  0  0  0  0  0  0  0  0  0
  -30.4130  -12.6380   19.0240 C   0  0  0  0  0  2  0  0  0  0  0  0
  -29.4110  -12.6970   17.8460 C   0  0  0  0  0  2  0  0  0  0  0  0
  -27.9630  -12.4970   18.3360 C   0  0  0  0  0  2  0  0  0  0  0  0
  -27.6330  -13.3500   19.5890 C   0  0  0  0  0  3  0  0  0  0  0  0
  -28.7450  -13.2460   20.6570 C   0  0  0  0  0  2  0  0  0  0  0  0
  -30.0050  -13.6600   20.0190 N   0  0  0  0  0  0  0  0  0  0  0  0
  -31.7440  -15.0730   19.6950 O   0  0  0  0  0  0  0  0  0  0  0  0
  -29.7370  -15.9840   20.4130 N   0  0  0  0  0  0  0  0  0  0  0  0
  -28.8370  -15.6170   20.6810 H   0  0  0  0  0  0  0  0  0  0  0  0
  -25.2660  -13.9060   20.4120 C   0  0  0  0  0  0  0  0  0  0  0  0
  -24.2230  -13.1190   20.8140 C   0  0  0  0  0  0  0  0  0  0  0  0
  -24.7000  -11.7730   20.7550 C   0  0  0  0  0  0  0  0  0  0  0  0
  -26.3120  -13.0410   20.1320 N   0  0  0  0  0  0  0  0  0  0  0  0
  -25.9790  -11.7520   20.3980 N   0  0  0  0  0  0  0  0  0  0  0  0
  -23.9920  -10.5040   20.9640 C   0  0  0  0  0  0  0  0  0  0  0  0
  -24.4430   -9.5510   21.9010 C   0  0  0  0  0  3  0  0  0  0  0  0
  -23.7330   -8.3470   22.0960 C   0  0  0  0  0  3  0  0  0  0  0  0
  -22.5570   -8.0870   21.3530 C   0  0  0  0  0  0  0  0  0  0  0  0
  -22.1250   -9.0300   20.4020 C   0  0  0  0  0  3  0  0  0  0  0  0
  -22.8370  -10.2260   20.2060 C   0  0  0  0  0  3  0  0  0  0  0  0
  -21.8170   -6.9350   21.4560 O   0  0  0  0  0  0  0  0  0  0  0  0
  -21.7620   -6.2180   22.6240 C   0  0  0  0  0  0  0  0  0  0  0  0
  -21.2750   -6.7820   23.8240 C   0  0  0  0  0  3  0  0  0  0  0  0
  -21.1720   -5.9890   24.9830 C   0  0  0  0  0  3  0  0  0  0  0  0
  -21.5460   -4.6330   24.9460 C   0  0  0  0  0  0  0  0  0  0  0  0
  -22.0260   -4.0670   23.7500 C   0  0  0  0  0  3  0  0  0  0  0  0
  -22.1310   -4.8580   22.5930 C   0  0  0  0  0  0  0  0  0  0  0  0
  -22.5740   -4.3040   21.4390 F   0  0  0  0  0  0  0  0  0  0  0  0
  -21.4390   -3.8670   26.0580 F   0  0  0  0  0  0  0  0  0  0  0  0
  -22.8340  -13.5810   21.1460 C   0  0  0  0  0  0  0  0  0  0  0  0
  -22.1450  -12.8690   22.0290 N   0  0  0  0  0  0  0  0  0  0  0  0
  -22.3690  -14.6120   20.6580 O   0  0  0  0  0  0  0  0  0  0  0  0
  -22.5340  -12.0360   22.4450 H   0  0  0  0  0  0  0  0  0  0  0  0
  -21.2140  -13.1590   22.2930 H   0  0  0  0  0  0  0  0  0  0  0  0
  -25.3980  -15.2790   20.2460 N   0  0  0  0  0  0  0  0  0  0  0  0
  -24.6320  -15.9120   20.4450 H   0  0  0  0  0  0  0  0  0  0  0  0
  -26.2600  -15.7730   20.0430 H   0  0  0  0  0  0  0  0  0  0  0  0
  -27.7840  -22.5970   19.5540 C   0  0  0  0  0  2  0  0  0  0  0  0
  -28.6350  -22.0370   20.6720 C   0  0  0  0  0  3  0  0  0  0  0  0
  -28.8070  -23.5650   20.0820 C   0  0  0  0  0  3  0  0  0  0  0  0
  -28.2330  -24.9450   20.7560 C   0  0  0  0  0  2  0  0  0  0  0  0
  -28.3840  -26.3850   20.2760 O   0  0  0  0  0  0  0  0  0  0  0  0
  -24.6380  -31.9390   23.2520 C   0  0  0  0  0  0  0  0  0  0  0  0
  -27.2740  -27.2790   20.2760 C   0  0  0  0  0  0  0  0  0  0  0  0
  -23.4480  -30.5140   21.6280 C   0  0  0  0  0  3  0  0  0  0  0  0
  -24.9080  -28.9340   20.2320 C   0  0  0  0  0  0  0  0  0  0  0  0
  -25.9920  -30.8210   21.4470 C   0  0  0  0  0  2  0  0  0  0  0  0
  -26.0800  -29.4240   20.8240 C   0  0  0  0  0  0  0  0  0  0  0  0
  -27.2670  -28.6130   20.8270 C   0  0  0  0  0  3  0  0  0  0  0  0
  -26.0760  -26.8600   19.6610 C   0  0  0  0  0  3  0  0  0  0  0  0
  -24.9120  -27.6620   19.6390 C   0  0  0  0  0  3  0  0  0  0  0  0
  -23.6720  -29.8170   20.2600 C   0  0  0  0  0  2  0  0  0  0  0  0
  -24.7120  -31.1130   22.1640 N   0  0  0  0  0  0  0  0  0  0  0  0
  -23.5500  -32.2180   23.7790 O   0  0  0  0  0  0  0  0  0  0  0  0
  -22.7800  -29.5110   22.6020 C   0  0  0  0  0  0  0  0  0  0  0  0
  -21.4610  -29.3030   22.4550 N   0  0  0  0  0  0  0  0  0  0  0  0
  -23.4530  -28.9230   23.4520 O   0  0  0  0  0  0  0  0  0  0  0  0
  -20.9710  -29.8270   21.7430 H   0  0  0  0  0  0  0  0  0  0  0  0
  -18.1090  -28.0130   22.9020 C   0  0  0  0  0  0  0  0  0  0  0  0
  -20.6500  -28.3650   23.2360 C   0  0  0  0  0  3  0  0  0  0  0  0
  -20.8150  -26.9200   22.7120 C   0  0  0  0  0  2  0  0  0  0  0  0
  -19.7540  -26.5290   21.6780 C   0  0  0  0  0  2  0  0  0  0  0  0
  -18.3490  -26.6490   22.2770 C   0  0  0  0  0  2  0  0  0  0  0  0
  -19.1890  -28.8250   23.3390 C   0  0  0  0  0  0  0  0  0  0  0  0
  -18.9110  -30.0990   23.8820 C   0  0  0  0  0  3  0  0  0  0  0  0
  -17.5860  -30.5600   23.9940 C   0  0  0  0  0  3  0  0  0  0  0  0
  -16.5210  -29.7460   23.5750 C   0  0  0  0  0  3  0  0  0  0  0  0
  -16.7830  -28.4750   23.0330 C   0  0  0  0  0  3  0  0  0  0  0  0
  -25.9130  -32.5890   23.8730 C   0  0  0  0  0  3  0  0  0  0  0  0
  -25.5940  -33.9920   24.1830 N   0  0  0  0  0  0  0  0  0  0  0  0
  -25.9250  -35.0360   23.4130 C   0  0  0  0  0  0  0  0  0  0  0  0
  -26.5950  -34.9210   22.3840 O   0  0  0  0  0  0  0  0  0  0  0  0
  -25.0000  -34.1550   24.9830 H   0  0  0  0  0  0  0  0  0  0  0  0
  -24.1940  -36.8230   23.0320 C   0  0  0  0  0  1  0  0  0  0  0  0
  -25.4330  -36.4290   23.8530 C   0  0  0  0  0  3  0  0  0  0  0  0
  -27.5590  -37.3310   24.6900 C   0  0  0  0  0  1  0  0  0  0  0  0
  -26.4640  -37.4840   23.7350 N   0  0  0  0  0  0  0  0  0  0  0  0
  -26.0540  -38.4040   23.8680 H   0  0  0  0  0  0  0  0  0  0  0  0
  -26.4250  -31.8410   25.1640 C   0  0  1  0  0  0  0  0  0  0  0  0
  -25.3270  -31.6140   26.2280 C   0  0  0  0  0  1  0  0  0  0  0  0
  -27.0190  -30.4610   24.7960 C   0  0  0  0  0  1  0  0  0  0  0  0
  -27.5690  -32.6520   25.8190 C   0  0  0  0  0  1  0  0  0  0  0  0
  2  6  2  0
  2  4  1  0
  3  1  2  0
  4 17  1  0
  4  5  2  0
  5  1  1  0
  5  7  1  0
  6  3  1  0
  8  6  1  0
  9 17  1  0
 10 15  1  0
 11 12  1  0
 11 10  1  0
 13 12  1  0
 13 22  1  0
 13 14  1  0
 15  9  1  0
 15 14  1  0
 16  9  2  0
 17 18  1  0
 19 20  2  0
 20 39  1  0
 21 20  1  0
 21 24  1  0
 22 23  1  0
 22 19  1  0
 23 21  2  0
 24 25  1  0
 25 26  2  0
 27 30  1  0
 27 26  1  0
 28 27  2  0
 29 28  1  0
 29 24  2  0
 30 31  1  0
 31 32  1  0
 32 33  2  0
 34 33  1  0
 34 38  1  0
 35 34  2  0
 36 31  2  0
 36 35  1  0
 37 36  1  0
 39 40  1  0
 40 43  1  0
 40 42  1  0
 41 39  2  0
 44 19  1  0
 44 45  1  0
 46 44  1  0
 47 49  1  0
 47 48  1  0
 48  3  1  0
 49 48  1  0
 49 50  1  0
 51 53  1  0
 51 50  1  0
 52 63  2  0
 53 58  1  0
 54 62  1  0
 54 64  1  0
 55 61  1  0
 55 57  1  0
 56 62  1  0
 57 58  2  0
 57 56  1  0
 59 53  2  0
 60 59  1  0
 60 55  2  0
 61 54  1  0
 62 52  1  0
 64 66  2  0
 65 64  1  0
 67 65  1  0
 68 77  2  0
 68 73  1  0
 69 65  1  0
 69 73  1  0
 70 69  1  0
 71 72  1  0
 71 70  1  0
 72 68  1  0
 73 74  2  0
 74 75  1  0
 76 75  2  0
 77 76  1  0
 78 52  1  0
 78 79  1  0
 78 88  1  0
 79 82  1  0
 80 84  1  0
 80 79  1  0
 81 80  2  0
 84 83  1  0
 86 84  1  0
 86 87  1  0
 86 85  1  0
 88 91  1  1
 88 89  1  0
 90 88  1  0
M  ISO  4   9 100  17 100  50 101  51 101
M  END
>  <TORSDO>  (69) 
F 18

>  <SCORE>  (69) 
-14.824

>  <name>  (69) 
68

>  <ligand_id>  (69) 
68

>  <original_smiles>  (69) 
[H]c1c([H])c([H])c2c(c1[H])C([H])([H])C([H])([H])C([H])([H])C2([H])N([H])C(=O)C1([H])N(C(=O)C([H])(N([H])C(=O)C([H])(N([H])C([H])([H])[H])C([H])([H])[H])C(C([H])([H])[H])(C([H])([H])[H])C([H])([H])[H])C([H])([H])c2c([H])c(OC([H])([H])C3([H])C([H])([H])C3([H])c3c([H])c(F)c(N([H])C(=O)N4C([H])([H])C([H])([H])C([H])([H])C([H])(n5nc(-c6c([H])c([H])c(Oc7c([H])c([H])c(F)c([H])c7F)c([H])c6[H])c(C(=O)N([H])[H])c5N([H])[H])C4([H])[H])c([H])c3F)c([H])c([H])c2C1([H])[H]

>  <smiles>  (69) 
[H]c1c([H])c([H])c2c(c1[H])C([H])([H])C([H])([H])C([H])([H])C2([H])N([H])C(=O)C1([H])N(C(=O)C([H])(N([H])C(=O)C([H])(N([H])C([H])([H])[H])C([H])([H])[H])C(C([H])([H])[H])(C([H])([H])[H])C([H])([H])[H])C([H])([H])c2c([H])c(OC([H])([H])C3([H])C([H])([H])C3([H])c3c([H])c(F)c(N([H])C(=O)N4C([H])([H])C([H])([H])C([H])([H])C([H])(n5nc(-c6c([H])c([H])c(Oc7c([H])c([H])c(F)c([H])c7F)c([H])c6[H])c(C(=O)N([H])[H])c5N([H])[H])C4([H])[H])c([H])c3F)c([H])c([H])c2C1([H])[H]

$$$$
69:0:0
     RDKit          3D

 93101  0  0  1  0  0  0  0  0999 V2000
  -29.6130  -21.1660   19.8900 C   0  0  0  0  0  2  0  0  0  0  0  0
  -29.7910  -18.4530   20.0320 C   0  0  0  0  0  3  0  0  0  0  0  0
  -30.8570  -17.4000   21.9530 C   0  0  0  0  0  3  0  0  0  0  0  0
  -29.9290  -19.7820   20.6200 C   0  0  0  0  0  0  0  0  0  0  0  0
  -30.2590  -17.2400   20.6840 C   0  0  0  0  0  0  0  0  0  0  0  0
  -30.9650  -18.6690   22.5580 C   0  0  0  0  0  0  0  0  0  0  0  0
  -30.5080  -19.8340   21.9050 C   0  0  0  0  0  0  0  0  0  0  0  0
  -31.5260  -18.7670   23.7880 F   0  0  0  0  0  0  0  0  0  0  0  0
  -30.6430  -21.0320   22.5280 F   0  0  0  0  0  0  0  0  0  0  0  0
  -30.8410  -14.7600   20.1150 C   0  0  0  0  0  0  0  0  0  0  0  0
  -30.5900  -12.5110   19.0490 C   0  0  0  0  0  2  0  0  0  0  0  0
  -29.6030  -12.6250   17.8680 C   0  0  0  0  0  2  0  0  0  0  0  0
  -28.1460  -12.4740   18.3500 C   0  0  0  0  0  2  0  0  0  0  0  0
  -27.8330  -13.3420   19.6010 C   0  0  0  0  0  3  0  0  0  0  0  0
  -28.9350  -13.2000   20.6730 C   0  0  0  0  0  2  0  0  0  0  0  0
  -30.2070  -13.5470   20.0290 N   0  0  0  0  0  0  0  0  0  0  0  0
  -32.0370  -14.8770   19.8200 O   0  0  0  0  0  0  0  0  0  0  0  0
  -30.0200  -15.8700   20.1980 N   0  0  0  0  0  0  0  0  0  0  0  0
  -29.0500  -15.6410   20.0500 H   0  0  0  0  0  0  0  0  0  0  0  0
  -25.4940  -13.9680   20.4540 C   0  0  0  0  0  0  0  0  0  0  0  0
  -24.4310  -13.2060   20.8580 C   0  0  0  0  0  0  0  0  0  0  0  0
  -24.8630  -11.8460   20.7730 C   0  0  0  0  0  0  0  0  0  0  0  0
  -26.5060  -13.0710   20.1450 N   0  0  0  0  0  0  0  0  0  0  0  0
  -26.1360  -11.7900   20.4010 N   0  0  0  0  0  0  0  0  0  0  0  0
  -24.1180  -10.5970   20.9640 C   0  0  0  0  0  0  0  0  0  0  0  0
  -24.5510   -9.6130   21.8810 C   0  0  0  0  0  3  0  0  0  0  0  0
  -23.8100   -8.4260   22.0630 C   0  0  0  0  0  3  0  0  0  0  0  0
  -22.6180   -8.2160   21.3260 C   0  0  0  0  0  0  0  0  0  0  0  0
  -22.2050   -9.1860   20.3980 C   0  0  0  0  0  3  0  0  0  0  0  0
  -22.9470  -10.3650   20.2140 C   0  0  0  0  0  3  0  0  0  0  0  0
  -21.8450   -7.0850   21.4200 O   0  0  0  0  0  0  0  0  0  0  0  0
  -21.7810   -6.3490   22.5760 C   0  0  0  0  0  0  0  0  0  0  0  0
  -21.3370   -6.9080   23.7950 C   0  0  0  0  0  3  0  0  0  0  0  0
  -21.2240   -6.0970   24.9420 C   0  0  0  0  0  3  0  0  0  0  0  0
  -21.5430   -4.7280   24.8710 C   0  0  0  0  0  0  0  0  0  0  0  0
  -21.9760   -4.1660   23.6560 C   0  0  0  0  0  3  0  0  0  0  0  0
  -22.0920   -4.9760   22.5120 C   0  0  0  0  0  0  0  0  0  0  0  0
  -22.4920   -4.4260   21.3390 F   0  0  0  0  0  0  0  0  0  0  0  0
  -21.4260   -3.9460   25.9680 F   0  0  0  0  0  0  0  0  0  0  0  0
  -23.0580  -13.7040   21.2020 C   0  0  0  0  0  0  0  0  0  0  0  0
  -22.3490  -13.0050   22.0800 N   0  0  0  0  0  0  0  0  0  0  0  0
  -22.6200  -14.7460   20.7190 O   0  0  0  0  0  0  0  0  0  0  0  0
  -22.7130  -12.1610   22.4990 H   0  0  0  0  0  0  0  0  0  0  0  0
  -21.4240  -13.3190   22.3390 H   0  0  0  0  0  0  0  0  0  0  0  0
  -25.6780  -15.3400   20.3020 N   0  0  0  0  0  0  0  0  0  0  0  0
  -24.9230  -15.9970   20.4720 H   0  0  0  0  0  0  0  0  0  0  0  0
  -26.5010  -15.7760   19.9060 H   0  0  0  0  0  0  0  0  0  0  0  0
  -27.4250  -22.0490   20.6910 C   0  0  0  0  0  1  0  0  0  0  0  0
  -28.8890  -22.3030   20.6400 N   0  0  2  0  0  4  0  0  0  0  0  0
  -29.2140  -22.2010   21.5920 H   0  0  0  0  0  0  0  0  0  0  0  0
  -29.2340  -23.7690   20.2570 C   0  0  0  0  0  3  0  0  0  0  0  0
  -28.1680  -24.9430   20.5760 C   0  0  0  0  0  3  0  0  0  0  0  0
  -28.4570  -26.4100   20.3570 O   0  0  0  0  0  0  0  0  0  0  0  0
  -24.6740  -31.9170   23.2100 C   0  0  0  0  0  0  0  0  0  0  0  0
  -27.3620  -27.2980   20.2830 C   0  0  0  0  0  0  0  0  0  0  0  0
  -23.5120  -30.4870   21.5720 C   0  0  0  0  0  3  0  0  0  0  0  0
  -24.9980  -28.9290   20.1940 C   0  0  0  0  0  0  0  0  0  0  0  0
  -26.0540  -30.8190   21.4210 C   0  0  0  0  0  2  0  0  0  0  0  0
  -26.1560  -29.4230   20.8090 C   0  0  0  0  0  0  0  0  0  0  0  0
  -27.3400  -28.6210   20.8470 C   0  0  0  0  0  3  0  0  0  0  0  0
  -26.1830  -26.8850   19.6150 C   0  0  0  0  0  3  0  0  0  0  0  0
  -25.0150  -27.6650   19.5940 C   0  0  0  0  0  3  0  0  0  0  0  0
  -23.7600  -29.8040   20.2020 C   0  0  0  0  0  2  0  0  0  0  0  0
  -24.7660  -31.0940   22.1250 N   0  0  0  0  0  0  0  0  0  0  0  0
  -23.5770  -32.1900   23.7220 O   0  0  0  0  0  0  0  0  0  0  0  0
  -22.8440  -29.4720   22.5320 C   0  0  0  0  0  0  0  0  0  0  0  0
  -21.5250  -29.2600   22.3710 N   0  0  0  0  0  0  0  0  0  0  0  0
  -23.5130  -28.8810   23.3830 O   0  0  0  0  0  0  0  0  0  0  0  0
  -21.0460  -29.7940   21.6610 H   0  0  0  0  0  0  0  0  0  0  0  0
  -18.1710  -27.9620   22.7810 C   0  0  0  0  0  0  0  0  0  0  0  0
  -20.7060  -28.3210   23.1420 C   0  0  0  0  0  3  0  0  0  0  0  0
  -20.8810  -26.8750   22.6250 C   0  0  0  0  0  2  0  0  0  0  0  0
  -19.8320  -26.4770   21.5830 C   0  0  0  0  0  2  0  0  0  0  0  0
  -18.4200  -26.5970   22.1610 C   0  0  0  0  0  2  0  0  0  0  0  0
  -19.2440  -28.7770   23.2270 C   0  0  0  0  0  0  0  0  0  0  0  0
  -18.9550  -30.0500   23.7670 C   0  0  0  0  0  3  0  0  0  0  0  0
  -17.6280  -30.5080   23.8640 C   0  0  0  0  0  3  0  0  0  0  0  0
  -16.5700  -29.6920   23.4290 C   0  0  0  0  0  3  0  0  0  0  0  0
  -16.8420  -28.4200   22.8930 C   0  0  0  0  0  3  0  0  0  0  0  0
  -25.9370  -32.5750   23.8460 C   0  0  0  0  0  3  0  0  0  0  0  0
  -26.4480  -31.8140   25.1310 C   0  0  1  0  0  0  0  0  0  0  0  0
  -25.3450  -31.5560   26.1860 C   0  0  0  0  0  1  0  0  0  0  0  0
  -27.0660  -30.4500   24.7460 C   0  0  0  0  0  1  0  0  0  0  0  0
  -27.5770  -32.6280   25.8060 C   0  0  0  0  0  1  0  0  0  0  0  0
  -25.5980  -33.9690   24.1720 N   0  0  0  0  0  0  0  0  0  0  0  0
  -25.9130  -35.0230   23.4080 C   0  0  0  0  0  0  0  0  0  0  0  0
  -26.5890  -34.9250   22.3800 O   0  0  0  0  0  0  0  0  0  0  0  0
  -25.0050  -34.1150   24.9750 H   0  0  0  0  0  0  0  0  0  0  0  0
  -24.1670  -36.7890   23.0100 C   0  0  0  0  0  1  0  0  0  0  0  0
  -25.3960  -36.4050   23.8510 C   0  0  0  0  0  3  0  0  0  0  0  0
  -27.5020  -37.3240   24.7170 C   0  0  0  0  0  1  0  0  0  0  0  0
  -26.4150  -37.4720   23.7530 N   0  0  0  0  0  0  0  0  0  0  0  0
  -25.9930  -38.3870   23.8830 H   0  0  0  0  0  0  0  0  0  0  0  0
  1  4  1  0
  1 49  1  0
  2  4  2  0
  2  5  1  0
  3  6  1  0
  4  7  1  0
  5  3  2  0
  6  8  1  0
  7  9  1  0
  7  6  2  0
 10 18  1  0
 11 16  1  0
 12 13  1  0
 12 11  1  0
 14 13  1  0
 14 23  1  0
 14 15  1  0
 16 10  1  0
 16 15  1  0
 17 10  2  0
 18  5  1  0
 19 18  1  0
 20 21  2  0
 21 40  1  0
 22 21  1  0
 22 25  1  0
 23 24  1  0
 23 20  1  0
 24 22  2  0
 25 26  1  0
 26 27  2  0
 28 31  1  0
 28 27  1  0
 29 28  2  0
 30 29  1  0
 30 25  2  0
 31 32  1  0
 32 33  1  0
 33 34  2  0
 35 34  1  0
 35 39  1  0
 36 35  2  0
 37 32  2  0
 37 36  1  0
 38 37  1  0
 40 41  1  0
 41 44  1  0
 41 43  1  0
 42 40  2  0
 45 20  1  0
 45 46  1  0
 47 45  1  0
 49 48  1  0
 49 50  1  1
 51 52  2  0
 51 49  1  0
 53 52  1  0
 54 65  2  0
 55 53  1  0
 55 60  1  0
 56 64  1  0
 56 66  1  0
 57 63  1  0
 57 59  1  0
 58 64  1  0
 59 60  2  0
 59 58  1  0
 61 55  2  0
 62 61  1  0
 62 57  2  0
 63 56  1  0
 64 54  1  0
 66 68  2  0
 67 66  1  0
 69 67  1  0
 70 79  2  0
 70 75  1  0
 71 67  1  0
 71 75  1  0
 72 71  1  0
 73 74  1  0
 73 72  1  0
 74 70  1  0
 75 76  2  0
 76 77  1  0
 78 77  2  0
 79 78  1  0
 80 54  1  0
 80 85  1  0
 80 81  1  0
 81 84  1  1
 81 82  1  0
 83 81  1  0
 85 88  1  0
 86 90  1  0
 86 85  1  0
 87 86  2  0
 90 89  1  0
 92 90  1  0
 92 93  1  0
 92 91  1  0
M  ISO  4  10 100  18 100  52 101  53 101
M  END
>  <TORSDO>  (70) 
F 20

>  <SCORE>  (70) 
-13.510

>  <name>  (70) 
69

>  <ligand_id>  (70) 
69

>  <original_smiles>  (70) 
[H]c1c([H])c([H])c2c(c1[H])C([H])([H])C([H])([H])C([H])([H])C2([H])N([H])C(=O)C1([H])N(C(=O)C([H])(N([H])C(=O)C([H])(N([H])C([H])([H])[H])C([H])([H])[H])C(C([H])([H])[H])(C([H])([H])[H])C([H])([H])[H])C([H])([H])c2c([H])c(OC([H])([H])C([H])([H])[N+]([H])(C([H])([H])[H])C([H])([H])c3c([H])c(N([H])C(=O)N4C([H])([H])C([H])([H])C([H])([H])C([H])(n5nc(-c6c([H])c([H])c(Oc7c([H])c([H])c(F)c([H])c7F)c([H])c6[H])c(C(=O)N([H])[H])c5N([H])[H])C4([H])[H])c([H])c(F)c3F)c([H])c([H])c2C1([H])[H]

>  <smiles>  (70) 
[H]c1c([H])c([H])c2c(c1[H])C([H])([H])C([H])([H])C([H])([H])C2([H])N([H])C(=O)C1([H])N(C(=O)C([H])(N([H])C(=O)C([H])(N([H])C([H])([H])[H])C([H])([H])[H])C(C([H])([H])[H])(C([H])([H])[H])C([H])([H])[H])C([H])([H])c2c([H])c(OC([H])([H])C([H])([H])[N+]([H])(C([H])([H])[H])C([H])([H])c3c([H])c(N([H])C(=O)N4C([H])([H])C([H])([H])C([H])([H])C([H])(n5nc(-c6c([H])c([H])c(Oc7c([H])c([H])c(F)c([H])c7F)c([H])c6[H])c(C(=O)N([H])[H])c5N([H])[H])C4([H])[H])c([H])c(F)c3F)c([H])c([H])c2C1([H])[H]

$$$$
70:0:0
     RDKit          3D

 97105  0  0  1  0  0  0  0  0999 V2000
  -29.2370  -19.9190   19.7790 C   0  0  0  0  0  2  0  0  0  0  0  0
  -28.6230  -20.2650   17.4270 C   0  0  0  0  0  2  0  0  0  0  0  0
  -29.1010  -21.0110   18.6950 C   0  0  0  0  0  3  0  0  0  0  0  0
  -29.3690  -18.6340   18.9600 C   0  0  0  0  0  3  0  0  0  0  0  0
  -28.4670  -18.8630   17.8270 N   0  0  0  0  0  4  0  0  0  0  0  0
  -28.6630  -18.2050   17.0900 H   0  0  0  0  0  0  0  0  0  0  0  0
  -27.5250  -18.7060   18.1430 H   0  0  0  0  0  0  0  0  0  0  0  0
  -28.1300  -22.0340   19.0660 N   0  0  0  0  0  0  0  0  0  0  0  0
  -27.8560  -22.5320   18.2230 H   0  0  0  0  0  0  0  0  0  0  0  0
  -28.6890  -23.0220   19.9900 C   0  0  0  0  0  2  0  0  0  0  0  0
  -27.8890  -24.3360   19.8750 C   0  0  0  0  0  3  0  0  0  0  0  0
  -26.6150  -24.0700   20.1750 F   0  0  0  0  0  0  0  0  0  0  0  0
  -28.4080  -25.4890   20.7660 C   0  0  0  0  0  2  0  0  0  0  0  0
  -28.3950  -26.7760   20.1280 O   0  0  0  0  0  0  0  0  0  0  0  0
  -24.5810  -31.8910   23.2700 C   0  0  0  0  0  0  0  0  0  0  0  0
  -27.2130  -27.4790   20.1620 C   0  0  0  0  0  0  0  0  0  0  0  0
  -23.3670  -30.5030   21.6200 C   0  0  0  0  0  3  0  0  0  0  0  0
  -24.8160  -28.9750   20.1850 C   0  0  0  0  0  0  0  0  0  0  0  0
  -25.8900  -30.8670   21.4130 C   0  0  0  0  0  2  0  0  0  0  0  0
  -25.9740  -29.4990   20.7720 C   0  0  0  0  0  0  0  0  0  0  0  0
  -27.1760  -28.7580   20.7600 C   0  0  0  0  0  3  0  0  0  0  0  0
  -26.0420  -26.9760   19.5540 C   0  0  0  0  0  3  0  0  0  0  0  0
  -24.8430  -27.7120   19.5740 C   0  0  0  0  0  3  0  0  0  0  0  0
  -23.5710  -29.8300   20.2370 C   0  0  0  0  0  2  0  0  0  0  0  0
  -24.6310  -31.1000   22.1600 N   0  0  0  0  0  0  0  0  0  0  0  0
  -23.5020  -32.1590   23.8160 O   0  0  0  0  0  0  0  0  0  0  0  0
  -22.7200  -29.4750   22.5750 C   0  0  0  0  0  0  0  0  0  0  0  0
  -21.3970  -29.2880   22.4440 N   0  0  0  0  0  0  0  0  0  0  0  0
  -23.4050  -28.8470   23.3880 O   0  0  0  0  0  0  0  0  0  0  0  0
  -20.9070  -29.8430   21.7570 H   0  0  0  0  0  0  0  0  0  0  0  0
  -18.0260  -28.0860   22.9280 C   0  0  0  0  0  0  0  0  0  0  0  0
  -20.5810  -28.3450   23.2080 C   0  0  0  0  0  3  0  0  0  0  0  0
  -20.6870  -26.9180   22.6220 C   0  0  0  0  0  2  0  0  0  0  0  0
  -19.5880  -26.6020   21.6030 C   0  0  0  0  0  2  0  0  0  0  0  0
  -18.2050  -26.7420   22.2450 C   0  0  0  0  0  2  0  0  0  0  0  0
  -19.1430  -28.8470   23.3660 C   0  0  0  0  0  0  0  0  0  0  0  0
  -18.9220  -30.1060   23.9640 C   0  0  0  0  0  3  0  0  0  0  0  0
  -17.6160  -30.6070   24.1270 C   0  0  0  0  0  3  0  0  0  0  0  0
  -16.5130  -29.8430   23.7030 C   0  0  0  0  0  3  0  0  0  0  0  0
  -16.7180  -28.5840   23.1110 C   0  0  0  0  0  3  0  0  0  0  0  0
  -25.8700  -32.5130   23.8900 C   0  0  0  0  0  3  0  0  0  0  0  0
  -25.5740  -33.9160   24.2060 N   0  0  0  0  0  0  0  0  0  0  0  0
  -25.9240  -34.9570   23.4390 C   0  0  0  0  0  0  0  0  0  0  0  0
  -26.6000  -34.8350   22.4130 O   0  0  0  0  0  0  0  0  0  0  0  0
  -24.9700  -34.0830   24.9980 H   0  0  0  0  0  0  0  0  0  0  0  0
  -24.2210  -36.7630   23.0440 C   0  0  0  0  0  1  0  0  0  0  0  0
  -25.4470  -36.3550   23.8770 C   0  0  0  0  0  3  0  0  0  0  0  0
  -27.5810  -37.2230   24.7280 C   0  0  0  0  0  1  0  0  0  0  0  0
  -26.4940  -37.3930   23.7670 N   0  0  0  0  0  0  0  0  0  0  0  0
  -26.0970  -38.3190   23.8990 H   0  0  0  0  0  0  0  0  0  0  0  0
  -26.3750  -31.7450   25.1710 C   0  0  1  0  0  0  0  0  0  0  0  0
  -25.2770  -31.5280   26.2370 C   0  0  0  0  0  1  0  0  0  0  0  0
  -26.9410  -30.3590   24.7860 C   0  0  0  0  0  1  0  0  0  0  0  0
  -27.5370  -32.5280   25.8300 C   0  0  0  0  0  1  0  0  0  0  0  0
  -29.0270  -17.2980   19.6540 C   0  0  0  0  0  3  0  0  0  0  0  0
  -29.0460  -16.2880   18.6010 N   0  0  0  0  0  0  0  0  0  0  0  0
  -29.9880  -16.2150   18.2310 H   0  0  0  0  0  0  0  0  0  0  0  0
  -28.8740  -15.3800   19.0060 H   0  0  0  0  0  0  0  0  0  0  0  0
  -30.0150  -16.8870   20.7770 C   0  0  0  0  0  2  0  0  0  0  0  0
  -30.6460  -14.4720   20.7290 C   0  0  0  0  0  0  0  0  0  0  0  0
  -30.4150  -12.2990   19.6050 C   0  0  0  0  0  2  0  0  0  0  0  0
  -29.5290  -12.5200   18.3600 C   0  0  0  0  0  2  0  0  0  0  0  0
  -28.0300  -12.4160   18.7160 C   0  0  0  0  0  2  0  0  0  0  0  0
  -27.6460  -13.2310   19.9810 C   0  0  0  0  0  3  0  0  0  0  0  0
  -28.6560  -12.9880   21.1270 C   0  0  0  0  0  2  0  0  0  0  0  0
  -30.0050  -13.2820   20.6150 N   0  0  0  0  0  0  0  0  0  0  0  0
  -31.7750  -14.6870   20.2840 O   0  0  0  0  0  0  0  0  0  0  0  0
  -29.8490  -15.4720   21.1320 N   0  0  0  0  0  0  0  0  0  0  0  0
  -28.9550  -15.1980   21.5080 H   0  0  0  0  0  0  0  0  0  0  0  0
  -25.2190  -13.8390   20.5820 C   0  0  0  0  0  0  0  0  0  0  0  0
  -24.1410  -13.0650   20.9250 C   0  0  0  0  0  0  0  0  0  0  0  0
  -24.6100  -11.7160   20.9220 C   0  0  0  0  0  0  0  0  0  0  0  0
  -26.2750  -12.9600   20.4020 N   0  0  0  0  0  0  0  0  0  0  0  0
  -25.9100  -11.6800   20.6620 N   0  0  0  0  0  0  0  0  0  0  0  0
  -23.8830  -10.4520   21.0960 C   0  0  0  0  0  0  0  0  0  0  0  0
  -24.2940   -9.4910   22.0460 C   0  0  0  0  0  3  0  0  0  0  0  0
  -23.5700   -8.2900   22.2100 C   0  0  0  0  0  3  0  0  0  0  0  0
  -22.4230   -8.0420   21.4190 C   0  0  0  0  0  0  0  0  0  0  0  0
  -22.0320   -8.9910   20.4570 C   0  0  0  0  0  3  0  0  0  0  0  0
  -22.7560  -10.1830   20.2930 C   0  0  0  0  0  3  0  0  0  0  0  0
  -21.6730   -6.8940   21.4890 O   0  0  0  0  0  0  0  0  0  0  0  0
  -21.5920   -6.1550   22.6430 C   0  0  0  0  0  0  0  0  0  0  0  0
  -21.1150   -6.7090   23.8500 C   0  0  0  0  0  3  0  0  0  0  0  0
  -20.9820   -5.8960   24.9940 C   0  0  0  0  0  3  0  0  0  0  0  0
  -21.3180   -4.5300   24.9300 C   0  0  0  0  0  0  0  0  0  0  0  0
  -21.7890   -3.9770   23.7250 C   0  0  0  0  0  3  0  0  0  0  0  0
  -21.9220   -4.7860   22.5850 C   0  0  0  0  0  0  0  0  0  0  0  0
  -22.3570   -4.2430   21.4210 F   0  0  0  0  0  0  0  0  0  0  0  0
  -21.1840   -3.7450   26.0240 F   0  0  0  0  0  0  0  0  0  0  0  0
  -22.7330  -13.5370   21.1460 C   0  0  0  0  0  0  0  0  0  0  0  0
  -21.9830  -12.8440   21.9930 N   0  0  0  0  0  0  0  0  0  0  0  0
  -22.3080  -14.5560   20.6040 O   0  0  0  0  0  0  0  0  0  0  0  0
  -22.3400  -12.0170   22.4510 H   0  0  0  0  0  0  0  0  0  0  0  0
  -21.0390  -13.1450   22.1900 H   0  0  0  0  0  0  0  0  0  0  0  0
  -25.3790  -15.2090   20.3930 N   0  0  0  0  0  0  0  0  0  0  0  0
  -24.5890  -15.8440   20.4310 H   0  0  0  0  0  0  0  0  0  0  0  0
  -26.2160  -15.6430   20.0260 H   0  0  0  0  0  0  0  0  0  0  0  0
  2  5  1  0
  2  3  1  0
  3  8  1  0
  3  1  1  0
  4 55  1  0
  4  1  1  0
  5  7  1  0
  5  4  1  0
  6  5  1  0
  8 10  1  0
  9  8  1  0
 11 10  1  0
 11 12  1  0
 11 13  1  0
 14 16  1  0
 14 13  1  0
 15 26  2  0
 16 21  1  0
 17 25  1  0
 17 27  1  0
 18 24  1  0
 18 20  1  0
 19 25  1  0
 20 19  1  0
 21 20  2  0
 22 23  1  0
 22 16  2  0
 23 18  2  0
 24 17  1  0
 25 15  1  0
 27 29  2  0
 28 27  1  0
 30 28  1  0
 31 40  2  0
 31 36  1  0
 32 28  1  0
 32 36  1  0
 33 32  1  0
 34 35  1  0
 34 33  1  0
 35 31  1  0
 36 37  2  0
 37 38  1  0
 39 38  2  0
 40 39  1  0
 41 15  1  0
 41 42  1  0
 41 51  1  0
 42 45  1  0
 43 47  1  0
 43 42  1  0
 44 43  2  0
 47 46  1  0
 49 47  1  0
 49 50  1  0
 49 48  1  0
 51 54  1  1
 51 52  1  0
 53 51  1  0
 55 59  1  0
 56 58  1  0
 56 55  1  0
 57 56  1  0
 59 68  1  0
 60 68  1  0
 61 66  1  0
 62 63  1  0
 62 61  1  0
 64 63  1  0
 64 73  1  0
 64 65  1  0
 66 60  1  0
 66 65  1  0
 67 60  2  0
 68 69  1  0
 70 71  2  0
 71 90  1  0
 72 71  1  0
 72 75  1  0
 73 70  1  0
 73 74  1  0
 74 72  2  0
 75 76  1  0
 76 77  2  0
 78 81  1  0
 78 77  1  0
 79 78  2  0
 80 79  1  0
 80 75  2  0
 81 82  1  0
 82 83  1  0
 83 84  2  0
 85 84  1  0
 85 89  1  0
 86 85  2  0
 87 82  2  0
 87 86  1  0
 88 87  1  0
 90 91  1  0
 91 94  1  0
 91 93  1  0
 92 90  2  0
 95 96  1  0
 95 70  1  0
 97 95  1  0
M  ISO  4  13 101  14 101  60 100  68 100
M  END
>  <TORSDO>  (71) 
F 23

>  <SCORE>  (71) 
-13.005

>  <name>  (71) 
70

>  <ligand_id>  (71) 
70

>  <original_smiles>  (71) 
[H]c1c([H])c([H])c2c(c1[H])C([H])([H])C([H])([H])C([H])([H])C2([H])N([H])C(=O)C1([H])N(C(=O)C([H])(N([H])C(=O)C([H])(N([H])C([H])([H])[H])C([H])([H])[H])C(C([H])([H])[H])(C([H])([H])[H])C([H])([H])[H])C([H])([H])c2c([H])c(OC([H])([H])C([H])(F)C([H])([H])N([H])C3([H])C([H])([H])C([H])(C([H])(N([H])[H])C([H])([H])N([H])C(=O)N4C([H])([H])C([H])([H])C([H])([H])C([H])(n5nc(-c6c([H])c([H])c(Oc7c([H])c([H])c(F)c([H])c7F)c([H])c6[H])c(C(=O)N([H])[H])c5N([H])[H])C4([H])[H])[N+]([H])([H])C3([H])[H])c([H])c([H])c2C1([H])[H]

>  <smiles>  (71) 
[H]c1c([H])c([H])c2c(c1[H])C([H])([H])C([H])([H])C([H])([H])C2([H])N([H])C(=O)C1([H])N(C(=O)C([H])(N([H])C(=O)C([H])(N([H])C([H])([H])[H])C([H])([H])[H])C(C([H])([H])[H])(C([H])([H])[H])C([H])([H])[H])C([H])([H])c2c([H])c(OC([H])([H])C([H])(F)C([H])([H])N([H])C3([H])C([H])([H])C([H])(C([H])(N([H])[H])C([H])([H])N([H])C(=O)N4C([H])([H])C([H])([H])C([H])([H])C([H])(n5nc(-c6c([H])c([H])c(Oc7c([H])c([H])c(F)c([H])c7F)c([H])c6[H])c(C(=O)N([H])[H])c5N([H])[H])C4([H])[H])[N+]([H])([H])C3([H])[H])c([H])c([H])c2C1([H])[H]

$$$$
71:0:0
     RDKit          3D

 94103  0  0  1  0  0  0  0  0999 V2000
  -30.2130  -21.0700   22.1990 C   0  0  0  0  0  2  0  0  0  0  0  0
  -30.1410  -22.6070   22.3070 C   0  0  0  0  0  2  0  0  0  0  0  0
  -28.8490  -21.9080   20.4260 C   0  0  0  0  0  2  0  0  0  0  0  0
  -29.9430  -20.8440   20.7150 C   0  0  0  0  0  3  0  0  0  0  0  0
  -29.1120  -23.0650   21.3320 N   0  0  2  0  0  4  0  0  0  0  0  0
  -28.2610  -23.1610   21.8700 H   0  0  0  0  0  0  0  0  0  0  0  0
  -29.2360  -19.2860   18.8660 C   0  0  0  0  0  3  0  0  0  0  0  0
  -28.9940  -18.0260   18.3010 C   0  0  0  0  0  3  0  0  0  0  0  0
  -29.8670  -18.2180   20.9730 C   0  0  0  0  0  3  0  0  0  0  0  0
  -29.6630  -19.4100   20.2060 C   0  0  0  0  0  0  0  0  0  0  0  0
  -29.6390  -16.9280   20.3970 C   0  0  0  0  0  0  0  0  0  0  0  0
  -29.1780  -16.8610   19.0600 C   0  0  0  0  0  0  0  0  0  0  0  0
  -28.8820  -15.6740   18.4900 F   0  0  0  0  0  0  0  0  0  0  0  0
  -30.5610  -14.6680   20.7540 C   0  0  0  0  0  0  0  0  0  0  0  0
  -30.4220  -12.4310   19.7220 C   0  0  0  0  0  2  0  0  0  0  0  0
  -29.5250  -12.5200   18.4680 C   0  0  0  0  0  2  0  0  0  0  0  0
  -28.0350  -12.3750   18.8410 C   0  0  0  0  0  2  0  0  0  0  0  0
  -27.6140  -13.2340   20.0670 C   0  0  0  0  0  3  0  0  0  0  0  0
  -28.6360  -13.1020   21.2190 C   0  0  0  0  0  2  0  0  0  0  0  0
  -29.9640  -13.4440   20.6880 N   0  0  0  0  0  0  0  0  0  0  0  0
  -31.7120  -14.8650   20.3570 O   0  0  0  0  0  0  0  0  0  0  0  0
  -29.7740  -15.7030   21.1420 N   0  0  0  0  0  0  0  0  0  0  0  0
  -28.9220  -15.4000   21.5880 H   0  0  0  0  0  0  0  0  0  0  0  0
  -25.1790  -13.7640   20.7110 C   0  0  0  0  0  0  0  0  0  0  0  0
  -24.1240  -12.9590   21.0430 C   0  0  0  0  0  0  0  0  0  0  0  0
  -24.6250  -11.6210   21.0150 C   0  0  0  0  0  0  0  0  0  0  0  0
  -26.2560  -12.9150   20.5050 N   0  0  0  0  0  0  0  0  0  0  0  0
  -25.9250  -11.6210   20.7490 N   0  0  0  0  0  0  0  0  0  0  0  0
  -23.9320  -10.3360   21.1760 C   0  0  0  0  0  0  0  0  0  0  0  0
  -24.3670   -9.3750   22.1140 C   0  0  0  0  0  3  0  0  0  0  0  0
  -23.6730   -8.1540   22.2630 C   0  0  0  0  0  3  0  0  0  0  0  0
  -22.5300   -7.8860   21.4720 C   0  0  0  0  0  0  0  0  0  0  0  0
  -22.1160   -8.8370   20.5220 C   0  0  0  0  0  3  0  0  0  0  0  0
  -22.8120  -10.0490   20.3720 C   0  0  0  0  0  3  0  0  0  0  0  0
  -21.8090   -6.7190   21.5260 O   0  0  0  0  0  0  0  0  0  0  0  0
  -21.7500   -5.9630   22.6690 C   0  0  0  0  0  0  0  0  0  0  0  0
  -21.2340   -6.4800   23.8770 C   0  0  0  0  0  3  0  0  0  0  0  0
  -21.1260   -5.6480   25.0090 C   0  0  0  0  0  3  0  0  0  0  0  0
  -21.5260   -4.3000   24.9340 C   0  0  0  0  0  0  0  0  0  0  0  0
  -22.0330   -3.7820   23.7300 C   0  0  0  0  0  3  0  0  0  0  0  0
  -22.1420   -4.6110   22.5990 C   0  0  0  0  0  0  0  0  0  0  0  0
  -22.6140   -4.1030   21.4350 F   0  0  0  0  0  0  0  0  0  0  0  0
  -21.4170   -3.4990   26.0200 F   0  0  0  0  0  0  0  0  0  0  0  0
  -22.7060  -13.3930   21.2810 C   0  0  0  0  0  0  0  0  0  0  0  0
  -21.9730  -12.6640   22.1160 N   0  0  0  0  0  0  0  0  0  0  0  0
  -22.2530  -14.4110   20.7620 O   0  0  0  0  0  0  0  0  0  0  0  0
  -22.3510  -11.8400   22.5580 H   0  0  0  0  0  0  0  0  0  0  0  0
  -21.0220  -12.9380   22.3190 H   0  0  0  0  0  0  0  0  0  0  0  0
  -25.3130  -15.1390   20.5460 N   0  0  0  0  0  0  0  0  0  0  0  0
  -24.5350  -15.7850   20.6400 H   0  0  0  0  0  0  0  0  0  0  0  0
  -26.1640  -15.5890   20.2340 H   0  0  0  0  0  0  0  0  0  0  0  0
  -29.3550  -24.4070   20.6830 C   0  0  0  0  0  2  0  0  0  0  0  0
  -28.2030  -25.4240   20.9380 C   0  0  0  0  0  2  0  0  0  0  0  0
  -28.3740  -26.7290   20.3210 O   0  0  0  0  0  0  0  0  0  0  0  0
  -24.5320  -31.9760   23.2810 C   0  0  0  0  0  0  0  0  0  0  0  0
  -27.2260  -27.5030   20.2690 C   0  0  0  0  0  0  0  0  0  0  0  0
  -23.3510  -30.5600   21.6320 C   0  0  0  0  0  3  0  0  0  0  0  0
  -24.8300  -29.0230   20.2300 C   0  0  0  0  0  0  0  0  0  0  0  0
  -25.8800  -30.9260   21.4630 C   0  0  0  0  0  2  0  0  0  0  0  0
  -25.9810  -29.5490   20.8300 C   0  0  0  0  0  0  0  0  0  0  0  0
  -27.1850  -28.7990   20.8430 C   0  0  0  0  0  3  0  0  0  0  0  0
  -26.0600  -27.0080   19.6420 C   0  0  0  0  0  3  0  0  0  0  0  0
  -24.8680  -27.7540   19.6280 C   0  0  0  0  0  3  0  0  0  0  0  0
  -23.5830  -29.8760   20.2590 C   0  0  0  0  0  2  0  0  0  0  0  0
  -24.6050  -31.1710   22.1830 N   0  0  0  0  0  0  0  0  0  0  0  0
  -23.4430  -32.2450   23.8070 O   0  0  0  0  0  0  0  0  0  0  0  0
  -22.6940  -29.5420   22.5920 C   0  0  0  0  0  0  0  0  0  0  0  0
  -21.3740  -29.3430   22.4420 N   0  0  0  0  0  0  0  0  0  0  0  0
  -23.3690  -28.9310   23.4250 O   0  0  0  0  0  0  0  0  0  0  0  0
  -20.8930  -29.8870   21.7390 H   0  0  0  0  0  0  0  0  0  0  0  0
  -18.0000  -28.1210   22.8890 C   0  0  0  0  0  0  0  0  0  0  0  0
  -20.5510  -28.4030   23.2030 C   0  0  0  0  0  3  0  0  0  0  0  0
  -20.6760  -26.9700   22.6370 C   0  0  0  0  0  2  0  0  0  0  0  0
  -19.5940  -26.6310   21.6070 C   0  0  0  0  0  2  0  0  0  0  0  0
  -18.2000  -26.7680   22.2260 C   0  0  0  0  0  2  0  0  0  0  0  0
  -19.1040  -28.8950   23.3320 C   0  0  0  0  0  0  0  0  0  0  0  0
  -18.8650  -30.1610   23.9090 C   0  0  0  0  0  3  0  0  0  0  0  0
  -17.5530  -30.6520   24.0510 C   0  0  0  0  0  3  0  0  0  0  0  0
  -16.4630  -29.8740   23.6250 C   0  0  0  0  0  3  0  0  0  0  0  0
  -16.6870  -28.6120   23.0480 C   0  0  0  0  0  3  0  0  0  0  0  0
  -25.8090  -32.6160   23.9130 C   0  0  0  0  0  3  0  0  0  0  0  0
  -26.3020  -31.8660   25.2110 C   0  0  1  0  0  0  0  0  0  0  0  0
  -25.1890  -31.6410   26.2600 C   0  0  0  0  0  1  0  0  0  0  0  0
  -26.8980  -30.4850   24.8510 C   0  0  0  0  0  1  0  0  0  0  0  0
  -27.4370  -32.6730   25.8830 C   0  0  0  0  0  1  0  0  0  0  0  0
  -25.5000  -34.0210   24.2110 N   0  0  0  0  0  0  0  0  0  0  0  0
  -25.8510  -35.0570   23.4370 C   0  0  0  0  0  0  0  0  0  0  0  0
  -26.5410  -34.9300   22.4220 O   0  0  0  0  0  0  0  0  0  0  0  0
  -24.8910  -34.1940   24.9980 H   0  0  0  0  0  0  0  0  0  0  0  0
  -24.1450  -36.8510   23.0030 C   0  0  0  0  0  1  0  0  0  0  0  0
  -25.3590  -36.4550   23.8570 C   0  0  0  0  0  3  0  0  0  0  0  0
  -27.4720  -37.3420   24.7400 C   0  0  0  0  0  1  0  0  0  0  0  0
  -26.4010  -37.5000   23.7580 N   0  0  0  0  0  0  0  0  0  0  0  0
  -25.9960  -38.4240   23.8740 H   0  0  0  0  0  0  0  0  0  0  0  0
  1  2  1  0
  3  4  1  0
  3  5  1  0
  4 10  1  0
  4  1  1  0
  5  6  1  1
  5  2  1  0
  7 10  1  0
  8  7  2  0
  8 12  1  0
 10  9  2  0
 11  9  1  0
 11 22  1  0
 12 11  2  0
 13 12  1  0
 14 22  1  0
 15 20  1  0
 16 17  1  0
 16 15  1  0
 18 17  1  0
 18 27  1  0
 18 19  1  0
 20 14  1  0
 20 19  1  0
 21 14  2  0
 22 23  1  0
 24 25  2  0
 25 44  1  0
 26 25  1  0
 26 29  1  0
 27 24  1  0
 27 28  1  0
 28 26  2  0
 29 30  1  0
 30 31  2  0
 32 35  1  0
 32 31  1  0
 33 32  2  0
 34 33  1  0
 34 29  2  0
 35 36  1  0
 36 37  1  0
 37 38  2  0
 39 38  1  0
 39 43  1  0
 40 39  2  0
 41 36  2  0
 41 40  1  0
 42 41  1  0
 44 45  1  0
 45 48  1  0
 45 47  1  0
 46 44  2  0
 49 50  1  0
 49 24  1  0
 51 49  1  0
 52 53  1  0
 52  5  1  0
 54 53  1  0
 55 66  2  0
 56 54  1  0
 56 61  1  0
 57 65  1  0
 57 67  1  0
 58 64  1  0
 58 60  1  0
 59 65  1  0
 60 61  2  0
 60 59  1  0
 62 56  2  0
 63 62  1  0
 63 58  2  0
 64 57  1  0
 65 55  1  0
 67 69  2  0
 68 67  1  0
 70 68  1  0
 71 80  2  0
 71 76  1  0
 72 68  1  0
 72 76  1  0
 73 72  1  0
 74 75  1  0
 74 73  1  0
 75 71  1  0
 76 77  2  0
 77 78  1  0
 79 78  2  0
 80 79  1  0
 81 55  1  0
 81 86  1  0
 81 82  1  0
 82 85  1  1
 82 83  1  0
 84 82  1  0
 86 89  1  0
 87 91  1  0
 87 86  1  0
 88 87  2  0
 91 90  1  0
 93 91  1  0
 93 94  1  0
 93 92  1  0
M  ISO  4  14 100  22 100  53 101  54 101
M  END
>  <TORSDO>  (72) 
F 19

>  <SCORE>  (72) 
-14.247

>  <name>  (72) 
71

>  <ligand_id>  (72) 
71

>  <original_smiles>  (72) 
[H]c1c([H])c([H])c2c(c1[H])C([H])([H])C([H])([H])C([H])([H])C2([H])N([H])C(=O)C1([H])N(C(=O)C([H])(N([H])C(=O)C([H])(N([H])C([H])([H])[H])C([H])([H])[H])C(C([H])([H])[H])(C([H])([H])[H])C([H])([H])[H])C([H])([H])c2c([H])c(OC([H])([H])C([H])([H])[N+]3([H])C([H])([H])C([H])([H])C([H])(c4c([H])c([H])c(F)c(N([H])C(=O)N5C([H])([H])C([H])([H])C([H])([H])C([H])(n6nc(-c7c([H])c([H])c(Oc8c([H])c([H])c(F)c([H])c8F)c([H])c7[H])c(C(=O)N([H])[H])c6N([H])[H])C5([H])[H])c4[H])C3([H])[H])c([H])c([H])c2C1([H])[H]

>  <smiles>  (72) 
[H]c1c([H])c([H])c2c(c1[H])C([H])([H])C([H])([H])C([H])([H])C2([H])N([H])C(=O)C1([H])N(C(=O)C([H])(N([H])C(=O)C([H])(N([H])C([H])([H])[H])C([H])([H])[H])C(C([H])([H])[H])(C([H])([H])[H])C([H])([H])[H])C([H])([H])c2c([H])c(OC([H])([H])C([H])([H])[N+]3([H])C([H])([H])C([H])([H])C([H])(c4c([H])c([H])c(F)c(N([H])C(=O)N5C([H])([H])C([H])([H])C([H])([H])C([H])(n6nc(-c7c([H])c([H])c(Oc8c([H])c([H])c(F)c([H])c8F)c([H])c7[H])c(C(=O)N([H])[H])c6N([H])[H])C5([H])[H])c4[H])C3([H])[H])c([H])c([H])c2C1([H])[H]

$$$$
72:0:0
     RDKit          3D

 93101  0  0  1  0  0  0  0  0999 V2000
  -28.9340  -23.0700   20.1210 C   0  0  0  0  0  0  0  0  0  0  0  0
  -28.7180  -21.7610   20.4140 N   0  0  0  0  0  0  0  0  0  0  0  0
  -29.8580  -23.4310   19.3900 O   0  0  0  0  0  0  0  0  0  0  0  0
  -27.9570  -21.5590   21.0490 H   0  0  0  0  0  0  0  0  0  0  0  0
  -29.2860  -20.5880   19.7000 C   0  0  0  0  0  2  0  0  0  0  0  0
  -31.2760  -17.2930   21.8190 C   0  0  0  0  0  3  0  0  0  0  0  0
  -31.6160  -18.6360   22.0910 C   0  0  0  0  0  3  0  0  0  0  0  0
  -29.5590  -18.0740   20.2770 C   0  0  0  0  0  3  0  0  0  0  0  0
  -29.9170  -19.4350   20.5210 C   0  0  0  0  0  0  0  0  0  0  0  0
  -30.2440  -16.9910   20.9040 C   0  0  0  0  0  0  0  0  0  0  0  0
  -30.9520  -19.6980   21.4450 C   0  0  0  0  0  0  0  0  0  0  0  0
  -31.3380  -20.9710   21.6990 F   0  0  0  0  0  0  0  0  0  0  0  0
  -30.6070  -14.5700   20.2960 C   0  0  0  0  0  0  0  0  0  0  0  0
  -30.3100  -12.3900   19.1590 C   0  0  0  0  0  2  0  0  0  0  0  0
  -29.3310  -12.5630   17.9790 C   0  0  0  0  0  2  0  0  0  0  0  0
  -27.8700  -12.4110   18.4530 C   0  0  0  0  0  2  0  0  0  0  0  0
  -27.5560  -13.2560   19.7160 C   0  0  0  0  0  3  0  0  0  0  0  0
  -28.6460  -13.0620   20.7950 C   0  0  0  0  0  2  0  0  0  0  0  0
  -29.9460  -13.3840   20.1830 N   0  0  0  0  0  0  0  0  0  0  0  0
  -31.7580  -14.7270   19.8760 O   0  0  0  0  0  0  0  0  0  0  0  0
  -29.8450  -15.6250   20.6810 N   0  0  0  0  0  0  0  0  0  0  0  0
  -28.8620  -15.4260   20.7860 H   0  0  0  0  0  0  0  0  0  0  0  0
  -25.1830  -13.8550   20.5110 C   0  0  0  0  0  0  0  0  0  0  0  0
  -24.1270  -13.0800   20.9060 C   0  0  0  0  0  0  0  0  0  0  0  0
  -24.5870  -11.7290   20.8490 C   0  0  0  0  0  0  0  0  0  0  0  0
  -26.2200  -12.9760   20.2370 N   0  0  0  0  0  0  0  0  0  0  0  0
  -25.8670  -11.6920   20.5020 N   0  0  0  0  0  0  0  0  0  0  0  0
  -23.8660  -10.4650   21.0500 C   0  0  0  0  0  0  0  0  0  0  0  0
  -24.3330   -9.4860   21.9550 C   0  0  0  0  0  3  0  0  0  0  0  0
  -23.6150   -8.2860   22.1440 C   0  0  0  0  0  3  0  0  0  0  0  0
  -22.4150   -8.0560   21.4290 C   0  0  0  0  0  0  0  0  0  0  0  0
  -21.9670   -9.0240   20.5130 C   0  0  0  0  0  3  0  0  0  0  0  0
  -22.6860  -10.2160   20.3220 C   0  0  0  0  0  3  0  0  0  0  0  0
  -21.6640   -6.9090   21.5300 O   0  0  0  0  0  0  0  0  0  0  0  0
  -21.6690   -6.1430   22.6670 C   0  0  0  0  0  0  0  0  0  0  0  0
  -21.3060   -6.6740   23.9240 C   0  0  0  0  0  3  0  0  0  0  0  0
  -21.2570   -5.8350   25.0550 C   0  0  0  0  0  3  0  0  0  0  0  0
  -21.5600   -4.4660   24.9310 C   0  0  0  0  0  0  0  0  0  0  0  0
  -21.9160   -3.9340   23.6800 C   0  0  0  0  0  3  0  0  0  0  0  0
  -21.9670   -4.7700   22.5500 C   0  0  0  0  0  0  0  0  0  0  0  0
  -22.2900   -4.2480   21.3430 F   0  0  0  0  0  0  0  0  0  0  0  0
  -21.5060   -3.6580   26.0160 F   0  0  0  0  0  0  0  0  0  0  0  0
  -22.7370  -13.5550   21.2210 C   0  0  0  0  0  0  0  0  0  0  0  0
  -22.0330  -12.8530   22.1020 N   0  0  0  0  0  0  0  0  0  0  0  0
  -22.2860  -14.5830   20.7200 O   0  0  0  0  0  0  0  0  0  0  0  0
  -22.4090  -12.0220   22.5320 H   0  0  0  0  0  0  0  0  0  0  0  0
  -21.1030  -13.1560   22.3520 H   0  0  0  0  0  0  0  0  0  0  0  0
  -25.3420  -15.2270   20.3400 N   0  0  0  0  0  0  0  0  0  0  0  0
  -24.5750  -15.8770   20.4800 H   0  0  0  0  0  0  0  0  0  0  0  0
  -26.1720  -15.6740   19.9710 H   0  0  0  0  0  0  0  0  0  0  0  0
  -27.9280  -24.1260   20.6590 C   0  0  0  0  0  2  0  0  0  0  0  0
  -28.4710  -25.5420   21.0740 C   0  0  0  0  0  2  0  0  0  0  0  0
  -28.3870  -26.6420   20.1310 O   0  0  0  0  0  0  0  0  0  0  0  0
  -24.6010  -31.8860   23.2460 C   0  0  0  0  0  0  0  0  0  0  0  0
  -27.2380  -27.4110   20.1730 C   0  0  0  0  0  0  0  0  0  0  0  0
  -23.3970  -30.4880   21.5990 C   0  0  0  0  0  3  0  0  0  0  0  0
  -24.8520  -28.9460   20.1750 C   0  0  0  0  0  0  0  0  0  0  0  0
  -25.9270  -30.8350   21.4090 C   0  0  0  0  0  2  0  0  0  0  0  0
  -26.0120  -29.4620   20.7690 C   0  0  0  0  0  0  0  0  0  0  0  0
  -27.2110  -28.7030   20.7620 C   0  0  0  0  0  3  0  0  0  0  0  0
  -26.0620  -26.9240   19.5680 C   0  0  0  0  0  3  0  0  0  0  0  0
  -24.8750  -27.6790   19.5690 C   0  0  0  0  0  3  0  0  0  0  0  0
  -23.6090  -29.8090   20.2210 C   0  0  0  0  0  2  0  0  0  0  0  0
  -24.6600  -31.0860   22.1430 N   0  0  0  0  0  0  0  0  0  0  0  0
  -23.5180  -32.1570   23.7860 O   0  0  0  0  0  0  0  0  0  0  0  0
  -22.7410  -29.4670   22.5570 C   0  0  0  0  0  0  0  0  0  0  0  0
  -21.4170  -29.2840   22.4260 N   0  0  0  0  0  0  0  0  0  0  0  0
  -23.4220  -28.8420   23.3760 O   0  0  0  0  0  0  0  0  0  0  0  0
  -20.9300  -29.8380   21.7360 H   0  0  0  0  0  0  0  0  0  0  0  0
  -18.0440  -28.0750   22.9030 C   0  0  0  0  0  0  0  0  0  0  0  0
  -20.5990  -28.3430   23.1910 C   0  0  0  0  0  3  0  0  0  0  0  0
  -20.7110  -26.9120   22.6170 C   0  0  0  0  0  2  0  0  0  0  0  0
  -19.6180  -26.5840   21.5950 C   0  0  0  0  0  2  0  0  0  0  0  0
  -18.2310  -26.7250   22.2300 C   0  0  0  0  0  2  0  0  0  0  0  0
  -19.1570  -28.8420   23.3400 C   0  0  0  0  0  0  0  0  0  0  0  0
  -18.9300  -30.1050   23.9280 C   0  0  0  0  0  3  0  0  0  0  0  0
  -17.6220  -30.6020   24.0830 C   0  0  0  0  0  3  0  0  0  0  0  0
  -16.5240  -29.8330   23.6630 C   0  0  0  0  0  3  0  0  0  0  0  0
  -16.7350  -28.5700   23.0800 C   0  0  0  0  0  3  0  0  0  0  0  0
  -25.8860  -32.5140   23.8690 C   0  0  0  0  0  3  0  0  0  0  0  0
  -26.4010  -31.7410   25.1450 C   0  0  1  0  0  0  0  0  0  0  0  0
  -25.3080  -31.5060   26.2140 C   0  0  0  0  0  1  0  0  0  0  0  0
  -26.9830  -30.3640   24.7520 C   0  0  0  0  0  1  0  0  0  0  0  0
  -27.5540  -32.5330   25.8060 C   0  0  0  0  0  1  0  0  0  0  0  0
  -25.5790  -33.9120   24.2000 N   0  0  0  0  0  0  0  0  0  0  0  0
  -25.9140  -34.9650   23.4420 C   0  0  0  0  0  0  0  0  0  0  0  0
  -26.5850  -34.8610   22.4110 O   0  0  0  0  0  0  0  0  0  0  0  0
  -24.9830  -34.0670   24.9990 H   0  0  0  0  0  0  0  0  0  0  0  0
  -24.1880  -36.7590   23.0850 C   0  0  0  0  0  1  0  0  0  0  0  0
  -25.4280  -36.3540   23.8990 C   0  0  0  0  0  3  0  0  0  0  0  0
  -27.5640  -37.2320   24.7290 C   0  0  0  0  0  1  0  0  0  0  0  0
  -26.4610  -37.4070   23.7870 N   0  0  0  0  0  0  0  0  0  0  0  0
  -26.0560  -38.3250   23.9410 H   0  0  0  0  0  0  0  0  0  0  0  0
  1  2  1  0
  1 51  1  0
  2  4  1  0
  3  1  2  0
  5  2  1  0
  5  9  1  0
  6  7  1  0
  8  9  2  0
  8 10  1  0
  9 11  1  0
 10  6  2  0
 11 12  1  0
 11  7  2  0
 13 21  1  0
 14 19  1  0
 15 16  1  0
 15 14  1  0
 17 16  1  0
 17 26  1  0
 17 18  1  0
 19 13  1  0
 19 18  1  0
 20 13  2  0
 21 22  1  0
 21 10  1  0
 23 24  2  0
 24 43  1  0
 25 24  1  0
 25 28  1  0
 26 27  1  0
 26 23  1  0
 27 25  2  0
 28 29  1  0
 29 30  2  0
 31 34  1  0
 31 30  1  0
 32 31  2  0
 33 32  1  0
 33 28  2  0
 34 35  1  0
 35 36  1  0
 36 37  2  0
 38 37  1  0
 38 42  1  0
 39 38  2  0
 40 35  2  0
 40 39  1  0
 41 40  1  0
 43 44  1  0
 44 47  1  0
 44 46  1  0
 45 43  2  0
 48 49  1  0
 48 23  1  0
 50 48  1  0
 51 52  1  0
 53 55  1  0
 53 52  1  0
 54 65  2  0
 55 60  1  0
 56 64  1  0
 56 66  1  0
 57 63  1  0
 57 59  1  0
 58 64  1  0
 59 58  1  0
 60 59  2  0
 61 62  1  0
 61 55  2  0
 62 57  2  0
 63 56  1  0
 64 54  1  0
 66 68  2  0
 67 66  1  0
 69 67  1  0
 70 79  2  0
 70 75  1  0
 71 67  1  0
 71 75  1  0
 72 71  1  0
 73 74  1  0
 73 72  1  0
 74 70  1  0
 75 76  2  0
 76 77  1  0
 78 77  2  0
 79 78  1  0
 80 54  1  0
 80 85  1  0
 80 81  1  0
 81 84  1  1
 81 82  1  0
 83 81  1  0
 85 88  1  0
 86 90  1  0
 86 85  1  0
 87 86  2  0
 90 89  1  0
 92 90  1  0
 92 93  1  0
 92 91  1  0
M  ISO  4  13 100  21 100  52 101  53 101
M  END
>  <TORSDO>  (73) 
F 20

>  <SCORE>  (73) 
-13.931

>  <name>  (73) 
72

>  <ligand_id>  (73) 
72

>  <original_smiles>  (73) 
[H]c1c([H])c([H])c2c(c1[H])C([H])([H])C([H])([H])C([H])([H])C2([H])N([H])C(=O)C1([H])N(C(=O)C([H])(N([H])C(=O)C([H])(N([H])C([H])([H])[H])C([H])([H])[H])C(C([H])([H])[H])(C([H])([H])[H])C([H])([H])[H])C([H])([H])c2c([H])c(OC([H])([H])C([H])([H])C(=O)N([H])C([H])([H])c3c([H])c(N([H])C(=O)N4C([H])([H])C([H])([H])C([H])([H])C([H])(n5nc(-c6c([H])c([H])c(Oc7c([H])c([H])c(F)c([H])c7F)c([H])c6[H])c(C(=O)N([H])[H])c5N([H])[H])C4([H])[H])c([H])c([H])c3F)c([H])c([H])c2C1([H])[H]

>  <smiles>  (73) 
[H]c1c([H])c([H])c2c(c1[H])C([H])([H])C([H])([H])C([H])([H])C2([H])N([H])C(=O)C1([H])N(C(=O)C([H])(N([H])C(=O)C([H])(N([H])C([H])([H])[H])C([H])([H])[H])C(C([H])([H])[H])(C([H])([H])[H])C([H])([H])[H])C([H])([H])c2c([H])c(OC([H])([H])C([H])([H])C(=O)N([H])C([H])([H])c3c([H])c(N([H])C(=O)N4C([H])([H])C([H])([H])C([H])([H])C([H])(n5nc(-c6c([H])c([H])c(Oc7c([H])c([H])c(F)c([H])c7F)c([H])c6[H])c(C(=O)N([H])[H])c5N([H])[H])C4([H])[H])c([H])c([H])c3F)c([H])c([H])c2C1([H])[H]

$$$$
73:0:0
     RDKit          3D

 96105  0  0  1  0  0  0  0  0999 V2000
  -33.0090  -21.7070   21.2770 C   0  0  0  0  0  3  0  0  0  0  0  0
  -32.5650  -20.5970   22.0200 C   0  0  0  0  0  3  0  0  0  0  0  0
  -32.0850  -22.6430   20.7770 C   0  0  0  0  0  3  0  0  0  0  0  0
  -30.2630  -21.3530   21.7560 C   0  0  0  0  0  3  0  0  0  0  0  0
  -31.1870  -20.4070   22.2530 C   0  0  0  0  0  0  0  0  0  0  0  0
  -30.7000  -22.4830   21.0270 C   0  0  0  0  0  0  0  0  0  0  0  0
  -29.8030  -24.6330   20.0710 C   0  0  0  0  0  0  0  0  0  0  0  0
  -29.7000  -23.3810   20.5570 N   0  0  0  0  0  0  0  0  0  0  0  0
  -30.8640  -25.2570   19.9590 O   0  0  0  0  0  0  0  0  0  0  0  0
  -28.7480  -23.0500   20.6360 H   0  0  0  0  0  0  0  0  0  0  0  0
  -28.4830  -25.2960   19.6580 C   0  0  0  0  0  2  0  0  0  0  0  0
  -28.4770  -26.6750   20.0430 O   0  0  0  0  0  0  0  0  0  0  0  0
  -24.5350  -31.7160   23.1200 C   0  0  0  0  0  0  0  0  0  0  0  0
  -27.2730  -27.3480   20.0190 C   0  0  0  0  0  0  0  0  0  0  0  0
  -23.3590  -30.3020   21.4670 C   0  0  0  0  0  3  0  0  0  0  0  0
  -24.8450  -28.8020   20.0390 C   0  0  0  0  0  0  0  0  0  0  0  0
  -25.8790  -30.7070   21.2830 C   0  0  0  0  0  2  0  0  0  0  0  0
  -25.9890  -29.3430   20.6360 C   0  0  0  0  0  0  0  0  0  0  0  0
  -27.2030  -28.6220   20.6260 C   0  0  0  0  0  3  0  0  0  0  0  0
  -26.1070  -26.8220   19.4140 C   0  0  0  0  0  3  0  0  0  0  0  0
  -24.8980  -27.5390   19.4270 C   0  0  0  0  0  3  0  0  0  0  0  0
  -23.5840  -29.6350   20.0840 C   0  0  0  0  0  2  0  0  0  0  0  0
  -24.6080  -30.9220   22.0150 N   0  0  0  0  0  0  0  0  0  0  0  0
  -23.4470  -31.9680   23.6570 O   0  0  0  0  0  0  0  0  0  0  0  0
  -22.7230  -29.2640   22.4180 C   0  0  0  0  0  0  0  0  0  0  0  0
  -21.4050  -29.0520   22.2750 N   0  0  0  0  0  0  0  0  0  0  0  0
  -23.4100  -28.6530   23.2390 O   0  0  0  0  0  0  0  0  0  0  0  0
  -20.9100  -29.5980   21.5830 H   0  0  0  0  0  0  0  0  0  0  0  0
  -18.0490  -27.7970   22.7350 C   0  0  0  0  0  0  0  0  0  0  0  0
  -20.5980  -28.0960   23.0320 C   0  0  0  0  0  3  0  0  0  0  0  0
  -20.7330  -26.6700   22.4490 C   0  0  0  0  0  2  0  0  0  0  0  0
  -19.6450  -26.3350   21.4230 C   0  0  0  0  0  2  0  0  0  0  0  0
  -18.2550  -26.4540   22.0530 C   0  0  0  0  0  2  0  0  0  0  0  0
  -19.1510  -28.5740   23.1800 C   0  0  0  0  0  0  0  0  0  0  0  0
  -18.9060  -29.8320   23.7740 C   0  0  0  0  0  3  0  0  0  0  0  0
  -17.5920  -30.3100   23.9310 C   0  0  0  0  0  3  0  0  0  0  0  0
  -16.5050  -29.5280   23.5060 C   0  0  0  0  0  3  0  0  0  0  0  0
  -16.7340  -28.2730   22.9140 C   0  0  0  0  0  3  0  0  0  0  0  0
  -25.8090  -32.3630   23.7490 C   0  0  0  0  0  3  0  0  0  0  0  0
  -26.3450  -31.5820   25.0110 C   0  0  1  0  0  0  0  0  0  0  0  0
  -25.2590  -31.2970   26.0740 C   0  0  0  0  0  1  0  0  0  0  0  0
  -26.9620  -30.2270   24.5950 C   0  0  0  0  0  1  0  0  0  0  0  0
  -27.4750  -32.3940   25.6870 C   0  0  0  0  0  1  0  0  0  0  0  0
  -25.4720  -33.7500   24.0990 N   0  0  0  0  0  0  0  0  0  0  0  0
  -25.8000  -34.8210   23.3640 C   0  0  0  0  0  0  0  0  0  0  0  0
  -26.4910  -34.7470   22.3440 O   0  0  0  0  0  0  0  0  0  0  0  0
  -24.8600  -33.8810   24.8910 H   0  0  0  0  0  0  0  0  0  0  0  0
  -24.0640  -36.6010   22.9880 C   0  0  0  0  0  1  0  0  0  0  0  0
  -25.2810  -36.1920   23.8350 C   0  0  0  0  0  3  0  0  0  0  0  0
  -27.3650  -37.0850   24.7760 C   0  0  0  0  0  1  0  0  0  0  0  0
  -26.3060  -37.2580   23.7860 N   0  0  0  0  0  0  0  0  0  0  0  0
  -25.8830  -38.1710   23.9290 H   0  0  0  0  0  0  0  0  0  0  0  0
  -30.7070  -19.1870   23.0380 C   0  0  0  0  0  2  0  0  0  0  0  0
  -30.9190  -14.5090   19.9730 C   0  0  0  0  0  0  0  0  0  0  0  0
  -30.4110  -12.4880   18.6640 C   0  0  0  0  0  2  0  0  0  0  0  0
  -29.3770  -12.8190   17.5700 C   0  0  0  0  0  2  0  0  0  0  0  0
  -27.9470  -12.6710   18.1200 C   0  0  0  0  0  2  0  0  0  0  0  0
  -27.7440  -13.4130   19.4690 C   0  0  0  0  0  3  0  0  0  0  0  0
  -28.8850  -13.0910   20.4600 C   0  0  0  0  0  2  0  0  0  0  0  0
  -30.1670  -13.3890   19.8000 N   0  0  0  0  0  0  0  0  0  0  0  0
  -31.9390  -14.7460   19.3200 O   0  0  0  0  0  0  0  0  0  0  0  0
  -30.0350  -16.7200   20.1840 C   0  0  0  0  0  2  0  0  0  0  0  0
  -31.0600  -15.4780   22.1530 C   0  0  0  0  0  2  0  0  0  0  0  0
  -29.7470  -17.8870   21.1460 C   0  0  0  0  0  2  0  0  0  0  0  0
  -30.7140  -16.7060   23.0160 C   0  0  0  0  0  2  0  0  0  0  0  0
  -30.4290  -15.4410   20.8170 N   0  0  0  0  0  0  0  0  0  0  0  0
  -30.7590  -17.9490   22.2200 N   0  0  2  0  0  4  0  0  0  0  0  0
  -31.6620  -17.9710   21.7740 H   0  0  0  0  0  0  0  0  0  0  0  0
  -25.4120  -14.0000   20.3870 C   0  0  0  0  0  0  0  0  0  0  0  0
  -24.3720  -13.2170   20.8110 C   0  0  0  0  0  0  0  0  0  0  0  0
  -24.8210  -11.8650   20.6910 C   0  0  0  0  0  0  0  0  0  0  0  0
  -26.4310  -13.1250   20.0410 N   0  0  0  0  0  0  0  0  0  0  0  0
  -26.0810  -11.8350   20.2780 N   0  0  0  0  0  0  0  0  0  0  0  0
  -24.1060  -10.5980   20.8920 C   0  0  0  0  0  0  0  0  0  0  0  0
  -24.5390   -9.6490   21.8430 C   0  0  0  0  0  3  0  0  0  0  0  0
  -23.8260   -8.4460   22.0310 C   0  0  0  0  0  3  0  0  0  0  0  0
  -22.6650   -8.1830   21.2660 C   0  0  0  0  0  0  0  0  0  0  0  0
  -22.2490   -9.1220   20.3040 C   0  0  0  0  0  3  0  0  0  0  0  0
  -22.9640  -10.3170   20.1160 C   0  0  0  0  0  3  0  0  0  0  0  0
  -21.9220   -7.0300   21.3600 O   0  0  0  0  0  0  0  0  0  0  0  0
  -21.7890   -6.3550   22.5470 C   0  0  0  0  0  0  0  0  0  0  0  0
  -21.2410   -6.9680   23.6950 C   0  0  0  0  0  3  0  0  0  0  0  0
  -21.0580   -6.2190   24.8740 C   0  0  0  0  0  3  0  0  0  0  0  0
  -21.4110   -4.8570   24.9050 C   0  0  0  0  0  0  0  0  0  0  0  0
  -21.9510   -4.2430   23.7610 C   0  0  0  0  0  3  0  0  0  0  0  0
  -22.1370   -4.9900   22.5840 C   0  0  0  0  0  0  0  0  0  0  0  0
  -22.6380   -4.3890   21.4780 F   0  0  0  0  0  0  0  0  0  0  0  0
  -21.2270   -4.1350   26.0350 F   0  0  0  0  0  0  0  0  0  0  0  0
  -23.0040  -13.6870   21.2150 C   0  0  0  0  0  0  0  0  0  0  0  0
  -22.3540  -12.9730   22.1270 N   0  0  0  0  0  0  0  0  0  0  0  0
  -22.5230  -14.7220   20.7570 O   0  0  0  0  0  0  0  0  0  0  0  0
  -22.7590  -12.1370   22.5230 H   0  0  0  0  0  0  0  0  0  0  0  0
  -21.4390  -13.2690   22.4350 H   0  0  0  0  0  0  0  0  0  0  0  0
  -25.5730  -15.3750   20.2470 N   0  0  0  0  0  0  0  0  0  0  0  0
  -24.8240  -16.0310   20.4420 H   0  0  0  0  0  0  0  0  0  0  0  0
  -26.3950  -15.8170   19.8570 H   0  0  0  0  0  0  0  0  0  0  0  0
  1  2  1  0
  2  5  2  0
  3  6  1  0
  3  1  2  0
  4  5  1  0
  5 53  1  0
  6  4  2  0
  7  8  1  0
  8 10  1  0
  8  6  1  0
  9  7  2  0
 11 12  1  0
 11  7  1  0
 13 24  2  0
 14 12  1  0
 14 19  1  0
 15 23  1  0
 15 25  1  0
 16 22  1  0
 16 18  1  0
 17 23  1  0
 18 17  1  0
 19 18  2  0
 20 21  1  0
 20 14  2  0
 21 16  2  0
 22 15  1  0
 23 13  1  0
 25 27  2  0
 26 25  1  0
 28 26  1  0
 29 38  2  0
 29 34  1  0
 30 26  1  0
 30 34  1  0
 31 30  1  0
 32 33  1  0
 32 31  1  0
 33 29  1  0
 34 35  2  0
 35 36  1  0
 37 36  2  0
 38 37  1  0
 39 13  1  0
 39 44  1  0
 39 40  1  0
 40 43  1  1
 40 41  1  0
 42 40  1  0
 44 47  1  0
 45 49  1  0
 45 44  1  0
 46 45  2  0
 49 48  1  0
 51 49  1  0
 51 52  1  0
 51 50  1  0
 54 66  1  0
 55 60  1  0
 56 57  1  0
 56 55  1  0
 58 57  1  0
 58 72  1  0
 58 59  1  0
 60 54  1  0
 60 59  1  0
 61 54  2  0
 62 66  1  0
 62 64  1  0
 63 65  1  0
 64 67  1  0
 66 63  1  0
 67 65  1  0
 67 53  1  0
 67 68  1  6
 69 70  2  0
 70 89  1  0
 71 70  1  0
 71 74  1  0
 72 73  1  0
 72 69  1  0
 73 71  2  0
 74 75  1  0
 75 76  2  0
 77 80  1  0
 77 76  1  0
 78 77  2  0
 79 78  1  0
 79 74  2  0
 80 81  1  0
 81 86  2  0
 81 82  1  0
 82 83  2  0
 83 84  1  0
 84 88  1  0
 85 84  2  0
 86 85  1  0
 87 86  1  0
 89 90  1  0
 90 93  1  0
 90 92  1  0
 91 89  2  0
 94 69  1  0
 94 95  1  0
 96 94  1  0
M  ISO  4  11 101  12 101  54 100  66 100
M  END
>  <TORSDO>  (74) 
F 19

>  <SCORE>  (74) 
-12.546

>  <name>  (74) 
73

>  <ligand_id>  (74) 
73

>  <original_smiles>  (74) 
[H]c1c([H])c([H])c2c(c1[H])C([H])([H])C([H])([H])C([H])([H])C2([H])N([H])C(=O)C1([H])N(C(=O)C([H])(N([H])C(=O)C([H])(N([H])C([H])([H])[H])C([H])([H])[H])C(C([H])([H])[H])(C([H])([H])[H])C([H])([H])[H])C([H])([H])c2c([H])c(OC([H])([H])C(=O)N([H])c3c([H])c([H])c([H])c(C([H])([H])[N+]4([H])C([H])([H])C([H])([H])N(C(=O)N5C([H])([H])C([H])([H])C([H])([H])C([H])(n6nc(-c7c([H])c([H])c(Oc8c([H])c([H])c(F)c([H])c8F)c([H])c7[H])c(C(=O)N([H])[H])c6N([H])[H])C5([H])[H])C([H])([H])C4([H])[H])c3[H])c([H])c([H])c2C1([H])[H]

>  <smiles>  (74) 
[H]c1c([H])c([H])c2c(c1[H])C([H])([H])C([H])([H])C([H])([H])C2([H])N([H])C(=O)C1([H])N(C(=O)C([H])(N([H])C(=O)C([H])(N([H])C([H])([H])[H])C([H])([H])[H])C(C([H])([H])[H])(C([H])([H])[H])C([H])([H])[H])C([H])([H])c2c([H])c(OC([H])([H])C(=O)N([H])c3c([H])c([H])c([H])c(C([H])([H])[N+]4([H])C([H])([H])C([H])([H])N(C(=O)N5C([H])([H])C([H])([H])C([H])([H])C([H])(n6nc(-c7c([H])c([H])c(Oc8c([H])c([H])c(F)c([H])c8F)c([H])c7[H])c(C(=O)N([H])[H])c6N([H])[H])C5([H])[H])C([H])([H])C4([H])[H])c3[H])c([H])c([H])c2C1([H])[H]

$$$$
74:0:0
     RDKit          3D

 94103  0  0  1  0  0  0  0  0999 V2000
  -27.8450  -19.8170   20.1750 C   0  0  0  0  0  2  0  0  0  0  0  0
  -30.2650  -19.8000   20.6200 C   0  0  0  0  0  2  0  0  0  0  0  0
  -27.9650  -21.1680   19.4220 C   0  0  0  0  0  2  0  0  0  0  0  0
  -30.4210  -21.1630   19.8900 C   0  0  0  0  0  2  0  0  0  0  0  0
  -29.1230  -18.9640   19.9980 C   0  0  0  0  0  3  0  0  0  0  0  0
  -29.1700  -21.9800   19.7850 N   0  0  2  0  0  4  0  0  0  0  0  0
  -29.3480  -22.5550   18.9750 H   0  0  0  0  0  0  0  0  0  0  0  0
  -28.2890  -17.2770   21.7190 C   0  0  0  0  0  1  0  0  0  0  0  0
  -29.0130  -17.5230   20.4440 N   0  0  2  0  0  4  0  0  0  0  0  0
  -28.3760  -17.1420   19.7600 H   0  0  0  0  0  0  0  0  0  0  0  0
  -30.7890  -14.2990   19.7790 C   0  0  0  0  0  0  0  0  0  0  0  0
  -30.3310  -12.1710   18.6130 C   0  0  0  0  0  2  0  0  0  0  0  0
  -29.3010  -12.4040   17.4920 C   0  0  0  0  0  2  0  0  0  0  0  0
  -27.8660  -12.2790   18.0420 C   0  0  0  0  0  2  0  0  0  0  0  0
  -27.6480  -13.1150   19.3330 C   0  0  0  0  0  3  0  0  0  0  0  0
  -28.7840  -12.8750   20.3510 C   0  0  0  0  0  2  0  0  0  0  0  0
  -30.0660  -13.1510   19.6790 N   0  0  0  0  0  0  0  0  0  0  0  0
  -31.8020  -14.5120   19.1040 O   0  0  0  0  0  0  0  0  0  0  0  0
  -31.3690  -16.9160   21.2730 C   0  0  0  0  0  2  0  0  0  0  0  0
  -31.0590  -15.5420   21.8380 C   0  0  0  0  0  2  0  0  0  0  0  0
  -30.2580  -16.6920   20.2450 C   0  0  0  0  0  3  0  0  0  0  0  0
  -30.2950  -15.2460   20.6120 N   0  0  0  0  0  0  0  0  0  0  0  0
  -25.3330  -13.7490   20.2590 C   0  0  0  0  0  0  0  0  0  0  0  0
  -24.2910  -12.9910   20.7190 C   0  0  0  0  0  0  0  0  0  0  0  0
  -24.7250  -11.6320   20.6260 C   0  0  0  0  0  0  0  0  0  0  0  0
  -26.3370  -12.8560   19.9230 N   0  0  0  0  0  0  0  0  0  0  0  0
  -25.9790  -11.5770   20.2010 N   0  0  0  0  0  0  0  0  0  0  0  0
  -23.9990  -10.3780   20.8660 C   0  0  0  0  0  0  0  0  0  0  0  0
  -24.4260   -9.4510   21.8420 C   0  0  0  0  0  3  0  0  0  0  0  0
  -23.6990   -8.2610   22.0650 C   0  0  0  0  0  3  0  0  0  0  0  0
  -22.5320   -7.9910   21.3140 C   0  0  0  0  0  0  0  0  0  0  0  0
  -22.1230   -8.9060   20.3290 C   0  0  0  0  0  3  0  0  0  0  0  0
  -22.8510  -10.0870   20.1030 C   0  0  0  0  0  3  0  0  0  0  0  0
  -21.7780   -6.8500   21.4460 O   0  0  0  0  0  0  0  0  0  0  0  0
  -21.6430   -6.2100   22.6510 C   0  0  0  0  0  0  0  0  0  0  0  0
  -21.1100   -6.8610   23.7830 C   0  0  0  0  0  3  0  0  0  0  0  0
  -20.9260   -6.1470   24.9840 C   0  0  0  0  0  3  0  0  0  0  0  0
  -21.2640   -4.7830   25.0510 C   0  0  0  0  0  0  0  0  0  0  0  0
  -21.7870   -4.1300   23.9220 C   0  0  0  0  0  3  0  0  0  0  0  0
  -21.9730   -4.8420   22.7230 C   0  0  0  0  0  0  0  0  0  0  0  0
  -22.4600   -4.2040   21.6310 F   0  0  0  0  0  0  0  0  0  0  0  0
  -21.0790   -4.0930   26.2020 F   0  0  0  0  0  0  0  0  0  0  0  0
  -22.9310  -13.4860   21.1190 C   0  0  0  0  0  0  0  0  0  0  0  0
  -22.2800  -12.8060   22.0560 N   0  0  0  0  0  0  0  0  0  0  0  0
  -22.4580  -14.5110   20.6300 O   0  0  0  0  0  0  0  0  0  0  0  0
  -22.6780  -11.9750   22.4680 H   0  0  0  0  0  0  0  0  0  0  0  0
  -21.3730  -13.1200   22.3690 H   0  0  0  0  0  0  0  0  0  0  0  0
  -25.5030  -15.1170   20.0750 N   0  0  0  0  0  0  0  0  0  0  0  0
  -24.6900  -15.7200   20.1490 H   0  0  0  0  0  0  0  0  0  0  0  0
  -26.1750  -15.4540   19.3990 H   0  0  0  0  0  0  0  0  0  0  0  0
  -28.9760  -22.9920   20.8740 C   0  0  0  0  0  2  0  0  0  0  0  0
  -28.1050  -24.2350   20.5010 C   0  0  0  0  0  2  0  0  0  0  0  0
  -28.7620  -25.3300   19.6010 C   0  0  0  0  0  2  0  0  0  0  0  0
  -28.6520  -26.6870   20.0880 O   0  0  0  0  0  0  0  0  0  0  0  0
  -24.6600  -31.7260   23.1570 C   0  0  0  0  0  0  0  0  0  0  0  0
  -27.4460  -27.3670   20.0510 C   0  0  0  0  0  0  0  0  0  0  0  0
  -23.5000  -30.3000   21.5020 C   0  0  0  0  0  3  0  0  0  0  0  0
  -25.0040  -28.8130   20.0720 C   0  0  0  0  0  0  0  0  0  0  0  0
  -26.0150  -30.7320   21.3100 C   0  0  0  0  0  2  0  0  0  0  0  0
  -26.1430  -29.3630   20.6690 C   0  0  0  0  0  0  0  0  0  0  0  0
  -27.3640  -28.6470   20.6540 C   0  0  0  0  0  3  0  0  0  0  0  0
  -26.2860  -26.8440   19.4350 C   0  0  0  0  0  3  0  0  0  0  0  0
  -25.0720  -27.5540   19.4490 C   0  0  0  0  0  3  0  0  0  0  0  0
  -23.7340  -29.6330   20.1200 C   0  0  0  0  0  2  0  0  0  0  0  0
  -24.7440  -30.9340   22.0490 N   0  0  0  0  0  0  0  0  0  0  0  0
  -23.5710  -31.9640   23.6930 O   0  0  0  0  0  0  0  0  0  0  0  0
  -22.8730  -29.2540   22.4560 C   0  0  0  0  0  0  0  0  0  0  0  0
  -21.5600  -29.0170   22.3040 N   0  0  0  0  0  0  0  0  0  0  0  0
  -23.5660  -28.6630   23.2880 O   0  0  0  0  0  0  0  0  0  0  0  0
  -21.0590  -29.5600   21.6160 H   0  0  0  0  0  0  0  0  0  0  0  0
  -18.2330  -27.6620   22.7180 C   0  0  0  0  0  0  0  0  0  0  0  0
  -20.7690  -28.0430   23.0550 C   0  0  0  0  0  3  0  0  0  0  0  0
  -20.9510  -26.6160   22.4890 C   0  0  0  0  0  2  0  0  0  0  0  0
  -19.8930  -26.2360   21.4470 C   0  0  0  0  0  2  0  0  0  0  0  0
  -18.4910  -26.3170   22.0550 C   0  0  0  0  0  2  0  0  0  0  0  0
  -19.3030  -28.4780   23.1710 C   0  0  0  0  0  0  0  0  0  0  0  0
  -19.0150  -29.7340   23.7470 C   0  0  0  0  0  3  0  0  0  0  0  0
  -17.6860  -30.1780   23.8740 C   0  0  0  0  0  3  0  0  0  0  0  0
  -16.6280  -29.3580   23.4420 C   0  0  0  0  0  3  0  0  0  0  0  0
  -16.9010  -28.1030   22.8680 C   0  0  0  0  0  3  0  0  0  0  0  0
  -25.9250  -32.3890   23.7900 C   0  0  0  0  0  3  0  0  0  0  0  0
  -26.4650  -31.6190   25.0580 C   0  0  1  0  0  0  0  0  0  0  0  0
  -25.3770  -31.3260   26.1220 C   0  0  0  0  0  1  0  0  0  0  0  0
  -27.0970  -30.2700   24.6430 C   0  0  0  0  0  1  0  0  0  0  0  0
  -27.5870  -32.4430   25.7320 C   0  0  0  0  0  1  0  0  0  0  0  0
  -25.5760  -33.7770   24.1320 N   0  0  0  0  0  0  0  0  0  0  0  0
  -25.8860  -34.8440   23.3820 C   0  0  0  0  0  0  0  0  0  0  0  0
  -26.5650  -34.7690   22.3560 O   0  0  0  0  0  0  0  0  0  0  0  0
  -24.9790  -33.9100   24.9330 H   0  0  0  0  0  0  0  0  0  0  0  0
  -24.1240  -36.5980   23.0180 C   0  0  0  0  0  1  0  0  0  0  0  0
  -25.3560  -36.2130   23.8500 C   0  0  0  0  0  3  0  0  0  0  0  0
  -27.4470  -37.1380   24.7380 C   0  0  0  0  0  1  0  0  0  0  0  0
  -26.3630  -37.2920   23.7720 N   0  0  0  0  0  0  0  0  0  0  0  0
  -25.9310  -38.1990   23.9260 H   0  0  0  0  0  0  0  0  0  0  0  0
  3  6  1  0
  3  1  1  0
  4  2  1  0
  5  1  1  0
  5  9  1  0
  5  2  1  0
  6  4  1  0
  6 51  1  0
  6  7  1  6
  9  8  1  0
  9 10  1  6
 11 22  1  0
 12 17  1  0
 13 14  1  0
 13 12  1  0
 15 14  1  0
 15 26  1  0
 15 16  1  0
 17 11  1  0
 17 16  1  0
 18 11  2  0
 19 20  1  0
 21  9  1  0
 21 22  1  0
 21 19  1  0
 22 20  1  0
 23 24  2  0
 24 43  1  0
 25 24  1  0
 25 28  1  0
 26 27  1  0
 26 23  1  0
 27 25  2  0
 28 29  1  0
 29 30  2  0
 31 34  1  0
 31 30  1  0
 32 31  2  0
 33 32  1  0
 33 28  2  0
 34 35  1  0
 35 40  2  0
 35 36  1  0
 36 37  2  0
 37 38  1  0
 38 42  1  0
 39 38  2  0
 40 39  1  0
 41 40  1  0
 43 44  1  0
 44 47  1  0
 44 46  1  0
 45 43  2  0
 48 49  1  0
 48 23  1  0
 50 48  1  0
 52 51  1  0
 53 54  1  0
 53 52  1  0
 55 66  2  0
 56 54  1  0
 56 61  1  0
 57 65  1  0
 57 67  1  0
 58 64  1  0
 58 60  1  0
 59 65  1  0
 60 59  1  0
 61 60  2  0
 62 63  1  0
 62 56  2  0
 63 58  2  0
 64 57  1  0
 65 55  1  0
 67 69  2  0
 68 67  1  0
 70 68  1  0
 71 80  2  0
 71 76  1  0
 72 68  1  0
 72 76  1  0
 73 72  1  0
 74 75  1  0
 74 73  1  0
 75 71  1  0
 76 77  2  0
 77 78  1  0
 79 78  2  0
 80 79  1  0
 81 55  1  0
 81 86  1  0
 81 82  1  0
 82 85  1  1
 82 83  1  0
 84 82  1  0
 86 89  1  0
 87 91  1  0
 87 86  1  0
 88 87  2  0
 91 90  1  0
 93 91  1  0
 93 94  1  0
 93 92  1  0
M  ISO  4  11 100  22 100  53 101  54 101
M  END
>  <TORSDO>  (75) 
F 20

>  <SCORE>  (75) 
-11.255

>  <name>  (75) 
74

>  <ligand_id>  (75) 
74

>  <original_smiles>  (75) 
[H]c1c([H])c([H])c2c(c1[H])C([H])([H])C([H])([H])C([H])([H])C2([H])N([H])C(=O)C1([H])N(C(=O)C([H])(N([H])C(=O)C([H])(N([H])C([H])([H])[H])C([H])([H])[H])C(C([H])([H])[H])(C([H])([H])[H])C([H])([H])[H])C([H])([H])c2c([H])c(OC([H])([H])C([H])([H])C([H])([H])[N+]3([H])C([H])([H])C([H])([H])C([H])([N+]([H])(C([H])([H])[H])C4([H])N(C(=O)N5C([H])([H])C([H])([H])C([H])([H])C([H])(n6nc(-c7c([H])c([H])c(Oc8c([H])c([H])c(F)c([H])c8F)c([H])c7[H])c(C(=O)N([H])[H])c6N([H])[H])C5([H])[H])C([H])([H])C4([H])[H])C([H])([H])C3([H])[H])c([H])c([H])c2C1([H])[H]

>  <smiles>  (75) 
[H]c1c([H])c([H])c2c(c1[H])C([H])([H])C([H])([H])C([H])([H])C2([H])N([H])C(=O)C1([H])N(C(=O)C([H])(N([H])C(=O)C([H])(N([H])C([H])([H])[H])C([H])([H])[H])C(C([H])([H])[H])(C([H])([H])[H])C([H])([H])[H])C([H])([H])c2c([H])c(OC([H])([H])C([H])([H])C([H])([H])[N+]3([H])C([H])([H])C([H])([H])C([H])([N+]([H])(C([H])([H])[H])C4([H])N(C(=O)N5C([H])([H])C([H])([H])C([H])([H])C([H])(n6nc(-c7c([H])c([H])c(Oc8c([H])c([H])c(F)c([H])c8F)c([H])c7[H])c(C(=O)N([H])[H])c6N([H])[H])C5([H])[H])C([H])([H])C4([H])[H])C([H])([H])C3([H])[H])c([H])c([H])c2C1([H])[H]

$$$$
75:0:0
     RDKit          3D

 97103  0  0  1  0  0  0  0  0999 V2000
  -25.6780  -24.7940   21.8110 C   0  0  0  0  0  0  0  0  0  0  0  0
  -24.8170  -25.0530   20.8280 N   0  0  0  0  0  0  0  0  0  0  0  0
  -25.4200  -24.8990   23.0080 O   0  0  0  0  0  0  0  0  0  0  0  0
  -25.2150  -25.1620   19.9050 H   0  0  0  0  0  0  0  0  0  0  0  0
  -27.0020  -23.2450   19.5840 C   0  0  0  0  0  2  0  0  0  0  0  0
  -28.2980  -22.0450   19.2700 C   0  0  0  0  0  2  0  0  0  0  0  0
  -29.4350  -22.2070   21.5170 C   0  0  0  0  0  2  0  0  0  0  0  0
  -26.8230  -23.9770   21.2930 C   0  0  0  0  0  0  0  0  0  0  0  0
  -29.2460  -20.9770   20.2890 C   0  0  0  0  0  2  0  0  0  0  0  0
  -28.3460  -23.4520   22.2050 C   0  0  0  0  0  0  0  0  0  0  0  0
  -28.5980  -23.9510   23.4400 F   0  0  0  0  0  0  0  0  0  0  0  0
  -30.2510  -17.1580   20.2060 C   0  0  0  0  0  0  0  0  0  0  0  0
  -30.6450  -14.3200   19.4210 C   0  0  0  0  0  2  0  0  0  0  0  0
  -29.9210  -13.4110   18.3230 C   0  0  0  0  0  2  0  0  0  0  0  0
  -28.6100  -12.8000   18.8200 C   0  0  0  0  0  2  0  0  0  0  0  0
  -27.9300  -13.8380   19.7170 C   0  0  0  0  0  3  0  0  0  0  0  0
  -28.8660  -14.5960   20.7530 C   0  0  0  0  0  2  0  0  0  0  0  0
  -29.8360  -15.5870   20.0470 N   0  0  0  0  0  0  0  0  0  0  0  0
  -31.4980  -16.8680   20.1880 O   0  0  0  0  0  0  0  0  0  0  0  0
  -29.5230  -18.8650   20.1680 N   0  0  0  0  0  2  0  0  0  0  0  0
  -28.5970  -18.5480   19.9150 H   0  0  0  0  0  0  0  0  0  0  0  0
  -25.5580  -14.2420   20.4480 C   0  0  0  0  0  0  0  0  0  0  0  0
  -24.5040  -13.4440   20.7780 C   0  0  0  0  0  0  0  0  0  0  0  0
  -24.9870  -12.0990   20.7300 C   0  0  0  0  0  0  0  0  0  0  0  0
  -26.6290  -13.4040   20.2300 N   0  0  0  0  0  0  0  0  0  0  0  0
  -26.2930  -12.0940   20.4420 N   0  0  0  0  0  0  0  0  0  0  0  0
  -24.2460  -10.8320   20.8900 C   0  0  0  0  0  0  0  0  0  0  0  0
  -24.6690   -9.8280   21.7910 C   0  0  0  0  0  3  0  0  0  0  0  0
  -23.9190   -8.6410   21.9540 C   0  0  0  0  0  3  0  0  0  0  0  0
  -22.7280   -8.4440   21.2150 C   0  0  0  0  0  0  0  0  0  0  0  0
  -22.3200   -9.4350   20.3040 C   0  0  0  0  0  3  0  0  0  0  0  0
  -23.0710  -10.6130   20.1410 C   0  0  0  0  0  3  0  0  0  0  0  0
  -21.9530   -7.3100   21.2850 O   0  0  0  0  0  0  0  0  0  0  0  0
  -21.9060   -6.5370   22.4190 C   0  0  0  0  0  0  0  0  0  0  0  0
  -21.5500   -7.0770   23.6740 C   0  0  0  0  0  3  0  0  0  0  0  0
  -21.4470   -6.2360   24.8000 C   0  0  0  0  0  3  0  0  0  0  0  0
  -21.6910   -4.8560   24.6730 C   0  0  0  0  0  0  0  0  0  0  0  0
  -22.0380   -4.3140   23.4230 C   0  0  0  0  0  3  0  0  0  0  0  0
  -22.1420   -5.1520   22.2990 C   0  0  0  0  0  0  0  0  0  0  0  0
  -22.4580   -4.6220   21.0930 F   0  0  0  0  0  0  0  0  0  0  0  0
  -21.5850   -4.0460   25.7520 F   0  0  0  0  0  0  0  0  0  0  0  0
  -23.0980  -13.9120   21.0160 C   0  0  0  0  0  0  0  0  0  0  0  0
  -22.3600  -13.2220   21.8750 N   0  0  0  0  0  0  0  0  0  0  0  0
  -22.6710  -14.9350   20.4810 O   0  0  0  0  0  0  0  0  0  0  0  0
  -22.7210  -12.3960   22.3320 H   0  0  0  0  0  0  0  0  0  0  0  0
  -21.4170  -13.5190   22.0790 H   0  0  0  0  0  0  0  0  0  0  0  0
  -25.6940  -15.6160   20.2740 N   0  0  0  0  0  0  0  0  0  0  0  0
  -24.8960  -16.2400   20.3330 H   0  0  0  0  0  0  0  0  0  0  0  0
  -26.5300  -16.0650   19.9260 H   0  0  0  0  0  0  0  0  0  0  0  0
  -23.4220  -24.6410   20.8820 C   0  0  0  0  0  2  0  0  0  0  0  0
  -23.0430  -23.6110   19.7740 C   0  0  0  0  0  2  0  0  0  0  0  0
  -22.2350  -23.9670   17.4690 C   0  0  0  0  0  1  0  0  0  0  0  0
  -23.4140  -24.0010   18.3720 N   0  0  2  0  0  4  0  0  0  0  0  0
  -23.6750  -24.9740   18.4140 H   0  0  0  0  0  0  0  0  0  0  0  0
  -24.5790  -23.2260   17.8120 C   0  0  0  0  0  2  0  0  0  0  0  0
  -25.5450  -24.0140   16.7850 C   0  0  0  0  0  1  0  0  0  0  0  0
  -27.2020  -26.6880   17.3480 O   0  0  0  0  0  1  0  0  0  0  0  0
  -26.0380  -30.5600   25.0240 C   0  0  0  0  0  0  0  0  0  0  0  0
  -26.8950  -28.0270   18.5980 C   0  0  0  0  0  0  0  0  0  0  0  0
  -24.4710  -30.7810   23.1550 C   0  0  0  0  0  3  0  0  0  0  0  0
  -25.3680  -30.2030   20.6760 C   0  0  0  0  0  0  0  0  0  0  0  0
  -26.9700  -30.3770   22.5300 C   0  0  0  0  0  2  0  0  0  0  0  0
  -26.6240  -29.7120   21.0490 C   0  0  0  0  0  0  0  0  0  0  0  0
  -27.3360  -28.7010   20.0350 C   0  0  0  0  0  3  0  0  0  0  0  0
  -25.7320  -28.9120   18.4620 C   0  0  0  0  0  3  0  0  0  0  0  0
  -25.0140  -29.8320   19.3590 C   0  0  0  0  0  3  0  0  0  0  0  0
  -24.4770  -31.0970   21.6180 C   0  0  0  0  0  2  0  0  0  0  0  0
  -25.8770  -30.5720   23.6350 N   0  0  0  0  0  0  0  0  0  0  0  0
  -25.0720  -30.6350   25.8130 O   0  0  0  0  0  0  0  0  0  0  0  0
  -23.5530  -29.5630   23.4680 C   0  0  0  0  0  0  0  0  0  0  0  0
  -22.2360  -29.6230   23.1720 N   0  0  0  0  0  0  0  0  0  0  0  0
  -24.0560  -28.5550   23.9670 O   0  0  0  0  0  0  0  0  0  0  0  0
  -21.8640  -30.4860   22.8020 H   0  0  0  0  0  0  0  0  0  0  0  0
  -19.0000  -28.3010   22.1060 C   0  0  0  0  0  0  0  0  0  0  0  0
  -21.3030  -28.4890   23.2770 C   0  0  0  0  0  3  0  0  0  0  0  0
  -21.7440  -27.3280   22.3530 C   0  0  0  0  0  2  0  0  0  0  0  0
  -21.0630  -27.3560   20.9820 C   0  0  0  0  0  2  0  0  0  0  0  0
  -19.5420  -27.2710   21.1300 C   0  0  0  0  0  2  0  0  0  0  0  0
  -19.8290  -28.8880   23.1020 C   0  0  0  0  0  0  0  0  0  0  0  0
  -19.2740  -29.8530   23.9680 C   0  0  0  0  0  3  0  0  0  0  0  0
  -17.9260  -30.2420   23.8460 C   0  0  0  0  0  3  0  0  0  0  0  0
  -17.1090  -29.6520   22.8660 C   0  0  0  0  0  3  0  0  0  0  0  0
  -17.6450  -28.6810   22.0030 C   0  0  0  0  0  3  0  0  0  0  0  0
  -27.4340  -30.4520   25.7160 C   0  0  0  0  0  3  0  0  0  0  0  0
  -27.7460  -31.7330   26.4050 N   0  0  0  0  0  0  0  0  0  0  0  0
  -28.5970  -32.6760   25.9740 C   0  0  0  0  0  0  0  0  0  0  0  0
  -29.2360  -32.5530   24.9280 O   0  0  0  0  0  0  0  0  0  0  0  0
  -27.2040  -31.9310   27.2330 H   0  0  0  0  0  0  0  0  0  0  0  0
  -27.9940  -35.1190   26.2020 C   0  0  0  0  0  1  0  0  0  0  0  0
  -28.7790  -33.9550   26.8300 C   0  0  0  0  0  3  0  0  0  0  0  0
  -30.9620  -33.4500   27.8470 C   0  0  0  0  0  1  0  0  0  0  0  0
  -30.1930  -34.3620   27.0030 N   0  0  0  0  0  0  0  0  0  0  0  0
  -30.2540  -35.2930   27.4080 H   0  0  0  0  0  0  0  0  0  0  0  0
  -27.5020  -29.2780   26.7720 C   0  0  1  0  0  0  0  0  0  0  0  0
  -26.3940  -29.3410   27.8520 C   0  0  0  0  0  1  0  0  0  0  0  0
  -27.3890  -27.8980   26.0930 C   0  0  0  0  0  1  0  0  0  0  0  0
  -28.8750  -29.2920   27.4830 C   0  0  0  0  0  1  0  0  0  0  0  0
  1  3  2  0
  2 50  1  0
  2  1  1  0
  4  2  1  0
  5  8  1  0
  6  5  1  0
  6  9  1  0
  7 10  1  0
  8  1  1  0
  8 10  2  0
  9  7  1  0
 10 11  1  0
 13 18  1  0
 14 15  1  0
 14 13  1  0
 16 15  1  0
 16 25  1  0
 16 17  1  0
 18 12  1  0
 18 17  1  0
 19 12  2  0
 20 12  1  0
 21 20  1  0
 22 23  2  0
 23 42  1  0
 24 23  1  0
 24 27  1  0
 25 26  1  0
 25 22  1  0
 26 24  2  0
 27 28  1  0
 28 29  2  0
 30 33  1  0
 30 29  1  0
 31 30  2  0
 32 31  1  0
 32 27  2  0
 33 34  1  0
 34 35  1  0
 35 36  2  0
 37 36  1  0
 37 41  1  0
 38 37  2  0
 39 34  2  0
 39 38  1  0
 40 39  1  0
 42 43  1  0
 43 46  1  0
 43 45  1  0
 44 42  2  0
 47 48  1  0
 47 22  1  0
 49 47  1  0
 51 50  1  0
 52 53  1  0
 53 54  1  1
 53 51  1  0
 55 53  1  0
 56 55  1  0
 57 59  1  0
 58 69  2  0
 59 64  1  0
 60 70  1  0
 60 68  1  0
 61 63  1  0
 61 67  1  0
 62 68  1  0
 63 62  1  0
 64 63  2  0
 65 59  2  0
 65 66  1  0
 66 61  2  0
 67 60  1  0
 68 58  1  0
 70 72  2  0
 71 70  1  0
 73 71  1  0
 74 79  1  0
 75 71  1  0
 76 75  1  0
 77 78  1  0
 77 76  1  0
 78 74  1  0
 79 75  1  0
 79 80  2  0
 81 80  1  0
 82 81  2  0
 83 74  2  0
 83 82  1  0
 84 58  1  0
 84 85  1  0
 84 94  1  0
 85 88  1  0
 86 85  1  0
 86 90  1  0
 87 86  2  0
 90 89  1  0
 90 92  1  0
 92 93  1  0
 92 91  1  0
 94 97  1  1
 94 95  1  0
 96 94  1  0
M  ISO  4  12 100  20 100  56 101  57 101
M  END
>  <TORSDO>  (76) 
F 22

>  <SCORE>  (76) 
-11.120

>  <name>  (76) 
75

>  <ligand_id>  (76) 
75

>  <original_smiles>  (76) 
[H]c1c([H])c([H])c2c(c1[H])C([H])([H])C([H])([H])C([H])([H])C2([H])N([H])C(=O)C1([H])N(C(=O)C([H])(N([H])C(=O)C([H])(N([H])C([H])([H])[H])C([H])([H])[H])C(C([H])([H])[H])(C([H])([H])[H])C([H])([H])[H])C([H])([H])c2c([H])c(OC([H])([H])C([H])([H])[N+]([H])(C([H])([H])[H])C([H])([H])C([H])([H])N([H])C(=O)c3c([H])c([H])c(N([H])C(=O)N4C([H])([H])C([H])([H])C([H])([H])C([H])(n5nc(-c6c([H])c([H])c(Oc7c([H])c([H])c(F)c([H])c7F)c([H])c6[H])c(C(=O)N([H])[H])c5N([H])[H])C4([H])[H])c([H])c3F)c([H])c([H])c2C1([H])[H]

>  <smiles>  (76) 
[H]c1c([H])c([H])c2c(c1[H])C([H])([H])C([H])([H])C([H])([H])C2([H])N([H])C(=O)C1([H])N(C(=O)C([H])(N([H])C(=O)C([H])(N([H])C([H])([H])[H])C([H])([H])[H])C(C([H])([H])[H])(C([H])([H])[H])C([H])([H])[H])C([H])([H])c2c([H])c(OC([H])([H])C([H])([H])[N+]([H])(C([H])([H])[H])C([H])([H])C([H])([H])N([H])C(=O)c3c([H])c([H])c(N([H])C(=O)N4C([H])([H])C([H])([H])C([H])([H])C([H])(n5nc(-c6c([H])c([H])c(Oc7c([H])c([H])c(F)c([H])c7F)c([H])c6[H])c(C(=O)N([H])[H])c5N([H])[H])C4([H])[H])c([H])c3F)c([H])c([H])c2C1([H])[H]

$$$$
76:0:0
     RDKit          3D

 87 95  0  0  1  0  0  0  0  0999 V2000
  -28.9390  -21.2050   17.9940 C   0  0  0  0  0  3  0  0  0  0  0  0
  -29.2130  -19.9730   18.6570 C   0  0  0  0  0  3  0  0  0  0  0  0
  -28.6620  -22.4480   18.6370 C   0  0  0  0  0  3  0  0  0  0  0  0
  -28.9330  -21.2290   20.6960 C   0  0  0  0  0  3  0  0  0  0  0  0
  -29.2580  -19.8410   20.0610 C   0  0  0  0  0  0  0  0  0  0  0  0
  -28.6150  -22.6060   20.0390 C   0  0  0  0  0  0  0  0  0  0  0  0
  -29.8030  -18.2760   20.6910 C   0  0  0  0  0  2  0  0  0  0  0  0
  -30.3880  -15.3430   20.2990 C   0  0  0  0  0  0  0  0  0  0  0  0
  -30.4000  -12.8810   19.4180 C   0  0  0  0  0  2  0  0  0  0  0  0
  -29.4870  -12.6140   18.1940 C   0  0  0  0  0  2  0  0  0  0  0  0
  -28.0420  -12.3250   18.6390 C   0  0  0  0  0  2  0  0  0  0  0  0
  -27.5720  -13.3030   19.7440 C   0  0  0  0  0  3  0  0  0  0  0  0
  -28.6160  -13.4960   20.8630 C   0  0  0  0  0  2  0  0  0  0  0  0
  -29.8260  -14.0310   20.2140 N   0  0  0  0  0  0  0  0  0  0  0  0
  -31.6220  -15.3240   20.1670 O   0  0  0  0  0  0  0  0  0  0  0  0
  -29.6180  -16.6300   20.3330 N   0  0  0  0  0  0  0  0  0  0  0  0
  -28.6350  -16.4140   20.2560 H   0  0  0  0  0  0  0  0  0  0  0  0
  -25.2010  -13.8510   20.4940 C   0  0  0  0  0  0  0  0  0  0  0  0
  -24.1410  -13.0710   20.8610 C   0  0  0  0  0  0  0  0  0  0  0  0
  -24.6140  -11.7230   20.8370 C   0  0  0  0  0  0  0  0  0  0  0  0
  -26.2470  -12.9800   20.2560 N   0  0  0  0  0  0  0  0  0  0  0  0
  -25.9070  -11.6930   20.5320 N   0  0  0  0  0  0  0  0  0  0  0  0
  -23.8900  -10.4580   21.0250 C   0  0  0  0  0  0  0  0  0  0  0  0
  -24.3180   -9.4930   21.9640 C   0  0  0  0  0  3  0  0  0  0  0  0
  -23.5900   -8.2960   22.1420 C   0  0  0  0  0  3  0  0  0  0  0  0
  -22.4220   -8.0550   21.3810 C   0  0  0  0  0  0  0  0  0  0  0  0
  -22.0140   -9.0090   20.4310 C   0  0  0  0  0  3  0  0  0  0  0  0
  -22.7420  -10.1970   20.2510 C   0  0  0  0  0  3  0  0  0  0  0  0
  -21.6670   -6.9100   21.4680 O   0  0  0  0  0  0  0  0  0  0  0  0
  -21.6120   -6.1720   22.6220 C   0  0  0  0  0  0  0  0  0  0  0  0
  -21.1730   -6.7290   23.8430 C   0  0  0  0  0  3  0  0  0  0  0  0
  -21.0640   -5.9160   24.9890 C   0  0  0  0  0  3  0  0  0  0  0  0
  -21.3830   -4.5480   24.9160 C   0  0  0  0  0  0  0  0  0  0  0  0
  -21.8150   -3.9900   23.7000 C   0  0  0  0  0  3  0  0  0  0  0  0
  -21.9250   -4.7990   22.5560 C   0  0  0  0  0  0  0  0  0  0  0  0
  -22.3220   -4.2510   21.3810 F   0  0  0  0  0  0  0  0  0  0  0  0
  -21.2720   -3.7650   26.0150 F   0  0  0  0  0  0  0  0  0  0  0  0
  -22.7390  -13.5430   21.1150 C   0  0  0  0  0  0  0  0  0  0  0  0
  -22.0050  -12.8480   21.9770 N   0  0  0  0  0  0  0  0  0  0  0  0
  -22.3050  -14.5660   20.5870 O   0  0  0  0  0  0  0  0  0  0  0  0
  -22.3710  -12.0210   22.4260 H   0  0  0  0  0  0  0  0  0  0  0  0
  -21.0640  -13.1470   22.1910 H   0  0  0  0  0  0  0  0  0  0  0  0
  -25.3540  -15.2220   20.3120 N   0  0  0  0  0  0  0  0  0  0  0  0
  -24.5790  -15.8670   20.4130 H   0  0  0  0  0  0  0  0  0  0  0  0
  -26.1890  -15.6640   19.9490 H   0  0  0  0  0  0  0  0  0  0  0  0
  -28.0290  -24.1710   20.6330 C   0  0  0  0  0  2  0  0  0  0  0  0
  -28.2310  -25.7760   20.2190 O   0  0  0  0  0  0  0  0  0  0  0  0
  -24.6410  -31.8200   23.1860 C   0  0  0  0  0  0  0  0  0  0  0  0
  -27.2150  -26.8870   20.2340 C   0  0  0  0  0  0  0  0  0  0  0  0
  -23.4580  -30.4100   21.5550 C   0  0  0  0  0  3  0  0  0  0  0  0
  -24.9170  -28.7870   20.1590 C   0  0  0  0  0  0  0  0  0  0  0  0
  -26.0280  -30.6150   21.4210 C   0  0  0  0  0  2  0  0  0  0  0  0
  -26.1040  -29.1930   20.7790 C   0  0  0  0  0  0  0  0  0  0  0  0
  -27.2510  -28.2680   20.7830 C   0  0  0  0  0  3  0  0  0  0  0  0
  -25.9920  -26.6400   19.5700 C   0  0  0  0  0  3  0  0  0  0  0  0
  -24.8870  -27.5310   19.5330 C   0  0  0  0  0  3  0  0  0  0  0  0
  -23.6990  -29.7120   20.1870 C   0  0  0  0  0  2  0  0  0  0  0  0
  -24.7310  -30.9760   22.1070 N   0  0  0  0  0  0  0  0  0  0  0  0
  -23.5460  -32.1130   23.6990 O   0  0  0  0  0  0  0  0  0  0  0  0
  -22.7580  -29.4220   22.5260 C   0  0  0  0  0  0  0  0  0  0  0  0
  -21.4260  -29.2660   22.4040 N   0  0  0  0  0  0  0  0  0  0  0  0
  -23.4200  -28.7970   23.3560 O   0  0  0  0  0  0  0  0  0  0  0  0
  -20.9440  -29.8210   21.7120 H   0  0  0  0  0  0  0  0  0  0  0  0
  -18.0370  -28.0790   22.9330 C   0  0  0  0  0  0  0  0  0  0  0  0
  -20.6000  -28.3340   23.1810 C   0  0  0  0  0  3  0  0  0  0  0  0
  -20.6900  -26.9010   22.6070 C   0  0  0  0  0  2  0  0  0  0  0  0
  -19.5810  -26.5830   21.5990 C   0  0  0  0  0  2  0  0  0  0  0  0
  -18.2040  -26.7310   22.2520 C   0  0  0  0  0  2  0  0  0  0  0  0
  -19.1610  -28.8390   23.3550 C   0  0  0  0  0  0  0  0  0  0  0  0
  -18.9480  -30.0980   23.9560 C   0  0  0  0  0  3  0  0  0  0  0  0
  -17.6450  -30.5990   24.1370 C   0  0  0  0  0  3  0  0  0  0  0  0
  -16.5360  -29.8380   23.7290 C   0  0  0  0  0  3  0  0  0  0  0  0
  -16.7330  -28.5800   23.1330 C   0  0  0  0  0  3  0  0  0  0  0  0
  -25.9040  -32.4730   23.8220 C   0  0  0  0  0  3  0  0  0  0  0  0
  -25.5790  -33.8730   24.1490 N   0  0  0  0  0  0  0  0  0  0  0  0
  -25.9110  -34.9350   23.4030 C   0  0  0  0  0  0  0  0  0  0  0  0
  -26.5860  -34.8380   22.3750 O   0  0  0  0  0  0  0  0  0  0  0  0
  -24.9780  -34.0200   24.9470 H   0  0  0  0  0  0  0  0  0  0  0  0
  -24.1810  -36.7330   23.0580 C   0  0  0  0  0  1  0  0  0  0  0  0
  -25.4230  -36.3220   23.8680 C   0  0  0  0  0  3  0  0  0  0  0  0
  -27.5530  -37.2130   24.7060 C   0  0  0  0  0  1  0  0  0  0  0  0
  -26.4530  -37.3790   23.7600 N   0  0  0  0  0  0  0  0  0  0  0  0
  -26.0440  -38.2980   23.9080 H   0  0  0  0  0  0  0  0  0  0  0  0
  -26.4060  -31.7190   25.1170 C   0  0  1  0  0  0  0  0  0  0  0  0
  -25.3000  -31.4950   26.1750 C   0  0  0  0  0  1  0  0  0  0  0  0
  -26.9930  -30.3350   24.7580 C   0  0  0  0  0  1  0  0  0  0  0  0
  -27.5480  -32.5220   25.7810 C   0  0  0  0  0  1  0  0  0  0  0  0
  1  3  2  0
  1  2  1  0
  2  5  2  0
  3  6  1  0
  5  7  1  0
  5  4  1  0
  6 46  1  0
  6  4  2  0
  8 16  1  0
  9 14  1  0
 10 11  1  0
 10  9  1  0
 12 11  1  0
 12 21  1  0
 12 13  1  0
 14  8  1  0
 14 13  1  0
 15  8  2  0
 16  7  1  0
 17 16  1  0
 18 19  2  0
 19 38  1  0
 20 19  1  0
 20 23  1  0
 21 18  1  0
 21 22  1  0
 22 20  2  0
 23 24  1  0
 24 25  2  0
 26 29  1  0
 26 25  1  0
 27 26  2  0
 28 27  1  0
 28 23  2  0
 29 30  1  0
 30 31  1  0
 31 32  2  0
 33 32  1  0
 33 37  1  0
 34 33  2  0
 35 30  2  0
 35 34  1  0
 36 35  1  0
 38 39  1  0
 39 42  1  0
 39 41  1  0
 40 38  2  0
 43 44  1  0
 43 18  1  0
 45 43  1  0
 47 49  1  0
 47 46  1  0
 48 59  2  0
 49 54  1  0
 50 58  1  0
 50 60  1  0
 51 57  1  0
 51 53  1  0
 52 58  1  0
 53 54  2  0
 53 52  1  0
 55 49  2  0
 56 55  1  0
 56 51  2  0
 57 50  1  0
 58 48  1  0
 60 62  2  0
 61 60  1  0
 63 61  1  0
 64 73  2  0
 64 69  1  0
 65 61  1  0
 65 69  1  0
 66 65  1  0
 67 68  1  0
 67 66  1  0
 68 64  1  0
 69 70  2  0
 70 71  1  0
 72 71  2  0
 73 72  1  0
 74 48  1  0
 74 75  1  0
 74 84  1  0
 75 78  1  0
 76 80  1  0
 76 75  1  0
 77 76  2  0
 80 79  1  0
 82 80  1  0
 82 83  1  0
 82 81  1  0
 84 87  1  1
 84 85  1  0
 86 84  1  0
M  ISO  4   8 100  16 100  46 101  47 101
M  END
>  <TORSDO>  (77) 
F 18

>  <SCORE>  (77) 
-16.530

>  <name>  (77) 
76

>  <ligand_id>  (77) 
76

>  <original_smiles>  (77) 
[H]c1c([H])c(C([H])([H])Oc2c([H])c([H])c3c(c2[H])C([H])([H])N(C(=O)C([H])(N([H])C(=O)C([H])(N([H])C([H])([H])[H])C([H])([H])[H])C(C([H])([H])[H])(C([H])([H])[H])C([H])([H])[H])C([H])(C(=O)N([H])C2([H])c4c([H])c([H])c([H])c([H])c4C([H])([H])C([H])([H])C2([H])[H])C3([H])[H])c([H])c(C([H])([H])N([H])C(=O)N2C([H])([H])C([H])([H])C([H])([H])C([H])(n3nc(-c4c([H])c([H])c(Oc5c([H])c([H])c(F)c([H])c5F)c([H])c4[H])c(C(=O)N([H])[H])c3N([H])[H])C2([H])[H])c1[H]

>  <smiles>  (77) 
[H]c1c([H])c(C([H])([H])Oc2c([H])c([H])c3c(c2[H])C([H])([H])N(C(=O)C([H])(N([H])C(=O)C([H])(N([H])C([H])([H])[H])C([H])([H])[H])C(C([H])([H])[H])(C([H])([H])[H])C([H])([H])[H])C([H])(C(=O)N([H])C2([H])c4c([H])c([H])c([H])c([H])c4C([H])([H])C([H])([H])C2([H])[H])C3([H])[H])c([H])c(C([H])([H])N([H])C(=O)N2C([H])([H])C([H])([H])C([H])([H])C([H])(n3nc(-c4c([H])c([H])c(Oc5c([H])c([H])c(F)c([H])c5F)c([H])c4[H])c(C(=O)N([H])[H])c3N([H])[H])C2([H])[H])c1[H]

$$$$
77:0:0
     RDKit          3D

 94102  0  0  1  0  0  0  0  0999 V2000
  -28.7590  -17.9530   20.4710 C   0  0  0  0  0  3  0  0  0  0  0  0
  -30.7340  -19.1440   21.2080 C   0  0  0  0  0  3  0  0  0  0  0  0
  -30.0180  -17.9310   21.1120 C   0  0  0  0  0  0  0  0  0  0  0  0
  -28.9510  -20.3780   20.0470 C   0  0  0  0  0  0  0  0  0  0  0  0
  -28.2370  -19.1570   19.9400 C   0  0  0  0  0  0  0  0  0  0  0  0
  -30.2140  -20.3490   20.6830 C   0  0  0  0  0  0  0  0  0  0  0  0
  -27.0290  -19.1230   19.3250 F   0  0  0  0  0  0  0  0  0  0  0  0
  -30.9510  -21.4800   20.7870 F   0  0  0  0  0  0  0  0  0  0  0  0
  -30.6130  -16.6610   21.7400 C   0  0  0  0  0  2  0  0  0  0  0  0
  -30.6710  -14.4450   20.5470 C   0  0  0  0  0  0  0  0  0  0  0  0
  -30.3580  -12.3240   19.3120 C   0  0  0  0  0  2  0  0  0  0  0  0
  -29.4140  -12.5440   18.1130 C   0  0  0  0  0  2  0  0  0  0  0  0
  -27.9400  -12.4010   18.5410 C   0  0  0  0  0  2  0  0  0  0  0  0
  -27.6060  -13.2290   19.8110 C   0  0  0  0  0  3  0  0  0  0  0  0
  -28.6540  -12.9750   20.9160 C   0  0  0  0  0  2  0  0  0  0  0  0
  -29.9840  -13.2860   20.3630 N   0  0  0  0  0  0  0  0  0  0  0  0
  -31.7610  -14.6660   20.0130 O   0  0  0  0  0  0  0  0  0  0  0  0
  -30.0570  -15.3700   21.3070 N   0  0  0  0  0  0  0  0  0  0  0  0
  -29.1670  -15.1020   21.7010 H   0  0  0  0  0  0  0  0  0  0  0  0
  -25.2060  -13.8510   20.5090 C   0  0  0  0  0  0  0  0  0  0  0  0
  -24.1340  -13.0850   20.8800 C   0  0  0  0  0  0  0  0  0  0  0  0
  -24.5890  -11.7320   20.8560 C   0  0  0  0  0  0  0  0  0  0  0  0
  -26.2490  -12.9650   20.2860 N   0  0  0  0  0  0  0  0  0  0  0  0
  -25.8800  -11.6850   20.5500 N   0  0  0  0  0  0  0  0  0  0  0  0
  -23.8590  -10.4720   21.0480 C   0  0  0  0  0  0  0  0  0  0  0  0
  -24.2940   -9.4990   21.9760 C   0  0  0  0  0  3  0  0  0  0  0  0
  -23.5630   -8.3040   22.1560 C   0  0  0  0  0  3  0  0  0  0  0  0
  -22.3840   -8.0740   21.4080 C   0  0  0  0  0  0  0  0  0  0  0  0
  -21.9680   -9.0360   20.4690 C   0  0  0  0  0  3  0  0  0  0  0  0
  -22.7000  -10.2220   20.2890 C   0  0  0  0  0  3  0  0  0  0  0  0
  -21.6240   -6.9330   21.4980 O   0  0  0  0  0  0  0  0  0  0  0  0
  -21.5880   -6.1820   22.6450 C   0  0  0  0  0  0  0  0  0  0  0  0
  -21.1870   -6.7300   23.8830 C   0  0  0  0  0  3  0  0  0  0  0  0
  -21.0960   -5.9050   25.0220 C   0  0  0  0  0  3  0  0  0  0  0  0
  -21.3950   -4.5340   24.9250 C   0  0  0  0  0  0  0  0  0  0  0  0
  -21.7910   -3.9850   23.6920 C   0  0  0  0  0  3  0  0  0  0  0  0
  -21.8840   -4.8060   22.5560 C   0  0  0  0  0  0  0  0  0  0  0  0
  -22.2440   -4.2680   21.3650 F   0  0  0  0  0  0  0  0  0  0  0  0
  -21.3030   -3.7400   26.0160 F   0  0  0  0  0  0  0  0  0  0  0  0
  -22.7350  -13.5680   21.1460 C   0  0  0  0  0  0  0  0  0  0  0  0
  -21.9990  -12.8780   22.0100 N   0  0  0  0  0  0  0  0  0  0  0  0
  -22.3020  -14.5910   20.6170 O   0  0  0  0  0  0  0  0  0  0  0  0
  -22.3600  -12.0490   22.4590 H   0  0  0  0  0  0  0  0  0  0  0  0
  -21.0640  -13.1890   22.2320 H   0  0  0  0  0  0  0  0  0  0  0  0
  -25.3740  -15.2190   20.3230 N   0  0  0  0  0  0  0  0  0  0  0  0
  -24.6050  -15.8730   20.4160 H   0  0  0  0  0  0  0  0  0  0  0  0
  -26.2090  -15.6450   19.9430 H   0  0  0  0  0  0  0  0  0  0  0  0
  -28.4040  -21.6740   19.4110 C   0  0  0  0  0  2  0  0  0  0  0  0
  -28.3150  -24.1660   19.7680 C   0  0  0  0  0  0  0  0  0  0  0  0
  -28.4370  -22.9020   20.2310 N   0  0  0  0  0  0  0  0  0  0  0  0
  -28.2030  -24.4060   18.5620 O   0  0  0  0  0  0  0  0  0  0  0  0
  -28.5280  -22.7820   21.2310 H   0  0  0  0  0  0  0  0  0  0  0  0
  -28.3030  -25.3240   20.8030 C   0  0  0  0  0  2  0  0  0  0  0  0
  -28.4060  -26.6460   20.2140 O   0  0  0  0  0  0  0  0  0  0  0  0
  -24.6090  -31.8900   23.2510 C   0  0  0  0  0  0  0  0  0  0  0  0
  -27.2520  -27.4050   20.2090 C   0  0  0  0  0  0  0  0  0  0  0  0
  -23.4090  -30.4800   21.6100 C   0  0  0  0  0  3  0  0  0  0  0  0
  -24.8660  -28.9330   20.1990 C   0  0  0  0  0  0  0  0  0  0  0  0
  -25.9360  -30.8310   21.4200 C   0  0  0  0  0  2  0  0  0  0  0  0
  -26.0250  -29.4540   20.7880 C   0  0  0  0  0  0  0  0  0  0  0  0
  -27.2250  -28.7000   20.7840 C   0  0  0  0  0  3  0  0  0  0  0  0
  -26.0780  -26.9060   19.6100 C   0  0  0  0  0  3  0  0  0  0  0  0
  -24.8890  -27.6590   19.6030 C   0  0  0  0  0  3  0  0  0  0  0  0
  -23.6230  -29.7950   20.2360 C   0  0  0  0  0  2  0  0  0  0  0  0
  -24.6700  -31.0830   22.1540 N   0  0  0  0  0  0  0  0  0  0  0  0
  -23.5250  -32.1650   23.7860 O   0  0  0  0  0  0  0  0  0  0  0  0
  -22.7520  -29.4650   22.5740 C   0  0  0  0  0  0  0  0  0  0  0  0
  -21.4280  -29.2870   22.4450 N   0  0  0  0  0  0  0  0  0  0  0  0
  -23.4320  -28.8400   23.3930 O   0  0  0  0  0  0  0  0  0  0  0  0
  -20.9390  -29.8450   21.7580 H   0  0  0  0  0  0  0  0  0  0  0  0
  -18.0480  -28.1050   22.9450 C   0  0  0  0  0  0  0  0  0  0  0  0
  -20.6070  -28.3540   23.2170 C   0  0  0  0  0  3  0  0  0  0  0  0
  -20.7020  -26.9200   22.6430 C   0  0  0  0  0  2  0  0  0  0  0  0
  -19.5990  -26.6020   21.6290 C   0  0  0  0  0  2  0  0  0  0  0  0
  -18.2190  -26.7540   22.2720 C   0  0  0  0  0  2  0  0  0  0  0  0
  -19.1690  -28.8630   23.3750 C   0  0  0  0  0  0  0  0  0  0  0  0
  -18.9570  -30.1280   23.9640 C   0  0  0  0  0  3  0  0  0  0  0  0
  -17.6540  -30.6370   24.1270 C   0  0  0  0  0  3  0  0  0  0  0  0
  -16.5470  -29.8750   23.7130 C   0  0  0  0  0  3  0  0  0  0  0  0
  -16.7440  -28.6120   23.1290 C   0  0  0  0  0  3  0  0  0  0  0  0
  -25.8920  -32.5230   23.8730 C   0  0  0  0  0  3  0  0  0  0  0  0
  -26.4060  -31.7550   25.1520 C   0  0  1  0  0  0  0  0  0  0  0  0
  -25.3110  -31.5230   26.2190 C   0  0  0  0  0  1  0  0  0  0  0  0
  -26.9880  -30.3770   24.7610 C   0  0  0  0  0  1  0  0  0  0  0  0
  -27.5570  -32.5500   25.8130 C   0  0  0  0  0  1  0  0  0  0  0  0
  -25.5820  -33.9220   24.1980 N   0  0  0  0  0  0  0  0  0  0  0  0
  -25.9130  -34.9720   23.4360 C   0  0  0  0  0  0  0  0  0  0  0  0
  -26.5850  -34.8650   22.4050 O   0  0  0  0  0  0  0  0  0  0  0  0
  -24.9830  -34.0770   24.9950 H   0  0  0  0  0  0  0  0  0  0  0  0
  -24.1810  -36.7580   23.0740 C   0  0  0  0  0  1  0  0  0  0  0  0
  -25.4220  -36.3610   23.8870 C   0  0  0  0  0  3  0  0  0  0  0  0
  -27.5550  -37.2530   24.7130 C   0  0  0  0  0  1  0  0  0  0  0  0
  -26.4540  -37.4150   23.7700 N   0  0  0  0  0  0  0  0  0  0  0  0
  -26.0460  -38.3360   23.9120 H   0  0  0  0  0  0  0  0  0  0  0  0
  1  3  1  0
  3  2  2  0
  3  9  1  0
  4  6  2  0
  5  4  1  0
  5  1  2  0
  6  8  1  0
  6  2  1  0
  7  5  1  0
 10 18  1  0
 11 16  1  0
 12 13  1  0
 12 11  1  0
 14 13  1  0
 14 23  1  0
 14 15  1  0
 16 10  1  0
 16 15  1  0
 17 10  2  0
 18 19  1  0
 18  9  1  0
 20 21  2  0
 21 40  1  0
 22 21  1  0
 22 25  1  0
 23 20  1  0
 23 24  1  0
 24 22  2  0
 25 26  1  0
 26 27  2  0
 28 31  1  0
 28 27  1  0
 29 28  2  0
 30 29  1  0
 30 25  2  0
 31 32  1  0
 32 33  1  0
 33 34  2  0
 35 34  1  0
 35 39  1  0
 36 35  2  0
 37 32  2  0
 37 36  1  0
 38 37  1  0
 40 41  1  0
 41 44  1  0
 41 43  1  0
 42 40  2  0
 45 46  1  0
 45 20  1  0
 47 45  1  0
 48  4  1  0
 48 50  1  0
 49 50  1  0
 49 53  1  0
 50 52  1  0
 51 49  2  0
 54 53  1  0
 55 66  2  0
 56 54  1  0
 56 61  1  0
 57 65  1  0
 57 67  1  0
 58 64  1  0
 58 60  1  0
 59 65  1  0
 60 59  1  0
 61 60  2  0
 62 56  2  0
 63 62  1  0
 63 58  2  0
 64 57  1  0
 65 55  1  0
 67 69  2  0
 68 67  1  0
 70 68  1  0
 71 80  2  0
 71 76  1  0
 72 68  1  0
 72 76  1  0
 73 72  1  0
 74 75  1  0
 74 73  1  0
 75 71  1  0
 76 77  2  0
 77 78  1  0
 79 78  2  0
 80 79  1  0
 81 55  1  0
 81 86  1  0
 81 82  1  0
 82 85  1  1
 82 83  1  0
 84 82  1  0
 86 89  1  0
 87 91  1  0
 87 86  1  0
 88 87  2  0
 91 90  1  0
 93 91  1  0
 93 94  1  0
 93 92  1  0
M  ISO  4  10 100  18 100  53 101  54 101
M  END
>  <TORSDO>  (78) 
F 20

>  <SCORE>  (78) 
-14.375

>  <name>  (78) 
77

>  <ligand_id>  (78) 
77

>  <original_smiles>  (78) 
[H]c1c([H])c([H])c2c(c1[H])C([H])([H])C([H])([H])C([H])([H])C2([H])N([H])C(=O)C1([H])N(C(=O)C([H])(N([H])C(=O)C([H])(N([H])C([H])([H])[H])C([H])([H])[H])C(C([H])([H])[H])(C([H])([H])[H])C([H])([H])[H])C([H])([H])c2c([H])c(OC([H])([H])C(=O)N([H])C([H])([H])c3c(F)c([H])c(C([H])([H])N([H])C(=O)N4C([H])([H])C([H])([H])C([H])([H])C([H])(n5nc(-c6c([H])c([H])c(Oc7c([H])c([H])c(F)c([H])c7F)c([H])c6[H])c(C(=O)N([H])[H])c5N([H])[H])C4([H])[H])c([H])c3F)c([H])c([H])c2C1([H])[H]

>  <smiles>  (78) 
[H]c1c([H])c([H])c2c(c1[H])C([H])([H])C([H])([H])C([H])([H])C2([H])N([H])C(=O)C1([H])N(C(=O)C([H])(N([H])C(=O)C([H])(N([H])C([H])([H])[H])C([H])([H])[H])C(C([H])([H])[H])(C([H])([H])[H])C([H])([H])[H])C([H])([H])c2c([H])c(OC([H])([H])C(=O)N([H])C([H])([H])c3c(F)c([H])c(C([H])([H])N([H])C(=O)N4C([H])([H])C([H])([H])C([H])([H])C([H])(n5nc(-c6c([H])c([H])c(Oc7c([H])c([H])c(F)c([H])c7F)c([H])c6[H])c(C(=O)N([H])[H])c5N([H])[H])C4([H])[H])c([H])c3F)c([H])c([H])c2C1([H])[H]

$$$$
78:0:0
     RDKit          3D

 93101  0  0  1  0  0  0  0  0999 V2000
  -30.2510  -21.7230   20.3440 C   0  0  0  0  0  2  0  0  0  0  0  0
  -28.8410  -19.4590   20.3580 C   0  0  0  0  0  3  0  0  0  0  0  0
  -31.1890  -17.9120   20.3160 C   0  0  0  0  0  3  0  0  0  0  0  0
  -30.0750  -20.1560   20.2930 C   0  0  0  0  0  0  0  0  0  0  0  0
  -29.9560  -17.2150   20.4040 C   0  0  0  0  0  0  0  0  0  0  0  0
  -28.7890  -18.0300   20.4120 C   0  0  0  0  0  0  0  0  0  0  0  0
  -31.2410  -19.3370   20.2660 C   0  0  0  0  0  0  0  0  0  0  0  0
  -27.5810  -17.4190   20.4850 F   0  0  0  0  0  0  0  0  0  0  0  0
  -32.4570  -19.9300   20.2080 F   0  0  0  0  0  0  0  0  0  0  0  0
  -30.5810  -14.7000   20.1260 C   0  0  0  0  0  0  0  0  0  0  0  0
  -30.3020  -12.4960   19.0100 C   0  0  0  0  0  2  0  0  0  0  0  0
  -29.3040  -12.6660   17.8430 C   0  0  0  0  0  2  0  0  0  0  0  0
  -27.8500  -12.5100   18.3340 C   0  0  0  0  0  2  0  0  0  0  0  0
  -27.5550  -13.3360   19.6160 C   0  0  0  0  0  3  0  0  0  0  0  0
  -28.6630  -13.1380   20.6750 C   0  0  0  0  0  2  0  0  0  0  0  0
  -29.9470  -13.4870   20.0460 N   0  0  0  0  0  0  0  0  0  0  0  0
  -31.7330  -14.8450   19.7100 O   0  0  0  0  0  0  0  0  0  0  0  0
  -29.7980  -15.7590   20.5060 N   0  0  0  0  0  0  0  0  0  0  0  0
  -28.8760  -15.4810   20.8060 H   0  0  0  0  0  0  0  0  0  0  0  0
  -25.1960  -13.9280   20.4420 C   0  0  0  0  0  0  0  0  0  0  0  0
  -24.1410  -13.1500   20.8370 C   0  0  0  0  0  0  0  0  0  0  0  0
  -24.5990  -11.7990   20.7660 C   0  0  0  0  0  0  0  0  0  0  0  0
  -26.2280  -13.0490   20.1520 N   0  0  0  0  0  0  0  0  0  0  0  0
  -25.8760  -11.7630   20.4060 N   0  0  0  0  0  0  0  0  0  0  0  0
  -23.8770  -10.5350   20.9630 C   0  0  0  0  0  0  0  0  0  0  0  0
  -24.3170   -9.5700   21.8960 C   0  0  0  0  0  3  0  0  0  0  0  0
  -23.5950   -8.3710   22.0800 C   0  0  0  0  0  3  0  0  0  0  0  0
  -22.4170   -8.1290   21.3330 C   0  0  0  0  0  0  0  0  0  0  0  0
  -21.9960   -9.0830   20.3890 C   0  0  0  0  0  3  0  0  0  0  0  0
  -22.7190  -10.2730   20.2030 C   0  0  0  0  0  3  0  0  0  0  0  0
  -21.6660   -6.9830   21.4280 O   0  0  0  0  0  0  0  0  0  0  0  0
  -21.5900   -6.2670   22.5950 C   0  0  0  0  0  0  0  0  0  0  0  0
  -21.0990   -6.8370   23.7890 C   0  0  0  0  0  3  0  0  0  0  0  0
  -20.9740   -6.0450   24.9490 C   0  0  0  0  0  3  0  0  0  0  0  0
  -21.3280   -4.6840   24.9130 C   0  0  0  0  0  0  0  0  0  0  0  0
  -21.8110   -4.1120   23.7230 C   0  0  0  0  0  3  0  0  0  0  0  0
  -21.9390   -4.9010   22.5660 C   0  0  0  0  0  0  0  0  0  0  0  0
  -22.3850   -4.3400   21.4170 F   0  0  0  0  0  0  0  0  0  0  0  0
  -21.2000   -3.9210   26.0240 F   0  0  0  0  0  0  0  0  0  0  0  0
  -22.7580  -13.6260   21.1740 C   0  0  0  0  0  0  0  0  0  0  0  0
  -22.0610  -12.9130   22.0520 N   0  0  0  0  0  0  0  0  0  0  0  0
  -22.3040  -14.6640   20.6940 O   0  0  0  0  0  0  0  0  0  0  0  0
  -22.4410  -12.0730   22.4610 H   0  0  0  0  0  0  0  0  0  0  0  0
  -21.1340  -13.2130   22.3200 H   0  0  0  0  0  0  0  0  0  0  0  0
  -25.3550  -15.3010   20.2890 N   0  0  0  0  0  0  0  0  0  0  0  0
  -24.6030  -15.9520   20.4850 H   0  0  0  0  0  0  0  0  0  0  0  0
  -26.2150  -15.7690   20.0300 H   0  0  0  0  0  0  0  0  0  0  0  0
  -29.2740  -24.0780   20.3060 C   0  0  0  0  0  0  0  0  0  0  0  0
  -29.1440  -22.7200   20.1300 N   0  0  0  0  0  0  0  0  0  0  0  0
  -30.3220  -24.5550   20.7520 O   0  0  0  0  0  0  0  0  0  0  0  0
  -28.2740  -22.3750   19.7470 H   0  0  0  0  0  0  0  0  0  0  0  0
  -28.1050  -25.0640   19.9210 C   0  0  0  0  0  2  0  0  0  0  0  0
  -28.3280  -26.5090   20.1950 O   0  0  0  0  0  0  0  0  0  0  0  0
  -24.5860  -31.8860   23.2470 C   0  0  0  0  0  0  0  0  0  0  0  0
  -27.2070  -27.3580   20.1500 C   0  0  0  0  0  0  0  0  0  0  0  0
  -23.3860  -30.4990   21.5960 C   0  0  0  0  0  3  0  0  0  0  0  0
  -24.8370  -28.9670   20.1580 C   0  0  0  0  0  0  0  0  0  0  0  0
  -25.9250  -30.8240   21.4170 C   0  0  0  0  0  2  0  0  0  0  0  0
  -26.0080  -29.4520   20.7570 C   0  0  0  0  0  0  0  0  0  0  0  0
  -27.1950  -28.6600   20.7440 C   0  0  0  0  0  3  0  0  0  0  0  0
  -26.0100  -26.9300   19.5290 C   0  0  0  0  0  3  0  0  0  0  0  0
  -24.8410  -27.7110   19.5370 C   0  0  0  0  0  3  0  0  0  0  0  0
  -23.6000  -29.8390   20.2110 C   0  0  0  0  0  2  0  0  0  0  0  0
  -24.6510  -31.0880   22.1430 N   0  0  0  0  0  0  0  0  0  0  0  0
  -23.5020  -32.1560   23.7830 O   0  0  0  0  0  0  0  0  0  0  0  0
  -22.7250  -29.4720   22.5470 C   0  0  0  0  0  0  0  0  0  0  0  0
  -21.3980  -29.2940   22.4200 N   0  0  0  0  0  0  0  0  0  0  0  0
  -23.4040  -28.8400   23.3610 O   0  0  0  0  0  0  0  0  0  0  0  0
  -20.9080  -29.8570   21.7380 H   0  0  0  0  0  0  0  0  0  0  0  0
  -18.0190  -28.1060   22.9230 C   0  0  0  0  0  0  0  0  0  0  0  0
  -20.5810  -28.3510   23.1830 C   0  0  0  0  0  3  0  0  0  0  0  0
  -20.6720  -26.9250   22.5910 C   0  0  0  0  0  2  0  0  0  0  0  0
  -19.5640  -26.6190   21.5790 C   0  0  0  0  0  2  0  0  0  0  0  0
  -18.1860  -26.7640   22.2310 C   0  0  0  0  0  2  0  0  0  0  0  0
  -19.1440  -28.8580   23.3560 C   0  0  0  0  0  0  0  0  0  0  0  0
  -18.9330  -30.1160   23.9620 C   0  0  0  0  0  3  0  0  0  0  0  0
  -17.6310  -30.6210   24.1400 C   0  0  0  0  0  3  0  0  0  0  0  0
  -16.5200  -29.8650   23.7240 C   0  0  0  0  0  3  0  0  0  0  0  0
  -16.7160  -28.6100   23.1210 C   0  0  0  0  0  3  0  0  0  0  0  0
  -25.8670  -32.5160   23.8730 C   0  0  0  0  0  3  0  0  0  0  0  0
  -26.3770  -31.7450   25.1520 C   0  0  1  0  0  0  0  0  0  0  0  0
  -25.2780  -31.5070   26.2130 C   0  0  0  0  0  1  0  0  0  0  0  0
  -26.9620  -30.3670   24.7620 C   0  0  0  0  0  1  0  0  0  0  0  0
  -27.5220  -32.5390   25.8210 C   0  0  0  0  0  1  0  0  0  0  0  0
  -25.5580  -33.9160   24.2040 N   0  0  0  0  0  0  0  0  0  0  0  0
  -25.8690  -34.9670   23.4330 C   0  0  0  0  0  0  0  0  0  0  0  0
  -26.5170  -34.8610   22.3880 O   0  0  0  0  0  0  0  0  0  0  0  0
  -24.9810  -34.0720   25.0170 H   0  0  0  0  0  0  0  0  0  0  0  0
  -24.1190  -36.7440   23.1180 C   0  0  0  0  0  1  0  0  0  0  0  0
  -25.3860  -36.3550   23.8940 C   0  0  0  0  0  3  0  0  0  0  0  0
  -27.5340  -37.2670   24.6620 C   0  0  0  0  0  1  0  0  0  0  0  0
  -26.4080  -37.4150   23.7430 N   0  0  0  0  0  0  0  0  0  0  0  0
  -25.9970  -38.3320   23.8900 H   0  0  0  0  0  0  0  0  0  0  0  0
  2  6  1  0
  3  5  1  0
  4  1  1  0
  4  2  2  0
  5  6  2  0
  5 18  1  0
  6  8  1  0
  7  4  1  0
  7  3  2  0
  9  7  1  0
 10 18  1  0
 11 16  1  0
 12 13  1  0
 12 11  1  0
 14 13  1  0
 14 23  1  0
 14 15  1  0
 16 10  1  0
 16 15  1  0
 17 10  2  0
 18 19  1  0
 20 21  2  0
 21 40  1  0
 22 21  1  0
 22 25  1  0
 23 24  1  0
 23 20  1  0
 24 22  2  0
 25 26  1  0
 26 27  2  0
 28 31  1  0
 28 27  1  0
 29 28  2  0
 30 29  1  0
 30 25  2  0
 31 32  1  0
 32 33  1  0
 33 34  2  0
 35 34  1  0
 35 39  1  0
 36 35  2  0
 37 32  2  0
 37 36  1  0
 38 37  1  0
 40 41  1  0
 41 44  1  0
 41 43  1  0
 42 40  2  0
 45 20  1  0
 45 46  1  0
 47 45  1  0
 48 50  2  0
 49 48  1  0
 49  1  1  0
 51 49  1  0
 52 53  1  0
 52 48  1  0
 54 65  2  0
 55 53  1  0
 55 60  1  0
 56 64  1  0
 56 66  1  0
 57 63  1  0
 57 59  1  0
 58 64  1  0
 59 58  1  0
 60 59  2  0
 61 62  1  0
 61 55  2  0
 62 57  2  0
 63 56  1  0
 64 54  1  0
 66 68  2  0
 67 66  1  0
 69 67  1  0
 70 79  2  0
 70 75  1  0
 71 67  1  0
 71 75  1  0
 72 71  1  0
 73 74  1  0
 73 72  1  0
 74 70  1  0
 75 76  2  0
 76 77  1  0
 78 77  2  0
 79 78  1  0
 80 54  1  0
 80 85  1  0
 80 81  1  0
 81 84  1  1
 81 82  1  0
 83 81  1  0
 85 88  1  0
 86 90  1  0
 86 85  1  0
 87 86  2  0
 90 89  1  0
 92 93  1  0
 92 90  1  0
 92 91  1  0
M  ISO  4  10 100  18 100  52 101  53 101
M  END
>  <TORSDO>  (79) 
F 19

>  <SCORE>  (79) 
-14.523

>  <name>  (79) 
78

>  <ligand_id>  (79) 
78

>  <original_smiles>  (79) 
[H]c1c([H])c([H])c2c(c1[H])C([H])([H])C([H])([H])C([H])([H])C2([H])N([H])C(=O)C1([H])N(C(=O)C([H])(N([H])C(=O)C([H])(N([H])C([H])([H])[H])C([H])([H])[H])C(C([H])([H])[H])(C([H])([H])[H])C([H])([H])[H])C([H])([H])c2c([H])c(OC([H])([H])C(=O)N([H])C([H])([H])c3c([H])c(F)c(N([H])C(=O)N4C([H])([H])C([H])([H])C([H])([H])C([H])(n5nc(-c6c([H])c([H])c(Oc7c([H])c([H])c(F)c([H])c7F)c([H])c6[H])c(C(=O)N([H])[H])c5N([H])[H])C4([H])[H])c([H])c3F)c([H])c([H])c2C1([H])[H]

>  <smiles>  (79) 
[H]c1c([H])c([H])c2c(c1[H])C([H])([H])C([H])([H])C([H])([H])C2([H])N([H])C(=O)C1([H])N(C(=O)C([H])(N([H])C(=O)C([H])(N([H])C([H])([H])[H])C([H])([H])[H])C(C([H])([H])[H])(C([H])([H])[H])C([H])([H])[H])C([H])([H])c2c([H])c(OC([H])([H])C(=O)N([H])C([H])([H])c3c([H])c(F)c(N([H])C(=O)N4C([H])([H])C([H])([H])C([H])([H])C([H])(n5nc(-c6c([H])c([H])c(Oc7c([H])c([H])c(F)c([H])c7F)c([H])c6[H])c(C(=O)N([H])[H])c5N([H])[H])C4([H])[H])c([H])c3F)c([H])c([H])c2C1([H])[H]

$$$$
79:0:0
     RDKit          3D

 93101  0  0  1  0  0  0  0  0999 V2000
  -28.7620  -21.7820   19.4270 C   0  0  0  0  0  0  0  0  0  0  0  0
  -28.3510  -22.2100   18.0280 C   0  0  0  0  0  1  0  0  0  0  0  0
  -29.0150  -20.4280   19.4500 N   0  0  0  0  0  0  0  0  0  0  0  0
  -29.3370  -19.2090   20.4040 C   0  0  0  0  0  2  0  0  0  0  0  0
  -30.5360  -15.0650   19.9060 C   0  0  0  0  0  0  0  0  0  0  0  0
  -30.3040  -12.7240   18.9110 C   0  0  0  0  0  2  0  0  0  0  0  0
  -29.2910  -12.6900   17.7420 C   0  0  0  0  0  2  0  0  0  0  0  0
  -27.8650  -12.4620   18.2680 C   0  0  0  0  0  2  0  0  0  0  0  0
  -27.5460  -13.3550   19.4920 C   0  0  0  0  0  3  0  0  0  0  0  0
  -28.6760  -13.3550   20.5390 C   0  0  0  0  0  2  0  0  0  0  0  0
  -29.9020  -13.8110   19.8650 N   0  0  0  0  0  0  0  0  0  0  0  0
  -31.6510  -15.1000   19.3740 O   0  0  0  0  0  0  0  0  0  0  0  0
  -31.6230  -18.0630   20.2250 C   0  0  0  0  0  0  0  0  0  0  0  0
  -31.2010  -16.8870   22.3950 C   0  0  0  0  0  2  0  0  0  0  0  0
  -29.8510  -16.3660   21.8260 C   0  0  0  0  0  2  0  0  0  0  0  0
  -30.1550  -17.7940   19.8360 C   0  0  0  0  0  3  0  0  0  0  0  0
  -32.0270  -17.6340   21.4320 N   0  0  0  0  0  0  0  0  0  0  0  0
  -29.9090  -16.2920   20.3600 N   0  0  0  0  0  0  0  0  0  0  0  0
  -32.3910  -18.6380   19.4530 O   0  0  0  0  0  0  0  0  0  0  0  0
  -32.9820  -17.8260   21.7020 H   0  0  0  0  0  0  0  0  0  0  0  0
  -25.2430  -13.9120   20.4470 C   0  0  0  0  0  0  0  0  0  0  0  0
  -24.2080  -13.1280   20.8760 C   0  0  0  0  0  0  0  0  0  0  0  0
  -24.6620  -11.7770   20.7620 C   0  0  0  0  0  0  0  0  0  0  0  0
  -26.2540  -13.0390   20.0860 N   0  0  0  0  0  0  0  0  0  0  0  0
  -25.9210  -11.7460   20.3420 N   0  0  0  0  0  0  0  0  0  0  0  0
  -23.9430  -10.5110   20.9680 C   0  0  0  0  0  0  0  0  0  0  0  0
  -24.4150   -9.5320   21.8700 C   0  0  0  0  0  3  0  0  0  0  0  0
  -23.6960   -8.3330   22.0640 C   0  0  0  0  0  3  0  0  0  0  0  0
  -22.4890   -8.1060   21.3570 C   0  0  0  0  0  0  0  0  0  0  0  0
  -22.0380   -9.0740   20.4410 C   0  0  0  0  0  3  0  0  0  0  0  0
  -22.7580  -10.2640   20.2460 C   0  0  0  0  0  3  0  0  0  0  0  0
  -21.7380   -6.9610   21.4620 O   0  0  0  0  0  0  0  0  0  0  0  0
  -21.7010   -6.2270   22.6200 C   0  0  0  0  0  0  0  0  0  0  0  0
  -21.2780   -6.7880   23.8460 C   0  0  0  0  0  3  0  0  0  0  0  0
  -21.1920   -5.9800   24.9970 C   0  0  0  0  0  3  0  0  0  0  0  0
  -21.5180   -4.6120   24.9250 C   0  0  0  0  0  0  0  0  0  0  0  0
  -21.9350   -4.0510   23.7050 C   0  0  0  0  0  3  0  0  0  0  0  0
  -22.0240   -4.8560   22.5560 C   0  0  0  0  0  0  0  0  0  0  0  0
  -22.4050   -4.3060   21.3780 F   0  0  0  0  0  0  0  0  0  0  0  0
  -21.4270   -3.8340   26.0290 F   0  0  0  0  0  0  0  0  0  0  0  0
  -22.8430  -13.6000   21.2790 C   0  0  0  0  0  0  0  0  0  0  0  0
  -22.1820  -12.8760   22.1750 N   0  0  0  0  0  0  0  0  0  0  0  0
  -22.3730  -14.6460   20.8340 O   0  0  0  0  0  0  0  0  0  0  0  0
  -22.5790  -12.0310   22.5560 H   0  0  0  0  0  0  0  0  0  0  0  0
  -21.2690  -13.1750   22.4880 H   0  0  0  0  0  0  0  0  0  0  0  0
  -25.4080  -15.2880   20.3110 N   0  0  0  0  0  0  0  0  0  0  0  0
  -24.6700  -15.9520   20.5200 H   0  0  0  0  0  0  0  0  0  0  0  0
  -26.2470  -15.7250   19.9490 H   0  0  0  0  0  0  0  0  0  0  0  0
  -28.7610  -23.1910   20.3640 C   0  0  0  0  0  3  0  0  0  0  0  0
  -30.1670  -23.5380   20.6240 C   0  0  0  0  0  0  0  0  0  0  0  0
  -31.2780  -23.8150   20.8310 N   0  0  0  0  0  0  0  0  0  0  0  0
  -27.9390  -24.6330   19.9080 C   0  0  0  0  0  2  0  0  0  0  0  0
  -28.1400  -26.1410   20.3200 O   0  0  0  0  0  0  0  0  0  0  0  0
  -24.6130  -31.9460   23.2150 C   0  0  0  0  0  0  0  0  0  0  0  0
  -27.1100  -27.1580   20.2110 C   0  0  0  0  0  0  0  0  0  0  0  0
  -23.3860  -30.5540   21.5930 C   0  0  0  0  0  3  0  0  0  0  0  0
  -24.8080  -28.9500   20.1660 C   0  0  0  0  0  0  0  0  0  0  0  0
  -25.9430  -30.7790   21.4140 C   0  0  0  0  0  2  0  0  0  0  0  0
  -25.9950  -29.3790   20.7720 C   0  0  0  0  0  0  0  0  0  0  0  0
  -27.1420  -28.4970   20.7840 C   0  0  0  0  0  3  0  0  0  0  0  0
  -25.9060  -26.8470   19.5430 C   0  0  0  0  0  3  0  0  0  0  0  0
  -24.7770  -27.6980   19.5350 C   0  0  0  0  0  3  0  0  0  0  0  0
  -23.5900  -29.8630   20.2180 C   0  0  0  0  0  2  0  0  0  0  0  0
  -24.6680  -31.1160   22.1280 N   0  0  0  0  0  0  0  0  0  0  0  0
  -23.5340  -32.2490   23.7460 O   0  0  0  0  0  0  0  0  0  0  0  0
  -22.7010  -29.5620   22.5680 C   0  0  0  0  0  0  0  0  0  0  0  0
  -21.3710  -29.4000   22.4450 N   0  0  0  0  0  0  0  0  0  0  0  0
  -23.3690  -28.9400   23.3980 O   0  0  0  0  0  0  0  0  0  0  0  0
  -20.8890  -29.9560   21.7510 H   0  0  0  0  0  0  0  0  0  0  0  0
  -17.9810  -28.2280   22.9610 C   0  0  0  0  0  0  0  0  0  0  0  0
  -20.5420  -28.4780   23.2250 C   0  0  0  0  0  3  0  0  0  0  0  0
  -20.6340  -27.0380   22.6680 C   0  0  0  0  0  2  0  0  0  0  0  0
  -19.5300  -26.7100   21.6570 C   0  0  0  0  0  2  0  0  0  0  0  0
  -18.1480  -26.8710   22.2990 C   0  0  0  0  0  2  0  0  0  0  0  0
  -19.1050  -28.9890   23.3820 C   0  0  0  0  0  0  0  0  0  0  0  0
  -18.8940  -30.2580   23.9620 C   0  0  0  0  0  3  0  0  0  0  0  0
  -17.5920  -30.7680   24.1260 C   0  0  0  0  0  3  0  0  0  0  0  0
  -16.4830  -30.0050   23.7210 C   0  0  0  0  0  3  0  0  0  0  0  0
  -16.6780  -28.7370   23.1450 C   0  0  0  0  0  3  0  0  0  0  0  0
  -25.9020  -32.5710   23.8310 C   0  0  0  0  0  3  0  0  0  0  0  0
  -26.4160  -31.7960   25.1070 C   0  0  1  0  0  0  0  0  0  0  0  0
  -25.3250  -31.5730   26.1820 C   0  0  0  0  0  1  0  0  0  0  0  0
  -26.9840  -30.4110   24.7220 C   0  0  0  0  0  1  0  0  0  0  0  0
  -27.5750  -32.5800   25.7620 C   0  0  0  0  0  1  0  0  0  0  0  0
  -25.6040  -33.9720   24.1700 N   0  0  0  0  0  0  0  0  0  0  0  0
  -25.9300  -35.0290   23.4130 C   0  0  0  0  0  0  0  0  0  0  0  0
  -26.5820  -34.9250   22.3700 O   0  0  0  0  0  0  0  0  0  0  0  0
  -25.0210  -34.1240   24.9800 H   0  0  0  0  0  0  0  0  0  0  0  0
  -24.2070  -36.8380   23.1060 C   0  0  0  0  0  1  0  0  0  0  0  0
  -25.4630  -36.4190   23.8870 C   0  0  0  0  0  3  0  0  0  0  0  0
  -27.6210  -37.2910   24.6730 C   0  0  0  0  0  1  0  0  0  0  0  0
  -26.5010  -37.4660   23.7520 N   0  0  0  0  0  0  0  0  0  0  0  0
  -26.1050  -38.3890   23.9080 H   0  0  0  0  0  0  0  0  0  0  0  0
  1  3  2  0
  1 49  1  0
  2  1  1  0
  3  4  1  0
  5 18  1  0
  6 11  1  0
  7  8  1  0
  7  6  1  0
  9  8  1  0
  9 24  1  0
  9 10  1  0
 11  5  1  0
 11 10  1  0
 12  5  2  0
 13 17  1  0
 15 14  1  0
 16 13  1  0
 16 18  1  0
 16  4  1  0
 17 20  1  0
 17 14  1  0
 18 15  1  0
 19 13  2  0
 21 22  2  0
 22 41  1  0
 23 22  1  0
 23 26  1  0
 24 25  1  0
 24 21  1  0
 25 23  2  0
 26 27  1  0
 27 28  2  0
 29 32  1  0
 29 28  1  0
 30 29  2  0
 31 30  1  0
 31 26  2  0
 32 33  1  0
 33 34  1  0
 34 35  2  0
 36 35  1  0
 36 40  1  0
 37 36  2  0
 38 33  2  0
 38 37  1  0
 39 38  1  0
 41 42  1  0
 42 45  1  0
 42 44  1  0
 43 41  2  0
 46 21  1  0
 46 47  1  0
 48 46  1  0
 49 52  1  0
 49 50  1  0
 50 51  3  0
 52 53  1  0
 54 65  2  0
 55 53  1  0
 55 60  1  0
 56 64  1  0
 56 66  1  0
 57 63  1  0
 57 59  1  0
 58 64  1  0
 59 60  2  0
 59 58  1  0
 61 55  2  0
 62 61  1  0
 62 57  2  0
 63 56  1  0
 64 54  1  0
 66 68  2  0
 67 66  1  0
 69 67  1  0
 70 79  2  0
 70 75  1  0
 71 67  1  0
 71 75  1  0
 72 71  1  0
 73 74  1  0
 73 72  1  0
 74 70  1  0
 75 76  2  0
 76 77  1  0
 78 77  2  0
 79 78  1  0
 80 54  1  0
 80 85  1  0
 80 81  1  0
 81 84  1  1
 81 82  1  0
 83 81  1  0
 85 88  1  0
 86 90  1  0
 86 85  1  0
 87 86  2  0
 90 89  1  0
 92 90  1  0
 92 93  1  0
 92 91  1  0
M  ISO  4   5 100  18 100  52 101  53 101
M  END
>  <TORSDO>  (80) 
F 20

>  <SCORE>  (80) 
-14.497

>  <name>  (80) 
79

>  <ligand_id>  (80) 
79

>  <original_smiles>  (80) 
[H]c1c([H])c([H])c2c(c1[H])C([H])([H])C([H])([H])C([H])([H])C2([H])N([H])C(=O)C1([H])N(C(=O)C([H])(N([H])C(=O)C([H])(N([H])C([H])([H])[H])C([H])([H])[H])C(C([H])([H])[H])(C([H])([H])[H])C([H])([H])[H])C([H])([H])c2c([H])c(OC([H])([H])C([H])(C#N)C(=NC([H])([H])C3([H])C(=O)N([H])C([H])([H])C([H])([H])N3C(=O)N3C([H])([H])C([H])([H])C([H])([H])C([H])(n4nc(-c5c([H])c([H])c(Oc6c([H])c([H])c(F)c([H])c6F)c([H])c5[H])c(C(=O)N([H])[H])c4N([H])[H])C3([H])[H])C([H])([H])[H])c([H])c([H])c2C1([H])[H]

>  <smiles>  (80) 
[H]c1c([H])c([H])c2c(c1[H])C([H])([H])C([H])([H])C([H])([H])C2([H])N([H])C(=O)C1([H])N(C(=O)C([H])(N([H])C(=O)C([H])(N([H])C([H])([H])[H])C([H])([H])[H])C(C([H])([H])[H])(C([H])([H])[H])C([H])([H])[H])C([H])([H])c2c([H])c(OC([H])([H])C([H])(C#N)C(=NC([H])([H])C3([H])C(=O)N([H])C([H])([H])C([H])([H])N3C(=O)N3C([H])([H])C([H])([H])C([H])([H])C([H])(n4nc(-c5c([H])c([H])c(Oc6c([H])c([H])c(F)c([H])c6F)c([H])c5[H])c(C(=O)N([H])[H])c4N([H])[H])C3([H])[H])C([H])([H])[H])c([H])c([H])c2C1([H])[H]

$$$$
80:0:0
     RDKit          3D

 95103  0  0  1  0  0  0  0  0999 V2000
  -29.2130  -19.0690   20.4860 C   0  0  0  0  0  3  0  0  0  0  0  0
  -30.8260  -18.0480   19.0140 C   0  0  0  0  0  3  0  0  0  0  0  0
  -30.2490  -20.4730   18.7800 C   0  0  0  0  0  0  0  0  0  0  0  0
  -29.9250  -17.8090   20.0650 C   0  0  0  0  0  0  0  0  0  0  0  0
  -29.3530  -20.4600   19.9060 C   0  0  0  0  0  0  0  0  0  0  0  0
  -30.9720  -19.3060   18.3950 C   0  0  0  0  0  0  0  0  0  0  0  0
  -31.8160  -19.3480   17.3320 F   0  0  0  0  0  0  0  0  0  0  0  0
  -30.5400  -15.1220   20.2890 C   0  0  0  0  0  0  0  0  0  0  0  0
  -30.4450  -12.7530   19.3740 C   0  0  0  0  0  2  0  0  0  0  0  0
  -29.5120  -12.6880   18.1410 C   0  0  0  0  0  2  0  0  0  0  0  0
  -28.0540  -12.4500   18.5770 C   0  0  0  0  0  2  0  0  0  0  0  0
  -27.6410  -13.3670   19.7560 C   0  0  0  0  0  3  0  0  0  0  0  0
  -28.7000  -13.4050   20.8790 C   0  0  0  0  0  2  0  0  0  0  0  0
  -29.9590  -13.8460   20.2690 N   0  0  0  0  0  0  0  0  0  0  0  0
  -31.7310  -15.1690   19.9640 O   0  0  0  0  0  0  0  0  0  0  0  0
  -29.7820  -16.3260   20.5270 N   0  0  0  0  0  0  0  0  0  0  0  0
  -28.9160  -16.1330   21.0120 H   0  0  0  0  0  0  0  0  0  0  0  0
  -25.2700  -13.9110   20.5380 C   0  0  0  0  0  0  0  0  0  0  0  0
  -24.2180  -13.1220   20.9150 C   0  0  0  0  0  0  0  0  0  0  0  0
  -24.6900  -11.7750   20.8510 C   0  0  0  0  0  0  0  0  0  0  0  0
  -26.3140  -13.0450   20.2660 N   0  0  0  0  0  0  0  0  0  0  0  0
  -25.9770  -11.7530   20.5220 N   0  0  0  0  0  0  0  0  0  0  0  0
  -23.9720  -10.5060   21.0240 C   0  0  0  0  0  0  0  0  0  0  0  0
  -24.3950   -9.5420   21.9660 C   0  0  0  0  0  3  0  0  0  0  0  0
  -23.6770   -8.3370   22.1300 C   0  0  0  0  0  3  0  0  0  0  0  0
  -22.5210   -8.0890   21.3520 C   0  0  0  0  0  0  0  0  0  0  0  0
  -22.1180   -9.0410   20.3980 C   0  0  0  0  0  3  0  0  0  0  0  0
  -22.8380  -10.2370   20.2330 C   0  0  0  0  0  3  0  0  0  0  0  0
  -21.7720   -6.9370   21.4250 O   0  0  0  0  0  0  0  0  0  0  0  0
  -21.6670   -6.2210   22.5900 C   0  0  0  0  0  0  0  0  0  0  0  0
  -21.1030   -6.7750   23.7600 C   0  0  0  0  0  3  0  0  0  0  0  0
  -20.9510   -5.9790   24.9130 C   0  0  0  0  0  3  0  0  0  0  0  0
  -21.3570   -4.6320   24.8960 C   0  0  0  0  0  0  0  0  0  0  0  0
  -21.9140   -4.0750   23.7310 C   0  0  0  0  0  3  0  0  0  0  0  0
  -22.0690   -4.8690   22.5810 C   0  0  0  0  0  0  0  0  0  0  0  0
  -22.5860   -4.3230   21.4540 F   0  0  0  0  0  0  0  0  0  0  0  0
  -21.2050   -3.8650   26.0030 F   0  0  0  0  0  0  0  0  0  0  0  0
  -22.8210  -13.5860   21.2100 C   0  0  0  0  0  0  0  0  0  0  0  0
  -22.1000  -12.8610   22.0560 N   0  0  0  0  0  0  0  0  0  0  0  0
  -22.3790  -14.6250   20.7210 O   0  0  0  0  0  0  0  0  0  0  0  0
  -22.4730  -12.0240   22.4740 H   0  0  0  0  0  0  0  0  0  0  0  0
  -21.1610  -13.1540   22.2880 H   0  0  0  0  0  0  0  0  0  0  0  0
  -25.4240  -15.2850   20.3820 N   0  0  0  0  0  0  0  0  0  0  0  0
  -24.6520  -15.9320   20.4980 H   0  0  0  0  0  0  0  0  0  0  0  0
  -26.2480  -15.7240   19.9900 H   0  0  0  0  0  0  0  0  0  0  0  0
  -30.4410  -21.6790   17.8930 C   0  0  0  0  0  0  0  0  0  0  0  0
  -29.3980  -22.0420   17.1510 N   0  0  0  0  0  0  0  0  0  0  0  0
  -31.5200  -22.2710   17.8160 O   0  0  0  0  0  0  0  0  0  0  0  0
  -28.5250  -21.5440   17.2530 H   0  0  0  0  0  0  0  0  0  0  0  0
  -29.4620  -22.8340   16.5290 H   0  0  0  0  0  0  0  0  0  0  0  0
  -28.6120  -21.7130   20.3280 N   0  0  0  0  0  0  0  0  0  0  0  0
  -27.7780  -21.5170   20.8790 H   0  0  0  0  0  0  0  0  0  0  0  0
  -28.9860  -23.2660   20.3550 C   0  0  0  0  0  3  0  0  0  0  0  0
  -27.9240  -24.5990   20.1380 C   0  0  0  0  0  3  0  0  0  0  0  0
  -28.2010  -26.1490   20.3100 O   0  0  0  0  0  0  0  0  0  0  0  0
  -24.6160  -31.9640   23.2360 C   0  0  0  0  0  0  0  0  0  0  0  0
  -27.1640  -27.1680   20.2460 C   0  0  0  0  0  0  0  0  0  0  0  0
  -23.4140  -30.5600   21.6080 C   0  0  0  0  0  3  0  0  0  0  0  0
  -24.8550  -28.9610   20.1970 C   0  0  0  0  0  0  0  0  0  0  0  0
  -25.9740  -30.7950   21.4540 C   0  0  0  0  0  2  0  0  0  0  0  0
  -26.0380  -29.3940   20.8080 C   0  0  0  0  0  0  0  0  0  0  0  0
  -27.1940  -28.5150   20.8130 C   0  0  0  0  0  3  0  0  0  0  0  0
  -25.9510  -26.8490   19.5990 C   0  0  0  0  0  3  0  0  0  0  0  0
  -24.8260  -27.7030   19.5760 C   0  0  0  0  0  3  0  0  0  0  0  0
  -23.6340  -29.8690   20.2370 C   0  0  0  0  0  2  0  0  0  0  0  0
  -24.6880  -31.1300   22.1530 N   0  0  0  0  0  0  0  0  0  0  0  0
  -23.5290  -32.2620   23.7560 O   0  0  0  0  0  0  0  0  0  0  0  0
  -22.7270  -29.5650   22.5770 C   0  0  0  0  0  0  0  0  0  0  0  0
  -21.4010  -29.3940   22.4410 N   0  0  0  0  0  0  0  0  0  0  0  0
  -23.3900  -28.9510   23.4170 O   0  0  0  0  0  0  0  0  0  0  0  0
  -20.9230  -29.9350   21.7340 H   0  0  0  0  0  0  0  0  0  0  0  0
  -18.0080  -28.2230   22.9530 C   0  0  0  0  0  0  0  0  0  0  0  0
  -20.5700  -28.4670   23.2160 C   0  0  0  0  0  3  0  0  0  0  0  0
  -20.6590  -27.0340   22.6460 C   0  0  0  0  0  2  0  0  0  0  0  0
  -19.5540  -26.7150   21.6350 C   0  0  0  0  0  2  0  0  0  0  0  0
  -18.1740  -26.8720   22.2790 C   0  0  0  0  0  2  0  0  0  0  0  0
  -19.1340  -28.9800   23.3780 C   0  0  0  0  0  0  0  0  0  0  0  0
  -18.9240  -30.2450   23.9690 C   0  0  0  0  0  3  0  0  0  0  0  0
  -17.6220  -30.7540   24.1380 C   0  0  0  0  0  3  0  0  0  0  0  0
  -16.5110  -29.9960   23.7280 C   0  0  0  0  0  3  0  0  0  0  0  0
  -16.7050  -28.7310   23.1430 C   0  0  0  0  0  3  0  0  0  0  0  0
  -25.8930  -32.6010   23.8620 C   0  0  0  0  0  3  0  0  0  0  0  0
  -26.3950  -31.8400   25.1500 C   0  0  1  0  0  0  0  0  0  0  0  0
  -25.2850  -31.6030   26.2030 C   0  0  0  0  0  1  0  0  0  0  0  0
  -26.9900  -30.4620   24.7790 C   0  0  0  0  0  1  0  0  0  0  0  0
  -27.5340  -32.6420   25.8220 C   0  0  0  0  0  1  0  0  0  0  0  0
  -25.5820  -34.0030   24.1860 N   0  0  0  0  0  0  0  0  0  0  0  0
  -25.9150  -35.0570   23.4280 C   0  0  0  0  0  0  0  0  0  0  0  0
  -26.5830  -34.9500   22.3970 O   0  0  0  0  0  0  0  0  0  0  0  0
  -24.9880  -34.1570   24.9880 H   0  0  0  0  0  0  0  0  0  0  0  0
  -24.2050  -36.8670   23.0650 C   0  0  0  0  0  1  0  0  0  0  0  0
  -25.4340  -36.4490   23.8880 C   0  0  0  0  0  3  0  0  0  0  0  0
  -27.5560  -37.3240   24.7600 C   0  0  0  0  0  1  0  0  0  0  0  0
  -26.4770  -37.4940   23.7910 N   0  0  0  0  0  0  0  0  0  0  0  0
  -26.0760  -38.4190   23.9180 H   0  0  0  0  0  0  0  0  0  0  0  0
  2  4  2  0
  3  5  1  0
  4  1  1  0
  4 16  1  0
  5 51  1  0
  5  1  2  0
  6  3  2  0
  6  2  1  0
  7  6  1  0
  8 16  1  0
  9 14  1  0
 10 11  1  0
 10  9  1  0
 12 11  1  0
 12 21  1  0
 12 13  1  0
 14  8  1  0
 14 13  1  0
 15  8  2  0
 16 17  1  0
 18 19  2  0
 19 38  1  0
 20 19  1  0
 20 23  1  0
 21 22  1  0
 21 18  1  0
 22 20  2  0
 23 24  1  0
 24 25  2  0
 26 29  1  0
 26 25  1  0
 27 26  2  0
 28 27  1  0
 28 23  2  0
 29 30  1  0
 30 31  1  0
 31 32  2  0
 33 32  1  0
 33 37  1  0
 34 33  2  0
 35 30  2  0
 35 34  1  0
 36 35  1  0
 38 39  1  0
 39 42  1  0
 39 41  1  0
 40 38  2  0
 43 44  1  0
 43 18  1  0
 45 43  1  0
 46  3  1  0
 47 49  1  0
 47 46  1  0
 48 46  2  0
 50 47  1  0
 51 53  1  0
 51 52  1  0
 54 55  1  0
 54 53  2  0
 56 67  2  0
 57 55  1  0
 57 62  1  0
 58 66  1  0
 58 68  1  0
 59 65  1  0
 59 61  1  0
 60 66  1  0
 61 62  2  0
 61 60  1  0
 63 57  2  0
 64 63  1  0
 64 59  2  0
 65 58  1  0
 66 56  1  0
 68 70  2  0
 69 68  1  0
 71 69  1  0
 72 81  2  0
 72 77  1  0
 73 69  1  0
 73 77  1  0
 74 73  1  0
 75 76  1  0
 75 74  1  0
 76 72  1  0
 77 78  2  0
 78 79  1  0
 80 79  2  0
 81 80  1  0
 82 56  1  0
 82 87  1  0
 82 83  1  0
 83 86  1  1
 83 84  1  0
 85 83  1  0
 87 90  1  0
 88 92  1  0
 88 87  1  0
 89 88  2  0
 92 91  1  0
 94 92  1  0
 94 95  1  0
 94 93  1  0
M  ISO  4   8 100  16 100  54 101  55 101
M  END
>  <TORSDO>  (81) 
F 20

>  <SCORE>  (81) 
-14.666

>  <name>  (81) 
80

>  <ligand_id>  (81) 
80

>  <original_smiles>  (81) 
[H]c1c([H])c([H])c2c(c1[H])C([H])([H])C([H])([H])C([H])([H])C2([H])N([H])C(=O)C1([H])N(C(=O)C([H])(N([H])C(=O)C([H])(N([H])C([H])([H])[H])C([H])([H])[H])C(C([H])([H])[H])(C([H])([H])[H])C([H])([H])[H])C([H])([H])c2c([H])c(OC([H])([H])C([H])([H])N([H])c3c([H])c(N([H])C(=O)N4C([H])([H])C([H])([H])C([H])([H])C([H])(n5nc(-c6c([H])c([H])c(Oc7c([H])c([H])c(F)c([H])c7F)c([H])c6[H])c(C(=O)N([H])[H])c5N([H])[H])C4([H])[H])c([H])c(F)c3C(=O)N([H])[H])c([H])c([H])c2C1([H])[H]

>  <smiles>  (81) 
[H]c1c([H])c([H])c2c(c1[H])C([H])([H])C([H])([H])C([H])([H])C2([H])N([H])C(=O)C1([H])N(C(=O)C([H])(N([H])C(=O)C([H])(N([H])C([H])([H])[H])C([H])([H])[H])C(C([H])([H])[H])(C([H])([H])[H])C([H])([H])[H])C([H])([H])c2c([H])c(OC([H])([H])C([H])([H])N([H])c3c([H])c(N([H])C(=O)N4C([H])([H])C([H])([H])C([H])([H])C([H])(n5nc(-c6c([H])c([H])c(Oc7c([H])c([H])c(F)c([H])c7F)c([H])c6[H])c(C(=O)N([H])[H])c5N([H])[H])C4([H])[H])c([H])c(F)c3C(=O)N([H])[H])c([H])c([H])c2C1([H])[H]

$$$$
81:0:0
     RDKit          3D

 93101  0  0  1  0  0  0  0  0999 V2000
  -30.5930  -18.6250   20.5630 C   0  0  0  0  0  3  0  0  0  0  0  0
  -29.6040  -17.6050   20.3100 C   0  0  0  0  0  0  0  0  0  0  0  0
  -29.0550  -20.6500   20.1670 C   0  0  0  0  0  0  0  0  0  0  0  0
  -30.3370  -20.0710   20.5000 C   0  0  0  0  0  0  0  0  0  0  0  0
  -28.3490  -18.2030   19.9770 C   0  0  0  0  0  0  0  0  0  0  0  0
  -28.0930  -19.6240   19.9030 C   0  0  0  0  0  0  0  0  0  0  0  0
  -31.3700  -20.9050   20.7640 F   0  0  0  0  0  0  0  0  0  0  0  0
  -27.3200  -17.3660   19.7060 F   0  0  0  0  0  0  0  0  0  0  0  0
  -26.8410  -20.0200   19.5610 F   0  0  0  0  0  0  0  0  0  0  0  0
  -30.5090  -14.9700   20.2000 C   0  0  0  0  0  0  0  0  0  0  0  0
  -30.3730  -12.6360   19.2180 C   0  0  0  0  0  2  0  0  0  0  0  0
  -29.4010  -12.6390   18.0150 C   0  0  0  0  0  2  0  0  0  0  0  0
  -27.9440  -12.4410   18.4790 C   0  0  0  0  0  2  0  0  0  0  0  0
  -27.5800  -13.3410   19.6880 C   0  0  0  0  0  3  0  0  0  0  0  0
  -28.6670  -13.2920   20.7850 C   0  0  0  0  0  2  0  0  0  0  0  0
  -29.9350  -13.7010   20.1610 N   0  0  0  0  0  0  0  0  0  0  0  0
  -31.6950  -15.0850   19.8720 O   0  0  0  0  0  0  0  0  0  0  0  0
  -29.6520  -16.0720   20.4250 N   0  0  0  0  0  0  0  0  0  0  0  0
  -28.7300  -15.7110   20.6100 H   0  0  0  0  0  0  0  0  0  0  0  0
  -25.2170  -13.9340   20.4830 C   0  0  0  0  0  0  0  0  0  0  0  0
  -24.1550  -13.1650   20.8680 C   0  0  0  0  0  0  0  0  0  0  0  0
  -24.6070  -11.8120   20.8120 C   0  0  0  0  0  0  0  0  0  0  0  0
  -26.2490  -13.0520   20.2100 N   0  0  0  0  0  0  0  0  0  0  0  0
  -25.8910  -11.7680   20.4730 N   0  0  0  0  0  0  0  0  0  0  0  0
  -23.8720  -10.5550   21.0030 C   0  0  0  0  0  0  0  0  0  0  0  0
  -24.3040   -9.5810   21.9310 C   0  0  0  0  0  3  0  0  0  0  0  0
  -23.5670   -8.3900   22.1110 C   0  0  0  0  0  3  0  0  0  0  0  0
  -22.3870   -8.1650   21.3650 C   0  0  0  0  0  0  0  0  0  0  0  0
  -21.9740   -9.1290   20.4270 C   0  0  0  0  0  3  0  0  0  0  0  0
  -22.7100  -10.3110   20.2440 C   0  0  0  0  0  3  0  0  0  0  0  0
  -21.6220   -7.0280   21.4550 O   0  0  0  0  0  0  0  0  0  0  0  0
  -21.5600   -6.2920   22.6120 C   0  0  0  0  0  0  0  0  0  0  0  0
  -21.0970   -6.8480   23.8240 C   0  0  0  0  0  3  0  0  0  0  0  0
  -20.9850   -6.0390   24.9730 C   0  0  0  0  0  3  0  0  0  0  0  0
  -21.3250   -4.6740   24.9090 C   0  0  0  0  0  0  0  0  0  0  0  0
  -21.7800   -4.1170   23.7010 C   0  0  0  0  0  3  0  0  0  0  0  0
  -21.8950   -4.9240   22.5550 C   0  0  0  0  0  0  0  0  0  0  0  0
  -22.3150   -4.3780   21.3880 F   0  0  0  0  0  0  0  0  0  0  0  0
  -21.2080   -3.8940   26.0090 F   0  0  0  0  0  0  0  0  0  0  0  0
  -22.7680  -13.6540   21.1740 C   0  0  0  0  0  0  0  0  0  0  0  0
  -22.0560  -12.9630   22.0560 N   0  0  0  0  0  0  0  0  0  0  0  0
  -22.3270  -14.6840   20.6660 O   0  0  0  0  0  0  0  0  0  0  0  0
  -22.4260  -12.1290   22.4880 H   0  0  0  0  0  0  0  0  0  0  0  0
  -21.1270  -13.2720   22.3040 H   0  0  0  0  0  0  0  0  0  0  0  0
  -25.3770  -15.3050   20.3180 N   0  0  0  0  0  0  0  0  0  0  0  0
  -24.6040  -15.9450   20.4610 H   0  0  0  0  0  0  0  0  0  0  0  0
  -26.2060  -15.7720   19.9720 H   0  0  0  0  0  0  0  0  0  0  0  0
  -28.9980  -23.4360   20.2820 C   0  0  0  0  0  0  0  0  0  0  0  0
  -28.5860  -22.1070   20.0200 N   0  0  0  0  0  0  0  0  0  0  0  0
  -30.0890  -23.6650   20.8100 O   0  0  0  0  0  0  0  0  0  0  0  0
  -27.6570  -22.1250   19.6240 H   0  0  0  0  0  0  0  0  0  0  0  0
  -28.0300  -24.7240   19.8880 C   0  0  0  0  0  2  0  0  0  0  0  0
  -28.3320  -26.2150   20.2190 O   0  0  0  0  0  0  0  0  0  0  0  0
  -24.6020  -31.8230   23.2240 C   0  0  0  0  0  0  0  0  0  0  0  0
  -27.2750  -27.1970   20.1450 C   0  0  0  0  0  0  0  0  0  0  0  0
  -23.4440  -30.4530   21.5360 C   0  0  0  0  0  3  0  0  0  0  0  0
  -24.9310  -28.9210   20.1070 C   0  0  0  0  0  0  0  0  0  0  0  0
  -25.9990  -30.7400   21.4260 C   0  0  0  0  0  2  0  0  0  0  0  0
  -26.0960  -29.3630   20.7470 C   0  0  0  0  0  0  0  0  0  0  0  0
  -27.2680  -28.5170   20.7500 C   0  0  0  0  0  3  0  0  0  0  0  0
  -26.0810  -26.8610   19.4640 C   0  0  0  0  0  3  0  0  0  0  0  0
  -24.9370  -27.6840   19.4510 C   0  0  0  0  0  3  0  0  0  0  0  0
  -23.6960  -29.8070   20.1490 C   0  0  0  0  0  2  0  0  0  0  0  0
  -24.7010  -31.0250   22.1180 N   0  0  0  0  0  0  0  0  0  0  0  0
  -23.5050  -32.0890   23.7380 O   0  0  0  0  0  0  0  0  0  0  0  0
  -22.7540  -29.4210   22.4640 C   0  0  0  0  0  0  0  0  0  0  0  0
  -21.4270  -29.2550   22.3180 N   0  0  0  0  0  0  0  0  0  0  0  0
  -23.4150  -28.7740   23.2800 O   0  0  0  0  0  0  0  0  0  0  0  0
  -20.9500  -29.8280   21.6350 H   0  0  0  0  0  0  0  0  0  0  0  0
  -18.0330  -28.0770   22.7820 C   0  0  0  0  0  0  0  0  0  0  0  0
  -20.5950  -28.3010   23.0550 C   0  0  0  0  0  3  0  0  0  0  0  0
  -20.6800  -26.8890   22.4320 C   0  0  0  0  0  2  0  0  0  0  0  0
  -19.5740  -26.6130   21.4080 C   0  0  0  0  0  2  0  0  0  0  0  0
  -18.1950  -26.7510   22.0570 C   0  0  0  0  0  2  0  0  0  0  0  0
  -19.1600  -28.8120   23.2360 C   0  0  0  0  0  0  0  0  0  0  0  0
  -18.9540  -30.0530   23.8750 C   0  0  0  0  0  3  0  0  0  0  0  0
  -17.6540  -30.5610   24.0620 C   0  0  0  0  0  3  0  0  0  0  0  0
  -16.5420  -29.8220   23.6220 C   0  0  0  0  0  3  0  0  0  0  0  0
  -16.7320  -28.5820   22.9880 C   0  0  0  0  0  3  0  0  0  0  0  0
  -25.8650  -32.4530   23.8880 C   0  0  0  0  0  3  0  0  0  0  0  0
  -25.5480  -33.8540   24.2110 N   0  0  0  0  0  0  0  0  0  0  0  0
  -25.8770  -34.9070   23.4500 C   0  0  0  0  0  0  0  0  0  0  0  0
  -26.5460  -34.8010   22.4190 O   0  0  0  0  0  0  0  0  0  0  0  0
  -24.9530  -34.0080   25.0130 H   0  0  0  0  0  0  0  0  0  0  0  0
  -24.1320  -36.6890   23.1120 C   0  0  0  0  0  1  0  0  0  0  0  0
  -25.3890  -36.2960   23.9060 C   0  0  0  0  0  3  0  0  0  0  0  0
  -27.5260  -37.2100   24.7020 C   0  0  0  0  0  1  0  0  0  0  0  0
  -26.4130  -37.3560   23.7670 N   0  0  0  0  0  0  0  0  0  0  0  0
  -26.0020  -38.2750   23.9050 H   0  0  0  0  0  0  0  0  0  0  0  0
  -26.3340  -31.6840   25.1840 C   0  0  1  0  0  0  0  0  0  0  0  0
  -25.2040  -31.4520   26.2160 C   0  0  0  0  0  1  0  0  0  0  0  0
  -26.9250  -30.3020   24.8200 C   0  0  0  0  0  1  0  0  0  0  0  0
  -27.4640  -32.4750   25.8830 C   0  0  0  0  0  1  0  0  0  0  0  0
  2 18  1  0
  2  1  2  0
  3  4  2  0
  4  1  1  0
  4  7  1  0
  5  2  1  0
  6  5  2  0
  6  3  1  0
  8  5  1  0
  9  6  1  0
 10 18  1  0
 11 16  1  0
 12 13  1  0
 12 11  1  0
 14 13  1  0
 14 23  1  0
 14 15  1  0
 16 10  1  0
 16 15  1  0
 17 10  2  0
 18 19  1  0
 20 21  2  0
 21 40  1  0
 22 21  1  0
 22 25  1  0
 23 24  1  0
 23 20  1  0
 24 22  2  0
 25 26  1  0
 26 27  2  0
 28 31  1  0
 28 27  1  0
 29 28  2  0
 30 29  1  0
 30 25  2  0
 31 32  1  0
 32 33  1  0
 33 34  2  0
 35 34  1  0
 35 39  1  0
 36 35  2  0
 37 32  2  0
 37 36  1  0
 38 37  1  0
 40 41  1  0
 41 44  1  0
 41 43  1  0
 42 40  2  0
 45 46  1  0
 45 20  1  0
 47 45  1  0
 48 50  2  0
 49  3  1  0
 49 48  1  0
 51 49  1  0
 52 53  1  0
 52 48  1  0
 54 65  2  0
 55 53  1  0
 55 60  1  0
 56 64  1  0
 56 66  1  0
 57 63  1  0
 57 59  1  0
 58 64  1  0
 59 60  2  0
 59 58  1  0
 61 55  2  0
 62 61  1  0
 62 57  2  0
 63 56  1  0
 64 54  1  0
 66 68  2  0
 67 66  1  0
 69 67  1  0
 70 79  2  0
 70 75  1  0
 71 67  1  0
 71 75  1  0
 72 71  1  0
 73 74  1  0
 73 72  1  0
 74 70  1  0
 75 76  2  0
 76 77  1  0
 78 77  2  0
 79 78  1  0
 80 54  1  0
 80 81  1  0
 80 90  1  0
 81 84  1  0
 82 86  1  0
 82 81  1  0
 83 82  2  0
 86 85  1  0
 88 89  1  0
 88 86  1  0
 88 87  1  0
 90 93  1  1
 90 91  1  0
 92 90  1  0
M  ISO  4  10 100  18 100  52 101  53 101
M  END
>  <TORSDO>  (82) 
F 18

>  <SCORE>  (82) 
-14.873

>  <name>  (82) 
81

>  <ligand_id>  (82) 
81

>  <original_smiles>  (82) 
[H]c1c([H])c([H])c2c(c1[H])C([H])([H])C([H])([H])C([H])([H])C2([H])N([H])C(=O)C1([H])N(C(=O)C([H])(N([H])C(=O)C([H])(N([H])C([H])([H])[H])C([H])([H])[H])C(C([H])([H])[H])(C([H])([H])[H])C([H])([H])[H])C([H])([H])c2c([H])c(OC([H])([H])C(=O)N([H])c3c(F)c([H])c(N([H])C(=O)N4C([H])([H])C([H])([H])C([H])([H])C([H])(n5nc(-c6c([H])c([H])c(Oc7c([H])c([H])c(F)c([H])c7F)c([H])c6[H])c(C(=O)N([H])[H])c5N([H])[H])C4([H])[H])c(F)c3F)c([H])c([H])c2C1([H])[H]

>  <smiles>  (82) 
[H]c1c([H])c([H])c2c(c1[H])C([H])([H])C([H])([H])C([H])([H])C2([H])N([H])C(=O)C1([H])N(C(=O)C([H])(N([H])C(=O)C([H])(N([H])C([H])([H])[H])C([H])([H])[H])C(C([H])([H])[H])(C([H])([H])[H])C([H])([H])[H])C([H])([H])c2c([H])c(OC([H])([H])C(=O)N([H])c3c(F)c([H])c(N([H])C(=O)N4C([H])([H])C([H])([H])C([H])([H])C([H])(n5nc(-c6c([H])c([H])c(Oc7c([H])c([H])c(F)c([H])c7F)c([H])c6[H])c(C(=O)N([H])[H])c5N([H])[H])C4([H])[H])c(F)c3F)c([H])c([H])c2C1([H])[H]

$$$$
82:0:0
     RDKit          3D

100108  0  0  1  0  0  0  0  0999 V2000
  -29.7290  -21.0610   23.0510 C   0  0  0  0  0  3  0  0  0  0  0  0
  -28.4040  -21.1110   23.2110 F   0  0  0  0  0  0  0  0  0  0  0  0
  -30.5500  -18.3590   19.7300 C   0  0  0  0  0  3  0  0  0  0  0  0
  -29.6070  -19.3890   19.5960 C   0  0  0  0  0  3  0  0  0  0  0  0
  -31.2920  -18.2130   20.9220 C   0  0  0  0  0  0  0  0  0  0  0  0
  -31.1090  -19.1480   21.9820 C   0  0  0  0  0  0  0  0  0  0  0  0
  -30.0910  -20.1450   21.8730 C   0  0  0  0  0  0  0  0  0  0  0  0
  -29.3670  -20.2650   20.6630 C   0  0  0  0  0  0  0  0  0  0  0  0
  -28.4430  -21.2450   20.5080 F   0  0  0  0  0  0  0  0  0  0  0  0
  -31.9960  -19.0780   23.2320 C   0  0  0  0  0  3  0  0  0  0  0  0
  -31.3120  -18.5900   24.2650 F   0  0  0  0  0  0  0  0  0  0  0  0
  -32.5030  -20.2700   23.5470 F   0  0  0  0  0  0  0  0  0  0  0  0
  -32.2690  -17.0390   21.0340 C   0  0  0  0  0  2  0  0  0  0  0  0
  -32.0140  -14.8530   19.8330 C   0  0  0  0  0  0  0  0  0  0  0  0
  -31.5600  -12.6100   18.9090 C   0  0  0  0  0  2  0  0  0  0  0  0
  -30.5150  -12.6590   17.7790 C   0  0  0  0  0  2  0  0  0  0  0  0
  -29.0850  -12.5950   18.3490 C   0  0  0  0  0  2  0  0  0  0  0  0
  -28.8590  -13.6100   19.5000 C   0  0  0  0  0  3  0  0  0  0  0  0
  -29.9960  -13.5140   20.5390 C   0  0  0  0  0  2  0  0  0  0  0  0
  -31.2840  -13.7090   19.8430 N   0  0  0  0  0  0  0  0  0  0  0  0
  -32.9620  -15.0520   19.0670 O   0  0  0  0  0  0  0  0  0  0  0  0
  -31.6530  -15.7460   20.7600 N   0  0  0  0  0  0  0  0  0  0  0  0
  -30.8840  -15.4790   21.3570 H   0  0  0  0  0  0  0  0  0  0  0  0
  -26.6930  -14.3770   20.6650 C   0  0  0  0  0  0  0  0  0  0  0  0
  -25.5680  -13.6940   21.0440 C   0  0  0  0  0  0  0  0  0  0  0  0
  -25.7990  -12.3290   20.6910 C   0  0  0  0  0  0  0  0  0  0  0  0
  -27.5470  -13.4310   20.1180 N   0  0  0  0  0  0  0  0  0  0  0  0
  -27.0160  -12.1830   20.1860 N   0  0  0  0  0  0  0  0  0  0  0  0
  -24.9090  -11.1630   20.7540 C   0  0  0  0  0  0  0  0  0  0  0  0
  -25.2530  -10.0100   21.4960 C   0  0  0  0  0  3  0  0  0  0  0  0
  -24.3740   -8.9090   21.5550 C   0  0  0  0  0  3  0  0  0  0  0  0
  -23.1340   -8.9520   20.8730 C   0  0  0  0  0  0  0  0  0  0  0  0
  -22.8050  -10.0930   20.1200 C   0  0  0  0  0  3  0  0  0  0  0  0
  -23.6850  -11.1870   20.0570 C   0  0  0  0  0  3  0  0  0  0  0  0
  -22.2280   -7.9200   20.8540 O   0  0  0  0  0  0  0  0  0  0  0  0
  -22.0060   -7.1350   21.9570 C   0  0  0  0  0  0  0  0  0  0  0  0
  -21.5680   -7.6800   23.1830 C   0  0  0  0  0  3  0  0  0  0  0  0
  -21.2860   -6.8300   24.2710 C   0  0  0  0  0  3  0  0  0  0  0  0
  -21.4310   -5.4370   24.1320 C   0  0  0  0  0  0  0  0  0  0  0  0
  -21.8620   -4.8920   22.9100 C   0  0  0  0  0  3  0  0  0  0  0  0
  -22.1460   -5.7390   21.8250 C   0  0  0  0  0  0  0  0  0  0  0  0
  -22.5400   -5.2060   20.6430 F   0  0  0  0  0  0  0  0  0  0  0  0
  -21.1530   -4.6190   25.1750 F   0  0  0  0  0  0  0  0  0  0  0  0
  -24.3110  -14.2860   21.6140 C   0  0  0  0  0  0  0  0  0  0  0  0
  -23.6250  -13.5480   22.4800 N   0  0  0  0  0  0  0  0  0  0  0  0
  -23.9560  -15.4290   21.3310 O   0  0  0  0  0  0  0  0  0  0  0  0
  -23.9270  -12.6170   22.7280 H   0  0  0  0  0  0  0  0  0  0  0  0
  -22.7850  -13.9190   22.9000 H   0  0  0  0  0  0  0  0  0  0  0  0
  -27.0530  -15.7200   20.7230 N   0  0  0  0  0  0  0  0  0  0  0  0
  -26.4250  -16.4330   21.0760 H   0  0  0  0  0  0  0  0  0  0  0  0
  -27.9280  -16.0950   20.3800 H   0  0  0  0  0  0  0  0  0  0  0  0
  -30.2630  -22.5040   22.9530 C   0  0  0  0  0  2  0  0  0  0  0  0
  -29.4570  -23.3400   22.0380 N   0  0  0  0  0  4  0  0  0  0  0  0
  -28.4910  -23.2300   22.3060 H   0  0  0  0  0  0  0  0  0  0  0  0
  -29.5390  -22.9870   21.0940 H   0  0  0  0  0  0  0  0  0  0  0  0
  -29.8220  -24.7720   22.0290 C   0  0  0  0  0  2  0  0  0  0  0  0
  -29.0950  -25.5260   20.9040 C   0  0  0  0  0  3  0  0  0  0  0  0
  -29.3540  -24.8840   19.7600 F   0  0  0  0  0  0  0  0  0  0  0  0
  -29.5480  -26.9940   20.7780 C   0  0  0  0  0  2  0  0  0  0  0  0
  -28.9830  -27.5820   19.6090 O   0  0  0  0  0  0  0  0  0  0  0  0
  -24.5520  -31.7600   23.3270 C   0  0  0  0  0  0  0  0  0  0  0  0
  -27.7390  -28.1360   19.7600 C   0  0  0  0  0  0  0  0  0  0  0  0
  -23.5330  -30.4520   21.4880 C   0  0  0  0  0  3  0  0  0  0  0  0
  -25.1740  -29.2940   19.9150 C   0  0  0  0  0  0  0  0  0  0  0  0
  -25.9920  -31.1380   21.3940 C   0  0  0  0  0  2  0  0  0  0  0  0
  -26.2490  -29.8790   20.5960 C   0  0  0  0  0  0  0  0  0  0  0  0
  -27.5340  -29.3030   20.5270 C   0  0  0  0  0  3  0  0  0  0  0  0
  -26.6540  -27.5570   19.0720 C   0  0  0  0  0  3  0  0  0  0  0  0
  -25.3680  -28.1260   19.1550 C   0  0  0  0  0  3  0  0  0  0  0  0
  -23.8330  -29.9830   20.0380 C   0  0  0  0  0  2  0  0  0  0  0  0
  -24.7080  -31.1250   22.1310 N   0  0  0  0  0  0  0  0  0  0  0  0
  -23.4430  -31.8280   23.8750 O   0  0  0  0  0  0  0  0  0  0  0  0
  -23.0050  -29.2430   22.2950 C   0  0  0  0  0  0  0  0  0  0  0  0
  -21.7310  -28.8870   22.0690 N   0  0  0  0  0  0  0  0  0  0  0  0
  -23.7420  -28.6340   23.0750 O   0  0  0  0  0  0  0  0  0  0  0  0
  -21.1930  -29.4430   21.4200 H   0  0  0  0  0  0  0  0  0  0  0  0
  -18.5850  -27.1130   22.1540 C   0  0  0  0  0  0  0  0  0  0  0  0
  -21.0310  -27.7590   22.6830 C   0  0  0  0  0  3  0  0  0  0  0  0
  -21.4240  -26.4260   22.0030 C   0  0  0  0  0  2  0  0  0  0  0  0
  -20.4750  -26.0260   20.8700 C   0  0  0  0  0  2  0  0  0  0  0  0
  -19.0440  -25.8800   21.3930 C   0  0  0  0  0  2  0  0  0  0  0  0
  -19.5200  -28.0030   22.7460 C   0  0  0  0  0  0  0  0  0  0  0  0
  -19.0440  -29.1530   23.4130 C   0  0  0  0  0  3  0  0  0  0  0  0
  -17.6640  -29.4180   23.4940 C   0  0  0  0  0  3  0  0  0  0  0  0
  -16.7420  -28.5260   22.9210 C   0  0  0  0  0  3  0  0  0  0  0  0
  -17.2030  -27.3740   22.2560 C   0  0  0  0  0  3  0  0  0  0  0  0
  -25.7510  -32.4490   24.0510 C   0  0  0  0  0  3  0  0  0  0  0  0
  -25.3610  -33.8370   24.3280 N   0  0  0  0  0  0  0  0  0  0  0  0
  -25.7370  -34.8930   23.5920 C   0  0  0  0  0  0  0  0  0  0  0  0
  -26.5180  -34.8030   22.6400 O   0  0  0  0  0  0  0  0  0  0  0  0
  -24.6780  -33.9790   25.0580 H   0  0  0  0  0  0  0  0  0  0  0  0
  -24.0000  -36.6170   23.0200 C   0  0  0  0  0  1  0  0  0  0  0  0
  -25.1520  -36.2660   23.9720 C   0  0  0  0  0  3  0  0  0  0  0  0
  -27.1580  -37.2230   25.0180 C   0  0  0  0  0  1  0  0  0  0  0  0
  -26.1560  -37.3540   23.9640 N   0  0  0  0  0  0  0  0  0  0  0  0
  -25.7060  -38.2600   24.0660 H   0  0  0  0  0  0  0  0  0  0  0  0
  -26.1820  -31.7140   25.3780 C   0  0  1  0  0  0  0  0  0  0  0  0
  -25.0020  -31.4050   26.3290 C   0  0  0  0  0  1  0  0  0  0  0  0
  -26.8910  -30.3780   25.0540 C   0  0  0  0  0  1  0  0  0  0  0  0
  -27.2040  -32.5810   26.1500 C   0  0  0  0  0  1  0  0  0  0  0  0
  1  2  1  0
  3  5  1  0
  4  3  2  0
  4  8  1  0
  5 13  1  0
  5  6  2  0
  6 10  1  0
  7  6  1  0
  7  1  1  0
  8  7  2  0
  9  8  1  0
 10 12  1  0
 10 11  1  0
 14 20  1  0
 14 22  1  0
 15 20  1  0
 16 17  1  0
 16 15  1  0
 18 17  1  0
 18 27  1  0
 18 19  1  0
 20 19  1  0
 21 14  2  0
 22 13  1  0
 22 23  1  0
 24 49  1  0
 24 25  2  0
 25 44  1  0
 26 29  1  0
 26 25  1  0
 27 28  1  0
 27 24  1  0
 28 26  2  0
 29 30  1  0
 30 31  2  0
 32 31  1  0
 33 32  2  0
 34 33  1  0
 34 29  2  0
 35 32  1  0
 35 36  1  0
 36 37  1  0
 37 38  2  0
 39 38  1  0
 39 43  1  0
 40 39  2  0
 41 36  2  0
 41 40  1  0
 42 41  1  0
 44 45  1  0
 45 47  1  0
 45 48  1  0
 46 44  2  0
 49 50  1  0
 51 49  1  0
 52  1  1  0
 53 54  1  0
 53 52  1  0
 55 53  1  0
 56 53  1  0
 57 58  1  0
 57 56  1  0
 59 57  1  0
 60 62  1  0
 60 59  1  0
 61 72  2  0
 62 67  1  0
 63 71  1  0
 63 73  1  0
 64 70  1  0
 64 66  1  0
 65 71  1  0
 66 65  1  0
 67 66  2  0
 68 69  1  0
 68 62  2  0
 69 64  2  0
 70 63  1  0
 71 61  1  0
 73 75  2  0
 74 73  1  0
 76 74  1  0
 77 86  2  0
 77 82  1  0
 78 74  1  0
 78 82  1  0
 79 78  1  0
 80 81  1  0
 80 79  1  0
 81 77  1  0
 82 83  2  0
 83 84  1  0
 85 84  2  0
 86 85  1  0
 87 61  1  0
 87 88  1  0
 87 97  1  0
 88 91  1  0
 89 93  1  0
 89 88  1  0
 90 89  2  0
 93 92  1  0
 95 93  1  0
 95 96  1  0
 95 94  1  0
 97100  1  1
 97 98  1  0
 99 97  1  0
M  ISO  4  14 100  22 100  59 101  60 101
M  END
>  <TORSDO>  (83) 
F 24

>  <SCORE>  (83) 
-7.599

>  <name>  (83) 
82

>  <ligand_id>  (83) 
82

>  <original_smiles>  (83) 
[H]c1c([H])c([H])c2c(c1[H])C([H])([H])C([H])([H])C([H])([H])C2([H])N([H])C(=O)C1([H])N(C(=O)C([H])(N([H])C(=O)C([H])(N([H])C([H])([H])[H])C([H])([H])[H])C(C([H])([H])[H])(C([H])([H])[H])C([H])([H])[H])C([H])([H])c2c([H])c(OC([H])([H])C([H])(F)C([H])([H])[N+]([H])([H])C([H])([H])C([H])(F)c3c(F)c([H])c([H])c(C([H])([H])N([H])C(=O)N4C([H])([H])C([H])([H])C([H])([H])C([H])(n5nc(-c6c([H])c([H])c(Oc7c([H])c([H])c(F)c([H])c7F)c([H])c6[H])c(C(=O)N([H])[H])c5N([H])[H])C4([H])[H])c3C([H])(F)F)c([H])c([H])c2C1([H])[H]

>  <smiles>  (83) 
[H]c1c([H])c([H])c2c(c1[H])C([H])([H])C([H])([H])C([H])([H])C2([H])N([H])C(=O)C1([H])N(C(=O)C([H])(N([H])C(=O)C([H])(N([H])C([H])([H])[H])C([H])([H])[H])C(C([H])([H])[H])(C([H])([H])[H])C([H])([H])[H])C([H])([H])c2c([H])c(OC([H])([H])C([H])(F)C([H])([H])[N+]([H])([H])C([H])([H])C([H])(F)c3c(F)c([H])c([H])c(C([H])([H])N([H])C(=O)N4C([H])([H])C([H])([H])C([H])([H])C([H])(n5nc(-c6c([H])c([H])c(Oc7c([H])c([H])c(F)c([H])c7F)c([H])c6[H])c(C(=O)N([H])[H])c5N([H])[H])C4([H])[H])c3C([H])(F)F)c([H])c([H])c2C1([H])[H]

$$$$
83:0:0
     RDKit          3D

 93102  0  0  1  0  0  0  0  0999 V2000
  -27.1760  -21.7100   21.2240 C   0  0  0  0  0  2  0  0  0  0  0  0
  -26.7290  -23.0890   20.7430 C   0  0  0  0  0  2  0  0  0  0  0  0
  -28.1140  -21.7480   20.0310 C   0  0  0  0  0  3  0  0  0  0  0  0
  -28.0470  -23.2590   20.0970 N   0  0  2  0  0  4  0  0  0  0  0  0
  -27.9420  -23.6220   19.1600 H   0  0  0  0  0  0  0  0  0  0  0  0
  -29.4180  -20.8920   20.1500 C   0  0  0  0  0  0  0  0  0  0  0  0
  -29.2660  -19.6070   20.5910 N   0  0  0  0  0  0  0  0  0  0  0  0
  -30.4910  -21.3230   19.7160 O   0  0  0  0  0  0  0  0  0  0  0  0
  -28.3690  -19.4310   21.0220 H   0  0  0  0  0  0  0  0  0  0  0  0
  -31.3550  -18.0350   20.5190 C   0  0  0  0  0  2  0  0  0  0  0  0
  -29.9400  -18.3970   20.1240 C   0  0  0  0  0  3  0  0  0  0  0  0
  -30.2170  -17.2230   21.1030 C   0  0  0  0  0  3  0  0  0  0  0  0
  -30.7440  -14.7780   20.4620 C   0  0  0  0  0  0  0  0  0  0  0  0
  -30.5390  -12.5730   19.3430 C   0  0  0  0  0  2  0  0  0  0  0  0
  -29.5950  -12.7010   18.1290 C   0  0  0  0  0  2  0  0  0  0  0  0
  -28.1290  -12.5100   18.5610 C   0  0  0  0  0  2  0  0  0  0  0  0
  -27.7510  -13.3890   19.7810 C   0  0  0  0  0  3  0  0  0  0  0  0
  -28.7990  -13.2370   20.9050 C   0  0  0  0  0  2  0  0  0  0  0  0
  -30.1140  -13.5720   20.3360 N   0  0  0  0  0  0  0  0  0  0  0  0
  -31.9300  -14.9320   20.1580 O   0  0  0  0  0  0  0  0  0  0  0  0
  -29.9270  -15.8310   20.7480 N   0  0  0  0  0  0  0  0  0  0  0  0
  -28.9610  -15.5660   20.8680 H   0  0  0  0  0  0  0  0  0  0  0  0
  -25.3460  -13.9800   20.4720 C   0  0  0  0  0  0  0  0  0  0  0  0
  -24.2800  -13.2030   20.8320 C   0  0  0  0  0  0  0  0  0  0  0  0
  -24.7540  -11.8540   20.8190 C   0  0  0  0  0  0  0  0  0  0  0  0
  -26.3990  -13.1060   20.2560 N   0  0  0  0  0  0  0  0  0  0  0  0
  -26.0490  -11.8240   20.5300 N   0  0  0  0  0  0  0  0  0  0  0  0
  -24.0380  -10.5860   21.0070 C   0  0  0  0  0  0  0  0  0  0  0  0
  -24.4600   -9.6340   21.9600 C   0  0  0  0  0  3  0  0  0  0  0  0
  -23.7460   -8.4290   22.1330 C   0  0  0  0  0  3  0  0  0  0  0  0
  -22.5950   -8.1690   21.3510 C   0  0  0  0  0  0  0  0  0  0  0  0
  -22.1930   -9.1090   20.3870 C   0  0  0  0  0  3  0  0  0  0  0  0
  -22.9090  -10.3050   20.2120 C   0  0  0  0  0  3  0  0  0  0  0  0
  -21.8560   -7.0140   21.4330 O   0  0  0  0  0  0  0  0  0  0  0  0
  -21.7810   -6.2880   22.5940 C   0  0  0  0  0  0  0  0  0  0  0  0
  -21.2930   -6.8490   23.7940 C   0  0  0  0  0  3  0  0  0  0  0  0
  -21.1690   -6.0460   24.9460 C   0  0  0  0  0  3  0  0  0  0  0  0
  -21.5220   -4.6840   24.8990 C   0  0  0  0  0  0  0  0  0  0  0  0
  -22.0030   -4.1230   23.7030 C   0  0  0  0  0  3  0  0  0  0  0  0
  -22.1280   -4.9220   22.5520 C   0  0  0  0  0  0  0  0  0  0  0  0
  -22.5740   -4.3710   21.3970 F   0  0  0  0  0  0  0  0  0  0  0  0
  -21.3950   -3.9120   26.0020 F   0  0  0  0  0  0  0  0  0  0  0  0
  -22.8740  -13.6670   21.0780 C   0  0  0  0  0  0  0  0  0  0  0  0
  -22.1390  -12.9710   21.9370 N   0  0  0  0  0  0  0  0  0  0  0  0
  -22.4340  -14.6840   20.5410 O   0  0  0  0  0  0  0  0  0  0  0  0
  -22.5050  -12.1450   22.3890 H   0  0  0  0  0  0  0  0  0  0  0  0
  -21.1970  -13.2660   22.1480 H   0  0  0  0  0  0  0  0  0  0  0  0
  -25.5070  -15.3510   20.2840 N   0  0  0  0  0  0  0  0  0  0  0  0
  -24.7390  -16.0060   20.3860 H   0  0  0  0  0  0  0  0  0  0  0  0
  -26.3500  -15.7880   19.9350 H   0  0  0  0  0  0  0  0  0  0  0  0
  -29.0240  -24.1400   20.8340 C   0  0  0  0  0  2  0  0  0  0  0  0
  -28.5140  -25.5810   21.2820 C   0  0  0  0  0  2  0  0  0  0  0  0
  -28.5850  -26.7190   20.3700 O   0  0  0  0  0  0  0  0  0  0  0  0
  -24.6130  -31.9510   23.3070 C   0  0  0  0  0  0  0  0  0  0  0  0
  -27.4500  -27.5170   20.3350 C   0  0  0  0  0  0  0  0  0  0  0  0
  -23.5010  -30.5370   21.6100 C   0  0  0  0  0  3  0  0  0  0  0  0
  -25.0430  -29.0230   20.2440 C   0  0  0  0  0  0  0  0  0  0  0  0
  -26.0330  -30.9280   21.5230 C   0  0  0  0  0  2  0  0  0  0  0  0
  -26.1730  -29.5540   20.8840 C   0  0  0  0  0  0  0  0  0  0  0  0
  -27.3830  -28.8090   20.9240 C   0  0  0  0  0  3  0  0  0  0  0  0
  -26.3060  -27.0200   19.6800 C   0  0  0  0  0  3  0  0  0  0  0  0
  -25.1060  -27.7570   19.6380 C   0  0  0  0  0  3  0  0  0  0  0  0
  -23.7820  -29.8640   20.2400 C   0  0  0  0  0  2  0  0  0  0  0  0
  -24.7320  -31.1550   22.2050 N   0  0  0  0  0  0  0  0  0  0  0  0
  -23.5050  -32.1970   23.8030 O   0  0  0  0  0  0  0  0  0  0  0  0
  -22.8270  -29.5040   22.5400 C   0  0  0  0  0  0  0  0  0  0  0  0
  -21.5150  -29.2880   22.3470 N   0  0  0  0  0  0  0  0  0  0  0  0
  -23.4850  -28.8970   23.3910 O   0  0  0  0  0  0  0  0  0  0  0  0
  -21.0500  -29.8120   21.6200 H   0  0  0  0  0  0  0  0  0  0  0  0
  -18.1460  -28.0280   22.7030 C   0  0  0  0  0  0  0  0  0  0  0  0
  -20.6850  -28.3360   23.0860 C   0  0  0  0  0  3  0  0  0  0  0  0
  -20.8300  -26.9080   22.5170 C   0  0  0  0  0  2  0  0  0  0  0  0
  -19.7950  -26.6010   21.4310 C   0  0  0  0  0  2  0  0  0  0  0  0
  -18.3850  -26.6880   22.0240 C   0  0  0  0  0  2  0  0  0  0  0  0
  -19.2300  -28.8100   23.1860 C   0  0  0  0  0  0  0  0  0  0  0  0
  -18.9600  -30.0620   23.7770 C   0  0  0  0  0  3  0  0  0  0  0  0
  -17.6410  -30.5400   23.8860 C   0  0  0  0  0  3  0  0  0  0  0  0
  -16.5710  -29.7580   23.4160 C   0  0  0  0  0  3  0  0  0  0  0  0
  -16.8250  -28.5020   22.8370 C   0  0  0  0  0  3  0  0  0  0  0  0
  -25.8580  -32.6020   23.9850 C   0  0  0  0  0  3  0  0  0  0  0  0
  -26.3160  -31.8550   25.2980 C   0  0  1  0  0  0  0  0  0  0  0  0
  -25.1720  -31.6240   26.3120 C   0  0  0  0  0  1  0  0  0  0  0  0
  -26.9290  -30.4770   24.9600 C   0  0  0  0  0  1  0  0  0  0  0  0
  -27.4240  -32.6730   26.0060 C   0  0  0  0  0  1  0  0  0  0  0  0
  -25.5220  -34.0030   24.2750 N   0  0  0  0  0  0  0  0  0  0  0  0
  -25.8910  -35.0470   23.5220 C   0  0  0  0  0  0  0  0  0  0  0  0
  -26.6180  -34.9330   22.5320 O   0  0  0  0  0  0  0  0  0  0  0  0
  -24.8810  -34.1650   25.0390 H   0  0  0  0  0  0  0  0  0  0  0  0
  -24.1760  -36.8230   23.0440 C   0  0  0  0  0  1  0  0  0  0  0  0
  -25.3720  -36.4400   23.9300 C   0  0  0  0  0  3  0  0  0  0  0  0
  -27.4490  -37.3500   24.8710 C   0  0  0  0  0  1  0  0  0  0  0  0
  -26.4060  -37.4980   23.8610 N   0  0  0  0  0  0  0  0  0  0  0  0
  -25.9870  -38.4180   23.9710 H   0  0  0  0  0  0  0  0  0  0  0  0
  2  1  1  0
  3  4  1  0
  3  6  1  0
  3  1  1  0
  4  2  1  0
  4 51  1  0
  4  5  1  6
  6  7  1  0
  7  9  1  0
  8  6  2  0
 10 12  1  0
 11 10  1  0
 11  7  1  0
 11 12  1  0
 12 21  1  0
 13 21  1  0
 14 19  1  0
 15 16  1  0
 15 14  1  0
 17 16  1  0
 17 26  1  0
 17 18  1  0
 19 13  1  0
 19 18  1  0
 20 13  2  0
 21 22  1  0
 23 24  2  0
 24 43  1  0
 25 24  1  0
 25 28  1  0
 26 23  1  0
 26 27  1  0
 27 25  2  0
 28 29  1  0
 29 30  2  0
 31 34  1  0
 31 30  1  0
 32 31  2  0
 33 32  1  0
 33 28  2  0
 34 35  1  0
 35 36  1  0
 36 37  2  0
 38 37  1  0
 38 42  1  0
 39 38  2  0
 40 35  2  0
 40 39  1  0
 41 40  1  0
 43 44  1  0
 44 47  1  0
 44 46  1  0
 45 43  2  0
 48 49  1  0
 48 23  1  0
 50 48  1  0
 51 52  1  0
 53 52  1  0
 54 65  2  0
 55 53  1  0
 55 60  1  0
 56 64  1  0
 56 66  1  0
 57 59  1  0
 58 64  1  0
 59 60  2  0
 59 58  1  0
 61 55  2  0
 62 61  1  0
 62 57  2  0
 63 57  1  0
 63 56  1  0
 64 54  1  0
 66 68  2  0
 67 66  1  0
 69 67  1  0
 70 79  2  0
 70 75  1  0
 71 67  1  0
 71 75  1  0
 72 71  1  0
 73 74  1  0
 73 72  1  0
 74 70  1  0
 75 76  2  0
 76 77  1  0
 78 77  2  0
 79 78  1  0
 80 54  1  0
 80 85  1  0
 80 81  1  0
 81 84  1  1
 81 82  1  0
 83 81  1  0
 85 88  1  0
 86 90  1  0
 86 85  1  0
 87 86  2  0
 90 89  1  0
 92 90  1  0
 92 93  1  0
 92 91  1  0
M  ISO  4  13 100  21 100  52 101  53 101
M  END
>  <TORSDO>  (84) 
F 20

>  <SCORE>  (84) 
-13.464

>  <name>  (84) 
83

>  <ligand_id>  (84) 
83

>  <original_smiles>  (84) 
[H]c1c([H])c([H])c2c(c1[H])C([H])([H])C([H])([H])C([H])([H])C2([H])N([H])C(=O)C1([H])N(C(=O)C([H])(N([H])C(=O)C([H])(N([H])C([H])([H])[H])C([H])([H])[H])C(C([H])([H])[H])(C([H])([H])[H])C([H])([H])[H])C([H])([H])c2c([H])c(OC([H])([H])C([H])([H])[N+]3([H])C([H])([H])C([H])([H])C3([H])C(=O)N([H])C3([H])C([H])([H])C3([H])N([H])C(=O)N3C([H])([H])C([H])([H])C([H])([H])C([H])(n4nc(-c5c([H])c([H])c(Oc6c([H])c([H])c(F)c([H])c6F)c([H])c5[H])c(C(=O)N([H])[H])c4N([H])[H])C3([H])[H])c([H])c([H])c2C1([H])[H]

>  <smiles>  (84) 
[H]c1c([H])c([H])c2c(c1[H])C([H])([H])C([H])([H])C([H])([H])C2([H])N([H])C(=O)C1([H])N(C(=O)C([H])(N([H])C(=O)C([H])(N([H])C([H])([H])[H])C([H])([H])[H])C(C([H])([H])[H])(C([H])([H])[H])C([H])([H])[H])C([H])([H])c2c([H])c(OC([H])([H])C([H])([H])[N+]3([H])C([H])([H])C([H])([H])C3([H])C(=O)N([H])C3([H])C([H])([H])C3([H])N([H])C(=O)N3C([H])([H])C([H])([H])C([H])([H])C([H])(n4nc(-c5c([H])c([H])c(Oc6c([H])c([H])c(F)c([H])c6F)c([H])c5[H])c(C(=O)N([H])[H])c4N([H])[H])C3([H])[H])c([H])c([H])c2C1([H])[H]

$$$$
84:0:0
     RDKit          3D

 95103  0  0  1  0  0  0  0  0999 V2000
  -28.1500  -21.9450   19.5490 N   0  0  0  0  0  4  0  0  0  0  0  0
  -27.9520  -22.1450   18.5830 H   0  0  0  0  0  0  0  0  0  0  0  0
  -29.1360  -21.7530   19.6290 H   0  0  0  0  0  0  0  0  0  0  0  0
  -27.3850  -20.7480   19.9450 C   0  0  0  0  0  2  0  0  0  0  0  0
  -29.3900  -17.0550   18.8750 C   0  0  0  0  0  3  0  0  0  0  0  0
  -28.5870  -17.7170   17.9250 C   0  0  0  0  0  3  0  0  0  0  0  0
  -28.9070  -18.8010   20.5020 C   0  0  0  0  0  3  0  0  0  0  0  0
  -29.5460  -17.5880   20.1750 C   0  0  0  0  0  0  0  0  0  0  0  0
  -28.0970  -19.4650   19.5550 C   0  0  0  0  0  0  0  0  0  0  0  0
  -27.9370  -18.9180   18.2640 C   0  0  0  0  0  0  0  0  0  0  0  0
  -27.1640  -19.5490   17.3490 F   0  0  0  0  0  0  0  0  0  0  0  0
  -30.3930  -16.8820   21.2300 C   0  0  0  0  0  2  0  0  0  0  0  0
  -30.8170  -14.5150   20.6060 C   0  0  0  0  0  0  0  0  0  0  0  0
  -30.4950  -12.4310   19.3420 C   0  0  0  0  0  2  0  0  0  0  0  0
  -29.5460  -12.7000   18.1550 C   0  0  0  0  0  2  0  0  0  0  0  0
  -28.0720  -12.5600   18.5850 C   0  0  0  0  0  2  0  0  0  0  0  0
  -27.7500  -13.3450   19.8830 C   0  0  0  0  0  3  0  0  0  0  0  0
  -28.8030  -13.0480   20.9760 C   0  0  0  0  0  2  0  0  0  0  0  0
  -30.1360  -13.3560   20.4250 N   0  0  0  0  0  0  0  0  0  0  0  0
  -31.9040  -14.7590   20.0780 O   0  0  0  0  0  0  0  0  0  0  0  0
  -30.1360  -15.4480   21.2750 N   0  0  0  0  0  0  0  0  0  0  0  0
  -29.2620  -15.1590   21.6860 H   0  0  0  0  0  0  0  0  0  0  0  0
  -25.3430  -13.9450   20.5740 C   0  0  0  0  0  0  0  0  0  0  0  0
  -24.2740  -13.1680   20.9340 C   0  0  0  0  0  0  0  0  0  0  0  0
  -24.7390  -11.8180   20.8970 C   0  0  0  0  0  0  0  0  0  0  0  0
  -26.3920  -13.0680   20.3480 N   0  0  0  0  0  0  0  0  0  0  0  0
  -26.0310  -11.7820   20.5940 N   0  0  0  0  0  0  0  0  0  0  0  0
  -24.0160  -10.5510   21.0750 C   0  0  0  0  0  0  0  0  0  0  0  0
  -24.4460   -9.5830   22.0080 C   0  0  0  0  0  3  0  0  0  0  0  0
  -23.7250   -8.3800   22.1750 C   0  0  0  0  0  3  0  0  0  0  0  0
  -22.5610   -8.1400   21.4060 C   0  0  0  0  0  0  0  0  0  0  0  0
  -22.1500   -9.0980   20.4640 C   0  0  0  0  0  3  0  0  0  0  0  0
  -22.8710  -10.2920   20.2960 C   0  0  0  0  0  3  0  0  0  0  0  0
  -21.8130   -6.9900   21.4820 O   0  0  0  0  0  0  0  0  0  0  0  0
  -21.7490   -6.2470   22.6330 C   0  0  0  0  0  0  0  0  0  0  0  0
  -21.2790   -6.7940   23.8470 C   0  0  0  0  0  3  0  0  0  0  0  0
  -21.1620   -5.9760   24.9890 C   0  0  0  0  0  3  0  0  0  0  0  0
  -21.5060   -4.6140   24.9190 C   0  0  0  0  0  0  0  0  0  0  0  0
  -21.9680   -4.0650   23.7090 C   0  0  0  0  0  3  0  0  0  0  0  0
  -22.0860   -4.8800   22.5690 C   0  0  0  0  0  0  0  0  0  0  0  0
  -22.5100   -4.3410   21.4020 F   0  0  0  0  0  0  0  0  0  0  0  0
  -21.3880   -3.8280   26.0140 F   0  0  0  0  0  0  0  0  0  0  0  0
  -22.8730  -13.6400   21.2010 C   0  0  0  0  0  0  0  0  0  0  0  0
  -22.1410  -12.9330   22.0550 N   0  0  0  0  0  0  0  0  0  0  0  0
  -22.4360  -14.6700   20.6890 O   0  0  0  0  0  0  0  0  0  0  0  0
  -22.5040  -12.0960   22.4880 H   0  0  0  0  0  0  0  0  0  0  0  0
  -21.2020  -13.2320   22.2820 H   0  0  0  0  0  0  0  0  0  0  0  0
  -25.5050  -15.3160   20.3970 N   0  0  0  0  0  0  0  0  0  0  0  0
  -24.7310  -15.9660   20.4740 H   0  0  0  0  0  0  0  0  0  0  0  0
  -26.3490  -15.7440   20.0350 H   0  0  0  0  0  0  0  0  0  0  0  0
  -27.8540  -23.1300   20.3810 C   0  0  0  0  0  2  0  0  0  0  0  0
  -28.4510  -24.4310   19.8120 C   0  0  0  0  0  3  0  0  0  0  0  0
  -29.7350  -24.2320   19.4980 F   0  0  0  0  0  0  0  0  0  0  0  0
  -28.3520  -25.5830   20.8290 C   0  0  0  0  0  2  0  0  0  0  0  0
  -28.4250  -26.8680   20.2090 O   0  0  0  0  0  0  0  0  0  0  0  0
  -24.5640  -31.9690   23.2880 C   0  0  0  0  0  0  0  0  0  0  0  0
  -27.2450  -27.5690   20.2080 C   0  0  0  0  0  0  0  0  0  0  0  0
  -23.3680  -30.5610   21.6410 C   0  0  0  0  0  3  0  0  0  0  0  0
  -24.8330  -29.0310   20.2230 C   0  0  0  0  0  0  0  0  0  0  0  0
  -25.8900  -30.9410   21.4470 C   0  0  0  0  0  2  0  0  0  0  0  0
  -25.9860  -29.5730   20.8070 C   0  0  0  0  0  0  0  0  0  0  0  0
  -27.1970  -28.8510   20.7940 C   0  0  0  0  0  3  0  0  0  0  0  0
  -26.0760  -27.0280   19.6290 C   0  0  0  0  0  3  0  0  0  0  0  0
  -24.8710  -27.7560   19.6340 C   0  0  0  0  0  3  0  0  0  0  0  0
  -23.5840  -29.8800   20.2630 C   0  0  0  0  0  2  0  0  0  0  0  0
  -24.6260  -31.1720   22.1840 N   0  0  0  0  0  0  0  0  0  0  0  0
  -23.4810  -32.2340   23.8260 O   0  0  0  0  0  0  0  0  0  0  0  0
  -22.7210  -29.5360   22.6000 C   0  0  0  0  0  0  0  0  0  0  0  0
  -21.4020  -29.3360   22.4570 N   0  0  0  0  0  0  0  0  0  0  0  0
  -23.4030  -28.9230   23.4270 O   0  0  0  0  0  0  0  0  0  0  0  0
  -20.9120  -29.8810   21.7620 H   0  0  0  0  0  0  0  0  0  0  0  0
  -18.0370  -28.1050   22.9170 C   0  0  0  0  0  0  0  0  0  0  0  0
  -20.5860  -28.3930   23.2210 C   0  0  0  0  0  3  0  0  0  0  0  0
  -20.7130  -26.9590   22.6540 C   0  0  0  0  0  2  0  0  0  0  0  0
  -19.6280  -26.6200   21.6270 C   0  0  0  0  0  2  0  0  0  0  0  0
  -18.2370  -26.7530   22.2520 C   0  0  0  0  0  2  0  0  0  0  0  0
  -19.1410  -28.8820   23.3590 C   0  0  0  0  0  0  0  0  0  0  0  0
  -18.9010  -30.1460   23.9380 C   0  0  0  0  0  3  0  0  0  0  0  0
  -17.5890  -30.6340   24.0820 C   0  0  0  0  0  3  0  0  0  0  0  0
  -16.4980  -29.8550   23.6570 C   0  0  0  0  0  3  0  0  0  0  0  0
  -16.7230  -28.5920   23.0810 C   0  0  0  0  0  3  0  0  0  0  0  0
  -25.8470  -32.6040   23.9110 C   0  0  0  0  0  3  0  0  0  0  0  0
  -25.5390  -34.0060   24.2200 N   0  0  0  0  0  0  0  0  0  0  0  0
  -25.8880  -35.0480   23.4530 C   0  0  0  0  0  0  0  0  0  0  0  0
  -26.5730  -34.9270   22.4330 O   0  0  0  0  0  0  0  0  0  0  0  0
  -24.9270  -34.1720   25.0060 H   0  0  0  0  0  0  0  0  0  0  0  0
  -24.1790  -36.8460   23.0400 C   0  0  0  0  0  1  0  0  0  0  0  0
  -25.3980  -36.4430   23.8840 C   0  0  0  0  0  3  0  0  0  0  0  0
  -27.5160  -37.3240   24.7590 C   0  0  0  0  0  1  0  0  0  0  0  0
  -26.4400  -37.4870   23.7850 N   0  0  0  0  0  0  0  0  0  0  0  0
  -26.0360  -38.4120   23.9120 H   0  0  0  0  0  0  0  0  0  0  0  0
  -26.3550  -31.8450   25.2000 C   0  0  1  0  0  0  0  0  0  0  0  0
  -25.2520  -31.6100   26.2590 C   0  0  0  0  0  1  0  0  0  0  0  0
  -26.9470  -30.4670   24.8220 C   0  0  0  0  0  1  0  0  0  0  0  0
  -27.4970  -32.6490   25.8630 C   0  0  0  0  0  1  0  0  0  0  0  0
  1  3  1  0
  1  4  1  0
  1 51  1  0
  2  1  1  0
  5  8  1  0
  6 10  1  0
  6  5  2  0
  8  7  2  0
  8 12  1  0
  9  4  1  0
  9  7  1  0
 10  9  2  0
 11 10  1  0
 12 21  1  0
 13 21  1  0
 14 19  1  0
 15 16  1  0
 15 14  1  0
 17 16  1  0
 17 26  1  0
 17 18  1  0
 19 13  1  0
 19 18  1  0
 20 13  2  0
 21 22  1  0
 23 24  2  0
 24 43  1  0
 25 24  1  0
 25 28  1  0
 26 23  1  0
 26 27  1  0
 27 25  2  0
 28 29  1  0
 29 30  2  0
 31 34  1  0
 31 30  1  0
 32 31  2  0
 33 32  1  0
 33 28  2  0
 34 35  1  0
 35 36  1  0
 36 37  2  0
 38 37  1  0
 38 42  1  0
 39 38  2  0
 40 35  2  0
 40 39  1  0
 41 40  1  0
 43 44  1  0
 44 47  1  0
 44 46  1  0
 45 43  2  0
 48 49  1  0
 48 23  1  0
 50 48  1  0
 52 53  1  0
 52 51  1  0
 52 54  1  0
 55 54  1  0
 56 67  2  0
 57 55  1  0
 57 62  1  0
 58 66  1  0
 58 68  1  0
 59 65  1  0
 59 61  1  0
 60 66  1  0
 61 60  1  0
 62 61  2  0
 63 64  1  0
 63 57  2  0
 64 59  2  0
 65 58  1  0
 66 56  1  0
 68 70  2  0
 69 68  1  0
 71 69  1  0
 72 81  2  0
 72 77  1  0
 73 69  1  0
 73 77  1  0
 74 73  1  0
 75 76  1  0
 75 74  1  0
 76 72  1  0
 77 78  2  0
 78 79  1  0
 80 79  2  0
 81 80  1  0
 82 56  1  0
 82 83  1  0
 82 92  1  0
 83 86  1  0
 84 88  1  0
 84 83  1  0
 85 84  2  0
 88 87  1  0
 90 88  1  0
 90 91  1  0
 90 89  1  0
 92 95  1  1
 92 93  1  0
 94 92  1  0
M  ISO  4  13 100  21 100  54 101  55 101
M  END
>  <TORSDO>  (85) 
F 22

>  <SCORE>  (85) 
-13.105

>  <name>  (85) 
84

>  <ligand_id>  (85) 
84

>  <original_smiles>  (85) 
[H]c1c([H])c([H])c2c(c1[H])C([H])([H])C([H])([H])C([H])([H])C2([H])N([H])C(=O)C1([H])N(C(=O)C([H])(N([H])C(=O)C([H])(N([H])C([H])([H])[H])C([H])([H])[H])C(C([H])([H])[H])(C([H])([H])[H])C([H])([H])[H])C([H])([H])c2c([H])c(OC([H])([H])C([H])(F)C([H])([H])[N+]([H])([H])C([H])([H])c3c([H])c(C([H])([H])N([H])C(=O)N4C([H])([H])C([H])([H])C([H])([H])C([H])(n5nc(-c6c([H])c([H])c(Oc7c([H])c([H])c(F)c([H])c7F)c([H])c6[H])c(C(=O)N([H])[H])c5N([H])[H])C4([H])[H])c([H])c([H])c3F)c([H])c([H])c2C1([H])[H]

>  <smiles>  (85) 
[H]c1c([H])c([H])c2c(c1[H])C([H])([H])C([H])([H])C([H])([H])C2([H])N([H])C(=O)C1([H])N(C(=O)C([H])(N([H])C(=O)C([H])(N([H])C([H])([H])[H])C([H])([H])[H])C(C([H])([H])[H])(C([H])([H])[H])C([H])([H])[H])C([H])([H])c2c([H])c(OC([H])([H])C([H])(F)C([H])([H])[N+]([H])([H])C([H])([H])c3c([H])c(C([H])([H])N([H])C(=O)N4C([H])([H])C([H])([H])C([H])([H])C([H])(n5nc(-c6c([H])c([H])c(Oc7c([H])c([H])c(F)c([H])c7F)c([H])c6[H])c(C(=O)N([H])[H])c5N([H])[H])C4([H])[H])c([H])c([H])c3F)c([H])c([H])c2C1([H])[H]

$$$$
85:0:0
     RDKit          3D

 94103  0  0  1  0  0  0  0  0999 V2000
  -29.2960  -22.7920   20.1580 C   0  0  0  0  0  2  0  0  0  0  0  0
  -29.2700  -23.1140   22.4530 C   0  0  0  0  0  2  0  0  0  0  0  0
  -29.7550  -21.3900   20.8280 C   0  0  0  0  0  3  0  0  0  0  0  0
  -28.4650  -23.6390   21.2180 C   0  0  2  0  0  0  0  0  0  0  0  0
  -27.0610  -22.9790   21.3990 C   0  0  0  0  0  1  0  0  0  0  0  0
  -30.3420  -21.0350   23.2770 C   0  0  0  0  0  1  0  0  0  0  0  0
  -29.4240  -21.6220   22.2700 N   0  0  1  0  0  4  0  0  0  0  0  0
  -28.5130  -21.2190   22.4240 H   0  0  0  0  0  0  0  0  0  0  0  0
  -28.9440  -18.6120   18.1510 C   0  0  0  0  0  3  0  0  0  0  0  0
  -28.9430  -19.8450   18.8510 C   0  0  0  0  0  3  0  0  0  0  0  0
  -29.3790  -17.3970   18.7320 C   0  0  0  0  0  3  0  0  0  0  0  0
  -29.8430  -18.6490   20.7590 C   0  0  0  0  0  3  0  0  0  0  0  0
  -29.4680  -19.9360   20.1670 C   0  0  0  0  0  0  0  0  0  0  0  0
  -29.7810  -17.3570   20.0900 C   0  0  0  0  0  0  0  0  0  0  0  0
  -30.6980  -14.9100   20.3660 C   0  0  0  0  0  0  0  0  0  0  0  0
  -30.4860  -12.6150   19.4100 C   0  0  0  0  0  2  0  0  0  0  0  0
  -29.5570  -12.6740   18.1780 C   0  0  0  0  0  2  0  0  0  0  0  0
  -28.0900  -12.4920   18.6160 C   0  0  0  0  0  2  0  0  0  0  0  0
  -27.7020  -13.3980   19.8080 C   0  0  0  0  0  3  0  0  0  0  0  0
  -28.7580  -13.3390   20.9350 C   0  0  0  0  0  2  0  0  0  0  0  0
  -30.0660  -13.6820   20.3550 N   0  0  0  0  0  0  0  0  0  0  0  0
  -31.8550  -15.0070   19.9480 O   0  0  0  0  0  0  0  0  0  0  0  0
  -30.0320  -16.0550   20.7770 N   0  0  0  0  0  0  0  0  0  0  0  0
  -29.7810  -16.0210   21.7570 H   0  0  0  0  0  0  0  0  0  0  0  0
  -25.2960  -13.9460   20.5030 C   0  0  0  0  0  0  0  0  0  0  0  0
  -24.2370  -13.1530   20.8460 C   0  0  0  0  0  0  0  0  0  0  0  0
  -24.7230  -11.8010   20.8320 C   0  0  0  0  0  0  0  0  0  0  0  0
  -26.3590  -13.0870   20.2890 N   0  0  0  0  0  0  0  0  0  0  0  0
  -26.0190  -11.7950   20.5520 N   0  0  0  0  0  0  0  0  0  0  0  0
  -24.0200  -10.5240   21.0190 C   0  0  0  0  0  0  0  0  0  0  0  0
  -24.4490   -9.5710   21.9720 C   0  0  0  0  0  3  0  0  0  0  0  0
  -23.7400   -8.3620   22.1440 C   0  0  0  0  0  3  0  0  0  0  0  0
  -22.5900   -8.0920   21.3650 C   0  0  0  0  0  0  0  0  0  0  0  0
  -22.1820   -9.0340   20.4040 C   0  0  0  0  0  3  0  0  0  0  0  0
  -22.8910  -10.2340   20.2280 C   0  0  0  0  0  3  0  0  0  0  0  0
  -21.8540   -6.9340   21.4440 O   0  0  0  0  0  0  0  0  0  0  0  0
  -21.7760   -6.2080   22.6080 C   0  0  0  0  0  0  0  0  0  0  0  0
  -21.2700   -6.7660   23.8000 C   0  0  0  0  0  3  0  0  0  0  0  0
  -21.1430   -5.9670   24.9550 C   0  0  0  0  0  3  0  0  0  0  0  0
  -21.5110   -4.6100   24.9150 C   0  0  0  0  0  0  0  0  0  0  0  0
  -22.0060   -4.0480   23.7250 C   0  0  0  0  0  3  0  0  0  0  0  0
  -22.1340   -4.8450   22.5720 C   0  0  0  0  0  0  0  0  0  0  0  0
  -22.5940   -4.2910   21.4240 F   0  0  0  0  0  0  0  0  0  0  0  0
  -21.3800   -3.8380   26.0220 F   0  0  0  0  0  0  0  0  0  0  0  0
  -22.8230  -13.5920   21.0990 C   0  0  0  0  0  0  0  0  0  0  0  0
  -22.0970  -12.8700   21.9440 N   0  0  0  0  0  0  0  0  0  0  0  0
  -22.3640  -14.6070   20.5730 O   0  0  0  0  0  0  0  0  0  0  0  0
  -22.4710  -12.0410   22.3890 H   0  0  0  0  0  0  0  0  0  0  0  0
  -21.1510  -13.1450   22.1620 H   0  0  0  0  0  0  0  0  0  0  0  0
  -25.4740  -15.3270   20.3420 N   0  0  0  0  0  0  0  0  0  0  0  0
  -24.7600  -16.0180   20.5320 H   0  0  0  0  0  0  0  0  0  0  0  0
  -26.3920  -15.7400   20.2180 H   0  0  0  0  0  0  0  0  0  0  0  0
  -27.9900  -25.2470   21.0900 C   0  0  0  0  0  2  0  0  0  0  0  0
  -28.4780  -26.5180   20.4230 O   0  0  0  0  0  0  0  0  0  0  0  0
  -24.6890  -31.9910   23.2460 C   0  0  0  0  0  0  0  0  0  0  0  0
  -27.4440  -27.4810   20.2240 C   0  0  0  0  0  0  0  0  0  0  0  0
  -23.5390  -30.5670   21.6060 C   0  0  0  0  0  3  0  0  0  0  0  0
  -25.0440  -29.0620   20.1860 C   0  0  0  0  0  0  0  0  0  0  0  0
  -26.0800  -30.9420   21.4350 C   0  0  0  0  0  2  0  0  0  0  0  0
  -26.2060  -29.5720   20.7780 C   0  0  0  0  0  0  0  0  0  0  0  0
  -27.4190  -28.8050   20.7760 C   0  0  0  0  0  3  0  0  0  0  0  0
  -26.2760  -27.0820   19.5210 C   0  0  0  0  0  3  0  0  0  0  0  0
  -25.0800  -27.8160   19.5470 C   0  0  0  0  0  3  0  0  0  0  0  0
  -23.7890  -29.9080   20.2320 C   0  0  0  0  0  2  0  0  0  0  0  0
  -24.7930  -31.1820   22.1550 N   0  0  0  0  0  0  0  0  0  0  0  0
  -23.5920  -32.2420   23.7650 O   0  0  0  0  0  0  0  0  0  0  0  0
  -22.8910  -29.5310   22.5560 C   0  0  0  0  0  0  0  0  0  0  0  0
  -21.5650  -29.3400   22.4330 N   0  0  0  0  0  0  0  0  0  0  0  0
  -23.5810  -28.8950   23.3610 O   0  0  0  0  0  0  0  0  0  0  0  0
  -21.0530  -29.9490   21.8060 H   0  0  0  0  0  0  0  0  0  0  0  0
  -18.2090  -28.0340   22.8860 C   0  0  0  0  0  0  0  0  0  0  0  0
  -20.7670  -28.3460   23.1570 C   0  0  0  0  0  3  0  0  0  0  0  0
  -20.9200  -26.9430   22.5170 C   0  0  0  0  0  2  0  0  0  0  0  0
  -19.7860  -26.5720   21.5490 C   0  0  0  0  0  2  0  0  0  0  0  0
  -18.3970  -26.6990   22.1890 C   0  0  0  0  0  2  0  0  0  0  0  0
  -19.3140  -28.8130   23.3270 C   0  0  0  0  0  0  0  0  0  0  0  0
  -19.0650  -30.0760   23.9150 C   0  0  0  0  0  3  0  0  0  0  0  0
  -17.7480  -30.5480   24.0720 C   0  0  0  0  0  3  0  0  0  0  0  0
  -16.6570  -29.7600   23.6570 C   0  0  0  0  0  3  0  0  0  0  0  0
  -16.8950  -28.5050   23.0640 C   0  0  0  0  0  3  0  0  0  0  0  0
  -25.9450  -32.6530   23.8840 C   0  0  0  0  0  3  0  0  0  0  0  0
  -25.6060  -34.0490   24.1830 N   0  0  0  0  0  0  0  0  0  0  0  0
  -25.9480  -35.0960   23.4180 C   0  0  0  0  0  0  0  0  0  0  0  0
  -26.6480  -34.9870   22.4070 O   0  0  0  0  0  0  0  0  0  0  0  0
  -24.9660  -34.2010   24.9490 H   0  0  0  0  0  0  0  0  0  0  0  0
  -24.2050  -36.8610   22.9990 C   0  0  0  0  0  1  0  0  0  0  0  0
  -25.4320  -36.4830   23.8450 C   0  0  0  0  0  3  0  0  0  0  0  0
  -27.5340  -37.4090   24.7230 C   0  0  0  0  0  1  0  0  0  0  0  0
  -26.4590  -37.5480   23.7450 N   0  0  0  0  0  0  0  0  0  0  0  0
  -26.0370  -38.4650   23.8670 H   0  0  0  0  0  0  0  0  0  0  0  0
  -26.4420  -31.9030   25.1810 C   0  0  1  0  0  0  0  0  0  0  0  0
  -25.3290  -31.6530   26.2270 C   0  0  0  0  0  1  0  0  0  0  0  0
  -27.0570  -30.5330   24.8100 C   0  0  0  0  0  1  0  0  0  0  0  0
  -27.5700  -32.7270   25.8460 C   0  0  0  0  0  1  0  0  0  0  0  0
  1  3  1  0
  1  4  1  0
  3 13  1  0
  3  7  1  0
  4  5  1  1
  4  2  1  0
  7  8  1  1
  7  2  1  0
  7  6  1  0
  9 11  2  0
  9 10  1  0
 10 13  2  0
 11 14  1  0
 13 12  1  0
 14 12  2  0
 14 23  1  0
 15 23  1  0
 16 21  1  0
 17 18  1  0
 17 16  1  0
 19 18  1  0
 19 28  1  0
 19 20  1  0
 21 15  1  0
 21 20  1  0
 22 15  2  0
 23 24  1  0
 25 26  2  0
 26 45  1  0
 27 26  1  0
 27 30  1  0
 28 25  1  0
 28 29  1  0
 29 27  2  0
 30 31  1  0
 31 32  2  0
 33 36  1  0
 33 32  1  0
 34 33  2  0
 35 34  1  0
 35 30  2  0
 36 37  1  0
 37 38  1  0
 38 39  2  0
 40 39  1  0
 40 44  1  0
 41 40  2  0
 42 37  2  0
 42 41  1  0
 43 42  1  0
 45 46  1  0
 46 49  1  0
 46 48  1  0
 47 45  2  0
 50 25  1  0
 50 51  1  0
 52 50  1  0
 53  4  1  0
 54 53  1  0
 55 66  2  0
 56 54  1  0
 56 61  1  0
 57 65  1  0
 57 67  1  0
 58 64  1  0
 58 60  1  0
 59 65  1  0
 60 59  1  0
 61 60  2  0
 62 63  1  0
 62 56  2  0
 63 58  2  0
 64 57  1  0
 65 55  1  0
 67 69  2  0
 68 67  1  0
 70 68  1  0
 71 80  2  0
 71 76  1  0
 72 68  1  0
 72 76  1  0
 73 72  1  0
 74 75  1  0
 74 73  1  0
 75 71  1  0
 76 77  2  0
 77 78  1  0
 79 78  2  0
 80 79  1  0
 81 55  1  0
 81 82  1  0
 81 91  1  0
 82 85  1  0
 83 87  1  0
 83 82  1  0
 84 83  2  0
 87 86  1  0
 89 87  1  0
 89 90  1  0
 89 88  1  0
 91 94  1  1
 91 92  1  0
 93 91  1  0
M  ISO  4  15 100  23 100  53 101  54 101
M  END
>  <TORSDO>  (86) 
F 18

>  <SCORE>  (86) 
-14.981

>  <name>  (86) 
85

>  <ligand_id>  (86) 
85

>  <original_smiles>  (86) 
[H]c1c([H])c([H])c2c(c1[H])C([H])([H])C([H])([H])C([H])([H])C2([H])N([H])C(=O)C1([H])N(C(=O)C([H])(N([H])C(=O)C([H])(N([H])C([H])([H])[H])C([H])([H])[H])C(C([H])([H])[H])(C([H])([H])[H])C([H])([H])[H])C([H])([H])c2c([H])c(OC([H])([H])C3(C([H])([H])[H])C([H])([H])C([H])(c4c([H])c([H])c([H])c(N([H])C(=O)N5C([H])([H])C([H])([H])C([H])([H])C([H])(n6nc(-c7c([H])c([H])c(Oc8c([H])c([H])c(F)c([H])c8F)c([H])c7[H])c(C(=O)N([H])[H])c6N([H])[H])C5([H])[H])c4[H])[N+]([H])(C([H])([H])[H])C3([H])[H])c([H])c([H])c2C1([H])[H]

>  <smiles>  (86) 
[H]c1c([H])c([H])c2c(c1[H])C([H])([H])C([H])([H])C([H])([H])C2([H])N([H])C(=O)C1([H])N(C(=O)C([H])(N([H])C(=O)C([H])(N([H])C([H])([H])[H])C([H])([H])[H])C(C([H])([H])[H])(C([H])([H])[H])C([H])([H])[H])C([H])([H])c2c([H])c(OC([H])([H])C3(C([H])([H])[H])C([H])([H])C([H])(c4c([H])c([H])c([H])c(N([H])C(=O)N5C([H])([H])C([H])([H])C([H])([H])C([H])(n6nc(-c7c([H])c([H])c(Oc8c([H])c([H])c(F)c([H])c8F)c([H])c7[H])c(C(=O)N([H])[H])c6N([H])[H])C5([H])[H])c4[H])[N+]([H])(C([H])([H])[H])C3([H])[H])c([H])c([H])c2C1([H])[H]

$$$$
86:0:0
     RDKit          3D

 88 96  0  0  1  0  0  0  0  0999 V2000
  -30.8630  -19.5360   20.3610 C   0  0  0  0  0  3  0  0  0  0  0  0
  -31.1850  -20.9340   20.4010 C   0  0  0  0  0  3  0  0  0  0  0  0
  -28.8830  -21.9620   20.2750 C   0  0  0  0  0  0  0  0  0  0  0  0
  -29.5520  -19.0080   20.2760 C   0  0  0  0  0  0  0  0  0  0  0  0
  -30.2940  -22.0590   20.3630 C   0  0  0  0  0  0  0  0  0  0  0  0
  -28.6020  -20.3440   20.2360 C   0  0  0  0  0  0  0  0  0  0  0  0
  -30.8460  -23.2950   20.4090 F   0  0  0  0  0  0  0  0  0  0  0  0
  -27.2840  -20.0400   20.1480 F   0  0  0  0  0  0  0  0  0  0  0  0
  -30.2170  -15.8610   20.1830 C   0  0  0  0  0  0  0  0  0  0  0  0
  -30.3660  -13.2900   19.3450 C   0  0  0  0  0  2  0  0  0  0  0  0
  -29.4700  -12.8200   18.1590 C   0  0  0  0  0  2  0  0  0  0  0  0
  -28.0690  -12.4200   18.6440 C   0  0  0  0  0  2  0  0  0  0  0  0
  -27.5500  -13.4150   19.7040 C   0  0  0  0  0  3  0  0  0  0  0  0
  -28.5910  -13.7840   20.7910 C   0  0  0  0  0  2  0  0  0  0  0  0
  -29.7190  -14.4680   20.1050 N   0  0  0  0  0  0  0  0  0  0  0  0
  -31.4530  -15.7860   20.0100 O   0  0  0  0  0  0  0  0  0  0  0  0
  -29.4350  -17.2470   20.2560 N   0  0  0  0  0  0  0  0  0  0  0  0
  -28.4590  -16.9970   20.3100 H   0  0  0  0  0  0  0  0  0  0  0  0
  -25.2030  -13.8990   20.5330 C   0  0  0  0  0  0  0  0  0  0  0  0
  -24.1610  -13.1000   20.9080 C   0  0  0  0  0  0  0  0  0  0  0  0
  -24.6460  -11.7580   20.8430 C   0  0  0  0  0  0  0  0  0  0  0  0
  -26.2520  -13.0460   20.2520 N   0  0  0  0  0  0  0  0  0  0  0  0
  -25.9340  -11.7480   20.5040 N   0  0  0  0  0  0  0  0  0  0  0  0
  -23.9350  -10.4840   21.0240 C   0  0  0  0  0  0  0  0  0  0  0  0
  -24.3610   -9.5260   21.9700 C   0  0  0  0  0  3  0  0  0  0  0  0
  -23.6440   -8.3220   22.1430 C   0  0  0  0  0  3  0  0  0  0  0  0
  -22.4870   -8.0670   21.3690 C   0  0  0  0  0  0  0  0  0  0  0  0
  -22.0800   -9.0150   20.4130 C   0  0  0  0  0  3  0  0  0  0  0  0
  -22.7970  -10.2090   20.2400 C   0  0  0  0  0  3  0  0  0  0  0  0
  -21.7420   -6.9140   21.4500 O   0  0  0  0  0  0  0  0  0  0  0  0
  -21.6430   -6.2010   22.6190 C   0  0  0  0  0  0  0  0  0  0  0  0
  -21.1020   -6.7670   23.7930 C   0  0  0  0  0  3  0  0  0  0  0  0
  -20.9540   -5.9780   24.9510 C   0  0  0  0  0  3  0  0  0  0  0  0
  -21.3380   -4.6250   24.9360 C   0  0  0  0  0  0  0  0  0  0  0  0
  -21.8730   -4.0580   23.7650 C   0  0  0  0  0  3  0  0  0  0  0  0
  -22.0210   -4.8440   22.6090 C   0  0  0  0  0  0  0  0  0  0  0  0
  -22.5170   -4.2860   21.4780 F   0  0  0  0  0  0  0  0  0  0  0  0
  -21.1900   -3.8640   26.0460 F   0  0  0  0  0  0  0  0  0  0  0  0
  -22.7640  -13.5570   21.2050 C   0  0  0  0  0  0  0  0  0  0  0  0
  -22.0610  -12.8490   22.0800 N   0  0  0  0  0  0  0  0  0  0  0  0
  -22.3060  -14.5800   20.6960 O   0  0  0  0  0  0  0  0  0  0  0  0
  -22.4460  -12.0230   22.5140 H   0  0  0  0  0  0  0  0  0  0  0  0
  -21.1230  -13.1380   22.3220 H   0  0  0  0  0  0  0  0  0  0  0  0
  -25.3410  -15.2740   20.3730 N   0  0  0  0  0  0  0  0  0  0  0  0
  -24.5630  -15.9120   20.5040 H   0  0  0  0  0  0  0  0  0  0  0  0
  -26.1640  -15.7270   19.9990 H   0  0  0  0  0  0  0  0  0  0  0  0
  -27.9180  -23.6190   20.2030 C   0  0  0  0  0  2  0  0  0  0  0  0
  -28.1340  -25.4150   20.3330 O   0  0  0  0  0  0  0  0  0  0  0  0
  -24.6380  -31.8390   23.2460 C   0  0  0  0  0  0  0  0  0  0  0  0
  -27.1810  -26.6800   20.2790 C   0  0  0  0  0  0  0  0  0  0  0  0
  -23.4690  -30.4490   21.5900 C   0  0  0  0  0  3  0  0  0  0  0  0
  -24.9300  -28.7820   20.1970 C   0  0  0  0  0  0  0  0  0  0  0  0
  -26.0540  -30.5560   21.5120 C   0  0  0  0  0  2  0  0  0  0  0  0
  -26.1210  -29.1150   20.8520 C   0  0  0  0  0  0  0  0  0  0  0  0
  -27.2270  -28.0960   20.8560 C   0  0  0  0  0  3  0  0  0  0  0  0
  -25.9540  -26.5850   19.5680 C   0  0  0  0  0  3  0  0  0  0  0  0
  -24.8920  -27.5450   19.5300 C   0  0  0  0  0  3  0  0  0  0  0  0
  -23.7290  -29.7490   20.2250 C   0  0  0  0  0  2  0  0  0  0  0  0
  -24.7450  -30.9830   22.1690 N   0  0  0  0  0  0  0  0  0  0  0  0
  -23.5370  -32.1450   23.7390 O   0  0  0  0  0  0  0  0  0  0  0  0
  -22.7280  -29.4790   22.5510 C   0  0  0  0  0  0  0  0  0  0  0  0
  -21.3970  -29.3290   22.4040 N   0  0  0  0  0  0  0  0  0  0  0  0
  -23.3660  -28.8570   23.4050 O   0  0  0  0  0  0  0  0  0  0  0  0
  -20.9310  -29.8810   21.6970 H   0  0  0  0  0  0  0  0  0  0  0  0
  -17.9980  -28.1270   22.8750 C   0  0  0  0  0  0  0  0  0  0  0  0
  -20.5560  -28.3930   23.1630 C   0  0  0  0  0  3  0  0  0  0  0  0
  -20.6600  -26.9610   22.5880 C   0  0  0  0  0  2  0  0  0  0  0  0
  -19.5690  -26.6450   21.5590 C   0  0  0  0  0  2  0  0  0  0  0  0
  -18.1810  -26.7840   22.1890 C   0  0  0  0  0  2  0  0  0  0  0  0
  -19.1110  -28.8900   23.3180 C   0  0  0  0  0  0  0  0  0  0  0  0
  -18.8820  -30.1430   23.9260 C   0  0  0  0  0  3  0  0  0  0  0  0
  -17.5730  -30.6360   24.0910 C   0  0  0  0  0  3  0  0  0  0  0  0
  -16.4740  -29.8720   23.6600 C   0  0  0  0  0  3  0  0  0  0  0  0
  -16.6870  -28.6190   23.0590 C   0  0  0  0  0  3  0  0  0  0  0  0
  -25.8900  -32.4880   23.9080 C   0  0  0  0  0  3  0  0  0  0  0  0
  -25.5700  -33.8950   24.2290 N   0  0  0  0  0  0  0  0  0  0  0  0
  -25.8900  -34.9530   23.4720 C   0  0  0  0  0  0  0  0  0  0  0  0
  -26.5400  -34.8490   22.4290 O   0  0  0  0  0  0  0  0  0  0  0  0
  -24.9870  -34.0480   25.0380 H   0  0  0  0  0  0  0  0  0  0  0  0
  -24.1430  -36.7490   23.1840 C   0  0  0  0  0  1  0  0  0  0  0  0
  -25.4190  -36.3480   23.9420 C   0  0  0  0  0  3  0  0  0  0  0  0
  -27.5770  -37.2610   24.6810 C   0  0  0  0  0  1  0  0  0  0  0  0
  -26.4420  -37.4060   23.7760 N   0  0  0  0  0  0  0  0  0  0  0  0
  -26.0350  -38.3260   23.9220 H   0  0  0  0  0  0  0  0  0  0  0  0
  -26.3520  -31.7380   25.2210 C   0  0  1  0  0  0  0  0  0  0  0  0
  -25.2190  -31.5350   26.2570 C   0  0  0  0  0  1  0  0  0  0  0  0
  -26.9320  -30.3450   24.8900 C   0  0  0  0  0  1  0  0  0  0  0  0
  -27.4880  -32.5330   25.9060 C   0  0  0  0  0  1  0  0  0  0  0  0
  1  2  1  0
  3  5  1  0
  4  1  2  0
  5  2  2  0
  5  7  1  0
  6  3  2  0
  6  4  1  0
  8  6  1  0
  9 17  1  0
 10 15  1  0
 11 12  1  0
 11 10  1  0
 13 12  1  0
 13 22  1  0
 13 14  1  0
 15  9  1  0
 15 14  1  0
 16  9  2  0
 17  4  1  0
 17 18  1  0
 19 20  2  0
 20 39  1  0
 21 20  1  0
 21 24  1  0
 22 23  1  0
 22 19  1  0
 23 21  2  0
 24 25  1  0
 25 26  2  0
 27 30  1  0
 27 26  1  0
 28 27  2  0
 29 28  1  0
 29 24  2  0
 30 31  1  0
 31 32  1  0
 32 33  2  0
 34 33  1  0
 34 38  1  0
 35 34  2  0
 36 31  2  0
 36 35  1  0
 37 36  1  0
 39 40  1  0
 40 43  1  0
 40 42  1  0
 41 39  2  0
 44 45  1  0
 44 19  1  0
 46 44  1  0
 47  3  1  0
 47 48  1  0
 49 60  2  0
 50 48  1  0
 50 55  1  0
 51 59  1  0
 51 61  1  0
 52 58  1  0
 52 54  1  0
 53 59  1  0
 54 55  2  0
 54 53  1  0
 56 50  2  0
 57 56  1  0
 57 52  2  0
 58 51  1  0
 59 49  1  0
 61 63  2  0
 62 61  1  0
 64 62  1  0
 65 74  2  0
 65 70  1  0
 66 62  1  0
 66 70  1  0
 67 66  1  0
 68 69  1  0
 68 67  1  0
 69 65  1  0
 70 71  2  0
 71 72  1  0
 73 72  2  0
 74 73  1  0
 75 49  1  0
 75 76  1  0
 75 85  1  0
 76 79  1  0
 77 81  1  0
 77 76  1  0
 78 77  2  0
 81 80  1  0
 83 84  1  0
 83 81  1  0
 83 82  1  0
 85 88  1  1
 85 86  1  0
 87 85  1  0
M  ISO  4   9 100  17 100  47 101  48 101
M  END
>  <TORSDO>  (87) 
F 17

>  <SCORE>  (87) 
-16.459

>  <name>  (87) 
86

>  <ligand_id>  (87) 
86

>  <original_smiles>  (87) 
[H]c1c([H])c([H])c2c(c1[H])C([H])([H])C([H])([H])C([H])([H])C2([H])N([H])C(=O)C1([H])N(C(=O)C([H])(N([H])C(=O)C([H])(N([H])C([H])([H])[H])C([H])([H])[H])C(C([H])([H])[H])(C([H])([H])[H])C([H])([H])[H])C([H])([H])c2c([H])c(OC([H])([H])c3c(F)c([H])c([H])c(N([H])C(=O)N4C([H])([H])C([H])([H])C([H])([H])C([H])(n5nc(-c6c([H])c([H])c(Oc7c([H])c([H])c(F)c([H])c7F)c([H])c6[H])c(C(=O)N([H])[H])c5N([H])[H])C4([H])[H])c3F)c([H])c([H])c2C1([H])[H]

>  <smiles>  (87) 
[H]c1c([H])c([H])c2c(c1[H])C([H])([H])C([H])([H])C([H])([H])C2([H])N([H])C(=O)C1([H])N(C(=O)C([H])(N([H])C(=O)C([H])(N([H])C([H])([H])[H])C([H])([H])[H])C(C([H])([H])[H])(C([H])([H])[H])C([H])([H])[H])C([H])([H])c2c([H])c(OC([H])([H])c3c(F)c([H])c([H])c(N([H])C(=O)N4C([H])([H])C([H])([H])C([H])([H])C([H])(n5nc(-c6c([H])c([H])c(Oc7c([H])c([H])c(F)c([H])c7F)c([H])c6[H])c(C(=O)N([H])[H])c5N([H])[H])C4([H])[H])c3F)c([H])c([H])c2C1([H])[H]

$$$$
87:0:0
     RDKit          3D

 92100  0  0  1  0  0  0  0  0999 V2000
  -29.5870  -18.5080   20.7960 C   0  0  0  0  0  3  0  0  0  0  0  0
  -29.9510  -18.5420   18.0410 C   0  0  0  0  0  3  0  0  0  0  0  0
  -29.8670  -17.2440   20.1260 C   0  0  0  0  0  0  0  0  0  0  0  0
  -29.5010  -19.7950   20.1150 C   0  0  0  0  0  0  0  0  0  0  0  0
  -30.0190  -17.3130   18.7200 C   0  0  0  0  0  0  0  0  0  0  0  0
  -29.7210  -19.7570   18.7110 C   0  0  0  0  0  0  0  0  0  0  0  0
  -30.1860  -16.1850   17.9900 F   0  0  0  0  0  0  0  0  0  0  0  0
  -29.7440  -20.8920   17.9690 F   0  0  0  0  0  0  0  0  0  0  0  0
  -30.6410  -14.7950   20.4680 C   0  0  0  0  0  0  0  0  0  0  0  0
  -30.4660  -12.5230   19.4650 C   0  0  0  0  0  2  0  0  0  0  0  0
  -29.5520  -12.6090   18.2220 C   0  0  0  0  0  2  0  0  0  0  0  0
  -28.0710  -12.4550   18.6190 C   0  0  0  0  0  2  0  0  0  0  0  0
  -27.6820  -13.3310   19.8390 C   0  0  0  0  0  3  0  0  0  0  0  0
  -28.7150  -13.2160   20.9820 C   0  0  0  0  0  2  0  0  0  0  0  0
  -30.0280  -13.5640   20.4230 N   0  0  0  0  0  0  0  0  0  0  0  0
  -31.8240  -14.9110   20.1320 O   0  0  0  0  0  0  0  0  0  0  0  0
  -29.8710  -15.9060   20.7700 N   0  0  0  0  0  0  0  0  0  0  0  0
  -29.0210  -15.6840   21.2640 H   0  0  0  0  0  0  0  0  0  0  0  0
  -25.2740  -13.9260   20.4960 C   0  0  0  0  0  0  0  0  0  0  0  0
  -24.1990  -13.1520   20.8460 C   0  0  0  0  0  0  0  0  0  0  0  0
  -24.6670  -11.8040   20.8440 C   0  0  0  0  0  0  0  0  0  0  0  0
  -26.3240  -13.0460   20.2970 N   0  0  0  0  0  0  0  0  0  0  0  0
  -25.9650  -11.7660   20.5700 N   0  0  0  0  0  0  0  0  0  0  0  0
  -23.9400  -10.5400   21.0310 C   0  0  0  0  0  0  0  0  0  0  0  0
  -24.3570   -9.5810   21.9800 C   0  0  0  0  0  3  0  0  0  0  0  0
  -23.6310   -8.3830   22.1540 C   0  0  0  0  0  3  0  0  0  0  0  0
  -22.4730   -8.1360   21.3780 C   0  0  0  0  0  0  0  0  0  0  0  0
  -22.0740   -9.0840   20.4190 C   0  0  0  0  0  3  0  0  0  0  0  0
  -22.8020  -10.2730   20.2440 C   0  0  0  0  0  3  0  0  0  0  0  0
  -21.7190   -6.9890   21.4610 O   0  0  0  0  0  0  0  0  0  0  0  0
  -21.6530   -6.2540   22.6170 C   0  0  0  0  0  0  0  0  0  0  0  0
  -21.2010   -6.8130   23.8310 C   0  0  0  0  0  3  0  0  0  0  0  0
  -21.0820   -6.0040   24.9800 C   0  0  0  0  0  3  0  0  0  0  0  0
  -21.4070   -4.6350   24.9120 C   0  0  0  0  0  0  0  0  0  0  0  0
  -21.8530   -4.0750   23.7020 C   0  0  0  0  0  3  0  0  0  0  0  0
  -21.9730   -4.8830   22.5570 C   0  0  0  0  0  0  0  0  0  0  0  0
  -22.3820   -4.3330   21.3880 F   0  0  0  0  0  0  0  0  0  0  0  0
  -21.2870   -3.8550   26.0120 F   0  0  0  0  0  0  0  0  0  0  0  0
  -22.7940  -13.6310   21.0710 C   0  0  0  0  0  0  0  0  0  0  0  0
  -22.0430  -12.9480   21.9300 N   0  0  0  0  0  0  0  0  0  0  0  0
  -22.3670  -14.6450   20.5210 O   0  0  0  0  0  0  0  0  0  0  0  0
  -22.3970  -12.1270   22.3980 H   0  0  0  0  0  0  0  0  0  0  0  0
  -21.1010  -13.2550   22.1200 H   0  0  0  0  0  0  0  0  0  0  0  0
  -25.4460  -15.2940   20.3120 N   0  0  0  0  0  0  0  0  0  0  0  0
  -24.6930  -15.9610   20.4340 H   0  0  0  0  0  0  0  0  0  0  0  0
  -26.3100  -15.7250   20.0110 H   0  0  0  0  0  0  0  0  0  0  0  0
  -29.2520  -21.0570   20.7960 N   0  0  0  0  0  0  0  0  0  0  0  0
  -29.1930  -20.9810   21.8070 H   0  0  0  0  0  0  0  0  0  0  0  0
  -28.5140  -22.2620   20.2320 C   0  0  0  0  0  2  0  0  0  0  0  0
  -28.8960  -23.7540   20.7170 C   0  0  0  0  0  3  0  0  0  0  0  0
  -27.9570  -24.9590   20.2040 C   0  0  0  0  0  3  0  0  0  0  0  0
  -28.2490  -26.4220   20.3840 O   0  0  0  0  0  0  0  0  0  0  0  0
  -24.5780  -31.9470   23.2740 C   0  0  0  0  0  0  0  0  0  0  0  0
  -27.1690  -27.3260   20.2770 C   0  0  0  0  0  0  0  0  0  0  0  0
  -23.3720  -30.5450   21.6410 C   0  0  0  0  0  3  0  0  0  0  0  0
  -24.8210  -28.9820   20.2240 C   0  0  0  0  0  0  0  0  0  0  0  0
  -25.9180  -30.8430   21.4660 C   0  0  0  0  0  2  0  0  0  0  0  0
  -25.9910  -29.4580   20.8290 C   0  0  0  0  0  0  0  0  0  0  0  0
  -27.1650  -28.6410   20.8490 C   0  0  0  0  0  3  0  0  0  0  0  0
  -25.9820  -26.9290   19.6190 C   0  0  0  0  0  3  0  0  0  0  0  0
  -24.8230  -27.7250   19.6050 C   0  0  0  0  0  3  0  0  0  0  0  0
  -23.5880  -29.8610   20.2640 C   0  0  0  0  0  2  0  0  0  0  0  0
  -24.6410  -31.1310   22.1830 N   0  0  0  0  0  0  0  0  0  0  0  0
  -23.4940  -32.2330   23.8030 O   0  0  0  0  0  0  0  0  0  0  0  0
  -22.7080  -29.5340   22.6070 C   0  0  0  0  0  0  0  0  0  0  0  0
  -21.3820  -29.3530   22.4750 N   0  0  0  0  0  0  0  0  0  0  0  0
  -23.3830  -28.9130   23.4340 O   0  0  0  0  0  0  0  0  0  0  0  0
  -20.8930  -29.9070   21.7850 H   0  0  0  0  0  0  0  0  0  0  0  0
  -18.0060  -28.1490   22.9630 C   0  0  0  0  0  0  0  0  0  0  0  0
  -20.5620  -28.4200   23.2510 C   0  0  0  0  0  3  0  0  0  0  0  0
  -20.6720  -26.9860   22.6850 C   0  0  0  0  0  2  0  0  0  0  0  0
  -19.5780  -26.6540   21.6660 C   0  0  0  0  0  2  0  0  0  0  0  0
  -18.1910  -26.7960   22.3000 C   0  0  0  0  0  2  0  0  0  0  0  0
  -19.1190  -28.9190   23.3950 C   0  0  0  0  0  0  0  0  0  0  0  0
  -18.8920  -30.1880   23.9700 C   0  0  0  0  0  3  0  0  0  0  0  0
  -17.5870  -30.6890   24.1200 C   0  0  0  0  0  3  0  0  0  0  0  0
  -16.4880  -29.9160   23.7070 C   0  0  0  0  0  3  0  0  0  0  0  0
  -16.6970  -28.6490   23.1330 C   0  0  0  0  0  3  0  0  0  0  0  0
  -25.8610  -32.5810   23.8940 C   0  0  0  0  0  3  0  0  0  0  0  0
  -26.3660  -31.8240   25.1820 C   0  0  1  0  0  0  0  0  0  0  0  0
  -25.2670  -31.6040   26.2480 C   0  0  0  0  0  1  0  0  0  0  0  0
  -26.9450  -30.4380   24.8110 C   0  0  0  0  0  1  0  0  0  0  0  0
  -27.5170  -32.6210   25.8400 C   0  0  0  0  0  1  0  0  0  0  0  0
  -25.5540  -33.9840   24.2060 N   0  0  0  0  0  0  0  0  0  0  0  0
  -25.8940  -35.0280   23.4380 C   0  0  0  0  0  0  0  0  0  0  0  0
  -26.5710  -34.9100   22.4120 O   0  0  0  0  0  0  0  0  0  0  0  0
  -24.9550  -34.1490   25.0020 H   0  0  0  0  0  0  0  0  0  0  0  0
  -24.1850  -36.8320   23.0450 C   0  0  0  0  0  1  0  0  0  0  0  0
  -25.4110  -36.4260   23.8770 C   0  0  0  0  0  3  0  0  0  0  0  0
  -27.5400  -37.3040   24.7290 C   0  0  0  0  0  1  0  0  0  0  0  0
  -26.4530  -37.4700   23.7690 N   0  0  0  0  0  0  0  0  0  0  0  0
  -26.0510  -38.3940   23.8980 H   0  0  0  0  0  0  0  0  0  0  0  0
  2  6  2  0
  2  5  1  0
  3 17  1  0
  3  1  1  0
  4  1  2  0
  4 47  1  0
  5  3  2  0
  6  4  1  0
  7  5  1  0
  8  6  1  0
  9 17  1  0
 10 15  1  0
 11 12  1  0
 11 10  1  0
 13 12  1  0
 13 22  1  0
 13 14  1  0
 15  9  1  0
 15 14  1  0
 16  9  2  0
 17 18  1  0
 19 20  2  0
 20 39  1  0
 21 20  1  0
 21 24  1  0
 22 19  1  0
 22 23  1  0
 23 21  2  0
 24 25  1  0
 25 26  2  0
 27 30  1  0
 27 26  1  0
 28 27  2  0
 29 28  1  0
 29 24  2  0
 30 31  1  0
 31 32  1  0
 32 33  2  0
 34 33  1  0
 34 38  1  0
 35 34  2  0
 36 31  2  0
 36 35  1  0
 37 36  1  0
 39 40  1  0
 40 43  1  0
 40 42  1  0
 41 39  2  0
 44 45  1  0
 44 19  1  0
 46 44  1  0
 47 48  1  0
 49 50  1  0
 49 47  1  0
 51 52  1  0
 51 50  2  0
 53 64  2  0
 54 52  1  0
 54 59  1  0
 55 63  1  0
 55 65  1  0
 56 62  1  0
 56 58  1  0
 57 63  1  0
 58 59  2  0
 58 57  1  0
 60 54  2  0
 61 60  1  0
 61 56  2  0
 62 55  1  0
 63 53  1  0
 65 67  2  0
 66 65  1  0
 68 66  1  0
 69 78  2  0
 69 74  1  0
 70 66  1  0
 70 74  1  0
 71 70  1  0
 72 73  1  0
 72 71  1  0
 73 69  1  0
 74 75  2  0
 75 76  1  0
 77 76  2  0
 78 77  1  0
 79 53  1  0
 79 84  1  0
 79 80  1  0
 80 83  1  1
 80 81  1  0
 82 80  1  0
 84 87  1  0
 85 89  1  0
 85 84  1  0
 86 85  2  0
 89 88  1  0
 91 89  1  0
 91 92  1  0
 91 90  1  0
M  ISO  4   9 100  17 100  51 101  52 101
M  END
>  <TORSDO>  (88) 
F 20

>  <SCORE>  (88) 
-13.548

>  <name>  (88) 
87

>  <ligand_id>  (88) 
87

>  <original_smiles>  (88) 
[H]c1c([H])c([H])c2c(c1[H])C([H])([H])C([H])([H])C([H])([H])C2([H])N([H])C(=O)C1([H])N(C(=O)C([H])(N([H])C(=O)C([H])(N([H])C([H])([H])[H])C([H])([H])[H])C(C([H])([H])[H])(C([H])([H])[H])C([H])([H])[H])C([H])([H])c2c([H])c(OC([H])([H])C([H])([H])C([H])([H])N([H])c3c([H])c(N([H])C(=O)N4C([H])([H])C([H])([H])C([H])([H])C([H])(n5nc(-c6c([H])c([H])c(Oc7c([H])c([H])c(F)c([H])c7F)c([H])c6[H])c(C(=O)N([H])[H])c5N([H])[H])C4([H])[H])c(F)c([H])c3F)c([H])c([H])c2C1([H])[H]

>  <smiles>  (88) 
[H]c1c([H])c([H])c2c(c1[H])C([H])([H])C([H])([H])C([H])([H])C2([H])N([H])C(=O)C1([H])N(C(=O)C([H])(N([H])C(=O)C([H])(N([H])C([H])([H])[H])C([H])([H])[H])C(C([H])([H])[H])(C([H])([H])[H])C([H])([H])[H])C([H])([H])c2c([H])c(OC([H])([H])C([H])([H])C([H])([H])N([H])c3c([H])c(N([H])C(=O)N4C([H])([H])C([H])([H])C([H])([H])C([H])(n5nc(-c6c([H])c([H])c(Oc7c([H])c([H])c(F)c([H])c7F)c([H])c6[H])c(C(=O)N([H])[H])c5N([H])[H])C4([H])[H])c(F)c([H])c3F)c([H])c([H])c2C1([H])[H]

$$$$
88:0:0
     RDKit          3D

 94102  0  0  1  0  0  0  0  0999 V2000
  -29.7270  -21.0950   19.7070 C   0  0  0  0  0  0  0  0  0  0  0  0
  -29.1820  -22.3570   19.4690 N   0  0  0  0  0  0  0  0  0  0  0  0
  -30.6210  -20.9470   20.5390 O   0  0  0  0  0  0  0  0  0  0  0  0
  -28.5410  -22.4180   18.6890 H   0  0  0  0  0  0  0  0  0  0  0  0
  -28.3490  -18.0790   20.5090 C   0  0  0  0  0  2  0  0  0  0  0  0
  -27.1560  -18.9480   20.0770 C   0  0  0  0  0  2  0  0  0  0  0  0
  -29.2800  -18.2320   19.3150 C   0  0  0  0  0  3  0  0  0  0  0  0
  -29.1240  -19.8150   18.9590 C   0  0  0  0  0  3  0  0  0  0  0  0
  -27.6630  -19.9850   19.1380 N   0  0  0  0  0  4  0  0  0  0  0  0
  -27.5060  -20.9050   19.5180 H   0  0  0  0  0  0  0  0  0  0  0  0
  -27.1920  -19.9190   18.2500 H   0  0  0  0  0  0  0  0  0  0  0  0
  -31.2490  -14.9000   19.9470 C   0  0  0  0  0  0  0  0  0  0  0  0
  -31.2420  -12.4240   19.6160 C   0  0  0  0  0  2  0  0  0  0  0  0
  -30.4060  -12.0980   18.3570 C   0  0  0  0  0  2  0  0  0  0  0  0
  -28.9140  -11.9550   18.7160 C   0  0  0  0  0  2  0  0  0  0  0  0
  -28.4010  -13.1180   19.6070 C   0  0  0  0  0  3  0  0  0  0  0  0
  -29.3660  -13.4070   20.7800 C   0  0  0  0  0  2  0  0  0  0  0  0
  -30.6930  -13.6650   20.2060 N   0  0  0  0  0  0  0  0  0  0  0  0
  -32.4500  -14.9730   19.6670 O   0  0  0  0  0  0  0  0  0  0  0  0
  -30.5460  -17.2700   19.3430 C   0  0  0  0  0  0  0  0  0  0  0  0
  -30.3780  -15.9720   19.8220 N   0  0  0  0  0  0  0  0  0  0  0  0
  -31.6210  -17.7060   18.9250 O   0  0  0  0  0  0  0  0  0  0  0  0
  -29.4370  -15.7510   20.1000 H   0  0  0  0  0  0  0  0  0  0  0  0
  -26.0160  -13.8120   20.2500 C   0  0  0  0  0  0  0  0  0  0  0  0
  -24.9140  -13.0860   20.6100 C   0  0  0  0  0  0  0  0  0  0  0  0
  -25.3280  -11.7180   20.6240 C   0  0  0  0  0  0  0  0  0  0  0  0
  -27.0340  -12.8900   20.0640 N   0  0  0  0  0  0  0  0  0  0  0  0
  -26.6250  -11.6280   20.3530 N   0  0  0  0  0  0  0  0  0  0  0  0
  -24.5530  -10.4870   20.8220 C   0  0  0  0  0  0  0  0  0  0  0  0
  -24.8560   -9.5840   21.8650 C   0  0  0  0  0  3  0  0  0  0  0  0
  -24.0820   -8.4160   22.0470 C   0  0  0  0  0  3  0  0  0  0  0  0
  -22.9930   -8.1450   21.1860 C   0  0  0  0  0  0  0  0  0  0  0  0
  -22.7100   -9.0360   20.1360 C   0  0  0  0  0  3  0  0  0  0  0  0
  -23.4840  -10.1950   19.9520 C   0  0  0  0  0  3  0  0  0  0  0  0
  -22.2030   -7.0250   21.2720 O   0  0  0  0  0  0  0  0  0  0  0  0
  -21.8950   -6.4520   22.4800 C   0  0  0  0  0  0  0  0  0  0  0  0
  -21.2310   -7.1710   23.4980 C   0  0  0  0  0  3  0  0  0  0  0  0
  -20.8720   -6.5230   24.6970 C   0  0  0  0  0  3  0  0  0  0  0  0
  -21.1670   -5.1580   24.8770 C   0  0  0  0  0  0  0  0  0  0  0  0
  -21.8230   -4.4390   23.8620 C   0  0  0  0  0  3  0  0  0  0  0  0
  -22.1830   -5.0840   22.6660 C   0  0  0  0  0  0  0  0  0  0  0  0
  -22.7960   -4.3820   21.6830 F   0  0  0  0  0  0  0  0  0  0  0  0
  -20.8150   -4.5350   26.0260 F   0  0  0  0  0  0  0  0  0  0  0  0
  -23.5270  -13.6180   20.8260 C   0  0  0  0  0  0  0  0  0  0  0  0
  -22.7570  -12.9830   21.7030 N   0  0  0  0  0  0  0  0  0  0  0  0
  -23.1360  -14.6320   20.2520 O   0  0  0  0  0  0  0  0  0  0  0  0
  -23.0860  -12.1630   22.1900 H   0  0  0  0  0  0  0  0  0  0  0  0
  -21.8250  -13.3240   21.8910 H   0  0  0  0  0  0  0  0  0  0  0  0
  -26.2310  -15.1710   20.0360 N   0  0  0  0  0  0  0  0  0  0  0  0
  -25.4600  -15.8280   20.0600 H   0  0  0  0  0  0  0  0  0  0  0  0
  -27.0550  -15.5430   19.5830 H   0  0  0  0  0  0  0  0  0  0  0  0
  -29.4460  -23.7150   20.1230 C   0  0  0  0  0  3  0  0  0  0  0  0
  -28.4810  -24.9500   19.7120 C   0  0  0  0  0  3  0  0  0  0  0  0
  -28.6380  -26.3560   20.2260 O   0  0  0  0  0  0  0  0  0  0  0  0
  -24.6970  -31.6260   23.3000 C   0  0  0  0  0  0  0  0  0  0  0  0
  -27.5290  -27.2360   20.1480 C   0  0  0  0  0  0  0  0  0  0  0  0
  -23.6000  -30.2940   21.5370 C   0  0  0  0  0  3  0  0  0  0  0  0
  -25.1460  -28.8430   20.1020 C   0  0  0  0  0  0  0  0  0  0  0  0
  -26.1430  -30.6520   21.4950 C   0  0  0  0  0  2  0  0  0  0  0  0
  -26.2790  -29.3080   20.7800 C   0  0  0  0  0  0  0  0  0  0  0  0
  -27.4740  -28.5180   20.7930 C   0  0  0  0  0  3  0  0  0  0  0  0
  -26.3710  -26.8450   19.4370 C   0  0  0  0  0  3  0  0  0  0  0  0
  -25.1970  -27.6210   19.4190 C   0  0  0  0  0  3  0  0  0  0  0  0
  -23.8920  -29.6960   20.1360 C   0  0  0  0  0  2  0  0  0  0  0  0
  -24.8300  -30.8730   22.1680 N   0  0  0  0  0  0  0  0  0  0  0  0
  -23.5850  -31.8590   23.7930 O   0  0  0  0  0  0  0  0  0  0  0  0
  -22.9110  -29.2180   22.4110 C   0  0  0  0  0  0  0  0  0  0  0  0
  -21.5970  -29.0210   22.2090 N   0  0  0  0  0  0  0  0  0  0  0  0
  -23.5610  -28.5670   23.2350 O   0  0  0  0  0  0  0  0  0  0  0  0
  -21.1310  -29.6010   21.5240 H   0  0  0  0  0  0  0  0  0  0  0  0
  -18.2130  -27.7790   22.5300 C   0  0  0  0  0  0  0  0  0  0  0  0
  -20.7610  -28.0310   22.8910 C   0  0  0  0  0  3  0  0  0  0  0  0
  -20.8880  -26.6410   22.2270 C   0  0  0  0  0  2  0  0  0  0  0  0
  -19.8180  -26.3820   21.1610 C   0  0  0  0  0  2  0  0  0  0  0  0
  -18.4180  -26.4780   21.7710 C   0  0  0  0  0  2  0  0  0  0  0  0
  -19.3140  -28.5160   23.0410 C   0  0  0  0  0  0  0  0  0  0  0  0
  -19.0690  -29.7360   23.7080 C   0  0  0  0  0  3  0  0  0  0  0  0
  -17.7560  -30.2190   23.8690 C   0  0  0  0  0  3  0  0  0  0  0  0
  -16.6700  -29.4780   23.3720 C   0  0  0  0  0  3  0  0  0  0  0  0
  -16.8990  -28.2590   22.7080 C   0  0  0  0  0  3  0  0  0  0  0  0
  -25.9360  -32.2490   24.0130 C   0  0  0  0  0  3  0  0  0  0  0  0
  -26.3020  -31.5240   25.3670 C   0  0  1  0  0  0  0  0  0  0  0  0
  -25.1000  -31.3550   26.3260 C   0  0  0  0  0  1  0  0  0  0  0  0
  -26.8880  -30.1200   25.0960 C   0  0  0  0  0  1  0  0  0  0  0  0
  -27.3980  -32.3250   26.1090 C   0  0  0  0  0  1  0  0  0  0  0  0
  -25.6440  -33.6700   24.2510 N   0  0  0  0  0  0  0  0  0  0  0  0
  -26.0530  -34.6750   23.4640 C   0  0  0  0  0  0  0  0  0  0  0  0
  -26.7830  -34.5010   22.4850 O   0  0  0  0  0  0  0  0  0  0  0  0
  -25.0040  -33.8800   25.0040 H   0  0  0  0  0  0  0  0  0  0  0  0
  -24.3940  -36.4860   22.9190 C   0  0  0  0  0  1  0  0  0  0  0  0
  -25.5770  -36.0970   23.8210 C   0  0  0  0  0  3  0  0  0  0  0  0
  -27.6770  -36.9840   24.7340 C   0  0  0  0  0  1  0  0  0  0  0  0
  -26.6410  -37.1180   23.7120 N   0  0  0  0  0  0  0  0  0  0  0  0
  -26.2500  -38.0540   23.7780 H   0  0  0  0  0  0  0  0  0  0  0  0
  1  3  2  0
  2  1  1  0
  2 52  1  0
  4  2  1  0
  6  5  1  0
  7 20  1  0
  7  5  1  0
  8  9  1  0
  8  7  1  0
  8  1  1  0
  9 10  1  0
  9  6  1  0
 11  9  1  0
 12 18  1  0
 13 18  1  0
 14 15  1  0
 14 13  1  0
 16 15  1  0
 16 27  1  0
 16 17  1  0
 18 17  1  0
 19 12  2  0
 20 21  1  0
 21 12  1  0
 21 23  1  0
 22 20  2  0
 24 25  2  0
 25 26  1  0
 25 44  1  0
 26 29  1  0
 27 24  1  0
 27 28  1  0
 28 26  2  0
 29 30  1  0
 30 31  2  0
 32 35  1  0
 32 31  1  0
 33 32  2  0
 34 33  1  0
 34 29  2  0
 35 36  1  0
 36 41  2  0
 36 37  1  0
 37 38  2  0
 38 39  1  0
 39 43  1  0
 40 39  2  0
 41 40  1  0
 42 41  1  0
 44 45  1  0
 45 48  1  0
 45 47  1  0
 46 44  2  0
 49 50  1  0
 49 24  1  0
 51 49  1  0
 53 52  2  0
 53 54  1  0
 55 66  2  0
 56 54  1  0
 56 61  1  0
 57 65  1  0
 57 67  1  0
 58 64  1  0
 58 60  1  0
 59 65  1  0
 60 61  2  0
 60 59  1  0
 62 56  2  0
 63 62  1  0
 63 58  2  0
 64 57  1  0
 65 55  1  0
 67 69  2  0
 68 67  1  0
 70 68  1  0
 71 80  2  0
 71 76  1  0
 72 68  1  0
 72 76  1  0
 73 72  1  0
 74 75  1  0
 74 73  1  0
 75 71  1  0
 76 77  2  0
 77 78  1  0
 79 78  2  0
 80 79  1  0
 81 55  1  0
 81 86  1  0
 81 82  1  0
 82 85  1  1
 82 83  1  0
 84 82  1  0
 86 89  1  0
 87 91  1  0
 87 86  1  0
 88 87  2  0
 91 90  1  0
 93 94  1  0
 93 91  1  0
 93 92  1  0
M  ISO  4  12 100  21 100  53 101  54 101
M  END
>  <TORSDO>  (89) 
F 19

>  <SCORE>  (89) 
-12.534

>  <name>  (89) 
88

>  <ligand_id>  (89) 
88

>  <original_smiles>  (89) 
[H]c1c([H])c([H])c2c(c1[H])C([H])([H])C([H])([H])C([H])([H])C2([H])N([H])C(=O)C1([H])N(C(=O)C([H])(N([H])C(=O)C([H])(N([H])C([H])([H])[H])C([H])([H])[H])C(C([H])([H])[H])(C([H])([H])[H])C([H])([H])[H])C([H])([H])c2c([H])c(OC([H])([H])C([H])([H])N([H])C(=O)C3([H])C([H])(C(=O)N([H])C(=O)N4C([H])([H])C([H])([H])C([H])([H])C([H])(n5nc(-c6c([H])c([H])c(Oc7c([H])c([H])c(F)c([H])c7F)c([H])c6[H])c(C(=O)N([H])[H])c5N([H])[H])C4([H])[H])C([H])([H])C([H])([H])[N+]3([H])[H])c([H])c([H])c2C1([H])[H]

>  <smiles>  (89) 
[H]c1c([H])c([H])c2c(c1[H])C([H])([H])C([H])([H])C([H])([H])C2([H])N([H])C(=O)C1([H])N(C(=O)C([H])(N([H])C(=O)C([H])(N([H])C([H])([H])[H])C([H])([H])[H])C(C([H])([H])[H])(C([H])([H])[H])C([H])([H])[H])C([H])([H])c2c([H])c(OC([H])([H])C([H])([H])N([H])C(=O)C3([H])C([H])(C(=O)N([H])C(=O)N4C([H])([H])C([H])([H])C([H])([H])C([H])(n5nc(-c6c([H])c([H])c(Oc7c([H])c([H])c(F)c([H])c7F)c([H])c6[H])c(C(=O)N([H])[H])c5N([H])[H])C4([H])[H])C([H])([H])C([H])([H])[N+]3([H])[H])c([H])c([H])c2C1([H])[H]

$$$$
89:0:0
     RDKit          3D

 88 96  0  0  1  0  0  0  0  0999 V2000
  -28.5860  -20.3740   20.2810 C   0  0  0  0  0  3  0  0  0  0  0  0
  -31.1550  -20.9660   20.4090 C   0  0  0  0  0  3  0  0  0  0  0  0
  -28.8510  -21.9940   20.3190 C   0  0  0  0  0  0  0  0  0  0  0  0
  -29.5290  -19.0310   20.3020 C   0  0  0  0  0  0  0  0  0  0  0  0
  -30.2630  -22.0910   20.3860 C   0  0  0  0  0  0  0  0  0  0  0  0
  -30.8430  -19.5640   20.3710 C   0  0  0  0  0  0  0  0  0  0  0  0
  -30.8130  -23.3290   20.4280 F   0  0  0  0  0  0  0  0  0  0  0  0
  -31.8830  -18.6990   20.4090 F   0  0  0  0  0  0  0  0  0  0  0  0
  -30.1920  -15.8810   20.1980 C   0  0  0  0  0  0  0  0  0  0  0  0
  -30.3340  -13.3120   19.3530 C   0  0  0  0  0  2  0  0  0  0  0  0
  -29.4370  -12.8470   18.1670 C   0  0  0  0  0  2  0  0  0  0  0  0
  -28.0340  -12.4510   18.6520 C   0  0  0  0  0  2  0  0  0  0  0  0
  -27.5190  -13.4420   19.7190 C   0  0  0  0  0  3  0  0  0  0  0  0
  -28.5620  -13.8050   20.8040 C   0  0  0  0  0  2  0  0  0  0  0  0
  -29.6910  -14.4890   20.1170 N   0  0  0  0  0  0  0  0  0  0  0  0
  -31.4250  -15.7950   20.0190 O   0  0  0  0  0  0  0  0  0  0  0  0
  -29.4110  -17.2680   20.2780 N   0  0  0  0  0  0  0  0  0  0  0  0
  -28.4370  -17.0140   20.3390 H   0  0  0  0  0  0  0  0  0  0  0  0
  -25.1760  -13.9230   20.5590 C   0  0  0  0  0  0  0  0  0  0  0  0
  -24.1350  -13.1240   20.9340 C   0  0  0  0  0  0  0  0  0  0  0  0
  -24.6190  -11.7810   20.8620 C   0  0  0  0  0  0  0  0  0  0  0  0
  -26.2230  -13.0710   20.2690 N   0  0  0  0  0  0  0  0  0  0  0  0
  -25.9050  -11.7710   20.5170 N   0  0  0  0  0  0  0  0  0  0  0  0
  -23.9060  -10.5070   21.0400 C   0  0  0  0  0  0  0  0  0  0  0  0
  -24.3410   -9.5390   21.9700 C   0  0  0  0  0  3  0  0  0  0  0  0
  -23.6240   -8.3350   22.1410 C   0  0  0  0  0  3  0  0  0  0  0  0
  -22.4560   -8.0910   21.3800 C   0  0  0  0  0  0  0  0  0  0  0  0
  -22.0390   -9.0490   20.4380 C   0  0  0  0  0  3  0  0  0  0  0  0
  -22.7580  -10.2430   20.2660 C   0  0  0  0  0  3  0  0  0  0  0  0
  -21.7100   -6.9390   21.4600 O   0  0  0  0  0  0  0  0  0  0  0  0
  -21.6300   -6.2110   22.6200 C   0  0  0  0  0  0  0  0  0  0  0  0
  -21.1120   -6.7630   23.8120 C   0  0  0  0  0  3  0  0  0  0  0  0
  -20.9830   -5.9590   24.9620 C   0  0  0  0  0  3  0  0  0  0  0  0
  -21.3630   -4.6050   24.9220 C   0  0  0  0  0  0  0  0  0  0  0  0
  -21.8740   -4.0510   23.7330 C   0  0  0  0  0  3  0  0  0  0  0  0
  -22.0030   -4.8520   22.5850 C   0  0  0  0  0  0  0  0  0  0  0  0
  -22.4760   -4.3080   21.4380 F   0  0  0  0  0  0  0  0  0  0  0  0
  -21.2330   -3.8300   26.0240 F   0  0  0  0  0  0  0  0  0  0  0  0
  -22.7390  -13.5810   21.2380 C   0  0  0  0  0  0  0  0  0  0  0  0
  -22.0370  -12.8700   22.1120 N   0  0  0  0  0  0  0  0  0  0  0  0
  -22.2810  -14.6080   20.7370 O   0  0  0  0  0  0  0  0  0  0  0  0
  -22.4230  -12.0410   22.5410 H   0  0  0  0  0  0  0  0  0  0  0  0
  -21.1000  -13.1570   22.3560 H   0  0  0  0  0  0  0  0  0  0  0  0
  -25.3140  -15.3000   20.4050 N   0  0  0  0  0  0  0  0  0  0  0  0
  -24.5360  -15.9350   20.5450 H   0  0  0  0  0  0  0  0  0  0  0  0
  -26.1330  -15.7540   20.0250 H   0  0  0  0  0  0  0  0  0  0  0  0
  -27.8820  -23.6480   20.2720 C   0  0  0  0  0  2  0  0  0  0  0  0
  -28.1060  -25.4430   20.3800 O   0  0  0  0  0  0  0  0  0  0  0  0
  -24.6390  -31.8960   23.2540 C   0  0  0  0  0  0  0  0  0  0  0  0
  -27.1560  -26.7080   20.3220 C   0  0  0  0  0  0  0  0  0  0  0  0
  -23.4600  -30.4950   21.6170 C   0  0  0  0  0  3  0  0  0  0  0  0
  -24.9100  -28.8140   20.2310 C   0  0  0  0  0  0  0  0  0  0  0  0
  -26.0440  -30.5960   21.5260 C   0  0  0  0  0  2  0  0  0  0  0  0
  -26.1050  -29.1490   20.8780 C   0  0  0  0  0  0  0  0  0  0  0  0
  -27.2090  -28.1280   20.8860 C   0  0  0  0  0  3  0  0  0  0  0  0
  -25.9260  -26.6090   19.6160 C   0  0  0  0  0  3  0  0  0  0  0  0
  -24.8650  -27.5710   19.5750 C   0  0  0  0  0  3  0  0  0  0  0  0
  -23.7120  -29.7830   20.2550 C   0  0  0  0  0  2  0  0  0  0  0  0
  -24.7390  -31.0300   22.1840 N   0  0  0  0  0  0  0  0  0  0  0  0
  -23.5420  -32.2080   23.7500 O   0  0  0  0  0  0  0  0  0  0  0  0
  -22.7220  -29.5340   22.5900 C   0  0  0  0  0  0  0  0  0  0  0  0
  -21.3890  -29.3890   22.4540 N   0  0  0  0  0  0  0  0  0  0  0  0
  -23.3630  -28.9150   23.4420 O   0  0  0  0  0  0  0  0  0  0  0  0
  -20.9190  -29.9380   21.7470 H   0  0  0  0  0  0  0  0  0  0  0  0
  -17.9890  -28.2010   22.9540 C   0  0  0  0  0  0  0  0  0  0  0  0
  -20.5500  -28.4620   23.2260 C   0  0  0  0  0  3  0  0  0  0  0  0
  -20.6470  -27.0250   22.6630 C   0  0  0  0  0  2  0  0  0  0  0  0
  -19.5510  -26.7020   21.6430 C   0  0  0  0  0  2  0  0  0  0  0  0
  -18.1660  -26.8510   22.2780 C   0  0  0  0  0  2  0  0  0  0  0  0
  -19.1070  -28.9640   23.3840 C   0  0  0  0  0  0  0  0  0  0  0  0
  -18.8840  -30.2240   23.9820 C   0  0  0  0  0  3  0  0  0  0  0  0
  -17.5780  -30.7210   24.1490 C   0  0  0  0  0  3  0  0  0  0  0  0
  -16.4750  -29.9560   23.7310 C   0  0  0  0  0  3  0  0  0  0  0  0
  -16.6820  -28.6970   23.1400 C   0  0  0  0  0  3  0  0  0  0  0  0
  -25.8970  -32.5480   23.9050 C   0  0  0  0  0  3  0  0  0  0  0  0
  -25.5790  -33.9560   24.2210 N   0  0  0  0  0  0  0  0  0  0  0  0
  -25.9020  -35.0120   23.4620 C   0  0  0  0  0  0  0  0  0  0  0  0
  -26.5550  -34.9040   22.4220 O   0  0  0  0  0  0  0  0  0  0  0  0
  -24.9950  -34.1120   25.0300 H   0  0  0  0  0  0  0  0  0  0  0  0
  -24.1670  -36.8160   23.1580 C   0  0  0  0  0  1  0  0  0  0  0  0
  -25.4340  -36.4090   23.9280 C   0  0  0  0  0  3  0  0  0  0  0  0
  -27.5890  -37.3120   24.6870 C   0  0  0  0  0  1  0  0  0  0  0  0
  -26.4610  -37.4620   23.7720 N   0  0  0  0  0  0  0  0  0  0  0  0
  -26.0580  -38.3840   23.9150 H   0  0  0  0  0  0  0  0  0  0  0  0
  -26.3680  -31.8050   25.2170 C   0  0  1  0  0  0  0  0  0  0  0  0
  -25.2430  -31.6030   26.2610 C   0  0  0  0  0  1  0  0  0  0  0  0
  -26.9490  -30.4110   24.8900 C   0  0  0  0  0  1  0  0  0  0  0  0
  -27.5070  -32.6040   25.8930 C   0  0  0  0  0  1  0  0  0  0  0  0
  1  4  2  0
  1  3  1  0
  3  5  2  0
  4  6  1  0
  5  2  1  0
  5  7  1  0
  6  8  1  0
  6  2  2  0
  9 17  1  0
 10 15  1  0
 11 12  1  0
 11 10  1  0
 13 12  1  0
 13 22  1  0
 13 14  1  0
 15  9  1  0
 15 14  1  0
 16  9  2  0
 17  4  1  0
 17 18  1  0
 19 20  2  0
 20 39  1  0
 21 20  1  0
 21 24  1  0
 22 23  1  0
 22 19  1  0
 23 21  2  0
 24 25  1  0
 25 26  2  0
 27 30  1  0
 27 26  1  0
 28 27  2  0
 29 28  1  0
 29 24  2  0
 30 31  1  0
 31 32  1  0
 32 33  2  0
 34 33  1  0
 34 38  1  0
 35 34  2  0
 36 31  2  0
 36 35  1  0
 37 36  1  0
 39 40  1  0
 40 43  1  0
 40 42  1  0
 41 39  2  0
 44 45  1  0
 44 19  1  0
 46 44  1  0
 47  3  1  0
 47 48  1  0
 49 60  2  0
 50 48  1  0
 50 55  1  0
 51 59  1  0
 51 61  1  0
 52 58  1  0
 52 54  1  0
 53 59  1  0
 54 55  2  0
 54 53  1  0
 56 50  2  0
 57 56  1  0
 57 52  2  0
 58 51  1  0
 59 49  1  0
 61 63  2  0
 62 61  1  0
 64 62  1  0
 65 74  2  0
 65 70  1  0
 66 62  1  0
 66 70  1  0
 67 66  1  0
 68 69  1  0
 68 67  1  0
 69 65  1  0
 70 71  2  0
 71 72  1  0
 73 72  2  0
 74 73  1  0
 75 49  1  0
 75 76  1  0
 75 85  1  0
 76 79  1  0
 77 81  1  0
 77 76  1  0
 78 77  2  0
 81 80  1  0
 83 84  1  0
 83 81  1  0
 83 82  1  0
 85 88  1  1
 85 86  1  0
 87 85  1  0
M  ISO  4   9 100  17 100  47 101  48 101
M  END
>  <TORSDO>  (90) 
F 17

>  <SCORE>  (90) 
-16.679

>  <name>  (90) 
89

>  <ligand_id>  (90) 
89

>  <original_smiles>  (90) 
[H]c1c([H])c([H])c2c(c1[H])C([H])([H])C([H])([H])C([H])([H])C2([H])N([H])C(=O)C1([H])N(C(=O)C([H])(N([H])C(=O)C([H])(N([H])C([H])([H])[H])C([H])([H])[H])C(C([H])([H])[H])(C([H])([H])[H])C([H])([H])[H])C([H])([H])c2c([H])c(OC([H])([H])c3c([H])c(N([H])C(=O)N4C([H])([H])C([H])([H])C([H])([H])C([H])(n5nc(-c6c([H])c([H])c(Oc7c([H])c([H])c(F)c([H])c7F)c([H])c6[H])c(C(=O)N([H])[H])c5N([H])[H])C4([H])[H])c(F)c([H])c3F)c([H])c([H])c2C1([H])[H]

>  <smiles>  (90) 
[H]c1c([H])c([H])c2c(c1[H])C([H])([H])C([H])([H])C([H])([H])C2([H])N([H])C(=O)C1([H])N(C(=O)C([H])(N([H])C(=O)C([H])(N([H])C([H])([H])[H])C([H])([H])[H])C(C([H])([H])[H])(C([H])([H])[H])C([H])([H])[H])C([H])([H])c2c([H])c(OC([H])([H])c3c([H])c(N([H])C(=O)N4C([H])([H])C([H])([H])C([H])([H])C([H])(n5nc(-c6c([H])c([H])c(Oc7c([H])c([H])c(F)c([H])c7F)c([H])c6[H])c(C(=O)N([H])[H])c5N([H])[H])C4([H])[H])c(F)c([H])c3F)c([H])c([H])c2C1([H])[H]

$$$$
90:0:0
     RDKit          3D

 97105  0  0  1  0  0  0  0  0999 V2000
  -29.5400  -18.7070   20.1230 C   0  0  0  0  0  3  0  0  0  0  0  0
  -30.8730  -17.7330   21.8930 C   0  0  0  0  0  3  0  0  0  0  0  0
  -30.6280  -20.1980   21.7500 C   0  0  0  0  0  0  0  0  0  0  0  0
  -29.8330  -20.0700   20.5620 C   0  0  0  0  0  0  0  0  0  0  0  0
  -30.0490  -17.5120   20.7730 C   0  0  0  0  0  0  0  0  0  0  0  0
  -31.1460  -19.0290   22.3740 C   0  0  0  0  0  0  0  0  0  0  0  0
  -31.9540  -19.1260   23.4590 F   0  0  0  0  0  0  0  0  0  0  0  0
  -30.4990  -14.9830   20.3630 C   0  0  0  0  0  0  0  0  0  0  0  0
  -30.3400  -12.6910   19.3780 C   0  0  0  0  0  2  0  0  0  0  0  0
  -29.3800  -12.6790   18.1670 C   0  0  0  0  0  2  0  0  0  0  0  0
  -27.9210  -12.4720   18.6230 C   0  0  0  0  0  2  0  0  0  0  0  0
  -27.5260  -13.3880   19.8130 C   0  0  0  0  0  3  0  0  0  0  0  0
  -28.6040  -13.3820   20.9190 C   0  0  0  0  0  2  0  0  0  0  0  0
  -29.8790  -13.7580   20.2910 N   0  0  0  0  0  0  0  0  0  0  0  0
  -31.7020  -15.0820   20.1030 O   0  0  0  0  0  0  0  0  0  0  0  0
  -29.7080  -16.1190   20.4100 N   0  0  0  0  0  0  0  0  0  0  0  0
  -28.7290  -15.9510   20.2300 H   0  0  0  0  0  0  0  0  0  0  0  0
  -25.1390  -13.9220   20.5900 C   0  0  0  0  0  0  0  0  0  0  0  0
  -24.0950  -13.1220   20.9670 C   0  0  0  0  0  0  0  0  0  0  0  0
  -24.5850  -11.7810   20.9170 C   0  0  0  0  0  0  0  0  0  0  0  0
  -26.1970  -13.0680   20.3290 N   0  0  0  0  0  0  0  0  0  0  0  0
  -25.8730  -11.7740   20.5900 N   0  0  0  0  0  0  0  0  0  0  0  0
  -23.8890  -10.5010   21.1030 C   0  0  0  0  0  0  0  0  0  0  0  0
  -24.3230   -9.5580   22.0600 C   0  0  0  0  0  3  0  0  0  0  0  0
  -23.6240   -8.3450   22.2360 C   0  0  0  0  0  3  0  0  0  0  0  0
  -22.4780   -8.0650   21.4530 C   0  0  0  0  0  0  0  0  0  0  0  0
  -22.0640   -8.9980   20.4860 C   0  0  0  0  0  3  0  0  0  0  0  0
  -22.7640  -10.2030   20.3090 C   0  0  0  0  0  3  0  0  0  0  0  0
  -21.7520   -6.9020   21.5360 O   0  0  0  0  0  0  0  0  0  0  0  0
  -21.6510   -6.1980   22.7100 C   0  0  0  0  0  0  0  0  0  0  0  0
  -21.0650   -6.7560   23.8660 C   0  0  0  0  0  3  0  0  0  0  0  0
  -20.9200   -5.9750   25.0300 C   0  0  0  0  0  3  0  0  0  0  0  0
  -21.3490   -4.6350   25.0360 C   0  0  0  0  0  0  0  0  0  0  0  0
  -21.9270   -4.0740   23.8820 C   0  0  0  0  0  3  0  0  0  0  0  0
  -22.0730   -4.8530   22.7220 C   0  0  0  0  0  0  0  0  0  0  0  0
  -22.6110   -4.3020   21.6060 F   0  0  0  0  0  0  0  0  0  0  0  0
  -21.2010   -3.8810   26.1500 F   0  0  0  0  0  0  0  0  0  0  0  0
  -22.6910  -13.5670   21.2580 C   0  0  0  0  0  0  0  0  0  0  0  0
  -21.9820  -12.8420   22.1150 N   0  0  0  0  0  0  0  0  0  0  0  0
  -22.2270  -14.5920   20.7570 O   0  0  0  0  0  0  0  0  0  0  0  0
  -22.3670  -12.0120   22.5420 H   0  0  0  0  0  0  0  0  0  0  0  0
  -21.0410  -13.1240   22.3520 H   0  0  0  0  0  0  0  0  0  0  0  0
  -25.2670  -15.2980   20.4250 N   0  0  0  0  0  0  0  0  0  0  0  0
  -24.4900  -15.9300   20.5910 H   0  0  0  0  0  0  0  0  0  0  0  0
  -26.0880  -15.7670   20.0680 H   0  0  0  0  0  0  0  0  0  0  0  0
  -30.9900  -21.5540   22.3230 C   0  0  0  0  0  0  0  0  0  0  0  0
  -30.8090  -21.7580   23.6220 N   0  0  0  0  0  0  0  0  0  0  0  0
  -31.3580  -22.4790   21.6040 O   0  0  0  0  0  0  0  0  0  0  0  0
  -30.5270  -21.0030   24.2290 H   0  0  0  0  0  0  0  0  0  0  0  0
  -31.0300  -22.6580   24.0220 H   0  0  0  0  0  0  0  0  0  0  0  0
  -29.4400  -21.3500   19.6790 C   0  0  0  0  0  2  0  0  0  0  0  0
  -28.7300  -22.5850   20.2550 N   0  0  0  0  0  4  0  0  0  0  0  0
  -29.6460  -22.6320   20.6950 H   0  0  0  0  0  0  0  0  0  0  0  0
  -28.4680  -22.6380   19.2820 H   0  0  0  0  0  0  0  0  0  0  0  0
  -29.0290  -24.0870   20.0600 C   0  0  0  0  0  3  0  0  0  0  0  0
  -27.8040  -25.1260   19.9790 C   0  0  0  0  0  3  0  0  0  0  0  0
  -28.0280  -26.6130   19.9440 O   0  0  0  0  0  0  0  0  0  0  0  0
  -24.4510  -31.9690   23.2630 C   0  0  0  0  0  0  0  0  0  0  0  0
  -26.9110  -27.4800   19.9650 C   0  0  0  0  0  0  0  0  0  0  0  0
  -23.1710  -30.6290   21.6330 C   0  0  0  0  0  3  0  0  0  0  0  0
  -24.5560  -29.1220   20.0970 C   0  0  0  0  0  0  0  0  0  0  0  0
  -25.7040  -30.9470   21.3440 C   0  0  0  0  0  2  0  0  0  0  0  0
  -25.7540  -29.5870   20.6530 C   0  0  0  0  0  0  0  0  0  0  0  0
  -26.9340  -28.7800   20.5730 C   0  0  0  0  0  3  0  0  0  0  0  0
  -25.6860  -27.0830   19.3780 C   0  0  0  0  0  3  0  0  0  0  0  0
  -24.5240  -27.8790   19.4470 C   0  0  0  0  0  3  0  0  0  0  0  0
  -23.3240  -29.9960   20.2250 C   0  0  0  0  0  2  0  0  0  0  0  0
  -24.4640  -31.1970   22.1360 N   0  0  0  0  0  0  0  0  0  0  0  0
  -23.3910  -32.2320   23.8530 O   0  0  0  0  0  0  0  0  0  0  0  0
  -22.5430  -29.5870   22.5880 C   0  0  0  0  0  0  0  0  0  0  0  0
  -21.2220  -29.3720   22.4680 N   0  0  0  0  0  0  0  0  0  0  0  0
  -23.2440  -28.9680   23.3930 O   0  0  0  0  0  0  0  0  0  0  0  0
  -20.7100  -29.9190   21.7910 H   0  0  0  0  0  0  0  0  0  0  0  0
  -17.8940  -28.0400   22.9470 C   0  0  0  0  0  0  0  0  0  0  0  0
  -20.4390  -28.4050   23.2370 C   0  0  0  0  0  3  0  0  0  0  0  0
  -20.6050  -26.9780   22.6670 C   0  0  0  0  0  2  0  0  0  0  0  0
  -19.5250  -26.6100   21.6440 C   0  0  0  0  0  2  0  0  0  0  0  0
  -18.1320  -26.6970   22.2760 C   0  0  0  0  0  2  0  0  0  0  0  0
  -18.9780  -28.8480   23.3830 C   0  0  0  0  0  0  0  0  0  0  0  0
  -18.7020  -30.1020   23.9710 C   0  0  0  0  0  3  0  0  0  0  0  0
  -17.3750  -30.5500   24.1260 C   0  0  0  0  0  3  0  0  0  0  0  0
  -16.3080  -29.7380   23.7050 C   0  0  0  0  0  3  0  0  0  0  0  0
  -16.5670  -28.4860   23.1210 C   0  0  0  0  0  3  0  0  0  0  0  0
  -25.7600  -32.5790   23.8500 C   0  0  0  0  0  3  0  0  0  0  0  0
  -25.4910  -33.9870   24.1750 N   0  0  0  0  0  0  0  0  0  0  0  0
  -25.8510  -35.0270   23.4110 C   0  0  0  0  0  0  0  0  0  0  0  0
  -26.5130  -34.9000   22.3770 O   0  0  0  0  0  0  0  0  0  0  0  0
  -24.9080  -34.1650   24.9790 H   0  0  0  0  0  0  0  0  0  0  0  0
  -24.1960  -36.8810   23.0360 C   0  0  0  0  0  1  0  0  0  0  0  0
  -25.4070  -36.4290   23.8670 C   0  0  0  0  0  3  0  0  0  0  0  0
  -27.5500  -37.2410   24.7460 C   0  0  0  0  0  1  0  0  0  0  0  0
  -26.4760  -37.4470   23.7790 N   0  0  0  0  0  0  0  0  0  0  0  0
  -26.0950  -38.3780   23.9260 H   0  0  0  0  0  0  0  0  0  0  0  0
  -26.2890  -31.8070   25.1200 C   0  0  1  0  0  0  0  0  0  0  0  0
  -25.2150  -31.6060   26.2130 C   0  0  0  0  0  1  0  0  0  0  0  0
  -26.8300  -30.4130   24.7250 C   0  0  0  0  0  1  0  0  0  0  0  0
  -27.4730  -32.5800   25.7480 C   0  0  0  0  0  1  0  0  0  0  0  0
  1  4  2  0
  1  5  1  0
  2  6  1  0
  3 46  1  0
  3  6  2  0
  4  3  1  0
  5  2  2  0
  6  7  1  0
  8 16  1  0
  9 14  1  0
 10 11  1  0
 10  9  1  0
 12 11  1  0
 12 21  1  0
 12 13  1  0
 14  8  1  0
 14 13  1  0
 15  8  2  0
 16  5  1  0
 17 16  1  0
 18 19  2  0
 19 38  1  0
 20 19  1  0
 20 23  1  0
 21 22  1  0
 21 18  1  0
 22 20  2  0
 23 24  1  0
 24 25  2  0
 26 29  1  0
 26 25  1  0
 27 26  2  0
 28 27  1  0
 28 23  2  0
 29 30  1  0
 30 35  2  0
 30 31  1  0
 31 32  2  0
 32 33  1  0
 33 37  1  0
 34 33  2  0
 35 34  1  0
 36 35  1  0
 38 39  1  0
 39 42  1  0
 39 41  1  0
 40 38  2  0
 43 18  1  0
 43 44  1  0
 45 43  1  0
 46 47  1  0
 47 50  1  0
 47 49  1  0
 48 46  2  0
 51 52  1  0
 51  4  1  0
 52 53  1  0
 54 52  1  0
 55 52  1  0
 56 55  2  0
 57 59  1  0
 57 56  1  0
 58 69  2  0
 59 64  1  0
 60 68  1  0
 60 70  1  0
 61 67  1  0
 61 63  1  0
 62 68  1  0
 63 62  1  0
 64 63  2  0
 65 66  1  0
 65 59  2  0
 66 61  2  0
 67 60  1  0
 68 58  1  0
 70 72  2  0
 71 70  1  0
 73 71  1  0
 74 83  2  0
 74 79  1  0
 75 71  1  0
 75 79  1  0
 76 75  1  0
 77 78  1  0
 77 76  1  0
 78 74  1  0
 79 80  2  0
 80 81  1  0
 82 81  2  0
 83 82  1  0
 84 58  1  0
 84 85  1  0
 84 94  1  0
 85 88  1  0
 86 90  1  0
 86 85  1  0
 87 86  2  0
 90 89  1  0
 92 90  1  0
 92 93  1  0
 92 91  1  0
 94 97  1  1
 94 95  1  0
 96 94  1  0
M  ISO  4   8 100  16 100  56 101  57 101
M  END
>  <TORSDO>  (91) 
F 21

>  <SCORE>  (91) 
-13.544

>  <name>  (91) 
90

>  <ligand_id>  (91) 
90

>  <original_smiles>  (91) 
[H]c1c([H])c([H])c2c(c1[H])C([H])([H])C([H])([H])C([H])([H])C2([H])N([H])C(=O)C1([H])N(C(=O)C([H])(N([H])C(=O)C([H])(N([H])C([H])([H])[H])C([H])([H])[H])C(C([H])([H])[H])(C([H])([H])[H])C([H])([H])[H])C([H])([H])c2c([H])c(OC([H])([H])C([H])([H])[N+]([H])([H])C([H])([H])c3c([H])c(N([H])C(=O)N4C([H])([H])C([H])([H])C([H])([H])C([H])(n5nc(-c6c([H])c([H])c(Oc7c([H])c([H])c(F)c([H])c7F)c([H])c6[H])c(C(=O)N([H])[H])c5N([H])[H])C4([H])[H])c([H])c(F)c3C(=O)N([H])[H])c([H])c([H])c2C1([H])[H]

>  <smiles>  (91) 
[H]c1c([H])c([H])c2c(c1[H])C([H])([H])C([H])([H])C([H])([H])C2([H])N([H])C(=O)C1([H])N(C(=O)C([H])(N([H])C(=O)C([H])(N([H])C([H])([H])[H])C([H])([H])[H])C(C([H])([H])[H])(C([H])([H])[H])C([H])([H])[H])C([H])([H])c2c([H])c(OC([H])([H])C([H])([H])[N+]([H])([H])C([H])([H])c3c([H])c(N([H])C(=O)N4C([H])([H])C([H])([H])C([H])([H])C([H])(n5nc(-c6c([H])c([H])c(Oc7c([H])c([H])c(F)c([H])c7F)c([H])c6[H])c(C(=O)N([H])[H])c5N([H])[H])C4([H])[H])c([H])c(F)c3C(=O)N([H])[H])c([H])c([H])c2C1([H])[H]

$$$$
91:0:0
     RDKit          3D

 93102  0  0  1  0  0  0  0  0999 V2000
  -27.7450  -20.6160   21.0930 C   0  0  0  0  0  2  0  0  0  0  0  0
  -28.9680  -20.6030   20.2220 C   0  0  0  0  0  3  0  0  0  0  0  0
  -28.6140  -21.8670   21.0440 C   0  0  0  0  0  3  0  0  0  0  0  0
  -32.2150  -18.7660   21.1640 C   0  0  0  0  0  3  0  0  0  0  0  0
  -31.2900  -19.7990   20.9060 C   0  0  0  0  0  3  0  0  0  0  0  0
  -31.8310  -17.4140   21.0620 C   0  0  0  0  0  3  0  0  0  0  0  0
  -29.5800  -18.1220   20.4690 C   0  0  0  0  0  3  0  0  0  0  0  0
  -29.9580  -19.4940   20.5500 C   0  0  0  0  0  0  0  0  0  0  0  0
  -30.5080  -17.0690   20.6970 C   0  0  0  0  0  0  0  0  0  0  0  0
  -30.7660  -14.6520   20.0580 C   0  0  0  0  0  0  0  0  0  0  0  0
  -30.4160  -12.4810   18.9270 C   0  0  0  0  0  2  0  0  0  0  0  0
  -29.4080  -12.6580   17.7730 C   0  0  0  0  0  2  0  0  0  0  0  0
  -27.9600  -12.5080   18.2810 C   0  0  0  0  0  2  0  0  0  0  0  0
  -27.6800  -13.3430   19.5600 C   0  0  0  0  0  3  0  0  0  0  0  0
  -28.7980  -13.1560   20.6090 C   0  0  0  0  0  2  0  0  0  0  0  0
  -30.0840  -13.4740   19.9640 N   0  0  0  0  0  0  0  0  0  0  0  0
  -31.8760  -14.8070   19.5400 O   0  0  0  0  0  0  0  0  0  0  0  0
  -30.0880  -15.6960   20.5960 N   0  0  0  0  0  0  0  0  0  0  0  0
  -29.1310  -15.4950   20.8460 H   0  0  0  0  0  0  0  0  0  0  0  0
  -25.3290  -13.9280   20.4260 C   0  0  0  0  0  0  0  0  0  0  0  0
  -24.2810  -13.1470   20.8360 C   0  0  0  0  0  0  0  0  0  0  0  0
  -24.7390  -11.7970   20.7420 C   0  0  0  0  0  0  0  0  0  0  0  0
  -26.3570  -13.0530   20.1120 N   0  0  0  0  0  0  0  0  0  0  0  0
  -26.0090  -11.7640   20.3580 N   0  0  0  0  0  0  0  0  0  0  0  0
  -24.0210  -10.5300   20.9400 C   0  0  0  0  0  0  0  0  0  0  0  0
  -24.4600   -9.5740   21.8830 C   0  0  0  0  0  3  0  0  0  0  0  0
  -23.7460   -8.3720   22.0690 C   0  0  0  0  0  3  0  0  0  0  0  0
  -22.5790   -8.1160   21.3120 C   0  0  0  0  0  0  0  0  0  0  0  0
  -22.1570   -9.0620   20.3600 C   0  0  0  0  0  3  0  0  0  0  0  0
  -22.8720  -10.2560   20.1740 C   0  0  0  0  0  3  0  0  0  0  0  0
  -21.8330   -6.9650   21.4090 O   0  0  0  0  0  0  0  0  0  0  0  0
  -21.7440   -6.2600   22.5830 C   0  0  0  0  0  0  0  0  0  0  0  0
  -21.2300   -6.8390   23.7630 C   0  0  0  0  0  3  0  0  0  0  0  0
  -21.0920   -6.0590   24.9290 C   0  0  0  0  0  3  0  0  0  0  0  0
  -21.4550   -4.6990   24.9120 C   0  0  0  0  0  0  0  0  0  0  0  0
  -21.9620   -4.1190   23.7360 C   0  0  0  0  0  3  0  0  0  0  0  0
  -22.1030   -4.8960   22.5740 C   0  0  0  0  0  0  0  0  0  0  0  0
  -22.5720   -4.3280   21.4370 F   0  0  0  0  0  0  0  0  0  0  0  0
  -21.3160   -3.9450   26.0280 F   0  0  0  0  0  0  0  0  0  0  0  0
  -22.9060  -13.6210   21.2020 C   0  0  0  0  0  0  0  0  0  0  0  0
  -22.2160  -12.8980   22.0770 N   0  0  0  0  0  0  0  0  0  0  0  0
  -22.4490  -14.6690   20.7480 O   0  0  0  0  0  0  0  0  0  0  0  0
  -22.5950  -12.0530   22.4750 H   0  0  0  0  0  0  0  0  0  0  0  0
  -21.2940  -13.2020   22.3550 H   0  0  0  0  0  0  0  0  0  0  0  0
  -25.4850  -15.3040   20.2780 N   0  0  0  0  0  0  0  0  0  0  0  0
  -24.7230  -15.9510   20.4340 H   0  0  0  0  0  0  0  0  0  0  0  0
  -26.3220  -15.7550   19.9300 H   0  0  0  0  0  0  0  0  0  0  0  0
  -26.5600  -23.2750   20.6260 C   0  0  0  0  0  1  0  0  0  0  0  0
  -27.9960  -23.0340   20.3010 N   0  0  1  0  0  4  0  0  0  0  0  0
  -28.0340  -22.7850   19.3230 H   0  0  0  0  0  0  0  0  0  0  0  0
  -28.7710  -24.3140   20.4700 C   0  0  0  0  0  2  0  0  0  0  0  0
  -28.4680  -25.4420   19.4220 C   0  0  0  0  0  2  0  0  0  0  0  0
  -28.3610  -26.7800   19.9870 O   0  0  0  0  0  0  0  0  0  0  0  0
  -24.5930  -31.9370   23.2030 C   0  0  0  0  0  0  0  0  0  0  0  0
  -27.1640  -27.4910   20.0070 C   0  0  0  0  0  0  0  0  0  0  0  0
  -23.3540  -30.5530   21.5750 C   0  0  0  0  0  3  0  0  0  0  0  0
  -24.7730  -29.0310   20.1060 C   0  0  0  0  0  0  0  0  0  0  0  0
  -25.8830  -30.8990   21.3350 C   0  0  0  0  0  2  0  0  0  0  0  0
  -25.9500  -29.5390   20.6640 C   0  0  0  0  0  0  0  0  0  0  0  0
  -27.1450  -28.7790   20.6050 C   0  0  0  0  0  3  0  0  0  0  0  0
  -25.9500  -27.0010   19.4660 C   0  0  0  0  0  3  0  0  0  0  0  0
  -24.7690  -27.7610   19.5100 C   0  0  0  0  0  3  0  0  0  0  0  0
  -23.5380  -29.8960   20.1820 C   0  0  0  0  0  2  0  0  0  0  0  0
  -24.6300  -31.1460   22.0930 N   0  0  0  0  0  0  0  0  0  0  0  0
  -23.5210  -32.2020   23.7650 O   0  0  0  0  0  0  0  0  0  0  0  0
  -22.7260  -29.5170   22.5370 C   0  0  0  0  0  0  0  0  0  0  0  0
  -21.4020  -29.3240   22.4300 N   0  0  0  0  0  0  0  0  0  0  0  0
  -23.4280  -28.8900   23.3350 O   0  0  0  0  0  0  0  0  0  0  0  0
  -20.8960  -29.8890   21.7610 H   0  0  0  0  0  0  0  0  0  0  0  0
  -18.0460  -28.0870   22.9580 C   0  0  0  0  0  0  0  0  0  0  0  0
  -20.6040  -28.3710   23.2000 C   0  0  0  0  0  3  0  0  0  0  0  0
  -20.7180  -26.9450   22.6130 C   0  0  0  0  0  2  0  0  0  0  0  0
  -19.6040  -26.6070   21.6170 C   0  0  0  0  0  2  0  0  0  0  0  0
  -18.2280  -26.7430   22.2740 C   0  0  0  0  0  2  0  0  0  0  0  0
  -19.1610  -28.8570   23.3800 C   0  0  0  0  0  0  0  0  0  0  0  0
  -18.9350  -30.1140   23.9840 C   0  0  0  0  0  3  0  0  0  0  0  0
  -17.6260  -30.6000   24.1690 C   0  0  0  0  0  3  0  0  0  0  0  0
  -16.5250  -29.8280   23.7600 C   0  0  0  0  0  3  0  0  0  0  0  0
  -16.7370  -28.5720   23.1610 C   0  0  0  0  0  3  0  0  0  0  0  0
  -25.8920  -32.5640   23.8010 C   0  0  0  0  0  3  0  0  0  0  0  0
  -26.4390  -31.7850   25.0610 C   0  0  1  0  0  0  0  0  0  0  0  0
  -25.3720  -31.5320   26.1510 C   0  0  0  0  0  1  0  0  0  0  0  0
  -27.0210  -30.4120   24.6480 C   0  0  0  0  0  1  0  0  0  0  0  0
  -27.6010  -32.5790   25.7030 C   0  0  0  0  0  1  0  0  0  0  0  0
  -25.5910  -33.9580   24.1470 N   0  0  0  0  0  0  0  0  0  0  0  0
  -25.9120  -35.0170   23.3910 C   0  0  0  0  0  0  0  0  0  0  0  0
  -26.5680  -34.9210   22.3500 O   0  0  0  0  0  0  0  0  0  0  0  0
  -25.0210  -34.1070   24.9650 H   0  0  0  0  0  0  0  0  0  0  0  0
  -24.1970  -36.8240   23.0480 C   0  0  0  0  0  1  0  0  0  0  0  0
  -25.4290  -36.4010   23.8650 C   0  0  0  0  0  3  0  0  0  0  0  0
  -27.5610  -37.2620   24.7290 C   0  0  0  0  0  1  0  0  0  0  0  0
  -26.4690  -37.4510   23.7770 N   0  0  0  0  0  0  0  0  0  0  0  0
  -26.0670  -38.3710   23.9340 H   0  0  0  0  0  0  0  0  0  0  0  0
  2  8  1  0
  2  3  1  0
  2  1  1  0
  3 49  1  0
  3  1  1  0
  5  4  2  0
  6  4  1  0
  7  8  2  0
  7  9  1  0
  8  5  1  0
  9  6  2  0
 10 18  1  0
 11 16  1  0
 12 13  1  0
 12 11  1  0
 14 13  1  0
 14 23  1  0
 14 15  1  0
 16 10  1  0
 16 15  1  0
 17 10  2  0
 18  9  1  0
 18 19  1  0
 20 21  2  0
 21 40  1  0
 22 21  1  0
 22 25  1  0
 23 24  1  0
 23 20  1  0
 24 22  2  0
 25 26  1  0
 26 27  2  0
 28 31  1  0
 28 27  1  0
 29 28  2  0
 30 29  1  0
 30 25  2  0
 31 32  1  0
 32 33  1  0
 33 34  2  0
 35 34  1  0
 35 39  1  0
 36 35  2  0
 37 32  2  0
 37 36  1  0
 38 37  1  0
 40 41  1  0
 41 44  1  0
 41 43  1  0
 42 40  2  0
 45 20  1  0
 45 46  1  0
 47 45  1  0
 49 51  1  0
 49 48  1  0
 49 50  1  6
 52 53  1  0
 52 51  1  0
 53 55  1  0
 54 65  2  0
 55 60  1  0
 56 64  1  0
 56 66  1  0
 57 63  1  0
 57 59  1  0
 58 64  1  0
 59 58  1  0
 60 59  2  0
 61 62  1  0
 61 55  2  0
 62 57  2  0
 63 56  1  0
 64 54  1  0
 66 68  2  0
 67 66  1  0
 69 67  1  0
 70 79  2  0
 70 75  1  0
 71 67  1  0
 71 75  1  0
 72 71  1  0
 73 74  1  0
 73 72  1  0
 74 70  1  0
 75 76  2  0
 76 77  1  0
 78 77  2  0
 79 78  1  0
 80 54  1  0
 80 85  1  0
 80 81  1  0
 81 84  1  1
 81 82  1  0
 83 81  1  0
 85 88  1  0
 86 90  1  0
 86 85  1  0
 87 86  2  0
 90 89  1  0
 92 90  1  0
 92 93  1  0
 92 91  1  0
M  ISO  4  10 100  18 100  52 101  53 101
M  END
>  <TORSDO>  (92) 
F 20

>  <SCORE>  (92) 
-13.384

>  <name>  (92) 
91

>  <ligand_id>  (92) 
91

>  <original_smiles>  (92) 
[H]c1c([H])c([H])c2c(c1[H])C([H])([H])C([H])([H])C([H])([H])C2([H])N([H])C(=O)C1([H])N(C(=O)C([H])(N([H])C(=O)C([H])(N([H])C([H])([H])[H])C([H])([H])[H])C(C([H])([H])[H])(C([H])([H])[H])C([H])([H])[H])C([H])([H])c2c([H])c(OC([H])([H])C([H])([H])[N+]([H])(C([H])([H])[H])C3([H])C([H])([H])C3([H])c3c([H])c([H])c([H])c(N([H])C(=O)N4C([H])([H])C([H])([H])C([H])([H])C([H])(n5nc(-c6c([H])c([H])c(Oc7c([H])c([H])c(F)c([H])c7F)c([H])c6[H])c(C(=O)N([H])[H])c5N([H])[H])C4([H])[H])c3[H])c([H])c([H])c2C1([H])[H]

>  <smiles>  (92) 
[H]c1c([H])c([H])c2c(c1[H])C([H])([H])C([H])([H])C([H])([H])C2([H])N([H])C(=O)C1([H])N(C(=O)C([H])(N([H])C(=O)C([H])(N([H])C([H])([H])[H])C([H])([H])[H])C(C([H])([H])[H])(C([H])([H])[H])C([H])([H])[H])C([H])([H])c2c([H])c(OC([H])([H])C([H])([H])[N+]([H])(C([H])([H])[H])C3([H])C([H])([H])C3([H])c3c([H])c([H])c([H])c(N([H])C(=O)N4C([H])([H])C([H])([H])C([H])([H])C([H])(n5nc(-c6c([H])c([H])c(Oc7c([H])c([H])c(F)c([H])c7F)c([H])c6[H])c(C(=O)N([H])[H])c5N([H])[H])C4([H])[H])c3[H])c([H])c([H])c2C1([H])[H]

$$$$
92:0:0
     RDKit          3D

 93101  0  0  1  0  0  0  0  0999 V2000
  -29.6130  -21.1660   19.8900 C   0  0  0  0  0  2  0  0  0  0  0  0
  -29.7910  -18.4530   20.0320 C   0  0  0  0  0  3  0  0  0  0  0  0
  -30.8570  -17.4000   21.9530 C   0  0  0  0  0  3  0  0  0  0  0  0
  -29.9290  -19.7820   20.6200 C   0  0  0  0  0  0  0  0  0  0  0  0
  -30.2590  -17.2400   20.6840 C   0  0  0  0  0  0  0  0  0  0  0  0
  -30.9650  -18.6690   22.5580 C   0  0  0  0  0  0  0  0  0  0  0  0
  -30.5080  -19.8340   21.9050 C   0  0  0  0  0  0  0  0  0  0  0  0
  -31.5260  -18.7670   23.7880 F   0  0  0  0  0  0  0  0  0  0  0  0
  -30.6430  -21.0320   22.5280 F   0  0  0  0  0  0  0  0  0  0  0  0
  -30.8410  -14.7600   20.1150 C   0  0  0  0  0  0  0  0  0  0  0  0
  -30.5900  -12.5110   19.0490 C   0  0  0  0  0  2  0  0  0  0  0  0
  -29.6030  -12.6250   17.8680 C   0  0  0  0  0  2  0  0  0  0  0  0
  -28.1460  -12.4740   18.3500 C   0  0  0  0  0  2  0  0  0  0  0  0
  -27.8330  -13.3420   19.6010 C   0  0  0  0  0  3  0  0  0  0  0  0
  -28.9350  -13.2000   20.6730 C   0  0  0  0  0  2  0  0  0  0  0  0
  -30.2070  -13.5470   20.0290 N   0  0  0  0  0  0  0  0  0  0  0  0
  -32.0370  -14.8770   19.8200 O   0  0  0  0  0  0  0  0  0  0  0  0
  -30.0200  -15.8700   20.1980 N   0  0  0  0  0  0  0  0  0  0  0  0
  -29.0500  -15.6410   20.0500 H   0  0  0  0  0  0  0  0  0  0  0  0
  -25.4940  -13.9680   20.4540 C   0  0  0  0  0  0  0  0  0  0  0  0
  -24.4310  -13.2060   20.8580 C   0  0  0  0  0  0  0  0  0  0  0  0
  -24.8630  -11.8460   20.7730 C   0  0  0  0  0  0  0  0  0  0  0  0
  -26.5060  -13.0710   20.1450 N   0  0  0  0  0  0  0  0  0  0  0  0
  -26.1360  -11.7900   20.4010 N   0  0  0  0  0  0  0  0  0  0  0  0
  -24.1180  -10.5970   20.9640 C   0  0  0  0  0  0  0  0  0  0  0  0
  -24.5510   -9.6130   21.8810 C   0  0  0  0  0  3  0  0  0  0  0  0
  -23.8100   -8.4260   22.0630 C   0  0  0  0  0  3  0  0  0  0  0  0
  -22.6180   -8.2160   21.3260 C   0  0  0  0  0  0  0  0  0  0  0  0
  -22.2050   -9.1860   20.3980 C   0  0  0  0  0  3  0  0  0  0  0  0
  -22.9470  -10.3650   20.2140 C   0  0  0  0  0  3  0  0  0  0  0  0
  -21.8450   -7.0850   21.4200 O   0  0  0  0  0  0  0  0  0  0  0  0
  -21.7810   -6.3490   22.5760 C   0  0  0  0  0  0  0  0  0  0  0  0
  -21.3370   -6.9080   23.7950 C   0  0  0  0  0  3  0  0  0  0  0  0
  -21.2240   -6.0970   24.9420 C   0  0  0  0  0  3  0  0  0  0  0  0
  -21.5430   -4.7280   24.8710 C   0  0  0  0  0  0  0  0  0  0  0  0
  -21.9760   -4.1660   23.6560 C   0  0  0  0  0  3  0  0  0  0  0  0
  -22.0920   -4.9760   22.5120 C   0  0  0  0  0  0  0  0  0  0  0  0
  -22.4920   -4.4260   21.3390 F   0  0  0  0  0  0  0  0  0  0  0  0
  -21.4260   -3.9460   25.9680 F   0  0  0  0  0  0  0  0  0  0  0  0
  -23.0580  -13.7040   21.2020 C   0  0  0  0  0  0  0  0  0  0  0  0
  -22.3490  -13.0050   22.0800 N   0  0  0  0  0  0  0  0  0  0  0  0
  -22.6200  -14.7460   20.7190 O   0  0  0  0  0  0  0  0  0  0  0  0
  -22.7130  -12.1610   22.4990 H   0  0  0  0  0  0  0  0  0  0  0  0
  -21.4240  -13.3190   22.3390 H   0  0  0  0  0  0  0  0  0  0  0  0
  -25.6780  -15.3400   20.3020 N   0  0  0  0  0  0  0  0  0  0  0  0
  -24.9230  -15.9970   20.4720 H   0  0  0  0  0  0  0  0  0  0  0  0
  -26.5010  -15.7760   19.9060 H   0  0  0  0  0  0  0  0  0  0  0  0
  -27.4250  -22.0490   20.6910 C   0  0  0  0  0  1  0  0  0  0  0  0
  -28.8890  -22.3030   20.6400 N   0  0  2  0  0  4  0  0  0  0  0  0
  -29.2140  -22.2010   21.5920 H   0  0  0  0  0  0  0  0  0  0  0  0
  -29.2340  -23.7690   20.2570 C   0  0  0  0  0  3  0  0  0  0  0  0
  -28.1680  -24.9430   20.5760 C   0  0  0  0  0  3  0  0  0  0  0  0
  -28.4570  -26.4100   20.3570 O   0  0  0  0  0  0  0  0  0  0  0  0
  -24.6740  -31.9170   23.2100 C   0  0  0  0  0  0  0  0  0  0  0  0
  -27.3620  -27.2980   20.2830 C   0  0  0  0  0  0  0  0  0  0  0  0
  -23.5120  -30.4870   21.5720 C   0  0  0  0  0  3  0  0  0  0  0  0
  -24.9980  -28.9290   20.1940 C   0  0  0  0  0  0  0  0  0  0  0  0
  -26.0540  -30.8190   21.4210 C   0  0  0  0  0  2  0  0  0  0  0  0
  -26.1560  -29.4230   20.8090 C   0  0  0  0  0  0  0  0  0  0  0  0
  -27.3400  -28.6210   20.8470 C   0  0  0  0  0  3  0  0  0  0  0  0
  -26.1830  -26.8850   19.6150 C   0  0  0  0  0  3  0  0  0  0  0  0
  -25.0150  -27.6650   19.5940 C   0  0  0  0  0  3  0  0  0  0  0  0
  -23.7600  -29.8040   20.2020 C   0  0  0  0  0  2  0  0  0  0  0  0
  -24.7660  -31.0940   22.1250 N   0  0  0  0  0  0  0  0  0  0  0  0
  -23.5770  -32.1900   23.7220 O   0  0  0  0  0  0  0  0  0  0  0  0
  -22.8440  -29.4720   22.5320 C   0  0  0  0  0  0  0  0  0  0  0  0
  -21.5250  -29.2600   22.3710 N   0  0  0  0  0  0  0  0  0  0  0  0
  -23.5130  -28.8810   23.3830 O   0  0  0  0  0  0  0  0  0  0  0  0
  -21.0460  -29.7940   21.6610 H   0  0  0  0  0  0  0  0  0  0  0  0
  -18.1710  -27.9620   22.7810 C   0  0  0  0  0  0  0  0  0  0  0  0
  -20.7060  -28.3210   23.1420 C   0  0  0  0  0  3  0  0  0  0  0  0
  -20.8810  -26.8750   22.6250 C   0  0  0  0  0  2  0  0  0  0  0  0
  -19.8320  -26.4770   21.5830 C   0  0  0  0  0  2  0  0  0  0  0  0
  -18.4200  -26.5970   22.1610 C   0  0  0  0  0  2  0  0  0  0  0  0
  -19.2440  -28.7770   23.2270 C   0  0  0  0  0  0  0  0  0  0  0  0
  -18.9550  -30.0500   23.7670 C   0  0  0  0  0  3  0  0  0  0  0  0
  -17.6280  -30.5080   23.8640 C   0  0  0  0  0  3  0  0  0  0  0  0
  -16.5700  -29.6920   23.4290 C   0  0  0  0  0  3  0  0  0  0  0  0
  -16.8420  -28.4200   22.8930 C   0  0  0  0  0  3  0  0  0  0  0  0
  -25.9370  -32.5750   23.8460 C   0  0  0  0  0  3  0  0  0  0  0  0
  -26.4480  -31.8140   25.1310 C   0  0  1  0  0  0  0  0  0  0  0  0
  -25.3450  -31.5560   26.1860 C   0  0  0  0  0  1  0  0  0  0  0  0
  -27.0660  -30.4500   24.7460 C   0  0  0  0  0  1  0  0  0  0  0  0
  -27.5770  -32.6280   25.8060 C   0  0  0  0  0  1  0  0  0  0  0  0
  -25.5980  -33.9690   24.1720 N   0  0  0  0  0  0  0  0  0  0  0  0
  -25.9130  -35.0230   23.4080 C   0  0  0  0  0  0  0  0  0  0  0  0
  -26.5890  -34.9250   22.3800 O   0  0  0  0  0  0  0  0  0  0  0  0
  -25.0050  -34.1150   24.9750 H   0  0  0  0  0  0  0  0  0  0  0  0
  -24.1670  -36.7890   23.0100 C   0  0  0  0  0  1  0  0  0  0  0  0
  -25.3960  -36.4050   23.8510 C   0  0  0  0  0  3  0  0  0  0  0  0
  -27.5020  -37.3240   24.7170 C   0  0  0  0  0  1  0  0  0  0  0  0
  -26.4150  -37.4720   23.7530 N   0  0  0  0  0  0  0  0  0  0  0  0
  -25.9930  -38.3870   23.8830 H   0  0  0  0  0  0  0  0  0  0  0  0
  1  4  1  0
  1 49  1  0
  2  4  2  0
  2  5  1  0
  3  6  1  0
  4  7  1  0
  5  3  2  0
  6  8  1  0
  7  9  1  0
  7  6  2  0
 10 18  1  0
 11 16  1  0
 12 13  1  0
 12 11  1  0
 14 13  1  0
 14 23  1  0
 14 15  1  0
 16 10  1  0
 16 15  1  0
 17 10  2  0
 18  5  1  0
 19 18  1  0
 20 21  2  0
 21 40  1  0
 22 21  1  0
 22 25  1  0
 23 24  1  0
 23 20  1  0
 24 22  2  0
 25 26  1  0
 26 27  2  0
 28 31  1  0
 28 27  1  0
 29 28  2  0
 30 29  1  0
 30 25  2  0
 31 32  1  0
 32 33  1  0
 33 34  2  0
 35 34  1  0
 35 39  1  0
 36 35  2  0
 37 32  2  0
 37 36  1  0
 38 37  1  0
 40 41  1  0
 41 44  1  0
 41 43  1  0
 42 40  2  0
 45 20  1  0
 45 46  1  0
 47 45  1  0
 49 48  1  0
 49 50  1  1
 51 52  2  0
 51 49  1  0
 53 52  1  0
 54 65  2  0
 55 53  1  0
 55 60  1  0
 56 64  1  0
 56 66  1  0
 57 63  1  0
 57 59  1  0
 58 64  1  0
 59 60  2  0
 59 58  1  0
 61 55  2  0
 62 61  1  0
 62 57  2  0
 63 56  1  0
 64 54  1  0
 66 68  2  0
 67 66  1  0
 69 67  1  0
 70 79  2  0
 70 75  1  0
 71 67  1  0
 71 75  1  0
 72 71  1  0
 73 74  1  0
 73 72  1  0
 74 70  1  0
 75 76  2  0
 76 77  1  0
 78 77  2  0
 79 78  1  0
 80 54  1  0
 80 85  1  0
 80 81  1  0
 81 84  1  1
 81 82  1  0
 83 81  1  0
 85 88  1  0
 86 90  1  0
 86 85  1  0
 87 86  2  0
 90 89  1  0
 92 90  1  0
 92 93  1  0
 92 91  1  0
M  ISO  4  10 100  18 100  52 101  53 101
M  END
>  <TORSDO>  (93) 
F 20

>  <SCORE>  (93) 
-13.510

>  <name>  (93) 
92

>  <ligand_id>  (93) 
92

>  <original_smiles>  (93) 
[H]c1c([H])c([H])c2c(c1[H])C([H])([H])C([H])([H])C([H])([H])C2([H])N([H])C(=O)C1([H])N(C(=O)C([H])(N([H])C(=O)C([H])(N([H])C([H])([H])[H])C([H])([H])[H])C(C([H])([H])[H])(C([H])([H])[H])C([H])([H])[H])C([H])([H])c2c([H])c(OC([H])([H])C([H])([H])[N+]([H])(C([H])([H])[H])C([H])([H])c3c([H])c(N([H])C(=O)N4C([H])([H])C([H])([H])C([H])([H])C([H])(n5nc(-c6c([H])c([H])c(Oc7c([H])c([H])c(F)c([H])c7F)c([H])c6[H])c(C(=O)N([H])[H])c5N([H])[H])C4([H])[H])c([H])c(F)c3F)c([H])c([H])c2C1([H])[H]

>  <smiles>  (93) 
[H]c1c([H])c([H])c2c(c1[H])C([H])([H])C([H])([H])C([H])([H])C2([H])N([H])C(=O)C1([H])N(C(=O)C([H])(N([H])C(=O)C([H])(N([H])C([H])([H])[H])C([H])([H])[H])C(C([H])([H])[H])(C([H])([H])[H])C([H])([H])[H])C([H])([H])c2c([H])c(OC([H])([H])C([H])([H])[N+]([H])(C([H])([H])[H])C([H])([H])c3c([H])c(N([H])C(=O)N4C([H])([H])C([H])([H])C([H])([H])C([H])(n5nc(-c6c([H])c([H])c(Oc7c([H])c([H])c(F)c([H])c7F)c([H])c6[H])c(C(=O)N([H])[H])c5N([H])[H])C4([H])[H])c([H])c(F)c3F)c([H])c([H])c2C1([H])[H]

$$$$
93:0:0
     RDKit          3D

101110  0  0  1  0  0  0  0  0999 V2000
  -30.7810  -20.8380   20.0490 C   0  0  0  0  0  0  0  0  0  0  0  0
  -31.4700  -19.9210   19.3630 N   0  0  0  0  0  0  0  0  0  0  0  0
  -30.8290  -20.9180   21.2770 O   0  0  0  0  0  0  0  0  0  0  0  0
  -31.3940  -19.9340   18.3540 H   0  0  0  0  0  0  0  0  0  0  0  0
  -28.5120  -22.0380   19.7910 C   0  0  0  0  0  2  0  0  0  0  0  0
  -30.6380  -23.1880   19.0780 C   0  0  0  0  0  2  0  0  0  0  0  0
  -28.4670  -22.9480   21.0380 C   0  0  0  0  0  2  0  0  0  0  0  0
  -30.5890  -24.0250   20.3700 C   0  0  0  0  0  2  0  0  0  0  0  0
  -29.9350  -21.8250   19.2260 C   0  0  0  0  0  3  0  0  0  0  0  0
  -29.1860  -24.2310   20.8210 N   0  0  2  0  0  4  0  0  0  0  0  0
  -28.7080  -24.7060   20.0670 H   0  0  0  0  0  0  0  0  0  0  0  0
  -29.0670  -25.1550   21.9790 C   0  0  0  0  0  2  0  0  0  0  0  0
  -29.2520  -26.6180   21.5470 C   0  0  0  0  0  2  0  0  0  0  0  0
  -28.5420  -26.7820   20.3160 O   0  0  0  0  0  0  0  0  0  0  0  0
  -24.5800  -31.9340   23.2540 C   0  0  0  0  0  0  0  0  0  0  0  0
  -27.3750  -27.5050   20.3440 C   0  0  0  0  0  0  0  0  0  0  0  0
  -23.4330  -30.4840   21.6090 C   0  0  0  0  0  3  0  0  0  0  0  0
  -24.9460  -28.9410   20.2550 C   0  0  0  0  0  0  0  0  0  0  0  0
  -25.9510  -30.8900   21.4580 C   0  0  0  0  0  2  0  0  0  0  0  0
  -26.0750  -29.5050   20.8640 C   0  0  0  0  0  0  0  0  0  0  0  0
  -27.2910  -28.7960   20.9120 C   0  0  0  0  0  3  0  0  0  0  0  0
  -26.2370  -26.9500   19.7230 C   0  0  0  0  0  3  0  0  0  0  0  0
  -25.0190  -27.6580   19.6860 C   0  0  0  0  0  3  0  0  0  0  0  0
  -23.6860  -29.7760   20.2500 C   0  0  0  0  0  2  0  0  0  0  0  0
  -24.6720  -31.1170   22.1670 N   0  0  0  0  0  0  0  0  0  0  0  0
  -23.4830  -32.2050   23.7600 O   0  0  0  0  0  0  0  0  0  0  0  0
  -22.7720  -29.4730   22.5700 C   0  0  0  0  0  0  0  0  0  0  0  0
  -21.4550  -29.2660   22.4050 N   0  0  0  0  0  0  0  0  0  0  0  0
  -23.4410  -28.8730   23.4160 O   0  0  0  0  0  0  0  0  0  0  0  0
  -20.9760  -29.8000   21.6930 H   0  0  0  0  0  0  0  0  0  0  0  0
  -18.0880  -28.0270   22.8100 C   0  0  0  0  0  0  0  0  0  0  0  0
  -20.6290  -28.3320   23.1690 C   0  0  0  0  0  3  0  0  0  0  0  0
  -20.7770  -26.8900   22.6290 C   0  0  0  0  0  2  0  0  0  0  0  0
  -19.7170  -26.5270   21.5850 C   0  0  0  0  0  2  0  0  0  0  0  0
  -18.3100  -26.6640   22.1740 C   0  0  0  0  0  2  0  0  0  0  0  0
  -19.1780  -28.8170   23.2620 C   0  0  0  0  0  0  0  0  0  0  0  0
  -18.9200  -30.0910   23.8090 C   0  0  0  0  0  3  0  0  0  0  0  0
  -17.6030  -30.5780   23.9120 C   0  0  0  0  0  3  0  0  0  0  0  0
  -16.5260  -29.7840   23.4800 C   0  0  0  0  0  3  0  0  0  0  0  0
  -16.7690  -28.5110   22.9340 C   0  0  0  0  0  3  0  0  0  0  0  0
  -25.8440  -32.5910   23.8930 C   0  0  0  0  0  3  0  0  0  0  0  0
  -25.5110  -33.9870   24.2000 N   0  0  0  0  0  0  0  0  0  0  0  0
  -25.8450  -35.0320   23.4300 C   0  0  0  0  0  0  0  0  0  0  0  0
  -26.5370  -34.9230   22.4140 O   0  0  0  0  0  0  0  0  0  0  0  0
  -24.8960  -34.1450   24.9850 H   0  0  0  0  0  0  0  0  0  0  0  0
  -24.0940  -36.7870   23.0180 C   0  0  0  0  0  1  0  0  0  0  0  0
  -25.3280  -36.4180   23.8560 C   0  0  0  0  0  3  0  0  0  0  0  0
  -27.4320  -37.3500   24.7080 C   0  0  0  0  0  1  0  0  0  0  0  0
  -26.3450  -37.4860   23.7410 N   0  0  0  0  0  0  0  0  0  0  0  0
  -25.9220  -38.4020   23.8680 H   0  0  0  0  0  0  0  0  0  0  0  0
  -26.3490  -31.8380   25.1830 C   0  0  1  0  0  0  0  0  0  0  0  0
  -25.2350  -31.5840   26.2260 C   0  0  0  0  0  1  0  0  0  0  0  0
  -26.9680  -30.4700   24.8110 C   0  0  0  0  0  1  0  0  0  0  0  0
  -27.4720  -32.6570   25.8630 C   0  0  0  0  0  1  0  0  0  0  0  0
  -33.1990  -18.1280   18.9950 C   0  0  0  0  0  2  0  0  0  0  0  0
  -32.3520  -18.9340   19.9750 C   0  0  0  0  0  3  0  0  0  0  0  0
  -31.7100  -17.5840   20.3020 C   0  0  0  0  0  3  0  0  0  0  0  0
  -33.0270  -17.0310   19.9490 N   0  0  0  0  0  4  0  0  0  0  0  0
  -33.6940  -17.0760   20.7010 H   0  0  0  0  0  0  0  0  0  0  0  0
  -32.9500  -16.1050   19.5420 H   0  0  0  0  0  0  0  0  0  0  0  0
  -31.2470  -17.2430   21.7250 C   0  0  0  0  0  3  0  0  0  0  0  0
  -29.9900  -17.6680   21.8660 F   0  0  0  0  0  0  0  0  0  0  0  0
  -31.2890  -15.7480   22.1200 C   0  0  0  0  0  2  0  0  0  0  0  0
  -30.6770  -14.2080   20.2470 C   0  0  0  0  0  0  0  0  0  0  0  0
  -30.1910  -12.1960   18.9070 C   0  0  0  0  0  2  0  0  0  0  0  0
  -29.1850  -12.4460   17.7710 C   0  0  0  0  0  2  0  0  0  0  0  0
  -27.7390  -12.3080   18.2820 C   0  0  0  0  0  2  0  0  0  0  0  0
  -27.4870  -13.1280   19.5750 C   0  0  0  0  0  3  0  0  0  0  0  0
  -28.5860  -12.8490   20.6210 C   0  0  0  0  0  2  0  0  0  0  0  0
  -29.8970  -13.1270   20.0040 N   0  0  0  0  0  0  0  0  0  0  0  0
  -31.6600  -14.5160   19.5610 O   0  0  0  0  0  0  0  0  0  0  0  0
  -30.3850  -14.8740   21.3700 N   0  0  0  0  0  0  0  0  0  0  0  0
  -29.5470  -14.5790   21.8490 H   0  0  0  0  0  0  0  0  0  0  0  0
  -25.1300  -13.7630   20.3990 C   0  0  0  0  0  0  0  0  0  0  0  0
  -24.0740  -13.0010   20.8200 C   0  0  0  0  0  0  0  0  0  0  0  0
  -24.5180  -11.6450   20.7650 C   0  0  0  0  0  0  0  0  0  0  0  0
  -26.1540  -12.8710   20.1180 N   0  0  0  0  0  0  0  0  0  0  0  0
  -25.7910  -11.5920   20.3930 N   0  0  0  0  0  0  0  0  0  0  0  0
  -23.7910  -10.3900   20.9900 C   0  0  0  0  0  0  0  0  0  0  0  0
  -24.2340   -9.4380   21.9350 C   0  0  0  0  0  3  0  0  0  0  0  0
  -23.5060   -8.2460   22.1450 C   0  0  0  0  0  3  0  0  0  0  0  0
  -22.3230   -7.9980   21.4100 C   0  0  0  0  0  0  0  0  0  0  0  0
  -21.9000   -8.9380   20.4540 C   0  0  0  0  0  3  0  0  0  0  0  0
  -22.6260  -10.1210   20.2420 C   0  0  0  0  0  3  0  0  0  0  0  0
  -21.5660   -6.8570   21.5290 O   0  0  0  0  0  0  0  0  0  0  0  0
  -21.5100   -6.1500   22.7040 C   0  0  0  0  0  0  0  0  0  0  0  0
  -21.0680   -6.7380   23.9080 C   0  0  0  0  0  3  0  0  0  0  0  0
  -20.9590   -5.9580   25.0760 C   0  0  0  0  0  3  0  0  0  0  0  0
  -21.2840   -4.5880   25.0400 C   0  0  0  0  0  0  0  0  0  0  0  0
  -21.7200   -3.9980   23.8390 C   0  0  0  0  0  3  0  0  0  0  0  0
  -21.8300   -4.7770   22.6740 C   0  0  0  0  0  0  0  0  0  0  0  0
  -22.2300   -4.2000   21.5160 F   0  0  0  0  0  0  0  0  0  0  0  0
  -21.1720   -3.8360   26.1590 F   0  0  0  0  0  0  0  0  0  0  0  0
  -22.6970  -13.4920   21.1620 C   0  0  0  0  0  0  0  0  0  0  0  0
  -22.0030  -12.7970   22.0570 N   0  0  0  0  0  0  0  0  0  0  0  0
  -22.2450  -14.5250   20.6700 O   0  0  0  0  0  0  0  0  0  0  0  0
  -22.3820  -11.9600   22.4750 H   0  0  0  0  0  0  0  0  0  0  0  0
  -21.0820  -13.1080   22.3300 H   0  0  0  0  0  0  0  0  0  0  0  0
  -25.3030  -15.1320   20.2150 N   0  0  0  0  0  0  0  0  0  0  0  0
  -24.5550  -15.8000   20.3670 H   0  0  0  0  0  0  0  0  0  0  0  0
  -26.1510  -15.5580   19.8610 H   0  0  0  0  0  0  0  0  0  0  0  0
  1  3  2  0
  2  1  1  0
  4  2  1  0
  5  7  1  0
  6  9  1  0
  6  8  1  0
  8 10  1  0
  9  5  1  0
  9  1  1  0
 10  7  1  0
 10 12  1  0
 10 11  1  6
 13 12  1  0
 14 16  1  0
 14 13  1  0
 15 26  2  0
 16 21  1  0
 17 25  1  0
 17 27  1  0
 18 20  1  0
 19 25  1  0
 20 21  2  0
 20 19  1  0
 22 16  2  0
 23 22  1  0
 23 18  2  0
 24 18  1  0
 24 17  1  0
 25 15  1  0
 27 29  2  0
 28 27  1  0
 30 28  1  0
 31 40  2  0
 31 36  1  0
 32 28  1  0
 32 36  1  0
 33 32  1  0
 34 35  1  0
 34 33  1  0
 35 31  1  0
 36 37  2  0
 37 38  1  0
 39 38  2  0
 40 39  1  0
 41 15  1  0
 41 42  1  0
 41 51  1  0
 42 45  1  0
 43 47  1  0
 43 42  1  0
 44 43  2  0
 47 46  1  0
 49 47  1  0
 49 50  1  0
 49 48  1  0
 51 54  1  1
 51 52  1  0
 53 51  1  0
 55 58  1  0
 55 56  1  0
 56  2  1  0
 56 57  1  0
 57 61  1  0
 58 57  1  0
 58 59  1  0
 60 58  1  0
 61 62  1  0
 61 63  1  0
 64 72  1  0
 65 70  1  0
 66 67  1  0
 66 65  1  0
 68 67  1  0
 68 77  1  0
 68 69  1  0
 70 64  1  0
 70 69  1  0
 71 64  2  0
 72 73  1  0
 72 63  1  0
 74 75  2  0
 75 94  1  0
 76 75  1  0
 76 79  1  0
 77 78  1  0
 77 74  1  0
 78 76  2  0
 79 80  1  0
 80 81  2  0
 82 85  1  0
 82 81  1  0
 83 82  2  0
 84 83  1  0
 84 79  2  0
 85 86  1  0
 86 87  1  0
 87 88  2  0
 89 88  1  0
 89 93  1  0
 90 89  2  0
 91 86  2  0
 91 90  1  0
 92 91  1  0
 94 95  1  0
 95 98  1  0
 95 97  1  0
 96 94  2  0
 99100  1  0
 99 74  1  0
101 99  1  0
M  ISO  4  13 101  14 101  64 100  72 100
M  END
>  <TORSDO>  (94) 
F 22

>  <SCORE>  (94) 
-12.790

>  <name>  (94) 
93

>  <ligand_id>  (94) 
93

>  <original_smiles>  (94) 
[H]c1c([H])c([H])c2c(c1[H])C([H])([H])C([H])([H])C([H])([H])C2([H])N([H])C(=O)C1([H])N(C(=O)C([H])(N([H])C(=O)C([H])(N([H])C([H])([H])[H])C([H])([H])[H])C(C([H])([H])[H])(C([H])([H])[H])C([H])([H])[H])C([H])([H])c2c([H])c(OC([H])([H])C([H])([H])[N+]3([H])C([H])([H])C([H])([H])C([H])(C(=O)N([H])C4([H])C([H])([H])[N+]([H])([H])C4([H])C([H])(F)C([H])([H])N([H])C(=O)N4C([H])([H])C([H])([H])C([H])([H])C([H])(n5nc(-c6c([H])c([H])c(Oc7c([H])c([H])c(F)c([H])c7F)c([H])c6[H])c(C(=O)N([H])[H])c5N([H])[H])C4([H])[H])C([H])([H])C3([H])[H])c([H])c([H])c2C1([H])[H]

>  <smiles>  (94) 
[H]c1c([H])c([H])c2c(c1[H])C([H])([H])C([H])([H])C([H])([H])C2([H])N([H])C(=O)C1([H])N(C(=O)C([H])(N([H])C(=O)C([H])(N([H])C([H])([H])[H])C([H])([H])[H])C(C([H])([H])[H])(C([H])([H])[H])C([H])([H])[H])C([H])([H])c2c([H])c(OC([H])([H])C([H])([H])[N+]3([H])C([H])([H])C([H])([H])C([H])(C(=O)N([H])C4([H])C([H])([H])[N+]([H])([H])C4([H])C([H])(F)C([H])([H])N([H])C(=O)N4C([H])([H])C([H])([H])C([H])([H])C([H])(n5nc(-c6c([H])c([H])c(Oc7c([H])c([H])c(F)c([H])c7F)c([H])c6[H])c(C(=O)N([H])[H])c5N([H])[H])C4([H])[H])C([H])([H])C3([H])[H])c([H])c([H])c2C1([H])[H]

$$$$
94:0:0
     RDKit          3D

 95103  0  0  1  0  0  0  0  0999 V2000
  -28.2280  -22.9980   22.0140 C   0  0  0  0  0  1  0  0  0  0  0  0
  -29.0210  -23.0140   20.6860 C   0  0  2  0  0  0  0  0  0  0  0  0
  -28.1950  -20.2650   20.5010 C   0  0  0  0  0  3  0  0  0  0  0  0
  -30.6000  -19.0830   19.9100 C   0  0  0  0  0  3  0  0  0  0  0  0
  -29.1850  -21.3100   20.2760 C   0  0  0  0  0  0  0  0  0  0  0  0
  -29.6030  -18.0590   20.1800 C   0  0  0  0  0  0  0  0  0  0  0  0
  -28.3790  -18.7960   20.4560 C   0  0  0  0  0  0  0  0  0  0  0  0
  -30.4110  -20.5620   19.9540 C   0  0  0  0  0  0  0  0  0  0  0  0
  -27.2880  -18.0400   20.7240 F   0  0  0  0  0  0  0  0  0  0  0  0
  -31.5280  -21.2900   19.7350 F   0  0  0  0  0  0  0  0  0  0  0  0
  -30.4580  -15.2680   19.9260 C   0  0  0  0  0  0  0  0  0  0  0  0
  -30.3650  -12.8660   18.9730 C   0  0  0  0  0  2  0  0  0  0  0  0
  -29.3600  -12.7480   17.8000 C   0  0  0  0  0  2  0  0  0  0  0  0
  -27.9340  -12.4910   18.3200 C   0  0  0  0  0  2  0  0  0  0  0  0
  -27.5780  -13.4120   19.5140 C   0  0  0  0  0  3  0  0  0  0  0  0
  -28.6990  -13.4700   20.5750 C   0  0  0  0  0  2  0  0  0  0  0  0
  -29.9050  -13.9640   19.8930 N   0  0  0  0  0  0  0  0  0  0  0  0
  -31.6430  -15.3250   19.5710 O   0  0  0  0  0  0  0  0  0  0  0  0
  -29.6400  -16.4540   20.1920 N   0  0  0  0  0  0  0  0  0  0  0  0
  -28.7360  -16.1180   20.4920 H   0  0  0  0  0  0  0  0  0  0  0  0
  -25.2590  -13.9720   20.4240 C   0  0  0  0  0  0  0  0  0  0  0  0
  -24.2150  -13.1940   20.8380 C   0  0  0  0  0  0  0  0  0  0  0  0
  -24.6670  -11.8410   20.7410 C   0  0  0  0  0  0  0  0  0  0  0  0
  -26.2780  -13.0950   20.0930 N   0  0  0  0  0  0  0  0  0  0  0  0
  -25.9360  -11.8060   20.3500 N   0  0  0  0  0  0  0  0  0  0  0  0
  -23.9400  -10.5800   20.9400 C   0  0  0  0  0  0  0  0  0  0  0  0
  -24.3930   -9.6020   21.8520 C   0  0  0  0  0  3  0  0  0  0  0  0
  -23.6640   -8.4080   22.0430 C   0  0  0  0  0  3  0  0  0  0  0  0
  -22.4690   -8.1830   21.3200 C   0  0  0  0  0  0  0  0  0  0  0  0
  -22.0340   -9.1500   20.3970 C   0  0  0  0  0  3  0  0  0  0  0  0
  -22.7630  -10.3350   20.2050 C   0  0  0  0  0  3  0  0  0  0  0  0
  -21.7090   -7.0420   21.4200 O   0  0  0  0  0  0  0  0  0  0  0  0
  -21.6560   -6.3120   22.5810 C   0  0  0  0  0  0  0  0  0  0  0  0
  -21.2310   -6.8820   23.8010 C   0  0  0  0  0  3  0  0  0  0  0  0
  -21.1250   -6.0780   24.9540 C   0  0  0  0  0  3  0  0  0  0  0  0
  -21.4350   -4.7070   24.8880 C   0  0  0  0  0  0  0  0  0  0  0  0
  -21.8540   -4.1370   23.6730 C   0  0  0  0  0  3  0  0  0  0  0  0
  -21.9610   -4.9380   22.5220 C   0  0  0  0  0  0  0  0  0  0  0  0
  -22.3450   -4.3790   21.3490 F   0  0  0  0  0  0  0  0  0  0  0  0
  -21.3270   -3.9330   25.9940 F   0  0  0  0  0  0  0  0  0  0  0  0
  -22.8420  -13.6740   21.2050 C   0  0  0  0  0  0  0  0  0  0  0  0
  -22.1630  -12.9640   22.0980 N   0  0  0  0  0  0  0  0  0  0  0  0
  -22.3820  -14.7150   20.7360 O   0  0  0  0  0  0  0  0  0  0  0  0
  -22.5480  -12.1220   22.4980 H   0  0  0  0  0  0  0  0  0  0  0  0
  -21.2430  -13.2660   22.3870 H   0  0  0  0  0  0  0  0  0  0  0  0
  -25.4190  -15.3470   20.2740 N   0  0  0  0  0  0  0  0  0  0  0  0
  -24.6650  -15.9970   20.4660 H   0  0  0  0  0  0  0  0  0  0  0  0
  -26.2450  -15.8020   19.9070 H   0  0  0  0  0  0  0  0  0  0  0  0
  -30.4360  -23.5860   20.9900 C   0  0  0  0  0  2  0  0  0  0  0  0
  -31.1860  -22.8540   22.0300 N   0  0  0  0  0  4  0  0  0  0  0  0
  -30.6550  -22.7710   22.8790 H   0  0  0  0  0  0  0  0  0  0  0  0
  -32.0410  -23.3380   22.2380 H   0  0  0  0  0  0  0  0  0  0  0  0
  -31.4220  -21.9390   21.6830 H   0  0  0  0  0  0  0  0  0  0  0  0
  -28.2730  -24.4110   19.8830 C   0  0  0  0  0  2  0  0  0  0  0  0
  -28.3370  -26.0020   20.2570 O   0  0  0  0  0  0  0  0  0  0  0  0
  -24.7140  -31.8760   23.1750 C   0  0  0  0  0  0  0  0  0  0  0  0
  -27.2980  -27.0530   20.1510 C   0  0  0  0  0  0  0  0  0  0  0  0
  -23.5240  -30.4770   21.5320 C   0  0  0  0  0  3  0  0  0  0  0  0
  -24.9810  -28.8880   20.1030 C   0  0  0  0  0  0  0  0  0  0  0  0
  -26.0840  -30.7150   21.3800 C   0  0  0  0  0  2  0  0  0  0  0  0
  -26.1610  -29.3090   20.7240 C   0  0  0  0  0  0  0  0  0  0  0  0
  -27.3140  -28.4110   20.7250 C   0  0  0  0  0  3  0  0  0  0  0  0
  -26.0880  -26.7710   19.4760 C   0  0  0  0  0  3  0  0  0  0  0  0
  -24.9670  -27.6390   19.4580 C   0  0  0  0  0  3  0  0  0  0  0  0
  -23.7540  -29.7970   20.1530 C   0  0  0  0  0  2  0  0  0  0  0  0
  -24.7950  -31.0490   22.0830 N   0  0  0  0  0  0  0  0  0  0  0  0
  -23.6250  -32.1560   23.6990 O   0  0  0  0  0  0  0  0  0  0  0  0
  -22.8390  -29.4750   22.4950 C   0  0  0  0  0  0  0  0  0  0  0  0
  -21.5060  -29.3190   22.3860 N   0  0  0  0  0  0  0  0  0  0  0  0
  -23.5110  -28.8380   23.3100 O   0  0  0  0  0  0  0  0  0  0  0  0
  -21.0170  -29.8870   21.7080 H   0  0  0  0  0  0  0  0  0  0  0  0
  -18.1200  -28.1430   22.9370 C   0  0  0  0  0  0  0  0  0  0  0  0
  -20.6870  -28.3780   23.1570 C   0  0  0  0  0  3  0  0  0  0  0  0
  -20.7600  -26.9530   22.5600 C   0  0  0  0  0  2  0  0  0  0  0  0
  -19.6370  -26.6580   21.5600 C   0  0  0  0  0  2  0  0  0  0  0  0
  -18.2700  -26.8050   22.2340 C   0  0  0  0  0  2  0  0  0  0  0  0
  -19.2540  -28.8880   23.3570 C   0  0  0  0  0  0  0  0  0  0  0  0
  -19.0570  -30.1400   23.9790 C   0  0  0  0  0  3  0  0  0  0  0  0
  -17.7590  -30.6460   24.1840 C   0  0  0  0  0  3  0  0  0  0  0  0
  -16.6410  -29.8980   23.7780 C   0  0  0  0  0  3  0  0  0  0  0  0
  -16.8210  -28.6490   23.1610 C   0  0  0  0  0  3  0  0  0  0  0  0
  -25.9840  -32.5210   23.8070 C   0  0  0  0  0  3  0  0  0  0  0  0
  -26.4940  -31.7570   25.0920 C   0  0  1  0  0  0  0  0  0  0  0  0
  -25.3950  -31.5180   26.1540 C   0  0  0  0  0  1  0  0  0  0  0  0
  -27.0860  -30.3790   24.7150 C   0  0  0  0  0  1  0  0  0  0  0  0
  -27.6360  -32.5590   25.7600 C   0  0  0  0  0  1  0  0  0  0  0  0
  -25.6620  -33.9180   24.1440 N   0  0  0  0  0  0  0  0  0  0  0  0
  -25.9870  -34.9820   23.3970 C   0  0  0  0  0  0  0  0  0  0  0  0
  -26.6530  -34.8910   22.3620 O   0  0  0  0  0  0  0  0  0  0  0  0
  -25.0690  -34.0610   24.9480 H   0  0  0  0  0  0  0  0  0  0  0  0
  -24.2500  -36.7780   23.0770 C   0  0  0  0  0  1  0  0  0  0  0  0
  -25.5000  -36.3670   23.8720 C   0  0  0  0  0  3  0  0  0  0  0  0
  -27.6350  -37.2590   24.6930 C   0  0  0  0  0  1  0  0  0  0  0  0
  -26.5270  -37.4250   23.7580 N   0  0  0  0  0  0  0  0  0  0  0  0
  -26.1160  -38.3420   23.9120 H   0  0  0  0  0  0  0  0  0  0  0  0
  2 49  1  0
  2  1  1  1
  4  8  2  0
  4  6  1  0
  5  3  2  0
  5  2  1  0
  6 19  1  0
  6  7  2  0
  7  3  1  0
  7  9  1  0
  8  5  1  0
 10  8  1  0
 11 19  1  0
 12 17  1  0
 13 14  1  0
 13 12  1  0
 15 14  1  0
 15 24  1  0
 15 16  1  0
 17 11  1  0
 17 16  1  0
 18 11  2  0
 19 20  1  0
 21 22  2  0
 22 41  1  0
 23 22  1  0
 23 26  1  0
 24 25  1  0
 24 21  1  0
 25 23  2  0
 26 27  1  0
 27 28  2  0
 29 32  1  0
 29 28  1  0
 30 29  2  0
 31 30  1  0
 31 26  2  0
 32 33  1  0
 33 34  1  0
 34 35  2  0
 36 35  1  0
 36 40  1  0
 37 36  2  0
 38 33  2  0
 38 37  1  0
 39 38  1  0
 41 42  1  0
 42 45  1  0
 42 44  1  0
 43 41  2  0
 46 21  1  0
 46 47  1  0
 48 46  1  0
 49 50  1  0
 50 52  1  0
 50 51  1  0
 53 50  1  0
 54 55  1  0
 54  2  1  0
 56 67  2  0
 57 55  1  0
 57 62  1  0
 58 66  1  0
 58 68  1  0
 59 65  1  0
 59 61  1  0
 60 66  1  0
 61 62  2  0
 61 60  1  0
 63 57  2  0
 64 63  1  0
 64 59  2  0
 65 58  1  0
 66 56  1  0
 68 70  2  0
 69 68  1  0
 71 69  1  0
 72 81  2  0
 72 77  1  0
 73 69  1  0
 73 77  1  0
 74 73  1  0
 75 76  1  0
 75 74  1  0
 76 72  1  0
 77 78  2  0
 78 79  1  0
 80 79  2  0
 81 80  1  0
 82 56  1  0
 82 87  1  0
 82 83  1  0
 83 86  1  1
 83 84  1  0
 85 83  1  0
 87 90  1  0
 88 92  1  0
 88 87  1  0
 89 88  2  0
 92 91  1  0
 94 92  1  0
 94 95  1  0
 94 93  1  0
M  ISO  4  11 100  19 100  54 101  55 101
M  END
>  <TORSDO>  (95) 
F 20

>  <SCORE>  (95) 
-15.293

>  <name>  (95) 
94

>  <ligand_id>  (95) 
94

>  <original_smiles>  (95) 
[H]c1c([H])c([H])c2c(c1[H])C([H])([H])C([H])([H])C([H])([H])C2([H])N([H])C(=O)C1([H])N(C(=O)C([H])(N([H])C(=O)C([H])(N([H])C([H])([H])[H])C([H])([H])[H])C(C([H])([H])[H])(C([H])([H])[H])C([H])([H])[H])C([H])([H])c2c([H])c(OC([H])([H])C(c3c([H])c(F)c(N([H])C(=O)N4C([H])([H])C([H])([H])C([H])([H])C([H])(n5nc(-c6c([H])c([H])c(Oc7c([H])c([H])c(F)c([H])c7F)c([H])c6[H])c(C(=O)N([H])[H])c5N([H])[H])C4([H])[H])c([H])c3F)(C([H])([H])[H])C([H])([H])[N+]([H])([H])[H])c([H])c([H])c2C1([H])[H]

>  <smiles>  (95) 
[H]c1c([H])c([H])c2c(c1[H])C([H])([H])C([H])([H])C([H])([H])C2([H])N([H])C(=O)C1([H])N(C(=O)C([H])(N([H])C(=O)C([H])(N([H])C([H])([H])[H])C([H])([H])[H])C(C([H])([H])[H])(C([H])([H])[H])C([H])([H])[H])C([H])([H])c2c([H])c(OC([H])([H])C(c3c([H])c(F)c(N([H])C(=O)N4C([H])([H])C([H])([H])C([H])([H])C([H])(n5nc(-c6c([H])c([H])c(Oc7c([H])c([H])c(F)c([H])c7F)c([H])c6[H])c(C(=O)N([H])[H])c5N([H])[H])C4([H])[H])c([H])c3F)(C([H])([H])[H])C([H])([H])[N+]([H])([H])[H])c([H])c([H])c2C1([H])[H]

$$$$
95:0:0
     RDKit          3D

 98107  0  0  1  0  0  0  0  0999 V2000
  -29.7800  -22.2100   20.8880 C   0  0  0  0  0  2  0  0  0  0  0  0
  -27.4680  -21.9100   20.6150 C   0  0  0  0  0  2  0  0  0  0  0  0
  -29.4280  -20.7580   21.3660 C   0  0  0  0  0  3  0  0  0  0  0  0
  -28.4520  -23.0060   21.1200 C   0  0  0  0  0  3  0  0  0  0  0  0
  -28.0610  -20.5770   20.8620 N   0  0  0  0  0  4  0  0  0  0  0  0
  -28.0940  -20.0870   19.9850 H   0  0  0  0  0  0  0  0  0  0  0  0
  -27.5130  -20.0410   21.5170 H   0  0  0  0  0  0  0  0  0  0  0  0
  -32.6750  -18.7960   20.6010 C   0  0  0  0  0  3  0  0  0  0  0  0
  -31.7490  -19.8450   20.7710 C   0  0  0  0  0  3  0  0  0  0  0  0
  -32.2480  -17.4490   20.6370 C   0  0  0  0  0  3  0  0  0  0  0  0
  -29.9690  -18.1920   21.0690 C   0  0  0  0  0  3  0  0  0  0  0  0
  -30.3870  -19.5710   21.0380 C   0  0  0  0  0  0  0  0  0  0  0  0
  -30.8740  -17.1150   20.7930 C   0  0  0  0  0  0  0  0  0  0  0  0
  -30.9440  -14.6980   20.0020 C   0  0  0  0  0  0  0  0  0  0  0  0
  -30.6100  -12.4450   18.9800 C   0  0  0  0  0  2  0  0  0  0  0  0
  -29.6180  -12.5110   17.7960 C   0  0  0  0  0  2  0  0  0  0  0  0
  -28.1590  -12.3730   18.2830 C   0  0  0  0  0  2  0  0  0  0  0  0
  -27.8590  -13.2770   19.5050 C   0  0  0  0  0  3  0  0  0  0  0  0
  -28.9650  -13.2100   20.5810 C   0  0  0  0  0  2  0  0  0  0  0  0
  -30.2590  -13.5100   19.9450 N   0  0  0  0  0  0  0  0  0  0  0  0
  -31.9950  -14.8470   19.3650 O   0  0  0  0  0  0  0  0  0  0  0  0
  -30.3940  -15.7390   20.6990 N   0  0  0  0  0  0  0  0  0  0  0  0
  -29.4820  -15.5580   21.0920 H   0  0  0  0  0  0  0  0  0  0  0  0
  -25.5360  -13.8910   20.4120 C   0  0  0  0  0  0  0  0  0  0  0  0
  -24.4790  -13.1240   20.8250 C   0  0  0  0  0  0  0  0  0  0  0  0
  -24.9040  -11.7660   20.7050 C   0  0  0  0  0  0  0  0  0  0  0  0
  -26.5390  -12.9950   20.0690 N   0  0  0  0  0  0  0  0  0  0  0  0
  -26.1680  -11.7090   20.3010 N   0  0  0  0  0  0  0  0  0  0  0  0
  -24.1640  -10.5090   20.9110 C   0  0  0  0  0  0  0  0  0  0  0  0
  -24.5840   -9.5440   21.8530 C   0  0  0  0  0  3  0  0  0  0  0  0
  -23.8410   -8.3550   22.0400 C   0  0  0  0  0  3  0  0  0  0  0  0
  -22.6680   -8.1260   21.2810 C   0  0  0  0  0  0  0  0  0  0  0  0
  -22.2690   -9.0800   20.3300 C   0  0  0  0  0  3  0  0  0  0  0  0
  -23.0120  -10.2590   20.1430 C   0  0  0  0  0  3  0  0  0  0  0  0
  -21.9020   -6.9930   21.3720 O   0  0  0  0  0  0  0  0  0  0  0  0
  -21.7740   -6.3030   22.5540 C   0  0  0  0  0  0  0  0  0  0  0  0
  -21.2390   -6.9050   23.7130 C   0  0  0  0  0  3  0  0  0  0  0  0
  -21.0630   -6.1420   24.8850 C   0  0  0  0  0  3  0  0  0  0  0  0
  -21.4100   -4.7770   24.8970 C   0  0  0  0  0  0  0  0  0  0  0  0
  -21.9380   -4.1770   23.7400 C   0  0  0  0  0  3  0  0  0  0  0  0
  -22.1170   -4.9360   22.5730 C   0  0  0  0  0  0  0  0  0  0  0  0
  -22.6090   -4.3440   21.4560 F   0  0  0  0  0  0  0  0  0  0  0  0
  -21.2310   -4.0470   26.0190 F   0  0  0  0  0  0  0  0  0  0  0  0
  -23.1170  -13.6210   21.2120 C   0  0  0  0  0  0  0  0  0  0  0  0
  -22.4340  -12.9190   22.1120 N   0  0  0  0  0  0  0  0  0  0  0  0
  -22.6770  -14.6770   20.7650 O   0  0  0  0  0  0  0  0  0  0  0  0
  -22.8060  -12.0670   22.4980 H   0  0  0  0  0  0  0  0  0  0  0  0
  -21.5290  -13.2500   22.4130 H   0  0  0  0  0  0  0  0  0  0  0  0
  -25.7290  -15.2600   20.2740 N   0  0  0  0  0  0  0  0  0  0  0  0
  -24.9830  -15.9370   20.4130 H   0  0  0  0  0  0  0  0  0  0  0  0
  -26.5710  -15.6740   19.8880 H   0  0  0  0  0  0  0  0  0  0  0  0
  -28.1780  -24.4410   20.4570 C   0  0  0  0  0  3  0  0  0  0  0  0
  -26.7220  -24.6790   20.4430 N   0  0  0  0  0  4  0  0  0  0  0  0
  -26.3450  -24.6890   21.3810 H   0  0  0  0  0  0  0  0  0  0  0  0
  -26.2090  -24.0260   19.8710 H   0  0  0  0  0  0  0  0  0  0  0  0
  -26.5710  -25.6030   20.0620 H   0  0  0  0  0  0  0  0  0  0  0  0
  -28.7900  -25.7560   21.0820 C   0  0  0  0  0  2  0  0  0  0  0  0
  -28.7070  -26.9610   20.2400 O   0  0  0  0  0  0  0  0  0  0  0  0
  -24.6570  -32.0060   23.3360 C   0  0  0  0  0  0  0  0  0  0  0  0
  -27.5410  -27.7180   20.2310 C   0  0  0  0  0  0  0  0  0  0  0  0
  -23.5510  -30.6330   21.6000 C   0  0  0  0  0  3  0  0  0  0  0  0
  -25.1090  -29.1930   20.1740 C   0  0  0  0  0  0  0  0  0  0  0  0
  -26.0730  -31.0580   21.5210 C   0  0  0  0  0  2  0  0  0  0  0  0
  -26.2220  -29.7100   20.8450 C   0  0  0  0  0  0  0  0  0  0  0  0
  -27.4380  -28.9790   20.8860 C   0  0  0  0  0  3  0  0  0  0  0  0
  -26.4320  -27.2770   19.4770 C   0  0  0  0  0  3  0  0  0  0  0  0
  -25.2130  -27.9790   19.4770 C   0  0  0  0  0  3  0  0  0  0  0  0
  -23.8360  -30.0150   20.2030 C   0  0  0  0  0  2  0  0  0  0  0  0
  -24.7730  -31.2480   22.2110 N   0  0  0  0  0  0  0  0  0  0  0  0
  -23.5500  -32.2280   23.8460 O   0  0  0  0  0  0  0  0  0  0  0  0
  -22.8960  -29.5580   22.4990 C   0  0  0  0  0  0  0  0  0  0  0  0
  -21.5750  -29.3670   22.3430 N   0  0  0  0  0  0  0  0  0  0  0  0
  -23.5770  -28.9020   23.2920 O   0  0  0  0  0  0  0  0  0  0  0  0
  -21.0810  -29.9640   21.6930 H   0  0  0  0  0  0  0  0  0  0  0  0
  -18.1990  -28.1460   22.7790 C   0  0  0  0  0  0  0  0  0  0  0  0
  -20.7600  -28.3850   23.0570 C   0  0  0  0  0  3  0  0  0  0  0  0
  -20.8520  -26.9910   22.4030 C   0  0  0  0  0  2  0  0  0  0  0  0
  -19.7490  -26.7270   21.3750 C   0  0  0  0  0  2  0  0  0  0  0  0
  -18.3690  -26.8360   22.0260 C   0  0  0  0  0  2  0  0  0  0  0  0
  -19.3220  -28.8780   23.2520 C   0  0  0  0  0  0  0  0  0  0  0  0
  -19.1120  -30.1020   23.9230 C   0  0  0  0  0  3  0  0  0  0  0  0
  -17.8120  -30.5980   24.1300 C   0  0  0  0  0  3  0  0  0  0  0  0
  -16.7020  -29.8630   23.6750 C   0  0  0  0  0  3  0  0  0  0  0  0
  -16.8970  -28.6380   23.0100 C   0  0  0  0  0  3  0  0  0  0  0  0
  -25.9060  -32.6440   24.0190 C   0  0  0  0  0  3  0  0  0  0  0  0
  -26.3570  -31.8810   25.3260 C   0  0  1  0  0  0  0  0  0  0  0  0
  -25.1990  -31.6190   26.3160 C   0  0  0  0  0  1  0  0  0  0  0  0
  -27.0040  -30.5190   24.9780 C   0  0  0  0  0  1  0  0  0  0  0  0
  -27.4350  -32.7070   26.0680 C   0  0  0  0  0  1  0  0  0  0  0  0
  -25.5790  -34.0420   24.3270 N   0  0  0  0  0  0  0  0  0  0  0  0
  -25.9160  -35.0880   23.5610 C   0  0  0  0  0  0  0  0  0  0  0  0
  -26.6150  -34.9780   22.5500 O   0  0  0  0  0  0  0  0  0  0  0  0
  -24.9650  -34.1980   25.1120 H   0  0  0  0  0  0  0  0  0  0  0  0
  -24.1710  -36.8500   23.1320 C   0  0  0  0  0  1  0  0  0  0  0  0
  -25.3970  -36.4760   23.9810 C   0  0  0  0  0  3  0  0  0  0  0  0
  -27.4900  -37.4080   24.8630 C   0  0  0  0  0  1  0  0  0  0  0  0
  -26.4160  -37.5430   23.8840 N   0  0  0  0  0  0  0  0  0  0  0  0
  -25.9870  -38.4560   24.0080 H   0  0  0  0  0  0  0  0  0  0  0  0
  1  4  1  0
  1  3  1  0
  2  5  1  0
  2  4  1  0
  3 12  1  0
  4 52  1  0
  5  3  1  0
  5  7  1  0
  6  5  1  0
  8 10  2  0
  8  9  1  0
  9 12  2  0
 10 13  1  0
 12 11  1  0
 13 11  2  0
 14 22  1  0
 15 20  1  0
 16 17  1  0
 16 15  1  0
 18 17  1  0
 18 27  1  0
 18 19  1  0
 20 14  1  0
 20 19  1  0
 21 14  2  0
 22 13  1  0
 22 23  1  0
 24 25  2  0
 25 44  1  0
 26 25  1  0
 26 29  1  0
 27 28  1  0
 27 24  1  0
 28 26  2  0
 29 30  1  0
 30 31  2  0
 32 35  1  0
 32 31  1  0
 33 32  2  0
 34 33  1  0
 34 29  2  0
 35 36  1  0
 36 41  2  0
 36 37  1  0
 37 38  2  0
 38 39  1  0
 39 43  1  0
 40 39  2  0
 41 40  1  0
 42 41  1  0
 44 45  1  0
 45 48  1  0
 45 47  1  0
 46 44  2  0
 49 24  1  0
 49 50  1  0
 51 49  1  0
 52 57  1  0
 53 52  1  0
 53 54  1  0
 55 53  1  0
 56 53  1  0
 58 57  1  0
 59 70  2  0
 60 58  1  0
 60 65  1  0
 61 69  1  0
 61 71  1  0
 62 68  1  0
 62 64  1  0
 63 69  1  0
 64 65  2  0
 64 63  1  0
 66 67  1  0
 66 60  2  0
 67 62  2  0
 68 61  1  0
 69 59  1  0
 71 73  2  0
 72 71  1  0
 74 72  1  0
 75 84  2  0
 75 80  1  0
 76 72  1  0
 76 80  1  0
 77 76  1  0
 78 79  1  0
 78 77  1  0
 79 75  1  0
 80 81  2  0
 81 82  1  0
 83 82  2  0
 84 83  1  0
 85 59  1  0
 85 90  1  0
 85 86  1  0
 86 89  1  1
 86 87  1  0
 88 86  1  0
 90 93  1  0
 91 95  1  0
 91 90  1  0
 92 91  2  0
 95 94  1  0
 97 95  1  0
 97 98  1  0
 97 96  1  0
M  ISO  4  14 100  22 100  57 101  58 101
M  END
>  <TORSDO>  (96) 
F 20

>  <SCORE>  (96) 
-14.093

>  <name>  (96) 
95

>  <ligand_id>  (96) 
95

>  <original_smiles>  (96) 
[H]c1c([H])c([H])c2c(c1[H])C([H])([H])C([H])([H])C([H])([H])C2([H])N([H])C(=O)C1([H])N(C(=O)C([H])(N([H])C(=O)C([H])(N([H])C([H])([H])[H])C([H])([H])[H])C(C([H])([H])[H])(C([H])([H])[H])C([H])([H])[H])C([H])([H])c2c([H])c(OC([H])([H])C([H])(C3([H])C([H])([H])C([H])(c4c([H])c([H])c([H])c(N([H])C(=O)N5C([H])([H])C([H])([H])C([H])([H])C([H])(n6nc(-c7c([H])c([H])c(Oc8c([H])c([H])c(F)c([H])c8F)c([H])c7[H])c(C(=O)N([H])[H])c6N([H])[H])C5([H])[H])c4[H])[N+]([H])([H])C3([H])[H])[N+]([H])([H])[H])c([H])c([H])c2C1([H])[H]

>  <smiles>  (96) 
[H]c1c([H])c([H])c2c(c1[H])C([H])([H])C([H])([H])C([H])([H])C2([H])N([H])C(=O)C1([H])N(C(=O)C([H])(N([H])C(=O)C([H])(N([H])C([H])([H])[H])C([H])([H])[H])C(C([H])([H])[H])(C([H])([H])[H])C([H])([H])[H])C([H])([H])c2c([H])c(OC([H])([H])C([H])(C3([H])C([H])([H])C([H])(c4c([H])c([H])c([H])c(N([H])C(=O)N5C([H])([H])C([H])([H])C([H])([H])C([H])(n6nc(-c7c([H])c([H])c(Oc8c([H])c([H])c(F)c([H])c8F)c([H])c7[H])c(C(=O)N([H])[H])c6N([H])[H])C5([H])[H])c4[H])[N+]([H])([H])C3([H])[H])[N+]([H])([H])[H])c([H])c([H])c2C1([H])[H]

$$$$
96:0:0
     RDKit          3D

 94102  0  0  1  0  0  0  0  0999 V2000
  -29.0030  -21.1460   20.8140 C   0  0  0  0  0  2  0  0  0  0  0  0
  -29.5160  -18.4890   20.7130 C   0  0  0  0  0  3  0  0  0  0  0  0
  -29.2890  -17.2230   18.6470 C   0  0  0  0  0  3  0  0  0  0  0  0
  -29.0990  -19.7270   20.0710 C   0  0  0  0  0  0  0  0  0  0  0  0
  -29.6000  -17.2080   20.0240 C   0  0  0  0  0  0  0  0  0  0  0  0
  -28.8250  -18.3930   18.0150 C   0  0  0  0  0  0  0  0  0  0  0  0
  -28.6890  -19.6080   18.7210 C   0  0  0  0  0  0  0  0  0  0  0  0
  -28.4800  -18.3410   16.7040 F   0  0  0  0  0  0  0  0  0  0  0  0
  -28.1540  -20.6740   18.0760 F   0  0  0  0  0  0  0  0  0  0  0  0
  -30.5250  -14.8070   20.1580 C   0  0  0  0  0  0  0  0  0  0  0  0
  -30.2790  -12.5700   19.0830 C   0  0  0  0  0  2  0  0  0  0  0  0
  -29.2960  -12.7110   17.8990 C   0  0  0  0  0  2  0  0  0  0  0  0
  -27.8390  -12.5330   18.3700 C   0  0  0  0  0  2  0  0  0  0  0  0
  -27.5240  -13.3570   19.6480 C   0  0  0  0  0  3  0  0  0  0  0  0
  -28.6240  -13.2110   20.7210 C   0  0  0  0  0  2  0  0  0  0  0  0
  -29.9070  -13.5770   20.1070 N   0  0  0  0  0  0  0  0  0  0  0  0
  -31.6470  -14.9570   19.6650 O   0  0  0  0  0  0  0  0  0  0  0  0
  -29.8360  -15.8940   20.6600 N   0  0  0  0  0  0  0  0  0  0  0  0
  -29.1640  -15.6520   21.3760 H   0  0  0  0  0  0  0  0  0  0  0  0
  -25.1610  -13.9080   20.4930 C   0  0  0  0  0  0  0  0  0  0  0  0
  -24.1190  -13.1170   20.8900 C   0  0  0  0  0  0  0  0  0  0  0  0
  -24.5890  -11.7720   20.8010 C   0  0  0  0  0  0  0  0  0  0  0  0
  -26.2000  -13.0440   20.1860 N   0  0  0  0  0  0  0  0  0  0  0  0
  -25.8640  -11.7500   20.4280 N   0  0  0  0  0  0  0  0  0  0  0  0
  -23.8780  -10.4980   20.9880 C   0  0  0  0  0  0  0  0  0  0  0  0
  -24.3350   -9.5290   21.9050 C   0  0  0  0  0  3  0  0  0  0  0  0
  -23.6290   -8.3210   22.0820 C   0  0  0  0  0  3  0  0  0  0  0  0
  -22.4480   -8.0730   21.3430 C   0  0  0  0  0  0  0  0  0  0  0  0
  -22.0090   -9.0340   20.4110 C   0  0  0  0  0  3  0  0  0  0  0  0
  -22.7180  -10.2330   20.2330 C   0  0  0  0  0  3  0  0  0  0  0  0
  -21.7070   -6.9210   21.4320 O   0  0  0  0  0  0  0  0  0  0  0  0
  -21.6540   -6.1850   22.5870 C   0  0  0  0  0  0  0  0  0  0  0  0
  -21.1570   -6.7240   23.7950 C   0  0  0  0  0  3  0  0  0  0  0  0
  -21.0540   -5.9100   24.9390 C   0  0  0  0  0  3  0  0  0  0  0  0
  -21.4400   -4.5580   24.8790 C   0  0  0  0  0  0  0  0  0  0  0  0
  -21.9330   -4.0170   23.6790 C   0  0  0  0  0  3  0  0  0  0  0  0
  -22.0350   -4.8280   22.5340 C   0  0  0  0  0  0  0  0  0  0  0  0
  -22.4900   -4.2970   21.3750 F   0  0  0  0  0  0  0  0  0  0  0  0
  -21.3360   -3.7730   25.9780 F   0  0  0  0  0  0  0  0  0  0  0  0
  -22.7340  -13.5760   21.2410 C   0  0  0  0  0  0  0  0  0  0  0  0
  -22.0460  -12.8490   22.1110 N   0  0  0  0  0  0  0  0  0  0  0  0
  -22.2700  -14.6170   20.7720 O   0  0  0  0  0  0  0  0  0  0  0  0
  -22.4360  -12.0120   22.5190 H   0  0  0  0  0  0  0  0  0  0  0  0
  -21.1130  -13.1300   22.3730 H   0  0  0  0  0  0  0  0  0  0  0  0
  -25.3060  -15.2830   20.3440 N   0  0  0  0  0  0  0  0  0  0  0  0
  -24.5150  -15.9110   20.4570 H   0  0  0  0  0  0  0  0  0  0  0  0
  -26.1220  -15.7390   19.9540 H   0  0  0  0  0  0  0  0  0  0  0  0
  -30.3990  -22.6230   19.3410 C   0  0  0  0  0  1  0  0  0  0  0  0
  -29.0870  -22.4870   20.0390 N   0  0  2  0  0  4  0  0  0  0  0  0
  -28.3970  -22.3650   19.3070 H   0  0  0  0  0  0  0  0  0  0  0  0
  -27.6820  -23.6740   21.8630 C   0  0  0  0  0  1  0  0  0  0  0  0
  -28.7440  -23.8320   20.7510 C   0  0  0  0  0  3  0  0  0  0  0  0
  -28.3160  -25.0760   19.8050 C   0  0  0  0  0  2  0  0  0  0  0  0
  -28.3450  -26.5020   20.2990 O   0  0  0  0  0  0  0  0  0  0  0  0
  -24.5500  -31.9450   23.2270 C   0  0  0  0  0  0  0  0  0  0  0  0
  -27.2340  -27.3740   20.1910 C   0  0  0  0  0  0  0  0  0  0  0  0
  -23.3890  -30.5360   21.5680 C   0  0  0  0  0  3  0  0  0  0  0  0
  -24.8730  -29.0080   20.1530 C   0  0  0  0  0  0  0  0  0  0  0  0
  -25.9340  -30.8630   21.4320 C   0  0  0  0  0  2  0  0  0  0  0  0
  -26.0300  -29.4860   20.7780 C   0  0  0  0  0  0  0  0  0  0  0  0
  -27.2120  -28.6770   20.7920 C   0  0  0  0  0  3  0  0  0  0  0  0
  -26.0560  -26.9820   19.5090 C   0  0  0  0  0  3  0  0  0  0  0  0
  -24.8910  -27.7650   19.5090 C   0  0  0  0  0  3  0  0  0  0  0  0
  -23.6360  -29.8780   20.1870 C   0  0  0  0  0  2  0  0  0  0  0  0
  -24.6440  -31.1310   22.1350 N   0  0  0  0  0  0  0  0  0  0  0  0
  -23.4540  -32.2110   23.7430 O   0  0  0  0  0  0  0  0  0  0  0  0
  -22.7170  -29.5090   22.5090 C   0  0  0  0  0  0  0  0  0  0  0  0
  -21.3910  -29.3290   22.3730 N   0  0  0  0  0  0  0  0  0  0  0  0
  -23.3890  -28.8770   23.3290 O   0  0  0  0  0  0  0  0  0  0  0  0
  -20.9000  -29.9000   21.6990 H   0  0  0  0  0  0  0  0  0  0  0  0
  -18.0080  -28.1480   22.8620 C   0  0  0  0  0  0  0  0  0  0  0  0
  -20.5690  -28.3840   23.1290 C   0  0  0  0  0  3  0  0  0  0  0  0
  -20.6610  -26.9610   22.5320 C   0  0  0  0  0  2  0  0  0  0  0  0
  -19.5580  -26.6610   21.5120 C   0  0  0  0  0  2  0  0  0  0  0  0
  -18.1780  -26.8080   22.1610 C   0  0  0  0  0  2  0  0  0  0  0  0
  -19.1330  -28.8930   23.3030 C   0  0  0  0  0  0  0  0  0  0  0  0
  -18.9270  -30.1480   23.9180 C   0  0  0  0  0  3  0  0  0  0  0  0
  -17.6290  -30.6600   24.0930 C   0  0  0  0  0  3  0  0  0  0  0  0
  -16.5160  -29.9100   23.6730 C   0  0  0  0  0  3  0  0  0  0  0  0
  -16.7070  -28.6540   23.0650 C   0  0  0  0  0  3  0  0  0  0  0  0
  -25.8140  -32.5940   23.8680 C   0  0  0  0  0  3  0  0  0  0  0  0
  -26.3100  -31.8390   25.1610 C   0  0  1  0  0  0  0  0  0  0  0  0
  -25.1970  -31.5980   26.2060 C   0  0  0  0  0  1  0  0  0  0  0  0
  -26.9110  -30.4660   24.7870 C   0  0  0  0  0  1  0  0  0  0  0  0
  -27.4430  -32.6430   25.8440 C   0  0  0  0  0  1  0  0  0  0  0  0
  -25.4970  -33.9950   24.1820 N   0  0  0  0  0  0  0  0  0  0  0  0
  -25.8350  -35.0410   23.4170 C   0  0  0  0  0  0  0  0  0  0  0  0
  -26.5170  -34.9300   22.3950 O   0  0  0  0  0  0  0  0  0  0  0  0
  -24.9010  -34.1580   24.9800 H   0  0  0  0  0  0  0  0  0  0  0  0
  -24.1100  -36.8250   23.0100 C   0  0  0  0  0  1  0  0  0  0  0  0
  -25.3330  -36.4310   23.8560 C   0  0  0  0  0  3  0  0  0  0  0  0
  -27.4350  -37.3300   24.7460 C   0  0  0  0  0  1  0  0  0  0  0  0
  -26.3640  -37.4870   23.7650 N   0  0  0  0  0  0  0  0  0  0  0  0
  -25.9490  -38.4050   23.9010 H   0  0  0  0  0  0  0  0  0  0  0  0
  3  5  1  0
  4  2  1  0
  4  1  1  0
  5 18  1  0
  5  2  2  0
  6  3  2  0
  6  7  1  0
  7  4  2  0
  8  6  1  0
  9  7  1  0
 10 18  1  0
 11 16  1  0
 12 13  1  0
 12 11  1  0
 14 13  1  0
 14 23  1  0
 14 15  1  0
 16 10  1  0
 16 15  1  0
 17 10  2  0
 18 19  1  0
 20 21  2  0
 21 40  1  0
 22 21  1  0
 22 25  1  0
 23 24  1  0
 23 20  1  0
 24 22  2  0
 25 26  1  0
 26 27  2  0
 28 31  1  0
 28 27  1  0
 29 28  2  0
 30 29  1  0
 30 25  2  0
 31 32  1  0
 32 33  1  0
 33 34  2  0
 35 34  1  0
 35 39  1  0
 36 35  2  0
 37 32  2  0
 37 36  1  0
 38 37  1  0
 40 41  1  0
 41 44  1  0
 41 43  1  0
 42 40  2  0
 45 46  1  0
 45 20  1  0
 47 45  1  0
 48 49  1  0
 49 52  1  0
 49  1  1  0
 49 50  1  6
 52 51  1  0
 53 54  1  0
 53 52  1  0
 55 66  2  0
 56 54  1  0
 56 61  1  0
 57 65  1  0
 57 67  1  0
 58 64  1  0
 58 60  1  0
 59 65  1  0
 60 61  2  0
 60 59  1  0
 62 56  2  0
 63 62  1  0
 63 58  2  0
 64 57  1  0
 65 55  1  0
 67 69  2  0
 68 67  1  0
 70 68  1  0
 71 80  2  0
 71 76  1  0
 72 68  1  0
 72 76  1  0
 73 72  1  0
 74 75  1  0
 74 73  1  0
 75 71  1  0
 76 77  2  0
 77 78  1  0
 79 78  2  0
 80 79  1  0
 81 55  1  0
 81 86  1  0
 81 82  1  0
 82 85  1  1
 82 83  1  0
 84 82  1  0
 86 89  1  0
 87 91  1  0
 87 86  1  0
 88 87  2  0
 91 90  1  0
 93 91  1  0
 93 94  1  0
 93 92  1  0
M  ISO  4  10 100  18 100  53 101  54 101
M  END
>  <TORSDO>  (97) 
F 20

>  <SCORE>  (97) 
-14.095

>  <name>  (97) 
96

>  <ligand_id>  (97) 
96

>  <original_smiles>  (97) 
[H]c1c([H])c([H])c2c(c1[H])C([H])([H])C([H])([H])C([H])([H])C2([H])N([H])C(=O)C1([H])N(C(=O)C([H])(N([H])C(=O)C([H])(N([H])C([H])([H])[H])C([H])([H])[H])C(C([H])([H])[H])(C([H])([H])[H])C([H])([H])[H])C([H])([H])c2c([H])c(OC([H])([H])C([H])(C([H])([H])[H])[N+]([H])(C([H])([H])[H])C([H])([H])c3c([H])c(N([H])C(=O)N4C([H])([H])C([H])([H])C([H])([H])C([H])(n5nc(-c6c([H])c([H])c(Oc7c([H])c([H])c(F)c([H])c7F)c([H])c6[H])c(C(=O)N([H])[H])c5N([H])[H])C4([H])[H])c([H])c(F)c3F)c([H])c([H])c2C1([H])[H]

>  <smiles>  (97) 
[H]c1c([H])c([H])c2c(c1[H])C([H])([H])C([H])([H])C([H])([H])C2([H])N([H])C(=O)C1([H])N(C(=O)C([H])(N([H])C(=O)C([H])(N([H])C([H])([H])[H])C([H])([H])[H])C(C([H])([H])[H])(C([H])([H])[H])C([H])([H])[H])C([H])([H])c2c([H])c(OC([H])([H])C([H])(C([H])([H])[H])[N+]([H])(C([H])([H])[H])C([H])([H])c3c([H])c(N([H])C(=O)N4C([H])([H])C([H])([H])C([H])([H])C([H])(n5nc(-c6c([H])c([H])c(Oc7c([H])c([H])c(F)c([H])c7F)c([H])c6[H])c(C(=O)N([H])[H])c5N([H])[H])C4([H])[H])c([H])c(F)c3F)c([H])c([H])c2C1([H])[H]

$$$$
97:0:0
     RDKit          3D

 94103  0  0  1  0  0  0  0  0999 V2000
  -29.2780  -22.6070   19.8030 C   0  0  0  0  0  0  0  0  0  0  0  0
  -29.4260  -21.3990   20.4560 N   0  0  0  0  0  0  0  0  0  0  0  0
  -29.2840  -22.6260   18.5710 O   0  0  0  0  0  0  0  0  0  0  0  0
  -29.4090  -21.4220   21.4660 H   0  0  0  0  0  0  0  0  0  0  0  0
  -30.0030  -17.4860   18.7530 C   0  0  0  0  0  0  0  0  0  0  0  0
  -28.8270  -19.6390   18.7360 C   0  0  0  0  0  2  0  0  0  0  0  0
  -30.5040  -17.3090   20.1970 C   0  0  0  0  0  3  0  0  0  0  0  0
  -29.6330  -18.6380   20.4770 C   0  0  0  0  0  3  0  0  0  0  0  0
  -29.8360  -20.0930   19.8000 C   0  0  0  0  0  3  0  0  0  0  0  0
  -28.9540  -18.2690   19.2340 N   0  0  0  0  0  0  0  0  0  0  0  0
  -30.3420  -17.1740   17.6320 O   0  0  0  0  0  0  0  0  0  0  0  0
  -30.8060  -14.7940   20.4470 C   0  0  0  0  0  0  0  0  0  0  0  0
  -30.5680  -12.5560   19.4000 C   0  0  0  0  0  2  0  0  0  0  0  0
  -29.6540  -12.6820   18.1620 C   0  0  0  0  0  2  0  0  0  0  0  0
  -28.1780  -12.5130   18.5680 C   0  0  0  0  0  2  0  0  0  0  0  0
  -27.7890  -13.3740   19.8010 C   0  0  0  0  0  3  0  0  0  0  0  0
  -28.8340  -13.2670   20.9360 C   0  0  0  0  0  2  0  0  0  0  0  0
  -30.1470  -13.5940   20.3650 N   0  0  0  0  0  0  0  0  0  0  0  0
  -31.9810  -14.8880   20.0860 O   0  0  0  0  0  0  0  0  0  0  0  0
  -30.0860  -15.9350   20.6950 N   0  0  0  0  0  0  0  0  0  0  0  0
  -29.1190  -15.8320   20.9580 H   0  0  0  0  0  0  0  0  0  0  0  0
  -25.3790  -13.9360   20.4800 C   0  0  0  0  0  0  0  0  0  0  0  0
  -24.3180  -13.1490   20.8340 C   0  0  0  0  0  0  0  0  0  0  0  0
  -24.7990  -11.8040   20.8170 C   0  0  0  0  0  0  0  0  0  0  0  0
  -26.4400  -13.0720   20.2670 N   0  0  0  0  0  0  0  0  0  0  0  0
  -26.0960  -11.7830   20.5310 N   0  0  0  0  0  0  0  0  0  0  0  0
  -24.0870  -10.5340   20.9980 C   0  0  0  0  0  0  0  0  0  0  0  0
  -24.5010   -9.5830   21.9550 C   0  0  0  0  0  3  0  0  0  0  0  0
  -23.7840   -8.3780   22.1250 C   0  0  0  0  0  3  0  0  0  0  0  0
  -22.6410   -8.1150   21.3360 C   0  0  0  0  0  0  0  0  0  0  0  0
  -22.2450   -9.0560   20.3690 C   0  0  0  0  0  3  0  0  0  0  0  0
  -22.9610  -10.2520   20.1970 C   0  0  0  0  0  3  0  0  0  0  0  0
  -21.8990   -6.9610   21.4120 O   0  0  0  0  0  0  0  0  0  0  0  0
  -21.8110   -6.2390   22.5750 C   0  0  0  0  0  0  0  0  0  0  0  0
  -21.2970   -6.8000   23.7640 C   0  0  0  0  0  3  0  0  0  0  0  0
  -21.1560   -6.0020   24.9160 C   0  0  0  0  0  3  0  0  0  0  0  0
  -21.5240   -4.6430   24.8810 C   0  0  0  0  0  0  0  0  0  0  0  0
  -22.0340   -4.0820   23.6970 C   0  0  0  0  0  3  0  0  0  0  0  0
  -22.1740   -4.8770   22.5460 C   0  0  0  0  0  0  0  0  0  0  0  0
  -22.6450   -4.3260   21.4020 F   0  0  0  0  0  0  0  0  0  0  0  0
  -21.3840   -3.8730   25.9850 F   0  0  0  0  0  0  0  0  0  0  0  0
  -22.9110  -13.6120   21.0760 C   0  0  0  0  0  0  0  0  0  0  0  0
  -22.1720  -12.9090   21.9280 N   0  0  0  0  0  0  0  0  0  0  0  0
  -22.4730  -14.6320   20.5460 O   0  0  0  0  0  0  0  0  0  0  0  0
  -22.5400  -12.0860   22.3810 H   0  0  0  0  0  0  0  0  0  0  0  0
  -21.2270  -13.2030   22.1290 H   0  0  0  0  0  0  0  0  0  0  0  0
  -25.5260  -15.3090   20.3010 N   0  0  0  0  0  0  0  0  0  0  0  0
  -24.7420  -15.9450   20.3920 H   0  0  0  0  0  0  0  0  0  0  0  0
  -26.3600  -15.7610   19.9490 H   0  0  0  0  0  0  0  0  0  0  0  0
  -30.6100  -24.6410   20.4520 C   0  0  0  0  0  1  0  0  0  0  0  0
  -28.8450  -23.8000   22.0400 C   0  0  0  0  0  1  0  0  0  0  0  0
  -29.2030  -24.0190   20.5560 C   0  0  2  0  0  0  0  0  0  0  0  0
  -28.1810  -25.0890   19.9280 C   0  0  0  0  0  2  0  0  0  0  0  0
  -28.3220  -26.5400   20.2420 O   0  0  0  0  0  0  0  0  0  0  0  0
  -24.5430  -31.9200   23.2450 C   0  0  0  0  0  0  0  0  0  0  0  0
  -27.1960  -27.3830   20.1760 C   0  0  0  0  0  0  0  0  0  0  0  0
  -23.3530  -30.5150   21.6010 C   0  0  0  0  0  3  0  0  0  0  0  0
  -24.8170  -28.9840   20.1700 C   0  0  0  0  0  0  0  0  0  0  0  0
  -25.8930  -30.8480   21.4270 C   0  0  0  0  0  2  0  0  0  0  0  0
  -25.9820  -29.4740   20.7730 C   0  0  0  0  0  0  0  0  0  0  0  0
  -27.1720  -28.6850   20.7710 C   0  0  0  0  0  3  0  0  0  0  0  0
  -26.0100  -26.9550   19.5360 C   0  0  0  0  0  3  0  0  0  0  0  0
  -24.8340  -27.7290   19.5440 C   0  0  0  0  0  3  0  0  0  0  0  0
  -23.5750  -29.8480   20.2180 C   0  0  0  0  0  2  0  0  0  0  0  0
  -24.6140  -31.1130   22.1460 N   0  0  0  0  0  0  0  0  0  0  0  0
  -23.4570  -32.1900   23.7770 O   0  0  0  0  0  0  0  0  0  0  0  0
  -22.6960  -29.4910   22.5570 C   0  0  0  0  0  0  0  0  0  0  0  0
  -21.3710  -29.3060   22.4300 N   0  0  0  0  0  0  0  0  0  0  0  0
  -23.3780  -28.8670   23.3760 O   0  0  0  0  0  0  0  0  0  0  0  0
  -20.8810  -29.8650   21.7460 H   0  0  0  0  0  0  0  0  0  0  0  0
  -18.0010  -28.0870   22.9290 C   0  0  0  0  0  0  0  0  0  0  0  0
  -20.5590  -28.3620   23.1990 C   0  0  0  0  0  3  0  0  0  0  0  0
  -20.6690  -26.9320   22.6230 C   0  0  0  0  0  2  0  0  0  0  0  0
  -19.5700  -26.6040   21.6070 C   0  0  0  0  0  2  0  0  0  0  0  0
  -18.1870  -26.7390   22.2510 C   0  0  0  0  0  2  0  0  0  0  0  0
  -19.1160  -28.8550   23.3600 C   0  0  0  0  0  0  0  0  0  0  0  0
  -18.8880  -30.1160   23.9530 C   0  0  0  0  0  3  0  0  0  0  0  0
  -17.5790  -30.6090   24.1200 C   0  0  0  0  0  3  0  0  0  0  0  0
  -16.4800  -29.8380   23.7040 C   0  0  0  0  0  3  0  0  0  0  0  0
  -16.6920  -28.5790   23.1140 C   0  0  0  0  0  3  0  0  0  0  0  0
  -25.8210  -32.5610   23.8710 C   0  0  0  0  0  3  0  0  0  0  0  0
  -26.3240  -31.8120   25.1660 C   0  0  1  0  0  0  0  0  0  0  0  0
  -25.2210  -31.5930   26.2280 C   0  0  0  0  0  1  0  0  0  0  0  0
  -26.9130  -30.4270   24.8080 C   0  0  0  0  0  1  0  0  0  0  0  0
  -27.4660  -32.6200   25.8250 C   0  0  0  0  0  1  0  0  0  0  0  0
  -25.5090  -33.9660   24.1720 N   0  0  0  0  0  0  0  0  0  0  0  0
  -25.8710  -35.0070   23.4140 C   0  0  0  0  0  0  0  0  0  0  0  0
  -26.5720  -34.8890   22.4050 O   0  0  0  0  0  0  0  0  0  0  0  0
  -24.8880  -34.1330   24.9510 H   0  0  0  0  0  0  0  0  0  0  0  0
  -24.1870  -36.8240   22.9680 C   0  0  0  0  0  1  0  0  0  0  0  0
  -25.3790  -36.4050   23.8420 C   0  0  0  0  0  3  0  0  0  0  0  0
  -27.4760  -37.2680   24.7830 C   0  0  0  0  0  1  0  0  0  0  0  0
  -26.4300  -37.4430   23.7790 N   0  0  0  0  0  0  0  0  0  0  0  0
  -26.0300  -38.3700   23.8970 H   0  0  0  0  0  0  0  0  0  0  0  0
  1  2  1  0
  1 52  1  0
  2  4  1  0
  3  1  2  0
  5 10  1  0
  5  7  1  0
  6 10  1  0
  6  9  1  0
  7  8  1  0
  7 20  1  0
  8 10  1  0
  9  2  1  0
  9  8  1  0
 11  5  2  0
 12 20  1  0
 13 18  1  0
 14 15  1  0
 14 13  1  0
 16 15  1  0
 16 25  1  0
 16 17  1  0
 18 12  1  0
 18 17  1  0
 19 12  2  0
 20 21  1  0
 22 23  2  0
 23 42  1  0
 24 23  1  0
 24 27  1  0
 25 22  1  0
 25 26  1  0
 26 24  2  0
 27 28  1  0
 28 29  2  0
 30 33  1  0
 30 29  1  0
 31 30  2  0
 32 31  1  0
 32 27  2  0
 33 34  1  0
 34 35  1  0
 35 36  2  0
 37 36  1  0
 37 41  1  0
 38 37  2  0
 39 34  2  0
 39 38  1  0
 40 39  1  0
 42 43  1  0
 43 46  1  0
 43 45  1  0
 44 42  2  0
 47 48  1  0
 47 22  1  0
 49 47  1  0
 52 50  1  1
 52 51  1  0
 53 54  1  0
 53 52  1  0
 55 66  2  0
 56 54  1  0
 56 61  1  0
 57 65  1  0
 57 67  1  0
 58 64  1  0
 58 60  1  0
 59 65  1  0
 60 59  1  0
 61 60  2  0
 62 63  1  0
 62 56  2  0
 63 58  2  0
 64 57  1  0
 65 55  1  0
 67 69  2  0
 68 67  1  0
 70 68  1  0
 71 80  2  0
 71 76  1  0
 72 68  1  0
 72 76  1  0
 73 72  1  0
 74 75  1  0
 74 73  1  0
 75 71  1  0
 76 77  2  0
 77 78  1  0
 79 78  2  0
 80 79  1  0
 81 55  1  0
 81 86  1  0
 81 82  1  0
 82 85  1  1
 82 83  1  0
 84 82  1  0
 86 89  1  0
 87 91  1  0
 87 86  1  0
 88 87  2  0
 91 90  1  0
 93 91  1  0
 93 94  1  0
 93 92  1  0
M  ISO  4  12 100  20 100  53 101  54 101
M  END
>  <TORSDO>  (98) 
F 19

>  <SCORE>  (98) 
-14.064

>  <name>  (98) 
97

>  <ligand_id>  (98) 
97

>  <original_smiles>  (98) 
[H]c1c([H])c([H])c2c(c1[H])C([H])([H])C([H])([H])C([H])([H])C2([H])N([H])C(=O)C1([H])N(C(=O)C([H])(N([H])C(=O)C([H])(N([H])C([H])([H])[H])C([H])([H])[H])C(C([H])([H])[H])(C([H])([H])[H])C([H])([H])[H])C([H])([H])c2c([H])c(OC([H])([H])C(C(=O)N([H])C3([H])C([H])([H])N4C(=O)C([H])(N([H])C(=O)N5C([H])([H])C([H])([H])C([H])([H])C([H])(n6nc(-c7c([H])c([H])c(Oc8c([H])c([H])c(F)c([H])c8F)c([H])c7[H])c(C(=O)N([H])[H])c6N([H])[H])C5([H])[H])C43[H])(C([H])([H])[H])C([H])([H])[H])c([H])c([H])c2C1([H])[H]

>  <smiles>  (98) 
[H]c1c([H])c([H])c2c(c1[H])C([H])([H])C([H])([H])C([H])([H])C2([H])N([H])C(=O)C1([H])N(C(=O)C([H])(N([H])C(=O)C([H])(N([H])C([H])([H])[H])C([H])([H])[H])C(C([H])([H])[H])(C([H])([H])[H])C([H])([H])[H])C([H])([H])c2c([H])c(OC([H])([H])C(C(=O)N([H])C3([H])C([H])([H])N4C(=O)C([H])(N([H])C(=O)N5C([H])([H])C([H])([H])C([H])([H])C([H])(n6nc(-c7c([H])c([H])c(Oc8c([H])c([H])c(F)c([H])c8F)c([H])c7[H])c(C(=O)N([H])[H])c6N([H])[H])C5([H])[H])C43[H])(C([H])([H])[H])C([H])([H])[H])c([H])c([H])c2C1([H])[H]

$$$$
98:0:0
     RDKit          3D

 91 99  0  0  1  0  0  0  0  0999 V2000
  -28.5980  -20.6930   21.4840 C   0  0  0  0  0  3  0  0  0  0  0  0
  -27.2710  -21.0490   20.7400 C   0  0  0  0  0  3  0  0  0  0  0  0
  -28.7100  -21.9510   18.8320 C   0  0  0  0  0  2  0  0  0  0  0  0
  -29.7910  -22.1090   19.9250 C   0  0  0  0  0  3  0  0  0  0  0  0
  -29.8370  -20.7390   20.6860 N   0  0  0  0  0  0  0  0  0  0  0  0
  -27.3740  -21.5790   19.3540 N   0  0  0  0  0  4  0  0  0  0  0  0
  -26.7530  -22.3670   19.2740 H   0  0  0  0  0  0  0  0  0  0  0  0
  -27.0160  -20.8750   18.7300 H   0  0  0  0  0  0  0  0  0  0  0  0
  -29.6550  -23.6070   20.6930 C   0  0  0  0  0  3  0  0  0  0  0  0
  -29.3130  -25.0680   19.9350 C   0  0  0  0  0  3  0  0  0  0  0  0
  -29.1930  -26.5050   20.5420 O   0  0  0  0  0  0  0  0  0  0  0  0
  -24.9000  -31.8160   23.3080 C   0  0  0  0  0  0  0  0  0  0  0  0
  -28.0630  -27.3900   20.3920 C   0  0  0  0  0  0  0  0  0  0  0  0
  -23.9410  -30.3630   21.5660 C   0  0  0  0  0  3  0  0  0  0  0  0
  -25.6110  -28.9440   20.2340 C   0  0  0  0  0  0  0  0  0  0  0  0
  -26.4710  -30.8420   21.5940 C   0  0  0  0  0  2  0  0  0  0  0  0
  -26.7070  -29.4730   20.9270 C   0  0  0  0  0  0  0  0  0  0  0  0
  -27.9330  -28.7080   20.9910 C   0  0  0  0  0  3  0  0  0  0  0  0
  -26.9290  -26.9660   19.6580 C   0  0  0  0  0  3  0  0  0  0  0  0
  -25.7350  -27.7070   19.5920 C   0  0  0  0  0  3  0  0  0  0  0  0
  -24.3170  -29.7350   20.2000 C   0  0  0  0  0  2  0  0  0  0  0  0
  -25.1180  -31.0270   22.2130 N   0  0  0  0  0  0  0  0  0  0  0  0
  -23.7570  -32.0010   23.7560 O   0  0  0  0  0  0  0  0  0  0  0  0
  -23.2790  -29.2810   22.4590 C   0  0  0  0  0  0  0  0  0  0  0  0
  -21.9660  -29.0460   22.2680 N   0  0  0  0  0  0  0  0  0  0  0  0
  -23.9480  -28.6610   23.2880 O   0  0  0  0  0  0  0  0  0  0  0  0
  -21.4790  -29.6120   21.5880 H   0  0  0  0  0  0  0  0  0  0  0  0
  -18.6220  -27.7010   22.6220 C   0  0  0  0  0  0  0  0  0  0  0  0
  -21.1630  -28.0370   22.9640 C   0  0  0  0  0  3  0  0  0  0  0  0
  -21.3240  -26.6410   22.3150 C   0  0  0  0  0  2  0  0  0  0  0  0
  -20.2580  -26.3380   21.2570 C   0  0  0  0  0  2  0  0  0  0  0  0
  -18.8590  -26.3980   21.8770 C   0  0  0  0  0  2  0  0  0  0  0  0
  -19.7020  -28.4780   23.1170 C   0  0  0  0  0  0  0  0  0  0  0  0
  -19.4230  -29.6990   23.7720 C   0  0  0  0  0  3  0  0  0  0  0  0
  -18.0960  -30.1390   23.9380 C   0  0  0  0  0  3  0  0  0  0  0  0
  -17.0310  -29.3580   23.4600 C   0  0  0  0  0  3  0  0  0  0  0  0
  -17.2930  -28.1420   22.8050 C   0  0  0  0  0  3  0  0  0  0  0  0
  -26.0710  -32.5400   24.0400 C   0  0  0  0  0  3  0  0  0  0  0  0
  -26.4940  -31.8300   25.3840 C   0  0  1  0  0  0  0  0  0  0  0  0
  -25.3100  -31.5530   26.3410 C   0  0  0  0  0  1  0  0  0  0  0  0
  -27.1930  -30.4800   25.0990 C   0  0  0  0  0  1  0  0  0  0  0  0
  -27.5260  -32.7050   26.1350 C   0  0  0  0  0  1  0  0  0  0  0  0
  -25.6480  -33.9250   24.3000 N   0  0  0  0  0  0  0  0  0  0  0  0
  -25.9760  -34.9790   23.5380 C   0  0  0  0  0  0  0  0  0  0  0  0
  -26.7300  -34.8910   22.5650 O   0  0  0  0  0  0  0  0  0  0  0  0
  -24.9830  -34.0640   25.0450 H   0  0  0  0  0  0  0  0  0  0  0  0
  -24.1650  -36.6470   23.0170 C   0  0  0  0  0  1  0  0  0  0  0  0
  -25.3750  -36.3480   23.9160 C   0  0  0  0  0  3  0  0  0  0  0  0
  -27.3910  -37.3990   24.8450 C   0  0  0  0  0  1  0  0  0  0  0  0
  -26.3440  -37.4620   23.8290 N   0  0  0  0  0  0  0  0  0  0  0  0
  -25.8710  -38.3570   23.9160 H   0  0  0  0  0  0  0  0  0  0  0  0
  -30.1520  -19.3370   20.0470 C   0  0  0  0  0  2  0  0  0  0  0  0
  -30.7340  -17.9770   20.8840 C   0  0  0  0  0  2  0  0  0  0  0  0
  -31.1750  -15.2590   20.5240 C   0  0  0  0  0  0  0  0  0  0  0  0
  -31.0530  -12.9350   19.5400 C   0  0  0  0  0  2  0  0  0  0  0  0
  -30.1810  -12.9710   18.2680 C   0  0  0  0  0  2  0  0  0  0  0  0
  -28.6880  -12.7750   18.6190 C   0  0  0  0  0  2  0  0  0  0  0  0
  -28.2470  -13.6780   19.7990 C   0  0  0  0  0  3  0  0  0  0  0  0
  -29.2500  -13.6030   20.9650 C   0  0  0  0  0  2  0  0  0  0  0  0
  -30.5570  -14.0130   20.4330 N   0  0  0  0  0  0  0  0  0  0  0  0
  -32.3990  -15.2940   20.3450 O   0  0  0  0  0  0  0  0  0  0  0  0
  -30.4020  -16.4530   20.6080 N   0  0  0  0  0  0  0  0  0  0  0  0
  -29.4100  -16.2720   20.6240 H   0  0  0  0  0  0  0  0  0  0  0  0
  -25.8640  -14.3220   20.4610 C   0  0  0  0  0  0  0  0  0  0  0  0
  -24.7610  -13.5740   20.7810 C   0  0  0  0  0  0  0  0  0  0  0  0
  -25.1810  -12.2110   20.7380 C   0  0  0  0  0  0  0  0  0  0  0  0
  -26.8820  -13.4110   20.2360 N   0  0  0  0  0  0  0  0  0  0  0  0
  -26.4820  -12.1360   20.4720 N   0  0  0  0  0  0  0  0  0  0  0  0
  -24.4070  -10.9690   20.8700 C   0  0  0  0  0  0  0  0  0  0  0  0
  -24.7570   -9.9820   21.8180 C   0  0  0  0  0  3  0  0  0  0  0  0
  -23.9930   -8.8040   21.9420 C   0  0  0  0  0  3  0  0  0  0  0  0
  -22.8600   -8.6050   21.1180 C   0  0  0  0  0  0  0  0  0  0  0  0
  -22.5250   -9.5790   20.1650 C   0  0  0  0  0  3  0  0  0  0  0  0
  -23.2900  -10.7490   20.0370 C   0  0  0  0  0  3  0  0  0  0  0  0
  -22.0670   -7.4810   21.1530 O   0  0  0  0  0  0  0  0  0  0  0  0
  -21.8980   -6.7570   22.3040 C   0  0  0  0  0  0  0  0  0  0  0  0
  -21.3790   -7.3390   23.4830 C   0  0  0  0  0  3  0  0  0  0  0  0
  -21.1640   -6.5380   24.6230 C   0  0  0  0  0  3  0  0  0  0  0  0
  -21.4530   -5.1610   24.5830 C   0  0  0  0  0  0  0  0  0  0  0  0
  -21.9610   -4.5800   23.4080 C   0  0  0  0  0  3  0  0  0  0  0  0
  -22.1830   -5.3780   22.2710 C   0  0  0  0  0  0  0  0  0  0  0  0
  -22.6570   -4.8130   21.1370 F   0  0  0  0  0  0  0  0  0  0  0  0
  -21.2320   -4.3900   25.6740 F   0  0  0  0  0  0  0  0  0  0  0  0
  -23.3700  -14.0890   21.0070 C   0  0  0  0  0  0  0  0  0  0  0  0
  -22.5840  -13.4140   21.8400 N   0  0  0  0  0  0  0  0  0  0  0  0
  -22.9870  -15.1290   20.4730 O   0  0  0  0  0  0  0  0  0  0  0  0
  -22.9030  -12.5820   22.3090 H   0  0  0  0  0  0  0  0  0  0  0  0
  -21.6440  -13.7450   22.0160 H   0  0  0  0  0  0  0  0  0  0  0  0
  -26.0750  -15.6920   20.3140 N   0  0  0  0  0  0  0  0  0  0  0  0
  -25.3080  -16.3510   20.3650 H   0  0  0  0  0  0  0  0  0  0  0  0
  -26.9250  -16.0970   19.9470 H   0  0  0  0  0  0  0  0  0  0  0  0
  2  1  2  0
  3  6  1  0
  3  4  1  0
  4  5  1  0
  4  9  1  0
  5  1  1  0
  6  2  1  0
  7  6  1  0
  8  6  1  0
 10 11  1  0
 10  9  2  0
 12 23  2  0
 13 11  1  0
 13 18  1  0
 14 22  1  0
 14 24  1  0
 15 17  1  0
 16 22  1  0
 17 18  2  0
 17 16  1  0
 19 13  2  0
 20 19  1  0
 20 15  2  0
 21 15  1  0
 21 14  1  0
 22 12  1  0
 24 26  2  0
 25 24  1  0
 27 25  1  0
 28 37  2  0
 28 33  1  0
 29 25  1  0
 29 33  1  0
 30 29  1  0
 31 32  1  0
 31 30  1  0
 32 28  1  0
 33 34  2  0
 34 35  1  0
 36 35  2  0
 37 36  1  0
 38 12  1  0
 38 43  1  0
 38 39  1  0
 39 42  1  1
 39 40  1  0
 41 39  1  0
 43 46  1  0
 44 48  1  0
 44 43  1  0
 45 44  2  0
 48 47  1  0
 50 51  1  0
 50 48  1  0
 50 49  1  0
 52  5  1  0
 52 53  1  0
 54 62  1  0
 55 60  1  0
 56 57  1  0
 56 55  1  0
 58 57  1  0
 58 67  1  0
 58 59  1  0
 60 54  1  0
 60 59  1  0
 61 54  2  0
 62 63  1  0
 62 53  1  0
 64 65  2  0
 65 84  1  0
 66 65  1  0
 66 69  1  0
 67 64  1  0
 67 68  1  0
 68 66  2  0
 69 70  1  0
 70 71  2  0
 72 75  1  0
 72 71  1  0
 73 72  2  0
 74 73  1  0
 74 69  2  0
 75 76  1  0
 76 77  1  0
 77 78  2  0
 79 78  1  0
 79 83  1  0
 80 79  2  0
 81 76  2  0
 81 80  1  0
 82 81  1  0
 84 85  1  0
 85 88  1  0
 85 87  1  0
 86 84  2  0
 89 90  1  0
 89 64  1  0
 91 89  1  0
M  ISO  4  10 101  11 101  54 100  62 100
M  END
>  <TORSDO>  (99) 
F 20

>  <SCORE>  (99) 
-12.473

>  <name>  (99) 
98

>  <ligand_id>  (99) 
98

>  <original_smiles>  (99) 
[H]c1c([H])c([H])c2c(c1[H])C([H])([H])C([H])([H])C([H])([H])C2([H])N([H])C(=O)C1([H])N(C(=O)C([H])(N([H])C(=O)C([H])(N([H])C([H])([H])[H])C([H])([H])[H])C(C([H])([H])[H])(C([H])([H])[H])C([H])([H])[H])C([H])([H])c2c([H])c(OC([H])([H])C([H])([H])C3([H])N(C([H])([H])C([H])([H])N([H])C(=O)N4C([H])([H])C([H])([H])C([H])([H])C([H])(n5nc(-c6c([H])c([H])c(Oc7c([H])c([H])c(F)c([H])c7F)c([H])c6[H])c(C(=O)N([H])[H])c5N([H])[H])C4([H])[H])C([H])([H])C([H])([H])[N+]([H])([H])C3([H])[H])c([H])c([H])c2C1([H])[H]

>  <smiles>  (99) 
[H]c1c([H])c([H])c2c(c1[H])C([H])([H])C([H])([H])C([H])([H])C2([H])N([H])C(=O)C1([H])N(C(=O)C([H])(N([H])C(=O)C([H])(N([H])C([H])([H])[H])C([H])([H])[H])C(C([H])([H])[H])(C([H])([H])[H])C([H])([H])[H])C([H])([H])c2c([H])c(OC([H])([H])C([H])([H])C3([H])N(C([H])([H])C([H])([H])N([H])C(=O)N4C([H])([H])C([H])([H])C([H])([H])C([H])(n5nc(-c6c([H])c([H])c(Oc7c([H])c([H])c(F)c([H])c7F)c([H])c6[H])c(C(=O)N([H])[H])c5N([H])[H])C4([H])[H])C([H])([H])C([H])([H])[N+]([H])([H])C3([H])[H])c([H])c([H])c2C1([H])[H]

$$$$
