0:0:0
     RDKit          3D

 99108  0  0  1  0  0  0  0  0999 V2000
  -32.3640  -20.0310   19.1640 C   0  0  0  0  0  2  0  0  0  0  0  0
  -33.7000  -20.4720   21.3370 C   0  0  0  0  0  2  0  0  0  0  0  0
  -32.2980  -21.5480   18.9810 C   0  0  0  0  0  2  0  0  0  0  0  0
  -33.5470  -21.9700   21.0260 C   0  0  0  0  0  2  0  0  0  0  0  0
  -33.5220  -19.5750   20.0860 C   0  0  0  0  0  3  0  0  0  0  0  0
  -32.2650  -22.1830   20.3160 N   0  0  1  0  0  4  0  0  0  0  0  0
  -31.5790  -21.6810   20.8590 H   0  0  0  0  0  0  0  0  0  0  0  0
  -34.0670  -17.0970   19.9050 C   0  0  0  0  0  3  0  0  0  0  0  0
  -33.7280  -15.7520   20.1360 C   0  0  0  0  0  3  0  0  0  0  0  0
  -32.2040  -17.7930   21.3190 C   0  0  0  0  0  3  0  0  0  0  0  0
  -33.2840  -18.1240   20.4690 C   0  0  0  0  0  0  0  0  0  0  0  0
  -32.6040  -15.4290   20.9270 C   0  0  0  0  0  0  0  0  0  0  0  0
  -31.8630  -16.4520   21.5480 C   0  0  0  0  0  0  0  0  0  0  0  0
  -30.7950  -16.1540   22.3280 F   0  0  0  0  0  0  0  0  0  0  0  0
  -32.1510  -13.9890   21.0470 C   0  0  0  0  0  2  0  0  0  0  0  0
  -30.4140  -13.8210   19.2490 C   0  0  0  0  0  0  0  0  0  0  0  0
  -29.4420  -12.1740   17.7170 C   0  0  0  0  0  2  0  0  0  0  0  0
  -28.2540  -12.6340   16.8660 C   0  0  0  0  0  2  0  0  0  0  0  0
  -26.9400  -12.4560   17.6430 C   0  0  0  0  0  2  0  0  0  0  0  0
  -26.9960  -13.1000   19.0500 C   0  0  0  0  0  3  0  0  0  0  0  0
  -28.2630  -12.6640   19.8180 C   0  0  0  0  0  2  0  0  0  0  0  0
  -29.4470  -12.9210   18.9790 N   0  0  0  0  0  0  0  0  0  0  0  0
  -31.0800  -14.3930   18.3810 O   0  0  0  0  0  0  0  0  0  0  0  0
  -30.8060  -13.7400   20.5270 N   0  0  0  0  0  0  0  0  0  0  0  0
  -30.2010  -13.2000   21.1260 H   0  0  0  0  0  0  0  0  0  0  0  0
  -24.8430  -13.6810   20.3410 C   0  0  0  0  0  0  0  0  0  0  0  0
  -23.8630  -12.8950   20.8840 C   0  0  0  0  0  0  0  0  0  0  0  0
  -24.2610  -11.5440   20.6420 C   0  0  0  0  0  0  0  0  0  0  0  0
  -25.7800  -12.8080   19.8090 N   0  0  0  0  0  0  0  0  0  0  0  0
  -25.4440  -11.5140   20.0430 N   0  0  0  0  0  0  0  0  0  0  0  0
  -23.5570  -10.2800   20.8960 C   0  0  0  0  0  0  0  0  0  0  0  0
  -24.0570   -9.3280   21.8120 C   0  0  0  0  0  3  0  0  0  0  0  0
  -23.3520   -8.1290   22.0540 C   0  0  0  0  0  3  0  0  0  0  0  0
  -22.1360   -7.8720   21.3780 C   0  0  0  0  0  0  0  0  0  0  0  0
  -21.6550   -8.8120   20.4500 C   0  0  0  0  0  3  0  0  0  0  0  0
  -22.3600  -10.0030   20.2070 C   0  0  0  0  0  3  0  0  0  0  0  0
  -21.3970   -6.7230   21.5300 O   0  0  0  0  0  0  0  0  0  0  0  0
  -21.3250   -6.0680   22.7330 C   0  0  0  0  0  0  0  0  0  0  0  0
  -20.8440   -6.7020   23.8990 C   0  0  0  0  0  3  0  0  0  0  0  0
  -20.7200   -5.9710   25.0980 C   0  0  0  0  0  3  0  0  0  0  0  0
  -21.0660   -4.6080   25.1320 C   0  0  0  0  0  0  0  0  0  0  0  0
  -21.5410   -3.9730   23.9700 C   0  0  0  0  0  3  0  0  0  0  0  0
  -21.6670   -4.7010   22.7730 C   0  0  0  0  0  0  0  0  0  0  0  0
  -22.1040   -4.0790   21.6520 F   0  0  0  0  0  0  0  0  0  0  0  0
  -20.9390   -3.9030   26.2800 F   0  0  0  0  0  0  0  0  0  0  0  0
  -22.5820  -13.3660   21.5110 C   0  0  0  0  0  0  0  0  0  0  0  0
  -22.0830  -12.6390   22.5040 N   0  0  0  0  0  0  0  0  0  0  0  0
  -22.0420  -14.4120   21.1540 O   0  0  0  0  0  0  0  0  0  0  0  0
  -22.5360  -11.7900   22.8070 H   0  0  0  0  0  0  0  0  0  0  0  0
  -21.2340  -12.9320   22.9670 H   0  0  0  0  0  0  0  0  0  0  0  0
  -25.0100  -15.0590   20.2360 N   0  0  0  0  0  0  0  0  0  0  0  0
  -24.3180  -15.7210   20.5710 H   0  0  0  0  0  0  0  0  0  0  0  0
  -25.7960  -15.5050   19.7770 H   0  0  0  0  0  0  0  0  0  0  0  0
  -31.7700  -23.5740   20.3180 C   0  0  0  0  0  2  0  0  0  0  0  0
  -30.2560  -23.6150   20.0090 C   0  0  0  0  0  2  0  0  0  0  0  0
  -29.6780  -25.0120   20.2240 C   0  0  0  0  0  3  0  0  0  0  0  0
  -29.8000  -25.3000   21.5240 F   0  0  0  0  0  0  0  0  0  0  0  0
  -28.2000  -25.1850   19.8370 C   0  0  0  0  0  2  0  0  0  0  0  0
  -28.0440  -26.5730   20.0240 O   0  0  0  0  0  0  0  0  0  0  0  0
  -24.3730  -31.7320   23.0910 C   0  0  0  0  0  0  0  0  0  0  0  0
  -26.8180  -27.1740   20.0680 C   0  0  0  0  0  0  0  0  0  0  0  0
  -23.0740  -30.3080   21.5340 C   0  0  0  0  0  3  0  0  0  0  0  0
  -24.4400  -28.6780   20.1240 C   0  0  0  0  0  0  0  0  0  0  0  0
  -25.5900  -30.6080   21.2360 C   0  0  0  0  0  2  0  0  0  0  0  0
  -25.6190  -29.2160   20.6500 C   0  0  0  0  0  0  0  0  0  0  0  0
  -26.8060  -28.4670   20.6200 C   0  0  0  0  0  3  0  0  0  0  0  0
  -25.6250  -26.6190   19.5580 C   0  0  0  0  0  3  0  0  0  0  0  0
  -24.4320  -27.3760   19.5820 C   0  0  0  0  0  3  0  0  0  0  0  0
  -23.2170  -29.5650   20.1750 C   0  0  0  0  0  2  0  0  0  0  0  0
  -24.3660  -30.8980   22.0120 N   0  0  0  0  0  0  0  0  0  0  0  0
  -23.3190  -32.0500   23.6580 O   0  0  0  0  0  0  0  0  0  0  0  0
  -22.4330  -29.3390   22.5510 C   0  0  0  0  0  0  0  0  0  0  0  0
  -21.1140  -29.1270   22.4190 N   0  0  0  0  0  0  0  0  0  0  0  0
  -23.1170  -28.7750   23.4090 O   0  0  0  0  0  0  0  0  0  0  0  0
  -20.6240  -29.6330   21.6940 H   0  0  0  0  0  0  0  0  0  0  0  0
  -17.7630  -27.8760   22.9030 C   0  0  0  0  0  0  0  0  0  0  0  0
  -20.3030  -28.2260   23.2340 C   0  0  0  0  0  3  0  0  0  0  0  0
  -20.4630  -26.7610   22.7700 C   0  0  0  0  0  2  0  0  0  0  0  0
  -19.4040  -26.3320   21.7490 C   0  0  0  0  0  2  0  0  0  0  0  0
  -17.9970  -26.4860   22.3370 C   0  0  0  0  0  2  0  0  0  0  0  0
  -18.8470  -28.6990   23.3090 C   0  0  0  0  0  0  0  0  0  0  0  0
  -18.5770  -29.9970   23.7940 C   0  0  0  0  0  3  0  0  0  0  0  0
  -17.2540  -30.4740   23.8800 C   0  0  0  0  0  3  0  0  0  0  0  0
  -16.1850  -29.6470   23.4930 C   0  0  0  0  0  3  0  0  0  0  0  0
  -16.4390  -28.3510   23.0110 C   0  0  0  0  0  3  0  0  0  0  0  0
  -25.6980  -32.3440   23.6480 C   0  0  0  0  0  3  0  0  0  0  0  0
  -25.4110  -33.7260   24.0510 N   0  0  0  0  0  0  0  0  0  0  0  0
  -25.7230  -34.8090   23.3260 C   0  0  0  0  0  0  0  0  0  0  0  0
  -26.3570  -34.7470   22.2680 O   0  0  0  0  0  0  0  0  0  0  0  0
  -24.8450  -33.8480   24.8770 H   0  0  0  0  0  0  0  0  0  0  0  0
  -24.0010  -36.6260   23.0970 C   0  0  0  0  0  1  0  0  0  0  0  0
  -25.2590  -36.1780   23.8580 C   0  0  0  0  0  3  0  0  0  0  0  0
  -27.4190  -37.0080   24.6760 C   0  0  0  0  0  1  0  0  0  0  0  0
  -26.2970  -37.2270   23.7670 N   0  0  0  0  0  0  0  0  0  0  0  0
  -25.9030  -38.1430   23.9650 H   0  0  0  0  0  0  0  0  0  0  0  0
  -26.3050  -31.5250   24.8530 C   0  0  1  0  0  0  0  0  0  0  0  0
  -25.2780  -31.2020   25.9640 C   0  0  0  0  0  1  0  0  0  0  0  0
  -26.9000  -30.1860   24.3570 C   0  0  0  0  0  1  0  0  0  0  0  0
  -27.4700  -32.3170   25.4940 C   0  0  0  0  0  1  0  0  0  0  0  0
  1  5  1  0
  3  1  1  0
  3  6  1  0
  4  2  1  0
  5 11  1  0
  5  2  1  0
  6 54  1  0
  6  7  1  1
  6  4  1  0
  8  9  2  0
  8 11  1  0
  9 12  1  0
 10 13  1  0
 11 10  2  0
 12 15  1  0
 12 13  2  0
 13 14  1  0
 16 24  1  0
 17 22  1  0
 18 19  1  0
 18 17  1  0
 20 19  1  0
 20 29  1  0
 20 21  1  0
 22 16  1  0
 22 21  1  0
 23 16  2  0
 24 15  1  0
 24 25  1  0
 26 27  2  0
 27 46  1  0
 28 27  1  0
 28 31  1  0
 29 30  1  0
 29 26  1  0
 30 28  2  0
 31 32  1  0
 32 33  2  0
 34 37  1  0
 34 33  1  0
 35 34  2  0
 36 35  1  0
 36 31  2  0
 37 38  1  0
 38 43  2  0
 38 39  1  0
 39 40  2  0
 40 41  1  0
 41 45  1  0
 42 41  2  0
 43 42  1  0
 44 43  1  0
 46 47  1  0
 47 49  1  0
 47 50  1  0
 48 46  2  0
 51 26  1  0
 51 52  1  0
 53 51  1  0
 55 56  1  0
 55 54  1  0
 56 57  1  0
 58 59  1  0
 58 56  1  0
 59 61  1  0
 60 71  2  0
 61 66  1  0
 62 70  1  0
 62 72  1  0
 63 69  1  0
 63 65  1  0
 64 70  1  0
 65 64  1  0
 66 65  2  0
 67 68  1  0
 67 61  2  0
 68 63  2  0
 69 62  1  0
 70 60  1  0
 72 74  2  0
 73 72  1  0
 75 73  1  0
 76 85  2  0
 76 81  1  0
 77 73  1  0
 77 81  1  0
 78 77  1  0
 79 80  1  0
 79 78  1  0
 80 76  1  0
 81 82  2  0
 82 83  1  0
 84 83  2  0
 85 84  1  0
 86 60  1  0
 86 87  1  0
 86 96  1  0
 87 90  1  0
 88 92  1  0
 88 87  1  0
 89 88  2  0
 92 91  1  0
 94 92  1  0
 94 95  1  0
 94 93  1  0
 96 99  1  1
 96 97  1  0
 98 96  1  0
M  ISO  4  16 100  24 100  58 101  59 101
M  END
>  <TORSDO>  (1) 
F 22

>  <SCORE>  (1) 
-7.235

>  <name>  (1) 
0

>  <ligand_id>  (1) 
0

>  <original_smiles>  (1) 
[H]c1c([H])c([H])c2c(c1[H])C([H])([H])C([H])([H])C([H])([H])C2([H])N([H])C(=O)C1([H])N(C(=O)C([H])(N([H])C(=O)C([H])(N([H])C([H])([H])[H])C([H])([H])[H])C(C([H])([H])[H])(C([H])([H])[H])C([H])([H])[H])C([H])([H])c2c([H])c(OC([H])([H])C([H])(F)C([H])([H])C([H])([H])[N+]3([H])C([H])([H])C([H])([H])C([H])(c4c([H])c([H])c(C([H])([H])N([H])C(=O)N5C([H])([H])C([H])([H])C([H])([H])C([H])(n6nc(-c7c([H])c([H])c(Oc8c([H])c([H])c(F)c([H])c8F)c([H])c7[H])c(C(=O)N([H])[H])c6N([H])[H])C5([H])[H])c(F)c4[H])C([H])([H])C3([H])[H])c([H])c([H])c2C1([H])[H]

>  <smiles>  (1) 
[H]c1c([H])c([H])c2c(c1[H])C([H])([H])C([H])([H])C([H])([H])C2([H])N([H])C(=O)C1([H])N(C(=O)C([H])(N([H])C(=O)C([H])(N([H])C([H])([H])[H])C([H])([H])[H])C(C([H])([H])[H])(C([H])([H])[H])C([H])([H])[H])C([H])([H])c2c([H])c(OC([H])([H])C([H])(F)C([H])([H])C([H])([H])[N+]3([H])C([H])([H])C([H])([H])C([H])(c4c([H])c([H])c(C([H])([H])N([H])C(=O)N5C([H])([H])C([H])([H])C([H])([H])C([H])(n6nc(-c7c([H])c([H])c(Oc8c([H])c([H])c(F)c([H])c8F)c([H])c7[H])c(C(=O)N([H])[H])c6N([H])[H])C5([H])[H])c(F)c4[H])C([H])([H])C3([H])[H])c([H])c([H])c2C1([H])[H]

$$$$
1:0:0
     RDKit          3D

 95103  0  0  1  0  0  0  0  0999 V2000
  -30.7200  -22.1060   21.4480 C   0  0  0  0  0  2  0  0  0  0  0  0
  -30.7910  -18.3370   20.4410 C   0  0  0  0  0  3  0  0  0  0  0  0
  -30.8000  -19.7530   20.3410 C   0  0  0  0  0  3  0  0  0  0  0  0
  -30.6270  -18.5330   22.8530 C   0  0  0  0  0  3  0  0  0  0  0  0
  -30.7160  -17.7100   21.7090 C   0  0  0  0  0  0  0  0  0  0  0  0
  -30.6990  -20.5690   21.4990 C   0  0  0  0  0  0  0  0  0  0  0  0
  -30.6090  -19.9340   22.7580 C   0  0  0  0  0  0  0  0  0  0  0  0
  -30.5210  -20.6620   23.8950 F   0  0  0  0  0  0  0  0  0  0  0  0
  -32.2360  -15.7370   22.2730 C   0  0  0  0  0  1  0  0  0  0  0  0
  -30.8030  -16.1930   21.9450 C   0  0  0  0  0  0  0  0  0  0  0  0
  -30.4980  -14.5430   20.0110 C   0  0  0  0  0  0  0  0  0  0  0  0
  -30.0060  -12.5430   18.6310 C   0  0  0  0  0  2  0  0  0  0  0  0
  -28.9520  -12.8640   17.5530 C   0  0  0  0  0  2  0  0  0  0  0  0
  -27.5210  -12.6910   18.1060 C   0  0  0  0  0  2  0  0  0  0  0  0
  -27.3210  -13.4020   19.4750 C   0  0  0  0  0  3  0  0  0  0  0  0
  -28.4790  -13.0730   20.4410 C   0  0  0  0  0  2  0  0  0  0  0  0
  -29.7510  -13.4270   19.7770 N   0  0  0  0  0  0  0  0  0  0  0  0
  -31.5020  -14.8260   19.3540 O   0  0  0  0  0  0  0  0  0  0  0  0
  -30.0710  -15.2970   21.0390 N   0  0  0  0  0  4  0  0  0  0  0  0
  -29.1690  -15.0090   21.3930 H   0  0  0  0  0  0  0  0  0  0  0  0
  -24.9860  -13.9380   20.4160 C   0  0  0  0  0  0  0  0  0  0  0  0
  -23.9700  -13.1350   20.8610 C   0  0  0  0  0  0  0  0  0  0  0  0
  -24.4500  -11.7950   20.7530 C   0  0  0  0  0  0  0  0  0  0  0  0
  -26.0220  -13.0840   20.0670 N   0  0  0  0  0  0  0  0  0  0  0  0
  -25.7090  -11.7890   20.3270 N   0  0  0  0  0  0  0  0  0  0  0  0
  -23.7700  -10.5110   20.9740 C   0  0  0  0  0  0  0  0  0  0  0  0
  -24.2660   -9.5630   21.8950 C   0  0  0  0  0  3  0  0  0  0  0  0
  -23.5830   -8.3460   22.1090 C   0  0  0  0  0  3  0  0  0  0  0  0
  -22.3900   -8.0660   21.4020 C   0  0  0  0  0  0  0  0  0  0  0  0
  -21.9130   -9.0030   20.4690 C   0  0  0  0  0  3  0  0  0  0  0  0
  -22.5960  -10.2140   20.2540 C   0  0  0  0  0  3  0  0  0  0  0  0
  -21.6770   -6.8990   21.5230 O   0  0  0  0  0  0  0  0  0  0  0  0
  -21.6540   -6.1830   22.6930 C   0  0  0  0  0  0  0  0  0  0  0  0
  -21.2160   -6.7550   23.9100 C   0  0  0  0  0  3  0  0  0  0  0  0
  -21.1480   -5.9640   25.0730 C   0  0  0  0  0  3  0  0  0  0  0  0
  -21.5060   -4.6050   25.0240 C   0  0  0  0  0  0  0  0  0  0  0  0
  -21.9330   -4.0310   23.8120 C   0  0  0  0  0  3  0  0  0  0  0  0
  -22.0040   -4.8190   22.6510 C   0  0  0  0  0  0  0  0  0  0  0  0
  -22.3980   -4.2590   21.4820 F   0  0  0  0  0  0  0  0  0  0  0  0
  -21.4300   -3.8420   26.1380 F   0  0  0  0  0  0  0  0  0  0  0  0
  -22.5950  -13.5730   21.2690 C   0  0  0  0  0  0  0  0  0  0  0  0
  -21.9700  -12.8580   22.1990 N   0  0  0  0  0  0  0  0  0  0  0  0
  -22.0820  -14.5850   20.7940 O   0  0  0  0  0  0  0  0  0  0  0  0
  -22.3970  -12.0400   22.6070 H   0  0  0  0  0  0  0  0  0  0  0  0
  -21.0460  -13.1330   22.5040 H   0  0  0  0  0  0  0  0  0  0  0  0
  -25.1080  -15.3150   20.2590 N   0  0  0  0  0  0  0  0  0  0  0  0
  -24.3480  -15.9540   20.4600 H   0  0  0  0  0  0  0  0  0  0  0  0
  -25.9320  -15.7790   19.8980 H   0  0  0  0  0  0  0  0  0  0  0  0
  -29.6830  -22.6860   20.5640 N   0  0  0  0  0  4  0  0  0  0  0  0
  -28.9840  -21.9750   20.4230 H   0  0  0  0  0  0  0  0  0  0  0  0
  -30.1030  -22.8590   19.6660 H   0  0  0  0  0  0  0  0  0  0  0  0
  -28.9590  -23.9140   21.0120 C   0  0  0  0  0  2  0  0  0  0  0  0
  -29.8270  -25.1220   21.4600 C   0  0  0  0  0  2  0  0  0  0  0  0
  -29.0250  -26.4470   21.5390 C   0  0  0  0  0  2  0  0  0  0  0  0
  -28.5270  -26.7850   20.2380 O   0  0  0  0  0  0  0  0  0  0  0  0
  -24.6160  -31.9250   23.2320 C   0  0  0  0  0  0  0  0  0  0  0  0
  -27.3760  -27.5360   20.2260 C   0  0  0  0  0  0  0  0  0  0  0  0
  -23.4440  -30.4980   21.5760 C   0  0  0  0  0  3  0  0  0  0  0  0
  -24.9450  -28.9710   20.1800 C   0  0  0  0  0  0  0  0  0  0  0  0
  -25.9600  -30.9040   21.4070 C   0  0  0  0  0  2  0  0  0  0  0  0
  -26.0800  -29.5280   20.7890 C   0  0  0  0  0  0  0  0  0  0  0  0
  -27.2940  -28.8130   20.8240 C   0  0  0  0  0  3  0  0  0  0  0  0
  -26.2410  -27.0030   19.5830 C   0  0  0  0  0  3  0  0  0  0  0  0
  -25.0180  -27.7040   19.5750 C   0  0  0  0  0  3  0  0  0  0  0  0
  -23.6830  -29.8040   20.2050 C   0  0  0  0  0  2  0  0  0  0  0  0
  -24.6890  -31.1260   22.1290 N   0  0  0  0  0  0  0  0  0  0  0  0
  -23.5300  -32.1850   23.7650 O   0  0  0  0  0  0  0  0  0  0  0  0
  -22.7950  -29.4770   22.5380 C   0  0  0  0  0  0  0  0  0  0  0  0
  -21.4740  -29.2870   22.4050 N   0  0  0  0  0  0  0  0  0  0  0  0
  -23.4790  -28.8580   23.3580 O   0  0  0  0  0  0  0  0  0  0  0  0
  -20.9830  -29.8390   21.7150 H   0  0  0  0  0  0  0  0  0  0  0  0
  -18.1010  -28.0920   22.8950 C   0  0  0  0  0  0  0  0  0  0  0  0
  -20.6580  -28.3450   23.1700 C   0  0  0  0  0  3  0  0  0  0  0  0
  -20.7610  -26.9180   22.5810 C   0  0  0  0  0  2  0  0  0  0  0  0
  -19.6580  -26.6050   21.5640 C   0  0  0  0  0  2  0  0  0  0  0  0
  -18.2770  -26.7470   22.2080 C   0  0  0  0  0  2  0  0  0  0  0  0
  -19.2210  -28.8490   23.3320 C   0  0  0  0  0  0  0  0  0  0  0  0
  -19.0040  -30.1090   23.9320 C   0  0  0  0  0  3  0  0  0  0  0  0
  -17.7000  -30.6100   24.1020 C   0  0  0  0  0  3  0  0  0  0  0  0
  -16.5930  -29.8490   23.6830 C   0  0  0  0  0  3  0  0  0  0  0  0
  -16.7960  -28.5900   23.0870 C   0  0  0  0  0  3  0  0  0  0  0  0
  -25.8910  -32.5690   23.8630 C   0  0  0  0  0  3  0  0  0  0  0  0
  -25.5690  -33.9650   24.1800 N   0  0  0  0  0  0  0  0  0  0  0  0
  -25.9120  -35.0150   23.4220 C   0  0  0  0  0  0  0  0  0  0  0  0
  -26.6030  -34.9100   22.4040 O   0  0  0  0  0  0  0  0  0  0  0  0
  -24.9550  -34.1190   24.9660 H   0  0  0  0  0  0  0  0  0  0  0  0
  -24.1830  -36.7980   23.0200 C   0  0  0  0  0  1  0  0  0  0  0  0
  -25.4060  -36.4010   23.8630 C   0  0  0  0  0  3  0  0  0  0  0  0
  -27.5150  -37.3030   24.7420 C   0  0  0  0  0  1  0  0  0  0  0  0
  -26.4350  -37.4600   23.7700 N   0  0  0  0  0  0  0  0  0  0  0  0
  -26.0220  -38.3780   23.9020 H   0  0  0  0  0  0  0  0  0  0  0  0
  -26.4050  -31.8070   25.1480 C   0  0  1  0  0  0  0  0  0  0  0  0
  -25.3040  -31.5600   26.2060 C   0  0  0  0  0  1  0  0  0  0  0  0
  -27.0100  -30.4340   24.7660 C   0  0  0  0  0  1  0  0  0  0  0  0
  -27.5370  -32.6180   25.8220 C   0  0  0  0  0  1  0  0  0  0  0  0
  1  6  1  0
  2  5  1  0
  3  2  2  0
  3  6  1  0
  5 10  1  0
  5  4  2  0
  6  7  2  0
  7  4  1  0
  7  8  1  0
 10  9  1  0
 11 19  1  0
 12 17  1  0
 13 14  1  0
 13 12  1  0
 15 14  1  0
 15 24  1  0
 15 16  1  0
 17 11  1  0
 17 16  1  0
 18 11  2  0
 19 20  1  0
 19 10  2  3
 21 22  2  0
 22 41  1  0
 23 22  1  0
 23 26  1  0
 24 25  1  0
 24 21  1  0
 25 23  2  0
 26 27  1  0
 27 28  2  0
 29 32  1  0
 29 28  1  0
 30 29  2  0
 31 30  1  0
 31 26  2  0
 32 33  1  0
 33 34  1  0
 34 35  2  0
 36 35  1  0
 36 40  1  0
 37 36  2  0
 38 33  2  0
 38 37  1  0
 39 38  1  0
 41 42  1  0
 42 45  1  0
 42 44  1  0
 43 41  2  0
 46 21  1  0
 46 47  1  0
 48 46  1  0
 49 52  1  0
 49  1  1  0
 50 49  1  0
 51 49  1  0
 52 53  1  0
 53 54  1  0
 55 54  1  0
 56 67  2  0
 57 55  1  0
 57 62  1  0
 58 66  1  0
 58 68  1  0
 59 65  1  0
 59 61  1  0
 60 66  1  0
 61 62  2  0
 61 60  1  0
 63 57  2  0
 64 63  1  0
 64 59  2  0
 65 58  1  0
 66 56  1  0
 68 70  2  0
 69 68  1  0
 71 69  1  0
 72 81  2  0
 72 77  1  0
 73 69  1  0
 73 77  1  0
 74 73  1  0
 75 76  1  0
 75 74  1  0
 76 72  1  0
 77 78  2  0
 78 79  1  0
 80 79  2  0
 81 80  1  0
 82 56  1  0
 82 83  1  0
 82 92  1  0
 83 86  1  0
 84 88  1  0
 84 83  1  0
 85 84  2  0
 88 87  1  0
 90 88  1  0
 90 91  1  0
 90 89  1  0
 92 95  1  1
 92 93  1  0
 94 92  1  0
M  ISO  4  11 100  19 100  54 101  55 101
M  END
>  <TORSDO>  (2) 
F 22

>  <SCORE>  (2) 
-10.264

>  <name>  (2) 
1

>  <ligand_id>  (2) 
1

>  <original_smiles>  (2) 
[H]c1c([H])c([H])c2c(c1[H])C([H])([H])C([H])([H])C([H])([H])C2([H])N([H])C(=O)C1([H])N(C(=O)C([H])(N([H])C(=O)C([H])(N([H])C([H])([H])[H])C([H])([H])[H])C(C([H])([H])[H])(C([H])([H])[H])C([H])([H])[H])C([H])([H])c2c([H])c(OC([H])([H])C([H])([H])C([H])([H])[N+]([H])([H])C([H])([H])c3c([H])c([H])c(C([H])(N([H])C(=O)N4C([H])([H])C([H])([H])C([H])([H])C([H])(n5nc(-c6c([H])c([H])c(Oc7c([H])c([H])c(F)c([H])c7F)c([H])c6[H])c(C(=O)N([H])[H])c5N([H])[H])C4([H])[H])C([H])([H])[H])c([H])c3F)c([H])c([H])c2C1([H])[H]

>  <smiles>  (2) 
[H]c1c([H])c([H])c2c(c1[H])C([H])([H])C([H])([H])C([H])([H])C2([H])N([H])C(=O)C1([H])N(C(=O)C([H])(N([H])C(=O)C([H])(N([H])C([H])([H])[H])C([H])([H])[H])C(C([H])([H])[H])(C([H])([H])[H])C([H])([H])[H])C([H])([H])c2c([H])c(OC([H])([H])C([H])([H])C([H])([H])[N+]([H])([H])C([H])([H])c3c([H])c([H])c(C([H])(N([H])C(=O)N4C([H])([H])C([H])([H])C([H])([H])C([H])(n5nc(-c6c([H])c([H])c(Oc7c([H])c([H])c(F)c([H])c7F)c([H])c6[H])c(C(=O)N([H])[H])c5N([H])[H])C4([H])[H])C([H])([H])[H])c([H])c3F)c([H])c([H])c2C1([H])[H]

$$$$
2:0:0
     RDKit          3D

 97106  0  0  1  0  0  0  0  0999 V2000
  -28.7990  -20.8750   19.7120 C   0  0  0  0  0  2  0  0  0  0  0  0
  -26.6960  -20.8290   18.3700 C   0  0  0  0  0  2  0  0  0  0  0  0
  -28.6260  -22.3770   19.9380 C   0  0  0  0  0  2  0  0  0  0  0  0
  -26.5040  -22.3200   18.6780 C   0  0  0  0  0  2  0  0  0  0  0  0
  -28.1840  -20.4510   18.3580 C   0  0  0  0  0  3  0  0  0  0  0  0
  -27.1900  -22.7560   19.9280 N   0  0  2  0  0  4  0  0  0  0  0  0
  -26.7330  -22.3030   20.7060 H   0  0  0  0  0  0  0  0  0  0  0  0
  -28.3630  -18.9670   17.9710 C   0  0  0  0  0  2  0  0  0  0  0  0
  -31.1870  -16.6670   18.8090 C   0  0  0  0  0  2  0  0  0  0  0  0
  -30.3420  -17.4550   17.8050 C   0  0  0  0  0  2  0  0  0  0  0  0
  -29.2020  -17.5830   19.8470 C   0  0  0  0  0  2  0  0  0  0  0  0
  -30.4830  -16.8320   20.1850 C   0  0  0  0  0  3  0  0  0  0  0  0
  -29.5330  -18.3580   18.6380 N   0  0  2  0  0  4  0  0  0  0  0  0
  -30.1510  -19.1070   18.9100 H   0  0  0  0  0  0  0  0  0  0  0  0
  -30.9550  -14.5260   20.8920 C   0  0  0  0  0  0  0  0  0  0  0  0
  -30.6700  -12.4040   19.7380 C   0  0  0  0  0  2  0  0  0  0  0  0
  -29.8010  -12.6610   18.4880 C   0  0  0  0  0  2  0  0  0  0  0  0
  -28.3040  -12.5440   18.8330 C   0  0  0  0  0  2  0  0  0  0  0  0
  -27.9020  -13.3640   20.0890 C   0  0  0  0  0  3  0  0  0  0  0  0
  -28.8970  -13.1250   21.2520 C   0  0  0  0  0  2  0  0  0  0  0  0
  -30.2650  -13.3710   20.7610 N   0  0  0  0  0  0  0  0  0  0  0  0
  -32.1520  -14.6610   20.6330 O   0  0  0  0  0  0  0  0  0  0  0  0
  -30.1620  -15.5930   20.8930 N   0  0  0  0  0  0  0  0  0  0  0  0
  -29.1930  -15.4160   21.1140 H   0  0  0  0  0  0  0  0  0  0  0  0
  -25.4590  -13.9650   20.6470 C   0  0  0  0  0  0  0  0  0  0  0  0
  -24.3760  -13.1880   20.9600 C   0  0  0  0  0  0  0  0  0  0  0  0
  -24.8480  -11.8400   20.9650 C   0  0  0  0  0  0  0  0  0  0  0  0
  -26.5230  -13.0900   20.4880 N   0  0  0  0  0  0  0  0  0  0  0  0
  -26.1540  -11.8080   20.7370 N   0  0  0  0  0  0  0  0  0  0  0  0
  -24.1210  -10.5740   21.1180 C   0  0  0  0  0  0  0  0  0  0  0  0
  -24.4980   -9.6180   22.0860 C   0  0  0  0  0  3  0  0  0  0  0  0
  -23.7730   -8.4160   22.2260 C   0  0  0  0  0  3  0  0  0  0  0  0
  -22.6560   -8.1610   21.3950 C   0  0  0  0  0  0  0  0  0  0  0  0
  -22.2990   -9.1030   20.4160 C   0  0  0  0  0  3  0  0  0  0  0  0
  -23.0250  -10.2990   20.2750 C   0  0  0  0  0  3  0  0  0  0  0  0
  -21.9090   -7.0080   21.4430 O   0  0  0  0  0  0  0  0  0  0  0  0
  -21.7770   -6.2830   22.5990 C   0  0  0  0  0  0  0  0  0  0  0  0
  -21.2190   -6.8420   23.7700 C   0  0  0  0  0  3  0  0  0  0  0  0
  -21.0360   -6.0410   24.9140 C   0  0  0  0  0  3  0  0  0  0  0  0
  -21.4030   -4.6820   24.8890 C   0  0  0  0  0  0  0  0  0  0  0  0
  -21.9550   -4.1230   23.7230 C   0  0  0  0  0  3  0  0  0  0  0  0
  -22.1380   -4.9220   22.5810 C   0  0  0  0  0  0  0  0  0  0  0  0
  -22.6510   -4.3720   21.4530 F   0  0  0  0  0  0  0  0  0  0  0  0
  -21.2210   -3.9090   25.9860 F   0  0  0  0  0  0  0  0  0  0  0  0
  -22.9620  -13.6580   21.1430 C   0  0  0  0  0  0  0  0  0  0  0  0
  -22.1850  -12.9610   21.9670 N   0  0  0  0  0  0  0  0  0  0  0  0
  -22.5490  -14.6770   20.5930 O   0  0  0  0  0  0  0  0  0  0  0  0
  -22.5280  -12.1340   22.4340 H   0  0  0  0  0  0  0  0  0  0  0  0
  -21.2340  -13.2580   22.1310 H   0  0  0  0  0  0  0  0  0  0  0  0
  -25.6210  -15.3350   20.4640 N   0  0  0  0  0  0  0  0  0  0  0  0
  -24.8280  -15.9670   20.4980 H   0  0  0  0  0  0  0  0  0  0  0  0
  -26.4600  -15.7710   20.1160 H   0  0  0  0  0  0  0  0  0  0  0  0
  -27.0110  -24.2100   20.0870 C   0  0  0  0  0  2  0  0  0  0  0  0
  -27.5390  -24.8710   21.3830 C   0  0  0  0  0  3  0  0  0  0  0  0
  -26.4870  -25.1840   22.1430 F   0  0  0  0  0  0  0  0  0  0  0  0
  -28.3780  -26.1500   21.1210 C   0  0  0  0  0  2  0  0  0  0  0  0
  -28.0200  -26.8470   19.9230 O   0  0  0  0  0  0  0  0  0  0  0  0
  -24.4860  -31.9870   23.3070 C   0  0  0  0  0  0  0  0  0  0  0  0
  -26.8820  -27.6030   20.0110 C   0  0  0  0  0  0  0  0  0  0  0  0
  -23.1700  -30.6550   21.6890 C   0  0  0  0  0  3  0  0  0  0  0  0
  -24.5230  -29.1280   20.1660 C   0  0  0  0  0  0  0  0  0  0  0  0
  -25.6910  -30.9640   21.3930 C   0  0  0  0  0  2  0  0  0  0  0  0
  -25.7120  -29.6070   20.7330 C   0  0  0  0  0  0  0  0  0  0  0  0
  -26.8920  -28.8400   20.6790 C   0  0  0  0  0  3  0  0  0  0  0  0
  -25.6970  -27.1660   19.3790 C   0  0  0  0  0  3  0  0  0  0  0  0
  -24.5060  -27.8970   19.4940 C   0  0  0  0  0  3  0  0  0  0  0  0
  -23.3030  -30.0090   20.2850 C   0  0  0  0  0  2  0  0  0  0  0  0
  -24.4680  -31.2170   22.1850 N   0  0  0  0  0  0  0  0  0  0  0  0
  -23.4390  -32.2700   23.9050 O   0  0  0  0  0  0  0  0  0  0  0  0
  -22.5430  -29.6210   22.6510 C   0  0  0  0  0  0  0  0  0  0  0  0
  -21.2220  -29.4150   22.5240 N   0  0  0  0  0  0  0  0  0  0  0  0
  -23.2370  -29.0070   23.4660 O   0  0  0  0  0  0  0  0  0  0  0  0
  -20.7240  -29.9630   21.8380 H   0  0  0  0  0  0  0  0  0  0  0  0
  -17.8760  -28.1400   22.9840 C   0  0  0  0  0  0  0  0  0  0  0  0
  -20.4210  -28.4690   23.2980 C   0  0  0  0  0  3  0  0  0  0  0  0
  -20.5710  -27.0300   22.7510 C   0  0  0  0  0  2  0  0  0  0  0  0
  -19.4970  -26.6590   21.7230 C   0  0  0  0  0  2  0  0  0  0  0  0
  -18.1010  -26.7820   22.3390 C   0  0  0  0  0  2  0  0  0  0  0  0
  -18.9670  -28.9370   23.4190 C   0  0  0  0  0  0  0  0  0  0  0  0
  -18.7050  -30.2080   23.9780 C   0  0  0  0  0  3  0  0  0  0  0  0
  -17.3850  -30.6780   24.1080 C   0  0  0  0  0  3  0  0  0  0  0  0
  -16.3080  -29.8770   23.6910 C   0  0  0  0  0  3  0  0  0  0  0  0
  -16.5560  -28.6090   23.1340 C   0  0  0  0  0  3  0  0  0  0  0  0
  -25.8200  -32.5660   23.8770 C   0  0  0  0  0  3  0  0  0  0  0  0
  -25.5760  -33.9720   24.2210 N   0  0  0  0  0  0  0  0  0  0  0  0
  -25.9130  -35.0120   23.4470 C   0  0  0  0  0  0  0  0  0  0  0  0
  -26.5370  -34.8870   22.3890 O   0  0  0  0  0  0  0  0  0  0  0  0
  -25.0240  -34.1460   25.0470 H   0  0  0  0  0  0  0  0  0  0  0  0
  -24.2450  -36.8660   23.1390 C   0  0  0  0  0  1  0  0  0  0  0  0
  -25.4890  -36.4150   23.9190 C   0  0  0  0  0  3  0  0  0  0  0  0
  -27.6730  -37.2170   24.7030 C   0  0  0  0  0  1  0  0  0  0  0  0
  -26.5570  -37.4280   23.7840 N   0  0  0  0  0  0  0  0  0  0  0  0
  -26.1900  -38.3630   23.9390 H   0  0  0  0  0  0  0  0  0  0  0  0
  -26.3620  -31.7690   25.1270 C   0  0  1  0  0  0  0  0  0  0  0  0
  -25.3020  -31.5600   26.2320 C   0  0  0  0  0  1  0  0  0  0  0  0
  -26.8870  -30.3760   24.7030 C   0  0  0  0  0  1  0  0  0  0  0  0
  -27.5590  -32.5240   25.7490 C   0  0  0  0  0  1  0  0  0  0  0  0
  1  3  1  0
  2  4  1  0
  4  6  1  0
  5  8  1  0
  5  2  1  0
  5  1  1  0
  6  3  1  0
  6 53  1  0
  6  7  1  1
  8 13  1  0
  9 12  1  0
 10 13  1  0
 10  9  1  0
 11 12  1  0
 12 23  1  0
 13 14  1  1
 13 11  1  0
 15 23  1  0
 16 21  1  0
 17 18  1  0
 17 16  1  0
 19 18  1  0
 19 28  1  0
 19 20  1  0
 21 15  1  0
 21 20  1  0
 22 15  2  0
 23 24  1  0
 25 26  2  0
 26 27  1  0
 26 45  1  0
 27 30  1  0
 28 25  1  0
 28 29  1  0
 29 27  2  0
 30 31  1  0
 31 32  2  0
 33 36  1  0
 33 32  1  0
 34 33  2  0
 35 34  1  0
 35 30  2  0
 36 37  1  0
 37 38  1  0
 38 39  2  0
 40 39  1  0
 40 44  1  0
 41 40  2  0
 42 37  2  0
 42 41  1  0
 43 42  1  0
 45 46  1  0
 46 49  1  0
 46 48  1  0
 47 45  2  0
 50 51  1  0
 50 25  1  0
 52 50  1  0
 53 54  1  0
 54 55  1  0
 56 54  1  0
 57 59  1  0
 57 56  1  0
 58 69  2  0
 59 64  1  0
 60 68  1  0
 60 70  1  0
 61 67  1  0
 61 63  1  0
 62 68  1  0
 63 62  1  0
 64 63  2  0
 65 66  1  0
 65 59  2  0
 66 61  2  0
 67 60  1  0
 68 58  1  0
 70 72  2  0
 71 70  1  0
 73 71  1  0
 74 83  2  0
 74 79  1  0
 75 71  1  0
 75 79  1  0
 76 75  1  0
 77 78  1  0
 77 76  1  0
 78 74  1  0
 79 80  2  0
 80 81  1  0
 82 81  2  0
 83 82  1  0
 84 58  1  0
 84 85  1  0
 84 94  1  0
 85 88  1  0
 86 90  1  0
 86 85  1  0
 87 86  2  0
 90 89  1  0
 92 90  1  0
 92 93  1  0
 92 91  1  0
 94 97  1  1
 94 95  1  0
 96 94  1  0
M  ISO  4  15 100  23 100  56 101  57 101
M  END
>  <TORSDO>  (3) 
F 21

>  <SCORE>  (3) 
-13.435

>  <name>  (3) 
2

>  <ligand_id>  (3) 
2

>  <original_smiles>  (3) 
[H]c1c([H])c([H])c2c(c1[H])C([H])([H])C([H])([H])C([H])([H])C2([H])N([H])C(=O)C1([H])N(C(=O)C([H])(N([H])C(=O)C([H])(N([H])C([H])([H])[H])C([H])([H])[H])C(C([H])([H])[H])(C([H])([H])[H])C([H])([H])[H])C([H])([H])c2c([H])c(OC([H])([H])C([H])(F)C([H])([H])[N+]3([H])C([H])([H])C([H])([H])C([H])(C([H])([H])[N+]4([H])C([H])([H])C([H])([H])C([H])(N([H])C(=O)N5C([H])([H])C([H])([H])C([H])([H])C([H])(n6nc(-c7c([H])c([H])c(Oc8c([H])c([H])c(F)c([H])c8F)c([H])c7[H])c(C(=O)N([H])[H])c6N([H])[H])C5([H])[H])C4([H])[H])C([H])([H])C3([H])[H])c([H])c([H])c2C1([H])[H]

>  <smiles>  (3) 
[H]c1c([H])c([H])c2c(c1[H])C([H])([H])C([H])([H])C([H])([H])C2([H])N([H])C(=O)C1([H])N(C(=O)C([H])(N([H])C(=O)C([H])(N([H])C([H])([H])[H])C([H])([H])[H])C(C([H])([H])[H])(C([H])([H])[H])C([H])([H])[H])C([H])([H])c2c([H])c(OC([H])([H])C([H])(F)C([H])([H])[N+]3([H])C([H])([H])C([H])([H])C([H])(C([H])([H])[N+]4([H])C([H])([H])C([H])([H])C([H])(N([H])C(=O)N5C([H])([H])C([H])([H])C([H])([H])C([H])(n6nc(-c7c([H])c([H])c(Oc8c([H])c([H])c(F)c([H])c8F)c([H])c7[H])c(C(=O)N([H])[H])c6N([H])[H])C5([H])[H])C4([H])[H])C([H])([H])C3([H])[H])c([H])c([H])c2C1([H])[H]

$$$$
3:0:0
     RDKit          3D

 96104  0  0  1  0  0  0  0  0999 V2000
  -29.7540  -22.9800   20.6820 C   0  0  0  0  0  3  0  0  0  0  0  0
  -29.0640  -19.0470   20.8240 C   0  0  0  0  0  3  0  0  0  0  0  0
  -28.8180  -20.4600   20.7490 C   0  0  0  0  0  3  0  0  0  0  0  0
  -31.3800  -19.4350   20.3370 C   0  0  0  0  0  3  0  0  0  0  0  0
  -30.3670  -18.4980   20.6610 C   0  0  0  0  0  0  0  0  0  0  0  0
  -29.8670  -21.4030   20.5220 C   0  0  0  0  0  0  0  0  0  0  0  0
  -31.1460  -20.8340   20.2740 C   0  0  0  0  0  0  0  0  0  0  0  0
  -32.2050  -21.6510   20.0580 F   0  0  0  0  0  0  0  0  0  0  0  0
  -30.8740  -16.9300   22.5860 C   0  0  0  0  0  1  0  0  0  0  0  0
  -30.7960  -17.0280   21.0520 C   0  0  0  0  0  3  0  0  0  0  0  0
  -30.7290  -14.6670   20.0750 C   0  0  0  0  0  0  0  0  0  0  0  0
  -30.3640  -12.4760   18.9550 C   0  0  0  0  0  2  0  0  0  0  0  0
  -29.3680  -12.6240   17.7870 C   0  0  0  0  0  2  0  0  0  0  0  0
  -27.9170  -12.4760   18.2860 C   0  0  0  0  0  2  0  0  0  0  0  0
  -27.6260  -13.3260   19.5530 C   0  0  0  0  0  3  0  0  0  0  0  0
  -28.7410  -13.1750   20.6130 C   0  0  0  0  0  2  0  0  0  0  0  0
  -30.0170  -13.5000   19.9620 N   0  0  0  0  0  0  0  0  0  0  0  0
  -31.8800  -14.7420   19.6420 O   0  0  0  0  0  0  0  0  0  0  0  0
  -30.1000  -15.7910   20.5470 N   0  0  0  0  0  0  0  0  0  0  0  0
  -29.1200  -15.7030   20.7610 H   0  0  0  0  0  0  0  0  0  0  0  0
  -25.2750  -13.9170   20.3980 C   0  0  0  0  0  0  0  0  0  0  0  0
  -24.2230  -13.1420   20.8040 C   0  0  0  0  0  0  0  0  0  0  0  0
  -24.6790  -11.7900   20.7390 C   0  0  0  0  0  0  0  0  0  0  0  0
  -26.3040  -13.0370   20.1020 N   0  0  0  0  0  0  0  0  0  0  0  0
  -25.9540  -11.7520   20.3680 N   0  0  0  0  0  0  0  0  0  0  0  0
  -23.9590  -10.5270   20.9510 C   0  0  0  0  0  0  0  0  0  0  0  0
  -24.4170   -9.5570   21.8710 C   0  0  0  0  0  3  0  0  0  0  0  0
  -23.6920   -8.3620   22.0710 C   0  0  0  0  0  3  0  0  0  0  0  0
  -22.4990   -8.1260   21.3480 C   0  0  0  0  0  0  0  0  0  0  0  0
  -22.0590   -9.0840   20.4190 C   0  0  0  0  0  3  0  0  0  0  0  0
  -22.7830  -10.2720   20.2190 C   0  0  0  0  0  3  0  0  0  0  0  0
  -21.7460   -6.9810   21.4560 O   0  0  0  0  0  0  0  0  0  0  0  0
  -21.7150   -6.2460   22.6140 C   0  0  0  0  0  0  0  0  0  0  0  0
  -21.3090   -6.8090   23.8440 C   0  0  0  0  0  3  0  0  0  0  0  0
  -21.2290   -6.0010   24.9960 C   0  0  0  0  0  3  0  0  0  0  0  0
  -21.5430   -4.6300   24.9180 C   0  0  0  0  0  0  0  0  0  0  0  0
  -21.9410   -4.0680   23.6930 C   0  0  0  0  0  3  0  0  0  0  0  0
  -22.0220   -4.8730   22.5450 C   0  0  0  0  0  0  0  0  0  0  0  0
  -22.3880   -4.3210   21.3630 F   0  0  0  0  0  0  0  0  0  0  0  0
  -21.4580   -3.8520   26.0230 F   0  0  0  0  0  0  0  0  0  0  0  0
  -22.8400  -13.6210   21.1460 C   0  0  0  0  0  0  0  0  0  0  0  0
  -22.1450  -12.9190   22.0370 N   0  0  0  0  0  0  0  0  0  0  0  0
  -22.3860  -14.6520   20.6520 O   0  0  0  0  0  0  0  0  0  0  0  0
  -22.5180  -12.0790   22.4540 H   0  0  0  0  0  0  0  0  0  0  0  0
  -21.2200  -13.2220   22.3070 H   0  0  0  0  0  0  0  0  0  0  0  0
  -25.4420  -15.2900   20.2340 N   0  0  0  0  0  0  0  0  0  0  0  0
  -24.7010  -15.9550   20.4330 H   0  0  0  0  0  0  0  0  0  0  0  0
  -26.2840  -15.7270   19.8890 H   0  0  0  0  0  0  0  0  0  0  0  0
  -28.3520  -23.7250   20.4850 C   0  0  0  0  0  2  0  0  0  0  0  0
  -28.0800  -25.2350   20.9780 C   0  0  0  0  0  2  0  0  0  0  0  0
  -28.2980  -26.4640   20.1830 O   0  0  0  0  0  0  0  0  0  0  0  0
  -24.6010  -31.8800   23.2010 C   0  0  0  0  0  0  0  0  0  0  0  0
  -27.2090  -27.3420   20.1430 C   0  0  0  0  0  0  0  0  0  0  0  0
  -23.3950  -30.4860   21.5560 C   0  0  0  0  0  3  0  0  0  0  0  0
  -24.8470  -28.9420   20.1270 C   0  0  0  0  0  0  0  0  0  0  0  0
  -25.9330  -30.8090   21.3750 C   0  0  0  0  0  2  0  0  0  0  0  0
  -26.0150  -29.4330   20.7260 C   0  0  0  0  0  0  0  0  0  0  0  0
  -27.2040  -28.6450   20.7240 C   0  0  0  0  0  3  0  0  0  0  0  0
  -26.0260  -26.8960   19.5240 C   0  0  0  0  0  3  0  0  0  0  0  0
  -24.8520  -27.6740   19.5190 C   0  0  0  0  0  3  0  0  0  0  0  0
  -23.6090  -29.8130   20.1740 C   0  0  0  0  0  2  0  0  0  0  0  0
  -24.6610  -31.0760   22.1000 N   0  0  0  0  0  0  0  0  0  0  0  0
  -23.5190  -32.1580   23.7380 O   0  0  0  0  0  0  0  0  0  0  0  0
  -22.7350  -29.4680   22.5150 C   0  0  0  0  0  0  0  0  0  0  0  0
  -21.4110  -29.2830   22.3830 N   0  0  0  0  0  0  0  0  0  0  0  0
  -23.4120  -28.8470   23.3400 O   0  0  0  0  0  0  0  0  0  0  0  0
  -20.9230  -29.8370   21.6920 H   0  0  0  0  0  0  0  0  0  0  0  0
  -18.0400  -28.0560   22.8510 C   0  0  0  0  0  0  0  0  0  0  0  0
  -20.5910  -28.3440   23.1500 C   0  0  0  0  0  3  0  0  0  0  0  0
  -20.7140  -26.9080   22.5910 C   0  0  0  0  0  2  0  0  0  0  0  0
  -19.6290  -26.5660   21.5650 C   0  0  0  0  0  2  0  0  0  0  0  0
  -18.2370  -26.7040   22.1890 C   0  0  0  0  0  2  0  0  0  0  0  0
  -19.1450  -28.8340   23.2880 C   0  0  0  0  0  0  0  0  0  0  0  0
  -18.9070  -30.0990   23.8650 C   0  0  0  0  0  3  0  0  0  0  0  0
  -17.5950  -30.5890   24.0100 C   0  0  0  0  0  3  0  0  0  0  0  0
  -16.5030  -29.8090   23.5890 C   0  0  0  0  0  3  0  0  0  0  0  0
  -16.7260  -28.5450   23.0150 C   0  0  0  0  0  3  0  0  0  0  0  0
  -25.8860  -32.5100   23.8240 C   0  0  0  0  0  3  0  0  0  0  0  0
  -25.5760  -33.9070   24.1580 N   0  0  0  0  0  0  0  0  0  0  0  0
  -25.9110  -34.9640   23.4070 C   0  0  0  0  0  0  0  0  0  0  0  0
  -26.5840  -34.8660   22.3770 O   0  0  0  0  0  0  0  0  0  0  0  0
  -24.9760  -34.0580   24.9560 H   0  0  0  0  0  0  0  0  0  0  0  0
  -24.1850  -36.7640   23.0600 C   0  0  0  0  0  1  0  0  0  0  0  0
  -25.4230  -36.3500   23.8720 C   0  0  0  0  0  3  0  0  0  0  0  0
  -27.5550  -37.2260   24.7180 C   0  0  0  0  0  1  0  0  0  0  0  0
  -26.4570  -37.4020   23.7720 N   0  0  0  0  0  0  0  0  0  0  0  0
  -26.0500  -38.3220   23.9240 H   0  0  0  0  0  0  0  0  0  0  0  0
  -26.4060  -31.7350   25.0970 C   0  0  1  0  0  0  0  0  0  0  0  0
  -25.3180  -31.4980   26.1690 C   0  0  0  0  0  1  0  0  0  0  0  0
  -26.9900  -30.3560   24.7060 C   0  0  0  0  0  1  0  0  0  0  0  0
  -27.5530  -32.5300   25.7640 C   0  0  0  0  0  1  0  0  0  0  0  0
  -30.4520  -23.3800   22.0090 C   0  0  0  0  0  2  0  0  0  0  0  0
  -29.8400  -22.7350   23.1850 N   0  0  0  0  0  4  0  0  0  0  0  0
  -28.8700  -22.9770   23.2740 H   0  0  0  0  0  0  0  0  0  0  0  0
  -30.3160  -23.0150   24.0250 H   0  0  0  0  0  0  0  0  0  0  0  0
  -29.9170  -21.7370   23.1030 H   0  0  0  0  0  0  0  0  0  0  0  0
  1 49  1  0
  1 92  1  0
  3  2  1  0
  4  5  1  0
  5  2  2  0
  5 10  1  0
  6  1  1  0
  6  3  2  0
  7  4  2  0
  7  6  1  0
  8  7  1  0
 10  9  1  0
 11 19  1  0
 12 17  1  0
 13 14  1  0
 13 12  1  0
 15 14  1  0
 15 24  1  0
 15 16  1  0
 17 11  1  0
 17 16  1  0
 18 11  2  0
 19 20  1  0
 19 10  1  0
 21 22  2  0
 22 41  1  0
 23 22  1  0
 23 26  1  0
 24 25  1  0
 24 21  1  0
 25 23  2  0
 26 27  1  0
 27 28  2  0
 29 32  1  0
 29 28  1  0
 30 29  2  0
 31 30  1  0
 31 26  2  0
 32 33  1  0
 33 34  1  0
 34 35  2  0
 36 35  1  0
 36 40  1  0
 37 36  2  0
 38 33  2  0
 38 37  1  0
 39 38  1  0
 41 42  1  0
 42 45  1  0
 42 44  1  0
 43 41  2  0
 46 21  1  0
 46 47  1  0
 48 46  1  0
 49 50  1  0
 51 50  1  0
 52 63  2  0
 53 51  1  0
 53 58  1  0
 54 62  1  0
 54 64  1  0
 55 61  1  0
 55 57  1  0
 56 62  1  0
 57 56  1  0
 58 57  2  0
 59 53  2  0
 60 59  1  0
 60 55  2  0
 61 54  1  0
 62 52  1  0
 64 66  2  0
 65 64  1  0
 67 65  1  0
 68 77  2  0
 68 73  1  0
 69 65  1  0
 69 73  1  0
 70 69  1  0
 71 72  1  0
 71 70  1  0
 72 68  1  0
 73 74  2  0
 74 75  1  0
 76 75  2  0
 77 76  1  0
 78 52  1  0
 78 79  1  0
 78 88  1  0
 79 82  1  0
 80 84  1  0
 80 79  1  0
 81 80  2  0
 84 83  1  0
 86 84  1  0
 86 87  1  0
 86 85  1  0
 88 91  1  1
 88 89  1  0
 90 88  1  0
 92 93  1  0
 93 94  1  0
 93 95  1  0
 96 93  1  0
M  ISO  4  11 100  19 100  50 101  51 101
M  END
>  <TORSDO>  (4) 
F 22

>  <SCORE>  (4) 
-13.470

>  <name>  (4) 
3

>  <ligand_id>  (4) 
3

>  <original_smiles>  (4) 
[H]c1c([H])c([H])c2c(c1[H])C([H])([H])C([H])([H])C([H])([H])C2([H])N([H])C(=O)C1([H])N(C(=O)C([H])(N([H])C(=O)C([H])(N([H])C([H])([H])[H])C([H])([H])[H])C(C([H])([H])[H])(C([H])([H])[H])C([H])([H])[H])C([H])([H])c2c([H])c(OC([H])([H])C([H])([H])C([H])(c3c([H])c([H])c(C([H])(N([H])C(=O)N4C([H])([H])C([H])([H])C([H])([H])C([H])(n5nc(-c6c([H])c([H])c(Oc7c([H])c([H])c(F)c([H])c7F)c([H])c6[H])c(C(=O)N([H])[H])c5N([H])[H])C4([H])[H])C([H])([H])[H])c([H])c3F)C([H])([H])[N+]([H])([H])[H])c([H])c([H])c2C1([H])[H]

>  <smiles>  (4) 
[H]c1c([H])c([H])c2c(c1[H])C([H])([H])C([H])([H])C([H])([H])C2([H])N([H])C(=O)C1([H])N(C(=O)C([H])(N([H])C(=O)C([H])(N([H])C([H])([H])[H])C([H])([H])[H])C(C([H])([H])[H])(C([H])([H])[H])C([H])([H])[H])C([H])([H])c2c([H])c(OC([H])([H])C([H])([H])C([H])(c3c([H])c([H])c(C([H])(N([H])C(=O)N4C([H])([H])C([H])([H])C([H])([H])C([H])(n5nc(-c6c([H])c([H])c(Oc7c([H])c([H])c(F)c([H])c7F)c([H])c6[H])c(C(=O)N([H])[H])c5N([H])[H])C4([H])[H])C([H])([H])[H])c([H])c3F)C([H])([H])[N+]([H])([H])[H])c([H])c([H])c2C1([H])[H]

$$$$
4:0:0
     RDKit          3D

 99107  0  0  1  0  0  0  0  0999 V2000
  -30.4680  -18.9650   21.7520 C   0  0  0  0  0  3  0  0  0  0  0  0
  -29.0720  -17.8200   20.1230 C   0  0  0  0  0  3  0  0  0  0  0  0
  -30.1390  -17.7810   21.0550 C   0  0  0  0  0  0  0  0  0  0  0  0
  -28.6670  -20.1800   20.6340 C   0  0  0  0  0  0  0  0  0  0  0  0
  -29.7310  -20.1470   21.5580 C   0  0  0  0  0  0  0  0  0  0  0  0
  -28.3460  -19.0100   19.9120 C   0  0  0  0  0  0  0  0  0  0  0  0
  -30.0510  -21.2580   22.2660 F   0  0  0  0  0  0  0  0  0  0  0  0
  -27.3300  -19.0170   19.0160 F   0  0  0  0  0  0  0  0  0  0  0  0
  -27.8370  -21.4470   20.4690 C   0  0  0  0  0  2  0  0  0  0  0  0
  -28.5470  -22.5270   19.7470 N   0  0  0  0  0  4  0  0  0  0  0  0
  -28.0380  -22.6970   18.8950 H   0  0  0  0  0  0  0  0  0  0  0  0
  -29.4660  -22.2070   19.4920 H   0  0  0  0  0  0  0  0  0  0  0  0
  -28.6450  -23.7960   20.5050 C   0  0  0  0  0  2  0  0  0  0  0  0
  -28.7510  -25.0350   19.5980 C   0  0  0  0  0  2  0  0  0  0  0  0
  -28.8470  -26.3390   20.4110 C   0  0  0  0  0  2  0  0  0  0  0  0
  -28.6760  -27.4930   19.5890 O   0  0  0  0  0  0  0  0  0  0  0  0
  -24.4840  -31.9090   23.2640 C   0  0  0  0  0  0  0  0  0  0  0  0
  -27.4460  -28.0860   19.7090 C   0  0  0  0  0  0  0  0  0  0  0  0
  -23.3670  -30.5540   21.5190 C   0  0  0  0  0  3  0  0  0  0  0  0
  -24.9180  -29.3090   19.9230 C   0  0  0  0  0  0  0  0  0  0  0  0
  -25.8360  -31.1840   21.3040 C   0  0  0  0  0  2  0  0  0  0  0  0
  -26.0330  -29.8940   20.5380 C   0  0  0  0  0  0  0  0  0  0  0  0
  -27.3020  -29.2850   20.4360 C   0  0  0  0  0  3  0  0  0  0  0  0
  -26.3220  -27.5120   19.0830 C   0  0  0  0  0  3  0  0  0  0  0  0
  -25.0550  -28.1130   19.1970 C   0  0  0  0  0  3  0  0  0  0  0  0
  -23.5980  -30.0290   20.0770 C   0  0  0  0  0  2  0  0  0  0  0  0
  -24.5800  -31.2260   22.0880 N   0  0  0  0  0  0  0  0  0  0  0  0
  -23.4000  -32.0210   23.8520 O   0  0  0  0  0  0  0  0  0  0  0  0
  -22.8510  -29.3870   22.3900 C   0  0  0  0  0  0  0  0  0  0  0  0
  -21.5560  -29.0610   22.2450 N   0  0  0  0  0  0  0  0  0  0  0  0
  -23.6090  -28.7790   23.1500 O   0  0  0  0  0  0  0  0  0  0  0  0
  -20.9990  -29.6150   21.6090 H   0  0  0  0  0  0  0  0  0  0  0  0
  -18.3730  -27.3850   22.5480 C   0  0  0  0  0  0  0  0  0  0  0  0
  -20.8600  -27.9720   22.9290 C   0  0  0  0  0  3  0  0  0  0  0  0
  -21.1780  -26.6080   22.2740 C   0  0  0  0  0  2  0  0  0  0  0  0
  -20.1600  -26.2030   21.2030 C   0  0  0  0  0  2  0  0  0  0  0  0
  -18.7550  -26.1170   21.8030 C   0  0  0  0  0  2  0  0  0  0  0  0
  -19.3620  -28.2640   23.0620 C   0  0  0  0  0  0  0  0  0  0  0  0
  -18.9530  -29.4480   23.7140 C   0  0  0  0  0  3  0  0  0  0  0  0
  -17.5880  -29.7560   23.8580 C   0  0  0  0  0  3  0  0  0  0  0  0
  -16.6130  -28.8740   23.3610 C   0  0  0  0  0  3  0  0  0  0  0  0
  -17.0060  -27.6900   22.7120 C   0  0  0  0  0  3  0  0  0  0  0  0
  -25.7230  -32.5990   23.9140 C   0  0  0  0  0  3  0  0  0  0  0  0
  -25.3930  -34.0180   24.0970 N   0  0  0  0  0  0  0  0  0  0  0  0
  -25.7980  -35.0030   23.2850 C   0  0  0  0  0  0  0  0  0  0  0  0
  -26.5570  -34.8160   22.3310 O   0  0  0  0  0  0  0  0  0  0  0  0
  -24.7260  -34.2370   24.8230 H   0  0  0  0  0  0  0  0  0  0  0  0
  -24.1040  -36.7450   22.6340 C   0  0  0  0  0  1  0  0  0  0  0  0
  -25.2740  -36.4230   23.5760 C   0  0  0  0  0  3  0  0  0  0  0  0
  -27.3440  -37.3800   24.4890 C   0  0  0  0  0  1  0  0  0  0  0  0
  -26.3130  -37.4690   23.4560 N   0  0  0  0  0  0  0  0  0  0  0  0
  -25.8980  -38.3960   23.5010 H   0  0  0  0  0  0  0  0  0  0  0  0
  -26.1550  -31.9420   25.2820 C   0  0  1  0  0  0  0  0  0  0  0  0
  -25.0010  -31.8190   26.3030 C   0  0  0  0  0  1  0  0  0  0  0  0
  -26.7330  -30.5280   25.0510 C   0  0  0  0  0  1  0  0  0  0  0  0
  -27.2820  -32.7800   25.9320 C   0  0  0  0  0  1  0  0  0  0  0  0
  -30.9510  -16.5030   21.3150 C   0  0  0  0  0  3  0  0  0  0  0  0
  -30.6200  -14.5300   19.8360 C   0  0  0  0  0  0  0  0  0  0  0  0
  -30.1720  -12.4350   18.6170 C   0  0  0  0  0  2  0  0  0  0  0  0
  -29.1360  -12.6450   17.4990 C   0  0  0  0  0  2  0  0  0  0  0  0
  -27.7020  -12.5010   18.0460 C   0  0  0  0  0  2  0  0  0  0  0  0
  -27.4680  -13.3420   19.3290 C   0  0  0  0  0  3  0  0  0  0  0  0
  -28.6010  -13.1070   20.3520 C   0  0  0  0  0  2  0  0  0  0  0  0
  -29.8930  -13.3930   19.6970 N   0  0  0  0  0  0  0  0  0  0  0  0
  -31.5660  -14.8260   19.1020 O   0  0  0  0  0  0  0  0  0  0  0  0
  -30.2620  -15.2940   20.8690 N   0  0  0  0  0  0  0  0  0  0  0  0
  -29.5330  -14.9440   21.4690 H   0  0  0  0  0  0  0  0  0  0  0  0
  -25.1450  -13.9600   20.2590 C   0  0  0  0  0  0  0  0  0  0  0  0
  -24.1000  -13.1900   20.6930 C   0  0  0  0  0  0  0  0  0  0  0  0
  -24.5330  -11.8330   20.5740 C   0  0  0  0  0  0  0  0  0  0  0  0
  -26.1530  -13.0730   19.9080 N   0  0  0  0  0  0  0  0  0  0  0  0
  -25.7910  -11.7870   20.1530 N   0  0  0  0  0  0  0  0  0  0  0  0
  -23.8030  -10.5760   20.7830 C   0  0  0  0  0  0  0  0  0  0  0  0
  -24.2610   -9.6020   21.6980 C   0  0  0  0  0  3  0  0  0  0  0  0
  -23.5350   -8.4080   21.8960 C   0  0  0  0  0  3  0  0  0  0  0  0
  -22.3360   -8.1800   21.1800 C   0  0  0  0  0  0  0  0  0  0  0  0
  -21.8970   -9.1430   20.2540 C   0  0  0  0  0  3  0  0  0  0  0  0
  -22.6230  -10.3290   20.0540 C   0  0  0  0  0  3  0  0  0  0  0  0
  -21.5780   -7.0390   21.2870 O   0  0  0  0  0  0  0  0  0  0  0  0
  -21.5240   -6.3200   22.4540 C   0  0  0  0  0  0  0  0  0  0  0  0
  -21.1070   -6.9040   23.6710 C   0  0  0  0  0  3  0  0  0  0  0  0
  -20.9970   -6.1100   24.8300 C   0  0  0  0  0  3  0  0  0  0  0  0
  -21.2950   -4.7340   24.7750 C   0  0  0  0  0  0  0  0  0  0  0  0
  -21.7050   -4.1520   23.5630 C   0  0  0  0  0  3  0  0  0  0  0  0
  -21.8170   -4.9420   22.4060 C   0  0  0  0  0  0  0  0  0  0  0  0
  -22.1910   -4.3710   21.2350 F   0  0  0  0  0  0  0  0  0  0  0  0
  -21.1830   -3.9700   25.8870 F   0  0  0  0  0  0  0  0  0  0  0  0
  -22.7400  -13.6770   21.1030 C   0  0  0  0  0  0  0  0  0  0  0  0
  -22.0940  -12.9830   22.0330 N   0  0  0  0  0  0  0  0  0  0  0  0
  -22.2600  -14.7070   20.6320 O   0  0  0  0  0  0  0  0  0  0  0  0
  -22.4960  -12.1500   22.4370 H   0  0  0  0  0  0  0  0  0  0  0  0
  -21.1850  -13.2900   22.3470 H   0  0  0  0  0  0  0  0  0  0  0  0
  -25.3170  -15.3340   20.1130 N   0  0  0  0  0  0  0  0  0  0  0  0
  -24.5790  -15.9940   20.3330 H   0  0  0  0  0  0  0  0  0  0  0  0
  -26.1370  -15.7750   19.7180 H   0  0  0  0  0  0  0  0  0  0  0  0
  -31.3640  -16.3160   22.7960 C   0  0  1  0  0  0  0  0  0  0  0  0
  -32.1800  -17.2880   23.2040 F   0  0  0  0  0  0  0  0  0  0  0  0
  -30.2830  -16.3060   23.5770 F   0  0  0  0  0  0  0  0  0  0  0  0
  -32.0050  -15.1560   22.9460 F   0  0  0  0  0  0  0  0  0  0  0  0
  2  3  1  0
  3 57  1  0
  3  1  2  0
  4  5  2  0
  5  1  1  0
  5  7  1  0
  6  2  2  0
  6  4  1  0
  8  6  1  0
  9  4  1  0
 10  9  1  0
 10 13  1  0
 11 10  1  0
 12 10  1  0
 14 15  1  0
 14 13  1  0
 16 18  1  0
 16 15  1  0
 17 28  2  0
 18 23  1  0
 19 27  1  0
 19 29  1  0
 20 26  1  0
 20 22  1  0
 21 27  1  0
 22 21  1  0
 23 22  2  0
 24 25  1  0
 24 18  2  0
 25 20  2  0
 26 19  1  0
 27 17  1  0
 29 31  2  0
 30 29  1  0
 32 30  1  0
 33 42  2  0
 33 38  1  0
 34 30  1  0
 34 38  1  0
 35 34  1  0
 36 37  1  0
 36 35  1  0
 37 33  1  0
 38 39  2  0
 39 40  1  0
 41 40  2  0
 42 41  1  0
 43 17  1  0
 43 44  1  0
 43 53  1  0
 44 47  1  0
 45 49  1  0
 45 44  1  0
 46 45  2  0
 49 48  1  0
 51 52  1  0
 51 49  1  0
 51 50  1  0
 53 56  1  1
 53 54  1  0
 55 53  1  0
 57 66  1  0
 57 96  1  0
 58 66  1  0
 59 64  1  0
 60 61  1  0
 60 59  1  0
 62 61  1  0
 62 71  1  0
 62 63  1  0
 64 58  1  0
 64 63  1  0
 65 58  2  0
 66 67  1  0
 68 69  2  0
 69 88  1  0
 70 69  1  0
 70 73  1  0
 71 72  1  0
 71 68  1  0
 72 70  2  0
 73 74  1  0
 74 75  2  0
 76 79  1  0
 76 75  1  0
 77 76  2  0
 78 77  1  0
 78 73  2  0
 79 80  1  0
 80 81  1  0
 81 82  2  0
 83 82  1  0
 83 87  1  0
 84 83  2  0
 85 80  2  0
 85 84  1  0
 86 85  1  0
 88 89  1  0
 89 92  1  0
 89 91  1  0
 90 88  2  0
 93 68  1  0
 93 94  1  0
 95 93  1  0
 96 99  1  6
 96 97  1  0
 96 98  1  0
M  ISO  4  15 101  16 101  58 100  66 100
M  END
>  <TORSDO>  (5) 
F 23

>  <SCORE>  (5) 
-7.342

>  <name>  (5) 
4

>  <ligand_id>  (5) 
4

>  <original_smiles>  (5) 
[H]c1c([H])c([H])c2c(c1[H])C([H])([H])C([H])([H])C([H])([H])C2([H])N([H])C(=O)C1([H])N(C(=O)C([H])(N([H])C(=O)C([H])(N([H])C([H])([H])[H])C([H])([H])[H])C(C([H])([H])[H])(C([H])([H])[H])C([H])([H])[H])C([H])([H])c2c([H])c(OC([H])([H])C([H])([H])C([H])([H])[N+]([H])([H])C([H])([H])c3c(F)c([H])c(C([H])(N([H])C(=O)N4C([H])([H])C([H])([H])C([H])([H])C([H])(n5nc(-c6c([H])c([H])c(Oc7c([H])c([H])c(F)c([H])c7F)c([H])c6[H])c(C(=O)N([H])[H])c5N([H])[H])C4([H])[H])C(F)(F)F)c([H])c3F)c([H])c([H])c2C1([H])[H]

>  <smiles>  (5) 
[H]c1c([H])c([H])c2c(c1[H])C([H])([H])C([H])([H])C([H])([H])C2([H])N([H])C(=O)C1([H])N(C(=O)C([H])(N([H])C(=O)C([H])(N([H])C([H])([H])[H])C([H])([H])[H])C(C([H])([H])[H])(C([H])([H])[H])C([H])([H])[H])C([H])([H])c2c([H])c(OC([H])([H])C([H])([H])C([H])([H])[N+]([H])([H])C([H])([H])c3c(F)c([H])c(C([H])(N([H])C(=O)N4C([H])([H])C([H])([H])C([H])([H])C([H])(n5nc(-c6c([H])c([H])c(Oc7c([H])c([H])c(F)c([H])c7F)c([H])c6[H])c(C(=O)N([H])[H])c5N([H])[H])C4([H])[H])C(F)(F)F)c([H])c3F)c([H])c([H])c2C1([H])[H]

$$$$
5:0:0
     RDKit          3D

 95103  0  0  1  0  0  0  0  0999 V2000
  -27.5680  -21.3950   20.0180 C   0  0  0  0  0  0  0  0  0  0  0  0
  -28.4430  -22.2090   19.4010 N   0  0  0  0  0  0  0  0  0  0  0  0
  -26.5090  -21.7910   20.5160 O   0  0  0  0  0  0  0  0  0  0  0  0
  -29.2940  -21.7800   19.0740 H   0  0  0  0  0  0  0  0  0  0  0  0
  -27.8930  -19.8980   19.9600 C   0  0  0  0  0  2  0  0  0  0  0  0
  -28.9920  -19.4470   20.9570 C   0  0  0  0  0  2  0  0  0  0  0  0
  -30.8240  -17.2960   18.3580 C   0  0  0  0  0  2  0  0  0  0  0  0
  -31.6400  -16.8490   20.7860 C   0  0  0  0  0  2  0  0  0  0  0  0
  -30.2060  -18.5890   18.9020 C   0  0  0  0  0  2  0  0  0  0  0  0
  -31.1820  -18.2590   21.1210 C   0  0  0  0  0  2  0  0  0  0  0  0
  -31.8920  -16.6330   19.2660 C   0  0  0  0  0  3  0  0  0  0  0  0
  -29.9360  -18.4720   20.3560 N   0  0  1  0  0  4  0  0  0  0  0  0
  -29.4620  -17.5830   20.4620 H   0  0  0  0  0  0  0  0  0  0  0  0
  -32.7130  -14.2930   19.5000 C   0  0  0  0  0  0  0  0  0  0  0  0
  -32.4820  -11.8770   19.7170 C   0  0  0  0  0  2  0  0  0  0  0  0
  -31.5340  -11.4680   18.5740 C   0  0  0  0  0  2  0  0  0  0  0  0
  -30.0470  -11.5900   18.9930 C   0  0  0  0  0  2  0  0  0  0  0  0
  -29.7080  -12.9720   19.6140 C   0  0  0  0  0  3  0  0  0  0  0  0
  -30.7520  -13.3020   20.7050 C   0  0  0  0  0  2  0  0  0  0  0  0
  -32.1010  -13.2390   20.0850 N   0  0  0  0  0  0  0  0  0  0  0  0
  -33.8910  -14.3410   19.1390 O   0  0  0  0  0  0  0  0  0  0  0  0
  -31.8090  -15.1990   19.1330 N   0  0  0  0  0  0  0  0  0  0  0  0
  -30.8760  -14.8230   19.2660 H   0  0  0  0  0  0  0  0  0  0  0  0
  -27.5890  -14.1170   20.5280 C   0  0  0  0  0  0  0  0  0  0  0  0
  -26.3610  -13.6140   20.8740 C   0  0  0  0  0  0  0  0  0  0  0  0
  -26.4610  -12.2020   20.7100 C   0  0  0  0  0  0  0  0  0  0  0  0
  -28.3510  -13.0210   20.1450 N   0  0  0  0  0  0  0  0  0  0  0  0
  -27.6780  -11.8590   20.3150 N   0  0  0  0  0  0  0  0  0  0  0  0
  -25.4480  -11.1550   20.8390 C   0  0  0  0  0  0  0  0  0  0  0  0
  -25.6030  -10.0970   21.7610 C   0  0  0  0  0  3  0  0  0  0  0  0
  -24.6080   -9.1040   21.8750 C   0  0  0  0  0  3  0  0  0  0  0  0
  -23.4480   -9.1710   21.0680 C   0  0  0  0  0  0  0  0  0  0  0  0
  -23.3130  -10.2140   20.1340 C   0  0  0  0  0  3  0  0  0  0  0  0
  -24.3060  -11.2000   20.0170 C   0  0  0  0  0  3  0  0  0  0  0  0
  -22.4430   -8.2370   21.0940 O   0  0  0  0  0  0  0  0  0  0  0  0
  -22.0930   -7.5820   22.2480 C   0  0  0  0  0  0  0  0  0  0  0  0
  -21.6110   -8.2720   23.3800 C   0  0  0  0  0  3  0  0  0  0  0  0
  -21.1990   -7.5560   24.5220 C   0  0  0  0  0  3  0  0  0  0  0  0
  -21.2530   -6.1490   24.5310 C   0  0  0  0  0  0  0  0  0  0  0  0
  -21.7230   -5.4590   23.4010 C   0  0  0  0  0  3  0  0  0  0  0  0
  -22.1380   -6.1730   22.2610 C   0  0  0  0  0  0  0  0  0  0  0  0
  -22.5690   -5.4990   21.1690 F   0  0  0  0  0  0  0  0  0  0  0  0
  -20.8530   -5.4600   25.6250 F   0  0  0  0  0  0  0  0  0  0  0  0
  -25.1460  -14.4100   21.2470 C   0  0  0  0  0  0  0  0  0  0  0  0
  -24.3190  -13.8690   22.1420 N   0  0  0  0  0  0  0  0  0  0  0  0
  -24.9400  -15.5280   20.7830 O   0  0  0  0  0  0  0  0  0  0  0  0
  -24.4970  -12.9480   22.5090 H   0  0  0  0  0  0  0  0  0  0  0  0
  -23.4840  -14.3630   22.4320 H   0  0  0  0  0  0  0  0  0  0  0  0
  -28.1050  -15.4050   20.4840 N   0  0  0  0  0  0  0  0  0  0  0  0
  -27.5060  -16.2080   20.6520 H   0  0  0  0  0  0  0  0  0  0  0  0
  -28.9660  -15.6340   20.0070 H   0  0  0  0  0  0  0  0  0  0  0  0
  -28.1290  -23.4740   18.7580 C   0  0  0  0  0  2  0  0  0  0  0  0
  -28.9020  -24.6900   19.3260 C   0  0  0  0  0  2  0  0  0  0  0  0
  -28.0290  -25.9010   19.0350 C   0  0  0  0  0  2  0  0  0  0  0  0
  -28.3530  -27.2720   19.3500 O   0  0  0  0  0  0  0  0  0  0  0  0
  -24.5030  -31.8620   23.2390 C   0  0  0  0  0  0  0  0  0  0  0  0
  -27.2030  -28.0500   19.4390 C   0  0  0  0  0  0  0  0  0  0  0  0
  -23.2960  -30.5720   21.5150 C   0  0  0  0  0  3  0  0  0  0  0  0
  -24.7380  -29.3930   19.7990 C   0  0  0  0  0  0  0  0  0  0  0  0
  -25.7760  -31.1540   21.2180 C   0  0  0  0  0  2  0  0  0  0  0  0
  -25.9050  -29.8830   20.4060 C   0  0  0  0  0  0  0  0  0  0  0  0
  -27.1350  -29.1990   20.2630 C   0  0  0  0  0  3  0  0  0  0  0  0
  -26.0230  -27.6740   18.7360 C   0  0  0  0  0  3  0  0  0  0  0  0
  -24.7920  -28.2830   18.9630 C   0  0  0  0  0  3  0  0  0  0  0  0
  -23.4470  -30.1270   20.0420 C   0  0  0  0  0  2  0  0  0  0  0  0
  -24.5450  -31.2070   22.0470 N   0  0  0  0  0  0  0  0  0  0  0  0
  -23.4430  -31.9720   23.8700 O   0  0  0  0  0  0  0  0  0  0  0  0
  -22.8060  -29.3710   22.3660 C   0  0  0  0  0  0  0  0  0  0  0  0
  -21.5180  -29.0250   22.2250 N   0  0  0  0  0  0  0  0  0  0  0  0
  -23.5710  -28.7810   23.1310 O   0  0  0  0  0  0  0  0  0  0  0  0
  -20.9440  -29.5840   21.6170 H   0  0  0  0  0  0  0  0  0  0  0  0
  -18.3800  -27.2350   22.4170 C   0  0  0  0  0  0  0  0  0  0  0  0
  -20.8370  -27.9080   22.8810 C   0  0  0  0  0  3  0  0  0  0  0  0
  -21.2060  -26.5530   22.2290 C   0  0  0  0  0  2  0  0  0  0  0  0
  -20.2340  -26.1380   21.1230 C   0  0  0  0  0  2  0  0  0  0  0  0
  -18.8270  -25.9700   21.6990 C   0  0  0  0  0  2  0  0  0  0  0  0
  -19.3200  -28.1490   22.9570 C   0  0  0  0  0  0  0  0  0  0  0  0
  -18.8530  -29.3160   23.5900 C   0  0  0  0  0  3  0  0  0  0  0  0
  -17.4760  -29.5870   23.6770 C   0  0  0  0  0  3  0  0  0  0  0  0
  -16.5460  -28.6760   23.1560 C   0  0  0  0  0  3  0  0  0  0  0  0
  -17.0000  -27.4990   22.5250 C   0  0  0  0  0  3  0  0  0  0  0  0
  -25.7770  -32.5180   23.8540 C   0  0  0  0  0  3  0  0  0  0  0  0
  -25.4340  -33.9130   24.1690 N   0  0  0  0  0  0  0  0  0  0  0  0
  -25.7810  -34.9650   23.4200 C   0  0  0  0  0  0  0  0  0  0  0  0
  -26.4960  -34.8700   22.4170 O   0  0  0  0  0  0  0  0  0  0  0  0
  -24.8170  -34.0570   24.9550 H   0  0  0  0  0  0  0  0  0  0  0  0
  -24.0620  -36.7500   22.9800 C   0  0  0  0  0  1  0  0  0  0  0  0
  -25.2620  -36.3520   23.8570 C   0  0  0  0  0  3  0  0  0  0  0  0
  -27.3450  -37.2500   24.7980 C   0  0  0  0  0  1  0  0  0  0  0  0
  -26.2900  -37.4160   23.7990 N   0  0  0  0  0  0  0  0  0  0  0  0
  -25.8720  -38.3380   23.9250 H   0  0  0  0  0  0  0  0  0  0  0  0
  -26.2970  -31.7640   25.1380 C   0  0  1  0  0  0  0  0  0  0  0  0
  -25.1970  -31.4870   26.1930 C   0  0  0  0  0  1  0  0  0  0  0  0
  -26.9300  -30.4090   24.7420 C   0  0  0  0  0  1  0  0  0  0  0  0
  -27.4190  -32.5960   25.8050 C   0  0  0  0  0  1  0  0  0  0  0  0
  1  3  2  0
  2  1  1  0
  4  2  1  0
  5  1  1  0
  5  6  1  0
  7  9  1  0
  7 11  1  0
  8 10  1  0
  9 12  1  0
 11 22  1  0
 11  8  1  0
 12 13  1  6
 12  6  1  0
 12 10  1  0
 14 20  1  0
 15 20  1  0
 16 17  1  0
 16 15  1  0
 18 17  1  0
 18 27  1  0
 18 19  1  0
 20 19  1  0
 21 14  2  0
 22 23  1  0
 22 14  1  0
 24 25  2  0
 25 44  1  0
 26 29  1  0
 26 25  1  0
 27 28  1  0
 27 24  1  0
 28 26  2  0
 29 30  1  0
 30 31  2  0
 32 35  1  0
 32 31  1  0
 33 32  2  0
 34 33  1  0
 34 29  2  0
 35 36  1  0
 36 41  2  0
 36 37  1  0
 37 38  2  0
 38 39  1  0
 39 43  1  0
 40 39  2  0
 41 40  1  0
 42 41  1  0
 44 45  1  0
 45 48  1  0
 45 47  1  0
 46 44  2  0
 49 24  1  0
 49 50  1  0
 51 49  1  0
 52 53  1  0
 52  2  1  0
 54 53  1  0
 54 55  1  0
 55 57  1  0
 56 67  2  0
 57 62  1  0
 58 66  1  0
 58 68  1  0
 59 65  1  0
 59 61  1  0
 60 66  1  0
 61 60  1  0
 62 61  2  0
 63 64  1  0
 63 57  2  0
 64 59  2  0
 65 58  1  0
 66 56  1  0
 68 70  2  0
 69 68  1  0
 71 69  1  0
 72 81  2  0
 72 77  1  0
 73 69  1  0
 73 77  1  0
 74 73  1  0
 75 76  1  0
 75 74  1  0
 76 72  1  0
 77 78  2  0
 78 79  1  0
 80 79  2  0
 81 80  1  0
 82 56  1  0
 82 83  1  0
 82 92  1  0
 83 86  1  0
 84 88  1  0
 84 83  1  0
 85 84  2  0
 88 87  1  0
 90 88  1  0
 90 91  1  0
 90 89  1  0
 92 95  1  1
 92 93  1  0
 94 92  1  0
M  ISO  4  14 100  22 100  54 101  55 101
M  END
>  <TORSDO>  (6) 
F 22

>  <SCORE>  (6) 
-9.647

>  <name>  (6) 
5

>  <ligand_id>  (6) 
5

>  <original_smiles>  (6) 
[H]c1c([H])c([H])c2c(c1[H])C([H])([H])C([H])([H])C([H])([H])C2([H])N([H])C(=O)C1([H])N(C(=O)C([H])(N([H])C(=O)C([H])(N([H])C([H])([H])[H])C([H])([H])[H])C(C([H])([H])[H])(C([H])([H])[H])C([H])([H])[H])C([H])([H])c2c([H])c(OC([H])([H])C([H])([H])C([H])([H])N([H])C(=O)C([H])([H])C([H])([H])[N+]3([H])C([H])([H])C([H])([H])C([H])(N([H])C(=O)N4C([H])([H])C([H])([H])C([H])([H])C([H])(n5nc(-c6c([H])c([H])c(Oc7c([H])c([H])c(F)c([H])c7F)c([H])c6[H])c(C(=O)N([H])[H])c5N([H])[H])C4([H])[H])C([H])([H])C3([H])[H])c([H])c([H])c2C1([H])[H]

>  <smiles>  (6) 
[H]c1c([H])c([H])c2c(c1[H])C([H])([H])C([H])([H])C([H])([H])C2([H])N([H])C(=O)C1([H])N(C(=O)C([H])(N([H])C(=O)C([H])(N([H])C([H])([H])[H])C([H])([H])[H])C(C([H])([H])[H])(C([H])([H])[H])C([H])([H])[H])C([H])([H])c2c([H])c(OC([H])([H])C([H])([H])C([H])([H])N([H])C(=O)C([H])([H])C([H])([H])[N+]3([H])C([H])([H])C([H])([H])C([H])(N([H])C(=O)N4C([H])([H])C([H])([H])C([H])([H])C([H])(n5nc(-c6c([H])c([H])c(Oc7c([H])c([H])c(F)c([H])c7F)c([H])c6[H])c(C(=O)N([H])[H])c5N([H])[H])C4([H])[H])C([H])([H])C3([H])[H])c([H])c([H])c2C1([H])[H]

$$$$
6:0:0
     RDKit          3D

 93101  0  0  1  0  0  0  0  0999 V2000
  -28.5070  -21.1550   21.3010 C   0  0  0  0  0  3  0  0  0  0  0  0
  -28.2450  -22.5770   21.2720 C   0  0  0  0  0  3  0  0  0  0  0  0
  -29.6650  -21.3230   19.2480 C   0  0  0  0  0  3  0  0  0  0  0  0
  -29.1820  -20.4340   20.2630 C   0  0  0  0  0  0  0  0  0  0  0  0
  -28.6360  -23.4500   20.2070 C   0  0  0  0  0  0  0  0  0  0  0  0
  -29.4200  -22.7590   19.2120 C   0  0  0  0  0  0  0  0  0  0  0  0
  -29.9310  -23.5350   18.0010 C   0  0  1  0  0  0  0  0  0  0  0  0
  -28.9520  -23.6710   17.1080 F   0  0  0  0  0  0  0  0  0  0  0  0
  -30.3630  -24.7460   18.3550 F   0  0  0  0  0  0  0  0  0  0  0  0
  -30.9480  -22.9040   17.4130 F   0  0  0  0  0  0  0  0  0  0  0  0
  -29.1050  -18.8030   20.1240 C   0  0  0  0  0  3  0  0  0  0  0  0
  -28.0680  -18.3990   20.8610 F   0  0  0  0  0  0  0  0  0  0  0  0
  -30.2720  -17.6700   20.3850 C   0  0  0  0  0  2  0  0  0  0  0  0
  -30.6580  -14.9900   20.2410 C   0  0  0  0  0  0  0  0  0  0  0  0
  -30.4840  -12.6660   19.2880 C   0  0  0  0  0  2  0  0  0  0  0  0
  -29.5420  -12.6650   18.0630 C   0  0  0  0  0  2  0  0  0  0  0  0
  -28.0770  -12.4810   18.5030 C   0  0  0  0  0  2  0  0  0  0  0  0
  -27.6920  -13.4010   19.6910 C   0  0  0  0  0  3  0  0  0  0  0  0
  -28.7560  -13.3790   20.8110 C   0  0  0  0  0  2  0  0  0  0  0  0
  -30.0370  -13.7520   20.1980 N   0  0  0  0  0  0  0  0  0  0  0  0
  -31.8500  -15.0640   19.9280 O   0  0  0  0  0  0  0  0  0  0  0  0
  -29.8990  -16.1540   20.4310 N   0  0  0  0  0  0  0  0  0  0  0  0
  -28.9250  -15.9780   20.6340 H   0  0  0  0  0  0  0  0  0  0  0  0
  -25.3140  -13.9910   20.4440 C   0  0  0  0  0  0  0  0  0  0  0  0
  -24.2490  -13.2200   20.8200 C   0  0  0  0  0  0  0  0  0  0  0  0
  -24.7080  -11.8670   20.7830 C   0  0  0  0  0  0  0  0  0  0  0  0
  -26.3540  -13.1100   20.1970 N   0  0  0  0  0  0  0  0  0  0  0  0
  -25.9970  -11.8270   20.4650 N   0  0  0  0  0  0  0  0  0  0  0  0
  -23.9780  -10.6070   20.9740 C   0  0  0  0  0  0  0  0  0  0  0  0
  -24.3870   -9.6520   21.9300 C   0  0  0  0  0  3  0  0  0  0  0  0
  -23.6550   -8.4580   22.1090 C   0  0  0  0  0  3  0  0  0  0  0  0
  -22.4990   -8.2100   21.3310 C   0  0  0  0  0  0  0  0  0  0  0  0
  -22.1090   -9.1540   20.3640 C   0  0  0  0  0  3  0  0  0  0  0  0
  -22.8420  -10.3390   20.1830 C   0  0  0  0  0  3  0  0  0  0  0  0
  -21.7430   -7.0670   21.4170 O   0  0  0  0  0  0  0  0  0  0  0  0
  -21.6410   -6.3580   22.5870 C   0  0  0  0  0  0  0  0  0  0  0  0
  -21.1230   -6.9360   23.7660 C   0  0  0  0  0  3  0  0  0  0  0  0
  -20.9730   -6.1510   24.9270 C   0  0  0  0  0  3  0  0  0  0  0  0
  -21.3300   -4.7900   24.9080 C   0  0  0  0  0  0  0  0  0  0  0  0
  -21.8400   -4.2110   23.7330 C   0  0  0  0  0  3  0  0  0  0  0  0
  -21.9920   -4.9930   22.5750 C   0  0  0  0  0  0  0  0  0  0  0  0
  -22.4650   -4.4250   21.4390 F   0  0  0  0  0  0  0  0  0  0  0  0
  -21.1770   -4.0330   26.0210 F   0  0  0  0  0  0  0  0  0  0  0  0
  -22.8550  -13.7020   21.0980 C   0  0  0  0  0  0  0  0  0  0  0  0
  -22.1280  -13.0090   21.9680 N   0  0  0  0  0  0  0  0  0  0  0  0
  -22.4200  -14.7300   20.5800 O   0  0  0  0  0  0  0  0  0  0  0  0
  -22.4950  -12.1810   22.4110 H   0  0  0  0  0  0  0  0  0  0  0  0
  -21.1930  -13.3150   22.1950 H   0  0  0  0  0  0  0  0  0  0  0  0
  -25.4800  -15.3620   20.2690 N   0  0  0  0  0  0  0  0  0  0  0  0
  -24.7140  -16.0150   20.3950 H   0  0  0  0  0  0  0  0  0  0  0  0
  -26.3210  -15.8060   19.9280 H   0  0  0  0  0  0  0  0  0  0  0  0
  -27.8770  -24.8770   19.9510 C   0  0  0  0  0  2  0  0  0  0  0  0
  -28.2410  -26.3190   20.3370 O   0  0  0  0  0  0  0  0  0  0  0  0
  -24.6260  -31.9800   23.3050 C   0  0  0  0  0  0  0  0  0  0  0  0
  -27.2020  -27.3110   20.2480 C   0  0  0  0  0  0  0  0  0  0  0  0
  -23.4220  -30.5930   21.6630 C   0  0  0  0  0  3  0  0  0  0  0  0
  -24.8700  -29.0410   20.2260 C   0  0  0  0  0  0  0  0  0  0  0  0
  -25.9750  -30.8670   21.4960 C   0  0  0  0  0  2  0  0  0  0  0  0
  -26.0500  -29.4830   20.8400 C   0  0  0  0  0  0  0  0  0  0  0  0
  -27.2160  -28.6330   20.8410 C   0  0  0  0  0  3  0  0  0  0  0  0
  -25.9980  -26.9810   19.5770 C   0  0  0  0  0  3  0  0  0  0  0  0
  -24.8560  -27.8000   19.5800 C   0  0  0  0  0  3  0  0  0  0  0  0
  -23.6410  -29.9310   20.2790 C   0  0  0  0  0  2  0  0  0  0  0  0
  -24.6940  -31.1660   22.2090 N   0  0  0  0  0  0  0  0  0  0  0  0
  -23.5410  -32.2620   23.8360 O   0  0  0  0  0  0  0  0  0  0  0  0
  -22.7480  -29.5760   22.6180 C   0  0  0  0  0  0  0  0  0  0  0  0
  -21.4230  -29.3920   22.4790 N   0  0  0  0  0  0  0  0  0  0  0  0
  -23.4180  -28.9580   23.4480 O   0  0  0  0  0  0  0  0  0  0  0  0
  -20.9380  -29.9440   21.7870 H   0  0  0  0  0  0  0  0  0  0  0  0
  -18.0460  -28.1750   22.9620 C   0  0  0  0  0  0  0  0  0  0  0  0
  -20.6010  -28.4510   23.2460 C   0  0  0  0  0  3  0  0  0  0  0  0
  -20.7140  -27.0190   22.6770 C   0  0  0  0  0  2  0  0  0  0  0  0
  -19.6210  -26.6870   21.6570 C   0  0  0  0  0  2  0  0  0  0  0  0
  -18.2340  -26.8260   22.2910 C   0  0  0  0  0  2  0  0  0  0  0  0
  -19.1580  -28.9460   23.3980 C   0  0  0  0  0  0  0  0  0  0  0  0
  -18.9260  -30.2070   23.9880 C   0  0  0  0  0  3  0  0  0  0  0  0
  -17.6170  -30.7000   24.1460 C   0  0  0  0  0  3  0  0  0  0  0  0
  -16.5200  -29.9270   23.7260 C   0  0  0  0  0  3  0  0  0  0  0  0
  -16.7350  -28.6680   23.1400 C   0  0  0  0  0  3  0  0  0  0  0  0
  -25.9060  -32.6120   23.9310 C   0  0  0  0  0  3  0  0  0  0  0  0
  -26.4090  -31.8470   25.2160 C   0  0  1  0  0  0  0  0  0  0  0  0
  -25.3040  -31.6160   26.2750 C   0  0  0  0  0  1  0  0  0  0  0  0
  -26.9950  -30.4660   24.8430 C   0  0  0  0  0  1  0  0  0  0  0  0
  -27.5520  -32.6450   25.8860 C   0  0  0  0  0  1  0  0  0  0  0  0
  -25.6000  -34.0140   24.2520 N   0  0  0  0  0  0  0  0  0  0  0  0
  -25.9150  -35.0610   23.4780 C   0  0  0  0  0  0  0  0  0  0  0  0
  -26.5610  -34.9490   22.4340 O   0  0  0  0  0  0  0  0  0  0  0  0
  -25.0220  -34.1750   25.0640 H   0  0  0  0  0  0  0  0  0  0  0  0
  -24.1700  -36.8470   23.1600 C   0  0  0  0  0  1  0  0  0  0  0  0
  -25.4380  -36.4540   23.9350 C   0  0  0  0  0  3  0  0  0  0  0  0
  -27.5900  -37.3620   24.6940 C   0  0  0  0  0  1  0  0  0  0  0  0
  -26.4630  -37.5090   23.7760 N   0  0  0  0  0  0  0  0  0  0  0  0
  -26.0570  -38.4300   23.9170 H   0  0  0  0  0  0  0  0  0  0  0  0
  2  1  1  0
  3  4  1  0
  4  1  2  0
  5  2  2  0
  6  3  2  0
  6  5  1  0
  7  9  1  1
  7  6  1  0
  8  7  1  0
 10  7  1  0
 11  4  1  0
 11 13  1  0
 11 12  1  0
 13 22  1  0
 14 22  1  0
 15 20  1  0
 16 17  1  0
 16 15  1  0
 18 17  1  0
 18 27  1  0
 18 19  1  0
 20 14  1  0
 20 19  1  0
 21 14  2  0
 22 23  1  0
 24 25  2  0
 25 44  1  0
 26 25  1  0
 26 29  1  0
 27 24  1  0
 27 28  1  0
 28 26  2  0
 29 30  1  0
 30 31  2  0
 32 35  1  0
 32 31  1  0
 33 32  2  0
 34 33  1  0
 34 29  2  0
 35 36  1  0
 36 37  1  0
 37 38  2  0
 39 38  1  0
 39 43  1  0
 40 39  2  0
 41 36  2  0
 41 40  1  0
 42 41  1  0
 44 45  1  0
 45 48  1  0
 45 47  1  0
 46 44  2  0
 49 50  1  0
 49 24  1  0
 51 49  1  0
 52  5  1  0
 52 53  1  0
 54 65  2  0
 55 53  1  0
 55 60  1  0
 56 64  1  0
 56 66  1  0
 57 63  1  0
 57 59  1  0
 58 64  1  0
 59 60  2  0
 59 58  1  0
 61 62  1  0
 61 55  2  0
 62 57  2  0
 63 56  1  0
 64 54  1  0
 66 68  2  0
 67 66  1  0
 69 67  1  0
 70 79  2  0
 70 75  1  0
 71 67  1  0
 71 75  1  0
 72 71  1  0
 73 74  1  0
 73 72  1  0
 74 70  1  0
 75 76  2  0
 76 77  1  0
 78 77  2  0
 79 78  1  0
 80 54  1  0
 80 85  1  0
 80 81  1  0
 81 84  1  1
 81 82  1  0
 83 81  1  0
 85 88  1  0
 86 90  1  0
 86 85  1  0
 87 86  2  0
 90 89  1  0
 92 93  1  0
 92 90  1  0
 92 91  1  0
M  ISO  4  14 100  22 100  52 101  53 101
M  END
>  <TORSDO>  (7) 
F 20

>  <SCORE>  (7) 
-13.960

>  <name>  (7) 
6

>  <ligand_id>  (7) 
6

>  <original_smiles>  (7) 
[H]c1c([H])c([H])c2c(c1[H])C([H])([H])C([H])([H])C([H])([H])C2([H])N([H])C(=O)C1([H])N(C(=O)C([H])(N([H])C(=O)C([H])(N([H])C([H])([H])[H])C([H])([H])[H])C(C([H])([H])[H])(C([H])([H])[H])C([H])([H])[H])C([H])([H])c2c([H])c(OC([H])([H])c3c([H])c([H])c(C([H])(F)C([H])([H])N([H])C(=O)N4C([H])([H])C([H])([H])C([H])([H])C([H])(n5nc(-c6c([H])c([H])c(Oc7c([H])c([H])c(F)c([H])c7F)c([H])c6[H])c(C(=O)N([H])[H])c5N([H])[H])C4([H])[H])c([H])c3C(F)(F)F)c([H])c([H])c2C1([H])[H]

>  <smiles>  (7) 
[H]c1c([H])c([H])c2c(c1[H])C([H])([H])C([H])([H])C([H])([H])C2([H])N([H])C(=O)C1([H])N(C(=O)C([H])(N([H])C(=O)C([H])(N([H])C([H])([H])[H])C([H])([H])[H])C(C([H])([H])[H])(C([H])([H])[H])C([H])([H])[H])C([H])([H])c2c([H])c(OC([H])([H])c3c([H])c([H])c(C([H])(F)C([H])([H])N([H])C(=O)N4C([H])([H])C([H])([H])C([H])([H])C([H])(n5nc(-c6c([H])c([H])c(Oc7c([H])c([H])c(F)c([H])c7F)c([H])c6[H])c(C(=O)N([H])[H])c5N([H])[H])C4([H])[H])c([H])c3C(F)(F)F)c([H])c([H])c2C1([H])[H]

$$$$
7:0:0
     RDKit          3D

 95103  0  0  1  0  0  0  0  0999 V2000
  -28.5350  -21.5320   20.6350 C   0  0  0  0  0  2  0  0  0  0  0  0
  -29.0520  -18.0090   20.2560 C   0  0  0  0  0  2  0  0  0  0  0  0
  -31.0930  -17.6760   21.7450 C   0  0  0  0  0  2  0  0  0  0  0  0
  -29.3690  -19.3900   19.5820 C   0  0  0  0  0  2  0  0  0  0  0  0
  -30.3530  -20.2050   21.7570 C   0  0  0  0  0  2  0  0  0  0  0  0
  -30.2920  -17.1120   20.5520 C   0  0  0  0  0  3  0  0  0  0  0  0
  -31.5020  -19.1690   21.6440 C   0  0  0  0  0  3  0  0  0  0  0  0
  -29.6840  -20.5640   20.4720 N   0  0  2  0  0  4  0  0  0  0  0  0
  -32.2360  -19.3930   20.5500 F   0  0  0  0  0  0  0  0  0  0  0  0
  -30.3820  -21.0850   19.9530 H   0  0  0  0  0  0  0  0  0  0  0  0
  -30.6660  -14.5930   20.3750 C   0  0  0  0  0  0  0  0  0  0  0  0
  -30.3810  -12.3970   19.2790 C   0  0  0  0  0  2  0  0  0  0  0  0
  -29.4400  -12.5730   18.0690 C   0  0  0  0  0  2  0  0  0  0  0  0
  -27.9670  -12.4320   18.5030 C   0  0  0  0  0  2  0  0  0  0  0  0
  -27.6240  -13.2750   19.7610 C   0  0  0  0  0  3  0  0  0  0  0  0
  -28.6870  -13.0950   20.8690 C   0  0  0  0  0  2  0  0  0  0  0  0
  -30.0010  -13.4050   20.2850 N   0  0  0  0  0  0  0  0  0  0  0  0
  -31.8140  -14.7360   19.9490 O   0  0  0  0  0  0  0  0  0  0  0  0
  -29.9350  -15.6750   20.7580 N   0  0  0  0  0  0  0  0  0  0  0  0
  -29.0040  -15.4760   21.0920 H   0  0  0  0  0  0  0  0  0  0  0  0
  -25.2270  -13.8640   20.4930 C   0  0  0  0  0  0  0  0  0  0  0  0
  -24.1650  -13.0860   20.8680 C   0  0  0  0  0  0  0  0  0  0  0  0
  -24.6320  -11.7370   20.8310 C   0  0  0  0  0  0  0  0  0  0  0  0
  -26.2750  -12.9890   20.2490 N   0  0  0  0  0  0  0  0  0  0  0  0
  -25.9200  -11.7050   20.5130 N   0  0  0  0  0  0  0  0  0  0  0  0
  -23.9120  -10.4700   21.0240 C   0  0  0  0  0  0  0  0  0  0  0  0
  -24.3450   -9.5090   21.9640 C   0  0  0  0  0  3  0  0  0  0  0  0
  -23.6240   -8.3080   22.1420 C   0  0  0  0  0  3  0  0  0  0  0  0
  -22.4590   -8.0590   21.3800 C   0  0  0  0  0  0  0  0  0  0  0  0
  -22.0460   -9.0100   20.4290 C   0  0  0  0  0  3  0  0  0  0  0  0
  -22.7660  -10.2020   20.2480 C   0  0  0  0  0  3  0  0  0  0  0  0
  -21.7110   -6.9090   21.4660 O   0  0  0  0  0  0  0  0  0  0  0  0
  -21.6520   -6.1750   22.6240 C   0  0  0  0  0  0  0  0  0  0  0  0
  -21.1810   -6.7290   23.8320 C   0  0  0  0  0  3  0  0  0  0  0  0
  -21.0700   -5.9200   24.9820 C   0  0  0  0  0  3  0  0  0  0  0  0
  -21.4200   -4.5580   24.9230 C   0  0  0  0  0  0  0  0  0  0  0  0
  -21.8850   -4.0040   23.7160 C   0  0  0  0  0  3  0  0  0  0  0  0
  -21.9980   -4.8090   22.5700 C   0  0  0  0  0  0  0  0  0  0  0  0
  -22.4260   -4.2650   21.4050 F   0  0  0  0  0  0  0  0  0  0  0  0
  -21.3080   -3.7780   26.0230 F   0  0  0  0  0  0  0  0  0  0  0  0
  -22.7680  -13.5580   21.1480 C   0  0  0  0  0  0  0  0  0  0  0  0
  -22.0390  -12.8560   22.0100 N   0  0  0  0  0  0  0  0  0  0  0  0
  -22.3250  -14.5860   20.6350 O   0  0  0  0  0  0  0  0  0  0  0  0
  -22.4070  -12.0280   22.4520 H   0  0  0  0  0  0  0  0  0  0  0  0
  -21.1010  -13.1580   22.2350 H   0  0  0  0  0  0  0  0  0  0  0  0
  -25.3860  -15.2360   20.3210 N   0  0  0  0  0  0  0  0  0  0  0  0
  -24.6200  -15.8880   20.4490 H   0  0  0  0  0  0  0  0  0  0  0  0
  -26.2230  -15.6780   19.9640 H   0  0  0  0  0  0  0  0  0  0  0  0
  -28.8650  -23.0050   21.0910 C   0  0  0  0  0  2  0  0  0  0  0  0
  -29.2250  -24.0430   19.9650 C   0  0  0  0  0  3  0  0  0  0  0  0
  -30.6900  -24.5030   20.0360 C   0  0  0  0  0  2  0  0  0  0  0  0
  -31.5290  -23.3580   19.9670 O   0  0  0  0  0  0  0  0  0  0  0  0
  -32.4290  -23.6630   19.8920 H   0  0  0  0  0  0  0  0  0  0  0  0
  -28.1880  -25.2010   19.7160 C   0  0  0  0  0  2  0  0  0  0  0  0
  -28.3530  -26.5640   20.2240 O   0  0  0  0  0  0  0  0  0  0  0  0
  -24.5820  -31.8990   23.2330 C   0  0  0  0  0  0  0  0  0  0  0  0
  -27.2210  -27.3910   20.1630 C   0  0  0  0  0  0  0  0  0  0  0  0
  -23.3890  -30.5060   21.5830 C   0  0  0  0  0  3  0  0  0  0  0  0
  -24.8480  -28.9780   20.1580 C   0  0  0  0  0  0  0  0  0  0  0  0
  -25.9290  -30.8360   21.4190 C   0  0  0  0  0  2  0  0  0  0  0  0
  -26.0120  -29.4660   20.7650 C   0  0  0  0  0  0  0  0  0  0  0  0
  -27.2010  -28.6820   20.7660 C   0  0  0  0  0  3  0  0  0  0  0  0
  -26.0310  -26.9590   19.5230 C   0  0  0  0  0  3  0  0  0  0  0  0
  -24.8570  -27.7270   19.5340 C   0  0  0  0  0  3  0  0  0  0  0  0
  -23.6100  -29.8450   20.1990 C   0  0  0  0  0  2  0  0  0  0  0  0
  -24.6510  -31.0950   22.1340 N   0  0  0  0  0  0  0  0  0  0  0  0
  -23.4950  -32.1730   23.7610 O   0  0  0  0  0  0  0  0  0  0  0  0
  -22.7290  -29.4780   22.5300 C   0  0  0  0  0  0  0  0  0  0  0  0
  -21.4040  -29.2990   22.3970 N   0  0  0  0  0  0  0  0  0  0  0  0
  -23.4050  -28.8470   23.3470 O   0  0  0  0  0  0  0  0  0  0  0  0
  -20.9180  -29.8590   21.7100 H   0  0  0  0  0  0  0  0  0  0  0  0
  -18.0190  -28.1270   22.8900 C   0  0  0  0  0  0  0  0  0  0  0  0
  -20.5800  -28.3620   23.1610 C   0  0  0  0  0  3  0  0  0  0  0  0
  -20.6700  -26.9340   22.5750 C   0  0  0  0  0  2  0  0  0  0  0  0
  -19.5650  -26.6300   21.5570 C   0  0  0  0  0  2  0  0  0  0  0  0
  -18.1840  -26.7820   22.2000 C   0  0  0  0  0  2  0  0  0  0  0  0
  -19.1440  -28.8760   23.3260 C   0  0  0  0  0  0  0  0  0  0  0  0
  -18.9360  -30.1350   23.9270 C   0  0  0  0  0  3  0  0  0  0  0  0
  -17.6350  -30.6450   24.0980 C   0  0  0  0  0  3  0  0  0  0  0  0
  -16.5240  -29.8930   23.6800 C   0  0  0  0  0  3  0  0  0  0  0  0
  -16.7180  -28.6350   23.0800 C   0  0  0  0  0  3  0  0  0  0  0  0
  -25.8620  -32.5300   23.8620 C   0  0  0  0  0  3  0  0  0  0  0  0
  -25.5530  -33.9300   24.1830 N   0  0  0  0  0  0  0  0  0  0  0  0
  -25.8920  -34.9770   23.4180 C   0  0  0  0  0  0  0  0  0  0  0  0
  -26.5680  -34.8660   22.3920 O   0  0  0  0  0  0  0  0  0  0  0  0
  -24.9560  -34.0920   24.9800 H   0  0  0  0  0  0  0  0  0  0  0  0
  -24.1750  -36.7720   23.0340 C   0  0  0  0  0  1  0  0  0  0  0  0
  -25.4030  -36.3680   23.8640 C   0  0  0  0  0  3  0  0  0  0  0  0
  -27.5280  -37.2480   24.7250 C   0  0  0  0  0  1  0  0  0  0  0  0
  -26.4410  -37.4170   23.7630 N   0  0  0  0  0  0  0  0  0  0  0  0
  -26.0360  -38.3390   23.9020 H   0  0  0  0  0  0  0  0  0  0  0  0
  -26.3640  -31.7650   25.1470 C   0  0  1  0  0  0  0  0  0  0  0  0
  -25.2610  -31.5360   26.2050 C   0  0  0  0  0  1  0  0  0  0  0  0
  -26.9480  -30.3830   24.7690 C   0  0  0  0  0  1  0  0  0  0  0  0
  -27.5100  -32.5620   25.8150 C   0  0  0  0  0  1  0  0  0  0  0  0
  1 49  1  0
  2  6  1  0
  4  2  1  0
  4  8  1  0
  6 19  1  0
  6  3  1  0
  7  9  1  0
  7  3  1  0
  7  5  1  0
  8  1  1  0
  8  5  1  0
  8 10  1  6
 11 19  1  0
 12 17  1  0
 13 14  1  0
 13 12  1  0
 15 14  1  0
 15 24  1  0
 15 16  1  0
 17 11  1  0
 17 16  1  0
 18 11  2  0
 19 20  1  0
 21 22  2  0
 22 41  1  0
 23 22  1  0
 23 26  1  0
 24 21  1  0
 24 25  1  0
 25 23  2  0
 26 27  1  0
 27 28  2  0
 29 32  1  0
 29 28  1  0
 30 29  2  0
 31 30  1  0
 31 26  2  0
 32 33  1  0
 33 34  1  0
 34 35  2  0
 36 35  1  0
 36 40  1  0
 37 36  2  0
 38 33  2  0
 38 37  1  0
 39 38  1  0
 41 42  1  0
 42 45  1  0
 42 44  1  0
 43 41  2  0
 46 47  1  0
 46 21  1  0
 48 46  1  0
 50 54  1  0
 50 51  1  0
 50 49  1  0
 52 51  1  0
 53 52  1  0
 54 55  1  0
 56 67  2  0
 57 55  1  0
 57 62  1  0
 58 66  1  0
 58 68  1  0
 59 65  1  0
 59 61  1  0
 60 66  1  0
 61 62  2  0
 61 60  1  0
 63 64  1  0
 63 57  2  0
 64 59  2  0
 65 58  1  0
 66 56  1  0
 68 70  2  0
 69 68  1  0
 71 69  1  0
 72 81  2  0
 72 77  1  0
 73 69  1  0
 73 77  1  0
 74 73  1  0
 75 76  1  0
 75 74  1  0
 76 72  1  0
 77 78  2  0
 78 79  1  0
 80 79  2  0
 81 80  1  0
 82 56  1  0
 82 83  1  0
 82 92  1  0
 83 86  1  0
 84 88  1  0
 84 83  1  0
 85 84  2  0
 88 87  1  0
 90 88  1  0
 90 91  1  0
 90 89  1  0
 92 95  1  1
 92 93  1  0
 94 92  1  0
M  ISO  4  11 100  19 100  54 101  55 101
M  END
>  <TORSDO>  (8) 
F 22

>  <SCORE>  (8) 
-13.649

>  <name>  (8) 
7

>  <ligand_id>  (8) 
7

>  <original_smiles>  (8) 
[H]OC([H])([H])C([H])(C([H])([H])Oc1c([H])c([H])c2c(c1[H])C([H])([H])N(C(=O)C([H])(N([H])C(=O)C([H])(N([H])C([H])([H])[H])C([H])([H])[H])C(C([H])([H])[H])(C([H])([H])[H])C([H])([H])[H])C([H])(C(=O)N([H])C1([H])c3c([H])c([H])c([H])c([H])c3C([H])([H])C([H])([H])C1([H])[H])C2([H])[H])C([H])([H])C([H])([H])[N+]1([H])C([H])([H])C([H])([H])C([H])(N([H])C(=O)N2C([H])([H])C([H])([H])C([H])([H])C([H])(n3nc(-c4c([H])c([H])c(Oc5c([H])c([H])c(F)c([H])c5F)c([H])c4[H])c(C(=O)N([H])[H])c3N([H])[H])C2([H])[H])C([H])([H])C([H])(F)C1([H])[H]

>  <smiles>  (8) 
[H]OC([H])([H])C([H])(C([H])([H])Oc1c([H])c([H])c2c(c1[H])C([H])([H])N(C(=O)C([H])(N([H])C(=O)C([H])(N([H])C([H])([H])[H])C([H])([H])[H])C(C([H])([H])[H])(C([H])([H])[H])C([H])([H])[H])C([H])(C(=O)N([H])C1([H])c3c([H])c([H])c([H])c([H])c3C([H])([H])C([H])([H])C1([H])[H])C2([H])[H])C([H])([H])C([H])([H])[N+]1([H])C([H])([H])C([H])([H])C([H])(N([H])C(=O)N2C([H])([H])C([H])([H])C([H])([H])C([H])(n3nc(-c4c([H])c([H])c(Oc5c([H])c([H])c(F)c([H])c5F)c([H])c4[H])c(C(=O)N([H])[H])c3N([H])[H])C2([H])[H])C([H])([H])C([H])(F)C1([H])[H]

$$$$
8:0:0
     RDKit          3D

 92100  0  0  1  0  0  0  0  0999 V2000
  -31.2350  -21.7140   22.2740 C   0  0  0  0  0  2  0  0  0  0  0  0
  -30.5780  -19.4570   21.4300 C   0  0  0  0  0  0  0  0  0  0  0  0
  -30.2980  -20.6160   22.0420 N   0  0  0  0  0  0  0  0  0  0  0  0
  -31.6440  -19.2650   20.8430 O   0  0  0  0  0  0  0  0  0  0  0  0
  -29.3960  -20.6860   22.4950 H   0  0  0  0  0  0  0  0  0  0  0  0
  -31.0310  -14.5880   20.0840 C   0  0  0  0  0  0  0  0  0  0  0  0
  -30.6270  -12.4740   18.8920 C   0  0  0  0  0  2  0  0  0  0  0  0
  -29.6460  -12.7350   17.7320 C   0  0  0  0  0  2  0  0  0  0  0  0
  -28.1950  -12.5760   18.2210 C   0  0  0  0  0  2  0  0  0  0  0  0
  -27.9090  -13.3780   19.5190 C   0  0  0  0  0  3  0  0  0  0  0  0
  -29.0130  -13.1590   20.5790 C   0  0  0  0  0  2  0  0  0  0  0  0
  -30.3140  -13.4400   19.9550 N   0  0  0  0  0  0  0  0  0  0  0  0
  -32.1410  -14.7480   19.5700 O   0  0  0  0  0  0  0  0  0  0  0  0
  -29.0910  -17.7510   20.1750 C   0  0  0  0  0  2  0  0  0  0  0  0
  -29.9210  -17.2080   22.4950 C   0  0  0  0  0  2  0  0  0  0  0  0
  -30.1030  -16.7280   19.6300 C   0  0  0  0  0  2  0  0  0  0  0  0
  -30.8970  -16.1920   21.8620 C   0  0  0  0  0  2  0  0  0  0  0  0
  -29.5070  -18.3480   21.5350 C   0  0  0  0  0  3  0  0  0  0  0  0
  -30.3760  -15.6500   20.5990 N   0  0  0  0  0  0  0  0  0  0  0  0
  -25.5280  -13.9390   20.3110 C   0  0  0  0  0  0  0  0  0  0  0  0
  -24.4860  -13.1470   20.7130 C   0  0  0  0  0  0  0  0  0  0  0  0
  -24.9670  -11.8040   20.6580 C   0  0  0  0  0  0  0  0  0  0  0  0
  -26.5790  -13.0780   20.0450 N   0  0  0  0  0  0  0  0  0  0  0  0
  -26.2480  -11.7870   20.3080 N   0  0  0  0  0  0  0  0  0  0  0  0
  -24.2670  -10.5280   20.8650 C   0  0  0  0  0  0  0  0  0  0  0  0
  -24.6850   -9.6080   21.8510 C   0  0  0  0  0  3  0  0  0  0  0  0
  -23.9840   -8.3970   22.0430 C   0  0  0  0  0  3  0  0  0  0  0  0
  -22.8520   -8.0990   21.2480 C   0  0  0  0  0  0  0  0  0  0  0  0
  -22.4530   -9.0100   20.2530 C   0  0  0  0  0  3  0  0  0  0  0  0
  -23.1540  -10.2110   20.0600 C   0  0  0  0  0  3  0  0  0  0  0  0
  -22.1270   -6.9360   21.3450 O   0  0  0  0  0  0  0  0  0  0  0  0
  -21.9720   -6.2820   22.5410 C   0  0  0  0  0  0  0  0  0  0  0  0
  -21.3830   -6.9080   23.6610 C   0  0  0  0  0  3  0  0  0  0  0  0
  -21.1810   -6.1790   24.8490 C   0  0  0  0  0  3  0  0  0  0  0  0
  -21.5550   -4.8230   24.9170 C   0  0  0  0  0  0  0  0  0  0  0  0
  -22.1340   -4.1960   23.8000 C   0  0  0  0  0  3  0  0  0  0  0  0
  -22.3400   -4.9230   22.6140 C   0  0  0  0  0  0  0  0  0  0  0  0
  -22.8790   -4.3090   21.5350 F   0  0  0  0  0  0  0  0  0  0  0  0
  -21.3540   -4.1190   26.0570 F   0  0  0  0  0  0  0  0  0  0  0  0
  -23.0920  -13.6020   21.0400 C   0  0  0  0  0  0  0  0  0  0  0  0
  -22.4190  -12.9030   21.9470 N   0  0  0  0  0  0  0  0  0  0  0  0
  -22.6110  -14.6100   20.5250 O   0  0  0  0  0  0  0  0  0  0  0  0
  -22.8210  -12.0840   22.3780 H   0  0  0  0  0  0  0  0  0  0  0  0
  -21.4900  -13.1920   22.2160 H   0  0  0  0  0  0  0  0  0  0  0  0
  -25.6640  -15.3120   20.1250 N   0  0  0  0  0  0  0  0  0  0  0  0
  -24.8840  -15.9530   20.2140 H   0  0  0  0  0  0  0  0  0  0  0  0
  -26.4940  -15.7450   19.7380 H   0  0  0  0  0  0  0  0  0  0  0  0
  -31.2350  -22.7790   21.1610 C   0  0  0  0  0  2  0  0  0  0  0  0
  -29.8510  -23.3960   20.8950 C   0  0  0  0  0  2  0  0  0  0  0  0
  -29.9220  -24.8230   20.3150 C   0  0  0  0  0  2  0  0  0  0  0  0
  -28.5290  -25.4390   20.1430 C   0  0  0  0  0  2  0  0  0  0  0  0
  -28.6360  -26.8570   20.0240 O   0  0  0  0  0  0  0  0  0  0  0  0
  -24.6850  -31.8050   23.2680 C   0  0  0  0  0  0  0  0  0  0  0  0
  -27.4440  -27.5450   20.0420 C   0  0  0  0  0  0  0  0  0  0  0  0
  -23.5240  -30.4530   21.5530 C   0  0  0  0  0  3  0  0  0  0  0  0
  -25.0220  -29.0010   20.0900 C   0  0  0  0  0  0  0  0  0  0  0  0
  -26.0480  -30.8590   21.4090 C   0  0  0  0  0  2  0  0  0  0  0  0
  -26.1630  -29.5190   20.7130 C   0  0  0  0  0  0  0  0  0  0  0  0
  -27.3790  -28.8010   20.6830 C   0  0  0  0  0  3  0  0  0  0  0  0
  -26.2810  -27.0350   19.4180 C   0  0  0  0  0  3  0  0  0  0  0  0
  -25.0750  -27.7550   19.4430 C   0  0  0  0  0  3  0  0  0  0  0  0
  -23.7620  -29.8340   20.1510 C   0  0  0  0  0  2  0  0  0  0  0  0
  -24.7700  -31.0490   22.1370 N   0  0  0  0  0  0  0  0  0  0  0  0
  -23.5930  -32.0390   23.8010 O   0  0  0  0  0  0  0  0  0  0  0  0
  -22.8780  -29.3820   22.4600 C   0  0  0  0  0  0  0  0  0  0  0  0
  -21.5590  -29.1830   22.3010 N   0  0  0  0  0  0  0  0  0  0  0  0
  -23.5600  -28.7330   23.2580 O   0  0  0  0  0  0  0  0  0  0  0  0
  -21.0720  -29.7600   21.6300 H   0  0  0  0  0  0  0  0  0  0  0  0
  -18.1900  -27.9490   22.7140 C   0  0  0  0  0  0  0  0  0  0  0  0
  -20.7440  -28.2040   23.0200 C   0  0  0  0  0  3  0  0  0  0  0  0
  -20.8600  -26.8030   22.3750 C   0  0  0  0  0  2  0  0  0  0  0  0
  -19.7680  -26.5260   21.3380 C   0  0  0  0  0  2  0  0  0  0  0  0
  -18.3790  -26.6350   21.9740 C   0  0  0  0  0  2  0  0  0  0  0  0
  -19.3020  -28.6930   23.1900 C   0  0  0  0  0  0  0  0  0  0  0  0
  -19.0740  -29.9270   23.8370 C   0  0  0  0  0  3  0  0  0  0  0  0
  -17.7650  -30.4150   24.0150 C   0  0  0  0  0  3  0  0  0  0  0  0
  -16.6680  -29.6650   23.5570 C   0  0  0  0  0  3  0  0  0  0  0  0
  -16.8810  -28.4340   22.9110 C   0  0  0  0  0  3  0  0  0  0  0  0
  -25.9530  -32.4280   23.9310 C   0  0  0  0  0  3  0  0  0  0  0  0
  -25.6400  -33.8260   24.2550 N   0  0  0  0  0  0  0  0  0  0  0  0
  -26.0150  -34.8790   23.5170 C   0  0  0  0  0  0  0  0  0  0  0  0
  -26.7330  -34.7760   22.5180 O   0  0  0  0  0  0  0  0  0  0  0  0
  -25.0120  -33.9810   25.0300 H   0  0  0  0  0  0  0  0  0  0  0  0
  -24.3370  -36.6940   23.0650 C   0  0  0  0  0  1  0  0  0  0  0  0
  -25.5150  -36.2670   23.9560 C   0  0  0  0  0  3  0  0  0  0  0  0
  -27.5960  -37.1160   24.9430 C   0  0  0  0  0  1  0  0  0  0  0  0
  -26.5640  -37.3090   23.9270 N   0  0  0  0  0  0  0  0  0  0  0  0
  -26.1610  -38.2330   24.0580 H   0  0  0  0  0  0  0  0  0  0  0  0
  -26.4270  -31.6490   25.2180 C   0  0  1  0  0  0  0  0  0  0  0  0
  -25.2990  -31.4050   26.2470 C   0  0  0  0  0  1  0  0  0  0  0  0
  -27.0220  -30.2740   24.8360 C   0  0  0  0  0  1  0  0  0  0  0  0
  -27.5550  -32.4390   25.9230 C   0  0  0  0  0  1  0  0  0  0  0  0
  2  3  1  0
  3  1  1  0
  3  5  1  0
  4  2  2  0
  6 19  1  0
  7 12  1  0
  8  9  1  0
  8  7  1  0
 10  9  1  0
 10 23  1  0
 10 11  1  0
 12  6  1  0
 12 11  1  0
 13  6  2  0
 14 18  1  0
 16 14  1  0
 16 19  1  0
 17 15  1  0
 18  2  1  0
 18 15  1  0
 19 17  1  0
 20 21  2  0
 21 40  1  0
 22 21  1  0
 22 25  1  0
 23 24  1  0
 23 20  1  0
 24 22  2  0
 25 26  1  0
 26 27  2  0
 28 31  1  0
 28 27  1  0
 29 28  2  0
 30 29  1  0
 30 25  2  0
 31 32  1  0
 32 37  2  0
 32 33  1  0
 33 34  2  0
 34 35  1  0
 35 39  1  0
 36 35  2  0
 37 36  1  0
 38 37  1  0
 40 41  1  0
 41 44  1  0
 41 43  1  0
 42 40  2  0
 45 46  1  0
 45 20  1  0
 47 45  1  0
 48  1  1  0
 49 48  1  0
 50 49  1  0
 51 50  1  0
 52 54  1  0
 52 51  1  0
 53 64  2  0
 54 59  1  0
 55 63  1  0
 55 65  1  0
 56 62  1  0
 56 58  1  0
 57 63  1  0
 58 57  1  0
 59 58  2  0
 60 61  1  0
 60 54  2  0
 61 56  2  0
 62 55  1  0
 63 53  1  0
 65 67  2  0
 66 65  1  0
 68 66  1  0
 69 78  2  0
 69 74  1  0
 70 66  1  0
 70 74  1  0
 71 70  1  0
 72 73  1  0
 72 71  1  0
 73 69  1  0
 74 75  2  0
 75 76  1  0
 77 76  2  0
 78 77  1  0
 79 53  1  0
 79 80  1  0
 79 89  1  0
 80 83  1  0
 81 85  1  0
 81 80  1  0
 82 81  2  0
 85 84  1  0
 87 85  1  0
 87 88  1  0
 87 86  1  0
 89 92  1  1
 89 90  1  0
 91 89  1  0
M  ISO  4   6 100  19 100  51 101  52 101
M  END
>  <TORSDO>  (9) 
F 21

>  <SCORE>  (9) 
-12.257

>  <name>  (9) 
8

>  <ligand_id>  (9) 
8

>  <original_smiles>  (9) 
[H]c1c([H])c([H])c2c(c1[H])C([H])([H])C([H])([H])C([H])([H])C2([H])N([H])C(=O)C1([H])N(C(=O)C([H])(N([H])C(=O)C([H])(N([H])C([H])([H])[H])C([H])([H])[H])C(C([H])([H])[H])(C([H])([H])[H])C([H])([H])[H])C([H])([H])c2c([H])c(OC([H])([H])C([H])([H])C([H])([H])C([H])([H])C([H])([H])N([H])C(=O)C3([H])C([H])([H])C([H])([H])N(C(=O)N4C([H])([H])C([H])([H])C([H])([H])C([H])(n5nc(-c6c([H])c([H])c(Oc7c([H])c([H])c(F)c([H])c7F)c([H])c6[H])c(C(=O)N([H])[H])c5N([H])[H])C4([H])[H])C([H])([H])C3([H])[H])c([H])c([H])c2C1([H])[H]

>  <smiles>  (9) 
[H]c1c([H])c([H])c2c(c1[H])C([H])([H])C([H])([H])C([H])([H])C2([H])N([H])C(=O)C1([H])N(C(=O)C([H])(N([H])C(=O)C([H])(N([H])C([H])([H])[H])C([H])([H])[H])C(C([H])([H])[H])(C([H])([H])[H])C([H])([H])[H])C([H])([H])c2c([H])c(OC([H])([H])C([H])([H])C([H])([H])C([H])([H])C([H])([H])N([H])C(=O)C3([H])C([H])([H])C([H])([H])N(C(=O)N4C([H])([H])C([H])([H])C([H])([H])C([H])(n5nc(-c6c([H])c([H])c(Oc7c([H])c([H])c(F)c([H])c7F)c([H])c6[H])c(C(=O)N([H])[H])c5N([H])[H])C4([H])[H])C([H])([H])C3([H])[H])c([H])c([H])c2C1([H])[H]

$$$$
9:0:0
     RDKit          3D

 93101  0  0  1  0  0  0  0  0999 V2000
  -30.0670  -20.9090   19.2290 C   0  0  0  0  0  3  0  0  0  0  0  0
  -28.5660  -20.4480   20.9030 C   0  0  0  0  0  3  0  0  0  0  0  0
  -29.5720  -19.8170   20.0650 C   0  0  0  0  0  0  0  0  0  0  0  0
  -28.6510  -22.9590   20.0570 C   0  0  0  0  0  0  0  0  0  0  0  0
  -29.6500  -22.3340   19.2050 C   0  0  0  0  0  0  0  0  0  0  0  0
  -28.1380  -21.8720   20.8920 C   0  0  0  0  0  0  0  0  0  0  0  0
  -30.2470  -23.1240   18.2800 F   0  0  0  0  0  0  0  0  0  0  0  0
  -27.1400  -22.1930   21.7490 F   0  0  0  0  0  0  0  0  0  0  0  0
  -27.9030  -24.5200   19.8930 C   0  0  0  0  0  2  0  0  0  0  0  0
  -28.2730  -26.0760   20.2000 O   0  0  0  0  0  0  0  0  0  0  0  0
  -24.7440  -31.9360   23.3360 C   0  0  0  0  0  0  0  0  0  0  0  0
  -27.2740  -27.1740   20.1620 C   0  0  0  0  0  0  0  0  0  0  0  0
  -23.5340  -30.5810   21.6750 C   0  0  0  0  0  3  0  0  0  0  0  0
  -24.9680  -29.0280   20.1930 C   0  0  0  0  0  0  0  0  0  0  0  0
  -26.0970  -30.8100   21.5050 C   0  0  0  0  0  2  0  0  0  0  0  0
  -26.1630  -29.4240   20.8090 C   0  0  0  0  0  0  0  0  0  0  0  0
  -27.3110  -28.5180   20.7730 C   0  0  0  0  0  3  0  0  0  0  0  0
  -26.0500  -26.9280   19.4990 C   0  0  0  0  0  3  0  0  0  0  0  0
  -24.9360  -27.7990   19.5200 C   0  0  0  0  0  3  0  0  0  0  0  0
  -23.7470  -29.9380   20.2780 C   0  0  0  0  0  2  0  0  0  0  0  0
  -24.8140  -31.1340   22.2260 N   0  0  0  0  0  0  0  0  0  0  0  0
  -23.6600  -32.2100   23.8770 O   0  0  0  0  0  0  0  0  0  0  0  0
  -22.8520  -29.5570   22.6210 C   0  0  0  0  0  0  0  0  0  0  0  0
  -21.5340  -29.3450   22.4590 N   0  0  0  0  0  0  0  0  0  0  0  0
  -23.5190  -28.9560   23.4660 O   0  0  0  0  0  0  0  0  0  0  0  0
  -21.0480  -29.8810   21.7540 H   0  0  0  0  0  0  0  0  0  0  0  0
  -18.1840  -28.0180   22.8840 C   0  0  0  0  0  0  0  0  0  0  0  0
  -20.7260  -28.3770   23.2110 C   0  0  0  0  0  3  0  0  0  0  0  0
  -20.8930  -26.9500   22.6390 C   0  0  0  0  0  2  0  0  0  0  0  0
  -19.8280  -26.5890   21.5970 C   0  0  0  0  0  2  0  0  0  0  0  0
  -18.4280  -26.6790   22.2100 C   0  0  0  0  0  2  0  0  0  0  0  0
  -19.2630  -28.8220   23.3400 C   0  0  0  0  0  0  0  0  0  0  0  0
  -18.9800  -30.0710   23.9330 C   0  0  0  0  0  3  0  0  0  0  0  0
  -17.6530  -30.5200   24.0720 C   0  0  0  0  0  3  0  0  0  0  0  0
  -16.5880  -29.7130   23.6310 C   0  0  0  0  0  3  0  0  0  0  0  0
  -16.8550  -28.4630   23.0440 C   0  0  0  0  0  3  0  0  0  0  0  0
  -26.0230  -32.5640   23.9710 C   0  0  0  0  0  3  0  0  0  0  0  0
  -26.4990  -31.8120   25.2750 C   0  0  1  0  0  0  0  0  0  0  0  0
  -25.3810  -31.6100   26.3240 C   0  0  0  0  0  1  0  0  0  0  0  0
  -27.0720  -30.4180   24.9310 C   0  0  0  0  0  1  0  0  0  0  0  0
  -27.6470  -32.6030   25.9470 C   0  0  0  0  0  1  0  0  0  0  0  0
  -25.7290  -33.9750   24.2780 N   0  0  0  0  0  0  0  0  0  0  0  0
  -26.0530  -35.0140   23.4970 C   0  0  0  0  0  0  0  0  0  0  0  0
  -26.6920  -34.8850   22.4500 O   0  0  0  0  0  0  0  0  0  0  0  0
  -25.1610  -34.1490   25.0930 H   0  0  0  0  0  0  0  0  0  0  0  0
  -24.3180  -36.8100   23.1850 C   0  0  0  0  0  1  0  0  0  0  0  0
  -25.5950  -36.4160   23.9450 C   0  0  0  0  0  3  0  0  0  0  0  0
  -27.7590  -37.3220   24.6700 C   0  0  0  0  0  1  0  0  0  0  0  0
  -26.6250  -37.4620   23.7590 N   0  0  0  0  0  0  0  0  0  0  0  0
  -26.2260  -38.3870   23.8910 H   0  0  0  0  0  0  0  0  0  0  0  0
  -30.3370  -18.2560   20.2080 C   0  0  0  0  0  0  0  0  0  0  0  0
  -30.5820  -15.4070   19.9430 C   0  0  0  0  0  0  0  0  0  0  0  0
  -30.4680  -12.9970   19.0230 C   0  0  0  0  0  2  0  0  0  0  0  0
  -29.4800  -12.8450   17.8410 C   0  0  0  0  0  2  0  0  0  0  0  0
  -28.0590  -12.5670   18.3620 C   0  0  0  0  0  2  0  0  0  0  0  0
  -27.6780  -13.5010   19.5400 C   0  0  0  0  0  3  0  0  0  0  0  0
  -28.7920  -13.6240   20.6020 C   0  0  0  0  0  2  0  0  0  0  0  0
  -29.9880  -14.1200   19.9030 N   0  0  0  0  0  0  0  0  0  0  0  0
  -31.7790  -15.3980   19.6300 O   0  0  0  0  0  0  0  0  0  0  0  0
  -29.8650  -16.6780   20.1220 N   0  0  0  0  0  4  0  0  0  0  0  0
  -28.8820  -16.5570   20.3040 H   0  0  0  0  0  0  0  0  0  0  0  0
  -25.3570  -14.0250   20.4570 C   0  0  0  0  0  0  0  0  0  0  0  0
  -24.3200  -13.2320   20.8600 C   0  0  0  0  0  0  0  0  0  0  0  0
  -24.7870  -11.8860   20.7570 C   0  0  0  0  0  0  0  0  0  0  0  0
  -26.3840  -13.1630   20.1200 N   0  0  0  0  0  0  0  0  0  0  0  0
  -26.0580  -11.8670   20.3680 N   0  0  0  0  0  0  0  0  0  0  0  0
  -24.0760  -10.6150   20.9470 C   0  0  0  0  0  0  0  0  0  0  0  0
  -24.5100   -9.6590   21.8920 C   0  0  0  0  0  3  0  0  0  0  0  0
  -23.7950   -8.4550   22.0720 C   0  0  0  0  0  3  0  0  0  0  0  0
  -22.6320   -8.1980   21.3080 C   0  0  0  0  0  0  0  0  0  0  0  0
  -22.2180   -9.1420   20.3510 C   0  0  0  0  0  3  0  0  0  0  0  0
  -22.9340  -10.3380   20.1700 C   0  0  0  0  0  3  0  0  0  0  0  0
  -21.8900   -7.0450   21.3960 O   0  0  0  0  0  0  0  0  0  0  0  0
  -21.7750   -6.3500   22.5740 C   0  0  0  0  0  0  0  0  0  0  0  0
  -21.1860   -6.9230   23.7220 C   0  0  0  0  0  3  0  0  0  0  0  0
  -21.0250   -6.1510   24.8900 C   0  0  0  0  0  3  0  0  0  0  0  0
  -21.4450   -4.8080   24.9100 C   0  0  0  0  0  0  0  0  0  0  0  0
  -22.0260   -4.2340   23.7650 C   0  0  0  0  0  3  0  0  0  0  0  0
  -22.1890   -5.0030   22.6000 C   0  0  0  0  0  0  0  0  0  0  0  0
  -22.7300   -4.4400   21.4930 F   0  0  0  0  0  0  0  0  0  0  0  0
  -21.2840   -4.0630   26.0290 F   0  0  0  0  0  0  0  0  0  0  0  0
  -22.9400  -13.6940   21.2260 C   0  0  0  0  0  0  0  0  0  0  0  0
  -22.2620  -12.9630   22.1030 N   0  0  0  0  0  0  0  0  0  0  0  0
  -22.4750  -14.7380   20.7710 O   0  0  0  0  0  0  0  0  0  0  0  0
  -22.6540  -12.1180   22.4910 H   0  0  0  0  0  0  0  0  0  0  0  0
  -21.3380  -13.2530   22.3920 H   0  0  0  0  0  0  0  0  0  0  0  0
  -25.5050  -15.4020   20.3180 N   0  0  0  0  0  0  0  0  0  0  0  0
  -24.7470  -16.0480   20.5090 H   0  0  0  0  0  0  0  0  0  0  0  0
  -26.3300  -15.8590   19.9550 H   0  0  0  0  0  0  0  0  0  0  0  0
  -31.2130  -18.3510   21.4880 C   0  0  1  0  0  0  0  0  0  0  0  0
  -31.7120  -19.5810   21.6310 F   0  0  0  0  0  0  0  0  0  0  0  0
  -30.4610  -18.0720   22.5520 F   0  0  0  0  0  0  0  0  0  0  0  0
  -32.2460  -17.5120   21.4780 F   0  0  0  0  0  0  0  0  0  0  0  0
  1  3  1  0
  3 51  1  0
  3  2  2  0
  4  6  2  0
  5  1  2  0
  5  4  1  0
  6  2  1  0
  6  8  1  0
  7  5  1  0
  9  4  1  0
  9 10  1  0
 11 22  2  0
 12 10  1  0
 12 17  1  0
 13 21  1  0
 13 23  1  0
 14 20  1  0
 14 16  1  0
 15 21  1  0
 16 15  1  0
 17 16  2  0
 18 19  1  0
 18 12  2  0
 19 14  2  0
 20 13  1  0
 21 11  1  0
 23 25  2  0
 24 23  1  0
 26 24  1  0
 27 36  2  0
 27 32  1  0
 28 24  1  0
 28 32  1  0
 29 28  1  0
 30 31  1  0
 30 29  1  0
 31 27  1  0
 32 33  2  0
 33 34  1  0
 35 34  2  0
 36 35  1  0
 37 11  1  0
 37 42  1  0
 37 38  1  0
 38 41  1  1
 38 39  1  0
 40 38  1  0
 42 45  1  0
 43 47  1  0
 43 42  1  0
 44 43  2  0
 47 46  1  0
 49 50  1  0
 49 47  1  0
 49 48  1  0
 51 90  1  0
 52 60  1  0
 53 58  1  0
 54 55  1  0
 54 53  1  0
 56 55  1  0
 56 65  1  0
 56 57  1  0
 58 52  1  0
 58 57  1  0
 59 52  2  0
 60 51  2  0
 60 61  1  0
 62 63  2  0
 63 82  1  0
 64 63  1  0
 64 67  1  0
 65 66  1  0
 65 62  1  0
 66 64  2  0
 67 68  1  0
 68 69  2  0
 70 73  1  0
 70 69  1  0
 71 70  2  0
 72 71  1  0
 72 67  2  0
 73 74  1  0
 74 79  2  0
 74 75  1  0
 75 76  2  0
 76 77  1  0
 77 81  1  0
 78 77  2  0
 79 78  1  0
 80 79  1  0
 82 83  1  0
 83 86  1  0
 83 85  1  0
 84 82  2  0
 87 62  1  0
 87 88  1  0
 89 87  1  0
 90 91  1  1
 90 92  1  0
 93 90  1  0
M  ISO  4   9 101  10 101  52 100  60 100
M  END
>  <TORSDO>  (10) 
F 19

>  <SCORE>  (10) 
-15.320

>  <name>  (10) 
9

>  <ligand_id>  (10) 
9

>  <original_smiles>  (10) 
[H]c1c([H])c([H])c2c(c1[H])C([H])([H])C([H])([H])C([H])([H])C2([H])N([H])C(=O)C1([H])N(C(=O)C([H])(N([H])C(=O)C([H])(N([H])C([H])([H])[H])C([H])([H])[H])C(C([H])([H])[H])(C([H])([H])[H])C([H])([H])[H])C([H])([H])c2c([H])c(OC([H])([H])c3c(F)c([H])c(C([H])(N([H])C(=O)N4C([H])([H])C([H])([H])C([H])([H])C([H])(n5nc(-c6c([H])c([H])c(Oc7c([H])c([H])c(F)c([H])c7F)c([H])c6[H])c(C(=O)N([H])[H])c5N([H])[H])C4([H])[H])C(F)(F)F)c([H])c3F)c([H])c([H])c2C1([H])[H]

>  <smiles>  (10) 
[H]c1c([H])c([H])c2c(c1[H])C([H])([H])C([H])([H])C([H])([H])C2([H])N([H])C(=O)C1([H])N(C(=O)C([H])(N([H])C(=O)C([H])(N([H])C([H])([H])[H])C([H])([H])[H])C(C([H])([H])[H])(C([H])([H])[H])C([H])([H])[H])C([H])([H])c2c([H])c(OC([H])([H])c3c(F)c([H])c(C([H])(N([H])C(=O)N4C([H])([H])C([H])([H])C([H])([H])C([H])(n5nc(-c6c([H])c([H])c(Oc7c([H])c([H])c(F)c([H])c7F)c([H])c6[H])c(C(=O)N([H])[H])c5N([H])[H])C4([H])[H])C(F)(F)F)c([H])c3F)c([H])c([H])c2C1([H])[H]

$$$$
10:0:0
     RDKit          3D

 95103  0  0  1  0  0  0  0  0999 V2000
  -29.2370  -21.9930   20.8340 N   0  0  0  0  0  0  0  0  0  0  0  0
  -28.4710  -22.1500   21.4830 H   0  0  0  0  0  0  0  0  0  0  0  0
  -27.7780  -18.4270   18.9280 C   0  0  0  0  0  0  0  0  0  0  0  0
  -27.3360  -19.8050   18.4100 C   0  0  0  0  0  2  0  0  0  0  0  0
  -27.5720  -20.9500   19.3860 C   0  0  0  0  0  2  0  0  0  0  0  0
  -29.0750  -19.5060   20.7690 C   0  0  0  0  0  2  0  0  0  0  0  0
  -28.9700  -20.8350   19.9870 C   0  0  0  0  0  3  0  0  0  0  0  0
  -28.6280  -18.3290   19.9900 N   0  0  0  0  0  0  0  0  0  0  0  0
  -27.3460  -17.4380   18.3280 O   0  0  0  0  0  0  0  0  0  0  0  0
  -28.9220  -16.9870   20.5350 C   0  0  0  0  0  2  0  0  0  0  0  0
  -30.3190  -16.7310   21.1410 C   0  0  0  0  0  2  0  0  0  0  0  0
  -31.0670  -14.4220   20.5490 C   0  0  0  0  0  0  0  0  0  0  0  0
  -30.7920  -12.2630   19.3790 C   0  0  0  0  0  2  0  0  0  0  0  0
  -29.8670  -12.4330   18.1560 C   0  0  0  0  0  2  0  0  0  0  0  0
  -28.3840  -12.3010   18.5570 C   0  0  0  0  0  2  0  0  0  0  0  0
  -28.0260  -13.1910   19.7740 C   0  0  0  0  0  3  0  0  0  0  0  0
  -29.0440  -12.9660   20.9150 C   0  0  0  0  0  2  0  0  0  0  0  0
  -30.4010  -13.2450   20.4020 N   0  0  0  0  0  0  0  0  0  0  0  0
  -32.0980  -14.7090   19.9350 O   0  0  0  0  0  0  0  0  0  0  0  0
  -30.4550  -15.2920   21.3690 N   0  0  0  0  0  0  0  0  0  0  0  0
  -29.7410  -14.8840   21.9540 H   0  0  0  0  0  0  0  0  0  0  0  0
  -25.6260  -13.8840   20.4260 C   0  0  0  0  0  0  0  0  0  0  0  0
  -24.5350  -13.1450   20.7900 C   0  0  0  0  0  0  0  0  0  0  0  0
  -24.9610  -11.7830   20.7800 C   0  0  0  0  0  0  0  0  0  0  0  0
  -26.6540  -12.9730   20.2240 N   0  0  0  0  0  0  0  0  0  0  0  0
  -26.2530  -11.7060   20.4940 N   0  0  0  0  0  0  0  0  0  0  0  0
  -24.2070  -10.5420   20.9690 C   0  0  0  0  0  0  0  0  0  0  0  0
  -24.5840   -9.5880   21.9390 C   0  0  0  0  0  3  0  0  0  0  0  0
  -23.8290   -8.4090   22.1120 C   0  0  0  0  0  3  0  0  0  0  0  0
  -22.6820   -8.1780   21.3150 C   0  0  0  0  0  0  0  0  0  0  0  0
  -22.3260   -9.1220   20.3340 C   0  0  0  0  0  3  0  0  0  0  0  0
  -23.0820  -10.2910   20.1590 C   0  0  0  0  0  3  0  0  0  0  0  0
  -21.9020   -7.0520   21.3980 O   0  0  0  0  0  0  0  0  0  0  0  0
  -21.7650   -6.3570   22.5730 C   0  0  0  0  0  0  0  0  0  0  0  0
  -21.2510   -6.9620   23.7400 C   0  0  0  0  0  3  0  0  0  0  0  0
  -21.0640   -6.1940   24.9070 C   0  0  0  0  0  3  0  0  0  0  0  0
  -21.3760   -4.8220   24.9040 C   0  0  0  0  0  0  0  0  0  0  0  0
  -21.8830   -4.2160   23.7410 C   0  0  0  0  0  3  0  0  0  0  0  0
  -22.0750   -4.9830   22.5780 C   0  0  0  0  0  0  0  0  0  0  0  0
  -22.5440   -4.3900   21.4530 F   0  0  0  0  0  0  0  0  0  0  0  0
  -21.1880   -4.0810   26.0220 F   0  0  0  0  0  0  0  0  0  0  0  0
  -23.1440  -13.6600   21.0360 C   0  0  0  0  0  0  0  0  0  0  0  0
  -22.3870  -12.9960   21.9020 N   0  0  0  0  0  0  0  0  0  0  0  0
  -22.7390  -14.6890   20.4940 O   0  0  0  0  0  0  0  0  0  0  0  0
  -22.7270  -12.1630   22.3620 H   0  0  0  0  0  0  0  0  0  0  0  0
  -21.4500  -13.3200   22.1030 H   0  0  0  0  0  0  0  0  0  0  0  0
  -25.8100  -15.2480   20.2250 N   0  0  0  0  0  0  0  0  0  0  0  0
  -25.0020  -15.8600   20.2230 H   0  0  0  0  0  0  0  0  0  0  0  0
  -26.5770  -15.6530   19.6980 H   0  0  0  0  0  0  0  0  0  0  0  0
  -29.4470  -23.2080   20.0330 C   0  0  0  0  0  2  0  0  0  0  0  0
  -28.5480  -24.3960   20.4640 C   0  0  1  0  0  0  0  0  0  0  0  0
  -27.2620  -24.0510   20.3740 F   0  0  0  0  0  0  0  0  0  0  0  0
  -28.8260  -24.6850   21.7360 F   0  0  0  0  0  0  0  0  0  0  0  0
  -28.7950  -25.6370   19.5720 C   0  0  0  0  0  2  0  0  0  0  0  0
  -28.5620  -26.8850   20.2290 O   0  0  0  0  0  0  0  0  0  0  0  0
  -24.6230  -31.9220   23.2390 C   0  0  0  0  0  0  0  0  0  0  0  0
  -27.3370  -27.5160   20.1890 C   0  0  0  0  0  0  0  0  0  0  0  0
  -23.4350  -30.5040   21.5950 C   0  0  0  0  0  3  0  0  0  0  0  0
  -24.9090  -28.9760   20.1790 C   0  0  0  0  0  0  0  0  0  0  0  0
  -25.9530  -30.8950   21.4020 C   0  0  0  0  0  2  0  0  0  0  0  0
  -26.0510  -29.5240   20.7690 C   0  0  0  0  0  0  0  0  0  0  0  0
  -27.2610  -28.7990   20.7730 C   0  0  0  0  0  3  0  0  0  0  0  0
  -26.1720  -26.9710   19.5980 C   0  0  0  0  0  3  0  0  0  0  0  0
  -24.9650  -27.6990   19.5900 C   0  0  0  0  0  3  0  0  0  0  0  0
  -23.6510  -29.8170   20.2190 C   0  0  0  0  0  2  0  0  0  0  0  0
  -24.6880  -31.1220   22.1370 N   0  0  0  0  0  0  0  0  0  0  0  0
  -23.5370  -32.1870   23.7730 O   0  0  0  0  0  0  0  0  0  0  0  0
  -22.7920  -29.4800   22.5580 C   0  0  0  0  0  0  0  0  0  0  0  0
  -21.4710  -29.2820   22.4230 N   0  0  0  0  0  0  0  0  0  0  0  0
  -23.4770  -28.8650   23.3800 O   0  0  0  0  0  0  0  0  0  0  0  0
  -20.9770  -29.8320   21.7340 H   0  0  0  0  0  0  0  0  0  0  0  0
  -18.1070  -28.0690   22.9150 C   0  0  0  0  0  0  0  0  0  0  0  0
  -20.6620  -28.3370   23.1910 C   0  0  0  0  0  3  0  0  0  0  0  0
  -20.7730  -26.9100   22.6070 C   0  0  0  0  0  2  0  0  0  0  0  0
  -19.6720  -26.5880   21.5920 C   0  0  0  0  0  2  0  0  0  0  0  0
  -18.2890  -26.7220   22.2370 C   0  0  0  0  0  2  0  0  0  0  0  0
  -19.2210  -28.8350   23.3490 C   0  0  0  0  0  0  0  0  0  0  0  0
  -18.9980  -30.0980   23.9380 C   0  0  0  0  0  3  0  0  0  0  0  0
  -17.6890  -30.5920   24.1060 C   0  0  0  0  0  3  0  0  0  0  0  0
  -16.5890  -29.8240   23.6880 C   0  0  0  0  0  3  0  0  0  0  0  0
  -16.7990  -28.5660   23.0960 C   0  0  0  0  0  3  0  0  0  0  0  0
  -25.9030  -32.5650   23.8610 C   0  0  0  0  0  3  0  0  0  0  0  0
  -25.5810  -33.9610   24.1820 N   0  0  0  0  0  0  0  0  0  0  0  0
  -25.9240  -35.0120   23.4250 C   0  0  0  0  0  0  0  0  0  0  0  0
  -26.6140  -34.9090   22.4070 O   0  0  0  0  0  0  0  0  0  0  0  0
  -24.9690  -34.1150   24.9690 H   0  0  0  0  0  0  0  0  0  0  0  0
  -24.2020  -36.7990   23.0170 C   0  0  0  0  0  1  0  0  0  0  0  0
  -25.4190  -36.3990   23.8660 C   0  0  0  0  0  3  0  0  0  0  0  0
  -27.5230  -37.2910   24.7630 C   0  0  0  0  0  1  0  0  0  0  0  0
  -26.4520  -37.4550   23.7840 N   0  0  0  0  0  0  0  0  0  0  0  0
  -26.0380  -38.3740   23.9130 H   0  0  0  0  0  0  0  0  0  0  0  0
  -26.4230  -31.8010   25.1400 C   0  0  1  0  0  0  0  0  0  0  0  0
  -25.3310  -31.5700   26.2120 C   0  0  0  0  0  1  0  0  0  0  0  0
  -27.0070  -30.4230   24.7540 C   0  0  0  0  0  1  0  0  0  0  0  0
  -27.5730  -32.6020   25.7950 C   0  0  0  0  0  1  0  0  0  0  0  0
  1  2  1  0
  3  8  1  0
  4  3  1  0
  4  5  1  0
  5  7  1  0
  7  6  1  0
  7  1  1  0
  8 10  1  0
  8  6  1  0
  9  3  2  0
 10 11  1  0
 11 20  1  0
 12 20  1  0
 13 18  1  0
 14 15  1  0
 14 13  1  0
 16 15  1  0
 16 25  1  0
 16 17  1  0
 18 12  1  0
 18 17  1  0
 19 12  2  0
 20 21  1  0
 22 23  2  0
 23 42  1  0
 24 23  1  0
 24 27  1  0
 25 22  1  0
 25 26  1  0
 26 24  2  0
 27 28  1  0
 28 29  2  0
 30 33  1  0
 30 29  1  0
 31 30  2  0
 32 31  1  0
 32 27  2  0
 33 34  1  0
 34 39  2  0
 34 35  1  0
 35 36  2  0
 37 36  1  0
 37 41  1  0
 38 37  2  0
 39 38  1  0
 40 39  1  0
 42 43  1  0
 43 46  1  0
 43 45  1  0
 44 42  2  0
 47 22  1  0
 48 47  1  0
 49 47  1  0
 50 51  1  0
 50  1  1  0
 51 53  1  1
 52 51  1  0
 54 55  1  0
 54 51  1  0
 56 67  2  0
 57 55  1  0
 57 62  1  0
 58 66  1  0
 58 68  1  0
 59 65  1  0
 59 61  1  0
 60 66  1  0
 61 62  2  0
 61 60  1  0
 63 57  2  0
 64 63  1  0
 64 59  2  0
 65 58  1  0
 66 56  1  0
 68 70  2  0
 69 68  1  0
 71 69  1  0
 72 81  2  0
 72 77  1  0
 73 69  1  0
 73 77  1  0
 74 73  1  0
 75 76  1  0
 75 74  1  0
 76 72  1  0
 77 78  2  0
 78 79  1  0
 80 79  2  0
 81 80  1  0
 82 56  1  0
 82 83  1  0
 82 92  1  0
 83 86  1  0
 84 88  1  0
 84 83  1  0
 85 84  2  0
 88 87  1  0
 90 88  1  0
 90 91  1  0
 90 89  1  0
 92 95  1  1
 92 93  1  0
 94 92  1  0
M  ISO  4  12 100  20 100  54 101  55 101
M  END
>  <TORSDO>  (11) 
F 22

>  <SCORE>  (11) 
-13.165

>  <name>  (11) 
10

>  <ligand_id>  (11) 
10

>  <original_smiles>  (11) 
[H]c1c([H])c([H])c2c(c1[H])C([H])([H])C([H])([H])C([H])([H])C2([H])N([H])C(=O)C1([H])N(C(=O)C([H])(N([H])C(=O)C([H])(N([H])C([H])([H])[H])C([H])([H])[H])C(C([H])([H])[H])(C([H])([H])[H])C([H])([H])[H])C([H])([H])c2c([H])c(OC([H])([H])C(F)(F)C([H])([H])N([H])C3([H])C([H])([H])N(C([H])([H])C([H])([H])N([H])C(=O)N4C([H])([H])C([H])([H])C([H])([H])C([H])(n5nc(-c6c([H])c([H])c(Oc7c([H])c([H])c(F)c([H])c7F)c([H])c6[H])c(C(=O)N([H])[H])c5N([H])[H])C4([H])[H])C(=O)C([H])([H])C3([H])[H])c([H])c([H])c2C1([H])[H]

>  <smiles>  (11) 
[H]c1c([H])c([H])c2c(c1[H])C([H])([H])C([H])([H])C([H])([H])C2([H])N([H])C(=O)C1([H])N(C(=O)C([H])(N([H])C(=O)C([H])(N([H])C([H])([H])[H])C([H])([H])[H])C(C([H])([H])[H])(C([H])([H])[H])C([H])([H])[H])C([H])([H])c2c([H])c(OC([H])([H])C(F)(F)C([H])([H])N([H])C3([H])C([H])([H])N(C([H])([H])C([H])([H])N([H])C(=O)N4C([H])([H])C([H])([H])C([H])([H])C([H])(n5nc(-c6c([H])c([H])c(Oc7c([H])c([H])c(F)c([H])c7F)c([H])c6[H])c(C(=O)N([H])[H])c5N([H])[H])C4([H])[H])C(=O)C([H])([H])C3([H])[H])c([H])c([H])c2C1([H])[H]

$$$$
11:0:0
     RDKit          3D

 98107  0  0  1  0  0  0  0  0999 V2000
  -29.4740  -21.0160   18.3850 C   0  0  0  0  0  2  0  0  0  0  0  0
  -27.3650  -22.0320   18.9030 C   0  0  0  0  0  2  0  0  0  0  0  0
  -28.7970  -20.1860   19.4880 C   0  0  0  0  0  3  0  0  0  0  0  0
  -27.8690  -21.2330   20.1130 C   0  0  0  0  0  3  0  0  0  0  0  0
  -28.3720  -21.8440   17.8320 N   0  0  1  0  0  4  0  0  0  0  0  0
  -28.5610  -22.0550   20.9060 F   0  0  0  0  0  0  0  0  0  0  0  0
  -27.8970  -21.2060   17.2050 H   0  0  0  0  0  0  0  0  0  0  0  0
  -29.4300  -19.4280   21.8410 C   0  0  0  0  0  3  0  0  0  0  0  0
  -30.1780  -18.6430   22.7360 C   0  0  0  0  0  3  0  0  0  0  0  0
  -30.7270  -18.5520   19.9810 C   0  0  0  0  0  3  0  0  0  0  0  0
  -31.4690  -17.7340   20.8680 C   0  0  0  0  0  0  0  0  0  0  0  0
  -29.6910  -19.3930   20.4520 C   0  0  0  0  0  0  0  0  0  0  0  0
  -31.1860  -17.7850   22.2520 C   0  0  0  0  0  0  0  0  0  0  0  0
  -31.8680  -17.0080   23.1270 F   0  0  0  0  0  0  0  0  0  0  0  0
  -32.8140  -14.5080   19.6820 C   0  0  0  0  0  0  0  0  0  0  0  0
  -32.2950  -12.2900   18.7200 C   0  0  0  0  0  2  0  0  0  0  0  0
  -31.2730  -12.4540   17.5770 C   0  0  0  0  0  2  0  0  0  0  0  0
  -29.8330  -12.4640   18.1300 C   0  0  0  0  0  2  0  0  0  0  0  0
  -29.6530  -13.4510   19.3150 C   0  0  0  0  0  3  0  0  0  0  0  0
  -30.7630  -13.2100   20.3660 C   0  0  0  0  0  2  0  0  0  0  0  0
  -32.0700  -13.3690   19.6960 N   0  0  0  0  0  0  0  0  0  0  0  0
  -33.8570  -14.6040   19.0240 O   0  0  0  0  0  0  0  0  0  0  0  0
  -32.5390  -16.8360   20.3110 C   0  0  0  0  0  0  0  0  0  0  0  0
  -32.2500  -15.5230   20.3610 N   0  0  0  0  0  0  0  0  0  0  0  0
  -33.5340  -17.3360   19.7750 O   0  0  0  0  0  0  0  0  0  0  0  0
  -31.4280  -15.2880   20.8890 H   0  0  0  0  0  0  0  0  0  0  0  0
  -27.4310  -14.3500   20.2700 C   0  0  0  0  0  0  0  0  0  0  0  0
  -26.3000  -13.7130   20.7090 C   0  0  0  0  0  0  0  0  0  0  0  0
  -26.5610  -12.3140   20.5740 C   0  0  0  0  0  0  0  0  0  0  0  0
  -28.3170  -13.3470   19.9010 N   0  0  0  0  0  0  0  0  0  0  0  0
  -27.7980  -12.1160   20.1350 N   0  0  0  0  0  0  0  0  0  0  0  0
  -25.6850  -11.1520   20.7750 C   0  0  0  0  0  0  0  0  0  0  0  0
  -25.8730  -10.2650   21.8580 C   0  0  0  0  0  3  0  0  0  0  0  0
  -25.0070   -9.1660   22.0430 C   0  0  0  0  0  3  0  0  0  0  0  0
  -23.9390   -8.9440   21.1420 C   0  0  0  0  0  0  0  0  0  0  0  0
  -23.7710   -9.8140   20.0500 C   0  0  0  0  0  3  0  0  0  0  0  0
  -24.6380  -10.9050   19.8640 C   0  0  0  0  0  3  0  0  0  0  0  0
  -23.0680   -7.8850   21.2250 O   0  0  0  0  0  0  0  0  0  0  0  0
  -22.5220   -7.4960   22.4210 C   0  0  0  0  0  0  0  0  0  0  0  0
  -21.8260   -8.4000   23.2520 C   0  0  0  0  0  3  0  0  0  0  0  0
  -21.2210   -7.9450   24.4400 C   0  0  0  0  0  3  0  0  0  0  0  0
  -21.3020   -6.5850   24.7950 C   0  0  0  0  0  0  0  0  0  0  0  0
  -21.9920   -5.6810   23.9690 C   0  0  0  0  0  3  0  0  0  0  0  0
  -22.5990   -6.1360   22.7840 C   0  0  0  0  0  0  0  0  0  0  0  0
  -23.2430   -5.2570   21.9800 F   0  0  0  0  0  0  0  0  0  0  0  0
  -20.7150   -6.1440   25.9330 F   0  0  0  0  0  0  0  0  0  0  0  0
  -25.0130  -14.3590   21.1390 C   0  0  0  0  0  0  0  0  0  0  0  0
  -24.1990  -13.6490   21.9140 N   0  0  0  0  0  0  0  0  0  0  0  0
  -24.7420  -15.5180   20.8270 O   0  0  0  0  0  0  0  0  0  0  0  0
  -24.4290  -12.7060   22.1890 H   0  0  0  0  0  0  0  0  0  0  0  0
  -23.3330  -14.0560   22.2390 H   0  0  0  0  0  0  0  0  0  0  0  0
  -27.7750  -15.6920   20.1430 N   0  0  0  0  0  0  0  0  0  0  0  0
  -27.1310  -16.4410   20.3760 H   0  0  0  0  0  0  0  0  0  0  0  0
  -28.6430  -16.0260   19.7440 H   0  0  0  0  0  0  0  0  0  0  0  0
  -28.7030  -23.0020   16.9440 C   0  0  0  0  0  2  0  0  0  0  0  0
  -29.7310  -24.0540   17.4590 C   0  0  0  0  0  2  0  0  0  0  0  0
  -29.3250  -24.9790   18.6360 C   0  0  0  0  0  2  0  0  0  0  0  0
  -29.3100  -26.3800   18.3260 O   0  0  0  0  0  0  0  0  0  0  0  0
  -25.9270  -29.7740   23.6070 C   0  0  0  0  0  0  0  0  0  0  0  0
  -28.1960  -27.0760   18.7390 C   0  0  0  0  0  0  0  0  0  0  0  0
  -24.5970  -29.3420   21.5730 C   0  0  0  0  0  3  0  0  0  0  0  0
  -25.9100  -28.5280   19.5480 C   0  0  0  0  0  0  0  0  0  0  0  0
  -27.1380  -29.6190   21.4320 C   0  0  0  0  0  2  0  0  0  0  0  0
  -27.1180  -28.6790   20.2440 C   0  0  0  0  0  0  0  0  0  0  0  0
  -28.2670  -27.9620   19.8380 C   0  0  0  0  0  3  0  0  0  0  0  0
  -26.9720  -26.9400   18.0520 C   0  0  0  0  0  3  0  0  0  0  0  0
  -25.8300  -27.6540   18.4520 C   0  0  0  0  0  3  0  0  0  0  0  0
  -24.7320  -29.3410   20.0270 C   0  0  0  0  0  2  0  0  0  0  0  0
  -25.9100  -29.5580   22.2620 N   0  0  0  0  0  0  0  0  0  0  0  0
  -24.8760  -29.8370   24.2600 O   0  0  0  0  0  0  0  0  0  0  0  0
  -23.8850  -28.0380   21.9990 C   0  0  0  0  0  0  0  0  0  0  0  0
  -22.5610  -27.9810   21.7820 N   0  0  0  0  0  0  0  0  0  0  0  0
  -24.5230  -27.0970   22.4810 O   0  0  0  0  0  0  0  0  0  0  0  0
  -22.1110  -28.7950   21.3850 H   0  0  0  0  0  0  0  0  0  0  0  0
  -19.1690  -26.7610   21.5330 C   0  0  0  0  0  0  0  0  0  0  0  0
  -21.6970  -26.8320   22.0590 C   0  0  0  0  0  3  0  0  0  0  0  0
  -21.8570  -25.7400   20.9740 C   0  0  0  0  0  2  0  0  0  0  0  0
  -20.8250  -25.8570   19.8460 C   0  0  0  0  0  2  0  0  0  0  0  0
  -19.4020  -25.7700   20.4050 C   0  0  0  0  0  2  0  0  0  0  0  0
  -20.2480  -27.2670   22.3040 C   0  0  0  0  0  0  0  0  0  0  0  0
  -19.9830  -28.2120   23.3190 C   0  0  0  0  0  3  0  0  0  0  0  0
  -18.6680  -28.6430   23.5750 C   0  0  0  0  0  3  0  0  0  0  0  0
  -17.6000  -28.1270   22.8180 C   0  0  0  0  0  3  0  0  0  0  0  0
  -17.8520  -27.1900   21.8020 C   0  0  0  0  0  3  0  0  0  0  0  0
  -27.2630  -29.9790   24.3850 C   0  0  0  0  0  3  0  0  0  0  0  0
  -27.6870  -28.7190   25.2360 C   0  0  1  0  0  0  0  0  0  0  0  0
  -26.5620  -28.1890   26.1540 C   0  0  0  0  0  1  0  0  0  0  0  0
  -28.1290  -27.5590   24.3100 C   0  0  0  0  0  1  0  0  0  0  0  0
  -28.9030  -29.0710   26.1240 C   0  0  0  0  0  1  0  0  0  0  0  0
  -27.1020  -31.1610   25.2430 N   0  0  0  0  0  0  0  0  0  0  0  0
  -27.6630  -32.3530   25.0030 C   0  0  0  0  0  0  0  0  0  0  0  0
  -28.4420  -32.5550   24.0670 O   0  0  0  0  0  0  0  0  0  0  0  0
  -26.4320  -31.0870   25.9940 H   0  0  0  0  0  0  0  0  0  0  0  0
  -26.2990  -34.4480   25.2760 C   0  0  0  0  0  1  0  0  0  0  0  0
  -27.3050  -33.5070   25.9590 C   0  0  0  0  0  3  0  0  0  0  0  0
  -29.3560  -33.5320   27.3080 C   0  0  0  0  0  1  0  0  0  0  0  0
  -28.4820  -34.2830   26.4100 N   0  0  0  0  0  0  0  0  0  0  0  0
  -28.1900  -35.1330   26.8860 H   0  0  0  0  0  0  0  0  0  0  0  0
  1  3  1  0
  2  4  1  0
  3  4  1  0
  3 12  1  0
  4  6  1  0
  5  1  1  0
  5  2  1  0
  5  7  1  6
  8  9  1  0
 10 12  1  0
 10 11  2  0
 11 13  1  0
 12  8  2  0
 13  9  2  0
 13 14  1  0
 15 21  1  0
 15 24  1  0
 16 21  1  0
 17 18  1  0
 17 16  1  0
 19 18  1  0
 19 30  1  0
 19 20  1  0
 21 20  1  0
 22 15  2  0
 23 24  1  0
 23 11  1  0
 24 26  1  0
 25 23  2  0
 27 28  2  0
 28 47  1  0
 29 28  1  0
 29 32  1  0
 30 31  1  0
 30 27  1  0
 31 29  2  0
 32 33  1  0
 33 34  2  0
 35 38  1  0
 35 34  1  0
 36 35  2  0
 37 36  1  0
 37 32  2  0
 38 39  1  0
 39 44  2  0
 39 40  1  0
 40 41  2  0
 41 42  1  0
 42 46  1  0
 43 42  2  0
 44 43  1  0
 45 44  1  0
 47 48  1  0
 48 50  1  0
 48 51  1  0
 49 47  2  0
 52 27  1  0
 52 53  1  0
 54 52  1  0
 55 56  1  0
 55  5  1  0
 56 57  1  0
 58 57  1  0
 58 60  1  0
 59 70  2  0
 60 65  1  0
 61 71  1  0
 61 69  1  0
 62 68  1  0
 62 64  1  0
 63 69  1  0
 64 63  1  0
 65 64  2  0
 66 67  1  0
 66 60  2  0
 67 62  2  0
 68 61  1  0
 69 59  1  0
 71 73  2  0
 72 71  1  0
 74 72  1  0
 75 84  2  0
 75 80  1  0
 76 72  1  0
 76 80  1  0
 77 76  1  0
 78 79  1  0
 78 77  1  0
 79 75  1  0
 80 81  2  0
 81 82  1  0
 83 82  2  0
 84 83  1  0
 85 59  1  0
 85 86  1  0
 85 90  1  0
 86 89  1  1
 86 87  1  0
 88 86  1  0
 90 93  1  0
 91 90  1  0
 91 95  1  0
 92 91  2  0
 95 94  1  0
 95 97  1  0
 97 98  1  0
 97 96  1  0
M  ISO  4  15 100  24 100  57 101  58 101
M  END
>  <TORSDO>  (12) 
F 20

>  <SCORE>  (12) 
-5.712

>  <name>  (12) 
11

>  <ligand_id>  (12) 
11

>  <original_smiles>  (12) 
[H]c1c([H])c([H])c2c(c1[H])C([H])([H])C([H])([H])C([H])([H])C2([H])N([H])C(=O)C1([H])N(C(=O)C([H])(N([H])C(=O)C([H])(N([H])C([H])([H])[H])C([H])([H])[H])C(C([H])([H])[H])(C([H])([H])[H])C([H])([H])[H])C([H])([H])c2c([H])c(OC([H])([H])C([H])([H])C([H])([H])[N+]3([H])C([H])([H])C([H])(F)C([H])(c4c([H])c([H])c(F)c(C(=O)N([H])C(=O)N5C([H])([H])C([H])([H])C([H])([H])C([H])(n6nc(-c7c([H])c([H])c(Oc8c([H])c([H])c(F)c([H])c8F)c([H])c7[H])c(C(=O)N([H])[H])c6N([H])[H])C5([H])[H])c4[H])C3([H])[H])c([H])c([H])c2C1([H])[H]

>  <smiles>  (12) 
[H]c1c([H])c([H])c2c(c1[H])C([H])([H])C([H])([H])C([H])([H])C2([H])N([H])C(=O)C1([H])N(C(=O)C([H])(N([H])C(=O)C([H])(N([H])C([H])([H])[H])C([H])([H])[H])C(C([H])([H])[H])(C([H])([H])[H])C([H])([H])[H])C([H])([H])c2c([H])c(OC([H])([H])C([H])([H])C([H])([H])[N+]3([H])C([H])([H])C([H])(F)C([H])(c4c([H])c([H])c(F)c(C(=O)N([H])C(=O)N5C([H])([H])C([H])([H])C([H])([H])C([H])(n6nc(-c7c([H])c([H])c(Oc8c([H])c([H])c(F)c([H])c8F)c([H])c7[H])c(C(=O)N([H])[H])c6N([H])[H])C5([H])[H])c4[H])C3([H])[H])c([H])c([H])c2C1([H])[H]

$$$$
12:0:0
     RDKit          3D

 95103  0  0  1  0  0  0  0  0999 V2000
  -29.2360  -21.8000   19.7630 C   0  0  0  0  0  0  0  0  0  0  0  0
  -29.6230  -22.0340   18.6140 O   0  0  0  0  0  0  0  0  0  0  0  0
  -30.9330  -17.9440   21.5230 C   0  0  0  0  0  3  0  0  0  0  0  0
  -30.9530  -19.2130   22.1510 C   0  0  0  0  0  3  0  0  0  0  0  0
  -29.6710  -20.3410   20.3620 C   0  0  0  0  0  0  0  0  0  0  0  0
  -30.2700  -17.7250   20.2980 C   0  0  0  0  0  0  0  0  0  0  0  0
  -30.3440  -20.3690   21.6030 C   0  0  0  0  0  0  0  0  0  0  0  0
  -29.6500  -18.9720   19.7360 C   0  0  0  0  0  0  0  0  0  0  0  0
  -30.4530  -21.5380   22.2790 F   0  0  0  0  0  0  0  0  0  0  0  0
  -29.0030  -18.8370   18.5540 F   0  0  0  0  0  0  0  0  0  0  0  0
  -30.9180  -15.0510   19.9020 C   0  0  0  0  0  0  0  0  0  0  0  0
  -30.7450  -12.6880   18.9490 C   0  0  0  0  0  2  0  0  0  0  0  0
  -29.7460  -12.6120   17.7720 C   0  0  0  0  0  2  0  0  0  0  0  0
  -28.3070  -12.4100   18.2850 C   0  0  0  0  0  2  0  0  0  0  0  0
  -27.9620  -13.3530   19.4670 C   0  0  0  0  0  3  0  0  0  0  0  0
  -29.0760  -13.3820   20.5320 C   0  0  0  0  0  2  0  0  0  0  0  0
  -30.3020  -13.7980   19.8390 N   0  0  0  0  0  0  0  0  0  0  0  0
  -32.1370  -15.0770   19.6900 O   0  0  0  0  0  0  0  0  0  0  0  0
  -30.1340  -16.2510   19.8420 N   0  0  0  0  0  0  0  0  0  0  0  0
  -29.1950  -16.0420   19.5410 H   0  0  0  0  0  0  0  0  0  0  0  0
  -25.6390  -13.9690   20.3400 C   0  0  0  0  0  0  0  0  0  0  0  0
  -24.5810  -13.2110   20.7560 C   0  0  0  0  0  0  0  0  0  0  0  0
  -25.0170  -11.8510   20.6910 C   0  0  0  0  0  0  0  0  0  0  0  0
  -26.6520  -13.0730   20.0380 N   0  0  0  0  0  0  0  0  0  0  0  0
  -26.2920  -11.7940   20.3190 N   0  0  0  0  0  0  0  0  0  0  0  0
  -24.2760  -10.6030   20.9060 C   0  0  0  0  0  0  0  0  0  0  0  0
  -24.6900   -9.6520   21.8650 C   0  0  0  0  0  3  0  0  0  0  0  0
  -23.9480   -8.4680   22.0660 C   0  0  0  0  0  3  0  0  0  0  0  0
  -22.7790   -8.2260   21.3080 C   0  0  0  0  0  0  0  0  0  0  0  0
  -22.3840   -9.1640   20.3380 C   0  0  0  0  0  3  0  0  0  0  0  0
  -23.1260  -10.3390   20.1350 C   0  0  0  0  0  3  0  0  0  0  0  0
  -22.0090   -7.0930   21.4170 O   0  0  0  0  0  0  0  0  0  0  0  0
  -21.8910   -6.4160   22.6050 C   0  0  0  0  0  0  0  0  0  0  0  0
  -21.3720   -7.0310   23.7650 C   0  0  0  0  0  3  0  0  0  0  0  0
  -21.2020   -6.2780   24.9440 C   0  0  0  0  0  3  0  0  0  0  0  0
  -21.5420   -4.9120   24.9650 C   0  0  0  0  0  0  0  0  0  0  0  0
  -22.0530   -4.2970   23.8090 C   0  0  0  0  0  3  0  0  0  0  0  0
  -22.2250   -5.0470   22.6310 C   0  0  0  0  0  0  0  0  0  0  0  0
  -22.6970   -4.4430   21.5140 F   0  0  0  0  0  0  0  0  0  0  0  0
  -21.3710   -4.1870   26.0950 F   0  0  0  0  0  0  0  0  0  0  0  0
  -23.2070  -13.7130   21.0940 C   0  0  0  0  0  0  0  0  0  0  0  0
  -22.5110  -13.0300   21.9940 N   0  0  0  0  0  0  0  0  0  0  0  0
  -22.7630  -14.7460   20.5950 O   0  0  0  0  0  0  0  0  0  0  0  0
  -22.8840  -12.1940   22.4190 H   0  0  0  0  0  0  0  0  0  0  0  0
  -21.5900  -13.3470   22.2650 H   0  0  0  0  0  0  0  0  0  0  0  0
  -25.8180  -15.3390   20.1640 N   0  0  0  0  0  0  0  0  0  0  0  0
  -25.0640  -16.0010   20.3120 H   0  0  0  0  0  0  0  0  0  0  0  0
  -26.6510  -15.7690   19.7850 H   0  0  0  0  0  0  0  0  0  0  0  0
  -28.2220  -23.0200   20.4090 C   0  0  0  0  0  3  0  0  0  0  0  0
  -27.0610  -23.0310   19.4970 N   0  0  0  0  0  4  0  0  0  0  0  0
  -27.2960  -23.5220   18.6510 H   0  0  0  0  0  0  0  0  0  0  0  0
  -26.2590  -23.4580   19.9230 H   0  0  0  0  0  0  0  0  0  0  0  0
  -26.8170  -22.0900   19.2390 H   0  0  0  0  0  0  0  0  0  0  0  0
  -28.5800  -24.6350   20.8620 C   0  0  0  0  0  2  0  0  0  0  0  0
  -28.4580  -26.0770   20.2280 O   0  0  0  0  0  0  0  0  0  0  0  0
  -24.7270  -31.8110   23.1900 C   0  0  0  0  0  0  0  0  0  0  0  0
  -27.3600  -27.0200   20.2970 C   0  0  0  0  0  0  0  0  0  0  0  0
  -23.5530  -30.3780   21.5660 C   0  0  0  0  0  3  0  0  0  0  0  0
  -25.0230  -28.7690   20.2010 C   0  0  0  0  0  0  0  0  0  0  0  0
  -26.1090  -30.6440   21.4240 C   0  0  0  0  0  2  0  0  0  0  0  0
  -26.1960  -29.2320   20.8110 C   0  0  0  0  0  0  0  0  0  0  0  0
  -27.3670  -28.3780   20.8330 C   0  0  0  0  0  3  0  0  0  0  0  0
  -26.1580  -26.6610   19.6540 C   0  0  0  0  0  3  0  0  0  0  0  0
  -25.0170  -27.4960   19.6080 C   0  0  0  0  0  3  0  0  0  0  0  0
  -23.7950  -29.6680   20.2060 C   0  0  0  0  0  2  0  0  0  0  0  0
  -24.8160  -30.9700   22.1140 N   0  0  0  0  0  0  0  0  0  0  0  0
  -23.6330  -32.1010   23.6990 O   0  0  0  0  0  0  0  0  0  0  0  0
  -22.8660  -29.3890   22.5410 C   0  0  0  0  0  0  0  0  0  0  0  0
  -21.5400  -29.2070   22.4000 N   0  0  0  0  0  0  0  0  0  0  0  0
  -23.5290  -28.7840   23.3870 O   0  0  0  0  0  0  0  0  0  0  0  0
  -21.0620  -29.7460   21.6920 H   0  0  0  0  0  0  0  0  0  0  0  0
  -18.1630  -27.9770   22.8700 C   0  0  0  0  0  0  0  0  0  0  0  0
  -20.7140  -28.2790   23.1780 C   0  0  0  0  0  3  0  0  0  0  0  0
  -20.8430  -26.8330   22.6430 C   0  0  0  0  0  2  0  0  0  0  0  0
  -19.7650  -26.4710   21.6170 C   0  0  0  0  0  2  0  0  0  0  0  0
  -18.3690  -26.6140   22.2310 C   0  0  0  0  0  2  0  0  0  0  0  0
  -19.2640  -28.7650   23.3010 C   0  0  0  0  0  0  0  0  0  0  0  0
  -19.0160  -30.0380   23.8590 C   0  0  0  0  0  3  0  0  0  0  0  0
  -17.7020  -30.5240   23.9900 C   0  0  0  0  0  3  0  0  0  0  0  0
  -16.6160  -29.7340   23.5750 C   0  0  0  0  0  3  0  0  0  0  0  0
  -16.8470  -28.4620   23.0200 C   0  0  0  0  0  3  0  0  0  0  0  0
  -25.9930  -32.4660   23.8220 C   0  0  0  0  0  3  0  0  0  0  0  0
  -26.5070  -31.7070   25.1080 C   0  0  1  0  0  0  0  0  0  0  0  0
  -25.4070  -31.4590   26.1670 C   0  0  0  0  0  1  0  0  0  0  0  0
  -27.1160  -30.3380   24.7330 C   0  0  0  0  0  1  0  0  0  0  0  0
  -27.6400  -32.5210   25.7770 C   0  0  0  0  0  1  0  0  0  0  0  0
  -25.6610  -33.8620   24.1500 N   0  0  0  0  0  0  0  0  0  0  0  0
  -25.9890  -34.9230   23.4000 C   0  0  0  0  0  0  0  0  0  0  0  0
  -26.6700  -34.8300   22.3750 O   0  0  0  0  0  0  0  0  0  0  0  0
  -25.0590  -34.0080   24.9470 H   0  0  0  0  0  0  0  0  0  0  0  0
  -24.2500  -36.7050   23.0350 C   0  0  0  0  0  1  0  0  0  0  0  0
  -25.4850  -36.3060   23.8590 C   0  0  0  0  0  3  0  0  0  0  0  0
  -27.5990  -37.2090   24.7220 C   0  0  0  0  0  1  0  0  0  0  0  0
  -26.5090  -37.3680   23.7620 N   0  0  0  0  0  0  0  0  0  0  0  0
  -26.0930  -38.2840   23.9060 H   0  0  0  0  0  0  0  0  0  0  0  0
  1  5  1  0
  1 49  1  0
  2  1  2  0
  3  4  1  0
  5  7  1  0
  6  3  2  0
  7  4  2  0
  7  9  1  0
  8  6  1  0
  8  5  2  0
 10  8  1  0
 12 17  1  0
 13 14  1  0
 13 12  1  0
 15 14  1  0
 15 24  1  0
 15 16  1  0
 17 11  1  0
 17 16  1  0
 18 11  2  0
 19 11  1  0
 19  6  1  0
 20 19  1  0
 21 22  2  0
 22 41  1  0
 23 22  1  0
 23 26  1  0
 24 25  1  0
 24 21  1  0
 25 23  2  0
 26 27  1  0
 27 28  2  0
 29 32  1  0
 29 28  1  0
 30 29  2  0
 31 30  1  0
 31 26  2  0
 32 33  1  0
 33 38  2  0
 33 34  1  0
 34 35  2  0
 35 36  1  0
 36 40  1  0
 37 36  2  0
 38 37  1  0
 39 38  1  0
 41 42  1  0
 42 45  1  0
 42 44  1  0
 43 41  2  0
 46 47  1  0
 46 21  1  0
 48 46  1  0
 49 54  1  0
 50 52  1  0
 50 49  1  0
 51 50  1  0
 53 50  1  0
 55 57  1  0
 55 54  1  0
 56 67  2  0
 57 62  1  0
 58 66  1  0
 58 68  1  0
 59 65  1  0
 59 61  1  0
 60 66  1  0
 61 62  2  0
 61 60  1  0
 63 57  2  0
 64 63  1  0
 64 59  2  0
 65 58  1  0
 66 56  1  0
 68 70  2  0
 69 68  1  0
 71 69  1  0
 72 81  2  0
 72 77  1  0
 73 69  1  0
 73 77  1  0
 74 73  1  0
 75 76  1  0
 75 74  1  0
 76 72  1  0
 77 78  2  0
 78 79  1  0
 80 79  2  0
 81 80  1  0
 82 56  1  0
 82 87  1  0
 82 83  1  0
 83 86  1  1
 83 84  1  0
 85 83  1  0
 87 90  1  0
 88 92  1  0
 88 87  1  0
 89 88  2  0
 92 91  1  0
 94 92  1  0
 94 95  1  0
 94 93  1  0
M  ISO  4  11 100  19 100  54 101  55 101
M  END
>  <TORSDO>  (13) 
F 20

>  <SCORE>  (13) 
-15.149

>  <name>  (13) 
12

>  <ligand_id>  (13) 
12

>  <original_smiles>  (13) 
[H]c1c([H])c([H])c2c(c1[H])C([H])([H])C([H])([H])C([H])([H])C2([H])N([H])C(=O)C1([H])N(C(=O)C([H])(N([H])C(=O)C([H])(N([H])C([H])([H])[H])C([H])([H])[H])C(C([H])([H])[H])(C([H])([H])[H])C([H])([H])[H])C([H])([H])c2c([H])c(OC([H])([H])C([H])(C(=O)c3c(F)c([H])c([H])c(N([H])C(=O)N4C([H])([H])C([H])([H])C([H])([H])C([H])(n5nc(-c6c([H])c([H])c(Oc7c([H])c([H])c(F)c([H])c7F)c([H])c6[H])c(C(=O)N([H])[H])c5N([H])[H])C4([H])[H])c3F)[N+]([H])([H])[H])c([H])c([H])c2C1([H])[H]

>  <smiles>  (13) 
[H]c1c([H])c([H])c2c(c1[H])C([H])([H])C([H])([H])C([H])([H])C2([H])N([H])C(=O)C1([H])N(C(=O)C([H])(N([H])C(=O)C([H])(N([H])C([H])([H])[H])C([H])([H])[H])C(C([H])([H])[H])(C([H])([H])[H])C([H])([H])[H])C([H])([H])c2c([H])c(OC([H])([H])C([H])(C(=O)c3c(F)c([H])c([H])c(N([H])C(=O)N4C([H])([H])C([H])([H])C([H])([H])C([H])(n5nc(-c6c([H])c([H])c(Oc7c([H])c([H])c(F)c([H])c7F)c([H])c6[H])c(C(=O)N([H])[H])c5N([H])[H])C4([H])[H])c3F)[N+]([H])([H])[H])c([H])c([H])c2C1([H])[H]

$$$$
13:0:0
     RDKit          3D

 96105  0  0  1  0  0  0  0  0999 V2000
  -30.4580  -21.5190   18.2750 C   0  0  0  0  0  2  0  0  0  0  0  0
  -31.5250  -20.8000   19.1060 C   0  0  0  0  0  2  0  0  0  0  0  0
  -29.2050  -21.4470   19.1430 C   0  0  0  0  0  2  0  0  0  0  0  0
  -30.9490  -20.7000   20.5420 C   0  0  0  0  0  3  0  0  0  0  0  0
  -29.6890  -21.5340   20.5430 N   0  0  1  0  0  4  0  0  0  0  0  0
  -29.0070  -21.1000   21.1480 H   0  0  0  0  0  0  0  0  0  0  0  0
  -30.9490  -19.1180   22.5360 C   0  0  0  0  0  3  0  0  0  0  0  0
  -30.9470  -17.8550   23.1630 C   0  0  0  0  0  3  0  0  0  0  0  0
  -30.7380  -18.0330   20.3670 C   0  0  0  0  0  3  0  0  0  0  0  0
  -30.8420  -19.2490   21.1320 C   0  0  0  0  0  0  0  0  0  0  0  0
  -30.7620  -16.7490   20.9990 C   0  0  0  0  0  0  0  0  0  0  0  0
  -30.8460  -16.6790   22.4030 C   0  0  0  0  0  0  0  0  0  0  0  0
  -30.8010  -15.4770   23.0290 F   0  0  0  0  0  0  0  0  0  0  0  0
  -31.3450  -14.4610   20.1060 C   0  0  0  0  0  0  0  0  0  0  0  0
  -30.9620  -12.2870   18.9720 C   0  0  0  0  0  2  0  0  0  0  0  0
  -30.0230  -12.5800   17.7800 C   0  0  0  0  0  2  0  0  0  0  0  0
  -28.5450  -12.5510   18.2270 C   0  0  0  0  0  2  0  0  0  0  0  0
  -28.2850  -13.3770   19.5150 C   0  0  0  0  0  3  0  0  0  0  0  0
  -29.3360  -13.0480   20.6010 C   0  0  0  0  0  2  0  0  0  0  0  0
  -30.6630  -13.2840   20.0080 N   0  0  0  0  0  0  0  0  0  0  0  0
  -32.5210  -14.5920   19.7480 O   0  0  0  0  0  0  0  0  0  0  0  0
  -30.5230  -15.5170   20.3080 N   0  0  0  0  0  0  0  0  0  0  0  0
  -29.5760  -15.1830   20.4130 H   0  0  0  0  0  0  0  0  0  0  0  0
  -25.9570  -14.1640   20.2750 C   0  0  0  0  0  0  0  0  0  0  0  0
  -24.8410  -13.4720   20.6560 C   0  0  0  0  0  0  0  0  0  0  0  0
  -25.1960  -12.0900   20.6010 C   0  0  0  0  0  0  0  0  0  0  0  0
  -26.9260  -13.2060   20.0130 N   0  0  0  0  0  0  0  0  0  0  0  0
  -26.4710  -11.9540   20.2640 N   0  0  0  0  0  0  0  0  0  0  0  0
  -24.3820  -10.8850   20.7910 C   0  0  0  0  0  0  0  0  0  0  0  0
  -24.7480   -9.8860   21.7190 C   0  0  0  0  0  3  0  0  0  0  0  0
  -23.9380   -8.7430   21.8960 C   0  0  0  0  0  3  0  0  0  0  0  0
  -22.7480   -8.5950   21.1440 C   0  0  0  0  0  0  0  0  0  0  0  0
  -22.4040   -9.5790   20.2030 C   0  0  0  0  0  3  0  0  0  0  0  0
  -23.2120  -10.7120   20.0240 C   0  0  0  0  0  3  0  0  0  0  0  0
  -21.9140   -7.5050   21.2320 O   0  0  0  0  0  0  0  0  0  0  0  0
  -21.7870   -6.7870   22.3940 C   0  0  0  0  0  0  0  0  0  0  0  0
  -21.3970   -7.3950   23.6080 C   0  0  0  0  0  3  0  0  0  0  0  0
  -21.2120   -6.6080   24.7600 C   0  0  0  0  0  3  0  0  0  0  0  0
  -21.4060   -5.2150   24.7030 C   0  0  0  0  0  0  0  0  0  0  0  0
  -21.7880   -4.6070   23.4930 C   0  0  0  0  0  3  0  0  0  0  0  0
  -21.9760   -5.3900   22.3430 C   0  0  0  0  0  0  0  0  0  0  0  0
  -22.3250   -4.7990   21.1750 F   0  0  0  0  0  0  0  0  0  0  0  0
  -21.2190   -4.4560   25.8070 F   0  0  0  0  0  0  0  0  0  0  0  0
  -23.4910  -14.0510   20.9620 C   0  0  0  0  0  0  0  0  0  0  0  0
  -22.7370  -13.4080   21.8470 N   0  0  0  0  0  0  0  0  0  0  0  0
  -23.1150  -15.1040   20.4470 O   0  0  0  0  0  0  0  0  0  0  0  0
  -23.0560  -12.5520   22.2750 H   0  0  0  0  0  0  0  0  0  0  0  0
  -21.8280  -13.7710   22.0960 H   0  0  0  0  0  0  0  0  0  0  0  0
  -26.2190  -15.5210   20.1100 N   0  0  0  0  0  0  0  0  0  0  0  0
  -25.4920  -16.2160   20.2580 H   0  0  0  0  0  0  0  0  0  0  0  0
  -27.0680  -15.9150   19.7300 H   0  0  0  0  0  0  0  0  0  0  0  0
  -29.8990  -22.9560   21.0460 C   0  0  0  0  0  2  0  0  0  0  0  0
  -28.6690  -23.9240   20.9180 C   0  0  0  0  0  0  0  0  0  0  0  0
  -27.5720  -23.4930   20.5510 O   0  0  0  0  0  0  0  0  0  0  0  0
  -28.8030  -25.4230   21.3620 C   0  0  0  0  0  2  0  0  0  0  0  0
  -28.6620  -26.4040   20.2840 O   0  0  0  0  0  0  0  0  0  0  0  0
  -24.6860  -31.6590   23.1020 C   0  0  0  0  0  0  0  0  0  0  0  0
  -27.5040  -27.1670   20.2550 C   0  0  0  0  0  0  0  0  0  0  0  0
  -23.5660  -30.2140   21.4330 C   0  0  0  0  0  3  0  0  0  0  0  0
  -25.0990  -28.6720   20.0940 C   0  0  0  0  0  0  0  0  0  0  0  0
  -26.0920  -30.6080   21.3240 C   0  0  0  0  0  2  0  0  0  0  0  0
  -26.2240  -29.2180   20.7250 C   0  0  0  0  0  0  0  0  0  0  0  0
  -27.4340  -28.4780   20.7940 C   0  0  0  0  0  3  0  0  0  0  0  0
  -26.3640  -26.6450   19.6110 C   0  0  0  0  0  3  0  0  0  0  0  0
  -25.1670  -27.3870   19.5250 C   0  0  0  0  0  3  0  0  0  0  0  0
  -23.8410  -29.5130   20.0730 C   0  0  0  0  0  2  0  0  0  0  0  0
  -24.7960  -30.8490   22.0100 N   0  0  0  0  0  0  0  0  0  0  0  0
  -23.5820  -31.9150   23.6040 O   0  0  0  0  0  0  0  0  0  0  0  0
  -22.8900  -29.2030   22.3880 C   0  0  0  0  0  0  0  0  0  0  0  0
  -21.5650  -29.0330   22.2490 N   0  0  0  0  0  0  0  0  0  0  0  0
  -23.5590  -28.5700   23.2100 O   0  0  0  0  0  0  0  0  0  0  0  0
  -21.0850  -29.5930   21.5560 H   0  0  0  0  0  0  0  0  0  0  0  0
  -18.1690  -27.8930   22.7400 C   0  0  0  0  0  0  0  0  0  0  0  0
  -20.7330  -28.1000   23.0090 C   0  0  0  0  0  3  0  0  0  0  0  0
  -20.8080  -26.6750   22.4130 C   0  0  0  0  0  2  0  0  0  0  0  0
  -19.7000  -26.3910   21.3950 C   0  0  0  0  0  2  0  0  0  0  0  0
  -18.3220  -26.5520   22.0410 C   0  0  0  0  0  2  0  0  0  0  0  0
  -19.3020  -28.6280   23.1780 C   0  0  0  0  0  0  0  0  0  0  0  0
  -19.1050  -29.8890   23.7830 C   0  0  0  0  0  3  0  0  0  0  0  0
  -17.8100  -30.4090   23.9610 C   0  0  0  0  0  3  0  0  0  0  0  0
  -16.6910  -29.6700   23.5370 C   0  0  0  0  0  3  0  0  0  0  0  0
  -16.8730  -28.4130   22.9320 C   0  0  0  0  0  3  0  0  0  0  0  0
  -25.9390  -32.3180   23.7610 C   0  0  0  0  0  3  0  0  0  0  0  0
  -26.4630  -31.5360   25.0270 C   0  0  1  0  0  0  0  0  0  0  0  0
  -25.3650  -31.2410   26.0740 C   0  0  0  0  0  1  0  0  0  0  0  0
  -27.0950  -30.1870   24.6150 C   0  0  0  0  0  1  0  0  0  0  0  0
  -27.5760  -32.3510   25.7260 C   0  0  0  0  0  1  0  0  0  0  0  0
  -25.5770  -33.6970   24.1140 N   0  0  0  0  0  0  0  0  0  0  0  0
  -25.8860  -34.7760   23.3810 C   0  0  0  0  0  0  0  0  0  0  0  0
  -26.5760  -34.7170   22.3590 O   0  0  0  0  0  0  0  0  0  0  0  0
  -24.9670  -33.8150   24.9100 H   0  0  0  0  0  0  0  0  0  0  0  0
  -24.0970  -36.5060   23.0360 C   0  0  0  0  0  1  0  0  0  0  0  0
  -25.3420  -36.1360   23.8590 C   0  0  0  0  0  3  0  0  0  0  0  0
  -27.4340  -37.0760   24.7360 C   0  0  0  0  0  1  0  0  0  0  0  0
  -26.3370  -37.2300   23.7840 N   0  0  0  0  0  0  0  0  0  0  0  0
  -25.8910  -38.1280   23.9540 H   0  0  0  0  0  0  0  0  0  0  0  0
  1  2  1  0
  1  3  1  0
  2  4  1  0
  3  5  1  0
  4  5  1  0
  4 10  1  0
  5 52  1  0
  5  6  1  1
  7  8  1  0
  9 11  2  0
  9 10  1  0
 10  7  2  0
 11 12  1  0
 12 13  1  0
 12  8  2  0
 14 22  1  0
 15 20  1  0
 16 17  1  0
 16 15  1  0
 18 17  1  0
 18 27  1  0
 18 19  1  0
 20 14  1  0
 20 19  1  0
 21 14  2  0
 22 23  1  0
 22 11  1  0
 24 25  2  0
 25 44  1  0
 26 25  1  0
 26 29  1  0
 27 28  1  0
 27 24  1  0
 28 26  2  0
 29 30  1  0
 30 31  2  0
 32 35  1  0
 32 31  1  0
 33 32  2  0
 34 33  1  0
 34 29  2  0
 35 36  1  0
 36 37  1  0
 37 38  2  0
 39 38  1  0
 39 43  1  0
 40 39  2  0
 41 36  2  0
 41 40  1  0
 42 41  1  0
 44 45  1  0
 45 48  1  0
 45 47  1  0
 46 44  2  0
 49 50  1  0
 49 24  1  0
 51 49  1  0
 53 52  1  0
 53 55  1  0
 54 53  2  0
 56 55  1  0
 57 68  2  0
 58 56  1  0
 58 63  1  0
 59 67  1  0
 59 69  1  0
 60 62  1  0
 61 67  1  0
 62 63  2  0
 62 61  1  0
 64 58  2  0
 65 64  1  0
 65 60  2  0
 66 60  1  0
 66 59  1  0
 67 57  1  0
 69 71  2  0
 70 69  1  0
 72 70  1  0
 73 82  2  0
 73 78  1  0
 74 70  1  0
 74 78  1  0
 75 74  1  0
 76 77  1  0
 76 75  1  0
 77 73  1  0
 78 79  2  0
 79 80  1  0
 81 80  2  0
 82 81  1  0
 83 57  1  0
 83 88  1  0
 83 84  1  0
 84 87  1  1
 84 85  1  0
 86 84  1  0
 88 91  1  0
 89 93  1  0
 89 88  1  0
 90 89  2  0
 93 92  1  0
 95 93  1  0
 95 96  1  0
 95 94  1  0
M  ISO  4  14 100  22 100  55 101  56 101
M  END
>  <TORSDO>  (14) 
F 20

>  <SCORE>  (14) 
-12.382

>  <name>  (14) 
13

>  <ligand_id>  (14) 
13

>  <original_smiles>  (14) 
[H]c1c([H])c([H])c2c(c1[H])C([H])([H])C([H])([H])C([H])([H])C2([H])N([H])C(=O)C1([H])N(C(=O)C([H])(N([H])C(=O)C([H])(N([H])C([H])([H])[H])C([H])([H])[H])C(C([H])([H])[H])(C([H])([H])[H])C([H])([H])[H])C([H])([H])c2c([H])c(OC([H])([H])C(=O)C([H])([H])[N+]3([H])C([H])([H])C([H])([H])C([H])([H])C3([H])c3c([H])c([H])c(F)c(N([H])C(=O)N4C([H])([H])C([H])([H])C([H])([H])C([H])(n5nc(-c6c([H])c([H])c(Oc7c([H])c([H])c(F)c([H])c7F)c([H])c6[H])c(C(=O)N([H])[H])c5N([H])[H])C4([H])[H])c3[H])c([H])c([H])c2C1([H])[H]

>  <smiles>  (14) 
[H]c1c([H])c([H])c2c(c1[H])C([H])([H])C([H])([H])C([H])([H])C2([H])N([H])C(=O)C1([H])N(C(=O)C([H])(N([H])C(=O)C([H])(N([H])C([H])([H])[H])C([H])([H])[H])C(C([H])([H])[H])(C([H])([H])[H])C([H])([H])[H])C([H])([H])c2c([H])c(OC([H])([H])C(=O)C([H])([H])[N+]3([H])C([H])([H])C([H])([H])C([H])([H])C3([H])c3c([H])c([H])c(F)c(N([H])C(=O)N4C([H])([H])C([H])([H])C([H])([H])C([H])(n5nc(-c6c([H])c([H])c(Oc7c([H])c([H])c(F)c([H])c7F)c([H])c6[H])c(C(=O)N([H])[H])c5N([H])[H])C4([H])[H])c3[H])c([H])c([H])c2C1([H])[H]

$$$$
14:0:0
     RDKit          3D

 99108  0  0  1  0  0  0  0  0999 V2000
  -29.5470  -23.6170   24.4190 C   0  0  0  0  0  2  0  0  0  0  0  0
  -29.6650  -22.0870   24.4440 C   0  0  0  0  0  2  0  0  0  0  0  0
  -29.0290  -24.1070   23.0580 C   0  0  0  0  0  2  0  0  0  0  0  0
  -29.9870  -22.1280   21.9430 C   0  0  0  0  0  2  0  0  0  0  0  0
  -30.5660  -21.6030   23.2850 C   0  0  0  0  0  3  0  0  0  0  0  0
  -29.8890  -23.6180   21.9440 N   0  0  1  0  0  4  0  0  0  0  0  0
  -30.8230  -23.9550   22.1210 H   0  0  0  0  0  0  0  0  0  0  0  0
  -30.7570  -20.0650   23.3690 C   0  0  0  0  0  2  0  0  0  0  0  0
  -30.6330  -19.2230   22.0670 C   0  0  0  0  0  2  0  0  0  0  0  0
  -33.6560  -20.4460   20.1560 C   0  0  0  0  0  2  0  0  0  0  0  0
  -33.6980  -18.9380   19.8800 C   0  0  0  0  0  2  0  0  0  0  0  0
  -32.5630  -20.6150   21.2090 C   0  0  0  0  0  2  0  0  0  0  0  0
  -32.4730  -18.3470   20.6050 C   0  0  0  0  0  3  0  0  0  0  0  0
  -31.6080  -19.5100   20.9640 N   0  0  1  0  0  4  0  0  0  0  0  0
  -31.0850  -19.7710   20.1430 H   0  0  0  0  0  0  0  0  0  0  0  0
  -31.7810  -17.2330   19.7820 C   0  0  0  0  0  2  0  0  0  0  0  0
  -32.3940  -14.8660   20.4180 C   0  0  0  0  0  0  0  0  0  0  0  0
  -32.2630  -12.4210   20.7510 C   0  0  0  0  0  2  0  0  0  0  0  0
  -31.4870  -11.7490   19.5990 C   0  0  0  0  0  2  0  0  0  0  0  0
  -29.9680  -11.7850   19.8580 C   0  0  0  0  0  2  0  0  0  0  0  0
  -29.4640  -13.1970   20.2570 C   0  0  0  0  0  3  0  0  0  0  0  0
  -30.3430  -13.7730   21.3880 C   0  0  0  0  0  2  0  0  0  0  0  0
  -31.7500  -13.7850   20.9310 N   0  0  0  0  0  0  0  0  0  0  0  0
  -33.4800  -14.8120   19.8300 O   0  0  0  0  0  0  0  0  0  0  0  0
  -31.7140  -16.0040   20.5730 N   0  0  0  0  0  0  0  0  0  0  0  0
  -30.9100  -15.9100   21.1730 H   0  0  0  0  0  0  0  0  0  0  0  0
  -27.1810  -14.2380   20.8600 C   0  0  0  0  0  0  0  0  0  0  0  0
  -25.9570  -13.6750   21.1090 C   0  0  0  0  0  0  0  0  0  0  0  0
  -26.1440  -12.2630   20.9990 C   0  0  0  0  0  0  0  0  0  0  0  0
  -28.0490  -13.1780   20.6290 N   0  0  0  0  0  0  0  0  0  0  0  0
  -27.4200  -11.9830   20.7640 N   0  0  0  0  0  0  0  0  0  0  0  0
  -25.1720  -11.1630   21.0480 C   0  0  0  0  0  0  0  0  0  0  0  0
  -25.3460  -10.0680   21.9220 C   0  0  0  0  0  3  0  0  0  0  0  0
  -24.3920   -9.0300   21.9680 C   0  0  0  0  0  3  0  0  0  0  0  0
  -23.2470   -9.0810   21.1370 C   0  0  0  0  0  0  0  0  0  0  0  0
  -23.0920  -10.1610   20.2520 C   0  0  0  0  0  3  0  0  0  0  0  0
  -24.0440  -11.1930   20.2040 C   0  0  0  0  0  3  0  0  0  0  0  0
  -22.2810   -8.1060   21.0940 O   0  0  0  0  0  0  0  0  0  0  0  0
  -21.9530   -7.3640   22.2000 C   0  0  0  0  0  0  0  0  0  0  0  0
  -21.5710   -7.9710   23.4160 C   0  0  0  0  0  3  0  0  0  0  0  0
  -21.1820   -7.1710   24.5090 C   0  0  0  0  0  3  0  0  0  0  0  0
  -21.1590   -5.7680   24.3840 C   0  0  0  0  0  0  0  0  0  0  0  0
  -21.5330   -5.1640   23.1710 C   0  0  0  0  0  3  0  0  0  0  0  0
  -21.9270   -5.9610   22.0810 C   0  0  0  0  0  0  0  0  0  0  0  0
  -22.2650   -5.3730   20.9090 F   0  0  0  0  0  0  0  0  0  0  0  0
  -20.7760   -5.0000   25.4300 F   0  0  0  0  0  0  0  0  0  0  0  0
  -24.6640  -14.4060   21.3360 C   0  0  0  0  0  0  0  0  0  0  0  0
  -23.7730  -13.8380   22.1430 N   0  0  0  0  0  0  0  0  0  0  0  0
  -24.4570  -15.5100   20.8350 O   0  0  0  0  0  0  0  0  0  0  0  0
  -23.9510  -12.9460   22.5770 H   0  0  0  0  0  0  0  0  0  0  0  0
  -22.8970  -14.3080   22.3290 H   0  0  0  0  0  0  0  0  0  0  0  0
  -27.6220  -15.5550   20.7950 N   0  0  0  0  0  0  0  0  0  0  0  0
  -26.9890  -16.3410   20.8870 H   0  0  0  0  0  0  0  0  0  0  0  0
  -28.5600  -15.8310   20.5350 H   0  0  0  0  0  0  0  0  0  0  0  0
  -29.4960  -24.1890   20.6280 C   0  0  0  0  0  2  0  0  0  0  0  0
  -30.3640  -25.4040   20.2260 C   0  0  0  0  0  2  0  0  0  0  0  0
  -29.6660  -26.2690   19.1800 C   0  0  0  0  0  0  0  0  0  0  0  0
  -29.4170  -25.8440   18.0470 O   0  0  0  0  0  0  0  0  0  0  0  0
  -29.3190  -27.4800   19.6720 O   0  0  0  0  0  0  0  0  0  0  0  0
  -24.7020  -31.3640   23.3850 C   0  0  0  0  0  0  0  0  0  0  0  0
  -28.0200  -27.9450   19.7070 C   0  0  0  0  0  0  0  0  0  0  0  0
  -23.7230  -29.9700   21.5900 C   0  0  0  0  0  3  0  0  0  0  0  0
  -25.3830  -28.9400   19.9600 C   0  0  0  0  0  0  0  0  0  0  0  0
  -26.1310  -30.8270   21.4220 C   0  0  0  0  0  2  0  0  0  0  0  0
  -26.4410  -29.6000   20.5920 C   0  0  0  0  0  0  0  0  0  0  0  0
  -27.7580  -29.1130   20.4610 C   0  0  0  0  0  3  0  0  0  0  0  0
  -26.9260  -27.2770   19.0990 C   0  0  0  0  0  3  0  0  0  0  0  0
  -25.6180  -27.7760   19.2120 C   0  0  0  0  0  3  0  0  0  0  0  0
  -24.0060  -29.5330   20.1290 C   0  0  0  0  0  2  0  0  0  0  0  0
  -24.8670  -30.7290   22.1900 N   0  0  0  0  0  0  0  0  0  0  0  0
  -23.6120  -31.3530   23.9710 O   0  0  0  0  0  0  0  0  0  0  0  0
  -23.3180  -28.7300   22.4150 C   0  0  0  0  0  0  0  0  0  0  0  0
  -22.1030  -28.2150   22.1670 N   0  0  0  0  0  0  0  0  0  0  0  0
  -24.0930  -28.2370   23.2380 O   0  0  0  0  0  0  0  0  0  0  0  0
  -21.5220  -28.6790   21.4820 H   0  0  0  0  0  0  0  0  0  0  0  0
  -19.2480  -26.0020   22.1300 C   0  0  0  0  0  0  0  0  0  0  0  0
  -21.5200  -27.0320   22.8010 C   0  0  0  0  0  3  0  0  0  0  0  0
  -22.1580  -25.7350   22.2500 C   0  0  0  0  0  2  0  0  0  0  0  0
  -21.3800  -25.1360   21.0750 C   0  0  0  0  0  2  0  0  0  0  0  0
  -19.9410  -24.8110   21.4890 C   0  0  0  0  0  2  0  0  0  0  0  0
  -19.9890  -27.0540   22.7300 C   0  0  0  0  0  0  0  0  0  0  0  0
  -19.2970  -28.1570   23.2750 C   0  0  0  0  0  3  0  0  0  0  0  0
  -17.8900  -28.2150   23.2350 C   0  0  0  0  0  3  0  0  0  0  0  0
  -17.1590  -27.1650   22.6530 C   0  0  0  0  0  3  0  0  0  0  0  0
  -17.8380  -26.0600   22.1060 C   0  0  0  0  0  3  0  0  0  0  0  0
  -25.8660  -32.1550   24.0590 C   0  0  0  0  0  3  0  0  0  0  0  0
  -25.4060  -33.5350   24.2720 N   0  0  0  0  0  0  0  0  0  0  0  0
  -25.7260  -34.5720   23.4870 C   0  0  0  0  0  0  0  0  0  0  0  0
  -26.5130  -34.4780   22.5410 O   0  0  0  0  0  0  0  0  0  0  0  0
  -24.7340  -33.6780   25.0100 H   0  0  0  0  0  0  0  0  0  0  0  0
  -23.9190  -36.1840   22.8120 C   0  0  0  0  0  1  0  0  0  0  0  0
  -25.0700  -35.9300   23.8010 C   0  0  0  0  0  3  0  0  0  0  0  0
  -27.0250  -37.0070   24.8240 C   0  0  0  0  0  1  0  0  0  0  0  0
  -26.0190  -37.0670   23.7670 N   0  0  0  0  0  0  0  0  0  0  0  0
  -25.5250  -37.9510   23.8530 H   0  0  0  0  0  0  0  0  0  0  0  0
  -26.3480  -31.5140   25.4200 C   0  0  1  0  0  0  0  0  0  0  0  0
  -25.1940  -31.1820   26.3920 C   0  0  0  0  0  1  0  0  0  0  0  0
  -27.1400  -30.2070   25.1730 C   0  0  0  0  0  1  0  0  0  0  0  0
  -27.3130  -32.4820   26.1450 C   0  0  0  0  0  1  0  0  0  0  0  0
  1  2  1  0
  3  1  1  0
  4  6  1  0
  4  5  1  0
  5  8  1  0
  5  2  1  0
  6  7  1  1
  6  3  1  0
  9  8  1  0
 10 12  1  0
 11 10  1  0
 11 13  1  0
 13 16  1  0
 13 14  1  0
 14 12  1  0
 14  9  1  0
 14 15  1  6
 16 25  1  0
 17 25  1  0
 17 23  1  0
 18 23  1  0
 19 20  1  0
 19 18  1  0
 21 20  1  0
 21 30  1  0
 21 22  1  0
 23 22  1  0
 24 17  2  0
 25 26  1  0
 27 28  2  0
 28 47  1  0
 29 32  1  0
 29 28  1  0
 30 31  1  0
 30 27  1  0
 31 29  2  0
 32 33  1  0
 33 34  2  0
 35 34  1  0
 36 35  2  0
 37 36  1  0
 37 32  2  0
 38 35  1  0
 38 39  1  0
 39 40  1  0
 40 41  2  0
 42 41  1  0
 42 46  1  0
 43 42  2  0
 44 39  2  0
 44 43  1  0
 45 44  1  0
 47 48  1  0
 48 51  1  0
 48 50  1  0
 49 47  2  0
 52 27  1  0
 52 53  1  0
 54 52  1  0
 55  6  1  0
 56 55  1  0
 57 59  1  0
 57 56  1  0
 58 57  2  0
 59 61  1  0
 60 71  2  0
 61 66  1  0
 62 70  1  0
 62 72  1  0
 63 69  1  0
 63 65  1  0
 64 70  1  0
 65 64  1  0
 66 65  2  0
 67 68  1  0
 67 61  2  0
 68 63  2  0
 69 62  1  0
 70 60  1  0
 72 74  2  0
 73 72  1  0
 75 73  1  0
 76 81  1  0
 77 73  1  0
 78 77  1  0
 79 80  1  0
 79 78  1  0
 80 76  1  0
 81 77  1  0
 81 82  2  0
 83 82  1  0
 84 83  2  0
 85 76  2  0
 85 84  1  0
 86 60  1  0
 86 87  1  0
 86 96  1  0
 87 90  1  0
 88 92  1  0
 88 87  1  0
 89 88  2  0
 92 91  1  0
 94 92  1  0
 94 95  1  0
 94 93  1  0
 96 99  1  1
 96 97  1  0
 98 96  1  0
M  ISO  4  17 100  25 100  57 101  59 101
M  END
>  <TORSDO>  (15) 
F 23

>  <SCORE>  (15) 
-8.589

>  <name>  (15) 
14

>  <ligand_id>  (15) 
14

>  <original_smiles>  (15) 
[H]c1c([H])c([H])c2c(c1[H])C([H])([H])C([H])([H])C([H])([H])C2([H])N([H])C(=O)C1([H])N(C(=O)C([H])(N([H])C(=O)C([H])(N([H])C([H])([H])[H])C([H])([H])[H])C(C([H])([H])[H])(C([H])([H])[H])C([H])([H])[H])C([H])([H])c2c([H])c(OC(=O)C([H])([H])C([H])([H])[N+]3([H])C([H])([H])C([H])([H])C([H])([H])C([H])(C([H])([H])C([H])([H])[N+]4([H])C([H])([H])C([H])([H])C([H])([H])C4([H])C([H])([H])N([H])C(=O)N4C([H])([H])C([H])([H])C([H])([H])C([H])(n5nc(-c6c([H])c([H])c(Oc7c([H])c([H])c(F)c([H])c7F)c([H])c6[H])c(C(=O)N([H])[H])c5N([H])[H])C4([H])[H])C3([H])[H])c([H])c([H])c2C1([H])[H]

>  <smiles>  (15) 
[H]c1c([H])c([H])c2c(c1[H])C([H])([H])C([H])([H])C([H])([H])C2([H])N([H])C(=O)C1([H])N(C(=O)C([H])(N([H])C(=O)C([H])(N([H])C([H])([H])[H])C([H])([H])[H])C(C([H])([H])[H])(C([H])([H])[H])C([H])([H])[H])C([H])([H])c2c([H])c(OC(=O)C([H])([H])C([H])([H])[N+]3([H])C([H])([H])C([H])([H])C([H])([H])C([H])(C([H])([H])C([H])([H])[N+]4([H])C([H])([H])C([H])([H])C([H])([H])C4([H])C([H])([H])N([H])C(=O)N4C([H])([H])C([H])([H])C([H])([H])C([H])(n5nc(-c6c([H])c([H])c(Oc7c([H])c([H])c(F)c([H])c7F)c([H])c6[H])c(C(=O)N([H])[H])c5N([H])[H])C4([H])[H])C3([H])[H])c([H])c([H])c2C1([H])[H]

$$$$
15:0:0
     RDKit          3D

 94102  0  0  1  0  0  0  0  0999 V2000
  -27.9930  -22.0960   21.1310 C   0  0  0  0  0  2  0  0  0  0  0  0
  -28.7280  -18.3260   20.9900 C   0  0  0  0  0  2  0  0  0  0  0  0
  -30.5960  -19.5640   19.7630 C   0  0  0  0  0  2  0  0  0  0  0  0
  -28.6260  -19.7270   21.6390 C   0  0  0  0  0  2  0  0  0  0  0  0
  -29.6520  -20.7890   19.6240 C   0  0  0  0  0  2  0  0  0  0  0  0
  -29.8810  -18.1940   19.9650 C   0  0  0  0  0  3  0  0  0  0  0  0
  -28.5190  -20.7900   20.6010 N   0  0  2  0  0  4  0  0  0  0  0  0
  -27.7460  -20.4660   20.0360 H   0  0  0  0  0  0  0  0  0  0  0  0
  -31.1490  -14.6840   19.9230 C   0  0  0  0  0  0  0  0  0  0  0  0
  -30.7580  -12.4900   18.8710 C   0  0  0  0  0  2  0  0  0  0  0  0
  -29.7760  -12.6880   17.6980 C   0  0  0  0  0  2  0  0  0  0  0  0
  -28.3150  -12.5840   18.1870 C   0  0  0  0  0  2  0  0  0  0  0  0
  -28.0390  -13.4430   19.4520 C   0  0  0  0  0  3  0  0  0  0  0  0
  -29.1470  -13.2640   20.5160 C   0  0  0  0  0  2  0  0  0  0  0  0
  -30.4400  -13.5230   19.8690 N   0  0  0  0  0  0  0  0  0  0  0  0
  -32.2990  -14.7610   19.4810 O   0  0  0  0  0  0  0  0  0  0  0  0
  -30.8760  -17.0570   20.3170 C   0  0  0  0  0  0  0  0  0  0  0  0
  -30.4290  -15.7830   20.2390 N   0  0  0  0  0  0  0  0  0  0  0  0
  -32.0370  -17.3540   20.6150 O   0  0  0  0  0  0  0  0  0  0  0  0
  -29.4340  -15.6510   20.2900 H   0  0  0  0  0  0  0  0  0  0  0  0
  -25.7180  -14.1000   20.3410 C   0  0  0  0  0  0  0  0  0  0  0  0
  -24.6500  -13.3510   20.7570 C   0  0  0  0  0  0  0  0  0  0  0  0
  -25.0600  -11.9870   20.6520 C   0  0  0  0  0  0  0  0  0  0  0  0
  -26.7130  -13.1920   20.0070 N   0  0  0  0  0  0  0  0  0  0  0  0
  -26.3250  -11.9140   20.2550 N   0  0  0  0  0  0  0  0  0  0  0  0
  -24.3020  -10.7440   20.8500 C   0  0  0  0  0  0  0  0  0  0  0  0
  -24.6690   -9.8040   21.8370 C   0  0  0  0  0  3  0  0  0  0  0  0
  -23.9120   -8.6260   22.0220 C   0  0  0  0  0  3  0  0  0  0  0  0
  -22.7780   -8.3800   21.2140 C   0  0  0  0  0  0  0  0  0  0  0  0
  -22.4280   -9.3090   20.2190 C   0  0  0  0  0  3  0  0  0  0  0  0
  -23.1840  -10.4780   20.0340 C   0  0  0  0  0  3  0  0  0  0  0  0
  -22.0020   -7.2490   21.3010 O   0  0  0  0  0  0  0  0  0  0  0  0
  -21.7600   -6.6330   22.5020 C   0  0  0  0  0  0  0  0  0  0  0  0
  -21.1430   -7.3120   23.5760 C   0  0  0  0  0  3  0  0  0  0  0  0
  -20.8480   -6.6220   24.7680 C   0  0  0  0  0  3  0  0  0  0  0  0
  -21.1580   -5.2540   24.8880 C   0  0  0  0  0  0  0  0  0  0  0  0
  -21.7640   -4.5740   23.8160 C   0  0  0  0  0  3  0  0  0  0  0  0
  -22.0620   -5.2620   22.6270 C   0  0  0  0  0  0  0  0  0  0  0  0
  -22.6280   -4.5960   21.5910 F   0  0  0  0  0  0  0  0  0  0  0  0
  -20.8670   -4.5890   26.0290 F   0  0  0  0  0  0  0  0  0  0  0  0
  -23.2900  -13.8670   21.1330 C   0  0  0  0  0  0  0  0  0  0  0  0
  -22.5950  -13.1820   22.0340 N   0  0  0  0  0  0  0  0  0  0  0  0
  -22.8510  -14.9140   20.6580 O   0  0  0  0  0  0  0  0  0  0  0  0
  -22.9610  -12.3390   22.4500 H   0  0  0  0  0  0  0  0  0  0  0  0
  -21.6820  -13.5120   22.3160 H   0  0  0  0  0  0  0  0  0  0  0  0
  -25.9190  -15.4690   20.1960 N   0  0  0  0  0  0  0  0  0  0  0  0
  -25.1700  -16.1330   20.3560 H   0  0  0  0  0  0  0  0  0  0  0  0
  -26.7230  -15.8800   19.7410 H   0  0  0  0  0  0  0  0  0  0  0  0
  -28.6690  -23.4400   20.7180 C   0  0  0  0  0  3  0  0  0  0  0  0
  -28.5610  -23.6290   19.4010 F   0  0  0  0  0  0  0  0  0  0  0  0
  -28.0590  -24.6550   21.4790 C   0  0  0  0  0  3  0  0  0  0  0  0
  -26.7400  -24.7110   21.2850 F   0  0  0  0  0  0  0  0  0  0  0  0
  -28.7260  -26.0550   21.3210 C   0  0  0  0  0  2  0  0  0  0  0  0
  -28.4420  -26.7840   20.1190 O   0  0  0  0  0  0  0  0  0  0  0  0
  -24.5350  -31.9150   23.2320 C   0  0  0  0  0  0  0  0  0  0  0  0
  -27.2990  -27.5460   20.1480 C   0  0  0  0  0  0  0  0  0  0  0  0
  -23.3820  -30.5180   21.5460 C   0  0  0  0  0  3  0  0  0  0  0  0
  -24.8870  -29.0180   20.1290 C   0  0  0  0  0  0  0  0  0  0  0  0
  -25.9020  -30.9080   21.4110 C   0  0  0  0  0  2  0  0  0  0  0  0
  -26.0220  -29.5430   20.7620 C   0  0  0  0  0  0  0  0  0  0  0  0
  -27.2300  -28.8090   20.7840 C   0  0  0  0  0  3  0  0  0  0  0  0
  -26.1610  -27.0500   19.4840 C   0  0  0  0  0  3  0  0  0  0  0  0
  -24.9510  -27.7670   19.4900 C   0  0  0  0  0  3  0  0  0  0  0  0
  -23.6300  -29.8590   20.1620 C   0  0  0  0  0  2  0  0  0  0  0  0
  -24.6230  -31.1260   22.1240 N   0  0  0  0  0  0  0  0  0  0  0  0
  -23.4400  -32.1680   23.7550 O   0  0  0  0  0  0  0  0  0  0  0  0
  -22.7270  -29.4770   22.4800 C   0  0  0  0  0  0  0  0  0  0  0  0
  -21.4110  -29.2640   22.3110 N   0  0  0  0  0  0  0  0  0  0  0  0
  -23.3980  -28.8660   23.3140 O   0  0  0  0  0  0  0  0  0  0  0  0
  -20.9270  -29.8140   21.6160 H   0  0  0  0  0  0  0  0  0  0  0  0
  -18.0560  -27.9890   22.6930 C   0  0  0  0  0  0  0  0  0  0  0  0
  -20.5970  -28.3020   23.0520 C   0  0  0  0  0  3  0  0  0  0  0  0
  -20.7510  -26.8780   22.4730 C   0  0  0  0  0  2  0  0  0  0  0  0
  -19.6940  -26.5360   21.4190 C   0  0  0  0  0  2  0  0  0  0  0  0
  -18.2850  -26.6520   22.0080 C   0  0  0  0  0  2  0  0  0  0  0  0
  -19.1420  -28.7720   23.1660 C   0  0  0  0  0  0  0  0  0  0  0  0
  -18.8770  -30.0250   23.7580 C   0  0  0  0  0  3  0  0  0  0  0  0
  -17.5570  -30.4980   23.8870 C   0  0  0  0  0  3  0  0  0  0  0  0
  -16.4840  -29.7100   23.4330 C   0  0  0  0  0  3  0  0  0  0  0  0
  -16.7340  -28.4570   22.8440 C   0  0  0  0  0  3  0  0  0  0  0  0
  -25.8040  -32.5540   23.8810 C   0  0  0  0  0  3  0  0  0  0  0  0
  -26.2950  -31.7860   25.1680 C   0  0  1  0  0  0  0  0  0  0  0  0
  -25.1740  -31.5250   26.2000 C   0  0  0  0  0  1  0  0  0  0  0  0
  -26.9140  -30.4200   24.7830 C   0  0  0  0  0  1  0  0  0  0  0  0
  -27.4120  -32.5950   25.8680 C   0  0  0  0  0  1  0  0  0  0  0  0
  -25.4820  -33.9500   24.1990 N   0  0  0  0  0  0  0  0  0  0  0  0
  -25.8370  -35.0020   23.4500 C   0  0  0  0  0  0  0  0  0  0  0  0
  -26.5420  -34.8980   22.4430 O   0  0  0  0  0  0  0  0  0  0  0  0
  -24.8640  -34.1050   24.9830 H   0  0  0  0  0  0  0  0  0  0  0  0
  -24.1200  -36.7890   23.0200 C   0  0  0  0  0  1  0  0  0  0  0  0
  -25.3270  -36.3890   23.8840 C   0  0  0  0  0  3  0  0  0  0  0  0
  -27.4210  -37.2800   24.8090 C   0  0  0  0  0  1  0  0  0  0  0  0
  -26.3620  -37.4450   23.8160 N   0  0  0  0  0  0  0  0  0  0  0  0
  -25.9470  -38.3640   23.9430 H   0  0  0  0  0  0  0  0  0  0  0  0
  2  4  1  0
  3  6  1  0
  5  3  1  0
  5  7  1  0
  6 17  1  0
  6  2  1  0
  7  1  1  0
  7  4  1  0
  7  8  1  6
  9 18  1  0
 10 15  1  0
 11 12  1  0
 11 10  1  0
 13 12  1  0
 13 24  1  0
 13 14  1  0
 15  9  1  0
 15 14  1  0
 16  9  2  0
 17 19  2  0
 18 20  1  0
 18 17  1  0
 21 22  2  0
 22 41  1  0
 23 22  1  0
 23 26  1  0
 24 25  1  0
 24 21  1  0
 25 23  2  0
 26 27  1  0
 27 28  2  0
 29 32  1  0
 29 28  1  0
 30 29  2  0
 31 30  1  0
 31 26  2  0
 32 33  1  0
 33 38  2  0
 33 34  1  0
 34 35  2  0
 35 36  1  0
 36 40  1  0
 37 36  2  0
 38 37  1  0
 39 38  1  0
 41 42  1  0
 42 45  1  0
 42 44  1  0
 43 41  2  0
 46 21  1  0
 46 47  1  0
 48 46  1  0
 49 50  1  0
 49  1  1  0
 49 51  1  0
 51 52  1  0
 53 51  1  0
 54 56  1  0
 54 53  1  0
 55 66  2  0
 56 61  1  0
 57 65  1  0
 57 67  1  0
 58 64  1  0
 58 60  1  0
 59 65  1  0
 60 61  2  0
 60 59  1  0
 62 63  1  0
 62 56  2  0
 63 58  2  0
 64 57  1  0
 65 55  1  0
 67 69  2  0
 68 67  1  0
 70 68  1  0
 71 80  2  0
 71 76  1  0
 72 68  1  0
 72 76  1  0
 73 72  1  0
 74 75  1  0
 74 73  1  0
 75 71  1  0
 76 77  2  0
 77 78  1  0
 79 78  2  0
 80 79  1  0
 81 55  1  0
 81 86  1  0
 81 82  1  0
 82 85  1  1
 82 83  1  0
 84 82  1  0
 86 89  1  0
 87 91  1  0
 87 86  1  0
 88 87  2  0
 91 90  1  0
 93 91  1  0
 93 94  1  0
 93 92  1  0
M  ISO  4   9 100  18 100  53 101  54 101
M  END
>  <TORSDO>  (16) 
F 20

>  <SCORE>  (16) 
-12.121

>  <name>  (16) 
15

>  <ligand_id>  (16) 
15

>  <original_smiles>  (16) 
[H]c1c([H])c([H])c2c(c1[H])C([H])([H])C([H])([H])C([H])([H])C2([H])N([H])C(=O)C1([H])N(C(=O)C([H])(N([H])C(=O)C([H])(N([H])C([H])([H])[H])C([H])([H])[H])C(C([H])([H])[H])(C([H])([H])[H])C([H])([H])[H])C([H])([H])c2c([H])c(OC([H])([H])C([H])(F)C([H])(F)C([H])([H])[N+]3([H])C([H])([H])C([H])([H])C([H])(C(=O)N([H])C(=O)N4C([H])([H])C([H])([H])C([H])([H])C([H])(n5nc(-c6c([H])c([H])c(Oc7c([H])c([H])c(F)c([H])c7F)c([H])c6[H])c(C(=O)N([H])[H])c5N([H])[H])C4([H])[H])C([H])([H])C3([H])[H])c([H])c([H])c2C1([H])[H]

>  <smiles>  (16) 
[H]c1c([H])c([H])c2c(c1[H])C([H])([H])C([H])([H])C([H])([H])C2([H])N([H])C(=O)C1([H])N(C(=O)C([H])(N([H])C(=O)C([H])(N([H])C([H])([H])[H])C([H])([H])[H])C(C([H])([H])[H])(C([H])([H])[H])C([H])([H])[H])C([H])([H])c2c([H])c(OC([H])([H])C([H])(F)C([H])(F)C([H])([H])[N+]3([H])C([H])([H])C([H])([H])C([H])(C(=O)N([H])C(=O)N4C([H])([H])C([H])([H])C([H])([H])C([H])(n5nc(-c6c([H])c([H])c(Oc7c([H])c([H])c(F)c([H])c7F)c([H])c6[H])c(C(=O)N([H])[H])c5N([H])[H])C4([H])[H])C([H])([H])C3([H])[H])c([H])c([H])c2C1([H])[H]

$$$$
16:0:0
     RDKit          3D

 90 98  0  0  1  0  0  0  0  0999 V2000
  -30.7330  -21.0590   20.7860 C   0  0  0  0  0  3  0  0  0  0  0  0
  -31.1210  -22.4170   20.9130 C   0  0  0  0  0  3  0  0  0  0  0  0
  -29.4200  -20.6880   20.4330 C   0  0  0  0  0  0  0  0  0  0  0  0
  -28.8930  -23.3050   20.3280 C   0  0  0  0  0  0  0  0  0  0  0  0
  -30.2410  -23.5050   20.6960 C   0  0  0  0  0  0  0  0  0  0  0  0
  -28.5200  -21.8600   20.2080 C   0  0  0  0  0  0  0  0  0  0  0  0
  -30.7200  -24.7640   20.8460 F   0  0  0  0  0  0  0  0  0  0  0  0
  -27.2400  -21.5830   19.8600 F   0  0  0  0  0  0  0  0  0  0  0  0
  -29.0560  -19.0670   20.3560 C   0  0  0  0  0  3  0  0  0  0  0  0
  -30.1390  -17.7570   20.4440 C   0  0  0  0  0  3  0  0  0  0  0  0
  -30.5190  -15.0120   20.3330 C   0  0  0  0  0  0  0  0  0  0  0  0
  -30.4000  -12.6580   19.3860 C   0  0  0  0  0  2  0  0  0  0  0  0
  -29.4620  -12.6000   18.1580 C   0  0  0  0  0  2  0  0  0  0  0  0
  -28.0020  -12.3810   18.5980 C   0  0  0  0  0  2  0  0  0  0  0  0
  -27.5940  -13.3010   19.7780 C   0  0  0  0  0  3  0  0  0  0  0  0
  -28.6550  -13.3290   20.8980 C   0  0  0  0  0  2  0  0  0  0  0  0
  -29.9190  -13.7520   20.2790 N   0  0  0  0  0  0  0  0  0  0  0  0
  -31.7230  -15.0660   20.0590 O   0  0  0  0  0  0  0  0  0  0  0  0
  -29.7570  -16.2100   20.4840 N   0  0  0  0  0  0  0  0  0  0  0  0
  -28.7790  -16.0340   20.6590 H   0  0  0  0  0  0  0  0  0  0  0  0
  -25.2130  -13.8580   20.5300 C   0  0  0  0  0  0  0  0  0  0  0  0
  -24.1560  -13.0740   20.9020 C   0  0  0  0  0  0  0  0  0  0  0  0
  -24.6310  -11.7280   20.8690 C   0  0  0  0  0  0  0  0  0  0  0  0
  -26.2620  -12.9890   20.2840 N   0  0  0  0  0  0  0  0  0  0  0  0
  -25.9210  -11.7010   20.5550 N   0  0  0  0  0  0  0  0  0  0  0  0
  -23.9140  -10.4590   21.0590 C   0  0  0  0  0  0  0  0  0  0  0  0
  -24.3590   -9.4900   21.9850 C   0  0  0  0  0  3  0  0  0  0  0  0
  -23.6420   -8.2880   22.1640 C   0  0  0  0  0  3  0  0  0  0  0  0
  -22.4640   -8.0460   21.4170 C   0  0  0  0  0  0  0  0  0  0  0  0
  -22.0370   -9.0040   20.4800 C   0  0  0  0  0  3  0  0  0  0  0  0
  -22.7550  -10.1980   20.3000 C   0  0  0  0  0  3  0  0  0  0  0  0
  -21.7140   -6.8980   21.5080 O   0  0  0  0  0  0  0  0  0  0  0  0
  -21.6860   -6.1460   22.6540 C   0  0  0  0  0  0  0  0  0  0  0  0
  -21.2740   -6.6880   23.8920 C   0  0  0  0  0  3  0  0  0  0  0  0
  -21.1940   -5.8610   25.0300 C   0  0  0  0  0  3  0  0  0  0  0  0
  -21.5140   -4.4930   24.9330 C   0  0  0  0  0  0  0  0  0  0  0  0
  -21.9170   -3.9500   23.7010 C   0  0  0  0  0  3  0  0  0  0  0  0
  -22.0010   -4.7740   22.5650 C   0  0  0  0  0  0  0  0  0  0  0  0
  -22.3690   -4.2420   21.3750 F   0  0  0  0  0  0  0  0  0  0  0  0
  -21.4290   -3.6970   26.0240 F   0  0  0  0  0  0  0  0  0  0  0  0
  -22.7560  -13.5400   21.1750 C   0  0  0  0  0  0  0  0  0  0  0  0
  -22.0370  -12.8410   22.0480 N   0  0  0  0  0  0  0  0  0  0  0  0
  -22.3080  -14.5590   20.6520 O   0  0  0  0  0  0  0  0  0  0  0  0
  -22.4140  -12.0190   22.4950 H   0  0  0  0  0  0  0  0  0  0  0  0
  -21.0960  -13.1330   22.2720 H   0  0  0  0  0  0  0  0  0  0  0  0
  -25.3620  -15.2300   20.3510 N   0  0  0  0  0  0  0  0  0  0  0  0
  -24.5830  -15.8720   20.4500 H   0  0  0  0  0  0  0  0  0  0  0  0
  -26.1960  -15.6750   19.9890 H   0  0  0  0  0  0  0  0  0  0  0  0
  -27.9220  -24.6220   20.0490 C   0  0  0  0  0  2  0  0  0  0  0  0
  -28.2320  -26.1430   20.2870 O   0  0  0  0  0  0  0  0  0  0  0  0
  -24.6490  -31.8940   23.2480 C   0  0  0  0  0  0  0  0  0  0  0  0
  -27.1930  -27.1520   20.2120 C   0  0  0  0  0  0  0  0  0  0  0  0
  -23.4390  -30.5060   21.6100 C   0  0  0  0  0  3  0  0  0  0  0  0
  -24.8770  -28.9250   20.1810 C   0  0  0  0  0  0  0  0  0  0  0  0
  -25.9960  -30.7500   21.4460 C   0  0  0  0  0  2  0  0  0  0  0  0
  -26.0610  -29.3580   20.7920 C   0  0  0  0  0  0  0  0  0  0  0  0
  -27.2180  -28.4880   20.7910 C   0  0  0  0  0  3  0  0  0  0  0  0
  -25.9840  -26.8300   19.5560 C   0  0  0  0  0  3  0  0  0  0  0  0
  -24.8530  -27.6750   19.5460 C   0  0  0  0  0  3  0  0  0  0  0  0
  -23.6560  -29.8300   20.2310 C   0  0  0  0  0  2  0  0  0  0  0  0
  -24.7150  -31.0720   22.1560 N   0  0  0  0  0  0  0  0  0  0  0  0
  -23.5650  -32.1840   23.7780 O   0  0  0  0  0  0  0  0  0  0  0  0
  -22.7550  -29.5030   22.5730 C   0  0  0  0  0  0  0  0  0  0  0  0
  -21.4260  -29.3370   22.4460 N   0  0  0  0  0  0  0  0  0  0  0  0
  -23.4220  -28.8760   23.4010 O   0  0  0  0  0  0  0  0  0  0  0  0
  -20.9430  -29.8910   21.7530 H   0  0  0  0  0  0  0  0  0  0  0  0
  -18.0410  -28.1410   22.9400 C   0  0  0  0  0  0  0  0  0  0  0  0
  -20.5990  -28.4060   23.2180 C   0  0  0  0  0  3  0  0  0  0  0  0
  -20.7050  -26.9690   22.6560 C   0  0  0  0  0  2  0  0  0  0  0  0
  -19.6080  -26.6410   21.6360 C   0  0  0  0  0  2  0  0  0  0  0  0
  -18.2230  -26.7880   22.2720 C   0  0  0  0  0  2  0  0  0  0  0  0
  -19.1580  -28.9070   23.3700 C   0  0  0  0  0  0  0  0  0  0  0  0
  -18.9320  -30.1730   23.9550 C   0  0  0  0  0  3  0  0  0  0  0  0
  -17.6260  -30.6720   24.1130 C   0  0  0  0  0  3  0  0  0  0  0  0
  -16.5250  -29.9030   23.6980 C   0  0  0  0  0  3  0  0  0  0  0  0
  -16.7340  -28.6380   23.1170 C   0  0  0  0  0  3  0  0  0  0  0  0
  -25.9310  -32.5240   23.8730 C   0  0  0  0  0  3  0  0  0  0  0  0
  -26.4420  -31.7490   25.1510 C   0  0  1  0  0  0  0  0  0  0  0  0
  -25.3480  -31.5190   26.2190 C   0  0  0  0  0  1  0  0  0  0  0  0
  -27.0170  -30.3680   24.7650 C   0  0  0  0  0  1  0  0  0  0  0  0
  -27.5970  -32.5360   25.8130 C   0  0  0  0  0  1  0  0  0  0  0  0
  -25.6240  -33.9220   24.2120 N   0  0  0  0  0  0  0  0  0  0  0  0
  -25.9350  -34.9820   23.4520 C   0  0  0  0  0  0  0  0  0  0  0  0
  -26.5780  -34.8830   22.4020 O   0  0  0  0  0  0  0  0  0  0  0  0
  -25.0550  -34.0720   25.0320 H   0  0  0  0  0  0  0  0  0  0  0  0
  -24.1830  -36.7650   23.1680 C   0  0  0  0  0  1  0  0  0  0  0  0
  -25.4600  -36.3680   23.9280 C   0  0  0  0  0  3  0  0  0  0  0  0
  -27.6200  -37.2670   24.6720 C   0  0  0  0  0  1  0  0  0  0  0  0
  -26.4800  -37.4280   23.7720 N   0  0  0  0  0  0  0  0  0  0  0  0
  -26.0740  -38.3460   23.9350 H   0  0  0  0  0  0  0  0  0  0  0  0
  1  2  1  0
  3  1  2  0
  4  5  1  0
  5  7  1  0
  5  2  2  0
  6  4  2  0
  6  3  1  0
  8  6  1  0
  9  3  1  0
  9 10  2  0
 10 19  1  0
 11 19  1  0
 12 17  1  0
 13 14  1  0
 13 12  1  0
 15 14  1  0
 15 24  1  0
 15 16  1  0
 17 11  1  0
 17 16  1  0
 18 11  2  0
 19 20  1  0
 21 22  2  0
 22 41  1  0
 23 22  1  0
 23 26  1  0
 24 21  1  0
 24 25  1  0
 25 23  2  0
 26 27  1  0
 27 28  2  0
 29 32  1  0
 29 28  1  0
 30 29  2  0
 31 30  1  0
 31 26  2  0
 32 33  1  0
 33 34  1  0
 34 35  2  0
 36 35  1  0
 36 40  1  0
 37 36  2  0
 38 33  2  0
 38 37  1  0
 39 38  1  0
 41 42  1  0
 42 45  1  0
 42 44  1  0
 43 41  2  0
 46 47  1  0
 46 21  1  0
 48 46  1  0
 49 50  1  0
 49  4  1  0
 51 62  2  0
 52 50  1  0
 52 57  1  0
 53 61  1  0
 53 63  1  0
 54 60  1  0
 54 56  1  0
 55 61  1  0
 56 55  1  0
 57 56  2  0
 58 52  2  0
 59 58  1  0
 59 54  2  0
 60 53  1  0
 61 51  1  0
 63 65  2  0
 64 63  1  0
 66 64  1  0
 67 76  2  0
 67 72  1  0
 68 64  1  0
 68 72  1  0
 69 68  1  0
 70 71  1  0
 70 69  1  0
 71 67  1  0
 72 73  2  0
 73 74  1  0
 75 74  2  0
 76 75  1  0
 77 51  1  0
 77 82  1  0
 77 78  1  0
 78 81  1  1
 78 79  1  0
 80 78  1  0
 82 85  1  0
 83 87  1  0
 83 82  1  0
 84 83  2  0
 87 86  1  0
 89 87  1  0
 89 90  1  0
 89 88  1  0
M  ISO  4  11 100  19 100  49 101  50 101
M  END
>  <TORSDO>  (17) 
F 19

>  <SCORE>  (17) 
-15.121

>  <name>  (17) 
16

>  <ligand_id>  (17) 
16

>  <original_smiles>  (17) 
[H]c1c([H])c([H])c2c(c1[H])C([H])([H])C([H])([H])C([H])([H])C2([H])N([H])C(=O)C1([H])N(C(=O)C([H])(N([H])C(=O)C([H])(N([H])C([H])([H])[H])C([H])([H])[H])C(C([H])([H])[H])(C([H])([H])[H])C([H])([H])[H])C([H])([H])c2c([H])c(OC([H])([H])c3c(F)c([H])c([H])c(C([H])([H])C([H])([H])N([H])C(=O)N4C([H])([H])C([H])([H])C([H])([H])C([H])(n5nc(-c6c([H])c([H])c(Oc7c([H])c([H])c(F)c([H])c7F)c([H])c6[H])c(C(=O)N([H])[H])c5N([H])[H])C4([H])[H])c3F)c([H])c([H])c2C1([H])[H]

>  <smiles>  (17) 
[H]c1c([H])c([H])c2c(c1[H])C([H])([H])C([H])([H])C([H])([H])C2([H])N([H])C(=O)C1([H])N(C(=O)C([H])(N([H])C(=O)C([H])(N([H])C([H])([H])[H])C([H])([H])[H])C(C([H])([H])[H])(C([H])([H])[H])C([H])([H])[H])C([H])([H])c2c([H])c(OC([H])([H])c3c(F)c([H])c([H])c(C([H])([H])C([H])([H])N([H])C(=O)N4C([H])([H])C([H])([H])C([H])([H])C([H])(n5nc(-c6c([H])c([H])c(Oc7c([H])c([H])c(F)c([H])c7F)c([H])c6[H])c(C(=O)N([H])[H])c5N([H])[H])C4([H])[H])c3F)c([H])c([H])c2C1([H])[H]

$$$$
17:0:0
     RDKit          3D

 96104  0  0  1  0  0  0  0  0999 V2000
  -30.0650  -23.1240   20.4430 C   0  0  0  0  0  3  0  0  0  0  0  0
  -30.7970  -23.3400   19.3480 F   0  0  0  0  0  0  0  0  0  0  0  0
  -29.1830  -21.8660   20.1950 C   0  0  0  0  0  0  0  0  0  0  0  0
  -29.7970  -20.6560   20.2830 N   0  0  0  0  0  0  0  0  0  0  0  0
  -28.0010  -21.9900   19.8670 O   0  0  0  0  0  0  0  0  0  0  0  0
  -30.7590  -20.6840   20.5960 H   0  0  0  0  0  0  0  0  0  0  0  0
  -30.4030  -18.8520   18.6720 C   0  0  0  0  0  2  0  0  0  0  0  0
  -30.8570  -17.4490   19.1240 C   0  0  0  0  0  2  0  0  0  0  0  0
  -29.2060  -18.1640   20.6910 C   0  0  0  0  0  2  0  0  0  0  0  0
  -29.3620  -19.3620   19.6990 C   0  0  0  0  0  3  0  0  0  0  0  0
  -29.6550  -16.9020   19.8980 C   0  0  0  0  0  3  0  0  0  0  0  0
  -30.6160  -14.5640   20.3830 C   0  0  0  0  0  0  0  0  0  0  0  0
  -30.3800  -12.3460   19.3370 C   0  0  0  0  0  2  0  0  0  0  0  0
  -29.4590  -12.5320   18.1120 C   0  0  0  0  0  2  0  0  0  0  0  0
  -27.9780  -12.3960   18.5170 C   0  0  0  0  0  2  0  0  0  0  0  0
  -27.6180  -13.2440   19.7650 C   0  0  0  0  0  3  0  0  0  0  0  0
  -28.6590  -13.0530   20.8930 C   0  0  0  0  0  2  0  0  0  0  0  0
  -29.9900  -13.3530   20.3400 N   0  0  0  0  0  0  0  0  0  0  0  0
  -31.7680  -14.7180   19.9690 O   0  0  0  0  0  0  0  0  0  0  0  0
  -29.8060  -15.6220   20.6580 N   0  0  0  0  0  0  0  0  0  0  0  0
  -28.9600  -15.3380   21.1300 H   0  0  0  0  0  0  0  0  0  0  0  0
  -25.2150  -13.8610   20.4400 C   0  0  0  0  0  0  0  0  0  0  0  0
  -24.1410  -13.0930   20.8070 C   0  0  0  0  0  0  0  0  0  0  0  0
  -24.6010  -11.7410   20.8000 C   0  0  0  0  0  0  0  0  0  0  0  0
  -26.2610  -12.9750   20.2320 N   0  0  0  0  0  0  0  0  0  0  0  0
  -25.8960  -11.6960   20.5100 N   0  0  0  0  0  0  0  0  0  0  0  0
  -23.8720  -10.4810   20.9990 C   0  0  0  0  0  0  0  0  0  0  0  0
  -24.2970   -9.5240   21.9460 C   0  0  0  0  0  3  0  0  0  0  0  0
  -23.5700   -8.3290   22.1300 C   0  0  0  0  0  3  0  0  0  0  0  0
  -22.4040   -8.0830   21.3670 C   0  0  0  0  0  0  0  0  0  0  0  0
  -21.9990   -9.0290   20.4100 C   0  0  0  0  0  3  0  0  0  0  0  0
  -22.7260  -10.2160   20.2240 C   0  0  0  0  0  3  0  0  0  0  0  0
  -21.6480   -6.9400   21.4620 O   0  0  0  0  0  0  0  0  0  0  0  0
  -21.5940   -6.2040   22.6180 C   0  0  0  0  0  0  0  0  0  0  0  0
  -21.1640   -6.7660   23.8390 C   0  0  0  0  0  3  0  0  0  0  0  0
  -21.0570   -5.9570   24.9890 C   0  0  0  0  0  3  0  0  0  0  0  0
  -21.3720   -4.5870   24.9180 C   0  0  0  0  0  0  0  0  0  0  0  0
  -21.7940   -4.0230   23.7010 C   0  0  0  0  0  3  0  0  0  0  0  0
  -21.9030   -4.8300   22.5550 C   0  0  0  0  0  0  0  0  0  0  0  0
  -22.2910   -4.2780   21.3800 F   0  0  0  0  0  0  0  0  0  0  0  0
  -21.2630   -3.8070   26.0190 F   0  0  0  0  0  0  0  0  0  0  0  0
  -22.7400  -13.5750   21.0550 C   0  0  0  0  0  0  0  0  0  0  0  0
  -22.0020  -12.8910   21.9220 N   0  0  0  0  0  0  0  0  0  0  0  0
  -22.3080  -14.5910   20.5130 O   0  0  0  0  0  0  0  0  0  0  0  0
  -22.3650  -12.0710   22.3850 H   0  0  0  0  0  0  0  0  0  0  0  0
  -21.0600  -13.1900   22.1280 H   0  0  0  0  0  0  0  0  0  0  0  0
  -25.3840  -15.2290   20.2470 N   0  0  0  0  0  0  0  0  0  0  0  0
  -24.6120  -15.8820   20.3270 H   0  0  0  0  0  0  0  0  0  0  0  0
  -26.2340  -15.6600   19.9110 H   0  0  0  0  0  0  0  0  0  0  0  0
  -29.4380  -24.5010   20.8910 C   0  0  0  0  0  3  0  0  0  0  0  0
  -30.5480  -25.4370   21.1880 N   0  0  0  0  0  4  0  0  0  0  0  0
  -31.2040  -25.4420   20.4220 H   0  0  0  0  0  0  0  0  0  0  0  0
  -31.0370  -25.1920   22.0310 H   0  0  0  0  0  0  0  0  0  0  0  0
  -30.1740  -26.3680   21.2910 H   0  0  0  0  0  0  0  0  0  0  0  0
  -28.4290  -25.2230   19.9380 C   0  0  0  0  0  2  0  0  0  0  0  0
  -28.4050  -26.6570   20.2120 O   0  0  0  0  0  0  0  0  0  0  0  0
  -24.5970  -31.8790   23.2330 C   0  0  0  0  0  0  0  0  0  0  0  0
  -27.2240  -27.3900   20.1620 C   0  0  0  0  0  0  0  0  0  0  0  0
  -23.3860  -30.4810   21.5910 C   0  0  0  0  0  3  0  0  0  0  0  0
  -24.8350  -28.9340   20.1650 C   0  0  0  0  0  0  0  0  0  0  0  0
  -25.9150  -30.8220   21.3950 C   0  0  0  0  0  2  0  0  0  0  0  0
  -25.9950  -29.4470   20.7560 C   0  0  0  0  0  0  0  0  0  0  0  0
  -27.1880  -28.6830   20.7500 C   0  0  0  0  0  3  0  0  0  0  0  0
  -26.0440  -26.9060   19.5530 C   0  0  0  0  0  3  0  0  0  0  0  0
  -24.8550  -27.6650   19.5620 C   0  0  0  0  0  3  0  0  0  0  0  0
  -23.5930  -29.7990   20.2120 C   0  0  0  0  0  2  0  0  0  0  0  0
  -24.6520  -31.0780   22.1310 N   0  0  0  0  0  0  0  0  0  0  0  0
  -23.5160  -32.1570   23.7740 O   0  0  0  0  0  0  0  0  0  0  0  0
  -22.7300  -29.4650   22.5540 C   0  0  0  0  0  0  0  0  0  0  0  0
  -21.4050  -29.2880   22.4260 N   0  0  0  0  0  0  0  0  0  0  0  0
  -23.4120  -28.8390   23.3710 O   0  0  0  0  0  0  0  0  0  0  0  0
  -20.9170  -29.8440   21.7370 H   0  0  0  0  0  0  0  0  0  0  0  0
  -18.0280  -28.1050   22.9280 C   0  0  0  0  0  0  0  0  0  0  0  0
  -20.5860  -28.3520   23.1970 C   0  0  0  0  0  3  0  0  0  0  0  0
  -20.6840  -26.9220   22.6180 C   0  0  0  0  0  2  0  0  0  0  0  0
  -19.5790  -26.6050   21.6040 C   0  0  0  0  0  2  0  0  0  0  0  0
  -18.1980  -26.7550   22.2500 C   0  0  0  0  0  2  0  0  0  0  0  0
  -19.1500  -28.8610   23.3580 C   0  0  0  0  0  0  0  0  0  0  0  0
  -18.9380  -30.1240   23.9510 C   0  0  0  0  0  3  0  0  0  0  0  0
  -17.6360  -30.6320   24.1190 C   0  0  0  0  0  3  0  0  0  0  0  0
  -16.5280  -29.8730   23.7060 C   0  0  0  0  0  3  0  0  0  0  0  0
  -16.7230  -28.6110   23.1170 C   0  0  0  0  0  3  0  0  0  0  0  0
  -25.8840  -32.5080   23.8520 C   0  0  0  0  0  3  0  0  0  0  0  0
  -25.5800  -33.9070   24.1790 N   0  0  0  0  0  0  0  0  0  0  0  0
  -25.9160  -34.9580   23.4170 C   0  0  0  0  0  0  0  0  0  0  0  0
  -26.5840  -34.8480   22.3870 O   0  0  0  0  0  0  0  0  0  0  0  0
  -24.9810  -34.0650   24.9770 H   0  0  0  0  0  0  0  0  0  0  0  0
  -24.1910  -36.7540   23.0610 C   0  0  0  0  0  1  0  0  0  0  0  0
  -25.4330  -36.3490   23.8700 C   0  0  0  0  0  3  0  0  0  0  0  0
  -27.5730  -37.2320   24.6910 C   0  0  0  0  0  1  0  0  0  0  0  0
  -26.4700  -37.3980   23.7510 N   0  0  0  0  0  0  0  0  0  0  0  0
  -26.0660  -38.3200   23.8950 H   0  0  0  0  0  0  0  0  0  0  0  0
  -26.3980  -31.7370   25.1300 C   0  0  1  0  0  0  0  0  0  0  0  0
  -25.3050  -31.5070   26.1990 C   0  0  0  0  0  1  0  0  0  0  0  0
  -26.9740  -30.3560   24.7390 C   0  0  0  0  0  1  0  0  0  0  0  0
  -27.5520  -32.5270   25.7910 C   0  0  0  0  0  1  0  0  0  0  0  0
  1  2  1  0
  1 50  1  0
  3  4  1  0
  3  1  1  0
  4  6  1  0
  5  3  2  0
  7  8  1  0
  7 10  1  0
  8 11  1  0
 10  4  1  0
 10  9  1  0
 11 20  1  0
 11  9  1  0
 12 20  1  0
 13 18  1  0
 14 15  1  0
 14 13  1  0
 16 15  1  0
 16 25  1  0
 16 17  1  0
 18 12  1  0
 18 17  1  0
 19 12  2  0
 20 21  1  0
 22 23  2  0
 23 42  1  0
 24 23  1  0
 24 27  1  0
 25 22  1  0
 25 26  1  0
 26 24  2  0
 27 28  1  0
 28 29  2  0
 30 33  1  0
 30 29  1  0
 31 30  2  0
 32 31  1  0
 32 27  2  0
 33 34  1  0
 34 35  1  0
 35 36  2  0
 37 36  1  0
 37 41  1  0
 38 37  2  0
 39 34  2  0
 39 38  1  0
 40 39  1  0
 42 43  1  0
 43 46  1  0
 43 45  1  0
 44 42  2  0
 47 48  1  0
 47 22  1  0
 49 47  1  0
 50 55  1  0
 50 51  1  0
 51 54  1  0
 51 53  1  0
 52 51  1  0
 55 56  1  0
 57 68  2  0
 58 56  1  0
 58 63  1  0
 59 67  1  0
 59 69  1  0
 60 66  1  0
 60 62  1  0
 61 67  1  0
 62 61  1  0
 63 62  2  0
 64 65  1  0
 64 58  2  0
 65 60  2  0
 66 59  1  0
 67 57  1  0
 69 71  2  0
 70 69  1  0
 72 70  1  0
 73 82  2  0
 73 78  1  0
 74 70  1  0
 74 78  1  0
 75 74  1  0
 76 77  1  0
 76 75  1  0
 77 73  1  0
 78 79  2  0
 79 80  1  0
 81 80  2  0
 82 81  1  0
 83 57  1  0
 83 84  1  0
 83 93  1  0
 84 87  1  0
 85 89  1  0
 85 84  1  0
 86 85  2  0
 89 88  1  0
 91 89  1  0
 91 92  1  0
 91 90  1  0
 93 96  1  1
 93 94  1  0
 95 93  1  0
M  ISO  4  12 100  20 100  55 101  56 101
M  END
>  <TORSDO>  (18) 
F 21

>  <SCORE>  (18) 
-13.712

>  <name>  (18) 
17

>  <ligand_id>  (18) 
17

>  <original_smiles>  (18) 
[H]c1c([H])c([H])c2c(c1[H])C([H])([H])C([H])([H])C([H])([H])C2([H])N([H])C(=O)C1([H])N(C(=O)C([H])(N([H])C(=O)C([H])(N([H])C([H])([H])[H])C([H])([H])[H])C(C([H])([H])[H])(C([H])([H])[H])C([H])([H])[H])C([H])([H])c2c([H])c(OC([H])([H])C([H])(C([H])(F)C(=O)N([H])C3([H])C([H])([H])C([H])([H])C([H])(N([H])C(=O)N4C([H])([H])C([H])([H])C([H])([H])C([H])(n5nc(-c6c([H])c([H])c(Oc7c([H])c([H])c(F)c([H])c7F)c([H])c6[H])c(C(=O)N([H])[H])c5N([H])[H])C4([H])[H])C3([H])[H])[N+]([H])([H])[H])c([H])c([H])c2C1([H])[H]

>  <smiles>  (18) 
[H]c1c([H])c([H])c2c(c1[H])C([H])([H])C([H])([H])C([H])([H])C2([H])N([H])C(=O)C1([H])N(C(=O)C([H])(N([H])C(=O)C([H])(N([H])C([H])([H])[H])C([H])([H])[H])C(C([H])([H])[H])(C([H])([H])[H])C([H])([H])[H])C([H])([H])c2c([H])c(OC([H])([H])C([H])(C([H])(F)C(=O)N([H])C3([H])C([H])([H])C([H])([H])C([H])(N([H])C(=O)N4C([H])([H])C([H])([H])C([H])([H])C([H])(n5nc(-c6c([H])c([H])c(Oc7c([H])c([H])c(F)c([H])c7F)c([H])c6[H])c(C(=O)N([H])[H])c5N([H])[H])C4([H])[H])C3([H])[H])[N+]([H])([H])[H])c([H])c([H])c2C1([H])[H]

$$$$
18:0:0
     RDKit          3D

 96104  0  0  1  0  0  0  0  0999 V2000
  -30.0420  -22.7820   21.3160 C   0  0  0  0  0  2  0  0  0  0  0  0
  -30.9190  -21.5690   21.7460 C   0  0  0  0  0  2  0  0  0  0  0  0
  -29.2940  -20.2070   20.2720 C   0  0  0  0  0  2  0  0  0  0  0  0
  -29.8500  -23.0520   19.7910 C   0  0  0  0  0  2  0  0  0  0  0  0
  -29.9520  -20.6730   18.9580 C   0  0  0  0  0  2  0  0  0  0  0  0
  -30.1620  -20.2210   21.5650 C   0  0  0  0  0  3  0  0  0  0  0  0
  -30.4980  -22.0630   18.9010 N   0  0  1  0  0  4  0  0  0  0  0  0
  -31.4770  -22.0560   19.1570 H   0  0  0  0  0  0  0  0  0  0  0  0
  -32.3820  -19.1240   21.2530 C   0  0  0  0  0  1  0  0  0  0  0  0
  -30.9880  -18.9720   21.7360 N   0  0  2  0  0  4  0  0  0  0  0  0
  -31.0820  -18.8150   22.7300 H   0  0  0  0  0  0  0  0  0  0  0  0
  -30.2630  -17.7740   21.1900 C   0  0  0  0  0  2  0  0  0  0  0  0
  -30.9040  -16.3770   21.3980 C   0  0  0  0  0  2  0  0  0  0  0  0
  -32.2960  -14.9880   19.8410 C   0  0  0  0  0  0  0  0  0  0  0  0
  -33.7460  -13.9650   18.1250 C   0  0  0  0  0  2  0  0  0  0  0  0
  -35.0540  -14.7560   17.9500 C   0  0  0  0  0  2  0  0  0  0  0  0
  -34.8600  -15.8840   16.9250 C   0  0  0  0  0  2  0  0  0  0  0  0
  -33.6070  -16.7500   17.2170 C   0  0  0  0  0  3  0  0  0  0  0  0
  -32.3650  -15.8630   17.4770 C   0  0  0  0  0  2  0  0  0  0  0  0
  -32.6780  -14.8880   18.5430 N   0  0  0  0  0  0  0  0  0  0  0  0
  -32.8030  -14.3350   20.7570 O   0  0  0  0  0  0  0  0  0  0  0  0
  -31.2960  -15.8450   20.0830 N   0  0  0  0  0  0  0  0  0  0  0  0
  -30.8430  -16.2460   19.2760 H   0  0  0  0  0  0  0  0  0  0  0  0
  -33.7010  -19.0640   16.0770 C   0  0  0  0  0  0  0  0  0  0  0  0
  -33.3130  -19.4830   14.8240 C   0  0  0  0  0  0  0  0  0  0  0  0
  -32.7540  -18.3380   14.1840 C   0  0  0  0  0  0  0  0  0  0  0  0
  -33.3660  -17.7170   16.1450 N   0  0  0  0  0  0  0  0  0  0  0  0
  -32.7450  -17.3010   15.0120 N   0  0  0  0  0  0  0  0  0  0  0  0
  -32.2790  -18.1570   12.8040 C   0  0  0  0  0  0  0  0  0  0  0  0
  -30.9060  -18.0040   12.5090 C   0  0  0  0  0  3  0  0  0  0  0  0
  -30.4710  -17.8450   11.1740 C   0  0  0  0  0  3  0  0  0  0  0  0
  -31.4140  -17.8420   10.1190 C   0  0  0  0  0  0  0  0  0  0  0  0
  -32.7820  -17.9710   10.4180 C   0  0  0  0  0  3  0  0  0  0  0  0
  -33.2110  -18.1230   11.7470 C   0  0  0  0  0  3  0  0  0  0  0  0
  -31.0840  -17.6700    8.7940 O   0  0  0  0  0  0  0  0  0  0  0  0
  -29.8980  -18.1240    8.2820 C   0  0  0  0  0  0  0  0  0  0  0  0
  -29.6870  -19.4890    7.9900 C   0  0  0  0  0  3  0  0  0  0  0  0
  -28.4770  -19.9030    7.4020 C   0  0  0  0  0  3  0  0  0  0  0  0
  -27.4840  -18.9560    7.0910 C   0  0  0  0  0  0  0  0  0  0  0  0
  -27.6930  -17.5960    7.3770 C   0  0  0  0  0  3  0  0  0  0  0  0
  -28.8990  -17.1800    7.9680 C   0  0  0  0  0  0  0  0  0  0  0  0
  -29.1070  -15.8660    8.2220 F   0  0  0  0  0  0  0  0  0  0  0  0
  -26.3220  -19.3500    6.5170 F   0  0  0  0  0  0  0  0  0  0  0  0
  -33.5410  -20.8430   14.2320 C   0  0  0  0  0  0  0  0  0  0  0  0
  -32.5320  -21.3950   13.5580 N   0  0  0  0  0  0  0  0  0  0  0  0
  -34.5940  -21.4500   14.4040 O   0  0  0  0  0  0  0  0  0  0  0  0
  -31.6590  -20.9090   13.4340 H   0  0  0  0  0  0  0  0  0  0  0  0
  -32.6430  -22.3160   13.1610 H   0  0  0  0  0  0  0  0  0  0  0  0
  -34.3160  -19.7080   17.1380 N   0  0  0  0  0  0  0  0  0  0  0  0
  -34.6080  -20.6780   17.0750 H   0  0  0  0  0  0  0  0  0  0  0  0
  -34.6060  -19.2610   17.9980 H   0  0  0  0  0  0  0  0  0  0  0  0
  -30.5310  -22.4750   17.4810 C   0  0  0  0  0  2  0  0  0  0  0  0
  -31.7420  -23.3230   17.0880 C   0  0  0  0  0  3  0  0  0  0  0  0
  -32.8310  -22.5470   16.9730 F   0  0  0  0  0  0  0  0  0  0  0  0
  -31.3990  -23.9550   15.7170 C   0  0  0  0  0  2  0  0  0  0  0  0
  -32.2870  -25.0090   15.3770 O   0  0  0  0  0  0  0  0  0  0  0  0
  -35.4890  -28.4220   20.7190 C   0  0  0  0  0  0  0  0  0  0  0  0
  -32.2740  -26.1090   16.1980 C   0  0  0  0  0  0  0  0  0  0  0  0
  -33.2830  -29.3000   20.0390 C   0  0  0  0  0  3  0  0  0  0  0  0
  -32.3390  -28.3610   17.8820 C   0  0  0  0  0  0  0  0  0  0  0  0
  -34.7560  -28.0510   18.3670 C   0  0  0  0  0  2  0  0  0  0  0  0
  -33.4900  -27.5900   17.7000 C   0  0  0  0  0  0  0  0  0  0  0  0
  -33.4620  -26.4440   16.8770 C   0  0  0  0  0  3  0  0  0  0  0  0
  -31.1260  -26.9260   16.3640 C   0  0  0  0  0  3  0  0  0  0  0  0
  -31.1530  -28.0320   17.2210 C   0  0  0  0  0  3  0  0  0  0  0  0
  -32.4520  -29.5790   18.7620 C   0  0  0  0  0  2  0  0  0  0  0  0
  -34.5500  -28.5560   19.7410 N   0  0  0  0  0  0  0  0  0  0  0  0
  -35.3320  -28.9410   21.8290 O   0  0  0  0  0  0  0  0  0  0  0  0
  -32.3790  -28.5940   21.0800 C   0  0  0  0  0  0  0  0  0  0  0  0
  -31.4370  -29.3520   21.6660 N   0  0  0  0  0  0  0  0  0  0  0  0
  -32.5200  -27.3930   21.3280 O   0  0  0  0  0  0  0  0  0  0  0  0
  -31.4000  -30.3380   21.4470 H   0  0  0  0  0  0  0  0  0  0  0  0
  -28.5750  -30.3790   23.6200 C   0  0  0  0  0  0  0  0  0  0  0  0
  -30.4540  -28.8940   22.6480 C   0  0  0  0  0  3  0  0  0  0  0  0
  -29.3270  -28.0810   21.9640 C   0  0  0  0  0  2  0  0  0  0  0  0
  -28.1080  -28.9320   21.6050 C   0  0  0  0  0  2  0  0  0  0  0  0
  -27.5230  -29.5980   22.8510 C   0  0  0  0  0  2  0  0  0  0  0  0
  -29.9500  -30.0510   23.5120 C   0  0  0  0  0  0  0  0  0  0  0  0
  -30.8960  -30.8150   24.2250 C   0  0  0  0  0  3  0  0  0  0  0  0
  -30.4930  -31.8890   25.0370 C   0  0  0  0  0  3  0  0  0  0  0  0
  -29.1280  -32.1980   25.1600 C   0  0  0  0  0  3  0  0  0  0  0  0
  -28.1700  -31.4400   24.4580 C   0  0  0  0  0  3  0  0  0  0  0  0
  -36.8130  -27.6320   20.4790 C   0  0  0  0  0  3  0  0  0  0  0  0
  -37.9140  -28.4580   20.9970 N   0  0  0  0  0  0  0  0  0  0  0  0
  -38.5790  -29.3770   20.2860 C   0  0  0  0  0  0  0  0  0  0  0  0
  -38.3700  -29.5700   19.0840 O   0  0  0  0  0  0  0  0  0  0  0  0
  -38.0990  -28.3900   21.9860 H   0  0  0  0  0  0  0  0  0  0  0  0
  -39.0790  -31.5960   21.3590 C   0  0  0  0  0  1  0  0  0  0  0  0
  -39.6470  -30.2100   21.0210 C   0  0  0  0  0  3  0  0  0  0  0  0
  -41.7420  -29.1690   20.2660 C   0  0  0  0  0  1  0  0  0  0  0  0
  -40.9020  -30.3630   20.2540 N   0  0  0  0  0  0  0  0  0  0  0  0
  -41.4480  -31.1470   20.6050 H   0  0  0  0  0  0  0  0  0  0  0  0
  -36.8140  -26.2050   21.1450 C   0  0  1  0  0  0  0  0  0  0  0  0
  -36.8700  -26.2430   22.6900 C   0  0  0  0  0  1  0  0  0  0  0  0
  -35.5470  -25.4180   20.7310 C   0  0  0  0  0  1  0  0  0  0  0  0
  -38.0280  -25.3930   20.6340 C   0  0  0  0  0  1  0  0  0  0  0  0
  1  2  1  0
  3  6  1  0
  4  1  1  0
  5  3  1  0
  6 10  1  0
  6  2  1  0
  7  5  1  0
  7  8  1  1
  7  4  1  0
  9 10  1  0
 10 11  1  1
 12 13  1  0
 12 10  1  0
 14 22  1  0
 14 21  2  0
 15 20  1  0
 16 15  1  0
 17 18  1  0
 17 16  1  0
 18 27  1  0
 18 19  1  0
 19 20  1  0
 20 14  1  0
 22 13  1  0
 23 22  1  0
 24 27  1  0
 24 49  1  0
 25 24  2  0
 26 25  1  0
 26 28  2  0
 28 27  1  0
 29 26  1  0
 30 29  1  0
 31 30  2  0
 32 33  2  0
 32 31  1  0
 33 34  1  0
 34 29  2  0
 35 32  1  0
 36 35  1  0
 37 36  1  0
 38 37  2  0
 39 40  2  0
 39 38  1  0
 40 41  1  0
 41 42  1  0
 41 36  2  0
 43 39  1  0
 44 46  2  0
 44 25  1  0
 45 44  1  0
 47 45  1  0
 48 45  1  0
 49 51  1  0
 50 49  1  0
 52  7  1  0
 53 54  1  0
 53 52  1  0
 55 53  1  0
 56 55  1  0
 56 58  1  0
 57 68  2  0
 58 64  2  0
 58 63  1  0
 59 69  1  0
 60 66  1  0
 61 67  1  0
 62 60  1  0
 62 61  1  0
 63 62  2  0
 64 65  1  0
 65 60  2  0
 66 59  1  0
 67 59  1  0
 67 57  1  0
 69 71  2  0
 69 70  1  0
 72 70  1  0
 73 82  1  0
 74 70  1  0
 74 78  1  0
 75 74  1  0
 76 75  1  0
 76 77  1  0
 77 73  1  0
 78 73  2  0
 78 79  1  0
 79 80  2  0
 80 81  1  0
 82 81  2  0
 83 57  1  0
 83 84  1  0
 83 93  1  0
 84 87  1  0
 85 84  1  0
 85 89  1  0
 86 85  2  0
 89 88  1  0
 91 90  1  0
 91 92  1  0
 91 89  1  0
 93 94  1  1
 95 93  1  0
 96 93  1  0
M  ISO  4  14 100  22 100  55 101  56 101
M  END
>  <TORSDO>  (19) 
F 22

>  <SCORE>  (19) 
-4.783

>  <name>  (19) 
18

>  <ligand_id>  (19) 
18

>  <original_smiles>  (19) 
[H]c1c([H])c([H])c2c(c1[H])C([H])([H])C([H])([H])C([H])([H])C2([H])N([H])C(=O)C1([H])N(C(=O)C([H])(N([H])C(=O)C([H])(N([H])C([H])([H])[H])C([H])([H])[H])C(C([H])([H])[H])(C([H])([H])[H])C([H])([H])[H])C([H])([H])c2c([H])c(OC([H])([H])C([H])(F)C([H])([H])[N+]3([H])C([H])([H])C([H])([H])C([H])([H])C([H])([N+]([H])(C([H])([H])[H])C([H])([H])C([H])([H])N([H])C(=O)N4C([H])([H])C([H])([H])C([H])([H])C([H])(n5nc(-c6c([H])c([H])c(Oc7c([H])c([H])c(F)c([H])c7F)c([H])c6[H])c(C(=O)N([H])[H])c5N([H])[H])C4([H])[H])C([H])([H])C3([H])[H])c([H])c([H])c2C1([H])[H]

>  <smiles>  (19) 
[H]c1c([H])c([H])c2c(c1[H])C([H])([H])C([H])([H])C([H])([H])C2([H])N([H])C(=O)C1([H])N(C(=O)C([H])(N([H])C(=O)C([H])(N([H])C([H])([H])[H])C([H])([H])[H])C(C([H])([H])[H])(C([H])([H])[H])C([H])([H])[H])C([H])([H])c2c([H])c(OC([H])([H])C([H])(F)C([H])([H])[N+]3([H])C([H])([H])C([H])([H])C([H])([H])C([H])([N+]([H])(C([H])([H])[H])C([H])([H])C([H])([H])N([H])C(=O)N4C([H])([H])C([H])([H])C([H])([H])C([H])(n5nc(-c6c([H])c([H])c(Oc7c([H])c([H])c(F)c([H])c7F)c([H])c6[H])c(C(=O)N([H])[H])c5N([H])[H])C4([H])[H])C([H])([H])C3([H])[H])c([H])c([H])c2C1([H])[H]

$$$$
19:0:0
     RDKit          3D

 95103  0  0  1  0  0  0  0  0999 V2000
  -29.4190  -21.6800   22.8730 C   0  0  0  0  0  2  0  0  0  0  0  0
  -30.4830  -19.3900   22.6380 C   0  0  0  0  0  3  0  0  0  0  0  0
  -29.4960  -20.3760   20.6460 C   0  0  0  0  0  3  0  0  0  0  0  0
  -30.8830  -18.2610   21.8910 C   0  0  0  0  0  3  0  0  0  0  0  0
  -29.8800  -19.2410   19.9060 C   0  0  0  0  0  3  0  0  0  0  0  0
  -29.7960  -20.4620   22.0250 C   0  0  0  0  0  0  0  0  0  0  0  0
  -30.5900  -18.1850   20.5140 C   0  0  0  0  0  0  0  0  0  0  0  0
  -31.0680  -17.0190   19.6480 C   0  0  0  0  0  3  0  0  0  0  0  0
  -31.6330  -14.5900   20.1770 C   0  0  0  0  0  0  0  0  0  0  0  0
  -31.2040  -12.4390   19.1030 C   0  0  0  0  0  2  0  0  0  0  0  0
  -30.2730  -12.7180   17.9040 C   0  0  0  0  0  2  0  0  0  0  0  0
  -28.7960  -12.6690   18.3440 C   0  0  0  0  0  2  0  0  0  0  0  0
  -28.5140  -13.5200   19.6120 C   0  0  0  0  0  3  0  0  0  0  0  0
  -29.5690  -13.2520   20.7120 C   0  0  0  0  0  2  0  0  0  0  0  0
  -30.9040  -13.4480   20.1260 N   0  0  0  0  0  0  0  0  0  0  0  0
  -32.8170  -14.6420   19.8470 O   0  0  0  0  0  0  0  0  0  0  0  0
  -30.8800  -15.6980   20.2880 N   0  0  0  0  0  0  0  0  0  0  0  0
  -29.9370  -15.5200   20.5940 H   0  0  0  0  0  0  0  0  0  0  0  0
  -26.1540  -14.2520   20.3390 C   0  0  0  0  0  0  0  0  0  0  0  0
  -25.0530  -13.5350   20.7190 C   0  0  0  0  0  0  0  0  0  0  0  0
  -25.4460  -12.1620   20.6910 C   0  0  0  0  0  0  0  0  0  0  0  0
  -27.1530  -13.3180   20.1040 N   0  0  0  0  0  0  0  0  0  0  0  0
  -26.7300  -12.0570   20.3730 N   0  0  0  0  0  0  0  0  0  0  0  0
  -24.6600  -10.9380   20.8880 C   0  0  0  0  0  0  0  0  0  0  0  0
  -25.0030   -9.9930   21.8790 C   0  0  0  0  0  3  0  0  0  0  0  0
  -24.2220   -8.8320   22.0620 C   0  0  0  0  0  3  0  0  0  0  0  0
  -23.0830   -8.6070   21.2520 C   0  0  0  0  0  0  0  0  0  0  0  0
  -22.7600   -9.5400   20.2500 C   0  0  0  0  0  3  0  0  0  0  0  0
  -23.5430  -10.6920   20.0650 C   0  0  0  0  0  3  0  0  0  0  0  0
  -22.2810   -7.4950   21.3410 O   0  0  0  0  0  0  0  0  0  0  0  0
  -22.0540   -6.8660   22.5380 C   0  0  0  0  0  0  0  0  0  0  0  0
  -21.4870   -7.5420   23.6420 C   0  0  0  0  0  3  0  0  0  0  0  0
  -21.2080   -6.8390   24.8300 C   0  0  0  0  0  3  0  0  0  0  0  0
  -21.4850   -5.4600   24.9150 C   0  0  0  0  0  0  0  0  0  0  0  0
  -22.0430   -4.7850   23.8170 C   0  0  0  0  0  3  0  0  0  0  0  0
  -22.3240   -5.4860   22.6300 C   0  0  0  0  0  0  0  0  0  0  0  0
  -22.8430   -4.8250   21.5680 F   0  0  0  0  0  0  0  0  0  0  0  0
  -21.2080   -4.7820   26.0540 F   0  0  0  0  0  0  0  0  0  0  0  0
  -23.6820  -14.0800   20.9990 C   0  0  0  0  0  0  0  0  0  0  0  0
  -22.9340  -13.4360   21.8870 N   0  0  0  0  0  0  0  0  0  0  0  0
  -23.2830  -15.1150   20.4640 O   0  0  0  0  0  0  0  0  0  0  0  0
  -23.2700  -12.6010   22.3450 H   0  0  0  0  0  0  0  0  0  0  0  0
  -22.0140  -13.7840   22.1150 H   0  0  0  0  0  0  0  0  0  0  0  0
  -26.3860  -15.6130   20.1550 N   0  0  0  0  0  0  0  0  0  0  0  0
  -25.6520  -16.3030   20.2730 H   0  0  0  0  0  0  0  0  0  0  0  0
  -27.2480  -16.0130   19.8100 H   0  0  0  0  0  0  0  0  0  0  0  0
  -32.4770  -17.3170   19.0690 C   0  0  0  0  0  2  0  0  0  0  0  0
  -32.4920  -18.4450   18.3560 F   0  0  0  0  0  0  0  0  0  0  0  0
  -28.6050  -22.6980   22.1720 N   0  0  0  0  0  4  0  0  0  0  0  0
  -27.8200  -22.9080   22.7670 H   0  0  0  0  0  0  0  0  0  0  0  0
  -28.2470  -22.2760   21.3310 H   0  0  0  0  0  0  0  0  0  0  0  0
  -29.3170  -23.9630   21.8640 C   0  0  0  0  0  2  0  0  0  0  0  0
  -28.4440  -24.9730   21.0830 C   0  0  0  0  0  2  0  0  0  0  0  0
  -29.1670  -26.3050   20.7810 C   0  0  0  0  0  2  0  0  0  0  0  0
  -28.6350  -26.9320   19.6170 O   0  0  0  0  0  0  0  0  0  0  0  0
  -24.5290  -31.6080   23.1230 C   0  0  0  0  0  0  0  0  0  0  0  0
  -27.4290  -27.5710   19.7590 C   0  0  0  0  0  0  0  0  0  0  0  0
  -23.4010  -30.2350   21.4020 C   0  0  0  0  0  3  0  0  0  0  0  0
  -24.9410  -28.8890   19.8780 C   0  0  0  0  0  0  0  0  0  0  0  0
  -25.8910  -30.7780   21.2110 C   0  0  0  0  0  2  0  0  0  0  0  0
  -26.0620  -29.4530   20.5000 C   0  0  0  0  0  0  0  0  0  0  0  0
  -27.3100  -28.7960   20.4500 C   0  0  0  0  0  3  0  0  0  0  0  0
  -26.2980  -27.0140   19.1300 C   0  0  0  0  0  3  0  0  0  0  0  0
  -25.0500  -27.6630   19.1960 C   0  0  0  0  0  3  0  0  0  0  0  0
  -23.6430  -29.6580   19.9810 C   0  0  0  0  0  2  0  0  0  0  0  0
  -24.6250  -30.8860   21.9720 N   0  0  0  0  0  0  0  0  0  0  0  0
  -23.4380  -31.7730   23.6880 O   0  0  0  0  0  0  0  0  0  0  0  0
  -22.8300  -29.1120   22.2990 C   0  0  0  0  0  0  0  0  0  0  0  0
  -21.5180  -28.8570   22.1720 N   0  0  0  0  0  0  0  0  0  0  0  0
  -23.5640  -28.4780   23.0610 O   0  0  0  0  0  0  0  0  0  0  0  0
  -20.9860  -29.4240   21.5280 H   0  0  0  0  0  0  0  0  0  0  0  0
  -18.2300  -27.4350   22.6290 C   0  0  0  0  0  0  0  0  0  0  0  0
  -20.7720  -27.8210   22.8860 C   0  0  0  0  0  3  0  0  0  0  0  0
  -20.9480  -26.4430   22.2080 C   0  0  0  0  0  2  0  0  0  0  0  0
  -19.8490  -26.1280   21.1890 C   0  0  0  0  0  2  0  0  0  0  0  0
  -18.4720  -26.1480   21.8600 C   0  0  0  0  0  2  0  0  0  0  0  0
  -19.3100  -28.2290   23.0970 C   0  0  0  0  0  0  0  0  0  0  0  0
  -19.0300  -29.4340   23.7760 C   0  0  0  0  0  3  0  0  0  0  0  0
  -17.7010  -29.8470   23.9920 C   0  0  0  0  0  3  0  0  0  0  0  0
  -16.6360  -29.0490   23.5430 C   0  0  0  0  0  3  0  0  0  0  0  0
  -16.9010  -27.8450   22.8650 C   0  0  0  0  0  3  0  0  0  0  0  0
  -25.7780  -32.2830   23.7720 C   0  0  0  0  0  3  0  0  0  0  0  0
  -25.4010  -33.6540   24.1380 N   0  0  0  0  0  0  0  0  0  0  0  0
  -25.6960  -34.7430   23.4150 C   0  0  0  0  0  0  0  0  0  0  0  0
  -26.3860  -34.7010   22.3920 O   0  0  0  0  0  0  0  0  0  0  0  0
  -24.7860  -33.7580   24.9330 H   0  0  0  0  0  0  0  0  0  0  0  0
  -23.8910  -36.4610   23.0790 C   0  0  0  0  0  1  0  0  0  0  0  0
  -25.1370  -36.0920   23.9030 C   0  0  0  0  0  3  0  0  0  0  0  0
  -27.2090  -37.0510   24.8020 C   0  0  0  0  0  1  0  0  0  0  0  0
  -26.1210  -37.1950   23.8390 N   0  0  0  0  0  0  0  0  0  0  0  0
  -25.6700  -38.0910   24.0010 H   0  0  0  0  0  0  0  0  0  0  0  0
  -26.3250  -31.4990   25.0270 C   0  0  1  0  0  0  0  0  0  0  0  0
  -25.2380  -31.1730   26.0790 C   0  0  0  0  0  1  0  0  0  0  0  0
  -26.9780  -30.1670   24.5920 C   0  0  0  0  0  1  0  0  0  0  0  0
  -27.4310  -32.3270   25.7220 C   0  0  0  0  0  1  0  0  0  0  0  0
  3  6  2  0
  4  2  2  0
  5  7  2  0
  5  3  1  0
  6  2  1  0
  6  1  1  0
  7  4  1  0
  8 47  1  0
  8 17  1  0
  8  7  1  0
  9 17  1  0
 10 15  1  0
 11 12  1  0
 11 10  1  0
 13 12  1  0
 13 22  1  0
 13 14  1  0
 15  9  1  0
 15 14  1  0
 16  9  2  0
 17 18  1  0
 19 20  2  0
 20 39  1  0
 21 20  1  0
 21 24  1  0
 22 19  1  0
 22 23  1  0
 23 21  2  0
 24 25  1  0
 25 26  2  0
 27 30  1  0
 27 26  1  0
 28 27  2  0
 29 28  1  0
 29 24  2  0
 30 31  1  0
 31 36  2  0
 31 32  1  0
 32 33  2  0
 33 34  1  0
 34 38  1  0
 35 34  2  0
 36 35  1  0
 37 36  1  0
 39 40  1  0
 40 43  1  0
 40 42  1  0
 41 39  2  0
 44 45  1  0
 44 19  1  0
 46 44  1  0
 48 47  1  0
 49 50  1  0
 49  1  1  0
 51 49  1  0
 52 49  1  0
 53 52  1  0
 54 53  1  0
 55 57  1  0
 55 54  1  0
 56 67  2  0
 57 62  1  0
 58 66  1  0
 58 68  1  0
 59 65  1  0
 59 61  1  0
 60 66  1  0
 61 60  1  0
 62 61  2  0
 63 64  1  0
 63 57  2  0
 64 59  2  0
 65 58  1  0
 66 56  1  0
 68 70  2  0
 69 68  1  0
 71 69  1  0
 72 81  2  0
 72 77  1  0
 73 69  1  0
 73 77  1  0
 74 73  1  0
 75 76  1  0
 75 74  1  0
 76 72  1  0
 77 78  2  0
 78 79  1  0
 80 79  2  0
 81 80  1  0
 82 56  1  0
 82 83  1  0
 82 92  1  0
 83 86  1  0
 84 88  1  0
 84 83  1  0
 85 84  2  0
 88 87  1  0
 90 88  1  0
 90 91  1  0
 90 89  1  0
 92 95  1  1
 92 93  1  0
 94 92  1  0
M  ISO  4   9 100  17 100  54 101  55 101
M  END
>  <TORSDO>  (20) 
F 23

>  <SCORE>  (20) 
-11.058

>  <name>  (20) 
19

>  <ligand_id>  (20) 
19

>  <original_smiles>  (20) 
[H]c1c([H])c([H])c2c(c1[H])C([H])([H])C([H])([H])C([H])([H])C2([H])N([H])C(=O)C1([H])N(C(=O)C([H])(N([H])C(=O)C([H])(N([H])C([H])([H])[H])C([H])([H])[H])C(C([H])([H])[H])(C([H])([H])[H])C([H])([H])[H])C([H])([H])c2c([H])c(OC([H])([H])C([H])([H])C([H])([H])[N+]([H])([H])C([H])([H])c3c([H])c([H])c(C([H])(N([H])C(=O)N4C([H])([H])C([H])([H])C([H])([H])C([H])(n5nc(-c6c([H])c([H])c(Oc7c([H])c([H])c(F)c([H])c7F)c([H])c6[H])c(C(=O)N([H])[H])c5N([H])[H])C4([H])[H])C([H])([H])F)c([H])c3[H])c([H])c([H])c2C1([H])[H]

>  <smiles>  (20) 
[H]c1c([H])c([H])c2c(c1[H])C([H])([H])C([H])([H])C([H])([H])C2([H])N([H])C(=O)C1([H])N(C(=O)C([H])(N([H])C(=O)C([H])(N([H])C([H])([H])[H])C([H])([H])[H])C(C([H])([H])[H])(C([H])([H])[H])C([H])([H])[H])C([H])([H])c2c([H])c(OC([H])([H])C([H])([H])C([H])([H])[N+]([H])([H])C([H])([H])c3c([H])c([H])c(C([H])(N([H])C(=O)N4C([H])([H])C([H])([H])C([H])([H])C([H])(n5nc(-c6c([H])c([H])c(Oc7c([H])c([H])c(F)c([H])c7F)c([H])c6[H])c(C(=O)N([H])[H])c5N([H])[H])C4([H])[H])C([H])([H])F)c([H])c3[H])c([H])c([H])c2C1([H])[H]

$$$$
20:0:0
     RDKit          3D

100108  0  0  1  0  0  0  0  0999 V2000
  -36.2590  -21.3330   21.1350 C   0  0  0  0  0  0  0  0  0  0  0  0
  -36.9000  -21.2730   22.3050 N   0  0  0  0  0  0  0  0  0  0  0  0
  -35.4360  -22.2190   20.8870 O   0  0  0  0  0  0  0  0  0  0  0  0
  -37.5370  -20.4980   22.4460 H   0  0  0  0  0  0  0  0  0  0  0  0
  -36.7890  -18.9040   20.6570 C   0  0  0  0  0  2  0  0  0  0  0  0
  -39.0190  -19.6410   20.2790 C   0  0  0  0  0  2  0  0  0  0  0  0
  -36.6640  -20.3070   20.0550 C   0  0  0  0  0  3  0  0  0  0  0  0
  -38.0690  -20.5380   19.4530 C   0  0  0  0  0  3  0  0  0  0  0  0
  -38.1720  -18.8190   21.1740 N   0  0  2  0  0  4  0  0  0  0  0  0
  -38.1740  -19.2720   22.0780 H   0  0  0  0  0  0  0  0  0  0  0  0
  -38.8820  -20.4990   17.0520 C   0  0  0  0  0  0  0  0  0  0  0  0
  -38.8690  -21.0690   14.6530 C   0  0  0  0  0  2  0  0  0  0  0  0
  -38.1200  -22.4040   14.4450 C   0  0  0  0  0  2  0  0  0  0  0  0
  -36.5970  -22.1800   14.3320 C   0  0  0  0  0  2  0  0  0  0  0  0
  -36.0400  -21.2660   15.4530 C   0  0  0  0  0  3  0  0  0  0  0  0
  -36.9040  -19.9910   15.5810 C   0  0  0  0  0  2  0  0  0  0  0  0
  -38.3010  -20.4040   15.8300 N   0  0  0  0  0  0  0  0  0  0  0  0
  -40.0040  -20.9730   17.2560 O   0  0  0  0  0  0  0  0  0  0  0  0
  -38.0630  -20.1310   18.0420 N   0  0  0  0  0  0  0  0  0  0  0  0
  -37.2230  -19.6870   17.7040 H   0  0  0  0  0  0  0  0  0  0  0  0
  -33.5590  -21.0120   16.1210 C   0  0  0  0  0  0  0  0  0  0  0  0
  -32.4500  -20.6660   15.3960 C   0  0  0  0  0  0  0  0  0  0  0  0
  -32.9090  -20.4180   14.0680 C   0  0  0  0  0  0  0  0  0  0  0  0
  -34.6280  -20.9490   15.2370 N   0  0  0  0  0  0  0  0  0  0  0  0
  -34.2290  -20.5400   14.0060 N   0  0  0  0  0  0  0  0  0  0  0  0
  -32.1630  -20.1290   12.8360 C   0  0  0  0  0  0  0  0  0  0  0  0
  -31.3890  -18.9560   12.6980 C   0  0  0  0  0  3  0  0  0  0  0  0
  -30.6700  -18.7060   11.5090 C   0  0  0  0  0  3  0  0  0  0  0  0
  -30.7150  -19.6390   10.4450 C   0  0  0  0  0  0  0  0  0  0  0  0
  -31.5050  -20.7930   10.5780 C   0  0  0  0  0  3  0  0  0  0  0  0
  -32.2250  -21.0370   11.7600 C   0  0  0  0  0  3  0  0  0  0  0  0
  -30.0640  -19.4690    9.2460 O   0  0  0  0  0  0  0  0  0  0  0  0
  -28.7190  -19.7020    9.1190 C   0  0  0  0  0  0  0  0  0  0  0  0
  -28.1950  -21.0090    9.0210 C   0  0  0  0  0  3  0  0  0  0  0  0
  -26.8130  -21.2010    8.8190 C   0  0  0  0  0  3  0  0  0  0  0  0
  -25.9560  -20.0900    8.7040 C   0  0  0  0  0  0  0  0  0  0  0  0
  -26.4770  -18.7880    8.7930 C   0  0  0  0  0  3  0  0  0  0  0  0
  -27.8550  -18.5950    8.9980 C   0  0  0  0  0  0  0  0  0  0  0  0
  -28.3540  -17.3360    9.0630 F   0  0  0  0  0  0  0  0  0  0  0  0
  -24.6300  -20.2750    8.5020 F   0  0  0  0  0  0  0  0  0  0  0  0
  -31.0280  -20.6700   15.8820 C   0  0  0  0  0  0  0  0  0  0  0  0
  -30.5130  -19.5140   16.2850 N   0  0  0  0  0  0  0  0  0  0  0  0
  -30.3800  -21.7120   15.9530 O   0  0  0  0  0  0  0  0  0  0  0  0
  -31.0470  -18.6580   16.2440 H   0  0  0  0  0  0  0  0  0  0  0  0
  -29.5670  -19.4860   16.6400 H   0  0  0  0  0  0  0  0  0  0  0  0
  -33.7470  -21.3960   17.4450 N   0  0  0  0  0  0  0  0  0  0  0  0
  -32.9490  -21.5680   18.0460 H   0  0  0  0  0  0  0  0  0  0  0  0
  -34.5810  -21.8810   17.7470 H   0  0  0  0  0  0  0  0  0  0  0  0
  -38.6730  -17.4460   21.4090 C   0  0  0  0  0  2  0  0  0  0  0  0
  -38.1770  -16.4670   20.3350 C   0  0  0  0  0  2  0  0  0  0  0  0
  -38.3450  -15.2080   20.7470 F   0  0  0  0  0  0  0  0  0  0  0  0
  -36.8230  -22.2490   23.3940 C   0  0  0  0  0  2  0  0  0  0  0  0
  -37.5530  -23.5790   23.0780 C   0  0  0  0  0  2  0  0  0  0  0  0
  -36.7300  -24.5440   22.3100 N   0  0  0  0  0  4  0  0  0  0  0  0
  -36.2060  -24.0040   21.6420 H   0  0  0  0  0  0  0  0  0  0  0  0
  -36.0680  -24.9640   22.9500 H   0  0  0  0  0  0  0  0  0  0  0  0
  -37.4840  -25.5820   21.5610 C   0  0  0  0  0  2  0  0  0  0  0  0
  -37.2260  -27.0140   22.0890 C   0  0  0  0  0  2  0  0  0  0  0  0
  -35.7940  -27.2040   22.6460 C   0  0  0  0  0  2  0  0  0  0  0  0
  -35.0080  -28.1320   21.8840 O   0  0  0  0  0  0  0  0  0  0  0  0
  -33.1990  -30.3690   15.3710 C   0  0  0  0  0  0  0  0  0  0  0  0
  -34.5290  -27.7660   20.6400 C   0  0  0  0  0  0  0  0  0  0  0  0
  -32.6020  -28.0300   15.9030 C   0  0  0  0  0  3  0  0  0  0  0  0
  -33.6180  -27.0860   18.0430 C   0  0  0  0  0  0  0  0  0  0  0  0
  -34.5950  -29.1560   17.0400 C   0  0  0  0  0  2  0  0  0  0  0  0
  -34.3330  -28.2720   18.2440 C   0  0  0  0  0  0  0  0  0  0  0  0
  -34.7870  -28.6140   19.5380 C   0  0  0  0  0  3  0  0  0  0  0  0
  -33.7920  -26.5780   20.4130 C   0  0  0  0  0  3  0  0  0  0  0  0
  -33.3420  -26.2370   19.1250 C   0  0  0  0  0  3  0  0  0  0  0  0
  -33.1720  -26.7840   16.6290 C   0  0  0  0  0  2  0  0  0  0  0  0
  -33.4520  -29.2490   16.1020 N   0  0  0  0  0  0  0  0  0  0  0  0
  -32.3020  -30.3870   14.5180 O   0  0  0  0  0  0  0  0  0  0  0  0
  -31.1350  -28.2300   16.3440 C   0  0  0  0  0  0  0  0  0  0  0  0
  -30.1970  -28.0610   15.3980 N   0  0  0  0  0  0  0  0  0  0  0  0
  -30.8600  -28.5010   17.5170 O   0  0  0  0  0  0  0  0  0  0  0  0
  -30.5020  -27.8540   14.4580 H   0  0  0  0  0  0  0  0  0  0  0  0
  -27.0020  -27.5530   13.7930 C   0  0  0  0  0  0  0  0  0  0  0  0
  -28.7520  -28.1640   15.5950 C   0  0  0  0  0  3  0  0  0  0  0  0
  -28.2130  -26.9500   16.3840 C   0  0  0  0  0  2  0  0  0  0  0  0
  -27.7240  -25.8130   15.4800 C   0  0  0  0  0  2  0  0  0  0  0  0
  -26.6040  -26.3030   14.5600 C   0  0  0  0  0  2  0  0  0  0  0  0
  -28.0220  -28.4190   14.2710 C   0  0  0  0  0  0  0  0  0  0  0  0
  -28.3800  -29.5460   13.4990 C   0  0  0  0  0  3  0  0  0  0  0  0
  -27.7360  -29.8160   12.2770 C   0  0  0  0  0  3  0  0  0  0  0  0
  -26.7160  -28.9660   11.8180 C   0  0  0  0  0  3  0  0  0  0  0  0
  -26.3480  -27.8410   12.5770 C   0  0  0  0  0  3  0  0  0  0  0  0
  -34.0390  -31.6720   15.5550 C   0  0  0  0  0  3  0  0  0  0  0  0
  -33.2290  -32.8400   16.2400 C   0  0  1  0  0  0  0  0  0  0  0  0
  -32.3390  -33.6370   15.2580 C   0  0  0  0  0  1  0  0  0  0  0  0
  -32.3200  -32.2920   17.3650 C   0  0  0  0  0  1  0  0  0  0  0  0
  -34.2050  -33.8350   16.9110 C   0  0  0  0  0  1  0  0  0  0  0  0
  -34.5170  -32.0790   14.2280 N   0  0  0  0  0  0  0  0  0  0  0  0
  -35.6140  -31.5910   13.6330 C   0  0  0  0  0  0  0  0  0  0  0  0
  -36.3740  -30.7890   14.1850 O   0  0  0  0  0  0  0  0  0  0  0  0
  -33.9180  -32.6930   13.6960 H   0  0  0  0  0  0  0  0  0  0  0  0
  -35.1780  -31.1590   11.1930 C   0  0  0  0  0  1  0  0  0  0  0  0
  -35.9120  -32.0620   12.1970 C   0  0  0  0  0  3  0  0  0  0  0  0
  -38.0500  -33.2500   12.4290 C   0  0  0  0  0  1  0  0  0  0  0  0
  -37.3550  -32.0910   11.8750 N   0  0  0  0  0  0  0  0  0  0  0  0
  -37.5000  -32.0830   10.8690 H   0  0  0  0  0  0  0  0  0  0  0  0
  1  2  1  0
  2  4  1  0
  2 52  1  0
  3  1  2  0
  5  9  1  0
  6  9  1  0
  7  5  1  0
  7  1  1  0
  8 19  1  0
  8  7  1  0
  8  6  1  0
  9 49  1  0
  9 10  1  1
 11 18  2  0
 11 19  1  0
 12 17  1  0
 13 12  1  0
 14 13  1  0
 15 14  1  0
 15 16  1  0
 16 17  1  0
 17 11  1  0
 20 19  1  0
 21 46  1  0
 22 41  1  0
 22 21  2  0
 23 22  1  0
 24 15  1  0
 24 21  1  0
 25 23  2  0
 25 24  1  0
 26 23  1  0
 27 26  1  0
 28 27  2  0
 29 30  2  0
 29 28  1  0
 30 31  1  0
 31 26  2  0
 32 29  1  0
 33 32  1  0
 34 33  1  0
 35 34  2  0
 36 37  2  0
 36 35  1  0
 37 38  1  0
 38 39  1  0
 38 33  2  0
 40 36  1  0
 41 43  2  0
 41 42  1  0
 42 45  1  0
 44 42  1  0
 46 48  1  0
 46 47  1  0
 50 51  1  0
 50 49  1  0
 53 52  1  0
 54 56  1  0
 54 53  1  0
 55 54  1  0
 57 58  1  0
 57 54  1  0
 58 59  1  0
 60 59  1  0
 61 71  1  0
 62 60  1  0
 63 71  1  0
 63 73  1  0
 63 70  1  0
 64 66  2  0
 64 69  1  0
 65 66  1  0
 66 67  1  0
 67 62  2  0
 68 62  1  0
 69 68  2  0
 70 64  1  0
 71 65  1  0
 72 61  2  0
 73 75  2  0
 74 73  1  0
 76 74  1  0
 77 82  1  0
 77 81  1  0
 78 74  1  0
 78 79  1  0
 80 79  1  0
 81 80  1  0
 82 78  1  0
 83 82  2  0
 84 83  1  0
 85 84  2  0
 85 86  1  0
 86 77  2  0
 87 61  1  0
 87 88  1  0
 88 91  1  1
 88 90  1  0
 89 88  1  0
 92 87  1  0
 93 94  2  0
 93 92  1  0
 95 92  1  0
 97 96  1  0
 97 93  1  0
 99 97  1  0
 99 98  1  0
100 99  1  0
M  ISO  4  11 100  19 100  59 101  60 101
M  END
>  <TORSDO>  (21) 
F 25

>  <SCORE>  (21) 
-4.050

>  <name>  (21) 
20

>  <ligand_id>  (21) 
20

>  <original_smiles>  (21) 
[H]c1c([H])c([H])c2c(c1[H])C([H])([H])C([H])([H])C([H])([H])C2([H])N([H])C(=O)C1([H])N(C(=O)C([H])(N([H])C(=O)C([H])(N([H])C([H])([H])[H])C([H])([H])[H])C(C([H])([H])[H])(C([H])([H])[H])C([H])([H])[H])C([H])([H])c2c([H])c(OC([H])([H])C([H])([H])C([H])([H])[N+]([H])([H])C([H])([H])C([H])([H])N([H])C(=O)C3([H])C([H])(N([H])C(=O)N4C([H])([H])C([H])([H])C([H])([H])C([H])(n5nc(-c6c([H])c([H])c(Oc7c([H])c([H])c(F)c([H])c7F)c([H])c6[H])c(C(=O)N([H])[H])c5N([H])[H])C4([H])[H])C([H])([H])[N+]([H])(C([H])([H])C([H])([H])F)C3([H])[H])c([H])c([H])c2C1([H])[H]

>  <smiles>  (21) 
[H]c1c([H])c([H])c2c(c1[H])C([H])([H])C([H])([H])C([H])([H])C2([H])N([H])C(=O)C1([H])N(C(=O)C([H])(N([H])C(=O)C([H])(N([H])C([H])([H])[H])C([H])([H])[H])C(C([H])([H])[H])(C([H])([H])[H])C([H])([H])[H])C([H])([H])c2c([H])c(OC([H])([H])C([H])([H])C([H])([H])[N+]([H])([H])C([H])([H])C([H])([H])N([H])C(=O)C3([H])C([H])(N([H])C(=O)N4C([H])([H])C([H])([H])C([H])([H])C([H])(n5nc(-c6c([H])c([H])c(Oc7c([H])c([H])c(F)c([H])c7F)c([H])c6[H])c(C(=O)N([H])[H])c5N([H])[H])C4([H])[H])C([H])([H])[N+]([H])(C([H])([H])C([H])([H])F)C3([H])[H])c([H])c([H])c2C1([H])[H]

$$$$
21:0:0
     RDKit          3D

 93101  0  0  1  0  0  0  0  0999 V2000
  -30.0850  -22.0700   21.6580 N   0  0  0  0  0  4  0  0  0  0  0  0
  -30.9370  -22.1510   21.1260 H   0  0  0  0  0  0  0  0  0  0  0  0
  -30.3610  -21.7900   22.5870 H   0  0  0  0  0  0  0  0  0  0  0  0
  -29.2180  -20.9780   21.1270 C   0  0  0  0  0  2  0  0  0  0  0  0
  -29.5070  -19.5550   21.7050 C   0  0  0  0  0  2  0  0  0  0  0  0
  -30.6540  -18.7670   21.0580 C   0  0  0  0  0  0  0  0  0  0  0  0
  -31.7670  -18.7890   21.5910 O   0  0  0  0  0  0  0  0  0  0  0  0
  -31.4390  -17.6130   18.8470 C   0  0  0  0  0  2  0  0  0  0  0  0
  -30.4670  -16.5490   18.3190 C   0  0  0  0  0  2  0  0  0  0  0  0
  -30.3030  -18.0840   19.7600 C   0  0  0  0  0  3  0  0  0  0  0  0
  -29.7270  -16.6320   19.6780 C   0  0  0  0  0  3  0  0  0  0  0  0
  -30.9140  -14.5350   20.5010 C   0  0  0  0  0  0  0  0  0  0  0  0
  -30.6560  -12.3140   19.4800 C   0  0  0  0  0  2  0  0  0  0  0  0
  -29.7590  -12.4940   18.2340 C   0  0  0  0  0  2  0  0  0  0  0  0
  -28.2680  -12.3920   18.6110 C   0  0  0  0  0  2  0  0  0  0  0  0
  -27.8960  -13.2750   19.8320 C   0  0  0  0  0  3  0  0  0  0  0  0
  -28.9110  -13.0850   20.9870 C   0  0  0  0  0  2  0  0  0  0  0  0
  -30.2630  -13.3410   20.4610 N   0  0  0  0  0  0  0  0  0  0  0  0
  -32.0810  -14.6730   20.1280 O   0  0  0  0  0  0  0  0  0  0  0  0
  -30.1020  -15.5970   20.6880 N   0  0  0  0  0  0  0  0  0  0  0  0
  -29.3080  -15.3390   21.2580 H   0  0  0  0  0  0  0  0  0  0  0  0
  -25.4890  -13.9380   20.4560 C   0  0  0  0  0  0  0  0  0  0  0  0
  -24.3950  -13.1900   20.8030 C   0  0  0  0  0  0  0  0  0  0  0  0
  -24.8330  -11.8300   20.8050 C   0  0  0  0  0  0  0  0  0  0  0  0
  -26.5240  -13.0340   20.2710 N   0  0  0  0  0  0  0  0  0  0  0  0
  -26.1310  -11.7630   20.5400 N   0  0  0  0  0  0  0  0  0  0  0  0
  -24.0810  -10.5840   20.9940 C   0  0  0  0  0  0  0  0  0  0  0  0
  -24.4790   -9.6210   21.9470 C   0  0  0  0  0  3  0  0  0  0  0  0
  -23.7320   -8.4360   22.1220 C   0  0  0  0  0  3  0  0  0  0  0  0
  -22.5740   -8.2060   21.3420 C   0  0  0  0  0  0  0  0  0  0  0  0
  -22.1970   -9.1580   20.3780 C   0  0  0  0  0  3  0  0  0  0  0  0
  -22.9440  -10.3330   20.2010 C   0  0  0  0  0  3  0  0  0  0  0  0
  -21.8000   -7.0750   21.4270 O   0  0  0  0  0  0  0  0  0  0  0  0
  -21.7150   -6.3450   22.5850 C   0  0  0  0  0  0  0  0  0  0  0  0
  -21.2760   -6.9190   23.7990 C   0  0  0  0  0  3  0  0  0  0  0  0
  -21.1380   -6.1140   24.9480 C   0  0  0  0  0  3  0  0  0  0  0  0
  -21.4300   -4.7380   24.8850 C   0  0  0  0  0  0  0  0  0  0  0  0
  -21.8610   -4.1650   23.6760 C   0  0  0  0  0  3  0  0  0  0  0  0
  -22.0010   -4.9660   22.5290 C   0  0  0  0  0  0  0  0  0  0  0  0
  -22.3960   -4.4040   21.3610 F   0  0  0  0  0  0  0  0  0  0  0  0
  -21.2880   -3.9630   25.9850 F   0  0  0  0  0  0  0  0  0  0  0  0
  -22.9980  -13.6920   21.0250 C   0  0  0  0  0  0  0  0  0  0  0  0
  -22.2330  -13.0240   21.8830 N   0  0  0  0  0  0  0  0  0  0  0  0
  -22.5890  -14.7130   20.4740 O   0  0  0  0  0  0  0  0  0  0  0  0
  -22.5740  -12.1990   22.3550 H   0  0  0  0  0  0  0  0  0  0  0  0
  -21.2930  -13.3420   22.0730 H   0  0  0  0  0  0  0  0  0  0  0  0
  -25.6870  -15.3020   20.2610 N   0  0  0  0  0  0  0  0  0  0  0  0
  -24.9300  -15.9750   20.3310 H   0  0  0  0  0  0  0  0  0  0  0  0
  -26.5550  -15.7130   19.9450 H   0  0  0  0  0  0  0  0  0  0  0  0
  -29.4480  -23.4160   21.8300 C   0  0  0  0  0  2  0  0  0  0  0  0
  -29.4530  -24.3760   20.5800 C   0  0  0  0  0  2  0  0  0  0  0  0
  -28.2830  -25.2540   20.0030 C   0  0  0  0  0  2  0  0  0  0  0  0
  -28.4050  -26.6930   20.1630 O   0  0  0  0  0  0  0  0  0  0  0  0
  -24.5920  -31.8820   23.2450 C   0  0  0  0  0  0  0  0  0  0  0  0
  -27.2370  -27.4440   20.1280 C   0  0  0  0  0  0  0  0  0  0  0  0
  -23.3870  -30.4940   21.5890 C   0  0  0  0  0  3  0  0  0  0  0  0
  -24.8430  -28.9730   20.1470 C   0  0  0  0  0  0  0  0  0  0  0  0
  -25.9160  -30.8490   21.4010 C   0  0  0  0  0  2  0  0  0  0  0  0
  -26.0030  -29.4840   20.7440 C   0  0  0  0  0  0  0  0  0  0  0  0
  -27.2020  -28.7270   20.7290 C   0  0  0  0  0  3  0  0  0  0  0  0
  -26.0550  -26.9630   19.5110 C   0  0  0  0  0  3  0  0  0  0  0  0
  -24.8670  -27.7150   19.5250 C   0  0  0  0  0  3  0  0  0  0  0  0
  -23.5990  -29.8330   20.2030 C   0  0  0  0  0  2  0  0  0  0  0  0
  -24.6490  -31.0890   22.1360 N   0  0  0  0  0  0  0  0  0  0  0  0
  -23.5100  -32.1490   23.7870 O   0  0  0  0  0  0  0  0  0  0  0  0
  -22.7350  -29.4640   22.5390 C   0  0  0  0  0  0  0  0  0  0  0  0
  -21.4070  -29.2930   22.4170 N   0  0  0  0  0  0  0  0  0  0  0  0
  -23.4160  -28.8230   23.3430 O   0  0  0  0  0  0  0  0  0  0  0  0
  -20.9210  -29.8590   21.7360 H   0  0  0  0  0  0  0  0  0  0  0  0
  -18.0260  -28.1180   22.9260 C   0  0  0  0  0  0  0  0  0  0  0  0
  -20.5880  -28.3510   23.1810 C   0  0  0  0  0  3  0  0  0  0  0  0
  -20.6740  -26.9270   22.5850 C   0  0  0  0  0  2  0  0  0  0  0  0
  -19.5620  -26.6280   21.5730 C   0  0  0  0  0  2  0  0  0  0  0  0
  -18.1870  -26.7770   22.2300 C   0  0  0  0  0  2  0  0  0  0  0  0
  -19.1550  -28.8640   23.3590 C   0  0  0  0  0  0  0  0  0  0  0  0
  -18.9520  -30.1220   23.9690 C   0  0  0  0  0  3  0  0  0  0  0  0
  -17.6530  -30.6330   24.1480 C   0  0  0  0  0  3  0  0  0  0  0  0
  -16.5390  -29.8840   23.7320 C   0  0  0  0  0  3  0  0  0  0  0  0
  -16.7270  -28.6290   23.1280 C   0  0  0  0  0  3  0  0  0  0  0  0
  -25.8770  -32.5080   23.8680 C   0  0  0  0  0  3  0  0  0  0  0  0
  -25.5680  -33.9010   24.2130 N   0  0  0  0  0  0  0  0  0  0  0  0
  -25.9050  -34.9610   23.4660 C   0  0  0  0  0  0  0  0  0  0  0  0
  -26.5820  -34.8670   22.4390 O   0  0  0  0  0  0  0  0  0  0  0  0
  -24.9640  -34.0480   25.0090 H   0  0  0  0  0  0  0  0  0  0  0  0
  -24.1870  -36.7620   23.1080 C   0  0  0  0  0  1  0  0  0  0  0  0
  -25.4140  -36.3450   23.9330 C   0  0  0  0  0  3  0  0  0  0  0  0
  -27.5390  -37.2110   24.8080 C   0  0  0  0  0  1  0  0  0  0  0  0
  -26.4520  -37.3960   23.8490 N   0  0  0  0  0  0  0  0  0  0  0  0
  -26.0470  -38.3150   24.0070 H   0  0  0  0  0  0  0  0  0  0  0  0
  -26.3980  -31.7220   25.1340 C   0  0  1  0  0  0  0  0  0  0  0  0
  -25.3080  -31.4700   26.2000 C   0  0  0  0  0  1  0  0  0  0  0  0
  -26.9820  -30.3490   24.7250 C   0  0  0  0  0  1  0  0  0  0  0  0
  -27.5510  -32.5090   25.8040 C   0  0  0  0  0  1  0  0  0  0  0  0
  1 50  1  0
  1  3  1  0
  2  1  1  0
  4  1  1  0
  4  5  1  0
  6  7  2  0
  6  5  1  0
  8 10  1  0
  9  8  1  0
  9 11  1  0
 10  6  1  0
 11 10  1  0
 11 20  1  0
 12 20  1  0
 13 18  1  0
 14 15  1  0
 14 13  1  0
 16 15  1  0
 16 25  1  0
 16 17  1  0
 18 12  1  0
 18 17  1  0
 19 12  2  0
 20 21  1  0
 22 23  2  0
 23 24  1  0
 23 42  1  0
 24 27  1  0
 25 22  1  0
 25 26  1  0
 26 24  2  0
 27 28  1  0
 28 29  2  0
 30 33  1  0
 30 29  1  0
 31 30  2  0
 32 31  1  0
 32 27  2  0
 33 34  1  0
 34 35  1  0
 35 36  2  0
 37 36  1  0
 37 41  1  0
 38 37  2  0
 39 34  2  0
 39 38  1  0
 40 39  1  0
 42 43  1  0
 43 46  1  0
 43 45  1  0
 44 42  2  0
 47 48  1  0
 47 22  1  0
 49 47  1  0
 51 50  1  0
 52 53  1  0
 52 51  1  0
 54 65  2  0
 55 53  1  0
 55 60  1  0
 56 64  1  0
 56 66  1  0
 57 63  1  0
 57 59  1  0
 58 64  1  0
 59 58  1  0
 60 59  2  0
 61 62  1  0
 61 55  2  0
 62 57  2  0
 63 56  1  0
 64 54  1  0
 66 68  2  0
 67 66  1  0
 69 67  1  0
 70 79  2  0
 70 75  1  0
 71 67  1  0
 71 75  1  0
 72 71  1  0
 73 74  1  0
 73 72  1  0
 74 70  1  0
 75 76  2  0
 76 77  1  0
 78 77  2  0
 79 78  1  0
 80 54  1  0
 80 81  1  0
 80 90  1  0
 81 84  1  0
 82 86  1  0
 82 81  1  0
 83 82  2  0
 86 85  1  0
 88 86  1  0
 88 89  1  0
 88 87  1  0
 90 93  1  1
 90 91  1  0
 92 90  1  0
M  ISO  4  12 100  20 100  52 101  53 101
M  END
>  <TORSDO>  (22) 
F 23

>  <SCORE>  (22) 
-12.150

>  <name>  (22) 
21

>  <ligand_id>  (22) 
21

>  <original_smiles>  (22) 
[H]c1c([H])c([H])c2c(c1[H])C([H])([H])C([H])([H])C([H])([H])C2([H])N([H])C(=O)C1([H])N(C(=O)C([H])(N([H])C(=O)C([H])(N([H])C([H])([H])[H])C([H])([H])[H])C(C([H])([H])[H])(C([H])([H])[H])C([H])([H])[H])C([H])([H])c2c([H])c(OC([H])([H])C([H])([H])C([H])([H])[N+]([H])([H])C([H])([H])C([H])([H])C(=O)C3([H])C([H])([H])C([H])([H])C3([H])N([H])C(=O)N3C([H])([H])C([H])([H])C([H])([H])C([H])(n4nc(-c5c([H])c([H])c(Oc6c([H])c([H])c(F)c([H])c6F)c([H])c5[H])c(C(=O)N([H])[H])c4N([H])[H])C3([H])[H])c([H])c([H])c2C1([H])[H]

>  <smiles>  (22) 
[H]c1c([H])c([H])c2c(c1[H])C([H])([H])C([H])([H])C([H])([H])C2([H])N([H])C(=O)C1([H])N(C(=O)C([H])(N([H])C(=O)C([H])(N([H])C([H])([H])[H])C([H])([H])[H])C(C([H])([H])[H])(C([H])([H])[H])C([H])([H])[H])C([H])([H])c2c([H])c(OC([H])([H])C([H])([H])C([H])([H])[N+]([H])([H])C([H])([H])C([H])([H])C(=O)C3([H])C([H])([H])C([H])([H])C3([H])N([H])C(=O)N3C([H])([H])C([H])([H])C([H])([H])C([H])(n4nc(-c5c([H])c([H])c(Oc6c([H])c([H])c(F)c([H])c6F)c([H])c5[H])c(C(=O)N([H])[H])c4N([H])[H])C3([H])[H])c([H])c([H])c2C1([H])[H]

$$$$
22:0:0
     RDKit          3D

101110  0  0  1  0  0  0  0  0999 V2000
  -32.9820  -21.1940   23.2820 C   0  0  0  0  0  2  0  0  0  0  0  0
  -33.6640  -21.9360   22.1320 C   0  0  0  0  0  2  0  0  0  0  0  0
  -31.7090  -21.0840   22.4300 C   0  0  0  0  0  3  0  0  0  0  0  0
  -32.3000  -22.1160   21.4400 C   0  0  0  0  0  3  0  0  0  0  0  0
  -31.4650  -19.6840   21.8400 C   0  0  0  0  0  0  0  0  0  0  0  0
  -30.2060  -19.2310   21.8750 N   0  0  0  0  0  0  0  0  0  0  0  0
  -32.3890  -19.0330   21.3510 O   0  0  0  0  0  0  0  0  0  0  0  0
  -29.5230  -19.8380   22.3080 H   0  0  0  0  0  0  0  0  0  0  0  0
  -30.2840  -14.2600   19.7170 C   0  0  0  0  0  0  0  0  0  0  0  0
  -29.8180  -12.2010   18.4460 C   0  0  0  0  0  2  0  0  0  0  0  0
  -28.6920  -12.4810   17.4290 C   0  0  0  0  0  2  0  0  0  0  0  0
  -27.3030  -12.2960   18.0740 C   0  0  0  0  0  2  0  0  0  0  0  0
  -27.1710  -13.0380   19.4300 C   0  0  0  0  0  3  0  0  0  0  0  0
  -28.3840  -12.7210   20.3340 C   0  0  0  0  0  2  0  0  0  0  0  0
  -29.6090  -13.0860   19.5990 N   0  0  0  0  0  0  0  0  0  0  0  0
  -31.2760  -14.5480   19.0380 O   0  0  0  0  0  0  0  0  0  0  0  0
  -30.4110  -16.7450   22.1830 C   0  0  0  0  0  2  0  0  0  0  0  0
  -29.7270  -15.4070   21.8360 C   0  0  0  0  0  2  0  0  0  0  0  0
  -28.9950  -16.3350   19.6430 C   0  0  0  0  0  2  0  0  0  0  0  0
  -29.7130  -17.9130   21.4620 C   0  0  0  0  0  3  0  0  0  0  0  0
  -29.7140  -17.6670   19.9320 C   0  0  0  0  0  3  0  0  0  0  0  0
  -29.6060  -15.2200   20.3810 N   0  0  0  0  0  0  0  0  0  0  0  0
  -24.9140  -13.5850   20.5460 C   0  0  0  0  0  0  0  0  0  0  0  0
  -23.9150  -12.7820   21.0260 C   0  0  0  0  0  0  0  0  0  0  0  0
  -24.3600  -11.4380   20.8270 C   0  0  0  0  0  0  0  0  0  0  0  0
  -25.9070  -12.7290   20.0940 N   0  0  0  0  0  0  0  0  0  0  0  0
  -25.5840  -11.4290   20.3150 N   0  0  0  0  0  0  0  0  0  0  0  0
  -23.6710  -10.1600   21.0410 C   0  0  0  0  0  0  0  0  0  0  0  0
  -24.2110   -9.1640   21.8820 C   0  0  0  0  0  3  0  0  0  0  0  0
  -23.5210   -7.9490   22.0850 C   0  0  0  0  0  3  0  0  0  0  0  0
  -22.2780   -7.7230   21.4470 C   0  0  0  0  0  0  0  0  0  0  0  0
  -21.7560   -8.7110   20.5930 C   0  0  0  0  0  3  0  0  0  0  0  0
  -22.4460   -9.9170   20.3880 C   0  0  0  0  0  3  0  0  0  0  0  0
  -21.5500   -6.5640   21.5660 O   0  0  0  0  0  0  0  0  0  0  0  0
  -21.5820   -5.8080   22.7100 C   0  0  0  0  0  0  0  0  0  0  0  0
  -21.1770   -6.3280   23.9580 C   0  0  0  0  0  3  0  0  0  0  0  0
  -21.1590   -5.4970   25.0950 C   0  0  0  0  0  3  0  0  0  0  0  0
  -21.5360   -4.1440   24.9850 C   0  0  0  0  0  0  0  0  0  0  0  0
  -21.9340   -3.6230   23.7410 C   0  0  0  0  0  3  0  0  0  0  0  0
  -21.9540   -4.4530   22.6070 C   0  0  0  0  0  0  0  0  0  0  0  0
  -22.3180   -3.9390   21.4070 F   0  0  0  0  0  0  0  0  0  0  0  0
  -21.5110   -3.3430   26.0760 F   0  0  0  0  0  0  0  0  0  0  0  0
  -22.5810  -13.2270   21.5520 C   0  0  0  0  0  0  0  0  0  0  0  0
  -21.9990  -12.4660   22.4710 N   0  0  0  0  0  0  0  0  0  0  0  0
  -22.0680  -14.2820   21.1810 O   0  0  0  0  0  0  0  0  0  0  0  0
  -22.4300  -11.6110   22.7910 H   0  0  0  0  0  0  0  0  0  0  0  0
  -21.1100  -12.7440   22.8640 H   0  0  0  0  0  0  0  0  0  0  0  0
  -25.0530  -14.9650   20.4410 N   0  0  0  0  0  0  0  0  0  0  0  0
  -24.3140  -15.6050   20.7090 H   0  0  0  0  0  0  0  0  0  0  0  0
  -25.8380  -15.4280   20.0000 H   0  0  0  0  0  0  0  0  0  0  0  0
  -29.0970  -18.7850   19.1970 N   0  0  0  0  0  4  0  0  0  0  0  0
  -28.1390  -18.9180   19.4690 H   0  0  0  0  0  0  0  0  0  0  0  0
  -29.1300  -18.6170   18.2060 H   0  0  0  0  0  0  0  0  0  0  0  0
  -29.6010  -19.6320   19.3820 H   0  0  0  0  0  0  0  0  0  0  0  0
  -31.7290  -23.5360   21.3950 C   0  0  0  0  0  2  0  0  0  0  0  0
  -30.3840  -23.6170   20.7810 N   0  0  0  0  0  4  0  0  0  0  0  0
  -29.7280  -23.1100   21.3560 H   0  0  0  0  0  0  0  0  0  0  0  0
  -30.4140  -23.1780   19.8730 H   0  0  0  0  0  0  0  0  0  0  0  0
  -29.9270  -25.0170   20.6180 C   0  0  0  0  0  2  0  0  0  0  0  0
  -28.4890  -25.1740   20.0900 C   0  0  0  0  0  2  0  0  0  0  0  0
  -28.4010  -26.5600   19.7970 O   0  0  0  0  0  0  0  0  0  0  0  0
  -24.5760  -31.5590   23.0380 C   0  0  0  0  0  0  0  0  0  0  0  0
  -27.1840  -27.1840   19.8720 C   0  0  0  0  0  0  0  0  0  0  0  0
  -23.3430  -30.1760   21.3960 C   0  0  0  0  0  3  0  0  0  0  0  0
  -24.7740  -28.6450   19.9430 C   0  0  0  0  0  0  0  0  0  0  0  0
  -25.8580  -30.5470   21.1600 C   0  0  0  0  0  2  0  0  0  0  0  0
  -25.9350  -29.1820   20.5110 C   0  0  0  0  0  0  0  0  0  0  0  0
  -27.1420  -28.4600   20.4670 C   0  0  0  0  0  3  0  0  0  0  0  0
  -26.0070  -26.6370   19.3150 C   0  0  0  0  0  3  0  0  0  0  0  0
  -24.8020  -27.3690   19.3450 C   0  0  0  0  0  3  0  0  0  0  0  0
  -23.5300  -29.5020   20.0090 C   0  0  0  0  0  2  0  0  0  0  0  0
  -24.6110  -30.7750   21.9230 N   0  0  0  0  0  0  0  0  0  0  0  0
  -23.5050  -31.8260   23.5990 O   0  0  0  0  0  0  0  0  0  0  0  0
  -22.7050  -29.1470   22.3560 C   0  0  0  0  0  0  0  0  0  0  0  0
  -21.3770  -28.9830   22.2570 N   0  0  0  0  0  0  0  0  0  0  0  0
  -23.4020  -28.4990   23.1420 O   0  0  0  0  0  0  0  0  0  0  0  0
  -20.8770  -29.5580   21.5930 H   0  0  0  0  0  0  0  0  0  0  0  0
  -18.0010  -27.8260   22.8090 C   0  0  0  0  0  0  0  0  0  0  0  0
  -20.5670  -28.0420   23.0280 C   0  0  0  0  0  3  0  0  0  0  0  0
  -20.6360  -26.6210   22.4220 C   0  0  0  0  0  2  0  0  0  0  0  0
  -19.5080  -26.3330   21.4260 C   0  0  0  0  0  2  0  0  0  0  0  0
  -18.1420  -26.4870   22.1050 C   0  0  0  0  0  2  0  0  0  0  0  0
  -19.1400  -28.5630   23.2280 C   0  0  0  0  0  0  0  0  0  0  0  0
  -18.9550  -29.8190   23.8440 C   0  0  0  0  0  3  0  0  0  0  0  0
  -17.6610  -30.3370   24.0470 C   0  0  0  0  0  3  0  0  0  0  0  0
  -16.5370  -29.5960   23.6450 C   0  0  0  0  0  3  0  0  0  0  0  0
  -16.7070  -28.3420   23.0320 C   0  0  0  0  0  3  0  0  0  0  0  0
  -25.8740  -32.1790   23.6470 C   0  0  0  0  0  3  0  0  0  0  0  0
  -25.5650  -33.5590   24.0390 N   0  0  0  0  0  0  0  0  0  0  0  0
  -25.8700  -34.6420   23.3100 C   0  0  0  0  0  0  0  0  0  0  0  0
  -26.5140  -34.5820   22.2590 O   0  0  0  0  0  0  0  0  0  0  0  0
  -24.9910  -33.6800   24.8600 H   0  0  0  0  0  0  0  0  0  0  0  0
  -24.1180  -36.4280   23.0630 C   0  0  0  0  0  1  0  0  0  0  0  0
  -25.3820  -36.0070   23.8300 C   0  0  0  0  0  3  0  0  0  0  0  0
  -27.5210  -36.8860   24.6520 C   0  0  0  0  0  1  0  0  0  0  0  0
  -26.4020  -37.0730   23.7320 N   0  0  0  0  0  0  0  0  0  0  0  0
  -25.9900  -37.9850   23.9150 H   0  0  0  0  0  0  0  0  0  0  0  0
  -26.4370  -31.3630   24.8750 C   0  0  1  0  0  0  0  0  0  0  0  0
  -25.3830  -31.0810   25.9710 C   0  0  0  0  0  1  0  0  0  0  0  0
  -27.0080  -30.0030   24.4080 C   0  0  0  0  0  1  0  0  0  0  0  0
  -27.6080  -32.1350   25.5260 C   0  0  0  0  0  1  0  0  0  0  0  0
  2  1  1  0
  3  5  1  0
  3  1  1  0
  4 55  1  0
  4  2  1  0
  4  3  1  0
  5  6  1  0
  6  8  1  0
  7  5  2  0
  9 22  1  0
 10 15  1  0
 11 12  1  0
 11 10  1  0
 13 12  1  0
 13 26  1  0
 13 14  1  0
 15  9  1  0
 15 14  1  0
 16  9  2  0
 18 17  1  0
 19 21  1  0
 19 22  1  0
 20  6  1  0
 20 17  1  0
 21 51  1  0
 21 20  1  0
 22 18  1  0
 23 24  2  0
 24 43  1  0
 25 24  1  0
 25 28  1  0
 26 27  1  0
 26 23  1  0
 27 25  2  0
 28 29  1  0
 29 30  2  0
 31 34  1  0
 31 30  1  0
 32 31  2  0
 33 32  1  0
 33 28  2  0
 34 35  1  0
 35 36  1  0
 36 37  2  0
 38 37  1  0
 38 42  1  0
 39 38  2  0
 40 35  2  0
 40 39  1  0
 41 40  1  0
 43 44  1  0
 44 46  1  0
 44 47  1  0
 45 43  2  0
 48 23  1  0
 48 49  1  0
 50 48  1  0
 51 54  1  0
 51 52  1  0
 53 51  1  0
 56 57  1  0
 56 55  1  0
 58 56  1  0
 59 56  1  0
 60 59  1  0
 61 63  1  0
 61 60  1  0
 62 73  2  0
 63 68  1  0
 64 72  1  0
 64 74  1  0
 65 71  1  0
 65 67  1  0
 66 72  1  0
 67 66  1  0
 68 67  2  0
 69 70  1  0
 69 63  2  0
 70 65  2  0
 71 64  1  0
 72 62  1  0
 74 76  2  0
 75 74  1  0
 77 75  1  0
 78 87  2  0
 78 83  1  0
 79 75  1  0
 79 83  1  0
 80 79  1  0
 81 82  1  0
 81 80  1  0
 82 78  1  0
 83 84  2  0
 84 85  1  0
 86 85  2  0
 87 86  1  0
 88 62  1  0
 88 89  1  0
 88 98  1  0
 89 92  1  0
 90 94  1  0
 90 89  1  0
 91 90  2  0
 94 93  1  0
 96 94  1  0
 96 97  1  0
 96 95  1  0
 98101  1  1
 98 99  1  0
100 98  1  0
M  ISO  4   9 100  22 100  60 101  61 101
M  END
>  <TORSDO>  (23) 
F 22

>  <SCORE>  (23) 
-9.802

>  <name>  (23) 
22

>  <ligand_id>  (23) 
22

>  <original_smiles>  (23) 
[H]c1c([H])c([H])c2c(c1[H])C([H])([H])C([H])([H])C([H])([H])C2([H])N([H])C(=O)C1([H])N(C(=O)C([H])(N([H])C(=O)C([H])(N([H])C([H])([H])[H])C([H])([H])[H])C(C([H])([H])[H])(C([H])([H])[H])C([H])([H])[H])C([H])([H])c2c([H])c(OC([H])([H])C([H])([H])[N+]([H])([H])C([H])([H])C3([H])C([H])([H])C([H])([H])C3([H])C(=O)N([H])C3([H])C([H])([H])C([H])([H])N(C(=O)N4C([H])([H])C([H])([H])C([H])([H])C([H])(n5nc(-c6c([H])c([H])c(Oc7c([H])c([H])c(F)c([H])c7F)c([H])c6[H])c(C(=O)N([H])[H])c5N([H])[H])C4([H])[H])C([H])([H])C3([H])[N+]([H])([H])[H])c([H])c([H])c2C1([H])[H]

>  <smiles>  (23) 
[H]c1c([H])c([H])c2c(c1[H])C([H])([H])C([H])([H])C([H])([H])C2([H])N([H])C(=O)C1([H])N(C(=O)C([H])(N([H])C(=O)C([H])(N([H])C([H])([H])[H])C([H])([H])[H])C(C([H])([H])[H])(C([H])([H])[H])C([H])([H])[H])C([H])([H])c2c([H])c(OC([H])([H])C([H])([H])[N+]([H])([H])C([H])([H])C3([H])C([H])([H])C([H])([H])C3([H])C(=O)N([H])C3([H])C([H])([H])C([H])([H])N(C(=O)N4C([H])([H])C([H])([H])C([H])([H])C([H])(n5nc(-c6c([H])c([H])c(Oc7c([H])c([H])c(F)c([H])c7F)c([H])c6[H])c(C(=O)N([H])[H])c5N([H])[H])C4([H])[H])C([H])([H])C3([H])[N+]([H])([H])[H])c([H])c([H])c2C1([H])[H]

$$$$
23:0:0
     RDKit          3D

 99109  0  0  1  0  0  0  0  0999 V2000
  -32.5230  -22.8660   20.4040 C   0  0  0  0  0  2  0  0  0  0  0  0
  -30.2240  -22.4990   19.3820 C   0  0  0  0  0  2  0  0  0  0  0  0
  -33.0880  -21.7390   19.5370 C   0  0  0  0  0  2  0  0  0  0  0  0
  -30.8000  -21.3500   18.5330 C   0  0  0  0  0  3  0  0  0  0  0  0
  -31.3090  -23.5400   19.7330 C   0  0  0  0  0  3  0  0  0  0  0  0
  -32.0080  -20.6840   19.2310 C   0  0  0  0  0  3  0  0  0  0  0  0
  -30.7940  -24.6650   20.6430 C   0  0  0  0  0  0  0  0  0  0  0  0
  -30.9090  -25.9010   20.1510 N   0  0  0  0  0  0  0  0  0  0  0  0
  -30.3850  -24.4260   21.7810 O   0  0  0  0  0  0  0  0  0  0  0  0
  -31.1970  -25.9890   19.1870 H   0  0  0  0  0  0  0  0  0  0  0  0
  -30.8630  -27.1300   20.9300 C   0  0  0  0  0  2  0  0  0  0  0  0
  -29.5260  -27.3190   21.6520 C   0  0  0  0  0  2  0  0  0  0  0  0
  -28.6000  -28.0440   20.8310 O   0  0  0  0  0  0  0  0  0  0  0  0
  -24.9140  -29.1680   26.8160 C   0  0  0  0  0  0  0  0  0  0  0  0
  -27.5340  -28.6540   21.4630 C   0  0  0  0  0  0  0  0  0  0  0  0
  -23.8180  -29.9270   24.7250 C   0  0  0  0  0  3  0  0  0  0  0  0
  -25.3020  -29.9350   22.6470 C   0  0  0  0  0  0  0  0  0  0  0  0
  -26.3600  -29.8500   24.9130 C   0  0  0  0  0  2  0  0  0  0  0  0
  -26.3950  -29.5590   23.4320 C   0  0  0  0  0  0  0  0  0  0  0  0
  -27.5050  -28.9200   22.8520 C   0  0  0  0  0  3  0  0  0  0  0  0
  -26.4310  -29.0520   20.6760 C   0  0  0  0  0  3  0  0  0  0  0  0
  -25.3100  -29.6820   21.2620 C   0  0  0  0  0  3  0  0  0  0  0  0
  -24.1540  -30.6090   23.3670 C   0  0  0  0  0  2  0  0  0  0  0  0
  -25.0420  -29.6060   25.5320 N   0  0  0  0  0  0  0  0  0  0  0  0
  -23.8020  -29.0770   27.3530 O   0  0  0  0  0  0  0  0  0  0  0  0
  -22.9340  -28.6940   24.4430 C   0  0  0  0  0  0  0  0  0  0  0  0
  -21.8080  -28.9180   23.7480 N   0  0  0  0  0  0  0  0  0  0  0  0
  -23.2710  -27.5690   24.8230 O   0  0  0  0  0  0  0  0  0  0  0  0
  -21.5930  -29.8690   23.4840 H   0  0  0  0  0  0  0  0  0  0  0  0
  -18.7080  -28.4210   21.9690 C   0  0  0  0  0  0  0  0  0  0  0  0
  -20.8420  -27.9030   23.3310 C   0  0  0  0  0  3  0  0  0  0  0  0
  -21.3350  -27.1460   22.0770 C   0  0  0  0  0  2  0  0  0  0  0  0
  -20.8330  -27.7580   20.7650 C   0  0  0  0  0  2  0  0  0  0  0  0
  -19.3030  -27.7710   20.7310 C   0  0  0  0  0  2  0  0  0  0  0  0
  -19.4370  -28.4960   23.1850 C   0  0  0  0  0  0  0  0  0  0  0  0
  -18.8530  -29.1460   24.2950 C   0  0  0  0  0  3  0  0  0  0  0  0
  -17.5640  -29.7060   24.2060 C   0  0  0  0  0  3  0  0  0  0  0  0
  -16.8390  -29.6130   23.0040 C   0  0  0  0  0  3  0  0  0  0  0  0
  -17.4100  -28.9690   21.8910 C   0  0  0  0  0  3  0  0  0  0  0  0
  -26.1600  -28.7900   27.6790 C   0  0  0  0  0  3  0  0  0  0  0  0
  -25.7330  -28.7590   29.0840 N   0  0  0  0  0  0  0  0  0  0  0  0
  -26.1430  -29.6220   30.0230 C   0  0  0  0  0  0  0  0  0  0  0  0
  -26.9900  -30.4950   29.8090 O   0  0  0  0  0  0  0  0  0  0  0  0
  -25.0080  -28.0970   29.3190 H   0  0  0  0  0  0  0  0  0  0  0  0
  -24.3630  -30.5070   31.5570 C   0  0  0  0  0  1  0  0  0  0  0  0
  -25.5150  -29.4980   31.4230 C   0  0  0  0  0  3  0  0  0  0  0  0
  -27.5000  -28.6490   32.5950 C   0  0  0  0  0  1  0  0  0  0  0  0
  -26.4820  -29.6950   32.5240 N   0  0  0  0  0  0  0  0  0  0  0  0
  -26.0040  -29.7280   33.4190 H   0  0  0  0  0  0  0  0  0  0  0  0
  -26.8120  -27.4130   27.2650 C   0  0  1  0  0  0  0  0  0  0  0  0
  -25.8210  -26.2260   27.2870 C   0  0  0  0  0  1  0  0  0  0  0  0
  -27.4120  -27.5040   25.8410 C   0  0  0  0  0  1  0  0  0  0  0  0
  -27.9770  -27.0710   28.2230 C   0  0  0  0  0  1  0  0  0  0  0  0
  -32.5980  -19.5230   18.4010 C   0  0  0  0  0  2  0  0  0  0  0  0
  -32.0100  -18.1280   18.7180 C   0  0  0  0  0  2  0  0  0  0  0  0
  -28.6200  -20.6260   17.7770 C   0  0  0  0  0  3  0  0  0  0  0  0
  -27.8370  -22.3620   16.2200 C   0  0  0  0  0  2  0  0  0  0  0  0
  -27.9810  -23.8200   16.6880 C   0  0  0  0  0  2  0  0  0  0  0  0
  -26.8210  -24.2420   17.6060 C   0  0  0  0  0  2  0  0  0  0  0  0
  -26.5670  -23.2180   18.7380 C   0  0  0  0  0  3  0  0  0  0  0  0
  -26.4240  -21.8120   18.1250 C   0  0  0  0  0  2  0  0  0  0  0  0
  -27.6500  -21.4810   17.3810 N   0  0  0  0  0  0  0  0  0  0  0  0
  -29.8100  -20.7640   17.4610 O   0  0  0  0  0  0  0  0  0  0  0  0
  -28.7300  -18.5470   20.3070 C   0  0  0  0  0  2  0  0  0  0  0  0
  -27.6300  -18.8380   19.2670 C   0  0  0  0  0  2  0  0  0  0  0  0
  -28.5660  -18.2930   17.0580 C   0  0  0  0  0  2  0  0  0  0  0  0
  -29.8370  -17.5990   19.8180 C   0  0  0  0  0  2  0  0  0  0  0  0
  -29.9650  -17.6860   17.3440 C   0  0  0  0  0  2  0  0  0  0  0  0
  -28.1550  -19.3660   17.9880 N   0  0  0  0  0  0  0  0  0  0  0  0
  -30.5370  -18.1580   18.6330 N   0  0  2  0  0  4  0  0  0  0  0  0
  -30.3440  -19.1510   18.6190 H   0  0  0  0  0  0  0  0  0  0  0  0
  -25.3030  -24.0650   20.8180 C   0  0  0  0  0  0  0  0  0  0  0  0
  -23.9740  -24.2970   21.0450 C   0  0  0  0  0  0  0  0  0  0  0  0
  -23.2990  -23.9380   19.8380 C   0  0  0  0  0  0  0  0  0  0  0  0
  -25.3880  -23.5770   19.5230 N   0  0  0  0  0  0  0  0  0  0  0  0
  -24.1620  -23.4580   18.9550 N   0  0  0  0  0  0  0  0  0  0  0  0
  -21.8910  -24.0790   19.4500 C   0  0  0  0  0  0  0  0  0  0  0  0
  -20.9980  -22.9850   19.5010 C   0  0  0  0  0  3  0  0  0  0  0  0
  -19.6430  -23.1500   19.1420 C   0  0  0  0  0  3  0  0  0  0  0  0
  -19.1670  -24.4180   18.7280 C   0  0  0  0  0  0  0  0  0  0  0  0
  -20.0640  -25.4990   18.6590 C   0  0  0  0  0  3  0  0  0  0  0  0
  -21.4130  -25.3300   19.0100 C   0  0  0  0  0  3  0  0  0  0  0  0
  -17.8740  -24.6660   18.3330 O   0  0  0  0  0  0  0  0  0  0  0  0
  -16.8050  -24.3700   19.1410 C   0  0  0  0  0  0  0  0  0  0  0  0
  -16.8190  -24.6550   20.5240 C   0  0  0  0  0  3  0  0  0  0  0  0
  -15.6730  -24.4020   21.3060 C   0  0  0  0  0  3  0  0  0  0  0  0
  -14.5150  -23.8700   20.7080 C   0  0  0  0  0  0  0  0  0  0  0  0
  -14.5000  -23.5870   19.3300 C   0  0  0  0  0  3  0  0  0  0  0  0
  -15.6430  -23.8390   18.5490 C   0  0  0  0  0  0  0  0  0  0  0  0
  -15.6150  -23.5870   17.2190 F   0  0  0  0  0  0  0  0  0  0  0  0
  -13.4120  -23.6340   21.4560 F   0  0  0  0  0  0  0  0  0  0  0  0
  -23.3650  -24.9070   22.2750 C   0  0  0  0  0  0  0  0  0  0  0  0
  -22.0430  -24.8760   22.3860 N   0  0  0  0  0  0  0  0  0  0  0  0
  -24.0690  -25.3660   23.1730 O   0  0  0  0  0  0  0  0  0  0  0  0
  -21.4680  -24.4800   21.6580 H   0  0  0  0  0  0  0  0  0  0  0  0
  -21.6000  -25.2530   23.2120 H   0  0  0  0  0  0  0  0  0  0  0  0
  -26.4440  -24.2400   21.5970 N   0  0  0  0  0  0  0  0  0  0  0  0
  -26.4140  -24.6570   22.5210 H   0  0  0  0  0  0  0  0  0  0  0  0
  -27.3880  -24.0740   21.2700 H   0  0  0  0  0  0  0  0  0  0  0  0
  2  5  1  0
  3  1  1  0
  4  6  1  0
  4  2  1  0
  5  1  1  0
  5  7  1  0
  6 54  1  0
  6  3  1  0
  7  9  2  0
  8  7  1  0
  8 11  1  0
 10  8  1  0
 11 12  1  0
 13 15  1  0
 13 12  1  0
 14 25  2  0
 15 20  1  0
 16 26  1  0
 16 24  1  0
 17 23  1  0
 17 19  1  0
 18 24  1  0
 19 18  1  0
 20 19  2  0
 21 22  1  0
 21 15  2  0
 22 17  2  0
 23 16  1  0
 24 14  1  0
 26 28  2  0
 27 26  1  0
 29 27  1  0
 30 35  1  0
 31 27  1  0
 32 31  1  0
 33 32  1  0
 34 33  1  0
 34 30  1  0
 35 31  1  0
 35 36  2  0
 37 36  1  0
 38 37  2  0
 39 30  2  0
 39 38  1  0
 40 14  1  0
 40 41  1  0
 41 44  1  0
 41 42  1  0
 42 46  1  0
 43 42  2  0
 46 45  1  0
 46 48  1  0
 48 47  1  0
 48 49  1  0
 50 51  1  6
 50 40  1  0
 50 53  1  0
 52 50  1  0
 54 55  1  0
 56 63  1  0
 56 69  1  0
 57 58  1  0
 58 59  1  0
 60 59  1  0
 60 75  1  0
 61 60  1  0
 62 57  1  0
 62 56  1  0
 62 61  1  0
 63  4  1  0
 65 64  1  0
 66 68  1  0
 67 64  1  0
 68 70  1  0
 69 66  1  0
 69 65  1  0
 70 71  1  6
 70 55  1  0
 70 67  1  0
 72 73  2  0
 72 97  1  0
 73 92  1  0
 74 73  1  0
 75 72  1  0
 76 75  1  0
 76 74  2  0
 77 78  1  0
 77 74  1  0
 79 78  2  0
 80 79  1  0
 81 80  2  0
 81 82  1  0
 82 77  2  0
 83 80  1  0
 83 84  1  0
 84 85  1  0
 85 86  2  0
 87 86  1  0
 87 91  1  0
 88 87  2  0
 89 84  2  0
 89 88  1  0
 90 89  1  0
 92 93  1  0
 92 94  2  0
 93 96  1  0
 95 93  1  0
 97 98  1  0
 99 97  1  0
M  ISO  4  12 101  13 101  56 100  69 100
M  END
>  <TORSDO>  (24) 
F 21

>  <SCORE>  (24) 
-2.214

>  <name>  (24) 
23

>  <ligand_id>  (24) 
23

>  <original_smiles>  (24) 
[H]c1c([H])c([H])c2c(c1[H])C([H])([H])C([H])([H])C([H])([H])C2([H])N([H])C(=O)C1([H])N(C(=O)C([H])(N([H])C(=O)C([H])(N([H])C([H])([H])[H])C([H])([H])[H])C(C([H])([H])[H])(C([H])([H])[H])C([H])([H])[H])C([H])([H])c2c([H])c(OC([H])([H])C([H])([H])N([H])C(=O)C3([H])C([H])([H])C([H])([H])C([H])(C([H])([H])C([H])([H])[N+]4([H])C([H])([H])C([H])([H])N(C(=O)N5C([H])([H])C([H])([H])C([H])([H])C([H])(n6nc(-c7c([H])c([H])c(Oc8c([H])c([H])c(F)c([H])c8F)c([H])c7[H])c(C(=O)N([H])[H])c6N([H])[H])C5([H])[H])C([H])([H])C([H])([H])C4([H])[H])C([H])([H])C3([H])[H])c([H])c([H])c2C1([H])[H]

>  <smiles>  (24) 
[H]c1c([H])c([H])c2c(c1[H])C([H])([H])C([H])([H])C([H])([H])C2([H])N([H])C(=O)C1([H])N(C(=O)C([H])(N([H])C(=O)C([H])(N([H])C([H])([H])[H])C([H])([H])[H])C(C([H])([H])[H])(C([H])([H])[H])C([H])([H])[H])C([H])([H])c2c([H])c(OC([H])([H])C([H])([H])N([H])C(=O)C3([H])C([H])([H])C([H])([H])C([H])(C([H])([H])C([H])([H])[N+]4([H])C([H])([H])C([H])([H])N(C(=O)N5C([H])([H])C([H])([H])C([H])([H])C([H])(n6nc(-c7c([H])c([H])c(Oc8c([H])c([H])c(F)c([H])c8F)c([H])c7[H])c(C(=O)N([H])[H])c6N([H])[H])C5([H])[H])C([H])([H])C([H])([H])C4([H])[H])C([H])([H])C3([H])[H])c([H])c([H])c2C1([H])[H]

$$$$
24:0:0
     RDKit          3D

 96105  0  0  1  0  0  0  0  0999 V2000
  -27.7740  -22.6640   22.3630 C   0  0  0  0  0  2  0  0  0  0  0  0
  -27.6690  -23.9870   21.6220 C   0  0  0  0  0  2  0  0  0  0  0  0
  -29.0370  -22.4090   21.5330 C   0  0  0  0  0  3  0  0  0  0  0  0
  -28.5220  -23.4180   20.5730 N   0  0  2  0  0  4  0  0  0  0  0  0
  -27.9560  -22.9580   19.8750 H   0  0  0  0  0  0  0  0  0  0  0  0
  -28.7670  -18.6520   20.4430 C   0  0  0  0  0  3  0  0  0  0  0  0
  -28.4040  -19.9580   20.8690 C   0  0  0  0  0  3  0  0  0  0  0  0
  -30.7110  -20.6660   20.7160 C   0  0  0  0  0  3  0  0  0  0  0  0
  -30.1140  -18.3360   20.1450 C   0  0  0  0  0  0  0  0  0  0  0  0
  -29.3700  -20.9930   20.9980 C   0  0  0  0  0  0  0  0  0  0  0  0
  -31.0820  -19.3650   20.3070 C   0  0  0  0  0  0  0  0  0  0  0  0
  -32.3960  -19.1300   20.0660 F   0  0  0  0  0  0  0  0  0  0  0  0
  -30.9450  -14.6730   19.8990 C   0  0  0  0  0  0  0  0  0  0  0  0
  -30.5830  -12.4300   18.9730 C   0  0  0  0  0  2  0  0  0  0  0  0
  -29.6120  -12.5760   17.7820 C   0  0  0  0  0  2  0  0  0  0  0  0
  -28.1610  -12.4350   18.2750 C   0  0  0  0  0  2  0  0  0  0  0  0
  -27.8570  -13.3270   19.5110 C   0  0  0  0  0  3  0  0  0  0  0  0
  -28.9650  -13.2390   20.5880 C   0  0  0  0  0  2  0  0  0  0  0  0
  -30.2560  -13.4950   19.9410 N   0  0  0  0  0  0  0  0  0  0  0  0
  -32.1010  -14.7030   19.4710 O   0  0  0  0  0  0  0  0  0  0  0  0
  -30.5300  -17.0080   19.5320 C   0  0  0  0  0  0  0  0  0  0  0  0
  -30.2610  -15.8240   20.1550 N   0  0  0  0  0  0  0  0  0  0  0  0
  -31.1120  -17.0650   18.4400 O   0  0  0  0  0  0  0  0  0  0  0  0
  -29.5010  -15.7950   20.8120 H   0  0  0  0  0  0  0  0  0  0  0  0
  -25.5190  -13.9170   20.3950 C   0  0  0  0  0  0  0  0  0  0  0  0
  -24.4690  -13.1390   20.8030 C   0  0  0  0  0  0  0  0  0  0  0  0
  -24.9130  -11.7860   20.6900 C   0  0  0  0  0  0  0  0  0  0  0  0
  -26.5370  -13.0380   20.0650 N   0  0  0  0  0  0  0  0  0  0  0  0
  -26.1810  -11.7480   20.3020 N   0  0  0  0  0  0  0  0  0  0  0  0
  -24.1840  -10.5250   20.8760 C   0  0  0  0  0  0  0  0  0  0  0  0
  -24.5820   -9.5790   21.8480 C   0  0  0  0  0  3  0  0  0  0  0  0
  -23.8540   -8.3820   22.0220 C   0  0  0  0  0  3  0  0  0  0  0  0
  -22.7140   -8.1210   21.2250 C   0  0  0  0  0  0  0  0  0  0  0  0
  -22.3370   -9.0540   20.2430 C   0  0  0  0  0  3  0  0  0  0  0  0
  -23.0650  -10.2430   20.0670 C   0  0  0  0  0  3  0  0  0  0  0  0
  -21.9620   -6.9740   21.3050 O   0  0  0  0  0  0  0  0  0  0  0  0
  -21.7590   -6.3290   22.4980 C   0  0  0  0  0  0  0  0  0  0  0  0
  -21.1430   -6.9690   23.5960 C   0  0  0  0  0  3  0  0  0  0  0  0
  -20.8920   -6.2480   24.7810 C   0  0  0  0  0  3  0  0  0  0  0  0
  -21.2460   -4.8880   24.8670 C   0  0  0  0  0  0  0  0  0  0  0  0
  -21.8500   -4.2470   23.7700 C   0  0  0  0  0  3  0  0  0  0  0  0
  -22.1020   -4.9650   22.5890 C   0  0  0  0  0  0  0  0  0  0  0  0
  -22.6660   -4.3380   21.5280 F   0  0  0  0  0  0  0  0  0  0  0  0
  -20.9990   -4.1920   26.0000 F   0  0  0  0  0  0  0  0  0  0  0  0
  -23.0960  -13.6150   21.1840 C   0  0  0  0  0  0  0  0  0  0  0  0
  -22.4200  -12.8920   22.0700 N   0  0  0  0  0  0  0  0  0  0  0  0
  -22.6360  -14.6640   20.7340 O   0  0  0  0  0  0  0  0  0  0  0  0
  -22.8040  -12.0410   22.4540 H   0  0  0  0  0  0  0  0  0  0  0  0
  -21.5030  -13.1920   22.3700 H   0  0  0  0  0  0  0  0  0  0  0  0
  -25.6900  -15.2920   20.2550 N   0  0  0  0  0  0  0  0  0  0  0  0
  -24.9370  -15.9530   20.4150 H   0  0  0  0  0  0  0  0  0  0  0  0
  -26.5270  -15.7290   19.8920 H   0  0  0  0  0  0  0  0  0  0  0  0
  -29.4850  -24.4030   19.9780 C   0  0  0  0  0  2  0  0  0  0  0  0
  -29.5450  -25.7000   17.7530 C   0  0  0  0  0  1  0  0  0  0  0  0
  -28.7940  -25.4810   19.0750 C   0  0  0  0  0  3  0  0  0  0  0  0
  -28.7060  -26.7980   19.6900 O   0  0  0  0  0  0  0  0  0  0  0  0
  -24.7880  -31.6000   23.2220 C   0  0  0  0  0  0  0  0  0  0  0  0
  -27.5150  -27.5210   19.6980 C   0  0  0  0  0  0  0  0  0  0  0  0
  -23.6050  -30.3240   21.4690 C   0  0  0  0  0  3  0  0  0  0  0  0
  -25.0830  -28.9900   19.8770 C   0  0  0  0  0  0  0  0  0  0  0  0
  -26.1180  -30.7730   21.2800 C   0  0  0  0  0  2  0  0  0  0  0  0
  -26.2340  -29.4710   20.5070 C   0  0  0  0  0  0  0  0  0  0  0  0
  -27.4480  -28.7410   20.4240 C   0  0  0  0  0  3  0  0  0  0  0  0
  -26.3380  -27.0890   19.0350 C   0  0  0  0  0  3  0  0  0  0  0  0
  -25.1330  -27.8030   19.1360 C   0  0  0  0  0  3  0  0  0  0  0  0
  -23.8150  -29.8000   20.0250 C   0  0  0  0  0  2  0  0  0  0  0  0
  -24.8560  -30.9110   22.0480 N   0  0  0  0  0  0  0  0  0  0  0  0
  -23.7070  -31.7780   23.8000 O   0  0  0  0  0  0  0  0  0  0  0  0
  -23.0060  -29.1880   22.3300 C   0  0  0  0  0  0  0  0  0  0  0  0
  -21.6980  -28.9280   22.1600 N   0  0  0  0  0  0  0  0  0  0  0  0
  -23.7150  -28.5460   23.1100 O   0  0  0  0  0  0  0  0  0  0  0  0
  -21.1850  -29.5020   21.5060 H   0  0  0  0  0  0  0  0  0  0  0  0
  -18.4120  -27.4590   22.4560 C   0  0  0  0  0  0  0  0  0  0  0  0
  -20.9330  -27.8850   22.8390 C   0  0  0  0  0  3  0  0  0  0  0  0
  -21.1620  -26.5070   22.1760 C   0  0  0  0  0  2  0  0  0  0  0  0
  -20.1200  -26.1720   21.1040 C   0  0  0  0  0  2  0  0  0  0  0  0
  -18.7110  -26.1740   21.7020 C   0  0  0  0  0  2  0  0  0  0  0  0
  -19.4540  -28.2690   22.9760 C   0  0  0  0  0  0  0  0  0  0  0  0
  -19.1210  -29.4730   23.6350 C   0  0  0  0  0  3  0  0  0  0  0  0
  -17.7770  -29.8660   23.7810 C   0  0  0  0  0  3  0  0  0  0  0  0
  -16.7480  -29.0530   23.2780 C   0  0  0  0  0  3  0  0  0  0  0  0
  -17.0650  -27.8510   22.6200 C   0  0  0  0  0  3  0  0  0  0  0  0
  -26.0600  -32.2160   23.8820 C   0  0  0  0  0  3  0  0  0  0  0  0
  -26.5880  -31.3800   25.1090 C   0  0  1  0  0  0  0  0  0  0  0  0
  -25.4980  -31.0560   26.1570 C   0  0  0  0  0  1  0  0  0  0  0  0
  -27.1980  -30.0410   24.6330 C   0  0  0  0  0  1  0  0  0  0  0  0
  -27.7230  -32.1530   25.8220 C   0  0  0  0  0  1  0  0  0  0  0  0
  -25.7280  -33.5860   24.2910 N   0  0  0  0  0  0  0  0  0  0  0  0
  -26.0640  -34.6870   23.6050 C   0  0  0  0  0  0  0  0  0  0  0  0
  -26.7570  -34.6550   22.5840 O   0  0  0  0  0  0  0  0  0  0  0  0
  -25.1180  -33.6850   25.0890 H   0  0  0  0  0  0  0  0  0  0  0  0
  -24.3260  -36.4780   23.3090 C   0  0  0  0  0  1  0  0  0  0  0  0
  -25.5450  -36.0370   24.1350 C   0  0  0  0  0  3  0  0  0  0  0  0
  -27.6420  -36.8820   25.0930 C   0  0  0  0  0  1  0  0  0  0  0  0
  -26.5670  -37.1060   24.1300 N   0  0  0  0  0  0  0  0  0  0  0  0
  -26.1440  -38.0080   24.3320 H   0  0  0  0  0  0  0  0  0  0  0  0
  2  1  1  0
  3 10  1  0
  3  1  1  0
  4  3  1  0
  4  2  1  0
  4  5  1  6
  6  7  1  0
  7 10  2  0
  8 10  1  0
  9 11  1  0
  9  6  2  0
 11  8  2  0
 12 11  1  0
 13 19  1  0
 13 22  1  0
 14 19  1  0
 15 16  1  0
 15 14  1  0
 17 16  1  0
 17 28  1  0
 17 18  1  0
 19 18  1  0
 20 13  2  0
 21  9  1  0
 21 22  1  0
 22 24  1  0
 23 21  2  0
 25 26  2  0
 26 45  1  0
 27 26  1  0
 27 30  1  0
 28 29  1  0
 28 25  1  0
 29 27  2  0
 30 31  1  0
 31 32  2  0
 33 36  1  0
 33 32  1  0
 34 33  2  0
 35 34  1  0
 35 30  2  0
 36 37  1  0
 37 42  2  0
 37 38  1  0
 38 39  2  0
 39 40  1  0
 40 44  1  0
 41 40  2  0
 42 41  1  0
 43 42  1  0
 45 46  1  0
 46 49  1  0
 46 48  1  0
 47 45  2  0
 50 25  1  0
 50 51  1  0
 52 50  1  0
 53  4  1  0
 55 54  1  0
 55 56  1  0
 55 53  1  0
 56 58  1  0
 57 68  2  0
 58 63  1  0
 59 67  1  0
 59 69  1  0
 60 66  1  0
 60 62  1  0
 61 67  1  0
 62 61  1  0
 63 62  2  0
 64 65  1  0
 64 58  2  0
 65 60  2  0
 66 59  1  0
 67 57  1  0
 69 71  2  0
 70 69  1  0
 72 70  1  0
 73 82  2  0
 73 78  1  0
 74 70  1  0
 74 78  1  0
 75 74  1  0
 76 77  1  0
 76 75  1  0
 77 73  1  0
 78 79  2  0
 79 80  1  0
 81 80  2  0
 82 81  1  0
 83 57  1  0
 83 88  1  0
 83 84  1  0
 84 87  1  1
 84 85  1  0
 86 84  1  0
 88 91  1  0
 89 93  1  0
 89 88  1  0
 90 89  2  0
 93 92  1  0
 95 93  1  0
 95 96  1  0
 95 94  1  0
M  ISO  4  13 100  22 100  55 101  56 101
M  END
>  <TORSDO>  (25) 
F 19

>  <SCORE>  (25) 
-12.705

>  <name>  (25) 
24

>  <ligand_id>  (25) 
24

>  <original_smiles>  (25) 
[H]c1c([H])c([H])c2c(c1[H])C([H])([H])C([H])([H])C([H])([H])C2([H])N([H])C(=O)C1([H])N(C(=O)C([H])(N([H])C(=O)C([H])(N([H])C([H])([H])[H])C([H])([H])[H])C(C([H])([H])[H])(C([H])([H])[H])C([H])([H])[H])C([H])([H])c2c([H])c(OC([H])(C([H])([H])[H])C([H])([H])[N+]3([H])C([H])([H])C([H])([H])C3([H])c3c([H])c([H])c(C(=O)N([H])C(=O)N4C([H])([H])C([H])([H])C([H])([H])C([H])(n5nc(-c6c([H])c([H])c(Oc7c([H])c([H])c(F)c([H])c7F)c([H])c6[H])c(C(=O)N([H])[H])c5N([H])[H])C4([H])[H])c(F)c3[H])c([H])c([H])c2C1([H])[H]

>  <smiles>  (25) 
[H]c1c([H])c([H])c2c(c1[H])C([H])([H])C([H])([H])C([H])([H])C2([H])N([H])C(=O)C1([H])N(C(=O)C([H])(N([H])C(=O)C([H])(N([H])C([H])([H])[H])C([H])([H])[H])C(C([H])([H])[H])(C([H])([H])[H])C([H])([H])[H])C([H])([H])c2c([H])c(OC([H])(C([H])([H])[H])C([H])([H])[N+]3([H])C([H])([H])C([H])([H])C3([H])c3c([H])c([H])c(C(=O)N([H])C(=O)N4C([H])([H])C([H])([H])C([H])([H])C([H])(n5nc(-c6c([H])c([H])c(Oc7c([H])c([H])c(F)c([H])c7F)c([H])c6[H])c(C(=O)N([H])[H])c5N([H])[H])C4([H])[H])c(F)c3[H])c([H])c([H])c2C1([H])[H]

$$$$
25:0:0
     RDKit          3D

 91 99  0  0  1  0  0  0  0  0999 V2000
  -31.0480  -19.5450   20.7140 C   0  0  0  0  0  2  0  0  0  0  0  0
  -28.7390  -18.6920   20.8280 C   0  0  0  0  0  2  0  0  0  0  0  0
  -30.5370  -20.8830   20.0860 C   0  0  0  0  0  2  0  0  0  0  0  0
  -28.2460  -20.0330   20.1910 C   0  0  0  0  0  2  0  0  0  0  0  0
  -30.1710  -18.2960   20.4090 C   0  0  0  0  0  3  0  0  0  0  0  0
  -29.1280  -21.2240   20.4440 N   0  0  2  0  0  4  0  0  0  0  0  0
  -29.0920  -21.4120   21.4360 H   0  0  0  0  0  0  0  0  0  0  0  0
  -30.7330  -16.9960   21.1130 C   0  0  0  0  0  2  0  0  0  0  0  0
  -30.7160  -14.6000   20.2640 C   0  0  0  0  0  0  0  0  0  0  0  0
  -30.3540  -12.4450   19.0990 C   0  0  0  0  0  2  0  0  0  0  0  0
  -29.3890  -12.6430   17.9130 C   0  0  0  0  0  2  0  0  0  0  0  0
  -27.9260  -12.4990   18.3740 C   0  0  0  0  0  2  0  0  0  0  0  0
  -27.6150  -13.3230   19.6530 C   0  0  0  0  0  3  0  0  0  0  0  0
  -28.7000  -13.1320   20.7370 C   0  0  0  0  0  2  0  0  0  0  0  0
  -30.0030  -13.4410   20.1290 N   0  0  0  0  0  0  0  0  0  0  0  0
  -31.8500  -14.7140   19.7970 O   0  0  0  0  0  0  0  0  0  0  0  0
  -30.0930  -15.6790   20.8120 N   0  0  0  0  0  0  0  0  0  0  0  0
  -29.1540  -15.5340   21.1490 H   0  0  0  0  0  0  0  0  0  0  0  0
  -25.2280  -13.9100   20.4030 C   0  0  0  0  0  0  0  0  0  0  0  0
  -24.1710  -13.1320   20.7910 C   0  0  0  0  0  0  0  0  0  0  0  0
  -24.6410  -11.7820   20.7610 C   0  0  0  0  0  0  0  0  0  0  0  0
  -26.2750  -13.0350   20.1610 N   0  0  0  0  0  0  0  0  0  0  0  0
  -25.9280  -11.7510   20.4360 N   0  0  0  0  0  0  0  0  0  0  0  0
  -23.9250  -10.5160   20.9690 C   0  0  0  0  0  0  0  0  0  0  0  0
  -24.3640   -9.5680   21.9190 C   0  0  0  0  0  3  0  0  0  0  0  0
  -23.6470   -8.3680   22.1160 C   0  0  0  0  0  3  0  0  0  0  0  0
  -22.4770   -8.1080   21.3630 C   0  0  0  0  0  0  0  0  0  0  0  0
  -22.0580   -9.0450   20.4030 C   0  0  0  0  0  3  0  0  0  0  0  0
  -22.7740  -10.2370   20.2050 C   0  0  0  0  0  3  0  0  0  0  0  0
  -21.7310   -6.9580   21.4680 O   0  0  0  0  0  0  0  0  0  0  0  0
  -21.6720   -6.2430   22.6370 C   0  0  0  0  0  0  0  0  0  0  0  0
  -21.2160   -6.8190   23.8420 C   0  0  0  0  0  3  0  0  0  0  0  0
  -21.1060   -6.0300   25.0040 C   0  0  0  0  0  3  0  0  0  0  0  0
  -21.4410   -4.6630   24.9620 C   0  0  0  0  0  0  0  0  0  0  0  0
  -21.8890   -4.0860   23.7610 C   0  0  0  0  0  3  0  0  0  0  0  0
  -22.0010   -4.8730   22.6010 C   0  0  0  0  0  0  0  0  0  0  0  0
  -22.4130   -4.3060   21.4420 F   0  0  0  0  0  0  0  0  0  0  0  0
  -21.3280   -3.9030   26.0750 F   0  0  0  0  0  0  0  0  0  0  0  0
  -22.7740  -13.6020   21.0810 C   0  0  0  0  0  0  0  0  0  0  0  0
  -22.0620  -12.9020   21.9570 N   0  0  0  0  0  0  0  0  0  0  0  0
  -22.3220  -14.6230   20.5640 O   0  0  0  0  0  0  0  0  0  0  0  0
  -22.4390  -12.0750   22.3960 H   0  0  0  0  0  0  0  0  0  0  0  0
  -21.1240  -13.1960   22.1920 H   0  0  0  0  0  0  0  0  0  0  0  0
  -25.3810  -15.2810   20.2120 N   0  0  0  0  0  0  0  0  0  0  0  0
  -24.6120  -15.9320   20.3280 H   0  0  0  0  0  0  0  0  0  0  0  0
  -26.2230  -15.7190   19.8620 H   0  0  0  0  0  0  0  0  0  0  0  0
  -28.6050  -22.4800   19.7720 C   0  0  0  0  0  2  0  0  0  0  0  0
  -28.9950  -23.8880   20.3840 C   0  0  0  0  0  3  0  0  0  0  0  0
  -28.8000  -23.8150   21.7030 F   0  0  0  0  0  0  0  0  0  0  0  0
  -28.1270  -25.0750   19.8040 C   0  0  0  0  0  2  0  0  0  0  0  0
  -28.3580  -26.4880   20.1720 O   0  0  0  0  0  0  0  0  0  0  0  0
  -24.6500  -31.8680   23.2130 C   0  0  0  0  0  0  0  0  0  0  0  0
  -27.2510  -27.3490   20.1040 C   0  0  0  0  0  0  0  0  0  0  0  0
  -23.4440  -30.4790   21.5670 C   0  0  0  0  0  3  0  0  0  0  0  0
  -24.8910  -28.9570   20.1200 C   0  0  0  0  0  0  0  0  0  0  0  0
  -25.9850  -30.7990   21.3920 C   0  0  0  0  0  2  0  0  0  0  0  0
  -26.0600  -29.4320   20.7280 C   0  0  0  0  0  0  0  0  0  0  0  0
  -27.2420  -28.6350   20.7220 C   0  0  0  0  0  3  0  0  0  0  0  0
  -26.0650  -26.9460   19.4410 C   0  0  0  0  0  3  0  0  0  0  0  0
  -24.8950  -27.7180   19.4690 C   0  0  0  0  0  3  0  0  0  0  0  0
  -23.6550  -29.8270   20.1780 C   0  0  0  0  0  2  0  0  0  0  0  0
  -24.7100  -31.0650   22.1110 N   0  0  0  0  0  0  0  0  0  0  0  0
  -23.5680  -32.1410   23.7500 O   0  0  0  0  0  0  0  0  0  0  0  0
  -22.7880  -29.4490   22.5190 C   0  0  0  0  0  0  0  0  0  0  0  0
  -21.4600  -29.2750   22.4010 N   0  0  0  0  0  0  0  0  0  0  0  0
  -23.4710  -28.8130   23.3280 O   0  0  0  0  0  0  0  0  0  0  0  0
  -20.9700  -29.8370   21.7210 H   0  0  0  0  0  0  0  0  0  0  0  0
  -18.0780  -28.1040   22.9240 C   0  0  0  0  0  0  0  0  0  0  0  0
  -20.6420  -28.3350   23.1700 C   0  0  0  0  0  3  0  0  0  0  0  0
  -20.7240  -26.9100   22.5760 C   0  0  0  0  0  2  0  0  0  0  0  0
  -19.6080  -26.6110   21.5710 C   0  0  0  0  0  2  0  0  0  0  0  0
  -18.2330  -26.7630   22.2290 C   0  0  0  0  0  2  0  0  0  0  0  0
  -19.2100  -28.8500   23.3520 C   0  0  0  0  0  0  0  0  0  0  0  0
  -19.0100  -30.1080   23.9600 C   0  0  0  0  0  3  0  0  0  0  0  0
  -17.7120  -30.6180   24.1490 C   0  0  0  0  0  3  0  0  0  0  0  0
  -16.5950  -29.8690   23.7400 C   0  0  0  0  0  3  0  0  0  0  0  0
  -16.7790  -28.6150   23.1310 C   0  0  0  0  0  3  0  0  0  0  0  0
  -25.9350  -32.4970   23.8330 C   0  0  0  0  0  3  0  0  0  0  0  0
  -26.4500  -31.7250   25.1090 C   0  0  1  0  0  0  0  0  0  0  0  0
  -25.3550  -31.4870   26.1750 C   0  0  0  0  0  1  0  0  0  0  0  0
  -27.0360  -30.3470   24.7230 C   0  0  0  0  0  1  0  0  0  0  0  0
  -27.6020  -32.5180   25.7690 C   0  0  0  0  0  1  0  0  0  0  0  0
  -25.6250  -33.8950   24.1620 N   0  0  0  0  0  0  0  0  0  0  0  0
  -25.9530  -34.9480   23.4010 C   0  0  0  0  0  0  0  0  0  0  0  0
  -26.6180  -34.8450   22.3660 O   0  0  0  0  0  0  0  0  0  0  0  0
  -25.0290  -34.0500   24.9630 H   0  0  0  0  0  0  0  0  0  0  0  0
  -24.2170  -36.7350   23.0580 C   0  0  0  0  0  1  0  0  0  0  0  0
  -25.4650  -36.3340   23.8620 C   0  0  0  0  0  3  0  0  0  0  0  0
  -27.6060  -37.2160   24.6770 C   0  0  0  0  0  1  0  0  0  0  0  0
  -26.4920  -37.3930   23.7490 N   0  0  0  0  0  0  0  0  0  0  0  0
  -26.0830  -38.3080   23.9200 H   0  0  0  0  0  0  0  0  0  0  0  0
  3  6  1  0
  3  1  1  0
  4  6  1  0
  4  2  1  0
  5  1  1  0
  5  2  1  0
  5  8  1  0
  6  7  1  1
  9 17  1  0
 10 15  1  0
 11 12  1  0
 11 10  1  0
 13 12  1  0
 13 22  1  0
 13 14  1  0
 15  9  1  0
 15 14  1  0
 16  9  2  0
 17  8  1  0
 17 18  1  0
 19 20  2  0
 20 39  1  0
 21 20  1  0
 21 24  1  0
 22 19  1  0
 22 23  1  0
 23 21  2  0
 24 25  1  0
 25 26  2  0
 27 30  1  0
 27 26  1  0
 28 27  2  0
 29 28  1  0
 29 24  2  0
 30 31  1  0
 31 32  1  0
 32 33  2  0
 34 33  1  0
 34 38  1  0
 35 34  2  0
 36 31  2  0
 36 35  1  0
 37 36  1  0
 39 40  1  0
 40 43  1  0
 40 42  1  0
 41 39  2  0
 44 45  1  0
 44 19  1  0
 46 44  1  0
 47 48  1  0
 47  6  1  0
 48 49  1  0
 50 51  1  0
 50 48  1  0
 52 63  2  0
 53 51  1  0
 53 58  1  0
 54 62  1  0
 54 64  1  0
 55 61  1  0
 55 57  1  0
 56 62  1  0
 57 56  1  0
 58 57  2  0
 59 60  1  0
 59 53  2  0
 60 55  2  0
 61 54  1  0
 62 52  1  0
 64 66  2  0
 65 64  1  0
 67 65  1  0
 68 77  2  0
 68 73  1  0
 69 65  1  0
 69 73  1  0
 70 69  1  0
 71 72  1  0
 71 70  1  0
 72 68  1  0
 73 74  2  0
 74 75  1  0
 76 75  2  0
 77 76  1  0
 78 52  1  0
 78 83  1  0
 78 79  1  0
 79 82  1  1
 79 80  1  0
 81 79  1  0
 83 86  1  0
 84 88  1  0
 84 83  1  0
 85 84  2  0
 88 87  1  0
 90 88  1  0
 90 91  1  0
 90 89  1  0
M  ISO  4   9 100  17 100  50 101  51 101
M  END
>  <TORSDO>  (26) 
F 20

>  <SCORE>  (26) 
-13.717

>  <name>  (26) 
25

>  <ligand_id>  (26) 
25

>  <original_smiles>  (26) 
[H]c1c([H])c([H])c2c(c1[H])C([H])([H])C([H])([H])C([H])([H])C2([H])N([H])C(=O)C1([H])N(C(=O)C([H])(N([H])C(=O)C([H])(N([H])C([H])([H])[H])C([H])([H])[H])C(C([H])([H])[H])(C([H])([H])[H])C([H])([H])[H])C([H])([H])c2c([H])c(OC([H])([H])C([H])(F)C([H])([H])[N+]3([H])C([H])([H])C([H])([H])C([H])(C([H])([H])N([H])C(=O)N4C([H])([H])C([H])([H])C([H])([H])C([H])(n5nc(-c6c([H])c([H])c(Oc7c([H])c([H])c(F)c([H])c7F)c([H])c6[H])c(C(=O)N([H])[H])c5N([H])[H])C4([H])[H])C([H])([H])C3([H])[H])c([H])c([H])c2C1([H])[H]

>  <smiles>  (26) 
[H]c1c([H])c([H])c2c(c1[H])C([H])([H])C([H])([H])C([H])([H])C2([H])N([H])C(=O)C1([H])N(C(=O)C([H])(N([H])C(=O)C([H])(N([H])C([H])([H])[H])C([H])([H])[H])C(C([H])([H])[H])(C([H])([H])[H])C([H])([H])[H])C([H])([H])c2c([H])c(OC([H])([H])C([H])(F)C([H])([H])[N+]3([H])C([H])([H])C([H])([H])C([H])(C([H])([H])N([H])C(=O)N4C([H])([H])C([H])([H])C([H])([H])C([H])(n5nc(-c6c([H])c([H])c(Oc7c([H])c([H])c(F)c([H])c7F)c([H])c6[H])c(C(=O)N([H])[H])c5N([H])[H])C4([H])[H])C([H])([H])C3([H])[H])c([H])c([H])c2C1([H])[H]

$$$$
26:0:0
     RDKit          3D

 93101  0  0  1  0  0  0  0  0999 V2000
  -31.3520  -23.6370   20.8830 C   0  0  0  0  0  3  0  0  0  0  0  0
  -30.2240  -21.6550   21.6870 C   0  0  0  0  0  0  0  0  0  0  0  0
  -29.5110  -21.6340   20.4500 C   0  0  0  0  0  0  0  0  0  0  0  0
  -31.1800  -22.6730   21.8870 C   0  0  0  0  0  0  0  0  0  0  0  0
  -29.3210  -23.1080   19.9300 C   0  0  0  0  0  0  0  0  0  0  0  0
  -30.4690  -23.8140   19.8820 N   0  0  0  0  0  0  0  0  0  0  0  0
  -31.9850  -22.6730   22.9780 F   0  0  0  0  0  0  0  0  0  0  0  0
  -30.0840  -20.5920   22.7760 C   0  0  1  0  0  0  0  0  0  0  0  0
  -29.0760  -19.7480   22.5500 F   0  0  0  0  0  0  0  0  0  0  0  0
  -31.2140  -19.8960   22.9070 F   0  0  0  0  0  0  0  0  0  0  0  0
  -29.8280  -21.1980   23.9380 F   0  0  0  0  0  0  0  0  0  0  0  0
  -29.3740  -20.0070   19.7920 C   0  0  0  0  0  2  0  0  0  0  0  0
  -30.3430  -18.4860   20.0580 C   0  0  0  0  0  2  0  0  0  0  0  0
  -30.7850  -15.5530   19.8290 C   0  0  0  0  0  0  0  0  0  0  0  0
  -30.7110  -13.0910   18.9870 C   0  0  0  0  0  2  0  0  0  0  0  0
  -29.7280  -12.8390   17.8140 C   0  0  0  0  0  2  0  0  0  0  0  0
  -28.3050  -12.5810   18.3410 C   0  0  0  0  0  2  0  0  0  0  0  0
  -27.9110  -13.5800   19.4580 C   0  0  0  0  0  3  0  0  0  0  0  0
  -29.0150  -13.7550   20.5210 C   0  0  0  0  0  2  0  0  0  0  0  0
  -30.2040  -14.2510   19.8080 N   0  0  0  0  0  0  0  0  0  0  0  0
  -32.0010  -15.5320   19.5890 O   0  0  0  0  0  0  0  0  0  0  0  0
  -30.0360  -16.8390   19.9210 N   0  0  0  0  0  0  0  0  0  0  0  0
  -29.0460  -16.6480   19.9920 H   0  0  0  0  0  0  0  0  0  0  0  0
  -25.6210  -14.1820   20.3980 C   0  0  0  0  0  0  0  0  0  0  0  0
  -24.5570  -13.4240   20.8000 C   0  0  0  0  0  0  0  0  0  0  0  0
  -24.9700  -12.0620   20.6730 C   0  0  0  0  0  0  0  0  0  0  0  0
  -26.6100  -13.2840   20.0420 N   0  0  0  0  0  0  0  0  0  0  0  0
  -26.2360  -11.9990   20.2760 N   0  0  0  0  0  0  0  0  0  0  0  0
  -24.2090  -10.8180   20.8490 C   0  0  0  0  0  0  0  0  0  0  0  0
  -24.6120   -9.8290   21.7730 C   0  0  0  0  0  3  0  0  0  0  0  0
  -23.8510   -8.6520   21.9390 C   0  0  0  0  0  3  0  0  0  0  0  0
  -22.6720   -8.4540   21.1800 C   0  0  0  0  0  0  0  0  0  0  0  0
  -22.2890   -9.4320   20.2440 C   0  0  0  0  0  3  0  0  0  0  0  0
  -23.0500  -10.6000   20.0760 C   0  0  0  0  0  3  0  0  0  0  0  0
  -21.8840   -7.3310   21.2570 O   0  0  0  0  0  0  0  0  0  0  0  0
  -21.7460   -6.6270   22.4260 C   0  0  0  0  0  0  0  0  0  0  0  0
  -21.2170   -7.2180   23.5950 C   0  0  0  0  0  3  0  0  0  0  0  0
  -21.0290   -6.4390   24.7530 C   0  0  0  0  0  3  0  0  0  0  0  0
  -21.3590   -5.0700   24.7440 C   0  0  0  0  0  0  0  0  0  0  0  0
  -21.8810   -4.4800   23.5800 C   0  0  0  0  0  3  0  0  0  0  0  0
  -22.0710   -5.2550   22.4230 C   0  0  0  0  0  0  0  0  0  0  0  0
  -22.5540   -4.6770   21.2970 F   0  0  0  0  0  0  0  0  0  0  0  0
  -21.1710   -4.3200   25.8540 F   0  0  0  0  0  0  0  0  0  0  0  0
  -23.1980  -13.9360   21.1780 C   0  0  0  0  0  0  0  0  0  0  0  0
  -22.5090  -13.2370   22.0740 N   0  0  0  0  0  0  0  0  0  0  0  0
  -22.7610  -14.9880   20.7160 O   0  0  0  0  0  0  0  0  0  0  0  0
  -22.8780  -12.3850   22.4700 H   0  0  0  0  0  0  0  0  0  0  0  0
  -21.5980  -13.5610   22.3690 H   0  0  0  0  0  0  0  0  0  0  0  0
  -25.8200  -15.5530   20.2730 N   0  0  0  0  0  0  0  0  0  0  0  0
  -25.0810  -16.2230   20.4590 H   0  0  0  0  0  0  0  0  0  0  0  0
  -26.6450  -15.9780   19.8720 H   0  0  0  0  0  0  0  0  0  0  0  0
  -28.1970  -24.4150   20.2240 C   0  0  0  0  0  2  0  0  0  0  0  0
  -28.4240  -26.0580   20.2330 O   0  0  0  0  0  0  0  0  0  0  0  0
  -24.6590  -31.9230   23.1890 C   0  0  0  0  0  0  0  0  0  0  0  0
  -27.3750  -27.1220   20.1900 C   0  0  0  0  0  0  0  0  0  0  0  0
  -23.5170  -30.4890   21.5480 C   0  0  0  0  0  3  0  0  0  0  0  0
  -25.0200  -28.9330   20.1300 C   0  0  0  0  0  0  0  0  0  0  0  0
  -26.0770  -30.7810   21.4090 C   0  0  0  0  0  2  0  0  0  0  0  0
  -26.1920  -29.3740   20.7540 C   0  0  0  0  0  0  0  0  0  0  0  0
  -27.3660  -28.4910   20.7550 C   0  0  0  0  0  3  0  0  0  0  0  0
  -26.1670  -26.8320   19.5180 C   0  0  0  0  0  3  0  0  0  0  0  0
  -25.0330  -27.6840   19.4890 C   0  0  0  0  0  3  0  0  0  0  0  0
  -23.7740  -29.8170   20.1720 C   0  0  0  0  0  2  0  0  0  0  0  0
  -24.7720  -31.0920   22.1030 N   0  0  0  0  0  0  0  0  0  0  0  0
  -23.5580  -32.1770   23.7050 O   0  0  0  0  0  0  0  0  0  0  0  0
  -22.8500  -29.4710   22.5100 C   0  0  0  0  0  0  0  0  0  0  0  0
  -21.5290  -29.2540   22.3710 N   0  0  0  0  0  0  0  0  0  0  0  0
  -23.5280  -28.8800   23.3530 O   0  0  0  0  0  0  0  0  0  0  0  0
  -21.0310  -29.7860   21.6700 H   0  0  0  0  0  0  0  0  0  0  0  0
  -18.1990  -27.8810   22.8180 C   0  0  0  0  0  0  0  0  0  0  0  0
  -20.7350  -28.2870   23.1370 C   0  0  0  0  0  3  0  0  0  0  0  0
  -20.9250  -26.8520   22.5920 C   0  0  0  0  0  2  0  0  0  0  0  0
  -19.8670  -26.4540   21.5570 C   0  0  0  0  0  2  0  0  0  0  0  0
  -18.4650  -26.5340   22.1660 C   0  0  0  0  0  2  0  0  0  0  0  0
  -19.2660  -28.7100   23.2590 C   0  0  0  0  0  0  0  0  0  0  0  0
  -18.9620  -29.9650   23.8310 C   0  0  0  0  0  3  0  0  0  0  0  0
  -17.6280  -30.3940   23.9640 C   0  0  0  0  0  3  0  0  0  0  0  0
  -16.5770  -29.5640   23.5370 C   0  0  0  0  0  3  0  0  0  0  0  0
  -16.8630  -28.3090   22.9690 C   0  0  0  0  0  3  0  0  0  0  0  0
  -25.9050  -32.6070   23.8280 C   0  0  0  0  0  3  0  0  0  0  0  0
  -26.4210  -31.8680   25.1240 C   0  0  1  0  0  0  0  0  0  0  0  0
  -25.3110  -31.5780   26.1620 C   0  0  0  0  0  1  0  0  0  0  0  0
  -27.0840  -30.5200   24.7620 C   0  0  0  0  0  1  0  0  0  0  0  0
  -27.5120  -32.7210   25.8140 C   0  0  0  0  0  1  0  0  0  0  0  0
  -25.5430  -34.0000   24.1510 N   0  0  0  0  0  0  0  0  0  0  0  0
  -25.8660  -35.0690   23.4100 C   0  0  0  0  0  0  0  0  0  0  0  0
  -26.5600  -34.9890   22.3930 O   0  0  0  0  0  0  0  0  0  0  0  0
  -24.9290  -34.1350   24.9400 H   0  0  0  0  0  0  0  0  0  0  0  0
  -24.1140  -36.8370   23.0230 C   0  0  0  0  0  1  0  0  0  0  0  0
  -25.3370  -36.4440   23.8680 C   0  0  0  0  0  3  0  0  0  0  0  0
  -27.4200  -37.3710   24.7830 C   0  0  0  0  0  1  0  0  0  0  0  0
  -26.3510  -37.5200   23.7980 N   0  0  0  0  0  0  0  0  0  0  0  0
  -25.9200  -38.4300   23.9320 H   0  0  0  0  0  0  0  0  0  0  0  0
  1  4  1  0
  2  4  2  0
  2  8  1  0
  3  2  1  0
  4  7  1  0
  5 52  1  0
  5  3  2  3
  6  5  1  0
  6  1  2  0
  8 10  1  1
  8 11  1  0
  9  8  1  0
 12 13  1  0
 12  3  1  0
 14 22  1  0
 15 20  1  0
 16 17  1  0
 16 15  1  0
 18 17  1  0
 18 27  1  0
 18 19  1  0
 20 14  1  0
 20 19  1  0
 21 14  2  0
 22 23  1  0
 22 13  1  0
 24 25  2  0
 25 44  1  0
 26 25  1  0
 26 29  1  0
 27 28  1  0
 27 24  1  0
 28 26  2  0
 29 30  1  0
 30 31  2  0
 32 35  1  0
 32 31  1  0
 33 32  2  0
 34 33  1  0
 34 29  2  0
 35 36  1  0
 36 37  1  0
 37 38  2  0
 39 38  1  0
 39 43  1  0
 40 39  2  0
 41 36  2  0
 41 40  1  0
 42 41  1  0
 44 45  1  0
 45 48  1  0
 45 47  1  0
 46 44  2  0
 49 24  1  0
 49 50  1  0
 51 49  1  0
 52 53  1  0
 54 65  2  0
 55 53  1  0
 55 60  1  0
 56 64  1  0
 56 66  1  0
 57 63  1  0
 57 59  1  0
 58 64  1  0
 59 60  2  0
 59 58  1  0
 61 55  2  0
 62 61  1  0
 62 57  2  0
 63 56  1  0
 64 54  1  0
 66 68  2  0
 67 66  1  0
 69 67  1  0
 70 79  2  0
 70 75  1  0
 71 67  1  0
 71 75  1  0
 72 71  1  0
 73 74  1  0
 73 72  1  0
 74 70  1  0
 75 76  2  0
 76 77  1  0
 78 77  2  0
 79 78  1  0
 80 54  1  0
 80 85  1  0
 80 81  1  0
 81 84  1  1
 81 82  1  0
 83 81  1  0
 85 88  1  0
 86 90  1  0
 86 85  1  0
 87 86  2  0
 90 89  1  0
 92 90  1  0
 92 93  1  0
 92 91  1  0
M  ISO  4  14 100  22 100  52 101  53 101
M  END
>  <TORSDO>  (27) 
F 20

>  <SCORE>  (27) 
-13.211

>  <name>  (27) 
26

>  <ligand_id>  (27) 
26

>  <original_smiles>  (27) 
[H]c1nc(C([H])([H])Oc2c([H])c([H])c3c(c2[H])C([H])([H])N(C(=O)C([H])(N([H])C(=O)C([H])(N([H])C([H])([H])[H])C([H])([H])[H])C(C([H])([H])[H])(C([H])([H])[H])C([H])([H])[H])C([H])(C(=O)N([H])C2([H])c4c([H])c([H])c([H])c([H])c4C([H])([H])C([H])([H])C2([H])[H])C3([H])[H])c(C([H])([H])C([H])([H])N([H])C(=O)N2C([H])([H])C([H])([H])C([H])([H])C([H])(n3nc(-c4c([H])c([H])c(Oc5c([H])c([H])c(F)c([H])c5F)c([H])c4[H])c(C(=O)N([H])[H])c3N([H])[H])C2([H])[H])c(C(F)(F)F)c1F

>  <smiles>  (27) 
[H]c1nc(C([H])([H])Oc2c([H])c([H])c3c(c2[H])C([H])([H])N(C(=O)C([H])(N([H])C(=O)C([H])(N([H])C([H])([H])[H])C([H])([H])[H])C(C([H])([H])[H])(C([H])([H])[H])C([H])([H])[H])C([H])(C(=O)N([H])C2([H])c4c([H])c([H])c([H])c([H])c4C([H])([H])C([H])([H])C2([H])[H])C3([H])[H])c(C([H])([H])C([H])([H])N([H])C(=O)N2C([H])([H])C([H])([H])C([H])([H])C([H])(n3nc(-c4c([H])c([H])c(Oc5c([H])c([H])c(F)c([H])c5F)c([H])c4[H])c(C(=O)N([H])[H])c3N([H])[H])C2([H])[H])c(C(F)(F)F)c1F

$$$$
27:0:0
     RDKit          3D

 92100  0  0  1  0  0  0  0  0999 V2000
  -28.1650  -22.8520   20.4700 C   0  0  0  0  0  0  0  0  0  0  0  0
  -28.6780  -21.7800   19.8390 N   0  0  0  0  0  0  0  0  0  0  0  0
  -27.3970  -22.7250   21.4260 O   0  0  0  0  0  0  0  0  0  0  0  0
  -29.3070  -21.9630   19.0670 H   0  0  0  0  0  0  0  0  0  0  0  0
  -28.4820  -24.2450   19.8880 C   0  0  0  0  0  2  0  0  0  0  0  0
  -28.1990  -25.4120   20.8590 C   0  0  0  0  0  2  0  0  0  0  0  0
  -28.3730  -26.7070   20.2560 O   0  0  0  0  0  0  0  0  0  0  0  0
  -24.5670  -31.8890   23.2710 C   0  0  0  0  0  0  0  0  0  0  0  0
  -27.2230  -27.4590   20.2090 C   0  0  0  0  0  0  0  0  0  0  0  0
  -23.3690  -30.4870   21.6210 C   0  0  0  0  0  3  0  0  0  0  0  0
  -24.8280  -28.9530   20.2030 C   0  0  0  0  0  0  0  0  0  0  0  0
  -25.8930  -30.8570   21.4270 C   0  0  0  0  0  2  0  0  0  0  0  0
  -25.9830  -29.4870   20.7860 C   0  0  0  0  0  0  0  0  0  0  0  0
  -27.1890  -28.7510   20.7800 C   0  0  0  0  0  3  0  0  0  0  0  0
  -26.0520  -26.9350   19.6200 C   0  0  0  0  0  3  0  0  0  0  0  0
  -24.8570  -27.6770   19.6150 C   0  0  0  0  0  3  0  0  0  0  0  0
  -23.5820  -29.8060   20.2440 C   0  0  0  0  0  2  0  0  0  0  0  0
  -24.6290  -31.0930   22.1660 N   0  0  0  0  0  0  0  0  0  0  0  0
  -23.4830  -32.1560   23.8080 O   0  0  0  0  0  0  0  0  0  0  0  0
  -22.7170  -29.4640   22.5800 C   0  0  0  0  0  0  0  0  0  0  0  0
  -21.3920  -29.2830   22.4520 N   0  0  0  0  0  0  0  0  0  0  0  0
  -23.3980  -28.8330   23.3920 O   0  0  0  0  0  0  0  0  0  0  0  0
  -20.9020  -29.8390   21.7640 H   0  0  0  0  0  0  0  0  0  0  0  0
  -18.0130  -28.1190   22.9740 C   0  0  0  0  0  0  0  0  0  0  0  0
  -20.5750  -28.3530   23.2300 C   0  0  0  0  0  3  0  0  0  0  0  0
  -20.6560  -26.9180   22.6570 C   0  0  0  0  0  2  0  0  0  0  0  0
  -19.5520  -26.6210   21.6370 C   0  0  0  0  0  2  0  0  0  0  0  0
  -18.1760  -26.7690   22.2930 C   0  0  0  0  0  2  0  0  0  0  0  0
  -19.1420  -28.8710   23.3970 C   0  0  0  0  0  0  0  0  0  0  0  0
  -18.9410  -30.1390   23.9850 C   0  0  0  0  0  3  0  0  0  0  0  0
  -17.6410  -30.6510   24.1600 C   0  0  0  0  0  3  0  0  0  0  0  0
  -16.5280  -29.8940   23.7600 C   0  0  0  0  0  3  0  0  0  0  0  0
  -16.7150  -28.6310   23.1690 C   0  0  0  0  0  3  0  0  0  0  0  0
  -25.8490  -32.5260   23.8930 C   0  0  0  0  0  3  0  0  0  0  0  0
  -26.3540  -31.7680   25.1830 C   0  0  1  0  0  0  0  0  0  0  0  0
  -25.2530  -31.5450   26.2450 C   0  0  0  0  0  1  0  0  0  0  0  0
  -26.9360  -30.3860   24.8080 C   0  0  0  0  0  1  0  0  0  0  0  0
  -27.5010  -32.5680   25.8430 C   0  0  0  0  0  1  0  0  0  0  0  0
  -25.5420  -33.9290   24.2000 N   0  0  0  0  0  0  0  0  0  0  0  0
  -25.8920  -34.9700   23.4340 C   0  0  0  0  0  0  0  0  0  0  0  0
  -26.5790  -34.8500   22.4140 O   0  0  0  0  0  0  0  0  0  0  0  0
  -24.9320  -34.0950   24.9860 H   0  0  0  0  0  0  0  0  0  0  0  0
  -24.1810  -36.7650   23.0270 C   0  0  0  0  0  1  0  0  0  0  0  0
  -25.4060  -36.3650   23.8660 C   0  0  0  0  0  3  0  0  0  0  0  0
  -27.5320  -37.2460   24.7200 C   0  0  0  0  0  1  0  0  0  0  0  0
  -26.4470  -37.4110   23.7570 N   0  0  0  0  0  0  0  0  0  0  0  0
  -26.0460  -38.3360   23.8840 H   0  0  0  0  0  0  0  0  0  0  0  0
  -28.0840  -20.4360   19.8930 C   0  0  0  0  0  2  0  0  0  0  0  0
  -28.6340  -19.4720   20.9890 C   0  0  0  0  0  2  0  0  0  0  0  0
  -30.8590  -14.4540   20.0770 C   0  0  0  0  0  0  0  0  0  0  0  0
  -30.4400  -12.3070   18.9400 C   0  0  0  0  0  2  0  0  0  0  0  0
  -29.4340  -12.4940   17.7870 C   0  0  0  0  0  2  0  0  0  0  0  0
  -27.9900  -12.3370   18.3020 C   0  0  0  0  0  2  0  0  0  0  0  0
  -27.7110  -13.1880   19.5680 C   0  0  0  0  0  3  0  0  0  0  0  0
  -28.8330  -13.0250   20.6210 C   0  0  0  0  0  2  0  0  0  0  0  0
  -30.1230  -13.3110   19.9700 N   0  0  0  0  0  0  0  0  0  0  0  0
  -32.0030  -14.5480   19.6260 O   0  0  0  0  0  0  0  0  0  0  0  0
  -29.2000  -16.2070   19.7950 C   0  0  0  0  0  2  0  0  0  0  0  0
  -31.0430  -16.5020   21.4120 C   0  0  0  0  0  2  0  0  0  0  0  0
  -29.4890  -17.6740   19.4290 C   0  0  0  0  0  2  0  0  0  0  0  0
  -30.2940  -17.8150   21.7700 C   0  0  0  0  0  2  0  0  0  0  0  0
  -30.2510  -15.5550   20.5970 N   0  0  0  0  0  0  0  0  0  0  0  0
  -29.7530  -18.5610   20.5960 N   0  0  2  0  0  4  0  0  0  0  0  0
  -30.4950  -19.1770   20.2930 H   0  0  0  0  0  0  0  0  0  0  0  0
  -25.3710  -13.8260   20.4140 C   0  0  0  0  0  0  0  0  0  0  0  0
  -24.3130  -13.0640   20.8260 C   0  0  0  0  0  0  0  0  0  0  0  0
  -24.7570  -11.7080   20.7540 C   0  0  0  0  0  0  0  0  0  0  0  0
  -26.3910  -12.9310   20.1240 N   0  0  0  0  0  0  0  0  0  0  0  0
  -26.0280  -11.6520   20.3890 N   0  0  0  0  0  0  0  0  0  0  0  0
  -24.0260  -10.4520   20.9590 C   0  0  0  0  0  0  0  0  0  0  0  0
  -24.4690   -9.4870   21.8900 C   0  0  0  0  0  3  0  0  0  0  0  0
  -23.7420   -8.2940   22.0810 C   0  0  0  0  0  3  0  0  0  0  0  0
  -22.5580   -8.0580   21.3420 C   0  0  0  0  0  0  0  0  0  0  0  0
  -22.1370   -9.0120   20.3980 C   0  0  0  0  0  3  0  0  0  0  0  0
  -22.8640  -10.1960   20.2040 C   0  0  0  0  0  3  0  0  0  0  0  0
  -21.8000   -6.9170   21.4430 O   0  0  0  0  0  0  0  0  0  0  0  0
  -21.7320   -6.2020   22.6120 C   0  0  0  0  0  0  0  0  0  0  0  0
  -21.2840   -6.7860   23.8170 C   0  0  0  0  0  3  0  0  0  0  0  0
  -21.1630   -5.9960   24.9780 C   0  0  0  0  0  3  0  0  0  0  0  0
  -21.4800   -4.6260   24.9350 C   0  0  0  0  0  0  0  0  0  0  0  0
  -21.9200   -4.0420   23.7330 C   0  0  0  0  0  3  0  0  0  0  0  0
  -22.0440   -4.8290   22.5750 C   0  0  0  0  0  0  0  0  0  0  0  0
  -22.4470   -4.2560   21.4150 F   0  0  0  0  0  0  0  0  0  0  0  0
  -21.3560   -3.8650   26.0480 F   0  0  0  0  0  0  0  0  0  0  0  0
  -22.9370  -13.5540   21.1700 C   0  0  0  0  0  0  0  0  0  0  0  0
  -22.2430  -12.8550   22.0600 N   0  0  0  0  0  0  0  0  0  0  0  0
  -22.4880  -14.5920   20.6840 O   0  0  0  0  0  0  0  0  0  0  0  0
  -22.6210  -12.0150   22.4710 H   0  0  0  0  0  0  0  0  0  0  0  0
  -21.3220  -13.1650   22.3350 H   0  0  0  0  0  0  0  0  0  0  0  0
  -25.5380  -15.1970   20.2390 N   0  0  0  0  0  0  0  0  0  0  0  0
  -24.7620  -15.8440   20.3380 H   0  0  0  0  0  0  0  0  0  0  0  0
  -26.3660  -15.6280   19.8570 H   0  0  0  0  0  0  0  0  0  0  0  0
  1  3  2  0
  2 48  1  0
  2  1  1  0
  4  2  1  0
  5  1  1  0
  5  6  1  0
  7  6  1  0
  8 19  2  0
  9  7  1  0
  9 14  1  0
 10 18  1  0
 10 20  1  0
 11 17  1  0
 11 13  1  0
 12 18  1  0
 13 12  1  0
 14 13  2  0
 15  9  2  0
 16 15  1  0
 16 11  2  0
 17 10  1  0
 18  8  1  0
 20 22  2  0
 21 20  1  0
 23 21  1  0
 24 33  2  0
 24 29  1  0
 25 21  1  0
 25 29  1  0
 26 25  1  0
 27 28  1  0
 27 26  1  0
 28 24  1  0
 29 30  2  0
 30 31  1  0
 32 31  2  0
 33 32  1  0
 34  8  1  0
 34 39  1  0
 34 35  1  0
 35 38  1  1
 35 36  1  0
 37 35  1  0
 39 42  1  0
 40 44  1  0
 40 39  1  0
 41 40  2  0
 44 43  1  0
 46 44  1  0
 46 47  1  0
 46 45  1  0
 48 49  1  0
 50 62  1  0
 51 56  1  0
 52 53  1  0
 52 51  1  0
 54 53  1  0
 54 68  1  0
 54 55  1  0
 56 50  1  0
 56 55  1  0
 57 50  2  0
 58 62  1  0
 59 61  1  0
 60 58  1  0
 60 63  1  0
 62 59  1  0
 63 49  1  0
 63 61  1  0
 63 64  1  6
 65 66  2  0
 66 85  1  0
 67 66  1  0
 67 70  1  0
 68 69  1  0
 68 65  1  0
 69 67  2  0
 70 71  1  0
 71 72  2  0
 73 76  1  0
 73 72  1  0
 74 73  2  0
 75 74  1  0
 75 70  2  0
 76 77  1  0
 77 78  1  0
 78 79  2  0
 80 79  1  0
 80 84  1  0
 81 80  2  0
 82 77  2  0
 82 81  1  0
 83 82  1  0
 85 86  1  0
 86 89  1  0
 86 88  1  0
 87 85  2  0
 90 91  1  0
 90 65  1  0
 92 90  1  0
M  ISO  4   6 101   7 101  50 100  62 100
M  END
>  <TORSDO>  (28) 
F 20

>  <SCORE>  (28) 
-13.549

>  <name>  (28) 
27

>  <ligand_id>  (28) 
27

>  <original_smiles>  (28) 
[H]c1c([H])c([H])c2c(c1[H])C([H])([H])C([H])([H])C([H])([H])C2([H])N([H])C(=O)C1([H])N(C(=O)C([H])(N([H])C(=O)C([H])(N([H])C([H])([H])[H])C([H])([H])[H])C(C([H])([H])[H])(C([H])([H])[H])C([H])([H])[H])C([H])([H])c2c([H])c(OC([H])([H])C([H])([H])C(=O)N([H])C([H])([H])C([H])([H])[N+]3([H])C([H])([H])C([H])([H])N(C(=O)N4C([H])([H])C([H])([H])C([H])([H])C([H])(n5nc(-c6c([H])c([H])c(Oc7c([H])c([H])c(F)c([H])c7F)c([H])c6[H])c(C(=O)N([H])[H])c5N([H])[H])C4([H])[H])C([H])([H])C3([H])[H])c([H])c([H])c2C1([H])[H]

>  <smiles>  (28) 
[H]c1c([H])c([H])c2c(c1[H])C([H])([H])C([H])([H])C([H])([H])C2([H])N([H])C(=O)C1([H])N(C(=O)C([H])(N([H])C(=O)C([H])(N([H])C([H])([H])[H])C([H])([H])[H])C(C([H])([H])[H])(C([H])([H])[H])C([H])([H])[H])C([H])([H])c2c([H])c(OC([H])([H])C([H])([H])C(=O)N([H])C([H])([H])C([H])([H])[N+]3([H])C([H])([H])C([H])([H])N(C(=O)N4C([H])([H])C([H])([H])C([H])([H])C([H])(n5nc(-c6c([H])c([H])c(Oc7c([H])c([H])c(F)c([H])c7F)c([H])c6[H])c(C(=O)N([H])[H])c5N([H])[H])C4([H])[H])C([H])([H])C3([H])[H])c([H])c([H])c2C1([H])[H]

$$$$
28:0:0
     RDKit          3D

 93101  0  0  1  0  0  0  0  0999 V2000
  -29.5160  -21.7440   20.2390 C   0  0  0  0  0  2  0  0  0  0  0  0
  -28.5830  -22.8850   20.0060 N   0  0  0  0  0  4  0  0  0  0  0  0
  -27.7310  -22.7360   20.5250 H   0  0  0  0  0  0  0  0  0  0  0  0
  -28.3360  -22.8480   19.0290 H   0  0  0  0  0  0  0  0  0  0  0  0
  -29.1160  -24.2530   20.3170 C   0  0  0  0  0  2  0  0  0  0  0  0
  -28.5050  -25.3820   19.4360 C   0  0  0  0  0  2  0  0  0  0  0  0
  -28.4240  -26.6740   20.1050 O   0  0  0  0  0  0  0  0  0  0  0  0
  -24.6300  -31.8900   23.2390 C   0  0  0  0  0  0  0  0  0  0  0  0
  -27.2460  -27.4150   20.1080 C   0  0  0  0  0  0  0  0  0  0  0  0
  -23.4210  -30.4970   21.6000 C   0  0  0  0  0  3  0  0  0  0  0  0
  -24.8630  -28.9710   20.1630 C   0  0  0  0  0  0  0  0  0  0  0  0
  -25.9580  -30.8350   21.4060 C   0  0  0  0  0  2  0  0  0  0  0  0
  -26.0330  -29.4690   20.7490 C   0  0  0  0  0  0  0  0  0  0  0  0
  -27.2240  -28.7000   20.7190 C   0  0  0  0  0  3  0  0  0  0  0  0
  -26.0380  -26.9480   19.5310 C   0  0  0  0  0  3  0  0  0  0  0  0
  -24.8630  -27.7090   19.5600 C   0  0  0  0  0  3  0  0  0  0  0  0
  -23.6290  -29.8410   20.2150 C   0  0  0  0  0  2  0  0  0  0  0  0
  -24.6890  -31.0900   22.1370 N   0  0  0  0  0  0  0  0  0  0  0  0
  -23.5510  -32.1580   23.7830 O   0  0  0  0  0  0  0  0  0  0  0  0
  -22.7740  -29.4650   22.5540 C   0  0  0  0  0  0  0  0  0  0  0  0
  -21.4480  -29.2840   22.4350 N   0  0  0  0  0  0  0  0  0  0  0  0
  -23.4610  -28.8310   23.3600 O   0  0  0  0  0  0  0  0  0  0  0  0
  -20.9530  -29.8540   21.7640 H   0  0  0  0  0  0  0  0  0  0  0  0
  -18.0770  -28.0840   22.9480 C   0  0  0  0  0  0  0  0  0  0  0  0
  -20.6360  -28.3430   23.2070 C   0  0  0  0  0  3  0  0  0  0  0  0
  -20.7370  -26.9130   22.6280 C   0  0  0  0  0  2  0  0  0  0  0  0
  -19.6280  -26.5910   21.6200 C   0  0  0  0  0  2  0  0  0  0  0  0
  -18.2500  -26.7360   22.2700 C   0  0  0  0  0  2  0  0  0  0  0  0
  -19.1970  -28.8440   23.3750 C   0  0  0  0  0  0  0  0  0  0  0  0
  -18.9830  -30.1060   23.9730 C   0  0  0  0  0  3  0  0  0  0  0  0
  -17.6790  -30.6070   24.1460 C   0  0  0  0  0  3  0  0  0  0  0  0
  -16.5720  -29.8450   23.7330 C   0  0  0  0  0  3  0  0  0  0  0  0
  -16.7720  -28.5870   23.1390 C   0  0  0  0  0  3  0  0  0  0  0  0
  -25.9150  -32.5210   23.8560 C   0  0  0  0  0  3  0  0  0  0  0  0
  -25.6030  -33.9160   24.1930 N   0  0  0  0  0  0  0  0  0  0  0  0
  -25.9200  -34.9730   23.4320 C   0  0  0  0  0  0  0  0  0  0  0  0
  -26.5800  -34.8770   22.3950 O   0  0  0  0  0  0  0  0  0  0  0  0
  -25.0150  -34.0640   25.0010 H   0  0  0  0  0  0  0  0  0  0  0  0
  -24.1780  -36.7590   23.0970 C   0  0  0  0  0  1  0  0  0  0  0  0
  -25.4270  -36.3580   23.8990 C   0  0  0  0  0  3  0  0  0  0  0  0
  -27.5650  -37.2510   24.7150 C   0  0  0  0  0  1  0  0  0  0  0  0
  -26.4540  -37.4170   23.7800 N   0  0  0  0  0  0  0  0  0  0  0  0
  -26.0440  -38.3340   23.9340 H   0  0  0  0  0  0  0  0  0  0  0  0
  -26.4430  -31.7460   25.1250 C   0  0  1  0  0  0  0  0  0  0  0  0
  -25.3590  -31.5020   26.2010 C   0  0  0  0  0  1  0  0  0  0  0  0
  -27.0290  -30.3720   24.7220 C   0  0  0  0  0  1  0  0  0  0  0  0
  -27.5920  -32.5450   25.7850 C   0  0  0  0  0  1  0  0  0  0  0  0
  -28.8400  -20.4230   20.7270 C   0  0  0  0  0  2  0  0  0  0  0  0
  -29.6200  -18.0020   20.9660 C   0  0  0  0  0  0  0  0  0  0  0  0
  -29.7580  -19.2840   20.5780 N   0  0  0  0  0  0  0  0  0  0  0  0
  -28.6810  -17.6130   21.6630 O   0  0  0  0  0  0  0  0  0  0  0  0
  -30.5670  -19.4500   19.9930 H   0  0  0  0  0  0  0  0  0  0  0  0
  -30.8250  -14.5580   20.3710 C   0  0  0  0  0  0  0  0  0  0  0  0
  -30.5080  -12.3390   19.3870 C   0  0  0  0  0  2  0  0  0  0  0  0
  -29.5820  -12.4140   18.1530 C   0  0  0  0  0  2  0  0  0  0  0  0
  -28.1070  -12.3220   18.5810 C   0  0  0  0  0  2  0  0  0  0  0  0
  -27.7370  -13.2460   19.7710 C   0  0  0  0  0  3  0  0  0  0  0  0
  -28.7840  -13.1680   20.9030 C   0  0  0  0  0  2  0  0  0  0  0  0
  -30.1000  -13.4110   20.3050 N   0  0  0  0  0  0  0  0  0  0  0  0
  -32.0540  -14.5600   20.3190 O   0  0  0  0  0  0  0  0  0  0  0  0
  -30.7140  -17.2410   18.1360 C   0  0  0  0  0  2  0  0  0  0  0  0
  -31.5930  -17.5430   19.3360 C   0  0  0  0  0  2  0  0  0  0  0  0
  -30.1640  -15.8560   18.5010 C   0  0  0  0  0  2  0  0  0  0  0  0
  -30.7160  -17.0100   20.4830 C   0  0  0  0  0  3  0  0  0  0  0  0
  -30.1970  -15.7030   19.9840 N   0  0  0  0  0  0  0  0  0  0  0  0
  -25.3300  -13.8440   20.4400 C   0  0  0  0  0  0  0  0  0  0  0  0
  -24.2600  -13.0670   20.7960 C   0  0  0  0  0  0  0  0  0  0  0  0
  -24.7350  -11.7210   20.8080 C   0  0  0  0  0  0  0  0  0  0  0  0
  -26.3860  -12.9690   20.2510 N   0  0  0  0  0  0  0  0  0  0  0  0
  -26.0330  -11.6910   20.5370 N   0  0  0  0  0  0  0  0  0  0  0  0
  -24.0200  -10.4530   20.9970 C   0  0  0  0  0  0  0  0  0  0  0  0
  -24.4420   -9.5040   21.9530 C   0  0  0  0  0  3  0  0  0  0  0  0
  -23.7280   -8.2990   22.1290 C   0  0  0  0  0  3  0  0  0  0  0  0
  -22.5780   -8.0350   21.3500 C   0  0  0  0  0  0  0  0  0  0  0  0
  -22.1770   -8.9730   20.3830 C   0  0  0  0  0  3  0  0  0  0  0  0
  -22.8900  -10.1700   20.2040 C   0  0  0  0  0  3  0  0  0  0  0  0
  -21.8350   -6.8820   21.4370 O   0  0  0  0  0  0  0  0  0  0  0  0
  -21.7590   -6.1620   22.6040 C   0  0  0  0  0  0  0  0  0  0  0  0
  -21.2860   -6.7350   23.8030 C   0  0  0  0  0  3  0  0  0  0  0  0
  -21.1610   -5.9400   24.9600 C   0  0  0  0  0  3  0  0  0  0  0  0
  -21.4930   -4.5720   24.9160 C   0  0  0  0  0  0  0  0  0  0  0  0
  -21.9560   -3.9990   23.7190 C   0  0  0  0  0  3  0  0  0  0  0  0
  -22.0860   -4.7910   22.5660 C   0  0  0  0  0  0  0  0  0  0  0  0
  -22.5150   -4.2300   21.4080 F   0  0  0  0  0  0  0  0  0  0  0  0
  -21.3660   -3.8060   26.0260 F   0  0  0  0  0  0  0  0  0  0  0  0
  -22.8500  -13.5360   21.0170 C   0  0  0  0  0  0  0  0  0  0  0  0
  -22.1070  -12.8540   21.8810 N   0  0  0  0  0  0  0  0  0  0  0  0
  -22.4130  -14.5420   20.4600 O   0  0  0  0  0  0  0  0  0  0  0  0
  -22.4740  -12.0450   22.3600 H   0  0  0  0  0  0  0  0  0  0  0  0
  -21.1610  -13.1510   22.0710 H   0  0  0  0  0  0  0  0  0  0  0  0
  -25.4940  -15.2100   20.2350 N   0  0  0  0  0  0  0  0  0  0  0  0
  -24.7420  -15.8810   20.3300 H   0  0  0  0  0  0  0  0  0  0  0  0
  -26.3800  -15.6380   19.9880 H   0  0  0  0  0  0  0  0  0  0  0  0
  1 48  1  0
  2  1  1  0
  2  5  1  0
  2  3  1  0
  4  2  1  0
  6  7  1  0
  6  5  1  0
  7  9  1  0
  8 19  2  0
  9 14  1  0
 10 18  1  0
 10 20  1  0
 11 17  1  0
 11 13  1  0
 12 18  1  0
 13 12  1  0
 14 13  2  0
 15 16  1  0
 15  9  2  0
 16 11  2  0
 17 10  1  0
 18  8  1  0
 20 22  2  0
 21 20  1  0
 23 21  1  0
 24 33  2  0
 24 29  1  0
 25 21  1  0
 25 29  1  0
 26 25  1  0
 27 28  1  0
 27 26  1  0
 28 24  1  0
 29 30  2  0
 30 31  1  0
 32 31  2  0
 33 32  1  0
 34  8  1  0
 34 35  1  0
 34 44  1  0
 35 38  1  0
 36 40  1  0
 36 35  1  0
 37 36  2  0
 40 39  1  0
 42 40  1  0
 42 43  1  0
 42 41  1  0
 44 47  1  1
 44 45  1  0
 46 44  1  0
 49 51  2  0
 50 48  1  0
 50 49  1  0
 52 50  1  0
 54 59  1  0
 55 56  1  0
 55 54  1  0
 57 56  1  0
 57 69  1  0
 57 58  1  0
 59 53  1  0
 59 58  1  0
 60 53  2  0
 61 63  1  0
 61 62  1  0
 62 64  1  0
 63 65  1  0
 64 49  1  0
 65 53  1  0
 65 64  1  0
 66 67  2  0
 67 68  1  0
 67 86  1  0
 68 71  1  0
 69 66  1  0
 69 70  1  0
 70 68  2  0
 71 72  1  0
 72 73  2  0
 74 77  1  0
 74 73  1  0
 75 74  2  0
 76 75  1  0
 76 71  2  0
 77 78  1  0
 78 79  1  0
 79 80  2  0
 81 80  1  0
 81 85  1  0
 82 81  2  0
 83 78  2  0
 83 82  1  0
 84 83  1  0
 86 87  1  0
 87 90  1  0
 87 89  1  0
 88 86  2  0
 91 92  1  0
 91 66  1  0
 93 91  1  0
M  ISO  4   6 101   7 101  53 100  65 100
M  END
>  <TORSDO>  (29) 
F 21

>  <SCORE>  (29) 
-12.459

>  <name>  (29) 
28

>  <ligand_id>  (29) 
28

>  <original_smiles>  (29) 
[H]c1c([H])c([H])c2c(c1[H])C([H])([H])C([H])([H])C([H])([H])C2([H])N([H])C(=O)C1([H])N(C(=O)C([H])(N([H])C(=O)C([H])(N([H])C([H])([H])[H])C([H])([H])[H])C(C([H])([H])[H])(C([H])([H])[H])C([H])([H])[H])C([H])([H])c2c([H])c(OC([H])([H])C([H])([H])[N+]([H])([H])C([H])([H])C([H])([H])N([H])C(=O)C3([H])N(C(=O)N4C([H])([H])C([H])([H])C([H])([H])C([H])(n5nc(-c6c([H])c([H])c(Oc7c([H])c([H])c(F)c([H])c7F)c([H])c6[H])c(C(=O)N([H])[H])c5N([H])[H])C4([H])[H])C([H])([H])C([H])([H])C3([H])[H])c([H])c([H])c2C1([H])[H]

>  <smiles>  (29) 
[H]c1c([H])c([H])c2c(c1[H])C([H])([H])C([H])([H])C([H])([H])C2([H])N([H])C(=O)C1([H])N(C(=O)C([H])(N([H])C(=O)C([H])(N([H])C([H])([H])[H])C([H])([H])[H])C(C([H])([H])[H])(C([H])([H])[H])C([H])([H])[H])C([H])([H])c2c([H])c(OC([H])([H])C([H])([H])[N+]([H])([H])C([H])([H])C([H])([H])N([H])C(=O)C3([H])N(C(=O)N4C([H])([H])C([H])([H])C([H])([H])C([H])(n5nc(-c6c([H])c([H])c(Oc7c([H])c([H])c(F)c([H])c7F)c([H])c6[H])c(C(=O)N([H])[H])c5N([H])[H])C4([H])[H])C([H])([H])C([H])([H])C3([H])[H])c([H])c([H])c2C1([H])[H]

$$$$
29:0:0
     RDKit          3D

 96104  0  0  1  0  0  0  0  0999 V2000
  -29.0060  -22.3330   19.2590 C   0  0  0  0  0  2  0  0  0  0  0  0
  -30.2080  -23.1360   19.6660 N   0  0  1  0  0  4  0  0  0  0  0  0
  -30.3290  -22.9590   20.6540 H   0  0  0  0  0  0  0  0  0  0  0  0
  -31.4800  -22.7170   19.0020 C   0  0  0  0  0  2  0  0  0  0  0  0
  -34.0410  -22.8090   19.0190 C   0  0  0  0  0  1  0  0  0  0  0  0
  -32.7410  -23.3610   19.6190 C   0  0  0  0  0  2  0  0  0  0  0  0
  -30.0140  -24.6240   19.5400 C   0  0  0  0  0  2  0  0  0  0  0  0
  -28.5660  -25.1540   19.6170 C   0  0  0  0  0  2  0  0  0  0  0  0
  -28.5930  -26.5830   19.7200 O   0  0  0  0  0  0  0  0  0  0  0  0
  -24.6180  -31.4890   22.9870 C   0  0  0  0  0  0  0  0  0  0  0  0
  -27.3810  -27.2430   19.7430 C   0  0  0  0  0  0  0  0  0  0  0  0
  -23.4440  -30.1000   21.3120 C   0  0  0  0  0  3  0  0  0  0  0  0
  -24.9340  -28.6610   19.8280 C   0  0  0  0  0  0  0  0  0  0  0  0
  -25.9530  -30.5530   21.1020 C   0  0  0  0  0  2  0  0  0  0  0  0
  -26.0800  -29.2080   20.4180 C   0  0  0  0  0  0  0  0  0  0  0  0
  -27.3050  -28.5080   20.3690 C   0  0  0  0  0  3  0  0  0  0  0  0
  -26.2130  -26.7060   19.1520 C   0  0  0  0  0  3  0  0  0  0  0  0
  -24.9950  -27.4100   19.1940 C   0  0  0  0  0  3  0  0  0  0  0  0
  -23.6620  -29.4720   19.9100 C   0  0  0  0  0  2  0  0  0  0  0  0
  -24.6900  -30.7270   21.8590 N   0  0  0  0  0  0  0  0  0  0  0  0
  -23.5330  -31.7050   23.5450 O   0  0  0  0  0  0  0  0  0  0  0  0
  -22.8390  -29.0250   22.2430 C   0  0  0  0  0  0  0  0  0  0  0  0
  -21.5230  -28.7960   22.1170 N   0  0  0  0  0  0  0  0  0  0  0  0
  -23.5510  -28.4010   23.0340 O   0  0  0  0  0  0  0  0  0  0  0  0
  -21.0080  -29.3560   21.4530 H   0  0  0  0  0  0  0  0  0  0  0  0
  -18.1970  -27.4640   22.5900 C   0  0  0  0  0  0  0  0  0  0  0  0
  -20.7460  -27.8060   22.8610 C   0  0  0  0  0  3  0  0  0  0  0  0
  -20.8970  -26.3970   22.2420 C   0  0  0  0  0  2  0  0  0  0  0  0
  -19.8020  -26.0640   21.2230 C   0  0  0  0  0  2  0  0  0  0  0  0
  -18.4190  -26.1420   21.8760 C   0  0  0  0  0  2  0  0  0  0  0  0
  -19.2890  -28.2530   23.0380 C   0  0  0  0  0  0  0  0  0  0  0  0
  -19.0270  -29.4920   23.6630 C   0  0  0  0  0  3  0  0  0  0  0  0
  -17.7060  -29.9390   23.8490 C   0  0  0  0  0  3  0  0  0  0  0  0
  -16.6280  -29.1470   23.4160 C   0  0  0  0  0  3  0  0  0  0  0  0
  -16.8750  -27.9120   22.7910 C   0  0  0  0  0  3  0  0  0  0  0  0
  -25.8880  -32.1440   23.6140 C   0  0  0  0  0  3  0  0  0  0  0  0
  -25.5240  -33.5070   24.0230 N   0  0  0  0  0  0  0  0  0  0  0  0
  -25.8020  -34.6120   23.3180 C   0  0  0  0  0  0  0  0  0  0  0  0
  -26.4630  -34.5930   22.2760 O   0  0  0  0  0  0  0  0  0  0  0  0
  -24.9350  -33.5920   24.8390 H   0  0  0  0  0  0  0  0  0  0  0  0
  -23.9920  -36.3420   23.0780 C   0  0  0  0  0  1  0  0  0  0  0  0
  -25.2600  -35.9510   23.8540 C   0  0  0  0  0  3  0  0  0  0  0  0
  -27.3620  -36.8860   24.7110 C   0  0  0  0  0  1  0  0  0  0  0  0
  -26.2440  -37.0520   23.7870 N   0  0  0  0  0  0  0  0  0  0  0  0
  -25.7990  -37.9450   23.9840 H   0  0  0  0  0  0  0  0  0  0  0  0
  -26.4650  -31.3300   24.8370 C   0  0  1  0  0  0  0  0  0  0  0  0
  -25.4090  -30.9850   25.9110 C   0  0  0  0  0  1  0  0  0  0  0  0
  -27.1030  -30.0060   24.3560 C   0  0  0  0  0  1  0  0  0  0  0  0
  -27.5920  -32.1410   25.5200 C   0  0  0  0  0  1  0  0  0  0  0  0
  -27.7570  -20.1960   18.7810 C   0  0  0  0  0  1  0  0  0  0  0  0
  -29.1410  -20.7750   19.1440 C   0  0  0  0  0  3  0  0  0  0  0  0
  -29.7270  -20.0580   20.4060 C   0  0  0  0  0  2  0  0  0  0  0  0
  -31.2200  -14.2540   19.6160 C   0  0  0  0  0  0  0  0  0  0  0  0
  -30.6990  -12.1400   18.4640 C   0  0  0  0  0  2  0  0  0  0  0  0
  -29.6320  -12.4280   17.3870 C   0  0  0  0  0  2  0  0  0  0  0  0
  -28.2100  -12.3460   17.9800 C   0  0  0  0  0  2  0  0  0  0  0  0
  -28.0650  -13.1550   19.2970 C   0  0  0  0  0  3  0  0  0  0  0  0
  -29.2280  -12.8390   20.2620 C   0  0  0  0  0  2  0  0  0  0  0  0
  -30.4910  -13.1080   19.5520 N   0  0  0  0  0  0  0  0  0  0  0  0
  -32.2840  -14.4050   19.0050 O   0  0  0  0  0  0  0  0  0  0  0  0
  -29.3440  -16.5160   21.9220 C   0  0  0  0  0  2  0  0  0  0  0  0
  -30.5580  -15.6620   21.5030 C   0  0  0  0  0  2  0  0  0  0  0  0
  -30.2760  -16.4560   19.1360 C   0  0  0  0  0  2  0  0  0  0  0  0
  -29.5710  -18.0400   21.8070 C   0  0  0  0  0  2  0  0  0  0  0  0
  -30.7070  -17.8680   19.6120 C   0  0  0  0  0  2  0  0  0  0  0  0
  -30.5450  -15.3400   20.0700 N   0  0  0  0  0  0  0  0  0  0  0  0
  -29.6510  -18.5570   20.4110 N   0  0  2  0  0  4  0  0  0  0  0  0
  -28.7670  -18.3380   19.9770 H   0  0  0  0  0  0  0  0  0  0  0  0
  -25.8210  -13.8570   20.3460 C   0  0  0  0  0  0  0  0  0  0  0  0
  -24.7590  -13.1260   20.8090 C   0  0  0  0  0  0  0  0  0  0  0  0
  -25.1210  -11.7560   20.6370 C   0  0  0  0  0  0  0  0  0  0  0  0
  -26.7660  -12.9330   19.9290 N   0  0  0  0  0  0  0  0  0  0  0  0
  -26.3550  -11.6610   20.1580 N   0  0  0  0  0  0  0  0  0  0  0  0
  -24.3410  -10.5290   20.8440 C   0  0  0  0  0  0  0  0  0  0  0  0
  -24.7410   -9.5500   21.7790 C   0  0  0  0  0  3  0  0  0  0  0  0
  -23.9660   -8.3870   21.9740 C   0  0  0  0  0  3  0  0  0  0  0  0
  -22.7750   -8.1970   21.2330 C   0  0  0  0  0  0  0  0  0  0  0  0
  -22.3940   -9.1630   20.2860 C   0  0  0  0  0  3  0  0  0  0  0  0
  -23.1700  -10.3180   20.0900 C   0  0  0  0  0  3  0  0  0  0  0  0
  -21.9700   -7.0880   21.3390 O   0  0  0  0  0  0  0  0  0  0  0  0
  -21.8160   -6.4220   22.5280 C   0  0  0  0  0  0  0  0  0  0  0  0
  -21.3290   -7.0670   23.6860 C   0  0  0  0  0  3  0  0  0  0  0  0
  -21.1210   -6.3280   24.8670 C   0  0  0  0  0  3  0  0  0  0  0  0
  -21.3860   -4.9460   24.8910 C   0  0  0  0  0  0  0  0  0  0  0  0
  -21.8660   -4.3020   23.7360 C   0  0  0  0  0  3  0  0  0  0  0  0
  -22.0780   -5.0380   22.5570 C   0  0  0  0  0  0  0  0  0  0  0  0
  -22.5200   -4.4090   21.4430 F   0  0  0  0  0  0  0  0  0  0  0  0
  -21.1790   -4.2340   26.0230 F   0  0  0  0  0  0  0  0  0  0  0  0
  -23.4430  -13.6660   21.2890 C   0  0  0  0  0  0  0  0  0  0  0  0
  -22.8080  -12.9820   22.2350 N   0  0  0  0  0  0  0  0  0  0  0  0
  -22.9930  -14.7280   20.8620 O   0  0  0  0  0  0  0  0  0  0  0  0
  -23.1850  -12.1210   22.6040 H   0  0  0  0  0  0  0  0  0  0  0  0
  -21.9300  -13.3270   22.6000 H   0  0  0  0  0  0  0  0  0  0  0  0
  -26.0490  -15.2240   20.2240 N   0  0  0  0  0  0  0  0  0  0  0  0
  -25.3390  -15.9060   20.4630 H   0  0  0  0  0  0  0  0  0  0  0  0
  -26.8470  -15.6220   19.7510 H   0  0  0  0  0  0  0  0  0  0  0  0
  1  2  1  0
  2  3  1  1
  4  6  1  0
  4  2  1  0
  5  6  1  0
  7  8  1  0
  7  2  1  0
  8  9  1  0
  9 11  1  0
 10 21  2  0
 11 16  1  0
 12 20  1  0
 12 22  1  0
 13 19  1  0
 13 15  1  0
 14 20  1  0
 15 14  1  0
 16 15  2  0
 17 18  1  0
 17 11  2  0
 18 13  2  0
 19 12  1  0
 20 10  1  0
 22 24  2  0
 23 22  1  0
 25 23  1  0
 26 35  2  0
 26 31  1  0
 27 23  1  0
 27 31  1  0
 28 27  1  0
 29 30  1  0
 29 28  1  0
 30 26  1  0
 31 32  2  0
 32 33  1  0
 34 33  2  0
 35 34  1  0
 36 10  1  0
 36 37  1  0
 36 46  1  0
 37 40  1  0
 38 42  1  0
 38 37  1  0
 39 38  2  0
 42 41  1  0
 44 42  1  0
 44 45  1  0
 44 43  1  0
 46 49  1  1
 46 47  1  0
 48 46  1  0
 51 50  1  0
 51  1  1  0
 51 52  1  0
 52 67  1  0
 53 66  1  0
 54 59  1  0
 55 56  1  0
 55 54  1  0
 57 56  1  0
 57 72  1  0
 57 58  1  0
 59 53  1  0
 59 58  1  0
 60 53  2  0
 62 61  1  0
 63 65  1  0
 63 66  1  0
 64 61  1  0
 65 67  1  0
 66 62  1  0
 67 64  1  0
 67 68  1  6
 69 70  2  0
 70 89  1  0
 71 70  1  0
 71 74  1  0
 72 73  1  0
 72 69  1  0
 73 71  2  0
 74 75  1  0
 75 76  2  0
 77 80  1  0
 77 76  1  0
 78 77  2  0
 79 78  1  0
 79 74  2  0
 80 81  1  0
 81 86  2  0
 81 82  1  0
 82 83  2  0
 83 84  1  0
 84 88  1  0
 85 84  2  0
 86 85  1  0
 87 86  1  0
 89 90  1  0
 90 93  1  0
 90 92  1  0
 91 89  2  0
 94 69  1  0
 94 95  1  0
 96 94  1  0
M  ISO  4   8 101   9 101  53 100  66 100
M  END
>  <TORSDO>  (30) 
F 23

>  <SCORE>  (30) 
-10.412

>  <name>  (30) 
29

>  <ligand_id>  (30) 
29

>  <original_smiles>  (30) 
[H]c1c([H])c([H])c2c(c1[H])C([H])([H])C([H])([H])C([H])([H])C2([H])N([H])C(=O)C1([H])N(C(=O)C([H])(N([H])C(=O)C([H])(N([H])C([H])([H])[H])C([H])([H])[H])C(C([H])([H])[H])(C([H])([H])[H])C([H])([H])[H])C([H])([H])c2c([H])c(OC([H])([H])C([H])([H])[N+]([H])(C([H])([H])C([H])([H])C([H])([H])[H])C([H])([H])C([H])(C([H])([H])[H])C([H])([H])[N+]3([H])C([H])([H])C([H])([H])N(C(=O)N4C([H])([H])C([H])([H])C([H])([H])C([H])(n5nc(-c6c([H])c([H])c(Oc7c([H])c([H])c(F)c([H])c7F)c([H])c6[H])c(C(=O)N([H])[H])c5N([H])[H])C4([H])[H])C([H])([H])C([H])([H])C3([H])[H])c([H])c([H])c2C1([H])[H]

>  <smiles>  (30) 
[H]c1c([H])c([H])c2c(c1[H])C([H])([H])C([H])([H])C([H])([H])C2([H])N([H])C(=O)C1([H])N(C(=O)C([H])(N([H])C(=O)C([H])(N([H])C([H])([H])[H])C([H])([H])[H])C(C([H])([H])[H])(C([H])([H])[H])C([H])([H])[H])C([H])([H])c2c([H])c(OC([H])([H])C([H])([H])[N+]([H])(C([H])([H])C([H])([H])C([H])([H])[H])C([H])([H])C([H])(C([H])([H])[H])C([H])([H])[N+]3([H])C([H])([H])C([H])([H])N(C(=O)N4C([H])([H])C([H])([H])C([H])([H])C([H])(n5nc(-c6c([H])c([H])c(Oc7c([H])c([H])c(F)c([H])c7F)c([H])c6[H])c(C(=O)N([H])[H])c5N([H])[H])C4([H])[H])C([H])([H])C([H])([H])C3([H])[H])c([H])c([H])c2C1([H])[H]

$$$$
30:0:0
     RDKit          3D

 97105  0  0  1  0  0  0  0  0999 V2000
  -30.0230  -20.4770   21.3950 C   0  0  0  0  0  0  0  0  0  0  0  0
  -30.5900  -20.7050   20.3190 O   0  0  0  0  0  0  0  0  0  0  0  0
  -29.5830  -18.1140   22.2380 C   0  0  0  0  0  2  0  0  0  0  0  0
  -30.5150  -16.9590   22.5940 C   0  0  0  0  0  2  0  0  0  0  0  0
  -30.4950  -19.3470   22.3160 C   0  0  0  0  0  3  0  0  0  0  0  0
  -31.9240  -17.4240   22.1440 C   0  0  0  0  0  3  0  0  0  0  0  0
  -31.8220  -18.8730   21.8770 N   0  0  0  0  0  4  0  0  0  0  0  0
  -32.5820  -19.3890   22.2910 H   0  0  0  0  0  0  0  0  0  0  0  0
  -31.9020  -18.9700   20.8700 H   0  0  0  0  0  0  0  0  0  0  0  0
  -32.2660  -14.7160   19.5900 C   0  0  0  0  0  0  0  0  0  0  0  0
  -31.6060  -12.6190   18.4730 C   0  0  0  0  0  2  0  0  0  0  0  0
  -30.5180  -12.9180   17.4260 C   0  0  0  0  0  2  0  0  0  0  0  0
  -29.1140  -12.8820   18.0600 C   0  0  0  0  0  2  0  0  0  0  0  0
  -29.0280  -13.7190   19.3620 C   0  0  0  0  0  3  0  0  0  0  0  0
  -30.2190  -13.4160   20.3020 C   0  0  0  0  0  2  0  0  0  0  0  0
  -31.4770  -13.6080   19.5530 N   0  0  0  0  0  0  0  0  0  0  0  0
  -33.1460  -14.9430   18.7530 O   0  0  0  0  0  0  0  0  0  0  0  0
  -32.4460  -16.7600   20.8670 C   0  0  0  0  0  0  0  0  0  0  0  0
  -32.0210  -15.5060   20.6420 N   0  0  0  0  0  0  0  0  0  0  0  0
  -33.1820  -17.4110   20.1160 O   0  0  0  0  0  0  0  0  0  0  0  0
  -31.3780  -15.1250   21.3160 H   0  0  0  0  0  0  0  0  0  0  0  0
  -26.8860  -14.4800   20.5730 C   0  0  0  0  0  0  0  0  0  0  0  0
  -25.7880  -13.7920   21.0130 C   0  0  0  0  0  0  0  0  0  0  0  0
  -26.0290  -12.4190   20.6930 C   0  0  0  0  0  0  0  0  0  0  0  0
  -27.7390  -13.5340   20.0280 N   0  0  0  0  0  0  0  0  0  0  0  0
  -27.2320  -12.2800   20.1460 N   0  0  0  0  0  0  0  0  0  0  0  0
  -25.1640  -11.2400   20.8310 C   0  0  0  0  0  0  0  0  0  0  0  0
  -25.5270  -10.1480   21.6500 C   0  0  0  0  0  3  0  0  0  0  0  0
  -24.6700   -9.0350   21.7810 C   0  0  0  0  0  3  0  0  0  0  0  0
  -23.4350   -9.0050   21.0910 C   0  0  0  0  0  0  0  0  0  0  0  0
  -23.0870  -10.0860   20.2600 C   0  0  0  0  0  3  0  0  0  0  0  0
  -23.9430  -11.1910   20.1280 C   0  0  0  0  0  3  0  0  0  0  0  0
  -22.5510   -7.9540   21.1350 O   0  0  0  0  0  0  0  0  0  0  0  0
  -22.3430   -7.2350   22.2850 C   0  0  0  0  0  0  0  0  0  0  0  0
  -21.9380   -7.8560   23.4860 C   0  0  0  0  0  3  0  0  0  0  0  0
  -21.6680   -7.0740   24.6260 C   0  0  0  0  0  3  0  0  0  0  0  0
  -21.7920   -5.6720   24.5650 C   0  0  0  0  0  0  0  0  0  0  0  0
  -22.1870   -5.0520   23.3670 C   0  0  0  0  0  3  0  0  0  0  0  0
  -22.4600   -5.8320   22.2300 C   0  0  0  0  0  0  0  0  0  0  0  0
  -22.8210   -5.2280   21.0720 F   0  0  0  0  0  0  0  0  0  0  0  0
  -21.5250   -4.9190   25.6580 F   0  0  0  0  0  0  0  0  0  0  0  0
  -24.5420  -14.3790   21.6130 C   0  0  0  0  0  0  0  0  0  0  0  0
  -23.9050  -13.6620   22.5300 N   0  0  0  0  0  0  0  0  0  0  0  0
  -24.1510  -15.5030   21.3010 O   0  0  0  0  0  0  0  0  0  0  0  0
  -24.2340  -12.7460   22.7970 H   0  0  0  0  0  0  0  0  0  0  0  0
  -23.0790  -14.0370   22.9710 H   0  0  0  0  0  0  0  0  0  0  0  0
  -27.2180  -15.8320   20.5770 N   0  0  0  0  0  0  0  0  0  0  0  0
  -26.5850  -16.5310   20.9480 H   0  0  0  0  0  0  0  0  0  0  0  0
  -28.0300  -16.2290   20.1250 H   0  0  0  0  0  0  0  0  0  0  0  0
  -28.7960  -21.2720   21.8590 C   0  0  0  0  0  2  0  0  0  0  0  0
  -28.4150  -22.2710   20.8360 N   0  0  0  0  0  4  0  0  0  0  0  0
  -27.4260  -22.4380   20.9370 H   0  0  0  0  0  0  0  0  0  0  0  0
  -28.5740  -21.8510   19.9350 H   0  0  0  0  0  0  0  0  0  0  0  0
  -29.1130  -23.5760   20.9160 C   0  0  0  0  0  2  0  0  0  0  0  0
  -28.5630  -24.5720   19.8760 C   0  0  0  0  0  2  0  0  0  0  0  0
  -29.2840  -25.9340   19.8980 C   0  0  0  0  0  2  0  0  0  0  0  0
  -28.8520  -26.7870   18.8410 O   0  0  0  0  0  0  0  0  0  0  0  0
  -24.9060  -30.9800   23.0290 C   0  0  0  0  0  0  0  0  0  0  0  0
  -27.6510  -27.4100   19.0620 C   0  0  0  0  0  0  0  0  0  0  0  0
  -23.7040  -29.8370   21.1920 C   0  0  0  0  0  3  0  0  0  0  0  0
  -25.1760  -28.6970   19.4450 C   0  0  0  0  0  0  0  0  0  0  0  0
  -26.1870  -30.4000   20.9710 C   0  0  0  0  0  2  0  0  0  0  0  0
  -26.3250  -29.1800   20.0870 C   0  0  0  0  0  0  0  0  0  0  0  0
  -27.5670  -28.5400   19.8990 C   0  0  0  0  0  3  0  0  0  0  0  0
  -26.4950  -26.9370   18.4100 C   0  0  0  0  0  3  0  0  0  0  0  0
  -25.2560  -27.5710   18.6060 C   0  0  0  0  0  3  0  0  0  0  0  0
  -23.8850  -29.4410   19.7020 C   0  0  0  0  0  2  0  0  0  0  0  0
  -24.9540  -30.4080   21.7920 N   0  0  0  0  0  0  0  0  0  0  0  0
  -23.8400  -31.0720   23.6520 O   0  0  0  0  0  0  0  0  0  0  0  0
  -23.1590  -28.6140   21.9630 C   0  0  0  0  0  0  0  0  0  0  0  0
  -21.8630  -28.3170   21.7750 N   0  0  0  0  0  0  0  0  0  0  0  0
  -23.9020  -27.9390   22.6820 O   0  0  0  0  0  0  0  0  0  0  0  0
  -21.3180  -28.9260   21.1820 H   0  0  0  0  0  0  0  0  0  0  0  0
  -18.6640  -26.6520   21.9030 C   0  0  0  0  0  0  0  0  0  0  0  0
  -21.1500  -27.1850   22.3640 C   0  0  0  0  0  3  0  0  0  0  0  0
  -21.4680  -25.8730   21.6090 C   0  0  0  0  0  2  0  0  0  0  0  0
  -20.4620  -25.5580   20.4960 C   0  0  0  0  0  2  0  0  0  0  0  0
  -19.0470  -25.4410   21.0670 C   0  0  0  0  0  2  0  0  0  0  0  0
  -19.6530  -27.4790   22.5010 C   0  0  0  0  0  0  0  0  0  0  0  0
  -19.2440  -28.6110   23.2370 C   0  0  0  0  0  3  0  0  0  0  0  0
  -17.8790  -28.9200   23.3870 C   0  0  0  0  0  3  0  0  0  0  0  0
  -16.9050  -28.0880   22.8070 C   0  0  0  0  0  3  0  0  0  0  0  0
  -17.2970  -26.9580   22.0690 C   0  0  0  0  0  3  0  0  0  0  0  0
  -26.1860  -31.5650   23.7070 C   0  0  0  0  0  3  0  0  0  0  0  0
  -25.8310  -32.8730   24.2700 N   0  0  0  0  0  0  0  0  0  0  0  0
  -26.1630  -34.0510   23.7220 C   0  0  0  0  0  0  0  0  0  0  0  0
  -26.8710  -34.1470   22.7160 O   0  0  0  0  0  0  0  0  0  0  0  0
  -25.2070  -32.8720   25.0640 H   0  0  0  0  0  0  0  0  0  0  0  0
  -24.4300  -35.8680   23.5910 C   0  0  0  0  0  1  0  0  0  0  0  0
  -25.6210  -35.3250   24.3970 C   0  0  0  0  0  3  0  0  0  0  0  0
  -27.6790  -36.0450   25.5250 C   0  0  0  0  0  1  0  0  0  0  0  0
  -26.6400  -36.3860   24.5570 N   0  0  0  0  0  0  0  0  0  0  0  0
  -26.2090  -37.2580   24.8500 H   0  0  0  0  0  0  0  0  0  0  0  0
  -26.7860  -30.6200   24.8190 C   0  0  1  0  0  0  0  0  0  0  0  0
  -25.7450  -30.1440   25.8570 C   0  0  0  0  0  1  0  0  0  0  0  0
  -27.4240  -29.3640   24.1820 C   0  0  0  0  0  1  0  0  0  0  0  0
  -27.9170  -31.3530   25.5790 C   0  0  0  0  0  1  0  0  0  0  0  0
  1 50  1  0
  2  1  2  0
  3  5  1  0
  3  4  1  0
  5  1  1  0
  6 18  1  0
  6  4  1  0
  7  6  1  0
  7  8  1  0
  7  5  1  0
  9  7  1  0
 10 19  1  0
 11 16  1  0
 12 13  1  0
 12 11  1  0
 14 13  1  0
 14 25  1  0
 14 15  1  0
 16 10  1  0
 16 15  1  0
 17 10  2  0
 19 18  1  0
 19 21  1  0
 20 18  2  0
 22 47  1  0
 22 23  2  0
 23 42  1  0
 24 27  1  0
 24 23  1  0
 25 26  1  0
 25 22  1  0
 26 24  2  0
 27 28  1  0
 28 29  2  0
 30 33  1  0
 30 29  1  0
 31 30  2  0
 32 31  1  0
 32 27  2  0
 33 34  1  0
 34 35  1  0
 35 36  2  0
 37 36  1  0
 37 41  1  0
 38 37  2  0
 39 34  2  0
 39 38  1  0
 40 39  1  0
 42 43  1  0
 43 45  1  0
 43 46  1  0
 44 42  2  0
 47 48  1  0
 49 47  1  0
 51 54  1  0
 51 52  1  0
 51 50  1  0
 53 51  1  0
 55 56  1  0
 55 54  1  0
 57 59  1  0
 57 56  1  0
 58 69  2  0
 59 64  1  0
 60 68  1  0
 60 70  1  0
 61 67  1  0
 61 63  1  0
 62 68  1  0
 63 62  1  0
 64 63  2  0
 65 66  1  0
 65 59  2  0
 66 61  2  0
 67 60  1  0
 68 58  1  0
 70 72  2  0
 71 70  1  0
 73 71  1  0
 74 83  2  0
 74 79  1  0
 75 71  1  0
 75 79  1  0
 76 75  1  0
 77 78  1  0
 77 76  1  0
 78 74  1  0
 79 80  2  0
 80 81  1  0
 82 81  2  0
 83 82  1  0
 84 58  1  0
 84 85  1  0
 84 94  1  0
 85 88  1  0
 86 85  1  0
 86 90  1  0
 87 86  2  0
 90 89  1  0
 90 92  1  0
 92 93  1  0
 92 91  1  0
 94 97  1  1
 94 95  1  0
 96 94  1  0
M  ISO  4  10 100  19 100  56 101  57 101
M  END
>  <TORSDO>  (31) 
F 22

>  <SCORE>  (31) 
-5.596

>  <name>  (31) 
30

>  <ligand_id>  (31) 
30

>  <original_smiles>  (31) 
[H]c1c([H])c([H])c2c(c1[H])C([H])([H])C([H])([H])C([H])([H])C2([H])N([H])C(=O)C1([H])N(C(=O)C([H])(N([H])C(=O)C([H])(N([H])C([H])([H])[H])C([H])([H])[H])C(C([H])([H])[H])(C([H])([H])[H])C([H])([H])[H])C([H])([H])c2c([H])c(OC([H])([H])C([H])([H])C([H])([H])[N+]([H])([H])C([H])([H])C(=O)C3([H])C([H])([H])C([H])([H])C([H])(C(=O)N([H])C(=O)N4C([H])([H])C([H])([H])C([H])([H])C([H])(n5nc(-c6c([H])c([H])c(Oc7c([H])c([H])c(F)c([H])c7F)c([H])c6[H])c(C(=O)N([H])[H])c5N([H])[H])C4([H])[H])[N+]3([H])[H])c([H])c([H])c2C1([H])[H]

>  <smiles>  (31) 
[H]c1c([H])c([H])c2c(c1[H])C([H])([H])C([H])([H])C([H])([H])C2([H])N([H])C(=O)C1([H])N(C(=O)C([H])(N([H])C(=O)C([H])(N([H])C([H])([H])[H])C([H])([H])[H])C(C([H])([H])[H])(C([H])([H])[H])C([H])([H])[H])C([H])([H])c2c([H])c(OC([H])([H])C([H])([H])C([H])([H])[N+]([H])([H])C([H])([H])C(=O)C3([H])C([H])([H])C([H])([H])C([H])(C(=O)N([H])C(=O)N4C([H])([H])C([H])([H])C([H])([H])C([H])(n5nc(-c6c([H])c([H])c(Oc7c([H])c([H])c(F)c([H])c7F)c([H])c6[H])c(C(=O)N([H])[H])c5N([H])[H])C4([H])[H])[N+]3([H])[H])c([H])c([H])c2C1([H])[H]

$$$$
31:0:0
     RDKit          3D

 98106  0  0  1  0  0  0  0  0999 V2000
  -30.0120  -20.3750   21.8090 N   0  0  0  0  0  0  0  0  0  0  0  0
  -30.5530  -20.9400   22.4590 H   0  0  0  0  0  0  0  0  0  0  0  0
  -32.3240  -17.4020   19.8870 C   0  0  0  0  0  3  0  0  0  0  0  0
  -32.0890  -19.6200   20.8610 C   0  0  0  0  0  3  0  0  0  0  0  0
  -30.1750  -18.1090   20.8070 C   0  0  0  0  0  3  0  0  0  0  0  0
  -32.8880  -18.6480   20.2250 C   0  0  0  0  0  0  0  0  0  0  0  0
  -30.9720  -17.1170   20.1790 C   0  0  0  0  0  0  0  0  0  0  0  0
  -30.7330  -19.3670   21.1480 C   0  0  0  0  0  0  0  0  0  0  0  0
  -31.1210  -14.7490   19.4680 C   0  0  0  0  0  0  0  0  0  0  0  0
  -30.9800  -12.3350   18.9570 C   0  0  0  0  0  2  0  0  0  0  0  0
  -29.9810  -12.0720   17.8140 C   0  0  0  0  0  2  0  0  0  0  0  0
  -28.5490  -11.9300   18.3630 C   0  0  0  0  0  2  0  0  0  0  0  0
  -28.1620  -13.0780   19.3340 C   0  0  0  0  0  3  0  0  0  0  0  0
  -29.2690  -13.3000   20.3890 C   0  0  0  0  0  2  0  0  0  0  0  0
  -30.5340  -13.5410   19.6730 N   0  0  0  0  0  0  0  0  0  0  0  0
  -32.1610  -14.8890   18.8180 O   0  0  0  0  0  0  0  0  0  0  0  0
  -30.4420  -15.8160   19.9290 N   0  0  0  0  0  0  0  0  0  0  0  0
  -29.4940  -15.6410   20.2330 H   0  0  0  0  0  0  0  0  0  0  0  0
  -25.8890  -13.7460   20.3400 C   0  0  0  0  0  0  0  0  0  0  0  0
  -24.8380  -12.9990   20.8010 C   0  0  0  0  0  0  0  0  0  0  0  0
  -25.2330  -11.6350   20.6610 C   0  0  0  0  0  0  0  0  0  0  0  0
  -26.8620  -12.8360   19.9550 N   0  0  0  0  0  0  0  0  0  0  0  0
  -26.4770  -11.5590   20.2030 N   0  0  0  0  0  0  0  0  0  0  0  0
  -24.4790  -10.3940   20.8840 C   0  0  0  0  0  0  0  0  0  0  0  0
  -24.8360   -9.4850   21.9050 C   0  0  0  0  0  3  0  0  0  0  0  0
  -24.0850   -8.3080   22.1100 C   0  0  0  0  0  3  0  0  0  0  0  0
  -22.9620   -8.0320   21.2950 C   0  0  0  0  0  0  0  0  0  0  0  0
  -22.6240   -8.9290   20.2660 C   0  0  0  0  0  3  0  0  0  0  0  0
  -23.3770  -10.0970   20.0590 C   0  0  0  0  0  3  0  0  0  0  0  0
  -22.1880   -6.9020   21.4060 O   0  0  0  0  0  0  0  0  0  0  0  0
  -21.8800   -6.3570   22.6270 C   0  0  0  0  0  0  0  0  0  0  0  0
  -21.1940   -7.0910   23.6180 C   0  0  0  0  0  3  0  0  0  0  0  0
  -20.8340   -6.4700   24.8310 C   0  0  0  0  0  3  0  0  0  0  0  0
  -21.1550   -5.1180   25.0540 C   0  0  0  0  0  0  0  0  0  0  0  0
  -21.8340   -4.3840   24.0640 C   0  0  0  0  0  3  0  0  0  0  0  0
  -22.1940   -5.0020   22.8540 C   0  0  0  0  0  0  0  0  0  0  0  0
  -22.8300   -4.2850   21.8970 F   0  0  0  0  0  0  0  0  0  0  0  0
  -20.8040   -4.5190   26.2150 F   0  0  0  0  0  0  0  0  0  0  0  0
  -23.5040  -13.5190   21.2540 C   0  0  0  0  0  0  0  0  0  0  0  0
  -22.8600  -12.8240   22.1850 N   0  0  0  0  0  0  0  0  0  0  0  0
  -23.0460  -14.5740   20.8170 O   0  0  0  0  0  0  0  0  0  0  0  0
  -23.2450  -11.9690   22.5590 H   0  0  0  0  0  0  0  0  0  0  0  0
  -21.9690  -13.1520   22.5300 H   0  0  0  0  0  0  0  0  0  0  0  0
  -26.0930  -15.1160   20.1990 N   0  0  0  0  0  0  0  0  0  0  0  0
  -25.3720  -15.7940   20.4210 H   0  0  0  0  0  0  0  0  0  0  0  0
  -26.9160  -15.5360   19.7860 H   0  0  0  0  0  0  0  0  0  0  0  0
  -34.3560  -18.9120   19.9250 C   0  0  1  0  0  0  0  0  0  0  0  0
  -34.5910  -18.7360   18.6260 F   0  0  0  0  0  0  0  0  0  0  0  0
  -34.7220  -20.1530   20.2510 F   0  0  0  0  0  0  0  0  0  0  0  0
  -35.1090  -18.0560   20.6150 F   0  0  0  0  0  0  0  0  0  0  0  0
  -28.9340  -21.0910   21.1290 C   0  0  0  0  0  2  0  0  0  0  0  0
  -29.1060  -22.6250   21.2780 C   0  0  0  0  0  2  0  0  0  0  0  0
  -28.3800  -23.4030   20.2470 N   0  0  0  0  0  4  0  0  0  0  0  0
  -28.6100  -23.0340   19.3380 H   0  0  0  0  0  0  0  0  0  0  0  0
  -27.3950  -23.2460   20.3960 H   0  0  0  0  0  0  0  0  0  0  0  0
  -28.6470  -24.8700   20.2710 C   0  0  0  0  0  2  0  0  0  0  0  0
  -27.6520  -25.6580   19.3930 C   0  0  0  0  0  2  0  0  0  0  0  0
  -27.8010  -27.0770   19.5720 O   0  0  0  0  0  0  0  0  0  0  0  0
  -24.6000  -32.1020   23.4540 C   0  0  0  0  0  0  0  0  0  0  0  0
  -26.6530  -27.8290   19.7430 C   0  0  0  0  0  0  0  0  0  0  0  0
  -23.1400  -30.8620   21.8920 C   0  0  0  0  0  3  0  0  0  0  0  0
  -24.3360  -29.4000   20.1810 C   0  0  0  0  0  0  0  0  0  0  0  0
  -25.6290  -31.1640   21.3860 C   0  0  0  0  0  2  0  0  0  0  0  0
  -25.5790  -29.8430   20.6480 C   0  0  0  0  0  0  0  0  0  0  0  0
  -26.7390  -29.0650   20.4290 C   0  0  0  0  0  3  0  0  0  0  0  0
  -25.3890  -27.4130   19.2590 C   0  0  0  0  0  3  0  0  0  0  0  0
  -24.2350  -28.1850   19.4850 C   0  0  0  0  0  3  0  0  0  0  0  0
  -23.1420  -30.2850   20.4510 C   0  0  0  0  0  2  0  0  0  0  0  0
  -24.4830  -31.3850   22.3000 N   0  0  0  0  0  0  0  0  0  0  0  0
  -23.6100  -32.3620   24.1510 O   0  0  0  0  0  0  0  0  0  0  0  0
  -22.5820  -29.7880   22.8550 C   0  0  0  0  0  0  0  0  0  0  0  0
  -21.3270  -29.3700   22.6220 N   0  0  0  0  0  0  0  0  0  0  0  0
  -23.2790  -29.3320   23.7650 O   0  0  0  0  0  0  0  0  0  0  0  0
  -20.8190  -29.7990   21.8600 H   0  0  0  0  0  0  0  0  0  0  0  0
  -18.2930  -27.4140   22.7090 C   0  0  0  0  0  0  0  0  0  0  0  0
  -20.6090  -28.3430   23.3760 C   0  0  0  0  0  3  0  0  0  0  0  0
  -21.1560  -26.9330   23.0530 C   0  0  0  0  0  2  0  0  0  0  0  0
  -20.3890  -26.2340   21.9270 C   0  0  0  0  0  2  0  0  0  0  0  0
  -18.9090  -26.0910   22.2920 C   0  0  0  0  0  2  0  0  0  0  0  0
  -19.0930  -28.4770   23.2050 C   0  0  0  0  0  0  0  0  0  0  0  0
  -18.4740  -29.6990   23.5450 C   0  0  0  0  0  3  0  0  0  0  0  0
  -17.0840  -29.8650   23.4040 C   0  0  0  0  0  3  0  0  0  0  0  0
  -16.2940  -28.8040   22.9310 C   0  0  0  0  0  3  0  0  0  0  0  0
  -16.8980  -27.5820   22.5870 C   0  0  0  0  0  3  0  0  0  0  0  0
  -25.9790  -32.6500   23.9400 C   0  0  0  0  0  3  0  0  0  0  0  0
  -25.7860  -34.0540   24.3270 N   0  0  0  0  0  0  0  0  0  0  0  0
  -26.1160  -35.1040   23.5640 C   0  0  0  0  0  0  0  0  0  0  0  0
  -26.6880  -34.9890   22.4770 O   0  0  0  0  0  0  0  0  0  0  0  0
  -25.2700  -34.2210   25.1790 H   0  0  0  0  0  0  0  0  0  0  0  0
  -24.4830  -37.0080   23.3850 C   0  0  0  0  0  1  0  0  0  0  0  0
  -25.7530  -36.5060   24.0910 C   0  0  0  0  0  3  0  0  0  0  0  0
  -27.9980  -37.2270   24.7730 C   0  0  0  0  0  1  0  0  0  0  0  0
  -26.8390  -37.4960   23.9250 N   0  0  0  0  0  0  0  0  0  0  0  0
  -26.5070  -38.4340   24.1320 H   0  0  0  0  0  0  0  0  0  0  0  0
  -26.5890  -31.8210   25.1370 C   0  0  1  0  0  0  0  0  0  0  0  0
  -25.5850  -31.5530   26.2820 C   0  0  0  0  0  1  0  0  0  0  0  0
  -27.1160  -30.4550   24.6390 C   0  0  0  0  0  1  0  0  0  0  0  0
  -27.8010  -32.5730   25.7310 C   0  0  0  0  0  1  0  0  0  0  0  0
  1  2  1  0
  3  7  2  0
  3  6  1  0
  4  8  1  0
  5  8  2  0
  6  4  2  0
  7  5  1  0
  8  1  1  0
  9 15  1  0
  9 17  1  0
 10 15  1  0
 11 12  1  0
 11 10  1  0
 13 12  1  0
 13 22  1  0
 13 14  1  0
 15 14  1  0
 16  9  2  0
 17  7  1  0
 17 18  1  0
 19 20  2  0
 20 39  1  0
 21 20  1  0
 21 24  1  0
 22 23  1  0
 22 19  1  0
 23 21  2  0
 24 25  1  0
 25 26  2  0
 27 30  1  0
 27 26  1  0
 28 27  2  0
 29 28  1  0
 29 24  2  0
 30 31  1  0
 31 36  2  0
 31 32  1  0
 32 33  2  0
 33 34  1  0
 34 38  1  0
 35 34  2  0
 36 35  1  0
 37 36  1  0
 39 40  1  0
 40 43  1  0
 40 42  1  0
 41 39  2  0
 44 19  1  0
 44 45  1  0
 46 44  1  0
 47  6  1  0
 47 49  1  1
 47 50  1  0
 48 47  1  0
 51 52  1  0
 51  1  1  0
 53 56  1  0
 53 55  1  0
 53 52  1  0
 54 53  1  0
 57 58  1  0
 57 56  1  0
 58 60  1  0
 59 70  2  0
 60 65  1  0
 61 69  1  0
 61 71  1  0
 62 68  1  0
 62 64  1  0
 63 69  1  0
 64 63  1  0
 65 64  2  0
 66 67  1  0
 66 60  2  0
 67 62  2  0
 68 61  1  0
 69 59  1  0
 71 73  2  0
 72 71  1  0
 74 72  1  0
 75 80  1  0
 76 72  1  0
 77 76  1  0
 78 79  1  0
 78 77  1  0
 79 75  1  0
 80 76  1  0
 80 81  2  0
 82 81  1  0
 83 82  2  0
 84 75  2  0
 84 83  1  0
 85 59  1  0
 85 86  1  0
 85 95  1  0
 86 89  1  0
 87 91  1  0
 87 86  1  0
 88 87  2  0
 91 90  1  0
 93 91  1  0
 93 94  1  0
 93 92  1  0
 95 98  1  1
 95 96  1  0
 97 95  1  0
M  ISO  4   9 100  17 100  57 101  58 101
M  END
>  <TORSDO>  (32) 
F 23

>  <SCORE>  (32) 
-11.250

>  <name>  (32) 
31

>  <ligand_id>  (32) 
31

>  <original_smiles>  (32) 
[H]c1c([H])c([H])c2c(c1[H])C([H])([H])C([H])([H])C([H])([H])C2([H])N([H])C(=O)C1([H])N(C(=O)C([H])(N([H])C(=O)C([H])(N([H])C([H])([H])[H])C([H])([H])[H])C(C([H])([H])[H])(C([H])([H])[H])C([H])([H])[H])C([H])([H])c2c([H])c(OC([H])([H])C([H])([H])[N+]([H])([H])C([H])([H])C([H])([H])N([H])c3c([H])c(N([H])C(=O)N4C([H])([H])C([H])([H])C([H])([H])C([H])(n5nc(-c6c([H])c([H])c(Oc7c([H])c([H])c(F)c([H])c7F)c([H])c6[H])c(C(=O)N([H])[H])c5N([H])[H])C4([H])[H])c([H])c(C(F)(F)F)c3[H])c([H])c([H])c2C1([H])[H]

>  <smiles>  (32) 
[H]c1c([H])c([H])c2c(c1[H])C([H])([H])C([H])([H])C([H])([H])C2([H])N([H])C(=O)C1([H])N(C(=O)C([H])(N([H])C(=O)C([H])(N([H])C([H])([H])[H])C([H])([H])[H])C(C([H])([H])[H])(C([H])([H])[H])C([H])([H])[H])C([H])([H])c2c([H])c(OC([H])([H])C([H])([H])[N+]([H])([H])C([H])([H])C([H])([H])N([H])c3c([H])c(N([H])C(=O)N4C([H])([H])C([H])([H])C([H])([H])C([H])(n5nc(-c6c([H])c([H])c(Oc7c([H])c([H])c(F)c([H])c7F)c([H])c6[H])c(C(=O)N([H])[H])c5N([H])[H])C4([H])[H])c([H])c(C(F)(F)F)c3[H])c([H])c([H])c2C1([H])[H]

$$$$
32:0:0
     RDKit          3D

 95103  0  0  1  0  0  0  0  0999 V2000
  -30.5000  -22.1300   19.1530 C   0  0  0  0  0  2  0  0  0  0  0  0
  -29.8430  -19.9140   20.0040 C   0  0  0  0  0  0  0  0  0  0  0  0
  -29.9920  -20.7720   18.9900 N   0  0  0  0  0  0  0  0  0  0  0  0
  -30.1350  -20.2220   21.1600 O   0  0  0  0  0  0  0  0  0  0  0  0
  -29.7300  -20.4690   18.0620 H   0  0  0  0  0  0  0  0  0  0  0  0
  -28.3600  -17.9680   20.7670 C   0  0  0  0  0  2  0  0  0  0  0  0
  -29.3040  -17.3220   21.7870 C   0  0  0  0  0  2  0  0  0  0  0  0
  -30.3830  -17.4580   19.5790 C   0  0  0  0  0  2  0  0  0  0  0  0
  -29.2770  -18.5240   19.6670 C   0  0  0  0  0  3  0  0  0  0  0  0
  -30.4410  -16.7220   20.9450 C   0  0  0  0  0  3  0  0  0  0  0  0
  -30.8870  -14.3700   20.1630 C   0  0  0  0  0  0  0  0  0  0  0  0
  -30.5290  -12.2970   18.8950 C   0  0  0  0  0  2  0  0  0  0  0  0
  -29.5300  -12.5920   17.7590 C   0  0  0  0  0  2  0  0  0  0  0  0
  -28.0710  -12.4590   18.2440 C   0  0  0  0  0  2  0  0  0  0  0  0
  -27.8090  -13.2090   19.5790 C   0  0  0  0  0  3  0  0  0  0  0  0
  -28.9100  -12.8770   20.6090 C   0  0  0  0  0  2  0  0  0  0  0  0
  -30.2160  -13.2020   20.0040 N   0  0  0  0  0  0  0  0  0  0  0  0
  -31.9690  -14.6280   19.6320 O   0  0  0  0  0  0  0  0  0  0  0  0
  -30.1810  -15.2950   20.8240 N   0  0  0  0  0  0  0  0  0  0  0  0
  -29.3030  -14.9700   21.1990 H   0  0  0  0  0  0  0  0  0  0  0  0
  -25.4300  -13.8070   20.3660 C   0  0  0  0  0  0  0  0  0  0  0  0
  -24.3800  -13.0300   20.7750 C   0  0  0  0  0  0  0  0  0  0  0  0
  -24.8460  -11.6800   20.7260 C   0  0  0  0  0  0  0  0  0  0  0  0
  -26.4730  -12.9300   20.1000 N   0  0  0  0  0  0  0  0  0  0  0  0
  -26.1240  -11.6460   20.3690 N   0  0  0  0  0  0  0  0  0  0  0  0
  -24.1330  -10.4150   20.9440 C   0  0  0  0  0  0  0  0  0  0  0  0
  -24.5740   -9.4770   21.9030 C   0  0  0  0  0  3  0  0  0  0  0  0
  -23.8640   -8.2760   22.1090 C   0  0  0  0  0  3  0  0  0  0  0  0
  -22.6980   -8.0040   21.3570 C   0  0  0  0  0  0  0  0  0  0  0  0
  -22.2750   -8.9280   20.3860 C   0  0  0  0  0  3  0  0  0  0  0  0
  -22.9860  -10.1220   20.1780 C   0  0  0  0  0  3  0  0  0  0  0  0
  -21.9620   -6.8500   21.4680 O   0  0  0  0  0  0  0  0  0  0  0  0
  -21.8690   -6.1640   22.6520 C   0  0  0  0  0  0  0  0  0  0  0  0
  -21.3760   -6.7700   23.8290 C   0  0  0  0  0  3  0  0  0  0  0  0
  -21.2360   -6.0100   25.0070 C   0  0  0  0  0  3  0  0  0  0  0  0
  -21.5780   -4.6440   25.0080 C   0  0  0  0  0  0  0  0  0  0  0  0
  -22.0630   -4.0370   23.8360 C   0  0  0  0  0  3  0  0  0  0  0  0
  -22.2060   -4.7950   22.6610 C   0  0  0  0  0  0  0  0  0  0  0  0
  -22.6530   -4.2010   21.5280 F   0  0  0  0  0  0  0  0  0  0  0  0
  -21.4340   -3.9110   26.1370 F   0  0  0  0  0  0  0  0  0  0  0  0
  -22.9900  -13.4990   21.0970 C   0  0  0  0  0  0  0  0  0  0  0  0
  -22.3050  -12.8100   22.0030 N   0  0  0  0  0  0  0  0  0  0  0  0
  -22.5210  -14.5140   20.5830 O   0  0  0  0  0  0  0  0  0  0  0  0
  -22.7000  -11.9920   22.4440 H   0  0  0  0  0  0  0  0  0  0  0  0
  -21.3730  -13.0990   22.2560 H   0  0  0  0  0  0  0  0  0  0  0  0
  -25.5780  -15.1780   20.1820 N   0  0  0  0  0  0  0  0  0  0  0  0
  -24.8060  -15.8220   20.3170 H   0  0  0  0  0  0  0  0  0  0  0  0
  -26.4070  -15.6210   19.8100 H   0  0  0  0  0  0  0  0  0  0  0  0
  -30.3310  -22.9500   17.8600 C   0  0  0  0  0  2  0  0  0  0  0  0
  -28.9700  -24.9020   18.5710 C   0  0  0  0  0  0  0  0  0  0  0  0
  -30.1200  -24.3660   18.1430 N   0  0  0  0  0  0  0  0  0  0  0  0
  -27.9750  -24.2150   18.8130 O   0  0  0  0  0  0  0  0  0  0  0  0
  -30.8980  -24.9930   17.9830 H   0  0  0  0  0  0  0  0  0  0  0  0
  -28.9280  -26.4260   18.7500 C   0  0  0  0  0  2  0  0  0  0  0  0
  -28.4520  -26.7710   20.0560 O   0  0  0  0  0  0  0  0  0  0  0  0
  -24.6110  -31.8540   23.2290 C   0  0  0  0  0  0  0  0  0  0  0  0
  -27.2640  -27.4590   20.0940 C   0  0  0  0  0  0  0  0  0  0  0  0
  -23.4030  -30.4630   21.5740 C   0  0  0  0  0  3  0  0  0  0  0  0
  -24.8570  -28.9310   20.1440 C   0  0  0  0  0  0  0  0  0  0  0  0
  -25.9270  -30.8210   21.3870 C   0  0  0  0  0  2  0  0  0  0  0  0
  -26.0100  -29.4530   20.7430 C   0  0  0  0  0  0  0  0  0  0  0  0
  -27.2120  -28.7150   20.7320 C   0  0  0  0  0  3  0  0  0  0  0  0
  -26.0920  -26.9350   19.5070 C   0  0  0  0  0  3  0  0  0  0  0  0
  -24.8890  -27.6680   19.5310 C   0  0  0  0  0  3  0  0  0  0  0  0
  -23.6110  -29.7870   20.1930 C   0  0  0  0  0  2  0  0  0  0  0  0
  -24.6640  -31.0620   22.1220 N   0  0  0  0  0  0  0  0  0  0  0  0
  -23.5310  -32.1250   23.7700 O   0  0  0  0  0  0  0  0  0  0  0  0
  -22.7490  -29.4370   22.5280 C   0  0  0  0  0  0  0  0  0  0  0  0
  -21.4240  -29.2670   22.4050 N   0  0  0  0  0  0  0  0  0  0  0  0
  -23.4330  -28.7990   23.3330 O   0  0  0  0  0  0  0  0  0  0  0  0
  -20.9350  -29.8350   21.7270 H   0  0  0  0  0  0  0  0  0  0  0  0
  -18.0410  -28.1090   22.9130 C   0  0  0  0  0  0  0  0  0  0  0  0
  -20.6040  -28.3280   23.1680 C   0  0  0  0  0  3  0  0  0  0  0  0
  -20.6820  -26.9050   22.5670 C   0  0  0  0  0  2  0  0  0  0  0  0
  -19.5670  -26.6140   21.5570 C   0  0  0  0  0  2  0  0  0  0  0  0
  -18.1930  -26.7680   22.2160 C   0  0  0  0  0  2  0  0  0  0  0  0
  -19.1740  -28.8490   23.3460 C   0  0  0  0  0  0  0  0  0  0  0  0
  -18.9780  -30.1070   23.9570 C   0  0  0  0  0  3  0  0  0  0  0  0
  -17.6820  -30.6240   24.1410 C   0  0  0  0  0  3  0  0  0  0  0  0
  -16.5650  -29.8820   23.7240 C   0  0  0  0  0  3  0  0  0  0  0  0
  -16.7440  -28.6260   23.1170 C   0  0  0  0  0  3  0  0  0  0  0  0
  -25.8990  -32.4750   23.8540 C   0  0  0  0  0  3  0  0  0  0  0  0
  -25.5940  -33.8700   24.1960 N   0  0  0  0  0  0  0  0  0  0  0  0
  -25.9300  -34.9280   23.4450 C   0  0  0  0  0  0  0  0  0  0  0  0
  -26.5990  -34.8320   22.4130 O   0  0  0  0  0  0  0  0  0  0  0  0
  -25.0030  -34.0210   25.0010 H   0  0  0  0  0  0  0  0  0  0  0  0
  -24.2070  -36.7240   23.1020 C   0  0  0  0  0  1  0  0  0  0  0  0
  -25.4460  -36.3120   23.9130 C   0  0  0  0  0  3  0  0  0  0  0  0
  -27.5780  -37.1860   24.7600 C   0  0  0  0  0  1  0  0  0  0  0  0
  -26.4810  -37.3630   23.8110 N   0  0  0  0  0  0  0  0  0  0  0  0
  -26.0780  -38.2840   23.9630 H   0  0  0  0  0  0  0  0  0  0  0  0
  -26.4190  -31.6900   25.1190 C   0  0  1  0  0  0  0  0  0  0  0  0
  -25.3280  -31.4400   26.1860 C   0  0  0  0  0  1  0  0  0  0  0  0
  -27.0020  -30.3180   24.7090 C   0  0  0  0  0  1  0  0  0  0  0  0
  -27.5700  -32.4780   25.7880 C   0  0  0  0  0  1  0  0  0  0  0  0
  2  4  2  0
  3  1  1  0
  3  2  1  0
  5  3  1  0
  6  7  1  0
  8  9  1  0
  8 10  1  0
  9  2  1  0
  9  6  1  0
 10 19  1  0
 10  7  1  0
 11 19  1  0
 12 17  1  0
 13 14  1  0
 13 12  1  0
 15 14  1  0
 15 24  1  0
 15 16  1  0
 17 11  1  0
 17 16  1  0
 18 11  2  0
 19 20  1  0
 21 22  2  0
 22 41  1  0
 23 22  1  0
 23 26  1  0
 24 21  1  0
 24 25  1  0
 25 23  2  0
 26 27  1  0
 27 28  2  0
 29 32  1  0
 29 28  1  0
 30 29  2  0
 31 30  1  0
 31 26  2  0
 32 33  1  0
 33 38  2  0
 33 34  1  0
 34 35  2  0
 35 36  1  0
 36 40  1  0
 37 36  2  0
 38 37  1  0
 39 38  1  0
 41 42  1  0
 42 45  1  0
 42 44  1  0
 43 41  2  0
 46 47  1  0
 46 21  1  0
 48 46  1  0
 49 51  1  0
 49  1  1  0
 50 54  1  0
 50 52  2  0
 51 50  1  0
 53 51  1  0
 54 55  1  0
 55 57  1  0
 56 67  2  0
 57 62  1  0
 58 66  1  0
 58 68  1  0
 59 65  1  0
 59 61  1  0
 60 66  1  0
 61 60  1  0
 62 61  2  0
 63 64  1  0
 63 57  2  0
 64 59  2  0
 65 58  1  0
 66 56  1  0
 68 70  2  0
 69 68  1  0
 71 69  1  0
 72 81  2  0
 72 77  1  0
 73 69  1  0
 73 77  1  0
 74 73  1  0
 75 76  1  0
 75 74  1  0
 76 72  1  0
 77 78  2  0
 78 79  1  0
 80 79  2  0
 81 80  1  0
 82 56  1  0
 82 83  1  0
 82 92  1  0
 83 86  1  0
 84 88  1  0
 84 83  1  0
 85 84  2  0
 88 87  1  0
 90 88  1  0
 90 91  1  0
 90 89  1  0
 92 95  1  1
 92 93  1  0
 94 92  1  0
M  ISO  4  11 100  19 100  54 101  55 101
M  END
>  <TORSDO>  (33) 
F 21

>  <SCORE>  (33) 
-12.609

>  <name>  (33) 
32

>  <ligand_id>  (33) 
32

>  <original_smiles>  (33) 
[H]c1c([H])c([H])c2c(c1[H])C([H])([H])C([H])([H])C([H])([H])C2([H])N([H])C(=O)C1([H])N(C(=O)C([H])(N([H])C(=O)C([H])(N([H])C([H])([H])[H])C([H])([H])[H])C(C([H])([H])[H])(C([H])([H])[H])C([H])([H])[H])C([H])([H])c2c([H])c(OC([H])([H])C(=O)N([H])C([H])([H])C([H])([H])N([H])C(=O)C3([H])C([H])([H])C([H])([H])C([H])(N([H])C(=O)N4C([H])([H])C([H])([H])C([H])([H])C([H])(n5nc(-c6c([H])c([H])c(Oc7c([H])c([H])c(F)c([H])c7F)c([H])c6[H])c(C(=O)N([H])[H])c5N([H])[H])C4([H])[H])C3([H])[H])c([H])c([H])c2C1([H])[H]

>  <smiles>  (33) 
[H]c1c([H])c([H])c2c(c1[H])C([H])([H])C([H])([H])C([H])([H])C2([H])N([H])C(=O)C1([H])N(C(=O)C([H])(N([H])C(=O)C([H])(N([H])C([H])([H])[H])C([H])([H])[H])C(C([H])([H])[H])(C([H])([H])[H])C([H])([H])[H])C([H])([H])c2c([H])c(OC([H])([H])C(=O)N([H])C([H])([H])C([H])([H])N([H])C(=O)C3([H])C([H])([H])C([H])([H])C([H])(N([H])C(=O)N4C([H])([H])C([H])([H])C([H])([H])C([H])(n5nc(-c6c([H])c([H])c(Oc7c([H])c([H])c(F)c([H])c7F)c([H])c6[H])c(C(=O)N([H])[H])c5N([H])[H])C4([H])[H])C3([H])[H])c([H])c([H])c2C1([H])[H]

$$$$
33:0:0
     RDKit          3D

 94102  0  0  1  0  0  0  0  0999 V2000
  -29.8260  -22.5980   21.5230 C   0  0  0  0  0  0  0  0  0  0  0  0
  -29.8650  -23.8540   21.9820 N   0  0  0  0  0  0  0  0  0  0  0  0
  -29.7920  -22.3230   20.3210 O   0  0  0  0  0  0  0  0  0  0  0  0
  -29.9090  -23.9840   22.9850 H   0  0  0  0  0  0  0  0  0  0  0  0
  -29.8210  -21.4710   22.5550 C   0  0  0  0  0  2  0  0  0  0  0  0
  -30.9480  -17.8420   22.6530 C   0  0  0  0  0  2  0  0  0  0  0  0
  -32.5160  -19.1620   21.1340 C   0  0  0  0  0  2  0  0  0  0  0  0
  -29.8980  -18.9730   22.5100 C   0  0  0  0  0  2  0  0  0  0  0  0
  -31.9370  -20.3040   21.9870 C   0  0  0  0  0  2  0  0  0  0  0  0
  -31.9410  -17.7610   21.4730 C   0  0  0  0  0  3  0  0  0  0  0  0
  -30.4540  -20.2560   21.9890 N   0  0  2  0  0  4  0  0  0  0  0  0
  -30.1760  -20.3210   21.0180 H   0  0  0  0  0  0  0  0  0  0  0  0
  -31.3240  -17.0760   20.2320 C   0  0  0  0  0  2  0  0  0  0  0  0
  -31.5160  -14.6180   19.9910 C   0  0  0  0  0  0  0  0  0  0  0  0
  -31.0720  -12.4290   18.9690 C   0  0  0  0  0  2  0  0  0  0  0  0
  -30.1020  -12.6070   17.7840 C   0  0  0  0  0  2  0  0  0  0  0  0
  -28.6390  -12.5690   18.2640 C   0  0  0  0  0  2  0  0  0  0  0  0
  -28.3790  -13.4900   19.4850 C   0  0  0  0  0  3  0  0  0  0  0  0
  -29.4560  -13.2830   20.5740 C   0  0  0  0  0  2  0  0  0  0  0  0
  -30.7770  -13.4800   19.9540 N   0  0  0  0  0  0  0  0  0  0  0  0
  -32.6220  -14.7200   19.4550 O   0  0  0  0  0  0  0  0  0  0  0  0
  -30.8940  -15.6980   20.4900 N   0  0  0  0  0  0  0  0  0  0  0  0
  -29.9810  -15.5540   20.8960 H   0  0  0  0  0  0  0  0  0  0  0  0
  -26.0660  -14.2500   20.3260 C   0  0  0  0  0  0  0  0  0  0  0  0
  -24.9580  -13.5450   20.7140 C   0  0  0  0  0  0  0  0  0  0  0  0
  -25.3100  -12.1650   20.6060 C   0  0  0  0  0  0  0  0  0  0  0  0
  -27.0290  -13.3010   20.0140 N   0  0  0  0  0  0  0  0  0  0  0  0
  -26.5780  -12.0410   20.2380 N   0  0  0  0  0  0  0  0  0  0  0  0
  -24.4970  -10.9540   20.7790 C   0  0  0  0  0  0  0  0  0  0  0  0
  -24.8590   -9.9460   21.6990 C   0  0  0  0  0  3  0  0  0  0  0  0
  -24.0520   -8.8000   21.8600 C   0  0  0  0  0  3  0  0  0  0  0  0
  -22.8690   -8.6520   21.1000 C   0  0  0  0  0  0  0  0  0  0  0  0
  -22.5240   -9.6470   20.1680 C   0  0  0  0  0  3  0  0  0  0  0  0
  -23.3310  -10.7860   20.0050 C   0  0  0  0  0  3  0  0  0  0  0  0
  -22.0370   -7.5610   21.1700 O   0  0  0  0  0  0  0  0  0  0  0  0
  -21.8700   -6.8590   22.3370 C   0  0  0  0  0  0  0  0  0  0  0  0
  -21.4100   -7.4770   23.5210 C   0  0  0  0  0  3  0  0  0  0  0  0
  -21.1860   -6.7040   24.6770 C   0  0  0  0  0  3  0  0  0  0  0  0
  -21.4100   -5.3140   24.6510 C   0  0  0  0  0  0  0  0  0  0  0  0
  -21.8640   -4.6960   23.4720 C   0  0  0  0  0  3  0  0  0  0  0  0
  -22.0890   -5.4660   22.3180 C   0  0  0  0  0  0  0  0  0  0  0  0
  -22.5050   -4.8620   21.1790 F   0  0  0  0  0  0  0  0  0  0  0  0
  -21.1880   -4.5700   25.7600 F   0  0  0  0  0  0  0  0  0  0  0  0
  -23.6150  -14.1140   21.0710 C   0  0  0  0  0  0  0  0  0  0  0  0
  -22.8820  -13.4470   21.9550 N   0  0  0  0  0  0  0  0  0  0  0  0
  -23.2290  -15.1840   20.6020 O   0  0  0  0  0  0  0  0  0  0  0  0
  -23.2080  -12.5810   22.3570 H   0  0  0  0  0  0  0  0  0  0  0  0
  -21.9810  -13.8080   22.2340 H   0  0  0  0  0  0  0  0  0  0  0  0
  -26.3330  -15.6090   20.1950 N   0  0  0  0  0  0  0  0  0  0  0  0
  -25.6280  -16.3190   20.3570 H   0  0  0  0  0  0  0  0  0  0  0  0
  -27.1980  -15.9870   19.8270 H   0  0  0  0  0  0  0  0  0  0  0  0
  -29.8700  -25.0690   21.1680 C   0  0  0  0  0  2  0  0  0  0  0  0
  -28.4510  -25.5090   20.7650 C   0  0  0  0  0  2  0  0  0  0  0  0
  -28.5080  -26.8290   20.2250 O   0  0  0  0  0  0  0  0  0  0  0  0
  -24.6290  -31.9530   23.2340 C   0  0  0  0  0  0  0  0  0  0  0  0
  -27.3170  -27.5160   20.2170 C   0  0  0  0  0  0  0  0  0  0  0  0
  -23.4310  -30.5150   21.6140 C   0  0  0  0  0  3  0  0  0  0  0  0
  -24.8990  -28.9720   20.2110 C   0  0  0  0  0  0  0  0  0  0  0  0
  -25.9480  -30.9080   21.3990 C   0  0  0  0  0  2  0  0  0  0  0  0
  -26.0500  -29.5290   20.7810 C   0  0  0  0  0  0  0  0  0  0  0  0
  -27.2650  -28.8100   20.7760 C   0  0  0  0  0  3  0  0  0  0  0  0
  -26.1490  -26.9610   19.6500 C   0  0  0  0  0  3  0  0  0  0  0  0
  -24.9420  -27.6860   19.6430 C   0  0  0  0  0  3  0  0  0  0  0  0
  -23.6460  -29.8170   20.2430 C   0  0  0  0  0  2  0  0  0  0  0  0
  -24.6870  -31.1400   22.1410 N   0  0  0  0  0  0  0  0  0  0  0  0
  -23.5460  -32.2210   23.7730 O   0  0  0  0  0  0  0  0  0  0  0  0
  -22.7930  -29.5000   22.5900 C   0  0  0  0  0  0  0  0  0  0  0  0
  -21.4800  -29.2700   22.4370 N   0  0  0  0  0  0  0  0  0  0  0  0
  -23.4790  -28.9240   23.4400 O   0  0  0  0  0  0  0  0  0  0  0  0
  -20.9860  -29.7910   21.7260 H   0  0  0  0  0  0  0  0  0  0  0  0
  -18.1560  -27.9130   22.8340 C   0  0  0  0  0  0  0  0  0  0  0  0
  -20.6780  -28.3290   23.2180 C   0  0  0  0  0  3  0  0  0  0  0  0
  -20.8880  -26.8780   22.7290 C   0  0  0  0  0  2  0  0  0  0  0  0
  -19.8610  -26.4400   21.6800 C   0  0  0  0  0  2  0  0  0  0  0  0
  -18.4410  -26.5420   22.2440 C   0  0  0  0  0  2  0  0  0  0  0  0
  -19.2070  -28.7580   23.2770 C   0  0  0  0  0  0  0  0  0  0  0  0
  -18.8900  -30.0360   23.7850 C   0  0  0  0  0  3  0  0  0  0  0  0
  -17.5540  -30.4740   23.8530 C   0  0  0  0  0  3  0  0  0  0  0  0
  -16.5160  -29.6260   23.4290 C   0  0  0  0  0  3  0  0  0  0  0  0
  -16.8170  -28.3480   22.9250 C   0  0  0  0  0  3  0  0  0  0  0  0
  -25.9110  -32.6030   23.8430 C   0  0  0  0  0  3  0  0  0  0  0  0
  -25.5870  -33.9980   24.1660 N   0  0  0  0  0  0  0  0  0  0  0  0
  -25.9330  -35.0510   23.4110 C   0  0  0  0  0  0  0  0  0  0  0  0
  -26.6280  -34.9500   22.3970 O   0  0  0  0  0  0  0  0  0  0  0  0
  -24.9730  -34.1530   24.9530 H   0  0  0  0  0  0  0  0  0  0  0  0
  -24.2110  -36.8350   23.0040 C   0  0  0  0  0  1  0  0  0  0  0  0
  -25.4270  -36.4360   23.8550 C   0  0  0  0  0  3  0  0  0  0  0  0
  -27.5330  -37.3220   24.7520 C   0  0  0  0  0  1  0  0  0  0  0  0
  -26.4600  -37.4920   23.7760 N   0  0  0  0  0  0  0  0  0  0  0  0
  -26.0450  -38.4100   23.9180 H   0  0  0  0  0  0  0  0  0  0  0  0
  -26.4510  -31.8440   25.1170 C   0  0  1  0  0  0  0  0  0  0  0  0
  -25.3670  -31.5830   26.1900 C   0  0  0  0  0  1  0  0  0  0  0  0
  -27.0610  -30.4800   24.7190 C   0  0  0  0  0  1  0  0  0  0  0  0
  -27.5900  -32.6620   25.7720 C   0  0  0  0  0  1  0  0  0  0  0  0
  1  2  1  0
  1  5  1  0
  2  4  1  0
  3  1  2  0
  7 10  1  0
  7  9  1  0
  8  6  1  0
  9 11  1  0
 10 13  1  0
 10  6  1  0
 11  8  1  0
 11  5  1  0
 11 12  1  6
 13 22  1  0
 14 22  1  0
 15 20  1  0
 16 17  1  0
 16 15  1  0
 18 17  1  0
 18 27  1  0
 18 19  1  0
 20 14  1  0
 20 19  1  0
 21 14  2  0
 22 23  1  0
 24 25  2  0
 25 44  1  0
 26 25  1  0
 26 29  1  0
 27 28  1  0
 27 24  1  0
 28 26  2  0
 29 30  1  0
 30 31  2  0
 32 35  1  0
 32 31  1  0
 33 32  2  0
 34 33  1  0
 34 29  2  0
 35 36  1  0
 36 37  1  0
 37 38  2  0
 39 38  1  0
 39 43  1  0
 40 39  2  0
 41 36  2  0
 41 40  1  0
 42 41  1  0
 44 45  1  0
 45 48  1  0
 45 47  1  0
 46 44  2  0
 49 24  1  0
 49 50  1  0
 51 49  1  0
 52  2  1  0
 53 52  1  0
 54 53  1  0
 55 66  2  0
 56 54  1  0
 56 61  1  0
 57 65  1  0
 57 67  1  0
 58 64  1  0
 58 60  1  0
 59 65  1  0
 60 59  1  0
 61 60  2  0
 62 56  2  0
 63 62  1  0
 63 58  2  0
 64 57  1  0
 65 55  1  0
 67 69  2  0
 68 67  1  0
 70 68  1  0
 71 80  2  0
 71 76  1  0
 72 68  1  0
 72 76  1  0
 73 72  1  0
 74 75  1  0
 74 73  1  0
 75 71  1  0
 76 77  2  0
 77 78  1  0
 79 78  2  0
 80 79  1  0
 81 55  1  0
 81 82  1  0
 81 91  1  0
 82 85  1  0
 83 87  1  0
 83 82  1  0
 84 83  2  0
 87 86  1  0
 89 87  1  0
 89 90  1  0
 89 88  1  0
 91 94  1  1
 91 92  1  0
 93 91  1  0
M  ISO  4  14 100  22 100  53 101  54 101
M  END
>  <TORSDO>  (34) 
F 21

>  <SCORE>  (34) 
-11.639

>  <name>  (34) 
33

>  <ligand_id>  (34) 
33

>  <original_smiles>  (34) 
[H]c1c([H])c([H])c2c(c1[H])C([H])([H])C([H])([H])C([H])([H])C2([H])N([H])C(=O)C1([H])N(C(=O)C([H])(N([H])C(=O)C([H])(N([H])C([H])([H])[H])C([H])([H])[H])C(C([H])([H])[H])(C([H])([H])[H])C([H])([H])[H])C([H])([H])c2c([H])c(OC([H])([H])C([H])([H])N([H])C(=O)C([H])([H])[N+]3([H])C([H])([H])C([H])([H])C([H])(C([H])([H])N([H])C(=O)N4C([H])([H])C([H])([H])C([H])([H])C([H])(n5nc(-c6c([H])c([H])c(Oc7c([H])c([H])c(F)c([H])c7F)c([H])c6[H])c(C(=O)N([H])[H])c5N([H])[H])C4([H])[H])C([H])([H])C3([H])[H])c([H])c([H])c2C1([H])[H]

>  <smiles>  (34) 
[H]c1c([H])c([H])c2c(c1[H])C([H])([H])C([H])([H])C([H])([H])C2([H])N([H])C(=O)C1([H])N(C(=O)C([H])(N([H])C(=O)C([H])(N([H])C([H])([H])[H])C([H])([H])[H])C(C([H])([H])[H])(C([H])([H])[H])C([H])([H])[H])C([H])([H])c2c([H])c(OC([H])([H])C([H])([H])N([H])C(=O)C([H])([H])[N+]3([H])C([H])([H])C([H])([H])C([H])(C([H])([H])N([H])C(=O)N4C([H])([H])C([H])([H])C([H])([H])C([H])(n5nc(-c6c([H])c([H])c(Oc7c([H])c([H])c(F)c([H])c7F)c([H])c6[H])c(C(=O)N([H])[H])c5N([H])[H])C4([H])[H])C([H])([H])C3([H])[H])c([H])c([H])c2C1([H])[H]

$$$$
34:0:0
     RDKit          3D

 94102  0  0  1  0  0  0  0  0999 V2000
  -29.9430  -18.3010   21.4000 C   0  0  0  0  0  0  0  0  0  0  0  0
  -29.1580  -19.6700   21.2220 C   0  0  0  0  0  2  0  0  0  0  0  0
  -29.8940  -17.9810   18.8550 C   0  0  0  0  0  2  0  0  0  0  0  0
  -30.5530  -19.3770   18.5600 C   0  0  0  0  0  2  0  0  0  0  0  0
  -30.3230  -17.3430   20.2040 C   0  0  0  0  0  3  0  0  0  0  0  0
  -29.7130  -20.9420   20.4220 C   0  0  0  0  0  3  0  0  0  0  0  0
  -29.7860  -20.6030   18.9650 N   0  0  0  0  0  4  0  0  0  0  0  0
  -30.2160  -17.9500   22.5500 O   0  0  0  0  0  0  0  0  0  0  0  0
  -28.8650  -20.5550   18.5610 H   0  0  0  0  0  0  0  0  0  0  0  0
  -30.2500  -21.3780   18.5150 H   0  0  0  0  0  0  0  0  0  0  0  0
  -30.7090  -14.7320   20.0020 C   0  0  0  0  0  0  0  0  0  0  0  0
  -30.4210  -12.4960   18.9250 C   0  0  0  0  0  2  0  0  0  0  0  0
  -29.4050  -12.6140   17.7660 C   0  0  0  0  0  2  0  0  0  0  0  0
  -27.9620  -12.4500   18.2850 C   0  0  0  0  0  2  0  0  0  0  0  0
  -27.6820  -13.2910   19.5590 C   0  0  0  0  0  3  0  0  0  0  0  0
  -28.8100  -13.1470   20.6030 C   0  0  0  0  0  2  0  0  0  0  0  0
  -30.0680  -13.5150   19.9410 N   0  0  0  0  0  0  0  0  0  0  0  0
  -31.8540  -14.8480   19.5560 O   0  0  0  0  0  0  0  0  0  0  0  0
  -29.9800  -15.8510   20.3610 N   0  0  0  0  0  0  0  0  0  0  0  0
  -29.0620  -15.6590   20.7330 H   0  0  0  0  0  0  0  0  0  0  0  0
  -25.3550  -13.8790   20.4660 C   0  0  0  0  0  0  0  0  0  0  0  0
  -24.3080  -13.1010   20.8810 C   0  0  0  0  0  0  0  0  0  0  0  0
  -24.7540  -11.7490   20.7690 C   0  0  0  0  0  0  0  0  0  0  0  0
  -26.3690  -12.9990   20.1270 N   0  0  0  0  0  0  0  0  0  0  0  0
  -26.0170  -11.7110   20.3680 N   0  0  0  0  0  0  0  0  0  0  0  0
  -24.0270  -10.4860   20.9600 C   0  0  0  0  0  0  0  0  0  0  0  0
  -24.4770   -9.5080   21.8760 C   0  0  0  0  0  3  0  0  0  0  0  0
  -23.7540   -8.3090   22.0550 C   0  0  0  0  0  3  0  0  0  0  0  0
  -22.5660   -8.0800   21.3220 C   0  0  0  0  0  0  0  0  0  0  0  0
  -22.1340   -9.0460   20.3980 C   0  0  0  0  0  3  0  0  0  0  0  0
  -22.8580  -10.2360   20.2150 C   0  0  0  0  0  3  0  0  0  0  0  0
  -21.8130   -6.9340   21.4130 O   0  0  0  0  0  0  0  0  0  0  0  0
  -21.7440   -6.2120   22.5770 C   0  0  0  0  0  0  0  0  0  0  0  0
  -21.2520   -6.7720   23.7750 C   0  0  0  0  0  3  0  0  0  0  0  0
  -21.1290   -5.9730   24.9300 C   0  0  0  0  0  3  0  0  0  0  0  0
  -21.4940   -4.6150   24.8880 C   0  0  0  0  0  0  0  0  0  0  0  0
  -21.9790   -4.0510   23.6950 C   0  0  0  0  0  3  0  0  0  0  0  0
  -22.1030   -4.8480   22.5420 C   0  0  0  0  0  0  0  0  0  0  0  0
  -22.5510   -4.2950   21.3890 F   0  0  0  0  0  0  0  0  0  0  0  0
  -21.3700   -3.8460   25.9960 F   0  0  0  0  0  0  0  0  0  0  0  0
  -22.9360  -13.5800   21.2570 C   0  0  0  0  0  0  0  0  0  0  0  0
  -22.2530  -12.8540   22.1370 N   0  0  0  0  0  0  0  0  0  0  0  0
  -22.4800  -14.6310   20.8070 O   0  0  0  0  0  0  0  0  0  0  0  0
  -22.6390  -12.0040   22.5220 H   0  0  0  0  0  0  0  0  0  0  0  0
  -21.3360  -13.1530   22.4360 H   0  0  0  0  0  0  0  0  0  0  0  0
  -25.5230  -15.2530   20.3190 N   0  0  0  0  0  0  0  0  0  0  0  0
  -24.7580  -15.9020   20.4610 H   0  0  0  0  0  0  0  0  0  0  0  0
  -26.3190  -15.6760   19.8600 H   0  0  0  0  0  0  0  0  0  0  0  0
  -28.8560  -22.3050   20.7280 C   0  0  0  0  0  3  0  0  0  0  0  0
  -28.6810  -22.3410   22.0520 F   0  0  0  0  0  0  0  0  0  0  0  0
  -29.2490  -23.7980   20.2950 C   0  0  0  0  0  0  0  0  0  0  0  0
  -30.3410  -24.0370   19.7660 O   0  0  0  0  0  0  0  0  0  0  0  0
  -28.1810  -24.9630   20.5530 C   0  0  0  0  0  2  0  0  0  0  0  0
  -28.5010  -26.3980   20.2320 O   0  0  0  0  0  0  0  0  0  0  0  0
  -24.6270  -31.8100   23.1680 C   0  0  0  0  0  0  0  0  0  0  0  0
  -27.3950  -27.2780   20.1720 C   0  0  0  0  0  0  0  0  0  0  0  0
  -23.4880  -30.3970   21.4920 C   0  0  0  0  0  3  0  0  0  0  0  0
  -25.0080  -28.8760   20.0980 C   0  0  0  0  0  0  0  0  0  0  0  0
  -26.0290  -30.7480   21.3830 C   0  0  0  0  0  2  0  0  0  0  0  0
  -26.1510  -29.3680   20.7400 C   0  0  0  0  0  0  0  0  0  0  0  0
  -27.3470  -28.5790   20.7730 C   0  0  0  0  0  3  0  0  0  0  0  0
  -26.2340  -26.8630   19.4800 C   0  0  0  0  0  3  0  0  0  0  0  0
  -25.0560  -27.6320   19.4540 C   0  0  0  0  0  3  0  0  0  0  0  0
  -23.7540  -29.7280   20.1160 C   0  0  0  0  0  2  0  0  0  0  0  0
  -24.7300  -31.0040   22.0690 N   0  0  0  0  0  0  0  0  0  0  0  0
  -23.5270  -32.0640   23.6790 O   0  0  0  0  0  0  0  0  0  0  0  0
  -22.8150  -29.3680   22.4330 C   0  0  0  0  0  0  0  0  0  0  0  0
  -21.4950  -29.1740   22.2800 N   0  0  0  0  0  0  0  0  0  0  0  0
  -23.4830  -28.7470   23.2630 O   0  0  0  0  0  0  0  0  0  0  0  0
  -21.0100  -29.7290   21.5890 H   0  0  0  0  0  0  0  0  0  0  0  0
  -18.1180  -27.9670   22.7350 C   0  0  0  0  0  0  0  0  0  0  0  0
  -20.6720  -28.2230   23.0300 C   0  0  0  0  0  3  0  0  0  0  0  0
  -20.7830  -26.8010   22.4350 C   0  0  0  0  0  2  0  0  0  0  0  0
  -19.6910  -26.4920   21.4060 C   0  0  0  0  0  2  0  0  0  0  0  0
  -18.3030  -26.6290   22.0360 C   0  0  0  0  0  2  0  0  0  0  0  0
  -19.2320  -28.7230   23.1870 C   0  0  0  0  0  0  0  0  0  0  0  0
  -19.0060  -29.9750   23.8000 C   0  0  0  0  0  3  0  0  0  0  0  0
  -17.7000  -30.4730   23.9630 C   0  0  0  0  0  3  0  0  0  0  0  0
  -16.5990  -29.7120   23.5280 C   0  0  0  0  0  3  0  0  0  0  0  0
  -16.8100  -28.4610   22.9200 C   0  0  0  0  0  3  0  0  0  0  0  0
  -25.8850  -32.4600   23.8220 C   0  0  0  0  0  3  0  0  0  0  0  0
  -26.3870  -31.6920   25.1080 C   0  0  1  0  0  0  0  0  0  0  0  0
  -25.2720  -31.4260   26.1450 C   0  0  0  0  0  1  0  0  0  0  0  0
  -27.0080  -30.3280   24.7240 C   0  0  0  0  0  1  0  0  0  0  0  0
  -27.5020  -32.5040   25.8080 C   0  0  0  0  0  1  0  0  0  0  0  0
  -25.5480  -33.8530   24.1510 N   0  0  0  0  0  0  0  0  0  0  0  0
  -25.8790  -34.9120   23.4020 C   0  0  0  0  0  0  0  0  0  0  0  0
  -26.5710  -34.8240   22.3840 O   0  0  0  0  0  0  0  0  0  0  0  0
  -24.9420  -33.9950   24.9450 H   0  0  0  0  0  0  0  0  0  0  0  0
  -24.1410  -36.6890   23.0110 C   0  0  0  0  0  1  0  0  0  0  0  0
  -25.3620  -36.2910   23.8570 C   0  0  0  0  0  3  0  0  0  0  0  0
  -27.4530  -37.2070   24.7640 C   0  0  0  0  0  1  0  0  0  0  0  0
  -26.3840  -37.3580   23.7820 N   0  0  0  0  0  0  0  0  0  0  0  0
  -25.9570  -38.2720   23.9180 H   0  0  0  0  0  0  0  0  0  0  0  0
  1  8  2  0
  2  1  1  0
  3  5  1  0
  4  3  1  0
  4  7  1  0
  5 19  1  0
  5  1  1  0
  6 49  1  0
  6  2  1  0
  7  6  1  0
  9  7  1  0
 10  7  1  0
 11 19  1  0
 12 17  1  0
 13 14  1  0
 13 12  1  0
 15 14  1  0
 15 24  1  0
 15 16  1  0
 17 11  1  0
 17 16  1  0
 18 11  2  0
 19 20  1  0
 21 22  2  0
 22 41  1  0
 23 22  1  0
 23 26  1  0
 24 25  1  0
 24 21  1  0
 25 23  2  0
 26 27  1  0
 27 28  2  0
 29 32  1  0
 29 28  1  0
 30 29  2  0
 31 30  1  0
 31 26  2  0
 32 33  1  0
 33 34  1  0
 34 35  2  0
 36 35  1  0
 36 40  1  0
 37 36  2  0
 38 33  2  0
 38 37  1  0
 39 38  1  0
 41 42  1  0
 42 45  1  0
 42 44  1  0
 43 41  2  0
 46 47  1  0
 46 21  1  0
 48 46  1  0
 49 50  1  0
 51 53  1  0
 51 49  1  0
 52 51  2  0
 54 53  1  0
 55 66  2  0
 56 54  1  0
 56 61  1  0
 57 65  1  0
 57 67  1  0
 58 64  1  0
 58 60  1  0
 59 65  1  0
 60 61  2  0
 60 59  1  0
 62 56  2  0
 63 62  1  0
 63 58  2  0
 64 57  1  0
 65 55  1  0
 67 69  2  0
 68 67  1  0
 70 68  1  0
 71 80  2  0
 71 76  1  0
 72 68  1  0
 72 76  1  0
 73 72  1  0
 74 75  1  0
 74 73  1  0
 75 71  1  0
 76 77  2  0
 77 78  1  0
 79 78  2  0
 80 79  1  0
 81 55  1  0
 81 86  1  0
 81 82  1  0
 82 85  1  1
 82 83  1  0
 84 82  1  0
 86 89  1  0
 87 91  1  0
 87 86  1  0
 88 87  2  0
 91 90  1  0
 93 91  1  0
 93 94  1  0
 93 92  1  0
M  ISO  4  11 100  19 100  53 101  54 101
M  END
>  <TORSDO>  (35) 
F 19

>  <SCORE>  (35) 
-13.527

>  <name>  (35) 
34

>  <ligand_id>  (35) 
34

>  <original_smiles>  (35) 
[H]c1c([H])c([H])c2c(c1[H])C([H])([H])C([H])([H])C([H])([H])C2([H])N([H])C(=O)C1([H])N(C(=O)C([H])(N([H])C(=O)C([H])(N([H])C([H])([H])[H])C([H])([H])[H])C(C([H])([H])[H])(C([H])([H])[H])C([H])([H])[H])C([H])([H])c2c([H])c(OC([H])([H])C(=O)C([H])(F)C3([H])C([H])([H])C(=O)C([H])(N([H])C(=O)N4C([H])([H])C([H])([H])C([H])([H])C([H])(n5nc(-c6c([H])c([H])c(Oc7c([H])c([H])c(F)c([H])c7F)c([H])c6[H])c(C(=O)N([H])[H])c5N([H])[H])C4([H])[H])C([H])([H])C([H])([H])[N+]3([H])[H])c([H])c([H])c2C1([H])[H]

>  <smiles>  (35) 
[H]c1c([H])c([H])c2c(c1[H])C([H])([H])C([H])([H])C([H])([H])C2([H])N([H])C(=O)C1([H])N(C(=O)C([H])(N([H])C(=O)C([H])(N([H])C([H])([H])[H])C([H])([H])[H])C(C([H])([H])[H])(C([H])([H])[H])C([H])([H])[H])C([H])([H])c2c([H])c(OC([H])([H])C(=O)C([H])(F)C3([H])C([H])([H])C(=O)C([H])(N([H])C(=O)N4C([H])([H])C([H])([H])C([H])([H])C([H])(n5nc(-c6c([H])c([H])c(Oc7c([H])c([H])c(F)c([H])c7F)c([H])c6[H])c(C(=O)N([H])[H])c5N([H])[H])C4([H])[H])C([H])([H])C([H])([H])[N+]3([H])[H])c([H])c([H])c2C1([H])[H]

$$$$
35:0:0
     RDKit          3D

 94102  0  0  1  0  0  0  0  0999 V2000
  -29.2590  -22.5380   19.4260 C   0  0  0  0  0  2  0  0  0  0  0  0
  -28.3320  -18.1680   19.2920 C   0  0  0  0  0  3  0  0  0  0  0  0
  -27.4970  -19.1370   18.7030 C   0  0  0  0  0  3  0  0  0  0  0  0
  -29.7510  -19.9690   20.1130 C   0  0  0  0  0  3  0  0  0  0  0  0
  -29.4930  -18.5420   19.9970 C   0  0  0  0  0  0  0  0  0  0  0  0
  -28.9000  -20.9890   19.5240 C   0  0  0  0  0  0  0  0  0  0  0  0
  -27.7820  -20.5140   18.7990 C   0  0  0  0  0  0  0  0  0  0  0  0
  -26.9860  -21.3890   18.1380 F   0  0  0  0  0  0  0  0  0  0  0  0
  -30.4430  -17.4090   20.5690 C   0  0  0  0  0  2  0  0  0  0  0  0
  -30.7510  -14.8260   20.4470 C   0  0  0  0  0  0  0  0  0  0  0  0
  -30.5440  -12.5620   19.4240 C   0  0  0  0  0  2  0  0  0  0  0  0
  -29.6270  -12.6520   18.1860 C   0  0  0  0  0  2  0  0  0  0  0  0
  -28.1460  -12.5060   18.5850 C   0  0  0  0  0  2  0  0  0  0  0  0
  -27.7580  -13.3810   19.8060 C   0  0  0  0  0  3  0  0  0  0  0  0
  -28.7990  -13.2760   20.9430 C   0  0  0  0  0  2  0  0  0  0  0  0
  -30.1090  -13.6130   20.3720 N   0  0  0  0  0  0  0  0  0  0  0  0
  -31.9400  -14.9240   20.1340 O   0  0  0  0  0  0  0  0  0  0  0  0
  -29.9920  -15.9570   20.6590 N   0  0  0  0  0  0  0  0  0  0  0  0
  -29.0220  -15.8000   20.8810 H   0  0  0  0  0  0  0  0  0  0  0  0
  -25.3500  -13.9680   20.4810 C   0  0  0  0  0  0  0  0  0  0  0  0
  -24.2820  -13.1940   20.8360 C   0  0  0  0  0  0  0  0  0  0  0  0
  -24.7480  -11.8430   20.8170 C   0  0  0  0  0  0  0  0  0  0  0  0
  -26.4030  -13.0920   20.2700 N   0  0  0  0  0  0  0  0  0  0  0  0
  -26.0450  -11.8080   20.5330 N   0  0  0  0  0  0  0  0  0  0  0  0
  -24.0200  -10.5810   20.9920 C   0  0  0  0  0  0  0  0  0  0  0  0
  -24.4130   -9.6300   21.9590 C   0  0  0  0  0  3  0  0  0  0  0  0
  -23.6840   -8.4330   22.1230 C   0  0  0  0  0  3  0  0  0  0  0  0
  -22.5470   -8.1790   21.3170 C   0  0  0  0  0  0  0  0  0  0  0  0
  -22.1750   -9.1190   20.3390 C   0  0  0  0  0  3  0  0  0  0  0  0
  -22.9040  -10.3070   20.1750 C   0  0  0  0  0  3  0  0  0  0  0  0
  -21.7940   -7.0330   21.3860 O   0  0  0  0  0  0  0  0  0  0  0  0
  -21.6690   -6.3250   22.5550 C   0  0  0  0  0  0  0  0  0  0  0  0
  -21.0650   -6.8820   23.7040 C   0  0  0  0  0  3  0  0  0  0  0  0
  -20.8940   -6.0960   24.8600 C   0  0  0  0  0  3  0  0  0  0  0  0
  -21.3150   -4.7530   24.8690 C   0  0  0  0  0  0  0  0  0  0  0  0
  -21.9110   -4.1940   23.7250 C   0  0  0  0  0  3  0  0  0  0  0  0
  -22.0850   -4.9770   22.5700 C   0  0  0  0  0  0  0  0  0  0  0  0
  -22.6410   -4.4270   21.4640 F   0  0  0  0  0  0  0  0  0  0  0  0
  -21.1430   -3.9960   25.9780 F   0  0  0  0  0  0  0  0  0  0  0  0
  -22.8770  -13.6670   21.0760 C   0  0  0  0  0  0  0  0  0  0  0  0
  -22.1310  -12.9760   21.9290 N   0  0  0  0  0  0  0  0  0  0  0  0
  -22.4480  -14.6880   20.5400 O   0  0  0  0  0  0  0  0  0  0  0  0
  -22.4870  -12.1490   22.3860 H   0  0  0  0  0  0  0  0  0  0  0  0
  -21.1910  -13.2810   22.1350 H   0  0  0  0  0  0  0  0  0  0  0  0
  -25.5070  -15.3380   20.2880 N   0  0  0  0  0  0  0  0  0  0  0  0
  -24.7060  -15.9590   20.3230 H   0  0  0  0  0  0  0  0  0  0  0  0
  -26.2960  -15.7430   19.8040 H   0  0  0  0  0  0  0  0  0  0  0  0
  -28.5710  -23.7290   20.2960 C   0  0  0  0  0  3  0  0  0  0  0  0
  -27.1720  -23.4170   20.6520 N   0  0  0  0  0  4  0  0  0  0  0  0
  -26.6270  -23.1850   19.8350 H   0  0  0  0  0  0  0  0  0  0  0  0
  -27.1420  -22.6220   21.2670 H   0  0  0  0  0  0  0  0  0  0  0  0
  -26.7460  -24.1940   21.1320 H   0  0  0  0  0  0  0  0  0  0  0  0
  -28.6340  -25.2000   19.6300 C   0  0  0  0  0  2  0  0  0  0  0  0
  -28.4000  -26.4490   20.4130 O   0  0  0  0  0  0  0  0  0  0  0  0
  -24.6060  -31.8850   23.2650 C   0  0  0  0  0  0  0  0  0  0  0  0
  -27.2620  -27.2720   20.2990 C   0  0  0  0  0  0  0  0  0  0  0  0
  -23.4300  -30.4820   21.6040 C   0  0  0  0  0  3  0  0  0  0  0  0
  -24.9030  -28.9060   20.2240 C   0  0  0  0  0  0  0  0  0  0  0  0
  -25.9740  -30.7760   21.4800 C   0  0  0  0  0  2  0  0  0  0  0  0
  -26.0590  -29.3910   20.8460 C   0  0  0  0  0  0  0  0  0  0  0  0
  -27.2350  -28.5840   20.8780 C   0  0  0  0  0  3  0  0  0  0  0  0
  -26.0780  -26.8380   19.6600 C   0  0  0  0  0  3  0  0  0  0  0  0
  -24.9160  -27.6350   19.6260 C   0  0  0  0  0  3  0  0  0  0  0  0
  -23.6710  -29.7900   20.2360 C   0  0  0  0  0  2  0  0  0  0  0  0
  -24.6880  -31.0660   22.1750 N   0  0  0  0  0  0  0  0  0  0  0  0
  -23.5130  -32.1750   23.7720 O   0  0  0  0  0  0  0  0  0  0  0  0
  -22.7370  -29.4810   22.5580 C   0  0  0  0  0  0  0  0  0  0  0  0
  -21.4090  -29.3310   22.4190 N   0  0  0  0  0  0  0  0  0  0  0  0
  -23.3950  -28.8390   23.3820 O   0  0  0  0  0  0  0  0  0  0  0  0
  -20.9390  -29.8990   21.7290 H   0  0  0  0  0  0  0  0  0  0  0  0
  -17.9950  -28.2550   22.9340 C   0  0  0  0  0  0  0  0  0  0  0  0
  -20.5640  -28.4090   23.1800 C   0  0  0  0  0  3  0  0  0  0  0  0
  -20.6030  -26.9860   22.5740 C   0  0  0  0  0  2  0  0  0  0  0  0
  -19.4790  -26.7290   21.5650 C   0  0  0  0  0  2  0  0  0  0  0  0
  -18.1110  -26.9150   22.2280 C   0  0  0  0  0  2  0  0  0  0  0  0
  -19.1460  -28.9640   23.3670 C   0  0  0  0  0  0  0  0  0  0  0  0
  -18.9830  -30.2210   23.9870 C   0  0  0  0  0  3  0  0  0  0  0  0
  -17.7010  -30.7700   24.1770 C   0  0  0  0  0  3  0  0  0  0  0  0
  -16.5630  -30.0570   23.7610 C   0  0  0  0  0  3  0  0  0  0  0  0
  -16.7100  -28.8010   23.1450 C   0  0  0  0  0  3  0  0  0  0  0  0
  -25.8790  -32.5120   23.9130 C   0  0  0  0  0  3  0  0  0  0  0  0
  -25.5710  -33.9140   24.2360 N   0  0  0  0  0  0  0  0  0  0  0  0
  -25.8960  -34.9600   23.4660 C   0  0  0  0  0  0  0  0  0  0  0  0
  -26.5550  -34.8490   22.4290 O   0  0  0  0  0  0  0  0  0  0  0  0
  -24.9850  -34.0740   25.0420 H   0  0  0  0  0  0  0  0  0  0  0  0
  -24.1530  -36.7420   23.1230 C   0  0  0  0  0  1  0  0  0  0  0  0
  -25.4110  -36.3520   23.9160 C   0  0  0  0  0  3  0  0  0  0  0  0
  -27.5430  -37.2710   24.7170 C   0  0  0  0  0  1  0  0  0  0  0  0
  -26.4380  -37.4080   23.7720 N   0  0  0  0  0  0  0  0  0  0  0  0
  -26.0270  -38.3290   23.8970 H   0  0  0  0  0  0  0  0  0  0  0  0
  -26.3630  -31.7420   25.2030 C   0  0  1  0  0  0  0  0  0  0  0  0
  -25.2380  -31.4900   26.2360 C   0  0  0  0  0  1  0  0  0  0  0  0
  -26.9700  -30.3720   24.8260 C   0  0  0  0  0  1  0  0  0  0  0  0
  -27.4860  -32.5440   25.9040 C   0  0  0  0  0  1  0  0  0  0  0  0
  1  6  1  0
  2  5  1  0
  3  7  1  0
  3  2  2  0
  5  4  2  0
  5  9  1  0
  6  4  1  0
  7  6  2  0
  8  7  1  0
  9 18  1  0
 10 18  1  0
 11 16  1  0
 12 13  1  0
 12 11  1  0
 14 13  1  0
 14 23  1  0
 14 15  1  0
 16 10  1  0
 16 15  1  0
 17 10  2  0
 18 19  1  0
 20 21  2  0
 21 40  1  0
 22 21  1  0
 22 25  1  0
 23 20  1  0
 23 24  1  0
 24 22  2  0
 25 26  1  0
 26 27  2  0
 28 31  1  0
 28 27  1  0
 29 28  2  0
 30 29  1  0
 30 25  2  0
 31 32  1  0
 32 37  2  0
 32 33  1  0
 33 34  2  0
 34 35  1  0
 35 39  1  0
 36 35  2  0
 37 36  1  0
 38 37  1  0
 40 41  1  0
 41 44  1  0
 41 43  1  0
 42 40  2  0
 45 46  1  0
 45 20  1  0
 47 45  1  0
 48  1  1  0
 48 49  1  0
 49 52  1  0
 49 51  1  0
 50 49  1  0
 53 48  1  0
 53 54  1  0
 55 66  2  0
 56 54  1  0
 56 61  1  0
 57 65  1  0
 57 67  1  0
 58 64  1  0
 58 60  1  0
 59 65  1  0
 60 61  2  0
 60 59  1  0
 62 56  2  0
 63 62  1  0
 63 58  2  0
 64 57  1  0
 65 55  1  0
 67 69  2  0
 68 67  1  0
 70 68  1  0
 71 80  2  0
 71 76  1  0
 72 68  1  0
 72 76  1  0
 73 72  1  0
 74 75  1  0
 74 73  1  0
 75 71  1  0
 76 77  2  0
 77 78  1  0
 79 78  2  0
 80 79  1  0
 81 55  1  0
 81 82  1  0
 81 91  1  0
 82 85  1  0
 83 87  1  0
 83 82  1  0
 84 83  2  0
 87 86  1  0
 89 90  1  0
 89 87  1  0
 89 88  1  0
 91 94  1  1
 91 92  1  0
 93 91  1  0
M  ISO  4  10 100  18 100  53 101  54 101
M  END
>  <TORSDO>  (36) 
F 21

>  <SCORE>  (36) 
-13.844

>  <name>  (36) 
35

>  <ligand_id>  (36) 
35

>  <original_smiles>  (36) 
[H]c1c([H])c([H])c2c(c1[H])C([H])([H])C([H])([H])C([H])([H])C2([H])N([H])C(=O)C1([H])N(C(=O)C([H])(N([H])C(=O)C([H])(N([H])C([H])([H])[H])C([H])([H])[H])C(C([H])([H])[H])(C([H])([H])[H])C([H])([H])[H])C([H])([H])c2c([H])c(OC([H])([H])C([H])(C([H])([H])c3c([H])c(C([H])([H])N([H])C(=O)N4C([H])([H])C([H])([H])C([H])([H])C([H])(n5nc(-c6c([H])c([H])c(Oc7c([H])c([H])c(F)c([H])c7F)c([H])c6[H])c(C(=O)N([H])[H])c5N([H])[H])C4([H])[H])c([H])c([H])c3F)[N+]([H])([H])[H])c([H])c([H])c2C1([H])[H]

>  <smiles>  (36) 
[H]c1c([H])c([H])c2c(c1[H])C([H])([H])C([H])([H])C([H])([H])C2([H])N([H])C(=O)C1([H])N(C(=O)C([H])(N([H])C(=O)C([H])(N([H])C([H])([H])[H])C([H])([H])[H])C(C([H])([H])[H])(C([H])([H])[H])C([H])([H])[H])C([H])([H])c2c([H])c(OC([H])([H])C([H])(C([H])([H])c3c([H])c(C([H])([H])N([H])C(=O)N4C([H])([H])C([H])([H])C([H])([H])C([H])(n5nc(-c6c([H])c([H])c(Oc7c([H])c([H])c(F)c([H])c7F)c([H])c6[H])c(C(=O)N([H])[H])c5N([H])[H])C4([H])[H])c([H])c([H])c3F)[N+]([H])([H])[H])c([H])c([H])c2C1([H])[H]

$$$$
36:0:0
     RDKit          3D

 97105  0  0  1  0  0  0  0  0999 V2000
  -29.7240  -21.9500   21.0980 C   0  0  0  0  0  2  0  0  0  0  0  0
  -30.1770  -23.1570   20.3770 N   0  0  0  0  0  4  0  0  0  0  0  0
  -30.8600  -22.8850   19.6890 H   0  0  0  0  0  0  0  0  0  0  0  0
  -30.6460  -23.7620   21.0340 H   0  0  0  0  0  0  0  0  0  0  0  0
  -29.1530  -24.0080   19.7440 C   0  0  0  0  0  2  0  0  0  0  0  0
  -29.8540  -25.1390   18.9670 C   0  0  0  0  0  3  0  0  0  0  0  0
  -30.9040  -25.5610   19.6790 F   0  0  0  0  0  0  0  0  0  0  0  0
  -28.9570  -26.3380   18.6400 C   0  0  0  0  0  2  0  0  0  0  0  0
  -28.5080  -26.9240   19.8590 O   0  0  0  0  0  0  0  0  0  0  0  0
  -24.4960  -31.6640   23.2330 C   0  0  0  0  0  0  0  0  0  0  0  0
  -27.2930  -27.5610   19.8650 C   0  0  0  0  0  0  0  0  0  0  0  0
  -23.4960  -30.0720   21.6200 C   0  0  0  0  0  3  0  0  0  0  0  0
  -24.8600  -28.9660   19.8860 C   0  0  0  0  0  0  0  0  0  0  0  0
  -25.8490  -30.8550   21.2750 C   0  0  0  0  0  2  0  0  0  0  0  0
  -25.9990  -29.5330   20.5000 C   0  0  0  0  0  0  0  0  0  0  0  0
  -27.2110  -28.8160   20.5020 C   0  0  0  0  0  3  0  0  0  0  0  0
  -26.1340  -26.9950   19.2860 C   0  0  0  0  0  3  0  0  0  0  0  0
  -24.9160  -27.6930   19.2970 C   0  0  0  0  0  3  0  0  0  0  0  0
  -23.5430  -29.6800   20.1230 C   0  0  0  0  0  2  0  0  0  0  0  0
  -24.5780  -30.9910   22.0530 N   0  0  0  0  0  0  0  0  0  0  0  0
  -23.4100  -31.8330   23.8040 O   0  0  0  0  0  0  0  0  0  0  0  0
  -22.6470  -29.2110   22.5740 C   0  0  0  0  0  0  0  0  0  0  0  0
  -21.3530  -29.0260   22.3000 N   0  0  0  0  0  0  0  0  0  0  0  0
  -23.1890  -28.5980   23.5110 O   0  0  0  0  0  0  0  0  0  0  0  0
  -20.9270  -29.5280   21.5340 H   0  0  0  0  0  0  0  0  0  0  0  0
  -18.0260  -27.6850   22.7020 C   0  0  0  0  0  0  0  0  0  0  0  0
  -20.5540  -28.0210   23.0000 C   0  0  0  0  0  3  0  0  0  0  0  0
  -20.7300  -26.6270   22.3540 C   0  0  0  0  0  2  0  0  0  0  0  0
  -19.6460  -26.3110   21.3210 C   0  0  0  0  0  2  0  0  0  0  0  0
  -18.2580  -26.3750   21.9640 C   0  0  0  0  0  2  0  0  0  0  0  0
  -19.1100  -28.4670   23.1730 C   0  0  0  0  0  0  0  0  0  0  0  0
  -18.8530  -29.6870   23.8340 C   0  0  0  0  0  3  0  0  0  0  0  0
  -17.5330  -30.1330   24.0230 C   0  0  0  0  0  3  0  0  0  0  0  0
  -16.4600  -29.3520   23.5620 C   0  0  0  0  0  3  0  0  0  0  0  0
  -16.7060  -28.1290   22.9110 C   0  0  0  0  0  3  0  0  0  0  0  0
  -25.7570  -32.3040   23.8920 C   0  0  0  0  0  3  0  0  0  0  0  0
  -25.4290  -33.6930   24.2290 N   0  0  0  0  0  0  0  0  0  0  0  0
  -25.8040  -34.7560   23.5040 C   0  0  0  0  0  0  0  0  0  0  0  0
  -26.5240  -34.6660   22.5060 O   0  0  0  0  0  0  0  0  0  0  0  0
  -24.8010  -33.8380   25.0060 H   0  0  0  0  0  0  0  0  0  0  0  0
  -24.1010  -36.5530   23.0910 C   0  0  0  0  0  1  0  0  0  0  0  0
  -25.2950  -36.1350   23.9620 C   0  0  0  0  0  3  0  0  0  0  0  0
  -27.3820  -37.0030   24.9220 C   0  0  0  0  0  1  0  0  0  0  0  0
  -26.3340  -37.1870   23.9200 N   0  0  0  0  0  0  0  0  0  0  0  0
  -25.9220  -38.1070   24.0520 H   0  0  0  0  0  0  0  0  0  0  0  0
  -26.2540  -31.5200   25.1690 C   0  0  1  0  0  0  0  0  0  0  0  0
  -25.1480  -31.2690   26.2200 C   0  0  0  0  0  1  0  0  0  0  0  0
  -26.8460  -30.1500   24.7630 C   0  0  0  0  0  1  0  0  0  0  0  0
  -27.3900  -32.3120   25.8610 C   0  0  0  0  0  1  0  0  0  0  0  0
  -29.8370  -20.6640   20.2470 C   0  0  0  0  0  2  0  0  0  0  0  0
  -31.1930  -18.5590   20.4520 C   0  0  0  0  0  3  0  0  0  0  0  0
  -31.3900  -17.3100   22.5320 C   0  0  0  0  0  3  0  0  0  0  0  0
  -29.9980  -19.3210   22.4310 C   0  0  0  0  0  3  0  0  0  0  0  0
  -31.7190  -17.4650   21.1670 C   0  0  0  0  0  0  0  0  0  0  0  0
  -30.3350  -19.4890   21.0720 C   0  0  0  0  0  0  0  0  0  0  0  0
  -30.5330  -18.2380   23.1610 C   0  0  0  0  0  0  0  0  0  0  0  0
  -30.2300  -18.0920   24.4710 F   0  0  0  0  0  0  0  0  0  0  0  0
  -32.4880  -14.3930   19.3110 C   0  0  0  0  0  0  0  0  0  0  0  0
  -31.7170  -12.3960   18.0800 C   0  0  0  0  0  2  0  0  0  0  0  0
  -30.6060  -12.7800   17.0840 C   0  0  0  0  0  2  0  0  0  0  0  0
  -29.2240  -12.7920   17.7670 C   0  0  0  0  0  2  0  0  0  0  0  0
  -29.2240  -13.5780   19.1050 C   0  0  0  0  0  3  0  0  0  0  0  0
  -30.4090  -13.1360   19.9890 C   0  0  0  0  0  2  0  0  0  0  0  0
  -31.6490  -13.3280   19.2150 N   0  0  0  0  0  0  0  0  0  0  0  0
  -33.4740  -14.5240   18.5770 O   0  0  0  0  0  0  0  0  0  0  0  0
  -32.6280  -16.5140   20.4530 C   0  0  0  0  0  0  0  0  0  0  0  0
  -32.0820  -15.3170   20.1970 N   0  0  0  0  0  0  0  0  0  0  0  0
  -33.7430  -16.9000   20.0860 O   0  0  0  0  0  0  0  0  0  0  0  0
  -31.1990  -15.1380   20.6410 H   0  0  0  0  0  0  0  0  0  0  0  0
  -27.1160  -14.4230   20.3230 C   0  0  0  0  0  0  0  0  0  0  0  0
  -26.0240  -13.7650   20.8190 C   0  0  0  0  0  0  0  0  0  0  0  0
  -26.2500  -12.3770   20.5660 C   0  0  0  0  0  0  0  0  0  0  0  0
  -27.9500  -13.4400   19.8080 N   0  0  0  0  0  0  0  0  0  0  0  0
  -27.4390  -12.1990   20.0060 N   0  0  0  0  0  0  0  0  0  0  0  0
  -25.3800  -11.2120   20.7720 C   0  0  0  0  0  0  0  0  0  0  0  0
  -25.7080  -10.2030   21.7040 C   0  0  0  0  0  3  0  0  0  0  0  0
  -24.8480   -9.1010   21.8960 C   0  0  0  0  0  3  0  0  0  0  0  0
  -23.6450   -9.0020   21.1570 C   0  0  0  0  0  0  0  0  0  0  0  0
  -23.3370   -9.9960   20.2130 C   0  0  0  0  0  3  0  0  0  0  0  0
  -24.1950  -11.0910   20.0180 C   0  0  0  0  0  3  0  0  0  0  0  0
  -22.7610   -7.9550   21.2600 O   0  0  0  0  0  0  0  0  0  0  0  0
  -22.4370   -7.4020   22.4730 C   0  0  0  0  0  0  0  0  0  0  0  0
  -21.9600   -8.1880   23.5450 C   0  0  0  0  0  3  0  0  0  0  0  0
  -21.5710   -7.5710   24.7510 C   0  0  0  0  0  3  0  0  0  0  0  0
  -21.6490   -6.1720   24.8850 C   0  0  0  0  0  0  0  0  0  0  0  0
  -22.1180   -5.3880   23.8160 C   0  0  0  0  0  3  0  0  0  0  0  0
  -22.5070   -6.0020   22.6130 C   0  0  0  0  0  0  0  0  0  0  0  0
  -22.9380   -5.2400   21.5790 F   0  0  0  0  0  0  0  0  0  0  0  0
  -21.2690   -5.5790   26.0400 F   0  0  0  0  0  0  0  0  0  0  0  0
  -24.7920  -14.3900   21.4090 C   0  0  0  0  0  0  0  0  0  0  0  0
  -24.0990  -13.6730   22.2870 N   0  0  0  0  0  0  0  0  0  0  0  0
  -24.4630  -15.5420   21.1280 O   0  0  0  0  0  0  0  0  0  0  0  0
  -24.3810  -12.7380   22.5390 H   0  0  0  0  0  0  0  0  0  0  0  0
  -23.2740  -14.0690   22.7140 H   0  0  0  0  0  0  0  0  0  0  0  0
  -27.4620  -15.7690   20.2490 N   0  0  0  0  0  0  0  0  0  0  0  0
  -26.8340  -16.5030   20.5600 H   0  0  0  0  0  0  0  0  0  0  0  0
  -28.2900  -16.1280   19.7920 H   0  0  0  0  0  0  0  0  0  0  0  0
  2  4  1  0
  2  1  1  0
  3  2  1  0
  5  2  1  0
  6  7  1  0
  6  5  1  0
  8  6  1  0
  8  9  1  0
  9 11  1  0
 10 21  2  0
 11 16  1  0
 12 20  1  0
 12 22  1  0
 13 19  1  0
 13 15  1  0
 14 20  1  0
 15 16  2  0
 15 14  1  0
 17 18  1  0
 17 11  2  0
 18 13  2  0
 19 12  1  0
 20 10  1  0
 22 24  2  0
 23 22  1  0
 25 23  1  0
 26 35  2  0
 26 31  1  0
 27 23  1  0
 27 31  1  0
 28 27  1  0
 29 30  1  0
 29 28  1  0
 30 26  1  0
 31 32  2  0
 32 33  1  0
 34 33  2  0
 35 34  1  0
 36 10  1  0
 36 37  1  0
 36 46  1  0
 37 40  1  0
 38 42  1  0
 38 37  1  0
 39 38  2  0
 42 41  1  0
 44 42  1  0
 44 45  1  0
 44 43  1  0
 46 49  1  1
 46 47  1  0
 48 46  1  0
 50 55  1  0
 50  1  1  0
 51 55  2  0
 51 54  1  0
 52 56  1  0
 53 56  2  0
 54 52  2  0
 55 53  1  0
 56 57  1  0
 58 67  1  0
 59 64  1  0
 60 61  1  0
 60 59  1  0
 62 61  1  0
 62 73  1  0
 62 63  1  0
 64 58  1  0
 64 63  1  0
 65 58  2  0
 66 54  1  0
 67 66  1  0
 67 69  1  0
 68 66  2  0
 70 71  2  0
 71 90  1  0
 72 75  1  0
 72 71  1  0
 73 74  1  0
 73 70  1  0
 74 72  2  0
 75 76  1  0
 76 77  2  0
 78 81  1  0
 78 77  1  0
 79 78  2  0
 80 79  1  0
 80 75  2  0
 81 82  1  0
 82 87  2  0
 82 83  1  0
 83 84  2  0
 84 85  1  0
 85 89  1  0
 86 85  2  0
 87 86  1  0
 88 87  1  0
 90 91  1  0
 91 93  1  0
 91 94  1  0
 92 90  2  0
 95 70  1  0
 95 96  1  0
 97 95  1  0
M  ISO  4   8 101   9 101  58 100  67 100
M  END
>  <TORSDO>  (37) 
F 22

>  <SCORE>  (37) 
-7.466

>  <name>  (37) 
36

>  <ligand_id>  (37) 
36

>  <original_smiles>  (37) 
[H]c1c([H])c([H])c2c(c1[H])C([H])([H])C([H])([H])C([H])([H])C2([H])N([H])C(=O)C1([H])N(C(=O)C([H])(N([H])C(=O)C([H])(N([H])C([H])([H])[H])C([H])([H])[H])C(C([H])([H])[H])(C([H])([H])[H])C([H])([H])[H])C([H])([H])c2c([H])c(OC([H])([H])C([H])(F)C([H])([H])[N+]([H])([H])C([H])([H])C([H])([H])c3c([H])c(F)c([H])c(C(=O)N([H])C(=O)N4C([H])([H])C([H])([H])C([H])([H])C([H])(n5nc(-c6c([H])c([H])c(Oc7c([H])c([H])c(F)c([H])c7F)c([H])c6[H])c(C(=O)N([H])[H])c5N([H])[H])C4([H])[H])c3[H])c([H])c([H])c2C1([H])[H]

>  <smiles>  (37) 
[H]c1c([H])c([H])c2c(c1[H])C([H])([H])C([H])([H])C([H])([H])C2([H])N([H])C(=O)C1([H])N(C(=O)C([H])(N([H])C(=O)C([H])(N([H])C([H])([H])[H])C([H])([H])[H])C(C([H])([H])[H])(C([H])([H])[H])C([H])([H])[H])C([H])([H])c2c([H])c(OC([H])([H])C([H])(F)C([H])([H])[N+]([H])([H])C([H])([H])C([H])([H])c3c([H])c(F)c([H])c(C(=O)N([H])C(=O)N4C([H])([H])C([H])([H])C([H])([H])C([H])(n5nc(-c6c([H])c([H])c(Oc7c([H])c([H])c(F)c([H])c7F)c([H])c6[H])c(C(=O)N([H])[H])c5N([H])[H])C4([H])[H])c3[H])c([H])c([H])c2C1([H])[H]

$$$$
37:0:0
     RDKit          3D

 99108  0  0  1  0  0  0  0  0999 V2000
  -29.5000  -20.1260   20.7810 N   0  0  0  0  0  4  0  0  0  0  0  0
  -30.1970  -20.8510   20.7250 H   0  0  0  0  0  0  0  0  0  0  0  0
  -29.4590  -19.8440   21.7460 H   0  0  0  0  0  0  0  0  0  0  0  0
  -29.5470  -15.0760   20.2350 C   0  0  0  0  0  0  0  0  0  0  0  0
  -30.4120  -12.7660   20.3870 C   0  0  0  0  0  2  0  0  0  0  0  0
  -31.8240  -12.7790   21.0090 C   0  0  0  0  0  2  0  0  0  0  0  0
  -32.8980  -12.9900   19.9200 C   0  0  0  0  0  2  0  0  0  0  0  0
  -32.5580  -14.1300   18.9180 C   0  0  0  0  0  3  0  0  0  0  0  0
  -31.0820  -14.0840   18.4630 C   0  0  0  0  0  2  0  0  0  0  0  0
  -30.2390  -14.0390   19.6670 N   0  0  0  0  0  0  0  0  0  0  0  0
  -28.6010  -14.8740   20.9980 O   0  0  0  0  0  0  0  0  0  0  0  0
  -32.1450  -17.7290   20.6520 C   0  0  0  0  0  2  0  0  0  0  0  0
  -31.2390  -16.5620   21.0980 C   0  0  0  0  0  2  0  0  0  0  0  0
  -29.2530  -17.5560   20.4040 C   0  0  0  0  0  2  0  0  0  0  0  0
  -31.4690  -18.8540   19.8300 C   0  0  0  0  0  3  0  0  0  0  0  0
  -29.9200  -18.9240   19.9700 C   0  0  0  0  0  3  0  0  0  0  0  0
  -30.0990  -16.3380   20.1900 N   0  0  0  0  0  0  0  0  0  0  0  0
  -32.5600  -20.1090   16.3610 C   0  0  0  0  0  3  0  0  0  0  0  0
  -32.1400  -20.0860   17.7050 C   0  0  0  0  0  3  0  0  0  0  0  0
  -32.7680  -18.9020   15.6660 C   0  0  0  0  0  3  0  0  0  0  0  0
  -32.1320  -17.6500   17.6590 C   0  0  0  0  0  3  0  0  0  0  0  0
  -31.9240  -18.8550   18.3690 C   0  0  0  0  0  0  0  0  0  0  0  0
  -32.5540  -17.6720   16.3150 C   0  0  0  0  0  0  0  0  0  0  0  0
  -32.7570  -16.5100   15.6500 F   0  0  0  0  0  0  0  0  0  0  0  0
  -34.6770  -14.8720   17.6810 C   0  0  0  0  0  0  0  0  0  0  0  0
  -35.2230  -14.4960   16.4870 C   0  0  0  0  0  0  0  0  0  0  0  0
  -34.3250  -13.5330   15.9330 C   0  0  0  0  0  0  0  0  0  0  0  0
  -33.4910  -14.1650   17.7990 N   0  0  0  0  0  0  0  0  0  0  0  0
  -33.2570  -13.3940   16.7100 N   0  0  0  0  0  0  0  0  0  0  0  0
  -34.4500  -12.6920   14.7400 C   0  0  0  0  0  0  0  0  0  0  0  0
  -33.8810  -13.0740   13.5060 C   0  0  0  0  0  3  0  0  0  0  0  0
  -34.0310  -12.2550   12.3660 C   0  0  0  0  0  3  0  0  0  0  0  0
  -34.7600  -11.0450   12.4530 C   0  0  0  0  0  0  0  0  0  0  0  0
  -35.3060  -10.6600   13.6900 C   0  0  0  0  0  3  0  0  0  0  0  0
  -35.1520  -11.4740   14.8240 C   0  0  0  0  0  3  0  0  0  0  0  0
  -34.9360  -10.1760   11.4040 O   0  0  0  0  0  0  0  0  0  0  0  0
  -35.2010  -10.6250   10.1370 C   0  0  0  0  0  0  0  0  0  0  0  0
  -36.4490  -11.1880    9.7900 C   0  0  0  0  0  3  0  0  0  0  0  0
  -36.7020  -11.5740    8.4580 C   0  0  0  0  0  3  0  0  0  0  0  0
  -35.7150  -11.3890    7.4730 C   0  0  0  0  0  0  0  0  0  0  0  0
  -34.4730  -10.8240    7.8150 C   0  0  0  0  0  3  0  0  0  0  0  0
  -34.2200  -10.4400    9.1430 C   0  0  0  0  0  0  0  0  0  0  0  0
  -33.0290   -9.8780    9.4630 F   0  0  0  0  0  0  0  0  0  0  0  0
  -35.9590  -11.7510    6.1910 F   0  0  0  0  0  0  0  0  0  0  0  0
  -36.5520  -14.9290   15.9410 C   0  0  0  0  0  0  0  0  0  0  0  0
  -36.5710  -15.4420   14.7150 N   0  0  0  0  0  0  0  0  0  0  0  0
  -37.5780  -14.8610   16.6170 O   0  0  0  0  0  0  0  0  0  0  0  0
  -35.7260  -15.5140   14.1680 H   0  0  0  0  0  0  0  0  0  0  0  0
  -37.4420  -15.7690   14.3240 H   0  0  0  0  0  0  0  0  0  0  0  0
  -35.1110  -15.7290   18.6780 N   0  0  0  0  0  0  0  0  0  0  0  0
  -35.9580  -16.2790   18.5820 H   0  0  0  0  0  0  0  0  0  0  0  0
  -34.5450  -16.0240   19.4610 H   0  0  0  0  0  0  0  0  0  0  0  0
  -28.1490  -20.7120   20.4760 C   0  0  0  0  0  2  0  0  0  0  0  0
  -28.0790  -22.2480   20.1320 C   0  0  0  0  0  2  0  0  0  0  0  0
  -27.7250  -23.1420   21.2530 N   0  0  0  0  0  0  0  0  0  0  0  0
  -28.1850  -24.0450   21.1520 H   0  0  0  0  0  0  0  0  0  0  0  0
  -26.2820  -23.3510   21.5450 C   0  0  0  0  0  2  0  0  0  0  0  0
  -25.5320  -24.4890   20.7700 C   0  0  0  0  0  2  0  0  0  0  0  0
  -24.2930  -24.9010   21.4210 O   0  0  0  0  0  0  0  0  0  0  0  0
  -17.2500  -25.8280   20.6090 C   0  0  0  0  0  0  0  0  0  0  0  0
  -23.2880  -25.5260   20.6880 C   0  0  0  0  0  0  0  0  0  0  0  0
  -18.6620  -26.5780   18.7260 C   0  0  0  0  0  3  0  0  0  0  0  0
  -21.1700  -26.7110   19.1960 C   0  0  0  0  0  0  0  0  0  0  0  0
  -19.5790  -26.5770   21.1180 C   0  0  0  0  0  2  0  0  0  0  0  0
  -20.9610  -26.3420   20.5310 C   0  0  0  0  0  0  0  0  0  0  0  0
  -22.0180  -25.7630   21.2780 C   0  0  0  0  0  3  0  0  0  0  0  0
  -23.4760  -25.9360   19.3460 C   0  0  0  0  0  3  0  0  0  0  0  0
  -22.4290  -26.5140   18.6030 C   0  0  0  0  0  3  0  0  0  0  0  0
  -20.0000  -27.3160   18.4510 C   0  0  0  0  0  2  0  0  0  0  0  0
  -18.4620  -26.2870   20.1830 N   0  0  0  0  0  0  0  0  0  0  0  0
  -16.3030  -25.6840   19.8230 O   0  0  0  0  0  0  0  0  0  0  0  0
  -18.5940  -25.3190   17.8320 C   0  0  0  0  0  0  0  0  0  0  0  0
  -18.3630  -25.5200   16.5240 N   0  0  0  0  0  0  0  0  0  0  0  0
  -18.7720  -24.1960   18.3120 O   0  0  0  0  0  0  0  0  0  0  0  0
  -18.2220  -26.4690   16.2090 H   0  0  0  0  0  0  0  0  0  0  0  0
  -17.7740  -24.9480   13.0030 C   0  0  0  0  0  0  0  0  0  0  0  0
  -18.3000  -24.4850   15.4910 C   0  0  0  0  0  3  0  0  0  0  0  0
  -19.7160  -24.0880   15.0130 C   0  0  0  0  0  2  0  0  0  0  0  0
  -20.1800  -24.8770   13.7850 C   0  0  0  0  0  2  0  0  0  0  0  0
  -19.2150  -24.6640   12.6150 C   0  0  0  0  0  2  0  0  0  0  0  0
  -17.3480  -24.8780   14.3560 C   0  0  0  0  0  0  0  0  0  0  0  0
  -16.0060  -25.1830   14.6670 C   0  0  0  0  0  3  0  0  0  0  0  0
  -15.0970  -25.5490   13.6560 C   0  0  0  0  0  3  0  0  0  0  0  0
  -15.5200  -25.6000   12.3160 C   0  0  0  0  0  3  0  0  0  0  0  0
  -16.8540  -25.2960   11.9920 C   0  0  0  0  0  3  0  0  0  0  0  0
  -16.9890  -25.4840   22.1090 C   0  0  0  0  0  3  0  0  0  0  0  0
  -16.0870  -26.5120   22.6500 N   0  0  0  0  0  0  0  0  0  0  0  0
  -16.4820  -27.5590   23.3870 C   0  0  0  0  0  0  0  0  0  0  0  0
  -17.6520  -27.7210   23.7470 O   0  0  0  0  0  0  0  0  0  0  0  0
  -15.1240  -26.4720   22.3490 H   0  0  0  0  0  0  0  0  0  0  0  0
  -15.8930  -30.0020   23.4340 C   0  0  0  0  0  1  0  0  0  0  0  0
  -15.4100  -28.5870   23.7910 C   0  0  0  0  0  3  0  0  0  0  0  0
  -14.2010  -27.3930   25.5640 C   0  0  0  0  0  1  0  0  0  0  0  0
  -15.0520  -28.5320   25.2250 N   0  0  0  0  0  0  0  0  0  0  0  0
  -14.5720  -29.3820   25.5110 H   0  0  0  0  0  0  0  0  0  0  0  0
  -16.3820  -24.0430   22.3190 C   0  0  1  0  0  0  0  0  0  0  0  0
  -15.2230  -23.7100   21.3500 C   0  0  0  0  0  1  0  0  0  0  0  0
  -17.4710  -22.9600   22.1420 C   0  0  0  0  0  1  0  0  0  0  0  0
  -15.8550  -23.9030   23.7670 C   0  0  0  0  0  1  0  0  0  0  0  0
  1  3  1  0
  2  1  1  0
  4 11  2  0
  5  6  1  0
  7  6  1  0
  8 28  1  0
  8  7  1  0
  9  8  1  0
  9 10  1  0
 10  4  1  0
 10  5  1  0
 12 13  1  0
 15 22  1  0
 15 16  1  0
 15 12  1  0
 16 14  1  0
 16  1  1  0
 17  4  1  0
 17 14  1  0
 17 13  1  0
 18 19  1  0
 19 22  2  0
 20 23  1  0
 20 18  2  0
 21 22  1  0
 23 21  2  0
 24 23  1  0
 25 28  1  0
 25 50  1  0
 26 25  2  0
 27 26  1  0
 27 29  2  0
 29 28  1  0
 30 35  1  0
 30 27  1  0
 31 30  2  0
 32 33  2  0
 32 31  1  0
 33 34  1  0
 34 35  2  0
 36 33  1  0
 37 36  1  0
 38 37  1  0
 39 38  2  0
 40 41  2  0
 40 39  1  0
 41 42  1  0
 42 43  1  0
 42 37  2  0
 44 40  1  0
 45 26  1  0
 45 47  2  0
 46 45  1  0
 48 46  1  0
 49 46  1  0
 50 52  1  0
 51 50  1  0
 53  1  1  0
 54 53  1  0
 54 55  1  0
 55 57  1  0
 56 55  1  0
 58 59  1  0
 58 57  1  0
 61 66  1  0
 61 59  1  0
 62 72  1  0
 62 70  1  0
 63 65  1  0
 65 64  1  0
 65 66  2  0
 67 61  2  0
 68 63  2  0
 68 67  1  0
 69 62  1  0
 69 63  1  0
 70 60  1  0
 70 64  1  0
 71 60  2  0
 72 74  2  0
 73 72  1  0
 75 73  1  0
 76 81  1  0
 77 73  1  0
 78 77  1  0
 79 78  1  0
 80 76  1  0
 80 79  1  0
 81 82  2  0
 81 77  1  0
 83 82  1  0
 84 83  2  0
 85 84  1  0
 85 76  2  0
 86 60  1  0
 86 96  1  0
 86 87  1  0
 87 88  1  0
 88 89  2  0
 88 92  1  0
 90 87  1  0
 92 91  1  0
 92 94  1  0
 94 95  1  0
 94 93  1  0
 96 99  1  1
 97 96  1  0
 98 96  1  0
M  ISO  4   4 100  17 100  58 101  59 101
M  END
>  <TORSDO>  (38) 
F 22

>  <SCORE>  (38) 
-7.698

>  <name>  (38) 
37

>  <ligand_id>  (38) 
37

>  <original_smiles>  (38) 
[H]c1c([H])c([H])c2c(c1[H])C([H])([H])C([H])([H])C([H])([H])C2([H])N([H])C(=O)C1([H])N(C(=O)C([H])(N([H])C(=O)C([H])(N([H])C([H])([H])[H])C([H])([H])[H])C(C([H])([H])[H])(C([H])([H])[H])C([H])([H])[H])C([H])([H])c2c([H])c(OC([H])([H])C([H])([H])N([H])C([H])([H])C([H])([H])[N+]([H])([H])C3([H])C([H])([H])N(C(=O)N4C([H])([H])C([H])([H])C([H])([H])C([H])(n5nc(-c6c([H])c([H])c(Oc7c([H])c([H])c(F)c([H])c7F)c([H])c6[H])c(C(=O)N([H])[H])c5N([H])[H])C4([H])[H])C([H])([H])C([H])([H])C3([H])c3c([H])c([H])c([H])c(F)c3[H])c([H])c([H])c2C1([H])[H]

>  <smiles>  (38) 
[H]c1c([H])c([H])c2c(c1[H])C([H])([H])C([H])([H])C([H])([H])C2([H])N([H])C(=O)C1([H])N(C(=O)C([H])(N([H])C(=O)C([H])(N([H])C([H])([H])[H])C([H])([H])[H])C(C([H])([H])[H])(C([H])([H])[H])C([H])([H])[H])C([H])([H])c2c([H])c(OC([H])([H])C([H])([H])N([H])C([H])([H])C([H])([H])[N+]([H])([H])C3([H])C([H])([H])N(C(=O)N4C([H])([H])C([H])([H])C([H])([H])C([H])(n5nc(-c6c([H])c([H])c(Oc7c([H])c([H])c(F)c([H])c7F)c([H])c6[H])c(C(=O)N([H])[H])c5N([H])[H])C4([H])[H])C([H])([H])C([H])([H])C3([H])c3c([H])c([H])c([H])c(F)c3[H])c([H])c([H])c2C1([H])[H]

$$$$
38:0:0
     RDKit          3D

 98107  0  0  1  0  0  0  0  0999 V2000
  -27.0300  -22.5030   22.0370 C   0  0  0  0  0  2  0  0  0  0  0  0
  -28.3960  -21.8700   22.3050 C   0  0  0  0  0  2  0  0  0  0  0  0
  -27.4050  -23.6510   21.1080 C   0  0  0  0  0  2  0  0  0  0  0  0
  -29.1150  -21.9660   20.9490 C   0  0  0  0  0  3  0  0  0  0  0  0
  -28.5430  -23.1710   20.2740 N   0  0  2  0  0  4  0  0  0  0  0  0
  -28.1360  -22.7840   19.4320 H   0  0  0  0  0  0  0  0  0  0  0  0
  -28.8490  -20.6900   20.1300 C   0  0  0  0  0  0  0  0  0  0  0  0
  -29.6140  -19.6090   20.3800 N   0  0  0  0  0  0  0  0  0  0  0  0
  -27.9530  -20.6930   19.2840 O   0  0  0  0  0  0  0  0  0  0  0  0
  -30.3210  -19.6940   21.0990 H   0  0  0  0  0  0  0  0  0  0  0  0
  -31.5930  -15.2450   20.1820 C   0  0  0  0  0  0  0  0  0  0  0  0
  -31.3460  -12.9320   19.4220 C   0  0  0  0  0  2  0  0  0  0  0  0
  -30.4640  -12.9610   18.1570 C   0  0  0  0  0  2  0  0  0  0  0  0
  -28.9640  -12.8980   18.5220 C   0  0  0  0  0  2  0  0  0  0  0  0
  -28.5740  -13.8980   19.6430 C   0  0  0  0  0  3  0  0  0  0  0  0
  -29.5860  -13.8510   20.8130 C   0  0  0  0  0  2  0  0  0  0  0  0
  -30.9230  -14.0650   20.2540 N   0  0  0  0  0  0  0  0  0  0  0  0
  -32.8050  -15.2950   19.9650 O   0  0  0  0  0  0  0  0  0  0  0  0
  -30.4660  -18.2660   18.4800 C   0  0  0  0  0  0  0  0  0  0  0  0
  -30.6770  -19.2400   17.5790 C   0  0  0  0  0  2  0  0  0  0  0  0
  -31.2100  -16.9610   18.4890 C   0  0  0  0  0  2  0  0  0  0  0  0
  -29.9290  -17.1060   20.5310 C   0  0  0  0  0  2  0  0  0  0  0  0
  -29.5380  -18.3280   19.6680 C   0  0  0  0  0  3  0  0  0  0  0  0
  -30.8280  -16.2650   19.7230 N   0  0  0  0  0  0  0  0  0  0  0  0
  -26.1950  -14.6340   20.2970 C   0  0  0  0  0  0  0  0  0  0  0  0
  -25.0800  -13.9180   20.6440 C   0  0  0  0  0  0  0  0  0  0  0  0
  -25.4750  -12.5460   20.6270 C   0  0  0  0  0  0  0  0  0  0  0  0
  -27.1990  -13.6970   20.0940 N   0  0  0  0  0  0  0  0  0  0  0  0
  -26.7690  -12.4360   20.3520 N   0  0  0  0  0  0  0  0  0  0  0  0
  -24.6830  -11.3220   20.8000 C   0  0  0  0  0  0  0  0  0  0  0  0
  -25.0040  -10.3710   21.7920 C   0  0  0  0  0  3  0  0  0  0  0  0
  -24.2180   -9.2100   21.9530 C   0  0  0  0  0  3  0  0  0  0  0  0
  -23.0990   -8.9920   21.1150 C   0  0  0  0  0  0  0  0  0  0  0  0
  -22.7990   -9.9300   20.1110 C   0  0  0  0  0  3  0  0  0  0  0  0
  -23.5850  -11.0820   19.9500 C   0  0  0  0  0  3  0  0  0  0  0  0
  -22.2930   -7.8800   21.1820 O   0  0  0  0  0  0  0  0  0  0  0  0
  -22.0590   -7.2310   22.3660 C   0  0  0  0  0  0  0  0  0  0  0  0
  -21.4890   -7.8910   23.4780 C   0  0  0  0  0  3  0  0  0  0  0  0
  -21.2020   -7.1670   24.6520 C   0  0  0  0  0  3  0  0  0  0  0  0
  -21.4790   -5.7880   24.7150 C   0  0  0  0  0  0  0  0  0  0  0  0
  -22.0400   -5.1300   23.6080 C   0  0  0  0  0  3  0  0  0  0  0  0
  -22.3280   -5.8500   22.4360 C   0  0  0  0  0  0  0  0  0  0  0  0
  -22.8530   -5.2060   21.3640 F   0  0  0  0  0  0  0  0  0  0  0  0
  -21.1940   -5.0930   25.8410 F   0  0  0  0  0  0  0  0  0  0  0  0
  -23.7040  -14.4670   20.8860 C   0  0  0  0  0  0  0  0  0  0  0  0
  -22.9300  -13.8190   21.7510 N   0  0  0  0  0  0  0  0  0  0  0  0
  -23.3240  -15.5010   20.3400 O   0  0  0  0  0  0  0  0  0  0  0  0
  -23.2490  -12.9790   22.2100 H   0  0  0  0  0  0  0  0  0  0  0  0
  -22.0070  -14.1710   21.9600 H   0  0  0  0  0  0  0  0  0  0  0  0
  -26.4330  -15.9900   20.1200 N   0  0  0  0  0  0  0  0  0  0  0  0
  -25.6920  -16.6790   20.1910 H   0  0  0  0  0  0  0  0  0  0  0  0
  -27.3000  -16.3720   19.7690 H   0  0  0  0  0  0  0  0  0  0  0  0
  -29.5750  -24.1800   19.8570 C   0  0  0  0  0  2  0  0  0  0  0  0
  -29.1700  -25.6940   19.7540 C   0  0  0  0  0  3  0  0  0  0  0  0
  -28.9310  -26.2380   21.0400 O   0  0  0  0  0  0  0  0  0  0  0  0
  -28.5300  -27.0930   20.9000 H   0  0  0  0  0  0  0  0  0  0  0  0
  -27.9750  -26.0890   18.8530 C   0  0  0  0  0  2  0  0  0  0  0  0
  -27.9510  -27.5250   18.7140 O   0  0  0  0  0  0  0  0  0  0  0  0
  -24.6850  -31.9410   23.2600 C   0  0  0  0  0  0  0  0  0  0  0  0
  -26.7840  -28.2030   19.0230 C   0  0  0  0  0  0  0  0  0  0  0  0
  -23.2340  -30.8470   21.5810 C   0  0  0  0  0  3  0  0  0  0  0  0
  -24.4340  -29.6280   19.6960 C   0  0  0  0  0  0  0  0  0  0  0  0
  -25.7000  -31.2850   21.0750 C   0  0  0  0  0  2  0  0  0  0  0  0
  -25.6750  -30.0560   20.1880 C   0  0  0  0  0  0  0  0  0  0  0  0
  -26.8520  -29.3510   19.8480 C   0  0  0  0  0  3  0  0  0  0  0  0
  -25.5260  -27.8080   18.5140 C   0  0  0  0  0  3  0  0  0  0  0  0
  -24.3550  -28.5030   18.8590 C   0  0  0  0  0  3  0  0  0  0  0  0
  -23.2240  -30.4390   20.0860 C   0  0  0  0  0  2  0  0  0  0  0  0
  -24.5670  -31.3650   22.0290 N   0  0  0  0  0  0  0  0  0  0  0  0
  -23.7010  -32.0820   23.9990 O   0  0  0  0  0  0  0  0  0  0  0  0
  -22.7200  -29.6570   22.4240 C   0  0  0  0  0  0  0  0  0  0  0  0
  -21.4120  -29.3670   22.3210 N   0  0  0  0  0  0  0  0  0  0  0  0
  -23.4950  -29.0000   23.1250 O   0  0  0  0  0  0  0  0  0  0  0  0
  -20.8430  -29.9620   21.7360 H   0  0  0  0  0  0  0  0  0  0  0  0
  -18.2450  -27.6430   22.5830 C   0  0  0  0  0  0  0  0  0  0  0  0
  -20.7230  -28.2610   22.9850 C   0  0  0  0  0  3  0  0  0  0  0  0
  -21.0570  -26.9060   22.3150 C   0  0  0  0  0  2  0  0  0  0  0  0
  -20.0540  -26.5080   21.2260 C   0  0  0  0  0  2  0  0  0  0  0  0
  -18.6450  -26.3940   21.8150 C   0  0  0  0  0  2  0  0  0  0  0  0
  -19.2180  -28.5270   23.1170 C   0  0  0  0  0  0  0  0  0  0  0  0
  -18.7890  -29.6930   23.7860 C   0  0  0  0  0  3  0  0  0  0  0  0
  -17.4180  -29.9810   23.9260 C   0  0  0  0  0  3  0  0  0  0  0  0
  -16.4580  -29.0950   23.4060 C   0  0  0  0  0  3  0  0  0  0  0  0
  -16.8730  -27.9260   22.7430 C   0  0  0  0  0  3  0  0  0  0  0  0
  -26.0560  -32.4700   23.7900 C   0  0  0  0  0  3  0  0  0  0  0  0
  -25.8340  -33.8230   24.3190 N   0  0  0  0  0  0  0  0  0  0  0  0
  -26.1870  -34.9500   23.6880 C   0  0  0  0  0  0  0  0  0  0  0  0
  -26.8020  -34.9530   22.6170 O   0  0  0  0  0  0  0  0  0  0  0  0
  -25.2840  -33.8960   25.1620 H   0  0  0  0  0  0  0  0  0  0  0  0
  -24.5580  -36.8660   23.6370 C   0  0  0  0  0  1  0  0  0  0  0  0
  -25.7930  -36.2870   24.3450 C   0  0  0  0  0  3  0  0  0  0  0  0
  -28.0020  -36.9240   25.2110 C   0  0  0  0  0  1  0  0  0  0  0  0
  -26.8850  -37.2860   24.3410 N   0  0  0  0  0  0  0  0  0  0  0  0
  -26.5420  -38.2000   24.6250 H   0  0  0  0  0  0  0  0  0  0  0  0
  -26.6950  -31.5360   24.8910 C   0  0  1  0  0  0  0  0  0  0  0  0
  -25.7330  -31.1830   26.0490 C   0  0  0  0  0  1  0  0  0  0  0  0
  -27.1750  -30.2080   24.2630 C   0  0  0  0  0  1  0  0  0  0  0  0
  -27.9430  -32.2210   25.4930 C   0  0  0  0  0  1  0  0  0  0  0  0
  1  2  1  0
  3  1  1  0
  4  7  1  0
  4  2  1  0
  5  4  1  0
  5  3  1  0
  5  6  1  6
  7  8  1  0
  8 10  1  0
  9  7  2  0
 11 17  1  0
 12 17  1  0
 13 14  1  0
 13 12  1  0
 15 14  1  0
 15 28  1  0
 15 16  1  0
 17 16  1  0
 18 11  2  0
 19 21  1  0
 19 23  1  0
 20 19  2  0
 21 24  1  0
 23  8  1  0
 23 22  1  0
 24 11  1  0
 24 22  1  0
 25 26  2  0
 26 45  1  0
 27 26  1  0
 27 30  1  0
 28 25  1  0
 28 29  1  0
 29 27  2  0
 30 31  1  0
 31 32  2  0
 33 36  1  0
 33 32  1  0
 34 33  2  0
 35 34  1  0
 35 30  2  0
 36 37  1  0
 37 42  2  0
 37 38  1  0
 38 39  2  0
 39 40  1  0
 40 44  1  0
 41 40  2  0
 42 41  1  0
 43 42  1  0
 45 46  1  0
 46 49  1  0
 46 48  1  0
 47 45  2  0
 50 51  1  0
 50 25  1  0
 52 50  1  0
 53  5  1  0
 54 57  1  0
 54 53  1  0
 54 55  1  0
 56 55  1  0
 58 57  1  0
 58 60  1  0
 59 70  2  0
 60 65  1  0
 61 69  1  0
 61 71  1  0
 62 68  1  0
 62 64  1  0
 63 69  1  0
 64 63  1  0
 65 64  2  0
 66 67  1  0
 66 60  2  0
 67 62  2  0
 68 61  1  0
 69 59  1  0
 71 73  2  0
 72 71  1  0
 74 72  1  0
 75 84  2  0
 75 80  1  0
 76 72  1  0
 76 80  1  0
 77 76  1  0
 78 79  1  0
 78 77  1  0
 79 75  1  0
 80 81  2  0
 81 82  1  0
 83 82  2  0
 84 83  1  0
 85 59  1  0
 85 86  1  0
 85 95  1  0
 86 89  1  0
 87 86  1  0
 87 91  1  0
 88 87  2  0
 91 90  1  0
 93 91  1  0
 93 94  1  0
 93 92  1  0
 95 98  1  1
 95 96  1  0
 97 95  1  0
M  ISO  4  11 100  24 100  57 101  58 101
M  END
>  <TORSDO>  (39) 
F 21

>  <SCORE>  (39) 
-10.219

>  <name>  (39) 
38

>  <ligand_id>  (39) 
38

>  <original_smiles>  (39) 
[H]OC([H])(C([H])([H])Oc1c([H])c([H])c2c(c1[H])C([H])([H])N(C(=O)C([H])(N([H])C(=O)C([H])(N([H])C([H])([H])[H])C([H])([H])[H])C(C([H])([H])[H])(C([H])([H])[H])C([H])([H])[H])C([H])(C(=O)N([H])C1([H])c3c([H])c([H])c([H])c([H])c3C([H])([H])C([H])([H])C1([H])[H])C2([H])[H])C([H])([H])[N+]1([H])C([H])([H])C([H])([H])C([H])([H])C1([H])C(=O)N([H])C1([H])C(=C([H])[H])C([H])([H])N(C(=O)N2C([H])([H])C([H])([H])C([H])([H])C([H])(n3nc(-c4c([H])c([H])c(Oc5c([H])c([H])c(F)c([H])c5F)c([H])c4[H])c(C(=O)N([H])[H])c3N([H])[H])C2([H])[H])C1([H])[H]

>  <smiles>  (39) 
[H]OC([H])(C([H])([H])Oc1c([H])c([H])c2c(c1[H])C([H])([H])N(C(=O)C([H])(N([H])C(=O)C([H])(N([H])C([H])([H])[H])C([H])([H])[H])C(C([H])([H])[H])(C([H])([H])[H])C([H])([H])[H])C([H])(C(=O)N([H])C1([H])c3c([H])c([H])c([H])c([H])c3C([H])([H])C([H])([H])C1([H])[H])C2([H])[H])C([H])([H])[N+]1([H])C([H])([H])C([H])([H])C([H])([H])C1([H])C(=O)N([H])C1([H])C(=C([H])[H])C([H])([H])N(C(=O)N2C([H])([H])C([H])([H])C([H])([H])C([H])(n3nc(-c4c([H])c([H])c(Oc5c([H])c([H])c(F)c([H])c5F)c([H])c4[H])c(C(=O)N([H])[H])c3N([H])[H])C2([H])[H])C1([H])[H]

$$$$
39:0:0
     RDKit          3D

 94102  0  0  1  0  0  0  0  0999 V2000
  -28.3240  -22.4220   21.2190 C   0  0  0  0  0  0  0  0  0  0  0  0
  -28.1980  -21.0980   21.3440 N   0  0  0  0  0  0  0  0  0  0  0  0
  -27.9300  -23.1180   22.1550 O   0  0  0  0  0  0  0  0  0  0  0  0
  -27.8550  -20.8080   22.2470 H   0  0  0  0  0  0  0  0  0  0  0  0
  -29.3080  -17.8580   18.8780 C   0  0  0  0  0  3  0  0  0  0  0  0
  -28.4050  -18.8270   18.3870 C   0  0  0  0  0  3  0  0  0  0  0  0
  -29.4900  -19.0900   20.9670 C   0  0  0  0  0  3  0  0  0  0  0  0
  -29.8440  -17.9770   20.1790 C   0  0  0  0  0  0  0  0  0  0  0  0
  -28.6040  -20.0650   20.4710 C   0  0  0  0  0  0  0  0  0  0  0  0
  -28.0400  -19.9270   19.1850 C   0  0  0  0  0  0  0  0  0  0  0  0
  -27.1340  -20.8240   18.7240 F   0  0  0  0  0  0  0  0  0  0  0  0
  -30.8040  -16.9340   20.7390 C   0  0  0  0  0  2  0  0  0  0  0  0
  -30.8800  -14.5290   20.1270 C   0  0  0  0  0  0  0  0  0  0  0  0
  -30.4920  -12.3770   19.0140 C   0  0  0  0  0  2  0  0  0  0  0  0
  -29.5220  -12.6030   17.8410 C   0  0  0  0  0  2  0  0  0  0  0  0
  -28.0630  -12.4720   18.3240 C   0  0  0  0  0  2  0  0  0  0  0  0
  -27.7660  -13.3100   19.5970 C   0  0  0  0  0  3  0  0  0  0  0  0
  -28.8620  -13.1090   20.6690 C   0  0  0  0  0  2  0  0  0  0  0  0
  -30.1680  -13.3760   20.0450 N   0  0  0  0  0  0  0  0  0  0  0  0
  -31.9770  -14.6800   19.5880 O   0  0  0  0  0  0  0  0  0  0  0  0
  -30.2660  -15.5680   20.7080 N   0  0  0  0  0  0  0  0  0  0  0  0
  -29.3500  -15.4150   21.1010 H   0  0  0  0  0  0  0  0  0  0  0  0
  -25.3970  -13.9170   20.4110 C   0  0  0  0  0  0  0  0  0  0  0  0
  -24.3410  -13.1410   20.8090 C   0  0  0  0  0  0  0  0  0  0  0  0
  -24.7940  -11.7890   20.7400 C   0  0  0  0  0  0  0  0  0  0  0  0
  -26.4290  -13.0360   20.1250 N   0  0  0  0  0  0  0  0  0  0  0  0
  -26.0690  -11.7500   20.3770 N   0  0  0  0  0  0  0  0  0  0  0  0
  -24.0700  -10.5290   20.9420 C   0  0  0  0  0  0  0  0  0  0  0  0
  -24.5080   -9.5660   21.8780 C   0  0  0  0  0  3  0  0  0  0  0  0
  -23.7810   -8.3700   22.0700 C   0  0  0  0  0  3  0  0  0  0  0  0
  -22.6020   -8.1300   21.3240 C   0  0  0  0  0  0  0  0  0  0  0  0
  -22.1820   -9.0840   20.3810 C   0  0  0  0  0  3  0  0  0  0  0  0
  -22.9080  -10.2700   20.1880 C   0  0  0  0  0  3  0  0  0  0  0  0
  -21.8510   -6.9820   21.4180 O   0  0  0  0  0  0  0  0  0  0  0  0
  -21.7830   -6.2600   22.5830 C   0  0  0  0  0  0  0  0  0  0  0  0
  -21.3170   -6.8300   23.7880 C   0  0  0  0  0  3  0  0  0  0  0  0
  -21.1990   -6.0320   24.9430 C   0  0  0  0  0  3  0  0  0  0  0  0
  -21.5390   -4.6670   24.8960 C   0  0  0  0  0  0  0  0  0  0  0  0
  -21.9990   -4.0970   23.6970 C   0  0  0  0  0  3  0  0  0  0  0  0
  -22.1210   -4.8900   22.5430 C   0  0  0  0  0  0  0  0  0  0  0  0
  -22.5440   -4.3320   21.3820 F   0  0  0  0  0  0  0  0  0  0  0  0
  -21.4200   -3.8990   26.0040 F   0  0  0  0  0  0  0  0  0  0  0  0
  -22.9600  -13.6280   21.1410 C   0  0  0  0  0  0  0  0  0  0  0  0
  -22.2580  -12.9250   22.0230 N   0  0  0  0  0  0  0  0  0  0  0  0
  -22.5120  -14.6670   20.6590 O   0  0  0  0  0  0  0  0  0  0  0  0
  -22.6260  -12.0830   22.4410 H   0  0  0  0  0  0  0  0  0  0  0  0
  -21.3310  -13.2330   22.2780 H   0  0  0  0  0  0  0  0  0  0  0  0
  -25.5500  -15.2880   20.2430 N   0  0  0  0  0  0  0  0  0  0  0  0
  -24.7720  -15.9220   20.3910 H   0  0  0  0  0  0  0  0  0  0  0  0
  -26.3820  -15.7530   19.9020 H   0  0  0  0  0  0  0  0  0  0  0  0
  -29.0130  -23.0740   19.9970 C   0  0  0  0  0  2  0  0  0  0  0  0
  -28.3730  -24.4000   19.5130 C   0  0  0  0  0  2  0  0  0  0  0  0
  -28.3470  -25.5080   20.5880 C   0  0  0  0  0  2  0  0  0  0  0  0
  -28.4450  -26.8300   20.0690 O   0  0  0  0  0  0  0  0  0  0  0  0
  -24.5660  -31.9040   23.2140 C   0  0  0  0  0  0  0  0  0  0  0  0
  -27.2680  -27.5350   20.0870 C   0  0  0  0  0  0  0  0  0  0  0  0
  -23.3900  -30.5080   21.5460 C   0  0  0  0  0  3  0  0  0  0  0  0
  -24.8660  -29.0030   20.1160 C   0  0  0  0  0  0  0  0  0  0  0  0
  -25.9110  -30.8950   21.3730 C   0  0  0  0  0  2  0  0  0  0  0  0
  -26.0150  -29.5310   20.7190 C   0  0  0  0  0  0  0  0  0  0  0  0
  -27.2220  -28.8020   20.7050 C   0  0  0  0  0  3  0  0  0  0  0  0
  -26.1050  -27.0080   19.4900 C   0  0  0  0  0  3  0  0  0  0  0  0
  -24.9040  -27.7380   19.5030 C   0  0  0  0  0  3  0  0  0  0  0  0
  -23.6170  -29.8520   20.1580 C   0  0  0  0  0  2  0  0  0  0  0  0
  -24.6420  -31.1130   22.1050 N   0  0  0  0  0  0  0  0  0  0  0  0
  -23.4780  -32.1630   23.7410 O   0  0  0  0  0  0  0  0  0  0  0  0
  -22.7380  -29.4680   22.4800 C   0  0  0  0  0  0  0  0  0  0  0  0
  -21.4150  -29.2860   22.3420 N   0  0  0  0  0  0  0  0  0  0  0  0
  -23.4150  -28.8270   23.2850 O   0  0  0  0  0  0  0  0  0  0  0  0
  -20.9260  -29.8670   21.6790 H   0  0  0  0  0  0  0  0  0  0  0  0
  -18.0330  -28.1090   22.8040 C   0  0  0  0  0  0  0  0  0  0  0  0
  -20.5940  -28.3320   23.0870 C   0  0  0  0  0  3  0  0  0  0  0  0
  -20.6850  -26.9170   22.4640 C   0  0  0  0  0  2  0  0  0  0  0  0
  -19.5800  -26.6340   21.4440 C   0  0  0  0  0  2  0  0  0  0  0  0
  -18.1980  -26.7780   22.0900 C   0  0  0  0  0  2  0  0  0  0  0  0
  -19.1580  -28.8480   23.2560 C   0  0  0  0  0  0  0  0  0  0  0  0
  -18.9480  -30.1000   23.8770 C   0  0  0  0  0  3  0  0  0  0  0  0
  -17.6500  -30.6130   24.0460 C   0  0  0  0  0  3  0  0  0  0  0  0
  -16.5410  -29.8660   23.6170 C   0  0  0  0  0  3  0  0  0  0  0  0
  -16.7330  -28.6170   23.0010 C   0  0  0  0  0  3  0  0  0  0  0  0
  -25.8380  -32.5350   23.8570 C   0  0  0  0  0  3  0  0  0  0  0  0
  -25.5220  -33.9330   24.1820 N   0  0  0  0  0  0  0  0  0  0  0  0
  -25.8780  -34.9850   23.4340 C   0  0  0  0  0  0  0  0  0  0  0  0
  -26.5730  -34.8810   22.4190 O   0  0  0  0  0  0  0  0  0  0  0  0
  -24.9140  -34.0900   24.9710 H   0  0  0  0  0  0  0  0  0  0  0  0
  -24.1680  -36.7800   23.0210 C   0  0  0  0  0  1  0  0  0  0  0  0
  -25.3790  -36.3730   23.8770 C   0  0  0  0  0  3  0  0  0  0  0  0
  -27.4830  -37.2490   24.7890 C   0  0  0  0  0  1  0  0  0  0  0  0
  -26.4180  -37.4200   23.8050 N   0  0  0  0  0  0  0  0  0  0  0  0
  -26.0150  -38.3430   23.9340 H   0  0  0  0  0  0  0  0  0  0  0  0
  -26.3360  -31.7590   25.1370 C   0  0  1  0  0  0  0  0  0  0  0  0
  -25.2260  -31.5050   26.1820 C   0  0  0  0  0  1  0  0  0  0  0  0
  -26.9330  -30.3890   24.7430 C   0  0  0  0  0  1  0  0  0  0  0  0
  -27.4760  -32.5540   25.8200 C   0  0  0  0  0  1  0  0  0  0  0  0
  1  2  1  0
  1  3  2  0
  2  4  1  0
  5  8  1  0
  6  5  2  0
  6 10  1  0
  8 12  1  0
  8  7  2  0
  9  7  1  0
  9  2  1  0
 10  9  2  0
 11 10  1  0
 13 21  1  0
 14 19  1  0
 15 16  1  0
 15 14  1  0
 17 16  1  0
 17 26  1  0
 17 18  1  0
 19 13  1  0
 19 18  1  0
 20 13  2  0
 21 12  1  0
 21 22  1  0
 23 24  2  0
 24 43  1  0
 25 24  1  0
 25 28  1  0
 26 27  1  0
 26 23  1  0
 27 25  2  0
 28 29  1  0
 29 30  2  0
 31 34  1  0
 31 30  1  0
 32 31  2  0
 33 32  1  0
 33 28  2  0
 34 35  1  0
 35 36  1  0
 36 37  2  0
 38 37  1  0
 38 42  1  0
 39 38  2  0
 40 35  2  0
 40 39  1  0
 41 40  1  0
 43 44  1  0
 44 47  1  0
 44 46  1  0
 45 43  2  0
 48 49  1  0
 48 23  1  0
 50 48  1  0
 51  1  1  0
 52 51  1  0
 52 53  1  0
 54 56  1  0
 54 53  1  0
 55 66  2  0
 56 61  1  0
 57 65  1  0
 57 67  1  0
 58 64  1  0
 58 60  1  0
 59 65  1  0
 60 59  1  0
 61 60  2  0
 62 63  1  0
 62 56  2  0
 63 58  2  0
 64 57  1  0
 65 55  1  0
 67 69  2  0
 68 67  1  0
 70 68  1  0
 71 80  2  0
 71 76  1  0
 72 68  1  0
 72 76  1  0
 73 72  1  0
 74 75  1  0
 74 73  1  0
 75 71  1  0
 76 77  2  0
 77 78  1  0
 79 78  2  0
 80 79  1  0
 81 55  1  0
 81 82  1  0
 81 91  1  0
 82 85  1  0
 83 87  1  0
 83 82  1  0
 84 83  2  0
 87 86  1  0
 89 87  1  0
 89 90  1  0
 89 88  1  0
 91 94  1  1
 91 92  1  0
 93 91  1  0
M  ISO  4  13 100  21 100  53 101  54 101
M  END
>  <TORSDO>  (40) 
F 21

>  <SCORE>  (40) 
-13.764

>  <name>  (40) 
39

>  <ligand_id>  (40) 
39

>  <original_smiles>  (40) 
[H]c1c([H])c([H])c2c(c1[H])C([H])([H])C([H])([H])C([H])([H])C2([H])N([H])C(=O)C1([H])N(C(=O)C([H])(N([H])C(=O)C([H])(N([H])C([H])([H])[H])C([H])([H])[H])C(C([H])([H])[H])(C([H])([H])[H])C([H])([H])[H])C([H])([H])c2c([H])c(OC([H])([H])C([H])([H])C([H])([H])C(=O)N([H])c3c([H])c(C([H])([H])N([H])C(=O)N4C([H])([H])C([H])([H])C([H])([H])C([H])(n5nc(-c6c([H])c([H])c(Oc7c([H])c([H])c(F)c([H])c7F)c([H])c6[H])c(C(=O)N([H])[H])c5N([H])[H])C4([H])[H])c([H])c([H])c3F)c([H])c([H])c2C1([H])[H]

>  <smiles>  (40) 
[H]c1c([H])c([H])c2c(c1[H])C([H])([H])C([H])([H])C([H])([H])C2([H])N([H])C(=O)C1([H])N(C(=O)C([H])(N([H])C(=O)C([H])(N([H])C([H])([H])[H])C([H])([H])[H])C(C([H])([H])[H])(C([H])([H])[H])C([H])([H])[H])C([H])([H])c2c([H])c(OC([H])([H])C([H])([H])C([H])([H])C(=O)N([H])c3c([H])c(C([H])([H])N([H])C(=O)N4C([H])([H])C([H])([H])C([H])([H])C([H])(n5nc(-c6c([H])c([H])c(Oc7c([H])c([H])c(F)c([H])c7F)c([H])c6[H])c(C(=O)N([H])[H])c5N([H])[H])C4([H])[H])c([H])c([H])c3F)c([H])c([H])c2C1([H])[H]

$$$$
40:0:0
     RDKit          3D

 94103  0  0  1  0  0  0  0  0999 V2000
  -28.2210  -20.2110   20.3210 C   0  0  0  0  0  3  0  0  0  0  0  0
  -27.7670  -21.6240   20.2360 C   0  0  0  0  0  3  0  0  0  0  0  0
  -29.9160  -22.3990   20.4990 C   0  0  0  0  0  3  0  0  0  0  0  0
  -29.5860  -19.7580   20.5000 C   0  0  0  0  0  0  0  0  0  0  0  0
  -28.5540  -22.8560   20.3100 C   0  0  0  0  0  0  0  0  0  0  0  0
  -30.3760  -20.9920   20.6030 C   0  0  0  0  0  0  0  0  0  0  0  0
  -31.7100  -20.8260   20.7780 F   0  0  0  0  0  0  0  0  0  0  0  0
  -30.5180  -15.3000   20.5850 C   0  0  0  0  0  0  0  0  0  0  0  0
  -30.4790  -12.8680   19.7360 C   0  0  0  0  0  2  0  0  0  0  0  0
  -29.6140  -12.6610   18.4680 C   0  0  0  0  0  2  0  0  0  0  0  0
  -28.1510  -12.3880   18.8570 C   0  0  0  0  0  2  0  0  0  0  0  0
  -27.6490  -13.3710   19.9410 C   0  0  0  0  0  3  0  0  0  0  0  0
  -28.6470  -13.5620   21.1030 C   0  0  0  0  0  2  0  0  0  0  0  0
  -29.9100  -14.0240   20.5090 N   0  0  0  0  0  0  0  0  0  0  0  0
  -31.7560  -15.2580   20.5240 O   0  0  0  0  0  0  0  0  0  0  0  0
  -30.2960  -17.4790   18.2360 C   0  0  0  0  0  2  0  0  0  0  0  0
  -29.2560  -16.6990   19.0680 C   0  0  0  0  0  2  0  0  0  0  0  0
  -30.3260  -18.1780   20.5160 C   0  0  0  0  0  3  0  0  0  0  0  0
  -31.2020  -18.2130   19.2420 C   0  0  0  0  0  3  0  0  0  0  0  0
  -29.8270  -16.6030   20.4120 N   0  0  0  0  0  0  0  0  0  0  0  0
  -25.2550  -13.9330   20.5990 C   0  0  0  0  0  0  0  0  0  0  0  0
  -24.1810  -13.1540   20.9270 C   0  0  0  0  0  0  0  0  0  0  0  0
  -24.6550  -11.8060   20.9330 C   0  0  0  0  0  0  0  0  0  0  0  0
  -26.3080  -13.0570   20.4070 N   0  0  0  0  0  0  0  0  0  0  0  0
  -25.9580  -11.7730   20.6780 N   0  0  0  0  0  0  0  0  0  0  0  0
  -23.9280  -10.5410   21.1020 C   0  0  0  0  0  0  0  0  0  0  0  0
  -24.3280   -9.5800   22.0560 C   0  0  0  0  0  3  0  0  0  0  0  0
  -23.5970   -8.3820   22.2140 C   0  0  0  0  0  3  0  0  0  0  0  0
  -22.4550   -8.1380   21.4160 C   0  0  0  0  0  0  0  0  0  0  0  0
  -22.0750   -9.0870   20.4520 C   0  0  0  0  0  3  0  0  0  0  0  0
  -22.8050  -10.2780   20.2930 C   0  0  0  0  0  3  0  0  0  0  0  0
  -21.6990   -6.9930   21.4820 O   0  0  0  0  0  0  0  0  0  0  0  0
  -21.6090   -6.2560   22.6360 C   0  0  0  0  0  0  0  0  0  0  0  0
  -21.1140   -6.8090   23.8370 C   0  0  0  0  0  3  0  0  0  0  0  0
  -20.9720   -6.0000   24.9810 C   0  0  0  0  0  3  0  0  0  0  0  0
  -21.3170   -4.6350   24.9260 C   0  0  0  0  0  0  0  0  0  0  0  0
  -21.8060   -4.0810   23.7300 C   0  0  0  0  0  3  0  0  0  0  0  0
  -21.9490   -4.8880   22.5890 C   0  0  0  0  0  0  0  0  0  0  0  0
  -22.4000   -4.3440   21.4320 F   0  0  0  0  0  0  0  0  0  0  0  0
  -21.1760   -3.8540   26.0210 F   0  0  0  0  0  0  0  0  0  0  0  0
  -22.7720  -13.6270   21.1310 C   0  0  0  0  0  0  0  0  0  0  0  0
  -22.0130  -12.9420   21.9770 N   0  0  0  0  0  0  0  0  0  0  0  0
  -22.3530  -14.6410   20.5750 O   0  0  0  0  0  0  0  0  0  0  0  0
  -22.3650  -12.1210   22.4460 H   0  0  0  0  0  0  0  0  0  0  0  0
  -21.0670  -13.2460   22.1620 H   0  0  0  0  0  0  0  0  0  0  0  0
  -25.4240  -15.3020   20.4160 N   0  0  0  0  0  0  0  0  0  0  0  0
  -24.6570  -15.9610   20.4890 H   0  0  0  0  0  0  0  0  0  0  0  0
  -26.3000  -15.7390   20.1620 H   0  0  0  0  0  0  0  0  0  0  0  0
  -32.5140  -17.5550   19.4240 N   0  0  0  0  0  4  0  0  0  0  0  0
  -32.3960  -16.6330   19.8420 H   0  0  0  0  0  0  0  0  0  0  0  0
  -33.1040  -18.0970   20.0320 H   0  0  0  0  0  0  0  0  0  0  0  0
  -32.9920  -17.4480   18.5480 H   0  0  0  0  0  0  0  0  0  0  0  0
  -27.8690  -24.4260   20.0250 C   0  0  0  0  0  2  0  0  0  0  0  0
  -28.2210  -25.9790   20.3470 O   0  0  0  0  0  0  0  0  0  0  0  0
  -24.6320  -31.9090   23.2770 C   0  0  0  0  0  0  0  0  0  0  0  0
  -27.2230  -27.0750   20.2600 C   0  0  0  0  0  0  0  0  0  0  0  0
  -23.4500  -30.5100   21.6310 C   0  0  0  0  0  3  0  0  0  0  0  0
  -24.9120  -28.9230   20.2100 C   0  0  0  0  0  0  0  0  0  0  0  0
  -26.0150  -30.7390   21.4950 C   0  0  0  0  0  2  0  0  0  0  0  0
  -26.0940  -29.3350   20.8390 C   0  0  0  0  0  0  0  0  0  0  0  0
  -27.2440  -28.4300   20.8440 C   0  0  0  0  0  3  0  0  0  0  0  0
  -26.0130  -26.8130   19.5750 C   0  0  0  0  0  3  0  0  0  0  0  0
  -24.8950  -27.6810   19.5590 C   0  0  0  0  0  3  0  0  0  0  0  0
  -23.6860  -29.8330   20.2550 C   0  0  0  0  0  2  0  0  0  0  0  0
  -24.7200  -31.0800   22.1870 N   0  0  0  0  0  0  0  0  0  0  0  0
  -23.5410  -32.1930   23.7950 O   0  0  0  0  0  0  0  0  0  0  0  0
  -22.7600  -29.5070   22.5930 C   0  0  0  0  0  0  0  0  0  0  0  0
  -21.4320  -29.3360   22.4620 N   0  0  0  0  0  0  0  0  0  0  0  0
  -23.4260  -28.8830   23.4220 O   0  0  0  0  0  0  0  0  0  0  0  0
  -20.9470  -29.8970   21.7760 H   0  0  0  0  0  0  0  0  0  0  0  0
  -18.0530  -28.1110   22.9540 C   0  0  0  0  0  0  0  0  0  0  0  0
  -20.6100  -28.3930   23.2290 C   0  0  0  0  0  3  0  0  0  0  0  0
  -20.7220  -26.9610   22.6550 C   0  0  0  0  0  2  0  0  0  0  0  0
  -19.6260  -26.6320   21.6360 C   0  0  0  0  0  2  0  0  0  0  0  0
  -18.2400  -26.7660   22.2740 C   0  0  0  0  0  2  0  0  0  0  0  0
  -19.1640  -28.8820   23.3870 C   0  0  0  0  0  0  0  0  0  0  0  0
  -18.9320  -30.1400   23.9860 C   0  0  0  0  0  3  0  0  0  0  0  0
  -17.6230  -30.6290   24.1520 C   0  0  0  0  0  3  0  0  0  0  0  0
  -16.5260  -29.8580   23.7300 C   0  0  0  0  0  3  0  0  0  0  0  0
  -16.7410  -28.5990   23.1390 C   0  0  0  0  0  3  0  0  0  0  0  0
  -25.9000  -32.5530   23.9140 C   0  0  0  0  0  3  0  0  0  0  0  0
  -26.3880  -31.8000   25.2130 C   0  0  1  0  0  0  0  0  0  0  0  0
  -25.2720  -31.5820   26.2620 C   0  0  0  0  0  1  0  0  0  0  0  0
  -26.9750  -30.4150   24.8610 C   0  0  0  0  0  1  0  0  0  0  0  0
  -27.5270  -32.6050   25.8830 C   0  0  0  0  0  1  0  0  0  0  0  0
  -25.5810  -33.9560   24.2320 N   0  0  0  0  0  0  0  0  0  0  0  0
  -25.9170  -35.0100   23.4740 C   0  0  0  0  0  0  0  0  0  0  0  0
  -26.5900  -34.9030   22.4460 O   0  0  0  0  0  0  0  0  0  0  0  0
  -24.9830  -34.1110   25.0300 H   0  0  0  0  0  0  0  0  0  0  0  0
  -24.1930  -36.8130   23.1170 C   0  0  0  0  0  1  0  0  0  0  0  0
  -25.4330  -36.4030   23.9280 C   0  0  0  0  0  3  0  0  0  0  0  0
  -27.5660  -37.2950   24.7610 C   0  0  0  0  0  1  0  0  0  0  0  0
  -26.4680  -37.4550   23.8110 N   0  0  0  0  0  0  0  0  0  0  0  0
  -26.0620  -38.3760   23.9490 H   0  0  0  0  0  0  0  0  0  0  0  0
  1  4  1  0
  2  5  1  0
  2  1  2  0
  3  6  1  0
  4  6  2  0
  5  3  2  0
  6  7  1  0
  9 14  1  0
 10 11  1  0
 10  9  1  0
 12 11  1  0
 12 24  1  0
 12 13  1  0
 14  8  1  0
 14 13  1  0
 15  8  2  0
 16 17  1  0
 16 19  1  0
 17 20  1  0
 18  4  1  0
 19 49  1  0
 19 18  1  0
 20 18  1  0
 20  8  1  0
 21 22  2  0
 22 23  1  0
 22 41  1  0
 23 26  1  0
 24 21  1  0
 24 25  1  0
 25 23  2  0
 26 27  1  0
 27 28  2  0
 29 32  1  0
 29 28  1  0
 30 29  2  0
 31 30  1  0
 31 26  2  0
 32 33  1  0
 33 34  1  0
 34 35  2  0
 36 35  1  0
 36 40  1  0
 37 36  2  0
 38 33  2  0
 38 37  1  0
 39 38  1  0
 41 42  1  0
 42 45  1  0
 42 44  1  0
 43 41  2  0
 46 47  1  0
 46 21  1  0
 48 46  1  0
 49 50  1  0
 49 51  1  0
 52 49  1  0
 53  5  1  0
 53 54  1  0
 55 66  2  0
 56 54  1  0
 56 61  1  0
 57 65  1  0
 57 67  1  0
 58 64  1  0
 58 60  1  0
 59 65  1  0
 60 61  2  0
 60 59  1  0
 62 56  2  0
 63 62  1  0
 63 58  2  0
 64 57  1  0
 65 55  1  0
 67 69  2  0
 68 67  1  0
 70 68  1  0
 71 80  2  0
 71 76  1  0
 72 68  1  0
 72 76  1  0
 73 72  1  0
 74 75  1  0
 74 73  1  0
 75 71  1  0
 76 77  2  0
 77 78  1  0
 79 78  2  0
 80 79  1  0
 81 55  1  0
 81 86  1  0
 81 82  1  0
 82 85  1  1
 82 83  1  0
 84 82  1  0
 86 89  1  0
 87 91  1  0
 87 86  1  0
 88 87  2  0
 91 90  1  0
 93 91  1  0
 93 94  1  0
 93 92  1  0
M  ISO  4   8 100  20 100  53 101  54 101
M  END
>  <TORSDO>  (41) 
F 18

>  <SCORE>  (41) 
-15.960

>  <name>  (41) 
40

>  <ligand_id>  (41) 
40

>  <original_smiles>  (41) 
[H]c1c([H])c([H])c2c(c1[H])C([H])([H])C([H])([H])C([H])([H])C2([H])N([H])C(=O)C1([H])N(C(=O)C([H])(N([H])C(=O)C([H])(N([H])C([H])([H])[H])C([H])([H])[H])C(C([H])([H])[H])(C([H])([H])[H])C([H])([H])[H])C([H])([H])c2c([H])c(OC([H])([H])c3c([H])c([H])c(C4([H])N(C(=O)N5C([H])([H])C([H])([H])C([H])([H])C([H])(n6nc(-c7c([H])c([H])c(Oc8c([H])c([H])c(F)c([H])c8F)c([H])c7[H])c(C(=O)N([H])[H])c6N([H])[H])C5([H])[H])C([H])([H])C([H])([H])C4([H])[N+]([H])([H])[H])c(F)c3[H])c([H])c([H])c2C1([H])[H]

>  <smiles>  (41) 
[H]c1c([H])c([H])c2c(c1[H])C([H])([H])C([H])([H])C([H])([H])C2([H])N([H])C(=O)C1([H])N(C(=O)C([H])(N([H])C(=O)C([H])(N([H])C([H])([H])[H])C([H])([H])[H])C(C([H])([H])[H])(C([H])([H])[H])C([H])([H])[H])C([H])([H])c2c([H])c(OC([H])([H])c3c([H])c([H])c(C4([H])N(C(=O)N5C([H])([H])C([H])([H])C([H])([H])C([H])(n6nc(-c7c([H])c([H])c(Oc8c([H])c([H])c(F)c([H])c8F)c([H])c7[H])c(C(=O)N([H])[H])c6N([H])[H])C5([H])[H])C([H])([H])C([H])([H])C4([H])[N+]([H])([H])[H])c(F)c3[H])c([H])c([H])c2C1([H])[H]

$$$$
41:0:0
     RDKit          3D

 93101  0  0  1  0  0  0  0  0999 V2000
  -30.0740  -21.5820   21.2500 C   0  0  0  0  0  0  0  0  0  0  0  0
  -29.6560  -21.3600   22.3930 O   0  0  0  0  0  0  0  0  0  0  0  0
  -30.3430  -22.9620   20.7620 C   0  0  0  0  0  3  0  0  0  0  0  0
  -30.0320  -24.0650   21.4880 C   0  0  0  0  0  3  0  0  0  0  0  0
  -30.3660  -25.5100   21.1020 C   0  0  0  0  0  2  0  0  0  0  0  0
  -29.2620  -26.5740   21.3590 C   0  0  0  0  0  2  0  0  0  0  0  0
  -28.3950  -26.6500   20.2350 O   0  0  0  0  0  0  0  0  0  0  0  0
  -24.5550  -31.9260   23.2720 C   0  0  0  0  0  0  0  0  0  0  0  0
  -27.2720  -27.4500   20.3000 C   0  0  0  0  0  0  0  0  0  0  0  0
  -23.3810  -30.4970   21.6290 C   0  0  0  0  0  3  0  0  0  0  0  0
  -24.8680  -28.9440   20.2550 C   0  0  0  0  0  0  0  0  0  0  0  0
  -25.9090  -30.8600   21.4720 C   0  0  0  0  0  2  0  0  0  0  0  0
  -26.0130  -29.4760   20.8640 C   0  0  0  0  0  0  0  0  0  0  0  0
  -27.2180  -28.7340   20.8980 C   0  0  0  0  0  3  0  0  0  0  0  0
  -26.1150  -26.9400   19.6800 C   0  0  0  0  0  3  0  0  0  0  0  0
  -24.9120  -27.6700   19.6650 C   0  0  0  0  0  3  0  0  0  0  0  0
  -23.6190  -29.7980   20.2640 C   0  0  0  0  0  2  0  0  0  0  0  0
  -24.6330  -31.1100   22.1820 N   0  0  0  0  0  0  0  0  0  0  0  0
  -23.4650  -32.2020   23.7900 O   0  0  0  0  0  0  0  0  0  0  0  0
  -22.7170  -29.4870   22.5930 C   0  0  0  0  0  0  0  0  0  0  0  0
  -21.3930  -29.3080   22.4540 N   0  0  0  0  0  0  0  0  0  0  0  0
  -23.3910  -28.8670   23.4210 O   0  0  0  0  0  0  0  0  0  0  0  0
  -20.9120  -29.8590   21.7580 H   0  0  0  0  0  0  0  0  0  0  0  0
  -18.0060  -28.1520   22.9510 C   0  0  0  0  0  0  0  0  0  0  0  0
  -20.5660  -28.3800   23.2250 C   0  0  0  0  0  3  0  0  0  0  0  0
  -20.6530  -26.9480   22.6500 C   0  0  0  0  0  2  0  0  0  0  0  0
  -19.5480  -26.6370   21.6350 C   0  0  0  0  0  2  0  0  0  0  0  0
  -18.1670  -26.7990   22.2790 C   0  0  0  0  0  2  0  0  0  0  0  0
  -19.1330  -28.9000   23.3820 C   0  0  0  0  0  0  0  0  0  0  0  0
  -18.9290  -30.1680   23.9700 C   0  0  0  0  0  3  0  0  0  0  0  0
  -17.6300  -30.6850   24.1340 C   0  0  0  0  0  3  0  0  0  0  0  0
  -16.5180  -29.9330   23.7200 C   0  0  0  0  0  3  0  0  0  0  0  0
  -16.7060  -28.6680   23.1350 C   0  0  0  0  0  3  0  0  0  0  0  0
  -25.8310  -32.5690   23.9030 C   0  0  0  0  0  3  0  0  0  0  0  0
  -25.5130  -33.9700   24.2100 N   0  0  0  0  0  0  0  0  0  0  0  0
  -25.8610  -35.0120   23.4440 C   0  0  0  0  0  0  0  0  0  0  0  0
  -26.5530  -34.8980   22.4290 O   0  0  0  0  0  0  0  0  0  0  0  0
  -24.9000  -34.1330   24.9940 H   0  0  0  0  0  0  0  0  0  0  0  0
  -24.1400  -36.7980   23.0250 C   0  0  0  0  0  1  0  0  0  0  0  0
  -25.3610  -36.4050   23.8730 C   0  0  0  0  0  3  0  0  0  0  0  0
  -27.4740  -37.3000   24.7450 C   0  0  0  0  0  1  0  0  0  0  0  0
  -26.3950  -37.4580   23.7730 N   0  0  0  0  0  0  0  0  0  0  0  0
  -25.9850  -38.3790   23.9010 H   0  0  0  0  0  0  0  0  0  0  0  0
  -26.3340  -31.8130   25.1930 C   0  0  1  0  0  0  0  0  0  0  0  0
  -25.2270  -31.5730   26.2450 C   0  0  0  0  0  1  0  0  0  0  0  0
  -26.9380  -30.4390   24.8200 C   0  0  0  0  0  1  0  0  0  0  0  0
  -27.4660  -32.6250   25.8670 C   0  0  0  0  0  1  0  0  0  0  0  0
  -30.3350  -20.3770   20.3100 C   0  0  0  0  0  2  0  0  0  0  0  0
  -27.9300  -18.3780   19.1330 C   0  0  0  0  0  2  0  0  0  0  0  0
  -28.8250  -17.2110   19.5090 C   0  0  0  0  0  2  0  0  0  0  0  0
  -28.1000  -19.2990   20.3350 C   0  0  0  0  0  2  0  0  0  0  0  0
  -30.0080  -17.8470   20.2640 C   0  0  0  0  0  3  0  0  0  0  0  0
  -29.5260  -19.1920   20.7410 N   0  0  1  0  0  4  0  0  0  0  0  0
  -29.5470  -19.2260   21.7510 H   0  0  0  0  0  0  0  0  0  0  0  0
  -30.5590  -16.9200   21.3990 C   0  0  0  0  0  2  0  0  0  0  0  0
  -30.9470  -14.5370   20.5210 C   0  0  0  0  0  0  0  0  0  0  0  0
  -30.6700  -12.3580   19.3770 C   0  0  0  0  0  2  0  0  0  0  0  0
  -29.7480  -12.5260   18.1510 C   0  0  0  0  0  2  0  0  0  0  0  0
  -28.2640  -12.4070   18.5520 C   0  0  0  0  0  2  0  0  0  0  0  0
  -27.9070  -13.2830   19.7810 C   0  0  0  0  0  3  0  0  0  0  0  0
  -28.9320  -13.0660   20.9170 C   0  0  0  0  0  2  0  0  0  0  0  0
  -30.2760  -13.3580   20.3820 N   0  0  0  0  0  0  0  0  0  0  0  0
  -32.0430  -14.7610   20.0010 O   0  0  0  0  0  0  0  0  0  0  0  0
  -30.2700  -15.4840   21.1920 N   0  0  0  0  0  0  0  0  0  0  0  0
  -29.3980  -15.1600   21.5840 H   0  0  0  0  0  0  0  0  0  0  0  0
  -25.5020  -13.9480   20.4270 C   0  0  0  0  0  0  0  0  0  0  0  0
  -24.4120  -13.2040   20.7870 C   0  0  0  0  0  0  0  0  0  0  0  0
  -24.8460  -11.8430   20.7790 C   0  0  0  0  0  0  0  0  0  0  0  0
  -26.5360  -13.0440   20.2310 N   0  0  0  0  0  0  0  0  0  0  0  0
  -26.1410  -11.7730   20.4960 N   0  0  0  0  0  0  0  0  0  0  0  0
  -24.0900  -10.5990   20.9660 C   0  0  0  0  0  0  0  0  0  0  0  0
  -24.4890   -9.6280   21.9110 C   0  0  0  0  0  3  0  0  0  0  0  0
  -23.7350   -8.4470   22.0860 C   0  0  0  0  0  3  0  0  0  0  0  0
  -22.5680   -8.2300   21.3150 C   0  0  0  0  0  0  0  0  0  0  0  0
  -22.1890   -9.1900   20.3600 C   0  0  0  0  0  3  0  0  0  0  0  0
  -22.9430  -10.3610   20.1830 C   0  0  0  0  0  3  0  0  0  0  0  0
  -21.7890   -7.1020   21.3980 O   0  0  0  0  0  0  0  0  0  0  0  0
  -21.7140   -6.3630   22.5520 C   0  0  0  0  0  0  0  0  0  0  0  0
  -21.2900   -6.9310   23.7730 C   0  0  0  0  0  3  0  0  0  0  0  0
  -21.1600   -6.1200   24.9180 C   0  0  0  0  0  3  0  0  0  0  0  0
  -21.4420   -4.7430   24.8430 C   0  0  0  0  0  0  0  0  0  0  0  0
  -21.8600   -4.1750   23.6260 C   0  0  0  0  0  3  0  0  0  0  0  0
  -21.9920   -4.9830   22.4830 C   0  0  0  0  0  0  0  0  0  0  0  0
  -22.3740   -4.4280   21.3080 F   0  0  0  0  0  0  0  0  0  0  0  0
  -21.3110   -3.9620   25.9400 F   0  0  0  0  0  0  0  0  0  0  0  0
  -23.0200  -13.7140   21.0270 C   0  0  0  0  0  0  0  0  0  0  0  0
  -22.2680  -13.0540   21.9010 N   0  0  0  0  0  0  0  0  0  0  0  0
  -22.6090  -14.7340   20.4750 O   0  0  0  0  0  0  0  0  0  0  0  0
  -22.6130  -12.2300   22.3710 H   0  0  0  0  0  0  0  0  0  0  0  0
  -21.3330  -13.3800   22.1040 H   0  0  0  0  0  0  0  0  0  0  0  0
  -25.6900  -15.3120   20.2320 N   0  0  0  0  0  0  0  0  0  0  0  0
  -24.9190  -15.9680   20.2920 H   0  0  0  0  0  0  0  0  0  0  0  0
  -26.5320  -15.7220   19.8510 H   0  0  0  0  0  0  0  0  0  0  0  0
  1  2  2  0
  3  1  1  0
  3  4  2  0
  5  6  1  0
  5  4  1  0
  7  9  1  0
  7  6  1  0
  8 19  2  0
  9 14  1  0
 10 18  1  0
 10 20  1  0
 11 17  1  0
 11 13  1  0
 12 18  1  0
 13 14  2  0
 13 12  1  0
 15  9  2  0
 16 15  1  0
 16 11  2  0
 17 10  1  0
 18  8  1  0
 20 22  2  0
 21 20  1  0
 23 21  1  0
 24 33  2  0
 24 29  1  0
 25 21  1  0
 25 29  1  0
 26 25  1  0
 27 28  1  0
 27 26  1  0
 28 24  1  0
 29 30  2  0
 30 31  1  0
 32 31  2  0
 33 32  1  0
 34  8  1  0
 34 35  1  0
 34 44  1  0
 35 38  1  0
 36 40  1  0
 36 35  1  0
 37 36  2  0
 40 39  1  0
 42 40  1  0
 42 43  1  0
 42 41  1  0
 44 47  1  1
 44 45  1  0
 46 44  1  0
 48 53  1  0
 48  1  1  0
 49 50  1  0
 49 51  1  0
 50 52  1  0
 51 53  1  0
 52 53  1  0
 52 55  1  0
 53 54  1  1
 56 64  1  0
 57 62  1  0
 58 59  1  0
 58 57  1  0
 60 59  1  0
 60 69  1  0
 60 61  1  0
 62 56  1  0
 62 61  1  0
 63 56  2  0
 64 55  1  0
 64 65  1  0
 66 67  2  0
 67 86  1  0
 68 67  1  0
 68 71  1  0
 69 66  1  0
 69 70  1  0
 70 68  2  0
 71 72  1  0
 72 73  2  0
 74 77  1  0
 74 73  1  0
 75 74  2  0
 76 75  1  0
 76 71  2  0
 77 78  1  0
 78 79  1  0
 79 80  2  0
 81 80  1  0
 81 85  1  0
 82 81  2  0
 83 78  2  0
 83 82  1  0
 84 83  1  0
 86 87  1  0
 87 90  1  0
 87 89  1  0
 88 86  2  0
 91 92  1  0
 91 66  1  0
 93 91  1  0
M  ISO  4   6 101   7 101  56 100  64 100
M  END
>  <TORSDO>  (42) 
F 22

>  <SCORE>  (42) 
-13.607

>  <name>  (42) 
41

>  <ligand_id>  (42) 
41

>  <original_smiles>  (42) 
[H]C(C(=O)C([H])([H])[N+]1([H])C([H])([H])C([H])([H])C([H])([H])C1([H])C([H])([H])N([H])C(=O)N1C([H])([H])C([H])([H])C([H])([H])C([H])(n2nc(-c3c([H])c([H])c(Oc4c([H])c([H])c(F)c([H])c4F)c([H])c3[H])c(C(=O)N([H])[H])c2N([H])[H])C1([H])[H])=C([H])C([H])([H])C([H])([H])Oc1c([H])c([H])c2c(c1[H])C([H])([H])N(C(=O)C([H])(N([H])C(=O)C([H])(N([H])C([H])([H])[H])C([H])([H])[H])C(C([H])([H])[H])(C([H])([H])[H])C([H])([H])[H])C([H])(C(=O)N([H])C1([H])c3c([H])c([H])c([H])c([H])c3C([H])([H])C([H])([H])C1([H])[H])C2([H])[H]

>  <smiles>  (42) 
[H]C(C(=O)C([H])([H])[N+]1([H])C([H])([H])C([H])([H])C([H])([H])C1([H])C([H])([H])N([H])C(=O)N1C([H])([H])C([H])([H])C([H])([H])C([H])(n2nc(-c3c([H])c([H])c(Oc4c([H])c([H])c(F)c([H])c4F)c([H])c3[H])c(C(=O)N([H])[H])c2N([H])[H])C1([H])[H])=C([H])C([H])([H])C([H])([H])Oc1c([H])c([H])c2c(c1[H])C([H])([H])N(C(=O)C([H])(N([H])C(=O)C([H])(N([H])C([H])([H])[H])C([H])([H])[H])C(C([H])([H])[H])(C([H])([H])[H])C([H])([H])[H])C([H])(C(=O)N([H])C1([H])c3c([H])c([H])c([H])c([H])c3C([H])([H])C([H])([H])C1([H])[H])C2([H])[H]

$$$$
42:0:0
     RDKit          3D

 94102  0  0  1  0  0  0  0  0999 V2000
  -28.7550  -19.5860   20.2050 C   0  0  0  0  0  0  0  0  0  0  0  0
  -29.7120  -18.7040   20.9350 C   0  0  0  0  0  3  0  0  0  0  0  0
  -30.0740  -20.7000   21.8470 C   0  0  0  0  0  2  0  0  0  0  0  0
  -28.7960  -20.8760   20.9790 C   0  0  0  0  0  3  0  0  0  0  0  0
  -30.4170  -19.2780   21.8230 N   0  0  0  0  0  2  0  0  0  0  0  0
  -28.0990  -19.3270   19.1910 O   0  0  0  0  0  0  0  0  0  0  0  0
  -28.8220  -22.0080   20.0270 N   0  0  0  0  0  4  0  0  0  0  0  0
  -28.0610  -21.8590   19.3850 H   0  0  0  0  0  0  0  0  0  0  0  0
  -29.6700  -21.9720   19.4840 H   0  0  0  0  0  0  0  0  0  0  0  0
  -28.6740  -23.3350   20.6650 C   0  0  0  0  0  2  0  0  0  0  0  0
  -28.6180  -24.4870   19.6480 C   0  0  0  0  0  2  0  0  0  0  0  0
  -28.5830  -25.8510   20.3510 C   0  0  0  0  0  2  0  0  0  0  0  0
  -28.4330  -26.8960   19.3970 O   0  0  0  0  0  0  0  0  0  0  0  0
  -24.4940  -31.5640   22.9900 C   0  0  0  0  0  0  0  0  0  0  0  0
  -27.2280  -27.5410   19.4970 C   0  0  0  0  0  0  0  0  0  0  0  0
  -23.2830  -30.2150   21.3040 C   0  0  0  0  0  3  0  0  0  0  0  0
  -24.7500  -28.8590   19.7180 C   0  0  0  0  0  0  0  0  0  0  0  0
  -25.7670  -30.7410   21.0160 C   0  0  0  0  0  2  0  0  0  0  0  0
  -25.8990  -29.4230   20.2890 C   0  0  0  0  0  0  0  0  0  0  0  0
  -27.1420  -28.7690   20.1790 C   0  0  0  0  0  3  0  0  0  0  0  0
  -26.0690  -26.9730   18.9290 C   0  0  0  0  0  3  0  0  0  0  0  0
  -24.8260  -27.6290   19.0390 C   0  0  0  0  0  3  0  0  0  0  0  0
  -23.4610  -29.6340   19.8750 C   0  0  0  0  0  2  0  0  0  0  0  0
  -24.5350  -30.8490   21.8310 N   0  0  0  0  0  0  0  0  0  0  0  0
  -23.4300  -31.7360   23.5990 O   0  0  0  0  0  0  0  0  0  0  0  0
  -22.7320  -29.0990   22.2190 C   0  0  0  0  0  0  0  0  0  0  0  0
  -21.4200  -28.8380   22.1180 N   0  0  0  0  0  0  0  0  0  0  0  0
  -23.4800  -28.4700   22.9730 O   0  0  0  0  0  0  0  0  0  0  0  0
  -20.8680  -29.3970   21.4810 H   0  0  0  0  0  0  0  0  0  0  0  0
  -18.1540  -27.3690   22.5970 C   0  0  0  0  0  0  0  0  0  0  0  0
  -20.6930  -27.8020   22.8520 C   0  0  0  0  0  3  0  0  0  0  0  0
  -20.8930  -26.4160   22.1970 C   0  0  0  0  0  2  0  0  0  0  0  0
  -19.8010  -26.0680   21.1800 C   0  0  0  0  0  2  0  0  0  0  0  0
  -18.4200  -26.0760   21.8430 C   0  0  0  0  0  2  0  0  0  0  0  0
  -19.2220  -28.1860   23.0560 C   0  0  0  0  0  0  0  0  0  0  0  0
  -18.9220  -29.3980   23.7150 C   0  0  0  0  0  3  0  0  0  0  0  0
  -17.5860  -29.7960   23.9190 C   0  0  0  0  0  3  0  0  0  0  0  0
  -16.5340  -28.9730   23.4810 C   0  0  0  0  0  3  0  0  0  0  0  0
  -16.8190  -27.7630   22.8240 C   0  0  0  0  0  3  0  0  0  0  0  0
  -25.7740  -32.2210   23.5970 C   0  0  0  0  0  3  0  0  0  0  0  0
  -25.4150  -33.5780   24.0290 N   0  0  0  0  0  0  0  0  0  0  0  0
  -25.6790  -34.6930   23.3320 C   0  0  0  0  0  0  0  0  0  0  0  0
  -26.3240  -34.6860   22.2790 O   0  0  0  0  0  0  0  0  0  0  0  0
  -24.8390  -33.6540   24.8540 H   0  0  0  0  0  0  0  0  0  0  0  0
  -23.8660  -36.4220   23.1390 C   0  0  0  0  0  1  0  0  0  0  0  0
  -25.1450  -36.0240   23.8920 C   0  0  0  0  0  3  0  0  0  0  0  0
  -27.2610  -36.9500   24.7240 C   0  0  0  0  0  1  0  0  0  0  0  0
  -26.1270  -37.1270   23.8230 N   0  0  0  0  0  0  0  0  0  0  0  0
  -25.6850  -38.0180   24.0340 H   0  0  0  0  0  0  0  0  0  0  0  0
  -26.3870  -31.3960   24.7950 C   0  0  1  0  0  0  0  0  0  0  0  0
  -25.3600  -31.0430   25.8960 C   0  0  0  0  0  1  0  0  0  0  0  0
  -27.0070  -30.0760   24.2840 C   0  0  0  0  0  1  0  0  0  0  0  0
  -27.5350  -32.1970   25.4530 C   0  0  0  0  0  1  0  0  0  0  0  0
  -29.7580  -17.2100   20.6230 C   0  0  0  0  0  3  0  0  0  0  0  0
  -29.1540  -16.5180   21.5970 F   0  0  0  0  0  0  0  0  0  0  0  0
  -31.1830  -16.6430   20.4460 C   0  0  0  0  0  2  0  0  0  0  0  0
  -31.5660  -14.2700   19.6980 C   0  0  0  0  0  0  0  0  0  0  0  0
  -31.1240  -12.0150   18.7840 C   0  0  0  0  0  2  0  0  0  0  0  0
  -30.1440  -12.0970   17.5990 C   0  0  0  0  0  2  0  0  0  0  0  0
  -28.6870  -12.0740   18.1030 C   0  0  0  0  0  2  0  0  0  0  0  0
  -28.4370  -13.1170   19.2230 C   0  0  0  0  0  3  0  0  0  0  0  0
  -29.5070  -12.9770   20.3270 C   0  0  0  0  0  2  0  0  0  0  0  0
  -30.8410  -13.1230   19.7060 N   0  0  0  0  0  0  0  0  0  0  0  0
  -32.5410  -14.4700   18.9660 O   0  0  0  0  0  0  0  0  0  0  0  0
  -31.1010  -15.1910   20.5470 N   0  0  0  0  0  0  0  0  0  0  0  0
  -30.3690  -14.8600   21.1610 H   0  0  0  0  0  0  0  0  0  0  0  0
  -26.1600  -13.9870   20.0620 C   0  0  0  0  0  0  0  0  0  0  0  0
  -25.0410  -13.3370   20.5050 C   0  0  0  0  0  0  0  0  0  0  0  0
  -25.3500  -11.9420   20.4490 C   0  0  0  0  0  0  0  0  0  0  0  0
  -27.0880  -13.0000   19.7730 N   0  0  0  0  0  0  0  0  0  0  0  0
  -26.6050  -11.7640   20.0590 N   0  0  0  0  0  0  0  0  0  0  0  0
  -24.5050  -10.7670   20.6870 C   0  0  0  0  0  0  0  0  0  0  0  0
  -24.8160   -9.8250   21.6920 C   0  0  0  0  0  3  0  0  0  0  0  0
  -23.9790   -8.7110   21.9140 C   0  0  0  0  0  3  0  0  0  0  0  0
  -22.8150   -8.5300   21.1290 C   0  0  0  0  0  0  0  0  0  0  0  0
  -22.5220   -9.4590   20.1150 C   0  0  0  0  0  3  0  0  0  0  0  0
  -23.3590  -10.5660   19.8920 C   0  0  0  0  0  3  0  0  0  0  0  0
  -21.9590   -7.4620   21.2550 O   0  0  0  0  0  0  0  0  0  0  0  0
  -21.7000   -6.8880   22.4730 C   0  0  0  0  0  0  0  0  0  0  0  0
  -21.1630   -7.6310   23.5490 C   0  0  0  0  0  3  0  0  0  0  0  0
  -20.8460   -6.9870   24.7600 C   0  0  0  0  0  3  0  0  0  0  0  0
  -21.0550   -5.6030   24.8980 C   0  0  0  0  0  0  0  0  0  0  0  0
  -21.5810   -4.8600   23.8280 C   0  0  0  0  0  3  0  0  0  0  0  0
  -21.9010   -5.5000   22.6180 C   0  0  0  0  0  0  0  0  0  0  0  0
  -22.3900   -4.7760   21.5830 F   0  0  0  0  0  0  0  0  0  0  0  0
  -20.7420   -4.9830   26.0610 F   0  0  0  0  0  0  0  0  0  0  0  0
  -23.7250  -13.9640   20.8640 C   0  0  0  0  0  0  0  0  0  0  0  0
  -22.9910  -13.3590   21.7920 N   0  0  0  0  0  0  0  0  0  0  0  0
  -23.3640  -15.0260   20.3590 O   0  0  0  0  0  0  0  0  0  0  0  0
  -23.3010  -12.5010   22.2230 H   0  0  0  0  0  0  0  0  0  0  0  0
  -22.1100  -13.7630   22.0740 H   0  0  0  0  0  0  0  0  0  0  0  0
  -26.4560  -15.3300   19.8620 N   0  0  0  0  0  0  0  0  0  0  0  0
  -25.7580  -16.0540   19.9850 H   0  0  0  0  0  0  0  0  0  0  0  0
  -27.3120  -15.6700   19.4420 H   0  0  0  0  0  0  0  0  0  0  0  0
  1  2  1  0
  1  4  1  0
  2 54  1  0
  2  5  1  0
  4  7  1  0
  4  3  1  0
  5  3  1  0
  6  1  2  0
  7 10  1  0
  8  7  1  0
  9  7  1  0
 11 12  1  0
 11 10  1  0
 13 15  1  0
 13 12  1  0
 14 25  2  0
 15 20  1  0
 16 24  1  0
 16 26  1  0
 17 23  1  0
 17 19  1  0
 18 24  1  0
 19 18  1  0
 20 19  2  0
 21 22  1  0
 21 15  2  0
 22 17  2  0
 23 16  1  0
 24 14  1  0
 26 28  2  0
 27 26  1  0
 29 27  1  0
 30 39  2  0
 30 35  1  0
 31 27  1  0
 31 35  1  0
 32 31  1  0
 33 34  1  0
 33 32  1  0
 34 30  1  0
 35 36  2  0
 36 37  1  0
 38 37  2  0
 39 38  1  0
 40 14  1  0
 40 41  1  0
 40 50  1  0
 41 44  1  0
 42 46  1  0
 42 41  1  0
 43 42  2  0
 46 45  1  0
 48 46  1  0
 48 49  1  0
 48 47  1  0
 50 53  1  1
 50 51  1  0
 52 50  1  0
 54 55  1  0
 56 65  1  0
 56 54  1  0
 57 63  1  0
 57 65  1  0
 58 63  1  0
 59 60  1  0
 59 58  1  0
 61 60  1  0
 61 70  1  0
 61 62  1  0
 63 62  1  0
 64 57  2  0
 65 66  1  0
 67 68  2  0
 68 87  1  0
 69 68  1  0
 69 72  1  0
 70 71  1  0
 70 67  1  0
 71 69  2  0
 72 73  1  0
 73 74  2  0
 75 78  1  0
 75 74  1  0
 76 75  2  0
 77 76  1  0
 77 72  2  0
 78 79  1  0
 79 84  2  0
 79 80  1  0
 80 81  2  0
 81 82  1  0
 82 86  1  0
 83 82  2  0
 84 83  1  0
 85 84  1  0
 87 88  1  0
 88 91  1  0
 88 90  1  0
 89 87  2  0
 92 93  1  0
 92 67  1  0
 94 92  1  0
M  ISO  4  12 101  13 101  57 100  65 100
M  END
>  <TORSDO>  (43) 
F 22

>  <SCORE>  (43) 
-11.240

>  <name>  (43) 
42

>  <ligand_id>  (43) 
42

>  <original_smiles>  (43) 
[H]c1c([H])c([H])c2c(c1[H])C([H])([H])C([H])([H])C([H])([H])C2([H])N([H])C(=O)C1([H])N(C(=O)C([H])(N([H])C(=O)C([H])(N([H])C([H])([H])[H])C([H])([H])[H])C(C([H])([H])[H])(C([H])([H])[H])C([H])([H])[H])C([H])([H])c2c([H])c(OC([H])([H])C([H])([H])C([H])([H])[N+]([H])([H])C3([H])C(=O)C(C([H])(F)C([H])([H])N([H])C(=O)N4C([H])([H])C([H])([H])C([H])([H])C([H])(n5nc(-c6c([H])c([H])c(Oc7c([H])c([H])c(F)c([H])c7F)c([H])c6[H])c(C(=O)N([H])[H])c5N([H])[H])C4([H])[H])=NC3([H])[H])c([H])c([H])c2C1([H])[H]

>  <smiles>  (43) 
[H]c1c([H])c([H])c2c(c1[H])C([H])([H])C([H])([H])C([H])([H])C2([H])N([H])C(=O)C1([H])N(C(=O)C([H])(N([H])C(=O)C([H])(N([H])C([H])([H])[H])C([H])([H])[H])C(C([H])([H])[H])(C([H])([H])[H])C([H])([H])[H])C([H])([H])c2c([H])c(OC([H])([H])C([H])([H])C([H])([H])[N+]([H])([H])C3([H])C(=O)C(C([H])(F)C([H])([H])N([H])C(=O)N4C([H])([H])C([H])([H])C([H])([H])C([H])(n5nc(-c6c([H])c([H])c(Oc7c([H])c([H])c(F)c([H])c7F)c([H])c6[H])c(C(=O)N([H])[H])c5N([H])[H])C4([H])[H])=NC3([H])[H])c([H])c([H])c2C1([H])[H]

$$$$
43:0:0
     RDKit          3D

 99107  0  0  1  0  0  0  0  0999 V2000
  -29.8260  -18.7440   21.1780 C   0  0  0  0  0  0  0  0  0  0  0  0
  -29.7020  -20.0670   21.3540 N   0  0  0  0  0  0  0  0  0  0  0  0
  -29.2570  -17.9120   21.8870 O   0  0  0  0  0  0  0  0  0  0  0  0
  -30.2660  -20.6570   20.7620 H   0  0  0  0  0  0  0  0  0  0  0  0
  -32.5680  -17.4320   20.6780 C   0  0  0  0  0  2  0  0  0  0  0  0
  -30.7350  -18.3340   20.0020 C   0  0  0  0  0  3  0  0  0  0  0  0
  -31.3650  -16.9180   19.8690 C   0  0  0  0  0  3  0  0  0  0  0  0
  -32.1930  -18.8480   20.1900 C   0  0  0  0  0  3  0  0  0  0  0  0
  -31.3100  -14.5130   20.1980 C   0  0  0  0  0  0  0  0  0  0  0  0
  -30.8920  -12.2240   19.4290 C   0  0  0  0  0  2  0  0  0  0  0  0
  -29.9880  -12.2740   18.1830 C   0  0  0  0  0  2  0  0  0  0  0  0
  -28.5090  -12.2270   18.6080 C   0  0  0  0  0  2  0  0  0  0  0  0
  -28.1680  -13.2530   19.7240 C   0  0  0  0  0  3  0  0  0  0  0  0
  -29.2170  -13.2440   20.8610 C   0  0  0  0  0  2  0  0  0  0  0  0
  -30.5490  -13.3870   20.2610 N   0  0  0  0  0  0  0  0  0  0  0  0
  -32.4600  -14.4970   19.7600 O   0  0  0  0  0  0  0  0  0  0  0  0
  -30.7110  -15.7020   20.4020 N   0  0  0  0  0  0  0  0  0  0  0  0
  -29.7460  -15.7320   20.6950 H   0  0  0  0  0  0  0  0  0  0  0  0
  -25.8560  -13.9900   20.5760 C   0  0  0  0  0  0  0  0  0  0  0  0
  -24.7390  -13.2820   20.9230 C   0  0  0  0  0  0  0  0  0  0  0  0
  -25.0800  -11.9040   20.7690 C   0  0  0  0  0  0  0  0  0  0  0  0
  -26.8150  -13.0490   20.2350 N   0  0  0  0  0  0  0  0  0  0  0  0
  -26.3530  -11.7830   20.4120 N   0  0  0  0  0  0  0  0  0  0  0  0
  -24.2540  -10.6960   20.8880 C   0  0  0  0  0  0  0  0  0  0  0  0
  -24.6690   -9.5900   21.6610 C   0  0  0  0  0  3  0  0  0  0  0  0
  -23.8480   -8.4470   21.7760 C   0  0  0  0  0  3  0  0  0  0  0  0
  -22.5970   -8.4010   21.1160 C   0  0  0  0  0  0  0  0  0  0  0  0
  -22.1990   -9.4960   20.3270 C   0  0  0  0  0  3  0  0  0  0  0  0
  -23.0180  -10.6310   20.2100 C   0  0  0  0  0  3  0  0  0  0  0  0
  -21.7460   -7.3240   21.1490 O   0  0  0  0  0  0  0  0  0  0  0  0
  -21.7890   -6.4010   22.1640 C   0  0  0  0  0  0  0  0  0  0  0  0
  -21.6120   -6.7720   23.5160 C   0  0  0  0  0  3  0  0  0  0  0  0
  -21.5950   -5.7820   24.5190 C   0  0  0  0  0  3  0  0  0  0  0  0
  -21.7450   -4.4260   24.1740 C   0  0  0  0  0  0  0  0  0  0  0  0
  -21.9160   -4.0560   22.8280 C   0  0  0  0  0  3  0  0  0  0  0  0
  -21.9340   -5.0420   21.8250 C   0  0  0  0  0  0  0  0  0  0  0  0
  -22.0780   -4.6780   20.5280 F   0  0  0  0  0  0  0  0  0  0  0  0
  -21.7200   -3.4750   25.1370 F   0  0  0  0  0  0  0  0  0  0  0  0
  -23.3960  -13.8520   21.2810 C   0  0  0  0  0  0  0  0  0  0  0  0
  -22.6410  -13.1560   22.1270 N   0  0  0  0  0  0  0  0  0  0  0  0
  -23.0300  -14.9430   20.8500 O   0  0  0  0  0  0  0  0  0  0  0  0
  -22.9550  -12.2740   22.5000 H   0  0  0  0  0  0  0  0  0  0  0  0
  -21.7370  -13.5130   22.4030 H   0  0  0  0  0  0  0  0  0  0  0  0
  -26.1310  -15.3510   20.5020 N   0  0  0  0  0  0  0  0  0  0  0  0
  -25.4230  -16.0520   20.6970 H   0  0  0  0  0  0  0  0  0  0  0  0
  -27.0030  -15.7490   20.1780 H   0  0  0  0  0  0  0  0  0  0  0  0
  -32.8740  -19.2720   18.9370 N   0  0  0  0  0  4  0  0  0  0  0  0
  -32.7960  -18.5850   18.2080 H   0  0  0  0  0  0  0  0  0  0  0  0
  -33.8530  -19.4250   19.1020 H   0  0  0  0  0  0  0  0  0  0  0  0
  -32.4960  -20.1310   18.5800 H   0  0  0  0  0  0  0  0  0  0  0  0
  -28.8990  -20.7350   22.3740 C   0  0  0  0  0  2  0  0  0  0  0  0
  -28.8350  -22.2650   22.1460 C   0  0  0  0  0  2  0  0  0  0  0  0
  -28.0460  -22.7180   20.8890 C   0  0  0  0  0  2  0  0  0  0  0  0
  -28.7330  -23.7340   20.0450 N   0  0  0  0  0  4  0  0  0  0  0  0
  -28.2350  -23.7430   19.1670 H   0  0  0  0  0  0  0  0  0  0  0  0
  -29.6680  -23.4260   19.8330 H   0  0  0  0  0  0  0  0  0  0  0  0
  -28.7510  -25.1330   20.5560 C   0  0  0  0  0  2  0  0  0  0  0  0
  -29.2890  -26.1220   19.4820 C   0  0  0  0  0  2  0  0  0  0  0  0
  -29.1050  -27.5090   19.8020 O   0  0  0  0  0  0  0  0  0  0  0  0
  -24.6480  -31.7750   23.2770 C   0  0  0  0  0  0  0  0  0  0  0  0
  -27.8360  -28.0540   19.8010 C   0  0  0  0  0  0  0  0  0  0  0  0
  -23.6290  -30.4260   21.4700 C   0  0  0  0  0  3  0  0  0  0  0  0
  -25.2680  -29.2420   19.9140 C   0  0  0  0  0  0  0  0  0  0  0  0
  -26.0860  -31.1190   21.3470 C   0  0  0  0  0  2  0  0  0  0  0  0
  -26.3460  -29.8420   20.5750 C   0  0  0  0  0  0  0  0  0  0  0  0
  -27.6300  -29.2580   20.5130 C   0  0  0  0  0  3  0  0  0  0  0  0
  -26.7370  -27.4670   19.1310 C   0  0  0  0  0  3  0  0  0  0  0  0
  -25.4590  -28.0550   19.1890 C   0  0  0  0  0  3  0  0  0  0  0  0
  -23.9270  -29.9320   20.0270 C   0  0  0  0  0  2  0  0  0  0  0  0
  -24.8050  -31.1150   22.0950 N   0  0  0  0  0  0  0  0  0  0  0  0
  -23.5410  -31.8480   23.8280 O   0  0  0  0  0  0  0  0  0  0  0  0
  -23.1100  -29.2300   22.3020 C   0  0  0  0  0  0  0  0  0  0  0  0
  -21.8190  -28.9060   22.1410 N   0  0  0  0  0  0  0  0  0  0  0  0
  -23.8670  -28.6050   23.0480 O   0  0  0  0  0  0  0  0  0  0  0  0
  -21.2620  -29.4760   21.5190 H   0  0  0  0  0  0  0  0  0  0  0  0
  -18.6210  -27.2540   22.4370 C   0  0  0  0  0  0  0  0  0  0  0  0
  -21.1230  -27.7930   22.7870 C   0  0  0  0  0  3  0  0  0  0  0  0
  -21.4070  -26.4580   22.0610 C   0  0  0  0  0  2  0  0  0  0  0  0
  -20.3580  -26.1140   20.9980 C   0  0  0  0  0  2  0  0  0  0  0  0
  -18.9660  -26.0190   21.6260 C   0  0  0  0  0  2  0  0  0  0  0  0
  -19.6320  -28.0970   22.9700 C   0  0  0  0  0  0  0  0  0  0  0  0
  -19.2540  -29.2550   23.6840 C   0  0  0  0  0  3  0  0  0  0  0  0
  -17.8950  -29.5690   23.8770 C   0  0  0  0  0  3  0  0  0  0  0  0
  -16.8980  -28.7220   23.3630 C   0  0  0  0  0  3  0  0  0  0  0  0
  -17.2610  -27.5670   22.6460 C   0  0  0  0  0  3  0  0  0  0  0  0
  -25.8430  -32.4850   23.9850 C   0  0  0  0  0  3  0  0  0  0  0  0
  -25.4110  -33.8450   24.3290 N   0  0  0  0  0  0  0  0  0  0  0  0
  -25.7030  -34.9410   23.6160 C   0  0  0  0  0  0  0  0  0  0  0  0
  -26.4410  -34.9200   22.6280 O   0  0  0  0  0  0  0  0  0  0  0  0
  -24.7590  -33.9330   25.0960 H   0  0  0  0  0  0  0  0  0  0  0  0
  -23.8580  -36.5990   23.2040 C   0  0  0  0  0  1  0  0  0  0  0  0
  -25.0810  -36.2730   24.0750 C   0  0  0  0  0  3  0  0  0  0  0  0
  -27.0950  -37.3010   25.0370 C   0  0  0  0  0  1  0  0  0  0  0  0
  -26.0290  -37.4090   24.0430 N   0  0  0  0  0  0  0  0  0  0  0  0
  -25.5400  -38.2890   24.1930 H   0  0  0  0  0  0  0  0  0  0  0  0
  -26.3510  -31.7210   25.2690 C   0  0  1  0  0  0  0  0  0  0  0  0
  -25.2310  -31.3770   26.2770 C   0  0  0  0  0  1  0  0  0  0  0  0
  -27.0540  -30.4030   24.8670 C   0  0  0  0  0  1  0  0  0  0  0  0
  -27.4020  -32.5820   26.0100 C   0  0  0  0  0  1  0  0  0  0  0  0
  1  2  1  0
  1  3  2  0
  2 51  1  0
  4  2  1  0
  6  8  1  0
  6  1  1  0
  7  6  1  0
  7 17  1  0
  7  5  1  0
  8 47  1  0
  8  5  1  0
  9 15  1  0
  9 17  1  0
 10 15  1  0
 11 12  1  0
 11 10  1  0
 13 12  1  0
 13 22  1  0
 13 14  1  0
 15 14  1  0
 16  9  2  0
 17 18  1  0
 19 20  2  0
 20 39  1  0
 21 24  1  0
 21 20  1  0
 22 23  1  0
 22 19  1  0
 23 21  2  0
 24 25  1  0
 25 26  2  0
 27 30  1  0
 27 26  1  0
 28 27  2  0
 29 28  1  0
 29 24  2  0
 30 31  1  0
 31 32  1  0
 32 33  2  0
 34 33  1  0
 34 38  1  0
 35 34  2  0
 36 31  2  0
 36 35  1  0
 37 36  1  0
 39 40  1  0
 40 43  1  0
 40 42  1  0
 41 39  2  0
 44 19  1  0
 44 45  1  0
 46 44  1  0
 47 49  1  0
 48 47  1  0
 50 47  1  0
 52 51  1  0
 53 52  1  0
 54 57  1  0
 54 53  1  0
 55 54  1  0
 56 54  1  0
 58 59  1  0
 58 57  1  0
 60 71  2  0
 61 59  1  0
 61 66  1  0
 62 70  1  0
 62 72  1  0
 63 69  1  0
 63 65  1  0
 64 70  1  0
 65 64  1  0
 66 65  2  0
 67 68  1  0
 67 61  2  0
 68 63  2  0
 69 62  1  0
 70 60  1  0
 72 74  2  0
 73 72  1  0
 75 73  1  0
 76 85  2  0
 76 81  1  0
 77 73  1  0
 77 81  1  0
 78 77  1  0
 79 80  1  0
 79 78  1  0
 80 76  1  0
 81 82  2  0
 82 83  1  0
 84 83  2  0
 85 84  1  0
 86 60  1  0
 86 87  1  0
 86 96  1  0
 87 90  1  0
 88 92  1  0
 88 87  1  0
 89 88  2  0
 92 91  1  0
 94 92  1  0
 94 95  1  0
 94 93  1  0
 96 99  1  1
 96 97  1  0
 98 96  1  0
M  ISO  4   9 100  17 100  58 101  59 101
M  END
>  <TORSDO>  (44) 
F 24

>  <SCORE>  (44) 
-9.075

>  <name>  (44) 
43

>  <ligand_id>  (44) 
43

>  <original_smiles>  (44) 
[H]c1c([H])c([H])c2c(c1[H])C([H])([H])C([H])([H])C([H])([H])C2([H])N([H])C(=O)C1([H])N(C(=O)C([H])(N([H])C(=O)C([H])(N([H])C([H])([H])[H])C([H])([H])[H])C(C([H])([H])[H])(C([H])([H])[H])C([H])([H])[H])C([H])([H])c2c([H])c(OC([H])([H])C([H])([H])[N+]([H])([H])C([H])([H])C([H])([H])C([H])([H])N([H])C(=O)C3([H])C([H])(N([H])C(=O)N4C([H])([H])C([H])([H])C([H])([H])C([H])(n5nc(-c6c([H])c([H])c(Oc7c([H])c([H])c(F)c([H])c7F)c([H])c6[H])c(C(=O)N([H])[H])c5N([H])[H])C4([H])[H])C([H])([H])C3([H])[N+]([H])([H])[H])c([H])c([H])c2C1([H])[H]

>  <smiles>  (44) 
[H]c1c([H])c([H])c2c(c1[H])C([H])([H])C([H])([H])C([H])([H])C2([H])N([H])C(=O)C1([H])N(C(=O)C([H])(N([H])C(=O)C([H])(N([H])C([H])([H])[H])C([H])([H])[H])C(C([H])([H])[H])(C([H])([H])[H])C([H])([H])[H])C([H])([H])c2c([H])c(OC([H])([H])C([H])([H])[N+]([H])([H])C([H])([H])C([H])([H])C([H])([H])N([H])C(=O)C3([H])C([H])(N([H])C(=O)N4C([H])([H])C([H])([H])C([H])([H])C([H])(n5nc(-c6c([H])c([H])c(Oc7c([H])c([H])c(F)c([H])c7F)c([H])c6[H])c(C(=O)N([H])[H])c5N([H])[H])C4([H])[H])C([H])([H])C3([H])[N+]([H])([H])[H])c([H])c([H])c2C1([H])[H]

$$$$
44:0:0
     RDKit          3D

 89 97  0  0  1  0  0  0  0  0999 V2000
  -28.5990  -21.6060   20.6100 C   0  0  0  0  0  2  0  0  0  0  0  0
  -30.5890  -15.1170   20.2160 C   0  0  0  0  0  0  0  0  0  0  0  0
  -30.4520  -12.7460   19.3050 C   0  0  0  0  0  2  0  0  0  0  0  0
  -29.5010  -12.6430   18.0930 C   0  0  0  0  0  2  0  0  0  0  0  0
  -28.0540  -12.4000   18.5610 C   0  0  0  0  0  2  0  0  0  0  0  0
  -27.6460  -13.3310   19.7330 C   0  0  0  0  0  3  0  0  0  0  0  0
  -28.7270  -13.4250   20.8300 C   0  0  0  0  0  2  0  0  0  0  0  0
  -29.9630  -13.8640   20.1680 N   0  0  0  0  0  0  0  0  0  0  0  0
  -31.8130  -15.1060   20.0380 O   0  0  0  0  0  0  0  0  0  0  0  0
  -28.2340  -18.0960   19.0560 C   0  0  0  0  0  2  0  0  0  0  0  0
  -29.1990  -16.8300   18.9920 C   0  0  0  0  0  2  0  0  0  0  0  0
  -30.5020  -17.7360   20.7090 C   0  0  0  0  0  2  0  0  0  0  0  0
  -28.8080  -19.5810   18.9080 C   0  0  0  0  0  2  0  0  0  0  0  0
  -29.6440  -19.1010   21.1530 C   0  0  0  0  0  2  0  0  0  0  0  0
  -29.8850  -16.3860   20.2440 N   0  0  0  0  0  0  0  0  0  0  0  0
  -29.3480  -20.2550   20.1430 N   0  0  2  0  0  4  0  0  0  0  0  0
  -30.2650  -20.5850   19.8790 H   0  0  0  0  0  0  0  0  0  0  0  0
  -25.2900  -13.8840   20.5420 C   0  0  0  0  0  0  0  0  0  0  0  0
  -24.2370  -13.0990   20.9160 C   0  0  0  0  0  0  0  0  0  0  0  0
  -24.7060  -11.7510   20.8520 C   0  0  0  0  0  0  0  0  0  0  0  0
  -26.3300  -13.0140   20.2650 N   0  0  0  0  0  0  0  0  0  0  0  0
  -25.9910  -11.7250   20.5180 N   0  0  0  0  0  0  0  0  0  0  0  0
  -23.9890  -10.4830   21.0300 C   0  0  0  0  0  0  0  0  0  0  0  0
  -24.4140   -9.5190   21.9700 C   0  0  0  0  0  3  0  0  0  0  0  0
  -23.6940   -8.3170   22.1370 C   0  0  0  0  0  3  0  0  0  0  0  0
  -22.5360   -8.0690   21.3620 C   0  0  0  0  0  0  0  0  0  0  0  0
  -22.1310   -9.0210   20.4100 C   0  0  0  0  0  3  0  0  0  0  0  0
  -22.8510  -10.2140   20.2410 C   0  0  0  0  0  3  0  0  0  0  0  0
  -21.7890   -6.9180   21.4390 O   0  0  0  0  0  0  0  0  0  0  0  0
  -21.6900   -6.2010   22.6040 C   0  0  0  0  0  0  0  0  0  0  0  0
  -21.1620   -6.7670   23.7860 C   0  0  0  0  0  3  0  0  0  0  0  0
  -21.0140   -5.9740   24.9410 C   0  0  0  0  0  3  0  0  0  0  0  0
  -21.3840   -4.6160   24.9160 C   0  0  0  0  0  0  0  0  0  0  0  0
  -21.9030   -4.0490   23.7390 C   0  0  0  0  0  3  0  0  0  0  0  0
  -22.0530   -4.8390   22.5850 C   0  0  0  0  0  0  0  0  0  0  0  0
  -22.5360   -4.2840   21.4480 F   0  0  0  0  0  0  0  0  0  0  0  0
  -21.2330   -3.8510   26.0230 F   0  0  0  0  0  0  0  0  0  0  0  0
  -22.8430  -13.5660   21.2180 C   0  0  0  0  0  0  0  0  0  0  0  0
  -22.1280  -12.8460   22.0760 N   0  0  0  0  0  0  0  0  0  0  0  0
  -22.3970  -14.6040   20.7300 O   0  0  0  0  0  0  0  0  0  0  0  0
  -22.5030  -12.0070   22.4930 H   0  0  0  0  0  0  0  0  0  0  0  0
  -21.1930  -13.1410   22.3200 H   0  0  0  0  0  0  0  0  0  0  0  0
  -25.4470  -15.2600   20.3900 N   0  0  0  0  0  0  0  0  0  0  0  0
  -24.6820  -15.9110   20.5390 H   0  0  0  0  0  0  0  0  0  0  0  0
  -26.2970  -15.7110   20.0820 H   0  0  0  0  0  0  0  0  0  0  0  0
  -28.9140  -23.2190   20.1100 C   0  0  0  0  0  3  0  0  0  0  0  0
  -30.1600  -23.4730   20.5170 F   0  0  0  0  0  0  0  0  0  0  0  0
  -27.9930  -24.6160   20.5020 C   0  0  0  0  0  2  0  0  0  0  0  0
  -28.2570  -26.1570   20.2530 O   0  0  0  0  0  0  0  0  0  0  0  0
  -24.6050  -31.9000   23.2400 C   0  0  0  0  0  0  0  0  0  0  0  0
  -27.2040  -27.1580   20.2260 C   0  0  0  0  0  0  0  0  0  0  0  0
  -23.4170  -30.5020   21.5940 C   0  0  0  0  0  3  0  0  0  0  0  0
  -24.8770  -28.9250   20.1780 C   0  0  0  0  0  0  0  0  0  0  0  0
  -25.9730  -30.7630   21.4460 C   0  0  0  0  0  2  0  0  0  0  0  0
  -26.0540  -29.3660   20.7950 C   0  0  0  0  0  0  0  0  0  0  0  0
  -27.2190  -28.5010   20.7970 C   0  0  0  0  0  3  0  0  0  0  0  0
  -26.0010  -26.8340   19.5610 C   0  0  0  0  0  3  0  0  0  0  0  0
  -24.8660  -27.6740   19.5430 C   0  0  0  0  0  3  0  0  0  0  0  0
  -23.6480  -29.8240   20.2170 C   0  0  0  0  0  2  0  0  0  0  0  0
  -24.6860  -31.0780   22.1470 N   0  0  0  0  0  0  0  0  0  0  0  0
  -23.5150  -32.1840   23.7600 O   0  0  0  0  0  0  0  0  0  0  0  0
  -22.7340  -29.4950   22.5540 C   0  0  0  0  0  0  0  0  0  0  0  0
  -21.4060  -29.3240   22.4250 N   0  0  0  0  0  0  0  0  0  0  0  0
  -23.4030  -28.8680   23.3790 O   0  0  0  0  0  0  0  0  0  0  0  0
  -20.9230  -29.8770   21.7310 H   0  0  0  0  0  0  0  0  0  0  0  0
  -18.0250  -28.1300   22.9330 C   0  0  0  0  0  0  0  0  0  0  0  0
  -20.5850  -28.3840   23.1910 C   0  0  0  0  0  3  0  0  0  0  0  0
  -20.6800  -26.9560   22.6030 C   0  0  0  0  0  2  0  0  0  0  0  0
  -19.5730  -26.6460   21.5890 C   0  0  0  0  0  2  0  0  0  0  0  0
  -18.1960  -26.7870   22.2440 C   0  0  0  0  0  2  0  0  0  0  0  0
  -19.1470  -28.8870   23.3640 C   0  0  0  0  0  0  0  0  0  0  0  0
  -18.9330  -30.1420   23.9710 C   0  0  0  0  0  3  0  0  0  0  0  0
  -17.6300  -30.6430   24.1480 C   0  0  0  0  0  3  0  0  0  0  0  0
  -16.5220  -29.8840   23.7320 C   0  0  0  0  0  3  0  0  0  0  0  0
  -16.7210  -28.6290   23.1320 C   0  0  0  0  0  3  0  0  0  0  0  0
  -25.8760  -32.5400   23.8750 C   0  0  0  0  0  3  0  0  0  0  0  0
  -25.5630  -33.9430   24.1910 N   0  0  0  0  0  0  0  0  0  0  0  0
  -25.9030  -34.9930   23.4310 C   0  0  0  0  0  0  0  0  0  0  0  0
  -26.5800  -34.8800   22.4060 O   0  0  0  0  0  0  0  0  0  0  0  0
  -24.9620  -34.1050   24.9850 H   0  0  0  0  0  0  0  0  0  0  0  0
  -24.1910  -36.7980   23.0470 C   0  0  0  0  0  1  0  0  0  0  0  0
  -25.4200  -36.3880   23.8760 C   0  0  0  0  0  3  0  0  0  0  0  0
  -27.5440  -37.2690   24.7370 C   0  0  0  0  0  1  0  0  0  0  0  0
  -26.4590  -37.4350   23.7720 N   0  0  0  0  0  0  0  0  0  0  0  0
  -26.0560  -38.3590   23.9030 H   0  0  0  0  0  0  0  0  0  0  0  0
  -26.3670  -31.7860   25.1720 C   0  0  1  0  0  0  0  0  0  0  0  0
  -25.2560  -31.5650   26.2240 C   0  0  0  0  0  1  0  0  0  0  0  0
  -26.9530  -30.4000   24.8150 C   0  0  0  0  0  1  0  0  0  0  0  0
  -27.5080  -32.5860   25.8430 C   0  0  0  0  0  1  0  0  0  0  0  0
  2 15  1  0
  3  8  1  0
  4  5  1  0
  4  3  1  0
  6  5  1  0
  6 21  1  0
  6  7  1  0
  8  2  1  0
  8  7  1  0
  9  2  2  0
 11 10  1  0
 11 15  1  0
 12 14  1  0
 13 10  1  0
 13 16  1  0
 15 12  1  0
 16  1  1  0
 16 14  1  0
 16 17  1  6
 18 19  2  0
 19 38  1  0
 20 19  1  0
 20 23  1  0
 21 22  1  0
 21 18  1  0
 22 20  2  0
 23 24  1  0
 24 25  2  0
 26 29  1  0
 26 25  1  0
 27 26  2  0
 28 27  1  0
 28 23  2  0
 29 30  1  0
 30 31  1  0
 31 32  2  0
 33 32  1  0
 33 37  1  0
 34 33  2  0
 35 30  2  0
 35 34  1  0
 36 35  1  0
 38 39  1  0
 39 42  1  0
 39 41  1  0
 40 38  2  0
 43 44  1  0
 43 18  1  0
 45 43  1  0
 46 48  1  0
 46 47  1  0
 46  1  1  0
 49 48  1  0
 50 61  2  0
 51 49  1  0
 51 56  1  0
 52 60  1  0
 52 62  1  0
 53 59  1  0
 53 55  1  0
 54 60  1  0
 55 56  2  0
 55 54  1  0
 57 51  2  0
 58 57  1  0
 58 53  2  0
 59 52  1  0
 60 50  1  0
 62 64  2  0
 63 62  1  0
 65 63  1  0
 66 75  2  0
 66 71  1  0
 67 63  1  0
 67 71  1  0
 68 67  1  0
 69 70  1  0
 69 68  1  0
 70 66  1  0
 71 72  2  0
 72 73  1  0
 74 73  2  0
 75 74  1  0
 76 50  1  0
 76 77  1  0
 76 86  1  0
 77 80  1  0
 78 82  1  0
 78 77  1  0
 79 78  2  0
 82 81  1  0
 84 82  1  0
 84 85  1  0
 84 83  1  0
 86 89  1  1
 86 87  1  0
 88 86  1  0
M  ISO  4   2 100  15 100  48 101  49 101
M  END
>  <TORSDO>  (45) 
F 18

>  <SCORE>  (45) 
-15.831

>  <name>  (45) 
44

>  <ligand_id>  (45) 
44

>  <original_smiles>  (45) 
[H]c1c([H])c([H])c2c(c1[H])C([H])([H])C([H])([H])C([H])([H])C2([H])N([H])C(=O)C1([H])N(C(=O)C([H])(N([H])C(=O)C([H])(N([H])C([H])([H])[H])C([H])([H])[H])C(C([H])([H])[H])(C([H])([H])[H])C([H])([H])[H])C([H])([H])c2c([H])c(OC([H])([H])C([H])(F)C([H])([H])[N+]3([H])C([H])([H])C([H])([H])N(C(=O)N4C([H])([H])C([H])([H])C([H])([H])C([H])(n5nc(-c6c([H])c([H])c(Oc7c([H])c([H])c(F)c([H])c7F)c([H])c6[H])c(C(=O)N([H])[H])c5N([H])[H])C4([H])[H])C([H])([H])C([H])([H])C3([H])[H])c([H])c([H])c2C1([H])[H]

>  <smiles>  (45) 
[H]c1c([H])c([H])c2c(c1[H])C([H])([H])C([H])([H])C([H])([H])C2([H])N([H])C(=O)C1([H])N(C(=O)C([H])(N([H])C(=O)C([H])(N([H])C([H])([H])[H])C([H])([H])[H])C(C([H])([H])[H])(C([H])([H])[H])C([H])([H])[H])C([H])([H])c2c([H])c(OC([H])([H])C([H])(F)C([H])([H])[N+]3([H])C([H])([H])C([H])([H])N(C(=O)N4C([H])([H])C([H])([H])C([H])([H])C([H])(n5nc(-c6c([H])c([H])c(Oc7c([H])c([H])c(F)c([H])c7F)c([H])c6[H])c(C(=O)N([H])[H])c5N([H])[H])C4([H])[H])C([H])([H])C([H])([H])C3([H])[H])c([H])c([H])c2C1([H])[H]

$$$$
45:0:0
     RDKit          3D

 94102  0  0  1  0  0  0  0  0999 V2000
  -28.7490  -20.8860   22.0280 C   0  0  0  0  0  3  0  0  0  0  0  0
  -29.4280  -19.6500   21.9110 C   0  0  0  0  0  3  0  0  0  0  0  0
  -29.7900  -20.0980   19.5590 C   0  0  0  0  0  3  0  0  0  0  0  0
  -28.5920  -21.7610   20.9210 C   0  0  0  0  0  0  0  0  0  0  0  0
  -29.9520  -19.2300   20.6660 C   0  0  0  0  0  0  0  0  0  0  0  0
  -29.1140  -21.3400   19.6720 C   0  0  0  0  0  0  0  0  0  0  0  0
  -28.9500  -22.0990   18.5620 F   0  0  0  0  0  0  0  0  0  0  0  0
  -27.7390  -23.0080   21.0700 C   0  0  0  0  0  0  0  0  0  0  0  0
  -28.1610  -24.2320   20.6940 N   0  0  0  0  0  0  0  0  0  0  0  0
  -26.6150  -22.8960   21.5680 O   0  0  0  0  0  0  0  0  0  0  0  0
  -27.4720  -24.9630   20.8000 H   0  0  0  0  0  0  0  0  0  0  0  0
  -29.5090  -24.7260   20.4050 C   0  0  0  0  0  2  0  0  0  0  0  0
  -29.5220  -25.9850   19.4960 C   0  0  0  0  0  2  0  0  0  0  0  0
  -29.1760  -27.1970   20.1850 O   0  0  0  0  0  0  0  0  0  0  0  0
  -24.8350  -31.8680   23.2970 C   0  0  0  0  0  0  0  0  0  0  0  0
  -27.9140  -27.7620   20.1370 C   0  0  0  0  0  0  0  0  0  0  0  0
  -23.8100  -30.4440   21.5730 C   0  0  0  0  0  3  0  0  0  0  0  0
  -25.4000  -29.0760   20.1270 C   0  0  0  0  0  0  0  0  0  0  0  0
  -26.2890  -31.0060   21.4540 C   0  0  0  0  0  2  0  0  0  0  0  0
  -26.4930  -29.6660   20.7690 C   0  0  0  0  0  0  0  0  0  0  0  0
  -27.7450  -29.0130   20.7750 C   0  0  0  0  0  3  0  0  0  0  0  0
  -26.7950  -27.1740   19.4990 C   0  0  0  0  0  3  0  0  0  0  0  0
  -25.5440  -27.8260   19.4980 C   0  0  0  0  0  3  0  0  0  0  0  0
  -24.0930  -29.8350   20.1710 C   0  0  0  0  0  2  0  0  0  0  0  0
  -24.9970  -31.1190   22.1690 N   0  0  0  0  0  0  0  0  0  0  0  0
  -23.7190  -32.0290   23.8090 O   0  0  0  0  0  0  0  0  0  0  0  0
  -23.2180  -29.3500   22.4840 C   0  0  0  0  0  0  0  0  0  0  0  0
  -21.9120  -29.1790   22.3100 N   0  0  0  0  0  0  0  0  0  0  0  0
  -23.9070  -28.6850   23.2580 O   0  0  0  0  0  0  0  0  0  0  0  0
  -21.4730  -29.8860   21.7340 H   0  0  0  0  0  0  0  0  0  0  0  0
  -18.6020  -27.4640   22.5700 C   0  0  0  0  0  0  0  0  0  0  0  0
  -21.0340  -28.0780   22.6140 C   0  0  0  0  0  3  0  0  0  0  0  0
  -21.4220  -26.6150   22.3640 C   0  0  0  0  0  2  0  0  0  0  0  0
  -20.3990  -26.0040   21.3820 C   0  0  0  0  0  2  0  0  0  0  0  0
  -18.9490  -26.1330   21.9000 C   0  0  0  0  0  2  0  0  0  0  0  0
  -19.6070  -28.3530   23.0190 C   0  0  0  0  0  0  0  0  0  0  0  0
  -19.2570  -29.5630   23.6530 C   0  0  0  0  0  3  0  0  0  0  0  0
  -17.9010  -29.9100   23.7970 C   0  0  0  0  0  3  0  0  0  0  0  0
  -16.8980  -29.0470   23.3220 C   0  0  0  0  0  3  0  0  0  0  0  0
  -17.2470  -27.8220   22.7230 C   0  0  0  0  0  3  0  0  0  0  0  0
  -26.0460  -32.5720   23.9860 C   0  0  0  0  0  3  0  0  0  0  0  0
  -25.6390  -33.9510   24.2870 N   0  0  0  0  0  0  0  0  0  0  0  0
  -25.9440  -35.0110   23.5270 C   0  0  0  0  0  0  0  0  0  0  0  0
  -26.6670  -34.9350   22.5300 O   0  0  0  0  0  0  0  0  0  0  0  0
  -25.0060  -34.0820   25.0620 H   0  0  0  0  0  0  0  0  0  0  0  0
  -24.1370  -36.6990   23.0680 C   0  0  0  0  0  1  0  0  0  0  0  0
  -25.3570  -36.3720   23.9440 C   0  0  0  0  0  3  0  0  0  0  0  0
  -27.3930  -37.3900   24.8670 C   0  0  0  0  0  1  0  0  0  0  0  0
  -26.3320  -37.4830   23.8680 N   0  0  0  0  0  0  0  0  0  0  0  0
  -25.8660  -38.3790   23.9830 H   0  0  0  0  0  0  0  0  0  0  0  0
  -26.5320  -31.8310   25.2910 C   0  0  1  0  0  0  0  0  0  0  0  0
  -25.3980  -31.5210   26.2930 C   0  0  0  0  0  1  0  0  0  0  0  0
  -27.2270  -30.4960   24.9330 C   0  0  0  0  0  1  0  0  0  0  0  0
  -27.5840  -32.7000   26.0190 C   0  0  0  0  0  1  0  0  0  0  0  0
  -30.7310  -17.9040   20.5120 C   0  0  0  0  0  2  0  0  0  0  0  0
  -30.2570  -16.6780   21.3560 C   0  0  0  0  0  2  0  0  0  0  0  0
  -31.3700  -14.7730   20.1590 C   0  0  0  0  0  0  0  0  0  0  0  0
  -30.9250  -12.6610   18.9580 C   0  0  0  0  0  2  0  0  0  0  0  0
  -29.9460  -12.8610   17.7840 C   0  0  0  0  0  2  0  0  0  0  0  0
  -28.4930  -12.7370   18.2780 C   0  0  0  0  0  2  0  0  0  0  0  0
  -28.2110  -13.6060   19.5330 C   0  0  0  0  0  3  0  0  0  0  0  0
  -29.2960  -13.3990   20.6130 C   0  0  0  0  0  2  0  0  0  0  0  0
  -30.6150  -13.6490   20.0060 N   0  0  0  0  0  0  0  0  0  0  0  0
  -32.3540  -15.0200   19.4590 O   0  0  0  0  0  0  0  0  0  0  0  0
  -31.1500  -15.5050   21.2600 N   0  0  0  0  0  0  0  0  0  0  0  0
  -32.0390  -15.7250   21.6840 H   0  0  0  0  0  0  0  0  0  0  0  0
  -25.8530  -14.2520   20.3410 C   0  0  0  0  0  0  0  0  0  0  0  0
  -24.7820  -13.5010   20.7430 C   0  0  0  0  0  0  0  0  0  0  0  0
  -25.2070  -12.1390   20.6700 C   0  0  0  0  0  0  0  0  0  0  0  0
  -26.8690  -13.3520   20.0570 N   0  0  0  0  0  0  0  0  0  0  0  0
  -26.4830  -12.0740   20.3080 N   0  0  0  0  0  0  0  0  0  0  0  0
  -24.4560  -10.8930   20.8630 C   0  0  0  0  0  0  0  0  0  0  0  0
  -24.8340   -9.9470   21.8420 C   0  0  0  0  0  3  0  0  0  0  0  0
  -24.0820   -8.7660   22.0240 C   0  0  0  0  0  3  0  0  0  0  0  0
  -22.9400   -8.5210   21.2250 C   0  0  0  0  0  0  0  0  0  0  0  0
  -22.5820   -9.4550   20.2370 C   0  0  0  0  0  3  0  0  0  0  0  0
  -23.3340  -10.6290   20.0540 C   0  0  0  0  0  3  0  0  0  0  0  0
  -22.1650   -7.3890   21.3150 O   0  0  0  0  0  0  0  0  0  0  0  0
  -21.9560   -6.7530   22.5130 C   0  0  0  0  0  0  0  0  0  0  0  0
  -21.3650   -7.4110   23.6130 C   0  0  0  0  0  3  0  0  0  0  0  0
  -21.1050   -6.7000   24.8010 C   0  0  0  0  0  3  0  0  0  0  0  0
  -21.4240   -5.3320   24.8880 C   0  0  0  0  0  0  0  0  0  0  0  0
  -22.0060   -4.6740   23.7920 C   0  0  0  0  0  3  0  0  0  0  0  0
  -22.2700   -5.3820   22.6060 C   0  0  0  0  0  0  0  0  0  0  0  0
  -22.8120   -4.7370   21.5450 F   0  0  0  0  0  0  0  0  0  0  0  0
  -21.1670   -4.6470   26.0280 F   0  0  0  0  0  0  0  0  0  0  0  0
  -23.4110  -14.0100   21.0800 C   0  0  0  0  0  0  0  0  0  0  0  0
  -22.7070  -13.3300   21.9780 N   0  0  0  0  0  0  0  0  0  0  0  0
  -22.9750  -15.0490   20.5860 O   0  0  0  0  0  0  0  0  0  0  0  0
  -23.0760  -12.4930   22.4040 H   0  0  0  0  0  0  0  0  0  0  0  0
  -21.7860  -13.6510   22.2380 H   0  0  0  0  0  0  0  0  0  0  0  0
  -26.0340  -15.6210   20.1750 N   0  0  0  0  0  0  0  0  0  0  0  0
  -25.2580  -16.2680   20.2730 H   0  0  0  0  0  0  0  0  0  0  0  0
  -26.8680  -16.0590   19.8050 H   0  0  0  0  0  0  0  0  0  0  0  0
  2  1  1  0
  3  6  2  0
  3  5  1  0
  4  8  1  0
  4  1  2  0
  5  2  2  0
  6  4  1  0
  7  6  1  0
  8 10  2  0
  9 11  1  0
  9  8  1  0
 12  9  1  0
 13 14  1  0
 13 12  1  0
 15 26  2  0
 16 14  1  0
 16 21  1  0
 17 25  1  0
 17 27  1  0
 18 24  1  0
 18 20  1  0
 19 25  1  0
 20 21  2  0
 20 19  1  0
 22 16  2  0
 23 22  1  0
 23 18  2  0
 24 17  1  0
 25 15  1  0
 27 29  2  0
 28 27  1  0
 30 28  1  0
 31 40  2  0
 31 36  1  0
 32 28  1  0
 32 36  1  0
 33 32  1  0
 34 35  1  0
 34 33  1  0
 35 31  1  0
 36 37  2  0
 37 38  1  0
 39 38  2  0
 40 39  1  0
 41 15  1  0
 41 42  1  0
 41 51  1  0
 42 45  1  0
 43 47  1  0
 43 42  1  0
 44 43  2  0
 47 46  1  0
 49 47  1  0
 49 50  1  0
 49 48  1  0
 51 54  1  1
 51 52  1  0
 53 51  1  0
 55  5  1  0
 55 56  1  0
 57 65  1  0
 58 63  1  0
 59 60  1  0
 59 58  1  0
 61 60  1  0
 61 70  1  0
 61 62  1  0
 63 57  1  0
 63 62  1  0
 64 57  2  0
 65 56  1  0
 65 66  1  0
 67 68  2  0
 68 87  1  0
 69 68  1  0
 69 72  1  0
 70 71  1  0
 70 67  1  0
 71 69  2  0
 72 73  1  0
 73 74  2  0
 75 78  1  0
 75 74  1  0
 76 75  2  0
 77 76  1  0
 77 72  2  0
 78 79  1  0
 79 84  2  0
 79 80  1  0
 80 81  2  0
 81 82  1  0
 82 86  1  0
 83 82  2  0
 84 83  1  0
 85 84  1  0
 87 88  1  0
 88 91  1  0
 88 90  1  0
 89 87  2  0
 92 93  1  0
 92 67  1  0
 94 92  1  0
M  ISO  4  13 101  14 101  57 100  65 100
M  END
>  <TORSDO>  (46) 
F 21

>  <SCORE>  (46) 
-11.132

>  <name>  (46) 
45

>  <ligand_id>  (46) 
45

>  <original_smiles>  (46) 
[H]c1c([H])c([H])c2c(c1[H])C([H])([H])C([H])([H])C([H])([H])C2([H])N([H])C(=O)C1([H])N(C(=O)C([H])(N([H])C(=O)C([H])(N([H])C([H])([H])[H])C([H])([H])[H])C(C([H])([H])[H])(C([H])([H])[H])C([H])([H])[H])C([H])([H])c2c([H])c(OC([H])([H])C([H])([H])N([H])C(=O)c3c([H])c([H])c(C([H])([H])C([H])([H])N([H])C(=O)N4C([H])([H])C([H])([H])C([H])([H])C([H])(n5nc(-c6c([H])c([H])c(Oc7c([H])c([H])c(F)c([H])c7F)c([H])c6[H])c(C(=O)N([H])[H])c5N([H])[H])C4([H])[H])c([H])c3F)c([H])c([H])c2C1([H])[H]

>  <smiles>  (46) 
[H]c1c([H])c([H])c2c(c1[H])C([H])([H])C([H])([H])C([H])([H])C2([H])N([H])C(=O)C1([H])N(C(=O)C([H])(N([H])C(=O)C([H])(N([H])C([H])([H])[H])C([H])([H])[H])C(C([H])([H])[H])(C([H])([H])[H])C([H])([H])[H])C([H])([H])c2c([H])c(OC([H])([H])C([H])([H])N([H])C(=O)c3c([H])c([H])c(C([H])([H])C([H])([H])N([H])C(=O)N4C([H])([H])C([H])([H])C([H])([H])C([H])(n5nc(-c6c([H])c([H])c(Oc7c([H])c([H])c(F)c([H])c7F)c([H])c6[H])c(C(=O)N([H])[H])c5N([H])[H])C4([H])[H])c([H])c3F)c([H])c([H])c2C1([H])[H]

$$$$
46:0:0
     RDKit          3D

 93101  0  0  1  0  0  0  0  0999 V2000
  -29.1500  -22.2700   22.3500 C   0  0  0  0  0  2  0  0  0  0  0  0
  -29.4070  -20.8130   22.7370 C   0  0  0  0  0  2  0  0  0  0  0  0
  -29.8450  -21.0390   20.3950 C   0  0  0  0  0  2  0  0  0  0  0  0
  -28.8770  -22.1590   20.8490 C   0  0  0  0  0  3  0  0  0  0  0  0
  -30.1440  -20.2190   21.5990 N   0  0  2  0  0  4  0  0  0  0  0  0
  -31.1140  -20.3990   21.8070 H   0  0  0  0  0  0  0  0  0  0  0  0
  -28.2680  -24.5210   20.2570 C   0  0  0  0  0  0  0  0  0  0  0  0
  -29.0170  -23.4140   20.0930 N   0  0  0  0  0  0  0  0  0  0  0  0
  -27.3740  -24.5830   21.1060 O   0  0  0  0  0  0  0  0  0  0  0  0
  -29.7190  -23.4450   19.3650 H   0  0  0  0  0  0  0  0  0  0  0  0
  -28.5640  -25.7240   19.3340 C   0  0  0  0  0  2  0  0  0  0  0  0
  -28.4370  -26.9830   20.0190 O   0  0  0  0  0  0  0  0  0  0  0  0
  -24.6470  -31.9530   23.3930 C   0  0  0  0  0  0  0  0  0  0  0  0
  -27.2340  -27.6650   20.0490 C   0  0  0  0  0  0  0  0  0  0  0  0
  -23.4080  -30.6260   21.7130 C   0  0  0  0  0  3  0  0  0  0  0  0
  -24.8300  -29.1590   20.1890 C   0  0  0  0  0  0  0  0  0  0  0  0
  -25.9270  -30.9990   21.4790 C   0  0  0  0  0  2  0  0  0  0  0  0
  -25.9990  -29.6580   20.7750 C   0  0  0  0  0  0  0  0  0  0  0  0
  -27.1990  -28.9170   20.7060 C   0  0  0  0  0  3  0  0  0  0  0  0
  -26.0420  -27.1770   19.4650 C   0  0  0  0  0  3  0  0  0  0  0  0
  -24.8460  -27.9150   19.5350 C   0  0  0  0  0  3  0  0  0  0  0  0
  -23.5870  -30.0110   20.2990 C   0  0  0  0  0  2  0  0  0  0  0  0
  -24.6810  -31.2050   22.2530 N   0  0  0  0  0  0  0  0  0  0  0  0
  -23.5770  -32.1970   23.9680 O   0  0  0  0  0  0  0  0  0  0  0  0
  -22.7790  -29.5600   22.6390 C   0  0  0  0  0  0  0  0  0  0  0  0
  -21.4630  -29.3370   22.4860 N   0  0  0  0  0  0  0  0  0  0  0  0
  -23.4710  -28.9380   23.4490 O   0  0  0  0  0  0  0  0  0  0  0  0
  -20.9650  -29.8930   21.8050 H   0  0  0  0  0  0  0  0  0  0  0  0
  -18.1340  -27.9880   22.8630 C   0  0  0  0  0  0  0  0  0  0  0  0
  -20.6670  -28.3550   23.2200 C   0  0  0  0  0  3  0  0  0  0  0  0
  -20.8530  -26.9370   22.6320 C   0  0  0  0  0  2  0  0  0  0  0  0
  -19.7990  -26.5790   21.5790 C   0  0  0  0  0  2  0  0  0  0  0  0
  -18.3920  -26.6550   22.1800 C   0  0  0  0  0  2  0  0  0  0  0  0
  -19.2030  -28.7930   23.3380 C   0  0  0  0  0  0  0  0  0  0  0  0
  -18.9100  -30.0390   23.9330 C   0  0  0  0  0  3  0  0  0  0  0  0
  -17.5800  -30.4810   24.0610 C   0  0  0  0  0  3  0  0  0  0  0  0
  -16.5240  -29.6730   23.6040 C   0  0  0  0  0  3  0  0  0  0  0  0
  -16.8020  -28.4290   23.0110 C   0  0  0  0  0  3  0  0  0  0  0  0
  -25.9460  -32.5560   24.0140 C   0  0  0  0  0  3  0  0  0  0  0  0
  -25.6700  -33.9610   24.3390 N   0  0  0  0  0  0  0  0  0  0  0  0
  -26.0300  -35.0030   23.5770 C   0  0  0  0  0  0  0  0  0  0  0  0
  -26.7020  -34.8800   22.5490 O   0  0  0  0  0  0  0  0  0  0  0  0
  -25.0760  -34.1330   25.1380 H   0  0  0  0  0  0  0  0  0  0  0  0
  -24.3410  -36.8280   23.2110 C   0  0  0  0  0  1  0  0  0  0  0  0
  -25.5720  -36.4040   24.0270 C   0  0  0  0  0  3  0  0  0  0  0  0
  -27.7190  -37.2490   24.8620 C   0  0  0  0  0  1  0  0  0  0  0  0
  -26.6270  -37.4330   23.9100 N   0  0  0  0  0  0  0  0  0  0  0  0
  -26.2400  -38.3630   24.0470 H   0  0  0  0  0  0  0  0  0  0  0  0
  -26.4460  -31.7750   25.2910 C   0  0  1  0  0  0  0  0  0  0  0  0
  -25.3400  -31.5390   26.3460 C   0  0  0  0  0  1  0  0  0  0  0  0
  -27.0230  -30.3970   24.8950 C   0  0  0  0  0  1  0  0  0  0  0  0
  -27.5940  -32.5580   25.9690 C   0  0  0  0  0  1  0  0  0  0  0  0
  -30.0190  -18.7380   21.4780 C   0  0  0  0  0  2  0  0  0  0  0  0
  -31.2610  -18.0840   20.8200 C   0  0  0  0  0  2  0  0  0  0  0  0
  -31.6900  -16.7180   21.4160 C   0  0  0  0  0  2  0  0  0  0  0  0
  -31.3490  -14.6510   20.0590 C   0  0  0  0  0  0  0  0  0  0  0  0
  -30.9160  -12.4880   18.9510 C   0  0  0  0  0  2  0  0  0  0  0  0
  -29.9230  -12.6520   17.7840 C   0  0  0  0  0  2  0  0  0  0  0  0
  -28.4710  -12.5520   18.2890 C   0  0  0  0  0  2  0  0  0  0  0  0
  -28.2040  -13.4600   19.5200 C   0  0  0  0  0  3  0  0  0  0  0  0
  -29.3000  -13.2720   20.5910 C   0  0  0  0  0  2  0  0  0  0  0  0
  -30.6100  -13.5150   19.9590 N   0  0  0  0  0  0  0  0  0  0  0  0
  -32.3690  -14.8500   19.3940 O   0  0  0  0  0  0  0  0  0  0  0  0
  -30.9200  -15.5560   20.9550 N   0  0  0  0  0  0  0  0  0  0  0  0
  -30.0780  -15.3210   21.4610 H   0  0  0  0  0  0  0  0  0  0  0  0
  -25.8820  -14.1550   20.3860 C   0  0  0  0  0  0  0  0  0  0  0  0
  -24.8020  -13.4210   20.7970 C   0  0  0  0  0  0  0  0  0  0  0  0
  -25.1940  -12.0510   20.6980 C   0  0  0  0  0  0  0  0  0  0  0  0
  -26.8690  -13.2340   20.0690 N   0  0  0  0  0  0  0  0  0  0  0  0
  -26.4610  -11.9620   20.3100 N   0  0  0  0  0  0  0  0  0  0  0  0
  -24.4210  -10.8180   20.8950 C   0  0  0  0  0  0  0  0  0  0  0  0
  -24.8010   -9.8530   21.8530 C   0  0  0  0  0  3  0  0  0  0  0  0
  -24.0310   -8.6840   22.0360 C   0  0  0  0  0  3  0  0  0  0  0  0
  -22.8670   -8.4730   21.2600 C   0  0  0  0  0  0  0  0  0  0  0  0
  -22.5050   -9.4260   20.2920 C   0  0  0  0  0  3  0  0  0  0  0  0
  -23.2760  -10.5860   20.1070 C   0  0  0  0  0  3  0  0  0  0  0  0
  -22.0720   -7.3560   21.3510 O   0  0  0  0  0  0  0  0  0  0  0  0
  -21.8910   -6.6950   22.5400 C   0  0  0  0  0  0  0  0  0  0  0  0
  -21.3490   -7.3380   23.6740 C   0  0  0  0  0  3  0  0  0  0  0  0
  -21.1150   -6.6040   24.8550 C   0  0  0  0  0  3  0  0  0  0  0  0
  -21.4130   -5.2290   24.9010 C   0  0  0  0  0  0  0  0  0  0  0  0
  -21.9500   -4.5860   23.7710 C   0  0  0  0  0  3  0  0  0  0  0  0
  -22.1850   -5.3180   22.5920 C   0  0  0  0  0  0  0  0  0  0  0  0
  -22.6810   -4.6900   21.5000 F   0  0  0  0  0  0  0  0  0  0  0  0
  -21.1830   -4.5230   26.0310 F   0  0  0  0  0  0  0  0  0  0  0  0
  -23.4470  -13.9540   21.1700 C   0  0  0  0  0  0  0  0  0  0  0  0
  -22.7460  -13.2700   22.0670 N   0  0  0  0  0  0  0  0  0  0  0  0
  -23.0240  -15.0090   20.6990 O   0  0  0  0  0  0  0  0  0  0  0  0
  -23.1030  -12.4150   22.4670 H   0  0  0  0  0  0  0  0  0  0  0  0
  -21.8390  -13.6070   22.3570 H   0  0  0  0  0  0  0  0  0  0  0  0
  -26.1020  -15.5210   20.2400 N   0  0  0  0  0  0  0  0  0  0  0  0
  -25.3740  -16.2070   20.4080 H   0  0  0  0  0  0  0  0  0  0  0  0
  -26.9520  -15.9280   19.8690 H   0  0  0  0  0  0  0  0  0  0  0  0
  1  2  1  0
  3  4  1  0
  3  5  1  0
  4  8  1  0
  4  1  1  0
  5  6  1  1
  5  2  1  0
  7  9  2  0
  8  7  1  0
 10  8  1  0
 11 12  1  0
 11  7  1  0
 12 14  1  0
 13 24  2  0
 14 19  1  0
 15 23  1  0
 15 25  1  0
 16 22  1  0
 16 18  1  0
 17 23  1  0
 18 17  1  0
 19 18  2  0
 20 21  1  0
 20 14  2  0
 21 16  2  0
 22 15  1  0
 23 13  1  0
 25 27  2  0
 26 25  1  0
 28 26  1  0
 29 38  2  0
 29 34  1  0
 30 26  1  0
 30 34  1  0
 31 30  1  0
 32 33  1  0
 32 31  1  0
 33 29  1  0
 34 35  2  0
 35 36  1  0
 37 36  2  0
 38 37  1  0
 39 13  1  0
 39 40  1  0
 39 49  1  0
 40 43  1  0
 41 45  1  0
 41 40  1  0
 42 41  2  0
 45 44  1  0
 47 45  1  0
 47 48  1  0
 47 46  1  0
 49 52  1  1
 49 50  1  0
 51 49  1  0
 53  5  1  0
 54 55  1  0
 54 53  1  0
 56 64  1  0
 57 62  1  0
 58 59  1  0
 58 57  1  0
 60 59  1  0
 60 69  1  0
 60 61  1  0
 62 56  1  0
 62 61  1  0
 63 56  2  0
 64 55  1  0
 64 65  1  0
 66 67  2  0
 67 86  1  0
 68 67  1  0
 68 71  1  0
 69 70  1  0
 69 66  1  0
 70 68  2  0
 71 72  1  0
 72 73  2  0
 74 77  1  0
 74 73  1  0
 75 74  2  0
 76 75  1  0
 76 71  2  0
 77 78  1  0
 78 83  2  0
 78 79  1  0
 79 80  2  0
 80 81  1  0
 81 85  1  0
 82 81  2  0
 83 82  1  0
 84 83  1  0
 86 87  1  0
 87 90  1  0
 87 89  1  0
 88 86  2  0
 91 66  1  0
 91 92  1  0
 93 91  1  0
M  ISO  4  11 101  12 101  56 100  64 100
M  END
>  <TORSDO>  (47) 
F 21

>  <SCORE>  (47) 
-11.967

>  <name>  (47) 
46

>  <ligand_id>  (47) 
46

>  <original_smiles>  (47) 
[H]c1c([H])c([H])c2c(c1[H])C([H])([H])C([H])([H])C([H])([H])C2([H])N([H])C(=O)C1([H])N(C(=O)C([H])(N([H])C(=O)C([H])(N([H])C([H])([H])[H])C([H])([H])[H])C(C([H])([H])[H])(C([H])([H])[H])C([H])([H])[H])C([H])([H])c2c([H])c(OC([H])([H])C(=O)N([H])C3([H])C([H])([H])C([H])([H])[N+]([H])(C([H])([H])C([H])([H])C([H])([H])N([H])C(=O)N4C([H])([H])C([H])([H])C([H])([H])C([H])(n5nc(-c6c([H])c([H])c(Oc7c([H])c([H])c(F)c([H])c7F)c([H])c6[H])c(C(=O)N([H])[H])c5N([H])[H])C4([H])[H])C3([H])[H])c([H])c([H])c2C1([H])[H]

>  <smiles>  (47) 
[H]c1c([H])c([H])c2c(c1[H])C([H])([H])C([H])([H])C([H])([H])C2([H])N([H])C(=O)C1([H])N(C(=O)C([H])(N([H])C(=O)C([H])(N([H])C([H])([H])[H])C([H])([H])[H])C(C([H])([H])[H])(C([H])([H])[H])C([H])([H])[H])C([H])([H])c2c([H])c(OC([H])([H])C(=O)N([H])C3([H])C([H])([H])C([H])([H])[N+]([H])(C([H])([H])C([H])([H])C([H])([H])N([H])C(=O)N4C([H])([H])C([H])([H])C([H])([H])C([H])(n5nc(-c6c([H])c([H])c(Oc7c([H])c([H])c(F)c([H])c7F)c([H])c6[H])c(C(=O)N([H])[H])c5N([H])[H])C4([H])[H])C3([H])[H])c([H])c([H])c2C1([H])[H]

$$$$
47:0:0
     RDKit          3D

 96104  0  0  1  0  0  0  0  0999 V2000
  -27.7130  -21.4080   20.3530 C   0  0  0  0  0  2  0  0  0  0  0  0
  -27.4950  -22.5850   21.2240 N   0  0  0  0  0  4  0  0  0  0  0  0
  -26.8570  -23.2090   20.7580 H   0  0  0  0  0  0  0  0  0  0  0  0
  -27.0380  -22.2860   22.0720 H   0  0  0  0  0  0  0  0  0  0  0  0
  -28.7170  -23.3450   21.5700 C   0  0  0  0  0  2  0  0  0  0  0  0
  -29.2040  -24.2140   20.3940 C   0  0  0  0  0  2  0  0  0  0  0  0
  -28.3460  -25.4710   20.1820 C   0  0  0  0  0  2  0  0  0  0  0  0
  -28.5290  -26.0930   18.7910 C   0  0  0  0  0  2  0  0  0  0  0  0
  -28.3470  -27.4970   18.8630 O   0  0  0  0  0  0  0  0  0  0  0  0
  -24.4960  -31.7460   23.0050 C   0  0  0  0  0  0  0  0  0  0  0  0
  -27.0940  -28.0130   19.0900 C   0  0  0  0  0  0  0  0  0  0  0  0
  -23.2150  -30.4960   21.2930 C   0  0  0  0  0  3  0  0  0  0  0  0
  -24.6090  -29.2700   19.5450 C   0  0  0  0  0  0  0  0  0  0  0  0
  -25.6770  -31.0710   20.9220 C   0  0  0  0  0  2  0  0  0  0  0  0
  -25.7780  -29.8100   20.0920 C   0  0  0  0  0  0  0  0  0  0  0  0
  -27.0200  -29.1900   19.8590 C   0  0  0  0  0  3  0  0  0  0  0  0
  -25.9060  -27.4590   18.5600 C   0  0  0  0  0  3  0  0  0  0  0  0
  -24.6640  -28.0890   18.7820 C   0  0  0  0  0  3  0  0  0  0  0  0
  -23.3250  -30.0190   19.8200 C   0  0  0  0  0  2  0  0  0  0  0  0
  -24.4850  -31.1130   21.8000 N   0  0  0  0  0  0  0  0  0  0  0  0
  -23.4590  -31.8640   23.6740 O   0  0  0  0  0  0  0  0  0  0  0  0
  -22.7250  -29.3130   22.1560 C   0  0  0  0  0  0  0  0  0  0  0  0
  -21.4150  -29.0320   22.0900 N   0  0  0  0  0  0  0  0  0  0  0  0
  -23.5150  -28.6540   22.8360 O   0  0  0  0  0  0  0  0  0  0  0  0
  -20.8320  -29.6320   21.5230 H   0  0  0  0  0  0  0  0  0  0  0  0
  -18.2030  -27.4630   22.5820 C   0  0  0  0  0  0  0  0  0  0  0  0
  -20.7350  -27.9360   22.7770 C   0  0  0  0  0  3  0  0  0  0  0  0
  -20.9380  -26.5960   22.0320 C   0  0  0  0  0  2  0  0  0  0  0  0
  -19.8190  -26.2840   21.0320 C   0  0  0  0  0  2  0  0  0  0  0  0
  -18.4670  -26.2200   21.7490 C   0  0  0  0  0  2  0  0  0  0  0  0
  -19.2680  -28.2770   23.0510 C   0  0  0  0  0  0  0  0  0  0  0  0
  -18.9650  -29.4400   23.7920 C   0  0  0  0  0  3  0  0  0  0  0  0
  -17.6320  -29.7900   24.0710 C   0  0  0  0  0  3  0  0  0  0  0  0
  -16.5820  -28.9710   23.6200 C   0  0  0  0  0  3  0  0  0  0  0  0
  -16.8690  -27.8100   22.8820 C   0  0  0  0  0  3  0  0  0  0  0  0
  -25.8010  -32.3710   23.5920 C   0  0  0  0  0  3  0  0  0  0  0  0
  -26.4330  -31.5140   24.7600 C   0  0  1  0  0  0  0  0  0  0  0  0
  -25.4290  -31.1470   25.8780 C   0  0  0  0  0  1  0  0  0  0  0  0
  -27.0310  -30.2000   24.2060 C   0  0  0  0  0  1  0  0  0  0  0  0
  -27.6020  -32.2920   25.4080 C   0  0  0  0  0  1  0  0  0  0  0  0
  -25.4710  -33.7220   24.0610 N   0  0  0  0  0  0  0  0  0  0  0  0
  -25.7560  -34.8480   23.3930 C   0  0  0  0  0  0  0  0  0  0  0  0
  -26.3990  -34.8570   22.3400 O   0  0  0  0  0  0  0  0  0  0  0  0
  -24.8930  -33.7850   24.8870 H   0  0  0  0  0  0  0  0  0  0  0  0
  -23.9870  -36.6290   23.2340 C   0  0  0  0  0  1  0  0  0  0  0  0
  -25.2460  -36.1730   23.9890 C   0  0  0  0  0  3  0  0  0  0  0  0
  -27.3710  -37.0230   24.8810 C   0  0  0  0  0  1  0  0  0  0  0  0
  -26.2560  -37.2540   23.9670 N   0  0  0  0  0  0  0  0  0  0  0  0
  -25.8310  -38.1470   24.1980 H   0  0  0  0  0  0  0  0  0  0  0  0
  -27.7450  -20.0740   21.1320 C   0  0  0  0  0  2  0  0  0  0  0  0
  -29.0870  -19.2950   21.1330 C   0  0  0  0  0  2  0  0  0  0  0  0
  -29.3400  -17.9060   17.6430 C   0  0  0  0  0  2  0  0  0  0  0  0
  -30.7410  -17.6110   18.1860 C   0  0  0  0  0  2  0  0  0  0  0  0
  -28.6560  -18.7610   18.7110 C   0  0  0  0  0  2  0  0  0  0  0  0
  -30.6980  -17.9280   19.6950 C   0  0  0  0  0  3  0  0  0  0  0  0
  -29.6470  -18.9840   19.7860 N   0  0  2  0  0  4  0  0  0  0  0  0
  -30.1550  -19.8090   19.4970 H   0  0  0  0  0  0  0  0  0  0  0  0
  -30.4540  -16.6830   20.6040 C   0  0  0  0  0  2  0  0  0  0  0  0
  -31.9570  -14.8240   19.8340 C   0  0  0  0  0  0  0  0  0  0  0  0
  -31.5130  -12.6130   18.8430 C   0  0  0  0  0  2  0  0  0  0  0  0
  -30.5210  -12.7070   17.6680 C   0  0  0  0  0  2  0  0  0  0  0  0
  -29.0690  -12.6330   18.1770 C   0  0  0  0  0  2  0  0  0  0  0  0
  -28.8050  -13.6180   19.3440 C   0  0  0  0  0  3  0  0  0  0  0  0
  -29.8950  -13.4770   20.4310 C   0  0  0  0  0  2  0  0  0  0  0  0
  -31.2050  -13.6940   19.7920 N   0  0  0  0  0  0  0  0  0  0  0  0
  -32.9920  -14.9750   19.1830 O   0  0  0  0  0  0  0  0  0  0  0  0
  -31.6010  -15.7680   20.7120 N   0  0  0  0  0  0  0  0  0  0  0  0
  -32.4220  -16.2650   21.0320 H   0  0  0  0  0  0  0  0  0  0  0  0
  -26.5090  -14.4030   20.2030 C   0  0  0  0  0  0  0  0  0  0  0  0
  -25.4060  -13.7110   20.6230 C   0  0  0  0  0  0  0  0  0  0  0  0
  -25.7540  -12.3300   20.5330 C   0  0  0  0  0  0  0  0  0  0  0  0
  -27.4640  -13.4470   19.8910 N   0  0  0  0  0  0  0  0  0  0  0  0
  -27.0140  -12.1930   20.1440 N   0  0  0  0  0  0  0  0  0  0  0  0
  -24.9430  -11.1270   20.7370 C   0  0  0  0  0  0  0  0  0  0  0  0
  -25.2500  -10.1950   21.7520 C   0  0  0  0  0  3  0  0  0  0  0  0
  -24.4440   -9.0520   21.9400 C   0  0  0  0  0  3  0  0  0  0  0  0
  -23.3170   -8.8360   21.1110 C   0  0  0  0  0  0  0  0  0  0  0  0
  -23.0300   -9.7550   20.0870 C   0  0  0  0  0  3  0  0  0  0  0  0
  -23.8370  -10.8890   19.8970 C   0  0  0  0  0  3  0  0  0  0  0  0
  -22.4890   -7.7430   21.2040 O   0  0  0  0  0  0  0  0  0  0  0  0
  -22.1750   -7.1810   22.4150 C   0  0  0  0  0  0  0  0  0  0  0  0
  -21.5410   -7.9190   23.4380 C   0  0  0  0  0  3  0  0  0  0  0  0
  -21.1740   -7.2820   24.6400 C   0  0  0  0  0  3  0  0  0  0  0  0
  -21.4330   -5.9100   24.8190 C   0  0  0  0  0  0  0  0  0  0  0  0
  -22.0620   -5.1740   23.8000 C   0  0  0  0  0  3  0  0  0  0  0  0
  -22.4290   -5.8080   22.6010 C   0  0  0  0  0  0  0  0  0  0  0  0
  -23.0160   -5.0890   21.6130 F   0  0  0  0  0  0  0  0  0  0  0  0
  -21.0740   -5.2960   25.9720 F   0  0  0  0  0  0  0  0  0  0  0  0
  -24.0720  -14.2940   20.9890 C   0  0  0  0  0  0  0  0  0  0  0  0
  -23.3600  -13.6540   21.9090 N   0  0  0  0  0  0  0  0  0  0  0  0
  -23.6760  -15.3480   20.4920 O   0  0  0  0  0  0  0  0  0  0  0  0
  -23.6970  -12.7980   22.3250 H   0  0  0  0  0  0  0  0  0  0  0  0
  -22.4660  -14.0220   22.1980 H   0  0  0  0  0  0  0  0  0  0  0  0
  -26.7670  -15.7550   20.0360 N   0  0  0  0  0  0  0  0  0  0  0  0
  -26.0010  -16.4180   20.0970 H   0  0  0  0  0  0  0  0  0  0  0  0
  -27.5160  -16.0590   19.4350 H   0  0  0  0  0  0  0  0  0  0  0  0
  1 50  1  0
  1  2  1  0
  2  5  1  0
  2  4  1  0
  3  2  1  0
  6  5  1  0
  7  6  1  0
  8  9  1  0
  8  7  1  0
  9 11  1  0
 10 21  2  0
 11 16  1  0
 12 20  1  0
 12 22  1  0
 13 19  1  0
 13 15  1  0
 14 20  1  0
 15 14  1  0
 16 15  2  0
 17 18  1  0
 17 11  2  0
 18 13  2  0
 19 12  1  0
 20 10  1  0
 22 24  2  0
 23 22  1  0
 25 23  1  0
 26 35  2  0
 26 31  1  0
 27 23  1  0
 27 31  1  0
 28 27  1  0
 29 30  1  0
 29 28  1  0
 30 26  1  0
 31 32  2  0
 32 33  1  0
 34 33  2  0
 35 34  1  0
 36 10  1  0
 36 41  1  0
 36 37  1  0
 37 40  1  1
 37 38  1  0
 39 37  1  0
 41 44  1  0
 42 46  1  0
 42 41  1  0
 43 42  2  0
 46 45  1  0
 48 46  1  0
 48 49  1  0
 48 47  1  0
 50 51  1  0
 52 53  1  0
 52 54  1  0
 53 55  1  0
 54 56  1  0
 55 56  1  0
 55 58  1  0
 56 51  1  0
 56 57  1  6
 58 67  1  0
 59 67  1  0
 60 65  1  0
 61 62  1  0
 61 60  1  0
 63 62  1  0
 63 72  1  0
 63 64  1  0
 65 59  1  0
 65 64  1  0
 66 59  2  0
 67 68  1  0
 69 70  2  0
 70 89  1  0
 71 70  1  0
 71 74  1  0
 72 73  1  0
 72 69  1  0
 73 71  2  0
 74 75  1  0
 75 76  2  0
 77 80  1  0
 77 76  1  0
 78 77  2  0
 79 78  1  0
 79 74  2  0
 80 81  1  0
 81 86  2  0
 81 82  1  0
 82 83  2  0
 83 84  1  0
 84 88  1  0
 85 84  2  0
 86 85  1  0
 87 86  1  0
 89 90  1  0
 90 93  1  0
 90 92  1  0
 91 89  2  0
 94 95  1  0
 94 69  1  0
 96 94  1  0
M  ISO  4   8 101   9 101  59 100  67 100
M  END
>  <TORSDO>  (48) 
F 25

>  <SCORE>  (48) 
-8.287

>  <name>  (48) 
47

>  <ligand_id>  (48) 
47

>  <original_smiles>  (48) 
[H]c1c([H])c([H])c2c(c1[H])C([H])([H])C([H])([H])C([H])([H])C2([H])N([H])C(=O)C1([H])N(C(=O)C([H])(N([H])C(=O)C([H])(N([H])C([H])([H])[H])C([H])([H])[H])C(C([H])([H])[H])(C([H])([H])[H])C([H])([H])[H])C([H])([H])c2c([H])c(OC([H])([H])C([H])([H])C([H])([H])C([H])([H])[N+]([H])([H])C([H])([H])C([H])([H])C([H])([H])[N+]3([H])C([H])([H])C([H])([H])C([H])([H])C3([H])C([H])([H])N([H])C(=O)N3C([H])([H])C([H])([H])C([H])([H])C([H])(n4nc(-c5c([H])c([H])c(Oc6c([H])c([H])c(F)c([H])c6F)c([H])c5[H])c(C(=O)N([H])[H])c4N([H])[H])C3([H])[H])c([H])c([H])c2C1([H])[H]

>  <smiles>  (48) 
[H]c1c([H])c([H])c2c(c1[H])C([H])([H])C([H])([H])C([H])([H])C2([H])N([H])C(=O)C1([H])N(C(=O)C([H])(N([H])C(=O)C([H])(N([H])C([H])([H])[H])C([H])([H])[H])C(C([H])([H])[H])(C([H])([H])[H])C([H])([H])[H])C([H])([H])c2c([H])c(OC([H])([H])C([H])([H])C([H])([H])C([H])([H])[N+]([H])([H])C([H])([H])C([H])([H])C([H])([H])[N+]3([H])C([H])([H])C([H])([H])C([H])([H])C3([H])C([H])([H])N([H])C(=O)N3C([H])([H])C([H])([H])C([H])([H])C([H])(n4nc(-c5c([H])c([H])c(Oc6c([H])c([H])c(F)c([H])c6F)c([H])c5[H])c(C(=O)N([H])[H])c4N([H])[H])C3([H])[H])c([H])c([H])c2C1([H])[H]

$$$$
48:0:0
     RDKit          3D

 91 99  0  0  1  0  0  0  0  0999 V2000
  -29.0020  -19.7830   19.0680 C   0  0  0  0  0  0  0  0  0  0  0  0
  -29.4060  -18.2620   18.9260 C   0  0  0  0  0  3  0  0  0  0  0  0
  -29.6790  -18.3520   21.3570 C   0  0  0  0  0  2  0  0  0  0  0  0
  -29.9050  -19.9190   21.2760 C   0  0  0  0  0  2  0  0  0  0  0  0
  -30.1330  -17.5190   20.1150 C   0  0  0  0  0  3  0  0  0  0  0  0
  -29.1890  -20.6080   20.1620 N   0  0  0  0  0  0  0  0  0  0  0  0
  -28.3850  -20.3060   17.9890 N   0  0  0  0  0  0  0  0  0  0  0  0
  -28.2130  -19.7490   17.1620 H   0  0  0  0  0  0  0  0  0  0  0  0
  -28.1170  -21.2780   17.9440 H   0  0  0  0  0  0  0  0  0  0  0  0
  -30.7010  -14.8580   19.9480 C   0  0  0  0  0  0  0  0  0  0  0  0
  -30.4930  -12.5630   18.9410 C   0  0  0  0  0  2  0  0  0  0  0  0
  -29.4840  -12.6220   17.7720 C   0  0  0  0  0  2  0  0  0  0  0  0
  -28.0430  -12.4260   18.2870 C   0  0  0  0  0  2  0  0  0  0  0  0
  -27.7320  -13.2980   19.5320 C   0  0  0  0  0  3  0  0  0  0  0  0
  -28.8580  -13.2180   20.5860 C   0  0  0  0  0  2  0  0  0  0  0  0
  -30.1050  -13.6100   19.9180 N   0  0  0  0  0  0  0  0  0  0  0  0
  -31.8660  -14.9770   19.5580 O   0  0  0  0  0  0  0  0  0  0  0  0
  -29.9060  -15.9780   20.2110 N   0  0  0  0  0  0  0  0  0  0  0  0
  -28.9680  -15.7210   20.4800 H   0  0  0  0  0  0  0  0  0  0  0  0
  -25.4030  -13.8720   20.4390 C   0  0  0  0  0  0  0  0  0  0  0  0
  -24.3590  -13.0900   20.8500 C   0  0  0  0  0  0  0  0  0  0  0  0
  -24.8070  -11.7390   20.7370 C   0  0  0  0  0  0  0  0  0  0  0  0
  -26.4220  -12.9960   20.1000 N   0  0  0  0  0  0  0  0  0  0  0  0
  -26.0750  -11.7060   20.3420 N   0  0  0  0  0  0  0  0  0  0  0  0
  -24.0840  -10.4750   20.9270 C   0  0  0  0  0  0  0  0  0  0  0  0
  -24.5170   -9.5120   21.8650 C   0  0  0  0  0  3  0  0  0  0  0  0
  -23.7960   -8.3110   22.0450 C   0  0  0  0  0  3  0  0  0  0  0  0
  -22.6270   -8.0660   21.2870 C   0  0  0  0  0  0  0  0  0  0  0  0
  -22.2130   -9.0170   20.3370 C   0  0  0  0  0  3  0  0  0  0  0  0
  -22.9340  -10.2090   20.1560 C   0  0  0  0  0  3  0  0  0  0  0  0
  -21.8780   -6.9170   21.3730 O   0  0  0  0  0  0  0  0  0  0  0  0
  -21.7420   -6.2330   22.5550 C   0  0  0  0  0  0  0  0  0  0  0  0
  -21.1730   -6.8300   23.6990 C   0  0  0  0  0  3  0  0  0  0  0  0
  -20.9910   -6.0710   24.8730 C   0  0  0  0  0  3  0  0  0  0  0  0
  -21.3650   -4.7140   24.9000 C   0  0  0  0  0  0  0  0  0  0  0  0
  -21.9270   -4.1170   23.7570 C   0  0  0  0  0  3  0  0  0  0  0  0
  -22.1120   -4.8730   22.5870 C   0  0  0  0  0  0  0  0  0  0  0  0
  -22.6350   -4.2870   21.4820 F   0  0  0  0  0  0  0  0  0  0  0  0
  -21.1830   -3.9810   26.0230 F   0  0  0  0  0  0  0  0  0  0  0  0
  -22.9850  -13.5660   21.2260 C   0  0  0  0  0  0  0  0  0  0  0  0
  -22.3100  -12.8490   22.1180 N   0  0  0  0  0  0  0  0  0  0  0  0
  -22.5200  -14.6050   20.7620 O   0  0  0  0  0  0  0  0  0  0  0  0
  -22.7040  -12.0070   22.5130 H   0  0  0  0  0  0  0  0  0  0  0  0
  -21.3900  -13.1460   22.4080 H   0  0  0  0  0  0  0  0  0  0  0  0
  -25.5630  -15.2470   20.3030 N   0  0  0  0  0  0  0  0  0  0  0  0
  -24.7970  -15.8890   20.4820 H   0  0  0  0  0  0  0  0  0  0  0  0
  -26.3680  -15.6990   19.8910 H   0  0  0  0  0  0  0  0  0  0  0  0
  -28.4690  -21.9970   20.3720 C   0  0  0  0  0  2  0  0  0  0  0  0
  -29.1270  -23.5030   20.2220 C   0  0  0  0  0  3  0  0  0  0  0  0
  -28.1240  -24.8060   20.0310 C   0  0  0  0  0  3  0  0  0  0  0  0
  -28.4250  -26.2960   20.2250 O   0  0  0  0  0  0  0  0  0  0  0  0
  -24.6610  -31.7950   23.2640 C   0  0  0  0  0  0  0  0  0  0  0  0
  -27.3520  -27.2390   20.1620 C   0  0  0  0  0  0  0  0  0  0  0  0
  -23.5110  -30.4440   21.5540 C   0  0  0  0  0  3  0  0  0  0  0  0
  -25.0040  -28.9300   20.1250 C   0  0  0  0  0  0  0  0  0  0  0  0
  -26.0640  -30.7410   21.4620 C   0  0  0  0  0  2  0  0  0  0  0  0
  -26.1630  -29.3770   20.7700 C   0  0  0  0  0  0  0  0  0  0  0  0
  -27.3420  -28.5490   20.7730 C   0  0  0  0  0  3  0  0  0  0  0  0
  -26.1620  -26.8800   19.4860 C   0  0  0  0  0  3  0  0  0  0  0  0
  -25.0120  -27.6910   19.4710 C   0  0  0  0  0  3  0  0  0  0  0  0
  -23.7700  -29.8130   20.1610 C   0  0  0  0  0  2  0  0  0  0  0  0
  -24.7640  -31.0130   22.1490 N   0  0  0  0  0  0  0  0  0  0  0  0
  -23.5590  -32.0580   23.7710 O   0  0  0  0  0  0  0  0  0  0  0  0
  -22.8160  -29.4010   22.4640 C   0  0  0  0  0  0  0  0  0  0  0  0
  -21.4940  -29.2240   22.2930 N   0  0  0  0  0  0  0  0  0  0  0  0
  -23.4700  -28.7570   23.2880 O   0  0  0  0  0  0  0  0  0  0  0  0
  -21.0250  -29.7980   21.6070 H   0  0  0  0  0  0  0  0  0  0  0  0
  -18.1030  -28.0190   22.6810 C   0  0  0  0  0  0  0  0  0  0  0  0
  -20.6560  -28.2630   23.0120 C   0  0  0  0  0  3  0  0  0  0  0  0
  -20.7670  -26.8510   22.3910 C   0  0  0  0  0  2  0  0  0  0  0  0
  -19.6850  -26.5670   21.3440 C   0  0  0  0  0  2  0  0  0  0  0  0
  -18.2910  -26.6930   21.9620 C   0  0  0  0  0  2  0  0  0  0  0  0
  -19.2130  -28.7640   23.1590 C   0  0  0  0  0  0  0  0  0  0  0  0
  -18.9830  -30.0050   23.7890 C   0  0  0  0  0  3  0  0  0  0  0  0
  -17.6740  -30.5010   23.9480 C   0  0  0  0  0  3  0  0  0  0  0  0
  -16.5790  -29.7520   23.4850 C   0  0  0  0  0  3  0  0  0  0  0  0
  -16.7930  -28.5140   22.8560 C   0  0  0  0  0  3  0  0  0  0  0  0
  -25.9200  -32.4140   23.9440 C   0  0  0  0  0  3  0  0  0  0  0  0
  -26.3660  -31.6410   25.2460 C   0  0  1  0  0  0  0  0  0  0  0  0
  -25.2200  -31.4210   26.2610 C   0  0  0  0  0  1  0  0  0  0  0  0
  -26.9510  -30.2560   24.8900 C   0  0  0  0  0  1  0  0  0  0  0  0
  -27.4920  -32.4240   25.9590 C   0  0  0  0  0  1  0  0  0  0  0  0
  -25.6100  -33.8160   24.2600 N   0  0  0  0  0  0  0  0  0  0  0  0
  -25.9290  -34.8630   23.4870 C   0  0  0  0  0  0  0  0  0  0  0  0
  -26.5840  -34.7510   22.4470 O   0  0  0  0  0  0  0  0  0  0  0  0
  -25.0260  -33.9790   25.0680 H   0  0  0  0  0  0  0  0  0  0  0  0
  -24.1730  -36.6360   23.1660 C   0  0  0  0  0  1  0  0  0  0  0  0
  -25.4460  -36.2560   23.9380 C   0  0  0  0  0  3  0  0  0  0  0  0
  -27.5990  -37.1780   24.6790 C   0  0  0  0  0  1  0  0  0  0  0  0
  -26.4630  -37.3160   23.7700 N   0  0  0  0  0  0  0  0  0  0  0  0
  -26.0520  -38.2350   23.9130 H   0  0  0  0  0  0  0  0  0  0  0  0
  1  6  1  0
  2  1  2  0
  2  5  1  0
  4  3  1  0
  5 18  1  0
  5  3  1  0
  6 48  1  0
  6  4  1  0
  7  1  1  0
  8  7  1  0
  9  7  1  0
 10 18  1  0
 11 16  1  0
 12 13  1  0
 12 11  1  0
 14 13  1  0
 14 23  1  0
 14 15  1  0
 16 10  1  0
 16 15  1  0
 17 10  2  0
 18 19  1  0
 20 21  2  0
 21 40  1  0
 22 21  1  0
 22 25  1  0
 23 24  1  0
 23 20  1  0
 24 22  2  0
 25 26  1  0
 26 27  2  0
 28 31  1  0
 28 27  1  0
 29 28  2  0
 30 29  1  0
 30 25  2  0
 31 32  1  0
 32 37  2  0
 32 33  1  0
 33 34  2  0
 34 35  1  0
 35 39  1  0
 36 35  2  0
 37 36  1  0
 38 37  1  0
 40 41  1  0
 41 44  1  0
 41 43  1  0
 42 40  2  0
 45 20  1  0
 45 46  1  0
 47 45  1  0
 49 48  1  0
 50 49  2  0
 50 51  1  0
 52 63  2  0
 53 51  1  0
 53 58  1  0
 54 62  1  0
 54 64  1  0
 55 61  1  0
 55 57  1  0
 56 62  1  0
 57 58  2  0
 57 56  1  0
 59 53  2  0
 60 59  1  0
 60 55  2  0
 61 54  1  0
 62 52  1  0
 64 66  2  0
 65 64  1  0
 67 65  1  0
 68 77  2  0
 68 73  1  0
 69 65  1  0
 69 73  1  0
 70 69  1  0
 71 72  1  0
 71 70  1  0
 72 68  1  0
 73 74  2  0
 74 75  1  0
 76 75  2  0
 77 76  1  0
 78 52  1  0
 78 83  1  0
 78 79  1  0
 79 82  1  1
 79 80  1  0
 81 79  1  0
 83 86  1  0
 84 88  1  0
 84 83  1  0
 85 84  2  0
 88 87  1  0
 90 91  1  0
 90 88  1  0
 90 89  1  0
M  ISO  4  10 100  18 100  50 101  51 101
M  END
>  <TORSDO>  (49) 
F 19

>  <SCORE>  (49) 
-13.639

>  <name>  (49) 
48

>  <ligand_id>  (49) 
48

>  <original_smiles>  (49) 
[H]c1c([H])c([H])c2c(c1[H])C([H])([H])C([H])([H])C([H])([H])C2([H])N([H])C(=O)C1([H])N(C(=O)C([H])(N([H])C(=O)C([H])(N([H])C([H])([H])[H])C([H])([H])[H])C(C([H])([H])[H])(C([H])([H])[H])C([H])([H])[H])C([H])([H])c2c([H])c(OC([H])([H])C([H])([H])C([H])([H])N3C(=[N+]([H])[H])C([H])([H])C([H])(N([H])C(=O)N4C([H])([H])C([H])([H])C([H])([H])C([H])(n5nc(-c6c([H])c([H])c(Oc7c([H])c([H])c(F)c([H])c7F)c([H])c6[H])c(C(=O)N([H])[H])c5N([H])[H])C4([H])[H])C([H])([H])C3([H])[H])c([H])c([H])c2C1([H])[H]

>  <smiles>  (49) 
[H]c1c([H])c([H])c2c(c1[H])C([H])([H])C([H])([H])C([H])([H])C2([H])N([H])C(=O)C1([H])N(C(=O)C([H])(N([H])C(=O)C([H])(N([H])C([H])([H])[H])C([H])([H])[H])C(C([H])([H])[H])(C([H])([H])[H])C([H])([H])[H])C([H])([H])c2c([H])c(OC([H])([H])C([H])([H])C([H])([H])N3C(=[N+]([H])[H])C([H])([H])C([H])(N([H])C(=O)N4C([H])([H])C([H])([H])C([H])([H])C([H])(n5nc(-c6c([H])c([H])c(Oc7c([H])c([H])c(F)c([H])c7F)c([H])c6[H])c(C(=O)N([H])[H])c5N([H])[H])C4([H])[H])C([H])([H])C3([H])[H])c([H])c([H])c2C1([H])[H]

$$$$
49:0:0
     RDKit          3D

 98107  0  0  1  0  0  0  0  0999 V2000
  -29.0720  -20.4760   21.2670 C   0  0  0  0  0  2  0  0  0  0  0  0
  -31.1390  -21.3690   22.2790 C   0  0  0  0  0  2  0  0  0  0  0  0
  -28.6760  -21.8670   20.7670 C   0  0  0  0  0  2  0  0  0  0  0  0
  -30.7810  -22.7880   21.7960 C   0  0  0  0  0  2  0  0  0  0  0  0
  -30.5990  -20.3620   21.2660 C   0  0  0  0  0  3  0  0  0  0  0  0
  -29.3240  -22.9840   21.5160 N   0  0  1  0  0  4  0  0  0  0  0  0
  -28.8510  -23.0590   22.4060 H   0  0  0  0  0  0  0  0  0  0  0  0
  -30.4460  -18.0640   22.3510 C   0  0  0  0  0  3  0  0  0  0  0  0
  -30.7890  -16.7010   22.3700 C   0  0  0  0  0  3  0  0  0  0  0  0
  -32.5020  -17.1050   20.6780 C   0  0  0  0  0  3  0  0  0  0  0  0
  -31.0950  -18.9400   21.4550 C   0  0  0  0  0  0  0  0  0  0  0  0
  -31.7890  -16.2170   21.5040 C   0  0  0  0  0  0  0  0  0  0  0  0
  -32.1570  -18.4650   20.6530 C   0  0  0  0  0  0  0  0  0  0  0  0
  -32.8180  -19.2980   19.8120 F   0  0  0  0  0  0  0  0  0  0  0  0
  -32.0180  -14.7300   21.3800 C   0  0  0  0  0  2  0  0  0  0  0  0
  -30.5120  -14.0910   19.4920 C   0  0  0  0  0  0  0  0  0  0  0  0
  -29.7070  -12.3190   18.0020 C   0  0  0  0  0  2  0  0  0  0  0  0
  -28.5170  -12.6420   17.0920 C   0  0  0  0  0  2  0  0  0  0  0  0
  -27.1880  -12.4280   17.8350 C   0  0  0  0  0  2  0  0  0  0  0  0
  -27.1510  -13.1550   19.2030 C   0  0  0  0  0  3  0  0  0  0  0  0
  -28.4150  -12.8390   20.0330 C   0  0  0  0  0  2  0  0  0  0  0  0
  -29.6150  -13.1210   19.2250 N   0  0  0  0  0  0  0  0  0  0  0  0
  -31.1650  -14.6920   18.6330 O   0  0  0  0  0  0  0  0  0  0  0  0
  -30.8560  -14.0840   20.7860 N   0  0  0  0  0  0  0  0  0  0  0  0
  -30.3310  -13.4590   21.3810 H   0  0  0  0  0  0  0  0  0  0  0  0
  -24.9570  -13.6780   20.4510 C   0  0  0  0  0  0  0  0  0  0  0  0
  -23.9860  -12.8660   20.9730 C   0  0  0  0  0  0  0  0  0  0  0  0
  -24.4240  -11.5260   20.7380 C   0  0  0  0  0  0  0  0  0  0  0  0
  -25.9270  -12.8320   19.9360 N   0  0  0  0  0  0  0  0  0  0  0  0
  -25.6190  -11.5280   20.1610 N   0  0  0  0  0  0  0  0  0  0  0  0
  -23.7480  -10.2450   20.9750 C   0  0  0  0  0  0  0  0  0  0  0  0
  -24.2930   -9.2720   21.8430 C   0  0  0  0  0  3  0  0  0  0  0  0
  -23.6150   -8.0550   22.0700 C   0  0  0  0  0  3  0  0  0  0  0  0
  -22.3800   -7.8010   21.4290 C   0  0  0  0  0  0  0  0  0  0  0  0
  -21.8530   -8.7630   20.5490 C   0  0  0  0  0  3  0  0  0  0  0  0
  -22.5300   -9.9720   20.3200 C   0  0  0  0  0  3  0  0  0  0  0  0
  -21.6640   -6.6360   21.5680 O   0  0  0  0  0  0  0  0  0  0  0  0
  -21.6650   -5.9270   22.7430 C   0  0  0  0  0  0  0  0  0  0  0  0
  -21.2390   -6.5000   23.9610 C   0  0  0  0  0  3  0  0  0  0  0  0
  -21.1910   -5.7160   25.1300 C   0  0  0  0  0  3  0  0  0  0  0  0
  -21.5590   -4.3580   25.0830 C   0  0  0  0  0  0  0  0  0  0  0  0
  -21.9770   -3.7830   23.8700 C   0  0  0  0  0  3  0  0  0  0  0  0
  -22.0270   -4.5660   22.7020 C   0  0  0  0  0  0  0  0  0  0  0  0
  -22.4120   -4.0010   21.5320 F   0  0  0  0  0  0  0  0  0  0  0  0
  -21.5040   -3.6010   26.2040 F   0  0  0  0  0  0  0  0  0  0  0  0
  -22.6800  -13.3020   21.5710 C   0  0  0  0  0  0  0  0  0  0  0  0
  -22.1660  -12.5500   22.5380 N   0  0  0  0  0  0  0  0  0  0  0  0
  -22.1280  -14.3430   21.2140 O   0  0  0  0  0  0  0  0  0  0  0  0
  -22.6280  -11.7070   22.8460 H   0  0  0  0  0  0  0  0  0  0  0  0
  -21.2980  -12.8220   22.9780 H   0  0  0  0  0  0  0  0  0  0  0  0
  -25.0850  -15.0610   20.3530 N   0  0  0  0  0  0  0  0  0  0  0  0
  -24.3680  -15.6980   20.6840 H   0  0  0  0  0  0  0  0  0  0  0  0
  -25.8560  -15.5360   19.8980 H   0  0  0  0  0  0  0  0  0  0  0  0
  -29.0630  -24.2470   20.7870 C   0  0  0  0  0  2  0  0  0  0  0  0
  -29.3370  -25.5270   21.5850 C   0  0  0  0  0  3  0  0  0  0  0  0
  -28.3920  -25.6920   22.5140 F   0  0  0  0  0  0  0  0  0  0  0  0
  -29.3920  -26.7360   20.6470 C   0  0  0  0  0  2  0  0  0  0  0  0
  -28.3490  -26.6200   19.6750 O   0  0  0  0  0  0  0  0  0  0  0  0
  -24.7450  -31.7210   23.1050 C   0  0  0  0  0  0  0  0  0  0  0  0
  -27.1990  -27.3530   19.8390 C   0  0  0  0  0  0  0  0  0  0  0  0
  -23.4300  -30.3500   21.5130 C   0  0  0  0  0  3  0  0  0  0  0  0
  -24.7890  -28.8140   20.0020 C   0  0  0  0  0  0  0  0  0  0  0  0
  -25.9320  -30.7110   21.1700 C   0  0  0  0  0  2  0  0  0  0  0  0
  -25.9710  -29.3480   20.5220 C   0  0  0  0  0  0  0  0  0  0  0  0
  -27.1750  -28.6310   20.4370 C   0  0  0  0  0  3  0  0  0  0  0  0
  -26.0020  -26.8200   19.3150 C   0  0  0  0  0  3  0  0  0  0  0  0
  -24.7940  -27.5430   19.3980 C   0  0  0  0  0  3  0  0  0  0  0  0
  -23.5510  -29.6720   20.1200 C   0  0  0  0  0  2  0  0  0  0  0  0
  -24.7240  -30.9390   21.9890 N   0  0  0  0  0  0  0  0  0  0  0  0
  -23.7010  -31.9940   23.7120 O   0  0  0  0  0  0  0  0  0  0  0  0
  -22.8280  -29.3250   22.4980 C   0  0  0  0  0  0  0  0  0  0  0  0
  -21.5070  -29.1150   22.3980 N   0  0  0  0  0  0  0  0  0  0  0  0
  -23.5440  -28.7180   23.3000 O   0  0  0  0  0  0  0  0  0  0  0  0
  -20.9930  -29.6560   21.7160 H   0  0  0  0  0  0  0  0  0  0  0  0
  -18.1740  -27.8330   22.9310 C   0  0  0  0  0  0  0  0  0  0  0  0
  -20.7230  -28.1690   23.1900 C   0  0  0  0  0  3  0  0  0  0  0  0
  -20.8660  -26.7310   22.6410 C   0  0  0  0  0  2  0  0  0  0  0  0
  -19.7720  -26.3570   21.6360 C   0  0  0  0  0  2  0  0  0  0  0  0
  -18.3870  -26.4760   22.2810 C   0  0  0  0  0  2  0  0  0  0  0  0
  -19.2720  -28.6350   23.3420 C   0  0  0  0  0  0  0  0  0  0  0  0
  -19.0210  -29.9050   23.9080 C   0  0  0  0  0  3  0  0  0  0  0  0
  -17.7040  -30.3760   24.0650 C   0  0  0  0  0  3  0  0  0  0  0  0
  -16.6200  -29.5700   23.6730 C   0  0  0  0  0  3  0  0  0  0  0  0
  -16.8550  -28.3010   23.1130 C   0  0  0  0  0  3  0  0  0  0  0  0
  -26.0740  -32.3250   23.6590 C   0  0  0  0  0  3  0  0  0  0  0  0
  -25.7870  -33.6970   24.0970 N   0  0  0  0  0  0  0  0  0  0  0  0
  -26.0590  -34.7950   23.3800 C   0  0  0  0  0  0  0  0  0  0  0  0
  -26.6530  -34.7610   22.2990 O   0  0  0  0  0  0  0  0  0  0  0  0
  -25.2580  -33.7980   24.9500 H   0  0  0  0  0  0  0  0  0  0  0  0
  -24.3030  -36.5850   23.2580 C   0  0  0  0  0  1  0  0  0  0  0  0
  -25.6000  -36.1480   23.9560 C   0  0  0  0  0  3  0  0  0  0  0  0
  -27.7820  -36.9980   24.6890 C   0  0  0  0  0  1  0  0  0  0  0  0
  -26.6160  -37.2150   23.8360 N   0  0  0  0  0  0  0  0  0  0  0  0
  -26.2180  -38.1210   24.0670 H   0  0  0  0  0  0  0  0  0  0  0  0
  -26.7010  -31.4810   24.8340 C   0  0  1  0  0  0  0  0  0  0  0  0
  -25.6880  -31.1130   25.9410 C   0  0  0  0  0  1  0  0  0  0  0  0
  -27.3120  -30.1680   24.2940 C   0  0  0  0  0  1  0  0  0  0  0  0
  -27.8570  -32.2730   25.4900 C   0  0  0  0  0  1  0  0  0  0  0  0
  3  1  1  0
  3  6  1  0
  4  2  1  0
  5  1  1  0
  5 11  1  0
  5  2  1  0
  6  4  1  0
  6  7  1  1
  8  9  1  0
 10 12  1  0
 11  8  2  0
 12  9  2  0
 13 10  2  0
 13 11  1  0
 14 13  1  0
 15 12  1  0
 16 24  1  0
 17 22  1  0
 18 19  1  0
 18 17  1  0
 20 19  1  0
 20 29  1  0
 20 21  1  0
 22 16  1  0
 22 21  1  0
 23 16  2  0
 24 15  1  0
 24 25  1  0
 26 27  2  0
 27 46  1  0
 28 27  1  0
 28 31  1  0
 29 30  1  0
 29 26  1  0
 30 28  2  0
 31 32  1  0
 32 33  2  0
 34 37  1  0
 34 33  1  0
 35 34  2  0
 36 35  1  0
 36 31  2  0
 37 38  1  0
 38 39  1  0
 39 40  2  0
 41 40  1  0
 41 45  1  0
 42 41  2  0
 43 38  2  0
 43 42  1  0
 44 43  1  0
 46 47  1  0
 47 49  1  0
 47 50  1  0
 48 46  2  0
 51 26  1  0
 51 52  1  0
 53 51  1  0
 54  6  1  0
 54 55  1  0
 55 56  1  0
 57 55  1  0
 58 60  1  0
 58 57  1  0
 59 70  2  0
 60 65  1  0
 61 69  1  0
 61 71  1  0
 62 68  1  0
 62 64  1  0
 63 69  1  0
 64 63  1  0
 65 64  2  0
 66 67  1  0
 66 60  2  0
 67 62  2  0
 68 61  1  0
 69 59  1  0
 71 73  2  0
 72 71  1  0
 74 72  1  0
 75 84  2  0
 75 80  1  0
 76 72  1  0
 76 80  1  0
 77 76  1  0
 78 79  1  0
 78 77  1  0
 79 75  1  0
 80 81  2  0
 81 82  1  0
 83 82  2  0
 84 83  1  0
 85 59  1  0
 85 86  1  0
 85 95  1  0
 86 89  1  0
 87 91  1  0
 87 86  1  0
 88 87  2  0
 91 90  1  0
 93 91  1  0
 93 94  1  0
 93 92  1  0
 95 98  1  1
 95 96  1  0
 97 95  1  0
M  ISO  4  16 100  24 100  57 101  58 101
M  END
>  <TORSDO>  (50) 
F 21

>  <SCORE>  (50) 
-10.609

>  <name>  (50) 
49

>  <ligand_id>  (50) 
49

>  <original_smiles>  (50) 
[H]c1c([H])c([H])c2c(c1[H])C([H])([H])C([H])([H])C([H])([H])C2([H])N([H])C(=O)C1([H])N(C(=O)C([H])(N([H])C(=O)C([H])(N([H])C([H])([H])[H])C([H])([H])[H])C(C([H])([H])[H])(C([H])([H])[H])C([H])([H])[H])C([H])([H])c2c([H])c(OC([H])([H])C([H])(F)C([H])([H])[N+]3([H])C([H])([H])C([H])([H])C([H])(c4c([H])c([H])c(C([H])([H])N([H])C(=O)N5C([H])([H])C([H])([H])C([H])([H])C([H])(n6nc(-c7c([H])c([H])c(Oc8c([H])c([H])c(F)c([H])c8F)c([H])c7[H])c(C(=O)N([H])[H])c6N([H])[H])C5([H])[H])c([H])c4F)C([H])([H])C3([H])[H])c([H])c([H])c2C1([H])[H]

>  <smiles>  (50) 
[H]c1c([H])c([H])c2c(c1[H])C([H])([H])C([H])([H])C([H])([H])C2([H])N([H])C(=O)C1([H])N(C(=O)C([H])(N([H])C(=O)C([H])(N([H])C([H])([H])[H])C([H])([H])[H])C(C([H])([H])[H])(C([H])([H])[H])C([H])([H])[H])C([H])([H])c2c([H])c(OC([H])([H])C([H])(F)C([H])([H])[N+]3([H])C([H])([H])C([H])([H])C([H])(c4c([H])c([H])c(C([H])([H])N([H])C(=O)N5C([H])([H])C([H])([H])C([H])([H])C([H])(n6nc(-c7c([H])c([H])c(Oc8c([H])c([H])c(F)c([H])c8F)c([H])c7[H])c(C(=O)N([H])[H])c6N([H])[H])C5([H])[H])c([H])c4F)C([H])([H])C3([H])[H])c([H])c([H])c2C1([H])[H]

$$$$
51:0:0
     RDKit          3D

 95103  0  0  1  0  0  0  0  0999 V2000
  -30.1880  -23.7780   23.4220 C   0  0  0  0  0  2  0  0  0  0  0  0
  -29.3030  -24.8120   23.9970 N   0  0  0  0  0  4  0  0  0  0  0  0
  -29.3890  -24.7610   25.0000 H   0  0  0  0  0  0  0  0  0  0  0  0
  -28.3380  -24.6320   23.7730 H   0  0  0  0  0  0  0  0  0  0  0  0
  -29.6670  -26.1910   23.5960 C   0  0  0  0  0  2  0  0  0  0  0  0
  -28.7860  -26.7830   22.4750 C   0  0  0  0  0  2  0  0  0  0  0  0
  -28.7760  -26.0140   21.1330 C   0  0  0  0  0  2  0  0  0  0  0  0
  -28.4410  -26.8100   19.9930 O   0  0  0  0  0  0  0  0  0  0  0  0
  -24.6300  -31.8700   23.1950 C   0  0  0  0  0  0  0  0  0  0  0  0
  -27.2550  -27.4970   20.0560 C   0  0  0  0  0  0  0  0  0  0  0  0
  -23.4040  -30.4850   21.5480 C   0  0  0  0  0  3  0  0  0  0  0  0
  -24.8450  -28.9580   20.1000 C   0  0  0  0  0  0  0  0  0  0  0  0
  -25.9200  -30.8640   21.3190 C   0  0  0  0  0  2  0  0  0  0  0  0
  -26.0020  -29.4990   20.6720 C   0  0  0  0  0  0  0  0  0  0  0  0
  -27.2110  -28.7810   20.6380 C   0  0  0  0  0  3  0  0  0  0  0  0
  -26.0890  -26.9560   19.4800 C   0  0  0  0  0  3  0  0  0  0  0  0
  -24.8810  -27.6840   19.5000 C   0  0  0  0  0  3  0  0  0  0  0  0
  -23.5980  -29.8100   20.1620 C   0  0  0  0  0  2  0  0  0  0  0  0
  -24.6700  -31.0860   22.0800 N   0  0  0  0  0  0  0  0  0  0  0  0
  -23.5560  -32.1350   23.7520 O   0  0  0  0  0  0  0  0  0  0  0  0
  -22.7650  -29.4550   22.5060 C   0  0  0  0  0  0  0  0  0  0  0  0
  -21.4390  -29.2790   22.3920 N   0  0  0  0  0  0  0  0  0  0  0  0
  -23.4570  -28.8190   23.3050 O   0  0  0  0  0  0  0  0  0  0  0  0
  -20.9440  -29.8450   21.7180 H   0  0  0  0  0  0  0  0  0  0  0  0
  -18.0650  -28.1030   22.9130 C   0  0  0  0  0  0  0  0  0  0  0  0
  -20.6270  -28.3350   23.1580 C   0  0  0  0  0  3  0  0  0  0  0  0
  -20.7110  -26.9130   22.5570 C   0  0  0  0  0  2  0  0  0  0  0  0
  -19.5950  -26.6150   21.5510 C   0  0  0  0  0  2  0  0  0  0  0  0
  -18.2220  -26.7620   22.2150 C   0  0  0  0  0  2  0  0  0  0  0  0
  -19.1950  -28.8480   23.3410 C   0  0  0  0  0  0  0  0  0  0  0  0
  -18.9940  -30.1050   23.9520 C   0  0  0  0  0  3  0  0  0  0  0  0
  -17.6970  -30.6160   24.1380 C   0  0  0  0  0  3  0  0  0  0  0  0
  -16.5810  -29.8670   23.7280 C   0  0  0  0  0  3  0  0  0  0  0  0
  -16.7660  -28.6120   23.1210 C   0  0  0  0  0  3  0  0  0  0  0  0
  -25.9250  -32.4890   23.8100 C   0  0  0  0  0  3  0  0  0  0  0  0
  -25.6250  -33.8850   24.1570 N   0  0  0  0  0  0  0  0  0  0  0  0
  -25.9710  -34.9430   23.4120 C   0  0  0  0  0  0  0  0  0  0  0  0
  -26.6450  -34.8480   22.3830 O   0  0  0  0  0  0  0  0  0  0  0  0
  -25.0260  -34.0330   24.9540 H   0  0  0  0  0  0  0  0  0  0  0  0
  -24.2600  -36.7540   23.0610 C   0  0  0  0  0  1  0  0  0  0  0  0
  -25.4880  -36.3290   23.8820 C   0  0  0  0  0  3  0  0  0  0  0  0
  -27.6200  -37.1860   24.7480 C   0  0  0  0  0  1  0  0  0  0  0  0
  -26.5310  -37.3750   23.7950 N   0  0  0  0  0  0  0  0  0  0  0  0
  -26.1320  -38.2960   23.9490 H   0  0  0  0  0  0  0  0  0  0  0  0
  -26.4560  -31.7010   25.0690 C   0  0  1  0  0  0  0  0  0  0  0  0
  -25.3770  -31.4510   26.1470 C   0  0  0  0  0  1  0  0  0  0  0  0
  -27.0330  -30.3280   24.6470 C   0  0  0  0  0  1  0  0  0  0  0  0
  -27.6150  -32.4850   25.7290 C   0  0  0  0  0  1  0  0  0  0  0  0
  -29.8100  -22.3490   23.8470 C   0  0  0  0  0  2  0  0  0  0  0  0
  -30.6880  -21.3170   23.1190 C   0  0  0  0  0  2  0  0  0  0  0  0
  -30.2280  -19.8560   23.3030 C   0  0  0  0  0  2  0  0  0  0  0  0
  -30.9150  -17.8900   20.2610 C   0  0  0  0  0  2  0  0  0  0  0  0
  -31.0050  -19.2260   21.0060 C   0  0  0  0  0  2  0  0  0  0  0  0
  -30.6210  -17.4980   22.5940 C   0  0  0  0  0  2  0  0  0  0  0  0
  -31.1880  -16.8330   21.3360 C   0  0  0  0  0  3  0  0  0  0  0  0
  -31.0070  -18.9170   22.4590 N   0  0  2  0  0  4  0  0  0  0  0  0
  -31.9700  -18.9680   22.7610 H   0  0  0  0  0  0  0  0  0  0  0  0
  -31.0710  -14.6490   20.1650 C   0  0  0  0  0  0  0  0  0  0  0  0
  -30.6590  -12.5410   18.9620 C   0  0  0  0  0  2  0  0  0  0  0  0
  -29.6740  -12.7620   17.8000 C   0  0  0  0  0  2  0  0  0  0  0  0
  -28.2190  -12.6360   18.2870 C   0  0  0  0  0  2  0  0  0  0  0  0
  -27.9390  -13.4840   19.5570 C   0  0  0  0  0  3  0  0  0  0  0  0
  -29.0280  -13.2410   20.6250 C   0  0  0  0  0  2  0  0  0  0  0  0
  -30.3440  -13.5130   20.0180 N   0  0  0  0  0  0  0  0  0  0  0  0
  -32.0920  -14.8920   19.5150 O   0  0  0  0  0  0  0  0  0  0  0  0
  -30.5960  -15.5240   21.0600 N   0  0  0  0  0  0  0  0  0  0  0  0
  -29.7690  -15.2500   21.5710 H   0  0  0  0  0  0  0  0  0  0  0  0
  -25.5820  -14.1220   20.3770 C   0  0  0  0  0  0  0  0  0  0  0  0
  -24.5160  -13.3600   20.7770 C   0  0  0  0  0  0  0  0  0  0  0  0
  -24.9510  -12.0020   20.6970 C   0  0  0  0  0  0  0  0  0  0  0  0
  -26.6010  -13.2270   20.0840 N   0  0  0  0  0  0  0  0  0  0  0  0
  -26.2250  -11.9470   20.3300 N   0  0  0  0  0  0  0  0  0  0  0  0
  -24.2110  -10.7470   20.8920 C   0  0  0  0  0  0  0  0  0  0  0  0
  -24.6210   -9.7890   21.8450 C   0  0  0  0  0  3  0  0  0  0  0  0
  -23.8830   -8.6000   22.0270 C   0  0  0  0  0  3  0  0  0  0  0  0
  -22.7220   -8.3600   21.2540 C   0  0  0  0  0  0  0  0  0  0  0  0
  -22.3310   -9.3060   20.2910 C   0  0  0  0  0  3  0  0  0  0  0  0
  -23.0700  -10.4870   20.1070 C   0  0  0  0  0  3  0  0  0  0  0  0
  -21.9570   -7.2220   21.3440 O   0  0  0  0  0  0  0  0  0  0  0  0
  -21.8050   -6.5490   22.5300 C   0  0  0  0  0  0  0  0  0  0  0  0
  -21.2850   -7.1780   23.6830 C   0  0  0  0  0  3  0  0  0  0  0  0
  -21.0800   -6.4310   24.8610 C   0  0  0  0  0  3  0  0  0  0  0  0
  -21.3850   -5.0580   24.8860 C   0  0  0  0  0  0  0  0  0  0  0  0
  -21.8970   -4.4280   23.7380 C   0  0  0  0  0  3  0  0  0  0  0  0
  -22.1040   -5.1720   22.5620 C   0  0  0  0  0  0  0  0  0  0  0  0
  -22.5780   -4.5560   21.4520 F   0  0  0  0  0  0  0  0  0  0  0  0
  -21.1810   -4.3380   26.0140 F   0  0  0  0  0  0  0  0  0  0  0  0
  -23.1410  -13.8540   21.1230 C   0  0  0  0  0  0  0  0  0  0  0  0
  -22.4480  -13.1620   22.0190 N   0  0  0  0  0  0  0  0  0  0  0  0
  -22.6920  -14.8900   20.6340 O   0  0  0  0  0  0  0  0  0  0  0  0
  -22.8240  -12.3230   22.4370 H   0  0  0  0  0  0  0  0  0  0  0  0
  -21.5260  -13.4750   22.2920 H   0  0  0  0  0  0  0  0  0  0  0  0
  -25.7650  -15.4930   20.2210 N   0  0  0  0  0  0  0  0  0  0  0  0
  -25.0160  -16.1600   20.3730 H   0  0  0  0  0  0  0  0  0  0  0  0
  -26.6090  -15.9200   19.8610 H   0  0  0  0  0  0  0  0  0  0  0  0
  1 49  1  0
  1  2  1  0
  2  3  1  0
  4  2  1  0
  5  2  1  0
  6  5  1  0
  7  6  1  0
  8 10  1  0
  8  7  1  0
  9 20  2  0
 10 15  1  0
 11 19  1  0
 11 21  1  0
 12 18  1  0
 12 14  1  0
 13 19  1  0
 14 13  1  0
 15 14  2  0
 16 17  1  0
 16 10  2  0
 17 12  2  0
 18 11  1  0
 19  9  1  0
 21 23  2  0
 22 21  1  0
 24 22  1  0
 25 34  2  0
 25 30  1  0
 26 22  1  0
 26 30  1  0
 27 26  1  0
 28 29  1  0
 28 27  1  0
 29 25  1  0
 30 31  2  0
 31 32  1  0
 33 32  2  0
 34 33  1  0
 35  9  1  0
 35 36  1  0
 35 45  1  0
 36 39  1  0
 37 41  1  0
 37 36  1  0
 38 37  2  0
 41 40  1  0
 43 41  1  0
 43 44  1  0
 43 42  1  0
 45 48  1  1
 45 46  1  0
 47 45  1  0
 50 51  1  0
 50 49  1  0
 52 53  1  0
 52 55  1  0
 53 56  1  0
 55 66  1  0
 55 54  1  0
 56 54  1  0
 56 57  1  1
 56 51  1  0
 58 66  1  0
 59 64  1  0
 60 61  1  0
 60 59  1  0
 62 61  1  0
 62 71  1  0
 62 63  1  0
 64 58  1  0
 64 63  1  0
 65 58  2  0
 66 67  1  0
 68 69  2  0
 69 88  1  0
 70 69  1  0
 70 73  1  0
 71 72  1  0
 71 68  1  0
 72 70  2  0
 73 74  1  0
 74 75  2  0
 76 79  1  0
 76 75  1  0
 77 76  2  0
 78 77  1  0
 78 73  2  0
 79 80  1  0
 80 85  2  0
 80 81  1  0
 81 82  2  0
 82 83  1  0
 83 87  1  0
 84 83  2  0
 85 84  1  0
 86 85  1  0
 88 89  1  0
 89 92  1  0
 89 91  1  0
 90 88  2  0
 93 94  1  0
 93 68  1  0
 95 93  1  0
M  ISO  4   7 101   8 101  58 100  66 100
M  END
>  <TORSDO>  (51) 
F 24

>  <SCORE>  (51) 
-11.553

>  <name>  (51) 
51

>  <ligand_id>  (51) 
51

>  <original_smiles>  (51) 
[H]c1c([H])c([H])c2c(c1[H])C([H])([H])C([H])([H])C([H])([H])C2([H])N([H])C(=O)C1([H])N(C(=O)C([H])(N([H])C(=O)C([H])(N([H])C([H])([H])[H])C([H])([H])[H])C(C([H])([H])[H])(C([H])([H])[H])C([H])([H])[H])C([H])([H])c2c([H])c(OC([H])([H])C([H])([H])C([H])([H])[N+]([H])([H])C([H])([H])C([H])([H])C([H])([H])C([H])([H])[N+]3([H])C([H])([H])C([H])([H])C([H])(N([H])C(=O)N4C([H])([H])C([H])([H])C([H])([H])C([H])(n5nc(-c6c([H])c([H])c(Oc7c([H])c([H])c(F)c([H])c7F)c([H])c6[H])c(C(=O)N([H])[H])c5N([H])[H])C4([H])[H])C3([H])[H])c([H])c([H])c2C1([H])[H]

>  <smiles>  (51) 
[H]c1c([H])c([H])c2c(c1[H])C([H])([H])C([H])([H])C([H])([H])C2([H])N([H])C(=O)C1([H])N(C(=O)C([H])(N([H])C(=O)C([H])(N([H])C([H])([H])[H])C([H])([H])[H])C(C([H])([H])[H])(C([H])([H])[H])C([H])([H])[H])C([H])([H])c2c([H])c(OC([H])([H])C([H])([H])C([H])([H])[N+]([H])([H])C([H])([H])C([H])([H])C([H])([H])C([H])([H])[N+]3([H])C([H])([H])C([H])([H])C([H])(N([H])C(=O)N4C([H])([H])C([H])([H])C([H])([H])C([H])(n5nc(-c6c([H])c([H])c(Oc7c([H])c([H])c(F)c([H])c7F)c([H])c6[H])c(C(=O)N([H])[H])c5N([H])[H])C4([H])[H])C3([H])[H])c([H])c([H])c2C1([H])[H]

$$$$
52:0:0
     RDKit          3D

 92100  0  0  1  0  0  0  0  0999 V2000
  -29.0050  -21.5960   20.8350 C   0  0  0  0  0  2  0  0  0  0  0  0
  -29.3210  -17.9550   19.2110 C   0  0  0  0  0  2  0  0  0  0  0  0
  -29.6470  -17.8080   21.6490 C   0  0  0  0  0  2  0  0  0  0  0  0
  -29.4370  -19.5270   19.3060 C   0  0  0  0  0  2  0  0  0  0  0  0
  -29.7570  -19.3650   21.7050 C   0  0  0  0  0  2  0  0  0  0  0  0
  -30.1140  -17.1830   20.3110 C   0  0  0  0  0  3  0  0  0  0  0  0
  -28.9980  -20.0770   20.6290 N   0  0  1  0  0  4  0  0  0  0  0  0
  -28.0260  -19.8170   20.7310 H   0  0  0  0  0  0  0  0  0  0  0  0
  -30.7560  -14.6700   19.9690 C   0  0  0  0  0  0  0  0  0  0  0  0
  -30.5460  -12.4280   18.9260 C   0  0  0  0  0  2  0  0  0  0  0  0
  -29.5250  -12.5380   17.7720 C   0  0  0  0  0  2  0  0  0  0  0  0
  -28.0830  -12.3630   18.2910 C   0  0  0  0  0  2  0  0  0  0  0  0
  -27.7900  -13.2230   19.5500 C   0  0  0  0  0  3  0  0  0  0  0  0
  -28.9140  -13.0710   20.5970 C   0  0  0  0  0  2  0  0  0  0  0  0
  -30.1760  -13.4350   19.9390 N   0  0  0  0  0  0  0  0  0  0  0  0
  -31.8930  -14.8730   19.5350 O   0  0  0  0  0  0  0  0  0  0  0  0
  -29.9160  -15.6950   20.3100 N   0  0  0  0  0  0  0  0  0  0  0  0
  -29.0020  -15.3790   20.5950 H   0  0  0  0  0  0  0  0  0  0  0  0
  -25.4490  -13.8000   20.4400 C   0  0  0  0  0  0  0  0  0  0  0  0
  -24.4140  -13.0150   20.8650 C   0  0  0  0  0  0  0  0  0  0  0  0
  -24.8780  -11.6680   20.7740 C   0  0  0  0  0  0  0  0  0  0  0  0
  -26.4770  -12.9310   20.1170 N   0  0  0  0  0  0  0  0  0  0  0  0
  -26.1440  -11.6420   20.3780 N   0  0  0  0  0  0  0  0  0  0  0  0
  -24.1730  -10.3970   20.9830 C   0  0  0  0  0  0  0  0  0  0  0  0
  -24.6140   -9.4570   21.9390 C   0  0  0  0  0  3  0  0  0  0  0  0
  -23.9090   -8.2490   22.1340 C   0  0  0  0  0  3  0  0  0  0  0  0
  -22.7480   -7.9750   21.3720 C   0  0  0  0  0  0  0  0  0  0  0  0
  -22.3260   -8.9050   20.4050 C   0  0  0  0  0  3  0  0  0  0  0  0
  -23.0320  -10.1040   20.2090 C   0  0  0  0  0  3  0  0  0  0  0  0
  -22.0120   -6.8200   21.4740 O   0  0  0  0  0  0  0  0  0  0  0  0
  -21.8850   -6.1550   22.6670 C   0  0  0  0  0  0  0  0  0  0  0  0
  -21.3270   -6.7680   23.8100 C   0  0  0  0  0  3  0  0  0  0  0  0
  -21.1530   -6.0230   24.9940 C   0  0  0  0  0  3  0  0  0  0  0  0
  -21.5240   -4.6650   25.0330 C   0  0  0  0  0  0  0  0  0  0  0  0
  -22.0740   -4.0510   23.8940 C   0  0  0  0  0  3  0  0  0  0  0  0
  -22.2520   -4.7940   22.7130 C   0  0  0  0  0  0  0  0  0  0  0  0
  -22.7620   -4.1920   21.6130 F   0  0  0  0  0  0  0  0  0  0  0  0
  -21.3490   -3.9480   26.1680 F   0  0  0  0  0  0  0  0  0  0  0  0
  -23.0350  -13.4800   21.2380 C   0  0  0  0  0  0  0  0  0  0  0  0
  -22.3730  -12.7630   22.1380 N   0  0  0  0  0  0  0  0  0  0  0  0
  -22.5570  -14.5120   20.7660 O   0  0  0  0  0  0  0  0  0  0  0  0
  -22.7730  -11.9260   22.5370 H   0  0  0  0  0  0  0  0  0  0  0  0
  -21.4500  -13.0540   22.4320 H   0  0  0  0  0  0  0  0  0  0  0  0
  -25.5940  -15.1750   20.2780 N   0  0  0  0  0  0  0  0  0  0  0  0
  -24.8170  -15.8080   20.4260 H   0  0  0  0  0  0  0  0  0  0  0  0
  -26.3850  -15.6200   19.8300 H   0  0  0  0  0  0  0  0  0  0  0  0
  -28.4390  -22.5420   19.6960 C   0  0  0  0  0  3  0  0  0  0  0  0
  -27.5750  -21.8080   18.9890 F   0  0  0  0  0  0  0  0  0  0  0  0
  -26.3600  -23.6500   20.7670 C   0  0  0  0  0  1  0  0  0  0  0  0
  -27.6810  -23.9320   20.0060 C   0  0  0  0  0  3  0  0  0  0  0  0
  -28.4360  -25.1710   20.6630 C   0  0  0  0  0  2  0  0  0  0  0  0
  -28.4070  -26.5360   20.0800 O   0  0  0  0  0  0  0  0  0  0  0  0
  -24.6980  -31.8840   23.2170 C   0  0  0  0  0  0  0  0  0  0  0  0
  -27.2660  -27.3370   20.1360 C   0  0  0  0  0  0  0  0  0  0  0  0
  -23.4740  -30.4900   21.5880 C   0  0  0  0  0  3  0  0  0  0  0  0
  -24.9040  -28.9330   20.1550 C   0  0  0  0  0  0  0  0  0  0  0  0
  -26.0080  -30.8150   21.3730 C   0  0  0  0  0  2  0  0  0  0  0  0
  -26.0800  -29.4350   20.7300 C   0  0  0  0  0  0  0  0  0  0  0  0
  -27.2650  -28.6440   20.7130 C   0  0  0  0  0  3  0  0  0  0  0  0
  -26.0780  -26.8950   19.5260 C   0  0  0  0  0  3  0  0  0  0  0  0
  -24.9020  -27.6660   19.5520 C   0  0  0  0  0  3  0  0  0  0  0  0
  -23.6730  -29.8110   20.2080 C   0  0  0  0  0  2  0  0  0  0  0  0
  -24.7460  -31.0800   22.1170 N   0  0  0  0  0  0  0  0  0  0  0  0
  -23.6190  -32.1560   23.7650 O   0  0  0  0  0  0  0  0  0  0  0  0
  -22.8260  -29.4700   22.5560 C   0  0  0  0  0  0  0  0  0  0  0  0
  -21.5000  -29.2830   22.4370 N   0  0  0  0  0  0  0  0  0  0  0  0
  -23.5150  -28.8510   23.3710 O   0  0  0  0  0  0  0  0  0  0  0  0
  -21.0050  -29.8350   21.7510 H   0  0  0  0  0  0  0  0  0  0  0  0
  -18.1340  -28.0610   22.9410 C   0  0  0  0  0  0  0  0  0  0  0  0
  -20.6920  -28.3390   23.2120 C   0  0  0  0  0  3  0  0  0  0  0  0
  -20.8040  -26.9060   22.6410 C   0  0  0  0  0  2  0  0  0  0  0  0
  -19.7030  -26.5700   21.6310 C   0  0  0  0  0  2  0  0  0  0  0  0
  -18.3210  -26.7100   22.2750 C   0  0  0  0  0  2  0  0  0  0  0  0
  -19.2480  -28.8310   23.3700 C   0  0  0  0  0  0  0  0  0  0  0  0
  -19.0180  -30.0950   23.9540 C   0  0  0  0  0  3  0  0  0  0  0  0
  -17.7110  -30.5880   24.1180 C   0  0  0  0  0  3  0  0  0  0  0  0
  -16.6110  -29.8120   23.7120 C   0  0  0  0  0  3  0  0  0  0  0  0
  -16.8250  -28.5510   23.1260 C   0  0  0  0  0  3  0  0  0  0  0  0
  -25.9840  -32.5160   23.8240 C   0  0  0  0  0  3  0  0  0  0  0  0
  -26.5190  -31.7350   25.0880 C   0  0  1  0  0  0  0  0  0  0  0  0
  -25.4390  -31.4820   26.1670 C   0  0  0  0  0  1  0  0  0  0  0  0
  -27.1060  -30.3690   24.6670 C   0  0  0  0  0  1  0  0  0  0  0  0
  -27.6760  -32.5250   25.7390 C   0  0  0  0  0  1  0  0  0  0  0  0
  -25.6740  -33.9100   24.1730 N   0  0  0  0  0  0  0  0  0  0  0  0
  -25.9940  -34.9710   23.4180 C   0  0  0  0  0  0  0  0  0  0  0  0
  -26.6490  -34.8770   22.3760 O   0  0  0  0  0  0  0  0  0  0  0  0
  -25.1020  -34.0560   24.9900 H   0  0  0  0  0  0  0  0  0  0  0  0
  -24.2660  -36.7610   23.1000 C   0  0  0  0  0  1  0  0  0  0  0  0
  -25.5150  -36.3530   23.8960 C   0  0  0  0  0  3  0  0  0  0  0  0
  -27.6540  -37.2340   24.7140 C   0  0  0  0  0  1  0  0  0  0  0  0
  -26.5440  -37.4090   23.7800 N   0  0  0  0  0  0  0  0  0  0  0  0
  -26.1410  -38.3300   23.9370 H   0  0  0  0  0  0  0  0  0  0  0  0
  2  4  1  0
  2  6  1  0
  3  5  1  0
  4  7  1  0
  6 17  1  0
  6  3  1  0
  7  8  1  1
  7  1  1  0
  7  5  1  0
  9 17  1  0
 10 15  1  0
 11 12  1  0
 11 10  1  0
 13 12  1  0
 13 22  1  0
 13 14  1  0
 15  9  1  0
 15 14  1  0
 16  9  2  0
 17 18  1  0
 19 20  2  0
 20 39  1  0
 21 20  1  0
 21 24  1  0
 22 23  1  0
 22 19  1  0
 23 21  2  0
 24 25  1  0
 25 26  2  0
 27 30  1  0
 27 26  1  0
 28 27  2  0
 29 28  1  0
 29 24  2  0
 30 31  1  0
 31 36  2  0
 31 32  1  0
 32 33  2  0
 33 34  1  0
 34 38  1  0
 35 34  2  0
 36 35  1  0
 37 36  1  0
 39 40  1  0
 40 43  1  0
 40 42  1  0
 41 39  2  0
 44 45  1  0
 44 19  1  0
 46 44  1  0
 47 48  1  0
 47 50  1  0
 47  1  1  0
 50 51  1  0
 50 49  1  0
 52 54  1  0
 52 51  1  0
 53 64  2  0
 54 59  1  0
 55 63  1  0
 55 65  1  0
 56 62  1  0
 56 58  1  0
 57 63  1  0
 58 57  1  0
 59 58  2  0
 60 61  1  0
 60 54  2  0
 61 56  2  0
 62 55  1  0
 63 53  1  0
 65 67  2  0
 66 65  1  0
 68 66  1  0
 69 78  2  0
 69 74  1  0
 70 66  1  0
 70 74  1  0
 71 70  1  0
 72 73  1  0
 72 71  1  0
 73 69  1  0
 74 75  2  0
 75 76  1  0
 77 76  2  0
 78 77  1  0
 79 53  1  0
 79 84  1  0
 79 80  1  0
 80 83  1  1
 80 81  1  0
 82 80  1  0
 84 87  1  0
 85 89  1  0
 85 84  1  0
 86 85  2  0
 89 88  1  0
 91 89  1  0
 91 92  1  0
 91 90  1  0
M  ISO  4   9 100  17 100  51 101  52 101
M  END
>  <TORSDO>  (52) 
F 20

>  <SCORE>  (52) 
-12.978

>  <name>  (52) 
52

>  <ligand_id>  (52) 
52

>  <original_smiles>  (52) 
[H]c1c([H])c([H])c2c(c1[H])C([H])([H])C([H])([H])C([H])([H])C2([H])N([H])C(=O)C1([H])N(C(=O)C([H])(N([H])C(=O)C([H])(N([H])C([H])([H])[H])C([H])([H])[H])C(C([H])([H])[H])(C([H])([H])[H])C([H])([H])[H])C([H])([H])c2c([H])c(OC([H])([H])C([H])(C([H])([H])[H])C([H])(F)C([H])([H])[N+]3([H])C([H])([H])C([H])([H])C([H])(N([H])C(=O)N4C([H])([H])C([H])([H])C([H])([H])C([H])(n5nc(-c6c([H])c([H])c(Oc7c([H])c([H])c(F)c([H])c7F)c([H])c6[H])c(C(=O)N([H])[H])c5N([H])[H])C4([H])[H])C([H])([H])C3([H])[H])c([H])c([H])c2C1([H])[H]

>  <smiles>  (52) 
[H]c1c([H])c([H])c2c(c1[H])C([H])([H])C([H])([H])C([H])([H])C2([H])N([H])C(=O)C1([H])N(C(=O)C([H])(N([H])C(=O)C([H])(N([H])C([H])([H])[H])C([H])([H])[H])C(C([H])([H])[H])(C([H])([H])[H])C([H])([H])[H])C([H])([H])c2c([H])c(OC([H])([H])C([H])(C([H])([H])[H])C([H])(F)C([H])([H])[N+]3([H])C([H])([H])C([H])([H])C([H])(N([H])C(=O)N4C([H])([H])C([H])([H])C([H])([H])C([H])(n5nc(-c6c([H])c([H])c(Oc7c([H])c([H])c(F)c([H])c7F)c([H])c6[H])c(C(=O)N([H])[H])c5N([H])[H])C4([H])[H])C([H])([H])C3([H])[H])c([H])c([H])c2C1([H])[H]

$$$$
53:0:0
     RDKit          3D

 95103  0  0  1  0  0  0  0  0999 V2000
  -28.7540  -21.0580   21.9850 C   0  0  0  0  0  2  0  0  0  0  0  0
  -29.9960  -18.8930   21.5430 C   0  0  0  0  0  3  0  0  0  0  0  0
  -30.5160  -19.5770   18.8710 C   0  0  0  0  0  3  0  0  0  0  0  0
  -30.7550  -18.0150   20.7360 C   0  0  0  0  0  0  0  0  0  0  0  0
  -29.5090  -20.1220   21.0350 C   0  0  0  0  0  0  0  0  0  0  0  0
  -31.0190  -18.3740   19.3940 C   0  0  0  0  0  0  0  0  0  0  0  0
  -29.7700  -20.4490   19.6810 C   0  0  0  0  0  0  0  0  0  0  0  0
  -31.7750  -17.5830   18.6000 F   0  0  0  0  0  0  0  0  0  0  0  0
  -29.3110  -21.6040   19.1380 F   0  0  0  0  0  0  0  0  0  0  0  0
  -31.3330  -16.7350   21.3350 C   0  0  0  0  0  2  0  0  0  0  0  0
  -31.1230  -14.5720   20.1120 C   0  0  0  0  0  0  0  0  0  0  0  0
  -30.7010  -12.4270   18.9740 C   0  0  0  0  0  2  0  0  0  0  0  0
  -29.7280  -12.6060   17.7940 C   0  0  0  0  0  2  0  0  0  0  0  0
  -28.2690  -12.4980   18.2740 C   0  0  0  0  0  2  0  0  0  0  0  0
  -27.9800  -13.3910   19.5100 C   0  0  0  0  0  3  0  0  0  0  0  0
  -29.0600  -13.1960   20.5980 C   0  0  0  0  0  2  0  0  0  0  0  0
  -30.3790  -13.4440   19.9870 N   0  0  0  0  0  0  0  0  0  0  0  0
  -32.1790  -14.7450   19.5000 O   0  0  0  0  0  0  0  0  0  0  0  0
  -30.6430  -15.5020   20.9500 N   0  0  0  0  0  0  0  0  0  0  0  0
  -29.7690  -15.2970   21.4100 H   0  0  0  0  0  0  0  0  0  0  0  0
  -25.6280  -14.0630   20.3140 C   0  0  0  0  0  0  0  0  0  0  0  0
  -24.5510  -13.3180   20.7150 C   0  0  0  0  0  0  0  0  0  0  0  0
  -24.9690  -11.9530   20.6500 C   0  0  0  0  0  0  0  0  0  0  0  0
  -26.6370  -13.1530   20.0350 N   0  0  0  0  0  0  0  0  0  0  0  0
  -26.2450  -11.8790   20.2930 N   0  0  0  0  0  0  0  0  0  0  0  0
  -24.2120  -10.7110   20.8540 C   0  0  0  0  0  0  0  0  0  0  0  0
  -24.5990   -9.7610   21.8250 C   0  0  0  0  0  3  0  0  0  0  0  0
  -23.8460   -8.5830   22.0130 C   0  0  0  0  0  3  0  0  0  0  0  0
  -22.6900   -8.3470   21.2310 C   0  0  0  0  0  0  0  0  0  0  0  0
  -22.3210   -9.2850   20.2520 C   0  0  0  0  0  3  0  0  0  0  0  0
  -23.0760  -10.4550   20.0610 C   0  0  0  0  0  3  0  0  0  0  0  0
  -21.9110   -7.2190   21.3280 O   0  0  0  0  0  0  0  0  0  0  0  0
  -21.7470   -6.5570   22.5180 C   0  0  0  0  0  0  0  0  0  0  0  0
  -21.1830   -7.1870   23.6490 C   0  0  0  0  0  3  0  0  0  0  0  0
  -20.9690   -6.4490   24.8300 C   0  0  0  0  0  3  0  0  0  0  0  0
  -21.3060   -5.0840   24.8800 C   0  0  0  0  0  0  0  0  0  0  0  0
  -21.8630   -4.4540   23.7530 C   0  0  0  0  0  3  0  0  0  0  0  0
  -22.0790   -5.1880   22.5740 C   0  0  0  0  0  0  0  0  0  0  0  0
  -22.5950   -4.5720   21.4840 F   0  0  0  0  0  0  0  0  0  0  0  0
  -21.0930   -4.3730   26.0130 F   0  0  0  0  0  0  0  0  0  0  0  0
  -23.1800  -13.8330   21.0460 C   0  0  0  0  0  0  0  0  0  0  0  0
  -22.4710  -13.1550   21.9420 N   0  0  0  0  0  0  0  0  0  0  0  0
  -22.7500  -14.8720   20.5480 O   0  0  0  0  0  0  0  0  0  0  0  0
  -22.8330  -12.3130   22.3650 H   0  0  0  0  0  0  0  0  0  0  0  0
  -21.5520  -13.4810   22.2050 H   0  0  0  0  0  0  0  0  0  0  0  0
  -25.8270  -15.4300   20.1480 N   0  0  0  0  0  0  0  0  0  0  0  0
  -25.0850  -16.1060   20.2920 H   0  0  0  0  0  0  0  0  0  0  0  0
  -26.6830  -15.8480   19.8020 H   0  0  0  0  0  0  0  0  0  0  0  0
  -28.1050  -22.2110   21.3230 N   0  0  0  0  0  4  0  0  0  0  0  0
  -27.1180  -22.1880   21.5200 H   0  0  0  0  0  0  0  0  0  0  0  0
  -28.2390  -22.0660   20.3300 H   0  0  0  0  0  0  0  0  0  0  0  0
  -28.6640  -23.5380   21.6670 C   0  0  0  0  0  2  0  0  0  0  0  0
  -28.2000  -24.6270   20.6810 C   0  0  0  0  0  2  0  0  0  0  0  0
  -28.7720  -26.0170   21.0060 C   0  0  0  0  0  2  0  0  0  0  0  0
  -28.5250  -26.9230   19.9350 O   0  0  0  0  0  0  0  0  0  0  0  0
  -24.6300  -31.8980   23.2100 C   0  0  0  0  0  0  0  0  0  0  0  0
  -27.3390  -27.6040   20.0140 C   0  0  0  0  0  0  0  0  0  0  0  0
  -23.4380  -30.5160   21.5380 C   0  0  0  0  0  3  0  0  0  0  0  0
  -24.9130  -29.0360   20.0740 C   0  0  0  0  0  0  0  0  0  0  0  0
  -25.9530  -30.9280   21.3380 C   0  0  0  0  0  2  0  0  0  0  0  0
  -26.0590  -29.5730   20.6740 C   0  0  0  0  0  0  0  0  0  0  0  0
  -27.2770  -28.8600   20.6490 C   0  0  0  0  0  3  0  0  0  0  0  0
  -26.1830  -27.0710   19.4080 C   0  0  0  0  0  3  0  0  0  0  0  0
  -24.9670  -27.7800   19.4430 C   0  0  0  0  0  3  0  0  0  0  0  0
  -23.6530  -29.8690   20.1430 C   0  0  0  0  0  2  0  0  0  0  0  0
  -24.6910  -31.1280   22.0880 N   0  0  0  0  0  0  0  0  0  0  0  0
  -23.5470  -32.1390   23.7620 O   0  0  0  0  0  0  0  0  0  0  0  0
  -22.8080  -29.4620   22.4770 C   0  0  0  0  0  0  0  0  0  0  0  0
  -21.4870  -29.2650   22.3490 N   0  0  0  0  0  0  0  0  0  0  0  0
  -23.5070  -28.8270   23.2720 O   0  0  0  0  0  0  0  0  0  0  0  0
  -20.9870  -29.8300   21.6790 H   0  0  0  0  0  0  0  0  0  0  0  0
  -18.1270  -28.0390   22.8510 C   0  0  0  0  0  0  0  0  0  0  0  0
  -20.6870  -28.2970   23.0990 C   0  0  0  0  0  3  0  0  0  0  0  0
  -20.7870  -26.8890   22.4700 C   0  0  0  0  0  2  0  0  0  0  0  0
  -19.6720  -26.5970   21.4600 C   0  0  0  0  0  2  0  0  0  0  0  0
  -18.3000  -26.7140   22.1280 C   0  0  0  0  0  2  0  0  0  0  0  0
  -19.2480  -28.7900   23.2930 C   0  0  0  0  0  0  0  0  0  0  0  0
  -19.0340  -30.0330   23.9270 C   0  0  0  0  0  3  0  0  0  0  0  0
  -17.7310  -30.5240   24.1270 C   0  0  0  0  0  3  0  0  0  0  0  0
  -16.6230  -29.7680   23.7040 C   0  0  0  0  0  3  0  0  0  0  0  0
  -16.8230  -28.5290   23.0710 C   0  0  0  0  0  3  0  0  0  0  0  0
  -25.9100  -32.5310   23.8400 C   0  0  0  0  0  3  0  0  0  0  0  0
  -25.5930  -33.9250   24.1760 N   0  0  0  0  0  0  0  0  0  0  0  0
  -25.9300  -34.9820   23.4250 C   0  0  0  0  0  0  0  0  0  0  0  0
  -26.6120  -34.8860   22.4010 O   0  0  0  0  0  0  0  0  0  0  0  0
  -24.9860  -34.0720   24.9680 H   0  0  0  0  0  0  0  0  0  0  0  0
  -24.2050  -36.7730   23.0530 C   0  0  0  0  0  1  0  0  0  0  0  0
  -25.4320  -36.3660   23.8830 C   0  0  0  0  0  3  0  0  0  0  0  0
  -27.5460  -37.2520   24.7640 C   0  0  0  0  0  1  0  0  0  0  0  0
  -26.4650  -37.4210   23.7960 N   0  0  0  0  0  0  0  0  0  0  0  0
  -26.0540  -38.3400   23.9370 H   0  0  0  0  0  0  0  0  0  0  0  0
  -26.4290  -31.7520   25.1100 C   0  0  1  0  0  0  0  0  0  0  0  0
  -25.3300  -31.4830   26.1650 C   0  0  0  0  0  1  0  0  0  0  0  0
  -27.0360  -30.3890   24.7030 C   0  0  0  0  0  1  0  0  0  0  0  0
  -27.5620  -32.5550   25.7910 C   0  0  0  0  0  1  0  0  0  0  0  0
  3  6  2  0
  3  7  1  0
  4 10  1  0
  4  2  2  0
  5  2  1  0
  5  1  1  0
  6  4  1  0
  7  5  2  0
  8  6  1  0
  9  7  1  0
 11 19  1  0
 12 17  1  0
 13 14  1  0
 13 12  1  0
 15 14  1  0
 15 24  1  0
 15 16  1  0
 17 11  1  0
 17 16  1  0
 18 11  2  0
 19 10  1  0
 19 20  1  0
 21 22  2  0
 22 41  1  0
 23 22  1  0
 23 26  1  0
 24 25  1  0
 24 21  1  0
 25 23  2  0
 26 27  1  0
 27 28  2  0
 29 32  1  0
 29 28  1  0
 30 29  2  0
 31 30  1  0
 31 26  2  0
 32 33  1  0
 33 38  2  0
 33 34  1  0
 34 35  2  0
 35 36  1  0
 36 40  1  0
 37 36  2  0
 38 37  1  0
 39 38  1  0
 41 42  1  0
 42 45  1  0
 42 44  1  0
 43 41  2  0
 46 47  1  0
 46 21  1  0
 48 46  1  0
 49 50  1  0
 49 52  1  0
 49  1  1  0
 51 49  1  0
 53 54  1  0
 53 52  1  0
 55 57  1  0
 55 54  1  0
 56 67  2  0
 57 62  1  0
 58 66  1  0
 58 68  1  0
 59 65  1  0
 59 61  1  0
 60 66  1  0
 61 60  1  0
 62 61  2  0
 63 64  1  0
 63 57  2  0
 64 59  2  0
 65 58  1  0
 66 56  1  0
 68 70  2  0
 69 68  1  0
 71 69  1  0
 72 81  2  0
 72 77  1  0
 73 69  1  0
 73 77  1  0
 74 73  1  0
 75 76  1  0
 75 74  1  0
 76 72  1  0
 77 78  2  0
 78 79  1  0
 80 79  2  0
 81 80  1  0
 82 56  1  0
 82 83  1  0
 82 92  1  0
 83 86  1  0
 84 88  1  0
 84 83  1  0
 85 84  2  0
 88 87  1  0
 90 88  1  0
 90 91  1  0
 90 89  1  0
 92 95  1  1
 92 93  1  0
 94 92  1  0
M  ISO  4  11 100  19 100  54 101  55 101
M  END
>  <TORSDO>  (53) 
F 22

>  <SCORE>  (53) 
-12.481

>  <name>  (53) 
53

>  <ligand_id>  (53) 
53

>  <original_smiles>  (53) 
[H]c1c([H])c([H])c2c(c1[H])C([H])([H])C([H])([H])C([H])([H])C2([H])N([H])C(=O)C1([H])N(C(=O)C([H])(N([H])C(=O)C([H])(N([H])C([H])([H])[H])C([H])([H])[H])C(C([H])([H])[H])(C([H])([H])[H])C([H])([H])[H])C([H])([H])c2c([H])c(OC([H])([H])C([H])([H])C([H])([H])[N+]([H])([H])C([H])([H])c3c([H])c(C([H])([H])N([H])C(=O)N4C([H])([H])C([H])([H])C([H])([H])C([H])(n5nc(-c6c([H])c([H])c(Oc7c([H])c([H])c(F)c([H])c7F)c([H])c6[H])c(C(=O)N([H])[H])c5N([H])[H])C4([H])[H])c(F)c([H])c3F)c([H])c([H])c2C1([H])[H]

>  <smiles>  (53) 
[H]c1c([H])c([H])c2c(c1[H])C([H])([H])C([H])([H])C([H])([H])C2([H])N([H])C(=O)C1([H])N(C(=O)C([H])(N([H])C(=O)C([H])(N([H])C([H])([H])[H])C([H])([H])[H])C(C([H])([H])[H])(C([H])([H])[H])C([H])([H])[H])C([H])([H])c2c([H])c(OC([H])([H])C([H])([H])C([H])([H])[N+]([H])([H])C([H])([H])c3c([H])c(C([H])([H])N([H])C(=O)N4C([H])([H])C([H])([H])C([H])([H])C([H])(n5nc(-c6c([H])c([H])c(Oc7c([H])c([H])c(F)c([H])c7F)c([H])c6[H])c(C(=O)N([H])[H])c5N([H])[H])C4([H])[H])c(F)c([H])c3F)c([H])c([H])c2C1([H])[H]

$$$$
54:0:0
     RDKit          3D

 92 99  0  0  1  0  0  0  0  0999 V2000
  -29.1980  -22.7560   16.5400 C   0  0  0  0  0  1  0  0  0  0  0  0
  -29.4950  -22.3670   17.9200 N   0  0  0  0  0  0  0  0  0  0  0  0
  -29.2730  -20.9180   18.0440 C   0  0  0  0  0  2  0  0  0  0  0  0
  -29.9090  -20.2850   19.3120 C   0  0  0  0  0  2  0  0  0  0  0  0
  -31.7970  -18.9600   18.4060 C   0  0  0  0  0  1  0  0  0  0  0  0
  -30.4520  -18.9270   19.0330 N   0  0  1  0  0  4  0  0  0  0  0  0
  -29.8270  -18.5490   18.3370 H   0  0  0  0  0  0  0  0  0  0  0  0
  -30.3790  -17.9550   20.1630 C   0  0  0  0  0  2  0  0  0  0  0  0
  -29.8220  -16.6080   19.6540 C   0  0  0  0  0  2  0  0  0  0  0  0
  -30.6370  -14.4510   20.4740 C   0  0  0  0  0  0  0  0  0  0  0  0
  -30.3520  -12.2850   19.3790 C   0  0  0  0  0  2  0  0  0  0  0  0
  -29.4320  -12.5250   18.1610 C   0  0  0  0  0  2  0  0  0  0  0  0
  -27.9520  -12.3930   18.5680 C   0  0  0  0  0  2  0  0  0  0  0  0
  -27.6020  -13.2230   19.8310 C   0  0  0  0  0  3  0  0  0  0  0  0
  -28.6420  -12.9950   20.9550 C   0  0  0  0  0  2  0  0  0  0  0  0
  -29.9820  -13.2650   20.4080 N   0  0  0  0  0  0  0  0  0  0  0  0
  -31.7950  -14.6210   20.0840 O   0  0  0  0  0  0  0  0  0  0  0  0
  -29.8190  -15.5030   20.6230 N   0  0  0  0  0  0  0  0  0  0  0  0
  -28.9240  -15.2820   21.0370 H   0  0  0  0  0  0  0  0  0  0  0  0
  -25.1910  -13.8410   20.4930 C   0  0  0  0  0  0  0  0  0  0  0  0
  -24.1190  -13.0720   20.8560 C   0  0  0  0  0  0  0  0  0  0  0  0
  -24.5820  -11.7190   20.8490 C   0  0  0  0  0  0  0  0  0  0  0  0
  -26.2410  -12.9580   20.2900 N   0  0  0  0  0  0  0  0  0  0  0  0
  -25.8770  -11.6780   20.5600 N   0  0  0  0  0  0  0  0  0  0  0  0
  -23.8560  -10.4590   21.0410 C   0  0  0  0  0  0  0  0  0  0  0  0
  -24.2820   -9.5000   21.9870 C   0  0  0  0  0  3  0  0  0  0  0  0
  -23.5570   -8.3020   22.1660 C   0  0  0  0  0  3  0  0  0  0  0  0
  -22.3940   -8.0560   21.3990 C   0  0  0  0  0  0  0  0  0  0  0  0
  -21.9900   -9.0020   20.4400 C   0  0  0  0  0  3  0  0  0  0  0  0
  -22.7150  -10.1920   20.2600 C   0  0  0  0  0  3  0  0  0  0  0  0
  -21.6410   -6.9100   21.4870 O   0  0  0  0  0  0  0  0  0  0  0  0
  -21.5860   -6.1720   22.6430 C   0  0  0  0  0  0  0  0  0  0  0  0
  -21.1480   -6.7310   23.8630 C   0  0  0  0  0  3  0  0  0  0  0  0
  -21.0380   -5.9200   25.0100 C   0  0  0  0  0  3  0  0  0  0  0  0
  -21.3540   -4.5500   24.9390 C   0  0  0  0  0  0  0  0  0  0  0  0
  -21.7850   -3.9900   23.7230 C   0  0  0  0  0  3  0  0  0  0  0  0
  -21.8970   -4.7980   22.5780 C   0  0  0  0  0  0  0  0  0  0  0  0
  -22.2920   -4.2490   21.4050 F   0  0  0  0  0  0  0  0  0  0  0  0
  -21.2420   -3.7700   26.0390 F   0  0  0  0  0  0  0  0  0  0  0  0
  -22.7150  -13.5480   21.0990 C   0  0  0  0  0  0  0  0  0  0  0  0
  -21.9750  -12.8600   21.9610 N   0  0  0  0  0  0  0  0  0  0  0  0
  -22.2830  -14.5660   20.5600 O   0  0  0  0  0  0  0  0  0  0  0  0
  -22.3360  -12.0370   22.4220 H   0  0  0  0  0  0  0  0  0  0  0  0
  -21.0320  -13.1580   22.1630 H   0  0  0  0  0  0  0  0  0  0  0  0
  -25.3580  -15.2100   20.2980 N   0  0  0  0  0  0  0  0  0  0  0  0
  -24.5890  -15.8670   20.3850 H   0  0  0  0  0  0  0  0  0  0  0  0
  -26.2090  -15.6430   19.9670 H   0  0  0  0  0  0  0  0  0  0  0  0
  -28.6520  -23.1030   18.8820 C   0  0  0  0  0  2  0  0  0  0  0  0
  -28.7990  -24.6500   18.8480 C   0  0  0  0  0  3  0  0  0  0  0  0
  -28.0640  -25.1340   17.8440 F   0  0  0  0  0  0  0  0  0  0  0  0
  -28.3360  -25.3070   20.1680 C   0  0  0  0  0  2  0  0  0  0  0  0
  -28.3900  -26.7410   20.1310 O   0  0  0  0  0  0  0  0  0  0  0  0
  -24.5700  -31.8830   23.2220 C   0  0  0  0  0  0  0  0  0  0  0  0
  -27.1990  -27.4380   20.1330 C   0  0  0  0  0  0  0  0  0  0  0  0
  -23.3550  -30.4810   21.5860 C   0  0  0  0  0  3  0  0  0  0  0  0
  -24.8000  -28.9370   20.1620 C   0  0  0  0  0  0  0  0  0  0  0  0
  -25.8800  -30.8380   21.3760 C   0  0  0  0  0  2  0  0  0  0  0  0
  -25.9610  -29.4660   20.7380 C   0  0  0  0  0  0  0  0  0  0  0  0
  -27.1630  -28.7250   20.7140 C   0  0  0  0  0  3  0  0  0  0  0  0
  -26.0150  -26.9210   19.5560 C   0  0  0  0  0  3  0  0  0  0  0  0
  -24.8200  -27.6640   19.5700 C   0  0  0  0  0  3  0  0  0  0  0  0
  -23.5570  -29.7950   20.2090 C   0  0  0  0  0  2  0  0  0  0  0  0
  -24.6210  -31.0820   22.1210 N   0  0  0  0  0  0  0  0  0  0  0  0
  -23.4920  -32.1590   23.7650 O   0  0  0  0  0  0  0  0  0  0  0  0
  -22.7030  -29.4640   22.5510 C   0  0  0  0  0  0  0  0  0  0  0  0
  -21.3780  -29.2890   22.4300 N   0  0  0  0  0  0  0  0  0  0  0  0
  -23.3890  -28.8350   23.3630 O   0  0  0  0  0  0  0  0  0  0  0  0
  -20.8880  -29.8490   21.7460 H   0  0  0  0  0  0  0  0  0  0  0  0
  -17.9980  -28.1230   22.9480 C   0  0  0  0  0  0  0  0  0  0  0  0
  -20.5590  -28.3570   23.2040 C   0  0  0  0  0  3  0  0  0  0  0  0
  -20.6450  -26.9260   22.6230 C   0  0  0  0  0  2  0  0  0  0  0  0
  -19.5330  -26.6160   21.6160 C   0  0  0  0  0  2  0  0  0  0  0  0
  -18.1570  -26.7730   22.2690 C   0  0  0  0  0  2  0  0  0  0  0  0
  -19.1260  -28.8740   23.3730 C   0  0  0  0  0  0  0  0  0  0  0  0
  -18.9230  -30.1390   23.9670 C   0  0  0  0  0  3  0  0  0  0  0  0
  -17.6250  -30.6530   24.1390 C   0  0  0  0  0  3  0  0  0  0  0  0
  -16.5100  -29.8980   23.7320 C   0  0  0  0  0  3  0  0  0  0  0  0
  -16.6980  -28.6360   23.1410 C   0  0  0  0  0  3  0  0  0  0  0  0
  -25.8620  -32.5110   23.8360 C   0  0  0  0  0  3  0  0  0  0  0  0
  -25.5630  -33.9140   24.1510 N   0  0  0  0  0  0  0  0  0  0  0  0
  -25.9080  -34.9550   23.3830 C   0  0  0  0  0  0  0  0  0  0  0  0
  -26.5820  -34.8360   22.3560 O   0  0  0  0  0  0  0  0  0  0  0  0
  -24.9660  -34.0810   24.9470 H   0  0  0  0  0  0  0  0  0  0  0  0
  -24.1980  -36.7590   22.9950 C   0  0  0  0  0  1  0  0  0  0  0  0
  -25.4280  -36.3520   23.8230 C   0  0  0  0  0  3  0  0  0  0  0  0
  -27.5630  -37.2240   24.6650 C   0  0  0  0  0  1  0  0  0  0  0  0
  -26.4720  -37.3940   23.7100 N   0  0  0  0  0  0  0  0  0  0  0  0
  -26.0730  -38.3200   23.8430 H   0  0  0  0  0  0  0  0  0  0  0  0
  -26.3720  -31.7480   25.1190 C   0  0  1  0  0  0  0  0  0  0  0  0
  -25.2790  -31.5300   26.1890 C   0  0  0  0  0  1  0  0  0  0  0  0
  -26.9440  -30.3620   24.7370 C   0  0  0  0  0  1  0  0  0  0  0  0
  -27.5290  -32.5400   25.7730 C   0  0  0  0  0  1  0  0  0  0  0  0
  1  2  1  0
  2  3  1  0
  2 48  1  0
  3  4  1  0
  5  6  1  0
  6  4  1  0
  6  8  1  0
  6  7  1  6
  9  8  1  0
  9 18  1  0
 10 18  1  0
 11 16  1  0
 12 13  1  0
 12 11  1  0
 14 13  1  0
 14 23  1  0
 14 15  1  0
 16 10  1  0
 16 15  1  0
 17 10  2  0
 18 19  1  0
 20 21  2  0
 21 40  1  0
 22 21  1  0
 22 25  1  0
 23 20  1  0
 23 24  1  0
 24 22  2  0
 25 26  1  0
 26 27  2  0
 28 31  1  0
 28 27  1  0
 29 28  2  0
 30 29  1  0
 30 25  2  0
 31 32  1  0
 32 33  1  0
 33 34  2  0
 35 34  1  0
 35 39  1  0
 36 35  2  0
 37 32  2  0
 37 36  1  0
 38 37  1  0
 40 41  1  0
 41 44  1  0
 41 43  1  0
 42 40  2  0
 45 46  1  0
 45 20  1  0
 47 45  1  0
 49 50  1  0
 49 48  1  0
 49 51  1  0
 52 54  1  0
 52 51  1  0
 53 64  2  0
 54 59  1  0
 55 63  1  0
 55 65  1  0
 56 62  1  0
 56 58  1  0
 57 63  1  0
 58 57  1  0
 59 58  2  0
 60 61  1  0
 60 54  2  0
 61 56  2  0
 62 55  1  0
 63 53  1  0
 65 67  2  0
 66 65  1  0
 68 66  1  0
 69 78  2  0
 69 74  1  0
 70 66  1  0
 70 74  1  0
 71 70  1  0
 72 73  1  0
 72 71  1  0
 73 69  1  0
 74 75  2  0
 75 76  1  0
 77 76  2  0
 78 77  1  0
 79 53  1  0
 79 80  1  0
 79 89  1  0
 80 83  1  0
 81 85  1  0
 81 80  1  0
 82 81  2  0
 85 84  1  0
 87 85  1  0
 87 88  1  0
 87 86  1  0
 89 92  1  1
 89 90  1  0
 91 89  1  0
M  ISO  4  10 100  18 100  51 101  52 101
M  END
>  <TORSDO>  (54) 
F 24

>  <SCORE>  (54) 
-12.146

>  <name>  (54) 
54

>  <ligand_id>  (54) 
54

>  <original_smiles>  (54) 
[H]c1c([H])c([H])c2c(c1[H])C([H])([H])C([H])([H])C([H])([H])C2([H])N([H])C(=O)C1([H])N(C(=O)C([H])(N([H])C(=O)C([H])(N([H])C([H])([H])[H])C([H])([H])[H])C(C([H])([H])[H])(C([H])([H])[H])C([H])([H])[H])C([H])([H])c2c([H])c(OC([H])([H])C([H])(F)C([H])([H])N(C([H])([H])[H])C([H])([H])C([H])([H])[N+]([H])(C([H])([H])[H])C([H])([H])C([H])([H])N([H])C(=O)N3C([H])([H])C([H])([H])C([H])([H])C([H])(n4nc(-c5c([H])c([H])c(Oc6c([H])c([H])c(F)c([H])c6F)c([H])c5[H])c(C(=O)N([H])[H])c4N([H])[H])C3([H])[H])c([H])c([H])c2C1([H])[H]

>  <smiles>  (54) 
[H]c1c([H])c([H])c2c(c1[H])C([H])([H])C([H])([H])C([H])([H])C2([H])N([H])C(=O)C1([H])N(C(=O)C([H])(N([H])C(=O)C([H])(N([H])C([H])([H])[H])C([H])([H])[H])C(C([H])([H])[H])(C([H])([H])[H])C([H])([H])[H])C([H])([H])c2c([H])c(OC([H])([H])C([H])(F)C([H])([H])N(C([H])([H])[H])C([H])([H])C([H])([H])[N+]([H])(C([H])([H])[H])C([H])([H])C([H])([H])N([H])C(=O)N3C([H])([H])C([H])([H])C([H])([H])C([H])(n4nc(-c5c([H])c([H])c(Oc6c([H])c([H])c(F)c([H])c6F)c([H])c5[H])c(C(=O)N([H])[H])c4N([H])[H])C3([H])[H])c([H])c([H])c2C1([H])[H]

$$$$
55:0:0
     RDKit          3D

 96104  0  0  1  0  0  0  0  0999 V2000
  -31.5950  -22.9380   21.7520 C   0  0  0  0  0  2  0  0  0  0  0  0
  -30.9180  -24.0470   21.0400 N   0  0  0  0  0  4  0  0  0  0  0  0
  -30.0140  -23.7380   20.7220 H   0  0  0  0  0  0  0  0  0  0  0  0
  -31.4660  -24.2840   20.2300 H   0  0  0  0  0  0  0  0  0  0  0  0
  -30.7440  -25.2890   21.8310 C   0  0  0  0  0  2  0  0  0  0  0  0
  -29.9820  -26.3670   21.0330 C   0  0  0  0  0  3  0  0  0  0  0  0
  -30.2230  -27.5640   21.5750 F   0  0  0  0  0  0  0  0  0  0  0  0
  -28.4600  -26.1470   21.0070 C   0  0  0  0  0  2  0  0  0  0  0  0
  -27.9320  -26.5720   19.7530 O   0  0  0  0  0  0  0  0  0  0  0  0
  -24.3480  -31.7230   23.1040 C   0  0  0  0  0  0  0  0  0  0  0  0
  -26.7970  -27.3310   19.8430 C   0  0  0  0  0  0  0  0  0  0  0  0
  -23.0620  -30.4040   21.4490 C   0  0  0  0  0  3  0  0  0  0  0  0
  -24.4390  -28.8670   19.9500 C   0  0  0  0  0  0  0  0  0  0  0  0
  -25.5870  -30.7060   21.2000 C   0  0  0  0  0  2  0  0  0  0  0  0
  -25.6190  -29.3520   20.5280 C   0  0  0  0  0  0  0  0  0  0  0  0
  -26.8020  -28.5900   20.4790 C   0  0  0  0  0  3  0  0  0  0  0  0
  -25.6110  -26.8510   19.2550 C   0  0  0  0  0  3  0  0  0  0  0  0
  -24.4270  -27.6110   19.3140 C   0  0  0  0  0  3  0  0  0  0  0  0
  -23.2190  -29.7540   20.0470 C   0  0  0  0  0  2  0  0  0  0  0  0
  -24.3530  -30.9550   21.9760 N   0  0  0  0  0  0  0  0  0  0  0  0
  -23.2890  -32.0090   23.6760 O   0  0  0  0  0  0  0  0  0  0  0  0
  -22.4050  -29.3740   22.3950 C   0  0  0  0  0  0  0  0  0  0  0  0
  -21.0730  -29.2360   22.2910 N   0  0  0  0  0  0  0  0  0  0  0  0
  -23.0880  -28.7060   23.1740 O   0  0  0  0  0  0  0  0  0  0  0  0
  -20.5850  -29.8280   21.6330 H   0  0  0  0  0  0  0  0  0  0  0  0
  -17.6730  -28.1620   22.8530 C   0  0  0  0  0  0  0  0  0  0  0  0
  -20.2450  -28.3010   23.0510 C   0  0  0  0  0  3  0  0  0  0  0  0
  -20.2690  -26.8930   22.4160 C   0  0  0  0  0  2  0  0  0  0  0  0
  -19.1230  -26.6580   21.4280 C   0  0  0  0  0  2  0  0  0  0  0  0
  -17.7700  -26.8340   22.1210 C   0  0  0  0  0  2  0  0  0  0  0  0
  -18.8360  -28.8590   23.2760 C   0  0  0  0  0  0  0  0  0  0  0  0
  -18.6900  -30.1090   23.9190 C   0  0  0  0  0  3  0  0  0  0  0  0
  -17.4140  -30.6570   24.1460 C   0  0  0  0  0  3  0  0  0  0  0  0
  -16.2650  -29.9550   23.7400 C   0  0  0  0  0  3  0  0  0  0  0  0
  -16.3970  -28.7110   23.0980 C   0  0  0  0  0  3  0  0  0  0  0  0
  -25.6670  -32.2940   23.7120 C   0  0  0  0  0  3  0  0  0  0  0  0
  -25.4180  -33.6940   24.0730 N   0  0  0  0  0  0  0  0  0  0  0  0
  -25.8000  -34.7480   23.3380 C   0  0  0  0  0  0  0  0  0  0  0  0
  -26.4720  -34.6380   22.3090 O   0  0  0  0  0  0  0  0  0  0  0  0
  -24.8240  -33.8570   24.8720 H   0  0  0  0  0  0  0  0  0  0  0  0
  -24.1670  -36.6280   22.9970 C   0  0  0  0  0  1  0  0  0  0  0  0
  -25.3680  -36.1440   23.8250 C   0  0  0  0  0  3  0  0  0  0  0  0
  -27.5170  -36.9030   24.7390 C   0  0  0  0  0  1  0  0  0  0  0  0
  -26.4510  -37.1480   23.7690 N   0  0  0  0  0  0  0  0  0  0  0  0
  -26.0840  -38.0820   23.9300 H   0  0  0  0  0  0  0  0  0  0  0  0
  -26.1840  -31.4760   24.9590 C   0  0  1  0  0  0  0  0  0  0  0  0
  -25.1050  -31.2470   26.0430 C   0  0  0  0  0  1  0  0  0  0  0  0
  -26.7140  -30.0920   24.5180 C   0  0  0  0  0  1  0  0  0  0  0  0
  -27.3720  -32.2170   25.6150 C   0  0  0  0  0  1  0  0  0  0  0  0
  -32.0980  -21.8350   20.7900 C   0  0  0  0  0  2  0  0  0  0  0  0
  -31.0080  -20.9520   20.1230 C   0  0  0  0  0  2  0  0  0  0  0  0
  -29.0870  -17.6720   20.7120 C   0  0  0  0  0  2  0  0  0  0  0  0
  -31.4260  -17.3300   21.4110 C   0  0  0  0  0  2  0  0  0  0  0  0
  -29.4390  -19.0830   20.1940 C   0  0  0  0  0  2  0  0  0  0  0  0
  -31.8120  -18.7290   20.8940 C   0  0  0  0  0  2  0  0  0  0  0  0
  -30.3000  -16.7550   20.5440 C   0  0  0  0  0  3  0  0  0  0  0  0
  -30.6580  -19.6800   20.8250 N   0  0  1  0  0  4  0  0  0  0  0  0
  -30.4010  -19.9080   21.7760 H   0  0  0  0  0  0  0  0  0  0  0  0
  -30.6430  -14.3390   20.1930 C   0  0  0  0  0  0  0  0  0  0  0  0
  -30.2800  -12.2170   19.0180 C   0  0  0  0  0  2  0  0  0  0  0  0
  -29.3070  -12.4650   17.8470 C   0  0  0  0  0  2  0  0  0  0  0  0
  -27.8460  -12.3250   18.3220 C   0  0  0  0  0  2  0  0  0  0  0  0
  -27.5530  -13.1380   19.6130 C   0  0  0  0  0  3  0  0  0  0  0  0
  -28.6410  -12.8870   20.6850 C   0  0  0  0  0  2  0  0  0  0  0  0
  -29.9540  -13.1760   20.0830 N   0  0  0  0  0  0  0  0  0  0  0  0
  -31.7210  -14.5400   19.6280 O   0  0  0  0  0  0  0  0  0  0  0  0
  -29.9990  -15.3440   20.8090 N   0  0  0  0  0  0  0  0  0  0  0  0
  -29.1280  -15.1170   21.2670 H   0  0  0  0  0  0  0  0  0  0  0  0
  -25.1580  -13.7200   20.3630 C   0  0  0  0  0  0  0  0  0  0  0  0
  -24.1130  -12.9370   20.7770 C   0  0  0  0  0  0  0  0  0  0  0  0
  -24.5990  -11.5930   20.7660 C   0  0  0  0  0  0  0  0  0  0  0  0
  -26.2130  -12.8530   20.1270 N   0  0  0  0  0  0  0  0  0  0  0  0
  -25.8820  -11.5700   20.4270 N   0  0  0  0  0  0  0  0  0  0  0  0
  -23.9020  -10.3230   21.0070 C   0  0  0  0  0  0  0  0  0  0  0  0
  -24.3330   -9.4220   22.0040 C   0  0  0  0  0  3  0  0  0  0  0  0
  -23.6380   -8.2130   22.2270 C   0  0  0  0  0  3  0  0  0  0  0  0
  -22.4960   -7.8990   21.4520 C   0  0  0  0  0  0  0  0  0  0  0  0
  -22.0850   -8.7890   20.4440 C   0  0  0  0  0  3  0  0  0  0  0  0
  -22.7820   -9.9880   20.2200 C   0  0  0  0  0  3  0  0  0  0  0  0
  -21.7710   -6.7380   21.5820 O   0  0  0  0  0  0  0  0  0  0  0  0
  -21.6770   -6.0810   22.7830 C   0  0  0  0  0  0  0  0  0  0  0  0
  -21.1280   -6.6950   23.9290 C   0  0  0  0  0  3  0  0  0  0  0  0
  -20.9840   -5.9580   25.1220 C   0  0  0  0  0  3  0  0  0  0  0  0
  -21.3800   -4.6070   25.1680 C   0  0  0  0  0  0  0  0  0  0  0  0
  -21.9220   -3.9930   24.0260 C   0  0  0  0  0  3  0  0  0  0  0  0
  -22.0670   -4.7280   22.8350 C   0  0  0  0  0  0  0  0  0  0  0  0
  -22.5690   -4.1240   21.7320 F   0  0  0  0  0  0  0  0  0  0  0  0
  -21.2340   -3.8970   26.3110 F   0  0  0  0  0  0  0  0  0  0  0  0
  -22.7150  -13.3940   21.0740 C   0  0  0  0  0  0  0  0  0  0  0  0
  -22.0170  -12.7000   21.9660 N   0  0  0  0  0  0  0  0  0  0  0  0
  -22.2490  -14.4040   20.5480 O   0  0  0  0  0  0  0  0  0  0  0  0
  -22.4070  -11.8860   22.4170 H   0  0  0  0  0  0  0  0  0  0  0  0
  -21.0780  -12.9900   22.2030 H   0  0  0  0  0  0  0  0  0  0  0  0
  -25.2910  -15.0870   20.1470 N   0  0  0  0  0  0  0  0  0  0  0  0
  -24.5130  -15.7290   20.2540 H   0  0  0  0  0  0  0  0  0  0  0  0
  -26.1220  -15.5310   19.7750 H   0  0  0  0  0  0  0  0  0  0  0  0
  2  1  1  0
  2  5  1  0
  3  2  1  0
  4  2  1  0
  6  7  1  0
  6  5  1  0
  8  6  1  0
  9 11  1  0
  9  8  1  0
 10 21  2  0
 11 16  1  0
 12 20  1  0
 12 22  1  0
 13 19  1  0
 13 15  1  0
 14 20  1  0
 15 14  1  0
 16 15  2  0
 17 18  1  0
 17 11  2  0
 18 13  2  0
 19 12  1  0
 20 10  1  0
 22 24  2  0
 23 22  1  0
 25 23  1  0
 26 35  2  0
 26 31  1  0
 27 23  1  0
 27 31  1  0
 28 27  1  0
 29 30  1  0
 29 28  1  0
 30 26  1  0
 31 32  2  0
 32 33  1  0
 34 33  2  0
 35 34  1  0
 36 10  1  0
 36 37  1  0
 36 46  1  0
 37 40  1  0
 38 42  1  0
 38 37  1  0
 39 38  2  0
 42 41  1  0
 44 42  1  0
 44 45  1  0
 44 43  1  0
 46 49  1  1
 46 47  1  0
 48 46  1  0
 50  1  1  0
 51 50  1  0
 51 57  1  0
 54 52  1  0
 54 57  1  0
 55 53  1  0
 56 52  1  0
 56 67  1  0
 56 53  1  0
 57 55  1  0
 57 58  1  1
 59 67  1  0
 60 65  1  0
 61 62  1  0
 61 60  1  0
 63 62  1  0
 63 72  1  0
 63 64  1  0
 65 59  1  0
 65 64  1  0
 66 59  2  0
 67 68  1  0
 69 70  2  0
 70 89  1  0
 71 70  1  0
 71 74  1  0
 72 69  1  0
 72 73  1  0
 73 71  2  0
 74 75  1  0
 75 76  2  0
 77 80  1  0
 77 76  1  0
 78 77  2  0
 79 78  1  0
 79 74  2  0
 80 81  1  0
 81 86  2  0
 81 82  1  0
 82 83  2  0
 83 84  1  0
 84 88  1  0
 85 84  2  0
 86 85  1  0
 87 86  1  0
 89 90  1  0
 90 93  1  0
 90 92  1  0
 91 89  2  0
 94 95  1  0
 94 69  1  0
 96 94  1  0
M  ISO  4   8 101   9 101  59 100  67 100
M  END
>  <TORSDO>  (55) 
F 23

>  <SCORE>  (55) 
-11.884

>  <name>  (55) 
55

>  <ligand_id>  (55) 
55

>  <original_smiles>  (55) 
[H]c1c([H])c([H])c2c(c1[H])C([H])([H])C([H])([H])C([H])([H])C2([H])N([H])C(=O)C1([H])N(C(=O)C([H])(N([H])C(=O)C([H])(N([H])C([H])([H])[H])C([H])([H])[H])C(C([H])([H])[H])(C([H])([H])[H])C([H])([H])[H])C([H])([H])c2c([H])c(OC([H])([H])C([H])(F)C([H])([H])[N+]([H])([H])C([H])([H])C([H])([H])C([H])([H])[N+]3([H])C([H])([H])C([H])([H])C([H])(N([H])C(=O)N4C([H])([H])C([H])([H])C([H])([H])C([H])(n5nc(-c6c([H])c([H])c(Oc7c([H])c([H])c(F)c([H])c7F)c([H])c6[H])c(C(=O)N([H])[H])c5N([H])[H])C4([H])[H])C([H])([H])C3([H])[H])c([H])c([H])c2C1([H])[H]

>  <smiles>  (55) 
[H]c1c([H])c([H])c2c(c1[H])C([H])([H])C([H])([H])C([H])([H])C2([H])N([H])C(=O)C1([H])N(C(=O)C([H])(N([H])C(=O)C([H])(N([H])C([H])([H])[H])C([H])([H])[H])C(C([H])([H])[H])(C([H])([H])[H])C([H])([H])[H])C([H])([H])c2c([H])c(OC([H])([H])C([H])(F)C([H])([H])[N+]([H])([H])C([H])([H])C([H])([H])C([H])([H])[N+]3([H])C([H])([H])C([H])([H])C([H])(N([H])C(=O)N4C([H])([H])C([H])([H])C([H])([H])C([H])(n5nc(-c6c([H])c([H])c(Oc7c([H])c([H])c(F)c([H])c7F)c([H])c6[H])c(C(=O)N([H])[H])c5N([H])[H])C4([H])[H])C([H])([H])C3([H])[H])c([H])c([H])c2C1([H])[H]

$$$$
56:0:0
     RDKit          3D

 94102  0  0  1  0  0  0  0  0999 V2000
  -26.7360  -22.1980   21.7320 C   0  0  0  0  0  1  0  0  0  0  0  0
  -28.0670  -22.8410   21.6080 N   0  0  1  0  0  4  0  0  0  0  0  0
  -28.4550  -22.9040   22.5380 H   0  0  0  0  0  0  0  0  0  0  0  0
  -29.0250  -22.0260   20.8100 C   0  0  0  0  0  2  0  0  0  0  0  0
  -29.5060  -20.7560   21.5530 C   0  0  0  0  0  2  0  0  0  0  0  0
  -30.3640  -19.3200   19.5760 C   0  0  0  0  0  2  0  0  0  0  0  0
  -31.5080  -19.1710   21.8640 C   0  0  0  0  0  2  0  0  0  0  0  0
  -29.7660  -17.9220   19.8230 C   0  0  0  0  0  2  0  0  0  0  0  0
  -30.8830  -17.7750   22.0590 C   0  0  0  0  0  2  0  0  0  0  0  0
  -30.7200  -20.0740   20.8830 C   0  0  0  0  0  3  0  0  0  0  0  0
  -30.7250  -17.0930   20.6930 C   0  0  0  0  0  3  0  0  0  0  0  0
  -30.9410  -14.6680   20.1880 C   0  0  0  0  0  0  0  0  0  0  0  0
  -30.6050  -12.4960   19.0840 C   0  0  0  0  0  2  0  0  0  0  0  0
  -29.6400  -12.6800   17.8980 C   0  0  0  0  0  2  0  0  0  0  0  0
  -28.1780  -12.5390   18.3620 C   0  0  0  0  0  2  0  0  0  0  0  0
  -27.8620  -13.3980   19.6160 C   0  0  0  0  0  3  0  0  0  0  0  0
  -28.9440  -13.2130   20.7060 C   0  0  0  0  0  2  0  0  0  0  0  0
  -30.2550  -13.4990   20.1030 N   0  0  0  0  0  0  0  0  0  0  0  0
  -32.0320  -14.8380   19.6340 O   0  0  0  0  0  0  0  0  0  0  0  0
  -30.3060  -15.6890   20.7890 N   0  0  0  0  0  0  0  0  0  0  0  0
  -29.4130  -15.4880   21.2150 H   0  0  0  0  0  0  0  0  0  0  0  0
  -25.4840  -13.9960   20.4010 C   0  0  0  0  0  0  0  0  0  0  0  0
  -24.4260  -13.2180   20.7890 C   0  0  0  0  0  0  0  0  0  0  0  0
  -24.8840  -11.8670   20.7220 C   0  0  0  0  0  0  0  0  0  0  0  0
  -26.5210  -13.1180   20.1280 N   0  0  0  0  0  0  0  0  0  0  0  0
  -26.1650  -11.8320   20.3750 N   0  0  0  0  0  0  0  0  0  0  0  0
  -24.1630  -10.6020   20.9130 C   0  0  0  0  0  0  0  0  0  0  0  0
  -24.5640   -9.6620   21.8880 C   0  0  0  0  0  3  0  0  0  0  0  0
  -23.8440   -8.4620   22.0660 C   0  0  0  0  0  3  0  0  0  0  0  0
  -22.7080   -8.1920   21.2670 C   0  0  0  0  0  0  0  0  0  0  0  0
  -22.3250   -9.1200   20.2830 C   0  0  0  0  0  3  0  0  0  0  0  0
  -23.0460  -10.3120   20.1040 C   0  0  0  0  0  3  0  0  0  0  0  0
  -21.9610   -7.0400   21.3510 O   0  0  0  0  0  0  0  0  0  0  0  0
  -21.8030   -6.3710   22.5370 C   0  0  0  0  0  0  0  0  0  0  0  0
  -21.2280   -6.9880   23.6690 C   0  0  0  0  0  3  0  0  0  0  0  0
  -21.0190   -6.2430   24.8470 C   0  0  0  0  0  3  0  0  0  0  0  0
  -21.3750   -4.8820   24.8930 C   0  0  0  0  0  0  0  0  0  0  0  0
  -21.9440   -4.2640   23.7650 C   0  0  0  0  0  3  0  0  0  0  0  0
  -22.1540   -5.0070   22.5900 C   0  0  0  0  0  0  0  0  0  0  0  0
  -22.6830   -4.4030   21.4990 F   0  0  0  0  0  0  0  0  0  0  0  0
  -21.1690   -4.1630   26.0210 F   0  0  0  0  0  0  0  0  0  0  0  0
  -23.0380  -13.6910   21.1120 C   0  0  0  0  0  0  0  0  0  0  0  0
  -22.3340  -12.9770   21.9840 N   0  0  0  0  0  0  0  0  0  0  0  0
  -22.5880  -14.7290   20.6300 O   0  0  0  0  0  0  0  0  0  0  0  0
  -22.7110  -12.1360   22.3940 H   0  0  0  0  0  0  0  0  0  0  0  0
  -21.4040  -13.2760   22.2420 H   0  0  0  0  0  0  0  0  0  0  0  0
  -25.6450  -15.3690   20.2410 N   0  0  0  0  0  0  0  0  0  0  0  0
  -24.8810  -16.0220   20.3840 H   0  0  0  0  0  0  0  0  0  0  0  0
  -26.4870  -15.8140   19.8980 H   0  0  0  0  0  0  0  0  0  0  0  0
  -27.9490  -24.2610   21.1740 C   0  0  0  0  0  2  0  0  0  0  0  0
  -29.2360  -25.0830   21.4000 C   0  0  0  0  0  3  0  0  0  0  0  0
  -29.7300  -24.7750   22.6030 F   0  0  0  0  0  0  0  0  0  0  0  0
  -29.0200  -26.6050   21.3310 C   0  0  0  0  0  2  0  0  0  0  0  0
  -28.4870  -26.9610   20.0550 O   0  0  0  0  0  0  0  0  0  0  0  0
  -24.6730  -32.0020   23.3290 C   0  0  0  0  0  0  0  0  0  0  0  0
  -27.3330  -27.6990   20.1100 C   0  0  0  0  0  0  0  0  0  0  0  0
  -23.4570  -30.6230   21.6720 C   0  0  0  0  0  3  0  0  0  0  0  0
  -24.9130  -29.1390   20.1900 C   0  0  0  0  0  0  0  0  0  0  0  0
  -25.9680  -31.0290   21.4420 C   0  0  0  0  0  2  0  0  0  0  0  0
  -26.0650  -29.6720   20.7800 C   0  0  0  0  0  0  0  0  0  0  0  0
  -27.2780  -28.9550   20.7530 C   0  0  0  0  0  3  0  0  0  0  0  0
  -26.1750  -27.1780   19.5010 C   0  0  0  0  0  3  0  0  0  0  0  0
  -24.9580  -27.8870   19.5510 C   0  0  0  0  0  3  0  0  0  0  0  0
  -23.6550  -29.9740   20.2740 C   0  0  0  0  0  2  0  0  0  0  0  0
  -24.7170  -31.2320   22.2060 N   0  0  0  0  0  0  0  0  0  0  0  0
  -23.5980  -32.2470   23.8950 O   0  0  0  0  0  0  0  0  0  0  0  0
  -22.8380  -29.5710   22.6180 C   0  0  0  0  0  0  0  0  0  0  0  0
  -21.5200  -29.3520   22.4850 N   0  0  0  0  0  0  0  0  0  0  0  0
  -23.5380  -28.9550   23.4260 O   0  0  0  0  0  0  0  0  0  0  0  0
  -21.0160  -29.9030   21.8030 H   0  0  0  0  0  0  0  0  0  0  0  0
  -18.1880  -28.0290   22.9290 C   0  0  0  0  0  0  0  0  0  0  0  0
  -20.7290  -28.3830   23.2420 C   0  0  0  0  0  3  0  0  0  0  0  0
  -20.8960  -26.9600   22.6620 C   0  0  0  0  0  2  0  0  0  0  0  0
  -19.8230  -26.5970   21.6320 C   0  0  0  0  0  2  0  0  0  0  0  0
  -18.4250  -26.6880   22.2540 C   0  0  0  0  0  2  0  0  0  0  0  0
  -19.2700  -28.8310   23.3780 C   0  0  0  0  0  0  0  0  0  0  0  0
  -18.9970  -30.0840   23.9680 C   0  0  0  0  0  3  0  0  0  0  0  0
  -17.6720  -30.5380   24.1130 C   0  0  0  0  0  3  0  0  0  0  0  0
  -16.6030  -29.7340   23.6800 C   0  0  0  0  0  3  0  0  0  0  0  0
  -16.8610  -28.4810   23.0960 C   0  0  0  0  0  3  0  0  0  0  0  0
  -25.9640  -32.6330   23.9420 C   0  0  0  0  0  3  0  0  0  0  0  0
  -25.6630  -34.0350   24.2590 N   0  0  0  0  0  0  0  0  0  0  0  0
  -26.0070  -35.0770   23.4900 C   0  0  0  0  0  0  0  0  0  0  0  0
  -26.6860  -34.9580   22.4660 O   0  0  0  0  0  0  0  0  0  0  0  0
  -25.0630  -34.2000   25.0550 H   0  0  0  0  0  0  0  0  0  0  0  0
  -24.3000  -36.8770   23.0850 C   0  0  0  0  0  1  0  0  0  0  0  0
  -25.5210  -36.4710   23.9250 C   0  0  0  0  0  3  0  0  0  0  0  0
  -27.6460  -37.3430   24.7930 C   0  0  0  0  0  1  0  0  0  0  0  0
  -26.5640  -37.5160   23.8260 N   0  0  0  0  0  0  0  0  0  0  0  0
  -26.1620  -38.4390   23.9630 H   0  0  0  0  0  0  0  0  0  0  0  0
  -26.4830  -31.8690   25.2220 C   0  0  1  0  0  0  0  0  0  0  0  0
  -25.3900  -31.6370   26.2920 C   0  0  0  0  0  1  0  0  0  0  0  0
  -27.0640  -30.4890   24.8340 C   0  0  0  0  0  1  0  0  0  0  0  0
  -27.6340  -32.6670   25.8780 C   0  0  0  0  0  1  0  0  0  0  0  0
  2  1  1  0
  2  3  1  1
  4  5  1  0
  4  2  1  0
  6  8  1  0
  6 10  1  0
  7  9  1  0
  8 11  1  0
 10  5  1  0
 10  7  1  0
 11 20  1  0
 11  9  1  0
 12 20  1  0
 13 18  1  0
 14 15  1  0
 14 13  1  0
 16 15  1  0
 16 25  1  0
 16 17  1  0
 18 12  1  0
 18 17  1  0
 19 12  2  0
 20 21  1  0
 22 23  2  0
 23 42  1  0
 24 23  1  0
 24 27  1  0
 25 26  1  0
 25 22  1  0
 26 24  2  0
 27 28  1  0
 28 29  2  0
 30 33  1  0
 30 29  1  0
 31 30  2  0
 32 31  1  0
 32 27  2  0
 33 34  1  0
 34 39  2  0
 34 35  1  0
 35 36  2  0
 36 37  1  0
 37 41  1  0
 38 37  2  0
 39 38  1  0
 40 39  1  0
 42 43  1  0
 43 46  1  0
 43 45  1  0
 44 42  2  0
 47 48  1  0
 47 22  1  0
 49 47  1  0
 50 51  1  0
 50  2  1  0
 51 52  1  0
 53 51  1  0
 54 56  1  0
 54 53  1  0
 55 66  2  0
 56 61  1  0
 57 65  1  0
 57 67  1  0
 58 64  1  0
 58 60  1  0
 59 65  1  0
 60 59  1  0
 61 60  2  0
 62 63  1  0
 62 56  2  0
 63 58  2  0
 64 57  1  0
 65 55  1  0
 67 69  2  0
 68 67  1  0
 70 68  1  0
 71 80  2  0
 71 76  1  0
 72 68  1  0
 72 76  1  0
 73 72  1  0
 74 75  1  0
 74 73  1  0
 75 71  1  0
 76 77  2  0
 77 78  1  0
 79 78  2  0
 80 79  1  0
 81 55  1  0
 81 82  1  0
 81 91  1  0
 82 85  1  0
 83 87  1  0
 83 82  1  0
 84 83  2  0
 87 86  1  0
 89 87  1  0
 89 90  1  0
 89 88  1  0
 91 94  1  1
 91 92  1  0
 93 91  1  0
M  ISO  4  12 100  20 100  53 101  54 101
M  END
>  <TORSDO>  (56) 
F 22

>  <SCORE>  (56) 
-12.348

>  <name>  (56) 
56

>  <ligand_id>  (56) 
56

>  <original_smiles>  (56) 
[H]c1c([H])c([H])c2c(c1[H])C([H])([H])C([H])([H])C([H])([H])C2([H])N([H])C(=O)C1([H])N(C(=O)C([H])(N([H])C(=O)C([H])(N([H])C([H])([H])[H])C([H])([H])[H])C(C([H])([H])[H])(C([H])([H])[H])C([H])([H])[H])C([H])([H])c2c([H])c(OC([H])([H])C([H])(F)C([H])([H])[N+]([H])(C([H])([H])[H])C([H])([H])C([H])([H])C3([H])C([H])([H])C([H])([H])C([H])(N([H])C(=O)N4C([H])([H])C([H])([H])C([H])([H])C([H])(n5nc(-c6c([H])c([H])c(Oc7c([H])c([H])c(F)c([H])c7F)c([H])c6[H])c(C(=O)N([H])[H])c5N([H])[H])C4([H])[H])C([H])([H])C3([H])[H])c([H])c([H])c2C1([H])[H]

>  <smiles>  (56) 
[H]c1c([H])c([H])c2c(c1[H])C([H])([H])C([H])([H])C([H])([H])C2([H])N([H])C(=O)C1([H])N(C(=O)C([H])(N([H])C(=O)C([H])(N([H])C([H])([H])[H])C([H])([H])[H])C(C([H])([H])[H])(C([H])([H])[H])C([H])([H])[H])C([H])([H])c2c([H])c(OC([H])([H])C([H])(F)C([H])([H])[N+]([H])(C([H])([H])[H])C([H])([H])C([H])([H])C3([H])C([H])([H])C([H])([H])C([H])(N([H])C(=O)N4C([H])([H])C([H])([H])C([H])([H])C([H])(n5nc(-c6c([H])c([H])c(Oc7c([H])c([H])c(F)c([H])c7F)c([H])c6[H])c(C(=O)N([H])[H])c5N([H])[H])C4([H])[H])C([H])([H])C3([H])[H])c([H])c([H])c2C1([H])[H]

$$$$
57:0:0
     RDKit          3D

 91 99  0  0  1  0  0  0  0  0999 V2000
  -27.6590  -22.4620   20.0120 C   0  0  0  0  0  3  0  0  0  0  0  0
  -30.1520  -21.3330   20.4640 C   0  0  0  0  0  3  0  0  0  0  0  0
  -28.7040  -23.4320   20.1560 C   0  0  0  0  0  0  0  0  0  0  0  0
  -29.1130  -20.3680   20.2330 C   0  0  0  0  0  0  0  0  0  0  0  0
  -29.9640  -22.7820   20.4120 C   0  0  0  0  0  0  0  0  0  0  0  0
  -27.8470  -21.0310   20.0400 C   0  0  0  0  0  0  0  0  0  0  0  0
  -31.0640  -23.5560   20.5520 F   0  0  0  0  0  0  0  0  0  0  0  0
  -26.7460  -20.2810   19.8040 F   0  0  0  0  0  0  0  0  0  0  0  0
  -29.2350  -18.7330   20.0170 C   0  0  0  0  0  3  0  0  0  0  0  0
  -28.0750  -18.1940   20.4130 F   0  0  0  0  0  0  0  0  0  0  0  0
  -30.3310  -17.6140   20.5600 C   0  0  0  0  0  2  0  0  0  0  0  0
  -30.7650  -14.9350   20.2120 C   0  0  0  0  0  0  0  0  0  0  0  0
  -30.5710  -12.6230   19.2270 C   0  0  0  0  0  2  0  0  0  0  0  0
  -29.6200  -12.6540   18.0150 C   0  0  0  0  0  2  0  0  0  0  0  0
  -28.1610  -12.4520   18.4710 C   0  0  0  0  0  2  0  0  0  0  0  0
  -27.7910  -13.3470   19.6880 C   0  0  0  0  0  3  0  0  0  0  0  0
  -28.8770  -13.3210   20.7860 C   0  0  0  0  0  2  0  0  0  0  0  0
  -30.1420  -13.7040   20.1530 N   0  0  0  0  0  0  0  0  0  0  0  0
  -31.9550  -15.0150   19.8890 O   0  0  0  0  0  0  0  0  0  0  0  0
  -29.9940  -16.0880   20.4380 N   0  0  0  0  0  0  0  0  0  0  0  0
  -29.0130  -15.8930   20.5770 H   0  0  0  0  0  0  0  0  0  0  0  0
  -25.4180  -13.9320   20.4790 C   0  0  0  0  0  0  0  0  0  0  0  0
  -24.3620  -13.1570   20.8700 C   0  0  0  0  0  0  0  0  0  0  0  0
  -24.8190  -11.8030   20.8130 C   0  0  0  0  0  0  0  0  0  0  0  0
  -26.4560  -13.0520   20.2110 N   0  0  0  0  0  0  0  0  0  0  0  0
  -26.1030  -11.7670   20.4750 N   0  0  0  0  0  0  0  0  0  0  0  0
  -24.0930  -10.5400   21.0020 C   0  0  0  0  0  0  0  0  0  0  0  0
  -24.5330   -9.5730   21.9310 C   0  0  0  0  0  3  0  0  0  0  0  0
  -23.8060   -8.3740   22.1110 C   0  0  0  0  0  3  0  0  0  0  0  0
  -22.6290   -8.1350   21.3600 C   0  0  0  0  0  0  0  0  0  0  0  0
  -22.2110   -9.0950   20.4230 C   0  0  0  0  0  3  0  0  0  0  0  0
  -22.9370  -10.2850   20.2400 C   0  0  0  0  0  3  0  0  0  0  0  0
  -21.8780   -6.9880   21.4460 O   0  0  0  0  0  0  0  0  0  0  0  0
  -21.8140   -6.2540   22.6070 C   0  0  0  0  0  0  0  0  0  0  0  0
  -21.3220   -6.8010   23.8100 C   0  0  0  0  0  3  0  0  0  0  0  0
  -21.2050   -5.9940   24.9580 C   0  0  0  0  0  3  0  0  0  0  0  0
  -21.5780   -4.6370   24.9070 C   0  0  0  0  0  0  0  0  0  0  0  0
  -22.0660   -4.0860   23.7070 C   0  0  0  0  0  3  0  0  0  0  0  0
  -22.1820   -4.8940   22.5610 C   0  0  0  0  0  0  0  0  0  0  0  0
  -22.6310   -4.3520   21.4040 F   0  0  0  0  0  0  0  0  0  0  0  0
  -21.4640   -3.8600   26.0070 F   0  0  0  0  0  0  0  0  0  0  0  0
  -22.9740  -13.6330   21.1780 C   0  0  0  0  0  0  0  0  0  0  0  0
  -22.2650  -12.9280   22.0560 N   0  0  0  0  0  0  0  0  0  0  0  0
  -22.5240  -14.6650   20.6820 O   0  0  0  0  0  0  0  0  0  0  0  0
  -22.6440  -12.0950   22.4810 H   0  0  0  0  0  0  0  0  0  0  0  0
  -21.3330  -13.2260   22.2990 H   0  0  0  0  0  0  0  0  0  0  0  0
  -25.5800  -15.3060   20.3070 N   0  0  0  0  0  0  0  0  0  0  0  0
  -24.8090  -15.9530   20.4210 H   0  0  0  0  0  0  0  0  0  0  0  0
  -26.4100  -15.7430   19.9240 H   0  0  0  0  0  0  0  0  0  0  0  0
  -28.5010  -24.9900   19.6660 C   0  0  0  0  0  2  0  0  0  0  0  0
  -28.3510  -26.2890   20.4840 O   0  0  0  0  0  0  0  0  0  0  0  0
  -24.6170  -31.9270   23.3080 C   0  0  0  0  0  0  0  0  0  0  0  0
  -27.2760  -27.2380   20.3370 C   0  0  0  0  0  0  0  0  0  0  0  0
  -23.4570  -30.5260   21.6480 C   0  0  0  0  0  3  0  0  0  0  0  0
  -24.9360  -28.9560   20.2610 C   0  0  0  0  0  0  0  0  0  0  0  0
  -26.0150  -30.8010   21.5400 C   0  0  0  0  0  2  0  0  0  0  0  0
  -26.1040  -29.4160   20.8820 C   0  0  0  0  0  0  0  0  0  0  0  0
  -27.2720  -28.5730   20.8990 C   0  0  0  0  0  3  0  0  0  0  0  0
  -26.0730  -26.8620   19.6970 C   0  0  0  0  0  3  0  0  0  0  0  0
  -24.9280  -27.6870   19.6610 C   0  0  0  0  0  3  0  0  0  0  0  0
  -23.7100  -29.8480   20.2740 C   0  0  0  0  0  2  0  0  0  0  0  0
  -24.7150  -31.1030   22.2230 N   0  0  0  0  0  0  0  0  0  0  0  0
  -23.5180  -32.2110   23.8100 O   0  0  0  0  0  0  0  0  0  0  0  0
  -22.7580  -29.5130   22.5920 C   0  0  0  0  0  0  0  0  0  0  0  0
  -21.4400  -29.3260   22.4150 N   0  0  0  0  0  0  0  0  0  0  0  0
  -23.4060  -28.9090   23.4490 O   0  0  0  0  0  0  0  0  0  0  0  0
  -20.9780  -29.8730   21.7040 H   0  0  0  0  0  0  0  0  0  0  0  0
  -18.0600  -28.0690   22.7870 C   0  0  0  0  0  0  0  0  0  0  0  0
  -20.6000  -28.3820   23.1620 C   0  0  0  0  0  3  0  0  0  0  0  0
  -20.7490  -26.9460   22.6150 C   0  0  0  0  0  2  0  0  0  0  0  0
  -19.6970  -26.5860   21.5610 C   0  0  0  0  0  2  0  0  0  0  0  0
  -18.2870  -26.7150   22.1410 C   0  0  0  0  0  2  0  0  0  0  0  0
  -19.1460  -28.8600   23.2510 C   0  0  0  0  0  0  0  0  0  0  0  0
  -18.8800  -30.1240   23.8170 C   0  0  0  0  0  3  0  0  0  0  0  0
  -17.5610  -30.6030   23.9230 C   0  0  0  0  0  3  0  0  0  0  0  0
  -16.4880  -29.8160   23.4690 C   0  0  0  0  0  3  0  0  0  0  0  0
  -16.7380  -28.5500   22.9100 C   0  0  0  0  0  3  0  0  0  0  0  0
  -25.8800  -32.5600   23.9670 C   0  0  0  0  0  3  0  0  0  0  0  0
  -26.3310  -31.8240   25.2880 C   0  0  1  0  0  0  0  0  0  0  0  0
  -25.1930  -31.6250   26.3140 C   0  0  0  0  0  1  0  0  0  0  0  0
  -26.9220  -30.4320   24.9690 C   0  0  0  0  0  1  0  0  0  0  0  0
  -27.4550  -32.6320   25.9780 C   0  0  0  0  0  1  0  0  0  0  0  0
  -25.5740  -33.9720   24.2470 N   0  0  0  0  0  0  0  0  0  0  0  0
  -25.9360  -35.0000   23.4720 C   0  0  0  0  0  0  0  0  0  0  0  0
  -26.6330  -34.8670   22.4630 O   0  0  0  0  0  0  0  0  0  0  0  0
  -24.9630  -34.1560   25.0290 H   0  0  0  0  0  0  0  0  0  0  0  0
  -24.2400  -36.8050   23.0210 C   0  0  0  0  0  1  0  0  0  0  0  0
  -25.4500  -36.4060   23.8800 C   0  0  0  0  0  3  0  0  0  0  0  0
  -27.5600  -37.2970   24.7640 C   0  0  0  0  0  1  0  0  0  0  0  0
  -26.4960  -37.4460   23.7720 N   0  0  0  0  0  0  0  0  0  0  0  0
  -26.0930  -38.3730   23.8820 H   0  0  0  0  0  0  0  0  0  0  0  0
  1  6  2  0
  1  3  1  0
  3  5  2  0
  4  2  2  0
  5  2  1  0
  5  7  1  0
  6  4  1  0
  8  6  1  0
  9  4  1  0
  9 10  1  0
  9 11  1  0
 12 20  1  0
 13 18  1  0
 14 15  1  0
 14 13  1  0
 16 15  1  0
 16 25  1  0
 16 17  1  0
 18 12  1  0
 18 17  1  0
 19 12  2  0
 20 11  1  0
 20 21  1  0
 22 23  2  0
 23 42  1  0
 24 23  1  0
 24 27  1  0
 25 26  1  0
 25 22  1  0
 26 24  2  0
 27 28  1  0
 28 29  2  0
 30 33  1  0
 30 29  1  0
 31 30  2  0
 32 31  1  0
 32 27  2  0
 33 34  1  0
 34 35  1  0
 35 36  2  0
 37 36  1  0
 37 41  1  0
 38 37  2  0
 39 34  2  0
 39 38  1  0
 40 39  1  0
 42 43  1  0
 43 46  1  0
 43 45  1  0
 44 42  2  0
 47 48  1  0
 47 22  1  0
 49 47  1  0
 50  3  1  0
 50 51  1  0
 52 63  2  0
 53 51  1  0
 53 58  1  0
 54 62  1  0
 54 64  1  0
 55 61  1  0
 55 57  1  0
 56 62  1  0
 57 58  2  0
 57 56  1  0
 59 53  2  0
 60 59  1  0
 60 55  2  0
 61 54  1  0
 62 52  1  0
 64 66  2  0
 65 64  1  0
 67 65  1  0
 68 77  2  0
 68 73  1  0
 69 65  1  0
 69 73  1  0
 70 69  1  0
 71 72  1  0
 71 70  1  0
 72 68  1  0
 73 74  2  0
 74 75  1  0
 76 75  2  0
 77 76  1  0
 78 52  1  0
 78 83  1  0
 78 79  1  0
 79 82  1  1
 79 80  1  0
 81 79  1  0
 83 86  1  0
 84 88  1  0
 84 83  1  0
 85 84  2  0
 88 87  1  0
 90 88  1  0
 90 91  1  0
 90 89  1  0
M  ISO  4  12 100  20 100  50 101  51 101
M  END
>  <TORSDO>  (57) 
F 19

>  <SCORE>  (57) 
-13.870

>  <name>  (57) 
57

>  <ligand_id>  (57) 
57

>  <original_smiles>  (57) 
[H]c1c([H])c([H])c2c(c1[H])C([H])([H])C([H])([H])C([H])([H])C2([H])N([H])C(=O)C1([H])N(C(=O)C([H])(N([H])C(=O)C([H])(N([H])C([H])([H])[H])C([H])([H])[H])C(C([H])([H])[H])(C([H])([H])[H])C([H])([H])[H])C([H])([H])c2c([H])c(OC([H])([H])c3c([H])c(F)c(C([H])(F)C([H])([H])N([H])C(=O)N4C([H])([H])C([H])([H])C([H])([H])C([H])(n5nc(-c6c([H])c([H])c(Oc7c([H])c([H])c(F)c([H])c7F)c([H])c6[H])c(C(=O)N([H])[H])c5N([H])[H])C4([H])[H])c([H])c3F)c([H])c([H])c2C1([H])[H]

>  <smiles>  (57) 
[H]c1c([H])c([H])c2c(c1[H])C([H])([H])C([H])([H])C([H])([H])C2([H])N([H])C(=O)C1([H])N(C(=O)C([H])(N([H])C(=O)C([H])(N([H])C([H])([H])[H])C([H])([H])[H])C(C([H])([H])[H])(C([H])([H])[H])C([H])([H])[H])C([H])([H])c2c([H])c(OC([H])([H])c3c([H])c(F)c(C([H])(F)C([H])([H])N([H])C(=O)N4C([H])([H])C([H])([H])C([H])([H])C([H])(n5nc(-c6c([H])c([H])c(Oc7c([H])c([H])c(F)c([H])c7F)c([H])c6[H])c(C(=O)N([H])[H])c5N([H])[H])C4([H])[H])c([H])c3F)c([H])c([H])c2C1([H])[H]

$$$$
58:0:0
     RDKit          3D

 98106  0  0  1  0  0  0  0  0999 V2000
  -28.2540  -21.9930   19.6250 C   0  0  0  0  0  0  0  0  0  0  0  0
  -29.3900  -22.4580   19.4420 O   0  0  0  0  0  0  0  0  0  0  0  0
  -26.2680  -22.7850   18.2530 C   0  0  0  0  0  1  0  0  0  0  0  0
  -27.0150  -22.8830   19.5970 C   0  0  0  0  0  3  0  0  0  0  0  0
  -27.5890  -24.2210   19.7950 N   0  0  0  0  0  4  0  0  0  0  0  0
  -28.5410  -24.1340   19.4560 H   0  0  0  0  0  0  0  0  0  0  0  0
  -27.1180  -24.9120   19.2340 H   0  0  0  0  0  0  0  0  0  0  0  0
  -27.6440  -24.6790   21.2060 C   0  0  0  0  0  2  0  0  0  0  0  0
  -28.5150  -25.9350   21.2960 C   0  0  0  0  0  2  0  0  0  0  0  0
  -28.2580  -26.7320   20.1470 O   0  0  0  0  0  0  0  0  0  0  0  0
  -24.5670  -31.8890   23.3220 C   0  0  0  0  0  0  0  0  0  0  0  0
  -27.0940  -27.4470   20.2100 C   0  0  0  0  0  0  0  0  0  0  0  0
  -23.3160  -30.5170   21.6830 C   0  0  0  0  0  3  0  0  0  0  0  0
  -24.7250  -28.9530   20.2570 C   0  0  0  0  0  0  0  0  0  0  0  0
  -25.8410  -30.8290   21.4730 C   0  0  0  0  0  2  0  0  0  0  0  0
  -25.8910  -29.4580   20.8440 C   0  0  0  0  0  0  0  0  0  0  0  0
  -27.0790  -28.7050   20.8340 C   0  0  0  0  0  3  0  0  0  0  0  0
  -25.9180  -26.9520   19.6000 C   0  0  0  0  0  3  0  0  0  0  0  0
  -24.7280  -27.6920   19.6410 C   0  0  0  0  0  3  0  0  0  0  0  0
  -23.4990  -29.8320   20.3030 C   0  0  0  0  0  2  0  0  0  0  0  0
  -24.5940  -31.0910   22.2180 N   0  0  0  0  0  0  0  0  0  0  0  0
  -23.4960  -32.1870   23.8670 O   0  0  0  0  0  0  0  0  0  0  0  0
  -22.6480  -29.5110   22.6460 C   0  0  0  0  0  0  0  0  0  0  0  0
  -21.3220  -29.3470   22.5100 N   0  0  0  0  0  0  0  0  0  0  0  0
  -23.3200  -28.8800   23.4670 O   0  0  0  0  0  0  0  0  0  0  0  0
  -20.8450  -29.9090   21.8200 H   0  0  0  0  0  0  0  0  0  0  0  0
  -17.9290  -28.2110   22.9850 C   0  0  0  0  0  0  0  0  0  0  0  0
  -20.4870  -28.4310   23.2830 C   0  0  0  0  0  3  0  0  0  0  0  0
  -20.5740  -26.9920   22.7230 C   0  0  0  0  0  2  0  0  0  0  0  0
  -19.4780  -26.6740   21.7020 C   0  0  0  0  0  2  0  0  0  0  0  0
  -18.0920  -26.8500   22.3290 C   0  0  0  0  0  2  0  0  0  0  0  0
  -19.0540  -28.9590   23.4190 C   0  0  0  0  0  0  0  0  0  0  0  0
  -18.8500  -30.2340   23.9900 C   0  0  0  0  0  3  0  0  0  0  0  0
  -17.5520  -30.7590   24.1330 C   0  0  0  0  0  3  0  0  0  0  0  0
  -16.4400  -30.0050   23.7200 C   0  0  0  0  0  3  0  0  0  0  0  0
  -16.6290  -28.7340   23.1500 C   0  0  0  0  0  3  0  0  0  0  0  0
  -25.8740  -32.4850   23.9310 C   0  0  0  0  0  3  0  0  0  0  0  0
  -25.6080  -33.8920   24.2540 N   0  0  0  0  0  0  0  0  0  0  0  0
  -25.9650  -34.9280   23.4830 C   0  0  0  0  0  0  0  0  0  0  0  0
  -26.6270  -34.7980   22.4500 O   0  0  0  0  0  0  0  0  0  0  0  0
  -25.0260  -34.0690   25.0590 H   0  0  0  0  0  0  0  0  0  0  0  0
  -24.2880  -36.7650   23.1130 C   0  0  0  0  0  1  0  0  0  0  0  0
  -25.5150  -36.3310   23.9310 C   0  0  0  0  0  3  0  0  0  0  0  0
  -27.6710  -37.1610   24.7610 C   0  0  0  0  0  1  0  0  0  0  0  0
  -26.5750  -37.3550   23.8160 N   0  0  0  0  0  0  0  0  0  0  0  0
  -26.1930  -38.2860   23.9580 H   0  0  0  0  0  0  0  0  0  0  0  0
  -26.3790  -31.7010   25.2040 C   0  0  1  0  0  0  0  0  0  0  0  0
  -25.2870  -31.4930   26.2800 C   0  0  0  0  0  1  0  0  0  0  0  0
  -26.9230  -30.3080   24.8070 C   0  0  0  0  0  1  0  0  0  0  0  0
  -27.5540  -32.4660   25.8560 C   0  0  0  0  0  1  0  0  0  0  0  0
  -28.0580  -20.5130   19.9280 C   0  0  0  0  0  2  0  0  0  0  0  0
  -30.7670  -18.2440   21.4450 C   0  0  0  0  0  2  0  0  0  0  0  0
  -29.3950  -18.9260   21.2480 C   0  0  0  0  0  2  0  0  0  0  0  0
  -30.0430  -19.4590   18.8760 C   0  0  0  0  0  2  0  0  0  0  0  0
  -31.3590  -17.7400   20.1150 C   0  0  0  0  0  3  0  0  0  0  0  0
  -31.4590  -18.9320   19.1540 C   0  0  0  0  0  3  0  0  0  0  0  0
  -32.2470  -18.6270   17.8680 C   0  0  0  0  0  1  0  0  0  0  0  0
  -29.3990  -19.9220   20.1410 N   0  0  1  0  0  4  0  0  0  0  0  0
  -29.9610  -20.7050   20.4480 H   0  0  0  0  0  0  0  0  0  0  0  0
  -30.5070  -16.6100   19.5120 C   0  0  0  0  0  2  0  0  0  0  0  0
  -31.2600  -14.3820   19.9300 C   0  0  0  0  0  0  0  0  0  0  0  0
  -30.8690  -12.1710   18.9700 C   0  0  0  0  0  2  0  0  0  0  0  0
  -29.9050  -12.3440   17.7790 C   0  0  0  0  0  2  0  0  0  0  0  0
  -28.4360  -12.2980   18.2530 C   0  0  0  0  0  2  0  0  0  0  0  0
  -28.1650  -13.2440   19.4520 C   0  0  0  0  0  3  0  0  0  0  0  0
  -29.2330  -13.0350   20.5510 C   0  0  0  0  0  2  0  0  0  0  0  0
  -30.5660  -13.2230   19.9440 N   0  0  0  0  0  0  0  0  0  0  0  0
  -32.3490  -14.5410   19.3710 O   0  0  0  0  0  0  0  0  0  0  0  0
  -30.5260  -15.4180   20.3240 N   0  0  0  0  0  0  0  0  0  0  0  0
  -29.6770  -15.1860   20.8140 H   0  0  0  0  0  0  0  0  0  0  0  0
  -25.8350  -14.0090   20.2490 C   0  0  0  0  0  0  0  0  0  0  0  0
  -24.7350  -13.3040   20.6600 C   0  0  0  0  0  0  0  0  0  0  0  0
  -25.1070  -11.9260   20.6030 C   0  0  0  0  0  0  0  0  0  0  0  0
  -26.8120  -13.0640   19.9770 N   0  0  0  0  0  0  0  0  0  0  0  0
  -26.3760  -11.8070   20.2390 N   0  0  0  0  0  0  0  0  0  0  0  0
  -24.3140  -10.7100   20.8200 C   0  0  0  0  0  0  0  0  0  0  0  0
  -24.6870   -9.7450   21.7810 C   0  0  0  0  0  3  0  0  0  0  0  0
  -23.8980   -8.5930   21.9810 C   0  0  0  0  0  3  0  0  0  0  0  0
  -22.7220   -8.3960   21.2170 C   0  0  0  0  0  0  0  0  0  0  0  0
  -22.3690   -9.3490   20.2450 C   0  0  0  0  0  3  0  0  0  0  0  0
  -23.1580  -10.4930   20.0440 C   0  0  0  0  0  3  0  0  0  0  0  0
  -21.9090   -7.2940   21.3240 O   0  0  0  0  0  0  0  0  0  0  0  0
  -21.7590   -6.6240   22.5110 C   0  0  0  0  0  0  0  0  0  0  0  0
  -21.2860   -7.2660   23.6760 C   0  0  0  0  0  3  0  0  0  0  0  0
  -21.0810   -6.5240   24.8550 C   0  0  0  0  0  3  0  0  0  0  0  0
  -21.3390   -5.1400   24.8710 C   0  0  0  0  0  0  0  0  0  0  0  0
  -21.8060   -4.4970   23.7110 C   0  0  0  0  0  3  0  0  0  0  0  0
  -22.0130   -5.2360   22.5330 C   0  0  0  0  0  0  0  0  0  0  0  0
  -22.4420   -4.6090   21.4120 F   0  0  0  0  0  0  0  0  0  0  0  0
  -21.1330   -4.4240   26.0010 F   0  0  0  0  0  0  0  0  0  0  0  0
  -23.3840  -13.8660   20.9980 C   0  0  0  0  0  0  0  0  0  0  0  0
  -22.6610  -13.2170   21.9040 N   0  0  0  0  0  0  0  0  0  0  0  0
  -22.9840  -14.9150   20.4930 O   0  0  0  0  0  0  0  0  0  0  0  0
  -22.9970  -12.3650   22.3270 H   0  0  0  0  0  0  0  0  0  0  0  0
  -21.7580  -13.5770   22.1770 H   0  0  0  0  0  0  0  0  0  0  0  0
  -26.0780  -15.3670   20.0670 N   0  0  0  0  0  0  0  0  0  0  0  0
  -25.3450  -16.0590   20.1710 H   0  0  0  0  0  0  0  0  0  0  0  0
  -26.9210  -15.7410   19.6520 H   0  0  0  0  0  0  0  0  0  0  0  0
  1 51  1  0
  2  1  2  0
  4  3  1  0
  4  1  1  0
  4  5  1  0
  5  8  1  0
  6  5  1  0
  7  5  1  0
  8  9  1  0
 10 12  1  0
 10  9  1  0
 11 22  2  0
 12 17  1  0
 13 21  1  0
 13 23  1  0
 14 20  1  0
 14 16  1  0
 15 21  1  0
 16 15  1  0
 17 16  2  0
 18 19  1  0
 18 12  2  0
 19 14  2  0
 20 13  1  0
 21 11  1  0
 23 25  2  0
 24 23  1  0
 26 24  1  0
 27 36  2  0
 27 32  1  0
 28 24  1  0
 28 32  1  0
 29 28  1  0
 30 31  1  0
 30 29  1  0
 31 27  1  0
 32 33  2  0
 33 34  1  0
 35 34  2  0
 36 35  1  0
 37 11  1  0
 37 38  1  0
 37 47  1  0
 38 41  1  0
 39 43  1  0
 39 38  1  0
 40 39  2  0
 43 42  1  0
 45 43  1  0
 45 46  1  0
 45 44  1  0
 47 50  1  1
 47 48  1  0
 49 47  1  0
 51 58  1  0
 53 52  1  0
 54 56  1  0
 54 58  1  0
 55 60  1  0
 55 52  1  0
 56 57  1  0
 56 55  1  0
 58 59  1  1
 58 53  1  0
 60 69  1  0
 61 67  1  0
 61 69  1  0
 62 67  1  0
 63 64  1  0
 63 62  1  0
 65 64  1  0
 65 74  1  0
 65 66  1  0
 67 66  1  0
 68 61  2  0
 69 70  1  0
 71 72  2  0
 72 91  1  0
 73 72  1  0
 73 76  1  0
 74 75  1  0
 74 71  1  0
 75 73  2  0
 76 77  1  0
 77 78  2  0
 79 82  1  0
 79 78  1  0
 80 79  2  0
 81 80  1  0
 81 76  2  0
 82 83  1  0
 83 88  2  0
 83 84  1  0
 84 85  2  0
 85 86  1  0
 86 90  1  0
 87 86  2  0
 88 87  1  0
 89 88  1  0
 91 92  1  0
 92 95  1  0
 92 94  1  0
 93 91  2  0
 96 97  1  0
 96 71  1  0
 98 96  1  0
M  ISO  4   9 101  10 101  61 100  69 100
M  END
>  <TORSDO>  (58) 
F 23

>  <SCORE>  (58) 
-12.369

>  <name>  (58) 
58

>  <ligand_id>  (58) 
58

>  <original_smiles>  (58) 
[H]c1c([H])c([H])c2c(c1[H])C([H])([H])C([H])([H])C([H])([H])C2([H])N([H])C(=O)C1([H])N(C(=O)C([H])(N([H])C(=O)C([H])(N([H])C([H])([H])[H])C([H])([H])[H])C(C([H])([H])[H])(C([H])([H])[H])C([H])([H])[H])C([H])([H])c2c([H])c(OC([H])([H])C([H])([H])[N+]([H])([H])C([H])(C(=O)C([H])([H])[N+]3([H])C([H])([H])C([H])([H])C([H])(C([H])([H])N([H])C(=O)N4C([H])([H])C([H])([H])C([H])([H])C([H])(n5nc(-c6c([H])c([H])c(Oc7c([H])c([H])c(F)c([H])c7F)c([H])c6[H])c(C(=O)N([H])[H])c5N([H])[H])C4([H])[H])C([H])(C([H])([H])[H])C3([H])[H])C([H])([H])[H])c([H])c([H])c2C1([H])[H]

>  <smiles>  (58) 
[H]c1c([H])c([H])c2c(c1[H])C([H])([H])C([H])([H])C([H])([H])C2([H])N([H])C(=O)C1([H])N(C(=O)C([H])(N([H])C(=O)C([H])(N([H])C([H])([H])[H])C([H])([H])[H])C(C([H])([H])[H])(C([H])([H])[H])C([H])([H])[H])C([H])([H])c2c([H])c(OC([H])([H])C([H])([H])[N+]([H])([H])C([H])(C(=O)C([H])([H])[N+]3([H])C([H])([H])C([H])([H])C([H])(C([H])([H])N([H])C(=O)N4C([H])([H])C([H])([H])C([H])([H])C([H])(n5nc(-c6c([H])c([H])c(Oc7c([H])c([H])c(F)c([H])c7F)c([H])c6[H])c(C(=O)N([H])[H])c5N([H])[H])C4([H])[H])C([H])(C([H])([H])[H])C3([H])[H])C([H])([H])[H])c([H])c([H])c2C1([H])[H]

$$$$
59:0:0
     RDKit          3D

 91 99  0  0  1  0  0  0  0  0999 V2000
  -30.7070  -18.3850   19.2720 C   0  0  0  0  0  3  0  0  0  0  0  0
  -28.9020  -18.4310   20.7950 C   0  0  0  0  0  3  0  0  0  0  0  0
  -29.4960  -20.6160   19.6510 C   0  0  0  0  0  0  0  0  0  0  0  0
  -29.8950  -17.6100   20.1600 C   0  0  0  0  0  0  0  0  0  0  0  0
  -30.5060  -19.8050   19.0200 C   0  0  0  0  0  0  0  0  0  0  0  0
  -28.7070  -19.8480   20.5630 C   0  0  0  0  0  0  0  0  0  0  0  0
  -31.3110  -20.3860   18.0940 F   0  0  0  0  0  0  0  0  0  0  0  0
  -27.6790  -20.4590   21.1990 F   0  0  0  0  0  0  0  0  0  0  0  0
  -30.7420  -15.0050   20.0860 C   0  0  0  0  0  0  0  0  0  0  0  0
  -30.6210  -12.6520   19.1890 C   0  0  0  0  0  2  0  0  0  0  0  0
  -29.6840  -12.6500   17.9570 C   0  0  0  0  0  2  0  0  0  0  0  0
  -28.2110  -12.4820   18.3830 C   0  0  0  0  0  2  0  0  0  0  0  0
  -27.8260  -13.4080   19.5680 C   0  0  0  0  0  3  0  0  0  0  0  0
  -28.8820  -13.3650   20.6930 C   0  0  0  0  0  2  0  0  0  0  0  0
  -30.1730  -13.7390   20.0970 N   0  0  0  0  0  0  0  0  0  0  0  0
  -31.9120  -15.1250   19.7070 O   0  0  0  0  0  0  0  0  0  0  0  0
  -29.9180  -16.1040   20.3890 N   0  0  0  0  0  0  0  0  0  0  0  0
  -29.0690  -15.7710   20.8220 H   0  0  0  0  0  0  0  0  0  0  0  0
  -25.4430  -14.0260   20.2840 C   0  0  0  0  0  0  0  0  0  0  0  0
  -24.3740  -13.2690   20.6740 C   0  0  0  0  0  0  0  0  0  0  0  0
  -24.8270  -11.9140   20.6740 C   0  0  0  0  0  0  0  0  0  0  0  0
  -26.4800  -13.1340   20.0650 N   0  0  0  0  0  0  0  0  0  0  0  0
  -26.1170  -11.8590   20.3610 N   0  0  0  0  0  0  0  0  0  0  0  0
  -24.0900  -10.6630   20.8960 C   0  0  0  0  0  0  0  0  0  0  0  0
  -24.5130   -9.7160   21.8550 C   0  0  0  0  0  3  0  0  0  0  0  0
  -23.7760   -8.5290   22.0640 C   0  0  0  0  0  3  0  0  0  0  0  0
  -22.6020   -8.2820   21.3140 C   0  0  0  0  0  0  0  0  0  0  0  0
  -22.1970   -9.2180   20.3450 C   0  0  0  0  0  3  0  0  0  0  0  0
  -22.9350  -10.3950   20.1360 C   0  0  0  0  0  3  0  0  0  0  0  0
  -21.8370   -7.1470   21.4300 O   0  0  0  0  0  0  0  0  0  0  0  0
  -21.7970   -6.4220   22.5930 C   0  0  0  0  0  0  0  0  0  0  0  0
  -21.3740   -6.9940   23.8130 C   0  0  0  0  0  3  0  0  0  0  0  0
  -21.2810   -6.1960   24.9710 C   0  0  0  0  0  3  0  0  0  0  0  0
  -21.5990   -4.8270   24.9100 C   0  0  0  0  0  0  0  0  0  0  0  0
  -22.0170   -4.2540   23.6950 C   0  0  0  0  0  3  0  0  0  0  0  0
  -22.1120   -5.0490   22.5410 C   0  0  0  0  0  0  0  0  0  0  0  0
  -22.4930   -4.4880   21.3670 F   0  0  0  0  0  0  0  0  0  0  0  0
  -21.5030   -4.0570   26.0190 F   0  0  0  0  0  0  0  0  0  0  0  0
  -22.9790  -13.7640   20.9330 C   0  0  0  0  0  0  0  0  0  0  0  0
  -22.2490  -13.1040   21.8260 N   0  0  0  0  0  0  0  0  0  0  0  0
  -22.5470  -14.7730   20.3800 O   0  0  0  0  0  0  0  0  0  0  0  0
  -22.6090  -12.2910   22.3030 H   0  0  0  0  0  0  0  0  0  0  0  0
  -21.3130  -13.4210   22.0380 H   0  0  0  0  0  0  0  0  0  0  0  0
  -25.6150  -15.3910   20.0730 N   0  0  0  0  0  0  0  0  0  0  0  0
  -24.8440  -16.0460   20.1540 H   0  0  0  0  0  0  0  0  0  0  0  0
  -26.4560  -15.8170   19.7040 H   0  0  0  0  0  0  0  0  0  0  0  0
  -29.0970  -22.0790   19.1290 C   0  0  0  0  0  0  0  0  0  0  0  0
  -28.6700  -22.1510   17.9720 O   0  0  0  0  0  0  0  0  0  0  0  0
  -29.2030  -23.5310   19.8730 C   0  0  0  0  0  3  0  0  0  0  0  0
  -28.2900  -24.8380   19.3690 C   0  0  0  0  0  3  0  0  0  0  0  0
  -28.4840  -26.3390   19.6780 O   0  0  0  0  0  0  0  0  0  0  0  0
  -24.5860  -31.6150   22.9750 C   0  0  0  0  0  0  0  0  0  0  0  0
  -27.3810  -27.2590   19.6530 C   0  0  0  0  0  0  0  0  0  0  0  0
  -23.4550  -30.2840   21.2340 C   0  0  0  0  0  3  0  0  0  0  0  0
  -24.9760  -28.8770   19.7210 C   0  0  0  0  0  0  0  0  0  0  0  0
  -25.9940  -30.6740   21.1100 C   0  0  0  0  0  2  0  0  0  0  0  0
  -26.1290  -29.3370   20.3690 C   0  0  0  0  0  0  0  0  0  0  0  0
  -27.3320  -28.5430   20.3220 C   0  0  0  0  0  3  0  0  0  0  0  0
  -26.1990  -26.8980   18.9690 C   0  0  0  0  0  3  0  0  0  0  0  0
  -25.0200  -27.6680   19.0120 C   0  0  0  0  0  3  0  0  0  0  0  0
  -23.7120  -29.7140   19.8140 C   0  0  0  0  0  2  0  0  0  0  0  0
  -24.6970  -30.8760   21.8290 N   0  0  0  0  0  0  0  0  0  0  0  0
  -23.4870  -31.8180   23.5110 O   0  0  0  0  0  0  0  0  0  0  0  0
  -22.8160  -29.1860   22.1200 C   0  0  0  0  0  0  0  0  0  0  0  0
  -21.4850  -29.0150   22.0190 N   0  0  0  0  0  0  0  0  0  0  0  0
  -23.5170  -28.4930   22.8600 O   0  0  0  0  0  0  0  0  0  0  0  0
  -20.9750  -29.6280   21.3990 H   0  0  0  0  0  0  0  0  0  0  0  0
  -18.1200  -27.7970   22.5680 C   0  0  0  0  0  0  0  0  0  0  0  0
  -20.6930  -28.0070   22.7260 C   0  0  0  0  0  3  0  0  0  0  0  0
  -20.7450  -26.6440   21.9950 C   0  0  0  0  0  2  0  0  0  0  0  0
  -19.5860  -26.4430   21.0130 C   0  0  0  0  0  2  0  0  0  0  0  0
  -18.2430  -26.5290   21.7410 C   0  0  0  0  0  2  0  0  0  0  0  0
  -19.2700  -28.5000   23.0180 C   0  0  0  0  0  0  0  0  0  0  0  0
  -19.0990  -29.6910   23.7560 C   0  0  0  0  0  3  0  0  0  0  0  0
  -17.8110  -30.1780   24.0470 C   0  0  0  0  0  3  0  0  0  0  0  0
  -16.6760  -29.4720   23.6130 C   0  0  0  0  0  3  0  0  0  0  0  0
  -16.8320  -28.2820   22.8790 C   0  0  0  0  0  3  0  0  0  0  0  0
  -25.8340  -32.2580   23.6540 C   0  0  0  0  0  3  0  0  0  0  0  0
  -26.3610  -31.4320   24.8930 C   0  0  1  0  0  0  0  0  0  0  0  0
  -25.2650  -31.1060   25.9340 C   0  0  0  0  0  1  0  0  0  0  0  0
  -26.9880  -30.0950   24.4370 C   0  0  0  0  0  1  0  0  0  0  0  0
  -27.4790  -32.2240   25.6100 C   0  0  0  0  0  1  0  0  0  0  0  0
  -25.4660  -33.6210   24.0650 N   0  0  0  0  0  0  0  0  0  0  0  0
  -25.7860  -34.7350   23.3920 C   0  0  0  0  0  0  0  0  0  0  0  0
  -26.4880  -34.7240   22.3780 O   0  0  0  0  0  0  0  0  0  0  0  0
  -24.8420  -33.7000   24.8550 H   0  0  0  0  0  0  0  0  0  0  0  0
  -24.0170  -36.5030   23.1060 C   0  0  0  0  0  1  0  0  0  0  0  0
  -25.2420  -36.0730   23.9290 C   0  0  0  0  0  3  0  0  0  0  0  0
  -27.3140  -36.9630   24.9040 C   0  0  0  0  0  1  0  0  0  0  0  0
  -26.2450  -37.1600   23.9280 N   0  0  0  0  0  0  0  0  0  0  0  0
  -25.8050  -38.0570   24.1170 H   0  0  0  0  0  0  0  0  0  0  0  0
  1  4  1  0
  3  6  2  0
  4 17  1  0
  4  2  2  0
  5  1  2  0
  5  3  1  0
  6  2  1  0
  6  8  1  0
  7  5  1  0
  9 15  1  0
  9 17  1  0
 10 15  1  0
 11 12  1  0
 11 10  1  0
 13 12  1  0
 13 22  1  0
 13 14  1  0
 15 14  1  0
 16  9  2  0
 17 18  1  0
 19 20  2  0
 20 39  1  0
 21 20  1  0
 21 24  1  0
 22 19  1  0
 22 23  1  0
 23 21  2  0
 24 25  1  0
 25 26  2  0
 27 30  1  0
 27 26  1  0
 28 27  2  0
 29 28  1  0
 29 24  2  0
 30 31  1  0
 31 32  1  0
 32 33  2  0
 34 33  1  0
 34 38  1  0
 35 34  2  0
 36 31  2  0
 36 35  1  0
 37 36  1  0
 39 40  1  0
 40 43  1  0
 40 42  1  0
 41 39  2  0
 44 45  1  0
 44 19  1  0
 46 44  1  0
 47  3  1  0
 47 49  1  0
 48 47  2  0
 50 51  1  0
 50 49  2  0
 52 63  2  0
 53 51  1  0
 53 58  1  0
 54 62  1  0
 54 64  1  0
 55 61  1  0
 55 57  1  0
 56 62  1  0
 57 56  1  0
 58 57  2  0
 59 60  1  0
 59 53  2  0
 60 55  2  0
 61 54  1  0
 62 52  1  0
 64 66  2  0
 65 64  1  0
 67 65  1  0
 68 77  2  0
 68 73  1  0
 69 65  1  0
 69 73  1  0
 70 69  1  0
 71 72  1  0
 71 70  1  0
 72 68  1  0
 73 74  2  0
 74 75  1  0
 76 75  2  0
 77 76  1  0
 78 52  1  0
 78 83  1  0
 78 79  1  0
 79 82  1  1
 79 80  1  0
 81 79  1  0
 83 86  1  0
 84 88  1  0
 84 83  1  0
 85 84  2  0
 88 87  1  0
 90 88  1  0
 90 91  1  0
 90 89  1  0
M  ISO  4   9 100  17 100  50 101  51 101
M  END
>  <TORSDO>  (59) 
F 19

>  <SCORE>  (59) 
-13.305

>  <name>  (59) 
59

>  <ligand_id>  (59) 
59

>  <original_smiles>  (59) 
[H]c1c([H])c([H])c2c(c1[H])C([H])([H])C([H])([H])C([H])([H])C2([H])N([H])C(=O)C1([H])N(C(=O)C([H])(N([H])C(=O)C([H])(N([H])C([H])([H])[H])C([H])([H])[H])C(C([H])([H])[H])(C([H])([H])[H])C([H])([H])[H])C([H])([H])c2c([H])c(OC([H])([H])C([H])([H])C(=O)c3c(F)c([H])c(N([H])C(=O)N4C([H])([H])C([H])([H])C([H])([H])C([H])(n5nc(-c6c([H])c([H])c(Oc7c([H])c([H])c(F)c([H])c7F)c([H])c6[H])c(C(=O)N([H])[H])c5N([H])[H])C4([H])[H])c([H])c3F)c([H])c([H])c2C1([H])[H]

>  <smiles>  (59) 
[H]c1c([H])c([H])c2c(c1[H])C([H])([H])C([H])([H])C([H])([H])C2([H])N([H])C(=O)C1([H])N(C(=O)C([H])(N([H])C(=O)C([H])(N([H])C([H])([H])[H])C([H])([H])[H])C(C([H])([H])[H])(C([H])([H])[H])C([H])([H])[H])C([H])([H])c2c([H])c(OC([H])([H])C([H])([H])C(=O)c3c(F)c([H])c(N([H])C(=O)N4C([H])([H])C([H])([H])C([H])([H])C([H])(n5nc(-c6c([H])c([H])c(Oc7c([H])c([H])c(F)c([H])c7F)c([H])c6[H])c(C(=O)N([H])[H])c5N([H])[H])C4([H])[H])c([H])c3F)c([H])c([H])c2C1([H])[H]

$$$$
60:0:0
     RDKit          3D

 92100  0  0  1  0  0  0  0  0999 V2000
  -28.6830  -22.8470   20.7890 N   0  0  0  0  0  4  0  0  0  0  0  0
  -28.5050  -22.4120   21.6790 H   0  0  0  0  0  0  0  0  0  0  0  0
  -27.9030  -22.6090   20.1930 H   0  0  0  0  0  0  0  0  0  0  0  0
  -27.6900  -24.6530   22.1720 C   0  0  0  0  0  1  0  0  0  0  0  0
  -28.7140  -24.3320   21.0660 C   0  0  0  0  0  3  0  0  0  0  0  0
  -28.4780  -25.2490   19.8150 C   0  0  0  0  0  2  0  0  0  0  0  0
  -28.4330  -26.6800   20.1140 O   0  0  0  0  0  0  0  0  0  0  0  0
  -24.6360  -31.8850   23.2220 C   0  0  0  0  0  0  0  0  0  0  0  0
  -27.2430  -27.4060   20.1010 C   0  0  0  0  0  0  0  0  0  0  0  0
  -23.4190  -30.5030   21.5730 C   0  0  0  0  0  3  0  0  0  0  0  0
  -24.8580  -28.9650   20.1320 C   0  0  0  0  0  0  0  0  0  0  0  0
  -25.9510  -30.8360   21.3740 C   0  0  0  0  0  2  0  0  0  0  0  0
  -26.0250  -29.4670   20.7210 C   0  0  0  0  0  0  0  0  0  0  0  0
  -27.2140  -28.6960   20.7000 C   0  0  0  0  0  3  0  0  0  0  0  0
  -26.0470  -26.9370   19.5040 C   0  0  0  0  0  3  0  0  0  0  0  0
  -24.8670  -27.7030   19.5240 C   0  0  0  0  0  3  0  0  0  0  0  0
  -23.6210  -29.8320   20.1890 C   0  0  0  0  0  2  0  0  0  0  0  0
  -24.6870  -31.0920   22.1120 N   0  0  0  0  0  0  0  0  0  0  0  0
  -23.5570  -32.1590   23.7660 O   0  0  0  0  0  0  0  0  0  0  0  0
  -22.7630  -29.4800   22.5280 C   0  0  0  0  0  0  0  0  0  0  0  0
  -21.4370  -29.3000   22.4000 N   0  0  0  0  0  0  0  0  0  0  0  0
  -23.4440  -28.8470   23.3390 O   0  0  0  0  0  0  0  0  0  0  0  0
  -20.9470  -29.8640   21.7180 H   0  0  0  0  0  0  0  0  0  0  0  0
  -18.0590  -28.1100   22.8920 C   0  0  0  0  0  0  0  0  0  0  0  0
  -20.6180  -28.3590   23.1640 C   0  0  0  0  0  3  0  0  0  0  0  0
  -20.7170  -26.9320   22.5740 C   0  0  0  0  0  2  0  0  0  0  0  0
  -19.6130  -26.6210   21.5580 C   0  0  0  0  0  2  0  0  0  0  0  0
  -18.2310  -26.7650   22.2040 C   0  0  0  0  0  2  0  0  0  0  0  0
  -19.1800  -28.8650   23.3280 C   0  0  0  0  0  0  0  0  0  0  0  0
  -18.9660  -30.1250   23.9290 C   0  0  0  0  0  3  0  0  0  0  0  0
  -17.6640  -30.6300   24.0960 C   0  0  0  0  0  3  0  0  0  0  0  0
  -16.5570  -29.8700   23.6790 C   0  0  0  0  0  3  0  0  0  0  0  0
  -16.7550  -28.6120   23.0830 C   0  0  0  0  0  3  0  0  0  0  0  0
  -25.9250  -32.5040   23.8430 C   0  0  0  0  0  3  0  0  0  0  0  0
  -25.6300  -33.9060   24.1730 N   0  0  0  0  0  0  0  0  0  0  0  0
  -25.9800  -34.9540   23.4160 C   0  0  0  0  0  0  0  0  0  0  0  0
  -26.6570  -34.8430   22.3900 O   0  0  0  0  0  0  0  0  0  0  0  0
  -25.0310  -34.0670   24.9690 H   0  0  0  0  0  0  0  0  0  0  0  0
  -24.2750  -36.7660   23.0470 C   0  0  0  0  0  1  0  0  0  0  0  0
  -25.5050  -36.3480   23.8690 C   0  0  0  0  0  3  0  0  0  0  0  0
  -27.6430  -37.2100   24.7170 C   0  0  0  0  0  1  0  0  0  0  0  0
  -26.5520  -37.3890   23.7620 N   0  0  0  0  0  0  0  0  0  0  0  0
  -26.1560  -38.3160   23.9010 H   0  0  0  0  0  0  0  0  0  0  0  0
  -26.4340  -31.7280   25.1200 C   0  0  1  0  0  0  0  0  0  0  0  0
  -25.3380  -31.4990   26.1870 C   0  0  0  0  0  1  0  0  0  0  0  0
  -27.0050  -30.3460   24.7260 C   0  0  0  0  0  1  0  0  0  0  0  0
  -27.5920  -32.5120   25.7800 C   0  0  0  0  0  1  0  0  0  0  0  0
  -29.9140  -22.1670   20.2770 C   0  0  0  0  0  2  0  0  0  0  0  0
  -30.1450  -20.7020   20.8180 C   0  0  0  0  0  2  0  0  0  0  0  0
  -28.4000  -18.3560   20.9080 C   0  0  0  0  0  2  0  0  0  0  0  0
  -28.3600  -19.3740   19.7630 C   0  0  0  0  0  2  0  0  0  0  0  0
  -29.9040  -18.2280   20.6360 C   0  0  0  0  0  3  0  0  0  0  0  0
  -29.8060  -19.5500   19.9410 N   0  0  0  0  0  0  0  0  0  0  0  0
  -30.4480  -17.0670   19.7540 C   0  0  0  0  0  2  0  0  0  0  0  0
  -31.0070  -14.6170   20.0450 C   0  0  0  0  0  0  0  0  0  0  0  0
  -30.6710  -12.4300   18.9720 C   0  0  0  0  0  2  0  0  0  0  0  0
  -29.7190  -12.6540   17.7770 C   0  0  0  0  0  2  0  0  0  0  0  0
  -28.2480  -12.5410   18.2280 C   0  0  0  0  0  2  0  0  0  0  0  0
  -27.9440  -13.3800   19.5020 C   0  0  0  0  0  3  0  0  0  0  0  0
  -29.0210  -13.1590   20.5920 C   0  0  0  0  0  2  0  0  0  0  0  0
  -30.3350  -13.4340   19.9920 N   0  0  0  0  0  0  0  0  0  0  0  0
  -32.1610  -14.7420   19.6230 O   0  0  0  0  0  0  0  0  0  0  0  0
  -30.2510  -15.7060   20.3200 N   0  0  0  0  0  0  0  0  0  0  0  0
  -29.3270  -15.5120   20.6720 H   0  0  0  0  0  0  0  0  0  0  0  0
  -25.5630  -14.0260   20.2380 C   0  0  0  0  0  0  0  0  0  0  0  0
  -24.4880  -13.2750   20.6350 C   0  0  0  0  0  0  0  0  0  0  0  0
  -24.9310  -11.9150   20.6130 C   0  0  0  0  0  0  0  0  0  0  0  0
  -26.5920  -13.1280   20.0050 N   0  0  0  0  0  0  0  0  0  0  0  0
  -26.2170  -11.8530   20.2900 N   0  0  0  0  0  0  0  0  0  0  0  0
  -24.1880  -10.6660   20.8240 C   0  0  0  0  0  0  0  0  0  0  0  0
  -24.5920   -9.7200   21.7910 C   0  0  0  0  0  3  0  0  0  0  0  0
  -23.8500   -8.5360   21.9880 C   0  0  0  0  0  3  0  0  0  0  0  0
  -22.6870   -8.2890   21.2190 C   0  0  0  0  0  0  0  0  0  0  0  0
  -22.3030   -9.2240   20.2420 C   0  0  0  0  0  3  0  0  0  0  0  0
  -23.0450  -10.3990   20.0430 C   0  0  0  0  0  3  0  0  0  0  0  0
  -21.9180   -7.1540   21.3240 O   0  0  0  0  0  0  0  0  0  0  0  0
  -21.8070   -6.4700   22.5070 C   0  0  0  0  0  0  0  0  0  0  0  0
  -21.3310   -7.0870   23.6860 C   0  0  0  0  0  3  0  0  0  0  0  0
  -21.1650   -6.3270   24.8620 C   0  0  0  0  0  3  0  0  0  0  0  0
  -21.4670   -4.9510   24.8590 C   0  0  0  0  0  0  0  0  0  0  0  0
  -21.9320   -4.3350   23.6850 C   0  0  0  0  0  3  0  0  0  0  0  0
  -22.0990   -5.0900   22.5120 C   0  0  0  0  0  0  0  0  0  0  0  0
  -22.5290   -4.4890   21.3780 F   0  0  0  0  0  0  0  0  0  0  0  0
  -21.3010   -4.2190   25.9850 F   0  0  0  0  0  0  0  0  0  0  0  0
  -23.1020  -13.7760   20.9210 C   0  0  0  0  0  0  0  0  0  0  0  0
  -22.3740  -13.1090   21.8080 N   0  0  0  0  0  0  0  0  0  0  0  0
  -22.6730  -14.7970   20.3840 O   0  0  0  0  0  0  0  0  0  0  0  0
  -22.7320  -12.2840   22.2630 H   0  0  0  0  0  0  0  0  0  0  0  0
  -21.4460  -13.4320   22.0380 H   0  0  0  0  0  0  0  0  0  0  0  0
  -25.7450  -15.3920   20.0400 N   0  0  0  0  0  0  0  0  0  0  0  0
  -24.9810  -16.0500   20.1450 H   0  0  0  0  0  0  0  0  0  0  0  0
  -26.5850  -15.8150   19.6700 H   0  0  0  0  0  0  0  0  0  0  0  0
  1  5  1  0
  1  2  1  0
  3  1  1  0
  5  4  1  0
  6  7  1  0
  6  5  1  0
  8 19  2  0
  9  7  1  0
  9 14  1  0
 10 18  1  0
 10 20  1  0
 11 17  1  0
 11 13  1  0
 12 18  1  0
 13 12  1  0
 14 13  2  0
 15 16  1  0
 15  9  2  0
 16 11  2  0
 17 10  1  0
 18  8  1  0
 20 22  2  0
 21 20  1  0
 23 21  1  0
 24 33  2  0
 24 29  1  0
 25 21  1  0
 25 29  1  0
 26 25  1  0
 27 28  1  0
 27 26  1  0
 28 24  1  0
 29 30  2  0
 30 31  1  0
 32 31  2  0
 33 32  1  0
 34  8  1  0
 34 35  1  0
 34 44  1  0
 35 38  1  0
 36 40  1  0
 36 35  1  0
 37 36  2  0
 40 39  1  0
 42 40  1  0
 42 43  1  0
 42 41  1  0
 44 47  1  1
 44 45  1  0
 46 44  1  0
 48  1  1  0
 48 49  1  0
 51 53  1  0
 51 50  1  0
 52 54  1  0
 52 50  1  0
 53 52  1  0
 53 49  1  0
 54 63  1  0
 55 63  1  0
 56 61  1  0
 57 58  1  0
 57 56  1  0
 59 58  1  0
 59 68  1  0
 59 60  1  0
 61 55  1  0
 61 60  1  0
 62 55  2  0
 63 64  1  0
 65 66  2  0
 66 85  1  0
 67 66  1  0
 67 70  1  0
 68 65  1  0
 68 69  1  0
 69 67  2  0
 70 71  1  0
 71 72  2  0
 73 76  1  0
 73 72  1  0
 74 73  2  0
 75 74  1  0
 75 70  2  0
 76 77  1  0
 77 82  2  0
 77 78  1  0
 78 79  2  0
 80 79  1  0
 80 84  1  0
 81 80  2  0
 82 81  1  0
 83 82  1  0
 85 86  1  0
 86 89  1  0
 86 88  1  0
 87 85  2  0
 90 91  1  0
 90 65  1  0
 92 90  1  0
M  ISO  4   6 101   7 101  55 100  63 100
M  END
>  <TORSDO>  (60) 
F 22

>  <SCORE>  (60) 
-12.502

>  <name>  (60) 
60

>  <ligand_id>  (60) 
60

>  <original_smiles>  (60) 
[H]c1c([H])c([H])c2c(c1[H])C([H])([H])C([H])([H])C([H])([H])C2([H])N([H])C(=O)C1([H])N(C(=O)C([H])(N([H])C(=O)C([H])(N([H])C([H])([H])[H])C([H])([H])[H])C(C([H])([H])[H])(C([H])([H])[H])C([H])([H])[H])C([H])([H])c2c([H])c(OC([H])([H])C([H])(C([H])([H])[H])[N+]([H])([H])C([H])([H])C([H])([H])N3C([H])([H])C([H])([H])C3([H])C([H])([H])N([H])C(=O)N3C([H])([H])C([H])([H])C([H])([H])C([H])(n4nc(-c5c([H])c([H])c(Oc6c([H])c([H])c(F)c([H])c6F)c([H])c5[H])c(C(=O)N([H])[H])c4N([H])[H])C3([H])[H])c([H])c([H])c2C1([H])[H]

>  <smiles>  (60) 
[H]c1c([H])c([H])c2c(c1[H])C([H])([H])C([H])([H])C([H])([H])C2([H])N([H])C(=O)C1([H])N(C(=O)C([H])(N([H])C(=O)C([H])(N([H])C([H])([H])[H])C([H])([H])[H])C(C([H])([H])[H])(C([H])([H])[H])C([H])([H])[H])C([H])([H])c2c([H])c(OC([H])([H])C([H])(C([H])([H])[H])[N+]([H])([H])C([H])([H])C([H])([H])N3C([H])([H])C([H])([H])C3([H])C([H])([H])N([H])C(=O)N3C([H])([H])C([H])([H])C([H])([H])C([H])(n4nc(-c5c([H])c([H])c(Oc6c([H])c([H])c(F)c([H])c6F)c([H])c5[H])c(C(=O)N([H])[H])c4N([H])[H])C3([H])[H])c([H])c([H])c2C1([H])[H]

$$$$
61:0:0
     RDKit          3D

 96104  0  0  1  0  0  0  0  0999 V2000
  -26.3820  -21.1370   19.6630 C   0  0  0  0  0  2  0  0  0  0  0  0
  -25.1770  -23.2830   20.0090 C   0  0  0  0  0  1  0  0  0  0  0  0
  -26.4910  -22.5880   19.9510 N   0  0  2  0  0  4  0  0  0  0  0  0
  -26.9190  -22.6910   20.8640 H   0  0  0  0  0  0  0  0  0  0  0  0
  -27.4660  -23.2750   19.0690 C   0  0  0  0  0  2  0  0  0  0  0  0
  -28.1330  -24.3650   19.9060 C   0  0  0  0  0  0  0  0  0  0  0  0
  -28.2850  -24.2180   21.1250 O   0  0  0  0  0  0  0  0  0  0  0  0
  -28.5880  -25.6340   19.1770 C   0  0  0  0  0  2  0  0  0  0  0  0
  -28.4520  -26.7840   20.0240 O   0  0  0  0  0  0  0  0  0  0  0  0
  -24.6140  -31.8680   23.2120 C   0  0  0  0  0  0  0  0  0  0  0  0
  -27.2470  -27.4620   20.0530 C   0  0  0  0  0  0  0  0  0  0  0  0
  -23.4000  -30.4940   21.5510 C   0  0  0  0  0  3  0  0  0  0  0  0
  -24.8470  -28.9640   20.1170 C   0  0  0  0  0  0  0  0  0  0  0  0
  -25.9290  -30.8340   21.3700 C   0  0  0  0  0  2  0  0  0  0  0  0
  -26.0050  -29.4680   20.7220 C   0  0  0  0  0  0  0  0  0  0  0  0
  -27.2000  -28.7150   20.7040 C   0  0  0  0  0  3  0  0  0  0  0  0
  -26.0650  -26.9760   19.4410 C   0  0  0  0  0  3  0  0  0  0  0  0
  -24.8690  -27.7120   19.4840 C   0  0  0  0  0  3  0  0  0  0  0  0
  -23.6110  -29.8280   20.1650 C   0  0  0  0  0  2  0  0  0  0  0  0
  -24.6650  -31.0790   22.1020 N   0  0  0  0  0  0  0  0  0  0  0  0
  -23.5330  -32.1430   23.7510 O   0  0  0  0  0  0  0  0  0  0  0  0
  -22.7380  -29.4660   22.4980 C   0  0  0  0  0  0  0  0  0  0  0  0
  -21.4100  -29.3000   22.3670 N   0  0  0  0  0  0  0  0  0  0  0  0
  -23.4140  -28.8250   23.3060 O   0  0  0  0  0  0  0  0  0  0  0  0
  -20.9300  -29.8670   21.6840 H   0  0  0  0  0  0  0  0  0  0  0  0
  -18.0260  -28.1430   22.8390 C   0  0  0  0  0  0  0  0  0  0  0  0
  -20.5830  -28.3680   23.1340 C   0  0  0  0  0  3  0  0  0  0  0  0
  -20.6660  -26.9340   22.5580 C   0  0  0  0  0  2  0  0  0  0  0  0
  -19.5810  -26.6420   21.5190 C   0  0  0  0  0  2  0  0  0  0  0  0
  -18.1880  -26.8050   22.1320 C   0  0  0  0  0  2  0  0  0  0  0  0
  -19.1490  -28.8850   23.2910 C   0  0  0  0  0  0  0  0  0  0  0  0
  -18.9410  -30.1410   23.9010 C   0  0  0  0  0  3  0  0  0  0  0  0
  -17.6420  -30.6540   24.0680 C   0  0  0  0  0  3  0  0  0  0  0  0
  -16.5330  -29.9080   23.6320 C   0  0  0  0  0  3  0  0  0  0  0  0
  -16.7270  -28.6590   23.0200 C   0  0  0  0  0  3  0  0  0  0  0  0
  -25.9030  -32.4820   23.8410 C   0  0  0  0  0  3  0  0  0  0  0  0
  -25.5890  -33.8630   24.2350 N   0  0  0  0  0  0  0  0  0  0  0  0
  -25.9020  -34.9480   23.5140 C   0  0  0  0  0  0  0  0  0  0  0  0
  -26.5580  -34.8930   22.4700 O   0  0  0  0  0  0  0  0  0  0  0  0
  -25.0090  -33.9790   25.0520 H   0  0  0  0  0  0  0  0  0  0  0  0
  -24.1480  -36.7330   23.2640 C   0  0  0  0  0  1  0  0  0  0  0  0
  -25.4100  -36.3120   24.0340 C   0  0  0  0  0  3  0  0  0  0  0  0
  -27.5570  -37.1810   24.8460 C   0  0  0  0  0  1  0  0  0  0  0  0
  -26.4290  -37.3800   23.9390 N   0  0  0  0  0  0  0  0  0  0  0  0
  -26.0170  -38.2880   24.1400 H   0  0  0  0  0  0  0  0  0  0  0  0
  -26.4460  -31.6600   25.0740 C   0  0  1  0  0  0  0  0  0  0  0  0
  -25.3750  -31.3710   26.1510 C   0  0  0  0  0  1  0  0  0  0  0  0
  -27.0290  -30.3050   24.6100 C   0  0  0  0  0  1  0  0  0  0  0  0
  -27.6030  -32.4330   25.7510 C   0  0  0  0  0  1  0  0  0  0  0  0
  -25.9470  -19.5090   21.6050 C   0  0  0  0  0  3  0  0  0  0  0  0
  -25.5350  -20.4100   20.6940 C   0  0  0  0  0  3  0  0  0  0  0  0
  -29.6880  -19.4360   22.3100 C   0  0  0  0  0  3  0  0  0  0  0  0
  -28.3950  -19.9380   22.0620 C   0  0  0  0  0  3  0  0  0  0  0  0
  -29.9240  -18.0470   22.3250 C   0  0  0  0  0  3  0  0  0  0  0  0
  -27.5590  -17.6630   21.8850 C   0  0  0  0  0  3  0  0  0  0  0  0
  -27.3180  -19.0480   21.8510 C   0  0  0  0  0  0  0  0  0  0  0  0
  -28.8560  -17.1520   22.0980 C   0  0  0  0  0  0  0  0  0  0  0  0
  -29.0370  -15.6470   22.0960 C   0  0  0  0  0  2  0  0  0  0  0  0
  -30.7270  -14.3860   20.6820 C   0  0  0  0  0  0  0  0  0  0  0  0
  -30.4310  -12.3060   19.3770 C   0  0  0  0  0  2  0  0  0  0  0  0
  -29.4800  -12.5230   18.1810 C   0  0  0  0  0  2  0  0  0  0  0  0
  -28.0050  -12.3590   18.6030 C   0  0  0  0  0  2  0  0  0  0  0  0
  -27.6670  -13.1680   19.8800 C   0  0  0  0  0  3  0  0  0  0  0  0
  -28.7130  -12.8370   20.9700 C   0  0  0  0  0  2  0  0  0  0  0  0
  -30.0380  -13.2280   20.4570 N   0  0  0  0  0  0  0  0  0  0  0  0
  -31.7670  -14.6610   20.0760 O   0  0  0  0  0  0  0  0  0  0  0  0
  -30.3690  -15.1660   21.7160 N   0  0  0  0  0  0  0  0  0  0  0  0
  -31.1010  -15.8080   21.9780 H   0  0  0  0  0  0  0  0  0  0  0  0
  -25.2630  -13.8030   20.5610 C   0  0  0  0  0  0  0  0  0  0  0  0
  -24.1860  -13.0370   20.9170 C   0  0  0  0  0  0  0  0  0  0  0  0
  -24.6380  -11.6840   20.8740 C   0  0  0  0  0  0  0  0  0  0  0  0
  -26.3050  -12.9150   20.3370 N   0  0  0  0  0  0  0  0  0  0  0  0
  -25.9300  -11.6350   20.5780 N   0  0  0  0  0  0  0  0  0  0  0  0
  -23.9030  -10.4270   21.0410 C   0  0  0  0  0  0  0  0  0  0  0  0
  -24.3600   -9.4210   21.9190 C   0  0  0  0  0  3  0  0  0  0  0  0
  -23.6300   -8.2230   22.0750 C   0  0  0  0  0  3  0  0  0  0  0  0
  -22.4280   -8.0270   21.3530 C   0  0  0  0  0  0  0  0  0  0  0  0
  -21.9910   -9.0240   20.4630 C   0  0  0  0  0  3  0  0  0  0  0  0
  -22.7210  -10.2140   20.3050 C   0  0  0  0  0  3  0  0  0  0  0  0
  -21.6640   -6.8870   21.4240 O   0  0  0  0  0  0  0  0  0  0  0  0
  -21.6850   -6.0730   22.5290 C   0  0  0  0  0  0  0  0  0  0  0  0
  -21.3990   -6.5620   23.8220 C   0  0  0  0  0  3  0  0  0  0  0  0
  -21.3670   -5.6780   24.9180 C   0  0  0  0  0  3  0  0  0  0  0  0
  -21.6050   -4.3050   24.7230 C   0  0  0  0  0  0  0  0  0  0  0  0
  -21.8820   -3.8140   23.4350 C   0  0  0  0  0  3  0  0  0  0  0  0
  -21.9190   -4.6960   22.3410 C   0  0  0  0  0  0  0  0  0  0  0  0
  -22.1660   -4.2140   21.0990 F   0  0  0  0  0  0  0  0  0  0  0  0
  -21.5650   -3.4540   25.7750 F   0  0  0  0  0  0  0  0  0  0  0  0
  -22.7900  -13.5230   21.1810 C   0  0  0  0  0  0  0  0  0  0  0  0
  -22.0510  -12.8260   22.0370 N   0  0  0  0  0  0  0  0  0  0  0  0
  -22.3630  -14.5540   20.6650 O   0  0  0  0  0  0  0  0  0  0  0  0
  -22.4140  -11.9940   22.4790 H   0  0  0  0  0  0  0  0  0  0  0  0
  -21.1140  -13.1290   22.2570 H   0  0  0  0  0  0  0  0  0  0  0  0
  -25.4270  -15.1730   20.3940 N   0  0  0  0  0  0  0  0  0  0  0  0
  -24.6370  -15.8030   20.4860 H   0  0  0  0  0  0  0  0  0  0  0  0
  -26.2590  -15.6230   20.0370 H   0  0  0  0  0  0  0  0  0  0  0  0
  1  3  1  0
  1 51  1  0
  3  2  1  0
  3  4  1  1
  5  6  1  0
  5  3  1  0
  6  7  2  0
  8  6  1  0
  8  9  1  0
  9 11  1  0
 10 21  2  0
 11 16  1  0
 12 20  1  0
 12 22  1  0
 13 19  1  0
 13 15  1  0
 14 20  1  0
 15 14  1  0
 16 15  2  0
 17 18  1  0
 17 11  2  0
 18 13  2  0
 19 12  1  0
 20 10  1  0
 22 24  2  0
 23 22  1  0
 25 23  1  0
 26 35  2  0
 26 31  1  0
 27 23  1  0
 27 31  1  0
 28 27  1  0
 29 30  1  0
 29 28  1  0
 30 26  1  0
 31 32  2  0
 32 33  1  0
 34 33  2  0
 35 34  1  0
 36 10  1  0
 36 37  1  0
 36 46  1  0
 37 40  1  0
 38 42  1  0
 38 37  1  0
 39 38  2  0
 42 41  1  0
 44 42  1  0
 44 45  1  0
 44 43  1  0
 46 49  1  1
 46 47  1  0
 48 46  1  0
 50 56  1  0
 51 50  2  0
 52 54  1  0
 53 52  2  0
 55 57  1  0
 56 55  2  0
 56 53  1  0
 57 54  2  0
 58 57  1  0
 59 67  1  0
 60 65  1  0
 61 62  1  0
 61 60  1  0
 63 62  1  0
 63 72  1  0
 63 64  1  0
 65 59  1  0
 65 64  1  0
 66 59  2  0
 67 68  1  0
 67 58  1  0
 69 70  2  0
 70 89  1  0
 71 70  1  0
 71 74  1  0
 72 69  1  0
 72 73  1  0
 73 71  2  0
 74 75  1  0
 75 76  2  0
 77 80  1  0
 77 76  1  0
 78 77  2  0
 79 78  1  0
 79 74  2  0
 80 81  1  0
 81 82  1  0
 82 83  2  0
 84 83  1  0
 84 88  1  0
 85 84  2  0
 86 81  2  0
 86 85  1  0
 87 86  1  0
 89 90  1  0
 90 93  1  0
 90 92  1  0
 91 89  2  0
 94 95  1  0
 94 69  1  0
 96 94  1  0
M  ISO  4   8 101   9 101  59 100  67 100
M  END
>  <TORSDO>  (61) 
F 23

>  <SCORE>  (61) 
11.813

>  <name>  (61) 
61

>  <ligand_id>  (61) 
61

>  <original_smiles>  (61) 
[H]C(=C([H])C([H])([H])[N+]([H])(C([H])([H])[H])C([H])([H])C(=O)C([H])([H])Oc1c([H])c([H])c2c(c1[H])C([H])([H])N(C(=O)C([H])(N([H])C(=O)C([H])(N([H])C([H])([H])[H])C([H])([H])[H])C(C([H])([H])[H])(C([H])([H])[H])C([H])([H])[H])C([H])(C(=O)N([H])C1([H])c3c([H])c([H])c([H])c([H])c3C([H])([H])C([H])([H])C1([H])[H])C2([H])[H])c1c([H])c([H])c([H])c(C([H])([H])N([H])C(=O)N2C([H])([H])C([H])([H])C([H])([H])C([H])(n3nc(-c4c([H])c([H])c(Oc5c([H])c([H])c(F)c([H])c5F)c([H])c4[H])c(C(=O)N([H])[H])c3N([H])[H])C2([H])[H])c1[H]

>  <smiles>  (61) 
[H]C(=C([H])C([H])([H])[N+]([H])(C([H])([H])[H])C([H])([H])C(=O)C([H])([H])Oc1c([H])c([H])c2c(c1[H])C([H])([H])N(C(=O)C([H])(N([H])C(=O)C([H])(N([H])C([H])([H])[H])C([H])([H])[H])C(C([H])([H])[H])(C([H])([H])[H])C([H])([H])[H])C([H])(C(=O)N([H])C1([H])c3c([H])c([H])c([H])c([H])c3C([H])([H])C([H])([H])C1([H])[H])C2([H])[H])c1c([H])c([H])c([H])c(C([H])([H])N([H])C(=O)N2C([H])([H])C([H])([H])C([H])([H])C([H])(n3nc(-c4c([H])c([H])c(Oc5c([H])c([H])c(F)c([H])c5F)c([H])c4[H])c(C(=O)N([H])[H])c3N([H])[H])C2([H])[H])c1[H]

$$$$
62:0:0
     RDKit          3D

 97106  0  0  1  0  0  0  0  0999 V2000
  -29.0390  -21.2760   18.0410 C   0  0  0  0  0  2  0  0  0  0  0  0
  -31.5750  -21.3070   18.3730 C   0  0  0  0  0  2  0  0  0  0  0  0
  -29.1800  -22.6450   17.3600 C   0  0  0  0  0  2  0  0  0  0  0  0
  -31.5810  -22.7090   17.7200 C   0  0  0  0  0  2  0  0  0  0  0  0
  -30.3390  -20.4260   18.0090 C   0  0  0  0  0  3  0  0  0  0  0  0
  -30.2900  -23.3840   17.9940 N   0  0  1  0  0  4  0  0  0  0  0  0
  -30.1280  -23.3110   18.9910 H   0  0  0  0  0  0  0  0  0  0  0  0
  -31.2430  -18.7610   19.7700 C   0  0  0  0  0  3  0  0  0  0  0  0
  -31.1580  -17.5630   20.5080 C   0  0  0  0  0  3  0  0  0  0  0  0
  -28.9810  -17.1240   19.5260 C   0  0  0  0  0  3  0  0  0  0  0  0
  -30.2130  -19.1500   18.8730 C   0  0  0  0  0  0  0  0  0  0  0  0
  -30.0330  -16.7260   20.3660 C   0  0  0  0  0  0  0  0  0  0  0  0
  -29.0790  -18.3000   18.7650 C   0  0  0  0  0  0  0  0  0  0  0  0
  -28.0740  -18.5700   17.9000 F   0  0  0  0  0  0  0  0  0  0  0  0
  -30.6810  -14.4300   20.5190 C   0  0  0  0  0  0  0  0  0  0  0  0
  -30.3660  -12.3000   19.3460 C   0  0  0  0  0  2  0  0  0  0  0  0
  -29.4230  -12.5170   18.1430 C   0  0  0  0  0  2  0  0  0  0  0  0
  -27.9490  -12.3860   18.5680 C   0  0  0  0  0  2  0  0  0  0  0  0
  -27.6060  -13.2270   19.8260 C   0  0  0  0  0  3  0  0  0  0  0  0
  -28.6530  -12.9940   20.9400 C   0  0  0  0  0  2  0  0  0  0  0  0
  -29.9900  -13.2690   20.3850 N   0  0  0  0  0  0  0  0  0  0  0  0
  -31.8240  -14.5900   20.0780 O   0  0  0  0  0  0  0  0  0  0  0  0
  -29.9630  -15.4580   20.9940 N   0  0  0  0  0  0  0  0  0  0  0  0
  -29.0470  -15.1860   21.3190 H   0  0  0  0  0  0  0  0  0  0  0  0
  -25.2080  -13.8480   20.5290 C   0  0  0  0  0  0  0  0  0  0  0  0
  -24.1380  -13.0800   20.9000 C   0  0  0  0  0  0  0  0  0  0  0  0
  -24.5960  -11.7260   20.8690 C   0  0  0  0  0  0  0  0  0  0  0  0
  -26.2510  -12.9610   20.3010 N   0  0  0  0  0  0  0  0  0  0  0  0
  -25.8850  -11.6820   20.5630 N   0  0  0  0  0  0  0  0  0  0  0  0
  -23.8680  -10.4660   21.0570 C   0  0  0  0  0  0  0  0  0  0  0  0
  -24.2990   -9.4950   21.9870 C   0  0  0  0  0  3  0  0  0  0  0  0
  -23.5690   -8.2990   22.1640 C   0  0  0  0  0  3  0  0  0  0  0  0
  -22.3940   -8.0660   21.4090 C   0  0  0  0  0  0  0  0  0  0  0  0
  -21.9840   -9.0270   20.4680 C   0  0  0  0  0  3  0  0  0  0  0  0
  -22.7130  -10.2120   20.2890 C   0  0  0  0  0  3  0  0  0  0  0  0
  -21.6380   -6.9230   21.4930 O   0  0  0  0  0  0  0  0  0  0  0  0
  -21.5900   -6.1780   22.6440 C   0  0  0  0  0  0  0  0  0  0  0  0
  -21.1610   -6.7280   23.8700 C   0  0  0  0  0  3  0  0  0  0  0  0
  -21.0540   -5.9060   25.0120 C   0  0  0  0  0  3  0  0  0  0  0  0
  -21.3730   -4.5350   24.9230 C   0  0  0  0  0  0  0  0  0  0  0  0
  -21.7980   -3.9870   23.7000 C   0  0  0  0  0  3  0  0  0  0  0  0
  -21.9020   -4.8060   22.5630 C   0  0  0  0  0  0  0  0  0  0  0  0
  -22.2880   -4.2690   21.3810 F   0  0  0  0  0  0  0  0  0  0  0  0
  -21.2670   -3.7410   26.0150 F   0  0  0  0  0  0  0  0  0  0  0  0
  -22.7430  -13.5640   21.1750 C   0  0  0  0  0  0  0  0  0  0  0  0
  -22.0110  -12.8590   22.0330 N   0  0  0  0  0  0  0  0  0  0  0  0
  -22.3110  -14.5970   20.6670 O   0  0  0  0  0  0  0  0  0  0  0  0
  -22.3730  -12.0200   22.4600 H   0  0  0  0  0  0  0  0  0  0  0  0
  -21.0780  -13.1620   22.2700 H   0  0  0  0  0  0  0  0  0  0  0  0
  -25.3750  -15.2170   20.3530 N   0  0  0  0  0  0  0  0  0  0  0  0
  -24.5910  -15.8580   20.4180 H   0  0  0  0  0  0  0  0  0  0  0  0
  -26.2180  -15.6610   20.0160 H   0  0  0  0  0  0  0  0  0  0  0  0
  -30.2470  -24.8620   17.8250 C   0  0  0  0  0  2  0  0  0  0  0  0
  -30.2750  -25.5390   19.2240 C   0  0  0  0  0  3  0  0  0  0  0  0
  -29.8680  -24.6490   20.1410 F   0  0  0  0  0  0  0  0  0  0  0  0
  -29.4870  -26.8730   19.4120 C   0  0  0  0  0  2  0  0  0  0  0  0
  -28.3340  -26.6170   20.2090 O   0  0  0  0  0  0  0  0  0  0  0  0
  -24.5930  -31.8990   23.2440 C   0  0  0  0  0  0  0  0  0  0  0  0
  -27.2470  -27.4580   20.1500 C   0  0  0  0  0  0  0  0  0  0  0  0
  -23.3860  -30.4870   21.6120 C   0  0  0  0  0  3  0  0  0  0  0  0
  -24.8440  -28.9430   20.1940 C   0  0  0  0  0  0  0  0  0  0  0  0
  -25.9140  -30.8490   21.4080 C   0  0  0  0  0  2  0  0  0  0  0  0
  -26.0080  -29.4790   20.7660 C   0  0  0  0  0  0  0  0  0  0  0  0
  -27.2190  -28.7420   20.7410 C   0  0  0  0  0  3  0  0  0  0  0  0
  -26.0650  -26.9300   19.5960 C   0  0  0  0  0  3  0  0  0  0  0  0
  -24.8680  -27.6680   19.6050 C   0  0  0  0  0  3  0  0  0  0  0  0
  -23.5920  -29.7890   20.2410 C   0  0  0  0  0  2  0  0  0  0  0  0
  -24.6490  -31.0930   22.1460 N   0  0  0  0  0  0  0  0  0  0  0  0
  -23.5090  -32.1760   23.7820 O   0  0  0  0  0  0  0  0  0  0  0  0
  -22.7320  -29.4740   22.5810 C   0  0  0  0  0  0  0  0  0  0  0  0
  -21.4070  -29.2940   22.4520 N   0  0  0  0  0  0  0  0  0  0  0  0
  -23.4150  -28.8550   23.4000 O   0  0  0  0  0  0  0  0  0  0  0  0
  -20.9250  -29.8360   21.7480 H   0  0  0  0  0  0  0  0  0  0  0  0
  -18.0260  -28.1180   22.9590 C   0  0  0  0  0  0  0  0  0  0  0  0
  -20.5860  -28.3630   23.2250 C   0  0  0  0  0  3  0  0  0  0  0  0
  -20.6810  -26.9310   22.6510 C   0  0  0  0  0  2  0  0  0  0  0  0
  -19.5770  -26.6130   21.6390 C   0  0  0  0  0  2  0  0  0  0  0  0
  -18.1950  -26.7680   22.2810 C   0  0  0  0  0  2  0  0  0  0  0  0
  -19.1510  -28.8740   23.3850 C   0  0  0  0  0  0  0  0  0  0  0  0
  -18.9380  -30.1380   23.9750 C   0  0  0  0  0  3  0  0  0  0  0  0
  -17.6370  -30.6480   24.1420 C   0  0  0  0  0  3  0  0  0  0  0  0
  -16.5260  -29.8880   23.7340 C   0  0  0  0  0  3  0  0  0  0  0  0
  -16.7230  -28.6250   23.1470 C   0  0  0  0  0  3  0  0  0  0  0  0
  -25.8760  -32.5310   23.8620 C   0  0  0  0  0  3  0  0  0  0  0  0
  -26.3870  -31.7700   25.1460 C   0  0  1  0  0  0  0  0  0  0  0  0
  -25.2900  -31.5520   26.2140 C   0  0  0  0  0  1  0  0  0  0  0  0
  -26.9600  -30.3830   24.7680 C   0  0  0  0  0  1  0  0  0  0  0  0
  -27.5450  -32.5630   25.7990 C   0  0  0  0  0  1  0  0  0  0  0  0
  -25.5720  -33.9330   24.1770 N   0  0  0  0  0  0  0  0  0  0  0  0
  -25.9140  -34.9780   23.4120 C   0  0  0  0  0  0  0  0  0  0  0  0
  -26.5930  -34.8660   22.3870 O   0  0  0  0  0  0  0  0  0  0  0  0
  -24.9700  -34.0960   24.9710 H   0  0  0  0  0  0  0  0  0  0  0  0
  -24.1920  -36.7680   23.0150 C   0  0  0  0  0  1  0  0  0  0  0  0
  -25.4180  -36.3680   23.8520 C   0  0  0  0  0  3  0  0  0  0  0  0
  -27.5670  -37.2210   24.6830 C   0  0  0  0  0  1  0  0  0  0  0  0
  -26.4440  -37.4320   23.7750 N   0  0  0  0  0  0  0  0  0  0  0  0
  -26.0310  -38.3340   23.9980 H   0  0  0  0  0  0  0  0  0  0  0  0
  3  6  1  0
  3  1  1  0
  4  6  1  0
  4  2  1  0
  5  1  1  0
  5  2  1  0
  5 11  1  0
  6  7  1  1
  8  9  1  0
 10 12  1  0
 11  8  2  0
 12  9  2  0
 12 23  1  0
 13 11  1  0
 13 10  2  0
 14 13  1  0
 15 23  1  0
 16 21  1  0
 17 18  1  0
 17 16  1  0
 19 18  1  0
 19 28  1  0
 19 20  1  0
 21 15  1  0
 21 20  1  0
 22 15  2  0
 23 24  1  0
 25 26  2  0
 26 45  1  0
 27 26  1  0
 27 30  1  0
 28 25  1  0
 28 29  1  0
 29 27  2  0
 30 31  1  0
 31 32  2  0
 33 36  1  0
 33 32  1  0
 34 33  2  0
 35 34  1  0
 35 30  2  0
 36 37  1  0
 37 38  1  0
 38 39  2  0
 40 39  1  0
 40 44  1  0
 41 40  2  0
 42 37  2  0
 42 41  1  0
 43 42  1  0
 45 46  1  0
 46 49  1  0
 46 48  1  0
 47 45  2  0
 50 51  1  0
 50 25  1  0
 52 50  1  0
 53  6  1  0
 53 54  1  0
 54 56  1  0
 54 55  1  0
 56 57  1  0
 58 69  2  0
 59 57  1  0
 59 64  1  0
 60 68  1  0
 60 70  1  0
 61 67  1  0
 61 63  1  0
 62 68  1  0
 63 62  1  0
 64 63  2  0
 65 66  1  0
 65 59  2  0
 66 61  2  0
 67 60  1  0
 68 58  1  0
 70 72  2  0
 71 70  1  0
 73 71  1  0
 74 83  2  0
 74 79  1  0
 75 71  1  0
 75 79  1  0
 76 75  1  0
 77 78  1  0
 77 76  1  0
 78 74  1  0
 79 80  2  0
 80 81  1  0
 82 81  2  0
 83 82  1  0
 84 58  1  0
 84 89  1  0
 84 85  1  0
 85 88  1  1
 85 86  1  0
 87 85  1  0
 89 92  1  0
 90 94  1  0
 90 89  1  0
 91 90  2  0
 94 93  1  0
 96 94  1  0
 96 97  1  0
 96 95  1  0
M  ISO  4  15 100  23 100  56 101  57 101
M  END
>  <TORSDO>  (62) 
F 20

>  <SCORE>  (62) 
-14.078

>  <name>  (62) 
62

>  <ligand_id>  (62) 
62

>  <original_smiles>  (62) 
[H]c1c([H])c([H])c2c(c1[H])C([H])([H])C([H])([H])C([H])([H])C2([H])N([H])C(=O)C1([H])N(C(=O)C([H])(N([H])C(=O)C([H])(N([H])C([H])([H])[H])C([H])([H])[H])C(C([H])([H])[H])(C([H])([H])[H])C([H])([H])[H])C([H])([H])c2c([H])c(OC([H])([H])C([H])(F)C([H])([H])[N+]3([H])C([H])([H])C([H])([H])C([H])(c4c([H])c([H])c(N([H])C(=O)N5C([H])([H])C([H])([H])C([H])([H])C([H])(n6nc(-c7c([H])c([H])c(Oc8c([H])c([H])c(F)c([H])c8F)c([H])c7[H])c(C(=O)N([H])[H])c6N([H])[H])C5([H])[H])c([H])c4F)C([H])([H])C3([H])[H])c([H])c([H])c2C1([H])[H]

>  <smiles>  (62) 
[H]c1c([H])c([H])c2c(c1[H])C([H])([H])C([H])([H])C([H])([H])C2([H])N([H])C(=O)C1([H])N(C(=O)C([H])(N([H])C(=O)C([H])(N([H])C([H])([H])[H])C([H])([H])[H])C(C([H])([H])[H])(C([H])([H])[H])C([H])([H])[H])C([H])([H])c2c([H])c(OC([H])([H])C([H])(F)C([H])([H])[N+]3([H])C([H])([H])C([H])([H])C([H])(c4c([H])c([H])c(N([H])C(=O)N5C([H])([H])C([H])([H])C([H])([H])C([H])(n6nc(-c7c([H])c([H])c(Oc8c([H])c([H])c(F)c([H])c8F)c([H])c7[H])c(C(=O)N([H])[H])c6N([H])[H])C5([H])[H])c([H])c4F)C([H])([H])C3([H])[H])c([H])c([H])c2C1([H])[H]

$$$$
63:0:0
     RDKit          3D

 93101  0  0  1  0  0  0  0  0999 V2000
  -30.1120  -22.1100   20.7420 C   0  0  0  0  0  0  0  0  0  0  0  0
  -29.2050  -23.0960   20.6380 N   0  0  0  0  0  0  0  0  0  0  0  0
  -31.3260  -22.3240   20.6920 O   0  0  0  0  0  0  0  0  0  0  0  0
  -28.2300  -22.8330   20.6860 H   0  0  0  0  0  0  0  0  0  0  0  0
  -29.5950  -20.6800   20.9560 C   0  0  0  0  0  2  0  0  0  0  0  0
  -30.6790  -19.6730   20.8110 N   0  0  0  0  0  4  0  0  0  0  0  0
  -30.9350  -19.6150   19.8390 H   0  0  0  0  0  0  0  0  0  0  0  0
  -31.4740  -20.0770   21.2820 H   0  0  0  0  0  0  0  0  0  0  0  0
  -30.6260  -14.4720   20.1660 C   0  0  0  0  0  0  0  0  0  0  0  0
  -30.1830  -12.3890   18.9060 C   0  0  0  0  0  2  0  0  0  0  0  0
  -29.1820  -12.6310   17.7600 C   0  0  0  0  0  2  0  0  0  0  0  0
  -27.7380  -12.4590   18.2620 C   0  0  0  0  0  2  0  0  0  0  0  0
  -27.4680  -13.2600   19.5610 C   0  0  0  0  0  3  0  0  0  0  0  0
  -28.5810  -13.0130   20.6100 C   0  0  0  0  0  2  0  0  0  0  0  0
  -29.8790  -13.3390   19.9950 N   0  0  0  0  0  0  0  0  0  0  0  0
  -31.6560  -14.6660   19.5130 O   0  0  0  0  0  0  0  0  0  0  0  0
  -31.6760  -17.4290   21.3940 C   0  0  0  0  0  2  0  0  0  0  0  0
  -29.2860  -17.5540   20.6400 C   0  0  0  0  0  2  0  0  0  0  0  0
  -31.3800  -16.0060   21.9400 C   0  0  0  0  0  2  0  0  0  0  0  0
  -29.0770  -16.1370   21.2270 C   0  0  0  0  0  2  0  0  0  0  0  0
  -30.4110  -18.3190   21.3780 C   0  0  0  0  0  3  0  0  0  0  0  0
  -30.3110  -15.3290   21.1780 N   0  0  0  0  0  0  0  0  0  0  0  0
  -25.1060  -13.8560   20.3910 C   0  0  0  0  0  0  0  0  0  0  0  0
  -24.0580  -13.0770   20.8010 C   0  0  0  0  0  0  0  0  0  0  0  0
  -24.5200  -11.7270   20.7310 C   0  0  0  0  0  0  0  0  0  0  0  0
  -26.1400  -12.9790   20.1010 N   0  0  0  0  0  0  0  0  0  0  0  0
  -25.7940  -11.6940   20.3620 N   0  0  0  0  0  0  0  0  0  0  0  0
  -23.8080  -10.4600   20.9370 C   0  0  0  0  0  0  0  0  0  0  0  0
  -24.2590   -9.5030   21.8710 C   0  0  0  0  0  3  0  0  0  0  0  0
  -23.5460   -8.2990   22.0650 C   0  0  0  0  0  3  0  0  0  0  0  0
  -22.3680   -8.0450   21.3220 C   0  0  0  0  0  0  0  0  0  0  0  0
  -21.9360   -8.9920   20.3770 C   0  0  0  0  0  3  0  0  0  0  0  0
  -22.6490  -10.1870   20.1820 C   0  0  0  0  0  3  0  0  0  0  0  0
  -21.6260   -6.8940   21.4250 O   0  0  0  0  0  0  0  0  0  0  0  0
  -21.5690   -6.1760   22.5920 C   0  0  0  0  0  0  0  0  0  0  0  0
  -21.1300   -6.7550   23.8030 C   0  0  0  0  0  3  0  0  0  0  0  0
  -21.0220   -5.9620   24.9640 C   0  0  0  0  0  3  0  0  0  0  0  0
  -21.3420   -4.5920   24.9140 C   0  0  0  0  0  0  0  0  0  0  0  0
  -21.7750   -4.0130   23.7080 C   0  0  0  0  0  3  0  0  0  0  0  0
  -21.8860   -4.8030   22.5490 C   0  0  0  0  0  0  0  0  0  0  0  0
  -22.2820   -4.2360   21.3850 F   0  0  0  0  0  0  0  0  0  0  0  0
  -21.2310   -3.8290   26.0260 F   0  0  0  0  0  0  0  0  0  0  0  0
  -22.6740  -13.5470   21.1470 C   0  0  0  0  0  0  0  0  0  0  0  0
  -21.9890  -12.8330   22.0340 N   0  0  0  0  0  0  0  0  0  0  0  0
  -22.2100  -14.5790   20.6660 O   0  0  0  0  0  0  0  0  0  0  0  0
  -22.3780  -11.9970   22.4430 H   0  0  0  0  0  0  0  0  0  0  0  0
  -21.0630  -13.1270   22.3080 H   0  0  0  0  0  0  0  0  0  0  0  0
  -25.2590  -15.2290   20.2220 N   0  0  0  0  0  0  0  0  0  0  0  0
  -24.4920  -15.8780   20.3680 H   0  0  0  0  0  0  0  0  0  0  0  0
  -26.0840  -15.6720   19.8400 H   0  0  0  0  0  0  0  0  0  0  0  0
  -29.4900  -24.5360   20.5390 C   0  0  0  0  0  2  0  0  0  0  0  0
  -28.2800  -25.3150   19.9720 C   0  0  0  0  0  2  0  0  0  0  0  0
  -28.3860  -26.7340   20.1700 O   0  0  0  0  0  0  0  0  0  0  0  0
  -24.5850  -31.9120   23.2470 C   0  0  0  0  0  0  0  0  0  0  0  0
  -27.2100  -27.4640   20.1450 C   0  0  0  0  0  0  0  0  0  0  0  0
  -23.3710  -30.5230   21.6020 C   0  0  0  0  0  3  0  0  0  0  0  0
  -24.8150  -28.9850   20.1670 C   0  0  0  0  0  0  0  0  0  0  0  0
  -25.8990  -30.8680   21.4040 C   0  0  0  0  0  2  0  0  0  0  0  0
  -25.9780  -29.5000   20.7560 C   0  0  0  0  0  0  0  0  0  0  0  0
  -27.1760  -28.7480   20.7400 C   0  0  0  0  0  3  0  0  0  0  0  0
  -26.0260  -26.9710   19.5440 C   0  0  0  0  0  3  0  0  0  0  0  0
  -24.8360  -27.7210   19.5580 C   0  0  0  0  0  3  0  0  0  0  0  0
  -23.5740  -29.8470   20.2190 C   0  0  0  0  0  2  0  0  0  0  0  0
  -24.6360  -31.1160   22.1420 N   0  0  0  0  0  0  0  0  0  0  0  0
  -23.5070  -32.1870   23.7890 O   0  0  0  0  0  0  0  0  0  0  0  0
  -22.7150  -29.5010   22.5590 C   0  0  0  0  0  0  0  0  0  0  0  0
  -21.3890  -29.3300   22.4370 N   0  0  0  0  0  0  0  0  0  0  0  0
  -23.3980  -28.8650   23.3660 O   0  0  0  0  0  0  0  0  0  0  0  0
  -20.8990  -29.8960   21.7580 H   0  0  0  0  0  0  0  0  0  0  0  0
  -18.0050  -28.1680   22.9480 C   0  0  0  0  0  0  0  0  0  0  0  0
  -20.5680  -28.3960   23.2050 C   0  0  0  0  0  3  0  0  0  0  0  0
  -20.6520  -26.9680   22.6180 C   0  0  0  0  0  2  0  0  0  0  0  0
  -19.5400  -26.6650   21.6070 C   0  0  0  0  0  2  0  0  0  0  0  0
  -18.1630  -26.8230   22.2610 C   0  0  0  0  0  2  0  0  0  0  0  0
  -19.1350  -28.9140   23.3770 C   0  0  0  0  0  0  0  0  0  0  0  0
  -18.9350  -30.1770   23.9760 C   0  0  0  0  0  3  0  0  0  0  0  0
  -17.6370  -30.6920   24.1530 C   0  0  0  0  0  3  0  0  0  0  0  0
  -16.5220  -29.9430   23.7400 C   0  0  0  0  0  3  0  0  0  0  0  0
  -16.7070  -28.6830   23.1430 C   0  0  0  0  0  3  0  0  0  0  0  0
  -25.8750  -32.5350   23.8680 C   0  0  0  0  0  3  0  0  0  0  0  0
  -26.3930  -31.7530   25.1360 C   0  0  1  0  0  0  0  0  0  0  0  0
  -25.3040  -31.5130   26.2070 C   0  0  0  0  0  1  0  0  0  0  0  0
  -26.9710  -30.3780   24.7300 C   0  0  0  0  0  1  0  0  0  0  0  0
  -27.5490  -32.5390   25.7990 C   0  0  0  0  0  1  0  0  0  0  0  0
  -25.5730  -33.9320   24.2050 N   0  0  0  0  0  0  0  0  0  0  0  0
  -25.8970  -34.9850   23.4410 C   0  0  0  0  0  0  0  0  0  0  0  0
  -26.5520  -34.8810   22.4000 O   0  0  0  0  0  0  0  0  0  0  0  0
  -24.9940  -34.0860   25.0160 H   0  0  0  0  0  0  0  0  0  0  0  0
  -24.1620  -36.7750   23.1180 C   0  0  0  0  0  1  0  0  0  0  0  0
  -25.4190  -36.3720   23.9070 C   0  0  0  0  0  3  0  0  0  0  0  0
  -27.5680  -37.2580   24.6970 C   0  0  0  0  0  1  0  0  0  0  0  0
  -26.4490  -37.4250   23.7730 N   0  0  0  0  0  0  0  0  0  0  0  0
  -26.0460  -38.3450   23.9290 H   0  0  0  0  0  0  0  0  0  0  0  0
  1  5  1  0
  2  4  1  0
  2  1  1  0
  3  1  2  0
  6  5  1  0
  6  8  1  0
  7  6  1  0
  9 22  1  0
 10 15  1  0
 11 12  1  0
 11 10  1  0
 13 12  1  0
 13 26  1  0
 13 14  1  0
 15  9  1  0
 15 14  1  0
 16  9  2  0
 17 19  1  0
 18 20  1  0
 18 21  1  0
 21  6  1  0
 21 17  1  0
 22 20  1  0
 22 19  1  0
 23 24  2  0
 24 43  1  0
 25 24  1  0
 25 28  1  0
 26 27  1  0
 26 23  1  0
 27 25  2  0
 28 29  1  0
 29 30  2  0
 31 34  1  0
 31 30  1  0
 32 31  2  0
 33 32  1  0
 33 28  2  0
 34 35  1  0
 35 36  1  0
 36 37  2  0
 38 37  1  0
 38 42  1  0
 39 38  2  0
 40 35  2  0
 40 39  1  0
 41 40  1  0
 43 44  1  0
 44 47  1  0
 44 46  1  0
 45 43  2  0
 48 49  1  0
 48 23  1  0
 50 48  1  0
 51  2  1  0
 52 53  1  0
 52 51  1  0
 54 65  2  0
 55 53  1  0
 55 60  1  0
 56 64  1  0
 56 66  1  0
 57 63  1  0
 57 59  1  0
 58 64  1  0
 59 58  1  0
 60 59  2  0
 61 62  1  0
 61 55  2  0
 62 57  2  0
 63 56  1  0
 64 54  1  0
 66 68  2  0
 67 66  1  0
 69 67  1  0
 70 79  2  0
 70 75  1  0
 71 67  1  0
 71 75  1  0
 72 71  1  0
 73 74  1  0
 73 72  1  0
 74 70  1  0
 75 76  2  0
 76 77  1  0
 78 77  2  0
 79 78  1  0
 80 54  1  0
 80 85  1  0
 80 81  1  0
 81 84  1  1
 81 82  1  0
 83 81  1  0
 85 88  1  0
 86 90  1  0
 86 85  1  0
 87 86  2  0
 90 89  1  0
 92 90  1  0
 92 93  1  0
 92 91  1  0
M  ISO  4   9 100  22 100  52 101  53 101
M  END
>  <TORSDO>  (63) 
F 20

>  <SCORE>  (63) 
-13.371

>  <name>  (63) 
63

>  <ligand_id>  (63) 
63

>  <original_smiles>  (63) 
[H]c1c([H])c([H])c2c(c1[H])C([H])([H])C([H])([H])C([H])([H])C2([H])N([H])C(=O)C1([H])N(C(=O)C([H])(N([H])C(=O)C([H])(N([H])C([H])([H])[H])C([H])([H])[H])C(C([H])([H])[H])(C([H])([H])[H])C([H])([H])[H])C([H])([H])c2c([H])c(OC([H])([H])C([H])([H])N([H])C(=O)C([H])([H])[N+]([H])([H])C3([H])C([H])([H])C([H])([H])N(C(=O)N4C([H])([H])C([H])([H])C([H])([H])C([H])(n5nc(-c6c([H])c([H])c(Oc7c([H])c([H])c(F)c([H])c7F)c([H])c6[H])c(C(=O)N([H])[H])c5N([H])[H])C4([H])[H])C([H])([H])C3([H])[H])c([H])c([H])c2C1([H])[H]

>  <smiles>  (63) 
[H]c1c([H])c([H])c2c(c1[H])C([H])([H])C([H])([H])C([H])([H])C2([H])N([H])C(=O)C1([H])N(C(=O)C([H])(N([H])C(=O)C([H])(N([H])C([H])([H])[H])C([H])([H])[H])C(C([H])([H])[H])(C([H])([H])[H])C([H])([H])[H])C([H])([H])c2c([H])c(OC([H])([H])C([H])([H])N([H])C(=O)C([H])([H])[N+]([H])([H])C3([H])C([H])([H])C([H])([H])N(C(=O)N4C([H])([H])C([H])([H])C([H])([H])C([H])(n5nc(-c6c([H])c([H])c(Oc7c([H])c([H])c(F)c([H])c7F)c([H])c6[H])c(C(=O)N([H])[H])c5N([H])[H])C4([H])[H])C([H])([H])C3([H])[H])c([H])c([H])c2C1([H])[H]

$$$$
64:0:0
     RDKit          3D

 94102  0  0  1  0  0  0  0  0999 V2000
  -30.9340  -25.5200   18.9930 C   0  0  0  0  0  0  0  0  0  0  0  0
  -31.2810  -25.8280   20.2510 N   0  0  0  0  0  0  0  0  0  0  0  0
  -30.6190  -24.3630   18.7170 O   0  0  0  0  0  0  0  0  0  0  0  0
  -31.2130  -25.0660   20.9150 H   0  0  0  0  0  0  0  0  0  0  0  0
  -31.9900  -26.4660   16.8330 C   0  0  0  0  0  2  0  0  0  0  0  0
  -31.3330  -26.8370   15.4910 C   0  0  0  0  0  2  0  0  0  0  0  0
  -29.5950  -26.4960   17.0830 C   0  0  0  0  0  2  0  0  0  0  0  0
  -30.8870  -26.6080   17.9020 C   0  0  0  0  0  3  0  0  0  0  0  0
  -29.8980  -27.0880   15.7650 N   0  0  2  0  0  4  0  0  0  0  0  0
  -29.8050  -28.0830   15.8970 H   0  0  0  0  0  0  0  0  0  0  0  0
  -28.9480  -26.7210   14.6850 C   0  0  0  0  0  2  0  0  0  0  0  0
  -29.6040  -26.7650   13.2850 C   0  0  0  0  0  2  0  0  0  0  0  0
  -30.8220  -28.5110   11.9480 C   0  0  0  0  0  0  0  0  0  0  0  0
  -32.4520  -30.1800   11.1270 C   0  0  0  0  0  2  0  0  0  0  0  0
  -33.8900  -29.7060   11.4120 C   0  0  0  0  0  2  0  0  0  0  0  0
  -34.3220  -30.0880   12.8420 C   0  0  0  0  0  2  0  0  0  0  0  0
  -33.2710  -29.6890   13.9110 C   0  0  0  0  0  3  0  0  0  0  0  0
  -31.8690  -30.1850   13.4920 C   0  0  0  0  0  2  0  0  0  0  0  0
  -31.5650  -29.6250   12.1600 N   0  0  0  0  0  0  0  0  0  0  0  0
  -30.7650  -27.9150   10.8670 O   0  0  0  0  0  0  0  0  0  0  0  0
  -30.1710  -28.0880   13.0410 N   0  0  0  0  0  0  0  0  0  0  0  0
  -30.2240  -28.7110   13.8340 H   0  0  0  0  0  0  0  0  0  0  0  0
  -34.4280  -29.5830   16.2100 C   0  0  0  0  0  0  0  0  0  0  0  0
  -34.5030  -30.4910   17.2360 C   0  0  0  0  0  0  0  0  0  0  0  0
  -33.7450  -31.6270   16.8160 C   0  0  0  0  0  0  0  0  0  0  0  0
  -33.6400  -30.1800   15.2370 N   0  0  0  0  0  0  0  0  0  0  0  0
  -33.1900  -31.3980   15.6330 N   0  0  0  0  0  0  0  0  0  0  0  0
  -33.5600  -32.9410   17.4470 C   0  0  0  0  0  0  0  0  0  0  0  0
  -32.5550  -33.1590   18.4160 C   0  0  0  0  0  3  0  0  0  0  0  0
  -32.4090  -34.4280   19.0200 C   0  0  0  0  0  3  0  0  0  0  0  0
  -33.2720  -35.4900   18.6600 C   0  0  0  0  0  0  0  0  0  0  0  0
  -34.2550  -35.2710   17.6780 C   0  0  0  0  0  3  0  0  0  0  0  0
  -34.3960  -34.0110   17.0740 C   0  0  0  0  0  3  0  0  0  0  0  0
  -33.1860  -36.7600   19.1760 O   0  0  0  0  0  0  0  0  0  0  0  0
  -33.4740  -37.0250   20.4910 C   0  0  0  0  0  0  0  0  0  0  0  0
  -34.8040  -37.0700   20.9650 C   0  0  0  0  0  3  0  0  0  0  0  0
  -35.0620  -37.4140   22.3080 C   0  0  0  0  0  3  0  0  0  0  0  0
  -33.9940  -37.7250   23.1730 C   0  0  0  0  0  0  0  0  0  0  0  0
  -32.6730  -37.6900   22.7000 C   0  0  0  0  0  3  0  0  0  0  0  0
  -32.4130  -37.3430   21.3620 C   0  0  0  0  0  0  0  0  0  0  0  0
  -31.1370  -37.3300   20.9070 F   0  0  0  0  0  0  0  0  0  0  0  0
  -34.2430  -38.0640   24.4590 F   0  0  0  0  0  0  0  0  0  0  0  0
  -35.3090  -30.3530   18.4940 C   0  0  0  0  0  0  0  0  0  0  0  0
  -34.6440  -30.1870   19.6360 N   0  0  0  0  0  0  0  0  0  0  0  0
  -36.5390  -30.3410   18.4720 O   0  0  0  0  0  0  0  0  0  0  0  0
  -33.6360  -30.1810   19.6660 H   0  0  0  0  0  0  0  0  0  0  0  0
  -35.1590  -30.0700   20.4980 H   0  0  0  0  0  0  0  0  0  0  0  0
  -34.9720  -28.3180   16.0170 N   0  0  0  0  0  0  0  0  0  0  0  0
  -35.5990  -27.8860   16.6880 H   0  0  0  0  0  0  0  0  0  0  0  0
  -34.8860  -27.7850   15.1610 H   0  0  0  0  0  0  0  0  0  0  0  0
  -31.7340  -27.0990   20.8170 C   0  0  0  0  0  2  0  0  0  0  0  0
  -33.2660  -27.1280   20.9590 C   0  0  0  0  0  2  0  0  0  0  0  0
  -33.7530  -27.7770   22.2780 C   0  0  0  0  0  2  0  0  0  0  0  0
  -35.1020  -27.4130   22.5940 O   0  0  0  0  0  0  0  0  0  0  0  0
  -38.1790  -21.4440   20.2880 C   0  0  0  0  0  0  0  0  0  0  0  0
  -35.8930  -26.8470   21.6110 C   0  0  0  0  0  0  0  0  0  0  0  0
  -38.8800  -23.5180   19.1410 C   0  0  0  0  0  3  0  0  0  0  0  0
  -37.4790  -25.5880   19.6280 C   0  0  0  0  0  0  0  0  0  0  0  0
  -36.5530  -23.3330   20.1800 C   0  0  0  0  0  2  0  0  0  0  0  0
  -36.6100  -24.8270   20.4170 C   0  0  0  0  0  0  0  0  0  0  0  0
  -35.8060  -25.4530   21.3950 C   0  0  0  0  0  3  0  0  0  0  0  0
  -36.7820  -27.5980   20.8050 C   0  0  0  0  0  3  0  0  0  0  0  0
  -37.5630  -26.9780   19.8130 C   0  0  0  0  0  3  0  0  0  0  0  0
  -38.2970  -24.8480   18.5960 C   0  0  0  0  0  2  0  0  0  0  0  0
  -37.8750  -22.7190   19.9110 N   0  0  0  0  0  0  0  0  0  0  0  0
  -39.2530  -20.9190   19.9660 O   0  0  0  0  0  0  0  0  0  0  0  0
  -40.1620  -23.8310   19.9470 C   0  0  0  0  0  0  0  0  0  0  0  0
  -41.0590  -24.6340   19.3530 N   0  0  0  0  0  0  0  0  0  0  0  0
  -40.3160  -23.3860   21.0870 O   0  0  0  0  0  0  0  0  0  0  0  0
  -40.8700  -24.9340   18.4060 H   0  0  0  0  0  0  0  0  0  0  0  0
  -43.8610  -26.8350   18.8060 C   0  0  0  0  0  0  0  0  0  0  0  0
  -42.3090  -25.1100   19.9430 C   0  0  0  0  0  3  0  0  0  0  0  0
  -42.0390  -26.2020   21.0020 C   0  0  0  0  0  2  0  0  0  0  0  0
  -42.0920  -27.6210   20.4320 C   0  0  0  0  0  2  0  0  0  0  0  0
  -43.4600  -27.9030   19.8120 C   0  0  0  0  0  2  0  0  0  0  0  0
  -43.3080  -25.5260   18.8580 C   0  0  0  0  0  0  0  0  0  0  0  0
  -43.6850  -24.5820   17.8790 C   0  0  0  0  0  3  0  0  0  0  0  0
  -44.6100  -24.9190   16.8740 C   0  0  0  0  0  3  0  0  0  0  0  0
  -45.1670  -26.2060   16.8400 C   0  0  0  0  0  3  0  0  0  0  0  0
  -44.7870  -27.1640   17.8000 C   0  0  0  0  0  3  0  0  0  0  0  0
  -37.1790  -20.5760   21.1150 C   0  0  0  0  0  3  0  0  0  0  0  0
  -36.8580  -19.3860   20.3120 N   0  0  0  0  0  0  0  0  0  0  0  0
  -35.7950  -19.2770   19.5060 C   0  0  0  0  0  0  0  0  0  0  0  0
  -34.9300  -20.1530   19.4190 O   0  0  0  0  0  0  0  0  0  0  0  0
  -37.5550  -18.6570   20.2850 H   0  0  0  0  0  0  0  0  0  0  0  0
  -36.6190  -18.0630   17.4610 C   0  0  0  0  0  1  0  0  0  0  0  0
  -35.6690  -17.9910   18.6660 C   0  0  0  0  0  3  0  0  0  0  0  0
  -33.7430  -16.4680   18.7010 C   0  0  0  0  0  1  0  0  0  0  0  0
  -34.2910  -17.7250   18.2000 N   0  0  0  0  0  0  0  0  0  0  0  0
  -34.2540  -17.7100   17.1840 H   0  0  0  0  0  0  0  0  0  0  0  0
  -37.7430  -20.1590   22.5280 C   0  0  1  0  0  0  0  0  0  0  0  0
  -38.8670  -19.0970   22.4700 C   0  0  0  0  0  1  0  0  0  0  0  0
  -38.3030  -21.3920   23.2740 C   0  0  0  0  0  1  0  0  0  0  0  0
  -36.6060  -19.5860   23.4060 C   0  0  0  0  0  1  0  0  0  0  0  0
  1  2  1  0
  2 51  1  0
  2  4  1  0
  3  1  2  0
  5  8  1  0
  6  9  1  0
  6  5  1  0
  7  8  1  0
  8  1  1  0
  9 10  1  1
  9  7  1  0
 11  9  1  0
 12 11  1  0
 13 19  1  0
 13 21  1  0
 14 15  1  0
 14 19  1  0
 15 16  1  0
 17 16  1  0
 17 26  1  0
 18 17  1  0
 19 18  1  0
 20 13  2  0
 21 12  1  0
 21 22  1  0
 23 24  2  0
 24 43  1  0
 25 24  1  0
 25 28  1  0
 26 27  1  0
 26 23  1  0
 27 25  2  0
 28 29  1  0
 29 30  2  0
 31 30  1  0
 31 34  1  0
 32 31  2  0
 33 28  2  0
 33 32  1  0
 34 35  1  0
 35 36  2  0
 35 40  1  0
 36 37  1  0
 37 38  2  0
 38 42  1  0
 39 38  1  0
 40 39  2  0
 41 40  1  0
 43 44  1  0
 44 46  1  0
 44 47  1  0
 45 43  2  0
 48 23  1  0
 48 49  1  0
 50 48  1  0
 51 52  1  0
 52 53  1  0
 53 54  1  0
 56 54  1  0
 57 65  1  0
 57 67  1  0
 58 63  2  0
 58 60  1  0
 59 60  1  0
 60 61  2  0
 61 56  1  0
 62 56  2  0
 63 62  1  0
 64 57  1  0
 64 58  1  0
 65 59  1  0
 65 55  1  0
 66 55  2  0
 67 69  2  0
 68 67  1  0
 70 68  1  0
 71 76  1  0
 71 75  1  0
 72 68  1  0
 72 73  1  0
 74 73  1  0
 75 74  1  0
 76 72  1  0
 77 76  2  0
 78 77  1  0
 79 78  2  0
 79 80  1  0
 80 71  2  0
 81 55  1  0
 81 91  1  0
 82 81  1  0
 83 82  1  0
 84 83  2  0
 85 82  1  0
 87 86  1  0
 87 83  1  0
 89 87  1  0
 89 88  1  0
 90 89  1  0
 91 93  1  1
 91 94  1  0
 92 91  1  0
M  ISO  4  13 100  21 100  53 101  54 101
M  END
>  <TORSDO>  (64) 
F 22

>  <SCORE>  (64) 
-3.222

>  <name>  (64) 
64

>  <ligand_id>  (64) 
64

>  <original_smiles>  (64) 
[H]c1c([H])c([H])c2c(c1[H])C([H])([H])C([H])([H])C([H])([H])C2([H])N([H])C(=O)C1([H])N(C(=O)C([H])(N([H])C(=O)C([H])(N([H])C([H])([H])[H])C([H])([H])[H])C(C([H])([H])[H])(C([H])([H])[H])C([H])([H])[H])C([H])([H])c2c([H])c(OC([H])([H])C([H])([H])C([H])([H])N([H])C(=O)C3([H])C([H])([H])C([H])([H])[N+]([H])(C([H])([H])C([H])([H])N([H])C(=O)N4C([H])([H])C([H])([H])C([H])([H])C([H])(n5nc(-c6c([H])c([H])c(Oc7c([H])c([H])c(F)c([H])c7F)c([H])c6[H])c(C(=O)N([H])[H])c5N([H])[H])C4([H])[H])C3([H])[H])c([H])c([H])c2C1([H])[H]

>  <smiles>  (64) 
[H]c1c([H])c([H])c2c(c1[H])C([H])([H])C([H])([H])C([H])([H])C2([H])N([H])C(=O)C1([H])N(C(=O)C([H])(N([H])C(=O)C([H])(N([H])C([H])([H])[H])C([H])([H])[H])C(C([H])([H])[H])(C([H])([H])[H])C([H])([H])[H])C([H])([H])c2c([H])c(OC([H])([H])C([H])([H])C([H])([H])N([H])C(=O)C3([H])C([H])([H])C([H])([H])[N+]([H])(C([H])([H])C([H])([H])N([H])C(=O)N4C([H])([H])C([H])([H])C([H])([H])C([H])(n5nc(-c6c([H])c([H])c(Oc7c([H])c([H])c(F)c([H])c7F)c([H])c6[H])c(C(=O)N([H])[H])c5N([H])[H])C4([H])[H])C3([H])[H])c([H])c([H])c2C1([H])[H]

$$$$
65:0:0
     RDKit          3D

 97106  0  0  1  0  0  0  0  0999 V2000
  -31.6890  -23.4460   18.7680 C   0  0  0  0  0  2  0  0  0  0  0  0
  -29.3690  -22.4900   19.1570 C   0  0  0  0  0  2  0  0  0  0  0  0
  -31.0630  -24.4530   17.7870 C   0  0  0  0  0  2  0  0  0  0  0  0
  -28.8330  -23.5230   18.1450 C   0  0  0  0  0  2  0  0  0  0  0  0
  -30.8580  -22.1520   18.9210 C   0  0  0  0  0  3  0  0  0  0  0  0
  -29.6660  -24.7520   18.1900 N   0  0  2  0  0  4  0  0  0  0  0  0
  -29.6910  -25.0170   19.1650 H   0  0  0  0  0  0  0  0  0  0  0  0
  -31.4470  -21.2830   20.0560 C   0  0  0  0  0  2  0  0  0  0  0  0
  -30.7250  -18.9200   19.6900 C   0  0  0  0  0  0  0  0  0  0  0  0
  -30.6670  -20.0830   20.3470 N   0  0  0  0  0  0  0  0  0  0  0  0
  -31.3870  -18.7730   18.6610 O   0  0  0  0  0  0  0  0  0  0  0  0
  -30.1070  -20.0990   21.1880 H   0  0  0  0  0  0  0  0  0  0  0  0
  -29.8400  -17.6580   21.7830 C   0  0  0  0  0  2  0  0  0  0  0  0
  -29.8980  -17.8160   20.2750 C   0  0  0  0  0  3  0  0  0  0  0  0
  -30.6460  -16.6790   20.9650 C   0  0  0  0  0  3  0  0  0  0  0  0
  -30.7830  -14.3440   20.2450 C   0  0  0  0  0  0  0  0  0  0  0  0
  -30.3680  -12.2570   19.0220 C   0  0  0  0  0  2  0  0  0  0  0  0
  -29.3990  -12.5590   17.8640 C   0  0  0  0  0  2  0  0  0  0  0  0
  -27.9330  -12.4620   18.3340 C   0  0  0  0  0  2  0  0  0  0  0  0
  -27.6640  -13.2350   19.6540 C   0  0  0  0  0  3  0  0  0  0  0  0
  -28.7500  -12.9270   20.7090 C   0  0  0  0  0  2  0  0  0  0  0  0
  -30.0670  -13.2000   20.1050 N   0  0  0  0  0  0  0  0  0  0  0  0
  -31.8850  -14.5300   19.7170 O   0  0  0  0  0  0  0  0  0  0  0  0
  -30.1490  -15.3400   20.8650 N   0  0  0  0  0  0  0  0  0  0  0  0
  -29.2510  -15.1270   21.2740 H   0  0  0  0  0  0  0  0  0  0  0  0
  -25.2810  -13.8580   20.4180 C   0  0  0  0  0  0  0  0  0  0  0  0
  -24.2170  -13.0910   20.8090 C   0  0  0  0  0  0  0  0  0  0  0  0
  -24.6680  -11.7350   20.7640 C   0  0  0  0  0  0  0  0  0  0  0  0
  -26.3170  -12.9700   20.1630 N   0  0  0  0  0  0  0  0  0  0  0  0
  -25.9510  -11.6890   20.4290 N   0  0  0  0  0  0  0  0  0  0  0  0
  -23.9370  -10.4790   20.9710 C   0  0  0  0  0  0  0  0  0  0  0  0
  -24.3810   -9.5140   21.9030 C   0  0  0  0  0  3  0  0  0  0  0  0
  -23.6520   -8.3200   22.0990 C   0  0  0  0  0  3  0  0  0  0  0  0
  -22.4660   -8.0850   21.3630 C   0  0  0  0  0  0  0  0  0  0  0  0
  -22.0420   -9.0390   20.4210 C   0  0  0  0  0  3  0  0  0  0  0  0
  -22.7700  -10.2240   20.2240 C   0  0  0  0  0  3  0  0  0  0  0  0
  -21.7090   -6.9420   21.4660 O   0  0  0  0  0  0  0  0  0  0  0  0
  -21.6700   -6.2070   22.6240 C   0  0  0  0  0  0  0  0  0  0  0  0
  -21.2590   -6.7730   23.8520 C   0  0  0  0  0  3  0  0  0  0  0  0
  -21.1650   -5.9660   25.0010 C   0  0  0  0  0  3  0  0  0  0  0  0
  -21.4720   -4.5940   24.9270 C   0  0  0  0  0  0  0  0  0  0  0  0
  -21.8770   -4.0280   23.7060 C   0  0  0  0  0  3  0  0  0  0  0  0
  -21.9730   -4.8330   22.5560 C   0  0  0  0  0  0  0  0  0  0  0  0
  -22.3420   -4.2770   21.3770 F   0  0  0  0  0  0  0  0  0  0  0  0
  -21.3750   -3.8170   26.0310 F   0  0  0  0  0  0  0  0  0  0  0  0
  -22.8310  -13.5780   21.1150 C   0  0  0  0  0  0  0  0  0  0  0  0
  -22.1210  -12.8890   22.0010 N   0  0  0  0  0  0  0  0  0  0  0  0
  -22.3840  -14.6060   20.6050 O   0  0  0  0  0  0  0  0  0  0  0  0
  -22.4950  -12.0600   22.4390 H   0  0  0  0  0  0  0  0  0  0  0  0
  -21.1890  -13.1930   22.2420 H   0  0  0  0  0  0  0  0  0  0  0  0
  -25.4570  -15.2290   20.2430 N   0  0  0  0  0  0  0  0  0  0  0  0
  -24.7110  -15.9010   20.3860 H   0  0  0  0  0  0  0  0  0  0  0  0
  -26.3140  -15.6600   19.9220 H   0  0  0  0  0  0  0  0  0  0  0  0
  -29.0560  -25.9170   17.5030 C   0  0  0  0  0  2  0  0  0  0  0  0
  -29.5460  -27.2740   18.0630 C   0  0  0  0  0  2  0  0  0  0  0  0
  -29.5580  -27.3780   19.6030 C   0  0  0  0  0  2  0  0  0  0  0  0
  -28.4150  -26.7320   20.1630 O   0  0  0  0  0  0  0  0  0  0  0  0
  -24.5760  -31.8950   23.2440 C   0  0  0  0  0  0  0  0  0  0  0  0
  -27.2570  -27.4680   20.2090 C   0  0  0  0  0  0  0  0  0  0  0  0
  -23.3790  -30.4770   21.6070 C   0  0  0  0  0  3  0  0  0  0  0  0
  -24.8430  -28.9230   20.2150 C   0  0  0  0  0  0  0  0  0  0  0  0
  -25.8990  -30.8480   21.4150 C   0  0  0  0  0  2  0  0  0  0  0  0
  -25.9920  -29.4680   20.8030 C   0  0  0  0  0  0  0  0  0  0  0  0
  -27.1990  -28.7420   20.8110 C   0  0  0  0  0  3  0  0  0  0  0  0
  -26.0890  -26.9130   19.6480 C   0  0  0  0  0  3  0  0  0  0  0  0
  -24.8820  -27.6390   19.6430 C   0  0  0  0  0  3  0  0  0  0  0  0
  -23.5970  -29.7800   20.2380 C   0  0  0  0  0  2  0  0  0  0  0  0
  -24.6360  -31.0870   22.1490 N   0  0  0  0  0  0  0  0  0  0  0  0
  -23.4920  -32.1750   23.7740 O   0  0  0  0  0  0  0  0  0  0  0  0
  -22.7210  -29.4660   22.5730 C   0  0  0  0  0  0  0  0  0  0  0  0
  -21.3980  -29.2850   22.4390 N   0  0  0  0  0  0  0  0  0  0  0  0
  -23.3980  -28.8480   23.4000 O   0  0  0  0  0  0  0  0  0  0  0  0
  -20.9120  -29.8350   21.7460 H   0  0  0  0  0  0  0  0  0  0  0  0
  -18.0180  -28.1160   22.9360 C   0  0  0  0  0  0  0  0  0  0  0  0
  -20.5760  -28.3590   23.2160 C   0  0  0  0  0  3  0  0  0  0  0  0
  -20.6700  -26.9240   22.6490 C   0  0  0  0  0  2  0  0  0  0  0  0
  -19.5690  -26.6020   21.6330 C   0  0  0  0  0  2  0  0  0  0  0  0
  -18.1870  -26.7600   22.2720 C   0  0  0  0  0  2  0  0  0  0  0  0
  -19.1410  -28.8730   23.3670 C   0  0  0  0  0  0  0  0  0  0  0  0
  -18.9250  -30.1420   23.9480 C   0  0  0  0  0  3  0  0  0  0  0  0
  -17.6240  -30.6540   24.1010 C   0  0  0  0  0  3  0  0  0  0  0  0
  -16.5170  -29.8940   23.6880 C   0  0  0  0  0  3  0  0  0  0  0  0
  -16.7150  -28.6270   23.1110 C   0  0  0  0  0  3  0  0  0  0  0  0
  -25.8590  -32.5320   23.8650 C   0  0  0  0  0  3  0  0  0  0  0  0
  -25.5490  -33.9310   24.1840 N   0  0  0  0  0  0  0  0  0  0  0  0
  -25.8960  -34.9780   23.4230 C   0  0  0  0  0  0  0  0  0  0  0  0
  -26.5810  -34.8660   22.4040 O   0  0  0  0  0  0  0  0  0  0  0  0
  -24.9370  -34.0950   24.9690 H   0  0  0  0  0  0  0  0  0  0  0  0
  -24.1810  -36.7750   23.0260 C   0  0  0  0  0  1  0  0  0  0  0  0
  -25.4030  -36.3690   23.8650 C   0  0  0  0  0  3  0  0  0  0  0  0
  -27.5240  -37.2450   24.7380 C   0  0  0  0  0  1  0  0  0  0  0  0
  -26.4430  -37.4170   23.7710 N   0  0  0  0  0  0  0  0  0  0  0  0
  -26.0400  -38.3390   23.9070 H   0  0  0  0  0  0  0  0  0  0  0  0
  -26.3760  -31.7660   25.1440 C   0  0  1  0  0  0  0  0  0  0  0  0
  -25.2820  -31.5300   26.2120 C   0  0  0  0  0  1  0  0  0  0  0  0
  -26.9590  -30.3890   24.7530 C   0  0  0  0  0  1  0  0  0  0  0  0
  -27.5300  -32.5580   25.8020 C   0  0  0  0  0  1  0  0  0  0  0  0
  1  5  1  0
  3  6  1  0
  3  1  1  0
  4  6  1  0
  4  2  1  0
  5  2  1  0
  5  8  1  0
  6  7  1  1
  8 10  1  0
  9 10  1  0
 10 12  1  0
 11  9  2  0
 14  9  1  0
 14 15  1  0
 14 13  1  0
 15 24  1  0
 15 13  1  0
 16 24  1  0
 17 22  1  0
 18 19  1  0
 18 17  1  0
 20 19  1  0
 20 29  1  0
 20 21  1  0
 22 16  1  0
 22 21  1  0
 23 16  2  0
 24 25  1  0
 26 27  2  0
 27 46  1  0
 28 27  1  0
 28 31  1  0
 29 26  1  0
 29 30  1  0
 30 28  2  0
 31 32  1  0
 32 33  2  0
 34 37  1  0
 34 33  1  0
 35 34  2  0
 36 35  1  0
 36 31  2  0
 37 38  1  0
 38 39  1  0
 39 40  2  0
 41 40  1  0
 41 45  1  0
 42 41  2  0
 43 38  2  0
 43 42  1  0
 44 43  1  0
 46 47  1  0
 47 50  1  0
 47 49  1  0
 48 46  2  0
 51 52  1  0
 51 26  1  0
 53 51  1  0
 54 55  1  0
 54  6  1  0
 55 56  1  0
 56 57  1  0
 57 59  1  0
 58 69  2  0
 59 64  1  0
 60 68  1  0
 60 70  1  0
 61 67  1  0
 61 63  1  0
 62 68  1  0
 63 64  2  0
 63 62  1  0
 65 59  2  0
 66 65  1  0
 66 61  2  0
 67 60  1  0
 68 58  1  0
 70 72  2  0
 71 70  1  0
 73 71  1  0
 74 83  2  0
 74 79  1  0
 75 71  1  0
 75 79  1  0
 76 75  1  0
 77 78  1  0
 77 76  1  0
 78 74  1  0
 79 80  2  0
 80 81  1  0
 82 81  2  0
 83 82  1  0
 84 58  1  0
 84 85  1  0
 84 94  1  0
 85 88  1  0
 86 90  1  0
 86 85  1  0
 87 86  2  0
 90 89  1  0
 92 90  1  0
 92 93  1  0
 92 91  1  0
 94 97  1  1
 94 95  1  0
 96 94  1  0
M  ISO  4  16 100  24 100  56 101  57 101
M  END
>  <TORSDO>  (65) 
F 22

>  <SCORE>  (65) 
-13.083

>  <name>  (65) 
65

>  <ligand_id>  (65) 
65

>  <original_smiles>  (65) 
[H]c1c([H])c([H])c2c(c1[H])C([H])([H])C([H])([H])C([H])([H])C2([H])N([H])C(=O)C1([H])N(C(=O)C([H])(N([H])C(=O)C([H])(N([H])C([H])([H])[H])C([H])([H])[H])C(C([H])([H])[H])(C([H])([H])[H])C([H])([H])[H])C([H])([H])c2c([H])c(OC([H])([H])C([H])([H])C([H])([H])[N+]3([H])C([H])([H])C([H])([H])C([H])(C([H])([H])N([H])C(=O)C4([H])C([H])([H])C4([H])N([H])C(=O)N4C([H])([H])C([H])([H])C([H])([H])C([H])(n5nc(-c6c([H])c([H])c(Oc7c([H])c([H])c(F)c([H])c7F)c([H])c6[H])c(C(=O)N([H])[H])c5N([H])[H])C4([H])[H])C([H])([H])C3([H])[H])c([H])c([H])c2C1([H])[H]

>  <smiles>  (65) 
[H]c1c([H])c([H])c2c(c1[H])C([H])([H])C([H])([H])C([H])([H])C2([H])N([H])C(=O)C1([H])N(C(=O)C([H])(N([H])C(=O)C([H])(N([H])C([H])([H])[H])C([H])([H])[H])C(C([H])([H])[H])(C([H])([H])[H])C([H])([H])[H])C([H])([H])c2c([H])c(OC([H])([H])C([H])([H])C([H])([H])[N+]3([H])C([H])([H])C([H])([H])C([H])(C([H])([H])N([H])C(=O)C4([H])C([H])([H])C4([H])N([H])C(=O)N4C([H])([H])C([H])([H])C([H])([H])C([H])(n5nc(-c6c([H])c([H])c(Oc7c([H])c([H])c(F)c([H])c7F)c([H])c6[H])c(C(=O)N([H])[H])c5N([H])[H])C4([H])[H])C([H])([H])C3([H])[H])c([H])c([H])c2C1([H])[H]

$$$$
66:0:0
     RDKit          3D

 98107  0  0  1  0  0  0  0  0999 V2000
  -30.2320  -24.3600   20.2620 C   0  0  0  0  0  2  0  0  0  0  0  0
  -29.3090  -20.7140   19.6100 C   0  0  0  0  0  2  0  0  0  0  0  0
  -31.8200  -20.9530   19.4840 C   0  0  0  0  0  2  0  0  0  0  0  0
  -29.2510  -22.1000   20.2670 C   0  0  0  0  0  2  0  0  0  0  0  0
  -31.6860  -22.3430   20.1300 C   0  0  0  0  0  2  0  0  0  0  0  0
  -30.6590  -20.0130   19.8790 C   0  0  0  0  0  3  0  0  0  0  0  0
  -30.3740  -22.9570   19.8000 N   0  0  2  0  0  4  0  0  0  0  0  0
  -30.3000  -22.9840   18.7930 H   0  0  0  0  0  0  0  0  0  0  0  0
  -30.5050  -18.6690   17.6850 C   0  0  0  0  0  1  0  0  0  0  0  0
  -30.7760  -18.6220   19.2060 C   0  0  0  0  0  3  0  0  0  0  0  0
  -30.6970  -14.4520   20.6100 C   0  0  0  0  0  0  0  0  0  0  0  0
  -30.3950  -12.2690   19.5530 C   0  0  0  0  0  2  0  0  0  0  0  0
  -29.5080  -12.4720   18.3080 C   0  0  0  0  0  2  0  0  0  0  0  0
  -28.0160  -12.3670   18.6820 C   0  0  0  0  0  2  0  0  0  0  0  0
  -27.6360  -13.2220   19.9220 C   0  0  0  0  0  3  0  0  0  0  0  0
  -28.6560  -13.0470   21.0700 C   0  0  0  0  0  2  0  0  0  0  0  0
  -30.0000  -13.2910   20.5280 N   0  0  0  0  0  0  0  0  0  0  0  0
  -31.9010  -14.5390   20.3580 O   0  0  0  0  0  0  0  0  0  0  0  0
  -30.4590  -16.8420   21.1480 C   0  0  0  0  0  2  0  0  0  0  0  0
  -29.7430  -16.1890   19.2890 C   0  0  0  0  0  2  0  0  0  0  0  0
  -29.9220  -17.5560   19.9150 C   0  0  0  0  0  3  0  0  0  0  0  0
  -29.9400  -15.5670   20.6120 N   0  0  0  0  0  0  0  0  0  0  0  0
  -25.2170  -13.8490   20.5280 C   0  0  0  0  0  0  0  0  0  0  0  0
  -24.1320  -13.0850   20.8660 C   0  0  0  0  0  0  0  0  0  0  0  0
  -24.5930  -11.7330   20.8830 C   0  0  0  0  0  0  0  0  0  0  0  0
  -26.2680  -12.9600   20.3580 N   0  0  0  0  0  0  0  0  0  0  0  0
  -25.8930  -11.6850   20.6300 N   0  0  0  0  0  0  0  0  0  0  0  0
  -23.8570  -10.4760   21.0680 C   0  0  0  0  0  0  0  0  0  0  0  0
  -24.2710   -9.5130   22.0150 C   0  0  0  0  0  3  0  0  0  0  0  0
  -23.5370   -8.3200   22.1880 C   0  0  0  0  0  3  0  0  0  0  0  0
  -22.3780   -8.0810   21.4120 C   0  0  0  0  0  0  0  0  0  0  0  0
  -21.9840   -9.0330   20.4550 C   0  0  0  0  0  3  0  0  0  0  0  0
  -22.7190  -10.2170   20.2810 C   0  0  0  0  0  3  0  0  0  0  0  0
  -21.6170   -6.9400   21.4940 O   0  0  0  0  0  0  0  0  0  0  0  0
  -21.5620   -6.1910   22.6430 C   0  0  0  0  0  0  0  0  0  0  0  0
  -21.1620   -6.7470   23.8760 C   0  0  0  0  0  3  0  0  0  0  0  0
  -21.0520   -5.9280   25.0160 C   0  0  0  0  0  3  0  0  0  0  0  0
  -21.3360   -4.5520   24.9260 C   0  0  0  0  0  0  0  0  0  0  0  0
  -21.7290   -3.9940   23.6960 C   0  0  0  0  0  3  0  0  0  0  0  0
  -21.8400   -4.8120   22.5580 C   0  0  0  0  0  0  0  0  0  0  0  0
  -22.1980   -4.2670   21.3700 F   0  0  0  0  0  0  0  0  0  0  0  0
  -21.2250   -3.7610   26.0180 F   0  0  0  0  0  0  0  0  0  0  0  0
  -22.7260  -13.5670   21.0780 C   0  0  0  0  0  0  0  0  0  0  0  0
  -21.9660  -12.8840   21.9270 N   0  0  0  0  0  0  0  0  0  0  0  0
  -22.3090  -14.5840   20.5260 O   0  0  0  0  0  0  0  0  0  0  0  0
  -22.3190  -12.0650   22.3990 H   0  0  0  0  0  0  0  0  0  0  0  0
  -21.0210  -13.1860   22.1120 H   0  0  0  0  0  0  0  0  0  0  0  0
  -25.3940  -15.2160   20.3350 N   0  0  0  0  0  0  0  0  0  0  0  0
  -24.6330  -15.8830   20.4100 H   0  0  0  0  0  0  0  0  0  0  0  0
  -26.2770  -15.6450   20.0870 H   0  0  0  0  0  0  0  0  0  0  0  0
  -31.0660  -25.3690   19.4320 C   0  0  0  0  0  2  0  0  0  0  0  0
  -30.8010  -26.8780   19.6940 C   0  0  0  0  0  3  0  0  0  0  0  0
  -31.0780  -27.2960   21.0900 N   0  0  0  0  0  4  0  0  0  0  0  0
  -30.3840  -26.9470   21.7290 H   0  0  0  0  0  0  0  0  0  0  0  0
  -31.0670  -28.3020   21.1620 H   0  0  0  0  0  0  0  0  0  0  0  0
  -31.9850  -26.9900   21.4000 H   0  0  0  0  0  0  0  0  0  0  0  0
  -29.4200  -27.3710   19.2220 C   0  0  0  0  0  2  0  0  0  0  0  0
  -28.4140  -26.7890   20.0480 O   0  0  0  0  0  0  0  0  0  0  0  0
  -24.6140  -31.8880   23.2260 C   0  0  0  0  0  0  0  0  0  0  0  0
  -27.2470  -27.4970   20.1070 C   0  0  0  0  0  0  0  0  0  0  0  0
  -23.3900  -30.4830   21.5930 C   0  0  0  0  0  3  0  0  0  0  0  0
  -24.8340  -28.9440   20.1620 C   0  0  0  0  0  0  0  0  0  0  0  0
  -25.9080  -30.8560   21.3700 C   0  0  0  0  0  2  0  0  0  0  0  0
  -25.9900  -29.4870   20.7360 C   0  0  0  0  0  0  0  0  0  0  0  0
  -27.1980  -28.7680   20.7150 C   0  0  0  0  0  3  0  0  0  0  0  0
  -26.0740  -26.9390   19.5600 C   0  0  0  0  0  3  0  0  0  0  0  0
  -24.8670  -27.6640   19.5770 C   0  0  0  0  0  3  0  0  0  0  0  0
  -23.5880  -29.7990   20.2120 C   0  0  0  0  0  2  0  0  0  0  0  0
  -24.6570  -31.0900   22.1220 N   0  0  0  0  0  0  0  0  0  0  0  0
  -23.5390  -32.1590   23.7770 O   0  0  0  0  0  0  0  0  0  0  0  0
  -22.7500  -29.4630   22.5600 C   0  0  0  0  0  0  0  0  0  0  0  0
  -21.4240  -29.2850   22.4460 N   0  0  0  0  0  0  0  0  0  0  0  0
  -23.4400  -28.8350   23.3680 O   0  0  0  0  0  0  0  0  0  0  0  0
  -20.9280  -29.8460   21.7680 H   0  0  0  0  0  0  0  0  0  0  0  0
  -18.0530  -28.1010   22.9660 C   0  0  0  0  0  0  0  0  0  0  0  0
  -20.6120  -28.3510   23.2220 C   0  0  0  0  0  3  0  0  0  0  0  0
  -20.7080  -26.9190   22.6470 C   0  0  0  0  0  2  0  0  0  0  0  0
  -19.6000  -26.5980   21.6390 C   0  0  0  0  0  2  0  0  0  0  0  0
  -18.2220  -26.7480   22.2920 C   0  0  0  0  0  2  0  0  0  0  0  0
  -19.1770  -28.8590   23.3880 C   0  0  0  0  0  0  0  0  0  0  0  0
  -18.9670  -30.1250   23.9770 C   0  0  0  0  0  3  0  0  0  0  0  0
  -17.6650  -30.6330   24.1460 C   0  0  0  0  0  3  0  0  0  0  0  0
  -16.5560  -29.8720   23.7400 C   0  0  0  0  0  3  0  0  0  0  0  0
  -16.7500  -28.6070   23.1570 C   0  0  0  0  0  3  0  0  0  0  0  0
  -25.9090  -32.5150   23.8330 C   0  0  0  0  0  3  0  0  0  0  0  0
  -25.6010  -33.9060   24.1830 N   0  0  0  0  0  0  0  0  0  0  0  0
  -25.9260  -34.9680   23.4310 C   0  0  0  0  0  0  0  0  0  0  0  0
  -26.5870  -34.8790   22.3940 O   0  0  0  0  0  0  0  0  0  0  0  0
  -25.0090  -34.0520   24.9870 H   0  0  0  0  0  0  0  0  0  0  0  0
  -24.1870  -36.7590   23.1140 C   0  0  0  0  0  1  0  0  0  0  0  0
  -25.4370  -36.3500   23.9090 C   0  0  0  0  0  3  0  0  0  0  0  0
  -27.5820  -37.2280   24.7230 C   0  0  0  0  0  1  0  0  0  0  0  0
  -26.4650  -37.4090   23.7970 N   0  0  0  0  0  0  0  0  0  0  0  0
  -26.0590  -38.3240   23.9660 H   0  0  0  0  0  0  0  0  0  0  0  0
  -26.4530  -31.7270   25.0860 C   0  0  1  0  0  0  0  0  0  0  0  0
  -25.3820  -31.4680   26.1720 C   0  0  0  0  0  1  0  0  0  0  0  0
  -27.0330  -30.3570   24.6590 C   0  0  0  0  0  1  0  0  0  0  0  0
  -27.6120  -32.5160   25.7410 C   0  0  0  0  0  1  0  0  0  0  0  0
  2  6  1  0
  2  4  1  0
  3  6  1  0
  3  5  1  0
  6 10  1  0
  7  5  1  0
  7  1  1  0
  7  4  1  0
  7  8  1  6
 10  9  1  0
 11 22  1  0
 12 17  1  0
 13 14  1  0
 13 12  1  0
 15 14  1  0
 15 26  1  0
 15 16  1  0
 17 11  1  0
 17 16  1  0
 18 11  2  0
 20 21  1  0
 20 22  1  0
 21 10  1  0
 21 19  1  0
 22 19  1  0
 23 24  2  0
 24 25  1  0
 24 43  1  0
 25 28  1  0
 26 23  1  0
 26 27  1  0
 27 25  2  0
 28 29  1  0
 29 30  2  0
 31 34  1  0
 31 30  1  0
 32 31  2  0
 33 32  1  0
 33 28  2  0
 34 35  1  0
 35 36  1  0
 36 37  2  0
 38 37  1  0
 38 42  1  0
 39 38  2  0
 40 35  2  0
 40 39  1  0
 41 40  1  0
 43 44  1  0
 44 47  1  0
 44 46  1  0
 45 43  2  0
 48 49  1  0
 48 23  1  0
 50 48  1  0
 51 52  1  0
 51  1  1  0
 52 57  1  0
 52 53  1  0
 53 55  1  0
 53 56  1  0
 53 54  1  0
 57 58  1  0
 58 60  1  0
 59 70  2  0
 60 65  1  0
 61 69  1  0
 61 71  1  0
 62 68  1  0
 62 64  1  0
 63 69  1  0
 64 63  1  0
 65 64  2  0
 66 67  1  0
 66 60  2  0
 67 62  2  0
 68 61  1  0
 69 59  1  0
 71 73  2  0
 72 71  1  0
 74 72  1  0
 75 84  2  0
 75 80  1  0
 76 72  1  0
 76 80  1  0
 77 76  1  0
 78 79  1  0
 78 77  1  0
 79 75  1  0
 80 81  2  0
 81 82  1  0
 83 82  2  0
 84 83  1  0
 85 59  1  0
 85 86  1  0
 85 95  1  0
 86 89  1  0
 87 91  1  0
 87 86  1  0
 88 87  2  0
 91 90  1  0
 93 91  1  0
 93 94  1  0
 93 92  1  0
 95 98  1  1
 95 96  1  0
 97 95  1  0
M  ISO  4  11 100  22 100  57 101  58 101
M  END
>  <TORSDO>  (66) 
F 22

>  <SCORE>  (66) 
-13.322

>  <name>  (66) 
66

>  <ligand_id>  (66) 
66

>  <original_smiles>  (66) 
[H]c1c([H])c([H])c2c(c1[H])C([H])([H])C([H])([H])C([H])([H])C2([H])N([H])C(=O)C1([H])N(C(=O)C([H])(N([H])C(=O)C([H])(N([H])C([H])([H])[H])C([H])([H])[H])C(C([H])([H])[H])(C([H])([H])[H])C([H])([H])[H])C([H])([H])c2c([H])c(OC([H])([H])C([H])(C([H])([H])C([H])([H])[N+]3([H])C([H])([H])C([H])([H])C([H])(C([H])(C([H])([H])[H])C4([H])C([H])([H])N(C(=O)N5C([H])([H])C([H])([H])C([H])([H])C([H])(n6nc(-c7c([H])c([H])c(Oc8c([H])c([H])c(F)c([H])c8F)c([H])c7[H])c(C(=O)N([H])[H])c6N([H])[H])C5([H])[H])C4([H])[H])C([H])([H])C3([H])[H])[N+]([H])([H])[H])c([H])c([H])c2C1([H])[H]

>  <smiles>  (66) 
[H]c1c([H])c([H])c2c(c1[H])C([H])([H])C([H])([H])C([H])([H])C2([H])N([H])C(=O)C1([H])N(C(=O)C([H])(N([H])C(=O)C([H])(N([H])C([H])([H])[H])C([H])([H])[H])C(C([H])([H])[H])(C([H])([H])[H])C([H])([H])[H])C([H])([H])c2c([H])c(OC([H])([H])C([H])(C([H])([H])C([H])([H])[N+]3([H])C([H])([H])C([H])([H])C([H])(C([H])(C([H])([H])[H])C4([H])C([H])([H])N(C(=O)N5C([H])([H])C([H])([H])C([H])([H])C([H])(n6nc(-c7c([H])c([H])c(Oc8c([H])c([H])c(F)c([H])c8F)c([H])c7[H])c(C(=O)N([H])[H])c6N([H])[H])C5([H])[H])C4([H])[H])C([H])([H])C3([H])[H])[N+]([H])([H])[H])c([H])c([H])c2C1([H])[H]

$$$$
67:0:0
     RDKit          3D

 98107  0  0  1  0  0  0  0  0999 V2000
  -32.5340  -21.9290   18.5650 C   0  0  0  0  0  2  0  0  0  0  0  0
  -33.1060  -20.3840   20.4660 C   0  0  0  0  0  2  0  0  0  0  0  0
  -32.3900  -22.9640   19.7090 C   0  0  0  0  0  2  0  0  0  0  0  0
  -32.3160  -21.2410   21.4840 C   0  0  0  0  0  2  0  0  0  0  0  0
  -32.5040  -20.4580   19.0520 C   0  0  0  0  0  3  0  0  0  0  0  0
  -31.6270  -22.4060   20.8570 N   0  0  1  0  0  4  0  0  0  0  0  0
  -30.7840  -22.0140   20.4620 H   0  0  0  0  0  0  0  0  0  0  0  0
  -31.0800  -18.3720   19.0740 C   0  0  0  0  0  3  0  0  0  0  0  0
  -29.9210  -20.5050   18.8660 C   0  0  0  0  0  3  0  0  0  0  0  0
  -28.6490  -18.4230   18.8820 C   0  0  0  0  0  3  0  0  0  0  0  0
  -31.1310  -19.7820   18.9990 C   0  0  0  0  0  0  0  0  0  0  0  0
  -29.8500  -17.6910   18.9880 C   0  0  0  0  0  0  0  0  0  0  0  0
  -28.6880  -19.8270   18.8200 C   0  0  0  0  0  0  0  0  0  0  0  0
  -27.5400  -20.5320   18.6910 F   0  0  0  0  0  0  0  0  0  0  0  0
  -29.8320  -16.1810   18.8630 C   0  0  0  0  0  2  0  0  0  0  0  0
  -30.7050  -14.3670   20.2080 C   0  0  0  0  0  0  0  0  0  0  0  0
  -30.3960  -12.1440   19.2590 C   0  0  0  0  0  2  0  0  0  0  0  0
  -29.4630  -12.3250   18.0430 C   0  0  0  0  0  2  0  0  0  0  0  0
  -27.9830  -12.2370   18.4720 C   0  0  0  0  0  2  0  0  0  0  0  0
  -27.6540  -13.1320   19.6960 C   0  0  0  0  0  3  0  0  0  0  0  0
  -28.7110  -12.9640   20.8180 C   0  0  0  0  0  2  0  0  0  0  0  0
  -30.0460  -13.1820   20.2380 N   0  0  0  0  0  0  0  0  0  0  0  0
  -31.8860  -14.4890   19.8740 O   0  0  0  0  0  0  0  0  0  0  0  0
  -29.8750  -15.4140   20.1130 N   0  0  0  0  0  0  0  0  0  0  0  0
  -28.9750  -15.2700   20.5430 H   0  0  0  0  0  0  0  0  0  0  0  0
  -25.2760  -13.8130   20.4010 C   0  0  0  0  0  0  0  0  0  0  0  0
  -24.1920  -13.0730   20.7840 C   0  0  0  0  0  0  0  0  0  0  0  0
  -24.6200  -11.7110   20.7730 C   0  0  0  0  0  0  0  0  0  0  0  0
  -26.2980  -12.9030   20.1830 N   0  0  0  0  0  0  0  0  0  0  0  0
  -25.9070  -11.6340   20.4640 N   0  0  0  0  0  0  0  0  0  0  0  0
  -23.8660  -10.4690   20.9800 C   0  0  0  0  0  0  0  0  0  0  0  0
  -24.2860   -9.4990   21.9160 C   0  0  0  0  0  3  0  0  0  0  0  0
  -23.5360   -8.3200   22.1120 C   0  0  0  0  0  3  0  0  0  0  0  0
  -22.3500   -8.1030   21.3710 C   0  0  0  0  0  0  0  0  0  0  0  0
  -21.9480   -9.0610   20.4240 C   0  0  0  0  0  3  0  0  0  0  0  0
  -22.7000  -10.2320   20.2270 C   0  0  0  0  0  3  0  0  0  0  0  0
  -21.5720   -6.9750   21.4750 O   0  0  0  0  0  0  0  0  0  0  0  0
  -21.5280   -6.2350   22.6290 C   0  0  0  0  0  0  0  0  0  0  0  0
  -21.1430   -6.8020   23.8650 C   0  0  0  0  0  3  0  0  0  0  0  0
  -21.0470   -5.9890   25.0110 C   0  0  0  0  0  3  0  0  0  0  0  0
  -21.3240   -4.6110   24.9220 C   0  0  0  0  0  0  0  0  0  0  0  0
  -21.7010   -4.0450   23.6930 C   0  0  0  0  0  3  0  0  0  0  0  0
  -21.8000   -4.8550   22.5490 C   0  0  0  0  0  0  0  0  0  0  0  0
  -22.1440   -4.3010   21.3600 F   0  0  0  0  0  0  0  0  0  0  0  0
  -21.2230   -3.8280   26.0220 F   0  0  0  0  0  0  0  0  0  0  0  0
  -22.8050  -13.5870   21.0510 C   0  0  0  0  0  0  0  0  0  0  0  0
  -22.0630  -12.9250   21.9300 N   0  0  0  0  0  0  0  0  0  0  0  0
  -22.3910  -14.6120   20.5110 O   0  0  0  0  0  0  0  0  0  0  0  0
  -22.4070  -12.0950   22.3910 H   0  0  0  0  0  0  0  0  0  0  0  0
  -21.1340  -13.2560   22.1480 H   0  0  0  0  0  0  0  0  0  0  0  0
  -25.4740  -15.1770   20.1990 N   0  0  0  0  0  0  0  0  0  0  0  0
  -24.7200  -15.8470   20.2950 H   0  0  0  0  0  0  0  0  0  0  0  0
  -26.3260  -15.5890   19.8410 H   0  0  0  0  0  0  0  0  0  0  0  0
  -31.1690  -23.4180   21.8420 C   0  0  0  0  0  2  0  0  0  0  0  0
  -29.6930  -23.8230   21.6450 C   0  0  0  0  0  2  0  0  0  0  0  0
  -29.4600  -24.9100   20.5810 C   0  0  0  0  0  2  0  0  0  0  0  0
  -28.0270  -25.4560   20.5870 C   0  0  0  0  0  2  0  0  0  0  0  0
  -28.0100  -26.6300   19.7940 O   0  0  0  0  0  0  0  0  0  0  0  0
  -24.4160  -31.7720   23.1270 C   0  0  0  0  0  0  0  0  0  0  0  0
  -26.8530  -27.3560   19.8850 C   0  0  0  0  0  0  0  0  0  0  0  0
  -23.1260  -30.4500   21.4780 C   0  0  0  0  0  3  0  0  0  0  0  0
  -24.4970  -28.8970   19.9920 C   0  0  0  0  0  0  0  0  0  0  0  0
  -25.6520  -30.7430   21.2260 C   0  0  0  0  0  2  0  0  0  0  0  0
  -25.6810  -29.3850   20.5590 C   0  0  0  0  0  0  0  0  0  0  0  0
  -26.8650  -28.6230   20.4990 C   0  0  0  0  0  3  0  0  0  0  0  0
  -25.6550  -26.8630   19.3270 C   0  0  0  0  0  3  0  0  0  0  0  0
  -24.4750  -27.6320   19.3770 C   0  0  0  0  0  3  0  0  0  0  0  0
  -23.2800  -29.7890   20.0810 C   0  0  0  0  0  2  0  0  0  0  0  0
  -24.4180  -31.0010   22.0020 N   0  0  0  0  0  0  0  0  0  0  0  0
  -23.3580  -32.0640   23.7000 O   0  0  0  0  0  0  0  0  0  0  0  0
  -22.4640  -29.4300   22.4290 C   0  0  0  0  0  0  0  0  0  0  0  0
  -21.1310  -29.3010   22.3320 N   0  0  0  0  0  0  0  0  0  0  0  0
  -23.1440  -28.7590   23.2090 O   0  0  0  0  0  0  0  0  0  0  0  0
  -20.6440  -29.8930   21.6710 H   0  0  0  0  0  0  0  0  0  0  0  0
  -17.7260  -28.2330   22.8860 C   0  0  0  0  0  0  0  0  0  0  0  0
  -20.2980  -28.3760   23.0980 C   0  0  0  0  0  3  0  0  0  0  0  0
  -20.3260  -26.9600   22.4790 C   0  0  0  0  0  2  0  0  0  0  0  0
  -19.1860  -26.7110   21.4870 C   0  0  0  0  0  2  0  0  0  0  0  0
  -17.8290  -26.8960   22.1710 C   0  0  0  0  0  2  0  0  0  0  0  0
  -18.8860  -28.9340   23.3080 C   0  0  0  0  0  0  0  0  0  0  0  0
  -18.7360  -30.1900   23.9360 C   0  0  0  0  0  3  0  0  0  0  0  0
  -17.4590  -30.7410   24.1490 C   0  0  0  0  0  3  0  0  0  0  0  0
  -16.3130  -30.0350   23.7440 C   0  0  0  0  0  3  0  0  0  0  0  0
  -16.4470  -28.7820   23.1180 C   0  0  0  0  0  3  0  0  0  0  0  0
  -25.7370  -32.3420   23.7310 C   0  0  0  0  0  3  0  0  0  0  0  0
  -25.4840  -33.7400   24.1050 N   0  0  0  0  0  0  0  0  0  0  0  0
  -25.8440  -34.8000   23.3700 C   0  0  0  0  0  0  0  0  0  0  0  0
  -26.4980  -34.7020   22.3280 O   0  0  0  0  0  0  0  0  0  0  0  0
  -24.9070  -33.8930   24.9190 H   0  0  0  0  0  0  0  0  0  0  0  0
  -24.1830  -36.6650   23.0810 C   0  0  0  0  0  1  0  0  0  0  0  0
  -25.4120  -36.1910   23.8710 C   0  0  0  0  0  3  0  0  0  0  0  0
  -27.5820  -36.9690   24.7170 C   0  0  0  0  0  1  0  0  0  0  0  0
  -26.4830  -37.2070   23.7860 N   0  0  0  0  0  0  0  0  0  0  0  0
  -26.1110  -38.1360   23.9630 H   0  0  0  0  0  0  0  0  0  0  0  0
  -26.2620  -31.5180   24.9710 C   0  0  1  0  0  0  0  0  0  0  0  0
  -25.1880  -31.2860   26.0600 C   0  0  0  0  0  1  0  0  0  0  0  0
  -26.7880  -30.1350   24.5230 C   0  0  0  0  0  1  0  0  0  0  0  0
  -27.4530  -32.2570   25.6260 C   0  0  0  0  0  1  0  0  0  0  0  0
  1  5  1  0
  1  3  1  0
  2  4  1  0
  3  6  1  0
  5 11  1  0
  5  2  1  0
  6  4  1  0
  6 54  1  0
  6  7  1  6
  9 11  2  0
 10 12  1  0
 11  8  1  0
 12  8  2  0
 13  9  1  0
 13 10  2  0
 14 13  1  0
 15 12  1  0
 15 24  1  0
 16 22  1  0
 17 22  1  0
 18 19  1  0
 18 17  1  0
 20 19  1  0
 20 29  1  0
 20 21  1  0
 22 21  1  0
 23 16  2  0
 24 16  1  0
 24 25  1  0
 26 27  2  0
 27 46  1  0
 28 27  1  0
 28 31  1  0
 29 26  1  0
 29 30  1  0
 30 28  2  0
 31 32  1  0
 32 33  2  0
 34 37  1  0
 34 33  1  0
 35 34  2  0
 36 35  1  0
 36 31  2  0
 37 38  1  0
 38 39  1  0
 39 40  2  0
 41 40  1  0
 41 45  1  0
 42 41  2  0
 43 38  2  0
 43 42  1  0
 44 43  1  0
 46 47  1  0
 47 50  1  0
 47 49  1  0
 48 46  2  0
 51 52  1  0
 51 26  1  0
 53 51  1  0
 55 54  1  0
 56 57  1  0
 56 55  1  0
 58 60  1  0
 58 57  1  0
 59 70  2  0
 60 65  1  0
 61 69  1  0
 61 71  1  0
 62 68  1  0
 62 64  1  0
 63 69  1  0
 64 63  1  0
 65 64  2  0
 66 67  1  0
 66 60  2  0
 67 62  2  0
 68 61  1  0
 69 59  1  0
 71 73  2  0
 72 71  1  0
 74 72  1  0
 75 84  2  0
 75 80  1  0
 76 72  1  0
 76 80  1  0
 77 76  1  0
 78 79  1  0
 78 77  1  0
 79 75  1  0
 80 81  2  0
 81 82  1  0
 83 82  2  0
 84 83  1  0
 85 59  1  0
 85 86  1  0
 85 95  1  0
 86 89  1  0
 87 91  1  0
 87 86  1  0
 88 87  2  0
 91 90  1  0
 93 91  1  0
 93 94  1  0
 93 92  1  0
 95 98  1  1
 95 96  1  0
 97 95  1  0
M  ISO  4  16 100  24 100  57 101  58 101
M  END
>  <TORSDO>  (67) 
F 22

>  <SCORE>  (67) 
-12.639

>  <name>  (67) 
67

>  <ligand_id>  (67) 
67

>  <original_smiles>  (67) 
[H]c1c([H])c([H])c2c(c1[H])C([H])([H])C([H])([H])C([H])([H])C2([H])N([H])C(=O)C1([H])N(C(=O)C([H])(N([H])C(=O)C([H])(N([H])C([H])([H])[H])C([H])([H])[H])C(C([H])([H])[H])(C([H])([H])[H])C([H])([H])[H])C([H])([H])c2c([H])c(OC([H])([H])C([H])([H])C([H])([H])C([H])([H])[N+]3([H])C([H])([H])C([H])([H])C([H])(c4c([H])c(F)c([H])c(C([H])([H])N([H])C(=O)N5C([H])([H])C([H])([H])C([H])([H])C([H])(n6nc(-c7c([H])c([H])c(Oc8c([H])c([H])c(F)c([H])c8F)c([H])c7[H])c(C(=O)N([H])[H])c6N([H])[H])C5([H])[H])c4[H])C([H])([H])C3([H])[H])c([H])c([H])c2C1([H])[H]

>  <smiles>  (67) 
[H]c1c([H])c([H])c2c(c1[H])C([H])([H])C([H])([H])C([H])([H])C2([H])N([H])C(=O)C1([H])N(C(=O)C([H])(N([H])C(=O)C([H])(N([H])C([H])([H])[H])C([H])([H])[H])C(C([H])([H])[H])(C([H])([H])[H])C([H])([H])[H])C([H])([H])c2c([H])c(OC([H])([H])C([H])([H])C([H])([H])C([H])([H])[N+]3([H])C([H])([H])C([H])([H])C([H])(c4c([H])c(F)c([H])c(C([H])([H])N([H])C(=O)N5C([H])([H])C([H])([H])C([H])([H])C([H])(n6nc(-c7c([H])c([H])c(Oc8c([H])c([H])c(F)c([H])c8F)c([H])c7[H])c(C(=O)N([H])[H])c6N([H])[H])C5([H])[H])c4[H])C([H])([H])C3([H])[H])c([H])c([H])c2C1([H])[H]

$$$$
68:0:0
     RDKit          3D

 95104  0  0  1  0  0  0  0  0999 V2000
  -26.7780  -21.1390   18.4780 C   0  0  0  0  0  0  0  0  0  0  0  0
  -27.2900  -22.3680   18.3140 N   0  0  0  0  0  0  0  0  0  0  0  0
  -25.8310  -20.9070   19.2380 O   0  0  0  0  0  0  0  0  0  0  0  0
  -27.9540  -22.5120   17.5610 H   0  0  0  0  0  0  0  0  0  0  0  0
  -27.4070  -19.9990   17.6830 C   0  0  0  0  0  2  0  0  0  0  0  0
  -27.6530  -17.2730   19.1360 C   0  0  0  0  0  2  0  0  0  0  0  0
  -29.3080  -18.2270   20.5490 C   0  0  0  0  0  2  0  0  0  0  0  0
  -29.1830  -18.2340   17.6510 C   0  0  0  0  0  2  0  0  0  0  0  0
  -29.0150  -16.9720   18.5390 C   0  0  0  0  0  3  0  0  0  0  0  0
  -29.9310  -17.0130   19.8030 C   0  0  0  0  0  3  0  0  0  0  0  0
  -28.0890  -18.6140   19.6680 C   0  0  0  0  0  3  0  0  0  0  0  0
  -28.5150  -19.3160   18.4260 N   0  0  2  0  0  4  0  0  0  0  0  0
  -29.1930  -20.0290   18.6580 H   0  0  0  0  0  0  0  0  0  0  0  0
  -30.7050  -14.7430   20.6790 C   0  0  0  0  0  0  0  0  0  0  0  0
  -30.5000  -12.4820   19.7550 C   0  0  0  0  0  2  0  0  0  0  0  0
  -29.6650  -12.5930   18.4530 C   0  0  0  0  0  2  0  0  0  0  0  0
  -28.1740  -12.9570   18.6940 C   0  0  0  0  0  2  0  0  0  0  0  0
  -27.7700  -12.9100   20.1780 C   0  0  0  0  0  3  0  0  0  0  0  0
  -28.7540  -13.3270   21.2830 C   0  0  0  0  0  2  0  0  0  0  0  0
  -30.0810  -13.5440   20.6860 N   0  0  0  0  0  0  0  0  0  0  0  0
  -31.9000  -14.8930   20.4440 O   0  0  0  0  0  0  0  0  0  0  0  0
  -29.8230  -15.7610   20.5800 N   0  0  0  0  0  0  0  0  0  0  0  0
  -28.8870  -15.4410   20.7560 H   0  0  0  0  0  0  0  0  0  0  0  0
  -25.3020  -13.8560   20.5990 C   0  0  0  0  0  0  0  0  0  0  0  0
  -24.1860  -13.1250   20.9140 C   0  0  0  0  0  0  0  0  0  0  0  0
  -24.6040  -11.7670   20.9600 C   0  0  0  0  0  0  0  0  0  0  0  0
  -26.3400  -12.9190   20.4930 N   0  0  0  0  0  0  0  0  0  0  0  0
  -25.8840  -11.6780   20.7310 N   0  0  0  0  0  0  0  0  0  0  0  0
  -23.8950  -10.5110   21.1400 C   0  0  0  0  0  0  0  0  0  0  0  0
  -24.3140   -9.5620   22.1000 C   0  0  0  0  0  3  0  0  0  0  0  0
  -23.6200   -8.3450   22.2450 C   0  0  0  0  0  3  0  0  0  0  0  0
  -22.5040   -8.0820   21.4140 C   0  0  0  0  0  0  0  0  0  0  0  0
  -22.1160   -9.0150   20.4420 C   0  0  0  0  0  3  0  0  0  0  0  0
  -22.8120  -10.2230   20.2970 C   0  0  0  0  0  3  0  0  0  0  0  0
  -21.7460   -6.9420   21.4720 O   0  0  0  0  0  0  0  0  0  0  0  0
  -21.6470   -6.2280   22.6290 C   0  0  0  0  0  0  0  0  0  0  0  0
  -21.1350   -6.7920   23.8130 C   0  0  0  0  0  3  0  0  0  0  0  0
  -20.9870   -5.9910   24.9610 C   0  0  0  0  0  3  0  0  0  0  0  0
  -21.3510   -4.6300   24.9250 C   0  0  0  0  0  0  0  0  0  0  0  0
  -21.8700   -4.0720   23.7420 C   0  0  0  0  0  3  0  0  0  0  0  0
  -22.0090   -4.8670   22.5970 C   0  0  0  0  0  0  0  0  0  0  0  0
  -22.4930   -4.3300   21.4500 F   0  0  0  0  0  0  0  0  0  0  0  0
  -21.1870   -3.8520   26.0180 F   0  0  0  0  0  0  0  0  0  0  0  0
  -22.7800  -13.6250   21.0990 C   0  0  0  0  0  0  0  0  0  0  0  0
  -21.9740  -12.9600   21.9140 N   0  0  0  0  0  0  0  0  0  0  0  0
  -22.3870  -14.6530   20.5540 O   0  0  0  0  0  0  0  0  0  0  0  0
  -22.2330  -12.1000   22.3740 H   0  0  0  0  0  0  0  0  0  0  0  0
  -21.0500  -13.3400   22.0700 H   0  0  0  0  0  0  0  0  0  0  0  0
  -25.4950  -15.2150   20.3940 N   0  0  0  0  0  0  0  0  0  0  0  0
  -24.7480  -15.9020   20.3550 H   0  0  0  0  0  0  0  0  0  0  0  0
  -26.3610  -15.5950   20.0510 H   0  0  0  0  0  0  0  0  0  0  0  0
  -26.9900  -23.4980   19.1930 C   0  0  0  0  0  2  0  0  0  0  0  0
  -28.2110  -24.4390   19.3350 C   0  0  0  0  0  2  0  0  0  0  0  0
  -28.1250  -25.3990   20.5470 C   0  0  0  0  0  2  0  0  0  0  0  0
  -28.3140  -26.7730   20.1880 O   0  0  0  0  0  0  0  0  0  0  0  0
  -24.5670  -31.9550   23.2890 C   0  0  0  0  0  0  0  0  0  0  0  0
  -27.1620  -27.5220   20.1730 C   0  0  0  0  0  0  0  0  0  0  0  0
  -23.3390  -30.5550   21.6630 C   0  0  0  0  0  3  0  0  0  0  0  0
  -24.7710  -29.0240   20.2150 C   0  0  0  0  0  0  0  0  0  0  0  0
  -25.8620  -30.9150   21.4330 C   0  0  0  0  0  2  0  0  0  0  0  0
  -25.9370  -29.5470   20.7900 C   0  0  0  0  0  0  0  0  0  0  0  0
  -27.1390  -28.8030   20.7620 C   0  0  0  0  0  3  0  0  0  0  0  0
  -25.9830  -27.0270   19.5730 C   0  0  0  0  0  3  0  0  0  0  0  0
  -24.7900  -27.7650   19.5990 C   0  0  0  0  0  3  0  0  0  0  0  0
  -23.5290  -29.8810   20.2790 C   0  0  0  0  0  2  0  0  0  0  0  0
  -24.6100  -31.1520   22.1880 N   0  0  0  0  0  0  0  0  0  0  0  0
  -23.4910  -32.2300   23.8420 O   0  0  0  0  0  0  0  0  0  0  0  0
  -22.7000  -29.5310   22.6290 C   0  0  0  0  0  0  0  0  0  0  0  0
  -21.3780  -29.3360   22.5030 N   0  0  0  0  0  0  0  0  0  0  0  0
  -23.3900  -28.9160   23.4470 O   0  0  0  0  0  0  0  0  0  0  0  0
  -20.8830  -29.8860   21.8150 H   0  0  0  0  0  0  0  0  0  0  0  0
  -18.0140  -28.1220   23.0080 C   0  0  0  0  0  0  0  0  0  0  0  0
  -20.5700  -28.4000   23.2810 C   0  0  0  0  0  3  0  0  0  0  0  0
  -20.6830  -26.9650   22.7160 C   0  0  0  0  0  2  0  0  0  0  0  0
  -19.5840  -26.6250   21.7050 C   0  0  0  0  0  2  0  0  0  0  0  0
  -18.2010  -26.7670   22.3470 C   0  0  0  0  0  2  0  0  0  0  0  0
  -19.1280  -28.8950   23.4320 C   0  0  0  0  0  0  0  0  0  0  0  0
  -18.9000  -30.1640   24.0080 C   0  0  0  0  0  3  0  0  0  0  0  0
  -17.5930  -30.6600   24.1670 C   0  0  0  0  0  3  0  0  0  0  0  0
  -16.4940  -29.8840   23.7610 C   0  0  0  0  0  3  0  0  0  0  0  0
  -16.7050  -28.6180   23.1860 C   0  0  0  0  0  3  0  0  0  0  0  0
  -25.8620  -32.5840   23.8900 C   0  0  0  0  0  3  0  0  0  0  0  0
  -25.5670  -33.9870   24.2050 N   0  0  0  0  0  0  0  0  0  0  0  0
  -25.9030  -35.0280   23.4330 C   0  0  0  0  0  0  0  0  0  0  0  0
  -26.5700  -34.9080   22.4000 O   0  0  0  0  0  0  0  0  0  0  0  0
  -24.9810  -34.1560   25.0100 H   0  0  0  0  0  0  0  0  0  0  0  0
  -24.1960  -36.8310   23.0450 C   0  0  0  0  0  1  0  0  0  0  0  0
  -25.4240  -36.4230   23.8730 C   0  0  0  0  0  3  0  0  0  0  0  0
  -27.5550  -37.2940   24.7220 C   0  0  0  0  0  1  0  0  0  0  0  0
  -26.4670  -37.4650   23.7660 N   0  0  0  0  0  0  0  0  0  0  0  0
  -26.0670  -38.3900   23.9040 H   0  0  0  0  0  0  0  0  0  0  0  0
  -26.3880  -31.8210   25.1680 C   0  0  1  0  0  0  0  0  0  0  0  0
  -25.3010  -31.5910   26.2440 C   0  0  0  0  0  1  0  0  0  0  0  0
  -26.9690  -30.4420   24.7770 C   0  0  0  0  0  1  0  0  0  0  0  0
  -27.5410  -32.6210   25.8200 C   0  0  0  0  0  1  0  0  0  0  0  0
  1  3  2  0
  2  1  1  0
  2 52  1  0
  4  2  1  0
  5 12  1  0
  5  1  1  0
  8 12  1  0
  9  8  1  0
  9  6  1  0
  9 10  1  0
 10  7  1  0
 10 22  1  0
 11  6  1  0
 11  7  1  0
 12 13  1  1
 12 11  1  0
 14 20  1  0
 15 20  1  0
 16 17  1  0
 16 15  1  0
 18 17  1  0
 18 27  1  0
 18 19  1  0
 20 19  1  0
 21 14  2  0
 22 14  1  0
 22 23  1  0
 24 25  2  0
 25 26  1  0
 25 44  1  0
 26 29  1  0
 27 24  1  0
 27 28  1  0
 28 26  2  0
 29 30  1  0
 30 31  2  0
 32 35  1  0
 32 31  1  0
 33 32  2  0
 34 33  1  0
 34 29  2  0
 35 36  1  0
 36 37  1  0
 37 38  2  0
 39 38  1  0
 39 43  1  0
 40 39  2  0
 41 36  2  0
 41 40  1  0
 42 41  1  0
 44 45  1  0
 45 48  1  0
 45 47  1  0
 46 44  2  0
 49 24  1  0
 50 49  1  0
 51 49  1  0
 52 53  1  0
 53 54  1  0
 55 54  1  0
 56 67  2  0
 57 55  1  0
 57 62  1  0
 58 66  1  0
 58 68  1  0
 59 65  1  0
 59 61  1  0
 60 66  1  0
 61 60  1  0
 62 61  2  0
 63 64  1  0
 63 57  2  0
 64 59  2  0
 65 58  1  0
 66 56  1  0
 68 70  2  0
 69 68  1  0
 71 69  1  0
 72 81  2  0
 72 77  1  0
 73 69  1  0
 73 77  1  0
 74 73  1  0
 75 76  1  0
 75 74  1  0
 76 72  1  0
 77 78  2  0
 78 79  1  0
 80 79  2  0
 81 80  1  0
 82 56  1  0
 82 83  1  0
 82 92  1  0
 83 86  1  0
 84 88  1  0
 84 83  1  0
 85 84  2  0
 88 87  1  0
 90 88  1  0
 90 91  1  0
 90 89  1  0
 92 95  1  1
 92 93  1  0
 94 92  1  0
M  ISO  4  14 100  22 100  54 101  55 101
M  END
>  <TORSDO>  (68) 
F 21

>  <SCORE>  (68) 
-13.159

>  <name>  (68) 
68

>  <ligand_id>  (68) 
68

>  <original_smiles>  (68) 
[H]c1c([H])c([H])c2c(c1[H])C([H])([H])C([H])([H])C([H])([H])C2([H])N([H])C(=O)C1([H])N(C(=O)C([H])(N([H])C(=O)C([H])(N([H])C([H])([H])[H])C([H])([H])[H])C(C([H])([H])[H])(C([H])([H])[H])C([H])([H])[H])C([H])([H])c2c([H])c(OC([H])([H])C([H])([H])C([H])([H])N([H])C(=O)C([H])([H])[N+]3([H])C([H])([H])C4([H])C([H])([H])C3([H])C([H])([H])C4([H])N([H])C(=O)N3C([H])([H])C([H])([H])C([H])([H])C([H])(n4nc(-c5c([H])c([H])c(Oc6c([H])c([H])c(F)c([H])c6F)c([H])c5[H])c(C(=O)N([H])[H])c4N([H])[H])C3([H])[H])c([H])c([H])c2C1([H])[H]

>  <smiles>  (68) 
[H]c1c([H])c([H])c2c(c1[H])C([H])([H])C([H])([H])C([H])([H])C2([H])N([H])C(=O)C1([H])N(C(=O)C([H])(N([H])C(=O)C([H])(N([H])C([H])([H])[H])C([H])([H])[H])C(C([H])([H])[H])(C([H])([H])[H])C([H])([H])[H])C([H])([H])c2c([H])c(OC([H])([H])C([H])([H])C([H])([H])N([H])C(=O)C([H])([H])[N+]3([H])C([H])([H])C4([H])C([H])([H])C3([H])C([H])([H])C4([H])N([H])C(=O)N3C([H])([H])C([H])([H])C([H])([H])C([H])(n4nc(-c5c([H])c([H])c(Oc6c([H])c([H])c(F)c([H])c6F)c([H])c5[H])c(C(=O)N([H])[H])c4N([H])[H])C3([H])[H])c([H])c([H])c2C1([H])[H]

$$$$
69:0:0
     RDKit          3D

 96105  0  0  1  0  0  0  0  0999 V2000
  -30.3680  -22.0660   23.1000 C   0  0  0  0  0  2  0  0  0  0  0  0
  -31.4480  -21.7190   22.0730 C   0  0  0  0  0  2  0  0  0  0  0  0
  -29.4070  -23.0000   22.3450 C   0  0  0  0  0  2  0  0  0  0  0  0
  -30.7240  -21.7830   20.7120 C   0  0  0  0  0  3  0  0  0  0  0  0
  -29.6850  -22.8270   20.8980 N   0  0  2  0  0  4  0  0  0  0  0  0
  -28.8970  -22.3170   20.5110 H   0  0  0  0  0  0  0  0  0  0  0  0
  -29.9800  -20.4700   20.3360 C   0  0  0  0  0  0  0  0  0  0  0  0
  -30.5740  -19.2870   20.5900 N   0  0  0  0  0  0  0  0  0  0  0  0
  -28.8470  -20.5500   19.8510 O   0  0  0  0  0  0  0  0  0  0  0  0
  -31.5010  -19.3320   20.9960 H   0  0  0  0  0  0  0  0  0  0  0  0
  -30.9570  -14.4900   19.7550 C   0  0  0  0  0  0  0  0  0  0  0  0
  -30.3200  -12.4570   18.5130 C   0  0  0  0  0  2  0  0  0  0  0  0
  -29.2810  -12.7770   17.4200 C   0  0  0  0  0  2  0  0  0  0  0  0
  -27.8640  -12.5870   17.9880 C   0  0  0  0  0  2  0  0  0  0  0  0
  -27.6660  -13.3480   19.3260 C   0  0  0  0  0  3  0  0  0  0  0  0
  -28.8370  -13.1050   20.3010 C   0  0  0  0  0  2  0  0  0  0  0  0
  -30.1230  -13.4020   19.6300 N   0  0  0  0  0  0  0  0  0  0  0  0
  -31.9190  -14.6270   18.9990 O   0  0  0  0  0  0  0  0  0  0  0  0
  -28.9250  -16.1930   22.1130 C   0  0  0  0  0  2  0  0  0  0  0  0
  -29.0170  -17.6610   21.6430 C   0  0  0  0  0  2  0  0  0  0  0  0
  -30.2600  -15.4350   21.9770 C   0  0  0  0  0  2  0  0  0  0  0  0
  -31.1360  -16.9040   20.3190 C   0  0  0  0  0  2  0  0  0  0  0  0
  -29.9880  -17.9450   20.4520 C   0  0  0  0  0  3  0  0  0  0  0  0
  -30.6380  -15.5310   20.5710 N   0  0  0  0  0  0  0  0  0  0  0  0
  -25.3930  -13.8620   20.4180 C   0  0  0  0  0  0  0  0  0  0  0  0
  -24.3820  -13.0550   20.8600 C   0  0  0  0  0  0  0  0  0  0  0  0
  -24.8150  -11.7130   20.6340 C   0  0  0  0  0  0  0  0  0  0  0  0
  -26.3860  -13.0150   19.9530 N   0  0  0  0  0  0  0  0  0  0  0  0
  -26.0510  -11.7110   20.1460 N   0  0  0  0  0  0  0  0  0  0  0  0
  -24.1080  -10.4400   20.8050 C   0  0  0  0  0  0  0  0  0  0  0  0
  -24.6300   -9.4010   21.6060 C   0  0  0  0  0  3  0  0  0  0  0  0
  -23.9220   -8.1910   21.7670 C   0  0  0  0  0  3  0  0  0  0  0  0
  -22.6700   -8.0090   21.1250 C   0  0  0  0  0  0  0  0  0  0  0  0
  -22.1620   -9.0390   20.3130 C   0  0  0  0  0  3  0  0  0  0  0  0
  -22.8710  -10.2390   20.1520 C   0  0  0  0  0  3  0  0  0  0  0  0
  -21.9190   -6.8630   21.2040 O   0  0  0  0  0  0  0  0  0  0  0  0
  -21.9650   -6.0450   22.3050 C   0  0  0  0  0  0  0  0  0  0  0  0
  -21.6860   -6.5270   23.6030 C   0  0  0  0  0  3  0  0  0  0  0  0
  -21.6760   -5.6370   24.6950 C   0  0  0  0  0  3  0  0  0  0  0  0
  -21.9300   -4.2680   24.4920 C   0  0  0  0  0  0  0  0  0  0  0  0
  -22.1970   -3.7850   23.2000 C   0  0  0  0  0  3  0  0  0  0  0  0
  -22.2110   -4.6720   22.1090 C   0  0  0  0  0  0  0  0  0  0  0  0
  -22.4500   -4.1950   20.8610 F   0  0  0  0  0  0  0  0  0  0  0  0
  -21.9090   -3.4120   25.5430 F   0  0  0  0  0  0  0  0  0  0  0  0
  -23.0380  -13.4990   21.3610 C   0  0  0  0  0  0  0  0  0  0  0  0
  -22.4310  -12.7420   22.2660 N   0  0  0  0  0  0  0  0  0  0  0  0
  -22.5360  -14.5550   20.9780 O   0  0  0  0  0  0  0  0  0  0  0  0
  -22.8460  -11.8850   22.6030 H   0  0  0  0  0  0  0  0  0  0  0  0
  -21.5300  -13.0260   22.6230 H   0  0  0  0  0  0  0  0  0  0  0  0
  -25.5450  -15.2440   20.3470 N   0  0  0  0  0  0  0  0  0  0  0  0
  -24.8090  -15.8820   20.6280 H   0  0  0  0  0  0  0  0  0  0  0  0
  -26.3170  -15.7050   19.8800 H   0  0  0  0  0  0  0  0  0  0  0  0
  -29.7310  -24.0690   20.0700 C   0  0  0  0  0  2  0  0  0  0  0  0
  -30.5380  -25.2940   20.6100 C   0  0  0  0  0  2  0  0  0  0  0  0
  -29.7090  -26.6050   20.7810 C   0  0  0  0  0  2  0  0  0  0  0  0
  -28.7580  -26.6870   19.7300 O   0  0  0  0  0  0  0  0  0  0  0  0
  -24.7200  -31.6060   23.1190 C   0  0  0  0  0  0  0  0  0  0  0  0
  -27.5890  -27.3940   19.9050 C   0  0  0  0  0  0  0  0  0  0  0  0
  -23.5850  -30.1960   21.4340 C   0  0  0  0  0  3  0  0  0  0  0  0
  -25.1140  -28.7600   19.9840 C   0  0  0  0  0  0  0  0  0  0  0  0
  -26.0930  -30.6710   21.2610 C   0  0  0  0  0  2  0  0  0  0  0  0
  -26.2470  -29.3200   20.5960 C   0  0  0  0  0  0  0  0  0  0  0  0
  -27.4870  -28.6390   20.5680 C   0  0  0  0  0  3  0  0  0  0  0  0
  -26.4400  -26.8450   19.3000 C   0  0  0  0  0  3  0  0  0  0  0  0
  -25.2040  -27.5140   19.3430 C   0  0  0  0  0  3  0  0  0  0  0  0
  -23.8320  -29.5610   20.0400 C   0  0  0  0  0  2  0  0  0  0  0  0
  -24.8160  -30.8390   21.9960 N   0  0  0  0  0  0  0  0  0  0  0  0
  -23.6260  -31.8130   23.6610 O   0  0  0  0  0  0  0  0  0  0  0  0
  -22.9760  -29.1210   22.3620 C   0  0  0  0  0  0  0  0  0  0  0  0
  -21.6610  -28.8840   22.2250 N   0  0  0  0  0  0  0  0  0  0  0  0
  -23.6830  -28.5030   23.1610 O   0  0  0  0  0  0  0  0  0  0  0  0
  -21.1480  -29.4370   21.5530 H   0  0  0  0  0  0  0  0  0  0  0  0
  -18.3410  -27.5370   22.6790 C   0  0  0  0  0  0  0  0  0  0  0  0
  -20.8860  -27.8910   22.9650 C   0  0  0  0  0  3  0  0  0  0  0  0
  -21.0480  -26.4830   22.3470 C   0  0  0  0  0  2  0  0  0  0  0  0
  -19.9610  -26.1450   21.3210 C   0  0  0  0  0  2  0  0  0  0  0  0
  -18.5730  -26.2160   21.9650 C   0  0  0  0  0  2  0  0  0  0  0  0
  -19.4270  -28.3300   23.1350 C   0  0  0  0  0  0  0  0  0  0  0  0
  -19.1550  -29.5650   23.7620 C   0  0  0  0  0  3  0  0  0  0  0  0
  -17.8320  -30.0100   23.9360 C   0  0  0  0  0  3  0  0  0  0  0  0
  -16.7600  -29.2130   23.4980 C   0  0  0  0  0  3  0  0  0  0  0  0
  -17.0150  -27.9780   22.8750 C   0  0  0  0  0  3  0  0  0  0  0  0
  -25.9750  -32.2770   23.7590 C   0  0  0  0  0  3  0  0  0  0  0  0
  -26.5220  -31.4990   25.0180 C   0  0  1  0  0  0  0  0  0  0  0  0
  -25.4390  -31.1870   26.0750 C   0  0  0  0  0  1  0  0  0  0  0  0
  -27.1680  -30.1590   24.5940 C   0  0  0  0  0  1  0  0  0  0  0  0
  -27.6300  -32.3290   25.7050 C   0  0  0  0  0  1  0  0  0  0  0  0
  -25.6040  -33.6520   24.1180 N   0  0  0  0  0  0  0  0  0  0  0  0
  -25.8930  -34.7340   23.3820 C   0  0  0  0  0  0  0  0  0  0  0  0
  -26.5700  -34.6810   22.3510 O   0  0  0  0  0  0  0  0  0  0  0  0
  -25.0030  -33.7640   24.9200 H   0  0  0  0  0  0  0  0  0  0  0  0
  -24.0850  -36.4530   23.0560 C   0  0  0  0  0  1  0  0  0  0  0  0
  -25.3410  -36.0890   23.8640 C   0  0  0  0  0  3  0  0  0  0  0  0
  -27.4370  -37.0460   24.7140 C   0  0  0  0  0  1  0  0  0  0  0  0
  -26.3240  -37.1900   23.7790 N   0  0  0  0  0  0  0  0  0  0  0  0
  -25.8770  -38.0860   23.9570 H   0  0  0  0  0  0  0  0  0  0  0  0
  2  1  1  0
  3  1  1  0
  4  7  1  0
  4  5  1  0
  4  2  1  0
  5  3  1  0
  5  6  1  6
  7  8  1  0
  8 10  1  0
  9  7  2  0
 11 24  1  0
 12 17  1  0
 13 14  1  0
 13 12  1  0
 15 14  1  0
 15 28  1  0
 15 16  1  0
 17 11  1  0
 17 16  1  0
 18 11  2  0
 20 19  1  0
 21 19  1  0
 22 23  1  0
 22 24  1  0
 23  8  1  0
 23 20  1  0
 24 21  1  0
 25 26  2  0
 26 45  1  0
 27 30  1  0
 27 26  1  0
 28 29  1  0
 28 25  1  0
 29 27  2  0
 30 31  1  0
 31 32  2  0
 33 36  1  0
 33 32  1  0
 34 33  2  0
 35 34  1  0
 35 30  2  0
 36 37  1  0
 37 38  1  0
 38 39  2  0
 40 39  1  0
 40 44  1  0
 41 40  2  0
 42 37  2  0
 42 41  1  0
 43 42  1  0
 45 46  1  0
 46 48  1  0
 46 49  1  0
 47 45  2  0
 50 25  1  0
 50 51  1  0
 52 50  1  0
 53 54  1  0
 53  5  1  0
 54 55  1  0
 56 58  1  0
 56 55  1  0
 57 68  2  0
 58 63  1  0
 59 67  1  0
 59 69  1  0
 60 66  1  0
 60 62  1  0
 61 67  1  0
 62 61  1  0
 63 62  2  0
 64 65  1  0
 64 58  2  0
 65 60  2  0
 66 59  1  0
 67 57  1  0
 69 71  2  0
 70 69  1  0
 72 70  1  0
 73 82  2  0
 73 78  1  0
 74 70  1  0
 74 78  1  0
 75 74  1  0
 76 77  1  0
 76 75  1  0
 77 73  1  0
 78 79  2  0
 79 80  1  0
 81 80  2  0
 82 81  1  0
 83 57  1  0
 83 88  1  0
 83 84  1  0
 84 87  1  1
 84 85  1  0
 86 84  1  0
 88 91  1  0
 89 93  1  0
 89 88  1  0
 90 89  2  0
 93 92  1  0
 95 93  1  0
 95 96  1  0
 95 94  1  0
M  ISO  4  11 100  24 100  55 101  56 101
M  END
>  <TORSDO>  (69) 
F 20

>  <SCORE>  (69) 
-9.803

>  <name>  (69) 
69

>  <ligand_id>  (69) 
69

>  <original_smiles>  (69) 
[H]c1c([H])c([H])c2c(c1[H])C([H])([H])C([H])([H])C([H])([H])C2([H])N([H])C(=O)C1([H])N(C(=O)C([H])(N([H])C(=O)C([H])(N([H])C([H])([H])[H])C([H])([H])[H])C(C([H])([H])[H])(C([H])([H])[H])C([H])([H])[H])C([H])([H])c2c([H])c(OC([H])([H])C([H])([H])C([H])([H])[N+]3([H])C([H])([H])C([H])([H])C([H])([H])C3([H])C(=O)N([H])C3([H])C([H])([H])N(C(=O)N4C([H])([H])C([H])([H])C([H])([H])C([H])(n5nc(-c6c([H])c([H])c(Oc7c([H])c([H])c(F)c([H])c7F)c([H])c6[H])c(C(=O)N([H])[H])c5N([H])[H])C4([H])[H])C([H])([H])C([H])([H])C3([H])[H])c([H])c([H])c2C1([H])[H]

>  <smiles>  (69) 
[H]c1c([H])c([H])c2c(c1[H])C([H])([H])C([H])([H])C([H])([H])C2([H])N([H])C(=O)C1([H])N(C(=O)C([H])(N([H])C(=O)C([H])(N([H])C([H])([H])[H])C([H])([H])[H])C(C([H])([H])[H])(C([H])([H])[H])C([H])([H])[H])C([H])([H])c2c([H])c(OC([H])([H])C([H])([H])C([H])([H])[N+]3([H])C([H])([H])C([H])([H])C([H])([H])C3([H])C(=O)N([H])C3([H])C([H])([H])N(C(=O)N4C([H])([H])C([H])([H])C([H])([H])C([H])(n5nc(-c6c([H])c([H])c(Oc7c([H])c([H])c(F)c([H])c7F)c([H])c6[H])c(C(=O)N([H])[H])c5N([H])[H])C4([H])[H])C([H])([H])C([H])([H])C3([H])[H])c([H])c([H])c2C1([H])[H]

$$$$
70:0:0
     RDKit          3D

 98107  0  0  1  0  0  0  0  0999 V2000
  -32.6370  -22.0480   17.9360 C   0  0  0  0  0  2  0  0  0  0  0  0
  -31.8240  -23.3200   18.2050 C   0  0  0  0  0  2  0  0  0  0  0  0
  -32.1040  -21.0600   18.9630 C   0  0  0  0  0  3  0  0  0  0  0  0
  -30.6170  -21.4300   19.0350 C   0  0  0  0  0  3  0  0  0  0  0  0
  -30.5750  -22.9130   18.9080 N   0  0  2  0  0  4  0  0  0  0  0  0
  -32.7010  -21.3010   20.1340 F   0  0  0  0  0  0  0  0  0  0  0  0
  -30.6570  -23.2840   19.8440 H   0  0  0  0  0  0  0  0  0  0  0  0
  -29.8810  -20.8860   20.2860 C   0  0  0  0  0  2  0  0  0  0  0  0
  -29.5510  -18.4930   19.4490 C   0  0  0  0  0  3  0  0  0  0  0  0
  -30.4480  -18.8390   21.6870 C   0  0  0  0  0  3  0  0  0  0  0  0
  -29.6310  -17.0990   19.6350 C   0  0  0  0  0  3  0  0  0  0  0  0
  -30.5180  -17.4440   21.8800 C   0  0  0  0  0  3  0  0  0  0  0  0
  -29.9690  -19.3730   20.4710 C   0  0  0  0  0  0  0  0  0  0  0  0
  -30.1240  -16.5690   20.8490 C   0  0  0  0  0  0  0  0  0  0  0  0
  -30.7040  -14.2880   20.2230 C   0  0  0  0  0  0  0  0  0  0  0  0
  -30.2930  -12.2290   18.9400 C   0  0  0  0  0  2  0  0  0  0  0  0
  -29.3010  -12.5470   17.8010 C   0  0  0  0  0  2  0  0  0  0  0  0
  -27.8440  -12.4290   18.2920 C   0  0  0  0  0  2  0  0  0  0  0  0
  -27.5950  -13.1860   19.6250 C   0  0  0  0  0  3  0  0  0  0  0  0
  -28.6890  -12.8370   20.6590 C   0  0  0  0  0  2  0  0  0  0  0  0
  -30.0050  -13.1350   20.0600 N   0  0  0  0  0  0  0  0  0  0  0  0
  -31.7500  -14.5430   19.6160 O   0  0  0  0  0  0  0  0  0  0  0  0
  -30.1520  -15.1700   21.0660 N   0  0  0  0  0  0  0  0  0  0  0  0
  -29.4290  -14.8010   21.6650 H   0  0  0  0  0  0  0  0  0  0  0  0
  -25.2240  -13.8090   20.4200 C   0  0  0  0  0  0  0  0  0  0  0  0
  -24.1660  -13.0420   20.8240 C   0  0  0  0  0  0  0  0  0  0  0  0
  -24.6150  -11.6880   20.7660 C   0  0  0  0  0  0  0  0  0  0  0  0
  -26.2560  -12.9220   20.1460 N   0  0  0  0  0  0  0  0  0  0  0  0
  -25.8910  -11.6400   20.4080 N   0  0  0  0  0  0  0  0  0  0  0  0
  -23.8860  -10.4300   20.9780 C   0  0  0  0  0  0  0  0  0  0  0  0
  -24.3340   -9.4650   21.9080 C   0  0  0  0  0  3  0  0  0  0  0  0
  -23.6090   -8.2700   22.1050 C   0  0  0  0  0  3  0  0  0  0  0  0
  -22.4220   -8.0320   21.3730 C   0  0  0  0  0  0  0  0  0  0  0  0
  -21.9930   -8.9850   20.4320 C   0  0  0  0  0  3  0  0  0  0  0  0
  -22.7170  -10.1710   20.2320 C   0  0  0  0  0  3  0  0  0  0  0  0
  -21.6680   -6.8880   21.4780 O   0  0  0  0  0  0  0  0  0  0  0  0
  -21.6270   -6.1580   22.6390 C   0  0  0  0  0  0  0  0  0  0  0  0
  -21.1910   -6.7220   23.8580 C   0  0  0  0  0  3  0  0  0  0  0  0
  -21.0970   -5.9170   25.0130 C   0  0  0  0  0  3  0  0  0  0  0  0
  -21.4300   -4.5520   24.9480 C   0  0  0  0  0  0  0  0  0  0  0  0
  -21.8580   -3.9880   23.7340 C   0  0  0  0  0  3  0  0  0  0  0  0
  -21.9540   -4.7880   22.5830 C   0  0  0  0  0  0  0  0  0  0  0  0
  -22.3460   -4.2340   21.4100 F   0  0  0  0  0  0  0  0  0  0  0  0
  -21.3330   -3.7770   26.0540 F   0  0  0  0  0  0  0  0  0  0  0  0
  -22.7830  -13.5270   21.1570 C   0  0  0  0  0  0  0  0  0  0  0  0
  -22.0890  -12.8340   22.0520 N   0  0  0  0  0  0  0  0  0  0  0  0
  -22.3290  -14.5560   20.6590 O   0  0  0  0  0  0  0  0  0  0  0  0
  -22.4700  -12.0030   22.4800 H   0  0  0  0  0  0  0  0  0  0  0  0
  -21.1640  -13.1420   22.3160 H   0  0  0  0  0  0  0  0  0  0  0  0
  -25.3940  -15.1800   20.2450 N   0  0  0  0  0  0  0  0  0  0  0  0
  -24.6400  -15.8430   20.3860 H   0  0  0  0  0  0  0  0  0  0  0  0
  -26.2430  -15.6120   19.9010 H   0  0  0  0  0  0  0  0  0  0  0  0
  -29.3210  -23.4460   18.2990 C   0  0  0  0  0  2  0  0  0  0  0  0
  -28.1730  -25.5050   17.3900 C   0  0  0  0  0  1  0  0  0  0  0  0
  -29.0720  -24.9710   18.5180 C   0  0  2  0  0  0  0  0  0  0  0  0
  -30.2280  -25.6260   18.4040 F   0  0  0  0  0  0  0  0  0  0  0  0
  -28.4870  -25.2830   19.9230 C   0  0  0  0  0  2  0  0  0  0  0  0
  -28.4230  -26.6890   20.2040 O   0  0  0  0  0  0  0  0  0  0  0  0
  -24.5580  -31.8210   23.2390 C   0  0  0  0  0  0  0  0  0  0  0  0
  -27.2160  -27.3600   20.1960 C   0  0  0  0  0  0  0  0  0  0  0  0
  -23.3610  -30.4250   21.5850 C   0  0  0  0  0  3  0  0  0  0  0  0
  -24.8200  -28.8710   20.1880 C   0  0  0  0  0  0  0  0  0  0  0  0
  -25.8910  -30.7680   21.4160 C   0  0  0  0  0  2  0  0  0  0  0  0
  -25.9750  -29.3940   20.7820 C   0  0  0  0  0  0  0  0  0  0  0  0
  -27.1730  -28.6480   20.7780 C   0  0  0  0  0  3  0  0  0  0  0  0
  -26.0330  -26.8420   19.6170 C   0  0  0  0  0  3  0  0  0  0  0  0
  -24.8440  -27.5920   19.6060 C   0  0  0  0  0  3  0  0  0  0  0  0
  -23.5830  -29.7380   20.2110 C   0  0  0  0  0  2  0  0  0  0  0  0
  -24.6210  -31.0180   22.1390 N   0  0  0  0  0  0  0  0  0  0  0  0
  -23.4710  -32.1040   23.7640 O   0  0  0  0  0  0  0  0  0  0  0  0
  -22.6900  -29.4120   22.5380 C   0  0  0  0  0  0  0  0  0  0  0  0
  -21.3650  -29.2410   22.3930 N   0  0  0  0  0  0  0  0  0  0  0  0
  -23.3560  -28.7800   23.3620 O   0  0  0  0  0  0  0  0  0  0  0  0
  -20.8910  -29.8030   21.6990 H   0  0  0  0  0  0  0  0  0  0  0  0
  -17.9710  -28.0990   22.8560 C   0  0  0  0  0  0  0  0  0  0  0  0
  -20.5280  -28.3140   23.1520 C   0  0  0  0  0  3  0  0  0  0  0  0
  -20.6150  -26.8840   22.5710 C   0  0  0  0  0  2  0  0  0  0  0  0
  -19.5170  -26.5830   21.5460 C   0  0  0  0  0  2  0  0  0  0  0  0
  -18.1320  -26.7490   22.1780 C   0  0  0  0  0  2  0  0  0  0  0  0
  -19.0980  -28.8410   23.2980 C   0  0  0  0  0  0  0  0  0  0  0  0
  -18.8940  -30.1060   23.8900 C   0  0  0  0  0  3  0  0  0  0  0  0
  -17.5960  -30.6300   24.0430 C   0  0  0  0  0  3  0  0  0  0  0  0
  -16.4830  -29.8830   23.6170 C   0  0  0  0  0  3  0  0  0  0  0  0
  -16.6720  -28.6200   23.0300 C   0  0  0  0  0  3  0  0  0  0  0  0
  -25.8410  -32.4410   23.8760 C   0  0  0  0  0  3  0  0  0  0  0  0
  -25.5430  -33.8440   24.1920 N   0  0  0  0  0  0  0  0  0  0  0  0
  -25.9000  -34.8870   23.4310 C   0  0  0  0  0  0  0  0  0  0  0  0
  -26.5870  -34.7690   22.4120 O   0  0  0  0  0  0  0  0  0  0  0  0
  -24.9360  -34.0120   24.9810 H   0  0  0  0  0  0  0  0  0  0  0  0
  -24.2020  -36.6970   23.0280 C   0  0  0  0  0  1  0  0  0  0  0  0
  -25.4200  -36.2840   23.8700 C   0  0  0  0  0  3  0  0  0  0  0  0
  -27.5450  -37.1470   24.7450 C   0  0  0  0  0  1  0  0  0  0  0  0
  -26.4680  -37.3230   23.7750 N   0  0  0  0  0  0  0  0  0  0  0  0
  -26.0690  -38.2490   23.9080 H   0  0  0  0  0  0  0  0  0  0  0  0
  -26.3330  -31.6700   25.1610 C   0  0  1  0  0  0  0  0  0  0  0  0
  -25.2230  -31.4470   26.2140 C   0  0  0  0  0  1  0  0  0  0  0  0
  -26.9070  -30.2860   24.7790 C   0  0  0  0  0  1  0  0  0  0  0  0
  -27.4810  -32.4560   25.8350 C   0  0  0  0  0  1  0  0  0  0  0  0
  1  2  1  0
  1  3  1  0
  2  5  1  0
  3  4  1  0
  3  6  1  0
  4  8  1  0
  5  4  1  0
  5  7  1  1
  8 13  1  0
  9 11  2  0
  9 13  1  0
 10 12  1  0
 11 14  1  0
 13 10  2  0
 14 23  1  0
 14 12  2  0
 15 23  1  0
 16 21  1  0
 17 18  1  0
 17 16  1  0
 19 18  1  0
 19 28  1  0
 19 20  1  0
 21 15  1  0
 21 20  1  0
 22 15  2  0
 23 24  1  0
 25 26  2  0
 26 45  1  0
 27 26  1  0
 27 30  1  0
 28 29  1  0
 28 25  1  0
 29 27  2  0
 30 31  1  0
 31 32  2  0
 33 36  1  0
 33 32  1  0
 34 33  2  0
 35 34  1  0
 35 30  2  0
 36 37  1  0
 37 38  1  0
 38 39  2  0
 40 39  1  0
 40 44  1  0
 41 40  2  0
 42 37  2  0
 42 41  1  0
 43 42  1  0
 45 46  1  0
 46 49  1  0
 46 48  1  0
 47 45  2  0
 50 51  1  0
 50 25  1  0
 52 50  1  0
 53 55  1  0
 53  5  1  0
 55 54  1  6
 55 57  1  0
 56 55  1  0
 57 58  1  0
 59 70  2  0
 60 58  1  0
 60 65  1  0
 61 69  1  0
 61 71  1  0
 62 68  1  0
 62 64  1  0
 63 69  1  0
 64 63  1  0
 65 64  2  0
 66 60  2  0
 67 66  1  0
 67 62  2  0
 68 61  1  0
 69 59  1  0
 71 73  2  0
 72 71  1  0
 74 72  1  0
 75 84  2  0
 75 80  1  0
 76 72  1  0
 76 80  1  0
 77 76  1  0
 78 79  1  0
 78 77  1  0
 79 75  1  0
 80 81  2  0
 81 82  1  0
 83 82  2  0
 84 83  1  0
 85 59  1  0
 85 86  1  0
 85 95  1  0
 86 89  1  0
 87 91  1  0
 87 86  1  0
 88 87  2  0
 91 90  1  0
 93 91  1  0
 93 94  1  0
 93 92  1  0
 95 98  1  1
 95 96  1  0
 97 95  1  0
M  ISO  4  15 100  23 100  57 101  58 101
M  END
>  <TORSDO>  (70) 
F 21

>  <SCORE>  (70) 
-13.508

>  <name>  (70) 
70

>  <ligand_id>  (70) 
70

>  <original_smiles>  (70) 
[H]c1c([H])c([H])c2c(c1[H])C([H])([H])C([H])([H])C([H])([H])C2([H])N([H])C(=O)C1([H])N(C(=O)C([H])(N([H])C(=O)C([H])(N([H])C([H])([H])[H])C([H])([H])[H])C(C([H])([H])[H])(C([H])([H])[H])C([H])([H])[H])C([H])([H])c2c([H])c(OC([H])([H])C(F)(C([H])([H])[H])C([H])([H])[N+]3([H])C([H])([H])C([H])([H])C([H])(F)C3([H])C([H])([H])c3c([H])c([H])c(N([H])C(=O)N4C([H])([H])C([H])([H])C([H])([H])C([H])(n5nc(-c6c([H])c([H])c(Oc7c([H])c([H])c(F)c([H])c7F)c([H])c6[H])c(C(=O)N([H])[H])c5N([H])[H])C4([H])[H])c([H])c3[H])c([H])c([H])c2C1([H])[H]

>  <smiles>  (70) 
[H]c1c([H])c([H])c2c(c1[H])C([H])([H])C([H])([H])C([H])([H])C2([H])N([H])C(=O)C1([H])N(C(=O)C([H])(N([H])C(=O)C([H])(N([H])C([H])([H])[H])C([H])([H])[H])C(C([H])([H])[H])(C([H])([H])[H])C([H])([H])[H])C([H])([H])c2c([H])c(OC([H])([H])C(F)(C([H])([H])[H])C([H])([H])[N+]3([H])C([H])([H])C([H])([H])C([H])(F)C3([H])C([H])([H])c3c([H])c([H])c(N([H])C(=O)N4C([H])([H])C([H])([H])C([H])([H])C([H])(n5nc(-c6c([H])c([H])c(Oc7c([H])c([H])c(F)c([H])c7F)c([H])c6[H])c(C(=O)N([H])[H])c5N([H])[H])C4([H])[H])c([H])c3[H])c([H])c([H])c2C1([H])[H]

$$$$
73:0:0
     RDKit          3D

 91 99  0  0  1  0  0  0  0  0999 V2000
  -29.4620  -20.5040   19.2180 C   0  0  0  0  0  3  0  0  0  0  0  0
  -29.7080  -19.1000   19.3190 C   0  0  0  0  0  3  0  0  0  0  0  0
  -30.2630  -20.8150   21.4740 C   0  0  0  0  0  3  0  0  0  0  0  0
  -29.7860  -21.4030   20.2720 C   0  0  0  0  0  0  0  0  0  0  0  0
  -30.3000  -18.5330   20.4810 C   0  0  0  0  0  0  0  0  0  0  0  0
  -30.5250  -19.4180   21.5750 C   0  0  0  0  0  0  0  0  0  0  0  0
  -31.1000  -18.9490   22.7110 F   0  0  0  0  0  0  0  0  0  0  0  0
  -29.8680  -22.9540   20.0370 C   0  0  0  0  0  2  0  0  0  0  0  0
  -28.6320  -23.9220   20.2620 C   0  0  0  0  0  3  0  0  0  0  0  0
  -28.4220  -24.0980   21.5710 F   0  0  0  0  0  0  0  0  0  0  0  0
  -28.7370  -25.3350   19.5290 C   0  0  0  0  0  2  0  0  0  0  0  0
  -28.5830  -26.6020   20.2560 O   0  0  0  0  0  0  0  0  0  0  0  0
  -24.6840  -31.8530   23.2250 C   0  0  0  0  0  0  0  0  0  0  0  0
  -27.4170  -27.3690   20.1860 C   0  0  0  0  0  0  0  0  0  0  0  0
  -23.5240  -30.4400   21.5670 C   0  0  0  0  0  3  0  0  0  0  0  0
  -25.0190  -28.9180   20.1600 C   0  0  0  0  0  0  0  0  0  0  0  0
  -26.0580  -30.8040   21.4220 C   0  0  0  0  0  2  0  0  0  0  0  0
  -26.1690  -29.4330   20.7720 C   0  0  0  0  0  0  0  0  0  0  0  0
  -27.3660  -28.6650   20.7810 C   0  0  0  0  0  3  0  0  0  0  0  0
  -26.2370  -26.8880   19.5750 C   0  0  0  0  0  3  0  0  0  0  0  0
  -25.0540  -27.6520   19.5570 C   0  0  0  0  0  3  0  0  0  0  0  0
  -23.7670  -29.7700   20.1910 C   0  0  0  0  0  2  0  0  0  0  0  0
  -24.7730  -31.0490   22.1290 N   0  0  0  0  0  0  0  0  0  0  0  0
  -23.5900  -32.1180   23.7440 O   0  0  0  0  0  0  0  0  0  0  0  0
  -22.8660  -29.4080   22.5140 C   0  0  0  0  0  0  0  0  0  0  0  0
  -21.5440  -29.2220   22.3740 N   0  0  0  0  0  0  0  0  0  0  0  0
  -23.5450  -28.7850   23.3360 O   0  0  0  0  0  0  0  0  0  0  0  0
  -21.0600  -29.7830   21.6900 H   0  0  0  0  0  0  0  0  0  0  0  0
  -18.1700  -28.0000   22.8280 C   0  0  0  0  0  0  0  0  0  0  0  0
  -20.7230  -28.2720   23.1260 C   0  0  0  0  0  3  0  0  0  0  0  0
  -20.8380  -26.8450   22.5410 C   0  0  0  0  0  2  0  0  0  0  0  0
  -19.7480  -26.5250   21.5120 C   0  0  0  0  0  2  0  0  0  0  0  0
  -18.3590  -26.6570   22.1420 C   0  0  0  0  0  2  0  0  0  0  0  0
  -19.2800  -28.7650   23.2740 C   0  0  0  0  0  0  0  0  0  0  0  0
  -19.0540  -30.0220   23.8750 C   0  0  0  0  0  3  0  0  0  0  0  0
  -17.7460  -30.5140   24.0360 C   0  0  0  0  0  3  0  0  0  0  0  0
  -16.6500  -29.7450   23.6100 C   0  0  0  0  0  3  0  0  0  0  0  0
  -16.8610  -28.4900   23.0110 C   0  0  0  0  0  3  0  0  0  0  0  0
  -25.9510  -32.5020   23.8690 C   0  0  0  0  0  3  0  0  0  0  0  0
  -26.4540  -31.7420   25.1590 C   0  0  1  0  0  0  0  0  0  0  0  0
  -25.3420  -31.4890   26.2040 C   0  0  0  0  0  1  0  0  0  0  0  0
  -27.0650  -30.3740   24.7820 C   0  0  0  0  0  1  0  0  0  0  0  0
  -27.5830  -32.5550   25.8390 C   0  0  0  0  0  1  0  0  0  0  0  0
  -25.6180  -33.8990   24.1870 N   0  0  0  0  0  0  0  0  0  0  0  0
  -25.9460  -34.9540   23.4280 C   0  0  0  0  0  0  0  0  0  0  0  0
  -26.6300  -34.8550   22.4070 O   0  0  0  0  0  0  0  0  0  0  0  0
  -25.0160  -34.0480   24.9820 H   0  0  0  0  0  0  0  0  0  0  0  0
  -24.1940  -36.7200   23.0550 C   0  0  0  0  0  1  0  0  0  0  0  0
  -25.4340  -36.3370   23.8760 C   0  0  0  0  0  3  0  0  0  0  0  0
  -27.5420  -37.2550   24.7320 C   0  0  0  0  0  1  0  0  0  0  0  0
  -26.4520  -37.4040   23.7710 N   0  0  0  0  0  0  0  0  0  0  0  0
  -26.0320  -38.3200   23.9130 H   0  0  0  0  0  0  0  0  0  0  0  0
  -30.9850  -17.1230   20.4530 C   0  0  0  0  0  2  0  0  0  0  0  0
  -30.9140  -14.6490   20.0030 C   0  0  0  0  0  0  0  0  0  0  0  0
  -30.5400  -12.4400   18.9450 C   0  0  0  0  0  2  0  0  0  0  0  0
  -29.5530  -12.5870   17.7690 C   0  0  0  0  0  2  0  0  0  0  0  0
  -28.1050  -12.4440   18.2720 C   0  0  0  0  0  2  0  0  0  0  0  0
  -27.8160  -13.3310   19.5140 C   0  0  0  0  0  3  0  0  0  0  0  0
  -28.9200  -13.1940   20.5860 C   0  0  0  0  0  2  0  0  0  0  0  0
  -30.2040  -13.4830   19.9340 N   0  0  0  0  0  0  0  0  0  0  0  0
  -32.0830  -14.6950   19.6120 O   0  0  0  0  0  0  0  0  0  0  0  0
  -30.2650  -15.8110   20.3270 N   0  0  0  0  0  0  0  0  0  0  0  0
  -29.2810  -15.7750   20.5480 H   0  0  0  0  0  0  0  0  0  0  0  0
  -25.4720  -13.9640   20.3430 C   0  0  0  0  0  0  0  0  0  0  0  0
  -24.4090  -13.2050   20.7500 C   0  0  0  0  0  0  0  0  0  0  0  0
  -24.8470  -11.8460   20.6980 C   0  0  0  0  0  0  0  0  0  0  0  0
  -26.4910  -13.0680   20.0620 N   0  0  0  0  0  0  0  0  0  0  0  0
  -26.1230  -11.7900   20.3380 N   0  0  0  0  0  0  0  0  0  0  0  0
  -24.1100  -10.5950   20.9130 C   0  0  0  0  0  0  0  0  0  0  0  0
  -24.5490   -9.6300   21.8480 C   0  0  0  0  0  3  0  0  0  0  0  0
  -23.8140   -8.4420   22.0470 C   0  0  0  0  0  3  0  0  0  0  0  0
  -22.6250   -8.2120   21.3150 C   0  0  0  0  0  0  0  0  0  0  0  0
  -22.2060   -9.1630   20.3710 C   0  0  0  0  0  3  0  0  0  0  0  0
  -22.9420  -10.3440   20.1680 C   0  0  0  0  0  3  0  0  0  0  0  0
  -21.8580   -7.0770   21.4280 O   0  0  0  0  0  0  0  0  0  0  0  0
  -21.7960   -6.3630   22.5990 C   0  0  0  0  0  0  0  0  0  0  0  0
  -21.3500   -6.9450   23.8050 C   0  0  0  0  0  3  0  0  0  0  0  0
  -21.2380   -6.1560   24.9670 C   0  0  0  0  0  3  0  0  0  0  0  0
  -21.5590   -4.7860   24.9250 C   0  0  0  0  0  0  0  0  0  0  0  0
  -21.9990   -4.2060   23.7220 C   0  0  0  0  0  3  0  0  0  0  0  0
  -22.1150   -4.9910   22.5620 C   0  0  0  0  0  0  0  0  0  0  0  0
  -22.5190   -4.4200   21.4020 F   0  0  0  0  0  0  0  0  0  0  0  0
  -21.4450   -4.0270   26.0380 F   0  0  0  0  0  0  0  0  0  0  0  0
  -23.0310  -13.7020   21.0790 C   0  0  0  0  0  0  0  0  0  0  0  0
  -22.3320  -13.0170   21.9740 N   0  0  0  0  0  0  0  0  0  0  0  0
  -22.5870  -14.7340   20.5750 O   0  0  0  0  0  0  0  0  0  0  0  0
  -22.7060  -12.1800   22.3960 H   0  0  0  0  0  0  0  0  0  0  0  0
  -21.4100  -13.3330   22.2440 H   0  0  0  0  0  0  0  0  0  0  0  0
  -25.6550  -15.3310   20.1670 N   0  0  0  0  0  0  0  0  0  0  0  0
  -24.9060  -16.0000   20.3100 H   0  0  0  0  0  0  0  0  0  0  0  0
  -26.5010  -15.7620   19.8180 H   0  0  0  0  0  0  0  0  0  0  0  0
  1  2  2  0
  1  4  1  0
  2  5  1  0
  3  6  1  0
  4  3  2  0
  5  6  2  0
  6  7  1  0
  8  9  1  0
  8  4  1  0
  9 10  1  0
 11 12  1  0
 11  9  1  0
 13 24  2  0
 14 12  1  0
 14 19  1  0
 15 23  1  0
 15 25  1  0
 16 22  1  0
 16 18  1  0
 17 23  1  0
 18 19  2  0
 18 17  1  0
 20 14  2  0
 21 20  1  0
 21 16  2  0
 22 15  1  0
 23 13  1  0
 25 27  2  0
 26 25  1  0
 28 26  1  0
 29 38  2  0
 29 34  1  0
 30 26  1  0
 30 34  1  0
 31 30  1  0
 32 33  1  0
 32 31  1  0
 33 29  1  0
 34 35  2  0
 35 36  1  0
 37 36  2  0
 38 37  1  0
 39 13  1  0
 39 44  1  0
 39 40  1  0
 40 43  1  1
 40 41  1  0
 42 40  1  0
 44 47  1  0
 45 49  1  0
 45 44  1  0
 46 45  2  0
 49 48  1  0
 51 49  1  0
 51 52  1  0
 51 50  1  0
 53  5  1  0
 54 62  1  0
 55 60  1  0
 56 57  1  0
 56 55  1  0
 58 57  1  0
 58 67  1  0
 58 59  1  0
 60 54  1  0
 60 59  1  0
 61 54  2  0
 62 53  1  0
 62 63  1  0
 64 65  2  0
 65 84  1  0
 66 65  1  0
 66 69  1  0
 67 68  1  0
 67 64  1  0
 68 66  2  0
 69 70  1  0
 70 71  2  0
 72 75  1  0
 72 71  1  0
 73 72  2  0
 74 73  1  0
 74 69  2  0
 75 76  1  0
 76 77  1  0
 77 78  2  0
 79 78  1  0
 79 83  1  0
 80 79  2  0
 81 76  2  0
 81 80  1  0
 82 81  1  0
 84 85  1  0
 85 88  1  0
 85 87  1  0
 86 84  2  0
 89 90  1  0
 89 64  1  0
 91 89  1  0
M  ISO  4  11 101  12 101  54 100  62 100
M  END
>  <TORSDO>  (71) 
F 20

>  <SCORE>  (71) 
-13.769

>  <name>  (71) 
73

>  <ligand_id>  (71) 
73

>  <original_smiles>  (71) 
[H]c1c([H])c([H])c2c(c1[H])C([H])([H])C([H])([H])C([H])([H])C2([H])N([H])C(=O)C1([H])N(C(=O)C([H])(N([H])C(=O)C([H])(N([H])C([H])([H])[H])C([H])([H])[H])C(C([H])([H])[H])(C([H])([H])[H])C([H])([H])[H])C([H])([H])c2c([H])c(OC([H])([H])C([H])(F)C([H])([H])c3c([H])c([H])c(C([H])([H])N([H])C(=O)N4C([H])([H])C([H])([H])C([H])([H])C([H])(n5nc(-c6c([H])c([H])c(Oc7c([H])c([H])c(F)c([H])c7F)c([H])c6[H])c(C(=O)N([H])[H])c5N([H])[H])C4([H])[H])c(F)c3[H])c([H])c([H])c2C1([H])[H]

>  <smiles>  (71) 
[H]c1c([H])c([H])c2c(c1[H])C([H])([H])C([H])([H])C([H])([H])C2([H])N([H])C(=O)C1([H])N(C(=O)C([H])(N([H])C(=O)C([H])(N([H])C([H])([H])[H])C([H])([H])[H])C(C([H])([H])[H])(C([H])([H])[H])C([H])([H])[H])C([H])([H])c2c([H])c(OC([H])([H])C([H])(F)C([H])([H])c3c([H])c([H])c(C([H])([H])N([H])C(=O)N4C([H])([H])C([H])([H])C([H])([H])C([H])(n5nc(-c6c([H])c([H])c(Oc7c([H])c([H])c(F)c([H])c7F)c([H])c6[H])c(C(=O)N([H])[H])c5N([H])[H])C4([H])[H])c(F)c3[H])c([H])c([H])c2C1([H])[H]

$$$$
74:0:0
     RDKit          3D

 98106  0  0  1  0  0  0  0  0999 V2000
  -32.7650  -20.9630   18.0830 C   0  0  0  0  0  2  0  0  0  0  0  0
  -32.3060  -19.0990   16.4790 C   0  0  0  0  0  1  0  0  0  0  0  0
  -32.8010  -19.4970   17.8200 N   0  0  1  0  0  4  0  0  0  0  0  0
  -32.1440  -19.0870   18.4670 H   0  0  0  0  0  0  0  0  0  0  0  0
  -34.0700  -18.8260   18.2000 C   0  0  0  0  0  2  0  0  0  0  0  0
  -32.4200  -16.6560   20.8800 C   0  0  0  0  0  3  0  0  0  0  0  0
  -33.9440  -15.2550   19.5860 C   0  0  0  0  0  3  0  0  0  0  0  0
  -32.8420  -17.7810   20.1520 C   0  0  0  0  0  3  0  0  0  0  0  0
  -34.3280  -16.3730   18.8240 C   0  0  0  0  0  3  0  0  0  0  0  0
  -32.9490  -15.3870   20.5770 C   0  0  0  0  0  0  0  0  0  0  0  0
  -33.7580  -17.6360   19.0870 C   0  0  0  0  0  0  0  0  0  0  0  0
  -32.3540  -14.1470   21.2140 C   0  0  0  0  0  2  0  0  0  0  0  0
  -30.8040  -13.5040   19.3390 C   0  0  0  0  0  0  0  0  0  0  0  0
  -29.8870  -11.7040   17.9430 C   0  0  0  0  0  2  0  0  0  0  0  0
  -28.7290  -12.1170   17.0210 C   0  0  0  0  0  2  0  0  0  0  0  0
  -27.3920  -12.0080   17.7730 C   0  0  0  0  0  2  0  0  0  0  0  0
  -27.4210  -12.7500   19.1330 C   0  0  0  0  0  3  0  0  0  0  0  0
  -28.6590  -12.3530   19.9650 C   0  0  0  0  0  2  0  0  0  0  0  0
  -29.8680  -12.5500   19.1460 N   0  0  0  0  0  0  0  0  0  0  0  0
  -31.5130  -13.9320   18.4230 O   0  0  0  0  0  0  0  0  0  0  0  0
  -31.0760  -13.7220   20.6340 N   0  0  0  0  0  0  0  0  0  0  0  0
  -30.4270  -13.3000   21.2860 H   0  0  0  0  0  0  0  0  0  0  0  0
  -25.2820  -13.4570   20.3830 C   0  0  0  0  0  0  0  0  0  0  0  0
  -24.2610  -12.7310   20.9330 C   0  0  0  0  0  0  0  0  0  0  0  0
  -24.6010  -11.3560   20.7290 C   0  0  0  0  0  0  0  0  0  0  0  0
  -26.1830  -12.5310   19.8810 N   0  0  0  0  0  0  0  0  0  0  0  0
  -25.7890  -11.2590   20.1490 N   0  0  0  0  0  0  0  0  0  0  0  0
  -23.8410  -10.1320   21.0070 C   0  0  0  0  0  0  0  0  0  0  0  0
  -24.3200   -9.1520   21.9050 C   0  0  0  0  0  3  0  0  0  0  0  0
  -23.5650   -7.9910   22.1680 C   0  0  0  0  0  3  0  0  0  0  0  0
  -22.3150   -7.8000   21.5350 C   0  0  0  0  0  0  0  0  0  0  0  0
  -21.8510   -8.7660   20.6240 C   0  0  0  0  0  3  0  0  0  0  0  0
  -22.6070   -9.9210   20.3590 C   0  0  0  0  0  3  0  0  0  0  0  0
  -21.5230   -6.6890   21.7050 O   0  0  0  0  0  0  0  0  0  0  0  0
  -21.4990   -5.9960   22.8900 C   0  0  0  0  0  0  0  0  0  0  0  0
  -21.1140   -6.6110   24.0990 C   0  0  0  0  0  3  0  0  0  0  0  0
  -21.0370   -5.8480   25.2820 C   0  0  0  0  0  3  0  0  0  0  0  0
  -21.3310   -4.4730   25.2580 C   0  0  0  0  0  0  0  0  0  0  0  0
  -21.7100   -3.8580   24.0510 C   0  0  0  0  0  3  0  0  0  0  0  0
  -21.7890   -4.6170   22.8690 C   0  0  0  0  0  0  0  0  0  0  0  0
  -22.1350   -4.0140   21.7070 F   0  0  0  0  0  0  0  0  0  0  0  0
  -21.2520   -3.7420   26.3940 F   0  0  0  0  0  0  0  0  0  0  0  0
  -22.9950  -13.2750   21.5280 C   0  0  0  0  0  0  0  0  0  0  0  0
  -22.4420  -12.5970   22.5230 N   0  0  0  0  0  0  0  0  0  0  0  0
  -22.5150  -14.3410   21.1430 O   0  0  0  0  0  0  0  0  0  0  0  0
  -22.8450  -11.7280   22.8460 H   0  0  0  0  0  0  0  0  0  0  0  0
  -21.5980  -12.9420   22.9570 H   0  0  0  0  0  0  0  0  0  0  0  0
  -25.5160  -14.8220   20.2450 N   0  0  0  0  0  0  0  0  0  0  0  0
  -26.3080  -15.2050   19.7460 H   0  0  0  0  0  0  0  0  0  0  0  0
  -24.8930  -15.5350   20.6090 H   0  0  0  0  0  0  0  0  0  0  0  0
  -31.3800  -21.4290   18.6050 C   0  0  0  0  0  2  0  0  0  0  0  0
  -31.2950  -22.9520   18.8580 C   0  0  0  0  0  2  0  0  0  0  0  0
  -29.9160  -23.4010   19.1820 N   0  0  0  0  0  4  0  0  0  0  0  0
  -29.5680  -22.8260   19.9300 H   0  0  0  0  0  0  0  0  0  0  0  0
  -29.3360  -23.2220   18.3750 H   0  0  0  0  0  0  0  0  0  0  0  0
  -29.7870  -24.8270   19.6030 C   0  0  0  0  0  2  0  0  0  0  0  0
  -28.3230  -25.2590   19.8590 C   0  0  0  0  0  2  0  0  0  0  0  0
  -28.3040  -26.6520   20.2050 O   0  0  0  0  0  0  0  0  0  0  0  0
  -24.6060  -31.9380   23.2320 C   0  0  0  0  0  0  0  0  0  0  0  0
  -27.1060  -27.3410   20.2320 C   0  0  0  0  0  0  0  0  0  0  0  0
  -23.3490  -30.5180   21.6430 C   0  0  0  0  0  3  0  0  0  0  0  0
  -24.7430  -28.9040   20.2460 C   0  0  0  0  0  0  0  0  0  0  0  0
  -25.8780  -30.8060   21.4070 C   0  0  0  0  0  2  0  0  0  0  0  0
  -25.9180  -29.4120   20.8100 C   0  0  0  0  0  0  0  0  0  0  0  0
  -27.0980  -28.6370   20.8010 C   0  0  0  0  0  3  0  0  0  0  0  0
  -25.8980  -26.8340   19.6930 C   0  0  0  0  0  3  0  0  0  0  0  0
  -24.7270  -27.6150   19.6890 C   0  0  0  0  0  3  0  0  0  0  0  0
  -23.5240  -29.7980   20.2800 C   0  0  0  0  0  2  0  0  0  0  0  0
  -24.6300  -31.1050   22.1510 N   0  0  0  0  0  0  0  0  0  0  0  0
  -23.5360  -32.2580   23.7670 O   0  0  0  0  0  0  0  0  0  0  0  0
  -22.6800  -29.5430   22.6380 C   0  0  0  0  0  0  0  0  0  0  0  0
  -21.3570  -29.3590   22.4920 N   0  0  0  0  0  0  0  0  0  0  0  0
  -23.3460  -28.9520   23.4920 O   0  0  0  0  0  0  0  0  0  0  0  0
  -20.8900  -29.8830   21.7660 H   0  0  0  0  0  0  0  0  0  0  0  0
  -17.9670  -28.2030   22.9820 C   0  0  0  0  0  0  0  0  0  0  0  0
  -20.5200  -28.4590   23.2830 C   0  0  0  0  0  3  0  0  0  0  0  0
  -20.6230  -27.0060   22.7650 C   0  0  0  0  0  2  0  0  0  0  0  0
  -19.5340  -26.6490   21.7490 C   0  0  0  0  0  2  0  0  0  0  0  0
  -18.1440  -26.8250   22.3670 C   0  0  0  0  0  2  0  0  0  0  0  0
  -19.0830  -28.9770   23.3980 C   0  0  0  0  0  0  0  0  0  0  0  0
  -18.8620  -30.2620   23.9370 C   0  0  0  0  0  3  0  0  0  0  0  0
  -17.5580  -30.7760   24.0610 C   0  0  0  0  0  3  0  0  0  0  0  0
  -16.4560  -30.0020   23.6590 C   0  0  0  0  0  3  0  0  0  0  0  0
  -16.6610  -28.7160   23.1260 C   0  0  0  0  0  3  0  0  0  0  0  0
  -25.9120  -32.5450   23.8280 C   0  0  0  0  0  3  0  0  0  0  0  0
  -26.4600  -31.7480   25.0750 C   0  0  1  0  0  0  0  0  0  0  0  0
  -25.3890  -31.4760   26.1570 C   0  0  0  0  0  1  0  0  0  0  0  0
  -27.0460  -30.3840   24.6350 C   0  0  0  0  0  1  0  0  0  0  0  0
  -27.6250  -32.5330   25.7230 C   0  0  0  0  0  1  0  0  0  0  0  0
  -25.6220  -33.9410   24.1870 N   0  0  0  0  0  0  0  0  0  0  0  0
  -25.9280  -35.0010   23.4270 C   0  0  0  0  0  0  0  0  0  0  0  0
  -26.5610  -34.9060   22.3700 O   0  0  0  0  0  0  0  0  0  0  0  0
  -25.0460  -34.0890   25.0030 H   0  0  0  0  0  0  0  0  0  0  0  0
  -24.1920  -36.8010   23.1580 C   0  0  0  0  0  1  0  0  0  0  0  0
  -25.4630  -36.3860   23.9170 C   0  0  0  0  0  3  0  0  0  0  0  0
  -27.6310  -37.2570   24.6720 C   0  0  0  0  0  1  0  0  0  0  0  0
  -26.4950  -37.4340   23.7710 N   0  0  0  0  0  0  0  0  0  0  0  0
  -26.1000  -38.3550   23.9380 H   0  0  0  0  0  0  0  0  0  0  0  0
  1 51  1  0
  2  3  1  0
  3  1  1  0
  3  5  1  0
  3  4  1  1
  5 11  1  0
  7 10  2  0
  8  6  2  0
  9 11  2  0
  9  7  1  0
 10  6  1  0
 10 12  1  0
 11  8  1  0
 13 21  1  0
 14 19  1  0
 15 16  1  0
 15 14  1  0
 17 16  1  0
 17 26  1  0
 17 18  1  0
 19 13  1  0
 19 18  1  0
 20 13  2  0
 21 12  1  0
 21 22  1  0
 23 24  2  0
 24 43  1  0
 25 24  1  0
 25 28  1  0
 26 27  1  0
 26 23  1  0
 27 25  2  0
 28 29  1  0
 29 30  2  0
 31 34  1  0
 31 30  1  0
 32 31  2  0
 33 32  1  0
 33 28  2  0
 34 35  1  0
 35 36  1  0
 36 37  2  0
 38 37  1  0
 38 42  1  0
 39 38  2  0
 40 35  2  0
 40 39  1  0
 41 40  1  0
 43 44  1  0
 44 46  1  0
 44 47  1  0
 45 43  2  0
 48 23  1  0
 48 50  1  0
 49 48  1  0
 51 52  1  0
 52 53  1  0
 53 56  1  0
 53 54  1  0
 55 53  1  0
 56 57  1  0
 57 58  1  0
 58 60  1  0
 59 70  2  0
 60 65  1  0
 61 69  1  0
 61 71  1  0
 62 68  1  0
 62 64  1  0
 63 69  1  0
 64 63  1  0
 65 64  2  0
 66 60  2  0
 67 66  1  0
 67 62  2  0
 68 61  1  0
 69 59  1  0
 71 73  2  0
 72 71  1  0
 74 72  1  0
 75 84  2  0
 75 80  1  0
 76 72  1  0
 76 80  1  0
 77 76  1  0
 78 79  1  0
 78 77  1  0
 79 75  1  0
 80 81  2  0
 81 82  1  0
 83 82  2  0
 84 83  1  0
 85 59  1  0
 85 90  1  0
 85 86  1  0
 86 89  1  1
 86 87  1  0
 88 86  1  0
 90 93  1  0
 91 95  1  0
 91 90  1  0
 92 91  2  0
 95 94  1  0
 97 95  1  0
 97 98  1  0
 97 96  1  0
M  ISO  4  13 100  21 100  57 101  58 101
M  END
>  <TORSDO>  (72) 
F 25

>  <SCORE>  (72) 
-8.800

>  <name>  (72) 
74

>  <ligand_id>  (72) 
74

>  <original_smiles>  (72) 
[H]c1c([H])c([H])c2c(c1[H])C([H])([H])C([H])([H])C([H])([H])C2([H])N([H])C(=O)C1([H])N(C(=O)C([H])(N([H])C(=O)C([H])(N([H])C([H])([H])[H])C([H])([H])[H])C(C([H])([H])[H])(C([H])([H])[H])C([H])([H])[H])C([H])([H])c2c([H])c(OC([H])([H])C([H])([H])[N+]([H])([H])C([H])([H])C([H])([H])C([H])([H])[N+]([H])(C([H])([H])[H])C([H])([H])c3c([H])c([H])c(C([H])([H])N([H])C(=O)N4C([H])([H])C([H])([H])C([H])([H])C([H])(n5nc(-c6c([H])c([H])c(Oc7c([H])c([H])c(F)c([H])c7F)c([H])c6[H])c(C(=O)N([H])[H])c5N([H])[H])C4([H])[H])c([H])c3[H])c([H])c([H])c2C1([H])[H]

>  <smiles>  (72) 
[H]c1c([H])c([H])c2c(c1[H])C([H])([H])C([H])([H])C([H])([H])C2([H])N([H])C(=O)C1([H])N(C(=O)C([H])(N([H])C(=O)C([H])(N([H])C([H])([H])[H])C([H])([H])[H])C(C([H])([H])[H])(C([H])([H])[H])C([H])([H])[H])C([H])([H])c2c([H])c(OC([H])([H])C([H])([H])[N+]([H])([H])C([H])([H])C([H])([H])C([H])([H])[N+]([H])(C([H])([H])[H])C([H])([H])c3c([H])c([H])c(C([H])([H])N([H])C(=O)N4C([H])([H])C([H])([H])C([H])([H])C([H])(n5nc(-c6c([H])c([H])c(Oc7c([H])c([H])c(F)c([H])c7F)c([H])c6[H])c(C(=O)N([H])[H])c5N([H])[H])C4([H])[H])c([H])c3[H])c([H])c([H])c2C1([H])[H]

$$$$
75:0:0
     RDKit          3D

 97105  0  0  1  0  0  0  0  0999 V2000
  -30.9220  -21.4250   21.2380 C   0  0  0  0  0  2  0  0  0  0  0  0
  -28.4990  -21.9950   21.1440 C   0  0  0  0  0  1  0  0  0  0  0  0
  -29.8810  -22.4990   21.3410 N   0  0  2  0  0  4  0  0  0  0  0  0
  -29.9270  -22.8730   22.2800 H   0  0  0  0  0  0  0  0  0  0  0  0
  -30.2050  -23.6570   20.4560 C   0  0  0  0  0  2  0  0  0  0  0  0
  -29.4510  -24.9710   20.7840 C   0  0  0  0  0  3  0  0  0  0  0  0
  -29.0880  -24.9580   22.0700 F   0  0  0  0  0  0  0  0  0  0  0  0
  -28.2540  -25.3480   19.8740 C   0  0  0  0  0  2  0  0  0  0  0  0
  -28.2210  -26.7710   19.7260 O   0  0  0  0  0  0  0  0  0  0  0  0
  -24.6450  -31.7060   23.3340 C   0  0  0  0  0  0  0  0  0  0  0  0
  -27.0180  -27.4330   19.8480 C   0  0  0  0  0  0  0  0  0  0  0  0
  -23.2980  -30.3860   21.7290 C   0  0  0  0  0  3  0  0  0  0  0  0
  -24.6240  -28.9140   20.1180 C   0  0  0  0  0  0  0  0  0  0  0  0
  -25.7940  -30.7640   21.3340 C   0  0  0  0  0  2  0  0  0  0  0  0
  -25.8220  -29.4220   20.6320 C   0  0  0  0  0  0  0  0  0  0  0  0
  -27.0200  -28.6880   20.4920 C   0  0  0  0  0  3  0  0  0  0  0  0
  -25.8040  -26.9320   19.3250 C   0  0  0  0  0  3  0  0  0  0  0  0
  -24.6080  -27.6670   19.4620 C   0  0  0  0  0  3  0  0  0  0  0  0
  -23.3880  -29.7650   20.3060 C   0  0  0  0  0  2  0  0  0  0  0  0
  -24.6030  -30.9640   22.1890 N   0  0  0  0  0  0  0  0  0  0  0  0
  -23.6150  -31.9470   23.9790 O   0  0  0  0  0  0  0  0  0  0  0  0
  -22.7240  -29.3230   22.6930 C   0  0  0  0  0  0  0  0  0  0  0  0
  -21.4650  -28.9160   22.4600 N   0  0  0  0  0  0  0  0  0  0  0  0
  -23.4160  -28.8610   23.6060 O   0  0  0  0  0  0  0  0  0  0  0  0
  -20.9590  -29.3570   21.7050 H   0  0  0  0  0  0  0  0  0  0  0  0
  -18.4040  -27.0010   22.5510 C   0  0  0  0  0  0  0  0  0  0  0  0
  -20.7380  -27.8940   23.2120 C   0  0  0  0  0  3  0  0  0  0  0  0
  -21.2620  -26.4790   22.8800 C   0  0  0  0  0  2  0  0  0  0  0  0
  -20.4820  -25.7930   21.7540 C   0  0  0  0  0  2  0  0  0  0  0  0
  -19.0010  -25.6710   22.1230 C   0  0  0  0  0  2  0  0  0  0  0  0
  -19.2220  -28.0500   23.0480 C   0  0  0  0  0  0  0  0  0  0  0  0
  -18.6210  -29.2800   23.3950 C   0  0  0  0  0  3  0  0  0  0  0  0
  -17.2330  -29.4680   23.2540 C   0  0  0  0  0  3  0  0  0  0  0  0
  -16.4260  -28.4200   22.7780 C   0  0  0  0  0  3  0  0  0  0  0  0
  -17.0120  -27.1890   22.4320 C   0  0  0  0  0  3  0  0  0  0  0  0
  -25.9830  -32.3060   23.8740 C   0  0  0  0  0  3  0  0  0  0  0  0
  -25.7330  -33.7080   24.2310 N   0  0  0  0  0  0  0  0  0  0  0  0
  -26.0800  -34.7590   23.4750 C   0  0  0  0  0  0  0  0  0  0  0  0
  -26.7170  -34.6470   22.4240 O   0  0  0  0  0  0  0  0  0  0  0  0
  -25.1750  -33.8730   25.0560 H   0  0  0  0  0  0  0  0  0  0  0  0
  -24.4010  -36.6050   23.1930 C   0  0  0  0  0  1  0  0  0  0  0  0
  -25.6510  -36.1540   23.9650 C   0  0  0  0  0  3  0  0  0  0  0  0
  -27.8360  -36.9570   24.7390 C   0  0  0  0  0  1  0  0  0  0  0  0
  -26.7110  -37.1770   23.8350 N   0  0  0  0  0  0  0  0  0  0  0  0
  -26.3380  -38.1060   24.0100 H   0  0  0  0  0  0  0  0  0  0  0  0
  -26.5660  -31.5130   25.1070 C   0  0  1  0  0  0  0  0  0  0  0  0
  -25.5300  -31.2400   26.2220 C   0  0  0  0  0  1  0  0  0  0  0  0
  -27.1410  -30.1540   24.6500 C   0  0  0  0  0  1  0  0  0  0  0  0
  -27.7400  -32.3040   25.7330 C   0  0  0  0  0  1  0  0  0  0  0  0
  -30.4740  -19.9930   21.6500 C   0  0  0  0  0  2  0  0  0  0  0  0
  -31.2520  -18.8770   20.9070 C   0  0  0  0  0  2  0  0  0  0  0  0
  -31.6530  -15.9480   22.8830 C   0  0  0  0  0  2  0  0  0  0  0  0
  -30.7120  -17.1330   22.6530 C   0  0  0  0  0  2  0  0  0  0  0  0
  -31.6750  -15.2470   21.5320 C   0  0  0  0  0  3  0  0  0  0  0  0
  -31.6190  -16.4360   20.5480 C   0  0  0  0  0  3  0  0  0  0  0  0
  -32.8710  -14.3050   21.3320 C   0  0  0  0  0  1  0  0  0  0  0  0
  -30.7990  -17.4850   21.2120 N   0  0  2  0  0  4  0  0  0  0  0  0
  -29.8660  -17.3800   20.8400 H   0  0  0  0  0  0  0  0  0  0  0  0
  -31.0940  -16.0640   19.1480 C   0  0  0  0  0  2  0  0  0  0  0  0
  -30.3590  -13.8630   18.3340 C   0  0  0  0  0  0  0  0  0  0  0  0
  -30.0950  -11.4270   18.1360 C   0  0  0  0  0  2  0  0  0  0  0  0
  -28.9610  -11.0180   17.1820 C   0  0  0  0  0  2  0  0  0  0  0  0
  -27.6180  -10.9670   17.9300 C   0  0  0  0  0  2  0  0  0  0  0  0
  -27.3450  -12.2490   18.7590 C   0  0  0  0  0  3  0  0  0  0  0  0
  -28.5720  -12.6280   19.6200 C   0  0  0  0  0  2  0  0  0  0  0  0
  -29.7570  -12.7200   18.7440 N   0  0  0  0  0  0  0  0  0  0  0  0
  -31.1320  -13.9260   17.3760 O   0  0  0  0  0  0  0  0  0  0  0  0
  -30.1990  -14.9060   19.1490 N   0  0  0  0  0  0  0  0  0  0  0  0
  -29.6110  -14.7510   19.9540 H   0  0  0  0  0  0  0  0  0  0  0  0
  -25.3200  -13.0860   20.1160 C   0  0  0  0  0  0  0  0  0  0  0  0
  -24.2830  -12.4220   20.7170 C   0  0  0  0  0  0  0  0  0  0  0  0
  -24.5210  -11.0330   20.4900 C   0  0  0  0  0  0  0  0  0  0  0  0
  -26.1350  -12.1060   19.5690 N   0  0  0  0  0  0  0  0  0  0  0  0
  -25.6690  -10.8610   19.8460 N   0  0  0  0  0  0  0  0  0  0  0  0
  -23.6940   -9.8580   20.7980 C   0  0  0  0  0  0  0  0  0  0  0  0
  -24.1400   -8.8530   21.6850 C   0  0  0  0  0  3  0  0  0  0  0  0
  -23.3190   -7.7440   21.9800 C   0  0  0  0  0  3  0  0  0  0  0  0
  -22.0380   -7.6310   21.3890 C   0  0  0  0  0  0  0  0  0  0  0  0
  -21.6090   -8.6220   20.4890 C   0  0  0  0  0  3  0  0  0  0  0  0
  -22.4300   -9.7230   20.1920 C   0  0  0  0  0  3  0  0  0  0  0  0
  -21.1830   -6.5760   21.5970 O   0  0  0  0  0  0  0  0  0  0  0  0
  -21.1140   -5.9330   22.8060 C   0  0  0  0  0  0  0  0  0  0  0  0
  -20.8140   -6.6240   24.0010 C   0  0  0  0  0  3  0  0  0  0  0  0
  -20.6830   -5.9130   25.2110 C   0  0  0  0  0  3  0  0  0  0  0  0
  -20.8430   -4.5140   25.2290 C   0  0  0  0  0  0  0  0  0  0  0  0
  -21.1360   -3.8240   24.0380 C   0  0  0  0  0  3  0  0  0  0  0  0
  -21.2690   -4.5320   22.8310 C   0  0  0  0  0  0  0  0  0  0  0  0
  -21.5300   -3.8590   21.6830 F   0  0  0  0  0  0  0  0  0  0  0  0
  -20.7100   -3.8290   26.3880 F   0  0  0  0  0  0  0  0  0  0  0  0
  -23.0880  -13.0430   21.3790 C   0  0  0  0  0  0  0  0  0  0  0  0
  -22.5630  -12.4070   22.4210 N   0  0  0  0  0  0  0  0  0  0  0  0
  -22.6400  -14.1270   21.0060 O   0  0  0  0  0  0  0  0  0  0  0  0
  -22.9440  -11.5290   22.7420 H   0  0  0  0  0  0  0  0  0  0  0  0
  -21.7710  -12.8040   22.9050 H   0  0  0  0  0  0  0  0  0  0  0  0
  -25.6250  -14.4360   19.9710 N   0  0  0  0  0  0  0  0  0  0  0  0
  -24.9960  -15.1640   20.2930 H   0  0  0  0  0  0  0  0  0  0  0  0
  -26.3900  -14.7900   19.4090 H   0  0  0  0  0  0  0  0  0  0  0  0
  1  3  1  0
  1 50  1  0
  2  3  1  0
  3  4  1  1
  5  6  1  0
  5  3  1  0
  6  7  1  0
  8  6  1  0
  9 11  1  0
  9  8  1  0
 10 21  2  0
 11 16  1  0
 12 20  1  0
 12 22  1  0
 13 19  1  0
 13 15  1  0
 14 20  1  0
 15 14  1  0
 16 15  2  0
 17 18  1  0
 17 11  2  0
 18 13  2  0
 19 12  1  0
 20 10  1  0
 22 24  2  0
 23 22  1  0
 25 23  1  0
 26 31  1  0
 27 23  1  0
 28 27  1  0
 29 30  1  0
 29 28  1  0
 30 26  1  0
 31 27  1  0
 31 32  2  0
 33 32  1  0
 34 33  2  0
 35 26  2  0
 35 34  1  0
 36 10  1  0
 36 37  1  0
 36 46  1  0
 37 40  1  0
 38 42  1  0
 38 37  1  0
 39 38  2  0
 42 41  1  0
 44 42  1  0
 44 45  1  0
 44 43  1  0
 46 49  1  1
 46 47  1  0
 48 46  1  0
 51 57  1  0
 51 50  1  0
 53 52  1  0
 54 56  1  0
 54 52  1  0
 55 59  1  0
 55 57  1  0
 55 54  1  0
 57 53  1  0
 57 58  1  6
 59 68  1  0
 60 66  1  0
 60 68  1  0
 61 66  1  0
 62 63  1  0
 62 61  1  0
 64 63  1  0
 64 73  1  0
 64 65  1  0
 66 65  1  0
 67 60  2  0
 68 69  1  0
 70 71  2  0
 71 90  1  0
 72 71  1  0
 72 75  1  0
 73 74  1  0
 73 70  1  0
 74 72  2  0
 75 76  1  0
 76 77  2  0
 78 81  1  0
 78 77  1  0
 79 78  2  0
 80 79  1  0
 80 75  2  0
 81 82  1  0
 82 87  2  0
 82 83  1  0
 83 84  2  0
 84 85  1  0
 85 89  1  0
 86 85  2  0
 87 86  1  0
 88 87  1  0
 90 91  1  0
 91 93  1  0
 91 94  1  0
 92 90  2  0
 95 70  1  0
 95 96  1  0
 97 95  1  0
M  ISO  4   8 101   9 101  60 100  68 100
M  END
>  <TORSDO>  (73) 
F 24

>  <SCORE>  (73) 
-5.810

>  <name>  (73) 
75

>  <ligand_id>  (73) 
75

>  <original_smiles>  (73) 
[H]c1c([H])c([H])c2c(c1[H])C([H])([H])C([H])([H])C([H])([H])C2([H])N([H])C(=O)C1([H])N(C(=O)C([H])(N([H])C(=O)C([H])(N([H])C([H])([H])[H])C([H])([H])[H])C(C([H])([H])[H])(C([H])([H])[H])C([H])([H])[H])C([H])([H])c2c([H])c(OC([H])([H])C([H])(F)C([H])([H])[N+]([H])(C([H])([H])[H])C([H])([H])C([H])([H])C([H])([H])[N+]3([H])C([H])([H])C([H])([H])C([H])(C([H])([H])[H])C3([H])C([H])([H])N([H])C(=O)N3C([H])([H])C([H])([H])C([H])([H])C([H])(n4nc(-c5c([H])c([H])c(Oc6c([H])c([H])c(F)c([H])c6F)c([H])c5[H])c(C(=O)N([H])[H])c4N([H])[H])C3([H])[H])c([H])c([H])c2C1([H])[H]

>  <smiles>  (73) 
[H]c1c([H])c([H])c2c(c1[H])C([H])([H])C([H])([H])C([H])([H])C2([H])N([H])C(=O)C1([H])N(C(=O)C([H])(N([H])C(=O)C([H])(N([H])C([H])([H])[H])C([H])([H])[H])C(C([H])([H])[H])(C([H])([H])[H])C([H])([H])[H])C([H])([H])c2c([H])c(OC([H])([H])C([H])(F)C([H])([H])[N+]([H])(C([H])([H])[H])C([H])([H])C([H])([H])C([H])([H])[N+]3([H])C([H])([H])C([H])([H])C([H])(C([H])([H])[H])C3([H])C([H])([H])N([H])C(=O)N3C([H])([H])C([H])([H])C([H])([H])C([H])(n4nc(-c5c([H])c([H])c(Oc6c([H])c([H])c(F)c([H])c6F)c([H])c5[H])c(C(=O)N([H])[H])c4N([H])[H])C3([H])[H])c([H])c([H])c2C1([H])[H]

$$$$
76:0:0
     RDKit          3D

 93101  0  0  1  0  0  0  0  0999 V2000
  -30.6890  -22.0100   19.2110 C   0  0  0  0  0  0  0  0  0  0  0  0
  -29.9120  -23.0750   18.8540 N   0  0  0  0  0  0  0  0  0  0  0  0
  -31.1640  -21.9330   20.3490 O   0  0  0  0  0  0  0  0  0  0  0  0
  -29.6040  -23.0450   17.8950 H   0  0  0  0  0  0  0  0  0  0  0  0
  -31.0900  -20.9750   18.0930 C   0  0  0  0  0  2  0  0  0  0  0  0
  -32.8660  -19.3700   19.2280 C   0  0  0  0  0  3  0  0  0  0  0  0
  -31.2460  -18.4230   17.7630 C   0  0  0  0  0  3  0  0  0  0  0  0
  -33.4060  -18.0690   19.4930 C   0  0  0  0  0  3  0  0  0  0  0  0
  -31.7540  -17.1170   18.0270 C   0  0  0  0  0  3  0  0  0  0  0  0
  -31.7360  -19.5840   18.4110 C   0  0  0  0  0  0  0  0  0  0  0  0
  -32.8350  -16.8930   18.9050 C   0  0  0  0  0  0  0  0  0  0  0  0
  -33.3730  -15.4320   19.1140 C   0  0  0  0  0  2  0  0  0  0  0  0
  -31.2570  -14.4290   20.2400 C   0  0  0  0  0  0  0  0  0  0  0  0
  -30.3890  -12.9880   18.6930 C   0  0  0  0  0  3  0  0  0  0  0  0
  -29.3260  -12.1080   18.1080 C   0  0  0  0  0  3  0  0  0  0  0  0
  -27.9900  -11.9950   18.8130 C   0  0  0  0  0  2  0  0  0  0  0  0
  -27.6740  -13.2250   19.6750 C   0  0  0  0  0  3  0  0  0  0  0  0
  -28.8690  -13.4500   20.7090 C   0  0  0  0  0  2  0  0  0  0  0  0
  -30.2750  -13.4670   20.0710 N   0  0  0  0  0  0  0  0  0  0  0  0
  -31.2870  -15.2780   21.0650 O   0  0  0  0  0  0  0  0  0  0  0  0
  -32.4610  -14.3660   19.6360 N   0  0  0  0  0  0  0  0  0  0  0  0
  -33.0090  -14.2550   20.4930 H   0  0  0  0  0  0  0  0  0  0  0  0
  -25.2990  -13.8660   20.5550 C   0  0  0  0  0  0  0  0  0  0  0  0
  -24.2460  -13.0830   20.9790 C   0  0  0  0  0  0  0  0  0  0  0  0
  -24.7050  -11.7400   20.9490 C   0  0  0  0  0  0  0  0  0  0  0  0
  -26.3360  -13.0000   20.2890 N   0  0  0  0  0  0  0  0  0  0  0  0
  -25.9820  -11.7230   20.6240 N   0  0  0  0  0  0  0  0  0  0  0  0
  -23.9940  -10.4560   21.1240 C   0  0  0  0  0  0  0  0  0  0  0  0
  -24.4080   -9.4800   22.0430 C   0  0  0  0  0  3  0  0  0  0  0  0
  -23.6800   -8.2970   22.2060 C   0  0  0  0  0  3  0  0  0  0  0  0
  -22.5130   -8.0590   21.4570 C   0  0  0  0  0  0  0  0  0  0  0  0
  -22.1150   -9.0350   20.5290 C   0  0  0  0  0  3  0  0  0  0  0  0
  -22.8360  -10.2150   20.3610 C   0  0  0  0  0  3  0  0  0  0  0  0
  -21.7660   -6.9210   21.5280 O   0  0  0  0  0  0  0  0  0  0  0  0
  -21.7090   -6.1610   22.6800 C   0  0  0  0  0  0  0  0  0  0  0  0
  -21.2790   -6.7030   23.9050 C   0  0  0  0  0  3  0  0  0  0  0  0
  -21.1660   -5.8680   25.0470 C   0  0  0  0  0  3  0  0  0  0  0  0
  -21.4980   -4.5030   24.9330 C   0  0  0  0  0  0  0  0  0  0  0  0
  -21.9240   -3.9590   23.7210 C   0  0  0  0  0  3  0  0  0  0  0  0
  -22.0240   -4.7930   22.5790 C   0  0  0  0  0  0  0  0  0  0  0  0
  -22.4010   -4.2580   21.3910 F   0  0  0  0  0  0  0  0  0  0  0  0
  -21.3990   -3.6980   26.0220 F   0  0  0  0  0  0  0  0  0  0  0  0
  -22.8240  -13.5360   21.2340 C   0  0  0  0  0  0  0  0  0  0  0  0
  -22.0830  -12.8650   22.1220 N   0  0  0  0  0  0  0  0  0  0  0  0
  -22.3460  -14.4980   20.6480 O   0  0  0  0  0  0  0  0  0  0  0  0
  -22.4380  -12.0780   22.6260 H   0  0  0  0  0  0  0  0  0  0  0  0
  -21.1290  -13.1450   22.2810 H   0  0  0  0  0  0  0  0  0  0  0  0
  -25.4260  -15.2290   20.3280 N   0  0  0  0  0  0  0  0  0  0  0  0
  -24.5430  -15.7200   20.1950 H   0  0  0  0  0  0  0  0  0  0  0  0
  -26.1490  -15.5920   19.7130 H   0  0  0  0  0  0  0  0  0  0  0  0
  -29.7440  -24.3790   19.5740 C   0  0  0  0  0  2  0  0  0  0  0  0
  -28.3730  -25.1630   19.3950 C   0  0  0  0  0  2  0  0  0  0  0  0
  -28.3720  -26.5230   20.0030 O   0  0  0  0  0  0  0  0  0  0  0  0
  -24.6160  -31.8620   23.2390 C   0  0  0  0  0  0  0  0  0  0  0  0
  -27.2050  -27.3150   20.0490 C   0  0  0  0  0  0  0  0  0  0  0  0
  -23.3850  -30.4700   21.6070 C   0  0  0  0  0  3  0  0  0  0  0  0
  -24.8230  -28.9210   20.1530 C   0  0  0  0  0  0  0  0  0  0  0  0
  -25.9230  -30.7810   21.4040 C   0  0  0  0  0  2  0  0  0  0  0  0
  -25.9930  -29.4030   20.7420 C   0  0  0  0  0  0  0  0  0  0  0  0
  -27.1800  -28.6040   20.6940 C   0  0  0  0  0  3  0  0  0  0  0  0
  -25.9870  -26.8810   19.4750 C   0  0  0  0  0  3  0  0  0  0  0  0
  -24.8110  -27.6580   19.5370 C   0  0  0  0  0  3  0  0  0  0  0  0
  -23.5860  -29.8010   20.2260 C   0  0  0  0  0  2  0  0  0  0  0  0
  -24.6570  -31.0550   22.1370 N   0  0  0  0  0  0  0  0  0  0  0  0
  -23.5400  -32.1420   23.7800 O   0  0  0  0  0  0  0  0  0  0  0  0
  -22.7360  -29.4480   22.5640 C   0  0  0  0  0  0  0  0  0  0  0  0
  -21.4100  -29.2730   22.4480 N   0  0  0  0  0  0  0  0  0  0  0  0
  -23.4180  -28.8300   23.3860 O   0  0  0  0  0  0  0  0  0  0  0  0
  -20.9150  -29.8230   21.7590 H   0  0  0  0  0  0  0  0  0  0  0  0
  -18.0420  -28.0600   22.9490 C   0  0  0  0  0  0  0  0  0  0  0  0
  -20.6000  -28.3350   23.2200 C   0  0  0  0  0  3  0  0  0  0  0  0
  -20.7120  -26.9020   22.6510 C   0  0  0  0  0  2  0  0  0  0  0  0
  -19.6150  -26.5670   21.6370 C   0  0  0  0  0  2  0  0  0  0  0  0
  -18.2290  -26.7100   22.2780 C   0  0  0  0  0  2  0  0  0  0  0  0
  -19.1570  -28.8310   23.3750 C   0  0  0  0  0  0  0  0  0  0  0  0
  -18.9340  -30.0960   23.9600 C   0  0  0  0  0  3  0  0  0  0  0  0
  -17.6300  -30.5920   24.1300 C   0  0  0  0  0  3  0  0  0  0  0  0
  -16.5290  -29.8220   23.7190 C   0  0  0  0  0  3  0  0  0  0  0  0
  -16.7340  -28.5590   23.1320 C   0  0  0  0  0  3  0  0  0  0  0  0
  -25.9040  -32.4940   23.8510 C   0  0  0  0  0  3  0  0  0  0  0  0
  -25.5950  -33.8960   24.1830 N   0  0  0  0  0  0  0  0  0  0  0  0
  -25.9210  -34.9510   23.4230 C   0  0  0  0  0  0  0  0  0  0  0  0
  -26.5820  -34.8510   22.3830 O   0  0  0  0  0  0  0  0  0  0  0  0
  -25.0080  -34.0500   24.9900 H   0  0  0  0  0  0  0  0  0  0  0  0
  -24.1880  -36.7500   23.0950 C   0  0  0  0  0  1  0  0  0  0  0  0
  -25.4360  -36.3380   23.8950 C   0  0  0  0  0  3  0  0  0  0  0  0
  -27.5710  -37.2190   24.7180 C   0  0  0  0  0  1  0  0  0  0  0  0
  -26.4650  -37.3920   23.7770 N   0  0  0  0  0  0  0  0  0  0  0  0
  -26.0540  -38.3060   23.9420 H   0  0  0  0  0  0  0  0  0  0  0  0
  -26.4350  -31.7250   25.1210 C   0  0  1  0  0  0  0  0  0  0  0  0
  -25.3550  -31.4860   26.1970 C   0  0  0  0  0  1  0  0  0  0  0  0
  -27.0120  -30.3500   24.7190 C   0  0  0  0  0  1  0  0  0  0  0  0
  -27.5820  -32.5240   25.7790 C   0  0  0  0  0  1  0  0  0  0  0  0
  1  3  2  0
  2  1  1  0
  2 51  1  0
  4  2  1  0
  5 10  1  0
  5  1  1  0
  6  8  1  0
  7  9  2  0
  7 10  1  0
  9 11  1  0
 10  6  2  0
 11 12  1  0
 11  8  2  0
 12 21  1  0
 13 20  2  0
 14 19  1  0
 15 14  2  0
 15 16  1  0
 17 16  1  0
 17 26  1  0
 17 18  1  0
 19 13  1  0
 19 18  1  0
 21 13  1  0
 21 22  1  0
 23 24  2  0
 24 43  1  0
 25 24  1  0
 25 28  1  0
 26 23  1  0
 26 27  1  0
 27 25  2  0
 28 29  1  0
 29 30  2  0
 31 34  1  0
 31 30  1  0
 32 31  2  0
 33 32  1  0
 33 28  2  0
 34 35  1  0
 35 36  1  0
 36 37  2  0
 38 37  1  0
 38 42  1  0
 39 38  2  0
 40 35  2  0
 40 39  1  0
 41 40  1  0
 43 44  1  0
 44 47  1  0
 44 46  1  0
 45 43  2  0
 48 23  1  0
 49 48  1  0
 50 48  1  0
 52 51  1  0
 52 53  1  0
 53 55  1  0
 54 65  2  0
 55 60  1  0
 56 64  1  0
 56 66  1  0
 57 63  1  0
 57 59  1  0
 58 64  1  0
 59 58  1  0
 60 59  2  0
 61 62  1  0
 61 55  2  0
 62 57  2  0
 63 56  1  0
 64 54  1  0
 66 68  2  0
 67 66  1  0
 69 67  1  0
 70 79  2  0
 70 75  1  0
 71 67  1  0
 71 75  1  0
 72 71  1  0
 73 74  1  0
 73 72  1  0
 74 70  1  0
 75 76  2  0
 76 77  1  0
 78 77  2  0
 79 78  1  0
 80 54  1  0
 80 81  1  0
 80 90  1  0
 81 84  1  0
 82 86  1  0
 82 81  1  0
 83 82  2  0
 86 85  1  0
 88 86  1  0
 88 89  1  0
 88 87  1  0
 90 93  1  1
 90 91  1  0
 92 90  1  0
M  ISO  4  13 100  21 100  52 101  53 101
M  END
>  <TORSDO>  (74) 
F 21

>  <SCORE>  (74) 
-13.228

>  <name>  (74) 
76

>  <ligand_id>  (74) 
76

>  <original_smiles>  (74) 
[H]c1c([H])c([H])c2c(c1[H])C([H])([H])C([H])([H])C([H])([H])C2([H])N([H])C(=O)C1([H])N(C(=O)C([H])(N([H])C(=O)C([H])(N([H])C([H])([H])[H])C([H])([H])[H])C(C([H])([H])[H])(C([H])([H])[H])C([H])([H])[H])C([H])([H])c2c([H])c(OC([H])([H])C([H])([H])N([H])C(=O)C([H])([H])c3c([H])c([H])c(C([H])([H])N([H])C(=O)N4C([H])([H])C([H])([H])C([H])([H])C([H])(n5nc(-c6c([H])c([H])c(Oc7c([H])c([H])c(F)c([H])c7F)c([H])c6[H])c(C(=O)N([H])[H])c5N([H])[H])C4([H])[H])c([H])c3[H])c([H])c([H])c2C1([H])[H]

>  <smiles>  (74) 
[H]c1c([H])c([H])c2c(c1[H])C([H])([H])C([H])([H])C([H])([H])C2([H])N([H])C(=O)C1([H])N(C(=O)C([H])(N([H])C(=O)C([H])(N([H])C([H])([H])[H])C([H])([H])[H])C(C([H])([H])[H])(C([H])([H])[H])C([H])([H])[H])C([H])([H])c2c([H])c(OC([H])([H])C([H])([H])N([H])C(=O)C([H])([H])c3c([H])c([H])c(C([H])([H])N([H])C(=O)N4C([H])([H])C([H])([H])C([H])([H])C([H])(n5nc(-c6c([H])c([H])c(Oc7c([H])c([H])c(F)c([H])c7F)c([H])c6[H])c(C(=O)N([H])[H])c5N([H])[H])C4([H])[H])c([H])c3[H])c([H])c([H])c2C1([H])[H]

$$$$
77:0:0
     RDKit          3D

 94103  0  0  1  0  0  0  0  0999 V2000
  -31.9760  -21.6970   22.6920 C   0  0  0  0  0  2  0  0  0  0  0  0
  -32.0780  -21.0420   21.3230 C   0  0  0  0  0  2  0  0  0  0  0  0
  -30.9150  -22.7730   22.4550 C   0  0  0  0  0  2  0  0  0  0  0  0
  -30.6210  -21.0380   20.8220 C   0  0  0  0  0  3  0  0  0  0  0  0
  -30.0000  -22.2680   21.3910 N   0  0  2  0  0  4  0  0  0  0  0  0
  -29.1610  -21.8950   21.8250 H   0  0  0  0  0  0  0  0  0  0  0  0
  -29.8420  -19.8000   21.3090 C   0  0  0  0  0  0  0  0  0  0  0  0
  -30.3890  -18.5980   21.0780 N   0  0  0  0  0  0  0  0  0  0  0  0
  -28.7680  -19.9460   21.8980 O   0  0  0  0  0  0  0  0  0  0  0  0
  -31.2700  -18.5820   20.5810 H   0  0  0  0  0  0  0  0  0  0  0  0
  -30.7750  -14.3850   20.2500 C   0  0  0  0  0  0  0  0  0  0  0  0
  -30.3760  -12.3100   18.9830 C   0  0  0  0  0  2  0  0  0  0  0  0
  -29.3890  -12.5910   17.8320 C   0  0  0  0  0  2  0  0  0  0  0  0
  -27.9320  -12.4580   18.3150 C   0  0  0  0  0  2  0  0  0  0  0  0
  -27.6620  -13.2460   19.6240 C   0  0  0  0  0  3  0  0  0  0  0  0
  -28.7520  -12.9450   20.6780 C   0  0  0  0  0  2  0  0  0  0  0  0
  -30.0630  -13.2410   20.0760 N   0  0  0  0  0  0  0  0  0  0  0  0
  -31.8530  -14.6030   19.6890 O   0  0  0  0  0  0  0  0  0  0  0  0
  -29.4530  -16.4160   20.3710 C   0  0  0  0  0  2  0  0  0  0  0  0
  -30.9570  -16.2920   21.8150 C   0  0  0  0  0  2  0  0  0  0  0  0
  -29.8620  -17.3110   21.5280 C   0  0  0  0  0  3  0  0  0  0  0  0
  -30.1870  -15.3190   21.0240 N   0  0  0  0  0  0  0  0  0  0  0  0
  -25.2950  -13.8750   20.4210 C   0  0  0  0  0  0  0  0  0  0  0  0
  -24.2320  -13.1090   20.8200 C   0  0  0  0  0  0  0  0  0  0  0  0
  -24.6790  -11.7530   20.7560 C   0  0  0  0  0  0  0  0  0  0  0  0
  -26.3230  -12.9850   20.1440 N   0  0  0  0  0  0  0  0  0  0  0  0
  -25.9560  -11.7040   20.4020 N   0  0  0  0  0  0  0  0  0  0  0  0
  -23.9480  -10.4970   20.9580 C   0  0  0  0  0  0  0  0  0  0  0  0
  -24.3910   -9.5240   21.8810 C   0  0  0  0  0  3  0  0  0  0  0  0
  -23.6620   -8.3300   22.0690 C   0  0  0  0  0  3  0  0  0  0  0  0
  -22.4740   -8.1000   21.3340 C   0  0  0  0  0  0  0  0  0  0  0  0
  -22.0510   -9.0620   20.4000 C   0  0  0  0  0  3  0  0  0  0  0  0
  -22.7810  -10.2470   20.2100 C   0  0  0  0  0  3  0  0  0  0  0  0
  -21.7150   -6.9600   21.4330 O   0  0  0  0  0  0  0  0  0  0  0  0
  -21.6700   -6.2240   22.5900 C   0  0  0  0  0  0  0  0  0  0  0  0
  -21.2550   -6.7890   23.8160 C   0  0  0  0  0  3  0  0  0  0  0  0
  -21.1550   -5.9790   24.9650 C   0  0  0  0  0  3  0  0  0  0  0  0
  -21.4590   -4.6070   24.8900 C   0  0  0  0  0  0  0  0  0  0  0  0
  -21.8670   -4.0420   23.6680 C   0  0  0  0  0  3  0  0  0  0  0  0
  -21.9680   -4.8490   22.5200 C   0  0  0  0  0  0  0  0  0  0  0  0
  -22.3400   -4.2940   21.3410 F   0  0  0  0  0  0  0  0  0  0  0  0
  -21.3550   -3.8270   25.9910 F   0  0  0  0  0  0  0  0  0  0  0  0
  -22.8500  -13.5960   21.1470 C   0  0  0  0  0  0  0  0  0  0  0  0
  -22.1480  -12.8970   22.0310 N   0  0  0  0  0  0  0  0  0  0  0  0
  -22.4030  -14.6310   20.6550 O   0  0  0  0  0  0  0  0  0  0  0  0
  -22.5210  -12.0590   22.4520 H   0  0  0  0  0  0  0  0  0  0  0  0
  -21.2200  -13.2030   22.2920 H   0  0  0  0  0  0  0  0  0  0  0  0
  -25.4660  -15.2450   20.2510 N   0  0  0  0  0  0  0  0  0  0  0  0
  -24.7090  -15.9060   20.3950 H   0  0  0  0  0  0  0  0  0  0  0  0
  -26.3040  -15.6770   19.8850 H   0  0  0  0  0  0  0  0  0  0  0  0
  -29.6120  -23.2890   20.3650 C   0  0  0  0  0  2  0  0  0  0  0  0
  -28.6240  -24.4220   20.8300 C   0  0  0  0  0  2  0  0  0  0  0  0
  -28.9010  -25.9710   20.8400 C   0  0  0  0  0  2  0  0  0  0  0  0
  -28.4160  -26.6920   19.6990 O   0  0  0  0  0  0  0  0  0  0  0  0
  -24.4920  -31.6410   23.0270 C   0  0  0  0  0  0  0  0  0  0  0  0
  -27.2250  -27.3560   19.8380 C   0  0  0  0  0  0  0  0  0  0  0  0
  -23.3100  -30.2580   21.3500 C   0  0  0  0  0  3  0  0  0  0  0  0
  -24.7930  -28.7810   19.8950 C   0  0  0  0  0  0  0  0  0  0  0  0
  -25.8230  -30.6800   21.1540 C   0  0  0  0  0  2  0  0  0  0  0  0
  -25.9380  -29.3240   20.4970 C   0  0  0  0  0  0  0  0  0  0  0  0
  -27.1590  -28.6150   20.4710 C   0  0  0  0  0  3  0  0  0  0  0  0
  -26.0720  -26.8200   19.2360 C   0  0  0  0  0  3  0  0  0  0  0  0
  -24.8520  -27.5250   19.2670 C   0  0  0  0  0  3  0  0  0  0  0  0
  -23.5340  -29.6160   19.9550 C   0  0  0  0  0  2  0  0  0  0  0  0
  -24.5610  -30.8720   21.9040 N   0  0  0  0  0  0  0  0  0  0  0  0
  -23.4070  -31.8760   23.5770 O   0  0  0  0  0  0  0  0  0  0  0  0
  -22.6830  -29.1990   22.2860 C   0  0  0  0  0  0  0  0  0  0  0  0
  -21.3570  -29.0150   22.1770 N   0  0  0  0  0  0  0  0  0  0  0  0
  -23.3860  -28.5470   23.0620 O   0  0  0  0  0  0  0  0  0  0  0  0
  -20.8510  -29.5960   21.5240 H   0  0  0  0  0  0  0  0  0  0  0  0
  -17.9960  -27.8090   22.7090 C   0  0  0  0  0  0  0  0  0  0  0  0
  -20.5600  -28.0470   22.9280 C   0  0  0  0  0  3  0  0  0  0  0  0
  -20.6440  -26.6410   22.2880 C   0  0  0  0  0  2  0  0  0  0  0  0
  -19.5150  -26.3650   21.2910 C   0  0  0  0  0  2  0  0  0  0  0  0
  -18.1500  -26.4880   21.9750 C   0  0  0  0  0  2  0  0  0  0  0  0
  -19.1270  -28.5470   23.1450 C   0  0  0  0  0  0  0  0  0  0  0  0
  -18.9310  -29.7860   23.7900 C   0  0  0  0  0  3  0  0  0  0  0  0
  -17.6330  -30.2870   24.0100 C   0  0  0  0  0  3  0  0  0  0  0  0
  -16.5150  -29.5440   23.5920 C   0  0  0  0  0  3  0  0  0  0  0  0
  -16.6980  -28.3090   22.9470 C   0  0  0  0  0  3  0  0  0  0  0  0
  -25.7670  -32.2820   23.6590 C   0  0  0  0  0  3  0  0  0  0  0  0
  -26.3180  -31.4750   24.8990 C   0  0  1  0  0  0  0  0  0  0  0  0
  -25.2450  -31.1770   25.9710 C   0  0  0  0  0  1  0  0  0  0  0  0
  -26.9240  -30.1280   24.4430 C   0  0  0  0  0  1  0  0  0  0  0  0
  -27.4600  -32.2700   25.5760 C   0  0  0  0  0  1  0  0  0  0  0  0
  -25.4280  -33.6580   24.0400 N   0  0  0  0  0  0  0  0  0  0  0  0
  -25.7330  -34.7430   23.3170 C   0  0  0  0  0  0  0  0  0  0  0  0
  -26.4020  -34.6920   22.2800 O   0  0  0  0  0  0  0  0  0  0  0  0
  -24.8350  -33.7710   24.8500 H   0  0  0  0  0  0  0  0  0  0  0  0
  -23.9670  -36.5060   23.0260 C   0  0  0  0  0  1  0  0  0  0  0  0
  -25.2160  -36.1020   23.8250 C   0  0  0  0  0  3  0  0  0  0  0  0
  -27.3280  -37.0020   24.6950 C   0  0  0  0  0  1  0  0  0  0  0  0
  -26.2250  -37.1800   23.7530 N   0  0  0  0  0  0  0  0  0  0  0  0
  -25.7990  -38.0850   23.9330 H   0  0  0  0  0  0  0  0  0  0  0  0
  2  1  1  0
  3  1  1  0
  4  7  1  0
  4  2  1  0
  4  5  1  0
  5  6  1  1
  5  3  1  0
  7  9  2  0
  8  7  1  0
 10  8  1  0
 11 22  1  0
 12 17  1  0
 13 14  1  0
 13 12  1  0
 15 14  1  0
 15 26  1  0
 15 16  1  0
 17 11  1  0
 17 16  1  0
 18 11  2  0
 19 22  1  0
 19 21  1  0
 21  8  1  0
 21 20  1  0
 22 20  1  0
 23 24  2  0
 24 43  1  0
 25 24  1  0
 25 28  1  0
 26 27  1  0
 26 23  1  0
 27 25  2  0
 28 29  1  0
 29 30  2  0
 31 34  1  0
 31 30  1  0
 32 31  2  0
 33 32  1  0
 33 28  2  0
 34 35  1  0
 35 36  1  0
 36 37  2  0
 38 37  1  0
 38 42  1  0
 39 38  2  0
 40 35  2  0
 40 39  1  0
 41 40  1  0
 43 44  1  0
 44 47  1  0
 44 46  1  0
 45 43  2  0
 48 49  1  0
 48 23  1  0
 50 48  1  0
 51 52  1  0
 51  5  1  0
 52 53  1  0
 54 56  1  0
 54 53  1  0
 55 66  2  0
 56 61  1  0
 57 65  1  0
 57 67  1  0
 58 64  1  0
 58 60  1  0
 59 65  1  0
 60 59  1  0
 61 60  2  0
 62 63  1  0
 62 56  2  0
 63 58  2  0
 64 57  1  0
 65 55  1  0
 67 69  2  0
 68 67  1  0
 70 68  1  0
 71 80  2  0
 71 76  1  0
 72 68  1  0
 72 76  1  0
 73 72  1  0
 74 75  1  0
 74 73  1  0
 75 71  1  0
 76 77  2  0
 77 78  1  0
 79 78  2  0
 80 79  1  0
 81 55  1  0
 81 86  1  0
 81 82  1  0
 82 85  1  1
 82 83  1  0
 84 82  1  0
 86 89  1  0
 87 91  1  0
 87 86  1  0
 88 87  2  0
 91 90  1  0
 93 91  1  0
 93 94  1  0
 93 92  1  0
M  ISO  4  11 100  22 100  53 101  54 101
M  END
>  <TORSDO>  (75) 
F 20

>  <SCORE>  (75) 
-12.353

>  <name>  (75) 
77

>  <ligand_id>  (75) 
77

>  <original_smiles>  (75) 
[H]c1c([H])c([H])c2c(c1[H])C([H])([H])C([H])([H])C([H])([H])C2([H])N([H])C(=O)C1([H])N(C(=O)C([H])(N([H])C(=O)C([H])(N([H])C([H])([H])[H])C([H])([H])[H])C(C([H])([H])[H])(C([H])([H])[H])C([H])([H])[H])C([H])([H])c2c([H])c(OC([H])([H])C([H])([H])C([H])([H])[N+]3([H])C([H])([H])C([H])([H])C([H])([H])C3([H])C(=O)N([H])C3([H])C([H])([H])N(C(=O)N4C([H])([H])C([H])([H])C([H])([H])C([H])(n5nc(-c6c([H])c([H])c(Oc7c([H])c([H])c(F)c([H])c7F)c([H])c6[H])c(C(=O)N([H])[H])c5N([H])[H])C4([H])[H])C3([H])[H])c([H])c([H])c2C1([H])[H]

>  <smiles>  (75) 
[H]c1c([H])c([H])c2c(c1[H])C([H])([H])C([H])([H])C([H])([H])C2([H])N([H])C(=O)C1([H])N(C(=O)C([H])(N([H])C(=O)C([H])(N([H])C([H])([H])[H])C([H])([H])[H])C(C([H])([H])[H])(C([H])([H])[H])C([H])([H])[H])C([H])([H])c2c([H])c(OC([H])([H])C([H])([H])C([H])([H])[N+]3([H])C([H])([H])C([H])([H])C([H])([H])C3([H])C(=O)N([H])C3([H])C([H])([H])N(C(=O)N4C([H])([H])C([H])([H])C([H])([H])C([H])(n5nc(-c6c([H])c([H])c(Oc7c([H])c([H])c(F)c([H])c7F)c([H])c6[H])c(C(=O)N([H])[H])c5N([H])[H])C4([H])[H])C3([H])[H])c([H])c([H])c2C1([H])[H]

$$$$
78:0:0
     RDKit          3D

 98107  0  0  1  0  0  0  0  0999 V2000
  -29.2200  -20.9310   19.2280 C   0  0  0  0  0  2  0  0  0  0  0  0
  -28.2360  -21.7870   21.4150 C   0  0  0  0  0  2  0  0  0  0  0  0
  -27.9250  -21.4070   18.5250 C   0  0  0  0  0  2  0  0  0  0  0  0
  -27.0080  -22.2800   20.6050 C   0  0  0  0  0  2  0  0  0  0  0  0
  -28.9890  -20.6070   20.7160 C   0  0  0  0  0  3  0  0  0  0  0  0
  -27.3610  -22.6130   19.1900 N   0  0  1  0  0  4  0  0  0  0  0  0
  -26.4850  -22.8040   18.7260 H   0  0  0  0  0  0  0  0  0  0  0  0
  -32.8660  -19.3100   22.3850 C   0  0  0  0  0  3  0  0  0  0  0  0
  -32.0570  -18.3930   21.7010 C   0  0  0  0  0  3  0  0  0  0  0  0
  -32.3840  -20.6090   22.6060 C   0  0  0  0  0  3  0  0  0  0  0  0
  -30.3150  -20.1090   21.3550 C   0  0  0  0  0  0  0  0  0  0  0  0
  -30.7920  -18.7540   21.1720 C   0  0  0  0  0  0  0  0  0  0  0  0
  -31.1460  -21.0230   22.0800 C   0  0  0  0  0  0  0  0  0  0  0  0
  -30.7970  -22.3250   22.2390 F   0  0  0  0  0  0  0  0  0  0  0  0
  -29.9590  -17.6390   20.4950 C   0  0  0  0  0  2  0  0  0  0  0  0
  -31.5200  -15.6600   19.9940 C   0  0  0  0  0  0  0  0  0  0  0  0
  -31.4520  -13.2660   19.3790 C   0  0  0  0  0  2  0  0  0  0  0  0
  -30.5330  -13.0700   18.1480 C   0  0  0  0  0  2  0  0  0  0  0  0
  -29.0470  -12.9500   18.5550 C   0  0  0  0  0  2  0  0  0  0  0  0
  -28.6000  -14.0140   19.5950 C   0  0  0  0  0  3  0  0  0  0  0  0
  -29.6350  -14.1520   20.7360 C   0  0  0  0  0  2  0  0  0  0  0  0
  -30.9450  -14.4330   20.1300 N   0  0  0  0  0  0  0  0  0  0  0  0
  -32.6910  -15.8020   19.6400 O   0  0  0  0  0  0  0  0  0  0  0  0
  -30.6650  -16.6500   19.6630 N   0  0  0  0  0  0  0  0  0  0  0  0
  -30.7510  -16.9570   18.7060 H   0  0  0  0  0  0  0  0  0  0  0  0
  -26.2220  -14.6150   20.3650 C   0  0  0  0  0  0  0  0  0  0  0  0
  -25.1490  -13.8380   20.7370 C   0  0  0  0  0  0  0  0  0  0  0  0
  -25.6070  -12.4880   20.6740 C   0  0  0  0  0  0  0  0  0  0  0  0
  -27.2580  -13.7320   20.1020 N   0  0  0  0  0  0  0  0  0  0  0  0
  -26.8960  -12.4450   20.3500 N   0  0  0  0  0  0  0  0  0  0  0  0
  -24.8730  -11.2220   20.8480 C   0  0  0  0  0  0  0  0  0  0  0  0
  -25.2220  -10.2950   21.8550 C   0  0  0  0  0  3  0  0  0  0  0  0
  -24.4910   -9.0980   22.0100 C   0  0  0  0  0  3  0  0  0  0  0  0
  -23.3970   -8.8190   21.1560 C   0  0  0  0  0  0  0  0  0  0  0  0
  -23.0690   -9.7320   20.1370 C   0  0  0  0  0  3  0  0  0  0  0  0
  -23.8040  -10.9200   19.9820 C   0  0  0  0  0  3  0  0  0  0  0  0
  -22.6440   -7.6720   21.2220 O   0  0  0  0  0  0  0  0  0  0  0  0
  -22.3150   -7.0900   22.4210 C   0  0  0  0  0  0  0  0  0  0  0  0
  -21.5740   -7.7820   23.4030 C   0  0  0  0  0  3  0  0  0  0  0  0
  -21.1980   -7.1260   24.5940 C   0  0  0  0  0  3  0  0  0  0  0  0
  -21.5560   -5.7800   24.7990 C   0  0  0  0  0  0  0  0  0  0  0  0
  -22.2930   -5.0900   23.8220 C   0  0  0  0  0  3  0  0  0  0  0  0
  -22.6700   -5.7430   22.6360 C   0  0  0  0  0  0  0  0  0  0  0  0
  -23.3610   -5.0670   21.6860 F   0  0  0  0  0  0  0  0  0  0  0  0
  -21.1890   -5.1470   25.9380 F   0  0  0  0  0  0  0  0  0  0  0  0
  -23.7570  -14.3210   21.0340 C   0  0  0  0  0  0  0  0  0  0  0  0
  -23.0450  -13.6320   21.9250 N   0  0  0  0  0  0  0  0  0  0  0  0
  -23.3020  -15.3350   20.5140 O   0  0  0  0  0  0  0  0  0  0  0  0
  -23.4200  -12.8140   22.3760 H   0  0  0  0  0  0  0  0  0  0  0  0
  -22.1140  -13.9430   22.1670 H   0  0  0  0  0  0  0  0  0  0  0  0
  -26.3960  -15.9840   20.2080 N   0  0  0  0  0  0  0  0  0  0  0  0
  -25.6410  -16.6500   20.3330 H   0  0  0  0  0  0  0  0  0  0  0  0
  -27.2420  -16.4080   19.8470 H   0  0  0  0  0  0  0  0  0  0  0  0
  -28.2140  -23.8460   19.0230 C   0  0  0  0  0  2  0  0  0  0  0  0
  -27.5300  -25.0850   18.3970 C   0  0  0  0  0  3  0  0  0  0  0  0
  -27.5040  -24.9300   17.0720 F   0  0  0  0  0  0  0  0  0  0  0  0
  -28.3340  -26.3690   18.7520 C   0  0  0  0  0  2  0  0  0  0  0  0
  -27.9800  -27.5940   18.0950 O   0  0  0  0  0  0  0  0  0  0  0  0
  -24.4200  -31.1160   23.1650 C   0  0  0  0  0  0  0  0  0  0  0  0
  -26.8050  -28.1620   18.5100 C   0  0  0  0  0  0  0  0  0  0  0  0
  -23.0590  -30.1680   21.3330 C   0  0  0  0  0  3  0  0  0  0  0  0
  -24.3590  -29.3140   19.3150 C   0  0  0  0  0  0  0  0  0  0  0  0
  -25.4930  -30.8440   20.9320 C   0  0  0  0  0  2  0  0  0  0  0  0
  -25.5590  -29.7520   19.8860 C   0  0  0  0  0  0  0  0  0  0  0  0
  -26.7920  -29.1790   19.4870 C   0  0  0  0  0  3  0  0  0  0  0  0
  -25.5920  -27.7670   17.9160 C   0  0  0  0  0  3  0  0  0  0  0  0
  -24.3680  -28.3140   18.3340 C   0  0  0  0  0  3  0  0  0  0  0  0
  -23.0850  -29.9740   19.7940 C   0  0  0  0  0  2  0  0  0  0  0  0
  -24.3500  -30.7090   21.8670 N   0  0  0  0  0  0  0  0  0  0  0  0
  -23.4240  -31.0890   23.9020 O   0  0  0  0  0  0  0  0  0  0  0  0
  -22.6340  -28.8380   21.9890 C   0  0  0  0  0  0  0  0  0  0  0  0
  -21.3620  -28.4550   21.7950 N   0  0  0  0  0  0  0  0  0  0  0  0
  -23.4450  -28.1640   22.6330 O   0  0  0  0  0  0  0  0  0  0  0  0
  -20.7530  -29.0650   21.2650 H   0  0  0  0  0  0  0  0  0  0  0  0
  -18.4070  -26.3920   21.5990 C   0  0  0  0  0  0  0  0  0  0  0  0
  -20.7600  -27.2200   22.2880 C   0  0  0  0  0  3  0  0  0  0  0  0
  -21.3010  -25.9880   21.5190 C   0  0  0  0  0  2  0  0  0  0  0  0
  -20.4350  -25.6110   20.3140 C   0  0  0  0  0  2  0  0  0  0  0  0
  -19.0080  -25.2760   20.7640 C   0  0  0  0  0  2  0  0  0  0  0  0
  -19.2300  -27.3100   22.3050 C   0  0  0  0  0  0  0  0  0  0  0  0
  -18.6230  -28.3440   23.0460 C   0  0  0  0  0  3  0  0  0  0  0  0
  -17.2230  -28.4550   23.1050 C   0  0  0  0  0  3  0  0  0  0  0  0
  -16.4100  -27.5430   22.4090 C   0  0  0  0  0  3  0  0  0  0  0  0
  -17.0010  -26.5120   21.6550 C   0  0  0  0  0  3  0  0  0  0  0  0
  -25.7490  -31.6580   23.7770 C   0  0  0  0  0  3  0  0  0  0  0  0
  -25.4700  -33.0010   24.3070 N   0  0  0  0  0  0  0  0  0  0  0  0
  -25.8500  -34.1420   23.7170 C   0  0  0  0  0  0  0  0  0  0  0  0
  -26.5420  -34.1710   22.6930 O   0  0  0  0  0  0  0  0  0  0  0  0
  -24.8610  -33.0540   25.1120 H   0  0  0  0  0  0  0  0  0  0  0  0
  -24.1820  -36.0200   23.5920 C   0  0  0  0  0  1  0  0  0  0  0  0
  -25.3870  -35.4600   24.3660 C   0  0  0  0  0  3  0  0  0  0  0  0
  -27.5170  -36.1520   25.3710 C   0  0  0  0  0  1  0  0  0  0  0  0
  -26.4500  -36.4840   24.4310 N   0  0  0  0  0  0  0  0  0  0  0  0
  -26.0650  -37.3890   24.6890 H   0  0  0  0  0  0  0  0  0  0  0  0
  -26.3380  -30.7240   24.9030 C   0  0  1  0  0  0  0  0  0  0  0  0
  -25.3180  -30.3680   26.0100 C   0  0  0  0  0  1  0  0  0  0  0  0
  -26.8620  -29.3990   24.2970 C   0  0  0  0  0  1  0  0  0  0  0  0
  -27.5520  -31.4120   25.5720 C   0  0  0  0  0  1  0  0  0  0  0  0
  1  5  1  0
  3  6  1  0
  3  1  1  0
  4  2  1  0
  5 11  1  0
  5  2  1  0
  6  4  1  0
  6  7  1  6
  8 10  1  0
  9  8  2  0
 11 13  1  0
 12 11  2  0
 12  9  1  0
 13 14  1  0
 13 10  2  0
 15 12  1  0
 16 22  1  0
 17 22  1  0
 18 19  1  0
 18 17  1  0
 20 19  1  0
 20 29  1  0
 20 21  1  0
 22 21  1  0
 23 16  2  0
 24 16  1  0
 24 15  1  0
 25 24  1  0
 26 27  2  0
 27 46  1  0
 28 27  1  0
 28 31  1  0
 29 30  1  0
 29 26  1  0
 30 28  2  0
 31 32  1  0
 32 33  2  0
 34 37  1  0
 34 33  1  0
 35 34  2  0
 36 35  1  0
 36 31  2  0
 37 38  1  0
 38 43  2  0
 38 39  1  0
 39 40  2  0
 40 41  1  0
 41 45  1  0
 42 41  2  0
 43 42  1  0
 44 43  1  0
 46 47  1  0
 47 50  1  0
 47 49  1  0
 48 46  2  0
 51 52  1  0
 51 26  1  0
 53 51  1  0
 54  6  1  0
 55 56  1  0
 55 57  1  0
 55 54  1  0
 58 60  1  0
 58 57  1  0
 59 70  2  0
 60 65  1  0
 61 69  1  0
 61 71  1  0
 62 68  1  0
 62 64  1  0
 63 69  1  0
 64 63  1  0
 65 64  2  0
 66 67  1  0
 66 60  2  0
 67 62  2  0
 68 61  1  0
 69 59  1  0
 71 73  2  0
 72 71  1  0
 74 72  1  0
 75 84  2  0
 75 80  1  0
 76 72  1  0
 76 80  1  0
 77 76  1  0
 78 79  1  0
 78 77  1  0
 79 75  1  0
 80 81  2  0
 81 82  1  0
 83 82  2  0
 84 83  1  0
 85 59  1  0
 85 86  1  0
 85 95  1  0
 86 89  1  0
 87 86  1  0
 87 91  1  0
 88 87  2  0
 91 90  1  0
 91 93  1  0
 93 94  1  0
 93 92  1  0
 95 98  1  1
 95 96  1  0
 97 95  1  0
M  ISO  4  16 100  24 100  57 101  58 101
M  END
>  <TORSDO>  (76) 
F 21

>  <SCORE>  (76) 
-9.312

>  <name>  (76) 
78

>  <ligand_id>  (76) 
78

>  <original_smiles>  (76) 
[H]c1c([H])c(F)c(C2([H])C([H])([H])C([H])([H])[N+]([H])(C([H])([H])C([H])(F)C([H])([H])Oc3c([H])c([H])c4c(c3[H])C([H])([H])N(C(=O)C([H])(N([H])C(=O)C([H])(N([H])C([H])([H])[H])C([H])([H])[H])C(C([H])([H])[H])(C([H])([H])[H])C([H])([H])[H])C([H])(C(=O)N([H])C3([H])c5c([H])c([H])c([H])c([H])c5C([H])([H])C([H])([H])C3([H])[H])C4([H])[H])C([H])([H])C2([H])[H])c(C([H])([H])N([H])C(=O)N2C([H])([H])C([H])([H])C([H])([H])C([H])(n3nc(-c4c([H])c([H])c(Oc5c([H])c([H])c(F)c([H])c5F)c([H])c4[H])c(C(=O)N([H])[H])c3N([H])[H])C2([H])[H])c1[H]

>  <smiles>  (76) 
[H]c1c([H])c(F)c(C2([H])C([H])([H])C([H])([H])[N+]([H])(C([H])([H])C([H])(F)C([H])([H])Oc3c([H])c([H])c4c(c3[H])C([H])([H])N(C(=O)C([H])(N([H])C(=O)C([H])(N([H])C([H])([H])[H])C([H])([H])[H])C(C([H])([H])[H])(C([H])([H])[H])C([H])([H])[H])C([H])(C(=O)N([H])C3([H])c5c([H])c([H])c([H])c([H])c5C([H])([H])C([H])([H])C3([H])[H])C4([H])[H])C([H])([H])C2([H])[H])c(C([H])([H])N([H])C(=O)N2C([H])([H])C([H])([H])C([H])([H])C([H])(n3nc(-c4c([H])c([H])c(Oc5c([H])c([H])c(F)c([H])c5F)c([H])c4[H])c(C(=O)N([H])[H])c3N([H])[H])C2([H])[H])c1[H]

$$$$
79:0:0
     RDKit          3D

 97106  0  0  1  0  0  0  0  0999 V2000
  -31.0860  -24.3110   22.9280 C   0  0  0  0  0  1  0  0  0  0  0  0
  -30.5740  -23.6420   21.7040 N   0  0  2  0  0  4  0  0  0  0  0  0
  -29.5720  -23.7590   21.7280 H   0  0  0  0  0  0  0  0  0  0  0  0
  -29.8440  -21.5590   22.7620 C   0  0  0  0  0  2  0  0  0  0  0  0
  -29.8050  -21.1520   21.3080 C   0  0  0  0  0  3  0  0  0  0  0  0
  -30.8440  -22.1690   21.8040 C   0  0  0  0  0  3  0  0  0  0  0  0
  -29.1400  -18.7670   21.7370 C   0  0  0  0  0  3  0  0  0  0  0  0
  -29.2980  -17.3730   21.6130 C   0  0  0  0  0  3  0  0  0  0  0  0
  -31.2180  -17.7180   20.1690 C   0  0  0  0  0  3  0  0  0  0  0  0
  -30.0180  -19.6650   21.0910 C   0  0  0  0  0  0  0  0  0  0  0  0
  -30.3370  -16.8250   20.8320 C   0  0  0  0  0  0  0  0  0  0  0  0
  -31.0570  -19.1220   20.2990 C   0  0  0  0  0  0  0  0  0  0  0  0
  -31.9140  -19.9540   19.6580 F   0  0  0  0  0  0  0  0  0  0  0  0
  -30.9410  -14.5550   19.8700 C   0  0  0  0  0  0  0  0  0  0  0  0
  -30.5700  -12.4230   18.6630 C   0  0  0  0  0  2  0  0  0  0  0  0
  -29.4990  -12.6310   17.5710 C   0  0  0  0  0  2  0  0  0  0  0  0
  -28.0750  -12.4720   18.1460 C   0  0  0  0  0  2  0  0  0  0  0  0
  -27.8670  -13.2830   19.4520 C   0  0  0  0  0  3  0  0  0  0  0  0
  -29.0240  -13.0140   20.4380 C   0  0  0  0  0  2  0  0  0  0  0  0
  -30.2930  -13.3600   19.7620 N   0  0  0  0  0  0  0  0  0  0  0  0
  -31.9440  -14.8380   19.2050 O   0  0  0  0  0  0  0  0  0  0  0  0
  -30.3810  -15.3960   20.7610 N   0  0  0  0  0  0  0  0  0  0  0  0
  -29.6940  -14.9320   21.3360 H   0  0  0  0  0  0  0  0  0  0  0  0
  -25.5740  -13.8820   20.4670 C   0  0  0  0  0  0  0  0  0  0  0  0
  -24.5360  -13.1040   20.9040 C   0  0  0  0  0  0  0  0  0  0  0  0
  -24.9560  -11.7500   20.7260 C   0  0  0  0  0  0  0  0  0  0  0  0
  -26.5650  -13.0010   20.0570 N   0  0  0  0  0  0  0  0  0  0  0  0
  -26.2000  -11.7110   20.2670 N   0  0  0  0  0  0  0  0  0  0  0  0
  -24.2260  -10.4900   20.9120 C   0  0  0  0  0  0  0  0  0  0  0  0
  -24.6680   -9.5090   21.8270 C   0  0  0  0  0  3  0  0  0  0  0  0
  -23.9420   -8.3110   22.0020 C   0  0  0  0  0  3  0  0  0  0  0  0
  -22.7560   -8.0870   21.2600 C   0  0  0  0  0  0  0  0  0  0  0  0
  -22.3310   -9.0580   20.3360 C   0  0  0  0  0  3  0  0  0  0  0  0
  -23.0600  -10.2470   20.1600 C   0  0  0  0  0  3  0  0  0  0  0  0
  -21.9990   -6.9440   21.3440 O   0  0  0  0  0  0  0  0  0  0  0  0
  -21.8530   -6.2640   22.5270 C   0  0  0  0  0  0  0  0  0  0  0  0
  -21.3430   -6.8870   23.6850 C   0  0  0  0  0  3  0  0  0  0  0  0
  -21.1430   -6.1340   24.8600 C   0  0  0  0  0  3  0  0  0  0  0  0
  -21.4420   -4.7590   24.8740 C   0  0  0  0  0  0  0  0  0  0  0  0
  -21.9440   -4.1340   23.7190 C   0  0  0  0  0  3  0  0  0  0  0  0
  -22.1470   -4.8860   22.5470 C   0  0  0  0  0  0  0  0  0  0  0  0
  -22.6110   -4.2750   21.4300 F   0  0  0  0  0  0  0  0  0  0  0  0
  -21.2410   -4.0330   25.9990 F   0  0  0  0  0  0  0  0  0  0  0  0
  -23.1910  -13.5840   21.3700 C   0  0  0  0  0  0  0  0  0  0  0  0
  -22.5640  -12.8580   22.2880 N   0  0  0  0  0  0  0  0  0  0  0  0
  -22.7090  -14.6370   20.9550 O   0  0  0  0  0  0  0  0  0  0  0  0
  -22.9670  -12.0050   22.6460 H   0  0  0  0  0  0  0  0  0  0  0  0
  -21.6680  -13.1630   22.6420 H   0  0  0  0  0  0  0  0  0  0  0  0
  -25.7550  -15.2590   20.3700 N   0  0  0  0  0  0  0  0  0  0  0  0
  -25.0260  -15.9190   20.6180 H   0  0  0  0  0  0  0  0  0  0  0  0
  -26.5760  -15.7040   19.9820 H   0  0  0  0  0  0  0  0  0  0  0  0
  -31.0350  -24.2510   20.4110 C   0  0  0  0  0  2  0  0  0  0  0  0
  -31.7010  -26.1780   18.8940 C   0  0  0  0  0  1  0  0  0  0  0  0
  -31.2240  -25.8140   20.3140 C   0  0  2  0  0  0  0  0  0  0  0  0
  -32.2580  -26.1840   21.0720 F   0  0  0  0  0  0  0  0  0  0  0  0
  -30.0140  -26.7240   20.7020 C   0  0  0  0  0  2  0  0  0  0  0  0
  -29.0130  -26.6680   19.6910 O   0  0  0  0  0  0  0  0  0  0  0  0
  -24.7940  -31.4840   23.0040 C   0  0  0  0  0  0  0  0  0  0  0  0
  -27.8430  -27.3900   19.8070 C   0  0  0  0  0  0  0  0  0  0  0  0
  -23.7360  -30.0770   21.2660 C   0  0  0  0  0  3  0  0  0  0  0  0
  -25.3390  -28.7140   19.8230 C   0  0  0  0  0  0  0  0  0  0  0  0
  -26.2340  -30.6210   21.1630 C   0  0  0  0  0  2  0  0  0  0  0  0
  -26.4390  -29.2880   20.4750 C   0  0  0  0  0  0  0  0  0  0  0  0
  -27.6940  -28.6300   20.4780 C   0  0  0  0  0  3  0  0  0  0  0  0
  -26.7260  -26.8380   19.1490 C   0  0  0  0  0  3  0  0  0  0  0  0
  -25.4750  -27.4830   19.1620 C   0  0  0  0  0  3  0  0  0  0  0  0
  -24.0340  -29.4780   19.8650 C   0  0  0  0  0  2  0  0  0  0  0  0
  -24.9370  -30.7410   21.8700 N   0  0  0  0  0  0  0  0  0  0  0  0
  -23.6810  -31.6520   23.5240 O   0  0  0  0  0  0  0  0  0  0  0  0
  -23.1350  -28.9680   22.1600 C   0  0  0  0  0  0  0  0  0  0  0  0
  -21.8240  -28.7210   22.0110 N   0  0  0  0  0  0  0  0  0  0  0  0
  -23.8480  -28.3330   22.9430 O   0  0  0  0  0  0  0  0  0  0  0  0
  -21.3080  -29.2900   21.3530 H   0  0  0  0  0  0  0  0  0  0  0  0
  -18.5100  -27.3450   22.4360 C   0  0  0  0  0  0  0  0  0  0  0  0
  -21.0550  -27.6980   22.7180 C   0  0  0  0  0  3  0  0  0  0  0  0
  -21.2180  -26.3150   22.0470 C   0  0  0  0  0  2  0  0  0  0  0  0
  -20.1260  -26.0130   21.0150 C   0  0  0  0  0  2  0  0  0  0  0  0
  -18.7420  -26.0530   21.6710 C   0  0  0  0  0  2  0  0  0  0  0  0
  -19.5950  -28.1250   22.9140 C   0  0  0  0  0  0  0  0  0  0  0  0
  -19.3240  -29.3360   23.5890 C   0  0  0  0  0  3  0  0  0  0  0  0
  -17.9990  -29.7660   23.7910 C   0  0  0  0  0  3  0  0  0  0  0  0
  -16.9290  -28.9820   23.3290 C   0  0  0  0  0  3  0  0  0  0  0  0
  -17.1840  -27.7730   22.6580 C   0  0  0  0  0  3  0  0  0  0  0  0
  -26.0150  -32.1750   23.6870 C   0  0  0  0  0  3  0  0  0  0  0  0
  -25.6090  -33.5410   24.0380 N   0  0  0  0  0  0  0  0  0  0  0  0
  -25.9090  -34.6320   23.3190 C   0  0  0  0  0  0  0  0  0  0  0  0
  -26.6260  -34.5950   22.3150 O   0  0  0  0  0  0  0  0  0  0  0  0
  -24.9740  -33.6400   24.8170 H   0  0  0  0  0  0  0  0  0  0  0  0
  -24.0930  -36.3270   22.9300 C   0  0  0  0  0  1  0  0  0  0  0  0
  -25.3190  -35.9750   23.7870 C   0  0  0  0  0  3  0  0  0  0  0  0
  -27.3600  -36.9590   24.7340 C   0  0  0  0  0  1  0  0  0  0  0  0
  -26.2910  -37.0900   23.7470 N   0  0  0  0  0  0  0  0  0  0  0  0
  -25.8260  -37.9800   23.9020 H   0  0  0  0  0  0  0  0  0  0  0  0
  -26.5360  -31.4020   24.9610 C   0  0  1  0  0  0  0  0  0  0  0  0
  -25.4230  -31.0650   25.9810 C   0  0  0  0  0  1  0  0  0  0  0  0
  -27.2190  -30.0760   24.5540 C   0  0  0  0  0  1  0  0  0  0  0  0
  -27.6090  -32.2490   25.6850 C   0  0  0  0  0  1  0  0  0  0  0  0
  2  3  1  1
  2  1  1  0
  5 10  1  0
  5  6  1  0
  5  4  1  0
  6  2  1  0
  6  4  1  0
  8  7  1  0
  9 12  2  0
  9 11  1  0
 10  7  2  0
 11  8  2  0
 12 10  1  0
 13 12  1  0
 14 22  1  0
 15 20  1  0
 16 17  1  0
 16 15  1  0
 18 17  1  0
 18 27  1  0
 18 19  1  0
 20 14  1  0
 20 19  1  0
 21 14  2  0
 22 11  1  0
 22 23  1  0
 24 25  2  0
 25 44  1  0
 26 25  1  0
 26 29  1  0
 27 28  1  0
 27 24  1  0
 28 26  2  0
 29 30  1  0
 30 31  2  0
 32 35  1  0
 32 31  1  0
 33 32  2  0
 34 33  1  0
 34 29  2  0
 35 36  1  0
 36 41  2  0
 36 37  1  0
 37 38  2  0
 38 39  1  0
 39 43  1  0
 40 39  2  0
 41 40  1  0
 42 41  1  0
 44 45  1  0
 45 48  1  0
 45 47  1  0
 46 44  2  0
 49 24  1  0
 49 50  1  0
 51 49  1  0
 52  2  1  0
 54 53  1  6
 54 52  1  0
 54 56  1  0
 54 55  1  0
 57 59  1  0
 57 56  1  0
 58 69  2  0
 59 64  1  0
 60 68  1  0
 60 70  1  0
 61 67  1  0
 61 63  1  0
 62 68  1  0
 63 64  2  0
 63 62  1  0
 65 66  1  0
 65 59  2  0
 66 61  2  0
 67 60  1  0
 68 58  1  0
 70 72  2  0
 71 70  1  0
 73 71  1  0
 74 83  2  0
 74 79  1  0
 75 71  1  0
 75 79  1  0
 76 75  1  0
 77 78  1  0
 77 76  1  0
 78 74  1  0
 79 80  2  0
 80 81  1  0
 82 81  2  0
 83 82  1  0
 84 58  1  0
 84 85  1  0
 84 94  1  0
 85 88  1  0
 86 90  1  0
 86 85  1  0
 87 86  2  0
 90 89  1  0
 92 90  1  0
 92 93  1  0
 92 91  1  0
 94 97  1  1
 94 95  1  0
 96 94  1  0
M  ISO  4  14 100  22 100  56 101  57 101
M  END
>  <TORSDO>  (77) 
F 21

>  <SCORE>  (77) 
-9.022

>  <name>  (77) 
79

>  <ligand_id>  (77) 
79

>  <original_smiles>  (77) 
[H]c1c([H])c([H])c2c(c1[H])C([H])([H])C([H])([H])C([H])([H])C2([H])N([H])C(=O)C1([H])N(C(=O)C([H])(N([H])C(=O)C([H])(N([H])C([H])([H])[H])C([H])([H])[H])C(C([H])([H])[H])(C([H])([H])[H])C([H])([H])[H])C([H])([H])c2c([H])c(OC([H])([H])C(F)(C([H])([H])[H])C([H])([H])[N+]([H])(C([H])([H])[H])C3([H])C([H])([H])C3([H])c3c([H])c([H])c(N([H])C(=O)N4C([H])([H])C([H])([H])C([H])([H])C([H])(n5nc(-c6c([H])c([H])c(Oc7c([H])c([H])c(F)c([H])c7F)c([H])c6[H])c(C(=O)N([H])[H])c5N([H])[H])C4([H])[H])c([H])c3F)c([H])c([H])c2C1([H])[H]

>  <smiles>  (77) 
[H]c1c([H])c([H])c2c(c1[H])C([H])([H])C([H])([H])C([H])([H])C2([H])N([H])C(=O)C1([H])N(C(=O)C([H])(N([H])C(=O)C([H])(N([H])C([H])([H])[H])C([H])([H])[H])C(C([H])([H])[H])(C([H])([H])[H])C([H])([H])[H])C([H])([H])c2c([H])c(OC([H])([H])C(F)(C([H])([H])[H])C([H])([H])[N+]([H])(C([H])([H])[H])C3([H])C([H])([H])C3([H])c3c([H])c([H])c(N([H])C(=O)N4C([H])([H])C([H])([H])C([H])([H])C([H])(n5nc(-c6c([H])c([H])c(Oc7c([H])c([H])c(F)c([H])c7F)c([H])c6[H])c(C(=O)N([H])[H])c5N([H])[H])C4([H])[H])c([H])c3F)c([H])c([H])c2C1([H])[H]

$$$$
80:0:0
     RDKit          3D

 94102  0  0  1  0  0  0  0  0999 V2000
  -29.8990  -21.7230   20.1090 C   0  0  0  0  0  0  0  0  0  0  0  0
  -30.1470  -22.7770   20.9220 N   0  0  0  0  0  0  0  0  0  0  0  0
  -29.3820  -21.9000   19.0040 O   0  0  0  0  0  0  0  0  0  0  0  0
  -30.6460  -22.6120   21.7870 H   0  0  0  0  0  0  0  0  0  0  0  0
  -31.3900  -19.9590   21.2490 C   0  0  0  0  0  3  0  0  0  0  0  0
  -31.6360  -18.6200   21.6390 C   0  0  0  0  0  3  0  0  0  0  0  0
  -29.5600  -17.9150   20.5930 C   0  0  0  0  0  3  0  0  0  0  0  0
  -30.1990  -20.3010   20.5550 C   0  0  0  0  0  0  0  0  0  0  0  0
  -30.7030  -17.5980   21.3440 C   0  0  0  0  0  0  0  0  0  0  0  0
  -29.3070  -19.2470   20.2030 C   0  0  0  0  0  0  0  0  0  0  0  0
  -28.1710  -19.4770   19.5000 F   0  0  0  0  0  0  0  0  0  0  0  0
  -30.9040  -16.1990   21.9120 C   0  0  0  0  0  2  0  0  0  0  0  0
  -30.6930  -14.3590   20.2400 C   0  0  0  0  0  0  0  0  0  0  0  0
  -30.2520  -12.3140   18.9220 C   0  0  0  0  0  2  0  0  0  0  0  0
  -29.2560  -12.5930   17.7790 C   0  0  0  0  0  2  0  0  0  0  0  0
  -27.8030  -12.4730   18.2750 C   0  0  0  0  0  2  0  0  0  0  0  0
  -27.5570  -13.2630   19.5860 C   0  0  0  0  0  3  0  0  0  0  0  0
  -28.6460  -12.9380   20.6260 C   0  0  0  0  0  2  0  0  0  0  0  0
  -29.9540  -13.2460   20.0140 N   0  0  0  0  0  0  0  0  0  0  0  0
  -31.7320  -14.6360   19.6330 O   0  0  0  0  0  0  0  0  0  0  0  0
  -30.2040  -15.1320   21.2120 N   0  0  0  0  0  0  0  0  0  0  0  0
  -29.3200  -14.8290   21.5930 H   0  0  0  0  0  0  0  0  0  0  0  0
  -25.2020  -13.9020   20.3970 C   0  0  0  0  0  0  0  0  0  0  0  0
  -24.1450  -13.1330   20.8130 C   0  0  0  0  0  0  0  0  0  0  0  0
  -24.5960  -11.7830   20.7570 C   0  0  0  0  0  0  0  0  0  0  0  0
  -26.2260  -13.0110   20.1230 N   0  0  0  0  0  0  0  0  0  0  0  0
  -25.8670  -11.7310   20.3920 N   0  0  0  0  0  0  0  0  0  0  0  0
  -23.8700  -10.5220   20.9690 C   0  0  0  0  0  0  0  0  0  0  0  0
  -24.3390   -9.5520   21.8840 C   0  0  0  0  0  3  0  0  0  0  0  0
  -23.6220   -8.3530   22.0810 C   0  0  0  0  0  3  0  0  0  0  0  0
  -22.4270   -8.1150   21.3590 C   0  0  0  0  0  0  0  0  0  0  0  0
  -21.9770   -9.0720   20.4330 C   0  0  0  0  0  3  0  0  0  0  0  0
  -22.6950  -10.2650   20.2340 C   0  0  0  0  0  3  0  0  0  0  0  0
  -21.6750   -6.9710   21.4710 O   0  0  0  0  0  0  0  0  0  0  0  0
  -21.6560   -6.2310   22.6260 C   0  0  0  0  0  0  0  0  0  0  0  0
  -21.2620   -6.7860   23.8630 C   0  0  0  0  0  3  0  0  0  0  0  0
  -21.1900   -5.9720   25.0090 C   0  0  0  0  0  3  0  0  0  0  0  0
  -21.5040   -4.6020   24.9220 C   0  0  0  0  0  0  0  0  0  0  0  0
  -21.8950   -4.0470   23.6910 C   0  0  0  0  0  3  0  0  0  0  0  0
  -21.9690   -4.8590   22.5460 C   0  0  0  0  0  0  0  0  0  0  0  0
  -22.3250   -4.3110   21.3580 F   0  0  0  0  0  0  0  0  0  0  0  0
  -21.4260   -3.8200   26.0230 F   0  0  0  0  0  0  0  0  0  0  0  0
  -22.7670  -13.6160   21.1510 C   0  0  0  0  0  0  0  0  0  0  0  0
  -22.0780  -12.9160   22.0490 N   0  0  0  0  0  0  0  0  0  0  0  0
  -22.3090  -14.6470   20.6610 O   0  0  0  0  0  0  0  0  0  0  0  0
  -22.4560  -12.0770   22.4610 H   0  0  0  0  0  0  0  0  0  0  0  0
  -21.1560  -13.2220   22.3280 H   0  0  0  0  0  0  0  0  0  0  0  0
  -25.3660  -15.2700   20.2180 N   0  0  0  0  0  0  0  0  0  0  0  0
  -24.6080  -15.9240   20.3530 H   0  0  0  0  0  0  0  0  0  0  0  0
  -26.1970  -15.7120   19.8460 H   0  0  0  0  0  0  0  0  0  0  0  0
  -29.8100  -24.1690   20.5190 C   0  0  0  0  0  2  0  0  0  0  0  0
  -29.5280  -25.2150   21.6380 C   0  0  0  0  0  2  0  0  0  0  0  0
  -29.4420  -26.6700   21.1080 C   0  0  0  0  0  2  0  0  0  0  0  0
  -28.4410  -26.7400   20.0740 O   0  0  0  0  0  0  0  0  0  0  0  0
  -24.6000  -31.9350   23.2780 C   0  0  0  0  0  0  0  0  0  0  0  0
  -27.2800  -27.4820   20.2120 C   0  0  0  0  0  0  0  0  0  0  0  0
  -23.4070  -30.5280   21.6370 C   0  0  0  0  0  3  0  0  0  0  0  0
  -24.8580  -28.9760   20.2260 C   0  0  0  0  0  0  0  0  0  0  0  0
  -25.9380  -30.8440   21.4850 C   0  0  0  0  0  2  0  0  0  0  0  0
  -26.0110  -29.4800   20.8410 C   0  0  0  0  0  0  0  0  0  0  0  0
  -27.2220  -28.7490   20.8280 C   0  0  0  0  0  3  0  0  0  0  0  0
  -26.0980  -26.9740   19.6110 C   0  0  0  0  0  3  0  0  0  0  0  0
  -24.8920  -27.7060   19.6210 C   0  0  0  0  0  3  0  0  0  0  0  0
  -23.6270  -29.8620   20.2550 C   0  0  0  0  0  2  0  0  0  0  0  0
  -24.6650  -31.1160   22.1900 N   0  0  0  0  0  0  0  0  0  0  0  0
  -23.5120  -32.2090   23.7990 O   0  0  0  0  0  0  0  0  0  0  0  0
  -22.7390  -29.5010   22.5780 C   0  0  0  0  0  0  0  0  0  0  0  0
  -21.4170  -29.3300   22.4370 N   0  0  0  0  0  0  0  0  0  0  0  0
  -23.4120  -28.8730   23.3960 O   0  0  0  0  0  0  0  0  0  0  0  0
  -20.9350  -29.8970   21.7540 H   0  0  0  0  0  0  0  0  0  0  0  0
  -18.0230  -28.1820   22.9420 C   0  0  0  0  0  0  0  0  0  0  0  0
  -20.5850  -28.3950   23.1970 C   0  0  0  0  0  3  0  0  0  0  0  0
  -20.6640  -26.9660   22.6150 C   0  0  0  0  0  2  0  0  0  0  0  0
  -19.5510  -26.6650   21.6040 C   0  0  0  0  0  2  0  0  0  0  0  0
  -18.1720  -26.8340   22.2530 C   0  0  0  0  0  2  0  0  0  0  0  0
  -19.1570  -28.9210   23.3730 C   0  0  0  0  0  0  0  0  0  0  0  0
  -18.9660  -30.1860   23.9730 C   0  0  0  0  0  3  0  0  0  0  0  0
  -17.6710  -30.7070   24.1460 C   0  0  0  0  0  3  0  0  0  0  0  0
  -16.5510  -29.9640   23.7360 C   0  0  0  0  0  3  0  0  0  0  0  0
  -16.7270  -28.7040   23.1360 C   0  0  0  0  0  3  0  0  0  0  0  0
  -25.8810  -32.5590   23.9100 C   0  0  0  0  0  3  0  0  0  0  0  0
  -25.5720  -33.9590   24.2190 N   0  0  0  0  0  0  0  0  0  0  0  0
  -25.9020  -35.0050   23.4490 C   0  0  0  0  0  0  0  0  0  0  0  0
  -26.5780  -34.8950   22.4230 O   0  0  0  0  0  0  0  0  0  0  0  0
  -24.9960  -34.1280   25.0280 H   0  0  0  0  0  0  0  0  0  0  0  0
  -24.1830  -36.7980   23.0510 C   0  0  0  0  0  1  0  0  0  0  0  0
  -25.4130  -36.3990   23.8820 C   0  0  0  0  0  3  0  0  0  0  0  0
  -27.5390  -37.2870   24.7320 C   0  0  0  0  0  1  0  0  0  0  0  0
  -26.4520  -37.4500   23.7710 N   0  0  0  0  0  0  0  0  0  0  0  0
  -26.0520  -38.3760   23.8990 H   0  0  0  0  0  0  0  0  0  0  0  0
  -26.3710  -31.8070   25.2080 C   0  0  1  0  0  0  0  0  0  0  0  0
  -25.2630  -31.5840   26.2640 C   0  0  0  0  0  1  0  0  0  0  0  0
  -26.9690  -30.4290   24.8570 C   0  0  0  0  0  1  0  0  0  0  0  0
  -27.5070  -32.6180   25.8790 C   0  0  0  0  0  1  0  0  0  0  0  0
  1  8  1  0
  1  2  1  0
  2  4  1  0
  3  1  2  0
  5  6  1  0
  7  9  1  0
  8  5  2  0
  9  6  2  0
  9 12  1  0
 10  8  1  0
 10  7  2  0
 11 10  1  0
 13 21  1  0
 14 19  1  0
 15 16  1  0
 15 14  1  0
 17 16  1  0
 17 26  1  0
 17 18  1  0
 19 13  1  0
 19 18  1  0
 20 13  2  0
 21 22  1  0
 21 12  1  0
 23 24  2  0
 24 43  1  0
 25 24  1  0
 25 28  1  0
 26 27  1  0
 26 23  1  0
 27 25  2  0
 28 29  1  0
 29 30  2  0
 31 34  1  0
 31 30  1  0
 32 31  2  0
 33 32  1  0
 33 28  2  0
 34 35  1  0
 35 36  1  0
 36 37  2  0
 38 37  1  0
 38 42  1  0
 39 38  2  0
 40 35  2  0
 40 39  1  0
 41 40  1  0
 43 44  1  0
 44 47  1  0
 44 46  1  0
 45 43  2  0
 48 49  1  0
 48 23  1  0
 50 48  1  0
 51  2  1  0
 51 52  1  0
 53 52  1  0
 54 56  1  0
 54 53  1  0
 55 66  2  0
 56 61  1  0
 57 65  1  0
 57 67  1  0
 58 64  1  0
 58 60  1  0
 59 65  1  0
 60 59  1  0
 61 60  2  0
 62 63  1  0
 62 56  2  0
 63 58  2  0
 64 57  1  0
 65 55  1  0
 67 69  2  0
 68 67  1  0
 70 68  1  0
 71 80  2  0
 71 76  1  0
 72 68  1  0
 72 76  1  0
 73 72  1  0
 74 75  1  0
 74 73  1  0
 75 71  1  0
 76 77  2  0
 77 78  1  0
 79 78  2  0
 80 79  1  0
 81 55  1  0
 81 82  1  0
 81 91  1  0
 82 85  1  0
 83 87  1  0
 83 82  1  0
 84 83  2  0
 87 86  1  0
 89 87  1  0
 89 90  1  0
 89 88  1  0
 91 94  1  1
 91 92  1  0
 93 91  1  0
M  ISO  4  13 100  21 100  53 101  54 101
M  END
>  <TORSDO>  (78) 
F 21

>  <SCORE>  (78) 
-13.856

>  <name>  (78) 
80

>  <ligand_id>  (78) 
80

>  <original_smiles>  (78) 
[H]c1c([H])c([H])c2c(c1[H])C([H])([H])C([H])([H])C([H])([H])C2([H])N([H])C(=O)C1([H])N(C(=O)C([H])(N([H])C(=O)C([H])(N([H])C([H])([H])[H])C([H])([H])[H])C(C([H])([H])[H])(C([H])([H])[H])C([H])([H])[H])C([H])([H])c2c([H])c(OC([H])([H])C([H])([H])C([H])([H])N([H])C(=O)c3c([H])c([H])c(C([H])([H])N([H])C(=O)N4C([H])([H])C([H])([H])C([H])([H])C([H])(n5nc(-c6c([H])c([H])c(Oc7c([H])c([H])c(F)c([H])c7F)c([H])c6[H])c(C(=O)N([H])[H])c5N([H])[H])C4([H])[H])c([H])c3F)c([H])c([H])c2C1([H])[H]

>  <smiles>  (78) 
[H]c1c([H])c([H])c2c(c1[H])C([H])([H])C([H])([H])C([H])([H])C2([H])N([H])C(=O)C1([H])N(C(=O)C([H])(N([H])C(=O)C([H])(N([H])C([H])([H])[H])C([H])([H])[H])C(C([H])([H])[H])(C([H])([H])[H])C([H])([H])[H])C([H])([H])c2c([H])c(OC([H])([H])C([H])([H])C([H])([H])N([H])C(=O)c3c([H])c([H])c(C([H])([H])N([H])C(=O)N4C([H])([H])C([H])([H])C([H])([H])C([H])(n5nc(-c6c([H])c([H])c(Oc7c([H])c([H])c(F)c([H])c7F)c([H])c6[H])c(C(=O)N([H])[H])c5N([H])[H])C4([H])[H])c([H])c3F)c([H])c([H])c2C1([H])[H]

$$$$
81:0:0
     RDKit          3D

 95103  0  0  1  0  0  0  0  0999 V2000
  -28.0290  -21.0780   19.3170 C   0  0  0  0  0  2  0  0  0  0  0  0
  -29.8130  -17.6800   19.5200 C   0  0  0  0  0  3  0  0  0  0  0  0
  -30.1900  -18.8740   21.6080 C   0  0  0  0  0  3  0  0  0  0  0  0
  -30.3880  -17.7250   20.8090 C   0  0  0  0  0  0  0  0  0  0  0  0
  -28.8740  -19.9170   19.8300 C   0  0  0  0  0  0  0  0  0  0  0  0
  -29.0660  -18.7690   19.0310 C   0  0  0  0  0  0  0  0  0  0  0  0
  -29.4320  -19.9600   21.1240 C   0  0  0  0  0  0  0  0  0  0  0  0
  -28.5260  -18.7020   17.7900 F   0  0  0  0  0  0  0  0  0  0  0  0
  -29.2480  -21.0550   21.9020 F   0  0  0  0  0  0  0  0  0  0  0  0
  -31.2410  -16.5740   21.3290 C   0  0  0  0  0  2  0  0  0  0  0  0
  -31.2000  -14.3790   20.1050 C   0  0  0  0  0  0  0  0  0  0  0  0
  -30.7760  -12.2400   18.9440 C   0  0  0  0  0  2  0  0  0  0  0  0
  -29.8020  -12.4430   17.7670 C   0  0  0  0  0  2  0  0  0  0  0  0
  -28.3380  -12.3660   18.2420 C   0  0  0  0  0  2  0  0  0  0  0  0
  -28.0690  -13.2550   19.4840 C   0  0  0  0  0  3  0  0  0  0  0  0
  -29.1380  -13.0040   20.5680 C   0  0  0  0  0  2  0  0  0  0  0  0
  -30.4680  -13.2440   19.9730 N   0  0  0  0  0  0  0  0  0  0  0  0
  -32.2240  -14.6080   19.4510 O   0  0  0  0  0  0  0  0  0  0  0  0
  -30.7140  -15.2530   20.9960 N   0  0  0  0  0  0  0  0  0  0  0  0
  -29.8960  -14.9520   21.5050 H   0  0  0  0  0  0  0  0  0  0  0  0
  -25.7320  -13.9900   20.2770 C   0  0  0  0  0  0  0  0  0  0  0  0
  -24.6350  -13.2740   20.6750 C   0  0  0  0  0  0  0  0  0  0  0  0
  -25.0220  -11.8990   20.6270 C   0  0  0  0  0  0  0  0  0  0  0  0
  -26.7180  -13.0540   20.0030 N   0  0  0  0  0  0  0  0  0  0  0  0
  -26.2940  -11.7920   20.2690 N   0  0  0  0  0  0  0  0  0  0  0  0
  -24.2390  -10.6760   20.8460 C   0  0  0  0  0  0  0  0  0  0  0  0
  -24.6280   -9.7080   21.8000 C   0  0  0  0  0  3  0  0  0  0  0  0
  -23.8490   -8.5490   22.0030 C   0  0  0  0  0  3  0  0  0  0  0  0
  -22.6660   -8.3510   21.2530 C   0  0  0  0  0  0  0  0  0  0  0  0
  -22.2930   -9.3060   20.2920 C   0  0  0  0  0  3  0  0  0  0  0  0
  -23.0720  -10.4570   20.0860 C   0  0  0  0  0  3  0  0  0  0  0  0
  -21.8610   -7.2430   21.3650 O   0  0  0  0  0  0  0  0  0  0  0  0
  -21.7460   -6.5520   22.5440 C   0  0  0  0  0  0  0  0  0  0  0  0
  -21.3070   -7.1770   23.7330 C   0  0  0  0  0  3  0  0  0  0  0  0
  -21.1330   -6.4150   24.9040 C   0  0  0  0  0  3  0  0  0  0  0  0
  -21.3900   -5.0310   24.8910 C   0  0  0  0  0  0  0  0  0  0  0  0
  -21.8210   -4.4070   23.7080 C   0  0  0  0  0  3  0  0  0  0  0  0
  -21.9940   -5.1650   22.5370 C   0  0  0  0  0  0  0  0  0  0  0  0
  -22.3910   -4.5550   21.3940 F   0  0  0  0  0  0  0  0  0  0  0  0
  -21.2160   -4.2970   26.0150 F   0  0  0  0  0  0  0  0  0  0  0  0
  -23.2760  -13.8240   21.0010 C   0  0  0  0  0  0  0  0  0  0  0  0
  -22.5490  -13.1730   21.9030 N   0  0  0  0  0  0  0  0  0  0  0  0
  -22.8700  -14.8670   20.4910 O   0  0  0  0  0  0  0  0  0  0  0  0
  -22.8870  -12.3260   22.3350 H   0  0  0  0  0  0  0  0  0  0  0  0
  -21.6420  -13.5320   22.1670 H   0  0  0  0  0  0  0  0  0  0  0  0
  -25.9700  -15.3510   20.1190 N   0  0  0  0  0  0  0  0  0  0  0  0
  -25.2690  -16.0490   20.3440 H   0  0  0  0  0  0  0  0  0  0  0  0
  -26.8720  -15.7540   19.8980 H   0  0  0  0  0  0  0  0  0  0  0  0
  -28.8090  -22.3070   19.0490 N   0  0  0  0  0  4  0  0  0  0  0  0
  -29.5920  -22.0750   18.4580 H   0  0  0  0  0  0  0  0  0  0  0  0
  -29.1750  -22.6410   19.9260 H   0  0  0  0  0  0  0  0  0  0  0  0
  -28.0030  -23.3650   18.3910 C   0  0  0  0  0  2  0  0  0  0  0  0
  -28.5470  -24.8000   18.5760 C   0  0  0  0  0  2  0  0  0  0  0  0
  -28.3150  -25.3820   19.9860 C   0  0  0  0  0  2  0  0  0  0  0  0
  -28.3480  -26.8110   20.0010 O   0  0  0  0  0  0  0  0  0  0  0  0
  -24.5410  -31.8720   23.2310 C   0  0  0  0  0  0  0  0  0  0  0  0
  -27.1490  -27.4950   20.0270 C   0  0  0  0  0  0  0  0  0  0  0  0
  -23.3170  -30.5140   21.5650 C   0  0  0  0  0  3  0  0  0  0  0  0
  -24.7500  -28.9940   20.1030 C   0  0  0  0  0  0  0  0  0  0  0  0
  -25.8430  -30.8600   21.3630 C   0  0  0  0  0  2  0  0  0  0  0  0
  -25.9140  -29.5060   20.6890 C   0  0  0  0  0  0  0  0  0  0  0  0
  -27.1150  -28.7650   20.6430 C   0  0  0  0  0  3  0  0  0  0  0  0
  -25.9620  -26.9870   19.4460 C   0  0  0  0  0  3  0  0  0  0  0  0
  -24.7670  -27.7330   19.4810 C   0  0  0  0  0  3  0  0  0  0  0  0
  -23.5120  -29.8560   20.1730 C   0  0  0  0  0  2  0  0  0  0  0  0
  -24.5860  -31.0960   22.1110 N   0  0  0  0  0  0  0  0  0  0  0  0
  -23.4640  -32.1420   23.7820 O   0  0  0  0  0  0  0  0  0  0  0  0
  -22.6630  -29.4810   22.5090 C   0  0  0  0  0  0  0  0  0  0  0  0
  -21.3380  -29.3060   22.3750 N   0  0  0  0  0  0  0  0  0  0  0  0
  -23.3430  -28.8370   23.3130 O   0  0  0  0  0  0  0  0  0  0  0  0
  -20.8530  -29.8760   21.6970 H   0  0  0  0  0  0  0  0  0  0  0  0
  -17.9620  -28.1000   22.8240 C   0  0  0  0  0  0  0  0  0  0  0  0
  -20.5160  -28.3550   23.1230 C   0  0  0  0  0  3  0  0  0  0  0  0
  -20.6270  -26.9340   22.5250 C   0  0  0  0  0  2  0  0  0  0  0  0
  -19.5340  -26.6230   21.4980 C   0  0  0  0  0  2  0  0  0  0  0  0
  -18.1460  -26.7590   22.1310 C   0  0  0  0  0  2  0  0  0  0  0  0
  -19.0750  -28.8560   23.2740 C   0  0  0  0  0  0  0  0  0  0  0  0
  -18.8510  -30.1110   23.8800 C   0  0  0  0  0  3  0  0  0  0  0  0
  -17.5450  -30.6100   24.0380 C   0  0  0  0  0  3  0  0  0  0  0  0
  -16.4450  -29.8510   23.6060 C   0  0  0  0  0  3  0  0  0  0  0  0
  -16.6550  -28.5960   23.0050 C   0  0  0  0  0  3  0  0  0  0  0  0
  -25.8360  -32.4780   23.8600 C   0  0  0  0  0  3  0  0  0  0  0  0
  -25.5390  -33.8690   24.2270 N   0  0  0  0  0  0  0  0  0  0  0  0
  -25.8820  -34.9390   23.4960 C   0  0  0  0  0  0  0  0  0  0  0  0
  -26.5520  -34.8570   22.4640 O   0  0  0  0  0  0  0  0  0  0  0  0
  -24.9430  -34.0070   25.0300 H   0  0  0  0  0  0  0  0  0  0  0  0
  -24.1730  -36.7570   23.1800 C   0  0  0  0  0  1  0  0  0  0  0  0
  -25.4040  -36.3170   23.9890 C   0  0  0  0  0  3  0  0  0  0  0  0
  -27.5410  -37.1550   24.8590 C   0  0  0  0  0  1  0  0  0  0  0  0
  -26.4480  -37.3620   23.9140 N   0  0  0  0  0  0  0  0  0  0  0  0
  -26.0500  -38.2820   24.0840 H   0  0  0  0  0  0  0  0  0  0  0  0
  -26.3540  -31.6700   25.1120 C   0  0  1  0  0  0  0  0  0  0  0  0
  -25.2640  -31.4150   26.1780 C   0  0  0  0  0  1  0  0  0  0  0  0
  -26.9240  -30.2990   24.6800 C   0  0  0  0  0  1  0  0  0  0  0  0
  -27.5150  -32.4380   25.7880 C   0  0  0  0  0  1  0  0  0  0  0  0
  1  5  1  0
  2  4  1  0
  4 10  1  0
  4  3  2  0
  5  7  2  0
  6  2  2  0
  6  5  1  0
  7  3  1  0
  7  9  1  0
  8  6  1  0
 11 19  1  0
 12 17  1  0
 13 14  1  0
 13 12  1  0
 15 14  1  0
 15 24  1  0
 15 16  1  0
 17 11  1  0
 17 16  1  0
 18 11  2  0
 19 10  1  0
 19 20  1  0
 21 22  2  0
 22 41  1  0
 23 22  1  0
 23 26  1  0
 24 25  1  0
 24 21  1  0
 25 23  2  0
 26 27  1  0
 27 28  2  0
 29 32  1  0
 29 28  1  0
 30 29  2  0
 31 30  1  0
 31 26  2  0
 32 33  1  0
 33 34  1  0
 34 35  2  0
 36 35  1  0
 36 40  1  0
 37 36  2  0
 38 33  2  0
 38 37  1  0
 39 38  1  0
 41 42  1  0
 42 45  1  0
 42 44  1  0
 43 41  2  0
 46 21  1  0
 46 47  1  0
 48 46  1  0
 49  1  1  0
 49 51  1  0
 50 49  1  0
 52 53  1  0
 52 49  1  0
 53 54  1  0
 54 55  1  0
 55 57  1  0
 56 67  2  0
 57 62  1  0
 58 66  1  0
 58 68  1  0
 59 65  1  0
 59 61  1  0
 60 66  1  0
 61 60  1  0
 62 61  2  0
 63 64  1  0
 63 57  2  0
 64 59  2  0
 65 58  1  0
 66 56  1  0
 68 70  2  0
 69 68  1  0
 71 69  1  0
 72 81  2  0
 72 77  1  0
 73 69  1  0
 73 77  1  0
 74 73  1  0
 75 76  1  0
 75 74  1  0
 76 72  1  0
 77 78  2  0
 78 79  1  0
 80 79  2  0
 81 80  1  0
 82 56  1  0
 82 83  1  0
 82 92  1  0
 83 86  1  0
 84 88  1  0
 84 83  1  0
 85 84  2  0
 88 87  1  0
 90 88  1  0
 90 91  1  0
 90 89  1  0
 92 95  1  1
 92 93  1  0
 94 92  1  0
M  ISO  4  11 100  19 100  54 101  55 101
M  END
>  <TORSDO>  (79) 
F 22

>  <SCORE>  (79) 
-12.974

>  <name>  (79) 
81

>  <ligand_id>  (79) 
81

>  <original_smiles>  (79) 
[H]c1c([H])c([H])c2c(c1[H])C([H])([H])C([H])([H])C([H])([H])C2([H])N([H])C(=O)C1([H])N(C(=O)C([H])(N([H])C(=O)C([H])(N([H])C([H])([H])[H])C([H])([H])[H])C(C([H])([H])[H])(C([H])([H])[H])C([H])([H])[H])C([H])([H])c2c([H])c(OC([H])([H])C([H])([H])C([H])([H])[N+]([H])([H])C([H])([H])c3c(F)c([H])c(C([H])([H])N([H])C(=O)N4C([H])([H])C([H])([H])C([H])([H])C([H])(n5nc(-c6c([H])c([H])c(Oc7c([H])c([H])c(F)c([H])c7F)c([H])c6[H])c(C(=O)N([H])[H])c5N([H])[H])C4([H])[H])c([H])c3F)c([H])c([H])c2C1([H])[H]

>  <smiles>  (79) 
[H]c1c([H])c([H])c2c(c1[H])C([H])([H])C([H])([H])C([H])([H])C2([H])N([H])C(=O)C1([H])N(C(=O)C([H])(N([H])C(=O)C([H])(N([H])C([H])([H])[H])C([H])([H])[H])C(C([H])([H])[H])(C([H])([H])[H])C([H])([H])[H])C([H])([H])c2c([H])c(OC([H])([H])C([H])([H])C([H])([H])[N+]([H])([H])C([H])([H])c3c(F)c([H])c(C([H])([H])N([H])C(=O)N4C([H])([H])C([H])([H])C([H])([H])C([H])(n5nc(-c6c([H])c([H])c(Oc7c([H])c([H])c(F)c([H])c7F)c([H])c6[H])c(C(=O)N([H])[H])c5N([H])[H])C4([H])[H])c([H])c3F)c([H])c([H])c2C1([H])[H]

$$$$
82:0:0
     RDKit          3D

 97105  0  0  1  0  0  0  0  0999 V2000
  -30.6140  -20.9980   22.3080 C   0  0  0  0  0  0  0  0  0  0  0  0
  -31.2370  -21.9410   21.5730 N   0  0  0  0  0  0  0  0  0  0  0  0
  -29.8910  -21.3260   23.2580 O   0  0  0  0  0  0  0  0  0  0  0  0
  -31.7940  -21.6340   20.7850 H   0  0  0  0  0  0  0  0  0  0  0  0
  -29.8600  -18.6170   22.5810 C   0  0  0  0  0  3  0  0  0  0  0  0
  -29.9320  -17.2310   22.3570 C   0  0  0  0  0  3  0  0  0  0  0  0
  -31.8510  -17.5670   20.9150 C   0  0  0  0  0  3  0  0  0  0  0  0
  -30.7550  -19.5230   21.9680 C   0  0  0  0  0  0  0  0  0  0  0  0
  -30.8950  -16.6820   21.4910 C   0  0  0  0  0  0  0  0  0  0  0  0
  -31.7720  -18.9740   21.1400 C   0  0  0  0  0  0  0  0  0  0  0  0
  -32.6800  -19.7890   20.5440 F   0  0  0  0  0  0  0  0  0  0  0  0
  -31.1080  -14.5300   20.2000 C   0  0  0  0  0  0  0  0  0  0  0  0
  -30.6600  -12.4380   18.9430 C   0  0  0  0  0  2  0  0  0  0  0  0
  -29.6580  -12.6760   17.7970 C   0  0  0  0  0  2  0  0  0  0  0  0
  -28.2120  -12.5120   18.2950 C   0  0  0  0  0  2  0  0  0  0  0  0
  -27.9340  -13.3160   19.5900 C   0  0  0  0  0  3  0  0  0  0  0  0
  -29.0520  -13.1020   20.6400 C   0  0  0  0  0  2  0  0  0  0  0  0
  -30.3680  -13.3930   20.0260 N   0  0  0  0  0  0  0  0  0  0  0  0
  -32.0680  -14.8190   19.4840 O   0  0  0  0  0  0  0  0  0  0  0  0
  -30.7950  -15.2670   21.2810 N   0  0  0  0  0  0  0  0  0  0  0  0
  -30.1150  -14.7990   21.8640 H   0  0  0  0  0  0  0  0  0  0  0  0
  -25.5610  -13.8840   20.4220 C   0  0  0  0  0  0  0  0  0  0  0  0
  -24.5160  -13.0970   20.8310 C   0  0  0  0  0  0  0  0  0  0  0  0
  -24.9830  -11.7510   20.7580 C   0  0  0  0  0  0  0  0  0  0  0  0
  -26.6050  -13.0180   20.1310 N   0  0  0  0  0  0  0  0  0  0  0  0
  -26.2590  -11.7290   20.3870 N   0  0  0  0  0  0  0  0  0  0  0  0
  -24.2730  -10.4810   20.9720 C   0  0  0  0  0  0  0  0  0  0  0  0
  -24.7000   -9.5540   21.9470 C   0  0  0  0  0  3  0  0  0  0  0  0
  -23.9960   -8.3480   22.1500 C   0  0  0  0  0  3  0  0  0  0  0  0
  -22.8450   -8.0610   21.3800 C   0  0  0  0  0  0  0  0  0  0  0  0
  -22.4350   -8.9750   20.3940 C   0  0  0  0  0  3  0  0  0  0  0  0
  -23.1420  -10.1720   20.1900 C   0  0  0  0  0  3  0  0  0  0  0  0
  -22.1120   -6.9030   21.4900 O   0  0  0  0  0  0  0  0  0  0  0  0
  -21.9600   -6.2560   22.6890 C   0  0  0  0  0  0  0  0  0  0  0  0
  -21.3860   -6.8920   23.8100 C   0  0  0  0  0  3  0  0  0  0  0  0
  -21.1880   -6.1700   25.0040 C   0  0  0  0  0  3  0  0  0  0  0  0
  -21.5480   -4.8110   25.0720 C   0  0  0  0  0  0  0  0  0  0  0  0
  -22.1140   -4.1740   23.9540 C   0  0  0  0  0  3  0  0  0  0  0  0
  -22.3140   -4.8940   22.7630 C   0  0  0  0  0  0  0  0  0  0  0  0
  -22.8440   -4.2710   21.6820 F   0  0  0  0  0  0  0  0  0  0  0  0
  -21.3470   -4.1140   26.2150 F   0  0  0  0  0  0  0  0  0  0  0  0
  -23.1300  -13.5610   21.1770 C   0  0  0  0  0  0  0  0  0  0  0  0
  -22.4530  -12.8660   22.0850 N   0  0  0  0  0  0  0  0  0  0  0  0
  -22.6520  -14.5740   20.6690 O   0  0  0  0  0  0  0  0  0  0  0  0
  -22.8500  -12.0480   22.5240 H   0  0  0  0  0  0  0  0  0  0  0  0
  -21.5230  -13.1690   22.3490 H   0  0  0  0  0  0  0  0  0  0  0  0
  -25.6930  -15.2580   20.2580 N   0  0  0  0  0  0  0  0  0  0  0  0
  -24.9130  -15.8880   20.4180 H   0  0  0  0  0  0  0  0  0  0  0  0
  -26.5180  -15.7300   19.9100 H   0  0  0  0  0  0  0  0  0  0  0  0
  -31.2040  -23.3800   21.9050 C   0  0  0  0  0  2  0  0  0  0  0  0
  -31.4320  -24.2950   20.6780 C   0  0  0  0  0  2  0  0  0  0  0  0
  -31.1100  -25.7120   20.9700 N   0  0  0  0  0  4  0  0  0  0  0  0
  -31.7530  -26.1040   21.6440 H   0  0  0  0  0  0  0  0  0  0  0  0
  -30.1930  -25.7200   21.3890 H   0  0  0  0  0  0  0  0  0  0  0  0
  -31.0060  -26.5980   19.7840 C   0  0  0  0  0  2  0  0  0  0  0  0
  -29.8490  -27.5790   19.9900 C   0  0  0  0  0  2  0  0  0  0  0  0
  -28.6560  -26.8160   19.7730 O   0  0  0  0  0  0  0  0  0  0  0  0
  -24.6340  -31.6450   23.0780 C   0  0  0  0  0  0  0  0  0  0  0  0
  -27.4620  -27.4920   19.8460 C   0  0  0  0  0  0  0  0  0  0  0  0
  -23.4700  -30.2570   21.3860 C   0  0  0  0  0  3  0  0  0  0  0  0
  -24.9770  -28.8260   19.9120 C   0  0  0  0  0  0  0  0  0  0  0  0
  -25.9570  -30.7500   21.1690 C   0  0  0  0  0  2  0  0  0  0  0  0
  -26.1000  -29.4020   20.5110 C   0  0  0  0  0  0  0  0  0  0  0  0
  -27.3360  -28.7470   20.4860 C   0  0  0  0  0  3  0  0  0  0  0  0
  -26.3220  -26.9150   19.2440 C   0  0  0  0  0  3  0  0  0  0  0  0
  -25.0770  -27.5780   19.2730 C   0  0  0  0  0  3  0  0  0  0  0  0
  -23.6970  -29.6230   19.9850 C   0  0  0  0  0  2  0  0  0  0  0  0
  -24.7070  -30.8950   21.9410 N   0  0  0  0  0  0  0  0  0  0  0  0
  -23.5470  -31.8510   23.6340 O   0  0  0  0  0  0  0  0  0  0  0  0
  -22.8630  -29.1790   22.3120 C   0  0  0  0  0  0  0  0  0  0  0  0
  -21.5450  -28.9630   22.1810 N   0  0  0  0  0  0  0  0  0  0  0  0
  -23.5740  -28.5420   23.0930 O   0  0  0  0  0  0  0  0  0  0  0  0
  -21.0300  -29.5310   21.5230 H   0  0  0  0  0  0  0  0  0  0  0  0
  -18.2130  -27.6680   22.6520 C   0  0  0  0  0  0  0  0  0  0  0  0
  -20.7650  -27.9700   22.9140 C   0  0  0  0  0  3  0  0  0  0  0  0
  -20.8960  -26.5690   22.2730 C   0  0  0  0  0  2  0  0  0  0  0  0
  -19.7930  -26.2710   21.2540 C   0  0  0  0  0  2  0  0  0  0  0  0
  -18.4150  -26.3540   21.9160 C   0  0  0  0  0  2  0  0  0  0  0  0
  -19.3160  -28.4350   23.1070 C   0  0  0  0  0  0  0  0  0  0  0  0
  -19.0780  -29.6680   23.7550 C   0  0  0  0  0  3  0  0  0  0  0  0
  -17.7640  -30.1310   23.9520 C   0  0  0  0  0  3  0  0  0  0  0  0
  -16.6750  -29.3600   23.5140 C   0  0  0  0  0  3  0  0  0  0  0  0
  -16.8980  -28.1310   22.8690 C   0  0  0  0  0  3  0  0  0  0  0  0
  -25.8990  -32.2930   23.7190 C   0  0  0  0  0  3  0  0  0  0  0  0
  -25.5450  -33.6710   24.0840 N   0  0  0  0  0  0  0  0  0  0  0  0
  -25.8760  -34.7560   23.3720 C   0  0  0  0  0  0  0  0  0  0  0  0
  -26.5760  -34.7030   22.3580 O   0  0  0  0  0  0  0  0  0  0  0  0
  -24.9190  -33.7810   24.8690 H   0  0  0  0  0  0  0  0  0  0  0  0
  -24.1150  -36.5220   23.0360 C   0  0  0  0  0  1  0  0  0  0  0  0
  -25.3470  -36.1170   23.8630 C   0  0  0  0  0  3  0  0  0  0  0  0
  -27.4390  -37.0280   24.7670 C   0  0  0  0  0  1  0  0  0  0  0  0
  -26.3560  -37.1970   23.8040 N   0  0  0  0  0  0  0  0  0  0  0  0
  -25.9200  -38.0990   23.9760 H   0  0  0  0  0  0  0  0  0  0  0  0
  -26.4470  -31.5090   24.9720 C   0  0  1  0  0  0  0  0  0  0  0  0
  -25.3590  -31.1580   26.0130 C   0  0  0  0  0  1  0  0  0  0  0  0
  -27.1160  -30.1870   24.5270 C   0  0  0  0  0  1  0  0  0  0  0  0
  -27.5360  -32.3470   25.6830 C   0  0  0  0  0  1  0  0  0  0  0  0
  1  3  2  0
  2 50  1  0
  2  1  1  0
  4  2  1  0
  6  5  1  0
  7 10  2  0
  7  9  1  0
  8  1  1  0
  8  5  2  0
  9  6  2  0
 10  8  1  0
 11 10  1  0
 12 20  1  0
 13 18  1  0
 14 15  1  0
 14 13  1  0
 16 15  1  0
 16 25  1  0
 16 17  1  0
 18 12  1  0
 18 17  1  0
 19 12  2  0
 20  9  1  0
 20 21  1  0
 22 23  2  0
 23 42  1  0
 24 23  1  0
 24 27  1  0
 25 26  1  0
 25 22  1  0
 26 24  2  0
 27 28  1  0
 28 29  2  0
 30 33  1  0
 30 29  1  0
 31 30  2  0
 32 31  1  0
 32 27  2  0
 33 34  1  0
 34 39  2  0
 34 35  1  0
 35 36  2  0
 36 37  1  0
 37 41  1  0
 38 37  2  0
 39 38  1  0
 40 39  1  0
 42 43  1  0
 43 46  1  0
 43 45  1  0
 44 42  2  0
 47 48  1  0
 47 22  1  0
 49 47  1  0
 51 52  1  0
 51 50  1  0
 52 54  1  0
 52 53  1  0
 55 56  1  0
 55 52  1  0
 57 59  1  0
 57 56  1  0
 58 69  2  0
 59 64  1  0
 60 68  1  0
 60 70  1  0
 61 67  1  0
 61 63  1  0
 62 68  1  0
 63 62  1  0
 64 63  2  0
 65 66  1  0
 65 59  2  0
 66 61  2  0
 67 60  1  0
 68 58  1  0
 70 72  2  0
 71 70  1  0
 73 71  1  0
 74 83  2  0
 74 79  1  0
 75 71  1  0
 75 79  1  0
 76 75  1  0
 77 78  1  0
 77 76  1  0
 78 74  1  0
 79 80  2  0
 80 81  1  0
 82 81  2  0
 83 82  1  0
 84 58  1  0
 84 85  1  0
 84 94  1  0
 85 88  1  0
 86 90  1  0
 86 85  1  0
 87 86  2  0
 90 89  1  0
 92 90  1  0
 92 93  1  0
 92 91  1  0
 94 97  1  1
 94 95  1  0
 96 94  1  0
M  ISO  4  12 100  20 100  56 101  57 101
M  END
>  <TORSDO>  (80) 
F 22

>  <SCORE>  (80) 
-10.795

>  <name>  (80) 
82

>  <ligand_id>  (80) 
82

>  <original_smiles>  (80) 
[H]c1c([H])c([H])c2c(c1[H])C([H])([H])C([H])([H])C([H])([H])C2([H])N([H])C(=O)C1([H])N(C(=O)C([H])(N([H])C(=O)C([H])(N([H])C([H])([H])[H])C([H])([H])[H])C(C([H])([H])[H])(C([H])([H])[H])C([H])([H])[H])C([H])([H])c2c([H])c(OC([H])([H])C([H])([H])[N+]([H])([H])C([H])([H])C([H])([H])N([H])C(=O)c3c([H])c([H])c(N([H])C(=O)N4C([H])([H])C([H])([H])C([H])([H])C([H])(n5nc(-c6c([H])c([H])c(Oc7c([H])c([H])c(F)c([H])c7F)c([H])c6[H])c(C(=O)N([H])[H])c5N([H])[H])C4([H])[H])c([H])c3F)c([H])c([H])c2C1([H])[H]

>  <smiles>  (80) 
[H]c1c([H])c([H])c2c(c1[H])C([H])([H])C([H])([H])C([H])([H])C2([H])N([H])C(=O)C1([H])N(C(=O)C([H])(N([H])C(=O)C([H])(N([H])C([H])([H])[H])C([H])([H])[H])C(C([H])([H])[H])(C([H])([H])[H])C([H])([H])[H])C([H])([H])c2c([H])c(OC([H])([H])C([H])([H])[N+]([H])([H])C([H])([H])C([H])([H])N([H])C(=O)c3c([H])c([H])c(N([H])C(=O)N4C([H])([H])C([H])([H])C([H])([H])C([H])(n5nc(-c6c([H])c([H])c(Oc7c([H])c([H])c(F)c([H])c7F)c([H])c6[H])c(C(=O)N([H])[H])c5N([H])[H])C4([H])[H])c([H])c3F)c([H])c([H])c2C1([H])[H]

$$$$
83:0:0
     RDKit          3D

 98107  0  0  1  0  0  0  0  0999 V2000
  -30.5420  -21.0940   18.1110 C   0  0  0  0  0  2  0  0  0  0  0  0
  -29.7870  -22.0600   20.3040 C   0  0  0  0  0  2  0  0  0  0  0  0
  -30.8310  -22.5200   17.6090 C   0  0  0  0  0  2  0  0  0  0  0  0
  -30.0760  -23.4740   19.7480 C   0  0  0  0  0  2  0  0  0  0  0  0
  -30.6860  -20.9960   19.6390 C   0  0  0  0  0  3  0  0  0  0  0  0
  -29.9520  -23.5270   18.2640 N   0  0  1  0  0  4  0  0  0  0  0  0
  -29.0070  -23.2650   18.0290 H   0  0  0  0  0  0  0  0  0  0  0  0
  -31.3970  -17.4640   21.0160 C   0  0  0  0  0  3  0  0  0  0  0  0
  -29.0490  -17.5720   20.4000 C   0  0  0  0  0  3  0  0  0  0  0  0
  -30.4670  -19.5590   20.1370 C   0  0  0  0  0  0  0  0  0  0  0  0
  -30.1510  -16.8190   20.8570 C   0  0  0  0  0  0  0  0  0  0  0  0
  -31.5550  -18.8180   20.6560 C   0  0  0  0  0  0  0  0  0  0  0  0
  -29.2060  -18.9230   20.0280 C   0  0  0  0  0  0  0  0  0  0  0  0
  -32.7760  -19.3910   20.7860 F   0  0  0  0  0  0  0  0  0  0  0  0
  -28.1370  -19.5890   19.5290 F   0  0  0  0  0  0  0  0  0  0  0  0
  -30.6600  -14.4390   20.5490 C   0  0  0  0  0  0  0  0  0  0  0  0
  -30.3440  -12.3060   19.3660 C   0  0  0  0  0  2  0  0  0  0  0  0
  -29.4100  -12.5450   18.1610 C   0  0  0  0  0  2  0  0  0  0  0  0
  -27.9330  -12.4150   18.5790 C   0  0  0  0  0  2  0  0  0  0  0  0
  -27.5970  -13.2380   19.8530 C   0  0  0  0  0  3  0  0  0  0  0  0
  -28.6420  -12.9830   20.9630 C   0  0  0  0  0  2  0  0  0  0  0  0
  -29.9780  -13.2720   20.4110 N   0  0  0  0  0  0  0  0  0  0  0  0
  -31.7810  -14.6230   20.0650 O   0  0  0  0  0  0  0  0  0  0  0  0
  -29.9710  -15.4330   21.1370 N   0  0  0  0  0  0  0  0  0  0  0  0
  -29.0600  -15.1550   21.4670 H   0  0  0  0  0  0  0  0  0  0  0  0
  -25.1920  -13.8560   20.5360 C   0  0  0  0  0  0  0  0  0  0  0  0
  -24.1190  -13.0870   20.8990 C   0  0  0  0  0  0  0  0  0  0  0  0
  -24.5760  -11.7350   20.8740 C   0  0  0  0  0  0  0  0  0  0  0  0
  -26.2370  -12.9720   20.3170 N   0  0  0  0  0  0  0  0  0  0  0  0
  -25.8690  -11.6910   20.5760 N   0  0  0  0  0  0  0  0  0  0  0  0
  -23.8440  -10.4750   21.0600 C   0  0  0  0  0  0  0  0  0  0  0  0
  -24.2660   -9.5090   21.9990 C   0  0  0  0  0  3  0  0  0  0  0  0
  -23.5360   -8.3130   22.1730 C   0  0  0  0  0  3  0  0  0  0  0  0
  -22.3710   -8.0750   21.4050 C   0  0  0  0  0  0  0  0  0  0  0  0
  -21.9690   -9.0300   20.4560 C   0  0  0  0  0  3  0  0  0  0  0  0
  -22.7000  -10.2170   20.2810 C   0  0  0  0  0  3  0  0  0  0  0  0
  -21.6140   -6.9320   21.4880 O   0  0  0  0  0  0  0  0  0  0  0  0
  -21.5520   -6.1920   22.6410 C   0  0  0  0  0  0  0  0  0  0  0  0
  -21.1020   -6.7460   23.8590 C   0  0  0  0  0  3  0  0  0  0  0  0
  -20.9880   -5.9310   25.0030 C   0  0  0  0  0  3  0  0  0  0  0  0
  -21.3140   -4.5640   24.9310 C   0  0  0  0  0  0  0  0  0  0  0  0
  -21.7560   -4.0090   23.7170 C   0  0  0  0  0  3  0  0  0  0  0  0
  -21.8710   -4.8200   22.5750 C   0  0  0  0  0  0  0  0  0  0  0  0
  -22.2780   -4.2760   21.4020 F   0  0  0  0  0  0  0  0  0  0  0  0
  -21.1960   -3.7780   26.0270 F   0  0  0  0  0  0  0  0  0  0  0  0
  -22.7210  -13.5700   21.1600 C   0  0  0  0  0  0  0  0  0  0  0  0
  -21.9820  -12.8740   22.0170 N   0  0  0  0  0  0  0  0  0  0  0  0
  -22.2920  -14.5990   20.6400 O   0  0  0  0  0  0  0  0  0  0  0  0
  -22.3420  -12.0400   22.4610 H   0  0  0  0  0  0  0  0  0  0  0  0
  -21.0440  -13.1780   22.2350 H   0  0  0  0  0  0  0  0  0  0  0  0
  -25.3620  -15.2250   20.3540 N   0  0  0  0  0  0  0  0  0  0  0  0
  -24.5910  -15.8780   20.4400 H   0  0  0  0  0  0  0  0  0  0  0  0
  -26.2010  -15.6520   19.9860 H   0  0  0  0  0  0  0  0  0  0  0  0
  -30.1590  -24.8860   17.6870 C   0  0  0  0  0  2  0  0  0  0  0  0
  -28.9930  -25.8750   17.9400 C   0  0  0  0  0  3  0  0  0  0  0  0
  -28.7450  -26.5290   16.8020 F   0  0  0  0  0  0  0  0  0  0  0  0
  -29.2580  -26.9370   19.0320 C   0  0  0  0  0  2  0  0  0  0  0  0
  -28.4090  -26.7480   20.1590 O   0  0  0  0  0  0  0  0  0  0  0  0
  -24.5750  -31.8860   23.2280 C   0  0  0  0  0  0  0  0  0  0  0  0
  -27.2500  -27.4820   20.1460 C   0  0  0  0  0  0  0  0  0  0  0  0
  -23.3780  -30.4810   21.5790 C   0  0  0  0  0  3  0  0  0  0  0  0
  -24.8430  -28.9500   20.1600 C   0  0  0  0  0  0  0  0  0  0  0  0
  -25.9000  -30.8560   21.3890 C   0  0  0  0  0  2  0  0  0  0  0  0
  -25.9940  -29.4860   20.7510 C   0  0  0  0  0  0  0  0  0  0  0  0
  -27.2010  -28.7550   20.7490 C   0  0  0  0  0  3  0  0  0  0  0  0
  -26.0820  -26.9420   19.5680 C   0  0  0  0  0  3  0  0  0  0  0  0
  -24.8800  -27.6740   19.5680 C   0  0  0  0  0  3  0  0  0  0  0  0
  -23.5940  -29.8010   20.2010 C   0  0  0  0  0  2  0  0  0  0  0  0
  -24.6360  -31.0890   22.1250 N   0  0  0  0  0  0  0  0  0  0  0  0
  -23.4910  -32.1560   23.7650 O   0  0  0  0  0  0  0  0  0  0  0  0
  -22.7260  -29.4590   22.5370 C   0  0  0  0  0  0  0  0  0  0  0  0
  -21.4020  -29.2800   22.4090 N   0  0  0  0  0  0  0  0  0  0  0  0
  -23.4090  -28.8300   23.3500 O   0  0  0  0  0  0  0  0  0  0  0  0
  -20.9130  -29.8400   21.7240 H   0  0  0  0  0  0  0  0  0  0  0  0
  -18.0220  -28.1100   22.9120 C   0  0  0  0  0  0  0  0  0  0  0  0
  -20.5820  -28.3420   23.1750 C   0  0  0  0  0  3  0  0  0  0  0  0
  -20.6710  -26.9160   22.5850 C   0  0  0  0  0  2  0  0  0  0  0  0
  -19.5610  -26.6120   21.5740 C   0  0  0  0  0  2  0  0  0  0  0  0
  -18.1840  -26.7630   22.2260 C   0  0  0  0  0  2  0  0  0  0  0  0
  -19.1480  -28.8570   23.3440 C   0  0  0  0  0  0  0  0  0  0  0  0
  -18.9450  -30.1180   23.9450 C   0  0  0  0  0  3  0  0  0  0  0  0
  -17.6450  -30.6300   24.1200 C   0  0  0  0  0  3  0  0  0  0  0  0
  -16.5320  -29.8790   23.7040 C   0  0  0  0  0  3  0  0  0  0  0  0
  -16.7220  -28.6200   23.1070 C   0  0  0  0  0  3  0  0  0  0  0  0
  -25.8590  -32.5180   23.8530 C   0  0  0  0  0  3  0  0  0  0  0  0
  -26.3730  -31.7470   25.1300 C   0  0  1  0  0  0  0  0  0  0  0  0
  -25.2770  -31.5090   26.1950 C   0  0  0  0  0  1  0  0  0  0  0  0
  -26.9580  -30.3710   24.7370 C   0  0  0  0  0  1  0  0  0  0  0  0
  -27.5200  -32.5440   25.7960 C   0  0  0  0  0  1  0  0  0  0  0  0
  -25.5500  -33.9160   24.1770 N   0  0  0  0  0  0  0  0  0  0  0  0
  -25.8940  -34.9660   23.4180 C   0  0  0  0  0  0  0  0  0  0  0  0
  -26.5750  -34.8580   22.3950 O   0  0  0  0  0  0  0  0  0  0  0  0
  -24.9450  -34.0750   24.9700 H   0  0  0  0  0  0  0  0  0  0  0  0
  -24.1790  -36.7650   23.0280 C   0  0  0  0  0  1  0  0  0  0  0  0
  -25.4030  -36.3560   23.8650 C   0  0  0  0  0  3  0  0  0  0  0  0
  -27.5230  -37.2320   24.7400 C   0  0  0  0  0  1  0  0  0  0  0  0
  -26.4420  -37.4040   23.7740 N   0  0  0  0  0  0  0  0  0  0  0  0
  -26.0370  -38.3270   23.9120 H   0  0  0  0  0  0  0  0  0  0  0  0
  1  5  1  0
  3  1  1  0
  3  6  1  0
  4  2  1  0
  5 10  1  0
  5  2  1  0
  6  4  1  0
  6  7  1  1
  9 11  2  0
 10 12  1  0
 11  8  1  0
 11 24  1  0
 12 14  1  0
 12  8  2  0
 13 10  2  0
 13  9  1  0
 15 13  1  0
 16 24  1  0
 17 22  1  0
 18 19  1  0
 18 17  1  0
 20 19  1  0
 20 29  1  0
 20 21  1  0
 22 16  1  0
 22 21  1  0
 23 16  2  0
 24 25  1  0
 26 27  2  0
 27 46  1  0
 28 27  1  0
 28 31  1  0
 29 26  1  0
 29 30  1  0
 30 28  2  0
 31 32  1  0
 32 33  2  0
 34 37  1  0
 34 33  1  0
 35 34  2  0
 36 35  1  0
 36 31  2  0
 37 38  1  0
 38 39  1  0
 39 40  2  0
 41 40  1  0
 41 45  1  0
 42 41  2  0
 43 38  2  0
 43 42  1  0
 44 43  1  0
 46 47  1  0
 47 50  1  0
 47 49  1  0
 48 46  2  0
 51 52  1  0
 51 26  1  0
 53 51  1  0
 54 55  1  0
 54  6  1  0
 55 56  1  0
 55 57  1  0
 57 58  1  0
 59 70  2  0
 60 58  1  0
 60 65  1  0
 61 69  1  0
 61 71  1  0
 62 68  1  0
 62 64  1  0
 63 69  1  0
 64 63  1  0
 65 64  2  0
 66 67  1  0
 66 60  2  0
 67 62  2  0
 68 61  1  0
 69 59  1  0
 71 73  2  0
 72 71  1  0
 74 72  1  0
 75 84  2  0
 75 80  1  0
 76 72  1  0
 76 80  1  0
 77 76  1  0
 78 79  1  0
 78 77  1  0
 79 75  1  0
 80 81  2  0
 81 82  1  0
 83 82  2  0
 84 83  1  0
 85 59  1  0
 85 90  1  0
 85 86  1  0
 86 89  1  1
 86 87  1  0
 88 86  1  0
 90 93  1  0
 91 95  1  0
 91 90  1  0
 92 91  2  0
 95 94  1  0
 97 95  1  0
 97 98  1  0
 97 96  1  0
M  ISO  4  16 100  24 100  57 101  58 101
M  END
>  <TORSDO>  (81) 
F 20

>  <SCORE>  (81) 
-14.263

>  <name>  (81) 
83

>  <ligand_id>  (81) 
83

>  <original_smiles>  (81) 
[H]c1c([H])c([H])c2c(c1[H])C([H])([H])C([H])([H])C([H])([H])C2([H])N([H])C(=O)C1([H])N(C(=O)C([H])(N([H])C(=O)C([H])(N([H])C([H])([H])[H])C([H])([H])[H])C(C([H])([H])[H])(C([H])([H])[H])C([H])([H])[H])C([H])([H])c2c([H])c(OC([H])([H])C([H])(F)C([H])([H])[N+]3([H])C([H])([H])C([H])([H])C([H])(c4c(F)c([H])c(N([H])C(=O)N5C([H])([H])C([H])([H])C([H])([H])C([H])(n6nc(-c7c([H])c([H])c(Oc8c([H])c([H])c(F)c([H])c8F)c([H])c7[H])c(C(=O)N([H])[H])c6N([H])[H])C5([H])[H])c([H])c4F)C([H])([H])C3([H])[H])c([H])c([H])c2C1([H])[H]

>  <smiles>  (81) 
[H]c1c([H])c([H])c2c(c1[H])C([H])([H])C([H])([H])C([H])([H])C2([H])N([H])C(=O)C1([H])N(C(=O)C([H])(N([H])C(=O)C([H])(N([H])C([H])([H])[H])C([H])([H])[H])C(C([H])([H])[H])(C([H])([H])[H])C([H])([H])[H])C([H])([H])c2c([H])c(OC([H])([H])C([H])(F)C([H])([H])[N+]3([H])C([H])([H])C([H])([H])C([H])(c4c(F)c([H])c(N([H])C(=O)N5C([H])([H])C([H])([H])C([H])([H])C([H])(n6nc(-c7c([H])c([H])c(Oc8c([H])c([H])c(F)c([H])c8F)c([H])c7[H])c(C(=O)N([H])[H])c6N([H])[H])C5([H])[H])c([H])c4F)C([H])([H])C3([H])[H])c([H])c([H])c2C1([H])[H]

$$$$
84:0:0
     RDKit          3D

 95103  0  0  1  0  0  0  0  0999 V2000
  -28.2920  -22.4400   18.0530 N   0  0  0  0  0  4  0  0  0  0  0  0
  -27.8340  -22.2390   17.1780 H   0  0  0  0  0  0  0  0  0  0  0  0
  -27.5860  -22.6950   18.7330 H   0  0  0  0  0  0  0  0  0  0  0  0
  -29.0740  -23.6850   17.9570 C   0  0  0  0  0  2  0  0  0  0  0  0
  -28.4530  -24.6310   18.9850 C   0  0  0  0  0  0  0  0  0  0  0  0
  -27.6570  -24.1990   19.8310 O   0  0  0  0  0  0  0  0  0  0  0  0
  -28.8360  -26.1150   18.9200 C   0  0  0  0  0  2  0  0  0  0  0  0
  -28.4270  -26.8070   20.1010 O   0  0  0  0  0  0  0  0  0  0  0  0
  -24.5780  -31.8740   23.2200 C   0  0  0  0  0  0  0  0  0  0  0  0
  -27.2230  -27.4770   20.0880 C   0  0  0  0  0  0  0  0  0  0  0  0
  -23.3660  -30.4830   21.5710 C   0  0  0  0  0  3  0  0  0  0  0  0
  -24.8130  -28.9550   20.1340 C   0  0  0  0  0  0  0  0  0  0  0  0
  -25.8890  -30.8410   21.3720 C   0  0  0  0  0  2  0  0  0  0  0  0
  -25.9670  -29.4730   20.7340 C   0  0  0  0  0  0  0  0  0  0  0  0
  -27.1640  -28.7300   20.7300 C   0  0  0  0  0  3  0  0  0  0  0  0
  -26.0490  -26.9640   19.4850 C   0  0  0  0  0  3  0  0  0  0  0  0
  -24.8440  -27.6930   19.5180 C   0  0  0  0  0  3  0  0  0  0  0  0
  -23.5720  -29.8190   20.1840 C   0  0  0  0  0  2  0  0  0  0  0  0
  -24.6300  -31.0790   22.1140 N   0  0  0  0  0  0  0  0  0  0  0  0
  -23.4980  -32.1440   23.7610 O   0  0  0  0  0  0  0  0  0  0  0  0
  -22.7180  -29.4500   22.5200 C   0  0  0  0  0  0  0  0  0  0  0  0
  -21.3930  -29.2730   22.3930 N   0  0  0  0  0  0  0  0  0  0  0  0
  -23.4020  -28.8140   23.3270 O   0  0  0  0  0  0  0  0  0  0  0  0
  -20.9050  -29.8510   21.7230 H   0  0  0  0  0  0  0  0  0  0  0  0
  -18.0090  -28.0970   22.8700 C   0  0  0  0  0  0  0  0  0  0  0  0
  -20.5690  -28.3330   23.1510 C   0  0  0  0  0  3  0  0  0  0  0  0
  -20.6590  -26.9040   22.5670 C   0  0  0  0  0  2  0  0  0  0  0  0
  -19.5580  -26.5950   21.5470 C   0  0  0  0  0  2  0  0  0  0  0  0
  -18.1770  -26.7470   22.1930 C   0  0  0  0  0  2  0  0  0  0  0  0
  -19.1330  -28.8480   23.3070 C   0  0  0  0  0  0  0  0  0  0  0  0
  -18.9230  -30.1100   23.9000 C   0  0  0  0  0  3  0  0  0  0  0  0
  -17.6220  -30.6230   24.0630 C   0  0  0  0  0  3  0  0  0  0  0  0
  -16.5130  -29.8690   23.6430 C   0  0  0  0  0  3  0  0  0  0  0  0
  -16.7070  -28.6070   23.0530 C   0  0  0  0  0  3  0  0  0  0  0  0
  -25.8670  -32.4980   23.8410 C   0  0  0  0  0  3  0  0  0  0  0  0
  -25.5610  -33.8930   24.1800 N   0  0  0  0  0  0  0  0  0  0  0  0
  -25.8920  -34.9490   23.4220 C   0  0  0  0  0  0  0  0  0  0  0  0
  -26.5570  -34.8490   22.3880 O   0  0  0  0  0  0  0  0  0  0  0  0
  -24.9680  -34.0480   24.9830 H   0  0  0  0  0  0  0  0  0  0  0  0
  -24.1580  -36.7390   23.0850 C   0  0  0  0  0  1  0  0  0  0  0  0
  -25.4050  -36.3340   23.8860 C   0  0  0  0  0  3  0  0  0  0  0  0
  -27.5470  -37.2100   24.7040 C   0  0  0  0  0  1  0  0  0  0  0  0
  -26.4370  -37.3880   23.7730 N   0  0  0  0  0  0  0  0  0  0  0  0
  -26.0320  -38.3070   23.9330 H   0  0  0  0  0  0  0  0  0  0  0  0
  -26.3880  -31.7160   25.1080 C   0  0  1  0  0  0  0  0  0  0  0  0
  -25.3020  -31.4680   26.1830 C   0  0  0  0  0  1  0  0  0  0  0  0
  -26.9690  -30.3450   24.6960 C   0  0  0  0  0  1  0  0  0  0  0  0
  -27.5390  -32.5060   25.7730 C   0  0  0  0  0  1  0  0  0  0  0  0
  -29.0130  -21.2630   18.5690 C   0  0  0  0  0  2  0  0  0  0  0  0
  -28.0210  -20.2130   19.0910 C   0  0  0  0  0  2  0  0  0  0  0  0
  -28.8890  -18.6910   20.9380 C   0  0  0  0  0  3  0  0  0  0  0  0
  -29.4440  -17.4680   21.3650 C   0  0  0  0  0  3  0  0  0  0  0  0
  -29.6920  -16.7830   19.0360 C   0  0  0  0  0  3  0  0  0  0  0  0
  -28.7010  -18.9450   19.5620 C   0  0  0  0  0  0  0  0  0  0  0  0
  -29.8310  -16.4980   20.4190 C   0  0  0  0  0  0  0  0  0  0  0  0
  -29.1180  -17.9920   18.6130 C   0  0  0  0  0  0  0  0  0  0  0  0
  -28.9440  -18.2250   17.2900 F   0  0  0  0  0  0  0  0  0  0  0  0
  -30.8430  -14.2960   20.1380 C   0  0  0  0  0  0  0  0  0  0  0  0
  -30.4470  -12.1980   18.9230 C   0  0  0  0  0  2  0  0  0  0  0  0
  -29.4550  -12.5010   17.7810 C   0  0  0  0  0  2  0  0  0  0  0  0
  -27.9970  -12.3860   18.2760 C   0  0  0  0  0  2  0  0  0  0  0  0
  -27.7460  -13.1630   19.5970 C   0  0  0  0  0  3  0  0  0  0  0  0
  -28.8460  -12.8430   20.6330 C   0  0  0  0  0  2  0  0  0  0  0  0
  -30.1580  -13.1310   20.0220 N   0  0  0  0  0  0  0  0  0  0  0  0
  -31.8900  -14.5450   19.5290 O   0  0  0  0  0  0  0  0  0  0  0  0
  -30.2420  -15.2250   20.8930 N   0  0  0  0  0  0  0  0  0  0  0  0
  -29.6460  -14.8460   21.6120 H   0  0  0  0  0  0  0  0  0  0  0  0
  -25.3840  -13.7810   20.4290 C   0  0  0  0  0  0  0  0  0  0  0  0
  -24.3300  -13.0140   20.8440 C   0  0  0  0  0  0  0  0  0  0  0  0
  -24.7740  -11.6580   20.7660 C   0  0  0  0  0  0  0  0  0  0  0  0
  -26.4100  -12.8960   20.1320 N   0  0  0  0  0  0  0  0  0  0  0  0
  -26.0450  -11.6120   20.3840 N   0  0  0  0  0  0  0  0  0  0  0  0
  -24.0480  -10.3980   20.9750 C   0  0  0  0  0  0  0  0  0  0  0  0
  -24.4910   -9.4410   21.9150 C   0  0  0  0  0  3  0  0  0  0  0  0
  -23.7710   -8.2430   22.1110 C   0  0  0  0  0  3  0  0  0  0  0  0
  -22.5910   -7.9950   21.3670 C   0  0  0  0  0  0  0  0  0  0  0  0
  -22.1670   -8.9420   20.4190 C   0  0  0  0  0  3  0  0  0  0  0  0
  -22.8890  -10.1320   20.2210 C   0  0  0  0  0  3  0  0  0  0  0  0
  -21.8410   -6.8500   21.4720 O   0  0  0  0  0  0  0  0  0  0  0  0
  -21.7610   -6.1460   22.6460 C   0  0  0  0  0  0  0  0  0  0  0  0
  -21.3000   -6.7410   23.8430 C   0  0  0  0  0  3  0  0  0  0  0  0
  -21.1660   -5.9630   25.0090 C   0  0  0  0  0  3  0  0  0  0  0  0
  -21.4830   -4.5920   24.9830 C   0  0  0  0  0  0  0  0  0  0  0  0
  -21.9360   -3.9960   23.7920 C   0  0  0  0  0  3  0  0  0  0  0  0
  -22.0720   -4.7710   22.6280 C   0  0  0  0  0  0  0  0  0  0  0  0
  -22.4910   -4.1880   21.4780 F   0  0  0  0  0  0  0  0  0  0  0  0
  -21.3460   -3.8440   26.1020 F   0  0  0  0  0  0  0  0  0  0  0  0
  -22.9520  -13.5000   21.2010 C   0  0  0  0  0  0  0  0  0  0  0  0
  -22.2650  -12.8050   22.1010 N   0  0  0  0  0  0  0  0  0  0  0  0
  -22.4950  -14.5320   20.7160 O   0  0  0  0  0  0  0  0  0  0  0  0
  -22.6420  -11.9700   22.5260 H   0  0  0  0  0  0  0  0  0  0  0  0
  -21.3400  -13.1150   22.3670 H   0  0  0  0  0  0  0  0  0  0  0  0
  -25.5530  -15.1530   20.2650 N   0  0  0  0  0  0  0  0  0  0  0  0
  -24.7980  -15.8150   20.4070 H   0  0  0  0  0  0  0  0  0  0  0  0
  -26.4020  -15.5860   19.9210 H   0  0  0  0  0  0  0  0  0  0  0  0
  1 49  1  0
  1  3  1  0
  2  1  1  0
  4  1  1  0
  4  5  1  0
  5  6  2  0
  7  5  1  0
  7  8  1  0
  9 20  2  0
 10  8  1  0
 10 15  1  0
 11 19  1  0
 11 21  1  0
 12 18  1  0
 12 14  1  0
 13 19  1  0
 14 13  1  0
 15 14  2  0
 16 17  1  0
 16 10  2  0
 17 12  2  0
 18 11  1  0
 19  9  1  0
 21 23  2  0
 22 21  1  0
 24 22  1  0
 25 34  2  0
 25 30  1  0
 26 22  1  0
 26 30  1  0
 27 26  1  0
 28 29  1  0
 28 27  1  0
 29 25  1  0
 30 31  2  0
 31 32  1  0
 33 32  2  0
 34 33  1  0
 35  9  1  0
 35 36  1  0
 35 45  1  0
 36 39  1  0
 37 41  1  0
 37 36  1  0
 38 37  2  0
 41 40  1  0
 43 41  1  0
 43 44  1  0
 43 42  1  0
 45 48  1  1
 45 46  1  0
 47 45  1  0
 49 50  1  0
 50 54  1  0
 51 52  1  0
 53 55  1  0
 54 51  2  0
 55 66  1  0
 55 52  2  0
 56 53  2  0
 56 54  1  0
 57 56  1  0
 58 66  1  0
 59 64  1  0
 60 61  1  0
 60 59  1  0
 62 61  1  0
 62 71  1  0
 62 63  1  0
 64 58  1  0
 64 63  1  0
 65 58  2  0
 66 67  1  0
 68 69  2  0
 69 88  1  0
 70 69  1  0
 70 73  1  0
 71 72  1  0
 71 68  1  0
 72 70  2  0
 73 74  1  0
 74 75  2  0
 76 79  1  0
 76 75  1  0
 77 76  2  0
 78 77  1  0
 78 73  2  0
 79 80  1  0
 80 81  1  0
 81 82  2  0
 83 82  1  0
 83 87  1  0
 84 83  2  0
 85 80  2  0
 85 84  1  0
 86 85  1  0
 88 89  1  0
 89 92  1  0
 89 91  1  0
 90 88  2  0
 93 94  1  0
 93 68  1  0
 95 93  1  0
M  ISO  4   7 101   8 101  58 100  66 100
M  END
>  <TORSDO>  (82) 
F 22

>  <SCORE>  (82) 
-12.867

>  <name>  (82) 
84

>  <ligand_id>  (82) 
84

>  <original_smiles>  (82) 
[H]c1c([H])c([H])c2c(c1[H])C([H])([H])C([H])([H])C([H])([H])C2([H])N([H])C(=O)C1([H])N(C(=O)C([H])(N([H])C(=O)C([H])(N([H])C([H])([H])[H])C([H])([H])[H])C(C([H])([H])[H])(C([H])([H])[H])C([H])([H])[H])C([H])([H])c2c([H])c(OC([H])([H])C(=O)C([H])([H])[N+]([H])([H])C([H])([H])C([H])([H])c3c([H])c([H])c(N([H])C(=O)N4C([H])([H])C([H])([H])C([H])([H])C([H])(n5nc(-c6c([H])c([H])c(Oc7c([H])c([H])c(F)c([H])c7F)c([H])c6[H])c(C(=O)N([H])[H])c5N([H])[H])C4([H])[H])c([H])c3F)c([H])c([H])c2C1([H])[H]

>  <smiles>  (82) 
[H]c1c([H])c([H])c2c(c1[H])C([H])([H])C([H])([H])C([H])([H])C2([H])N([H])C(=O)C1([H])N(C(=O)C([H])(N([H])C(=O)C([H])(N([H])C([H])([H])[H])C([H])([H])[H])C(C([H])([H])[H])(C([H])([H])[H])C([H])([H])[H])C([H])([H])c2c([H])c(OC([H])([H])C(=O)C([H])([H])[N+]([H])([H])C([H])([H])C([H])([H])c3c([H])c([H])c(N([H])C(=O)N4C([H])([H])C([H])([H])C([H])([H])C([H])(n5nc(-c6c([H])c([H])c(Oc7c([H])c([H])c(F)c([H])c7F)c([H])c6[H])c(C(=O)N([H])[H])c5N([H])[H])C4([H])[H])c([H])c3F)c([H])c([H])c2C1([H])[H]

$$$$
85:0:0
     RDKit          3D

 94102  0  0  1  0  0  0  0  0999 V2000
  -28.8940  -20.9680   19.7860 C   0  0  0  0  0  0  0  0  0  0  0  0
  -29.6510  -19.8130   19.8450 N   0  0  0  0  0  0  0  0  0  0  0  0
  -27.7060  -20.9030   19.4670 O   0  0  0  0  0  0  0  0  0  0  0  0
  -30.6300  -19.9350   20.0650 H   0  0  0  0  0  0  0  0  0  0  0  0
  -30.0260  -17.3920   21.5750 C   0  0  0  0  0  2  0  0  0  0  0  0
  -30.2100  -17.1820   20.0590 C   0  0  0  0  0  3  0  0  0  0  0  0
  -29.1330  -18.3800   19.8770 C   0  0  0  0  0  3  0  0  0  0  0  0
  -28.6720  -18.1030   21.3280 C   0  0  0  0  0  3  0  0  0  0  0  0
  -30.6130  -14.6580   19.3580 C   0  0  0  0  0  0  0  0  0  0  0  0
  -30.2510  -12.4500   18.2510 C   0  0  0  0  0  2  0  0  0  0  0  0
  -29.1460  -12.6030   17.1810 C   0  0  0  0  0  2  0  0  0  0  0  0
  -27.7450  -12.4390   17.8060 C   0  0  0  0  0  2  0  0  0  0  0  0
  -27.5690  -13.2720   19.1030 C   0  0  0  0  0  3  0  0  0  0  0  0
  -28.7670  -13.0810   20.0560 C   0  0  0  0  0  2  0  0  0  0  0  0
  -29.9760  -13.4450   19.3060 N   0  0  0  0  0  0  0  0  0  0  0  0
  -31.7580  -14.7950   18.9180 O   0  0  0  0  0  0  0  0  0  0  0  0
  -29.8380  -15.7390   19.7340 N   0  0  0  0  0  0  0  0  0  0  0  0
  -28.8780  -15.4770   19.8740 H   0  0  0  0  0  0  0  0  0  0  0  0
  -25.3070  -13.8920   20.1370 C   0  0  0  0  0  0  0  0  0  0  0  0
  -24.2910  -13.1260   20.6460 C   0  0  0  0  0  0  0  0  0  0  0  0
  -24.7350  -11.7700   20.5560 C   0  0  0  0  0  0  0  0  0  0  0  0
  -26.2980  -13.0000   19.7620 N   0  0  0  0  0  0  0  0  0  0  0  0
  -25.9710  -11.7220   20.0780 N   0  0  0  0  0  0  0  0  0  0  0  0
  -24.0320  -10.5120   20.8400 C   0  0  0  0  0  0  0  0  0  0  0  0
  -24.5210   -9.5940   21.7970 C   0  0  0  0  0  3  0  0  0  0  0  0
  -23.8190   -8.3990   22.0650 C   0  0  0  0  0  3  0  0  0  0  0  0
  -22.6150   -8.1130   21.3780 C   0  0  0  0  0  0  0  0  0  0  0  0
  -22.1470   -9.0190   20.4090 C   0  0  0  0  0  3  0  0  0  0  0  0
  -22.8480  -10.2060   20.1390 C   0  0  0  0  0  3  0  0  0  0  0  0
  -21.8800   -6.9660   21.5550 O   0  0  0  0  0  0  0  0  0  0  0  0
  -21.8160   -6.3340   22.7710 C   0  0  0  0  0  0  0  0  0  0  0  0
  -21.3470   -6.9900   23.9290 C   0  0  0  0  0  3  0  0  0  0  0  0
  -21.2320   -6.2820   25.1430 C   0  0  0  0  0  3  0  0  0  0  0  0
  -21.5770   -4.9180   25.1970 C   0  0  0  0  0  0  0  0  0  0  0  0
  -22.0380   -4.2610   24.0440 C   0  0  0  0  0  3  0  0  0  0  0  0
  -22.1550   -4.9660   22.8330 C   0  0  0  0  0  0  0  0  0  0  0  0
  -22.5820   -4.3230   21.7200 F   0  0  0  0  0  0  0  0  0  0  0  0
  -21.4590   -4.2350   26.3600 F   0  0  0  0  0  0  0  0  0  0  0  0
  -22.9410  -13.6120   21.0870 C   0  0  0  0  0  0  0  0  0  0  0  0
  -22.3250  -12.9280   22.0450 N   0  0  0  0  0  0  0  0  0  0  0  0
  -22.4480  -14.6330   20.6130 O   0  0  0  0  0  0  0  0  0  0  0  0
  -22.7400  -12.0990   22.4470 H   0  0  0  0  0  0  0  0  0  0  0  0
  -21.4230  -13.2370   22.3810 H   0  0  0  0  0  0  0  0  0  0  0  0
  -25.4660  -15.2630   19.9280 N   0  0  0  0  0  0  0  0  0  0  0  0
  -24.5680  -15.7270   20.0320 H   0  0  0  0  0  0  0  0  0  0  0  0
  -25.8170  -15.4370   18.9930 H   0  0  0  0  0  0  0  0  0  0  0  0
  -27.4710  -17.2400   21.4700 N   0  0  0  0  0  4  0  0  0  0  0  0
  -27.4300  -16.4480   20.8570 H   0  0  0  0  0  0  0  0  0  0  0  0
  -26.6470  -17.7830   21.2800 H   0  0  0  0  0  0  0  0  0  0  0  0
  -27.3810  -16.9120   22.4160 H   0  0  0  0  0  0  0  0  0  0  0  0
  -29.4710  -22.3870   20.2220 C   0  0  0  0  0  2  0  0  0  0  0  0
  -28.9120  -23.7710   19.5910 C   0  0  0  0  0  2  0  0  0  0  0  0
  -28.7430  -25.0590   20.5440 C   0  0  0  0  0  2  0  0  0  0  0  0
  -28.8260  -26.4590   20.0380 O   0  0  0  0  0  0  0  0  0  0  0  0
  -24.8540  -31.6320   23.2100 C   0  0  0  0  0  0  0  0  0  0  0  0
  -27.6810  -27.2730   20.0540 C   0  0  0  0  0  0  0  0  0  0  0  0
  -23.7450  -30.2880   21.4610 C   0  0  0  0  0  3  0  0  0  0  0  0
  -25.2820  -28.8300   20.0250 C   0  0  0  0  0  0  0  0  0  0  0  0
  -26.2800  -30.6710   21.3840 C   0  0  0  0  0  2  0  0  0  0  0  0
  -26.4170  -29.3220   20.6820 C   0  0  0  0  0  0  0  0  0  0  0  0
  -27.6230  -28.5590   20.6810 C   0  0  0  0  0  3  0  0  0  0  0  0
  -26.5240  -26.8260   19.3880 C   0  0  0  0  0  3  0  0  0  0  0  0
  -25.3380  -27.5890   19.3680 C   0  0  0  0  0  3  0  0  0  0  0  0
  -24.0250  -29.6780   20.0620 C   0  0  0  0  0  2  0  0  0  0  0  0
  -24.9760  -30.8790   22.0770 N   0  0  0  0  0  0  0  0  0  0  0  0
  -23.7460  -31.8590   23.7170 O   0  0  0  0  0  0  0  0  0  0  0  0
  -23.0690  -29.2160   22.3480 C   0  0  0  0  0  0  0  0  0  0  0  0
  -21.7470  -29.0360   22.1820 N   0  0  0  0  0  0  0  0  0  0  0  0
  -23.7340  -28.5490   23.1460 O   0  0  0  0  0  0  0  0  0  0  0  0
  -21.2690  -29.6250   21.5160 H   0  0  0  0  0  0  0  0  0  0  0  0
  -18.3640  -27.8180   22.5710 C   0  0  0  0  0  0  0  0  0  0  0  0
  -20.9210  -28.0500   22.8790 C   0  0  0  0  0  3  0  0  0  0  0  0
  -21.0240  -26.6610   22.2060 C   0  0  0  0  0  2  0  0  0  0  0  0
  -19.9300  -26.4140   21.1630 C   0  0  0  0  0  2  0  0  0  0  0  0
  -18.5420  -26.5190   21.8040 C   0  0  0  0  0  2  0  0  0  0  0  0
  -19.4810  -28.5440   23.0620 C   0  0  0  0  0  0  0  0  0  0  0  0
  -19.2610  -29.7630   23.7400 C   0  0  0  0  0  3  0  0  0  0  0  0
  -17.9550  -30.2560   23.9300 C   0  0  0  0  0  3  0  0  0  0  0  0
  -16.8520  -29.5250   23.4540 C   0  0  0  0  0  3  0  0  0  0  0  0
  -17.0570  -28.3080   22.7810 C   0  0  0  0  0  3  0  0  0  0  0  0
  -26.0990  -32.2610   23.9100 C   0  0  0  0  0  3  0  0  0  0  0  0
  -25.7440  -33.6340   24.2980 N   0  0  0  0  0  0  0  0  0  0  0  0
  -26.0600  -34.7310   23.5950 C   0  0  0  0  0  0  0  0  0  0  0  0
  -26.7480  -34.6930   22.5710 O   0  0  0  0  0  0  0  0  0  0  0  0
  -25.1330  -33.7360   25.0950 H   0  0  0  0  0  0  0  0  0  0  0  0
  -24.2820  -36.4860   23.3020 C   0  0  0  0  0  1  0  0  0  0  0  0
  -25.5270  -36.0830   24.1070 C   0  0  0  0  0  3  0  0  0  0  0  0
  -27.6230  -36.9970   25.0020 C   0  0  0  0  0  1  0  0  0  0  0  0
  -26.5290  -37.1700   24.0510 N   0  0  0  0  0  0  0  0  0  0  0  0
  -26.0940  -38.0710   24.2290 H   0  0  0  0  0  0  0  0  0  0  0  0
  -26.5860  -31.4410   25.1670 C   0  0  1  0  0  0  0  0  0  0  0  0
  -25.4590  -31.1230   26.1780 C   0  0  0  0  0  1  0  0  0  0  0  0
  -27.2200  -30.0990   24.7310 C   0  0  0  0  0  1  0  0  0  0  0  0
  -27.6900  -32.2270   25.9110 C   0  0  0  0  0  1  0  0  0  0  0  0
  1  2  1  0
  1 51  1  0
  2  4  1  0
  3  1  2  0
  6 17  1  0
  6  5  1  0
  7  2  1  0
  7  6  1  0
  7  8  1  0
  8 47  1  0
  8  5  1  0
  9 17  1  0
 10 15  1  0
 11 12  1  0
 11 10  1  0
 13 12  1  0
 13 22  1  0
 13 14  1  0
 15  9  1  0
 15 14  1  0
 16  9  2  0
 17 18  1  0
 19 20  2  0
 20 39  1  0
 21 20  1  0
 21 24  1  0
 22 23  1  0
 22 19  1  0
 23 21  2  0
 24 25  1  0
 25 26  2  0
 27 30  1  0
 27 26  1  0
 28 27  2  0
 29 28  1  0
 29 24  2  0
 30 31  1  0
 31 36  2  0
 31 32  1  0
 32 33  2  0
 33 34  1  0
 34 38  1  0
 35 34  2  0
 36 35  1  0
 37 36  1  0
 39 40  1  0
 40 43  1  0
 40 42  1  0
 41 39  2  0
 44 45  1  0
 44 19  1  0
 46 44  1  0
 47 50  1  0
 48 47  1  0
 49 47  1  0
 52 51  1  0
 52 53  1  0
 54 56  1  0
 54 53  1  0
 55 66  2  0
 56 61  1  0
 57 65  1  0
 57 67  1  0
 58 64  1  0
 58 60  1  0
 59 65  1  0
 60 59  1  0
 61 60  2  0
 62 56  2  0
 63 62  1  0
 63 58  2  0
 64 57  1  0
 65 55  1  0
 67 69  2  0
 68 67  1  0
 70 68  1  0
 71 80  2  0
 71 76  1  0
 72 68  1  0
 72 76  1  0
 73 72  1  0
 74 75  1  0
 74 73  1  0
 75 71  1  0
 76 77  2  0
 77 78  1  0
 79 78  2  0
 80 79  1  0
 81 55  1  0
 81 82  1  0
 81 91  1  0
 82 85  1  0
 83 87  1  0
 83 82  1  0
 84 83  2  0
 87 86  1  0
 89 87  1  0
 89 90  1  0
 89 88  1  0
 91 94  1  1
 91 92  1  0
 93 91  1  0
M  ISO  4   9 100  17 100  53 101  54 101
M  END
>  <TORSDO>  (83) 
F 21

>  <SCORE>  (83) 
-9.394

>  <name>  (83) 
85

>  <ligand_id>  (83) 
85

>  <original_smiles>  (83) 
[H]c1c([H])c([H])c2c(c1[H])C([H])([H])C([H])([H])C([H])([H])C2([H])N([H])C(=O)C1([H])N(C(=O)C([H])(N([H])C(=O)C([H])(N([H])C([H])([H])[H])C([H])([H])[H])C(C([H])([H])[H])(C([H])([H])[H])C([H])([H])[H])C([H])([H])c2c([H])c(OC([H])([H])C([H])([H])C([H])([H])C(=O)N([H])C3([H])C([H])(N([H])C(=O)N4C([H])([H])C([H])([H])C([H])([H])C([H])(n5nc(-c6c([H])c([H])c(Oc7c([H])c([H])c(F)c([H])c7F)c([H])c6[H])c(C(=O)N([H])[H])c5N([H])[H])C4([H])[H])C([H])([H])C3([H])[N+]([H])([H])[H])c([H])c([H])c2C1([H])[H]

>  <smiles>  (83) 
[H]c1c([H])c([H])c2c(c1[H])C([H])([H])C([H])([H])C([H])([H])C2([H])N([H])C(=O)C1([H])N(C(=O)C([H])(N([H])C(=O)C([H])(N([H])C([H])([H])[H])C([H])([H])[H])C(C([H])([H])[H])(C([H])([H])[H])C([H])([H])[H])C([H])([H])c2c([H])c(OC([H])([H])C([H])([H])C([H])([H])C(=O)N([H])C3([H])C([H])(N([H])C(=O)N4C([H])([H])C([H])([H])C([H])([H])C([H])(n5nc(-c6c([H])c([H])c(Oc7c([H])c([H])c(F)c([H])c7F)c([H])c6[H])c(C(=O)N([H])[H])c5N([H])[H])C4([H])[H])C([H])([H])C3([H])[N+]([H])([H])[H])c([H])c([H])c2C1([H])[H]

$$$$
86:0:0
     RDKit          3D

 98106  0  0  1  0  0  0  0  0999 V2000
  -31.1170  -19.8010   23.6130 N   0  0  0  0  0  4  0  0  0  0  0  0
  -31.8330  -19.7770   24.3190 H   0  0  0  0  0  0  0  0  0  0  0  0
  -30.2220  -19.7240   24.0700 H   0  0  0  0  0  0  0  0  0  0  0  0
  -31.2880  -18.6480   22.7040 C   0  0  0  0  0  2  0  0  0  0  0  0
  -31.1940  -17.2960   23.4380 C   0  0  0  0  0  2  0  0  0  0  0  0
  -33.0880  -14.4230   20.7950 C   0  0  0  0  0  2  0  0  0  0  0  0
  -33.2300  -14.2770   22.3200 C   0  0  0  0  0  2  0  0  0  0  0  0
  -31.6860  -14.0310   20.3030 C   0  0  0  0  0  2  0  0  0  0  0  0
  -32.7180  -15.4680   23.1540 C   0  0  0  0  0  2  0  0  0  0  0  0
  -30.4790  -15.3480   22.1690 C   0  0  0  0  0  2  0  0  0  0  0  0
  -30.5580  -15.0260   20.6600 C   0  0  0  0  0  3  0  0  0  0  0  0
  -31.6060  -16.2070   22.5480 N   0  0  0  0  0  0  0  0  0  0  0  0
  -28.8410  -14.4280   18.9600 C   0  0  0  0  0  0  0  0  0  0  0  0
  -28.0060  -12.7340   17.3840 C   0  0  0  0  0  2  0  0  0  0  0  0
  -26.6700  -13.0680   16.7060 C   0  0  0  0  0  2  0  0  0  0  0  0
  -25.4960  -12.6090   17.5840 C   0  0  0  0  0  2  0  0  0  0  0  0
  -25.6180  -13.1220   19.0420 C   0  0  0  0  0  3  0  0  0  0  0  0
  -27.0180  -12.8320   19.6240 C   0  0  0  0  0  2  0  0  0  0  0  0
  -28.0420  -13.3660   18.7080 N   0  0  0  0  0  0  0  0  0  0  0  0
  -29.3440  -15.1350   18.0800 O   0  0  0  0  0  0  0  0  0  0  0  0
  -29.2880  -14.4490   20.2210 N   0  0  0  0  0  0  0  0  0  0  0  0
  -28.8400  -13.8030   20.8530 H   0  0  0  0  0  0  0  0  0  0  0  0
  -23.5220  -13.2250   20.5360 C   0  0  0  0  0  0  0  0  0  0  0  0
  -22.7670  -12.2440   21.1220 C   0  0  0  0  0  0  0  0  0  0  0  0
  -23.3940  -11.0060   20.7790 C   0  0  0  0  0  0  0  0  0  0  0  0
  -24.5570  -12.5710   19.8830 N   0  0  0  0  0  0  0  0  0  0  0  0
  -24.5000  -11.2290   20.0810 N   0  0  0  0  0  0  0  0  0  0  0  0
  -22.9770   -9.6210   21.0290 C   0  0  0  0  0  0  0  0  0  0  0  0
  -23.6640   -8.7940   21.9450 C   0  0  0  0  0  3  0  0  0  0  0  0
  -23.2310   -7.4720   22.1820 C   0  0  0  0  0  3  0  0  0  0  0  0
  -22.0980   -6.9640   21.5020 C   0  0  0  0  0  0  0  0  0  0  0  0
  -21.4320   -7.7830   20.5730 C   0  0  0  0  0  3  0  0  0  0  0  0
  -21.8680   -9.0970   20.3350 C   0  0  0  0  0  3  0  0  0  0  0  0
  -21.6220   -5.6840   21.6480 O   0  0  0  0  0  0  0  0  0  0  0  0
  -21.6500   -5.0370   22.8580 C   0  0  0  0  0  0  0  0  0  0  0  0
  -20.9780   -5.5470   23.9890 C   0  0  0  0  0  3  0  0  0  0  0  0
  -20.9770   -4.8170   25.1950 C   0  0  0  0  0  3  0  0  0  0  0  0
  -21.6380   -3.5760   25.2680 C   0  0  0  0  0  0  0  0  0  0  0  0
  -22.3040   -3.0660   24.1400 C   0  0  0  0  0  3  0  0  0  0  0  0
  -22.3080   -3.7940   22.9380 C   0  0  0  0  0  0  0  0  0  0  0  0
  -22.9330   -3.2880   21.8470 F   0  0  0  0  0  0  0  0  0  0  0  0
  -21.6310   -2.8710   26.4220 F   0  0  0  0  0  0  0  0  0  0  0  0
  -21.4840  -12.4320   21.8800 C   0  0  0  0  0  0  0  0  0  0  0  0
  -21.2130  -11.5670   22.8500 N   0  0  0  0  0  0  0  0  0  0  0  0
  -20.7370  -13.3810   21.6450 O   0  0  0  0  0  0  0  0  0  0  0  0
  -21.8360  -10.7980   23.0520 H   0  0  0  0  0  0  0  0  0  0  0  0
  -20.3700  -11.6720   23.3980 H   0  0  0  0  0  0  0  0  0  0  0  0
  -23.4080  -14.6120   20.4870 N   0  0  0  0  0  0  0  0  0  0  0  0
  -22.6340  -15.1100   20.9100 H   0  0  0  0  0  0  0  0  0  0  0  0
  -24.0410  -15.2180   19.9810 H   0  0  0  0  0  0  0  0  0  0  0  0
  -31.1860  -21.0970   22.9090 C   0  0  0  0  0  2  0  0  0  0  0  0
  -30.2130  -22.1430   23.4840 C   0  0  0  0  0  2  0  0  0  0  0  0
  -30.2020  -23.2950   22.5910 N   0  0  0  0  0  0  0  0  0  0  0  0
  -31.0320  -23.8630   22.7480 H   0  0  0  0  0  0  0  0  0  0  0  0
  -29.0090  -24.1150   22.7500 C   0  0  0  0  0  2  0  0  0  0  0  0
  -29.0990  -25.2560   21.7280 C   0  0  0  0  0  2  0  0  0  0  0  0
  -27.7690  -25.9810   21.4870 C   0  0  0  0  0  2  0  0  0  0  0  0
  -28.0320  -27.0140   20.5440 O   0  0  0  0  0  0  0  0  0  0  0  0
  -21.3620  -25.8510   18.3110 C   0  0  0  0  0  0  0  0  0  0  0  0
  -27.0520  -27.2270   19.6110 C   0  0  0  0  0  0  0  0  0  0  0  0
  -22.8870  -26.9280   16.6840 C   0  0  0  0  0  3  0  0  0  0  0  0
  -25.1170  -27.7300   17.6260 C   0  0  0  0  0  0  0  0  0  0  0  0
  -23.2390  -27.2220   19.1970 C   0  0  0  0  0  2  0  0  0  0  0  0
  -24.7180  -27.3440   18.9110 C   0  0  0  0  0  0  0  0  0  0  0  0
  -25.6800  -27.0840   19.9080 C   0  0  0  0  0  3  0  0  0  0  0  0
  -27.4450  -27.6260   18.3190 C   0  0  0  0  0  3  0  0  0  0  0  0
  -26.4830  -27.8680   17.3190 C   0  0  0  0  0  3  0  0  0  0  0  0
  -24.0190  -27.9890   16.6200 C   0  0  0  0  0  2  0  0  0  0  0  0
  -22.4680  -26.6160   18.0890 N   0  0  0  0  0  0  0  0  0  0  0  0
  -20.6670  -25.4450   17.3700 O   0  0  0  0  0  0  0  0  0  0  0  0
  -23.3350  -25.6830   15.8890 C   0  0  0  0  0  0  0  0  0  0  0  0
  -23.1370  -25.7200   14.5610 N   0  0  0  0  0  0  0  0  0  0  0  0
  -23.8710  -24.7270   16.4560 O   0  0  0  0  0  0  0  0  0  0  0  0
  -22.6840  -26.5360   14.1740 H   0  0  0  0  0  0  0  0  0  0  0  0
  -22.9690  -24.7670   11.0810 C   0  0  0  0  0  0  0  0  0  0  0  0
  -23.5170  -24.6800   13.6050 C   0  0  0  0  0  3  0  0  0  0  0  0
  -24.9980  -24.8240   13.1850 C   0  0  0  0  0  2  0  0  0  0  0  0
  -25.1860  -25.6580   11.9140 C   0  0  0  0  0  2  0  0  0  0  0  0
  -24.4260  -25.0320   10.7420 C   0  0  0  0  0  2  0  0  0  0  0  0
  -22.5390  -24.6190   12.4270 C   0  0  0  0  0  0  0  0  0  0  0  0
  -21.1670  -24.4130   12.6890 C   0  0  0  0  0  3  0  0  0  0  0  0
  -20.2350  -24.3500   11.6380 C   0  0  0  0  0  3  0  0  0  0  0  0
  -20.6680  -24.4800   10.3070 C   0  0  0  0  0  3  0  0  0  0  0  0
  -22.0310  -24.6840   10.0300 C   0  0  0  0  0  3  0  0  0  0  0  0
  -20.9030  -25.4710   19.7540 C   0  0  0  0  0  3  0  0  0  0  0  0
  -21.6650  -24.2190   20.3390 C   0  0  1  0  0  0  0  0  0  0  0  0
  -21.6920  -23.0040   19.3840 C   0  0  0  0  0  1  0  0  0  0  0  0
  -23.1300  -24.5830   20.6810 C   0  0  0  0  0  1  0  0  0  0  0  0
  -21.0010  -23.7710   21.6630 C   0  0  0  0  0  1  0  0  0  0  0  0
  -19.4560  -25.2290   19.7090 N   0  0  0  0  0  0  0  0  0  0  0  0
  -18.5220  -26.1430   20.0040 C   0  0  0  0  0  0  0  0  0  0  0  0
  -18.7980  -27.2730   20.4170 O   0  0  0  0  0  0  0  0  0  0  0  0
  -19.1570  -24.3420   19.3290 H   0  0  0  0  0  0  0  0  0  0  0  0
  -16.5680  -26.2110   18.4250 C   0  0  0  0  0  1  0  0  0  0  0  0
  -17.0480  -25.7420   19.8070 C   0  0  0  0  0  3  0  0  0  0  0  0
  -16.3690  -25.6620   22.1650 C   0  0  0  0  0  1  0  0  0  0  0  0
  -16.1480  -26.2690   20.8550 N   0  0  0  0  0  0  0  0  0  0  0  0
  -15.1750  -26.1220   20.5990 H   0  0  0  0  0  0  0  0  0  0  0  0
  1  3  1  0
  1  2  1  0
  4  5  1  0
  4  1  1  0
  6  7  1  0
  7  9  1  0
  8 11  1  0
  8  6  1  0
 10 12  1  0
 11 21  1  0
 11 10  1  0
 12  9  1  0
 12  5  1  0
 13 21  1  0
 14 19  1  0
 15 14  1  0
 15 16  1  0
 17 16  1  0
 17 18  1  0
 17 26  1  0
 19 13  1  0
 19 18  1  0
 20 13  2  0
 21 22  1  0
 23 24  2  0
 24 43  1  0
 25 28  1  0
 25 24  1  0
 26 27  1  0
 26 23  1  0
 27 25  2  0
 28 29  1  0
 29 30  2  0
 31 34  1  0
 31 30  1  0
 32 31  2  0
 33 32  1  0
 33 28  2  0
 34 35  1  0
 35 40  2  0
 35 36  1  0
 36 37  2  0
 37 38  1  0
 38 42  1  0
 39 38  2  0
 40 39  1  0
 41 40  1  0
 43 44  1  0
 44 46  1  0
 44 47  1  0
 45 43  2  0
 48 23  1  0
 48 49  1  0
 50 48  1  0
 51 52  1  0
 51  1  1  0
 53 54  1  0
 53 55  1  0
 53 52  1  0
 56 55  1  0
 57 56  1  0
 58 57  1  0
 60 65  1  0
 60 58  1  0
 61 71  1  0
 61 69  1  0
 62 64  1  0
 64 63  1  0
 64 65  2  0
 66 60  2  0
 67 62  2  0
 67 66  1  0
 68 61  1  0
 68 62  1  0
 69 59  1  0
 69 63  1  0
 70 59  2  0
 71 73  2  0
 72 71  1  0
 74 72  1  0
 75 80  1  0
 76 72  1  0
 77 76  1  0
 78 77  1  0
 79 75  1  0
 79 78  1  0
 80 81  2  0
 80 76  1  0
 82 81  1  0
 83 82  2  0
 84 83  1  0
 84 75  2  0
 85 59  1  0
 85 86  1  0
 86 88  1  1
 86 89  1  0
 87 86  1  0
 90 85  1  0
 90 91  1  0
 91 92  2  0
 93 90  1  0
 95 94  1  0
 95 91  1  0
 95 97  1  0
 97 96  1  0
 98 97  1  0
M  ISO  4  13 100  21 100  57 101  58 101
M  END
>  <TORSDO>  (84) 
F 25

>  <SCORE>  (84) 
9.364

>  <name>  (84) 
86

>  <ligand_id>  (84) 
86

>  <original_smiles>  (84) 
[H]c1c([H])c([H])c2c(c1[H])C([H])([H])C([H])([H])C([H])([H])C2([H])N([H])C(=O)C1([H])N(C(=O)C([H])(N([H])C(=O)C([H])(N([H])C([H])([H])[H])C([H])([H])[H])C(C([H])([H])[H])(C([H])([H])[H])C([H])([H])[H])C([H])([H])c2c([H])c(OC([H])([H])C([H])([H])C([H])([H])N([H])C([H])([H])C([H])([H])[N+]([H])([H])C([H])([H])C([H])([H])N3C([H])([H])C([H])([H])C([H])([H])C([H])([H])C([H])(N([H])C(=O)N4C([H])([H])C([H])([H])C([H])([H])C([H])(n5nc(-c6c([H])c([H])c(Oc7c([H])c([H])c(F)c([H])c7F)c([H])c6[H])c(C(=O)N([H])[H])c5N([H])[H])C4([H])[H])C3([H])[H])c([H])c([H])c2C1([H])[H]

>  <smiles>  (84) 
[H]c1c([H])c([H])c2c(c1[H])C([H])([H])C([H])([H])C([H])([H])C2([H])N([H])C(=O)C1([H])N(C(=O)C([H])(N([H])C(=O)C([H])(N([H])C([H])([H])[H])C([H])([H])[H])C(C([H])([H])[H])(C([H])([H])[H])C([H])([H])[H])C([H])([H])c2c([H])c(OC([H])([H])C([H])([H])C([H])([H])N([H])C([H])([H])C([H])([H])[N+]([H])([H])C([H])([H])C([H])([H])N3C([H])([H])C([H])([H])C([H])([H])C([H])([H])C([H])(N([H])C(=O)N4C([H])([H])C([H])([H])C([H])([H])C([H])(n5nc(-c6c([H])c([H])c(Oc7c([H])c([H])c(F)c([H])c7F)c([H])c6[H])c(C(=O)N([H])[H])c5N([H])[H])C4([H])[H])C3([H])[H])c([H])c([H])c2C1([H])[H]

$$$$
87:0:0
     RDKit          3D

 98107  0  0  1  0  0  0  0  0999 V2000
  -26.3300  -22.1110   20.0460 C   0  0  0  0  0  2  0  0  0  0  0  0
  -27.0660  -21.4050   18.8910 C   0  0  0  0  0  2  0  0  0  0  0  0
  -27.4430  -22.5820   20.9930 C   0  0  0  0  0  2  0  0  0  0  0  0
  -28.5640  -21.4520   19.2610 C   0  0  0  0  0  3  0  0  0  0  0  0
  -28.6510  -22.6880   20.1460 N   0  0  1  0  0  4  0  0  0  0  0  0
  -29.4730  -22.6150   20.7270 H   0  0  0  0  0  0  0  0  0  0  0  0
  -30.2560  -19.4300   19.2460 C   0  0  0  0  0  3  0  0  0  0  0  0
  -30.6120  -18.0600   19.4710 C   0  0  0  0  0  3  0  0  0  0  0  0
  -28.6390  -17.8000   20.8100 C   0  0  0  0  0  3  0  0  0  0  0  0
  -29.0650  -20.0230   19.7650 C   0  0  0  0  0  0  0  0  0  0  0  0
  -29.7870  -17.1960   20.2430 C   0  0  0  0  0  0  0  0  0  0  0  0
  -28.2790  -19.1550   20.5790 C   0  0  0  0  0  0  0  0  0  0  0  0
  -27.1150  -19.5780   21.1220 F   0  0  0  0  0  0  0  0  0  0  0  0
  -30.7640  -14.7930   19.9370 C   0  0  0  0  0  0  0  0  0  0  0  0
  -30.5530  -12.5330   18.9140 C   0  0  0  0  0  2  0  0  0  0  0  0
  -29.5150  -12.6210   17.7720 C   0  0  0  0  0  2  0  0  0  0  0  0
  -28.0780  -12.4510   18.3080 C   0  0  0  0  0  2  0  0  0  0  0  0
  -27.8000  -13.3300   19.5560 C   0  0  0  0  0  3  0  0  0  0  0  0
  -28.9350  -13.1780   20.5940 C   0  0  0  0  0  2  0  0  0  0  0  0
  -30.1980  -13.5430   19.9300 N   0  0  0  0  0  0  0  0  0  0  0  0
  -31.8550  -15.0150   19.4020 O   0  0  0  0  0  0  0  0  0  0  0  0
  -29.9820  -15.7680   20.4910 N   0  0  0  0  0  0  0  0  0  0  0  0
  -29.2270  -15.3500   21.0130 H   0  0  0  0  0  0  0  0  0  0  0  0
  -25.4830  -13.9330   20.4980 C   0  0  0  0  0  0  0  0  0  0  0  0
  -24.4370  -13.1600   20.9230 C   0  0  0  0  0  0  0  0  0  0  0  0
  -24.8700  -11.8050   20.7870 C   0  0  0  0  0  0  0  0  0  0  0  0
  -26.4880  -13.0500   20.1350 N   0  0  0  0  0  0  0  0  0  0  0  0
  -26.1270  -11.7610   20.3660 N   0  0  0  0  0  0  0  0  0  0  0  0
  -24.1400  -10.5450   20.9780 C   0  0  0  0  0  0  0  0  0  0  0  0
  -24.5810   -9.5680   21.8990 C   0  0  0  0  0  3  0  0  0  0  0  0
  -23.8530   -8.3730   22.0780 C   0  0  0  0  0  3  0  0  0  0  0  0
  -22.6690   -8.1450   21.3390 C   0  0  0  0  0  0  0  0  0  0  0  0
  -22.2470   -9.1100   20.4070 C   0  0  0  0  0  3  0  0  0  0  0  0
  -22.9750  -10.2970   20.2250 C   0  0  0  0  0  3  0  0  0  0  0  0
  -21.9120   -7.0030   21.4280 O   0  0  0  0  0  0  0  0  0  0  0  0
  -21.8020   -6.3020   22.6020 C   0  0  0  0  0  0  0  0  0  0  0  0
  -21.3120   -6.8990   23.7840 C   0  0  0  0  0  3  0  0  0  0  0  0
  -21.1520   -6.1240   24.9490 C   0  0  0  0  0  3  0  0  0  0  0  0
  -21.4710   -4.7530   24.9350 C   0  0  0  0  0  0  0  0  0  0  0  0
  -21.9530   -4.1550   23.7560 C   0  0  0  0  0  3  0  0  0  0  0  0
  -22.1160   -4.9280   22.5930 C   0  0  0  0  0  0  0  0  0  0  0  0
  -22.5610   -4.3430   21.4550 F   0  0  0  0  0  0  0  0  0  0  0  0
  -21.3090   -4.0060   26.0520 F   0  0  0  0  0  0  0  0  0  0  0  0
  -23.0770  -13.6410   21.3380 C   0  0  0  0  0  0  0  0  0  0  0  0
  -22.4250  -12.9240   22.2470 N   0  0  0  0  0  0  0  0  0  0  0  0
  -22.6050  -14.6860   20.8910 O   0  0  0  0  0  0  0  0  0  0  0  0
  -22.8220  -12.0790   22.6270 H   0  0  0  0  0  0  0  0  0  0  0  0
  -21.5150  -13.2270   22.5670 H   0  0  0  0  0  0  0  0  0  0  0  0
  -25.6590  -15.3080   20.3710 N   0  0  0  0  0  0  0  0  0  0  0  0
  -24.9110  -15.9660   20.5640 H   0  0  0  0  0  0  0  0  0  0  0  0
  -26.4670  -15.7440   19.9450 H   0  0  0  0  0  0  0  0  0  0  0  0
  -28.7170  -24.0260   19.3850 C   0  0  0  0  0  2  0  0  0  0  0  0
  -28.2800  -25.3780   20.1230 C   0  0  0  0  0  3  0  0  0  0  0  0
  -28.2300  -26.6230   19.3330 O   0  0  0  0  0  0  0  0  0  0  0  0
  -24.5360  -31.6400   22.9620 C   0  0  0  0  0  0  0  0  0  0  0  0
  -27.0880  -27.4160   19.4550 C   0  0  0  0  0  0  0  0  0  0  0  0
  -23.2760  -30.3260   21.2940 C   0  0  0  0  0  3  0  0  0  0  0  0
  -24.6820  -28.9210   19.6870 C   0  0  0  0  0  0  0  0  0  0  0  0
  -25.7870  -30.7400   20.9940 C   0  0  0  0  0  2  0  0  0  0  0  0
  -25.8670  -29.4140   20.2500 C   0  0  0  0  0  0  0  0  0  0  0  0
  -27.0760  -28.6730   20.1250 C   0  0  0  0  0  3  0  0  0  0  0  0
  -25.8850  -26.9630   18.8770 C   0  0  0  0  0  3  0  0  0  0  0  0
  -24.6900  -27.7000   18.9940 C   0  0  0  0  0  3  0  0  0  0  0  0
  -23.4270  -29.7530   19.8590 C   0  0  0  0  0  2  0  0  0  0  0  0
  -24.5550  -30.9150   21.8070 N   0  0  0  0  0  0  0  0  0  0  0  0
  -23.4790  -31.8480   23.5750 O   0  0  0  0  0  0  0  0  0  0  0  0
  -22.6950  -29.2260   22.2130 C   0  0  0  0  0  0  0  0  0  0  0  0
  -21.3700  -29.0140   22.1360 N   0  0  0  0  0  0  0  0  0  0  0  0
  -23.4310  -28.5690   22.9530 O   0  0  0  0  0  0  0  0  0  0  0  0
  -20.8330  -29.6010   21.5130 H   0  0  0  0  0  0  0  0  0  0  0  0
  -18.0650  -27.6400   22.6560 C   0  0  0  0  0  0  0  0  0  0  0  0
  -20.6160  -28.0020   22.8750 C   0  0  0  0  0  3  0  0  0  0  0  0
  -20.7660  -26.6070   22.2250 C   0  0  0  0  0  2  0  0  0  0  0  0
  -19.6520  -26.2860   21.2230 C   0  0  0  0  0  2  0  0  0  0  0  0
  -18.2840  -26.3350   21.9080 C   0  0  0  0  0  2  0  0  0  0  0  0
  -19.1610  -28.4300   23.0960 C   0  0  0  0  0  0  0  0  0  0  0  0
  -18.9030  -29.6510   23.7580 C   0  0  0  0  0  3  0  0  0  0  0  0
  -17.5820  -30.0820   23.9810 C   0  0  0  0  0  3  0  0  0  0  0  0
  -16.5010  -29.2890   23.5580 C   0  0  0  0  0  3  0  0  0  0  0  0
  -16.7440  -28.0700   22.9010 C   0  0  0  0  0  3  0  0  0  0  0  0
  -25.8380  -32.2590   23.5590 C   0  0  0  0  0  3  0  0  0  0  0  0
  -25.5180  -33.6230   24.0030 N   0  0  0  0  0  0  0  0  0  0  0  0
  -25.8250  -34.7370   23.3250 C   0  0  0  0  0  0  0  0  0  0  0  0
  -26.4780  -34.7250   22.2780 O   0  0  0  0  0  0  0  0  0  0  0  0
  -24.9340  -33.7060   24.8220 H   0  0  0  0  0  0  0  0  0  0  0  0
  -24.0620  -36.5240   23.1490 C   0  0  0  0  0  1  0  0  0  0  0  0
  -25.3270  -36.0770   23.9000 C   0  0  0  0  0  3  0  0  0  0  0  0
  -27.4660  -36.9320   24.7520 C   0  0  0  0  0  1  0  0  0  0  0  0
  -26.3420  -37.1520   23.8460 N   0  0  0  0  0  0  0  0  0  0  0  0
  -25.9250  -38.0520   24.0720 H   0  0  0  0  0  0  0  0  0  0  0  0
  -26.4420  -31.4160   24.7480 C   0  0  1  0  0  0  0  0  0  0  0  0
  -25.4160  -31.0860   25.8570 C   0  0  0  0  0  1  0  0  0  0  0  0
  -27.0230  -30.0800   24.2290 C   0  0  0  0  0  1  0  0  0  0  0  0
  -27.6150  -32.1880   25.3950 C   0  0  0  0  0  1  0  0  0  0  0  0
  -29.1000  -25.7080   21.3960 C   0  0  0  0  0  2  0  0  0  0  0  0
  -31.5520  -25.8540   20.5690 C   0  0  0  0  0  1  0  0  0  0  0  0
  -30.7940  -27.1620   22.5870 C   0  0  0  0  0  1  0  0  0  0  0  0
  -30.3680  -26.5850   21.2270 C   0  0  0  0  0  3  0  0  0  0  0  0
  1  3  1  0
  2  4  1  0
  2  1  1  0
  4 10  1  0
  4  5  1  0
  5  6  1  1
  5  3  1  0
  7  8  2  0
  7 10  1  0
  8 11  1  0
 10 12  2  0
 11 22  1  0
 11  9  2  0
 12  9  1  0
 12 13  1  0
 14 22  1  0
 15 20  1  0
 16 17  1  0
 16 15  1  0
 18 17  1  0
 18 27  1  0
 18 19  1  0
 20 14  1  0
 20 19  1  0
 21 14  2  0
 22 23  1  0
 24 25  2  0
 25 44  1  0
 26 25  1  0
 26 29  1  0
 27 28  1  0
 27 24  1  0
 28 26  2  0
 29 30  1  0
 30 31  2  0
 32 35  1  0
 32 31  1  0
 33 32  2  0
 34 33  1  0
 34 29  2  0
 35 36  1  0
 36 37  1  0
 37 38  2  0
 39 38  1  0
 39 43  1  0
 40 39  2  0
 41 36  2  0
 41 40  1  0
 42 41  1  0
 44 45  1  0
 45 48  1  0
 45 47  1  0
 46 44  2  0
 49 24  1  0
 49 50  1  0
 51 49  1  0
 52  5  1  0
 53 52  1  0
 53 95  1  0
 54 56  1  0
 54 53  1  0
 55 66  2  0
 56 61  1  0
 57 65  1  0
 57 67  1  0
 58 64  1  0
 58 60  1  0
 59 65  1  0
 60 59  1  0
 61 60  2  0
 62 63  1  0
 62 56  2  0
 63 58  2  0
 64 57  1  0
 65 55  1  0
 67 69  2  0
 68 67  1  0
 70 68  1  0
 71 80  2  0
 71 76  1  0
 72 68  1  0
 72 76  1  0
 73 72  1  0
 74 75  1  0
 74 73  1  0
 75 71  1  0
 76 77  2  0
 77 78  1  0
 79 78  2  0
 80 79  1  0
 81 55  1  0
 81 82  1  0
 81 91  1  0
 82 85  1  0
 83 87  1  0
 83 82  1  0
 84 83  2  0
 87 86  1  0
 89 87  1  0
 89 90  1  0
 89 88  1  0
 91 94  1  1
 91 92  1  0
 93 91  1  0
 96 98  1  0
 98 95  1  0
 98 97  1  0
M  ISO  4  14 100  22 100  53 101  54 101
M  END
>  <TORSDO>  (85) 
F 21

>  <SCORE>  (85) 
-11.781

>  <name>  (85) 
87

>  <ligand_id>  (85) 
87

>  <original_smiles>  (85) 
[H]c1c([H])c([H])c2c(c1[H])C([H])([H])C([H])([H])C([H])([H])C2([H])N([H])C(=O)C1([H])N(C(=O)C([H])(N([H])C(=O)C([H])(N([H])C([H])([H])[H])C([H])([H])[H])C(C([H])([H])[H])(C([H])([H])[H])C([H])([H])[H])C([H])([H])c2c([H])c(OC([H])(C([H])([H])C([H])(C([H])([H])[H])C([H])([H])[H])C([H])([H])[N+]3([H])C([H])([H])C([H])([H])C([H])([H])C3([H])c3c([H])c([H])c(N([H])C(=O)N4C([H])([H])C([H])([H])C([H])([H])C([H])(n5nc(-c6c([H])c([H])c(Oc7c([H])c([H])c(F)c([H])c7F)c([H])c6[H])c(C(=O)N([H])[H])c5N([H])[H])C4([H])[H])c([H])c3F)c([H])c([H])c2C1([H])[H]

>  <smiles>  (85) 
[H]c1c([H])c([H])c2c(c1[H])C([H])([H])C([H])([H])C([H])([H])C2([H])N([H])C(=O)C1([H])N(C(=O)C([H])(N([H])C(=O)C([H])(N([H])C([H])([H])[H])C([H])([H])[H])C(C([H])([H])[H])(C([H])([H])[H])C([H])([H])[H])C([H])([H])c2c([H])c(OC([H])(C([H])([H])C([H])(C([H])([H])[H])C([H])([H])[H])C([H])([H])[N+]3([H])C([H])([H])C([H])([H])C([H])([H])C3([H])c3c([H])c([H])c(N([H])C(=O)N4C([H])([H])C([H])([H])C([H])([H])C([H])(n5nc(-c6c([H])c([H])c(Oc7c([H])c([H])c(F)c([H])c7F)c([H])c6[H])c(C(=O)N([H])[H])c5N([H])[H])C4([H])[H])c([H])c3F)c([H])c([H])c2C1([H])[H]

$$$$
88:0:0
     RDKit          3D

 96104  0  0  1  0  0  0  0  0999 V2000
  -26.5330  -22.0050   20.0370 C   0  0  0  0  0  0  0  0  0  0  0  0
  -27.4780  -22.9560   19.9900 N   0  0  0  0  0  0  0  0  0  0  0  0
  -25.4210  -22.1580   19.5270 O   0  0  0  0  0  0  0  0  0  0  0  0
  -28.3680  -22.7440   20.4220 H   0  0  0  0  0  0  0  0  0  0  0  0
  -26.8540  -20.7090   20.7950 C   0  0  0  0  0  2  0  0  0  0  0  0
  -29.3840  -20.4930   20.6090 C   0  0  0  0  0  3  0  0  0  0  0  0
  -30.5390  -19.8500   20.1230 C   0  0  0  0  0  3  0  0  0  0  0  0
  -27.9940  -18.8420   19.4770 C   0  0  0  0  0  3  0  0  0  0  0  0
  -28.1040  -20.0050   20.2740 C   0  0  0  0  0  0  0  0  0  0  0  0
  -30.4280  -18.7060   19.3030 C   0  0  0  0  0  0  0  0  0  0  0  0
  -29.1480  -18.1940   18.9950 C   0  0  0  0  0  0  0  0  0  0  0  0
  -29.0220  -17.0840   18.2290 F   0  0  0  0  0  0  0  0  0  0  0  0
  -31.6860  -18.0760   18.7260 C   0  0  0  0  0  2  0  0  0  0  0  0
  -32.3770  -17.0660   19.6640 C   0  0  0  0  0  2  0  0  0  0  0  0
  -32.0940  -14.6590   19.1110 C   0  0  0  0  0  0  0  0  0  0  0  0
  -31.7860  -12.2210   18.8760 C   0  0  0  0  0  2  0  0  0  0  0  0
  -30.7560  -11.8790   17.7850 C   0  0  0  0  0  2  0  0  0  0  0  0
  -29.3290  -11.8850   18.3630 C   0  0  0  0  0  2  0  0  0  0  0  0
  -29.0240  -13.1680   19.1790 C   0  0  0  0  0  3  0  0  0  0  0  0
  -30.1540  -13.4600   20.1900 C   0  0  0  0  0  2  0  0  0  0  0  0
  -31.4310  -13.5260   19.4560 N   0  0  0  0  0  0  0  0  0  0  0  0
  -33.0490  -14.6720   18.3260 O   0  0  0  0  0  0  0  0  0  0  0  0
  -31.6940  -15.7740   19.7370 N   0  0  0  0  0  0  0  0  0  0  0  0
  -30.9110  -15.6920   20.3680 H   0  0  0  0  0  0  0  0  0  0  0  0
  -26.8970  -14.0980   20.2910 C   0  0  0  0  0  0  0  0  0  0  0  0
  -25.7680  -13.4840   20.7640 C   0  0  0  0  0  0  0  0  0  0  0  0
  -25.9680  -12.0830   20.5620 C   0  0  0  0  0  0  0  0  0  0  0  0
  -27.7230  -13.0810   19.8370 N   0  0  0  0  0  0  0  0  0  0  0  0
  -27.1720  -11.8580   20.0540 N   0  0  0  0  0  0  0  0  0  0  0  0
  -25.0600  -10.9480   20.7680 C   0  0  0  0  0  0  0  0  0  0  0  0
  -25.3540   -9.9260   21.6980 C   0  0  0  0  0  3  0  0  0  0  0  0
  -24.4550   -8.8550   21.8930 C   0  0  0  0  0  3  0  0  0  0  0  0
  -23.2470   -8.7990   21.1580 C   0  0  0  0  0  0  0  0  0  0  0  0
  -22.9700   -9.8070   20.2170 C   0  0  0  0  0  3  0  0  0  0  0  0
  -23.8680  -10.8690   20.0200 C   0  0  0  0  0  3  0  0  0  0  0  0
  -22.3280   -7.7840   21.2610 O   0  0  0  0  0  0  0  0  0  0  0  0
  -22.0660   -7.1680   22.4590 C   0  0  0  0  0  0  0  0  0  0  0  0
  -21.5780   -7.8840   23.5730 C   0  0  0  0  0  3  0  0  0  0  0  0
  -21.2570   -7.2010   24.7630 C   0  0  0  0  0  3  0  0  0  0  0  0
  -21.4140   -5.8040   24.8380 C   0  0  0  0  0  0  0  0  0  0  0  0
  -21.8950   -5.0890   23.7290 C   0  0  0  0  0  3  0  0  0  0  0  0
  -22.2170   -5.7690   22.5410 C   0  0  0  0  0  0  0  0  0  0  0  0
  -22.6600   -5.0720   21.4670 F   0  0  0  0  0  0  0  0  0  0  0  0
  -21.0990   -5.1460   25.9790 F   0  0  0  0  0  0  0  0  0  0  0  0
  -24.5330  -14.1590   21.2870 C   0  0  0  0  0  0  0  0  0  0  0  0
  -23.8390  -13.5240   22.2240 N   0  0  0  0  0  0  0  0  0  0  0  0
  -24.2040  -15.2780   20.9000 O   0  0  0  0  0  0  0  0  0  0  0  0
  -24.1210  -12.6120   22.5550 H   0  0  0  0  0  0  0  0  0  0  0  0
  -23.0140  -13.9550   22.6160 H   0  0  0  0  0  0  0  0  0  0  0  0
  -27.2830  -15.4310   20.1910 N   0  0  0  0  0  0  0  0  0  0  0  0
  -26.6780  -16.1960   20.4700 H   0  0  0  0  0  0  0  0  0  0  0  0
  -28.1590  -15.7420   19.7880 H   0  0  0  0  0  0  0  0  0  0  0  0
  -27.3020  -24.2820   19.4010 C   0  0  0  0  0  2  0  0  0  0  0  0
  -28.6440  -24.9000   18.9700 C   0  0  0  0  0  2  0  0  0  0  0  0
  -28.5300  -26.2490   18.2270 C   0  0  0  0  0  2  0  0  0  0  0  0
  -28.3660  -27.3660   19.1050 O   0  0  0  0  0  0  0  0  0  0  0  0
  -24.5470  -31.7580   23.1750 C   0  0  0  0  0  0  0  0  0  0  0  0
  -27.1310  -27.9560   19.2840 C   0  0  0  0  0  0  0  0  0  0  0  0
  -23.2710  -30.5160   21.4580 C   0  0  0  0  0  3  0  0  0  0  0  0
  -24.6680  -29.2770   19.7200 C   0  0  0  0  0  0  0  0  0  0  0  0
  -25.7480  -31.0520   21.1110 C   0  0  0  0  0  2  0  0  0  0  0  0
  -25.8420  -29.7850   20.2850 C   0  0  0  0  0  0  0  0  0  0  0  0
  -27.0720  -29.1240   20.0780 C   0  0  0  0  0  3  0  0  0  0  0  0
  -25.9340  -27.4620   18.7170 C   0  0  0  0  0  3  0  0  0  0  0  0
  -24.7060  -28.1100   18.9410 C   0  0  0  0  0  3  0  0  0  0  0  0
  -23.3910  -30.0420   19.9850 C   0  0  0  0  0  2  0  0  0  0  0  0
  -24.5450  -31.1170   21.9720 N   0  0  0  0  0  0  0  0  0  0  0  0
  -23.5060  -31.8890   23.8340 O   0  0  0  0  0  0  0  0  0  0  0  0
  -22.7640  -29.3360   22.3160 C   0  0  0  0  0  0  0  0  0  0  0  0
  -21.4670  -29.0160   22.1850 N   0  0  0  0  0  0  0  0  0  0  0  0
  -23.5320  -28.7140   23.0550 O   0  0  0  0  0  0  0  0  0  0  0  0
  -20.9020  -29.5780   21.5630 H   0  0  0  0  0  0  0  0  0  0  0  0
  -18.2920  -27.3220   22.4910 C   0  0  0  0  0  0  0  0  0  0  0  0
  -20.7770  -27.9200   22.8640 C   0  0  0  0  0  3  0  0  0  0  0  0
  -21.1000  -26.5630   22.1970 C   0  0  0  0  0  2  0  0  0  0  0  0
  -20.0800  -26.1590   21.1280 C   0  0  0  0  0  2  0  0  0  0  0  0
  -18.6770  -26.0620   21.7340 C   0  0  0  0  0  2  0  0  0  0  0  0
  -19.2790  -28.2030   23.0070 C   0  0  0  0  0  0  0  0  0  0  0  0
  -18.8670  -29.3790   23.6720 C   0  0  0  0  0  3  0  0  0  0  0  0
  -17.5000  -29.6790   23.8240 C   0  0  0  0  0  3  0  0  0  0  0  0
  -16.5270  -28.7950   23.3250 C   0  0  0  0  0  3  0  0  0  0  0  0
  -16.9240  -27.6190   22.6650 C   0  0  0  0  0  3  0  0  0  0  0  0
  -25.8510  -32.3790   23.7680 C   0  0  0  0  0  3  0  0  0  0  0  0
  -25.5400  -33.7580   24.1700 N   0  0  0  0  0  0  0  0  0  0  0  0
  -25.8720  -34.8480   23.4650 C   0  0  0  0  0  0  0  0  0  0  0  0
  -26.5440  -34.7980   22.4310 O   0  0  0  0  0  0  0  0  0  0  0  0
  -24.9430  -33.8690   24.9750 H   0  0  0  0  0  0  0  0  0  0  0  0
  -24.1560  -36.6630   23.1810 C   0  0  0  0  0  1  0  0  0  0  0  0
  -25.3790  -36.2090   23.9920 C   0  0  0  0  0  3  0  0  0  0  0  0
  -27.5010  -37.0320   24.9140 C   0  0  0  0  0  1  0  0  0  0  0  0
  -26.4180  -37.2610   23.9600 N   0  0  0  0  0  0  0  0  0  0  0  0
  -26.0120  -38.1720   24.1550 H   0  0  0  0  0  0  0  0  0  0  0  0
  -26.4340  -31.5590   24.9840 C   0  0  1  0  0  0  0  0  0  0  0  0
  -25.3930  -31.2620   26.0870 C   0  0  0  0  0  1  0  0  0  0  0  0
  -27.0120  -30.2080   24.5040 C   0  0  0  0  0  1  0  0  0  0  0  0
  -27.6070  -32.3370   25.6280 C   0  0  0  0  0  1  0  0  0  0  0  0
  1  5  1  0
  2  1  1  0
  2  4  1  0
  3  1  2  0
  7  6  2  0
  8  9  2  0
  9  6  1  0
  9  5  1  0
 10  7  1  0
 11 10  2  0
 11  8  1  0
 12 11  1  0
 13 10  1  0
 13 14  1  0
 14 23  1  0
 15 21  1  0
 15 23  1  0
 16 21  1  0
 17 18  1  0
 17 16  1  0
 19 18  1  0
 19 28  1  0
 19 20  1  0
 21 20  1  0
 22 15  2  0
 23 24  1  0
 25 26  2  0
 26 45  1  0
 27 26  1  0
 27 30  1  0
 28 29  1  0
 28 25  1  0
 29 27  2  0
 30 31  1  0
 31 32  2  0
 33 36  1  0
 33 32  1  0
 34 33  2  0
 35 34  1  0
 35 30  2  0
 36 37  1  0
 37 42  2  0
 37 38  1  0
 38 39  2  0
 39 40  1  0
 40 44  1  0
 41 40  2  0
 42 41  1  0
 43 42  1  0
 45 46  1  0
 46 48  1  0
 46 49  1  0
 47 45  2  0
 50 25  1  0
 50 51  1  0
 52 50  1  0
 53  2  1  0
 54 53  1  0
 55 54  1  0
 55 56  1  0
 56 58  1  0
 57 68  2  0
 58 63  1  0
 59 67  1  0
 59 69  1  0
 60 66  1  0
 60 62  1  0
 61 67  1  0
 62 61  1  0
 63 62  2  0
 64 65  1  0
 64 58  2  0
 65 60  2  0
 66 59  1  0
 67 57  1  0
 69 71  2  0
 70 69  1  0
 72 70  1  0
 73 82  2  0
 73 78  1  0
 74 70  1  0
 74 78  1  0
 75 74  1  0
 76 77  1  0
 76 75  1  0
 77 73  1  0
 78 79  2  0
 79 80  1  0
 81 80  2  0
 82 81  1  0
 83 57  1  0
 83 84  1  0
 83 93  1  0
 84 87  1  0
 85 89  1  0
 85 84  1  0
 86 85  2  0
 89 88  1  0
 91 89  1  0
 91 92  1  0
 91 90  1  0
 93 96  1  1
 93 94  1  0
 95 93  1  0
M  ISO  4  15 100  23 100  55 101  56 101
M  END
>  <TORSDO>  (86) 
F 23

>  <SCORE>  (86) 
-8.557

>  <name>  (86) 
88

>  <ligand_id>  (86) 
88

>  <original_smiles>  (86) 
[H]c1c([H])c([H])c2c(c1[H])C([H])([H])C([H])([H])C([H])([H])C2([H])N([H])C(=O)C1([H])N(C(=O)C([H])(N([H])C(=O)C([H])(N([H])C([H])([H])[H])C([H])([H])[H])C(C([H])([H])[H])(C([H])([H])[H])C([H])([H])[H])C([H])([H])c2c([H])c(OC([H])([H])C([H])([H])C([H])([H])N([H])C(=O)C([H])([H])c3c([H])c([H])c(C([H])([H])C([H])([H])N([H])C(=O)N4C([H])([H])C([H])([H])C([H])([H])C([H])(n5nc(-c6c([H])c([H])c(Oc7c([H])c([H])c(F)c([H])c7F)c([H])c6[H])c(C(=O)N([H])[H])c5N([H])[H])C4([H])[H])c(F)c3[H])c([H])c([H])c2C1([H])[H]

>  <smiles>  (86) 
[H]c1c([H])c([H])c2c(c1[H])C([H])([H])C([H])([H])C([H])([H])C2([H])N([H])C(=O)C1([H])N(C(=O)C([H])(N([H])C(=O)C([H])(N([H])C([H])([H])[H])C([H])([H])[H])C(C([H])([H])[H])(C([H])([H])[H])C([H])([H])[H])C([H])([H])c2c([H])c(OC([H])([H])C([H])([H])C([H])([H])N([H])C(=O)C([H])([H])c3c([H])c([H])c(C([H])([H])C([H])([H])N([H])C(=O)N4C([H])([H])C([H])([H])C([H])([H])C([H])(n5nc(-c6c([H])c([H])c(Oc7c([H])c([H])c(F)c([H])c7F)c([H])c6[H])c(C(=O)N([H])[H])c5N([H])[H])C4([H])[H])c(F)c3[H])c([H])c([H])c2C1([H])[H]

$$$$
89:0:0
     RDKit          3D

 93101  0  0  1  0  0  0  0  0999 V2000
  -29.0250  -20.0900   22.3250 C   0  0  0  0  0  2  0  0  0  0  0  0
  -30.1140  -19.0260   22.0240 C   0  0  0  0  0  2  0  0  0  0  0  0
  -29.6950  -19.1100   19.4710 C   0  0  0  0  0  2  0  0  0  0  0  0
  -29.1740  -21.4200   21.5360 C   0  0  0  0  0  2  0  0  0  0  0  0
  -28.4800  -20.0690   19.4990 C   0  0  0  0  0  2  0  0  0  0  0  0
  -29.8910  -18.2070   20.7260 C   0  0  0  0  0  3  0  0  0  0  0  0
  -28.7250  -21.4170   20.1080 N   0  0  2  0  0  4  0  0  0  0  0  0
  -27.7880  -21.8060   20.1230 H   0  0  0  0  0  0  0  0  0  0  0  0
  -31.0700  -17.1980   20.4840 C   0  0  0  0  0  2  0  0  0  0  0  0
  -31.2970  -14.7830   19.8890 C   0  0  0  0  0  0  0  0  0  0  0  0
  -30.9190  -12.6200   18.7750 C   0  0  0  0  0  2  0  0  0  0  0  0
  -29.8930  -12.8260   17.6410 C   0  0  0  0  0  2  0  0  0  0  0  0
  -28.4560  -12.6760   18.1790 C   0  0  0  0  0  2  0  0  0  0  0  0
  -28.2100  -13.5380   19.4450 C   0  0  0  0  0  3  0  0  0  0  0  0
  -29.3380  -13.3150   20.4820 C   0  0  0  0  0  2  0  0  0  0  0  0
  -30.6230  -13.6050   19.8260 N   0  0  0  0  0  0  0  0  0  0  0  0
  -32.3530  -14.9820   19.2780 O   0  0  0  0  0  0  0  0  0  0  0  0
  -30.6760  -15.7830   20.5470 N   0  0  0  0  0  0  0  0  0  0  0  0
  -29.8670  -15.5500   21.1030 H   0  0  0  0  0  0  0  0  0  0  0  0
  -25.8900  -14.1860   20.3540 C   0  0  0  0  0  0  0  0  0  0  0  0
  -24.8310  -13.4370   20.7770 C   0  0  0  0  0  0  0  0  0  0  0  0
  -25.2390  -12.0700   20.6580 C   0  0  0  0  0  0  0  0  0  0  0  0
  -26.8860  -13.2870   20.0100 N   0  0  0  0  0  0  0  0  0  0  0  0
  -26.5000  -12.0040   20.2450 N   0  0  0  0  0  0  0  0  0  0  0  0
  -24.4850  -10.8260   20.8600 C   0  0  0  0  0  0  0  0  0  0  0  0
  -24.8940   -9.8580   21.8030 C   0  0  0  0  0  3  0  0  0  0  0  0
  -24.1460   -8.6770   21.9860 C   0  0  0  0  0  3  0  0  0  0  0  0
  -22.9690   -8.4550   21.2330 C   0  0  0  0  0  0  0  0  0  0  0  0
  -22.5770   -9.4130   20.2790 C   0  0  0  0  0  3  0  0  0  0  0  0
  -23.3260  -10.5860   20.0930 C   0  0  0  0  0  3  0  0  0  0  0  0
  -22.1960   -7.3230   21.3280 O   0  0  0  0  0  0  0  0  0  0  0  0
  -22.0320   -6.6610   22.5180 C   0  0  0  0  0  0  0  0  0  0  0  0
  -21.4690   -7.2890   23.6490 C   0  0  0  0  0  3  0  0  0  0  0  0
  -21.2600   -6.5510   24.8310 C   0  0  0  0  0  3  0  0  0  0  0  0
  -21.6000   -5.1870   24.8790 C   0  0  0  0  0  0  0  0  0  0  0  0
  -22.1510   -4.5580   23.7490 C   0  0  0  0  0  3  0  0  0  0  0  0
  -22.3640   -5.2920   22.5690 C   0  0  0  0  0  0  0  0  0  0  0  0
  -22.8790   -4.6780   21.4770 F   0  0  0  0  0  0  0  0  0  0  0  0
  -21.3860   -4.4720   26.0080 F   0  0  0  0  0  0  0  0  0  0  0  0
  -23.4780  -13.9450   21.1920 C   0  0  0  0  0  0  0  0  0  0  0  0
  -22.8150  -13.2460   22.1020 N   0  0  0  0  0  0  0  0  0  0  0  0
  -23.0310  -15.0010   20.7430 O   0  0  0  0  0  0  0  0  0  0  0  0
  -23.1950  -12.3910   22.4870 H   0  0  0  0  0  0  0  0  0  0  0  0
  -21.9130  -13.5630   22.4280 H   0  0  0  0  0  0  0  0  0  0  0  0
  -26.0880  -15.5580   20.2120 N   0  0  0  0  0  0  0  0  0  0  0  0
  -25.3450  -16.2240   20.3710 H   0  0  0  0  0  0  0  0  0  0  0  0
  -26.9360  -15.9800   19.8630 H   0  0  0  0  0  0  0  0  0  0  0  0
  -29.4900  -22.3930   19.2640 C   0  0  0  0  0  2  0  0  0  0  0  0
  -28.9450  -23.8530   19.3340 C   0  0  0  0  0  2  0  0  0  0  0  0
  -30.0550  -24.9310   19.1440 C   0  0  0  0  0  3  0  0  0  0  0  0
  -30.8440  -24.9240   20.2250 F   0  0  0  0  0  0  0  0  0  0  0  0
  -29.5900  -26.3830   18.8140 C   0  0  0  0  0  2  0  0  0  0  0  0
  -29.0830  -27.1140   19.9410 O   0  0  0  0  0  0  0  0  0  0  0  0
  -24.6200  -31.6220   23.1610 C   0  0  0  0  0  0  0  0  0  0  0  0
  -27.8340  -27.7030   19.8890 C   0  0  0  0  0  0  0  0  0  0  0  0
  -23.6220  -30.2090   21.3910 C   0  0  0  0  0  3  0  0  0  0  0  0
  -25.2780  -28.9250   19.9330 C   0  0  0  0  0  0  0  0  0  0  0  0
  -26.1030  -30.8420   21.3110 C   0  0  0  0  0  2  0  0  0  0  0  0
  -26.3550  -29.5390   20.5820 C   0  0  0  0  0  0  0  0  0  0  0  0
  -27.6310  -28.9340   20.5610 C   0  0  0  0  0  3  0  0  0  0  0  0
  -26.7300  -27.0890   19.2520 C   0  0  0  0  0  3  0  0  0  0  0  0
  -25.4570  -27.6930   19.2730 C   0  0  0  0  0  3  0  0  0  0  0  0
  -23.9500  -29.6510   19.9840 C   0  0  0  0  0  2  0  0  0  0  0  0
  -24.7940  -30.9040   22.0150 N   0  0  0  0  0  0  0  0  0  0  0  0
  -23.5010  -31.7450   23.6770 O   0  0  0  0  0  0  0  0  0  0  0  0
  -23.0520  -29.0660   22.2590 C   0  0  0  0  0  0  0  0  0  0  0  0
  -21.7670  -28.7320   22.0460 N   0  0  0  0  0  0  0  0  0  0  0  0
  -23.7630  -28.4830   23.0800 O   0  0  0  0  0  0  0  0  0  0  0  0
  -21.2460  -29.2350   21.3390 H   0  0  0  0  0  0  0  0  0  0  0  0
  -18.5560  -27.1030   22.3110 C   0  0  0  0  0  0  0  0  0  0  0  0
  -21.0370  -27.6660   22.7280 C   0  0  0  0  0  3  0  0  0  0  0  0
  -21.3530  -26.2820   22.1130 C   0  0  0  0  0  2  0  0  0  0  0  0
  -20.3510  -25.8500   21.0320 C   0  0  0  0  0  2  0  0  0  0  0  0
  -18.9390  -25.8090   21.6200 C   0  0  0  0  0  2  0  0  0  0  0  0
  -19.5410  -27.9810   22.8300 C   0  0  0  0  0  0  0  0  0  0  0  0
  -19.1310  -29.1810   23.4620 C   0  0  0  0  0  3  0  0  0  0  0  0
  -17.7620  -29.5000   23.5740 C   0  0  0  0  0  3  0  0  0  0  0  0
  -16.7920  -28.6220   23.0580 C   0  0  0  0  0  3  0  0  0  0  0  0
  -17.1890  -27.4260   22.4360 C   0  0  0  0  0  3  0  0  0  0  0  0
  -25.8140  -32.3440   23.8650 C   0  0  0  0  0  3  0  0  0  0  0  0
  -25.3880  -33.7110   24.1850 N   0  0  0  0  0  0  0  0  0  0  0  0
  -25.6670  -34.7870   23.4380 C   0  0  0  0  0  0  0  0  0  0  0  0
  -26.3870  -34.7400   22.4360 O   0  0  0  0  0  0  0  0  0  0  0  0
  -24.7730  -33.8190   24.9770 H   0  0  0  0  0  0  0  0  0  0  0  0
  -23.8170  -36.4310   23.0020 C   0  0  0  0  0  1  0  0  0  0  0  0
  -25.0490  -36.1270   23.8710 C   0  0  0  0  0  3  0  0  0  0  0  0
  -27.0590  -37.1920   24.8020 C   0  0  0  0  0  1  0  0  0  0  0  0
  -25.9950  -37.2630   23.8040 N   0  0  0  0  0  0  0  0  0  0  0  0
  -25.5070  -38.1470   23.9230 H   0  0  0  0  0  0  0  0  0  0  0  0
  -26.3130  -31.6000   25.1650 C   0  0  1  0  0  0  0  0  0  0  0  0
  -25.1740  -31.2620   26.1550 C   0  0  0  0  0  1  0  0  0  0  0  0
  -27.0410  -30.2840   24.8090 C   0  0  0  0  0  1  0  0  0  0  0  0
  -27.3490  -32.4780   25.9090 C   0  0  0  0  0  1  0  0  0  0  0  0
  2  1  1  0
  3  5  1  0
  3  6  1  0
  4  1  1  0
  5  7  1  0
  6  9  1  0
  6  2  1  0
  7  8  1  1
  7  4  1  0
  9 18  1  0
 10 18  1  0
 11 16  1  0
 12 13  1  0
 12 11  1  0
 14 13  1  0
 14 23  1  0
 14 15  1  0
 16 10  1  0
 16 15  1  0
 17 10  2  0
 18 19  1  0
 20 21  2  0
 21 40  1  0
 22 21  1  0
 22 25  1  0
 23 24  1  0
 23 20  1  0
 24 22  2  0
 25 26  1  0
 26 27  2  0
 28 31  1  0
 28 27  1  0
 29 28  2  0
 30 29  1  0
 30 25  2  0
 31 32  1  0
 32 37  2  0
 32 33  1  0
 33 34  2  0
 34 35  1  0
 35 39  1  0
 36 35  2  0
 37 36  1  0
 38 37  1  0
 40 41  1  0
 41 44  1  0
 41 43  1  0
 42 40  2  0
 45 20  1  0
 45 46  1  0
 47 45  1  0
 48 49  1  0
 48  7  1  0
 50 49  1  0
 50 51  1  0
 52 50  1  0
 52 53  1  0
 54 65  2  0
 55 53  1  0
 55 60  1  0
 56 64  1  0
 56 66  1  0
 57 63  1  0
 57 59  1  0
 58 64  1  0
 59 58  1  0
 60 59  2  0
 61 62  1  0
 61 55  2  0
 62 57  2  0
 63 56  1  0
 64 54  1  0
 66 68  2  0
 67 66  1  0
 69 67  1  0
 70 79  2  0
 70 75  1  0
 71 67  1  0
 71 75  1  0
 72 71  1  0
 73 74  1  0
 73 72  1  0
 74 70  1  0
 75 76  2  0
 76 77  1  0
 78 77  2  0
 79 78  1  0
 80 54  1  0
 80 81  1  0
 80 90  1  0
 81 84  1  0
 82 86  1  0
 82 81  1  0
 83 82  2  0
 86 85  1  0
 88 86  1  0
 88 89  1  0
 88 87  1  0
 90 93  1  1
 90 91  1  0
 92 90  1  0
M  ISO  4  10 100  18 100  52 101  53 101
M  END
>  <TORSDO>  (87) 
F 21

>  <SCORE>  (87) 
-9.866

>  <name>  (87) 
89

>  <ligand_id>  (87) 
89

>  <original_smiles>  (87) 
[H]c1c([H])c([H])c2c(c1[H])C([H])([H])C([H])([H])C([H])([H])C2([H])N([H])C(=O)C1([H])N(C(=O)C([H])(N([H])C(=O)C([H])(N([H])C([H])([H])[H])C([H])([H])[H])C(C([H])([H])[H])(C([H])([H])[H])C([H])([H])[H])C([H])([H])c2c([H])c(OC([H])([H])C([H])(F)C([H])([H])C([H])([H])[N+]3([H])C([H])([H])C([H])([H])C([H])([H])C([H])(C([H])([H])N([H])C(=O)N4C([H])([H])C([H])([H])C([H])([H])C([H])(n5nc(-c6c([H])c([H])c(Oc7c([H])c([H])c(F)c([H])c7F)c([H])c6[H])c(C(=O)N([H])[H])c5N([H])[H])C4([H])[H])C([H])([H])C3([H])[H])c([H])c([H])c2C1([H])[H]

>  <smiles>  (87) 
[H]c1c([H])c([H])c2c(c1[H])C([H])([H])C([H])([H])C([H])([H])C2([H])N([H])C(=O)C1([H])N(C(=O)C([H])(N([H])C(=O)C([H])(N([H])C([H])([H])[H])C([H])([H])[H])C(C([H])([H])[H])(C([H])([H])[H])C([H])([H])[H])C([H])([H])c2c([H])c(OC([H])([H])C([H])(F)C([H])([H])C([H])([H])[N+]3([H])C([H])([H])C([H])([H])C([H])([H])C([H])(C([H])([H])N([H])C(=O)N4C([H])([H])C([H])([H])C([H])([H])C([H])(n5nc(-c6c([H])c([H])c(Oc7c([H])c([H])c(F)c([H])c7F)c([H])c6[H])c(C(=O)N([H])[H])c5N([H])[H])C4([H])[H])C([H])([H])C3([H])[H])c([H])c([H])c2C1([H])[H]

$$$$
90:0:0
     RDKit          3D

 97104  0  0  1  0  0  0  0  0999 V2000
  -28.0820  -18.7070   20.2600 N   0  0  0  0  0  4  0  0  0  0  0  0
  -27.8300  -18.6160   19.2880 H   0  0  0  0  0  0  0  0  0  0  0  0
  -29.0880  -18.6880   20.2920 H   0  0  0  0  0  0  0  0  0  0  0  0
  -27.5530  -17.4210   21.0140 C   0  0  0  0  0  2  0  0  0  0  0  0
  -28.9620  -13.9830   18.9740 C   0  0  0  0  0  1  0  0  0  0  0  0
  -27.5540  -13.0500   21.5880 C   0  0  0  0  0  2  0  0  0  0  0  0
  -28.6390  -15.4570   19.3670 C   0  0  0  0  0  3  0  0  0  0  0  0
  -27.7790  -15.8200   20.6270 C   0  0  0  0  0  0  0  0  0  0  0  0
  -28.4030  -12.4490   20.2790 C   0  0  0  0  0  3  0  0  0  0  0  0
  -27.2770  -14.6680   21.6590 C   0  0  0  0  0  0  0  0  0  0  0  0
  -28.5700  -11.0940   20.2380 F   0  0  0  0  0  0  0  0  0  0  0  0
  -26.6050  -15.0970   22.7550 F   0  0  0  0  0  0  0  0  0  0  0  0
  -29.9140  -16.2380   19.0430 C   0  0  0  0  0  2  0  0  0  0  0  0
  -31.5480  -14.2870   19.5810 C   0  0  0  0  0  0  0  0  0  0  0  0
  -30.5660  -12.1270   18.5460 C   0  0  0  0  0  2  0  0  0  0  0  0
  -29.0600  -11.9820   17.4070 C   0  0  0  0  0  3  0  0  0  0  0  0
  -27.3080  -12.5750   17.7040 C   0  0  0  0  0  3  0  0  0  0  0  0
  -26.8420  -13.7020   19.2040 C   0  0  0  0  0  2  0  0  0  0  0  0
  -29.6180  -13.8750   20.8650 C   0  0  0  0  0  2  0  0  0  0  0  0
  -30.8070  -13.1910   19.9160 N   0  0  0  0  0  0  0  0  0  0  0  0
  -32.5950  -14.1570   19.0260 O   0  0  0  0  0  0  0  0  0  0  0  0
  -31.1240  -15.5850   19.6390 N   0  0  0  0  0  0  0  0  0  0  0  0
  -31.9340  -16.1830   19.5650 H   0  0  0  0  0  0  0  0  0  0  0  0
  -24.6560  -13.8520   20.1270 C   0  0  0  0  0  0  0  0  0  0  0  0
  -23.7900  -12.9750   20.6510 C   0  0  0  0  0  0  0  0  0  0  0  0
  -24.3730  -11.6710   20.5860 C   0  0  0  0  0  0  0  0  0  0  0  0
  -25.6550  -13.0780   19.7000 N   0  0  0  0  0  0  0  0  0  0  0  0
  -25.5630  -11.7490   20.0340 N   0  0  0  0  0  0  0  0  0  0  0  0
  -23.7840  -10.3620   20.8490 C   0  0  0  0  0  0  0  0  0  0  0  0
  -24.2990   -9.4450   21.7900 C   0  0  0  0  0  3  0  0  0  0  0  0
  -23.6310   -8.2210   22.0200 C   0  0  0  0  0  3  0  0  0  0  0  0
  -22.4460   -7.9160   21.3050 C   0  0  0  0  0  0  0  0  0  0  0  0
  -21.9650   -8.8230   20.3470 C   0  0  0  0  0  3  0  0  0  0  0  0
  -22.6320  -10.0330   20.1190 C   0  0  0  0  0  3  0  0  0  0  0  0
  -21.7320   -6.7550   21.4380 O   0  0  0  0  0  0  0  0  0  0  0  0
  -21.7240   -6.0440   22.6090 C   0  0  0  0  0  0  0  0  0  0  0  0
  -21.3260   -6.6240   23.8330 C   0  0  0  0  0  3  0  0  0  0  0  0
  -21.2660   -5.8320   24.9960 C   0  0  0  0  0  3  0  0  0  0  0  0
  -21.5940   -4.4640   24.9360 C   0  0  0  0  0  0  0  0  0  0  0  0
  -21.9840   -3.8870   23.7160 C   0  0  0  0  0  3  0  0  0  0  0  0
  -22.0460   -4.6730   22.5540 C   0  0  0  0  0  0  0  0  0  0  0  0
  -22.4020   -4.1100   21.3740 F   0  0  0  0  0  0  0  0  0  0  0  0
  -21.5290   -3.7010   26.0520 F   0  0  0  0  0  0  0  0  0  0  0  0
  -22.4170  -13.3750   20.9920 C   0  0  0  0  0  0  0  0  0  0  0  0
  -21.8000  -12.6710   21.9230 N   0  0  0  0  0  0  0  0  0  0  0  0
  -21.9130  -14.3570   20.4490 O   0  0  0  0  0  0  0  0  0  0  0  0
  -22.2510  -11.8790   22.3600 H   0  0  0  0  0  0  0  0  0  0  0  0
  -20.8590  -12.9170   22.1960 H   0  0  0  0  0  0  0  0  0  0  0  0
  -24.6630  -15.2340   19.9340 N   0  0  0  0  0  0  0  0  0  0  0  0
  -23.7770  -15.7080   20.0820 H   0  0  0  0  0  0  0  0  0  0  0  0
  -25.2290  -15.6810   19.2260 H   0  0  0  0  0  0  0  0  0  0  0  0
  -27.6510  -20.1650   20.6900 C   0  0  0  0  0  3  0  0  0  0  0  0
  -28.2520  -21.5660   19.9840 C   0  0  0  0  0  3  0  0  0  0  0  0
  -27.8470  -23.1370   20.4360 C   0  0  0  0  0  3  0  0  0  0  0  0
  -26.5220  -23.1390   20.6090 F   0  0  0  0  0  0  0  0  0  0  0  0
  -28.1900  -24.5100   19.5280 C   0  0  0  0  0  2  0  0  0  0  0  0
  -28.3170  -26.0160   19.9420 O   0  0  0  0  0  0  0  0  0  0  0  0
  -24.7190  -31.6390   22.9880 C   0  0  0  0  0  0  0  0  0  0  0  0
  -27.2960  -27.0200   19.8400 C   0  0  0  0  0  0  0  0  0  0  0  0
  -23.5360  -30.2580   21.3310 C   0  0  0  0  0  3  0  0  0  0  0  0
  -24.9910  -28.7680   19.8400 C   0  0  0  0  0  0  0  0  0  0  0  0
  -26.0840  -30.5810   21.1480 C   0  0  0  0  0  2  0  0  0  0  0  0
  -26.1730  -29.2070   20.4530 C   0  0  0  0  0  0  0  0  0  0  0  0
  -27.3340  -28.3490   20.4290 C   0  0  0  0  0  3  0  0  0  0  0  0
  -26.0960  -26.6930   19.1850 C   0  0  0  0  0  3  0  0  0  0  0  0
  -24.9660  -27.5280   19.1900 C   0  0  0  0  0  3  0  0  0  0  0  0
  -23.7530  -29.6440   19.9260 C   0  0  0  0  0  2  0  0  0  0  0  0
  -24.8010  -30.8450   21.8780 N   0  0  0  0  0  0  0  0  0  0  0  0
  -23.6290  -31.8860   23.5300 O   0  0  0  0  0  0  0  0  0  0  0  0
  -22.8970  -29.2000   22.2640 C   0  0  0  0  0  0  0  0  0  0  0  0
  -21.5660  -29.0210   22.1630 N   0  0  0  0  0  0  0  0  0  0  0  0
  -23.5950  -28.5470   23.0420 O   0  0  0  0  0  0  0  0  0  0  0  0
  -21.0580  -29.5990   21.5100 H   0  0  0  0  0  0  0  0  0  0  0  0
  -18.2000  -27.8080   22.7100 C   0  0  0  0  0  0  0  0  0  0  0  0
  -20.7670  -28.0560   22.9210 C   0  0  0  0  0  3  0  0  0  0  0  0
  -20.8510  -26.6470   22.2840 C   0  0  0  0  0  2  0  0  0  0  0  0
  -19.7160  -26.3650   21.2920 C   0  0  0  0  0  2  0  0  0  0  0  0
  -18.3550  -26.4870   21.9790 C   0  0  0  0  0  2  0  0  0  0  0  0
  -19.3310  -28.5510   23.1400 C   0  0  0  0  0  0  0  0  0  0  0  0
  -19.1270  -29.7910   23.7850 C   0  0  0  0  0  3  0  0  0  0  0  0
  -17.8270  -30.2820   24.0080 C   0  0  0  0  0  3  0  0  0  0  0  0
  -16.7120  -29.5310   23.5970 C   0  0  0  0  0  3  0  0  0  0  0  0
  -16.9000  -28.2960   22.9510 C   0  0  0  0  0  3  0  0  0  0  0  0
  -25.9870  -32.2910   23.6190 C   0  0  0  0  0  3  0  0  0  0  0  0
  -25.6300  -33.6570   24.0310 N   0  0  0  0  0  0  0  0  0  0  0  0
  -25.9080  -34.7620   23.3290 C   0  0  0  0  0  0  0  0  0  0  0  0
  -26.5600  -34.7410   22.2810 O   0  0  0  0  0  0  0  0  0  0  0  0
  -25.0420  -33.7420   24.8470 H   0  0  0  0  0  0  0  0  0  0  0  0
  -24.1110  -36.5090   23.1100 C   0  0  0  0  0  1  0  0  0  0  0  0
  -25.3820  -36.1040   23.8740 C   0  0  0  0  0  3  0  0  0  0  0  0
  -27.5000  -37.0160   24.7200 C   0  0  0  0  0  1  0  0  0  0  0  0
  -26.3760  -37.1980   23.8060 N   0  0  0  0  0  0  0  0  0  0  0  0
  -25.9410  -38.0930   24.0130 H   0  0  0  0  0  0  0  0  0  0  0  0
  -26.5490  -31.4750   24.8450 C   0  0  1  0  0  0  0  0  0  0  0  0
  -25.4790  -31.1490   25.9150 C   0  0  0  0  0  1  0  0  0  0  0  0
  -27.1670  -30.1380   24.3790 C   0  0  0  0  0  1  0  0  0  0  0  0
  -27.6920  -32.2690   25.5210 C   0  0  0  0  0  1  0  0  0  0  0  0
  1  3  1  0
  1 52  1  0
  1  4  1  0
  2  1  1  0
  6 10  1  0
  7  5  1  0
  7  8  1  0
  8  4  1  0
  8 10  2  0
  9 11  1  0
  9 19  1  0
  9  6  1  0
 10 12  1  0
 13  7  1  0
 13 22  1  0
 14 22  1  0
 14 20  1  0
 15 20  1  0
 16 17  2  0
 16 15  1  0
 17 18  1  0
 18 27  1  0
 20 19  1  0
 21 14  2  0
 23 22  1  0
 24 25  2  0
 25 44  1  0
 26 25  1  0
 26 29  1  0
 27 28  1  0
 27 24  1  0
 28 26  2  0
 29 30  1  0
 30 31  2  0
 32 35  1  0
 32 31  1  0
 33 32  2  0
 34 33  1  0
 34 29  2  0
 35 36  1  0
 36 37  1  0
 37 38  2  0
 39 38  1  0
 39 43  1  0
 40 39  2  0
 41 36  2  0
 41 40  1  0
 42 41  1  0
 44 45  1  0
 45 48  1  0
 45 47  1  0
 46 44  2  0
 49 50  1  0
 49 24  1  0
 51 49  1  0
 53 54  1  0
 53 52  2  0
 54 55  1  0
 56 57  1  0
 56 54  1  0
 58 69  2  0
 59 57  1  0
 59 64  1  0
 60 68  1  0
 60 70  1  0
 61 67  1  0
 61 63  1  0
 62 68  1  0
 63 62  1  0
 64 63  2  0
 65 66  1  0
 65 59  2  0
 66 61  2  0
 67 60  1  0
 68 58  1  0
 70 72  2  0
 71 70  1  0
 73 71  1  0
 74 83  2  0
 74 79  1  0
 75 71  1  0
 75 79  1  0
 76 75  1  0
 77 78  1  0
 77 76  1  0
 78 74  1  0
 79 80  2  0
 80 81  1  0
 82 81  2  0
 83 82  1  0
 84 58  1  0
 84 85  1  0
 84 94  1  0
 85 88  1  0
 86 90  1  0
 86 85  1  0
 87 86  2  0
 90 89  1  0
 92 90  1  0
 92 93  1  0
 92 91  1  0
 94 97  1  1
 94 95  1  0
 96 94  1  0
M  ISO  4  14 100  22 100  56 101  57 101
M  END
>  <TORSDO>  (88) 
F 23

>  <SCORE>  (88) 
-7.432

>  <name>  (88) 
90

>  <ligand_id>  (88) 
90

>  <original_smiles>  (88) 
[H]c1c([H])c([H])c2c(c1[H])C([H])([H])C([H])([H])C([H])([H])C2([H])N([H])C(=O)C1([H])N(C(=O)C([H])(N([H])C(=O)C([H])(N([H])C([H])([H])[H])C([H])([H])[H])C(C([H])([H])[H])(C([H])([H])[H])C([H])([H])[H])C([H])([H])c2c([H])c(OC([H])([H])C([H])(F)C([H])([H])C([H])([H])[N+]([H])([H])C([H])([H])c3c(F)c([H])c(F)c([H])c3C([H])([H])N([H])C(=O)N3C([H])([H])C([H])([H])C([H])([H])C([H])(n4nc(-c5c([H])c([H])c(Oc6c([H])c([H])c(F)c([H])c6F)c([H])c5[H])c(C(=O)N([H])[H])c4N([H])[H])C3([H])[H])c([H])c([H])c2C1([H])[H]

>  <smiles>  (88) 
[H]c1c([H])c([H])c2c(c1[H])C([H])([H])C([H])([H])C([H])([H])C2([H])N([H])C(=O)C1([H])N(C(=O)C([H])(N([H])C(=O)C([H])(N([H])C([H])([H])[H])C([H])([H])[H])C(C([H])([H])[H])(C([H])([H])[H])C([H])([H])[H])C([H])([H])c2c([H])c(OC([H])([H])C([H])(F)C([H])([H])C([H])([H])[N+]([H])([H])C([H])([H])c3c(F)c([H])c(F)c([H])c3C([H])([H])N([H])C(=O)N3C([H])([H])C([H])([H])C([H])([H])C([H])(n4nc(-c5c([H])c([H])c(Oc6c([H])c([H])c(F)c([H])c6F)c([H])c5[H])c(C(=O)N([H])[H])c4N([H])[H])C3([H])[H])c([H])c([H])c2C1([H])[H]

$$$$
91:0:0
     RDKit          3D

 99107  0  0  1  0  0  0  0  0999 V2000
  -29.2130  -19.4570   21.5110 C   0  0  0  0  0  2  0  0  0  0  0  0
  -30.7160  -19.2030   21.3550 C   0  0  0  0  0  0  0  0  0  0  0  0
  -31.1070  -18.3470   20.4000 N   0  0  0  0  0  0  0  0  0  0  0  0
  -31.5160  -19.8200   22.0610 O   0  0  0  0  0  0  0  0  0  0  0  0
  -30.3890  -17.8440   19.8970 H   0  0  0  0  0  0  0  0  0  0  0  0
  -32.8470  -18.8280   18.6470 C   0  0  0  0  0  2  0  0  0  0  0  0
  -32.4990  -18.1670   19.9830 C   0  0  0  0  0  3  0  0  0  0  0  0
  -32.8230  -16.8590   19.2480 C   0  0  0  0  0  3  0  0  0  0  0  0
  -33.7340  -17.6880   18.4430 N   0  0  0  0  0  4  0  0  0  0  0  0
  -34.6260  -17.8280   18.8820 H   0  0  0  0  0  0  0  0  0  0  0  0
  -33.8260  -17.4000   17.4810 H   0  0  0  0  0  0  0  0  0  0  0  0
  -33.5950  -15.7270   19.9330 C   0  0  0  0  0  2  0  0  0  0  0  0
  -33.0860  -13.3210   19.6780 C   0  0  0  0  0  0  0  0  0  0  0  0
  -32.9070  -10.9670   20.3660 C   0  0  0  0  0  2  0  0  0  0  0  0
  -32.1450  -10.0860   19.3670 C   0  0  0  0  0  2  0  0  0  0  0  0
  -30.6350  -10.1370   19.6470 C   0  0  0  0  0  2  0  0  0  0  0  0
  -30.1060  -11.5900   19.7500 C   0  0  0  0  0  3  0  0  0  0  0  0
  -30.9770  -12.4350   20.7040 C   0  0  0  0  0  2  0  0  0  0  0  0
  -32.3880  -12.3370   20.2840 N   0  0  0  0  0  0  0  0  0  0  0  0
  -34.0750  -13.1320   18.9600 O   0  0  0  0  0  0  0  0  0  0  0  0
  -32.7720  -14.5400   20.1230 N   0  0  0  0  0  0  0  0  0  0  0  0
  -32.0170  -14.5910   20.7910 H   0  0  0  0  0  0  0  0  0  0  0  0
  -27.7740  -12.6440   20.0480 C   0  0  0  0  0  0  0  0  0  0  0  0
  -26.5860  -12.1250   20.4840 C   0  0  0  0  0  0  0  0  0  0  0  0
  -26.8520  -10.7630   20.8250 C   0  0  0  0  0  0  0  0  0  0  0  0
  -28.6980  -11.6140   20.1440 N   0  0  0  0  0  0  0  0  0  0  0  0
  -28.1410  -10.4930   20.6650 N   0  0  0  0  0  0  0  0  0  0  0  0
  -25.9430   -9.6870   21.2420 C   0  0  0  0  0  0  0  0  0  0  0  0
  -25.7970   -9.3310   22.6010 C   0  0  0  0  0  3  0  0  0  0  0  0
  -24.9050   -8.3040   22.9790 C   0  0  0  0  0  3  0  0  0  0  0  0
  -24.1450   -7.6250   21.9960 C   0  0  0  0  0  0  0  0  0  0  0  0
  -24.3120   -7.9690   20.6430 C   0  0  0  0  0  3  0  0  0  0  0  0
  -25.2040   -8.9880   20.2670 C   0  0  0  0  0  3  0  0  0  0  0  0
  -23.2740   -6.5980   22.2690 O   0  0  0  0  0  0  0  0  0  0  0  0
  -22.2770   -6.7290   23.2000 C   0  0  0  0  0  0  0  0  0  0  0  0
  -21.2800   -7.7230   23.0910 C   0  0  0  0  0  3  0  0  0  0  0  0
  -20.2330   -7.7760   24.0330 C   0  0  0  0  0  3  0  0  0  0  0  0
  -20.1770   -6.8340   25.0780 C   0  0  0  0  0  0  0  0  0  0  0  0
  -21.1640   -5.8400   25.1840 C   0  0  0  0  0  3  0  0  0  0  0  0
  -22.2100   -5.7870   24.2460 C   0  0  0  0  0  0  0  0  0  0  0  0
  -23.1480   -4.8130   24.3420 F   0  0  0  0  0  0  0  0  0  0  0  0
  -19.1670   -6.8800   25.9790 F   0  0  0  0  0  0  0  0  0  0  0  0
  -25.2540  -12.8190   20.4930 C   0  0  0  0  0  0  0  0  0  0  0  0
  -24.4120  -12.5140   21.4750 N   0  0  0  0  0  0  0  0  0  0  0  0
  -24.9730  -13.6740   19.6550 O   0  0  0  0  0  0  0  0  0  0  0  0
  -24.6540  -11.8280   22.1740 H   0  0  0  0  0  0  0  0  0  0  0  0
  -23.5150  -12.9740   21.5280 H   0  0  0  0  0  0  0  0  0  0  0  0
  -28.1460  -13.8940   19.5580 N   0  0  0  0  0  0  0  0  0  0  0  0
  -27.4740  -14.6380   19.4090 H   0  0  0  0  0  0  0  0  0  0  0  0
  -29.0720  -14.1200   19.2210 H   0  0  0  0  0  0  0  0  0  0  0  0
  -28.6570  -20.3990   20.4220 C   0  0  0  0  0  2  0  0  0  0  0  0
  -29.5090  -21.6660   20.2250 C   0  0  0  0  0  2  0  0  0  0  0  0
  -29.1700  -22.4370   18.9460 C   0  0  0  0  0  2  0  0  0  0  0  0
  -30.0540  -23.6080   18.8150 N   0  0  0  0  0  4  0  0  0  0  0  0
  -30.4120  -23.8510   19.7240 H   0  0  0  0  0  0  0  0  0  0  0  0
  -30.8440  -23.3460   18.2450 H   0  0  0  0  0  0  0  0  0  0  0  0
  -29.3940  -24.7940   18.2440 C   0  0  0  0  0  2  0  0  0  0  0  0
  -30.1810  -26.0710   18.5660 C   0  0  0  0  0  2  0  0  0  0  0  0
  -29.6420  -27.1620   17.8390 O   0  0  0  0  0  0  0  0  0  0  0  0
  -24.8660  -27.9070   23.0600 C   0  0  0  0  0  0  0  0  0  0  0  0
  -28.3770  -27.5320   18.2100 C   0  0  0  0  0  0  0  0  0  0  0  0
  -24.0360  -28.3180   20.7670 C   0  0  0  0  0  3  0  0  0  0  0  0
  -25.8210  -28.4390   18.9560 C   0  0  0  0  0  0  0  0  0  0  0  0
  -26.4970  -28.6900   21.3500 C   0  0  0  0  0  2  0  0  0  0  0  0
  -26.8250  -28.3120   19.9210 C   0  0  0  0  0  0  0  0  0  0  0  0
  -28.1080  -27.8550   19.5560 C   0  0  0  0  0  3  0  0  0  0  0  0
  -27.3600  -27.6660   17.2400 C   0  0  0  0  0  3  0  0  0  0  0  0
  -26.0750  -28.1030   17.6150 C   0  0  0  0  0  3  0  0  0  0  0  0
  -24.4850  -28.9650   19.4300 C   0  0  0  0  0  2  0  0  0  0  0  0
  -25.1440  -28.2660   21.7750 N   0  0  0  0  0  0  0  0  0  0  0  0
  -23.7040  -27.6680   23.4200 O   0  0  0  0  0  0  0  0  0  0  0  0
  -23.4180  -26.9340   20.4580 C   0  0  0  0  0  0  0  0  0  0  0  0
  -22.2610  -26.9370   19.7750 N   0  0  0  0  0  0  0  0  0  0  0  0
  -23.9870  -25.8960   20.8040 O   0  0  0  0  0  0  0  0  0  0  0  0
  -21.8460  -27.8300   19.5460 H   0  0  0  0  0  0  0  0  0  0  0  0
  -19.4460  -25.8470   17.7940 C   0  0  0  0  0  0  0  0  0  0  0  0
  -21.5160  -25.7590   19.3380 C   0  0  0  0  0  3  0  0  0  0  0  0
  -22.2300  -25.0370   18.1700 C   0  0  0  0  0  2  0  0  0  0  0  0
  -21.7450  -25.4920   16.7910 C   0  0  0  0  0  2  0  0  0  0  0  0
  -20.2400  -25.2490   16.6450 C   0  0  0  0  0  2  0  0  0  0  0  0
  -20.0500  -26.1000   19.0540 C   0  0  0  0  0  0  0  0  0  0  0  0
  -19.2790  -26.6900   20.0790 C   0  0  0  0  0  3  0  0  0  0  0  0
  -17.9290  -27.0270   19.8600 C   0  0  0  0  0  3  0  0  0  0  0  0
  -17.3320  -26.7600   18.6160 C   0  0  0  0  0  3  0  0  0  0  0  0
  -18.0870  -26.1660   17.5890 C   0  0  0  0  0  3  0  0  0  0  0  0
  -25.9860  -27.8100   24.1470 C   0  0  0  0  0  3  0  0  0  0  0  0
  -26.4550  -26.3290   24.4260 C   0  0  1  0  0  0  0  0  0  0  0  0
  -25.2930  -25.3550   24.7290 C   0  0  0  0  0  1  0  0  0  0  0  0
  -27.2390  -25.7760   23.2140 C   0  0  0  0  0  1  0  0  0  0  0  0
  -27.4210  -26.2940   25.6340 C   0  0  0  0  0  1  0  0  0  0  0  0
  -25.4740  -28.4290   25.3760 N   0  0  0  0  0  0  0  0  0  0  0  0
  -25.8390  -29.6380   25.8250 C   0  0  0  0  0  0  0  0  0  0  0  0
  -26.7130  -30.3190   25.2780 O   0  0  0  0  0  0  0  0  0  0  0  0
  -24.7340  -27.9420   25.8610 H   0  0  0  0  0  0  0  0  0  0  0  0
  -24.0800  -31.2210   26.6520 C   0  0  0  0  0  1  0  0  0  0  0  0
  -25.1230  -30.1740   27.0780 C   0  0  0  0  0  3  0  0  0  0  0  0
  -26.8890  -29.7530   28.7270 C   0  0  0  0  0  1  0  0  0  0  0  0
  -26.0450  -30.7520   28.0800 N   0  0  0  0  0  0  0  0  0  0  0  0
  -25.5290  -31.2470   28.8030 H   0  0  0  0  0  0  0  0  0  0  0  0
  2  1  1  0
  2  4  2  0
  3  2  1  0
  5  3  1  0
  6  7  1  0
  7  3  1  0
  8 12  1  0
  8  7  1  0
  9  6  1  0
  9 10  1  0
  9  8  1  0
 11  9  1  0
 12 21  1  0
 13 21  1  0
 13 19  1  0
 15 16  1  0
 15 14  1  0
 17 16  1  0
 17 26  1  0
 17 18  1  0
 19 14  1  0
 19 18  1  0
 20 13  2  0
 21 22  1  0
 23 26  1  0
 23 24  2  0
 24 43  1  0
 24 25  1  0
 25 28  1  0
 26 27  1  0
 27 25  2  0
 28 29  1  0
 29 30  2  0
 31 34  1  0
 31 30  1  0
 32 31  2  0
 33 32  1  0
 33 28  2  0
 34 35  1  0
 35 40  1  0
 36 35  2  0
 36 37  1  0
 37 38  2  0
 38 39  1  0
 38 42  1  0
 40 41  1  0
 40 39  2  0
 43 44  1  0
 44 47  1  0
 44 46  1  0
 45 43  2  0
 48 23  1  0
 49 48  1  0
 50 48  1  0
 51  1  1  0
 52 51  1  0
 53 52  1  0
 54 53  1  0
 54 55  1  0
 56 54  1  0
 57 58  1  0
 57 54  1  0
 59 61  1  0
 59 58  1  0
 60 71  2  0
 61 66  1  0
 62 72  1  0
 62 70  1  0
 63 69  1  0
 63 65  1  0
 64 70  1  0
 65 64  1  0
 66 65  2  0
 67 68  1  0
 67 61  2  0
 68 63  2  0
 69 62  1  0
 70 60  1  0
 72 74  2  0
 73 72  1  0
 75 73  1  0
 76 81  1  0
 77 73  1  0
 78 77  1  0
 79 78  1  0
 80 79  1  0
 80 76  1  0
 81 77  1  0
 81 82  2  0
 83 82  1  0
 84 83  2  0
 85 76  2  0
 85 84  1  0
 86 60  1  0
 86 87  1  0
 86 91  1  0
 87 88  1  1
 87 90  1  0
 89 87  1  0
 91 92  1  0
 91 94  1  0
 92 96  1  0
 93 92  2  0
 96 95  1  0
 96 98  1  0
 98 97  1  0
 98 99  1  0
M  ISO  4  13 100  21 100  58 101  59 101
M  END
>  <TORSDO>  (89) 
F 25

>  <SCORE>  (89) 
-3.350

>  <name>  (89) 
91

>  <ligand_id>  (89) 
91

>  <original_smiles>  (89) 
[H]c1c([H])c([H])c2c(c1[H])C([H])([H])C([H])([H])C([H])([H])C2([H])N([H])C(=O)C1([H])N(C(=O)C([H])(N([H])C(=O)C([H])(N([H])C([H])([H])[H])C([H])([H])[H])C(C([H])([H])[H])(C([H])([H])[H])C([H])([H])[H])C([H])([H])c2c([H])c(OC([H])([H])C([H])([H])[N+]([H])([H])C([H])([H])C([H])([H])C([H])([H])C([H])([H])C(=O)N([H])C3([H])C([H])([H])[N+]([H])([H])C3([H])C([H])([H])N([H])C(=O)N3C([H])([H])C([H])([H])C([H])([H])C([H])(n4nc(-c5c([H])c([H])c(Oc6c([H])c([H])c(F)c([H])c6F)c([H])c5[H])c(C(=O)N([H])[H])c4N([H])[H])C3([H])[H])c([H])c([H])c2C1([H])[H]

>  <smiles>  (89) 
[H]c1c([H])c([H])c2c(c1[H])C([H])([H])C([H])([H])C([H])([H])C2([H])N([H])C(=O)C1([H])N(C(=O)C([H])(N([H])C(=O)C([H])(N([H])C([H])([H])[H])C([H])([H])[H])C(C([H])([H])[H])(C([H])([H])[H])C([H])([H])[H])C([H])([H])c2c([H])c(OC([H])([H])C([H])([H])[N+]([H])([H])C([H])([H])C([H])([H])C([H])([H])C([H])([H])C(=O)N([H])C3([H])C([H])([H])[N+]([H])([H])C3([H])C([H])([H])N([H])C(=O)N3C([H])([H])C([H])([H])C([H])([H])C([H])(n4nc(-c5c([H])c([H])c(Oc6c([H])c([H])c(F)c([H])c6F)c([H])c5[H])c(C(=O)N([H])[H])c4N([H])[H])C3([H])[H])c([H])c([H])c2C1([H])[H]

$$$$
92:0:0
     RDKit          3D

 98106  0  0  1  0  0  0  0  0999 V2000
  -28.9710  -20.4660   21.8400 C   0  0  0  0  0  2  0  0  0  0  0  0
  -28.6310  -19.5210   20.6740 C   0  0  0  0  0  2  0  0  0  0  0  0
  -29.5840  -18.4070   20.6480 N   0  0  0  0  0  0  0  0  0  0  0  0
  -30.4650  -18.6770   21.0750 H   0  0  0  0  0  0  0  0  0  0  0  0
  -31.2460  -16.2030   18.0380 C   0  0  0  0  0  2  0  0  0  0  0  0
  -31.8120  -17.3170   17.1500 C   0  0  0  0  0  2  0  0  0  0  0  0
  -30.4500  -18.9750   18.3570 C   0  0  0  0  0  2  0  0  0  0  0  0
  -30.8830  -16.7270   19.4550 C   0  0  0  0  0  3  0  0  0  0  0  0
  -29.8580  -17.8820   19.3070 C   0  0  0  0  0  3  0  0  0  0  0  0
  -30.8450  -18.4230   17.0450 N   0  0  0  0  0  4  0  0  0  0  0  0
  -30.0250  -18.1020   16.5560 H   0  0  0  0  0  0  0  0  0  0  0  0
  -31.2500  -19.1620   16.4920 H   0  0  0  0  0  0  0  0  0  0  0  0
  -31.1250  -14.5320   20.5450 C   0  0  0  0  0  0  0  0  0  0  0  0
  -30.7790  -12.3590   19.5110 C   0  0  0  0  0  2  0  0  0  0  0  0
  -29.8900  -12.5800   18.2690 C   0  0  0  0  0  2  0  0  0  0  0  0
  -28.4000  -12.5040   18.6460 C   0  0  0  0  0  2  0  0  0  0  0  0
  -28.0410  -13.3710   19.8820 C   0  0  0  0  0  3  0  0  0  0  0  0
  -29.0590  -13.1840   21.0320 C   0  0  0  0  0  2  0  0  0  0  0  0
  -30.4080  -13.3860   20.4920 N   0  0  0  0  0  0  0  0  0  0  0  0
  -32.3420  -14.5840   20.3600 O   0  0  0  0  0  0  0  0  0  0  0  0
  -30.3940  -15.6320   20.3110 N   0  0  0  0  0  0  0  0  0  0  0  0
  -29.4040  -15.5870   20.4920 H   0  0  0  0  0  0  0  0  0  0  0  0
  -25.6470  -14.0410   20.5480 C   0  0  0  0  0  0  0  0  0  0  0  0
  -24.5460  -13.2960   20.8730 C   0  0  0  0  0  0  0  0  0  0  0  0
  -24.9690  -11.9310   20.8310 C   0  0  0  0  0  0  0  0  0  0  0  0
  -26.6700  -13.1310   20.3280 N   0  0  0  0  0  0  0  0  0  0  0  0
  -26.2660  -11.8580   20.5600 N   0  0  0  0  0  0  0  0  0  0  0  0
  -24.2010  -10.6900   20.9770 C   0  0  0  0  0  0  0  0  0  0  0  0
  -24.5760   -9.6950   21.9060 C   0  0  0  0  0  3  0  0  0  0  0  0
  -23.8130   -8.5150   22.0400 C   0  0  0  0  0  3  0  0  0  0  0  0
  -22.6570   -8.3250   21.2450 C   0  0  0  0  0  0  0  0  0  0  0  0
  -22.3010   -9.3080   20.3070 C   0  0  0  0  0  3  0  0  0  0  0  0
  -23.0650  -10.4780   20.1700 C   0  0  0  0  0  3  0  0  0  0  0  0
  -21.8680   -7.2000   21.2890 O   0  0  0  0  0  0  0  0  0  0  0  0
  -21.7600   -6.4410   22.4280 C   0  0  0  0  0  0  0  0  0  0  0  0
  -21.3050   -6.9870   23.6470 C   0  0  0  0  0  3  0  0  0  0  0  0
  -21.1390   -6.1560   24.7730 C   0  0  0  0  0  3  0  0  0  0  0  0
  -21.4210   -4.7790   24.6800 C   0  0  0  0  0  0  0  0  0  0  0  0
  -21.8690   -4.2340   23.4640 C   0  0  0  0  0  3  0  0  0  0  0  0
  -22.0340   -5.0620   22.3410 C   0  0  0  0  0  0  0  0  0  0  0  0
  -22.4470   -4.5260   21.1660 F   0  0  0  0  0  0  0  0  0  0  0  0
  -21.2560   -3.9790   25.7580 F   0  0  0  0  0  0  0  0  0  0  0  0
  -23.1580  -13.8110   21.1150 C   0  0  0  0  0  0  0  0  0  0  0  0
  -22.3840  -13.1250   21.9480 N   0  0  0  0  0  0  0  0  0  0  0  0
  -22.7660  -14.8580   20.6020 O   0  0  0  0  0  0  0  0  0  0  0  0
  -22.7080  -12.2770   22.3880 H   0  0  0  0  0  0  0  0  0  0  0  0
  -21.4510  -13.4550   22.1500 H   0  0  0  0  0  0  0  0  0  0  0  0
  -25.8610  -15.4080   20.4010 N   0  0  0  0  0  0  0  0  0  0  0  0
  -25.1120  -16.0850   20.4970 H   0  0  0  0  0  0  0  0  0  0  0  0
  -26.7380  -15.8280   20.1230 H   0  0  0  0  0  0  0  0  0  0  0  0
  -28.4300  -21.9020   21.6300 C   0  0  0  0  0  2  0  0  0  0  0  0
  -29.6000  -22.6340   23.6750 C   0  0  0  0  0  1  0  0  0  0  0  0
  -29.2940  -22.9430   22.2560 N   0  0  2  0  0  4  0  0  0  0  0  0
  -30.1780  -22.9100   21.7710 H   0  0  0  0  0  0  0  0  0  0  0  0
  -28.8080  -24.3480   22.1040 C   0  0  0  0  0  2  0  0  0  0  0  0
  -28.7330  -24.8820   20.6500 C   0  0  0  0  0  2  0  0  0  0  0  0
  -28.7560  -26.4230   20.5810 C   0  0  0  0  0  2  0  0  0  0  0  0
  -28.3020  -26.8870   19.3030 O   0  0  0  0  0  0  0  0  0  0  0  0
  -24.6700  -31.7500   22.9680 C   0  0  0  0  0  0  0  0  0  0  0  0
  -27.1500  -27.6240   19.3970 C   0  0  0  0  0  0  0  0  0  0  0  0
  -23.3630  -30.4380   21.3260 C   0  0  0  0  0  3  0  0  0  0  0  0
  -24.7320  -29.0430   19.6830 C   0  0  0  0  0  0  0  0  0  0  0  0
  -25.8530  -30.8810   20.9570 C   0  0  0  0  0  2  0  0  0  0  0  0
  -25.9170  -29.5620   20.2220 C   0  0  0  0  0  0  0  0  0  0  0  0
  -27.1300  -28.8570   20.0810 C   0  0  0  0  0  3  0  0  0  0  0  0
  -25.9600  -27.1150   18.8440 C   0  0  0  0  0  3  0  0  0  0  0  0
  -24.7470  -27.8160   18.9910 C   0  0  0  0  0  3  0  0  0  0  0  0
  -23.4760  -29.8580   19.8880 C   0  0  0  0  0  2  0  0  0  0  0  0
  -24.6510  -31.0330   21.8090 N   0  0  0  0  0  0  0  0  0  0  0  0
  -23.6310  -31.9590   23.6090 O   0  0  0  0  0  0  0  0  0  0  0  0
  -22.8090  -29.3370   22.2570 C   0  0  0  0  0  0  0  0  0  0  0  0
  -21.4900  -29.0980   22.1800 N   0  0  0  0  0  0  0  0  0  0  0  0
  -23.5600  -28.7010   23.0000 O   0  0  0  0  0  0  0  0  0  0  0  0
  -20.9400  -29.6700   21.5540 H   0  0  0  0  0  0  0  0  0  0  0  0
  -18.2180  -27.6560   22.6840 C   0  0  0  0  0  0  0  0  0  0  0  0
  -20.7550  -28.0850   22.9320 C   0  0  0  0  0  3  0  0  0  0  0  0
  -20.9490  -26.6800   22.3140 C   0  0  0  0  0  2  0  0  0  0  0  0
  -19.8580  -26.3120   21.3030 C   0  0  0  0  0  2  0  0  0  0  0  0
  -18.4780  -26.3420   21.9670 C   0  0  0  0  0  2  0  0  0  0  0  0
  -19.2860  -28.4830   23.1230 C   0  0  0  0  0  0  0  0  0  0  0  0
  -18.9890  -29.7110   23.7500 C   0  0  0  0  0  3  0  0  0  0  0  0
  -17.6550  -30.1170   23.9440 C   0  0  0  0  0  3  0  0  0  0  0  0
  -16.6010  -29.2860   23.5230 C   0  0  0  0  0  3  0  0  0  0  0  0
  -16.8830  -28.0600   22.8970 C   0  0  0  0  0  3  0  0  0  0  0  0
  -25.9910  -32.3630   23.5310 C   0  0  0  0  0  3  0  0  0  0  0  0
  -25.6840  -33.7190   24.0020 N   0  0  0  0  0  0  0  0  0  0  0  0
  -25.9540  -34.8390   23.3190 C   0  0  0  0  0  0  0  0  0  0  0  0
  -26.5640  -34.8390   22.2460 O   0  0  0  0  0  0  0  0  0  0  0  0
  -25.1380  -33.7910   24.8490 H   0  0  0  0  0  0  0  0  0  0  0  0
  -24.1810  -36.6190   23.2150 C   0  0  0  0  0  1  0  0  0  0  0  0
  -25.4720  -36.1710   23.9220 C   0  0  0  0  0  3  0  0  0  0  0  0
  -27.6350  -37.0240   24.7100 C   0  0  0  0  0  1  0  0  0  0  0  0
  -26.4800  -37.2510   23.8460 N   0  0  0  0  0  0  0  0  0  0  0  0
  -26.0680  -38.1450   24.0960 H   0  0  0  0  0  0  0  0  0  0  0  0
  -26.6330  -31.5000   24.6870 C   0  0  1  0  0  0  0  0  0  0  0  0
  -25.6420  -31.1370   25.8170 C   0  0  0  0  0  1  0  0  0  0  0  0
  -27.2130  -30.1820   24.1240 C   0  0  0  0  0  1  0  0  0  0  0  0
  -27.8160  -32.2690   25.3230 C   0  0  0  0  0  1  0  0  0  0  0  0
  2  1  1  0
  3  2  1  0
  3  4  1  0
  5  8  1  0
  6  5  1  0
  7  9  1  0
  8 21  1  0
  9  8  1  0
  9  3  1  0
 10  6  1  0
 10  7  1  0
 11 10  1  0
 12 10  1  0
 14 19  1  0
 15 16  1  0
 15 14  1  0
 17 16  1  0
 17 26  1  0
 17 18  1  0
 19 13  1  0
 19 18  1  0
 20 13  2  0
 21 22  1  0
 21 13  1  0
 23 24  2  0
 24 43  1  0
 25 24  1  0
 25 28  1  0
 26 23  1  0
 26 27  1  0
 27 25  2  0
 28 29  1  0
 29 30  2  0
 31 34  1  0
 31 30  1  0
 32 31  2  0
 33 32  1  0
 33 28  2  0
 34 35  1  0
 35 36  1  0
 36 37  2  0
 38 37  1  0
 38 42  1  0
 39 38  2  0
 40 35  2  0
 40 39  1  0
 41 40  1  0
 43 44  1  0
 44 47  1  0
 44 46  1  0
 45 43  2  0
 48 49  1  0
 48 23  1  0
 50 48  1  0
 51  1  1  0
 51 53  1  0
 53 52  1  0
 53 54  1  6
 55 53  1  0
 56 55  1  0
 57 56  1  0
 58 60  1  0
 58 57  1  0
 59 70  2  0
 60 65  1  0
 61 69  1  0
 61 71  1  0
 62 68  1  0
 62 64  1  0
 63 69  1  0
 64 63  1  0
 65 64  2  0
 66 67  1  0
 66 60  2  0
 67 62  2  0
 68 61  1  0
 69 59  1  0
 71 73  2  0
 72 71  1  0
 74 72  1  0
 75 84  2  0
 75 80  1  0
 76 72  1  0
 76 80  1  0
 77 76  1  0
 78 79  1  0
 78 77  1  0
 79 75  1  0
 80 81  2  0
 81 82  1  0
 83 82  2  0
 84 83  1  0
 85 59  1  0
 85 86  1  0
 85 95  1  0
 86 89  1  0
 87 91  1  0
 87 86  1  0
 88 87  2  0
 91 90  1  0
 93 91  1  0
 93 94  1  0
 93 92  1  0
 95 98  1  1
 95 96  1  0
 97 95  1  0
M  ISO  4  13 100  21 100  57 101  58 101
M  END
>  <TORSDO>  (90) 
F 24

>  <SCORE>  (90) 
-11.068

>  <name>  (90) 
92

>  <ligand_id>  (90) 
92

>  <original_smiles>  (90) 
[H]c1c([H])c([H])c2c(c1[H])C([H])([H])C([H])([H])C([H])([H])C2([H])N([H])C(=O)C1([H])N(C(=O)C([H])(N([H])C(=O)C([H])(N([H])C([H])([H])[H])C([H])([H])[H])C(C([H])([H])[H])(C([H])([H])[H])C([H])([H])[H])C([H])([H])c2c([H])c(OC([H])([H])C([H])([H])C([H])([H])[N+]([H])(C([H])([H])[H])C([H])([H])C([H])([H])C([H])([H])N([H])C3([H])C([H])(N([H])C(=O)N4C([H])([H])C([H])([H])C([H])([H])C([H])(n5nc(-c6c([H])c([H])c(Oc7c([H])c([H])c(F)c([H])c7F)c([H])c6[H])c(C(=O)N([H])[H])c5N([H])[H])C4([H])[H])C([H])([H])C([H])([H])[N+]([H])([H])C3([H])[H])c([H])c([H])c2C1([H])[H]

>  <smiles>  (90) 
[H]c1c([H])c([H])c2c(c1[H])C([H])([H])C([H])([H])C([H])([H])C2([H])N([H])C(=O)C1([H])N(C(=O)C([H])(N([H])C(=O)C([H])(N([H])C([H])([H])[H])C([H])([H])[H])C(C([H])([H])[H])(C([H])([H])[H])C([H])([H])[H])C([H])([H])c2c([H])c(OC([H])([H])C([H])([H])C([H])([H])[N+]([H])(C([H])([H])[H])C([H])([H])C([H])([H])C([H])([H])N([H])C3([H])C([H])(N([H])C(=O)N4C([H])([H])C([H])([H])C([H])([H])C([H])(n5nc(-c6c([H])c([H])c(Oc7c([H])c([H])c(F)c([H])c7F)c([H])c6[H])c(C(=O)N([H])[H])c5N([H])[H])C4([H])[H])C([H])([H])C([H])([H])[N+]([H])([H])C3([H])[H])c([H])c([H])c2C1([H])[H]

$$$$
93:0:0
     RDKit          3D

 96 96  0  0  1  0  0  0  0  0999 V2000
  -19.3550  -29.2410   21.4590 C   0  0  0  0  0  2  0  0  0  0  0  0
  -17.7180  -26.6230   26.5090 C   0  0  0  0  0 15  0  0  0  0  0  0
  -17.0360  -28.3840   25.8120 C   0  0  0  0  0 15  0  0  0  0  0  0
  -18.9660  -25.3460   25.5990 C   0  0  0  0  0  1  0  0  0  0  0  0
  -17.5440  -29.3080   24.1150 C   0  0  0  0  0  1  0  0  0  0  0  0
  -19.9460  -25.6030   23.9100 C   0  0  0  0  0  1  0  0  0  0  0  0
  -18.6210  -28.5590   22.8870 N   0  0  0  0  0  0  0  0  0  0  0  0
  -17.8800  -28.0830   22.3970 H   0  0  0  0  0  0  0  0  0  0  0  0
  -21.8980  -23.1670   23.0760 C   0  0  0  0  0  1  0  0  0  0  0  0
  -21.0330  -22.5930   22.2380 F   0  0  0  0  0  0  0  0  0  0  0  0
  -24.2350  -21.0840   22.4440 C   0  0  0  0  0 15  0  0  0  0  0  0
  -27.4270  -17.4260   21.2760 C   0  0  0  0  0  2  0  0  0  0  0  0
  -29.3270  -14.9500   19.9730 C   0  0  0  0  0  2  0  0  0  0  0  0
  -29.3090  -13.6570   18.8780 C   0  0  0  0  0  2  0  0  0  0  0  0
  -28.2550  -12.5950   19.1660 C   0  0  0  0  0  2  0  0  0  0  0  0
  -27.3120  -13.4530   19.9790 C   0  0  0  0  0  3  0  0  0  0  0  0
  -27.8120  -14.2900   21.2270 C   0  0  0  0  0  2  0  0  0  0  0  0
  -27.9830  -15.7720   20.7890 N   0  0  0  0  0  0  0  0  0  0  0  0
  -28.7770  -17.4550   21.1040 O   0  0  0  0  0  1  0  0  0  0  0  0
  -25.8100  -18.8980   21.7690 N   0  0  0  0  0  1  0  0  0  0  0  0
  -25.0620  -18.2240   21.6410 H   0  0  0  0  0  0  0  0  0  0  0  0
  -25.0240  -13.8070   20.5340 C   0  0  0  0  0  0  0  0  0  0  0  0
  -24.0320  -13.0000   20.9300 C   0  0  0  0  0  0  0  0  0  0  0  0
  -24.5560  -11.6680   20.8890 C   0  0  0  0  0  0  0  0  0  0  0  0
  -26.0720  -12.9570   20.3140 N   0  0  0  0  0  0  0  0  0  0  0  0
  -25.8430  -11.6590   20.5760 N   0  0  0  0  0  0  0  0  0  0  0  0
  -23.8670  -10.4010   21.0520 C   0  0  0  0  0  0  0  0  0  0  0  0
  -24.3420   -9.4010   21.9240 C   0  0  0  0  0  3  0  0  0  0  0  0
  -23.6180   -8.2020   22.0760 C   0  0  0  0  0  3  0  0  0  0  0  0
  -22.4150   -8.0060   21.3540 C   0  0  0  0  0  0  0  0  0  0  0  0
  -21.9720   -8.9960   20.4610 C   0  0  0  0  0  3  0  0  0  0  0  0
  -22.6960  -10.1850   20.3060 C   0  0  0  0  0  3  0  0  0  0  0  0
  -21.6520   -6.8700   21.4250 O   0  0  0  0  0  0  0  0  0  0  0  0
  -21.6780   -6.0630   22.5320 C   0  0  0  0  0  0  0  0  0  0  0  0
  -21.3950   -6.5570   23.8230 C   0  0  0  0  0  3  0  0  0  0  0  0
  -21.3650   -5.6750   24.9210 C   0  0  0  0  0  3  0  0  0  0  0  0
  -21.6050   -4.3010   24.7280 C   0  0  0  0  0  0  0  0  0  0  0  0
  -21.8830   -3.8090   23.4400 C   0  0  0  0  0  3  0  0  0  0  0  0
  -21.9170   -4.6880   22.3440 C   0  0  0  0  0  0  0  0  0  0  0  0
  -22.1650   -4.2080   21.1020 F   0  0  0  0  0  0  0  0  0  0  0  0
  -21.5640   -3.4500   25.7790 F   0  0  0  0  0  0  0  0  0  0  0  0
  -22.6540  -13.4730   21.2130 C   0  0  0  0  0  0  0  0  0  0  0  0
  -21.9440  -12.7750   22.0850 N   0  0  0  0  0  0  0  0  0  0  0  0
  -22.2300  -14.5110   20.7060 O   0  0  0  0  0  0  0  0  0  0  0  0
  -22.3200  -11.9460   22.5200 H   0  0  0  0  0  0  0  0  0  0  0  0
  -21.0120  -13.0800   22.3260 H   0  0  0  0  0  0  0  0  0  0  0  0
  -25.1170  -15.1910   20.3410 N   0  0  0  0  0  0  0  0  0  0  0  0
  -24.2650  -15.7400   20.2820 H   0  0  0  0  0  0  0  0  0  0  0  0
  -25.8780  -15.5650   19.7910 H   0  0  0  0  0  0  0  0  0  0  0  0
  -20.5630  -28.5820   20.1030 C   0  0  0  0  0  2  0  0  0  0  0  0
  -23.4200  -27.1810   20.1450 C   0  0  0  0  0  0  0  0  0  0  0  0
  -22.0460  -27.6980   19.7330 N   0  0  0  0  0  0  0  0  0  0  0  0
  -23.9530  -27.4530   21.2000 O   0  0  0  0  0  0  0  0  0  0  0  0
  -21.8920  -27.3160   18.8060 H   0  0  0  0  0  0  0  0  0  0  0  0
  -24.6330  -26.1330   19.6380 C   0  0  0  0  0  2  0  0  0  0  0  0
  -26.1890  -26.3180   20.1790 O   0  0  0  0  0  0  0  0  0  0  0  0
  -24.6820  -31.9710   23.2640 C   0  0  0  0  0  0  0  0  0  0  0  0
  -26.8790  -27.4630   19.8770 C   0  0  0  0  0  3  0  0  0  0  0  0
  -23.5260  -30.6710   21.5840 C   0  0  0  0  0  3  0  0  0  0  0  0
  -25.0530  -29.4960   19.8040 C   0  0  0  0  0  0  0  0  0  0  0  0
  -26.0680  -30.8460   21.5470 C   0  0  0  0  0  2  0  0  0  0  0  0
  -26.0730  -29.5840   20.7290 C   0  0  0  0  0  0  0  0  0  0  0  0
  -27.0130  -28.5250   20.8180 C   0  0  0  0  0  3  0  0  0  0  0  0
  -26.3340  -27.7670   18.6610 C   0  0  0  0  0  2  0  0  0  0  0  0
  -25.2520  -28.6640   18.6900 C   0  0  0  0  0  3  0  0  0  0  0  0
  -23.7880  -30.2940   20.0800 C   0  0  0  0  0  2  0  0  0  0  0  0
  -24.7690  -31.2120   22.1510 N   0  0  0  0  0  0  0  0  0  0  0  0
  -23.5900  -32.2560   23.7810 O   0  0  0  0  0  0  0  0  0  0  0  0
  -23.0430  -29.5710   22.5580 C   0  0  0  0  0  0  0  0  0  0  0  0
  -21.9800  -28.9180   22.2130 N   0  0  0  0  0  0  0  0  0  0  0  0
  -23.6900  -29.1720   23.5270 O   0  0  0  0  0  0  0  0  0  0  0  0
  -21.6310  -29.1410   21.2970 H   0  0  0  0  0  0  0  0  0  0  0  0
  -19.1740  -26.6140   22.0040 C   0  0  0  0  0  0  0  0  0  0  0  0
  -21.7850  -27.5120   22.6090 C   0  0  0  0  0  3  0  0  0  0  0  0
  -21.6290  -26.1220   21.8940 C   0  0  0  0  0  2  0  0  0  0  0  0
  -20.5020  -25.6360   20.8450 C   0  0  0  0  0  2  0  0  0  0  0  0
  -19.0870  -26.0270   20.8200 C   0  0  0  0  0  2  0  0  0  0  0  0
  -20.5410  -27.4860   22.8140 C   0  0  0  0  0  0  0  0  0  0  0  0
  -20.4340  -28.1150   24.2420 C   0  0  0  0  0  3  0  0  0  0  0  0
  -19.1900  -27.7160   24.8990 C   0  0  0  0  0  3  0  0  0  0  0  0
  -17.8050  -26.8540   24.0880 C   0  0  0  0  0  3  0  0  0  0  0  0
  -17.8060  -26.3950   22.7000 C   0  0  0  0  0  3  0  0  0  0  0  0
  -25.9710  -32.5250   23.9060 C   0  0  0  0  0  3  0  0  0  0  0  0
  -25.6600  -33.9010   24.2920 N   0  0  0  0  0  0  0  0  0  0  0  0
  -25.9160  -34.9670   23.5260 C   0  0  0  0  0  0  0  0  0  0  0  0
  -26.5370  -34.8950   22.4610 O   0  0  0  0  0  0  0  0  0  0  0  0
  -25.1180  -34.0310   25.1340 H   0  0  0  0  0  0  0  0  0  0  0  0
  -24.1560  -36.7390   23.2550 C   0  0  0  0  0  1  0  0  0  0  0  0
  -25.4150  -36.3280   24.0330 C   0  0  0  0  0  3  0  0  0  0  0  0
  -27.5620  -37.1930   24.8450 C   0  0  0  0  0  1  0  0  0  0  0  0
  -26.4340  -37.3950   23.9400 N   0  0  0  0  0  0  0  0  0  0  0  0
  -26.0230  -38.3010   24.1460 H   0  0  0  0  0  0  0  0  0  0  0  0
  -26.4670  -31.6740   25.1340 C   0  0  1  0  0  0  0  0  0  0  0  0
  -25.3640  -31.3940   26.1800 C   0  0  0  0  0  1  0  0  0  0  0  0
  -27.0460  -30.3030   24.7050 C   0  0  0  0  0  1  0  0  0  0  0  0
  -27.6200  -32.4350   25.8220 C   0  0  0  0  0  1  0  0  0  0  0  0
  1  7  1  0
  6  4  1  0
  7  5  1  0
  8  7  1  0
 10  9  1  0
 13 18  1  0
 14 15  1  0
 14 13  1  0
 16 15  1  0
 16 25  1  0
 16 17  1  0
 18 17  1  0
 18 12  1  0
 19 12  1  0
 21 20  1  0
 22 23  2  0
 23 42  1  0
 24 23  1  0
 24 27  1  0
 25 22  1  0
 25 26  1  0
 26 24  2  0
 27 28  1  0
 28 29  2  0
 30 33  1  0
 30 29  1  0
 31 30  2  0
 32 31  1  0
 32 27  2  0
 33 34  1  0
 34 35  1  0
 35 36  2  0
 37 36  1  0
 37 41  1  0
 38 37  2  0
 39 34  2  0
 39 38  1  0
 40 39  1  0
 42 43  1  0
 43 46  1  0
 43 45  1  0
 44 42  2  0
 47 22  1  0
 48 47  1  0
 49 47  1  0
 50  1  1  0
 51 53  2  0
 52 50  1  0
 52 51  1  0
 54 52  1  0
 55 51  1  0
 55 56  1  0
 57 68  2  0
 58 56  1  0
 58 63  1  0
 59 67  1  0
 59 69  1  0
 60 66  1  0
 60 62  1  0
 61 67  1  0
 62 63  2  0
 62 61  1  0
 64 65  1  0
 64 58  1  0
 65 60  2  0
 66 59  1  0
 67 57  1  0
 69 71  2  0
 70 69  1  0
 72 70  1  0
 73 82  2  0
 73 78  1  0
 74 70  1  0
 74 78  1  0
 75 74  1  0
 76 75  1  0
 77 76  1  0
 77 73  1  0
 78 79  2  0
 79 80  1  0
 81 80  2  0
 82 81  1  0
 83 57  1  0
 83 84  1  0
 83 93  1  0
 84 87  1  0
 85 89  1  0
 85 84  1  0
 86 85  2  0
 89 88  1  0
 91 89  1  0
 91 92  1  0
 91 90  1  0
 93 96  1  1
 93 94  1  0
 95 93  1  0
M  ISO  4  12 100  20 100  55 101  56 101
M  END
>  <TORSDO>  (91) 
F 22

>  <SCORE>  (91) 
36.716

>  <name>  (91) 
93

>  <ligand_id>  (91) 
93

>  <original_smiles>  (91) 
[H]c1c([H])c([H])c2c(c1[H])C([H])([H])C([H])([H])C([H])([H])C2([H])N([H])C(=O)C1([H])N(C(=O)C([H])(N([H])C(=O)C([H])(N([H])C([H])([H])[H])C([H])([H])[H])C(C([H])([H])[H])(C([H])([H])[H])C([H])([H])[H])C([H])([H])c2c([H])c(OC([H])([H])C(=O)N([H])C([H])([H])C([H])([H])[N+]3([H])C([H])([H])C([H])([H])C([H])([H])C([H])([H])C3([H])C([H])(F)C([H])([H])N([H])C(=O)N3C([H])([H])C([H])([H])C([H])([H])C([H])(n4nc(-c5c([H])c([H])c(Oc6c([H])c([H])c(F)c([H])c6F)c([H])c5[H])c(C(=O)N([H])[H])c4N([H])[H])C3([H])[H])c([H])c([H])c2C1([H])[H]

>  <smiles>  (91) 
[H]c1c([H])c([H])c2c(c1[H])C([H])([H])C([H])([H])C([H])([H])C2([H])N([H])C(=O)C1([H])N(C(=O)C([H])(N([H])C(=O)C([H])(N([H])C([H])([H])[H])C([H])([H])[H])C(C([H])([H])[H])(C([H])([H])[H])C([H])([H])[H])C([H])([H])c2c([H])c(OC([H])([H])C(=O)N([H])C([H])([H])C([H])([H])[N+]3([H])C([H])([H])C([H])([H])C([H])([H])C([H])([H])C3([H])C([H])(F)C([H])([H])N([H])C(=O)N3C([H])([H])C([H])([H])C([H])([H])C([H])(n4nc(-c5c([H])c([H])c(Oc6c([H])c([H])c(F)c([H])c6F)c([H])c5[H])c(C(=O)N([H])[H])c4N([H])[H])C3([H])[H])c([H])c([H])c2C1([H])[H]

$$$$
94:0:0
     RDKit          3D

 97106  0  0  1  0  0  0  0  0999 V2000
  -29.5440  -22.0610   21.1470 N   0  0  0  0  0  4  0  0  0  0  0  0
  -28.9070  -22.3450   21.8800 H   0  0  0  0  0  0  0  0  0  0  0  0
  -29.2900  -21.1370   20.8400 H   0  0  0  0  0  0  0  0  0  0  0  0
  -31.0020  -21.6970   23.1220 C   0  0  0  0  0  2  0  0  0  0  0  0
  -31.6110  -20.7830   22.0890 C   0  0  0  0  0  3  0  0  0  0  0  0
  -30.9390  -22.0850   21.6540 C   0  0  0  0  0  3  0  0  0  0  0  0
  -30.9470  -18.4850   22.9340 C   0  0  0  0  0  3  0  0  0  0  0  0
  -30.9880  -18.8670   20.5370 C   0  0  0  0  0  3  0  0  0  0  0  0
  -30.6910  -17.1120   22.7200 C   0  0  0  0  0  3  0  0  0  0  0  0
  -30.7310  -17.4960   20.3210 C   0  0  0  0  0  3  0  0  0  0  0  0
  -31.1240  -19.3730   21.8470 C   0  0  0  0  0  0  0  0  0  0  0  0
  -30.6150  -16.5980   21.4090 C   0  0  0  0  0  0  0  0  0  0  0  0
  -30.7730  -14.4350   20.2050 C   0  0  0  0  0  0  0  0  0  0  0  0
  -30.3420  -12.3780   18.9110 C   0  0  0  0  0  2  0  0  0  0  0  0
  -29.3400  -12.6610   17.7730 C   0  0  0  0  0  2  0  0  0  0  0  0
  -27.8930  -12.5070   18.2750 C   0  0  0  0  0  2  0  0  0  0  0  0
  -27.6380  -13.2940   19.5890 C   0  0  0  0  0  3  0  0  0  0  0  0
  -28.7390  -13.0030   20.6340 C   0  0  0  0  0  2  0  0  0  0  0  0
  -30.0540  -13.2940   20.0270 N   0  0  0  0  0  0  0  0  0  0  0  0
  -31.7500  -14.7280   19.5090 O   0  0  0  0  0  0  0  0  0  0  0  0
  -30.3860  -15.2020   21.2370 N   0  0  0  0  0  0  0  0  0  0  0  0
  -29.8030  -14.7430   21.9220 H   0  0  0  0  0  0  0  0  0  0  0  0
  -25.2700  -13.8900   20.4130 C   0  0  0  0  0  0  0  0  0  0  0  0
  -24.2190  -13.1100   20.8190 C   0  0  0  0  0  0  0  0  0  0  0  0
  -24.6800  -11.7600   20.7450 C   0  0  0  0  0  0  0  0  0  0  0  0
  -26.3050  -13.0130   20.1220 N   0  0  0  0  0  0  0  0  0  0  0  0
  -25.9540  -11.7270   20.3740 N   0  0  0  0  0  0  0  0  0  0  0  0
  -23.9650  -10.4930   20.9470 C   0  0  0  0  0  0  0  0  0  0  0  0
  -24.4210   -9.5260   21.8700 C   0  0  0  0  0  3  0  0  0  0  0  0
  -23.7050   -8.3240   22.0610 C   0  0  0  0  0  3  0  0  0  0  0  0
  -22.5190   -8.0820   21.3270 C   0  0  0  0  0  0  0  0  0  0  0  0
  -22.0830   -9.0370   20.3920 C   0  0  0  0  0  3  0  0  0  0  0  0
  -22.7990  -10.2300   20.2010 C   0  0  0  0  0  3  0  0  0  0  0  0
  -21.7740   -6.9320   21.4280 O   0  0  0  0  0  0  0  0  0  0  0  0
  -21.7180   -6.2090   22.5930 C   0  0  0  0  0  0  0  0  0  0  0  0
  -21.2790   -6.7840   23.8070 C   0  0  0  0  0  3  0  0  0  0  0  0
  -21.1710   -5.9880   24.9630 C   0  0  0  0  0  3  0  0  0  0  0  0
  -21.4890   -4.6190   24.9080 C   0  0  0  0  0  0  0  0  0  0  0  0
  -21.9220   -4.0440   23.7010 C   0  0  0  0  0  3  0  0  0  0  0  0
  -22.0310   -4.8360   22.5450 C   0  0  0  0  0  0  0  0  0  0  0  0
  -22.4280   -4.2740   21.3770 F   0  0  0  0  0  0  0  0  0  0  0  0
  -21.3790   -3.8500   26.0180 F   0  0  0  0  0  0  0  0  0  0  0  0
  -22.8360  -13.5830   21.1660 C   0  0  0  0  0  0  0  0  0  0  0  0
  -22.1540  -12.8710   22.0560 N   0  0  0  0  0  0  0  0  0  0  0  0
  -22.3710  -14.6150   20.6870 O   0  0  0  0  0  0  0  0  0  0  0  0
  -22.5420  -12.0350   22.4680 H   0  0  0  0  0  0  0  0  0  0  0  0
  -21.2280  -13.1660   22.3320 H   0  0  0  0  0  0  0  0  0  0  0  0
  -25.4270  -15.2640   20.2510 N   0  0  0  0  0  0  0  0  0  0  0  0
  -24.6740  -15.9220   20.4130 H   0  0  0  0  0  0  0  0  0  0  0  0
  -26.2730  -15.7060   19.9130 H   0  0  0  0  0  0  0  0  0  0  0  0
  -29.2560  -23.0310   20.0650 C   0  0  0  0  0  2  0  0  0  0  0  0
  -28.8980  -24.4180   20.6530 C   0  0  0  0  0  3  0  0  0  0  0  0
  -27.7290  -24.2660   21.5100 N   0  0  0  0  0  0  0  0  0  0  0  0
  -26.9030  -24.1450   20.9310 H   0  0  0  0  0  0  0  0  0  0  0  0
  -27.5690  -25.1700   21.9430 H   0  0  0  0  0  0  0  0  0  0  0  0
  -28.5980  -25.4900   19.5710 C   0  0  0  0  0  2  0  0  0  0  0  0
  -28.4030  -26.7860   20.1630 O   0  0  0  0  0  0  0  0  0  0  0  0
  -24.5530  -31.8970   23.2350 C   0  0  0  0  0  0  0  0  0  0  0  0
  -27.1870  -27.4470   20.1440 C   0  0  0  0  0  0  0  0  0  0  0  0
  -23.3360  -30.4990   21.5990 C   0  0  0  0  0  3  0  0  0  0  0  0
  -24.7810  -28.9550   20.1720 C   0  0  0  0  0  0  0  0  0  0  0  0
  -25.8600  -30.8540   21.3880 C   0  0  0  0  0  2  0  0  0  0  0  0
  -25.9410  -29.4810   20.7490 C   0  0  0  0  0  0  0  0  0  0  0  0
  -27.1390  -28.7340   20.7300 C   0  0  0  0  0  3  0  0  0  0  0  0
  -25.9960  -26.9250   19.5840 C   0  0  0  0  0  3  0  0  0  0  0  0
  -24.8020  -27.6750   19.5910 C   0  0  0  0  0  3  0  0  0  0  0  0
  -23.5380  -29.8160   20.2200 C   0  0  0  0  0  2  0  0  0  0  0  0
  -24.6010  -31.0980   22.1320 N   0  0  0  0  0  0  0  0  0  0  0  0
  -23.4730  -32.1710   23.7790 O   0  0  0  0  0  0  0  0  0  0  0  0
  -22.6860  -29.4780   22.5620 C   0  0  0  0  0  0  0  0  0  0  0  0
  -21.3650  -29.2830   22.4250 N   0  0  0  0  0  0  0  0  0  0  0  0
  -23.3700  -28.8640   23.3840 O   0  0  0  0  0  0  0  0  0  0  0  0
  -20.8750  -29.8290   21.7310 H   0  0  0  0  0  0  0  0  0  0  0  0
  -18.0010  -28.0550   22.8960 C   0  0  0  0  0  0  0  0  0  0  0  0
  -20.5510  -28.3460   23.1990 C   0  0  0  0  0  3  0  0  0  0  0  0
  -20.6790  -26.9090   22.6410 C   0  0  0  0  0  2  0  0  0  0  0  0
  -19.5950  -26.5620   21.6170 C   0  0  0  0  0  2  0  0  0  0  0  0
  -18.2040  -26.6990   22.2400 C   0  0  0  0  0  2  0  0  0  0  0  0
  -19.1040  -28.8350   23.3310 C   0  0  0  0  0  0  0  0  0  0  0  0
  -18.8610  -30.1040   23.9010 C   0  0  0  0  0  3  0  0  0  0  0  0
  -17.5480  -30.5910   24.0420 C   0  0  0  0  0  3  0  0  0  0  0  0
  -16.4600  -29.8070   23.6220 C   0  0  0  0  0  3  0  0  0  0  0  0
  -16.6870  -28.5410   23.0550 C   0  0  0  0  0  3  0  0  0  0  0  0
  -25.8420  -32.5270   23.8490 C   0  0  0  0  0  3  0  0  0  0  0  0
  -25.5360  -33.9250   24.1810 N   0  0  0  0  0  0  0  0  0  0  0  0
  -25.8670  -34.9770   23.4210 C   0  0  0  0  0  0  0  0  0  0  0  0
  -26.5330  -34.8720   22.3880 O   0  0  0  0  0  0  0  0  0  0  0  0
  -24.9490  -34.0770   24.9880 H   0  0  0  0  0  0  0  0  0  0  0  0
  -24.1400  -36.7710   23.0690 C   0  0  0  0  0  1  0  0  0  0  0  0
  -25.3810  -36.3650   23.8800 C   0  0  0  0  0  3  0  0  0  0  0  0
  -27.5190  -37.2460   24.7090 C   0  0  0  0  0  1  0  0  0  0  0  0
  -26.4160  -37.4160   23.7670 N   0  0  0  0  0  0  0  0  0  0  0  0
  -26.0110  -38.3370   23.9160 H   0  0  0  0  0  0  0  0  0  0  0  0
  -26.3680  -31.7530   25.1200 C   0  0  1  0  0  0  0  0  0  0  0  0
  -25.2830  -31.5130   26.1940 C   0  0  0  0  0  1  0  0  0  0  0  0
  -26.9500  -30.3770   24.7200 C   0  0  0  0  0  1  0  0  0  0  0  0
  -27.5230  -32.5460   25.7750 C   0  0  0  0  0  1  0  0  0  0  0  0
  1  2  1  0
  3  1  1  0
  5 11  1  0
  5  4  1  0
  6  1  1  0
  6  5  1  0
  6  4  1  0
  8 11  1  0
  9  7  1  0
 10  8  2  0
 10 12  1  0
 11  7  2  0
 12  9  2  0
 13 21  1  0
 14 19  1  0
 15 16  1  0
 15 14  1  0
 17 16  1  0
 17 26  1  0
 17 18  1  0
 19 13  1  0
 19 18  1  0
 20 13  2  0
 21 12  1  0
 21 22  1  0
 23 24  2  0
 24 43  1  0
 25 24  1  0
 25 28  1  0
 26 27  1  0
 26 23  1  0
 27 25  2  0
 28 29  1  0
 29 30  2  0
 31 34  1  0
 31 30  1  0
 32 31  2  0
 33 32  1  0
 33 28  2  0
 34 35  1  0
 35 36  1  0
 36 37  2  0
 38 37  1  0
 38 42  1  0
 39 38  2  0
 40 35  2  0
 40 39  1  0
 41 40  1  0
 43 44  1  0
 44 47  1  0
 44 46  1  0
 45 43  2  0
 48 23  1  0
 48 49  1  0
 50 48  1  0
 51 52  1  0
 51  1  1  0
 52 56  1  0
 52 53  1  0
 53 55  1  0
 54 53  1  0
 56 57  1  0
 58 69  2  0
 59 57  1  0
 59 64  1  0
 60 68  1  0
 60 70  1  0
 61 67  1  0
 61 63  1  0
 62 68  1  0
 63 62  1  0
 64 63  2  0
 65 66  1  0
 65 59  2  0
 66 61  2  0
 67 60  1  0
 68 58  1  0
 70 72  2  0
 71 70  1  0
 73 71  1  0
 74 83  2  0
 74 79  1  0
 75 71  1  0
 75 79  1  0
 76 75  1  0
 77 78  1  0
 77 76  1  0
 78 74  1  0
 79 80  2  0
 80 81  1  0
 82 81  2  0
 83 82  1  0
 84 58  1  0
 84 85  1  0
 84 94  1  0
 85 88  1  0
 86 90  1  0
 86 85  1  0
 87 86  2  0
 90 89  1  0
 92 90  1  0
 92 93  1  0
 92 91  1  0
 94 97  1  1
 94 95  1  0
 96 94  1  0
M  ISO  4  13 100  21 100  56 101  57 101
M  END
>  <TORSDO>  (92) 
F 22

>  <SCORE>  (92) 
-13.328

>  <name>  (92) 
94

>  <ligand_id>  (92) 
94

>  <original_smiles>  (92) 
[H]c1c([H])c([H])c2c(c1[H])C([H])([H])C([H])([H])C([H])([H])C2([H])N([H])C(=O)C1([H])N(C(=O)C([H])(N([H])C(=O)C([H])(N([H])C([H])([H])[H])C([H])([H])[H])C(C([H])([H])[H])(C([H])([H])[H])C([H])([H])[H])C([H])([H])c2c([H])c(OC([H])([H])C([H])(N([H])[H])C([H])([H])[N+]([H])([H])C3([H])C([H])([H])C3([H])c3c([H])c([H])c(N([H])C(=O)N4C([H])([H])C([H])([H])C([H])([H])C([H])(n5nc(-c6c([H])c([H])c(Oc7c([H])c([H])c(F)c([H])c7F)c([H])c6[H])c(C(=O)N([H])[H])c5N([H])[H])C4([H])[H])c([H])c3[H])c([H])c([H])c2C1([H])[H]

>  <smiles>  (92) 
[H]c1c([H])c([H])c2c(c1[H])C([H])([H])C([H])([H])C([H])([H])C2([H])N([H])C(=O)C1([H])N(C(=O)C([H])(N([H])C(=O)C([H])(N([H])C([H])([H])[H])C([H])([H])[H])C(C([H])([H])[H])(C([H])([H])[H])C([H])([H])[H])C([H])([H])c2c([H])c(OC([H])([H])C([H])(N([H])[H])C([H])([H])[N+]([H])([H])C3([H])C([H])([H])C3([H])c3c([H])c([H])c(N([H])C(=O)N4C([H])([H])C([H])([H])C([H])([H])C([H])(n5nc(-c6c([H])c([H])c(Oc7c([H])c([H])c(F)c([H])c7F)c([H])c6[H])c(C(=O)N([H])[H])c5N([H])[H])C4([H])[H])c([H])c3[H])c([H])c([H])c2C1([H])[H]

$$$$
95:0:0
     RDKit          3D

 96104  0  0  1  0  0  0  0  0999 V2000
  -27.8710  -22.0120   21.6870 C   0  0  0  0  0  2  0  0  0  0  0  0
  -29.4750  -19.6590   19.1410 C   0  0  0  0  0  2  0  0  0  0  0  0
  -30.6090  -19.3640   21.3880 C   0  0  0  0  0  2  0  0  0  0  0  0
  -28.3180  -20.3690   19.8700 C   0  0  0  0  0  2  0  0  0  0  0  0
  -29.4320  -20.1170   22.0300 C   0  0  0  0  0  2  0  0  0  0  0  0
  -30.2360  -18.6760   20.0550 C   0  0  0  0  0  3  0  0  0  0  0  0
  -28.8380  -21.0760   21.0660 N   0  0  2  0  0  4  0  0  0  0  0  0
  -29.5780  -21.6830   20.7440 H   0  0  0  0  0  0  0  0  0  0  0  0
  -31.4970  -18.1550   19.3360 C   0  0  0  0  0  2  0  0  0  0  0  0
  -32.1980  -16.9680   20.0260 C   0  0  0  0  0  2  0  0  0  0  0  0
  -31.7300  -14.7180   19.1070 C   0  0  0  0  0  0  0  0  0  0  0  0
  -31.3370  -12.3490   18.5620 C   0  0  0  0  0  2  0  0  0  0  0  0
  -30.2720  -12.1780   17.4650 C   0  0  0  0  0  2  0  0  0  0  0  0
  -28.8610  -12.1430   18.0770 C   0  0  0  0  0  2  0  0  0  0  0  0
  -28.6090  -13.3210   19.0530 C   0  0  0  0  0  3  0  0  0  0  0  0
  -29.7680  -13.4540   20.0650 C   0  0  0  0  0  2  0  0  0  0  0  0
  -31.0340  -13.5740   19.3160 N   0  0  0  0  0  0  0  0  0  0  0  0
  -32.6440  -14.8150   18.2810 O   0  0  0  0  0  0  0  0  0  0  0  0
  -31.4270  -15.7320   19.9250 N   0  0  0  0  0  0  0  0  0  0  0  0
  -30.6720  -15.5890   20.5800 H   0  0  0  0  0  0  0  0  0  0  0  0
  -26.4460  -14.1620   20.1680 C   0  0  0  0  0  0  0  0  0  0  0  0
  -25.3500  -13.5020   20.6520 C   0  0  0  0  0  0  0  0  0  0  0  0
  -25.6150  -12.1100   20.4670 C   0  0  0  0  0  0  0  0  0  0  0  0
  -27.3170  -13.1810   19.7230 N   0  0  0  0  0  0  0  0  0  0  0  0
  -26.8260  -11.9370   19.9560 N   0  0  0  0  0  0  0  0  0  0  0  0
  -24.7630  -10.9340   20.6940 C   0  0  0  0  0  0  0  0  0  0  0  0
  -25.1180   -9.9330   21.6250 C   0  0  0  0  0  3  0  0  0  0  0  0
  -24.2730   -8.8230   21.8380 C   0  0  0  0  0  3  0  0  0  0  0  0
  -23.0600   -8.7060   21.1200 C   0  0  0  0  0  0  0  0  0  0  0  0
  -22.7230   -9.6940   20.1780 C   0  0  0  0  0  3  0  0  0  0  0  0
  -23.5680  -10.7960   19.9630 C   0  0  0  0  0  3  0  0  0  0  0  0
  -22.1880   -7.6510   21.2440 O   0  0  0  0  0  0  0  0  0  0  0  0
  -21.9640   -7.0410   22.4520 C   0  0  0  0  0  0  0  0  0  0  0  0
  -21.4750   -7.7540   23.5670 C   0  0  0  0  0  3  0  0  0  0  0  0
  -21.1920   -7.0740   24.7690 C   0  0  0  0  0  3  0  0  0  0  0  0
  -21.3900   -5.6830   24.8550 C   0  0  0  0  0  0  0  0  0  0  0  0
  -21.8710   -4.9700   23.7430 C   0  0  0  0  0  3  0  0  0  0  0  0
  -22.1550   -5.6470   22.5440 C   0  0  0  0  0  0  0  0  0  0  0  0
  -22.5990   -4.9530   21.4690 F   0  0  0  0  0  0  0  0  0  0  0  0
  -21.1110   -5.0270   26.0060 F   0  0  0  0  0  0  0  0  0  0  0  0
  -24.0860  -14.1220   21.1740 C   0  0  0  0  0  0  0  0  0  0  0  0
  -23.4210  -13.4620   22.1160 N   0  0  0  0  0  0  0  0  0  0  0  0
  -23.7060  -15.2250   20.7810 O   0  0  0  0  0  0  0  0  0  0  0  0
  -23.7420  -12.5660   22.4530 H   0  0  0  0  0  0  0  0  0  0  0  0
  -22.5750  -13.8580   22.5040 H   0  0  0  0  0  0  0  0  0  0  0  0
  -26.7640  -15.5130   20.0490 N   0  0  0  0  0  0  0  0  0  0  0  0
  -26.1170  -16.2480   20.3130 H   0  0  0  0  0  0  0  0  0  0  0  0
  -27.6130  -15.8630   19.6250 H   0  0  0  0  0  0  0  0  0  0  0  0
  -27.9720  -23.4370   21.0910 C   0  0  0  0  0  3  0  0  0  0  0  0
  -29.0010  -23.5280   20.2430 F   0  0  0  0  0  0  0  0  0  0  0  0
  -28.1250  -24.5440   22.1580 C   0  0  0  0  0  2  0  0  0  0  0  0
  -27.8000  -25.9580   21.6460 C   0  0  0  0  0  3  0  0  0  0  0  0
  -27.5310  -26.7810   22.7700 O   0  0  0  0  0  0  0  0  0  0  0  0
  -27.0340  -27.5310   22.4620 H   0  0  0  0  0  0  0  0  0  0  0  0
  -28.8930  -26.6400   20.7610 C   0  0  0  0  0  2  0  0  0  0  0  0
  -28.4300  -27.0550   19.4690 O   0  0  0  0  0  0  0  0  0  0  0  0
  -24.6330  -31.7980   23.1060 C   0  0  0  0  0  0  0  0  0  0  0  0
  -27.2820  -27.7990   19.5180 C   0  0  0  0  0  0  0  0  0  0  0  0
  -23.3880  -30.4550   21.4400 C   0  0  0  0  0  3  0  0  0  0  0  0
  -24.8210  -29.1260   19.8000 C   0  0  0  0  0  0  0  0  0  0  0  0
  -25.8620  -30.9920   21.0980 C   0  0  0  0  0  2  0  0  0  0  0  0
  -25.9810  -29.6790   20.3580 C   0  0  0  0  0  0  0  0  0  0  0  0
  -27.2180  -29.0190   20.2260 C   0  0  0  0  0  3  0  0  0  0  0  0
  -26.1210  -27.2700   18.9260 C   0  0  0  0  0  3  0  0  0  0  0  0
  -24.8830  -27.9170   19.0830 C   0  0  0  0  0  3  0  0  0  0  0  0
  -23.5350  -29.8940   19.9990 C   0  0  0  0  0  2  0  0  0  0  0  0
  -24.6500  -31.0910   21.9420 N   0  0  0  0  0  0  0  0  0  0  0  0
  -23.5800  -31.9660   23.7370 O   0  0  0  0  0  0  0  0  0  0  0  0
  -22.8610  -29.3290   22.3570 C   0  0  0  0  0  0  0  0  0  0  0  0
  -21.5540  -29.0370   22.2500 N   0  0  0  0  0  0  0  0  0  0  0  0
  -23.6230  -28.7270   23.1160 O   0  0  0  0  0  0  0  0  0  0  0  0
  -21.0010  -29.5870   21.6070 H   0  0  0  0  0  0  0  0  0  0  0  0
  -18.3330  -27.4620   22.6750 C   0  0  0  0  0  0  0  0  0  0  0  0
  -20.8450  -27.9890   22.9810 C   0  0  0  0  0  3  0  0  0  0  0  0
  -21.1100  -26.5990   22.3580 C   0  0  0  0  0  2  0  0  0  0  0  0
  -20.0560  -26.1920   21.3240 C   0  0  0  0  0  2  0  0  0  0  0  0
  -18.6620  -26.1630   21.9590 C   0  0  0  0  0  2  0  0  0  0  0  0
  -19.3590  -28.3280   23.1410 C   0  0  0  0  0  0  0  0  0  0  0  0
  -19.0010  -29.5410   23.7670 C   0  0  0  0  0  3  0  0  0  0  0  0
  -17.6490  -29.8930   23.9360 C   0  0  0  0  0  3  0  0  0  0  0  0
  -16.6380  -29.0240   23.4900 C   0  0  0  0  0  3  0  0  0  0  0  0
  -16.9800  -27.8110   22.8650 C   0  0  0  0  0  3  0  0  0  0  0  0
  -25.9260  -32.4490   23.6910 C   0  0  0  0  0  3  0  0  0  0  0  0
  -25.5900  -33.8210   24.0890 N   0  0  0  0  0  0  0  0  0  0  0  0
  -25.8690  -34.9120   23.3600 C   0  0  0  0  0  0  0  0  0  0  0  0
  -26.5090  -34.8690   22.3070 O   0  0  0  0  0  0  0  0  0  0  0  0
  -25.0190  -33.9260   24.9160 H   0  0  0  0  0  0  0  0  0  0  0  0
  -24.0870  -36.6670   23.1180 C   0  0  0  0  0  1  0  0  0  0  0  0
  -25.3540  -36.2640   23.8860 C   0  0  0  0  0  3  0  0  0  0  0  0
  -27.4840  -37.1710   24.7070 C   0  0  0  0  0  1  0  0  0  0  0  0
  -26.3560  -37.3480   23.7960 N   0  0  0  0  0  0  0  0  0  0  0  0
  -25.9300  -38.2490   23.9960 H   0  0  0  0  0  0  0  0  0  0  0  0
  -26.5360  -31.6420   24.9050 C   0  0  1  0  0  0  0  0  0  0  0  0
  -25.5100  -31.3070   26.0120 C   0  0  0  0  0  1  0  0  0  0  0  0
  -27.1540  -30.3120   24.4140 C   0  0  0  0  0  1  0  0  0  0  0  0
  -27.6870  -32.4540   25.5480 C   0  0  0  0  0  1  0  0  0  0  0  0
  2  4  1  0
  2  6  1  0
  3  5  1  0
  4  7  1  0
  6  9  1  0
  6  3  1  0
  7  1  1  0
  7  5  1  0
  7  8  1  6
  9 10  1  0
 11 17  1  0
 11 19  1  0
 12 17  1  0
 13 14  1  0
 13 12  1  0
 15 14  1  0
 15 24  1  0
 15 16  1  0
 17 16  1  0
 18 11  2  0
 19 10  1  0
 19 20  1  0
 21 22  2  0
 22 41  1  0
 23 22  1  0
 23 26  1  0
 24 25  1  0
 24 21  1  0
 25 23  2  0
 26 27  1  0
 27 28  2  0
 29 32  1  0
 29 28  1  0
 30 29  2  0
 31 30  1  0
 31 26  2  0
 32 33  1  0
 33 38  2  0
 33 34  1  0
 34 35  2  0
 35 36  1  0
 36 40  1  0
 37 36  2  0
 38 37  1  0
 39 38  1  0
 41 42  1  0
 42 44  1  0
 42 45  1  0
 43 41  2  0
 46 21  1  0
 46 47  1  0
 48 46  1  0
 49 50  1  0
 49  1  1  0
 49 51  1  0
 52 55  1  0
 52 51  1  0
 52 53  1  0
 54 53  1  0
 56 58  1  0
 56 55  1  0
 57 68  2  0
 58 63  1  0
 59 67  1  0
 59 69  1  0
 60 66  1  0
 60 62  1  0
 61 67  1  0
 62 61  1  0
 63 62  2  0
 64 65  1  0
 64 58  2  0
 65 60  2  0
 66 59  1  0
 67 57  1  0
 69 71  2  0
 70 69  1  0
 72 70  1  0
 73 82  2  0
 73 78  1  0
 74 70  1  0
 74 78  1  0
 75 74  1  0
 76 77  1  0
 76 75  1  0
 77 73  1  0
 78 79  2  0
 79 80  1  0
 81 80  2  0
 82 81  1  0
 83 57  1  0
 83 84  1  0
 83 93  1  0
 84 87  1  0
 85 89  1  0
 85 84  1  0
 86 85  2  0
 89 88  1  0
 91 89  1  0
 91 92  1  0
 91 90  1  0
 93 96  1  1
 93 94  1  0
 95 93  1  0
M  ISO  4  11 100  19 100  55 101  56 101
M  END
>  <TORSDO>  (93) 
F 24

>  <SCORE>  (93) 
-10.060

>  <name>  (93) 
95

>  <ligand_id>  (93) 
95

>  <original_smiles>  (93) 
[H]OC([H])(C([H])([H])Oc1c([H])c([H])c2c(c1[H])C([H])([H])N(C(=O)C([H])(N([H])C(=O)C([H])(N([H])C([H])([H])[H])C([H])([H])[H])C(C([H])([H])[H])(C([H])([H])[H])C([H])([H])[H])C([H])(C(=O)N([H])C1([H])c3c([H])c([H])c([H])c([H])c3C([H])([H])C([H])([H])C1([H])[H])C2([H])[H])C([H])([H])C([H])(F)C([H])([H])[N+]1([H])C([H])([H])C([H])([H])C([H])(C([H])([H])C([H])([H])N([H])C(=O)N2C([H])([H])C([H])([H])C([H])([H])C([H])(n3nc(-c4c([H])c([H])c(Oc5c([H])c([H])c(F)c([H])c5F)c([H])c4[H])c(C(=O)N([H])[H])c3N([H])[H])C2([H])[H])C([H])([H])C1([H])[H]

>  <smiles>  (93) 
[H]OC([H])(C([H])([H])Oc1c([H])c([H])c2c(c1[H])C([H])([H])N(C(=O)C([H])(N([H])C(=O)C([H])(N([H])C([H])([H])[H])C([H])([H])[H])C(C([H])([H])[H])(C([H])([H])[H])C([H])([H])[H])C([H])(C(=O)N([H])C1([H])c3c([H])c([H])c([H])c([H])c3C([H])([H])C([H])([H])C1([H])[H])C2([H])[H])C([H])([H])C([H])(F)C([H])([H])[N+]1([H])C([H])([H])C([H])([H])C([H])(C([H])([H])C([H])([H])N([H])C(=O)N2C([H])([H])C([H])([H])C([H])([H])C([H])(n3nc(-c4c([H])c([H])c(Oc5c([H])c([H])c(F)c([H])c5F)c([H])c4[H])c(C(=O)N([H])[H])c3N([H])[H])C2([H])[H])C([H])([H])C1([H])[H]

$$$$
96:0:0
     RDKit          3D

 94102  0  0  1  0  0  0  0  0999 V2000
  -28.7860  -23.6520   20.8390 C   0  0  0  0  0  3  0  0  0  0  0  0
  -28.8590  -19.8270   19.3010 C   0  0  0  0  0  3  0  0  0  0  0  0
  -28.5490  -21.2430   19.4570 C   0  0  0  0  0  3  0  0  0  0  0  0
  -30.2040  -19.8890   21.2400 C   0  0  0  0  0  3  0  0  0  0  0  0
  -29.7070  -19.0690   20.1830 C   0  0  0  0  0  0  0  0  0  0  0  0
  -29.0760  -22.0620   20.5120 C   0  0  0  0  0  0  0  0  0  0  0  0
  -29.9130  -21.2950   21.3930 C   0  0  0  0  0  0  0  0  0  0  0  0
  -30.4830  -21.9330   22.4420 F   0  0  0  0  0  0  0  0  0  0  0  0
  -30.3360  -17.5930   19.8480 C   0  0  0  0  0  2  0  0  0  0  0  0
  -30.6080  -14.9610   20.0630 C   0  0  0  0  0  0  0  0  0  0  0  0
  -30.3610  -12.6650   19.0660 C   0  0  0  0  0  2  0  0  0  0  0  0
  -29.3740  -12.7170   17.8780 C   0  0  0  0  0  2  0  0  0  0  0  0
  -27.9280  -12.5260   18.3720 C   0  0  0  0  0  2  0  0  0  0  0  0
  -27.6010  -13.4080   19.6090 C   0  0  0  0  0  3  0  0  0  0  0  0
  -28.7100  -13.3520   20.6820 C   0  0  0  0  0  2  0  0  0  0  0  0
  -29.9650  -13.7320   20.0260 N   0  0  0  0  0  0  0  0  0  0  0  0
  -31.7850  -15.0080   19.6910 O   0  0  0  0  0  0  0  0  0  0  0  0
  -29.8970  -16.1610   20.2770 N   0  0  0  0  0  0  0  0  0  0  0  0
  -28.9360  -16.0590   20.5660 H   0  0  0  0  0  0  0  0  0  0  0  0
  -25.2590  -13.9810   20.4700 C   0  0  0  0  0  0  0  0  0  0  0  0
  -24.2100  -13.2020   20.8740 C   0  0  0  0  0  0  0  0  0  0  0  0
  -24.6650  -11.8510   20.7940 C   0  0  0  0  0  0  0  0  0  0  0  0
  -26.2860  -13.1050   20.1630 N   0  0  0  0  0  0  0  0  0  0  0  0
  -25.9400  -11.8170   20.4200 N   0  0  0  0  0  0  0  0  0  0  0  0
  -23.9410  -10.5880   20.9900 C   0  0  0  0  0  0  0  0  0  0  0  0
  -24.3950   -9.6110   21.9040 C   0  0  0  0  0  3  0  0  0  0  0  0
  -23.6690   -8.4140   22.0890 C   0  0  0  0  0  3  0  0  0  0  0  0
  -22.4780   -8.1860   21.3620 C   0  0  0  0  0  0  0  0  0  0  0  0
  -22.0430   -9.1520   20.4380 C   0  0  0  0  0  3  0  0  0  0  0  0
  -22.7670  -10.3410   20.2500 C   0  0  0  0  0  3  0  0  0  0  0  0
  -21.7210   -7.0420   21.4590 O   0  0  0  0  0  0  0  0  0  0  0  0
  -21.6850   -6.3000   22.6120 C   0  0  0  0  0  0  0  0  0  0  0  0
  -21.2480   -6.8470   23.8390 C   0  0  0  0  0  3  0  0  0  0  0  0
  -21.1600   -6.0300   24.9820 C   0  0  0  0  0  3  0  0  0  0  0  0
  -21.4980   -4.6650   24.9030 C   0  0  0  0  0  0  0  0  0  0  0  0
  -21.9260   -4.1160   23.6810 C   0  0  0  0  0  3  0  0  0  0  0  0
  -22.0160   -4.9310   22.5380 C   0  0  0  0  0  0  0  0  0  0  0  0
  -22.4100   -4.3930   21.3590 F   0  0  0  0  0  0  0  0  0  0  0  0
  -21.4050   -3.8770   26.0000 F   0  0  0  0  0  0  0  0  0  0  0  0
  -22.8290  -13.6800   21.2190 C   0  0  0  0  0  0  0  0  0  0  0  0
  -22.1380  -12.9710   22.1030 N   0  0  0  0  0  0  0  0  0  0  0  0
  -22.3750  -14.7190   20.7400 O   0  0  0  0  0  0  0  0  0  0  0  0
  -22.5170  -12.1300   22.5120 H   0  0  0  0  0  0  0  0  0  0  0  0
  -21.2120  -13.2730   22.3740 H   0  0  0  0  0  0  0  0  0  0  0  0
  -25.4160  -15.3550   20.3120 N   0  0  0  0  0  0  0  0  0  0  0  0
  -24.6480  -15.9990   20.4640 H   0  0  0  0  0  0  0  0  0  0  0  0
  -26.2340  -15.8030   19.9210 H   0  0  0  0  0  0  0  0  0  0  0  0
  -27.8880  -23.7400   22.0960 C   0  0  0  0  0  2  0  0  0  0  0  0
  -26.5650  -23.1180   21.8950 N   0  0  0  0  0  4  0  0  0  0  0  0
  -26.0070  -23.6430   21.2470 H   0  0  0  0  0  0  0  0  0  0  0  0
  -26.0700  -23.0790   22.7700 H   0  0  0  0  0  0  0  0  0  0  0  0
  -26.6650  -22.1800   21.5510 H   0  0  0  0  0  0  0  0  0  0  0  0
  -28.3150  -24.8640   19.8140 C   0  0  0  0  0  2  0  0  0  0  0  0
  -28.3680  -26.3600   20.2040 O   0  0  0  0  0  0  0  0  0  0  0  0
  -24.6820  -31.9080   23.2380 C   0  0  0  0  0  0  0  0  0  0  0  0
  -27.2720  -27.2800   20.1310 C   0  0  0  0  0  0  0  0  0  0  0  0
  -23.4730  -30.5150   21.6000 C   0  0  0  0  0  3  0  0  0  0  0  0
  -24.9180  -28.9720   20.1440 C   0  0  0  0  0  0  0  0  0  0  0  0
  -26.0190  -30.8150   21.4050 C   0  0  0  0  0  2  0  0  0  0  0  0
  -26.0960  -29.4330   20.7430 C   0  0  0  0  0  0  0  0  0  0  0  0
  -27.2690  -28.5990   20.7260 C   0  0  0  0  0  3  0  0  0  0  0  0
  -26.0710  -26.9180   19.4790 C   0  0  0  0  0  3  0  0  0  0  0  0
  -24.9160  -27.7270   19.4960 C   0  0  0  0  0  3  0  0  0  0  0  0
  -23.6830  -29.8530   20.2120 C   0  0  0  0  0  2  0  0  0  0  0  0
  -24.7460  -31.1010   22.1370 N   0  0  0  0  0  0  0  0  0  0  0  0
  -23.6000  -32.1780   23.7820 O   0  0  0  0  0  0  0  0  0  0  0  0
  -22.8190  -29.4920   22.5600 C   0  0  0  0  0  0  0  0  0  0  0  0
  -21.4920  -29.3080   22.4430 N   0  0  0  0  0  0  0  0  0  0  0  0
  -23.5060  -28.8670   23.3720 O   0  0  0  0  0  0  0  0  0  0  0  0
  -20.9960  -29.8630   21.7600 H   0  0  0  0  0  0  0  0  0  0  0  0
  -18.1280  -28.0720   22.9590 C   0  0  0  0  0  0  0  0  0  0  0  0
  -20.6860  -28.3580   23.2150 C   0  0  0  0  0  3  0  0  0  0  0  0
  -20.8000  -26.9300   22.6300 C   0  0  0  0  0  2  0  0  0  0  0  0
  -19.6950  -26.6020   21.6220 C   0  0  0  0  0  2  0  0  0  0  0  0
  -18.3160  -26.7280   22.2750 C   0  0  0  0  0  2  0  0  0  0  0  0
  -19.2410  -28.8440   23.3860 C   0  0  0  0  0  0  0  0  0  0  0  0
  -19.0120  -30.1010   23.9880 C   0  0  0  0  0  3  0  0  0  0  0  0
  -17.7020  -30.5850   24.1670 C   0  0  0  0  0  3  0  0  0  0  0  0
  -16.6030  -29.8090   23.7560 C   0  0  0  0  0  3  0  0  0  0  0  0
  -16.8180  -28.5560   23.1570 C   0  0  0  0  0  3  0  0  0  0  0  0
  -25.9620  -32.5470   23.8550 C   0  0  0  0  0  3  0  0  0  0  0  0
  -25.6500  -33.9460   24.1840 N   0  0  0  0  0  0  0  0  0  0  0  0
  -25.9660  -35.0000   23.4200 C   0  0  0  0  0  0  0  0  0  0  0  0
  -26.6200  -34.8970   22.3790 O   0  0  0  0  0  0  0  0  0  0  0  0
  -25.0660  -34.0990   24.9940 H   0  0  0  0  0  0  0  0  0  0  0  0
  -24.2240  -36.7870   23.0950 C   0  0  0  0  0  1  0  0  0  0  0  0
  -25.4820  -36.3890   23.8830 C   0  0  0  0  0  3  0  0  0  0  0  0
  -27.6260  -37.2890   24.6730 C   0  0  0  0  0  1  0  0  0  0  0  0
  -26.5080  -37.4460   23.7470 N   0  0  0  0  0  0  0  0  0  0  0  0
  -26.1000  -38.3660   23.8950 H   0  0  0  0  0  0  0  0  0  0  0  0
  -26.4810  -31.7830   25.1360 C   0  0  1  0  0  0  0  0  0  0  0  0
  -25.3910  -31.5480   26.2060 C   0  0  0  0  0  1  0  0  0  0  0  0
  -27.0680  -30.4040   24.7520 C   0  0  0  0  0  1  0  0  0  0  0  0
  -27.6310  -32.5830   25.7930 C   0  0  0  0  0  1  0  0  0  0  0  0
  1 53  1  0
  1 48  1  0
  2  3  2  0
  2  5  1  0
  3  6  1  0
  4  7  1  0
  5  4  2  0
  6  1  1  0
  6  7  2  0
  7  8  1  0
  9  5  1  0
  9 18  1  0
 10 18  1  0
 11 16  1  0
 12 13  1  0
 12 11  1  0
 14 13  1  0
 14 23  1  0
 14 15  1  0
 16 10  1  0
 16 15  1  0
 17 10  2  0
 18 19  1  0
 20 21  2  0
 21 40  1  0
 22 21  1  0
 22 25  1  0
 23 24  1  0
 23 20  1  0
 24 22  2  0
 25 26  1  0
 26 27  2  0
 28 31  1  0
 28 27  1  0
 29 28  2  0
 30 29  1  0
 30 25  2  0
 31 32  1  0
 32 33  1  0
 33 34  2  0
 35 34  1  0
 35 39  1  0
 36 35  2  0
 37 32  2  0
 37 36  1  0
 38 37  1  0
 40 41  1  0
 41 44  1  0
 41 43  1  0
 42 40  2  0
 45 46  1  0
 45 20  1  0
 47 45  1  0
 49 48  1  0
 49 51  1  0
 50 49  1  0
 52 49  1  0
 53 54  1  0
 55 66  2  0
 56 54  1  0
 56 61  1  0
 57 65  1  0
 57 67  1  0
 58 64  1  0
 58 60  1  0
 59 65  1  0
 60 59  1  0
 61 60  2  0
 62 63  1  0
 62 56  2  0
 63 58  2  0
 64 57  1  0
 65 55  1  0
 67 69  2  0
 68 67  1  0
 70 68  1  0
 71 80  2  0
 71 76  1  0
 72 68  1  0
 72 76  1  0
 73 72  1  0
 74 75  1  0
 74 73  1  0
 75 71  1  0
 76 77  2  0
 77 78  1  0
 79 78  2  0
 80 79  1  0
 81 55  1  0
 81 82  1  0
 81 91  1  0
 82 85  1  0
 83 87  1  0
 83 82  1  0
 84 83  2  0
 87 86  1  0
 89 87  1  0
 89 90  1  0
 89 88  1  0
 91 94  1  1
 91 92  1  0
 93 91  1  0
M  ISO  4  10 100  18 100  53 101  54 101
M  END
>  <TORSDO>  (94) 
F 21

>  <SCORE>  (94) 
-13.823

>  <name>  (94) 
96

>  <ligand_id>  (94) 
96

>  <original_smiles>  (94) 
[H]c1c([H])c([H])c2c(c1[H])C([H])([H])C([H])([H])C([H])([H])C2([H])N([H])C(=O)C1([H])N(C(=O)C([H])(N([H])C(=O)C([H])(N([H])C([H])([H])[H])C([H])([H])[H])C(C([H])([H])[H])(C([H])([H])[H])C([H])([H])[H])C([H])([H])c2c([H])c(OC([H])([H])C([H])(c3c([H])c([H])c(C([H])([H])N([H])C(=O)N4C([H])([H])C([H])([H])C([H])([H])C([H])(n5nc(-c6c([H])c([H])c(Oc7c([H])c([H])c(F)c([H])c7F)c([H])c6[H])c(C(=O)N([H])[H])c5N([H])[H])C4([H])[H])c([H])c3F)C([H])([H])[N+]([H])([H])[H])c([H])c([H])c2C1([H])[H]

>  <smiles>  (94) 
[H]c1c([H])c([H])c2c(c1[H])C([H])([H])C([H])([H])C([H])([H])C2([H])N([H])C(=O)C1([H])N(C(=O)C([H])(N([H])C(=O)C([H])(N([H])C([H])([H])[H])C([H])([H])[H])C(C([H])([H])[H])(C([H])([H])[H])C([H])([H])[H])C([H])([H])c2c([H])c(OC([H])([H])C([H])(c3c([H])c([H])c(C([H])([H])N([H])C(=O)N4C([H])([H])C([H])([H])C([H])([H])C([H])(n5nc(-c6c([H])c([H])c(Oc7c([H])c([H])c(F)c([H])c7F)c([H])c6[H])c(C(=O)N([H])[H])c5N([H])[H])C4([H])[H])c([H])c3F)C([H])([H])[N+]([H])([H])[H])c([H])c([H])c2C1([H])[H]

$$$$
97:0:0
     RDKit          3D

 92100  0  0  1  0  0  0  0  0999 V2000
  -30.2760  -22.9870   21.4050 N   0  0  0  0  0  4  0  0  0  0  0  0
  -30.2580  -22.8320   22.4000 H   0  0  0  0  0  0  0  0  0  0  0  0
  -31.2280  -23.1870   21.1440 H   0  0  0  0  0  0  0  0  0  0  0  0
  -29.4200  -24.1630   21.0960 C   0  0  0  0  0  2  0  0  0  0  0  0
  -30.0840  -25.5040   21.4770 C   0  0  0  0  0  2  0  0  0  0  0  0
  -29.1650  -26.7360   21.3510 C   0  0  0  0  0  2  0  0  0  0  0  0
  -28.4120  -26.7320   20.1360 O   0  0  0  0  0  0  0  0  0  0  0  0
  -24.5930  -31.8900   23.2470 C   0  0  0  0  0  0  0  0  0  0  0  0
  -27.2640  -27.4910   20.1590 C   0  0  0  0  0  0  0  0  0  0  0  0
  -23.3840  -30.4850   21.6050 C   0  0  0  0  0  3  0  0  0  0  0  0
  -24.8440  -28.9510   20.1780 C   0  0  0  0  0  0  0  0  0  0  0  0
  -25.8990  -30.8660   21.3920 C   0  0  0  0  0  2  0  0  0  0  0  0
  -25.9930  -29.4930   20.7650 C   0  0  0  0  0  0  0  0  0  0  0  0
  -27.2020  -28.7690   20.7640 C   0  0  0  0  0  3  0  0  0  0  0  0
  -26.1040  -26.9640   19.5570 C   0  0  0  0  0  3  0  0  0  0  0  0
  -24.8900  -27.6810   19.5760 C   0  0  0  0  0  3  0  0  0  0  0  0
  -23.5900  -29.7980   20.2260 C   0  0  0  0  0  2  0  0  0  0  0  0
  -24.6440  -31.0940   22.1420 N   0  0  0  0  0  0  0  0  0  0  0  0
  -23.5130  -32.1580   23.7930 O   0  0  0  0  0  0  0  0  0  0  0  0
  -22.7410  -29.4620   22.5680 C   0  0  0  0  0  0  0  0  0  0  0  0
  -21.4170  -29.2740   22.4400 N   0  0  0  0  0  0  0  0  0  0  0  0
  -23.4280  -28.8410   23.3820 O   0  0  0  0  0  0  0  0  0  0  0  0
  -20.9260  -29.8260   21.7510 H   0  0  0  0  0  0  0  0  0  0  0  0
  -18.0480  -28.0710   22.9290 C   0  0  0  0  0  0  0  0  0  0  0  0
  -20.6040  -28.3350   23.2110 C   0  0  0  0  0  3  0  0  0  0  0  0
  -20.7120  -26.9040   22.6380 C   0  0  0  0  0  2  0  0  0  0  0  0
  -19.6170  -26.5770   21.6180 C   0  0  0  0  0  2  0  0  0  0  0  0
  -18.2320  -26.7200   22.2580 C   0  0  0  0  0  2  0  0  0  0  0  0
  -19.1640  -28.8360   23.3630 C   0  0  0  0  0  0  0  0  0  0  0  0
  -18.9400  -30.1010   23.9490 C   0  0  0  0  0  3  0  0  0  0  0  0
  -17.6340  -30.6010   24.1070 C   0  0  0  0  0  3  0  0  0  0  0  0
  -16.5330  -29.8310   23.6930 C   0  0  0  0  0  3  0  0  0  0  0  0
  -16.7400  -28.5690   23.1090 C   0  0  0  0  0  3  0  0  0  0  0  0
  -25.8810  -32.5210   23.8630 C   0  0  0  0  0  3  0  0  0  0  0  0
  -25.5740  -33.9190   24.1900 N   0  0  0  0  0  0  0  0  0  0  0  0
  -25.9120  -34.9690   23.4290 C   0  0  0  0  0  0  0  0  0  0  0  0
  -26.5840  -34.8610   22.3980 O   0  0  0  0  0  0  0  0  0  0  0  0
  -24.9690  -34.0760   24.9820 H   0  0  0  0  0  0  0  0  0  0  0  0
  -24.1800  -36.7580   23.0730 C   0  0  0  0  0  1  0  0  0  0  0  0
  -25.4250  -36.3590   23.8810 C   0  0  0  0  0  3  0  0  0  0  0  0
  -27.5650  -37.2430   24.7000 C   0  0  0  0  0  1  0  0  0  0  0  0
  -26.4570  -37.4120   23.7610 N   0  0  0  0  0  0  0  0  0  0  0  0
  -26.0530  -38.3310   23.9110 H   0  0  0  0  0  0  0  0  0  0  0  0
  -26.4040  -31.7490   25.1360 C   0  0  1  0  0  0  0  0  0  0  0  0
  -25.3170  -31.5130   26.2090 C   0  0  0  0  0  1  0  0  0  0  0  0
  -26.9830  -30.3720   24.7370 C   0  0  0  0  0  1  0  0  0  0  0  0
  -27.5570  -32.5440   25.7950 C   0  0  0  0  0  1  0  0  0  0  0  0
  -29.8650  -21.7420   20.7120 C   0  0  0  0  0  2  0  0  0  0  0  0
  -30.3560  -20.4450   21.4150 C   0  0  0  0  0  2  0  0  0  0  0  0
  -28.9050  -17.5910   19.5400 C   0  0  0  0  0  2  0  0  0  0  0  0
  -28.7840  -18.9530   20.2250 C   0  0  0  0  0  2  0  0  0  0  0  0
  -30.6080  -17.9970   21.1960 C   0  0  0  0  0  2  0  0  0  0  0  0
  -30.1640  -16.9590   20.1460 C   0  0  0  0  0  3  0  0  0  0  0  0
  -30.1690  -19.2510   20.5760 N   0  0  0  0  0  0  0  0  0  0  0  0
  -30.6700  -14.5220   20.3110 C   0  0  0  0  0  0  0  0  0  0  0  0
  -30.3400  -12.3590   19.1920 C   0  0  0  0  0  2  0  0  0  0  0  0
  -29.3870  -12.5970   18.0030 C   0  0  0  0  0  2  0  0  0  0  0  0
  -27.9180  -12.4560   18.4490 C   0  0  0  0  0  2  0  0  0  0  0  0
  -27.5980  -13.2810   19.7230 C   0  0  0  0  0  3  0  0  0  0  0  0
  -28.6720  -13.0660   20.8190 C   0  0  0  0  0  2  0  0  0  0  0  0
  -29.9920  -13.3440   20.2290 N   0  0  0  0  0  0  0  0  0  0  0  0
  -31.8140  -14.6660   19.8730 O   0  0  0  0  0  0  0  0  0  0  0  0
  -29.9300  -15.5920   20.6510 N   0  0  0  0  0  0  0  0  0  0  0  0
  -29.0080  -15.3940   21.0090 H   0  0  0  0  0  0  0  0  0  0  0  0
  -25.2100  -13.8830   20.4690 C   0  0  0  0  0  0  0  0  0  0  0  0
  -24.1480  -13.1120   20.8540 C   0  0  0  0  0  0  0  0  0  0  0  0
  -24.6080  -11.7590   20.8180 C   0  0  0  0  0  0  0  0  0  0  0  0
  -26.2520  -13.0020   20.2220 N   0  0  0  0  0  0  0  0  0  0  0  0
  -25.8930  -11.7210   20.4890 N   0  0  0  0  0  0  0  0  0  0  0  0
  -23.8830  -10.5000   21.0200 C   0  0  0  0  0  0  0  0  0  0  0  0
  -24.3350   -9.5280   21.9410 C   0  0  0  0  0  3  0  0  0  0  0  0
  -23.6120   -8.3300   22.1310 C   0  0  0  0  0  3  0  0  0  0  0  0
  -22.4210   -8.0990   21.4010 C   0  0  0  0  0  0  0  0  0  0  0  0
  -21.9870   -9.0600   20.4720 C   0  0  0  0  0  3  0  0  0  0  0  0
  -22.7120  -10.2480   20.2790 C   0  0  0  0  0  3  0  0  0  0  0  0
  -21.6660   -6.9550   21.5040 O   0  0  0  0  0  0  0  0  0  0  0  0
  -21.6580   -6.1960   22.6500 C   0  0  0  0  0  0  0  0  0  0  0  0
  -21.2820   -6.7390   23.8970 C   0  0  0  0  0  3  0  0  0  0  0  0
  -21.2160   -5.9100   25.0350 C   0  0  0  0  0  3  0  0  0  0  0  0
  -21.5160   -4.5380   24.9250 C   0  0  0  0  0  0  0  0  0  0  0  0
  -21.8860   -3.9950   23.6810 C   0  0  0  0  0  3  0  0  0  0  0  0
  -21.9530   -4.8230   22.5460 C   0  0  0  0  0  0  0  0  0  0  0  0
  -22.2880   -4.2900   21.3460 F   0  0  0  0  0  0  0  0  0  0  0  0
  -21.4480   -3.7390   26.0150 F   0  0  0  0  0  0  0  0  0  0  0  0
  -22.7550  -13.5910   21.1410 C   0  0  0  0  0  0  0  0  0  0  0  0
  -22.0350  -12.9010   22.0200 N   0  0  0  0  0  0  0  0  0  0  0  0
  -22.3110  -14.6140   20.6230 O   0  0  0  0  0  0  0  0  0  0  0  0
  -22.4070  -12.0760   22.4640 H   0  0  0  0  0  0  0  0  0  0  0  0
  -21.1020  -13.2110   22.2510 H   0  0  0  0  0  0  0  0  0  0  0  0
  -25.3640  -15.2530   20.2800 N   0  0  0  0  0  0  0  0  0  0  0  0
  -24.5840  -15.8920   20.3900 H   0  0  0  0  0  0  0  0  0  0  0  0
  -26.1590  -15.6710   19.8130 H   0  0  0  0  0  0  0  0  0  0  0  0
  1  2  1  0
  3  1  1  0
  4  1  1  0
  4  5  1  0
  6  5  1  0
  7  9  1  0
  7  6  1  0
  8 19  2  0
  9 14  1  0
 10 18  1  0
 10 20  1  0
 11 17  1  0
 11 13  1  0
 12 18  1  0
 13 12  1  0
 14 13  2  0
 15 16  1  0
 15  9  2  0
 16 11  2  0
 17 10  1  0
 18  8  1  0
 20 22  2  0
 21 20  1  0
 23 21  1  0
 24 33  2  0
 24 29  1  0
 25 21  1  0
 25 29  1  0
 26 25  1  0
 27 28  1  0
 27 26  1  0
 28 24  1  0
 29 30  2  0
 30 31  1  0
 32 31  2  0
 33 32  1  0
 34  8  1  0
 34 35  1  0
 34 44  1  0
 35 38  1  0
 36 40  1  0
 36 35  1  0
 37 36  2  0
 40 39  1  0
 42 40  1  0
 42 43  1  0
 42 41  1  0
 44 47  1  1
 44 45  1  0
 46 44  1  0
 48  1  1  0
 48 49  1  0
 50 53  1  0
 50 51  1  0
 51 54  1  0
 53 63  1  0
 53 52  1  0
 54 52  1  0
 54 49  1  0
 55 63  1  0
 56 61  1  0
 57 58  1  0
 57 56  1  0
 59 58  1  0
 59 68  1  0
 59 60  1  0
 61 55  1  0
 61 60  1  0
 62 55  2  0
 63 64  1  0
 65 66  2  0
 66 85  1  0
 67 66  1  0
 67 70  1  0
 68 65  1  0
 68 69  1  0
 69 67  2  0
 70 71  1  0
 71 72  2  0
 73 76  1  0
 73 72  1  0
 74 73  2  0
 75 74  1  0
 75 70  2  0
 76 77  1  0
 77 78  1  0
 78 79  2  0
 80 79  1  0
 80 84  1  0
 81 80  2  0
 82 77  2  0
 82 81  1  0
 83 82  1  0
 85 86  1  0
 86 89  1  0
 86 88  1  0
 87 85  2  0
 90 91  1  0
 90 65  1  0
 92 90  1  0
M  ISO  4   6 101   7 101  55 100  63 100
M  END
>  <TORSDO>  (95) 
F 22

>  <SCORE>  (95) 
-13.278

>  <name>  (95) 
97

>  <ligand_id>  (95) 
97

>  <original_smiles>  (95) 
[H]c1c([H])c([H])c2c(c1[H])C([H])([H])C([H])([H])C([H])([H])C2([H])N([H])C(=O)C1([H])N(C(=O)C([H])(N([H])C(=O)C([H])(N([H])C([H])([H])[H])C([H])([H])[H])C(C([H])([H])[H])(C([H])([H])[H])C([H])([H])[H])C([H])([H])c2c([H])c(OC([H])([H])C([H])([H])C([H])([H])[N+]([H])([H])C([H])([H])C([H])([H])N3C([H])([H])C([H])([H])C([H])(N([H])C(=O)N4C([H])([H])C([H])([H])C([H])([H])C([H])(n5nc(-c6c([H])c([H])c(Oc7c([H])c([H])c(F)c([H])c7F)c([H])c6[H])c(C(=O)N([H])[H])c5N([H])[H])C4([H])[H])C3([H])[H])c([H])c([H])c2C1([H])[H]

>  <smiles>  (95) 
[H]c1c([H])c([H])c2c(c1[H])C([H])([H])C([H])([H])C([H])([H])C2([H])N([H])C(=O)C1([H])N(C(=O)C([H])(N([H])C(=O)C([H])(N([H])C([H])([H])[H])C([H])([H])[H])C(C([H])([H])[H])(C([H])([H])[H])C([H])([H])[H])C([H])([H])c2c([H])c(OC([H])([H])C([H])([H])C([H])([H])[N+]([H])([H])C([H])([H])C([H])([H])N3C([H])([H])C([H])([H])C([H])(N([H])C(=O)N4C([H])([H])C([H])([H])C([H])([H])C([H])(n5nc(-c6c([H])c([H])c(Oc7c([H])c([H])c(F)c([H])c7F)c([H])c6[H])c(C(=O)N([H])[H])c5N([H])[H])C4([H])[H])C3([H])[H])c([H])c([H])c2C1([H])[H]

$$$$
98:0:0
     RDKit          3D

100108  0  0  1  0  0  0  0  0999 V2000
  -27.2990  -19.4650   18.5170 C   0  0  0  0  0  3  0  0  0  0  0  0
  -30.7570  -16.8070   18.6420 C   0  0  0  0  0  3  0  0  0  0  0  0
  -30.5370  -17.6140   17.5100 C   0  0  0  0  0  3  0  0  0  0  0  0
  -28.7770  -17.7460   19.6870 C   0  0  0  0  0  3  0  0  0  0  0  0
  -28.5540  -18.5830   18.5620 C   0  0  0  0  0  0  0  0  0  0  0  0
  -29.8580  -16.8380   19.7400 C   0  0  0  0  0  0  0  0  0  0  0  0
  -29.4340  -18.4860   17.4590 C   0  0  0  0  0  0  0  0  0  0  0  0
  -29.2160  -19.2180   16.3390 F   0  0  0  0  0  0  0  0  0  0  0  0
  -30.7860  -14.8750   20.9300 C   0  0  0  0  0  0  0  0  0  0  0  0
  -30.6290  -12.6500   19.9460 C   0  0  0  0  0  2  0  0  0  0  0  0
  -29.8150  -12.8300   18.6500 C   0  0  0  0  0  2  0  0  0  0  0  0
  -28.3050  -12.6980   18.9290 C   0  0  0  0  0  2  0  0  0  0  0  0
  -27.8340  -13.5670   20.1300 C   0  0  0  0  0  3  0  0  0  0  0  0
  -28.7840  -13.4190   21.3460 C   0  0  0  0  0  2  0  0  0  0  0  0
  -30.1570  -13.6740   20.8870 N   0  0  0  0  0  0  0  0  0  0  0  0
  -32.0010  -15.0150   20.7640 O   0  0  0  0  0  0  0  0  0  0  0  0
  -29.9470  -15.9270   20.8500 N   0  0  0  0  0  0  0  0  0  0  0  0
  -29.0610  -15.7470   21.3030 H   0  0  0  0  0  0  0  0  0  0  0  0
  -25.3780  -14.1600   20.6370 C   0  0  0  0  0  0  0  0  0  0  0  0
  -24.2890  -13.3830   20.9070 C   0  0  0  0  0  0  0  0  0  0  0  0
  -24.7580  -12.0330   20.9220 C   0  0  0  0  0  0  0  0  0  0  0  0
  -26.4470  -13.2890   20.4930 N   0  0  0  0  0  0  0  0  0  0  0  0
  -26.0690  -12.0050   20.7230 N   0  0  0  0  0  0  0  0  0  0  0  0
  -24.0250  -10.7670   21.0410 C   0  0  0  0  0  0  0  0  0  0  0  0
  -24.3910   -9.7930   21.9960 C   0  0  0  0  0  3  0  0  0  0  0  0
  -23.6600   -8.5910   22.1090 C   0  0  0  0  0  3  0  0  0  0  0  0
  -22.5520   -8.3530   21.2620 C   0  0  0  0  0  0  0  0  0  0  0  0
  -22.2060   -9.3150   20.2990 C   0  0  0  0  0  3  0  0  0  0  0  0
  -22.9360  -10.5090   20.1830 C   0  0  0  0  0  3  0  0  0  0  0  0
  -21.8030   -7.2010   21.2790 O   0  0  0  0  0  0  0  0  0  0  0  0
  -21.6820   -6.4370   22.4110 C   0  0  0  0  0  0  0  0  0  0  0  0
  -21.1550   -6.9630   23.6110 C   0  0  0  0  0  3  0  0  0  0  0  0
  -20.9830   -6.1270   24.7310 C   0  0  0  0  0  3  0  0  0  0  0  0
  -21.3270   -4.7630   24.6510 C   0  0  0  0  0  0  0  0  0  0  0  0
  -21.8450   -4.2360   23.4530 C   0  0  0  0  0  3  0  0  0  0  0  0
  -22.0180   -5.0700   22.3350 C   0  0  0  0  0  0  0  0  0  0  0  0
  -22.4990   -4.5540   21.1790 F   0  0  0  0  0  0  0  0  0  0  0  0
  -21.1530   -3.9550   25.7230 F   0  0  0  0  0  0  0  0  0  0  0  0
  -22.8700  -13.8500   21.0660 C   0  0  0  0  0  0  0  0  0  0  0  0
  -22.0750  -13.1520   21.8680 N   0  0  0  0  0  0  0  0  0  0  0  0
  -22.4690  -14.8670   20.4990 O   0  0  0  0  0  0  0  0  0  0  0  0
  -22.4090  -12.3280   22.3460 H   0  0  0  0  0  0  0  0  0  0  0  0
  -21.1180  -13.4470   22.0100 H   0  0  0  0  0  0  0  0  0  0  0  0
  -25.5410  -15.5360   20.4800 N   0  0  0  0  0  0  0  0  0  0  0  0
  -24.7460  -16.1640   20.5380 H   0  0  0  0  0  0  0  0  0  0  0  0
  -26.3970  -15.9980   20.2090 H   0  0  0  0  0  0  0  0  0  0  0  0
  -27.4800  -21.0120   18.4800 C   0  0  0  0  0  2  0  0  0  0  0  0
  -28.8270  -21.7010   18.1490 C   0  0  0  0  0  2  0  0  0  0  0  0
  -28.7780  -23.0560   18.7510 N   0  0  0  0  0  4  0  0  0  0  0  0
  -27.8070  -23.3320   18.7230 H   0  0  0  0  0  0  0  0  0  0  0  0
  -29.0490  -22.9870   19.7200 H   0  0  0  0  0  0  0  0  0  0  0  0
  -29.5500  -24.1470   18.1190 C   0  0  0  0  0  2  0  0  0  0  0  0
  -28.9000  -25.5140   18.4360 C   0  0  0  0  0  2  0  0  0  0  0  0
  -28.7240  -25.7450   19.9550 C   0  0  0  0  0  2  0  0  0  0  0  0
  -28.6880  -27.1100   20.3410 O   0  0  0  0  0  0  0  0  0  0  0  0
  -24.7880  -32.1030   23.5720 C   0  0  0  0  0  0  0  0  0  0  0  0
  -27.4770  -27.7620   20.3810 C   0  0  0  0  0  0  0  0  0  0  0  0
  -23.6010  -30.7250   21.8910 C   0  0  0  0  0  3  0  0  0  0  0  0
  -25.0700  -29.2310   20.4500 C   0  0  0  0  0  0  0  0  0  0  0  0
  -26.1270  -31.1010   21.7270 C   0  0  0  0  0  2  0  0  0  0  0  0
  -26.2210  -29.7490   21.0530 C   0  0  0  0  0  0  0  0  0  0  0  0
  -27.4290  -29.0180   21.0230 C   0  0  0  0  0  3  0  0  0  0  0  0
  -26.2970  -27.2440   19.7960 C   0  0  0  0  0  3  0  0  0  0  0  0
  -25.1010  -27.9750   19.8310 C   0  0  0  0  0  3  0  0  0  0  0  0
  -23.8250  -30.0790   20.4990 C   0  0  0  0  0  2  0  0  0  0  0  0
  -24.8540  -31.3270   22.4550 N   0  0  0  0  0  0  0  0  0  0  0  0
  -23.7010  -32.3570   24.1100 O   0  0  0  0  0  0  0  0  0  0  0  0
  -22.9550  -29.6790   22.8230 C   0  0  0  0  0  0  0  0  0  0  0  0
  -21.6530  -29.4210   22.6180 N   0  0  0  0  0  0  0  0  0  0  0  0
  -23.6240  -29.0980   23.6830 O   0  0  0  0  0  0  0  0  0  0  0  0
  -21.1720  -29.9400   21.8970 H   0  0  0  0  0  0  0  0  0  0  0  0
  -18.3470  -27.9910   22.8920 C   0  0  0  0  0  0  0  0  0  0  0  0
  -20.8490  -28.4480   23.3580 C   0  0  0  0  0  3  0  0  0  0  0  0
  -21.1000  -27.0120   22.8440 C   0  0  0  0  0  2  0  0  0  0  0  0
  -20.1130  -26.5770   21.7560 C   0  0  0  0  0  2  0  0  0  0  0  0
  -18.6750  -26.6390   22.2800 C   0  0  0  0  0  2  0  0  0  0  0  0
  -19.3690  -28.8450   23.3860 C   0  0  0  0  0  0  0  0  0  0  0  0
  -19.0140  -30.1070   23.9120 C   0  0  0  0  0  3  0  0  0  0  0  0
  -17.6680  -30.5170   23.9540 C   0  0  0  0  0  3  0  0  0  0  0  0
  -16.6590  -29.6600   23.4790 C   0  0  0  0  0  3  0  0  0  0  0  0
  -16.9990  -28.4010   22.9540 C   0  0  0  0  0  3  0  0  0  0  0  0
  -26.0690  -32.7280   24.2100 C   0  0  0  0  0  3  0  0  0  0  0  0
  -26.5440  -31.9800   25.5140 C   0  0  1  0  0  0  0  0  0  0  0  0
  -25.4170  -31.7540   26.5470 C   0  0  0  0  0  1  0  0  0  0  0  0
  -27.1490  -30.5980   25.1710 C   0  0  0  0  0  1  0  0  0  0  0  0
  -27.6660  -32.7930   26.2060 C   0  0  0  0  0  1  0  0  0  0  0  0
  -25.7740  -34.1360   24.4980 N   0  0  0  0  0  0  0  0  0  0  0  0
  -26.1340  -35.1640   23.7190 C   0  0  0  0  0  0  0  0  0  0  0  0
  -26.8280  -35.0290   22.7060 O   0  0  0  0  0  0  0  0  0  0  0  0
  -25.1610  -34.3200   25.2800 H   0  0  0  0  0  0  0  0  0  0  0  0
  -24.4310  -36.9640   23.2790 C   0  0  0  0  0  1  0  0  0  0  0  0
  -25.6510  -36.5690   24.1270 C   0  0  0  0  0  3  0  0  0  0  0  0
  -27.7720  -37.4590   24.9850 C   0  0  0  0  0  1  0  0  0  0  0  0
  -26.6960  -37.6080   24.0090 N   0  0  0  0  0  0  0  0  0  0  0  0
  -26.2950  -38.5350   24.1210 H   0  0  0  0  0  0  0  0  0  0  0  0
  -26.2680  -18.9620   17.4770 C   0  0  0  0  0  2  0  0  0  0  0  0
  -24.9690  -19.6640   17.5680 N   0  0  0  0  0  4  0  0  0  0  0  0
  -24.2830  -19.1500   17.0460 H   0  0  0  0  0  0  0  0  0  0  0  0
  -25.0110  -20.6010   17.2060 H   0  0  0  0  0  0  0  0  0  0  0  0
  -24.6540  -19.7010   18.5220 H   0  0  0  0  0  0  0  0  0  0  0  0
  1 96  1  0
  1  5  1  0
  2  6  1  0
  3  2  2  0
  4  6  2  0
  5  4  1  0
  6 17  1  0
  7  3  1  0
  7  5  2  0
  8  7  1  0
 10 15  1  0
 11 12  1  0
 11 10  1  0
 13 12  1  0
 13 22  1  0
 13 14  1  0
 15  9  1  0
 15 14  1  0
 16  9  2  0
 17  9  1  0
 17 18  1  0
 19 20  2  0
 20 21  1  0
 20 39  1  0
 21 24  1  0
 22 19  1  0
 22 23  1  0
 23 21  2  0
 24 25  1  0
 25 26  2  0
 27 30  1  0
 27 26  1  0
 28 27  2  0
 29 28  1  0
 29 24  2  0
 30 31  1  0
 31 32  1  0
 32 33  2  0
 34 33  1  0
 34 38  1  0
 35 34  2  0
 36 31  2  0
 36 35  1  0
 37 36  1  0
 39 40  1  0
 40 43  1  0
 40 42  1  0
 41 39  2  0
 44 45  1  0
 44 19  1  0
 46 44  1  0
 47  1  1  0
 48 47  1  0
 48 49  1  0
 49 51  1  0
 50 49  1  0
 52 53  1  0
 52 49  1  0
 53 54  1  0
 54 55  1  0
 55 57  1  0
 56 67  2  0
 57 62  1  0
 58 66  1  0
 58 68  1  0
 59 65  1  0
 59 61  1  0
 60 66  1  0
 61 60  1  0
 62 61  2  0
 63 64  1  0
 63 57  2  0
 64 59  2  0
 65 58  1  0
 66 56  1  0
 68 70  2  0
 69 68  1  0
 71 69  1  0
 72 81  2  0
 72 77  1  0
 73 69  1  0
 73 77  1  0
 74 73  1  0
 75 76  1  0
 75 74  1  0
 76 72  1  0
 77 78  2  0
 78 79  1  0
 80 79  2  0
 81 80  1  0
 82 56  1  0
 82 87  1  0
 82 83  1  0
 83 86  1  1
 83 84  1  0
 85 83  1  0
 87 90  1  0
 88 92  1  0
 88 87  1  0
 89 88  2  0
 92 91  1  0
 94 95  1  0
 94 92  1  0
 94 93  1  0
 96 97  1  0
 97100  1  0
 98 97  1  0
 99 97  1  0
M  ISO  4   9 100  17 100  54 101  55 101
M  END
>  <TORSDO>  (96) 
F 25

>  <SCORE>  (96) 
-10.568

>  <name>  (96) 
98

>  <ligand_id>  (96) 
98

>  <original_smiles>  (96) 
[H]c1c([H])c([H])c2c(c1[H])C([H])([H])C([H])([H])C([H])([H])C2([H])N([H])C(=O)C1([H])N(C(=O)C([H])(N([H])C(=O)C([H])(N([H])C([H])([H])[H])C([H])([H])[H])C(C([H])([H])[H])(C([H])([H])[H])C([H])([H])[H])C([H])([H])c2c([H])c(OC([H])([H])C([H])([H])C([H])([H])[N+]([H])([H])C([H])([H])C([H])([H])C([H])(c3c([H])c(N([H])C(=O)N4C([H])([H])C([H])([H])C([H])([H])C([H])(n5nc(-c6c([H])c([H])c(Oc7c([H])c([H])c(F)c([H])c7F)c([H])c6[H])c(C(=O)N([H])[H])c5N([H])[H])C4([H])[H])c([H])c([H])c3F)C([H])([H])[N+]([H])([H])[H])c([H])c([H])c2C1([H])[H]

>  <smiles>  (96) 
[H]c1c([H])c([H])c2c(c1[H])C([H])([H])C([H])([H])C([H])([H])C2([H])N([H])C(=O)C1([H])N(C(=O)C([H])(N([H])C(=O)C([H])(N([H])C([H])([H])[H])C([H])([H])[H])C(C([H])([H])[H])(C([H])([H])[H])C([H])([H])[H])C([H])([H])c2c([H])c(OC([H])([H])C([H])([H])C([H])([H])[N+]([H])([H])C([H])([H])C([H])([H])C([H])(c3c([H])c(N([H])C(=O)N4C([H])([H])C([H])([H])C([H])([H])C([H])(n5nc(-c6c([H])c([H])c(Oc7c([H])c([H])c(F)c([H])c7F)c([H])c6[H])c(C(=O)N([H])[H])c5N([H])[H])C4([H])[H])c([H])c([H])c3F)C([H])([H])[N+]([H])([H])[H])c([H])c([H])c2C1([H])[H]

$$$$
99:0:0
     RDKit          3D

 95103  0  0  1  0  0  0  0  0999 V2000
  -29.4210  -20.0800   20.0660 N   0  0  0  0  0  4  0  0  0  0  0  0
  -28.6880  -19.9460   19.3880 H   0  0  0  0  0  0  0  0  0  0  0  0
  -30.2670  -20.2490   19.5480 H   0  0  0  0  0  0  0  0  0  0  0  0
  -30.7020  -14.6320   20.2610 C   0  0  0  0  0  0  0  0  0  0  0  0
  -30.3580  -12.4420   19.1230 C   0  0  0  0  0  2  0  0  0  0  0  0
  -29.3980  -12.5850   17.9250 C   0  0  0  0  0  2  0  0  0  0  0  0
  -27.9410  -12.3960   18.3860 C   0  0  0  0  0  2  0  0  0  0  0  0
  -27.6100  -13.2480   19.6350 C   0  0  0  0  0  3  0  0  0  0  0  0
  -28.6940  -13.0950   20.7330 C   0  0  0  0  0  2  0  0  0  0  0  0
  -29.9840  -13.4620   20.1340 N   0  0  0  0  0  0  0  0  0  0  0  0
  -31.8360  -14.6830   19.7730 O   0  0  0  0  0  0  0  0  0  0  0  0
  -31.0260  -18.1860   20.7650 C   0  0  0  0  0  2  0  0  0  0  0  0
  -31.1560  -16.7880   21.4590 C   0  0  0  0  0  2  0  0  0  0  0  0
  -28.8510  -16.2890   21.0650 C   0  0  0  0  0  2  0  0  0  0  0  0
  -28.6240  -17.6480   20.3250 C   0  0  0  0  0  3  0  0  0  0  0  0
  -29.5880  -18.7760   20.8140 C   0  0  0  0  0  3  0  0  0  0  0  0
  -30.2270  -15.7530   20.9290 N   0  0  0  0  0  0  0  0  0  0  0  0
  -25.2330  -13.8550   20.4010 C   0  0  0  0  0  0  0  0  0  0  0  0
  -24.1770  -13.0820   20.8010 C   0  0  0  0  0  0  0  0  0  0  0  0
  -24.6430  -11.7310   20.7680 C   0  0  0  0  0  0  0  0  0  0  0  0
  -26.2730  -12.9740   20.1500 N   0  0  0  0  0  0  0  0  0  0  0  0
  -25.9260  -11.6940   20.4340 N   0  0  0  0  0  0  0  0  0  0  0  0
  -23.9260  -10.4680   20.9750 C   0  0  0  0  0  0  0  0  0  0  0  0
  -24.3760   -9.5110   21.9110 C   0  0  0  0  0  3  0  0  0  0  0  0
  -23.6590   -8.3110   22.1070 C   0  0  0  0  0  3  0  0  0  0  0  0
  -22.4800   -8.0590   21.3660 C   0  0  0  0  0  0  0  0  0  0  0  0
  -22.0510   -9.0050   20.4180 C   0  0  0  0  0  3  0  0  0  0  0  0
  -22.7670  -10.1980   20.2210 C   0  0  0  0  0  3  0  0  0  0  0  0
  -21.7330   -6.9110   21.4700 O   0  0  0  0  0  0  0  0  0  0  0  0
  -21.6950   -6.1810   22.6300 C   0  0  0  0  0  0  0  0  0  0  0  0
  -21.2710   -6.7440   23.8540 C   0  0  0  0  0  3  0  0  0  0  0  0
  -21.1810   -5.9390   25.0070 C   0  0  0  0  0  3  0  0  0  0  0  0
  -21.5060   -4.5710   24.9380 C   0  0  0  0  0  0  0  0  0  0  0  0
  -21.9230   -4.0070   23.7190 C   0  0  0  0  0  3  0  0  0  0  0  0
  -22.0160   -4.8090   22.5680 C   0  0  0  0  0  0  0  0  0  0  0  0
  -22.3980   -4.2560   21.3930 F   0  0  0  0  0  0  0  0  0  0  0  0
  -21.4120   -3.7960   26.0430 F   0  0  0  0  0  0  0  0  0  0  0  0
  -22.7840  -13.5560   21.0960 C   0  0  0  0  0  0  0  0  0  0  0  0
  -22.0720  -12.8590   21.9750 N   0  0  0  0  0  0  0  0  0  0  0  0
  -22.3340  -14.5780   20.5800 O   0  0  0  0  0  0  0  0  0  0  0  0
  -22.4480  -12.0330   22.4150 H   0  0  0  0  0  0  0  0  0  0  0  0
  -21.1360  -13.1580   22.2120 H   0  0  0  0  0  0  0  0  0  0  0  0
  -25.3840  -15.2240   20.2060 N   0  0  0  0  0  0  0  0  0  0  0  0
  -24.6060  -15.8660   20.3140 H   0  0  0  0  0  0  0  0  0  0  0  0
  -26.2000  -15.6560   19.7900 H   0  0  0  0  0  0  0  0  0  0  0  0
  -28.7620  -17.3820   18.8970 N   0  0  0  0  0  0  0  0  0  0  0  0
  -29.7390  -17.2840   18.6400 H   0  0  0  0  0  0  0  0  0  0  0  0
  -28.3990  -18.1270   18.3160 H   0  0  0  0  0  0  0  0  0  0  0  0
  -29.0680  -21.3360   20.8260 C   0  0  0  0  0  2  0  0  0  0  0  0
  -28.9950  -22.6460   19.9370 C   0  0  0  0  0  3  0  0  0  0  0  0
  -28.1930  -22.3940   18.8990 F   0  0  0  0  0  0  0  0  0  0  0  0
  -28.5480  -24.0120   20.6070 C   0  0  0  0  0  3  0  0  0  0  0  0
  -27.3230  -23.8600   21.1180 F   0  0  0  0  0  0  0  0  0  0  0  0
  -28.5640  -25.2880   19.6710 C   0  0  0  0  0  2  0  0  0  0  0  0
  -28.4210  -26.6140   20.2860 O   0  0  0  0  0  0  0  0  0  0  0  0
  -24.5720  -31.8840   23.2500 C   0  0  0  0  0  0  0  0  0  0  0  0
  -27.2440  -27.3620   20.2260 C   0  0  0  0  0  0  0  0  0  0  0  0
  -23.3870  -30.4730   21.6040 C   0  0  0  0  0  3  0  0  0  0  0  0
  -24.8550  -28.9240   20.2000 C   0  0  0  0  0  0  0  0  0  0  0  0
  -25.9210  -30.8140   21.4370 C   0  0  0  0  0  2  0  0  0  0  0  0
  -26.0120  -29.4360   20.7980 C   0  0  0  0  0  0  0  0  0  0  0  0
  -27.2050  -28.6640   20.8020 C   0  0  0  0  0  3  0  0  0  0  0  0
  -26.0560  -26.8790   19.6290 C   0  0  0  0  0  3  0  0  0  0  0  0
  -24.8770  -27.6500   19.6100 C   0  0  0  0  0  3  0  0  0  0  0  0
  -23.6120  -29.7890   20.2290 C   0  0  0  0  0  2  0  0  0  0  0  0
  -24.6450  -31.0740   22.1540 N   0  0  0  0  0  0  0  0  0  0  0  0
  -23.4830  -32.1580   23.7750 O   0  0  0  0  0  0  0  0  0  0  0  0
  -22.7240  -29.4570   22.5630 C   0  0  0  0  0  0  0  0  0  0  0  0
  -21.3990  -29.2770   22.4300 N   0  0  0  0  0  0  0  0  0  0  0  0
  -23.4000  -28.8330   23.3860 O   0  0  0  0  0  0  0  0  0  0  0  0
  -20.9150  -29.8320   21.7380 H   0  0  0  0  0  0  0  0  0  0  0  0
  -18.0160  -28.1000   22.9240 C   0  0  0  0  0  0  0  0  0  0  0  0
  -20.5760  -28.3420   23.1970 C   0  0  0  0  0  3  0  0  0  0  0  0
  -20.6700  -26.9120   22.6170 C   0  0  0  0  0  2  0  0  0  0  0  0
  -19.5670  -26.6000   21.6010 C   0  0  0  0  0  2  0  0  0  0  0  0
  -18.1860  -26.7510   22.2440 C   0  0  0  0  0  2  0  0  0  0  0  0
  -19.1400  -28.8540   23.3570 C   0  0  0  0  0  0  0  0  0  0  0  0
  -18.9270  -30.1160   23.9510 C   0  0  0  0  0  3  0  0  0  0  0  0
  -17.6260  -30.6260   24.1160 C   0  0  0  0  0  3  0  0  0  0  0  0
  -16.5180  -29.8690   23.7000 C   0  0  0  0  0  3  0  0  0  0  0  0
  -16.7140  -28.6070   23.1100 C   0  0  0  0  0  3  0  0  0  0  0  0
  -25.8480  -32.5220   23.8800 C   0  0  0  0  0  3  0  0  0  0  0  0
  -25.5340  -33.9240   24.1930 N   0  0  0  0  0  0  0  0  0  0  0  0
  -25.8780  -34.9700   23.4320 C   0  0  0  0  0  0  0  0  0  0  0  0
  -26.5660  -34.8590   22.4120 O   0  0  0  0  0  0  0  0  0  0  0  0
  -24.9250  -34.0840   24.9820 H   0  0  0  0  0  0  0  0  0  0  0  0
  -24.1580  -36.7620   23.0340 C   0  0  0  0  0  1  0  0  0  0  0  0
  -25.3850  -36.3620   23.8700 C   0  0  0  0  0  3  0  0  0  0  0  0
  -27.5050  -37.2510   24.7330 C   0  0  0  0  0  1  0  0  0  0  0  0
  -26.4200  -37.4140   23.7700 N   0  0  0  0  0  0  0  0  0  0  0  0
  -26.0110  -38.3340   23.9040 H   0  0  0  0  0  0  0  0  0  0  0  0
  -26.3510  -31.7650   25.1700 C   0  0  1  0  0  0  0  0  0  0  0  0
  -25.2460  -31.5350   26.2270 C   0  0  0  0  0  1  0  0  0  0  0  0
  -26.9410  -30.3850   24.7980 C   0  0  0  0  0  1  0  0  0  0  0  0
  -27.4920  -32.5680   25.8390 C   0  0  0  0  0  1  0  0  0  0  0  0
  1 49  1  0
  2  1  1  0
  3  1  1  0
  4 17  1  0
  5 10  1  0
  6  7  1  0
  6  5  1  0
  8  7  1  0
  8 21  1  0
  8  9  1  0
 10  4  1  0
 10  9  1  0
 11  4  2  0
 12 16  1  0
 12 13  1  0
 15 46  1  0
 15 16  1  0
 15 14  1  0
 16  1  1  0
 17 14  1  0
 17 13  1  0
 18 19  2  0
 19 38  1  0
 20 19  1  0
 20 23  1  0
 21 18  1  0
 21 22  1  0
 22 20  2  0
 23 24  1  0
 24 25  2  0
 26 29  1  0
 26 25  1  0
 27 26  2  0
 28 27  1  0
 28 23  2  0
 29 30  1  0
 30 31  1  0
 31 32  2  0
 33 32  1  0
 33 37  1  0
 34 33  2  0
 35 30  2  0
 35 34  1  0
 36 35  1  0
 38 39  1  0
 39 42  1  0
 39 41  1  0
 40 38  2  0
 43 44  1  0
 43 18  1  0
 45 43  1  0
 47 46  1  0
 48 46  1  0
 50 51  1  0
 50 52  1  0
 50 49  1  0
 52 53  1  0
 54 55  1  0
 54 52  1  0
 56 67  2  0
 57 55  1  0
 57 62  1  0
 58 66  1  0
 58 68  1  0
 59 65  1  0
 59 61  1  0
 60 66  1  0
 61 62  2  0
 61 60  1  0
 63 57  2  0
 64 63  1  0
 64 59  2  0
 65 58  1  0
 66 56  1  0
 68 70  2  0
 69 68  1  0
 71 69  1  0
 72 81  2  0
 72 77  1  0
 73 69  1  0
 73 77  1  0
 74 73  1  0
 75 76  1  0
 75 74  1  0
 76 72  1  0
 77 78  2  0
 78 79  1  0
 80 79  2  0
 81 80  1  0
 82 56  1  0
 82 83  1  0
 82 92  1  0
 83 86  1  0
 84 88  1  0
 84 83  1  0
 85 84  2  0
 88 87  1  0
 90 88  1  0
 90 91  1  0
 90 89  1  0
 92 95  1  1
 92 93  1  0
 94 92  1  0
M  ISO  4   4 100  17 100  54 101  55 101
M  END
>  <TORSDO>  (97) 
F 21

>  <SCORE>  (97) 
-13.896

>  <name>  (97) 
99

>  <ligand_id>  (97) 
99

>  <original_smiles>  (97) 
[H]c1c([H])c([H])c2c(c1[H])C([H])([H])C([H])([H])C([H])([H])C2([H])N([H])C(=O)C1([H])N(C(=O)C([H])(N([H])C(=O)C([H])(N([H])C([H])([H])[H])C([H])([H])[H])C(C([H])([H])[H])(C([H])([H])[H])C([H])([H])[H])C([H])([H])c2c([H])c(OC([H])([H])C([H])(F)C([H])(F)C([H])([H])[N+]([H])([H])C3([H])C([H])([H])C([H])([H])N(C(=O)N4C([H])([H])C([H])([H])C([H])([H])C([H])(n5nc(-c6c([H])c([H])c(Oc7c([H])c([H])c(F)c([H])c7F)c([H])c6[H])c(C(=O)N([H])[H])c5N([H])[H])C4([H])[H])C([H])([H])C3([H])N([H])[H])c([H])c([H])c2C1([H])[H]

>  <smiles>  (97) 
[H]c1c([H])c([H])c2c(c1[H])C([H])([H])C([H])([H])C([H])([H])C2([H])N([H])C(=O)C1([H])N(C(=O)C([H])(N([H])C(=O)C([H])(N([H])C([H])([H])[H])C([H])([H])[H])C(C([H])([H])[H])(C([H])([H])[H])C([H])([H])[H])C([H])([H])c2c([H])c(OC([H])([H])C([H])(F)C([H])(F)C([H])([H])[N+]([H])([H])C3([H])C([H])([H])C([H])([H])N(C(=O)N4C([H])([H])C([H])([H])C([H])([H])C([H])(n5nc(-c6c([H])c([H])c(Oc7c([H])c([H])c(F)c([H])c7F)c([H])c6[H])c(C(=O)N([H])[H])c5N([H])[H])C4([H])[H])C([H])([H])C3([H])N([H])[H])c([H])c([H])c2C1([H])[H]

$$$$
