0:0:0
     RDKit          3D

 91 99  0  0  1  0  0  0  0  0999 V2000
  -27.3830  -20.7710   19.0740 C   0  0  0  0  0  2  0  0  0  0  0  0
  -27.8530  -22.0120   19.8540 C   0  0  0  0  0  2  0  0  0  0  0  0
  -28.0310  -23.2700   18.9860 C   0  0  0  0  0  2  0  0  0  0  0  0
  -28.2930  -24.5000   19.8670 C   0  0  0  0  0  2  0  0  0  0  0  0
  -28.6150  -25.7790   19.0930 C   0  0  0  0  0  2  0  0  0  0  0  0
  -28.4580  -26.8870   19.9740 O   0  0  0  0  0  0  0  0  0  0  0  0
  -24.5970  -31.8890   23.2210 C   0  0  0  0  0  0  0  0  0  0  0  0
  -27.2330  -27.5140   20.0410 C   0  0  0  0  0  0  0  0  0  0  0  0
  -23.3700  -30.4910   21.5900 C   0  0  0  0  0  3  0  0  0  0  0  0
  -24.8090  -28.9620   20.1440 C   0  0  0  0  0  0  0  0  0  0  0  0
  -25.8900  -30.8630   21.3560 C   0  0  0  0  0  2  0  0  0  0  0  0
  -25.9690  -29.4940   20.7170 C   0  0  0  0  0  0  0  0  0  0  0  0
  -27.1790  -28.7710   20.6760 C   0  0  0  0  0  3  0  0  0  0  0  0
  -26.0440  -26.9770   19.4860 C   0  0  0  0  0  3  0  0  0  0  0  0
  -24.8390  -27.6970   19.5350 C   0  0  0  0  0  3  0  0  0  0  0  0
  -23.5600  -29.8090   20.2090 C   0  0  0  0  0  2  0  0  0  0  0  0
  -24.6390  -31.0950   22.1150 N   0  0  0  0  0  0  0  0  0  0  0  0
  -23.5220  -32.1560   23.7750 O   0  0  0  0  0  0  0  0  0  0  0  0
  -22.7320  -29.4680   22.5520 C   0  0  0  0  0  0  0  0  0  0  0  0
  -21.4080  -29.2840   22.4350 N   0  0  0  0  0  0  0  0  0  0  0  0
  -23.4270  -28.8400   23.3560 O   0  0  0  0  0  0  0  0  0  0  0  0
  -20.9100  -29.8470   21.7580 H   0  0  0  0  0  0  0  0  0  0  0  0
  -18.0470  -28.0750   22.9490 C   0  0  0  0  0  0  0  0  0  0  0  0
  -20.6040  -28.3430   23.2090 C   0  0  0  0  0  3  0  0  0  0  0  0
  -20.7080  -26.9130   22.6320 C   0  0  0  0  0  2  0  0  0  0  0  0
  -19.6030  -26.5870   21.6200 C   0  0  0  0  0  2  0  0  0  0  0  0
  -18.2230  -26.7270   22.2700 C   0  0  0  0  0  2  0  0  0  0  0  0
  -19.1630  -28.8410   23.3760 C   0  0  0  0  0  0  0  0  0  0  0  0
  -18.9450  -30.1040   23.9670 C   0  0  0  0  0  3  0  0  0  0  0  0
  -17.6390  -30.6000   24.1470 C   0  0  0  0  0  3  0  0  0  0  0  0
  -16.5360  -29.8320   23.7340 C   0  0  0  0  0  3  0  0  0  0  0  0
  -16.7400  -28.5720   23.1450 C   0  0  0  0  0  3  0  0  0  0  0  0
  -25.8910  -32.5170   23.8260 C   0  0  0  0  0  3  0  0  0  0  0  0
  -26.4320  -31.7340   25.0840 C   0  0  1  0  0  0  0  0  0  0  0  0
  -25.3610  -31.4770   26.1690 C   0  0  0  0  0  1  0  0  0  0  0  0
  -27.0170  -30.3650   24.6660 C   0  0  0  0  0  1  0  0  0  0  0  0
  -27.5950  -32.5200   25.7340 C   0  0  0  0  0  1  0  0  0  0  0  0
  -25.5840  -33.9100   24.1750 N   0  0  0  0  0  0  0  0  0  0  0  0
  -25.9110  -34.9710   23.4240 C   0  0  0  0  0  0  0  0  0  0  0  0
  -26.5730  -34.8780   22.3860 O   0  0  0  0  0  0  0  0  0  0  0  0
  -24.9900  -34.0560   24.9780 H   0  0  0  0  0  0  0  0  0  0  0  0
  -24.1750  -36.7670   23.0970 C   0  0  0  0  0  1  0  0  0  0  0  0
  -25.4230  -36.3530   23.8960 C   0  0  0  0  0  3  0  0  0  0  0  0
  -27.5620  -37.2310   24.7220 C   0  0  0  0  0  1  0  0  0  0  0  0
  -26.4530  -37.4100   23.7880 N   0  0  0  0  0  0  0  0  0  0  0  0
  -26.0460  -38.3250   23.9530 H   0  0  0  0  0  0  0  0  0  0  0  0
  -27.0860  -19.5530   19.9760 C   0  0  0  0  0  2  0  0  0  0  0  0
  -28.2970  -18.9560   20.5930 N   0  0  0  0  0  4  0  0  0  0  0  0
  -29.1070  -19.5190   20.3780 H   0  0  0  0  0  0  0  0  0  0  0  0
  -28.1580  -18.9920   21.5900 H   0  0  0  0  0  0  0  0  0  0  0  0
  -30.7430  -14.6290   20.7620 C   0  0  0  0  0  0  0  0  0  0  0  0
  -30.6190  -12.3590   19.8660 C   0  0  0  0  0  2  0  0  0  0  0  0
  -29.7770  -12.4320   18.5760 C   0  0  0  0  0  2  0  0  0  0  0  0
  -28.2640  -12.3590   18.8900 C   0  0  0  0  0  2  0  0  0  0  0  0
  -27.8070  -13.2460   20.0850 C   0  0  0  0  0  3  0  0  0  0  0  0
  -28.7910  -13.1370   21.2740 C   0  0  0  0  0  2  0  0  0  0  0  0
  -30.1400  -13.4140   20.7630 N   0  0  0  0  0  0  0  0  0  0  0  0
  -31.9610  -14.7890   20.6410 O   0  0  0  0  0  0  0  0  0  0  0  0
  -29.1530  -17.3590   18.8330 C   0  0  0  0  0  2  0  0  0  0  0  0
  -29.8280  -15.9860   18.9170 C   0  0  0  0  0  2  0  0  0  0  0  0
  -29.5210  -16.7770   21.1370 C   0  0  0  0  0  2  0  0  0  0  0  0
  -28.5490  -17.5450   20.2220 C   0  0  0  0  0  3  0  0  0  0  0  0
  -29.9030  -15.6090   20.3460 N   0  0  0  0  0  0  0  0  0  0  0  0
  -25.3600  -13.8330   20.6100 C   0  0  0  0  0  0  0  0  0  0  0  0
  -24.2790  -13.0550   20.9220 C   0  0  0  0  0  0  0  0  0  0  0  0
  -24.7650  -11.7140   20.9690 C   0  0  0  0  0  0  0  0  0  0  0  0
  -26.4310  -12.9640   20.4810 N   0  0  0  0  0  0  0  0  0  0  0  0
  -26.0740  -11.6850   20.7630 N   0  0  0  0  0  0  0  0  0  0  0  0
  -24.0510  -10.4450   21.1340 C   0  0  0  0  0  0  0  0  0  0  0  0
  -24.4530   -9.4930   22.0970 C   0  0  0  0  0  3  0  0  0  0  0  0
  -23.7300   -8.2900   22.2470 C   0  0  0  0  0  3  0  0  0  0  0  0
  -22.6010   -8.0320   21.4360 C   0  0  0  0  0  0  0  0  0  0  0  0
  -22.2300   -8.9700   20.4560 C   0  0  0  0  0  3  0  0  0  0  0  0
  -22.9470  -10.1640   20.3020 C   0  0  0  0  0  3  0  0  0  0  0  0
  -21.8540   -6.8810   21.4930 O   0  0  0  0  0  0  0  0  0  0  0  0
  -21.7710   -6.1360   22.6430 C   0  0  0  0  0  0  0  0  0  0  0  0
  -21.3070   -6.6900   23.8550 C   0  0  0  0  0  3  0  0  0  0  0  0
  -21.1690   -5.8740   24.9950 C   0  0  0  0  0  3  0  0  0  0  0  0
  -21.4900   -4.5040   24.9240 C   0  0  0  0  0  0  0  0  0  0  0  0
  -21.9500   -3.9500   23.7130 C   0  0  0  0  0  3  0  0  0  0  0  0
  -22.0860   -4.7660   22.5770 C   0  0  0  0  0  0  0  0  0  0  0  0
  -22.5080   -4.2210   21.4100 F   0  0  0  0  0  0  0  0  0  0  0  0
  -21.3510   -3.7180   26.0170 F   0  0  0  0  0  0  0  0  0  0  0  0
  -22.8590  -13.5150   21.0660 C   0  0  0  0  0  0  0  0  0  0  0  0
  -22.0810  -12.8330   21.8980 N   0  0  0  0  0  0  0  0  0  0  0  0
  -22.4440  -14.5160   20.4820 O   0  0  0  0  0  0  0  0  0  0  0  0
  -22.4220  -12.0230   22.3930 H   0  0  0  0  0  0  0  0  0  0  0  0
  -21.1210  -13.1120   22.0340 H   0  0  0  0  0  0  0  0  0  0  0  0
  -25.5050  -15.2010   20.3910 N   0  0  0  0  0  0  0  0  0  0  0  0
  -24.7120  -15.8340   20.3670 H   0  0  0  0  0  0  0  0  0  0  0  0
  -26.3540  -15.6000   20.0220 H   0  0  0  0  0  0  0  0  0  0  0  0
  1  2  1  0
  1 47  1  0
  3  2  1  0
  3  4  1  0
  5  4  1  0
  5  6  1  0
  6  8  1  0
  7 18  2  0
  8 13  1  0
  9 17  1  0
  9 19  1  0
 10 16  1  0
 10 12  1  0
 11 17  1  0
 12 11  1  0
 13 12  2  0
 14 15  1  0
 14  8  2  0
 15 10  2  0
 16  9  1  0
 17  7  1  0
 19 21  2  0
 20 19  1  0
 22 20  1  0
 23 32  2  0
 23 28  1  0
 24 20  1  0
 24 28  1  0
 25 24  1  0
 26 27  1  0
 26 25  1  0
 27 23  1  0
 28 29  2  0
 29 30  1  0
 31 30  2  0
 32 31  1  0
 33  7  1  0
 33 38  1  0
 33 34  1  0
 34 37  1  1
 34 35  1  0
 36 34  1  0
 38 41  1  0
 39 43  1  0
 39 38  1  0
 40 39  2  0
 43 42  1  0
 45 43  1  0
 45 46  1  0
 45 44  1  0
 47 48  1  0
 48 50  1  0
 49 48  1  0
 51 57  1  0
 52 57  1  0
 53 54  1  0
 53 52  1  0
 55 54  1  0
 55 67  1  0
 55 56  1  0
 57 56  1  0
 58 51  2  0
 59 60  1  0
 59 62  1  0
 60 63  1  0
 62 48  1  0
 62 61  1  0
 63 51  1  0
 63 61  1  0
 64 65  2  0
 65 66  1  0
 65 84  1  0
 66 69  1  0
 67 64  1  0
 67 68  1  0
 68 66  2  0
 69 70  1  0
 70 71  2  0
 72 75  1  0
 72 71  1  0
 73 72  2  0
 74 73  1  0
 74 69  2  0
 75 76  1  0
 76 77  1  0
 77 78  2  0
 79 78  1  0
 79 83  1  0
 80 79  2  0
 81 76  2  0
 81 80  1  0
 82 81  1  0
 84 85  1  0
 85 88  1  0
 85 87  1  0
 86 84  2  0
 89 64  1  0
 90 89  1  0
 91 89  1  0
M  ISO  4   5 101   6 101  51 100  63 100
M  END
>  <TORSDO>  (1) 
F 22

>  <SCORE>  (1) 
-12.563

>  <name>  (1) 
0

>  <ligand_id>  (1) 
0

>  <original_smiles>  (1) 
[H]c1c([H])c([H])c2c(c1[H])C([H])([H])C([H])([H])C([H])([H])C2([H])N([H])C(=O)C1([H])N(C(=O)C([H])(N([H])C(=O)C([H])(N([H])C([H])([H])[H])C([H])([H])[H])C(C([H])([H])[H])(C([H])([H])[H])C([H])([H])[H])C([H])([H])c2c([H])c(OC([H])([H])C([H])([H])C([H])([H])C([H])([H])C([H])([H])C([H])([H])[N+]([H])([H])C3([H])C([H])([H])N(C(=O)N4C([H])([H])C([H])([H])C([H])([H])C([H])(n5nc(-c6c([H])c([H])c(Oc7c([H])c([H])c(F)c([H])c7F)c([H])c6[H])c(C(=O)N([H])[H])c5N([H])[H])C4([H])[H])C([H])([H])C3([H])[H])c([H])c([H])c2C1([H])[H]

>  <smiles>  (1) 
[H]c1c([H])c([H])c2c(c1[H])C([H])([H])C([H])([H])C([H])([H])C2([H])N([H])C(=O)C1([H])N(C(=O)C([H])(N([H])C(=O)C([H])(N([H])C([H])([H])[H])C([H])([H])[H])C(C([H])([H])[H])(C([H])([H])[H])C([H])([H])[H])C([H])([H])c2c([H])c(OC([H])([H])C([H])([H])C([H])([H])C([H])([H])C([H])([H])C([H])([H])[N+]([H])([H])C3([H])C([H])([H])N(C(=O)N4C([H])([H])C([H])([H])C([H])([H])C([H])(n5nc(-c6c([H])c([H])c(Oc7c([H])c([H])c(F)c([H])c7F)c([H])c6[H])c(C(=O)N([H])[H])c5N([H])[H])C4([H])[H])C([H])([H])C3([H])[H])c([H])c([H])c2C1([H])[H]

$$$$
1:0:0
     RDKit          3D

 95103  0  0  1  0  0  0  0  0999 V2000
  -31.3120  -20.5630    7.4970 N   0  0  0  0  0  4  0  0  0  0  0  0
  -30.6310  -20.1500    8.1140 H   0  0  0  0  0  0  0  0  0  0  0  0
  -31.1250  -20.1950    6.5810 H   0  0  0  0  0  0  0  0  0  0  0  0
  -32.6690  -20.1310    7.8650 C   0  0  0  0  0  2  0  0  0  0  0  0
  -32.6390  -19.2970    9.1560 C   0  0  0  0  0  2  0  0  0  0  0  0
  -30.8240  -19.7060   10.8600 C   0  0  0  0  0  3  0  0  0  0  0  0
  -32.6390  -21.3340   10.6250 C   0  0  0  0  0  3  0  0  0  0  0  0
  -30.2080  -20.5260   11.8150 C   0  0  0  0  0  3  0  0  0  0  0  0
  -32.0180  -22.1600   11.5690 C   0  0  0  0  0  3  0  0  0  0  0  0
  -32.0310  -20.1140   10.2630 C   0  0  0  0  0  0  0  0  0  0  0  0
  -30.8070  -21.7470   12.1720 C   0  0  0  0  0  0  0  0  0  0  0  0
  -30.8160  -23.2280   14.0650 C   0  0  0  0  0  0  0  0  0  0  0  0
  -32.0310  -23.1780   16.2010 C   0  0  0  0  0  2  0  0  0  0  0  0
  -33.5420  -22.9660   16.0220 C   0  0  0  0  0  2  0  0  0  0  0  0
  -33.8790  -21.4630   15.9730 C   0  0  0  0  0  2  0  0  0  0  0  0
  -32.9970  -20.6930   14.9600 C   0  0  0  0  0  3  0  0  0  0  0  0
  -31.5060  -21.0410   15.1680 C   0  0  0  0  0  2  0  0  0  0  0  0
  -31.3460  -22.5110   15.0900 N   0  0  0  0  0  0  0  0  0  0  0  0
  -30.8820  -24.4570   13.9690 O   0  0  0  0  0  0  0  0  0  0  0  0
  -30.1570  -22.5320   13.1440 N   0  0  0  0  0  0  0  0  0  0  0  0
  -29.3150  -22.9730   12.8080 H   0  0  0  0  0  0  0  0  0  0  0  0
  -33.6830  -18.3840   14.0360 C   0  0  0  0  0  0  0  0  0  0  0  0
  -33.8230  -17.1650   14.6370 C   0  0  0  0  0  0  0  0  0  0  0  0
  -33.4660  -17.3610   16.0050 C   0  0  0  0  0  0  0  0  0  0  0  0
  -33.2420  -19.2530   15.0250 N   0  0  0  0  0  0  0  0  0  0  0  0
  -33.0690  -18.6100   16.2080 N   0  0  0  0  0  0  0  0  0  0  0  0
  -33.5340  -16.4440   17.1480 C   0  0  0  0  0  0  0  0  0  0  0  0
  -32.3740  -15.8330   17.6740 C   0  0  0  0  0  3  0  0  0  0  0  0
  -32.4670  -14.9430   18.7630 C   0  0  0  0  0  3  0  0  0  0  0  0
  -33.7290  -14.6530   19.3360 C   0  0  0  0  0  0  0  0  0  0  0  0
  -34.8790  -15.2790   18.8220 C   0  0  0  0  0  3  0  0  0  0  0  0
  -34.7840  -16.1700   17.7410 C   0  0  0  0  0  3  0  0  0  0  0  0
  -33.9120  -13.8170   20.4100 O   0  0  0  0  0  0  0  0  0  0  0  0
  -33.6330  -12.4770   20.3370 C   0  0  0  0  0  0  0  0  0  0  0  0
  -34.5030  -11.5680   19.6960 C   0  0  0  0  0  3  0  0  0  0  0  0
  -34.2120  -10.1890   19.7020 C   0  0  0  0  0  3  0  0  0  0  0  0
  -33.0610   -9.7150   20.3590 C   0  0  0  0  0  0  0  0  0  0  0  0
  -32.1960  -10.6170   21.0020 C   0  0  0  0  0  3  0  0  0  0  0  0
  -32.4830  -11.9930   20.9940 C   0  0  0  0  0  0  0  0  0  0  0  0
  -31.6550  -12.8550   21.6330 F   0  0  0  0  0  0  0  0  0  0  0  0
  -32.7850   -8.3900   20.3720 F   0  0  0  0  0  0  0  0  0  0  0  0
  -34.3500  -15.9080   14.0030 C   0  0  0  0  0  0  0  0  0  0  0  0
  -33.6010  -14.8160   14.0870 N   0  0  0  0  0  0  0  0  0  0  0  0
  -35.4100  -15.9030   13.3800 O   0  0  0  0  0  0  0  0  0  0  0  0
  -32.7170  -14.8250   14.5730 H   0  0  0  0  0  0  0  0  0  0  0  0
  -33.9220  -13.9590   13.6580 H   0  0  0  0  0  0  0  0  0  0  0  0
  -33.9030  -18.8170   12.7340 N   0  0  0  0  0  0  0  0  0  0  0  0
  -34.2180  -18.1770   12.0150 H   0  0  0  0  0  0  0  0  0  0  0  0
  -33.6180  -19.7190   12.3750 H   0  0  0  0  0  0  0  0  0  0  0  0
  -31.1380  -22.0270    7.3970 C   0  0  0  0  0  2  0  0  0  0  0  0
  -31.8920  -22.6400    6.2070 C   0  0  0  0  0  2  0  0  0  0  0  0
  -32.9510  -23.7500    6.4720 C   0  0  0  0  0  2  0  0  0  0  0  0
  -32.8620  -24.4120    7.8850 C   0  0  0  0  0  2  0  0  0  0  0  0
  -32.7100  -25.9310    7.7900 C   0  0  0  0  0  2  0  0  0  0  0  0
  -32.9980  -26.7490    8.9150 O   0  0  0  0  0  0  0  0  0  0  0  0
  -30.0620  -30.0860   14.4350 C   0  0  0  0  0  0  0  0  0  0  0  0
  -31.9030  -27.4720    9.3600 C   0  0  0  0  0  0  0  0  0  0  0  0
  -28.5530  -29.6620   12.5270 C   0  0  0  0  0  3  0  0  0  0  0  0
  -29.6800  -28.8920   10.3840 C   0  0  0  0  0  0  0  0  0  0  0  0
  -31.0670  -29.9620   12.1610 C   0  0  0  0  0  2  0  0  0  0  0  0
  -30.9440  -29.0420   10.9690 C   0  0  0  0  0  0  0  0  0  0  0  0
  -32.0600  -28.3500   10.4520 C   0  0  0  0  0  3  0  0  0  0  0  0
  -30.6090  -27.3520    8.7780 C   0  0  0  0  0  3  0  0  0  0  0  0
  -29.5040  -28.0430    9.2870 C   0  0  0  0  0  3  0  0  0  0  0  0
  -28.5420  -29.6870   10.9800 C   0  0  0  0  0  2  0  0  0  0  0  0
  -29.9210  -29.8840   13.0960 N   0  0  0  0  0  0  0  0  0  0  0  0
  -29.0760  -30.1250   15.1850 O   0  0  0  0  0  0  0  0  0  0  0  0
  -27.9020  -28.3440   12.9990 C   0  0  0  0  0  0  0  0  0  0  0  0
  -26.8280  -28.4680   13.7960 N   0  0  0  0  0  0  0  0  0  0  0  0
  -28.3450  -27.2520   12.6360 O   0  0  0  0  0  0  0  0  0  0  0  0
  -26.5130  -29.4030   14.0150 H   0  0  0  0  0  0  0  0  0  0  0  0
  -24.1590  -27.6430   16.0930 C   0  0  0  0  0  0  0  0  0  0  0  0
  -26.0420  -27.3640   14.3400 C   0  0  0  0  0  3  0  0  0  0  0  0
  -24.9310  -26.9550   13.3490 C   0  0  0  0  0  2  0  0  0  0  0  0
  -23.5980  -27.6620   13.6320 C   0  0  0  0  0  2  0  0  0  0  0  0
  -23.1030  -27.3430   15.0460 C   0  0  0  0  0  2  0  0  0  0  0  0
  -25.5400  -27.6660   15.7590 C   0  0  0  0  0  0  0  0  0  0  0  0
  -26.4810  -27.9810   16.7650 C   0  0  0  0  0  3  0  0  0  0  0  0
  -26.0620  -28.2680   18.0770 C   0  0  0  0  0  3  0  0  0  0  0  0
  -24.6920  -28.2380   18.4000 C   0  0  0  0  0  3  0  0  0  0  0  0
  -23.7460  -27.9200   17.4130 C   0  0  0  0  0  3  0  0  0  0  0  0
  -31.4610  -30.3010   15.0860 C   0  0  0  0  0  3  0  0  0  0  0  0
  -31.3420  -31.4350   16.0100 N   0  0  0  0  0  0  0  0  0  0  0  0
  -32.2310  -32.4350   16.1030 C   0  0  0  0  0  0  0  0  0  0  0  0
  -33.2840  -32.4570   15.4610 O   0  0  0  0  0  0  0  0  0  0  0  0
  -30.4740  -31.5140   16.5190 H   0  0  0  0  0  0  0  0  0  0  0  0
  -31.7800  -34.9060   16.2670 C   0  0  0  0  0  1  0  0  0  0  0  0
  -31.8970  -33.5950   17.0620 C   0  0  0  0  0  3  0  0  0  0  0  0
  -33.0250  -32.5730   18.9870 C   0  0  0  0  0  1  0  0  0  0  0  0
  -32.8860  -33.7600   18.1500 N   0  0  0  0  0  0  0  0  0  0  0  0
  -32.6400  -34.5450   18.7470 H   0  0  0  0  0  0  0  0  0  0  0  0
  -31.9990  -29.0220   15.8380 C   0  0  1  0  0  0  0  0  0  0  0  0
  -31.6670  -29.0010   17.3480 C   0  0  0  0  0  1  0  0  0  0  0  0
  -31.4170  -27.7340   15.2090 C   0  0  0  0  0  1  0  0  0  0  0  0
  -33.5360  -28.9330   15.6900 C   0  0  0  0  0  1  0  0  0  0  0  0
  1  4  1  0
  1  2  1  0
  3  1  1  0
  4  5  1  0
  5 10  1  0
  6  8  1  0
  7  9  2  0
  8 11  2  0
  9 11  1  0
 10  7  1  0
 10  6  2  0
 11 20  1  0
 12 18  1  0
 14 13  1  0
 15 14  1  0
 16 25  1  0
 16 17  1  0
 16 15  1  0
 18 17  1  0
 18 13  1  0
 19 12  2  0
 20 12  1  0
 21 20  1  0
 22 23  2  0
 22 25  1  0
 23 24  1  0
 24 26  2  0
 24 27  1  0
 25 26  1  0
 27 28  2  0
 27 32  1  0
 28 29  1  0
 29 30  2  0
 30 33  1  0
 31 30  1  0
 32 31  2  0
 34 33  1  0
 34 39  1  0
 35 36  1  0
 35 34  2  0
 36 37  2  0
 37 41  1  0
 37 38  1  0
 39 38  2  0
 39 40  1  0
 42 43  1  0
 42 23  1  0
 43 45  1  0
 44 42  2  0
 46 43  1  0
 47 22  1  0
 48 47  1  0
 49 47  1  0
 50  1  1  0
 51 52  1  0
 51 50  1  0
 52 53  1  0
 54 53  1  0
 54 55  1  0
 55 57  1  0
 56 67  2  0
 57 62  1  0
 58 68  1  0
 58 66  1  0
 59 61  1  0
 59 65  1  0
 60 66  1  0
 61 60  1  0
 62 61  2  0
 63 64  1  0
 63 57  2  0
 64 59  2  0
 65 58  1  0
 66 56  1  0
 68 69  1  0
 69 71  1  0
 70 68  2  0
 72 81  1  0
 73 69  1  0
 73 77  1  0
 74 75  1  0
 74 73  1  0
 75 76  1  0
 76 72  1  0
 77 72  2  0
 77 78  1  0
 78 79  2  0
 79 80  1  0
 81 80  2  0
 82 56  1  0
 82 92  1  0
 82 83  1  0
 83 84  1  0
 83 86  1  0
 84 88  1  0
 85 84  2  0
 88 87  1  0
 88 90  1  0
 90 91  1  0
 90 89  1  0
 92 93  1  1
 94 92  1  0
 95 92  1  0
M  ISO  4  12 100  20 100  54 101  55 101
M  END
>  <TORSDO>  (2) 
F 24

>  <SCORE>  (2) 
-4.440

>  <name>  (2) 
1

>  <ligand_id>  (2) 
1

>  <original_smiles>  (2) 
[H]c1c([H])c([H])c2c(c1[H])C([H])([H])C([H])([H])C([H])([H])C2([H])N([H])C(=O)C1([H])N(C(=O)C([H])(N([H])C(=O)C([H])(N([H])C([H])([H])[H])C([H])([H])[H])C(C([H])([H])[H])(C([H])([H])[H])C([H])([H])[H])C([H])([H])c2c([H])c(OC([H])([H])C([H])([H])C([H])([H])C([H])([H])C([H])([H])[N+]([H])([H])C([H])([H])C([H])([H])c3c([H])c([H])c(N([H])C(=O)N4C([H])([H])C([H])([H])C([H])([H])C([H])(n5nc(-c6c([H])c([H])c(Oc7c([H])c([H])c(F)c([H])c7F)c([H])c6[H])c(C(=O)N([H])[H])c5N([H])[H])C4([H])[H])c([H])c3[H])c([H])c([H])c2C1([H])[H]

>  <smiles>  (2) 
[H]c1c([H])c([H])c2c(c1[H])C([H])([H])C([H])([H])C([H])([H])C2([H])N([H])C(=O)C1([H])N(C(=O)C([H])(N([H])C(=O)C([H])(N([H])C([H])([H])[H])C([H])([H])[H])C(C([H])([H])[H])(C([H])([H])[H])C([H])([H])[H])C([H])([H])c2c([H])c(OC([H])([H])C([H])([H])C([H])([H])C([H])([H])C([H])([H])[N+]([H])([H])C([H])([H])C([H])([H])c3c([H])c([H])c(N([H])C(=O)N4C([H])([H])C([H])([H])C([H])([H])C([H])(n5nc(-c6c([H])c([H])c(Oc7c([H])c([H])c(F)c([H])c7F)c([H])c6[H])c(C(=O)N([H])[H])c5N([H])[H])C4([H])[H])c([H])c3[H])c([H])c([H])c2C1([H])[H]

$$$$
2:0:0
     RDKit          3D

101110  0  0  1  0  0  0  0  0999 V2000
  -27.7280  -22.2910   18.5530 C   0  0  0  0  0  2  0  0  0  0  0  0
  -27.3280  -24.3230   20.9070 C   0  0  0  0  0  2  0  0  0  0  0  0
  -27.4920  -23.5380   17.6790 C   0  0  0  0  0  2  0  0  0  0  0  0
  -26.5220  -24.7020   19.6400 C   0  0  0  0  0  2  0  0  0  0  0  0
  -28.7140  -22.4570   19.7490 C   0  0  0  0  0  3  0  0  0  0  0  0
  -27.8860  -22.8710   21.0150 C   0  0  0  0  0  3  0  0  0  0  0  0
  -27.3830  -24.8210   18.4280 N   0  0  2  0  0  4  0  0  0  0  0  0
  -28.3030  -25.0610   18.7630 H   0  0  0  0  0  0  0  0  0  0  0  0
  -28.6280  -22.7370   22.2920 N   0  0  0  0  0  4  0  0  0  0  0  0
  -29.4440  -23.3230   22.3330 H   0  0  0  0  0  0  0  0  0  0  0  0
  -28.9000  -21.7880   22.4720 H   0  0  0  0  0  0  0  0  0  0  0  0
  -28.0310  -23.0040   23.0580 H   0  0  0  0  0  0  0  0  0  0  0  0
  -29.5490  -21.1510   19.8850 C   0  0  0  0  0  2  0  0  0  0  0  0
  -30.6610  -21.1170   18.8970 N   0  0  0  0  0  4  0  0  0  0  0  0
  -30.3250  -21.5330   18.0450 H   0  0  0  0  0  0  0  0  0  0  0  0
  -31.4380  -21.6830   19.2060 H   0  0  0  0  0  0  0  0  0  0  0  0
  -33.3840  -17.1140   19.6330 C   0  0  0  0  0  0  0  0  0  0  0  0
  -33.4320  -14.6660   19.6280 C   0  0  0  0  0  2  0  0  0  0  0  0
  -32.6320  -14.1780   18.4000 C   0  0  0  0  0  2  0  0  0  0  0  0
  -31.1300  -14.0540   18.7270 C   0  0  0  0  0  2  0  0  0  0  0  0
  -30.5580  -15.3060   19.4460 C   0  0  0  0  0  3  0  0  0  0  0  0
  -31.4920  -15.7450   20.6010 C   0  0  0  0  0  2  0  0  0  0  0  0
  -32.8400  -15.9400   20.0460 N   0  0  0  0  0  0  0  0  0  0  0  0
  -34.5850  -17.2400   19.3770 O   0  0  0  0  0  0  0  0  0  0  0  0
  -32.2260  -19.7570   17.4710 C   0  0  0  0  0  2  0  0  0  0  0  0
  -32.7330  -18.3200   17.5940 C   0  0  0  0  0  2  0  0  0  0  0  0
  -31.7370  -18.9630   19.6690 C   0  0  0  0  0  2  0  0  0  0  0  0
  -31.1300  -19.7710   18.5210 C   0  0  0  0  0  3  0  0  0  0  0  0
  -32.5050  -17.9130   18.9940 N   0  0  0  0  0  0  0  0  0  0  0  0
  -28.1890  -16.0080   20.1640 C   0  0  0  0  0  0  0  0  0  0  0  0
  -27.0760  -15.2780   20.4820 C   0  0  0  0  0  0  0  0  0  0  0  0
  -27.4640  -13.9070   20.3840 C   0  0  0  0  0  0  0  0  0  0  0  0
  -29.1880  -15.0830   19.9000 N   0  0  0  0  0  0  0  0  0  0  0  0
  -28.7530  -13.8120   20.0880 N   0  0  0  0  0  0  0  0  0  0  0  0
  -26.6690  -12.6750   20.4980 C   0  0  0  0  0  0  0  0  0  0  0  0
  -26.7780  -11.8270   21.6230 C   0  0  0  0  0  3  0  0  0  0  0  0
  -25.9920  -10.6580   21.7170 C   0  0  0  0  0  3  0  0  0  0  0  0
  -25.0820  -10.3310   20.6830 C   0  0  0  0  0  0  0  0  0  0  0  0
  -24.9940  -11.1640   19.5560 C   0  0  0  0  0  3  0  0  0  0  0  0
  -25.7830  -12.3230   19.4600 C   0  0  0  0  0  3  0  0  0  0  0  0
  -24.2960   -9.2070   20.6760 O   0  0  0  0  0  0  0  0  0  0  0  0
  -23.5200   -8.8650   21.7540 C   0  0  0  0  0  0  0  0  0  0  0  0
  -22.4920   -9.7090   22.2280 C   0  0  0  0  0  3  0  0  0  0  0  0
  -21.6720   -9.2880   23.2940 C   0  0  0  0  0  3  0  0  0  0  0  0
  -21.8770   -8.0250   23.8830 C   0  0  0  0  0  0  0  0  0  0  0  0
  -22.9000   -7.1840   23.4120 C   0  0  0  0  0  3  0  0  0  0  0  0
  -23.7150   -7.6010   22.3450 C   0  0  0  0  0  0  0  0  0  0  0  0
  -24.6820   -6.7770   21.8760 F   0  0  0  0  0  0  0  0  0  0  0  0
  -21.0880   -7.6170   24.9040 F   0  0  0  0  0  0  0  0  0  0  0  0
  -25.6990  -15.8150   20.7530 C   0  0  0  0  0  0  0  0  0  0  0  0
  -24.9190  -15.1120   21.5640 N   0  0  0  0  0  0  0  0  0  0  0  0
  -25.3270  -16.8920   20.2880 O   0  0  0  0  0  0  0  0  0  0  0  0
  -25.2320  -14.2380   21.9580 H   0  0  0  0  0  0  0  0  0  0  0  0
  -23.9960  -15.4520   21.7960 H   0  0  0  0  0  0  0  0  0  0  0  0
  -28.4320  -17.3740   20.0580 N   0  0  0  0  0  0  0  0  0  0  0  0
  -27.6930  -18.0560   20.1840 H   0  0  0  0  0  0  0  0  0  0  0  0
  -29.2670  -17.7630   19.6380 H   0  0  0  0  0  0  0  0  0  0  0  0
  -27.0150  -25.9650   17.5440 C   0  0  0  0  0  2  0  0  0  0  0  0
  -28.1180  -26.3280   16.5120 C   0  0  0  0  0  2  0  0  0  0  0  0
  -28.1410  -27.7950   16.0390 C   0  0  0  0  0  2  0  0  0  0  0  0
  -26.9340  -28.1470   15.3470 O   0  0  0  0  0  0  0  0  0  0  0  0
  -24.7260  -28.7270   22.0460 C   0  0  0  0  0  0  0  0  0  0  0  0
  -25.8700  -28.3440   16.1840 C   0  0  0  0  0  0  0  0  0  0  0  0
  -22.9670  -28.2980   20.3590 C   0  0  0  0  0  3  0  0  0  0  0  0
  -23.6720  -28.5810   17.9260 C   0  0  0  0  0  0  0  0  0  0  0  0
  -25.0930  -29.5690   19.7340 C   0  0  0  0  0  2  0  0  0  0  0  0
  -24.9420  -29.0050   18.3380 C   0  0  0  0  0  0  0  0  0  0  0  0
  -26.0460  -28.8930   17.4720 C   0  0  0  0  0  3  0  0  0  0  0  0
  -24.5850  -27.9530   15.7610 C   0  0  0  0  0  3  0  0  0  0  0  0
  -23.4840  -28.0540   16.6340 C   0  0  0  0  0  3  0  0  0  0  0  0
  -22.5470  -28.7230   18.9260 C   0  0  0  0  0  2  0  0  0  0  0  0
  -24.3040  -28.8450   20.7550 N   0  0  0  0  0  0  0  0  0  0  0  0
  -24.0010  -28.2150   22.9120 O   0  0  0  0  0  0  0  0  0  0  0  0
  -22.8790  -26.7590   20.4630 C   0  0  0  0  0  0  0  0  0  0  0  0
  -21.6550  -26.2200   20.3440 N   0  0  0  0  0  0  0  0  0  0  0  0
  -23.8950  -26.0770   20.6210 O   0  0  0  0  0  0  0  0  0  0  0  0
  -20.8680  -26.8450   20.2410 H   0  0  0  0  0  0  0  0  0  0  0  0
  -19.0000  -23.8240   19.8500 C   0  0  0  0  0  0  0  0  0  0  0  0
  -21.3390  -24.7920   20.3710 C   0  0  0  0  0  3  0  0  0  0  0  0
  -21.8060  -24.0960   19.0720 C   0  0  0  0  0  2  0  0  0  0  0  0
  -20.7160  -24.0180   17.9990 C   0  0  0  0  0  2  0  0  0  0  0  0
  -19.4910  -23.2650   18.5270 C   0  0  0  0  0  2  0  0  0  0  0  0
  -19.8620  -24.5530   20.7100 C   0  0  0  0  0  0  0  0  0  0  0  0
  -19.3440  -25.0810   21.9130 C   0  0  0  0  0  3  0  0  0  0  0  0
  -17.9930  -24.8920   22.2590 C   0  0  0  0  0  3  0  0  0  0  0  0
  -17.1480  -24.1530   21.4140 C   0  0  0  0  0  3  0  0  0  0  0  0
  -17.6520  -23.6190   20.2140 C   0  0  0  0  0  3  0  0  0  0  0  0
  -26.1240  -29.2560   22.5030 C   0  0  0  0  0  3  0  0  0  0  0  0
  -25.9000  -30.1990   23.6060 N   0  0  0  0  0  0  0  0  0  0  0  0
  -26.0190  -31.5300   23.5030 C   0  0  0  0  0  0  0  0  0  0  0  0
  -26.4020  -32.0900   22.4720 O   0  0  0  0  0  0  0  0  0  0  0  0
  -25.5290  -29.8100   24.4610 H   0  0  0  0  0  0  0  0  0  0  0  0
  -24.2820  -33.0300   24.5270 C   0  0  0  0  0  1  0  0  0  0  0  0
  -25.6550  -32.3730   24.7410 C   0  0  0  0  0  3  0  0  0  0  0  0
  -27.9220  -32.8570   25.5480 C   0  0  0  0  0  1  0  0  0  0  0  0
  -26.6590  -33.4100   25.0640 N   0  0  0  0  0  0  0  0  0  0  0  0
  -26.3030  -34.0490   25.7690 H   0  0  0  0  0  0  0  0  0  0  0  0
  -27.1080  -28.1030   22.9420 C   0  0  1  0  0  0  0  0  0  0  0  0
  -26.5020  -27.1320   23.9800 C   0  0  0  0  0  1  0  0  0  0  0  0
  -27.5500  -27.2710   21.7160 C   0  0  0  0  0  1  0  0  0  0  0  0
  -28.3930  -28.7160   23.5440 C   0  0  0  0  0  1  0  0  0  0  0  0
  1  5  1  0
  2  6  1  0
  3  7  1  0
  3  1  1  0
  4  2  1  0
  5 13  1  0
  5  6  1  0
  6  9  1  0
  7  8  1  1
  7  4  1  0
  9 10  1  0
  9 11  1  0
  9 12  1  0
 14 16  1  0
 14 13  1  0
 15 14  1  0
 17 23  1  0
 18 23  1  0
 19 20  1  0
 19 18  1  0
 21 20  1  0
 21 33  1  0
 21 22  1  0
 23 22  1  0
 24 17  2  0
 25 26  1  0
 25 28  1  0
 26 29  1  0
 28 14  1  0
 28 27  1  0
 29 17  1  0
 29 27  1  0
 30 31  2  0
 31 50  1  0
 32 31  1  0
 32 35  1  0
 33 34  1  0
 33 30  1  0
 34 32  2  0
 35 36  1  0
 36 37  2  0
 38 37  1  0
 39 38  2  0
 40 39  1  0
 40 35  2  0
 41 38  1  0
 41 42  1  0
 42 43  2  0
 42 47  1  0
 43 44  1  0
 44 45  2  0
 45 49  1  0
 46 45  1  0
 47 46  2  0
 48 47  1  0
 50 51  1  0
 51 54  1  0
 51 53  1  0
 52 50  2  0
 55 30  1  0
 55 56  1  0
 57 55  1  0
 58  7  1  0
 59 58  1  0
 60 59  1  0
 61 60  1  0
 61 63  1  0
 62 73  2  0
 63 68  1  0
 64 74  1  0
 64 72  1  0
 65 67  1  0
 65 71  1  0
 66 72  1  0
 67 66  1  0
 68 67  2  0
 69 63  2  0
 69 70  1  0
 70 65  2  0
 71 64  1  0
 72 62  1  0
 74 76  2  0
 75 74  1  0
 77 75  1  0
 78 87  2  0
 78 83  1  0
 79 75  1  0
 79 83  1  0
 80 79  1  0
 81 82  1  0
 81 80  1  0
 82 78  1  0
 83 84  2  0
 84 85  1  0
 86 85  2  0
 87 86  1  0
 88 62  1  0
 88 98  1  0
 88 89  1  0
 89 92  1  0
 90 89  1  0
 90 94  1  0
 91 90  2  0
 94 93  1  0
 94 96  1  0
 96 95  1  0
 96 97  1  0
 98101  1  1
 98 99  1  0
100 98  1  0
M  ISO  4  17 100  29 100  60 101  61 101
M  END
>  <TORSDO>  (3) 
F 22

>  <SCORE>  (3) 
-4.812

>  <name>  (3) 
2

>  <ligand_id>  (3) 
2

>  <original_smiles>  (3) 
[H]c1c([H])c([H])c2c(c1[H])C([H])([H])C([H])([H])C([H])([H])C2([H])N([H])C(=O)C1([H])N(C(=O)C([H])(N([H])C(=O)C([H])(N([H])C([H])([H])[H])C([H])([H])[H])C(C([H])([H])[H])(C([H])([H])[H])C([H])([H])[H])C([H])([H])c2c([H])c(OC([H])([H])C([H])([H])C([H])([H])[N+]3([H])C([H])([H])C([H])([H])C([H])(C([H])([H])[N+]([H])([H])C4([H])C([H])([H])N(C(=O)N5C([H])([H])C([H])([H])C([H])([H])C([H])(n6nc(-c7c([H])c([H])c(Oc8c([H])c([H])c(F)c([H])c8F)c([H])c7[H])c(C(=O)N([H])[H])c6N([H])[H])C5([H])[H])C([H])([H])C4([H])[H])C([H])([N+]([H])([H])[H])C([H])([H])C3([H])[H])c([H])c([H])c2C1([H])[H]

>  <smiles>  (3) 
[H]c1c([H])c([H])c2c(c1[H])C([H])([H])C([H])([H])C([H])([H])C2([H])N([H])C(=O)C1([H])N(C(=O)C([H])(N([H])C(=O)C([H])(N([H])C([H])([H])[H])C([H])([H])[H])C(C([H])([H])[H])(C([H])([H])[H])C([H])([H])[H])C([H])([H])c2c([H])c(OC([H])([H])C([H])([H])C([H])([H])[N+]3([H])C([H])([H])C([H])([H])C([H])(C([H])([H])[N+]([H])([H])C4([H])C([H])([H])N(C(=O)N5C([H])([H])C([H])([H])C([H])([H])C([H])(n6nc(-c7c([H])c([H])c(Oc8c([H])c([H])c(F)c([H])c8F)c([H])c7[H])c(C(=O)N([H])[H])c6N([H])[H])C5([H])[H])C([H])([H])C4([H])[H])C([H])([N+]([H])([H])[H])C([H])([H])C3([H])[H])c([H])c([H])c2C1([H])[H]

$$$$
3:0:0
     RDKit          3D

 98106  0  0  1  0  0  0  0  0999 V2000
  -29.2890  -20.6450   20.1390 C   0  0  0  0  0  0  0  0  0  0  0  0
  -28.2020  -20.1530   19.5210 N   0  0  0  0  0  4  0  0  0  0  0  0
  -29.3990  -21.9980   20.3620 N   0  0  0  0  0  0  0  0  0  0  0  0
  -28.0790  -19.1610   19.3750 H   0  0  0  0  0  0  0  0  0  0  0  0
  -27.4150  -20.7320   19.2660 H   0  0  0  0  0  0  0  0  0  0  0  0
  -30.1560  -22.3100   20.9610 H   0  0  0  0  0  0  0  0  0  0  0  0
  -30.9840  -17.2040   18.8510 C   0  0  0  0  0  2  0  0  0  0  0  0
  -31.0680  -18.6270   18.2970 C   0  0  0  0  0  2  0  0  0  0  0  0
  -30.0020  -18.2290   21.0180 C   0  0  0  0  0  2  0  0  0  0  0  0
  -30.4320  -19.6840   20.5360 C   0  0  0  0  0  3  0  0  0  0  0  0
  -29.9200  -17.0570   19.9620 C   0  0  0  0  0  3  0  0  0  0  0  0
  -31.5080  -19.5950   19.4100 C   0  0  0  0  0  3  0  0  0  0  0  0
  -30.6260  -14.5680   20.3660 C   0  0  0  0  0  0  0  0  0  0  0  0
  -30.3550  -12.3560   19.3160 C   0  0  0  0  0  2  0  0  0  0  0  0
  -29.4200  -12.5360   18.1010 C   0  0  0  0  0  2  0  0  0  0  0  0
  -27.9450  -12.3960   18.5270 C   0  0  0  0  0  2  0  0  0  0  0  0
  -27.5970  -13.2470   19.7770 C   0  0  0  0  0  3  0  0  0  0  0  0
  -28.6550  -13.0770   20.8930 C   0  0  0  0  0  2  0  0  0  0  0  0
  -29.9730  -13.3720   20.3140 N   0  0  0  0  0  0  0  0  0  0  0  0
  -31.8040  -14.6700   20.0260 O   0  0  0  0  0  0  0  0  0  0  0  0
  -29.8270  -15.6630   20.5310 N   0  0  0  0  0  0  0  0  0  0  0  0
  -28.9070  -15.4150   20.8650 H   0  0  0  0  0  0  0  0  0  0  0  0
  -25.2050  -13.8520   20.4970 C   0  0  0  0  0  0  0  0  0  0  0  0
  -24.1370  -13.0800   20.8700 C   0  0  0  0  0  0  0  0  0  0  0  0
  -24.5990  -11.7290   20.8410 C   0  0  0  0  0  0  0  0  0  0  0  0
  -26.2480  -12.9700   20.2620 N   0  0  0  0  0  0  0  0  0  0  0  0
  -25.8880  -11.6880   20.5290 N   0  0  0  0  0  0  0  0  0  0  0  0
  -23.8720  -10.4670   21.0330 C   0  0  0  0  0  0  0  0  0  0  0  0
  -24.3040   -9.5020   21.9690 C   0  0  0  0  0  3  0  0  0  0  0  0
  -23.5800   -8.3040   22.1490 C   0  0  0  0  0  3  0  0  0  0  0  0
  -22.4080   -8.0630   21.3930 C   0  0  0  0  0  0  0  0  0  0  0  0
  -21.9950   -9.0180   20.4470 C   0  0  0  0  0  3  0  0  0  0  0  0
  -22.7190  -10.2070   20.2650 C   0  0  0  0  0  3  0  0  0  0  0  0
  -21.6540   -6.9180   21.4820 O   0  0  0  0  0  0  0  0  0  0  0  0
  -21.6040   -6.1760   22.6360 C   0  0  0  0  0  0  0  0  0  0  0  0
  -21.1680   -6.7300   23.8590 C   0  0  0  0  0  3  0  0  0  0  0  0
  -21.0670   -5.9140   25.0040 C   0  0  0  0  0  3  0  0  0  0  0  0
  -21.3890   -4.5470   24.9260 C   0  0  0  0  0  0  0  0  0  0  0  0
  -21.8170   -3.9910   23.7070 C   0  0  0  0  0  3  0  0  0  0  0  0
  -21.9230   -4.8040   22.5650 C   0  0  0  0  0  0  0  0  0  0  0  0
  -22.3140   -4.2590   21.3870 F   0  0  0  0  0  0  0  0  0  0  0  0
  -21.2840   -3.7610   26.0240 F   0  0  0  0  0  0  0  0  0  0  0  0
  -22.7410  -13.5580   21.1420 C   0  0  0  0  0  0  0  0  0  0  0  0
  -22.0110  -12.8610   22.0070 N   0  0  0  0  0  0  0  0  0  0  0  0
  -22.3040  -14.5840   20.6230 O   0  0  0  0  0  0  0  0  0  0  0  0
  -22.3760  -12.0310   22.4490 H   0  0  0  0  0  0  0  0  0  0  0  0
  -21.0740  -13.1640   22.2300 H   0  0  0  0  0  0  0  0  0  0  0  0
  -25.3690  -15.2240   20.3190 N   0  0  0  0  0  0  0  0  0  0  0  0
  -24.5960  -15.8720   20.4220 H   0  0  0  0  0  0  0  0  0  0  0  0
  -26.2050  -15.6640   19.9570 H   0  0  0  0  0  0  0  0  0  0  0  0
  -31.9210  -20.8990   18.8460 N   0  0  0  0  0  4  0  0  0  0  0  0
  -31.1600  -21.3840   18.4080 H   0  0  0  0  0  0  0  0  0  0  0  0
  -32.6260  -20.7460   18.1440 H   0  0  0  0  0  0  0  0  0  0  0  0
  -32.3420  -21.4860   19.5460 H   0  0  0  0  0  0  0  0  0  0  0  0
  -28.5800  -23.1310   19.7970 C   0  0  0  0  0  2  0  0  0  0  0  0
  -27.9210  -24.1290   20.8140 C   0  0  0  0  0  2  0  0  0  0  0  0
  -28.5820  -25.5300   21.0880 C   0  0  0  0  0  2  0  0  0  0  0  0
  -28.4240  -26.6210   20.1440 O   0  0  0  0  0  0  0  0  0  0  0  0
  -24.6000  -31.8810   23.2290 C   0  0  0  0  0  0  0  0  0  0  0  0
  -27.2680  -27.3820   20.2100 C   0  0  0  0  0  0  0  0  0  0  0  0
  -23.4130  -30.4700   21.5830 C   0  0  0  0  0  3  0  0  0  0  0  0
  -24.8820  -28.9190   20.1840 C   0  0  0  0  0  0  0  0  0  0  0  0
  -25.9440  -30.8180   21.4100 C   0  0  0  0  0  2  0  0  0  0  0  0
  -26.0370  -29.4370   20.7840 C   0  0  0  0  0  0  0  0  0  0  0  0
  -27.2360  -28.6770   20.7920 C   0  0  0  0  0  3  0  0  0  0  0  0
  -26.0980  -26.8920   19.5960 C   0  0  0  0  0  3  0  0  0  0  0  0
  -24.9090  -27.6460   19.5870 C   0  0  0  0  0  3  0  0  0  0  0  0
  -23.6390  -29.7840   20.2100 C   0  0  0  0  0  2  0  0  0  0  0  0
  -24.6710  -31.0730   22.1320 N   0  0  0  0  0  0  0  0  0  0  0  0
  -23.5130  -32.1540   23.7570 O   0  0  0  0  0  0  0  0  0  0  0  0
  -22.7510  -29.4530   22.5420 C   0  0  0  0  0  0  0  0  0  0  0  0
  -21.4280  -29.2730   22.4090 N   0  0  0  0  0  0  0  0  0  0  0  0
  -23.4280  -28.8290   23.3640 O   0  0  0  0  0  0  0  0  0  0  0  0
  -20.9420  -29.8290   21.7180 H   0  0  0  0  0  0  0  0  0  0  0  0
  -18.0460  -28.0990   22.9070 C   0  0  0  0  0  0  0  0  0  0  0  0
  -20.6050  -28.3370   23.1760 C   0  0  0  0  0  3  0  0  0  0  0  0
  -20.6990  -26.9090   22.5930 C   0  0  0  0  0  2  0  0  0  0  0  0
  -19.5930  -26.5990   21.5800 C   0  0  0  0  0  2  0  0  0  0  0  0
  -18.2120  -26.7520   22.2250 C   0  0  0  0  0  2  0  0  0  0  0  0
  -19.1700  -28.8510   23.3390 C   0  0  0  0  0  0  0  0  0  0  0  0
  -18.9610  -30.1130   23.9350 C   0  0  0  0  0  3  0  0  0  0  0  0
  -17.6600  -30.6230   24.1050 C   0  0  0  0  0  3  0  0  0  0  0  0
  -16.5500  -29.8670   23.6880 C   0  0  0  0  0  3  0  0  0  0  0  0
  -16.7440  -28.6070   23.0950 C   0  0  0  0  0  3  0  0  0  0  0  0
  -25.8780  -32.5170   23.8580 C   0  0  0  0  0  3  0  0  0  0  0  0
  -25.5640  -33.9160   24.1790 N   0  0  0  0  0  0  0  0  0  0  0  0
  -25.9050  -34.9650   23.4180 C   0  0  0  0  0  0  0  0  0  0  0  0
  -26.5870  -34.8590   22.3970 O   0  0  0  0  0  0  0  0  0  0  0  0
  -24.9590  -34.0730   24.9720 H   0  0  0  0  0  0  0  0  0  0  0  0
  -24.1850  -36.7580   23.0280 C   0  0  0  0  0  1  0  0  0  0  0  0
  -25.4100  -36.3560   23.8640 C   0  0  0  0  0  3  0  0  0  0  0  0
  -27.5290  -37.2410   24.7340 C   0  0  0  0  0  1  0  0  0  0  0  0
  -26.4460  -37.4070   23.7680 N   0  0  0  0  0  0  0  0  0  0  0  0
  -26.0380  -38.3280   23.9040 H   0  0  0  0  0  0  0  0  0  0  0  0
  -26.3860  -31.7530   25.1420 C   0  0  1  0  0  0  0  0  0  0  0  0
  -25.2860  -31.5180   26.2010 C   0  0  0  0  0  1  0  0  0  0  0  0
  -26.9760  -30.3750   24.7600 C   0  0  0  0  0  1  0  0  0  0  0  0
  -27.5300  -32.5530   25.8100 C   0  0  0  0  0  1  0  0  0  0  0  0
  1  3  1  0
  2  1  2  0
  3  6  1  0
  4  2  1  0
  5  2  1  0
  7 11  1  0
  8  7  1  0
  8 12  1  0
 10  1  1  0
 10  9  1  0
 11 21  1  0
 11  9  1  0
 12 51  1  0
 12 10  1  0
 13 21  1  0
 14 19  1  0
 15 16  1  0
 15 14  1  0
 17 16  1  0
 17 26  1  0
 17 18  1  0
 19 13  1  0
 19 18  1  0
 20 13  2  0
 21 22  1  0
 23 24  2  0
 24 43  1  0
 25 24  1  0
 25 28  1  0
 26 23  1  0
 26 27  1  0
 27 25  2  0
 28 29  1  0
 29 30  2  0
 31 34  1  0
 31 30  1  0
 32 31  2  0
 33 32  1  0
 33 28  2  0
 34 35  1  0
 35 36  1  0
 36 37  2  0
 38 37  1  0
 38 42  1  0
 39 38  2  0
 40 35  2  0
 40 39  1  0
 41 40  1  0
 43 44  1  0
 44 47  1  0
 44 46  1  0
 45 43  2  0
 48 49  1  0
 48 23  1  0
 50 48  1  0
 51 54  1  0
 52 51  1  0
 53 51  1  0
 55  3  1  0
 55 56  1  0
 56 57  1  0
 58 60  1  0
 58 57  1  0
 59 70  2  0
 60 65  1  0
 61 69  1  0
 61 71  1  0
 62 68  1  0
 62 64  1  0
 63 69  1  0
 64 65  2  0
 64 63  1  0
 66 60  2  0
 67 66  1  0
 67 62  2  0
 68 61  1  0
 69 59  1  0
 71 73  2  0
 72 71  1  0
 74 72  1  0
 75 84  2  0
 75 80  1  0
 76 72  1  0
 76 80  1  0
 77 76  1  0
 78 79  1  0
 78 77  1  0
 79 75  1  0
 80 81  2  0
 81 82  1  0
 83 82  2  0
 84 83  1  0
 85 59  1  0
 85 86  1  0
 85 95  1  0
 86 89  1  0
 87 91  1  0
 87 86  1  0
 88 87  2  0
 91 90  1  0
 93 91  1  0
 93 94  1  0
 93 92  1  0
 95 98  1  1
 95 96  1  0
 97 95  1  0
M  ISO  4  13 100  21 100  57 101  58 101
M  END
>  <TORSDO>  (4) 
F 21

>  <SCORE>  (4) 
-13.792

>  <name>  (4) 
3

>  <ligand_id>  (4) 
3

>  <original_smiles>  (4) 
[H]c1c([H])c([H])c2c(c1[H])C([H])([H])C([H])([H])C([H])([H])C2([H])N([H])C(=O)C1([H])N(C(=O)C([H])(N([H])C(=O)C([H])(N([H])C([H])([H])[H])C([H])([H])[H])C(C([H])([H])[H])(C([H])([H])[H])C([H])([H])[H])C([H])([H])c2c([H])c(OC([H])([H])C([H])([H])C([H])([H])[N+]([H])=C(N([H])[H])C3([H])C([H])([H])C([H])(N([H])C(=O)N4C([H])([H])C([H])([H])C([H])([H])C([H])(n5nc(-c6c([H])c([H])c(Oc7c([H])c([H])c(F)c([H])c7F)c([H])c6[H])c(C(=O)N([H])[H])c5N([H])[H])C4([H])[H])C([H])([H])C([H])([H])C3([H])[N+]([H])([H])[H])c([H])c([H])c2C1([H])[H]

>  <smiles>  (4) 
[H]c1c([H])c([H])c2c(c1[H])C([H])([H])C([H])([H])C([H])([H])C2([H])N([H])C(=O)C1([H])N(C(=O)C([H])(N([H])C(=O)C([H])(N([H])C([H])([H])[H])C([H])([H])[H])C(C([H])([H])[H])(C([H])([H])[H])C([H])([H])[H])C([H])([H])c2c([H])c(OC([H])([H])C([H])([H])C([H])([H])[N+]([H])=C(N([H])[H])C3([H])C([H])([H])C([H])(N([H])C(=O)N4C([H])([H])C([H])([H])C([H])([H])C([H])(n5nc(-c6c([H])c([H])c(Oc7c([H])c([H])c(F)c([H])c7F)c([H])c6[H])c(C(=O)N([H])[H])c5N([H])[H])C4([H])[H])C([H])([H])C([H])([H])C3([H])[N+]([H])([H])[H])c([H])c([H])c2C1([H])[H]

$$$$
4:0:0
     RDKit          3D

 93101  0  0  1  0  0  0  0  0999 V2000
  -30.1830  -22.1950   20.9180 C   0  0  0  0  0  0  0  0  0  0  0  0
  -29.2510  -23.1230   20.6530 N   0  0  0  0  0  0  0  0  0  0  0  0
  -31.3560  -22.4960   21.1430 O   0  0  0  0  0  0  0  0  0  0  0  0
  -28.3060  -22.8040   20.4830 H   0  0  0  0  0  0  0  0  0  0  0  0
  -29.7240  -20.7250   20.9520 C   0  0  0  0  0  2  0  0  0  0  0  0
  -30.8690  -19.6900   20.7450 C   0  0  0  0  0  2  0  0  0  0  0  0
  -30.6790  -14.4820   19.8940 C   0  0  0  0  0  0  0  0  0  0  0  0
  -30.2440  -12.4060   18.6130 C   0  0  0  0  0  2  0  0  0  0  0  0
  -29.1810  -12.6360   17.5210 C   0  0  0  0  0  2  0  0  0  0  0  0
  -27.7630  -12.4250   18.0890 C   0  0  0  0  0  2  0  0  0  0  0  0
  -27.5370  -13.2080   19.4060 C   0  0  0  0  0  3  0  0  0  0  0  0
  -28.7040  -12.9660   20.3950 C   0  0  0  0  0  2  0  0  0  0  0  0
  -29.9640  -13.3300   19.7270 N   0  0  0  0  0  0  0  0  0  0  0  0
  -31.7040  -14.7140   19.2440 O   0  0  0  0  0  0  0  0  0  0  0  0
  -31.2990  -15.9770   21.7250 C   0  0  0  0  0  2  0  0  0  0  0  0
  -31.6900  -17.4060   21.2720 C   0  0  0  0  0  2  0  0  0  0  0  0
  -29.5210  -17.6610   20.1870 C   0  0  0  0  0  2  0  0  0  0  0  0
  -29.1120  -16.2440   20.6570 C   0  0  0  0  0  3  0  0  0  0  0  0
  -28.1850  -16.2860   21.8930 C   0  0  0  0  0  1  0  0  0  0  0  0
  -30.2770  -15.3510   20.8640 N   0  0  0  0  0  0  0  0  0  0  0  0
  -30.5040  -18.2860   21.1030 N   0  0  2  0  0  4  0  0  0  0  0  0
  -30.0680  -18.3340   22.0130 H   0  0  0  0  0  0  0  0  0  0  0  0
  -25.2080  -13.7700   20.3460 C   0  0  0  0  0  0  0  0  0  0  0  0
  -24.1940  -12.9750   20.7980 C   0  0  0  0  0  0  0  0  0  0  0  0
  -24.6730  -11.6320   20.7020 C   0  0  0  0  0  0  0  0  0  0  0  0
  -26.2420  -12.9090   20.0060 N   0  0  0  0  0  0  0  0  0  0  0  0
  -25.9290  -11.6190   20.2780 N   0  0  0  0  0  0  0  0  0  0  0  0
  -23.9920  -10.3550   20.9320 C   0  0  0  0  0  0  0  0  0  0  0  0
  -24.4970   -9.4030   21.8450 C   0  0  0  0  0  3  0  0  0  0  0  0
  -23.8160   -8.1870   22.0620 C   0  0  0  0  0  3  0  0  0  0  0  0
  -22.6160   -7.9140   21.3640 C   0  0  0  0  0  0  0  0  0  0  0  0
  -22.1290   -8.8540   20.4390 C   0  0  0  0  0  3  0  0  0  0  0  0
  -22.8110  -10.0620   20.2210 C   0  0  0  0  0  3  0  0  0  0  0  0
  -21.8990   -6.7500   21.4920 O   0  0  0  0  0  0  0  0  0  0  0  0
  -21.9000   -6.0280   22.6600 C   0  0  0  0  0  0  0  0  0  0  0  0
  -21.4870   -6.5950   23.8850 C   0  0  0  0  0  3  0  0  0  0  0  0
  -21.4370   -5.7980   25.0470 C   0  0  0  0  0  3  0  0  0  0  0  0
  -21.7910   -4.4370   24.9850 C   0  0  0  0  0  0  0  0  0  0  0  0
  -22.1970   -3.8710   23.7640 C   0  0  0  0  0  3  0  0  0  0  0  0
  -22.2490   -4.6640   22.6040 C   0  0  0  0  0  0  0  0  0  0  0  0
  -22.6210   -4.1090   21.4260 F   0  0  0  0  0  0  0  0  0  0  0  0
  -21.7360   -3.6700   26.0980 F   0  0  0  0  0  0  0  0  0  0  0  0
  -22.8180  -13.4200   21.2050 C   0  0  0  0  0  0  0  0  0  0  0  0
  -22.1910  -12.7040   22.1320 N   0  0  0  0  0  0  0  0  0  0  0  0
  -22.3110  -14.4380   20.7360 O   0  0  0  0  0  0  0  0  0  0  0  0
  -22.6160  -11.8800   22.5290 H   0  0  0  0  0  0  0  0  0  0  0  0
  -21.2740  -12.9860   22.4470 H   0  0  0  0  0  0  0  0  0  0  0  0
  -25.3280  -15.1460   20.1740 N   0  0  0  0  0  0  0  0  0  0  0  0
  -24.5580  -15.7780   20.3650 H   0  0  0  0  0  0  0  0  0  0  0  0
  -26.1300  -15.6090   19.7720 H   0  0  0  0  0  0  0  0  0  0  0  0
  -29.4700  -24.5750   20.6480 C   0  0  0  0  0  2  0  0  0  0  0  0
  -28.2820  -25.3180   20.0080 C   0  0  0  0  0  2  0  0  0  0  0  0
  -28.3830  -26.7380   20.1890 O   0  0  0  0  0  0  0  0  0  0  0  0
  -24.5020  -31.8580   23.2330 C   0  0  0  0  0  0  0  0  0  0  0  0
  -27.2030  -27.4550   20.1470 C   0  0  0  0  0  0  0  0  0  0  0  0
  -23.3210  -30.4610   21.5690 C   0  0  0  0  0  3  0  0  0  0  0  0
  -24.7970  -28.9470   20.1440 C   0  0  0  0  0  0  0  0  0  0  0  0
  -25.8470  -30.8370   21.4010 C   0  0  0  0  0  2  0  0  0  0  0  0
  -25.9470  -29.4740   20.7480 C   0  0  0  0  0  0  0  0  0  0  0  0
  -27.1520  -28.7370   20.7410 C   0  0  0  0  0  3  0  0  0  0  0  0
  -26.0330  -26.9470   19.5330 C   0  0  0  0  0  3  0  0  0  0  0  0
  -24.8360  -27.6840   19.5340 C   0  0  0  0  0  3  0  0  0  0  0  0
  -23.5470  -29.7940   20.1860 C   0  0  0  0  0  2  0  0  0  0  0  0
  -24.5750  -31.0670   22.1250 N   0  0  0  0  0  0  0  0  0  0  0  0
  -23.4150  -32.1200   23.7640 O   0  0  0  0  0  0  0  0  0  0  0  0
  -22.6670  -29.4290   22.5140 C   0  0  0  0  0  0  0  0  0  0  0  0
  -21.3440  -29.2380   22.3710 N   0  0  0  0  0  0  0  0  0  0  0  0
  -23.3460  -28.8020   23.3320 O   0  0  0  0  0  0  0  0  0  0  0  0
  -20.8580  -29.7970   21.6840 H   0  0  0  0  0  0  0  0  0  0  0  0
  -17.9670  -28.0470   22.8450 C   0  0  0  0  0  0  0  0  0  0  0  0
  -20.5250  -28.2910   23.1250 C   0  0  0  0  0  3  0  0  0  0  0  0
  -20.6240  -26.8690   22.5270 C   0  0  0  0  0  2  0  0  0  0  0  0
  -19.5220  -26.5660   21.5050 C   0  0  0  0  0  2  0  0  0  0  0  0
  -18.1400  -26.7080   22.1480 C   0  0  0  0  0  2  0  0  0  0  0  0
  -19.0870  -28.7970   23.2890 C   0  0  0  0  0  0  0  0  0  0  0  0
  -18.8720  -30.0520   23.8980 C   0  0  0  0  0  3  0  0  0  0  0  0
  -17.5690  -30.5570   24.0670 C   0  0  0  0  0  3  0  0  0  0  0  0
  -16.4630  -29.8020   23.6390 C   0  0  0  0  0  3  0  0  0  0  0  0
  -16.6630  -28.5490   23.0350 C   0  0  0  0  0  3  0  0  0  0  0  0
  -25.7790  -32.4900   23.8710 C   0  0  0  0  0  3  0  0  0  0  0  0
  -26.2760  -31.7260   25.1590 C   0  0  1  0  0  0  0  0  0  0  0  0
  -25.1640  -31.4920   26.2080 C   0  0  0  0  0  1  0  0  0  0  0  0
  -26.8700  -30.3480   24.7830 C   0  0  0  0  0  1  0  0  0  0  0  0
  -27.4110  -32.5270   25.8390 C   0  0  0  0  0  1  0  0  0  0  0  0
  -25.4680  -33.8900   24.1860 N   0  0  0  0  0  0  0  0  0  0  0  0
  -25.7860  -34.9330   23.4060 C   0  0  0  0  0  0  0  0  0  0  0  0
  -26.4430  -34.8180   22.3690 O   0  0  0  0  0  0  0  0  0  0  0  0
  -24.8820  -34.0550   24.9900 H   0  0  0  0  0  0  0  0  0  0  0  0
  -24.0300  -36.7010   23.0640 C   0  0  0  0  0  1  0  0  0  0  0  0
  -25.2970  -36.3250   23.8500 C   0  0  0  0  0  3  0  0  0  0  0  0
  -27.4420  -37.2480   24.6100 C   0  0  0  0  0  1  0  0  0  0  0  0
  -26.3160  -37.3860   23.6900 N   0  0  0  0  0  0  0  0  0  0  0  0
  -25.9040  -38.3050   23.8260 H   0  0  0  0  0  0  0  0  0  0  0  0
  1  5  1  0
  1  3  2  0
  2  1  1  0
  4  2  1  0
  6  5  1  0
  6 21  1  0
  7 20  1  0
  8 13  1  0
  9 10  1  0
  9  8  1  0
 11 10  1  0
 11 26  1  0
 11 12  1  0
 13  7  1  0
 13 12  1  0
 14  7  2  0
 16 15  1  0
 17 18  1  0
 17 21  1  0
 18 20  1  0
 18 19  1  0
 20 15  1  0
 21 16  1  0
 21 22  1  1
 23 24  2  0
 24 43  1  0
 25 24  1  0
 25 28  1  0
 26 27  1  0
 26 23  1  0
 27 25  2  0
 28 29  1  0
 29 30  2  0
 31 34  1  0
 31 30  1  0
 32 31  2  0
 33 32  1  0
 33 28  2  0
 34 35  1  0
 35 36  1  0
 36 37  2  0
 38 37  1  0
 38 42  1  0
 39 38  2  0
 40 35  2  0
 40 39  1  0
 41 40  1  0
 43 44  1  0
 44 47  1  0
 44 46  1  0
 45 43  2  0
 48 23  1  0
 48 49  1  0
 50 48  1  0
 51  2  1  0
 52 53  1  0
 52 51  1  0
 54 65  2  0
 55 53  1  0
 55 60  1  0
 56 64  1  0
 56 66  1  0
 57 63  1  0
 57 59  1  0
 58 64  1  0
 59 58  1  0
 60 59  2  0
 61 62  1  0
 61 55  2  0
 62 57  2  0
 63 56  1  0
 64 54  1  0
 66 68  2  0
 67 66  1  0
 69 67  1  0
 70 79  2  0
 70 75  1  0
 71 67  1  0
 71 75  1  0
 72 71  1  0
 73 74  1  0
 73 72  1  0
 74 70  1  0
 75 76  2  0
 76 77  1  0
 78 77  2  0
 79 78  1  0
 80 54  1  0
 80 85  1  0
 80 81  1  0
 81 84  1  1
 81 82  1  0
 83 81  1  0
 85 88  1  0
 86 90  1  0
 86 85  1  0
 87 86  2  0
 90 89  1  0
 92 93  1  0
 92 90  1  0
 92 91  1  0
M  ISO  4   7 100  20 100  52 101  53 101
M  END
>  <TORSDO>  (5) 
F 20

>  <SCORE>  (5) 
-11.105

>  <name>  (5) 
4

>  <ligand_id>  (5) 
4

>  <original_smiles>  (5) 
[H]c1c([H])c([H])c2c(c1[H])C([H])([H])C([H])([H])C([H])([H])C2([H])N([H])C(=O)C1([H])N(C(=O)C([H])(N([H])C(=O)C([H])(N([H])C([H])([H])[H])C([H])([H])[H])C(C([H])([H])[H])(C([H])([H])[H])C([H])([H])[H])C([H])([H])c2c([H])c(OC([H])([H])C([H])([H])N([H])C(=O)C([H])([H])C([H])([H])[N+]3([H])C([H])([H])C([H])([H])N(C(=O)N4C([H])([H])C([H])([H])C([H])([H])C([H])(n5nc(-c6c([H])c([H])c(Oc7c([H])c([H])c(F)c([H])c7F)c([H])c6[H])c(C(=O)N([H])[H])c5N([H])[H])C4([H])[H])C([H])(C([H])([H])[H])C3([H])[H])c([H])c([H])c2C1([H])[H]

>  <smiles>  (5) 
[H]c1c([H])c([H])c2c(c1[H])C([H])([H])C([H])([H])C([H])([H])C2([H])N([H])C(=O)C1([H])N(C(=O)C([H])(N([H])C(=O)C([H])(N([H])C([H])([H])[H])C([H])([H])[H])C(C([H])([H])[H])(C([H])([H])[H])C([H])([H])[H])C([H])([H])c2c([H])c(OC([H])([H])C([H])([H])N([H])C(=O)C([H])([H])C([H])([H])[N+]3([H])C([H])([H])C([H])([H])N(C(=O)N4C([H])([H])C([H])([H])C([H])([H])C([H])(n5nc(-c6c([H])c([H])c(Oc7c([H])c([H])c(F)c([H])c7F)c([H])c6[H])c(C(=O)N([H])[H])c5N([H])[H])C4([H])[H])C([H])(C([H])([H])[H])C3([H])[H])c([H])c([H])c2C1([H])[H]

$$$$
5:0:0
     RDKit          3D

 91 99  0  0  1  0  0  0  0  0999 V2000
  -29.3910  -20.2520   21.1390 C   0  0  0  0  0  2  0  0  0  0  0  0
  -27.7730  -18.5190   18.3640 C   0  0  0  0  0  2  0  0  0  0  0  0
  -28.5650  -17.3430   18.9160 C   0  0  0  0  0  2  0  0  0  0  0  0
  -28.5490  -19.7470   18.8440 C   0  0  0  0  0  2  0  0  0  0  0  0
  -29.1050  -17.8780   20.2470 C   0  0  0  0  0  3  0  0  0  0  0  0
  -29.4240  -19.3210   19.9690 N   0  0  2  0  0  4  0  0  0  0  0  0
  -30.3650  -19.3370   19.6060 H   0  0  0  0  0  0  0  0  0  0  0  0
  -30.2810  -17.0090   20.7940 C   0  0  0  0  0  2  0  0  0  0  0  0
  -30.6620  -14.5290   20.4710 C   0  0  0  0  0  0  0  0  0  0  0  0
  -30.3720  -12.3670   19.3280 C   0  0  0  0  0  2  0  0  0  0  0  0
  -29.4250  -12.5630   18.1250 C   0  0  0  0  0  2  0  0  0  0  0  0
  -27.9530  -12.4170   18.5600 C   0  0  0  0  0  2  0  0  0  0  0  0
  -27.6140  -13.2550   19.8190 C   0  0  0  0  0  3  0  0  0  0  0  0
  -28.6720  -13.0470   20.9290 C   0  0  0  0  0  2  0  0  0  0  0  0
  -29.9940  -13.3500   20.3570 N   0  0  0  0  0  0  0  0  0  0  0  0
  -31.7980  -14.6980   20.0230 O   0  0  0  0  0  0  0  0  0  0  0  0
  -29.9340  -15.5710   20.9210 N   0  0  0  0  0  0  0  0  0  0  0  0
  -29.0180  -15.3470   21.2840 H   0  0  0  0  0  0  0  0  0  0  0  0
  -25.2140  -13.8750   20.5150 C   0  0  0  0  0  0  0  0  0  0  0  0
  -24.1450  -13.1060   20.8870 C   0  0  0  0  0  0  0  0  0  0  0  0
  -24.6030  -11.7530   20.8650 C   0  0  0  0  0  0  0  0  0  0  0  0
  -26.2590  -12.9890   20.2960 N   0  0  0  0  0  0  0  0  0  0  0  0
  -25.8940  -11.7100   20.5620 N   0  0  0  0  0  0  0  0  0  0  0  0
  -23.8770  -10.4940   21.0600 C   0  0  0  0  0  0  0  0  0  0  0  0
  -24.3210   -9.5200   21.9810 C   0  0  0  0  0  3  0  0  0  0  0  0
  -23.5950   -8.3220   22.1620 C   0  0  0  0  0  3  0  0  0  0  0  0
  -22.4120   -8.0920   21.4220 C   0  0  0  0  0  0  0  0  0  0  0  0
  -21.9880   -9.0530   20.4890 C   0  0  0  0  0  3  0  0  0  0  0  0
  -22.7140  -10.2420   20.3060 C   0  0  0  0  0  3  0  0  0  0  0  0
  -21.6570   -6.9480   21.5140 O   0  0  0  0  0  0  0  0  0  0  0  0
  -21.6360   -6.1890   22.6570 C   0  0  0  0  0  0  0  0  0  0  0  0
  -21.2550   -6.7310   23.9040 C   0  0  0  0  0  3  0  0  0  0  0  0
  -21.1800   -5.8990   25.0390 C   0  0  0  0  0  3  0  0  0  0  0  0
  -21.4770   -4.5270   24.9280 C   0  0  0  0  0  0  0  0  0  0  0  0
  -21.8510   -3.9860   23.6860 C   0  0  0  0  0  3  0  0  0  0  0  0
  -21.9270   -4.8140   22.5530 C   0  0  0  0  0  0  0  0  0  0  0  0
  -22.2670   -4.2830   21.3540 F   0  0  0  0  0  0  0  0  0  0  0  0
  -21.3980   -3.7270   26.0170 F   0  0  0  0  0  0  0  0  0  0  0  0
  -22.7460  -13.5870   21.1520 C   0  0  0  0  0  0  0  0  0  0  0  0
  -22.0160  -12.8960   22.0200 N   0  0  0  0  0  0  0  0  0  0  0  0
  -22.3110  -14.6090   20.6230 O   0  0  0  0  0  0  0  0  0  0  0  0
  -22.3820  -12.0680   22.4650 H   0  0  0  0  0  0  0  0  0  0  0  0
  -21.0780  -13.1970   22.2410 H   0  0  0  0  0  0  0  0  0  0  0  0
  -25.3830  -15.2440   20.3240 N   0  0  0  0  0  0  0  0  0  0  0  0
  -24.6050  -15.8900   20.3880 H   0  0  0  0  0  0  0  0  0  0  0  0
  -26.2130  -15.6630   19.9300 H   0  0  0  0  0  0  0  0  0  0  0  0
  -29.9100  -21.7110   20.8670 C   0  0  0  0  0  3  0  0  0  0  0  0
  -28.8580  -22.7640   20.4080 C   0  0  0  0  0  3  0  0  0  0  0  0
  -29.2830  -24.2650   20.4970 C   0  0  0  0  0  2  0  0  0  0  0  0
  -28.1380  -25.2140   20.0530 C   0  0  0  0  0  2  0  0  0  0  0  0
  -28.3460  -26.6380   20.2180 O   0  0  0  0  0  0  0  0  0  0  0  0
  -24.5820  -31.9120   23.2500 C   0  0  0  0  0  0  0  0  0  0  0  0
  -27.1990  -27.4260   20.1710 C   0  0  0  0  0  0  0  0  0  0  0  0
  -23.3730  -30.5200   21.6050 C   0  0  0  0  0  3  0  0  0  0  0  0
  -24.8200  -28.9810   20.1790 C   0  0  0  0  0  0  0  0  0  0  0  0
  -25.9070  -30.8550   21.4150 C   0  0  0  0  0  2  0  0  0  0  0  0
  -25.9850  -29.4840   20.7700 C   0  0  0  0  0  0  0  0  0  0  0  0
  -27.1780  -28.7160   20.7600 C   0  0  0  0  0  3  0  0  0  0  0  0
  -26.0090  -26.9580   19.5590 C   0  0  0  0  0  3  0  0  0  0  0  0
  -24.8290  -27.7180   19.5700 C   0  0  0  0  0  3  0  0  0  0  0  0
  -23.5820  -29.8460   20.2250 C   0  0  0  0  0  2  0  0  0  0  0  0
  -24.6390  -31.1100   22.1490 N   0  0  0  0  0  0  0  0  0  0  0  0
  -23.5010  -32.1900   23.7870 O   0  0  0  0  0  0  0  0  0  0  0  0
  -22.7140  -29.5000   22.5620 C   0  0  0  0  0  0  0  0  0  0  0  0
  -21.3880  -29.3230   22.4330 N   0  0  0  0  0  0  0  0  0  0  0  0
  -23.3920  -28.8710   23.3790 O   0  0  0  0  0  0  0  0  0  0  0  0
  -20.9000  -29.8860   21.7510 H   0  0  0  0  0  0  0  0  0  0  0  0
  -18.0120  -28.1260   22.9140 C   0  0  0  0  0  0  0  0  0  0  0  0
  -20.5670  -28.3870   23.2020 C   0  0  0  0  0  3  0  0  0  0  0  0
  -20.6730  -26.9520   22.6340 C   0  0  0  0  0  2  0  0  0  0  0  0
  -19.5790  -26.6240   21.6130 C   0  0  0  0  0  2  0  0  0  0  0  0
  -18.1940  -26.7730   22.2470 C   0  0  0  0  0  2  0  0  0  0  0  0
  -19.1270  -28.8900   23.3490 C   0  0  0  0  0  0  0  0  0  0  0  0
  -18.9050  -30.1570   23.9320 C   0  0  0  0  0  3  0  0  0  0  0  0
  -17.6000  -30.6600   24.0850 C   0  0  0  0  0  3  0  0  0  0  0  0
  -16.4980  -29.8930   23.6670 C   0  0  0  0  0  3  0  0  0  0  0  0
  -16.7050  -28.6280   23.0890 C   0  0  0  0  0  3  0  0  0  0  0  0
  -25.8690  -32.5390   23.8710 C   0  0  0  0  0  3  0  0  0  0  0  0
  -25.5660  -33.9390   24.1990 N   0  0  0  0  0  0  0  0  0  0  0  0
  -25.9020  -34.9890   23.4370 C   0  0  0  0  0  0  0  0  0  0  0  0
  -26.5700  -34.8810   22.4050 O   0  0  0  0  0  0  0  0  0  0  0  0
  -24.9710  -34.0970   24.9990 H   0  0  0  0  0  0  0  0  0  0  0  0
  -24.1780  -36.7850   23.0800 C   0  0  0  0  0  1  0  0  0  0  0  0
  -25.4190  -36.3790   23.8910 C   0  0  0  0  0  3  0  0  0  0  0  0
  -27.5590  -37.2570   24.7130 C   0  0  0  0  0  1  0  0  0  0  0  0
  -26.4550  -37.4280   23.7730 N   0  0  0  0  0  0  0  0  0  0  0  0
  -26.0540  -38.3500   23.9190 H   0  0  0  0  0  0  0  0  0  0  0  0
  -26.3840  -31.7650   25.1450 C   0  0  1  0  0  0  0  0  0  0  0  0
  -25.2910  -31.5300   26.2140 C   0  0  0  0  0  1  0  0  0  0  0  0
  -26.9590  -30.3850   24.7500 C   0  0  0  0  0  1  0  0  0  0  0  0
  -27.5390  -32.5520   25.8050 C   0  0  0  0  0  1  0  0  0  0  0  0
  2  4  1  0
  2  3  1  0
  3  5  1  0
  4  6  1  0
  5  8  1  0
  6  5  1  0
  6  1  1  0
  6  7  1  6
  8 17  1  0
  9 17  1  0
 10 15  1  0
 11 12  1  0
 11 10  1  0
 13 12  1  0
 13 22  1  0
 13 14  1  0
 15  9  1  0
 15 14  1  0
 16  9  2  0
 17 18  1  0
 19 20  2  0
 20 39  1  0
 21 20  1  0
 21 24  1  0
 22 19  1  0
 22 23  1  0
 23 21  2  0
 24 25  1  0
 25 26  2  0
 27 30  1  0
 27 26  1  0
 28 27  2  0
 29 28  1  0
 29 24  2  0
 30 31  1  0
 31 32  1  0
 32 33  2  0
 34 33  1  0
 34 38  1  0
 35 34  2  0
 36 31  2  0
 36 35  1  0
 37 36  1  0
 39 40  1  0
 40 43  1  0
 40 42  1  0
 41 39  2  0
 44 45  1  0
 44 19  1  0
 46 44  1  0
 47  1  1  0
 48 49  1  0
 48 47  2  0
 50 51  1  0
 50 49  1  0
 52 63  2  0
 53 51  1  0
 53 58  1  0
 54 62  1  0
 54 64  1  0
 55 61  1  0
 55 57  1  0
 56 62  1  0
 57 56  1  0
 58 57  2  0
 59 60  1  0
 59 53  2  0
 60 55  2  0
 61 54  1  0
 62 52  1  0
 64 66  2  0
 65 64  1  0
 67 65  1  0
 68 77  2  0
 68 73  1  0
 69 65  1  0
 69 73  1  0
 70 69  1  0
 71 72  1  0
 71 70  1  0
 72 68  1  0
 73 74  2  0
 74 75  1  0
 76 75  2  0
 77 76  1  0
 78 52  1  0
 78 79  1  0
 78 88  1  0
 79 82  1  0
 80 84  1  0
 80 79  1  0
 81 80  2  0
 84 83  1  0
 86 84  1  0
 86 87  1  0
 86 85  1  0
 88 91  1  1
 88 89  1  0
 90 88  1  0
M  ISO  4   9 100  17 100  50 101  51 101
M  END
>  <TORSDO>  (6) 
F 22

>  <SCORE>  (6) 
-13.296

>  <name>  (6) 
5

>  <ligand_id>  (6) 
5

>  <original_smiles>  (6) 
[H]c1c([H])c([H])c2c(c1[H])C([H])([H])C([H])([H])C([H])([H])C2([H])N([H])C(=O)C1([H])N(C(=O)C([H])(N([H])C(=O)C([H])(N([H])C([H])([H])[H])C([H])([H])[H])C(C([H])([H])[H])(C([H])([H])[H])C([H])([H])[H])C([H])([H])c2c([H])c(OC([H])([H])C([H])([H])C([H])([H])C([H])([H])C([H])([H])[N+]3([H])C([H])([H])C([H])([H])C([H])([H])C3([H])C([H])([H])N([H])C(=O)N3C([H])([H])C([H])([H])C([H])([H])C([H])(n4nc(-c5c([H])c([H])c(Oc6c([H])c([H])c(F)c([H])c6F)c([H])c5[H])c(C(=O)N([H])[H])c4N([H])[H])C3([H])[H])c([H])c([H])c2C1([H])[H]

>  <smiles>  (6) 
[H]c1c([H])c([H])c2c(c1[H])C([H])([H])C([H])([H])C([H])([H])C2([H])N([H])C(=O)C1([H])N(C(=O)C([H])(N([H])C(=O)C([H])(N([H])C([H])([H])[H])C([H])([H])[H])C(C([H])([H])[H])(C([H])([H])[H])C([H])([H])[H])C([H])([H])c2c([H])c(OC([H])([H])C([H])([H])C([H])([H])C([H])([H])C([H])([H])[N+]3([H])C([H])([H])C([H])([H])C([H])([H])C3([H])C([H])([H])N([H])C(=O)N3C([H])([H])C([H])([H])C([H])([H])C([H])(n4nc(-c5c([H])c([H])c(Oc6c([H])c([H])c(F)c([H])c6F)c([H])c5[H])c(C(=O)N([H])[H])c4N([H])[H])C3([H])[H])c([H])c([H])c2C1([H])[H]

$$$$
6:0:0
     RDKit          3D

 93101  0  0  1  0  0  0  0  0999 V2000
  -30.8680  -14.4720   20.3880 C   0  0  0  0  0  0  0  0  0  0  0  0
  -30.5870  -12.2320   19.3970 C   0  0  0  0  0  2  0  0  0  0  0  0
  -29.6800  -12.3550   18.1550 C   0  0  0  0  0  2  0  0  0  0  0  0
  -28.1930  -12.2570   18.5530 C   0  0  0  0  0  2  0  0  0  0  0  0
  -27.8310  -13.1830   19.7460 C   0  0  0  0  0  3  0  0  0  0  0  0
  -28.8560  -13.0310   20.8940 C   0  0  0  0  0  2  0  0  0  0  0  0
  -30.1890  -13.2940   20.3360 N   0  0  0  0  0  0  0  0  0  0  0  0
  -32.0300  -14.5760   19.9790 O   0  0  0  0  0  0  0  0  0  0  0  0
  -29.3140  -18.5250   20.7490 C   0  0  0  0  0  0  0  0  0  0  0  0
  -29.8750  -17.6890   21.9020 C   0  0  0  0  0  2  0  0  0  0  0  0
  -29.6530  -16.1520   21.7600 C   0  0  0  0  0  2  0  0  0  0  0  0
  -30.2260  -16.5790   19.3800 C   0  0  0  0  0  2  0  0  0  0  0  0
  -29.1970  -17.7360   19.4420 C   0  0  0  0  0  3  0  0  0  0  0  0
  -28.9940  -19.7600   20.9190 N   0  0  0  0  0  0  0  0  0  0  0  0
  -30.0880  -15.5860   20.4640 N   0  0  0  0  0  0  0  0  0  0  0  0
  -25.4370  -13.8700   20.3820 C   0  0  0  0  0  0  0  0  0  0  0  0
  -24.3490  -13.1380   20.7740 C   0  0  0  0  0  0  0  0  0  0  0  0
  -24.7790  -11.7760   20.8010 C   0  0  0  0  0  0  0  0  0  0  0  0
  -26.4640  -12.9560   20.2070 N   0  0  0  0  0  0  0  0  0  0  0  0
  -26.0720  -11.6960   20.5140 N   0  0  0  0  0  0  0  0  0  0  0  0
  -24.0230  -10.5360   21.0210 C   0  0  0  0  0  0  0  0  0  0  0  0
  -24.4460   -9.5720   21.9630 C   0  0  0  0  0  3  0  0  0  0  0  0
  -23.6940   -8.3970   22.1700 C   0  0  0  0  0  3  0  0  0  0  0  0
  -22.5050   -8.1760   21.4370 C   0  0  0  0  0  0  0  0  0  0  0  0
  -22.1010   -9.1270   20.4820 C   0  0  0  0  0  3  0  0  0  0  0  0
  -22.8530  -10.2940   20.2730 C   0  0  0  0  0  3  0  0  0  0  0  0
  -21.7230   -7.0530   21.5560 O   0  0  0  0  0  0  0  0  0  0  0  0
  -21.7130   -6.3020   22.7040 C   0  0  0  0  0  0  0  0  0  0  0  0
  -21.3870   -6.8620   23.9590 C   0  0  0  0  0  3  0  0  0  0  0  0
  -21.3220   -6.0400   25.1010 C   0  0  0  0  0  3  0  0  0  0  0  0
  -21.5720   -4.6590   24.9910 C   0  0  0  0  0  0  0  0  0  0  0  0
  -21.8920   -4.0980   23.7420 C   0  0  0  0  0  3  0  0  0  0  0  0
  -21.9600   -4.9180   22.6020 C   0  0  0  0  0  0  0  0  0  0  0  0
  -22.2480   -4.3690   21.3970 F   0  0  0  0  0  0  0  0  0  0  0  0
  -21.5020   -3.8670   26.0860 F   0  0  0  0  0  0  0  0  0  0  0  0
  -22.9550  -13.6530   20.9910 C   0  0  0  0  0  0  0  0  0  0  0  0
  -22.1970  -13.0170   21.8770 N   0  0  0  0  0  0  0  0  0  0  0  0
  -22.5510  -14.6580   20.4090 O   0  0  0  0  0  0  0  0  0  0  0  0
  -22.5370  -12.2050   22.3710 H   0  0  0  0  0  0  0  0  0  0  0  0
  -21.2600  -13.3480   22.0650 H   0  0  0  0  0  0  0  0  0  0  0  0
  -25.6360  -15.2230   20.1100 N   0  0  0  0  0  0  0  0  0  0  0  0
  -24.7660  -15.7100   20.3010 H   0  0  0  0  0  0  0  0  0  0  0  0
  -25.7790  -15.2710   19.1090 H   0  0  0  0  0  0  0  0  0  0  0  0
  -27.8050  -17.2710   19.2830 N   0  0  0  0  0  4  0  0  0  0  0  0
  -27.5310  -16.6010   19.9840 H   0  0  0  0  0  0  0  0  0  0  0  0
  -27.6710  -16.8720   18.3710 H   0  0  0  0  0  0  0  0  0  0  0  0
  -27.1840  -18.0570   19.3710 H   0  0  0  0  0  0  0  0  0  0  0  0
  -28.5110  -20.5760   19.8040 C   0  0  0  0  0  2  0  0  0  0  0  0
  -27.7020  -21.8080   20.2740 C   0  0  0  0  0  2  0  0  0  0  0  0
  -28.5150  -23.0870   20.6070 C   0  0  0  0  0  2  0  0  0  0  0  0
  -27.9650  -24.3610   19.9150 C   0  0  0  0  0  2  0  0  0  0  0  0
  -28.5950  -25.6830   20.4140 C   0  0  0  0  0  2  0  0  0  0  0  0
  -28.3970  -26.7880   19.5240 O   0  0  0  0  0  0  0  0  0  0  0  0
  -24.6170  -31.6910   23.0560 C   0  0  0  0  0  0  0  0  0  0  0  0
  -27.2150  -27.4770   19.6560 C   0  0  0  0  0  0  0  0  0  0  0  0
  -23.3740  -30.3640   21.3770 C   0  0  0  0  0  3  0  0  0  0  0  0
  -24.8000  -28.9290   19.8240 C   0  0  0  0  0  0  0  0  0  0  0  0
  -25.8840  -30.7770   21.1140 C   0  0  0  0  0  2  0  0  0  0  0  0
  -25.9670  -29.4430   20.4030 C   0  0  0  0  0  0  0  0  0  0  0  0
  -27.1800  -28.7230   20.3180 C   0  0  0  0  0  3  0  0  0  0  0  0
  -26.0370  -26.9750   19.0650 C   0  0  0  0  0  3  0  0  0  0  0  0
  -24.8280  -27.6930   19.1520 C   0  0  0  0  0  3  0  0  0  0  0  0
  -23.5450  -29.7640   19.9560 C   0  0  0  0  0  2  0  0  0  0  0  0
  -24.6460  -30.9560   21.9080 N   0  0  0  0  0  0  0  0  0  0  0  0
  -23.5530  -31.9140   23.6470 O   0  0  0  0  0  0  0  0  0  0  0  0
  -22.7720  -29.2810   22.3000 C   0  0  0  0  0  0  0  0  0  0  0  0
  -21.4450  -29.0950   22.2180 N   0  0  0  0  0  0  0  0  0  0  0  0
  -23.4940  -28.6110   23.0440 O   0  0  0  0  0  0  0  0  0  0  0  0
  -20.9210  -29.6890   21.5910 H   0  0  0  0  0  0  0  0  0  0  0  0
  -18.1030  -27.8430   22.7750 C   0  0  0  0  0  0  0  0  0  0  0  0
  -20.6680  -28.1050   22.9630 C   0  0  0  0  0  3  0  0  0  0  0  0
  -20.7550  -26.7130   22.2960 C   0  0  0  0  0  2  0  0  0  0  0  0
  -19.6170  -26.4440   21.3070 C   0  0  0  0  0  2  0  0  0  0  0  0
  -18.2610  -26.5380   22.0120 C   0  0  0  0  0  2  0  0  0  0  0  0
  -19.2330  -28.5860   23.2070 C   0  0  0  0  0  0  0  0  0  0  0  0
  -19.0310  -29.8110   23.8790 C   0  0  0  0  0  3  0  0  0  0  0  0
  -17.7310  -30.2920   24.1240 C   0  0  0  0  0  3  0  0  0  0  0  0
  -16.6150  -29.5450   23.7080 C   0  0  0  0  0  3  0  0  0  0  0  0
  -16.8030  -28.3220   23.0400 C   0  0  0  0  0  3  0  0  0  0  0  0
  -25.9170  -32.3050   23.6660 C   0  0  0  0  0  3  0  0  0  0  0  0
  -25.6110  -33.6880   24.0530 N   0  0  0  0  0  0  0  0  0  0  0  0
  -25.9240  -34.7680   23.3240 C   0  0  0  0  0  0  0  0  0  0  0  0
  -26.5690  -34.7040   22.2750 O   0  0  0  0  0  0  0  0  0  0  0  0
  -25.0370  -33.8120   24.8740 H   0  0  0  0  0  0  0  0  0  0  0  0
  -24.1710  -36.5550   23.0840 C   0  0  0  0  0  1  0  0  0  0  0  0
  -25.4420  -36.1360   23.8410 C   0  0  0  0  0  3  0  0  0  0  0  0
  -27.5970  -37.0110   24.6270 C   0  0  0  0  0  1  0  0  0  0  0  0
  -26.4620  -37.2010   23.7280 N   0  0  0  0  0  0  0  0  0  0  0  0
  -26.0550  -38.1120   23.9200 H   0  0  0  0  0  0  0  0  0  0  0  0
  -26.4720  -31.4880   24.8970 C   0  0  1  0  0  0  0  0  0  0  0  0
  -25.4130  -31.2110   25.9880 C   0  0  0  0  0  1  0  0  0  0  0  0
  -27.0400  -30.1260   24.4340 C   0  0  0  0  0  1  0  0  0  0  0  0
  -27.6450  -32.2570   25.5500 C   0  0  0  0  0  1  0  0  0  0  0  0
  1 15  1  0
  2  7  1  0
  3  4  1  0
  3  2  1  0
  5  4  1  0
  5 19  1  0
  5  6  1  0
  7  1  1  0
  7  6  1  0
  8  1  2  0
  9 14  2  0
  9 10  1  0
 11 10  1  0
 12 13  1  0
 12 15  1  0
 13 44  1  0
 13  9  1  0
 15 11  1  0
 16 17  2  0
 17 18  1  0
 17 36  1  0
 18 21  1  0
 19 16  1  0
 19 20  1  0
 20 18  2  0
 21 22  1  0
 22 23  2  0
 24 27  1  0
 24 23  1  0
 25 24  2  0
 26 25  1  0
 26 21  2  0
 27 28  1  0
 28 29  1  0
 29 30  2  0
 31 30  1  0
 31 35  1  0
 32 31  2  0
 33 28  2  0
 33 32  1  0
 34 33  1  0
 36 37  1  0
 37 40  1  0
 37 39  1  0
 38 36  2  0
 41 42  1  0
 41 16  1  0
 43 41  1  0
 44 47  1  0
 44 45  1  0
 46 44  1  0
 48 49  1  0
 48 14  1  0
 49 50  1  0
 51 52  1  0
 51 50  1  0
 53 55  1  0
 53 52  1  0
 54 65  2  0
 55 60  1  0
 56 64  1  0
 56 66  1  0
 57 63  1  0
 57 59  1  0
 58 64  1  0
 59 58  1  0
 60 59  2  0
 61 62  1  0
 61 55  2  0
 62 57  2  0
 63 56  1  0
 64 54  1  0
 66 68  2  0
 67 66  1  0
 69 67  1  0
 70 79  2  0
 70 75  1  0
 71 67  1  0
 71 75  1  0
 72 71  1  0
 73 74  1  0
 73 72  1  0
 74 70  1  0
 75 76  2  0
 76 77  1  0
 78 77  2  0
 79 78  1  0
 80 54  1  0
 80 81  1  0
 80 90  1  0
 81 84  1  0
 82 86  1  0
 82 81  1  0
 83 82  2  0
 86 85  1  0
 88 86  1  0
 88 89  1  0
 88 87  1  0
 90 93  1  1
 90 91  1  0
 92 90  1  0
M  ISO  4   1 100  15 100  52 101  53 101
M  END
>  <TORSDO>  (7) 
F 21

>  <SCORE>  (7) 
-12.663

>  <name>  (7) 
6

>  <ligand_id>  (7) 
6

>  <original_smiles>  (7) 
[H]c1c([H])c([H])c2c(c1[H])C([H])([H])C([H])([H])C([H])([H])C2([H])N([H])C(=O)C1([H])N(C(=O)C([H])(N([H])C(=O)C([H])(N([H])C([H])([H])[H])C([H])([H])[H])C(C([H])([H])[H])(C([H])([H])[H])C([H])([H])[H])C([H])([H])c2c([H])c(OC([H])([H])C([H])([H])C([H])([H])C([H])([H])C([H])([H])N=C3C([H])([H])C([H])([H])N(C(=O)N4C([H])([H])C([H])([H])C([H])([H])C([H])(n5nc(-c6c([H])c([H])c(Oc7c([H])c([H])c(F)c([H])c7F)c([H])c6[H])c(C(=O)N([H])[H])c5N([H])[H])C4([H])[H])C([H])([H])C3([H])[N+]([H])([H])[H])c([H])c([H])c2C1([H])[H]

>  <smiles>  (7) 
[H]c1c([H])c([H])c2c(c1[H])C([H])([H])C([H])([H])C([H])([H])C2([H])N([H])C(=O)C1([H])N(C(=O)C([H])(N([H])C(=O)C([H])(N([H])C([H])([H])[H])C([H])([H])[H])C(C([H])([H])[H])(C([H])([H])[H])C([H])([H])[H])C([H])([H])c2c([H])c(OC([H])([H])C([H])([H])C([H])([H])C([H])([H])C([H])([H])N=C3C([H])([H])C([H])([H])N(C(=O)N4C([H])([H])C([H])([H])C([H])([H])C([H])(n5nc(-c6c([H])c([H])c(Oc7c([H])c([H])c(F)c([H])c7F)c([H])c6[H])c(C(=O)N([H])[H])c5N([H])[H])C4([H])[H])C([H])([H])C3([H])[N+]([H])([H])[H])c([H])c([H])c2C1([H])[H]

$$$$
7:0:0
     RDKit          3D

 93100  0  0  1  0  0  0  0  0999 V2000
  -28.1070  -22.3140   22.6780 C   0  0  0  0  0  2  0  0  0  0  0  0
  -27.4260  -23.5480   22.2950 N   0  0  0  0  0  0  0  0  0  0  0  0
  -26.8650  -23.3880   21.4620 H   0  0  0  0  0  0  0  0  0  0  0  0
  -28.3420  -24.6700   22.0920 C   0  0  0  0  0  2  0  0  0  0  0  0
  -28.0890  -25.2790   20.7060 C   0  0  0  0  0  2  0  0  0  0  0  0
  -29.0170  -26.4620   20.3600 C   0  0  0  0  0  2  0  0  0  0  0  0
  -28.6020  -27.1020   19.1470 O   0  0  0  0  0  0  0  0  0  0  0  0
  -24.7730  -31.4990   23.1740 C   0  0  0  0  0  0  0  0  0  0  0  0
  -27.4310  -27.7990   19.2860 C   0  0  0  0  0  0  0  0  0  0  0  0
  -23.5370  -30.3230   21.3800 C   0  0  0  0  0  3  0  0  0  0  0  0
  -24.9750  -29.1290   19.6440 C   0  0  0  0  0  0  0  0  0  0  0  0
  -26.0220  -30.8550   21.1200 C   0  0  0  0  0  2  0  0  0  0  0  0
  -26.1340  -29.6170   20.2610 C   0  0  0  0  0  0  0  0  0  0  0  0
  -27.3680  -28.9570   20.0830 C   0  0  0  0  0  3  0  0  0  0  0  0
  -26.2670  -27.3230   18.6510 C   0  0  0  0  0  3  0  0  0  0  0  0
  -25.0370  -27.9820   18.8300 C   0  0  0  0  0  3  0  0  0  0  0  0
  -23.6950  -29.8900   19.8950 C   0  0  0  0  0  2  0  0  0  0  0  0
  -24.7990  -30.8970   21.9500 N   0  0  0  0  0  0  0  0  0  0  0  0
  -23.7150  -31.6210   23.8050 O   0  0  0  0  0  0  0  0  0  0  0  0
  -22.9930  -29.1250   22.1900 C   0  0  0  0  0  0  0  0  0  0  0  0
  -21.6890  -28.8440   22.0360 N   0  0  0  0  0  0  0  0  0  0  0  0
  -23.7380  -28.4570   22.9120 O   0  0  0  0  0  0  0  0  0  0  0  0
  -21.1480  -29.4460   21.4320 H   0  0  0  0  0  0  0  0  0  0  0  0
  -18.4560  -27.2450   22.2800 C   0  0  0  0  0  0  0  0  0  0  0  0
  -20.9630  -27.7420   22.6670 C   0  0  0  0  0  3  0  0  0  0  0  0
  -21.2370  -26.4060   21.9370 C   0  0  0  0  0  2  0  0  0  0  0  0
  -20.1990  -26.0870   20.8560 C   0  0  0  0  0  2  0  0  0  0  0  0
  -18.7940  -26.0080   21.4630 C   0  0  0  0  0  2  0  0  0  0  0  0
  -19.4750  -28.0670   22.8320 C   0  0  0  0  0  0  0  0  0  0  0  0
  -19.1060  -29.2220   23.5560 C   0  0  0  0  0  3  0  0  0  0  0  0
  -17.7500  -29.5590   23.7320 C   0  0  0  0  0  3  0  0  0  0  0  0
  -16.7460  -28.7330   23.1970 C   0  0  0  0  0  3  0  0  0  0  0  0
  -17.1010  -27.5780   22.4780 C   0  0  0  0  0  3  0  0  0  0  0  0
  -26.0650  -32.0850   23.8230 C   0  0  0  0  0  3  0  0  0  0  0  0
  -26.6390  -31.1900   24.9890 C   0  0  1  0  0  0  0  0  0  0  0  0
  -25.5810  -30.7900   26.0450 C   0  0  0  0  0  1  0  0  0  0  0  0
  -27.2580  -29.8900   24.4270 C   0  0  0  0  0  1  0  0  0  0  0  0
  -27.7820  -31.9460   25.7090 C   0  0  0  0  0  1  0  0  0  0  0  0
  -25.7440  -33.4320   24.3100 N   0  0  0  0  0  0  0  0  0  0  0  0
  -26.0530  -34.5660   23.6650 C   0  0  0  0  0  0  0  0  0  0  0  0
  -26.7110  -34.5860   22.6210 O   0  0  0  0  0  0  0  0  0  0  0  0
  -25.1560  -33.4900   25.1290 H   0  0  0  0  0  0  0  0  0  0  0  0
  -24.2980  -36.3610   23.5280 C   0  0  0  0  0  1  0  0  0  0  0  0
  -25.5520  -35.8880   24.2790 C   0  0  0  0  0  3  0  0  0  0  0  0
  -27.6810  -36.7080   25.1810 C   0  0  0  0  0  1  0  0  0  0  0  0
  -26.5680  -36.9610   24.2700 N   0  0  0  0  0  0  0  0  0  0  0  0
  -26.1510  -37.8540   24.5210 H   0  0  0  0  0  0  0  0  0  0  0  0
  -28.9970  -21.7660   21.5410 C   0  0  0  0  0  2  0  0  0  0  0  0
  -29.4560  -20.3970   21.8340 N   0  0  0  0  0  4  0  0  0  0  0  0
  -30.0030  -20.4240   22.6790 H   0  0  0  0  0  0  0  0  0  0  0  0
  -28.6530  -19.8160   22.0110 H   0  0  0  0  0  0  0  0  0  0  0  0
  -30.2750  -19.7770   20.7720 C   0  0  0  0  0  2  0  0  0  0  0  0
  -30.7430  -18.3730   21.1880 C   0  0  0  0  0  2  0  0  0  0  0  0
  -31.6850  -17.7180   20.1670 C   0  0  0  0  0  2  0  0  0  0  0  0
  -32.2240  -16.3580   20.6410 C   0  0  0  0  0  2  0  0  0  0  0  0
  -31.3540  -14.4450   19.3370 C   0  0  0  0  0  0  0  0  0  0  0  0
  -30.8780  -12.1510   18.5820 C   0  0  0  0  0  2  0  0  0  0  0  0
  -29.8120  -12.0880   17.4770 C   0  0  0  0  0  2  0  0  0  0  0  0
  -28.4090  -12.0140   18.0980 C   0  0  0  0  0  2  0  0  0  0  0  0
  -28.1700  -13.1200   19.1580 C   0  0  0  0  0  3  0  0  0  0  0  0
  -29.3360  -13.1820   20.1720 C   0  0  0  0  0  2  0  0  0  0  0  0
  -30.6090  -13.3160   19.4370 N   0  0  0  0  0  0  0  0  0  0  0  0
  -32.1790  -14.6380   18.4390 O   0  0  0  0  0  0  0  0  0  0  0  0
  -31.2790  -15.2690   20.3870 N   0  0  0  0  0  0  0  0  0  0  0  0
  -30.6340  -15.0240   21.1220 H   0  0  0  0  0  0  0  0  0  0  0  0
  -25.9630  -13.8880   20.2440 C   0  0  0  0  0  0  0  0  0  0  0  0
  -24.8950  -13.1890   20.7390 C   0  0  0  0  0  0  0  0  0  0  0  0
  -25.2190  -11.8070   20.5770 C   0  0  0  0  0  0  0  0  0  0  0  0
  -26.8800  -12.9370   19.8240 N   0  0  0  0  0  0  0  0  0  0  0  0
  -26.4410  -11.6770   20.0760 N   0  0  0  0  0  0  0  0  0  0  0  0
  -24.4160  -10.6020   20.8200 C   0  0  0  0  0  0  0  0  0  0  0  0
  -24.8130   -9.6270   21.7630 C   0  0  0  0  0  3  0  0  0  0  0  0
  -24.0150   -8.4850   21.9890 C   0  0  0  0  0  3  0  0  0  0  0  0
  -22.8060   -8.3100   21.2750 C   0  0  0  0  0  0  0  0  0  0  0  0
  -22.4300   -9.2700   20.3200 C   0  0  0  0  0  3  0  0  0  0  0  0
  -23.2260  -10.4030   20.0910 C   0  0  0  0  0  3  0  0  0  0  0  0
  -21.9810   -7.2200   21.4130 O   0  0  0  0  0  0  0  0  0  0  0  0
  -21.8160   -6.5900   22.6200 C   0  0  0  0  0  0  0  0  0  0  0  0
  -21.3310   -7.2720   23.7570 C   0  0  0  0  0  3  0  0  0  0  0  0
  -21.1100   -6.5700   24.9600 C   0  0  0  0  0  3  0  0  0  0  0  0
  -21.3640   -5.1870   25.0240 C   0  0  0  0  0  0  0  0  0  0  0  0
  -21.8410   -4.5050   23.8910 C   0  0  0  0  0  3  0  0  0  0  0  0
  -22.0630   -5.2040   22.6920 C   0  0  0  0  0  0  0  0  0  0  0  0
  -22.5030   -4.5380   21.5980 F   0  0  0  0  0  0  0  0  0  0  0  0
  -21.1450   -4.5100   26.1750 F   0  0  0  0  0  0  0  0  0  0  0  0
  -23.6020  -13.7640   21.2410 C   0  0  0  0  0  0  0  0  0  0  0  0
  -22.9660  -13.1010   22.2010 N   0  0  0  0  0  0  0  0  0  0  0  0
  -23.1720  -14.8380   20.8190 O   0  0  0  0  0  0  0  0  0  0  0  0
  -23.3230  -12.2280   22.5610 H   0  0  0  0  0  0  0  0  0  0  0  0
  -22.1060  -13.4710   22.5830 H   0  0  0  0  0  0  0  0  0  0  0  0
  -26.2250  -15.2490   20.1030 N   0  0  0  0  0  0  0  0  0  0  0  0
  -25.5480  -15.9600   20.3560 H   0  0  0  0  0  0  0  0  0  0  0  0
  -27.0600  -15.6290   19.6740 H   0  0  0  0  0  0  0  0  0  0  0  0
  2  1  1  0
  3  2  1  0
  4  2  1  0
  5  4  1  0
  6  5  1  0
  7  9  1  0
  7  6  1  0
  8 19  2  0
  9 14  1  0
 10 18  1  0
 10 20  1  0
 11 17  1  0
 11 13  1  0
 12 18  1  0
 13 12  1  0
 14 13  2  0
 15 16  1  0
 15  9  2  0
 16 11  2  0
 17 10  1  0
 18  8  1  0
 20 22  2  0
 21 20  1  0
 23 21  1  0
 24 33  2  0
 24 29  1  0
 25 21  1  0
 25 29  1  0
 26 25  1  0
 27 28  1  0
 27 26  1  0
 28 24  1  0
 29 30  2  0
 30 31  1  0
 32 31  2  0
 33 32  1  0
 34  8  1  0
 34 39  1  0
 34 35  1  0
 35 38  1  1
 35 36  1  0
 37 35  1  0
 39 42  1  0
 40 44  1  0
 40 39  1  0
 41 40  2  0
 44 43  1  0
 46 44  1  0
 46 47  1  0
 46 45  1  0
 48 49  1  0
 48  1  1  0
 49 51  1  0
 49 50  1  0
 52 53  1  0
 52 49  1  0
 54 55  1  0
 54 53  1  0
 56 62  1  0
 56 64  1  0
 57 62  1  0
 58 59  1  0
 58 57  1  0
 60 59  1  0
 60 69  1  0
 60 61  1  0
 62 61  1  0
 63 56  2  0
 64 55  1  0
 64 65  1  0
 66 67  2  0
 67 86  1  0
 68 67  1  0
 68 71  1  0
 69 70  1  0
 69 66  1  0
 70 68  2  0
 71 72  1  0
 72 73  2  0
 74 77  1  0
 74 73  1  0
 75 74  2  0
 76 75  1  0
 76 71  2  0
 77 78  1  0
 78 83  2  0
 78 79  1  0
 79 80  2  0
 80 81  1  0
 81 85  1  0
 82 81  2  0
 83 82  1  0
 84 83  1  0
 86 87  1  0
 87 89  1  0
 87 90  1  0
 88 86  2  0
 91 66  1  0
 91 92  1  0
 93 91  1  0
M  ISO  4   6 101   7 101  56 100  64 100
M  END
>  <TORSDO>  (8) 
F 26

>  <SCORE>  (8) 
-8.871

>  <name>  (8) 
7

>  <ligand_id>  (8) 
7

>  <original_smiles>  (8) 
[H]c1c([H])c([H])c2c(c1[H])C([H])([H])C([H])([H])C([H])([H])C2([H])N([H])C(=O)C1([H])N(C(=O)C([H])(N([H])C(=O)C([H])(N([H])C([H])([H])[H])C([H])([H])[H])C(C([H])([H])[H])(C([H])([H])[H])C([H])([H])[H])C([H])([H])c2c([H])c(OC([H])([H])C([H])([H])C([H])([H])N([H])C([H])([H])C([H])([H])[N+]([H])([H])C([H])([H])C([H])([H])C([H])([H])C([H])([H])N([H])C(=O)N3C([H])([H])C([H])([H])C([H])([H])C([H])(n4nc(-c5c([H])c([H])c(Oc6c([H])c([H])c(F)c([H])c6F)c([H])c5[H])c(C(=O)N([H])[H])c4N([H])[H])C3([H])[H])c([H])c([H])c2C1([H])[H]

>  <smiles>  (8) 
[H]c1c([H])c([H])c2c(c1[H])C([H])([H])C([H])([H])C([H])([H])C2([H])N([H])C(=O)C1([H])N(C(=O)C([H])(N([H])C(=O)C([H])(N([H])C([H])([H])[H])C([H])([H])[H])C(C([H])([H])[H])(C([H])([H])[H])C([H])([H])[H])C([H])([H])c2c([H])c(OC([H])([H])C([H])([H])C([H])([H])N([H])C([H])([H])C([H])([H])[N+]([H])([H])C([H])([H])C([H])([H])C([H])([H])C([H])([H])N([H])C(=O)N3C([H])([H])C([H])([H])C([H])([H])C([H])(n4nc(-c5c([H])c([H])c(Oc6c([H])c([H])c(F)c([H])c6F)c([H])c5[H])c(C(=O)N([H])[H])c4N([H])[H])C3([H])[H])c([H])c([H])c2C1([H])[H]

$$$$
8:0:0
     RDKit          3D

 90 97  0  0  1  0  0  0  0  0999 V2000
  -28.8030  -22.8920   19.5180 C   0  0  0  0  0  2  0  0  0  0  0  0
  -29.2590  -21.8290   20.4570 N   0  0  0  0  0  4  0  0  0  0  0  0
  -28.7460  -21.9560   21.3150 H   0  0  0  0  0  0  0  0  0  0  0  0
  -30.2270  -22.0080   20.6650 H   0  0  0  0  0  0  0  0  0  0  0  0
  -29.0960  -20.4310   19.9640 C   0  0  0  0  0  2  0  0  0  0  0  0
  -29.8030  -19.3660   20.8520 C   0  0  0  0  0  2  0  0  0  0  0  0
  -29.5170  -17.8880   20.4630 C   0  0  0  0  0  2  0  0  0  0  0  0
  -30.3450  -16.8570   21.2790 C   0  0  0  0  0  2  0  0  0  0  0  0
  -30.6320  -14.4670   20.4800 C   0  0  0  0  0  0  0  0  0  0  0  0
  -30.3350  -12.3140   19.3050 C   0  0  0  0  0  2  0  0  0  0  0  0
  -29.3900  -12.5220   18.1030 C   0  0  0  0  0  2  0  0  0  0  0  0
  -27.9150  -12.3930   18.5330 C   0  0  0  0  0  2  0  0  0  0  0  0
  -27.5850  -13.2290   19.7980 C   0  0  0  0  0  3  0  0  0  0  0  0
  -28.6350  -12.9860   20.9040 C   0  0  0  0  0  2  0  0  0  0  0  0
  -29.9610  -13.2910   20.3390 N   0  0  0  0  0  0  0  0  0  0  0  0
  -31.7560  -14.6610   20.0070 O   0  0  0  0  0  0  0  0  0  0  0  0
  -29.9310  -15.4610   21.0580 N   0  0  0  0  0  0  0  0  0  0  0  0
  -29.0130  -15.2030   21.3920 H   0  0  0  0  0  0  0  0  0  0  0  0
  -25.1860  -13.8580   20.4900 C   0  0  0  0  0  0  0  0  0  0  0  0
  -24.1110  -13.0950   20.8600 C   0  0  0  0  0  0  0  0  0  0  0  0
  -24.5630  -11.7410   20.8400 C   0  0  0  0  0  0  0  0  0  0  0  0
  -26.2260  -12.9680   20.2720 N   0  0  0  0  0  0  0  0  0  0  0  0
  -25.8550  -11.6900   20.5380 N   0  0  0  0  0  0  0  0  0  0  0  0
  -23.8290  -10.4850   21.0350 C   0  0  0  0  0  0  0  0  0  0  0  0
  -24.2640   -9.5090   21.9600 C   0  0  0  0  0  3  0  0  0  0  0  0
  -23.5310   -8.3180   22.1430 C   0  0  0  0  0  3  0  0  0  0  0  0
  -22.3470   -8.0930   21.4000 C   0  0  0  0  0  0  0  0  0  0  0  0
  -21.9310   -9.0550   20.4640 C   0  0  0  0  0  3  0  0  0  0  0  0
  -22.6640  -10.2390   20.2800 C   0  0  0  0  0  3  0  0  0  0  0  0
  -21.5830   -6.9540   21.4920 O   0  0  0  0  0  0  0  0  0  0  0  0
  -21.5560   -6.1970   22.6360 C   0  0  0  0  0  0  0  0  0  0  0  0
  -21.1770   -6.7430   23.8820 C   0  0  0  0  0  3  0  0  0  0  0  0
  -21.0940   -5.9140   25.0190 C   0  0  0  0  0  3  0  0  0  0  0  0
  -21.3820   -4.5410   24.9110 C   0  0  0  0  0  0  0  0  0  0  0  0
  -21.7540   -3.9930   23.6710 C   0  0  0  0  0  3  0  0  0  0  0  0
  -21.8380   -4.8190   22.5350 C   0  0  0  0  0  0  0  0  0  0  0  0
  -22.1760   -4.2840   21.3380 F   0  0  0  0  0  0  0  0  0  0  0  0
  -21.2950   -3.7420   26.0010 F   0  0  0  0  0  0  0  0  0  0  0  0
  -22.7160  -13.5840   21.1230 C   0  0  0  0  0  0  0  0  0  0  0  0
  -21.9810  -12.8980   21.9920 N   0  0  0  0  0  0  0  0  0  0  0  0
  -22.2850  -14.6080   20.5940 O   0  0  0  0  0  0  0  0  0  0  0  0
  -22.3410  -12.0690   22.4410 H   0  0  0  0  0  0  0  0  0  0  0  0
  -21.0460  -13.2080   22.2140 H   0  0  0  0  0  0  0  0  0  0  0  0
  -25.3620  -15.2260   20.3040 N   0  0  0  0  0  0  0  0  0  0  0  0
  -24.5990  -15.8870   20.4030 H   0  0  0  0  0  0  0  0  0  0  0  0
  -26.2160  -15.6550   19.9710 H   0  0  0  0  0  0  0  0  0  0  0  0
  -28.7470  -24.2580   20.2350 C   0  0  0  0  0  0  0  0  0  0  0  0
  -28.8120  -24.3310   21.4690 O   0  0  0  0  0  0  0  0  0  0  0  0
  -28.6050  -25.5210   19.3540 C   0  0  0  0  0  2  0  0  0  0  0  0
  -28.4350  -26.7260   20.1330 O   0  0  0  0  0  0  0  0  0  0  0  0
  -24.6120  -31.8820   23.2320 C   0  0  0  0  0  0  0  0  0  0  0  0
  -27.2370  -27.4200   20.1280 C   0  0  0  0  0  0  0  0  0  0  0  0
  -23.3960  -30.4810   21.5990 C   0  0  0  0  0  3  0  0  0  0  0  0
  -24.8380  -28.9390   20.1680 C   0  0  0  0  0  0  0  0  0  0  0  0
  -25.9230  -30.8280   21.3910 C   0  0  0  0  0  2  0  0  0  0  0  0
  -26.0020  -29.4570   20.7480 C   0  0  0  0  0  0  0  0  0  0  0  0
  -27.1980  -28.7030   20.7280 C   0  0  0  0  0  3  0  0  0  0  0  0
  -26.0420  -26.9110   19.5630 C   0  0  0  0  0  3  0  0  0  0  0  0
  -24.8540  -27.6650   19.5770 C   0  0  0  0  0  3  0  0  0  0  0  0
  -23.5970  -29.8020   20.2180 C   0  0  0  0  0  2  0  0  0  0  0  0
  -24.6620  -31.0790   22.1310 N   0  0  0  0  0  0  0  0  0  0  0  0
  -23.5350  -32.1560   23.7770 O   0  0  0  0  0  0  0  0  0  0  0  0
  -22.7480  -29.4610   22.5620 C   0  0  0  0  0  0  0  0  0  0  0  0
  -21.4230  -29.2810   22.4410 N   0  0  0  0  0  0  0  0  0  0  0  0
  -23.4360  -28.8330   23.3720 O   0  0  0  0  0  0  0  0  0  0  0  0
  -20.9300  -29.8390   21.7580 H   0  0  0  0  0  0  0  0  0  0  0  0
  -18.0480  -28.0940   22.9550 C   0  0  0  0  0  0  0  0  0  0  0  0
  -20.6070  -28.3460   23.2170 C   0  0  0  0  0  3  0  0  0  0  0  0
  -20.7050  -26.9140   22.6400 C   0  0  0  0  0  2  0  0  0  0  0  0
  -19.5980  -26.5940   21.6310 C   0  0  0  0  0  2  0  0  0  0  0  0
  -18.2180  -26.7440   22.2790 C   0  0  0  0  0  2  0  0  0  0  0  0
  -19.1710  -28.8540   23.3800 C   0  0  0  0  0  0  0  0  0  0  0  0
  -18.9580  -30.1190   23.9680 C   0  0  0  0  0  3  0  0  0  0  0  0
  -17.6550  -30.6250   24.1380 C   0  0  0  0  0  3  0  0  0  0  0  0
  -16.5470  -29.8620   23.7300 C   0  0  0  0  0  3  0  0  0  0  0  0
  -16.7450  -28.5980   23.1440 C   0  0  0  0  0  3  0  0  0  0  0  0
  -25.9030  -32.5110   23.8440 C   0  0  0  0  0  3  0  0  0  0  0  0
  -26.4340  -31.7340   25.1110 C   0  0  1  0  0  0  0  0  0  0  0  0
  -25.3520  -31.4890   26.1890 C   0  0  0  0  0  1  0  0  0  0  0  0
  -27.0140  -30.3590   24.7060 C   0  0  0  0  0  1  0  0  0  0  0  0
  -27.5910  -32.5270   25.7650 C   0  0  0  0  0  1  0  0  0  0  0  0
  -25.5960  -33.9070   24.1820 N   0  0  0  0  0  0  0  0  0  0  0  0
  -25.9230  -34.9620   23.4230 C   0  0  0  0  0  0  0  0  0  0  0  0
  -26.5850  -34.8630   22.3870 O   0  0  0  0  0  0  0  0  0  0  0  0
  -25.0080  -34.0580   24.9880 H   0  0  0  0  0  0  0  0  0  0  0  0
  -24.1890  -36.7530   23.0860 C   0  0  0  0  0  1  0  0  0  0  0  0
  -25.4370  -36.3480   23.8870 C   0  0  0  0  0  3  0  0  0  0  0  0
  -27.5770  -37.2310   24.7040 C   0  0  0  0  0  1  0  0  0  0  0  0
  -26.4660  -37.4030   23.7710 N   0  0  0  0  0  0  0  0  0  0  0  0
  -26.0600  -38.3220   23.9290 H   0  0  0  0  0  0  0  0  0  0  0  0
  1 47  1  0
  1  2  1  0
  2  4  1  0
  2  3  1  0
  5  2  1  0
  5  6  1  0
  7  6  1  0
  7  8  1  0
  9 17  1  0
 10 15  1  0
 11 12  1  0
 11 10  1  0
 13 12  1  0
 13 22  1  0
 13 14  1  0
 15  9  1  0
 15 14  1  0
 16  9  2  0
 17  8  1  0
 17 18  1  0
 19 20  2  0
 20 39  1  0
 21 20  1  0
 21 24  1  0
 22 19  1  0
 22 23  1  0
 23 21  2  0
 24 25  1  0
 25 26  2  0
 27 30  1  0
 27 26  1  0
 28 27  2  0
 29 28  1  0
 29 24  2  0
 30 31  1  0
 31 32  1  0
 32 33  2  0
 34 33  1  0
 34 38  1  0
 35 34  2  0
 36 31  2  0
 36 35  1  0
 37 36  1  0
 39 40  1  0
 40 43  1  0
 40 42  1  0
 41 39  2  0
 44 45  1  0
 44 19  1  0
 46 44  1  0
 47 48  2  0
 49 50  1  0
 49 47  1  0
 51 62  2  0
 52 50  1  0
 52 57  1  0
 53 61  1  0
 53 63  1  0
 54 60  1  0
 54 56  1  0
 55 61  1  0
 56 55  1  0
 57 56  2  0
 58 59  1  0
 58 52  2  0
 59 54  2  0
 60 53  1  0
 61 51  1  0
 63 65  2  0
 64 63  1  0
 66 64  1  0
 67 76  2  0
 67 72  1  0
 68 64  1  0
 68 72  1  0
 69 68  1  0
 70 71  1  0
 70 69  1  0
 71 67  1  0
 72 73  2  0
 73 74  1  0
 75 74  2  0
 76 75  1  0
 77 51  1  0
 77 82  1  0
 77 78  1  0
 78 81  1  1
 78 79  1  0
 80 78  1  0
 82 85  1  0
 83 87  1  0
 83 82  1  0
 84 83  2  0
 87 86  1  0
 89 87  1  0
 89 90  1  0
 89 88  1  0
M  ISO  4   9 100  17 100  49 101  50 101
M  END
>  <TORSDO>  (9) 
F 23

>  <SCORE>  (9) 
-12.650

>  <name>  (9) 
8

>  <ligand_id>  (9) 
8

>  <original_smiles>  (9) 
[H]c1c([H])c([H])c2c(c1[H])C([H])([H])C([H])([H])C([H])([H])C2([H])N([H])C(=O)C1([H])N(C(=O)C([H])(N([H])C(=O)C([H])(N([H])C([H])([H])[H])C([H])([H])[H])C(C([H])([H])[H])(C([H])([H])[H])C([H])([H])[H])C([H])([H])c2c([H])c(OC([H])([H])C(=O)C([H])([H])[N+]([H])([H])C([H])([H])C([H])([H])C([H])([H])C([H])([H])N([H])C(=O)N3C([H])([H])C([H])([H])C([H])([H])C([H])(n4nc(-c5c([H])c([H])c(Oc6c([H])c([H])c(F)c([H])c6F)c([H])c5[H])c(C(=O)N([H])[H])c4N([H])[H])C3([H])[H])c([H])c([H])c2C1([H])[H]

>  <smiles>  (9) 
[H]c1c([H])c([H])c2c(c1[H])C([H])([H])C([H])([H])C([H])([H])C2([H])N([H])C(=O)C1([H])N(C(=O)C([H])(N([H])C(=O)C([H])(N([H])C([H])([H])[H])C([H])([H])[H])C(C([H])([H])[H])(C([H])([H])[H])C([H])([H])[H])C([H])([H])c2c([H])c(OC([H])([H])C(=O)C([H])([H])[N+]([H])([H])C([H])([H])C([H])([H])C([H])([H])C([H])([H])N([H])C(=O)N3C([H])([H])C([H])([H])C([H])([H])C([H])(n4nc(-c5c([H])c([H])c(Oc6c([H])c([H])c(F)c([H])c6F)c([H])c5[H])c(C(=O)N([H])[H])c4N([H])[H])C3([H])[H])c([H])c([H])c2C1([H])[H]

$$$$
9:0:0
     RDKit          3D

 94102  0  0  1  0  0  0  0  0999 V2000
  -30.5500  -19.2520   22.1730 C   0  0  0  0  0  2  0  0  0  0  0  0
  -29.9390  -19.8340   19.3850 C   0  0  0  0  0  2  0  0  0  0  0  0
  -30.4170  -20.9760   20.3240 C   0  0  0  0  0  3  0  0  0  0  0  0
  -29.9970  -20.6320   21.7720 C   0  0  0  0  0  3  0  0  0  0  0  0
  -30.1360  -18.1220   21.1980 C   0  0  0  0  0  3  0  0  0  0  0  0
  -30.4610  -18.5050   19.8000 N   0  0  0  0  0  4  0  0  0  0  0  0
  -28.6660  -20.6300   21.8810 F   0  0  0  0  0  0  0  0  0  0  0  0
  -31.4600  -18.5000   19.6760 H   0  0  0  0  0  0  0  0  0  0  0  0
  -30.0840  -17.8090   19.1760 H   0  0  0  0  0  0  0  0  0  0  0  0
  -29.9290  -22.2910   19.8630 N   0  0  0  0  0  0  0  0  0  0  0  0
  -30.2720  -22.4300   18.9160 H   0  0  0  0  0  0  0  0  0  0  0  0
  -30.4080  -23.4010   20.6980 C   0  0  0  0  0  2  0  0  0  0  0  0
  -30.1580  -24.8090   20.0960 C   0  0  0  0  0  2  0  0  0  0  0  0
  -28.7790  -25.4400   20.3900 C   0  0  0  0  0  2  0  0  0  0  0  0
  -28.7970  -26.8540   20.1150 O   0  0  0  0  0  0  0  0  0  0  0  0
  -24.6390  -31.7680   23.2020 C   0  0  0  0  0  0  0  0  0  0  0  0
  -27.5820  -27.5120   20.1170 C   0  0  0  0  0  0  0  0  0  0  0  0
  -23.5490  -30.3410   21.5020 C   0  0  0  0  0  3  0  0  0  0  0  0
  -25.1140  -28.9030   20.0920 C   0  0  0  0  0  0  0  0  0  0  0  0
  -26.0590  -30.8250   21.3820 C   0  0  0  0  0  2  0  0  0  0  0  0
  -26.2300  -29.4710   20.7190 C   0  0  0  0  0  0  0  0  0  0  0  0
  -27.4680  -28.7860   20.7240 C   0  0  0  0  0  3  0  0  0  0  0  0
  -26.4460  -26.9630   19.4810 C   0  0  0  0  0  3  0  0  0  0  0  0
  -25.2180  -27.6480   19.4690 C   0  0  0  0  0  3  0  0  0  0  0  0
  -23.8290  -29.7010   20.1160 C   0  0  0  0  0  2  0  0  0  0  0  0
  -24.7650  -30.9920   22.0870 N   0  0  0  0  0  0  0  0  0  0  0  0
  -23.5310  -31.9760   23.7150 O   0  0  0  0  0  0  0  0  0  0  0  0
  -22.9230  -29.2710   22.4250 C   0  0  0  0  0  0  0  0  0  0  0  0
  -21.6100  -29.0390   22.2680 N   0  0  0  0  0  0  0  0  0  0  0  0
  -23.6170  -28.6510   23.2350 O   0  0  0  0  0  0  0  0  0  0  0  0
  -21.1100  -29.5940   21.5870 H   0  0  0  0  0  0  0  0  0  0  0  0
  -18.2710  -27.7230   22.6960 C   0  0  0  0  0  0  0  0  0  0  0  0
  -20.8170  -28.0500   23.0000 C   0  0  0  0  0  3  0  0  0  0  0  0
  -20.9690  -26.6430   22.3740 C   0  0  0  0  0  2  0  0  0  0  0  0
  -19.8840  -26.3230   21.3400 C   0  0  0  0  0  2  0  0  0  0  0  0
  -18.4940  -26.4040   21.9770 C   0  0  0  0  0  2  0  0  0  0  0  0
  -19.3620  -28.5040   23.1620 C   0  0  0  0  0  0  0  0  0  0  0  0
  -19.1010  -29.7390   23.7930 C   0  0  0  0  0  3  0  0  0  0  0  0
  -17.7800  -30.1950   23.9640 C   0  0  0  0  0  3  0  0  0  0  0  0
  -16.7030  -29.4110   23.5140 C   0  0  0  0  0  3  0  0  0  0  0  0
  -16.9500  -28.1770   22.8870 C   0  0  0  0  0  3  0  0  0  0  0  0
  -25.8750  -32.4470   23.8690 C   0  0  0  0  0  3  0  0  0  0  0  0
  -25.5020  -33.8340   24.1800 N   0  0  0  0  0  0  0  0  0  0  0  0
  -25.8170  -34.8940   23.4210 C   0  0  0  0  0  0  0  0  0  0  0  0
  -26.5210  -34.8090   22.4120 O   0  0  0  0  0  0  0  0  0  0  0  0
  -24.8780  -33.9710   24.9600 H   0  0  0  0  0  0  0  0  0  0  0  0
  -24.0310  -36.6130   22.9980 C   0  0  0  0  0  1  0  0  0  0  0  0
  -25.2610  -36.2650   23.8520 C   0  0  0  0  0  3  0  0  0  0  0  0
  -27.3290  -37.2430   24.7440 C   0  0  0  0  0  1  0  0  0  0  0  0
  -26.2540  -37.3580   23.7610 N   0  0  0  0  0  0  0  0  0  0  0  0
  -25.8070  -38.2620   23.8830 H   0  0  0  0  0  0  0  0  0  0  0  0
  -26.3730  -31.6990   25.1670 C   0  0  1  0  0  0  0  0  0  0  0  0
  -25.2490  -31.4190   26.1910 C   0  0  0  0  0  1  0  0  0  0  0  0
  -27.0250  -30.3460   24.7990 C   0  0  0  0  0  1  0  0  0  0  0  0
  -27.4650  -32.5390   25.8700 C   0  0  0  0  0  1  0  0  0  0  0  0
  -30.8090  -16.7810   21.6130 C   0  0  0  0  0  2  0  0  0  0  0  0
  -30.7950  -14.6510   20.2740 C   0  0  0  0  0  0  0  0  0  0  0  0
  -30.4240  -12.5780   18.9820 C   0  0  0  0  0  2  0  0  0  0  0  0
  -29.4290  -12.8410   17.8340 C   0  0  0  0  0  2  0  0  0  0  0  0
  -27.9730  -12.6900   18.3200 C   0  0  0  0  0  2  0  0  0  0  0  0
  -27.6980  -13.4630   19.6370 C   0  0  0  0  0  3  0  0  0  0  0  0
  -28.7940  -13.1680   20.6820 C   0  0  0  0  0  2  0  0  0  0  0  0
  -30.0960  -13.5010   20.0780 N   0  0  0  0  0  0  0  0  0  0  0  0
  -31.8750  -14.8880   19.7280 O   0  0  0  0  0  0  0  0  0  0  0  0
  -30.1920  -15.5670   21.0520 N   0  0  0  0  0  0  0  0  0  0  0  0
  -29.2940  -15.2980   21.4250 H   0  0  0  0  0  0  0  0  0  0  0  0
  -25.3200  -14.0530   20.4310 C   0  0  0  0  0  0  0  0  0  0  0  0
  -24.2680  -13.2710   20.8260 C   0  0  0  0  0  0  0  0  0  0  0  0
  -24.7340  -11.9220   20.7630 C   0  0  0  0  0  0  0  0  0  0  0  0
  -26.3610  -13.1790   20.1560 N   0  0  0  0  0  0  0  0  0  0  0  0
  -26.0130  -11.8930   20.4110 N   0  0  0  0  0  0  0  0  0  0  0  0
  -24.0210  -10.6540   20.9610 C   0  0  0  0  0  0  0  0  0  0  0  0
  -24.4690   -9.6930   21.8950 C   0  0  0  0  0  3  0  0  0  0  0  0
  -23.7560   -8.4900   22.0810 C   0  0  0  0  0  3  0  0  0  0  0  0
  -22.5810   -8.2380   21.3320 C   0  0  0  0  0  0  0  0  0  0  0  0
  -22.1530   -9.1880   20.3880 C   0  0  0  0  0  3  0  0  0  0  0  0
  -22.8660  -10.3830   20.2000 C   0  0  0  0  0  3  0  0  0  0  0  0
  -21.8380   -7.0850   21.4260 O   0  0  0  0  0  0  0  0  0  0  0  0
  -21.7810   -6.3590   22.5880 C   0  0  0  0  0  0  0  0  0  0  0  0
  -21.3100   -6.9220   23.7950 C   0  0  0  0  0  3  0  0  0  0  0  0
  -21.2020   -6.1210   24.9500 C   0  0  0  0  0  3  0  0  0  0  0  0
  -21.5550   -4.7580   24.8980 C   0  0  0  0  0  0  0  0  0  0  0  0
  -22.0180   -4.1950   23.6960 C   0  0  0  0  0  3  0  0  0  0  0  0
  -22.1280   -4.9940   22.5430 C   0  0  0  0  0  0  0  0  0  0  0  0
  -22.5550   -4.4420   21.3820 F   0  0  0  0  0  0  0  0  0  0  0  0
  -21.4440   -3.9870   26.0040 F   0  0  0  0  0  0  0  0  0  0  0  0
  -22.8780  -13.7380   21.1500 C   0  0  0  0  0  0  0  0  0  0  0  0
  -22.1860  -13.0330   22.0380 N   0  0  0  0  0  0  0  0  0  0  0  0
  -22.4160  -14.7640   20.6520 O   0  0  0  0  0  0  0  0  0  0  0  0
  -22.5730  -12.2040   22.4640 H   0  0  0  0  0  0  0  0  0  0  0  0
  -21.2540  -13.3280   22.2960 H   0  0  0  0  0  0  0  0  0  0  0  0
  -25.4720  -15.4270   20.2640 N   0  0  0  0  0  0  0  0  0  0  0  0
  -24.7020  -16.0730   20.3950 H   0  0  0  0  0  0  0  0  0  0  0  0
  -26.3010  -15.8730   19.8960 H   0  0  0  0  0  0  0  0  0  0  0  0
  2  6  1  0
  2  3  1  0
  3 10  1  0
  3  4  1  0
  4  7  1  0
  4  1  1  0
  5 56  1  0
  5  1  1  0
  6  5  1  0
  8  6  1  0
  9  6  1  0
 10 12  1  0
 11 10  1  0
 13 14  1  0
 13 12  1  0
 15 17  1  0
 15 14  1  0
 16 27  2  0
 17 22  1  0
 18 26  1  0
 18 28  1  0
 19 25  1  0
 19 21  1  0
 20 26  1  0
 21 22  2  0
 21 20  1  0
 23 17  2  0
 24 23  1  0
 24 19  2  0
 25 18  1  0
 26 16  1  0
 28 30  2  0
 29 28  1  0
 31 29  1  0
 32 41  2  0
 32 37  1  0
 33 29  1  0
 33 37  1  0
 34 33  1  0
 35 36  1  0
 35 34  1  0
 36 32  1  0
 37 38  2  0
 38 39  1  0
 40 39  2  0
 41 40  1  0
 42 16  1  0
 42 43  1  0
 42 52  1  0
 43 46  1  0
 44 48  1  0
 44 43  1  0
 45 44  2  0
 48 47  1  0
 50 48  1  0
 50 51  1  0
 50 49  1  0
 52 55  1  1
 52 53  1  0
 54 52  1  0
 57 65  1  0
 58 63  1  0
 59 60  1  0
 59 58  1  0
 61 60  1  0
 61 70  1  0
 61 62  1  0
 63 57  1  0
 63 62  1  0
 64 57  2  0
 65 66  1  0
 65 56  1  0
 67 68  2  0
 68 87  1  0
 69 68  1  0
 69 72  1  0
 70 71  1  0
 70 67  1  0
 71 69  2  0
 72 73  1  0
 73 74  2  0
 75 78  1  0
 75 74  1  0
 76 75  2  0
 77 76  1  0
 77 72  2  0
 78 79  1  0
 79 80  1  0
 80 81  2  0
 82 81  1  0
 82 86  1  0
 83 82  2  0
 84 79  2  0
 84 83  1  0
 85 84  1  0
 87 88  1  0
 88 91  1  0
 88 90  1  0
 89 87  2  0
 92 93  1  0
 92 67  1  0
 94 92  1  0
M  ISO  4  14 101  15 101  57 100  65 100
M  END
>  <TORSDO>  (10) 
F 21

>  <SCORE>  (10) 
-12.904

>  <name>  (10) 
9

>  <ligand_id>  (10) 
9

>  <original_smiles>  (10) 
[H]c1c([H])c([H])c2c(c1[H])C([H])([H])C([H])([H])C([H])([H])C2([H])N([H])C(=O)C1([H])N(C(=O)C([H])(N([H])C(=O)C([H])(N([H])C([H])([H])[H])C([H])([H])[H])C(C([H])([H])[H])(C([H])([H])[H])C([H])([H])[H])C([H])([H])c2c([H])c(OC([H])([H])C([H])([H])C([H])([H])N([H])C3([H])C([H])(F)C([H])([H])C([H])(C([H])([H])N([H])C(=O)N4C([H])([H])C([H])([H])C([H])([H])C([H])(n5nc(-c6c([H])c([H])c(Oc7c([H])c([H])c(F)c([H])c7F)c([H])c6[H])c(C(=O)N([H])[H])c5N([H])[H])C4([H])[H])[N+]([H])([H])C3([H])[H])c([H])c([H])c2C1([H])[H]

>  <smiles>  (10) 
[H]c1c([H])c([H])c2c(c1[H])C([H])([H])C([H])([H])C([H])([H])C2([H])N([H])C(=O)C1([H])N(C(=O)C([H])(N([H])C(=O)C([H])(N([H])C([H])([H])[H])C([H])([H])[H])C(C([H])([H])[H])(C([H])([H])[H])C([H])([H])[H])C([H])([H])c2c([H])c(OC([H])([H])C([H])([H])C([H])([H])N([H])C3([H])C([H])(F)C([H])([H])C([H])(C([H])([H])N([H])C(=O)N4C([H])([H])C([H])([H])C([H])([H])C([H])(n5nc(-c6c([H])c([H])c(Oc7c([H])c([H])c(F)c([H])c7F)c([H])c6[H])c(C(=O)N([H])[H])c5N([H])[H])C4([H])[H])[N+]([H])([H])C3([H])[H])c([H])c([H])c2C1([H])[H]

$$$$
10:0:0
     RDKit          3D

100107  0  0  1  0  0  0  0  0999 V2000
  -29.4100  -20.4110   19.0180 C   0  0  0  0  0  2  0  0  0  0  0  0
  -28.9070  -20.7840   17.6040 C   0  0  0  0  0  2  0  0  0  0  0  0
  -28.2730  -22.1850   17.5470 C   0  0  0  0  0  2  0  0  0  0  0  0
  -29.2800  -23.2310   17.8240 N   0  0  0  0  0  4  0  0  0  0  0  0
  -29.8360  -23.3840   16.9970 H   0  0  0  0  0  0  0  0  0  0  0  0
  -29.8930  -22.8830   18.5400 H   0  0  0  0  0  0  0  0  0  0  0  0
  -28.7180  -24.5150   18.2840 C   0  0  0  0  0  2  0  0  0  0  0  0
  -29.8250  -25.5140   18.6590 C   0  0  0  0  0  2  0  0  0  0  0  0
  -29.2630  -26.8780   19.0660 C   0  0  0  0  0  2  0  0  0  0  0  0
  -28.5630  -26.7440   20.2990 O   0  0  0  0  0  0  0  0  0  0  0  0
  -24.6210  -31.8820   23.2400 C   0  0  0  0  0  0  0  0  0  0  0  0
  -27.3840  -27.4350   20.3160 C   0  0  0  0  0  0  0  0  0  0  0  0
  -23.4730  -30.4540   21.5760 C   0  0  0  0  0  3  0  0  0  0  0  0
  -24.9770  -28.8900   20.2390 C   0  0  0  0  0  0  0  0  0  0  0  0
  -25.9990  -30.8220   21.4560 C   0  0  0  0  0  2  0  0  0  0  0  0
  -26.1100  -29.4370   20.8560 C   0  0  0  0  0  0  0  0  0  0  0  0
  -27.3180  -28.7140   20.9020 C   0  0  0  0  0  3  0  0  0  0  0  0
  -26.2340  -26.8760   19.7200 C   0  0  0  0  0  3  0  0  0  0  0  0
  -25.0300  -27.6030   19.6770 C   0  0  0  0  0  3  0  0  0  0  0  0
  -23.7330  -29.7480   20.2180 C   0  0  0  0  0  2  0  0  0  0  0  0
  -24.7140  -31.0690   22.1490 N   0  0  0  0  0  0  0  0  0  0  0  0
  -23.5210  -32.1610   23.7380 O   0  0  0  0  0  0  0  0  0  0  0  0
  -22.7910  -29.4490   22.5290 C   0  0  0  0  0  0  0  0  0  0  0  0
  -21.4710  -29.2690   22.3600 N   0  0  0  0  0  0  0  0  0  0  0  0
  -23.4490  -28.8300   23.3710 O   0  0  0  0  0  0  0  0  0  0  0  0
  -21.0060  -29.8200   21.6510 H   0  0  0  0  0  0  0  0  0  0  0  0
  -18.0750  -28.1090   22.7630 C   0  0  0  0  0  0  0  0  0  0  0  0
  -20.6250  -28.3450   23.1130 C   0  0  0  0  0  3  0  0  0  0  0  0
  -20.7330  -26.9080   22.5540 C   0  0  0  0  0  2  0  0  0  0  0  0
  -19.6610  -26.5850   21.5080 C   0  0  0  0  0  2  0  0  0  0  0  0
  -18.2590  -26.7490   22.1070 C   0  0  0  0  0  2  0  0  0  0  0  0
  -19.1870  -28.8640   23.2200 C   0  0  0  0  0  0  0  0  0  0  0  0
  -18.9620  -30.1340   23.7890 C   0  0  0  0  0  3  0  0  0  0  0  0
  -17.6590  -30.6520   23.9070 C   0  0  0  0  0  3  0  0  0  0  0  0
  -16.5610  -29.8950   23.4670 C   0  0  0  0  0  3  0  0  0  0  0  0
  -16.7690  -28.6240   22.8990 C   0  0  0  0  0  3  0  0  0  0  0  0
  -25.8860  -32.5210   23.8940 C   0  0  0  0  0  3  0  0  0  0  0  0
  -25.5640  -33.9210   24.2020 N   0  0  0  0  0  0  0  0  0  0  0  0
  -25.9150  -34.9660   23.4420 C   0  0  0  0  0  0  0  0  0  0  0  0
  -26.6180  -34.8550   22.4340 O   0  0  0  0  0  0  0  0  0  0  0  0
  -24.9400  -34.0770   24.9810 H   0  0  0  0  0  0  0  0  0  0  0  0
  -24.1900  -36.7440   23.0140 C   0  0  0  0  0  1  0  0  0  0  0  0
  -25.4090  -36.3570   23.8680 C   0  0  0  0  0  3  0  0  0  0  0  0
  -27.5160  -37.2590   24.7470 C   0  0  0  0  0  1  0  0  0  0  0  0
  -26.4390  -37.4140   23.7730 N   0  0  0  0  0  0  0  0  0  0  0  0
  -26.0240  -38.3320   23.9030 H   0  0  0  0  0  0  0  0  0  0  0  0
  -26.3640  -31.7590   25.1890 C   0  0  1  0  0  0  0  0  0  0  0  0
  -25.2410  -31.5250   26.2260 C   0  0  0  0  0  1  0  0  0  0  0  0
  -26.9640  -30.3830   24.8170 C   0  0  0  0  0  1  0  0  0  0  0  0
  -27.4900  -32.5610   25.8830 C   0  0  0  0  0  1  0  0  0  0  0  0
  -30.0940  -19.0300   19.0860 C   0  0  0  0  0  2  0  0  0  0  0  0
  -30.4210  -18.6210   20.4810 N   0  0  2  0  0  4  0  0  0  0  0  0
  -29.5510  -18.6760   20.9880 H   0  0  0  0  0  0  0  0  0  0  0  0
  -31.1380  -20.0190   22.3810 C   0  0  0  0  0  3  0  0  0  0  0  0
  -31.3820  -19.5300   21.1530 C   0  0  0  0  0  3  0  0  0  0  0  0
  -32.0650  -20.9640   23.1180 C   0  0  0  0  0  2  0  0  0  0  0  0
  -31.4460  -22.2910   23.2740 N   0  0  0  0  0  4  0  0  0  0  0  0
  -31.1970  -22.6770   22.3820 H   0  0  0  0  0  0  0  0  0  0  0  0
  -32.0960  -22.9160   23.7180 H   0  0  0  0  0  0  0  0  0  0  0  0
  -30.6220  -22.2380   23.8470 H   0  0  0  0  0  0  0  0  0  0  0  0
  -30.8010  -17.1920   20.5800 C   0  0  0  0  0  2  0  0  0  0  0  0
  -29.5730  -16.3310   20.9510 C   0  0  0  0  0  2  0  0  0  0  0  0
  -30.3950  -14.0650   20.2100 C   0  0  0  0  0  0  0  0  0  0  0  0
  -30.0540  -12.0190   18.8940 C   0  0  0  0  0  2  0  0  0  0  0  0
  -29.0180  -12.3060   17.7850 C   0  0  0  0  0  2  0  0  0  0  0  0
  -27.5770  -12.1260   18.3060 C   0  0  0  0  0  2  0  0  0  0  0  0
  -27.3300  -12.8620   19.6500 C   0  0  0  0  0  3  0  0  0  0  0  0
  -28.4560  -12.5240   20.6560 C   0  0  0  0  0  2  0  0  0  0  0  0
  -29.7490  -12.8850   20.0380 N   0  0  0  0  0  0  0  0  0  0  0  0
  -31.3870  -14.4050   19.5610 O   0  0  0  0  0  0  0  0  0  0  0  0
  -29.7770  -14.8870   21.0690 N   0  0  0  0  0  0  0  0  0  0  0  0
  -29.0760  -14.4180   21.6220 H   0  0  0  0  0  0  0  0  0  0  0  0
  -24.9460  -13.4060   20.4750 C   0  0  0  0  0  0  0  0  0  0  0  0
  -23.9250  -12.6030   20.9120 C   0  0  0  0  0  0  0  0  0  0  0  0
  -24.4260  -11.2670   20.8670 C   0  0  0  0  0  0  0  0  0  0  0  0
  -26.0070  -12.5550   20.1950 N   0  0  0  0  0  0  0  0  0  0  0  0
  -25.6970  -11.2650   20.4820 N   0  0  0  0  0  0  0  0  0  0  0  0
  -23.7600   -9.9820   21.1110 C   0  0  0  0  0  0  0  0  0  0  0  0
  -24.2570   -9.0610   22.0580 C   0  0  0  0  0  3  0  0  0  0  0  0
  -23.5890   -7.8390   22.2870 C   0  0  0  0  0  3  0  0  0  0  0  0
  -22.4090   -7.5290   21.5700 C   0  0  0  0  0  0  0  0  0  0  0  0
  -21.9310   -8.4410   20.6120 C   0  0  0  0  0  3  0  0  0  0  0  0
  -22.6000   -9.6530   20.3810 C   0  0  0  0  0  3  0  0  0  0  0  0
  -21.7090   -6.3560   21.7050 O   0  0  0  0  0  0  0  0  0  0  0  0
  -21.6940   -5.6590   22.8880 C   0  0  0  0  0  0  0  0  0  0  0  0
  -21.2390   -6.2410   24.0900 C   0  0  0  0  0  3  0  0  0  0  0  0
  -21.1750   -5.4670   25.2670 C   0  0  0  0  0  3  0  0  0  0  0  0
  -21.5580   -4.1140   25.2410 C   0  0  0  0  0  0  0  0  0  0  0  0
  -22.0070   -3.5310   24.0440 C   0  0  0  0  0  3  0  0  0  0  0  0
  -22.0730   -4.3030   22.8690 C   0  0  0  0  0  0  0  0  0  0  0  0
  -22.4850   -3.7310   21.7130 F   0  0  0  0  0  0  0  0  0  0  0  0
  -21.4920   -3.3660   26.3690 F   0  0  0  0  0  0  0  0  0  0  0  0
  -22.5290  -13.0380   21.2640 C   0  0  0  0  0  0  0  0  0  0  0  0
  -21.8780  -12.3290   22.1790 N   0  0  0  0  0  0  0  0  0  0  0  0
  -22.0250  -14.0410   20.7630 O   0  0  0  0  0  0  0  0  0  0  0  0
  -22.2990  -11.5200   22.6130 H   0  0  0  0  0  0  0  0  0  0  0  0
  -20.9440  -12.5990   22.4540 H   0  0  0  0  0  0  0  0  0  0  0  0
  -25.0560  -14.7790   20.2750 N   0  0  0  0  0  0  0  0  0  0  0  0
  -24.2820  -15.4150   20.4270 H   0  0  0  0  0  0  0  0  0  0  0  0
  -25.8760  -15.2320   19.8920 H   0  0  0  0  0  0  0  0  0  0  0  0
  1 51  1  0
  2  1  1  0
  3  2  1  0
  3  4  1  0
  4  7  1  0
  4  6  1  0
  5  4  1  0
  7  8  1  0
  8  9  1  0
  9 10  1  0
 10 12  1  0
 11 22  2  0
 12 17  1  0
 13 21  1  0
 13 23  1  0
 14 16  1  0
 15 21  1  0
 16 17  2  0
 16 15  1  0
 18 12  2  0
 19 18  1  0
 19 14  2  0
 20 14  1  0
 20 13  1  0
 21 11  1  0
 23 25  2  0
 24 23  1  0
 26 24  1  0
 27 36  2  0
 27 32  1  0
 28 24  1  0
 28 32  1  0
 29 28  1  0
 30 31  1  0
 30 29  1  0
 31 27  1  0
 32 33  2  0
 33 34  1  0
 35 34  2  0
 36 35  1  0
 37 11  1  0
 37 38  1  0
 37 47  1  0
 38 41  1  0
 39 43  1  0
 39 38  1  0
 40 39  2  0
 43 42  1  0
 45 43  1  0
 45 46  1  0
 45 44  1  0
 47 50  1  1
 47 48  1  0
 49 47  1  0
 51 52  1  0
 52 61  1  0
 52 53  1  1
 52 55  1  0
 54 56  1  0
 55 54  2  0
 56 57  1  0
 57 59  1  0
 57 60  1  0
 58 57  1  0
 61 62  1  0
 62 71  1  0
 63 71  1  0
 64 69  1  0
 65 66  1  0
 65 64  1  0
 67 66  1  0
 67 76  1  0
 67 68  1  0
 69 63  1  0
 69 68  1  0
 70 63  2  0
 71 72  1  0
 73 74  2  0
 74 93  1  0
 75 74  1  0
 75 78  1  0
 76 73  1  0
 76 77  1  0
 77 75  2  0
 78 79  1  0
 79 80  2  0
 81 84  1  0
 81 80  1  0
 82 81  2  0
 83 82  1  0
 83 78  2  0
 84 85  1  0
 85 86  1  0
 86 87  2  0
 88 87  1  0
 88 92  1  0
 89 88  2  0
 90 85  2  0
 90 89  1  0
 91 90  1  0
 93 94  1  0
 94 97  1  0
 94 96  1  0
 95 93  2  0
 98 99  1  0
 98 73  1  0
100 98  1  0
M  ISO  4   9 101  10 101  63 100  71 100
M  END
>  <TORSDO>  (11) 
F 29

>  <SCORE>  (11) 
-10.717

>  <name>  (11) 
10

>  <ligand_id>  (11) 
10

>  <original_smiles>  (11) 
[H]C(=C([H])[N+]([H])(C([H])([H])C([H])([H])N([H])C(=O)N1C([H])([H])C([H])([H])C([H])([H])C([H])(n2nc(-c3c([H])c([H])c(Oc4c([H])c([H])c(F)c([H])c4F)c([H])c3[H])c(C(=O)N([H])[H])c2N([H])[H])C1([H])[H])C([H])([H])C([H])([H])C([H])([H])C([H])([H])[N+]([H])([H])C([H])([H])C([H])([H])C([H])([H])Oc1c([H])c([H])c2c(c1[H])C([H])([H])N(C(=O)C([H])(N([H])C(=O)C([H])(N([H])C([H])([H])[H])C([H])([H])[H])C(C([H])([H])[H])(C([H])([H])[H])C([H])([H])[H])C([H])(C(=O)N([H])C1([H])c3c([H])c([H])c([H])c([H])c3C([H])([H])C([H])([H])C1([H])[H])C2([H])[H])C([H])([H])[N+]([H])([H])[H]

>  <smiles>  (11) 
[H]C(=C([H])[N+]([H])(C([H])([H])C([H])([H])N([H])C(=O)N1C([H])([H])C([H])([H])C([H])([H])C([H])(n2nc(-c3c([H])c([H])c(Oc4c([H])c([H])c(F)c([H])c4F)c([H])c3[H])c(C(=O)N([H])[H])c2N([H])[H])C1([H])[H])C([H])([H])C([H])([H])C([H])([H])C([H])([H])[N+]([H])([H])C([H])([H])C([H])([H])C([H])([H])Oc1c([H])c([H])c2c(c1[H])C([H])([H])N(C(=O)C([H])(N([H])C(=O)C([H])(N([H])C([H])([H])[H])C([H])([H])[H])C(C([H])([H])[H])(C([H])([H])[H])C([H])([H])[H])C([H])(C(=O)N([H])C1([H])c3c([H])c([H])c([H])c([H])c3C([H])([H])C([H])([H])C1([H])[H])C2([H])[H])C([H])([H])[N+]([H])([H])[H]

$$$$
11:0:0
     RDKit          3D

101110  0  0  1  0  0  0  0  0999 V2000
  -30.9200  -23.1560   22.2970 C   0  0  0  0  0  2  0  0  0  0  0  0
  -31.6800  -20.9530   21.6840 C   0  0  0  0  0  3  0  0  0  0  0  0
  -31.6000  -23.2230   20.9150 C   0  0  0  0  0  3  0  0  0  0  0  0
  -30.6270  -21.6750   22.5420 C   0  0  0  0  0  3  0  0  0  0  0  0
  -32.0190  -21.8500   20.5550 N   0  0  0  0  0  4  0  0  0  0  0  0
  -31.4530  -21.6330   19.7470 H   0  0  0  0  0  0  0  0  0  0  0  0
  -32.9920  -21.8120   20.2960 H   0  0  0  0  0  0  0  0  0  0  0  0
  -32.0170  -18.4660   22.0950 C   0  0  0  0  0  3  0  0  0  0  0  0
  -31.6800  -17.1100   21.9050 C   0  0  0  0  0  3  0  0  0  0  0  0
  -30.0740  -17.7610   20.1920 C   0  0  0  0  0  3  0  0  0  0  0  0
  -31.3770  -19.4860   21.3520 C   0  0  0  0  0  0  0  0  0  0  0  0
  -30.7030  -16.7500   20.9550 C   0  0  0  0  0  0  0  0  0  0  0  0
  -30.4140  -19.1200   20.3840 C   0  0  0  0  0  0  0  0  0  0  0  0
  -29.8020  -20.0790   19.6530 F   0  0  0  0  0  0  0  0  0  0  0  0
  -30.9060  -14.4190   20.1730 C   0  0  0  0  0  0  0  0  0  0  0  0
  -30.5420  -12.2420   19.0710 C   0  0  0  0  0  2  0  0  0  0  0  0
  -29.5550  -12.4190   17.9000 C   0  0  0  0  0  2  0  0  0  0  0  0
  -28.0970  -12.3070   18.3870 C   0  0  0  0  0  2  0  0  0  0  0  0
  -27.8130  -13.1830   19.6380 C   0  0  0  0  0  3  0  0  0  0  0  0
  -28.9070  -12.9760   20.7090 C   0  0  0  0  0  2  0  0  0  0  0  0
  -30.2150  -13.2520   20.0870 N   0  0  0  0  0  0  0  0  0  0  0  0
  -31.9830  -14.6110   19.5970 O   0  0  0  0  0  0  0  0  0  0  0  0
  -30.2840  -15.3970   20.8500 N   0  0  0  0  0  0  0  0  0  0  0  0
  -29.3880  -15.1590   21.2470 H   0  0  0  0  0  0  0  0  0  0  0  0
  -25.4720  -13.8460   20.4810 C   0  0  0  0  0  0  0  0  0  0  0  0
  -24.3970  -13.0970   20.8800 C   0  0  0  0  0  0  0  0  0  0  0  0
  -24.8110  -11.7320   20.7860 C   0  0  0  0  0  0  0  0  0  0  0  0
  -26.4750  -12.9390   20.1720 N   0  0  0  0  0  0  0  0  0  0  0  0
  -26.0820  -11.6600   20.4100 N   0  0  0  0  0  0  0  0  0  0  0  0
  -24.0550  -10.4880   20.9780 C   0  0  0  0  0  0  0  0  0  0  0  0
  -24.4540   -9.5190   21.9240 C   0  0  0  0  0  3  0  0  0  0  0  0
  -23.7000   -8.3390   22.1010 C   0  0  0  0  0  3  0  0  0  0  0  0
  -22.5330   -8.1190   21.3320 C   0  0  0  0  0  0  0  0  0  0  0  0
  -22.1510   -9.0780   20.3760 C   0  0  0  0  0  3  0  0  0  0  0  0
  -22.9060  -10.2490   20.1960 C   0  0  0  0  0  3  0  0  0  0  0  0
  -21.7550   -6.9900   21.4150 O   0  0  0  0  0  0  0  0  0  0  0  0
  -21.6350   -6.2840   22.5860 C   0  0  0  0  0  0  0  0  0  0  0  0
  -21.1100   -6.8720   23.7580 C   0  0  0  0  0  3  0  0  0  0  0  0
  -20.9380   -6.0920   24.9190 C   0  0  0  0  0  3  0  0  0  0  0  0
  -21.2810   -4.7260   24.9090 C   0  0  0  0  0  0  0  0  0  0  0  0
  -21.7980   -4.1400   23.7410 C   0  0  0  0  0  3  0  0  0  0  0  0
  -21.9720   -4.9160   22.5820 C   0  0  0  0  0  0  0  0  0  0  0  0
  -22.4500   -4.3400   21.4540 F   0  0  0  0  0  0  0  0  0  0  0  0
  -21.1080   -3.9750   26.0210 F   0  0  0  0  0  0  0  0  0  0  0  0
  -23.0320  -13.6100   21.2380 C   0  0  0  0  0  0  0  0  0  0  0  0
  -22.3220  -12.9040   22.1120 N   0  0  0  0  0  0  0  0  0  0  0  0
  -22.6070  -14.6700   20.7800 O   0  0  0  0  0  0  0  0  0  0  0  0
  -22.6830  -12.0450   22.5010 H   0  0  0  0  0  0  0  0  0  0  0  0
  -21.4070  -13.2250   22.3940 H   0  0  0  0  0  0  0  0  0  0  0  0
  -25.6750  -15.2150   20.3380 N   0  0  0  0  0  0  0  0  0  0  0  0
  -24.9400  -15.8930   20.5120 H   0  0  0  0  0  0  0  0  0  0  0  0
  -26.5230  -15.6320   19.9730 H   0  0  0  0  0  0  0  0  0  0  0  0
  -30.7380  -23.8730   19.8250 C   0  0  0  0  0  0  0  0  0  0  0  0
  -30.5870  -25.2070   19.8930 N   0  0  0  0  0  0  0  0  0  0  0  0
  -30.2610  -23.1830   18.9210 O   0  0  0  0  0  0  0  0  0  0  0  0
  -30.9910  -25.6780   20.6910 H   0  0  0  0  0  0  0  0  0  0  0  0
  -29.9270  -26.0640   18.9060 C   0  0  0  0  0  2  0  0  0  0  0  0
  -29.1920  -27.2450   19.5750 C   0  0  0  0  0  2  0  0  0  0  0  0
  -27.9740  -26.7280   20.0800 O   0  0  0  0  0  0  0  0  0  0  0  0
  -24.4990  -32.0150   23.4190 C   0  0  0  0  0  0  0  0  0  0  0  0
  -26.8920  -27.5680   20.1590 C   0  0  0  0  0  0  0  0  0  0  0  0
  -23.1850  -30.6680   21.8120 C   0  0  0  0  0  3  0  0  0  0  0  0
  -24.5360  -29.1160   20.3070 C   0  0  0  0  0  0  0  0  0  0  0  0
  -25.7070  -30.9720   21.5050 C   0  0  0  0  0  2  0  0  0  0  0  0
  -25.7340  -29.6100   20.8430 C   0  0  0  0  0  0  0  0  0  0  0  0
  -26.9220  -28.8450   20.7650 C   0  0  0  0  0  3  0  0  0  0  0  0
  -25.6760  -27.0770   19.6450 C   0  0  0  0  0  3  0  0  0  0  0  0
  -24.5010  -27.8460   19.7070 C   0  0  0  0  0  3  0  0  0  0  0  0
  -23.3160  -30.0030   20.4170 C   0  0  0  0  0  2  0  0  0  0  0  0
  -24.4840  -31.2290   22.3040 N   0  0  0  0  0  0  0  0  0  0  0  0
  -23.4500  -32.3070   24.0080 O   0  0  0  0  0  0  0  0  0  0  0  0
  -22.5470  -29.6510   22.7870 C   0  0  0  0  0  0  0  0  0  0  0  0
  -21.2400  -29.3940   22.6120 N   0  0  0  0  0  0  0  0  0  0  0  0
  -23.2260  -29.0960   23.6530 O   0  0  0  0  0  0  0  0  0  0  0  0
  -20.7530  -29.8970   21.8840 H   0  0  0  0  0  0  0  0  0  0  0  0
  -17.9530  -27.9250   22.9120 C   0  0  0  0  0  0  0  0  0  0  0  0
  -20.4400  -28.4460   23.3860 C   0  0  0  0  0  3  0  0  0  0  0  0
  -20.7240  -26.9910   22.9460 C   0  0  0  0  0  2  0  0  0  0  0  0
  -19.7570  -26.4870   21.8700 C   0  0  0  0  0  2  0  0  0  0  0  0
  -18.3120  -26.5500   22.3750 C   0  0  0  0  0  2  0  0  0  0  0  0
  -18.9540  -28.8220   23.3720 C   0  0  0  0  0  0  0  0  0  0  0  0
  -18.5710  -30.1010   23.8280 C   0  0  0  0  0  3  0  0  0  0  0  0
  -17.2170  -30.4880   23.8320 C   0  0  0  0  0  3  0  0  0  0  0  0
  -16.2290  -29.5920   23.3900 C   0  0  0  0  0  3  0  0  0  0  0  0
  -16.5970  -28.3130   22.9360 C   0  0  0  0  0  3  0  0  0  0  0  0
  -25.8270  -32.6010   23.9900 C   0  0  0  0  0  3  0  0  0  0  0  0
  -25.5910  -34.0180   24.2930 N   0  0  0  0  0  0  0  0  0  0  0  0
  -25.9620  -35.0360   23.5030 C   0  0  0  0  0  0  0  0  0  0  0  0
  -26.6100  -34.8750   22.4640 O   0  0  0  0  0  0  0  0  0  0  0  0
  -25.0180  -34.2200   25.0980 H   0  0  0  0  0  0  0  0  0  0  0  0
  -24.3130  -36.8960   23.1290 C   0  0  0  0  0  1  0  0  0  0  0  0
  -25.5470  -36.4550   23.9320 C   0  0  0  0  0  3  0  0  0  0  0  0
  -27.7310  -37.2620   24.7100 C   0  0  0  0  0  1  0  0  0  0  0  0
  -26.6250  -37.4550   23.7760 N   0  0  0  0  0  0  0  0  0  0  0  0
  -26.2640  -38.3970   23.9040 H   0  0  0  0  0  0  0  0  0  0  0  0
  -26.3460  -31.8340   25.2680 C   0  0  1  0  0  0  0  0  0  0  0  0
  -25.2630  -31.6310   26.3530 C   0  0  0  0  0  1  0  0  0  0  0  0
  -26.8950  -30.4420   24.8820 C   0  0  0  0  0  1  0  0  0  0  0  0
  -27.5210  -32.6120   25.9050 C   0  0  0  0  0  1  0  0  0  0  0  0
  -29.8370  -22.2420   24.9120 C   0  0  0  0  0  1  0  0  0  0  0  0
  -30.6310  -21.2710   24.0280 C   0  0  0  0  0  2  0  0  0  0  0  0
  1  4  1  0
  2 11  1  0
  2  4  1  0
  3 53  1  0
  3  1  1  0
  4101  1  0
  5  3  1  0
  5  2  1  0
  6  5  1  0
  7  5  1  0
  9  8  1  0
 10 13  2  0
 10 12  1  0
 11  8  2  0
 12  9  2  0
 13 11  1  0
 14 13  1  0
 15 23  1  0
 16 21  1  0
 17 18  1  0
 17 16  1  0
 19 18  1  0
 19 28  1  0
 19 20  1  0
 21 15  1  0
 21 20  1  0
 22 15  2  0
 23 12  1  0
 23 24  1  0
 25 26  2  0
 26 45  1  0
 27 26  1  0
 27 30  1  0
 28 29  1  0
 28 25  1  0
 29 27  2  0
 30 31  1  0
 31 32  2  0
 33 36  1  0
 33 32  1  0
 34 33  2  0
 35 34  1  0
 35 30  2  0
 36 37  1  0
 37 38  1  0
 38 39  2  0
 40 39  1  0
 40 44  1  0
 41 40  2  0
 42 37  2  0
 42 41  1  0
 43 42  1  0
 45 46  1  0
 46 49  1  0
 46 48  1  0
 47 45  2  0
 50 25  1  0
 50 51  1  0
 52 50  1  0
 53 54  1  0
 54 56  1  0
 55 53  2  0
 57 58  1  0
 57 54  1  0
 58 59  1  0
 59 61  1  0
 60 71  2  0
 61 66  1  0
 62 70  1  0
 62 72  1  0
 63 69  1  0
 63 65  1  0
 64 70  1  0
 65 64  1  0
 66 65  2  0
 67 68  1  0
 67 61  2  0
 68 63  2  0
 69 62  1  0
 70 60  1  0
 72 74  2  0
 73 72  1  0
 75 73  1  0
 76 85  2  0
 76 81  1  0
 77 73  1  0
 78 77  1  0
 79 80  1  0
 79 78  1  0
 80 76  1  0
 81 77  1  0
 81 82  2  0
 82 83  1  0
 84 83  2  0
 85 84  1  0
 86 60  1  0
 86 87  1  0
 86 96  1  0
 87 90  1  0
 88 92  1  0
 88 87  1  0
 89 88  2  0
 92 91  1  0
 94 95  1  0
 94 92  1  0
 94 93  1  0
 96 99  1  1
 96 97  1  0
 98 96  1  0
101100  1  0
M  ISO  4  15 100  23 100  58 101  59 101
M  END
>  <TORSDO>  (12) 
F 21

>  <SCORE>  (12) 
-12.359

>  <name>  (12) 
11

>  <ligand_id>  (12) 
11

>  <original_smiles>  (12) 
[H]c1c([H])c([H])c2c(c1[H])C([H])([H])C([H])([H])C([H])([H])C2([H])N([H])C(=O)C1([H])N(C(=O)C([H])(N([H])C(=O)C([H])(N([H])C([H])([H])[H])C([H])([H])[H])C(C([H])([H])[H])(C([H])([H])[H])C([H])([H])[H])C([H])([H])c2c([H])c(OC([H])([H])C([H])([H])N([H])C(=O)C3([H])C([H])([H])C([H])(C([H])([H])C([H])([H])[H])C([H])(c4c([H])c([H])c(N([H])C(=O)N5C([H])([H])C([H])([H])C([H])([H])C([H])(n6nc(-c7c([H])c([H])c(Oc8c([H])c([H])c(F)c([H])c8F)c([H])c7[H])c(C(=O)N([H])[H])c6N([H])[H])C5([H])[H])c([H])c4F)[N+]3([H])[H])c([H])c([H])c2C1([H])[H]

>  <smiles>  (12) 
[H]c1c([H])c([H])c2c(c1[H])C([H])([H])C([H])([H])C([H])([H])C2([H])N([H])C(=O)C1([H])N(C(=O)C([H])(N([H])C(=O)C([H])(N([H])C([H])([H])[H])C([H])([H])[H])C(C([H])([H])[H])(C([H])([H])[H])C([H])([H])[H])C([H])([H])c2c([H])c(OC([H])([H])C([H])([H])N([H])C(=O)C3([H])C([H])([H])C([H])(C([H])([H])C([H])([H])[H])C([H])(c4c([H])c([H])c(N([H])C(=O)N5C([H])([H])C([H])([H])C([H])([H])C([H])(n6nc(-c7c([H])c([H])c(Oc8c([H])c([H])c(F)c([H])c8F)c([H])c7[H])c(C(=O)N([H])[H])c6N([H])[H])C5([H])[H])c([H])c4F)[N+]3([H])[H])c([H])c([H])c2C1([H])[H]

$$$$
12:0:0
     RDKit          3D

 97106  0  0  1  0  0  0  0  0999 V2000
  -29.3820  -20.6420   19.4500 C   0  0  0  0  0  0  0  0  0  0  0  0
  -28.9030  -20.7810   18.1970 N   0  0  0  0  0  4  0  0  0  0  0  0
  -29.3800  -21.7370   20.2610 N   0  0  0  0  0  0  0  0  0  0  0  0
  -29.0410  -20.0880   17.4760 H   0  0  0  0  0  0  0  0  0  0  0  0
  -28.4950  -21.6480   17.8770 H   0  0  0  0  0  0  0  0  0  0  0  0
  -29.7610  -21.6250   21.1920 H   0  0  0  0  0  0  0  0  0  0  0  0
  -31.0160  -14.5100   19.3940 C   0  0  0  0  0  0  0  0  0  0  0  0
  -30.5130  -12.3950   18.2170 C   0  0  0  0  0  2  0  0  0  0  0  0
  -29.4120  -12.6350   17.1640 C   0  0  0  0  0  2  0  0  0  0  0  0
  -28.0150  -12.4830   17.7960 C   0  0  0  0  0  2  0  0  0  0  0  0
  -27.8700  -13.2690   19.1270 C   0  0  0  0  0  3  0  0  0  0  0  0
  -29.0740  -13.0220   20.0610 C   0  0  0  0  0  2  0  0  0  0  0  0
  -30.2930  -13.3550   19.3140 N   0  0  0  0  0  0  0  0  0  0  0  0
  -32.0900  -14.6330   18.7940 O   0  0  0  0  0  0  0  0  0  0  0  0
  -29.0740  -16.4450   21.8820 C   0  0  0  0  0  2  0  0  0  0  0  0
  -29.4800  -18.9790   21.3730 C   0  0  0  0  0  2  0  0  0  0  0  0
  -30.4070  -15.8960   21.3110 C   0  0  0  0  0  2  0  0  0  0  0  0
  -30.6060  -16.8950   19.0920 C   0  0  0  0  0  2  0  0  0  0  0  0
  -29.9700  -19.2990   19.9420 C   0  0  0  0  0  3  0  0  0  0  0  0
  -28.5340  -17.7600   21.2630 C   0  0  0  0  0  3  0  0  0  0  0  0
  -29.5160  -18.0270   19.1500 C   0  0  0  0  0  3  0  0  0  0  0  0
  -27.0360  -18.2130   19.3470 C   0  0  0  0  0  1  0  0  0  0  0  0
  -30.3720  -15.6320   19.8580 N   0  0  0  0  0  0  0  0  0  0  0  0
  -28.2830  -17.5650   19.8240 N   0  0  2  0  0  4  0  0  0  0  0  0
  -28.1700  -16.5780   19.6580 H   0  0  0  0  0  0  0  0  0  0  0  0
  -25.6180  -13.8530   20.2180 C   0  0  0  0  0  0  0  0  0  0  0  0
  -24.6090  -13.0740   20.7150 C   0  0  0  0  0  0  0  0  0  0  0  0
  -25.0390  -11.7230   20.5490 C   0  0  0  0  0  0  0  0  0  0  0  0
  -26.6010  -12.9760   19.7880 N   0  0  0  0  0  0  0  0  0  0  0  0
  -26.2670  -11.6880   20.0470 N   0  0  0  0  0  0  0  0  0  0  0  0
  -24.3300  -10.4590   20.7820 C   0  0  0  0  0  0  0  0  0  0  0  0
  -24.7830   -9.5280   21.7410 C   0  0  0  0  0  3  0  0  0  0  0  0
  -24.0740   -8.3270   21.9630 C   0  0  0  0  0  3  0  0  0  0  0  0
  -22.9000   -8.0500   21.2230 C   0  0  0  0  0  0  0  0  0  0  0  0
  -22.4660   -8.9690   20.2530 C   0  0  0  0  0  3  0  0  0  0  0  0
  -23.1750  -10.1610   20.0300 C   0  0  0  0  0  3  0  0  0  0  0  0
  -22.1610   -6.8990   21.3540 O   0  0  0  0  0  0  0  0  0  0  0  0
  -22.0050   -6.2770   22.5670 C   0  0  0  0  0  0  0  0  0  0  0  0
  -21.4450   -6.9430   23.6780 C   0  0  0  0  0  3  0  0  0  0  0  0
  -21.2380   -6.2460   24.8860 C   0  0  0  0  0  3  0  0  0  0  0  0
  -21.5840   -4.8840   24.9800 C   0  0  0  0  0  0  0  0  0  0  0  0
  -22.1380   -4.2190   23.8720 C   0  0  0  0  0  3  0  0  0  0  0  0
  -22.3460   -4.9140   22.6680 C   0  0  0  0  0  0  0  0  0  0  0  0
  -22.8610   -4.2630   21.5980 F   0  0  0  0  0  0  0  0  0  0  0  0
  -21.3790   -4.2110   26.1360 F   0  0  0  0  0  0  0  0  0  0  0  0
  -23.2730  -13.5510   21.2050 C   0  0  0  0  0  0  0  0  0  0  0  0
  -22.6840  -12.8470   22.1660 N   0  0  0  0  0  0  0  0  0  0  0  0
  -22.7670  -14.5840   20.7690 O   0  0  0  0  0  0  0  0  0  0  0  0
  -23.1130  -12.0130   22.5410 H   0  0  0  0  0  0  0  0  0  0  0  0
  -21.7930  -13.1470   22.5330 H   0  0  0  0  0  0  0  0  0  0  0  0
  -25.7670  -15.2240   20.0520 N   0  0  0  0  0  0  0  0  0  0  0  0
  -24.9020  -15.7010   20.2810 H   0  0  0  0  0  0  0  0  0  0  0  0
  -26.0150  -15.4230   19.0930 H   0  0  0  0  0  0  0  0  0  0  0  0
  -28.7900  -23.0830   19.9870 C   0  0  0  0  0  2  0  0  0  0  0  0
  -29.4540  -24.2450   20.7810 C   0  0  0  0  0  2  0  0  0  0  0  0
  -28.5600  -25.4960   21.0310 C   0  0  0  0  0  2  0  0  0  0  0  0
  -28.6780  -26.5780   20.0850 O   0  0  0  0  0  0  0  0  0  0  0  0
  -24.5990  -31.6240   23.0650 C   0  0  0  0  0  0  0  0  0  0  0  0
  -27.5310  -27.3410   20.0190 C   0  0  0  0  0  0  0  0  0  0  0  0
  -23.5240  -30.2300   21.3280 C   0  0  0  0  0  3  0  0  0  0  0  0
  -25.0980  -28.7800   19.9360 C   0  0  0  0  0  0  0  0  0  0  0  0
  -26.0450  -30.6720   21.2680 C   0  0  0  0  0  2  0  0  0  0  0  0
  -26.2080  -29.3210   20.5980 C   0  0  0  0  0  0  0  0  0  0  0  0
  -27.4320  -28.6100   20.6370 C   0  0  0  0  0  3  0  0  0  0  0  0
  -26.4090  -26.8190   19.3430 C   0  0  0  0  0  3  0  0  0  0  0  0
  -25.1940  -27.5280   19.3030 C   0  0  0  0  0  3  0  0  0  0  0  0
  -23.8250  -29.5970   19.9430 C   0  0  0  0  0  2  0  0  0  0  0  0
  -24.7380  -30.8550   21.9470 N   0  0  0  0  0  0  0  0  0  0  0  0
  -23.4830  -31.8470   23.5550 O   0  0  0  0  0  0  0  0  0  0  0  0
  -22.8590  -29.1640   22.2270 C   0  0  0  0  0  0  0  0  0  0  0  0
  -21.5350  -28.9910   22.0750 N   0  0  0  0  0  0  0  0  0  0  0  0
  -23.5300  -28.4960   23.0180 O   0  0  0  0  0  0  0  0  0  0  0  0
  -21.0550  -29.5830   21.4120 H   0  0  0  0  0  0  0  0  0  0  0  0
  -18.1400  -27.8450   22.5400 C   0  0  0  0  0  0  0  0  0  0  0  0
  -20.7070  -28.0180   22.7860 C   0  0  0  0  0  3  0  0  0  0  0  0
  -20.7640  -26.6320   22.1020 C   0  0  0  0  0  2  0  0  0  0  0  0
  -19.6380  -26.4160   21.0850 C   0  0  0  0  0  2  0  0  0  0  0  0
  -18.2710  -26.5470   21.7620 C   0  0  0  0  0  2  0  0  0  0  0  0
  -19.2840  -28.5440   23.0080 C   0  0  0  0  0  0  0  0  0  0  0  0
  -19.1080  -29.7650   23.6950 C   0  0  0  0  0  3  0  0  0  0  0  0
  -17.8200  -30.2850   23.9190 C   0  0  0  0  0  3  0  0  0  0  0  0
  -16.6890  -29.5820   23.4680 C   0  0  0  0  0  3  0  0  0  0  0  0
  -16.8510  -28.3630   22.7850 C   0  0  0  0  0  3  0  0  0  0  0  0
  -25.8300  -32.2780   23.7650 C   0  0  0  0  0  3  0  0  0  0  0  0
  -26.3820  -31.4270   24.9750 C   0  0  1  0  0  0  0  0  0  0  0  0
  -25.2920  -31.0070   25.9870 C   0  0  0  0  0  1  0  0  0  0  0  0
  -27.0750  -30.1430   24.4640 C   0  0  0  0  0  1  0  0  0  0  0  0
  -27.4570  -32.2380   25.7380 C   0  0  0  0  0  1  0  0  0  0  0  0
  -25.4250  -33.6170   24.2130 N   0  0  0  0  0  0  0  0  0  0  0  0
  -25.6760  -34.7500   23.5450 C   0  0  0  0  0  0  0  0  0  0  0  0
  -26.3420  -34.7830   22.5070 O   0  0  0  0  0  0  0  0  0  0  0  0
  -24.8300  -33.6590   25.0280 H   0  0  0  0  0  0  0  0  0  0  0  0
  -23.8140  -36.4290   23.3520 C   0  0  0  0  0  1  0  0  0  0  0  0
  -25.0930  -36.0560   24.1190 C   0  0  0  0  0  3  0  0  0  0  0  0
  -27.1620  -37.0320   25.0090 C   0  0  0  0  0  1  0  0  0  0  0  0
  -26.0420  -37.1890   24.0850 N   0  0  0  0  0  0  0  0  0  0  0  0
  -25.5700  -38.0620   24.3040 H   0  0  0  0  0  0  0  0  0  0  0  0
  1  3  1  0
  2  1  2  0
  3  6  1  0
  4  2  1  0
  5  2  1  0
  7 23  1  0
  8 13  1  0
  9 10  1  0
  9  8  1  0
 11 10  1  0
 11 29  1  0
 11 12  1  0
 13  7  1  0
 13 12  1  0
 14  7  2  0
 17 15  1  0
 18 23  1  0
 19  1  1  0
 19 16  1  0
 20 16  1  0
 20 15  1  0
 21 18  1  0
 21 24  1  0
 21 19  1  0
 22 24  1  0
 23 17  1  0
 24 20  1  0
 24 25  1  1
 26 27  2  0
 27 46  1  0
 28 27  1  0
 28 31  1  0
 29 30  1  0
 29 26  1  0
 30 28  2  0
 31 32  1  0
 32 33  2  0
 34 37  1  0
 34 33  1  0
 35 34  2  0
 36 35  1  0
 36 31  2  0
 37 38  1  0
 38 43  2  0
 38 39  1  0
 39 40  2  0
 40 41  1  0
 41 45  1  0
 42 41  2  0
 43 42  1  0
 44 43  1  0
 46 47  1  0
 47 50  1  0
 47 49  1  0
 48 46  2  0
 51 26  1  0
 51 52  1  0
 53 51  1  0
 54  3  1  0
 54 55  1  0
 55 56  1  0
 57 56  1  0
 58 69  2  0
 59 57  1  0
 59 64  1  0
 60 68  1  0
 60 70  1  0
 61 67  1  0
 61 63  1  0
 62 68  1  0
 63 64  2  0
 63 62  1  0
 65 59  2  0
 66 65  1  0
 66 61  2  0
 67 60  1  0
 68 58  1  0
 70 72  2  0
 71 70  1  0
 73 71  1  0
 74 83  2  0
 74 79  1  0
 75 71  1  0
 75 79  1  0
 76 75  1  0
 77 78  1  0
 77 76  1  0
 78 74  1  0
 79 80  2  0
 80 81  1  0
 82 81  2  0
 83 82  1  0
 84 58  1  0
 84 89  1  0
 84 85  1  0
 85 88  1  1
 85 86  1  0
 87 85  1  0
 89 92  1  0
 90 94  1  0
 90 89  1  0
 91 90  2  0
 94 93  1  0
 96 94  1  0
 96 97  1  0
 96 95  1  0
M  ISO  4   7 100  23 100  56 101  57 101
M  END
>  <TORSDO>  (13) 
F 19

>  <SCORE>  (13) 
-10.322

>  <name>  (13) 
12

>  <ligand_id>  (13) 
12

>  <original_smiles>  (13) 
[H]c1c([H])c([H])c2c(c1[H])C([H])([H])C([H])([H])C([H])([H])C2([H])N([H])C(=O)C1([H])N(C(=O)C([H])(N([H])C(=O)C([H])(N([H])C([H])([H])[H])C([H])([H])[H])C(C([H])([H])[H])(C([H])([H])[H])C([H])([H])[H])C([H])([H])c2c([H])c(OC([H])([H])C([H])([H])C([H])([H])[N+]([H])=C(N([H])[H])C3([H])C([H])([H])C4([H])C([H])([H])C([H])([H])N(C(=O)N5C([H])([H])C([H])([H])C([H])([H])C([H])(n6nc(-c7c([H])c([H])c(Oc8c([H])c([H])c(F)c([H])c8F)c([H])c7[H])c(C(=O)N([H])[H])c6N([H])[H])C5([H])[H])C([H])([H])C3([H])[N+]4([H])C([H])([H])[H])c([H])c([H])c2C1([H])[H]

>  <smiles>  (13) 
[H]c1c([H])c([H])c2c(c1[H])C([H])([H])C([H])([H])C([H])([H])C2([H])N([H])C(=O)C1([H])N(C(=O)C([H])(N([H])C(=O)C([H])(N([H])C([H])([H])[H])C([H])([H])[H])C(C([H])([H])[H])(C([H])([H])[H])C([H])([H])[H])C([H])([H])c2c([H])c(OC([H])([H])C([H])([H])C([H])([H])[N+]([H])=C(N([H])[H])C3([H])C([H])([H])C4([H])C([H])([H])C([H])([H])N(C(=O)N5C([H])([H])C([H])([H])C([H])([H])C([H])(n6nc(-c7c([H])c([H])c(Oc8c([H])c([H])c(F)c([H])c8F)c([H])c7[H])c(C(=O)N([H])[H])c6N([H])[H])C5([H])[H])C([H])([H])C3([H])[N+]4([H])C([H])([H])[H])c([H])c([H])c2C1([H])[H]

$$$$
13:0:0
     RDKit          3D

 93101  0  0  1  0  0  0  0  0999 V2000
  -30.8080  -21.1620   22.4360 C   0  0  0  0  0  0  0  0  0  0  0  0
  -29.9190  -19.9260   20.6200 C   0  0  0  0  0  2  0  0  0  0  0  0
  -29.9370  -21.3510   21.1990 C   0  0  0  0  0  3  0  0  0  0  0  0
  -30.1670  -19.0190   21.8400 C   0  0  0  0  0  3  0  0  0  0  0  0
  -30.9290  -19.8710   22.7320 N   0  0  0  0  0  0  0  0  0  0  0  0
  -31.3170  -22.0860   23.0680 O   0  0  0  0  0  0  0  0  0  0  0  0
  -31.4280  -19.5190   23.5390 H   0  0  0  0  0  0  0  0  0  0  0  0
  -30.4350  -22.4610   20.2390 C   0  0  0  0  0  2  0  0  0  0  0  0
  -29.4140  -23.5880   20.0800 C   0  0  0  0  0  0  0  0  0  0  0  0
  -28.5680  -23.5690   19.1800 O   0  0  0  0  0  0  0  0  0  0  0  0
  -29.5050  -24.7140   21.1130 C   0  0  0  0  0  2  0  0  0  0  0  0
  -28.3140  -25.6870   21.1700 C   0  0  0  0  0  2  0  0  0  0  0  0
  -28.4090  -26.7440   20.2120 O   0  0  0  0  0  0  0  0  0  0  0  0
  -24.5770  -31.8910   23.2490 C   0  0  0  0  0  0  0  0  0  0  0  0
  -27.2620  -27.4930   20.1780 C   0  0  0  0  0  0  0  0  0  0  0  0
  -23.3840  -30.4780   21.6020 C   0  0  0  0  0  3  0  0  0  0  0  0
  -24.8570  -28.9610   20.1740 C   0  0  0  0  0  0  0  0  0  0  0  0
  -25.9060  -30.8640   21.4160 C   0  0  0  0  0  2  0  0  0  0  0  0
  -26.0050  -29.5000   20.7690 C   0  0  0  0  0  0  0  0  0  0  0  0
  -27.2160  -28.7760   20.7640 C   0  0  0  0  0  3  0  0  0  0  0  0
  -26.1030  -26.9610   19.5780 C   0  0  0  0  0  3  0  0  0  0  0  0
  -24.9010  -27.6930   19.5660 C   0  0  0  0  0  3  0  0  0  0  0  0
  -23.6010  -29.8020   20.2220 C   0  0  0  0  0  2  0  0  0  0  0  0
  -24.6380  -31.0910   22.1470 N   0  0  0  0  0  0  0  0  0  0  0  0
  -23.4930  -32.1560   23.7870 O   0  0  0  0  0  0  0  0  0  0  0  0
  -22.7370  -29.4530   22.5620 C   0  0  0  0  0  0  0  0  0  0  0  0
  -21.4120  -29.2730   22.4380 N   0  0  0  0  0  0  0  0  0  0  0  0
  -23.4240  -28.8270   23.3740 O   0  0  0  0  0  0  0  0  0  0  0  0
  -20.9210  -29.8350   21.7580 H   0  0  0  0  0  0  0  0  0  0  0  0
  -18.0330  -28.0910   22.9440 C   0  0  0  0  0  0  0  0  0  0  0  0
  -20.5940  -28.3330   23.2050 C   0  0  0  0  0  3  0  0  0  0  0  0
  -20.6870  -26.9070   22.6170 C   0  0  0  0  0  2  0  0  0  0  0  0
  -19.5760  -26.5970   21.6070 C   0  0  0  0  0  2  0  0  0  0  0  0
  -18.1990  -26.7450   22.2600 C   0  0  0  0  0  2  0  0  0  0  0  0
  -19.1580  -28.8440   23.3740 C   0  0  0  0  0  0  0  0  0  0  0  0
  -18.9490  -30.1060   23.9720 C   0  0  0  0  0  3  0  0  0  0  0  0
  -17.6480  -30.6140   24.1460 C   0  0  0  0  0  3  0  0  0  0  0  0
  -16.5380  -29.8570   23.7340 C   0  0  0  0  0  3  0  0  0  0  0  0
  -16.7310  -28.5980   23.1390 C   0  0  0  0  0  3  0  0  0  0  0  0
  -25.8610  -32.5280   23.8680 C   0  0  0  0  0  3  0  0  0  0  0  0
  -25.5520  -33.9270   24.1880 N   0  0  0  0  0  0  0  0  0  0  0  0
  -25.8910  -34.9750   23.4240 C   0  0  0  0  0  0  0  0  0  0  0  0
  -26.5710  -34.8650   22.4010 O   0  0  0  0  0  0  0  0  0  0  0  0
  -24.9550  -34.0890   24.9860 H   0  0  0  0  0  0  0  0  0  0  0  0
  -24.1750  -36.7660   23.0230 C   0  0  0  0  0  1  0  0  0  0  0  0
  -25.3980  -36.3660   23.8650 C   0  0  0  0  0  3  0  0  0  0  0  0
  -27.5180  -37.2450   24.7370 C   0  0  0  0  0  1  0  0  0  0  0  0
  -26.4360  -37.4160   23.7710 N   0  0  0  0  0  0  0  0  0  0  0  0
  -26.0300  -38.3370   23.9090 H   0  0  0  0  0  0  0  0  0  0  0  0
  -26.3790  -31.7610   25.1460 C   0  0  1  0  0  0  0  0  0  0  0  0
  -25.2840  -31.5230   26.2130 C   0  0  0  0  0  1  0  0  0  0  0  0
  -26.9660  -30.3830   24.7580 C   0  0  0  0  0  1  0  0  0  0  0  0
  -27.5270  -32.5580   25.8080 C   0  0  0  0  0  1  0  0  0  0  0  0
  -30.8520  -17.6660   21.5550 C   0  0  0  0  0  2  0  0  0  0  0  0
  -30.0180  -16.7940   20.6010 C   0  0  0  0  0  2  0  0  0  0  0  0
  -30.7480  -14.4220   20.3920 C   0  0  0  0  0  0  0  0  0  0  0  0
  -30.4630  -12.2930   19.2030 C   0  0  0  0  0  2  0  0  0  0  0  0
  -29.5150  -12.5440   18.0120 C   0  0  0  0  0  2  0  0  0  0  0  0
  -28.0360  -12.4310   18.4350 C   0  0  0  0  0  2  0  0  0  0  0  0
  -27.7160  -13.2370   19.7220 C   0  0  0  0  0  3  0  0  0  0  0  0
  -28.7640  -12.9380   20.8180 C   0  0  0  0  0  2  0  0  0  0  0  0
  -30.1010  -13.2370   20.2670 N   0  0  0  0  0  0  0  0  0  0  0  0
  -31.8430  -14.6700   19.8720 O   0  0  0  0  0  0  0  0  0  0  0  0
  -30.0020  -15.3780   20.9520 N   0  0  0  0  0  0  0  0  0  0  0  0
  -29.1480  -15.0420   21.3720 H   0  0  0  0  0  0  0  0  0  0  0  0
  -25.3130  -13.8740   20.4090 C   0  0  0  0  0  0  0  0  0  0  0  0
  -24.2400  -13.1100   20.7830 C   0  0  0  0  0  0  0  0  0  0  0  0
  -24.6930  -11.7560   20.7680 C   0  0  0  0  0  0  0  0  0  0  0  0
  -26.3550  -12.9830   20.1930 N   0  0  0  0  0  0  0  0  0  0  0  0
  -25.9830  -11.7060   20.4620 N   0  0  0  0  0  0  0  0  0  0  0  0
  -23.9620  -10.4990   20.9720 C   0  0  0  0  0  0  0  0  0  0  0  0
  -24.3940   -9.5420   21.9170 C   0  0  0  0  0  3  0  0  0  0  0  0
  -23.6680   -8.3480   22.1090 C   0  0  0  0  0  3  0  0  0  0  0  0
  -22.4940   -8.1040   21.3560 C   0  0  0  0  0  0  0  0  0  0  0  0
  -22.0820   -9.0480   20.4010 C   0  0  0  0  0  3  0  0  0  0  0  0
  -22.8100  -10.2360   20.2060 C   0  0  0  0  0  3  0  0  0  0  0  0
  -21.7380   -6.9600   21.4540 O   0  0  0  0  0  0  0  0  0  0  0  0
  -21.6870   -6.2300   22.6140 C   0  0  0  0  0  0  0  0  0  0  0  0
  -21.2630   -6.7980   23.8350 C   0  0  0  0  0  3  0  0  0  0  0  0
  -21.1590   -5.9940   24.9880 C   0  0  0  0  0  3  0  0  0  0  0  0
  -21.4670   -4.6220   24.9210 C   0  0  0  0  0  0  0  0  0  0  0  0
  -21.8850   -4.0540   23.7040 C   0  0  0  0  0  3  0  0  0  0  0  0
  -21.9920   -4.8550   22.5550 C   0  0  0  0  0  0  0  0  0  0  0  0
  -22.3720   -4.2970   21.3800 F   0  0  0  0  0  0  0  0  0  0  0  0
  -21.3590   -3.8480   26.0250 F   0  0  0  0  0  0  0  0  0  0  0  0
  -22.8440  -13.5960   21.0450 C   0  0  0  0  0  0  0  0  0  0  0  0
  -22.1110  -12.9120   21.9190 N   0  0  0  0  0  0  0  0  0  0  0  0
  -22.4090  -14.6150   20.5100 O   0  0  0  0  0  0  0  0  0  0  0  0
  -22.4760  -12.0910   22.3770 H   0  0  0  0  0  0  0  0  0  0  0  0
  -21.1720  -13.2170   22.1330 H   0  0  0  0  0  0  0  0  0  0  0  0
  -25.4840  -15.2420   20.2160 N   0  0  0  0  0  0  0  0  0  0  0  0
  -24.7180  -15.8980   20.3010 H   0  0  0  0  0  0  0  0  0  0  0  0
  -26.3330  -15.6710   19.8690 H   0  0  0  0  0  0  0  0  0  0  0  0
  1  5  1  0
  1  6  2  0
  2  3  1  0
  2  4  1  0
  3  8  1  0
  3  1  1  0
  4 54  1  0
  4  5  1  0
  5  7  1  0
  9  8  1  0
  9 11  1  0
 10  9  2  0
 11 12  1  0
 13 12  1  0
 14 25  2  0
 15 13  1  0
 15 20  1  0
 16 24  1  0
 16 26  1  0
 17 23  1  0
 17 19  1  0
 18 24  1  0
 19 18  1  0
 20 19  2  0
 21 15  2  0
 22 21  1  0
 22 17  2  0
 23 16  1  0
 24 14  1  0
 26 28  2  0
 27 26  1  0
 29 27  1  0
 30 39  2  0
 30 35  1  0
 31 27  1  0
 31 35  1  0
 32 31  1  0
 33 34  1  0
 33 32  1  0
 34 30  1  0
 35 36  2  0
 36 37  1  0
 38 37  2  0
 39 38  1  0
 40 14  1  0
 40 41  1  0
 40 50  1  0
 41 44  1  0
 42 46  1  0
 42 41  1  0
 43 42  2  0
 46 45  1  0
 48 46  1  0
 48 49  1  0
 48 47  1  0
 50 53  1  1
 50 51  1  0
 52 50  1  0
 55 64  1  0
 55 54  1  0
 56 64  1  0
 57 62  1  0
 58 59  1  0
 58 57  1  0
 60 59  1  0
 60 69  1  0
 60 61  1  0
 62 56  1  0
 62 61  1  0
 63 56  2  0
 64 65  1  0
 66 67  2  0
 67 86  1  0
 68 67  1  0
 68 71  1  0
 69 66  1  0
 69 70  1  0
 70 68  2  0
 71 72  1  0
 72 73  2  0
 74 77  1  0
 74 73  1  0
 75 74  2  0
 76 75  1  0
 76 71  2  0
 77 78  1  0
 78 79  1  0
 79 80  2  0
 81 80  1  0
 81 85  1  0
 82 81  2  0
 83 78  2  0
 83 82  1  0
 84 83  1  0
 86 87  1  0
 87 90  1  0
 87 89  1  0
 88 86  2  0
 91 92  1  0
 91 66  1  0
 93 91  1  0
M  ISO  4  12 101  13 101  56 100  64 100
M  END
>  <TORSDO>  (14) 
F 22

>  <SCORE>  (14) 
-13.129

>  <name>  (14) 
13

>  <ligand_id>  (14) 
13

>  <original_smiles>  (14) 
[H]c1c([H])c([H])c2c(c1[H])C([H])([H])C([H])([H])C([H])([H])C2([H])N([H])C(=O)C1([H])N(C(=O)C([H])(N([H])C(=O)C([H])(N([H])C([H])([H])[H])C([H])([H])[H])C(C([H])([H])[H])(C([H])([H])[H])C([H])([H])[H])C([H])([H])c2c([H])c(OC([H])([H])C([H])([H])C(=O)C([H])([H])C3([H])C(=O)N([H])C([H])(C([H])([H])C([H])([H])N([H])C(=O)N4C([H])([H])C([H])([H])C([H])([H])C([H])(n5nc(-c6c([H])c([H])c(Oc7c([H])c([H])c(F)c([H])c7F)c([H])c6[H])c(C(=O)N([H])[H])c5N([H])[H])C4([H])[H])C3([H])[H])c([H])c([H])c2C1([H])[H]

>  <smiles>  (14) 
[H]c1c([H])c([H])c2c(c1[H])C([H])([H])C([H])([H])C([H])([H])C2([H])N([H])C(=O)C1([H])N(C(=O)C([H])(N([H])C(=O)C([H])(N([H])C([H])([H])[H])C([H])([H])[H])C(C([H])([H])[H])(C([H])([H])[H])C([H])([H])[H])C([H])([H])c2c([H])c(OC([H])([H])C([H])([H])C(=O)C([H])([H])C3([H])C(=O)N([H])C([H])(C([H])([H])C([H])([H])N([H])C(=O)N4C([H])([H])C([H])([H])C([H])([H])C([H])(n5nc(-c6c([H])c([H])c(Oc7c([H])c([H])c(F)c([H])c7F)c([H])c6[H])c(C(=O)N([H])[H])c5N([H])[H])C4([H])[H])C3([H])[H])c([H])c([H])c2C1([H])[H]

$$$$
14:0:0
     RDKit          3D

 96104  0  0  1  0  0  0  0  0999 V2000
  -27.6700  -21.6350   18.1340 C   0  0  0  0  0  2  0  0  0  0  0  0
  -28.6980  -21.2930   19.1440 N   0  0  0  0  0  4  0  0  0  0  0  0
  -29.5440  -21.8060   18.9550 H   0  0  0  0  0  0  0  0  0  0  0  0
  -28.3550  -21.5730   20.0470 H   0  0  0  0  0  0  0  0  0  0  0  0
  -29.0270  -19.8520   19.2200 C   0  0  0  0  0  2  0  0  0  0  0  0
  -29.9560  -19.5480   20.4220 C   0  0  0  0  0  2  0  0  0  0  0  0
  -30.6630  -14.2090   19.7690 C   0  0  0  0  0  0  0  0  0  0  0  0
  -30.0850  -12.2000   18.4480 C   0  0  0  0  0  2  0  0  0  0  0  0
  -29.0090  -12.5280   17.3970 C   0  0  0  0  0  2  0  0  0  0  0  0
  -27.5980  -12.3970   18.0020 C   0  0  0  0  0  2  0  0  0  0  0  0
  -27.4590  -13.1540   19.3480 C   0  0  0  0  0  3  0  0  0  0  0  0
  -28.6270  -12.7910   20.2930 C   0  0  0  0  0  2  0  0  0  0  0  0
  -29.8870  -13.1010   19.5950 N   0  0  0  0  0  0  0  0  0  0  0  0
  -31.6890  -14.3980   19.1040 O   0  0  0  0  0  0  0  0  0  0  0  0
  -32.1820  -16.6430   21.3060 C   0  0  0  0  0  2  0  0  0  0  0  0
  -31.2940  -15.4690   21.7700 C   0  0  0  0  0  2  0  0  0  0  0  0
  -31.5170  -18.0260   21.3700 C   0  0  0  0  0  2  0  0  0  0  0  0
  -29.1320  -15.9330   20.5740 C   0  0  0  0  0  2  0  0  0  0  0  0
  -29.2340  -17.3650   21.1330 C   0  0  0  0  0  2  0  0  0  0  0  0
  -30.3070  -15.0570   20.7620 N   0  0  0  0  0  0  0  0  0  0  0  0
  -30.3270  -18.1290   20.5150 N   0  0  0  0  0  0  0  0  0  0  0  0
  -25.1730  -13.8160   20.3230 C   0  0  0  0  0  0  0  0  0  0  0  0
  -24.1310  -13.0640   20.7970 C   0  0  0  0  0  0  0  0  0  0  0  0
  -24.5490  -11.7040   20.6950 C   0  0  0  0  0  0  0  0  0  0  0  0
  -26.1620  -12.9110   19.9690 N   0  0  0  0  0  0  0  0  0  0  0  0
  -25.7950  -11.6350   20.2470 N   0  0  0  0  0  0  0  0  0  0  0  0
  -23.8170  -10.4560   20.9450 C   0  0  0  0  0  0  0  0  0  0  0  0
  -24.3150   -9.4730   21.8290 C   0  0  0  0  0  3  0  0  0  0  0  0
  -23.5860   -8.2890   22.0650 C   0  0  0  0  0  3  0  0  0  0  0  0
  -22.3450   -8.0800   21.4190 C   0  0  0  0  0  0  0  0  0  0  0  0
  -21.8650   -9.0510   20.5240 C   0  0  0  0  0  3  0  0  0  0  0  0
  -22.5940  -10.2280   20.2860 C   0  0  0  0  0  3  0  0  0  0  0  0
  -21.5770   -6.9500   21.5690 O   0  0  0  0  0  0  0  0  0  0  0  0
  -21.6080   -6.2080   22.7230 C   0  0  0  0  0  0  0  0  0  0  0  0
  -21.3080   -6.7730   23.9810 C   0  0  0  0  0  3  0  0  0  0  0  0
  -21.2830   -5.9600   25.1310 C   0  0  0  0  0  3  0  0  0  0  0  0
  -21.5480   -4.5810   25.0250 C   0  0  0  0  0  0  0  0  0  0  0  0
  -21.8420   -4.0150   23.7720 C   0  0  0  0  0  3  0  0  0  0  0  0
  -21.8700   -4.8270   22.6250 C   0  0  0  0  0  0  0  0  0  0  0  0
  -22.1330   -4.2730   21.4170 F   0  0  0  0  0  0  0  0  0  0  0  0
  -21.5150   -3.7970   26.1280 F   0  0  0  0  0  0  0  0  0  0  0  0
  -22.7860  -13.5720   21.2280 C   0  0  0  0  0  0  0  0  0  0  0  0
  -22.1480  -12.8870   22.1690 N   0  0  0  0  0  0  0  0  0  0  0  0
  -22.3150  -14.6110   20.7660 O   0  0  0  0  0  0  0  0  0  0  0  0
  -22.5440  -12.0450   22.5590 H   0  0  0  0  0  0  0  0  0  0  0  0
  -21.2510  -13.2070   22.5050 H   0  0  0  0  0  0  0  0  0  0  0  0
  -25.3540  -15.1850   20.1470 N   0  0  0  0  0  0  0  0  0  0  0  0
  -24.6150  -15.8540   20.3370 H   0  0  0  0  0  0  0  0  0  0  0  0
  -26.1610  -15.6010   19.7020 H   0  0  0  0  0  0  0  0  0  0  0  0
  -26.0550  -23.3990   17.2470 C   0  0  0  0  0  1  0  0  0  0  0  0
  -27.2790  -23.1380   18.1440 C   0  0  0  0  0  3  0  0  0  0  0  0
  -28.9270  -25.0400   18.6190 C   0  0  0  0  0  3  0  0  0  0  0  0
  -28.4290  -24.0920   17.7940 C   0  0  0  0  0  0  0  0  0  0  0  0
  -29.0130  -23.9370   16.3950 C   0  0  0  0  0  1  0  0  0  0  0  0
  -28.5190  -25.3880   20.0410 C   0  0  0  0  0  2  0  0  0  0  0  0
  -28.4820  -26.8000   20.2360 O   0  0  0  0  0  0  0  0  0  0  0  0
  -24.6020  -31.9250   23.2370 C   0  0  0  0  0  0  0  0  0  0  0  0
  -27.2750  -27.4650   20.2090 C   0  0  0  0  0  0  0  0  0  0  0  0
  -23.4040  -30.4990   21.6100 C   0  0  0  0  0  3  0  0  0  0  0  0
  -24.8640  -28.9440   20.2120 C   0  0  0  0  0  0  0  0  0  0  0  0
  -25.9270  -30.8660   21.4120 C   0  0  0  0  0  2  0  0  0  0  0  0
  -26.0160  -29.4870   20.7920 C   0  0  0  0  0  0  0  0  0  0  0  0
  -27.2220  -28.7530   20.7870 C   0  0  0  0  0  3  0  0  0  0  0  0
  -26.1040  -26.9320   19.6230 C   0  0  0  0  0  3  0  0  0  0  0  0
  -24.9010  -27.6660   19.6290 C   0  0  0  0  0  3  0  0  0  0  0  0
  -23.6150  -29.7950   20.2430 C   0  0  0  0  0  2  0  0  0  0  0  0
  -24.6620  -31.1130   22.1440 N   0  0  0  0  0  0  0  0  0  0  0  0
  -23.5200  -32.2010   23.7720 O   0  0  0  0  0  0  0  0  0  0  0  0
  -22.7530  -29.4910   22.5840 C   0  0  0  0  0  0  0  0  0  0  0  0
  -21.4310  -29.3010   22.4500 N   0  0  0  0  0  0  0  0  0  0  0  0
  -23.4350  -28.8800   23.4110 O   0  0  0  0  0  0  0  0  0  0  0  0
  -20.9430  -29.8410   21.7500 H   0  0  0  0  0  0  0  0  0  0  0  0
  -18.0630  -28.0890   22.9300 C   0  0  0  0  0  0  0  0  0  0  0  0
  -20.6140  -28.3700   23.2280 C   0  0  0  0  0  3  0  0  0  0  0  0
  -20.7350  -26.9310   22.6790 C   0  0  0  0  0  2  0  0  0  0  0  0
  -19.6480  -26.5810   21.6580 C   0  0  0  0  0  2  0  0  0  0  0  0
  -18.2580  -26.7280   22.2820 C   0  0  0  0  0  2  0  0  0  0  0  0
  -19.1700  -28.8660   23.3600 C   0  0  0  0  0  0  0  0  0  0  0  0
  -18.9350  -30.1380   23.9240 C   0  0  0  0  0  3  0  0  0  0  0  0
  -17.6250  -30.6350   24.0610 C   0  0  0  0  0  3  0  0  0  0  0  0
  -16.5310  -29.8530   23.6500 C   0  0  0  0  0  3  0  0  0  0  0  0
  -16.7510  -28.5810   23.0900 C   0  0  0  0  0  3  0  0  0  0  0  0
  -25.8870  -32.5650   23.8530 C   0  0  0  0  0  3  0  0  0  0  0  0
  -25.5710  -33.9610   24.1830 N   0  0  0  0  0  0  0  0  0  0  0  0
  -25.8960  -35.0140   23.4200 C   0  0  0  0  0  0  0  0  0  0  0  0
  -26.5650  -34.9140   22.3880 O   0  0  0  0  0  0  0  0  0  0  0  0
  -24.9790  -34.1150   24.9850 H   0  0  0  0  0  0  0  0  0  0  0  0
  -24.1530  -36.7910   23.0690 C   0  0  0  0  0  1  0  0  0  0  0  0
  -25.4000  -36.4000   23.8760 C   0  0  0  0  0  3  0  0  0  0  0  0
  -27.5340  -37.2990   24.6950 C   0  0  0  0  0  1  0  0  0  0  0  0
  -26.4260  -37.4590   23.7570 N   0  0  0  0  0  0  0  0  0  0  0  0
  -26.0130  -38.3760   23.9090 H   0  0  0  0  0  0  0  0  0  0  0  0
  -26.4170  -31.7980   25.1260 C   0  0  1  0  0  0  0  0  0  0  0  0
  -25.3310  -31.5500   26.1980 C   0  0  0  0  0  1  0  0  0  0  0  0
  -27.0090  -30.4260   24.7280 C   0  0  0  0  0  1  0  0  0  0  0  0
  -27.5670  -32.6010   25.7820 C   0  0  0  0  0  1  0  0  0  0  0  0
  1 51  1  0
  1  2  1  0
  2  5  1  0
  2  4  1  0
  3  2  1  0
  5  6  1  0
  6 21  1  0
  7 20  1  0
  8 13  1  0
  9 10  1  0
  9  8  1  0
 11 10  1  0
 11 25  1  0
 11 12  1  0
 13  7  1  0
 13 12  1  0
 14  7  2  0
 15 17  1  0
 15 16  1  0
 18 20  1  0
 18 19  1  0
 20 16  1  0
 21 19  1  0
 21 17  1  0
 22 23  2  0
 23 42  1  0
 24 23  1  0
 24 27  1  0
 25 26  1  0
 25 22  1  0
 26 24  2  0
 27 28  1  0
 28 29  2  0
 30 33  1  0
 30 29  1  0
 31 30  2  0
 32 31  1  0
 32 27  2  0
 33 34  1  0
 34 35  1  0
 35 36  2  0
 37 36  1  0
 37 41  1  0
 38 37  2  0
 39 34  2  0
 39 38  1  0
 40 39  1  0
 42 43  1  0
 43 46  1  0
 43 45  1  0
 44 42  2  0
 47 22  1  0
 47 48  1  0
 49 47  1  0
 51 50  1  0
 52 55  1  0
 53 51  1  0
 53 52  2  0
 54 53  1  0
 55 56  1  0
 57 68  2  0
 58 56  1  0
 58 63  1  0
 59 67  1  0
 59 69  1  0
 60 66  1  0
 60 62  1  0
 61 67  1  0
 62 61  1  0
 63 62  2  0
 64 65  1  0
 64 58  2  0
 65 60  2  0
 66 59  1  0
 67 57  1  0
 69 71  2  0
 70 69  1  0
 72 70  1  0
 73 82  2  0
 73 78  1  0
 74 70  1  0
 74 78  1  0
 75 74  1  0
 76 77  1  0
 76 75  1  0
 77 73  1  0
 78 79  2  0
 79 80  1  0
 81 80  2  0
 82 81  1  0
 83 57  1  0
 83 84  1  0
 83 93  1  0
 84 87  1  0
 85 89  1  0
 85 84  1  0
 86 85  2  0
 89 88  1  0
 91 89  1  0
 91 92  1  0
 91 90  1  0
 93 96  1  1
 93 94  1  0
 95 93  1  0
M  ISO  4   7 100  20 100  55 101  56 101
M  END
>  <TORSDO>  (15) 
F 22

>  <SCORE>  (15) 
-11.595

>  <name>  (15) 
14

>  <ligand_id>  (15) 
14

>  <original_smiles>  (15) 
[H]C(=C(C([H])([H])[H])C([H])(C([H])([H])[H])C([H])([H])[N+]([H])([H])C([H])([H])C([H])([H])N1C([H])([H])C([H])([H])N(C(=O)N2C([H])([H])C([H])([H])C([H])([H])C([H])(n3nc(-c4c([H])c([H])c(Oc5c([H])c([H])c(F)c([H])c5F)c([H])c4[H])c(C(=O)N([H])[H])c3N([H])[H])C2([H])[H])C([H])([H])C([H])([H])C1([H])[H])C([H])([H])Oc1c([H])c([H])c2c(c1[H])C([H])([H])N(C(=O)C([H])(N([H])C(=O)C([H])(N([H])C([H])([H])[H])C([H])([H])[H])C(C([H])([H])[H])(C([H])([H])[H])C([H])([H])[H])C([H])(C(=O)N([H])C1([H])c3c([H])c([H])c([H])c([H])c3C([H])([H])C([H])([H])C1([H])[H])C2([H])[H]

>  <smiles>  (15) 
[H]C(=C(C([H])([H])[H])C([H])(C([H])([H])[H])C([H])([H])[N+]([H])([H])C([H])([H])C([H])([H])N1C([H])([H])C([H])([H])N(C(=O)N2C([H])([H])C([H])([H])C([H])([H])C([H])(n3nc(-c4c([H])c([H])c(Oc5c([H])c([H])c(F)c([H])c5F)c([H])c4[H])c(C(=O)N([H])[H])c3N([H])[H])C2([H])[H])C([H])([H])C([H])([H])C1([H])[H])C([H])([H])Oc1c([H])c([H])c2c(c1[H])C([H])([H])N(C(=O)C([H])(N([H])C(=O)C([H])(N([H])C([H])([H])[H])C([H])([H])[H])C(C([H])([H])[H])(C([H])([H])[H])C([H])([H])[H])C([H])(C(=O)N([H])C1([H])c3c([H])c([H])c([H])c([H])c3C([H])([H])C([H])([H])C1([H])[H])C2([H])[H]

$$$$
15:0:0
     RDKit          3D

 95102  0  0  1  0  0  0  0  0999 V2000
  -26.4780  -23.4310   22.8310 C   0  0  0  0  0  2  0  0  0  0  0  0
  -26.1740  -24.6950   22.1250 N   0  0  0  0  0  4  0  0  0  0  0  0
  -25.3360  -25.0750   22.5370 H   0  0  0  0  0  0  0  0  0  0  0  0
  -25.9670  -24.5200   21.1560 H   0  0  0  0  0  0  0  0  0  0  0  0
  -27.2350  -25.7240   22.2040 C   0  0  0  0  0  2  0  0  0  0  0  0
  -28.4570  -25.3780   21.3200 C   0  0  0  0  0  2  0  0  0  0  0  0
  -29.3480  -26.5770   20.9380 C   0  0  0  0  0  2  0  0  0  0  0  0
  -28.9180  -27.1800   19.7170 O   0  0  0  0  0  0  0  0  0  0  0  0
  -25.0460  -31.8250   23.4430 C   0  0  0  0  0  0  0  0  0  0  0  0
  -27.7490  -27.8840   19.8250 C   0  0  0  0  0  0  0  0  0  0  0  0
  -23.8350  -30.5610   21.6910 C   0  0  0  0  0  3  0  0  0  0  0  0
  -25.2970  -29.2460   20.0650 C   0  0  0  0  0  0  0  0  0  0  0  0
  -26.3320  -31.0470   21.4620 C   0  0  0  0  0  2  0  0  0  0  0  0
  -26.4470  -29.7580   20.6800 C   0  0  0  0  0  0  0  0  0  0  0  0
  -27.6760  -29.0800   20.5700 C   0  0  0  0  0  3  0  0  0  0  0  0
  -26.5960  -27.3880   19.1840 C   0  0  0  0  0  3  0  0  0  0  0  0
  -25.3630  -28.0560   19.3180 C   0  0  0  0  0  3  0  0  0  0  0  0
  -24.0220  -30.0380   20.2400 C   0  0  0  0  0  2  0  0  0  0  0  0
  -25.0890  -31.1520   22.2590 N   0  0  0  0  0  0  0  0  0  0  0  0
  -23.9770  -31.9940   24.0470 O   0  0  0  0  0  0  0  0  0  0  0  0
  -23.2580  -29.4160   22.5530 C   0  0  0  0  0  0  0  0  0  0  0  0
  -21.9500  -29.1570   22.4030 N   0  0  0  0  0  0  0  0  0  0  0  0
  -23.9850  -28.7670   23.3100 O   0  0  0  0  0  0  0  0  0  0  0  0
  -21.4180  -29.7440   21.7740 H   0  0  0  0  0  0  0  0  0  0  0  0
  -18.6750  -27.6730   22.7250 C   0  0  0  0  0  0  0  0  0  0  0  0
  -21.1980  -28.1000   23.0790 C   0  0  0  0  0  3  0  0  0  0  0  0
  -21.4200  -26.7320   22.3960 C   0  0  0  0  0  2  0  0  0  0  0  0
  -20.3650  -26.4060   21.3340 C   0  0  0  0  0  2  0  0  0  0  0  0
  -18.9660  -26.3960   21.9560 C   0  0  0  0  0  2  0  0  0  0  0  0
  -19.7220  -28.4820   23.2400 C   0  0  0  0  0  0  0  0  0  0  0  0
  -19.3960  -29.6780   23.9170 C   0  0  0  0  0  3  0  0  0  0  0  0
  -18.0540  -30.0650   24.0870 C   0  0  0  0  0  3  0  0  0  0  0  0
  -17.0200  -29.2550   23.5870 C   0  0  0  0  0  3  0  0  0  0  0  0
  -17.3300  -28.0600   22.9140 C   0  0  0  0  0  3  0  0  0  0  0  0
  -26.3320  -32.4320   24.0860 C   0  0  0  0  0  3  0  0  0  0  0  0
  -26.0290  -33.8230   24.4430 N   0  0  0  0  0  0  0  0  0  0  0  0
  -26.3800  -34.8890   23.7090 C   0  0  0  0  0  0  0  0  0  0  0  0
  -27.0650  -34.8030   22.6870 O   0  0  0  0  0  0  0  0  0  0  0  0
  -25.4260  -33.9670   25.2390 H   0  0  0  0  0  0  0  0  0  0  0  0
  -24.6670  -36.6980   23.3680 C   0  0  0  0  0  1  0  0  0  0  0  0
  -25.8950  -36.2700   24.1890 C   0  0  0  0  0  3  0  0  0  0  0  0
  -28.0280  -37.1220   25.0620 C   0  0  0  0  0  1  0  0  0  0  0  0
  -26.9350  -37.3200   24.1130 N   0  0  0  0  0  0  0  0  0  0  0  0
  -26.5320  -38.2380   24.2790 H   0  0  0  0  0  0  0  0  0  0  0  0
  -26.8370  -31.6260   25.3460 C   0  0  1  0  0  0  0  0  0  0  0  0
  -25.7290  -31.3400   26.3870 C   0  0  0  0  0  1  0  0  0  0  0  0
  -27.4440  -30.2680   24.9170 C   0  0  0  0  0  1  0  0  0  0  0  0
  -27.9590  -32.4160   26.0530 C   0  0  0  0  0  1  0  0  0  0  0  0
  -26.4500  -22.1970   21.9050 C   0  0  0  0  0  2  0  0  0  0  0  0
  -27.7000  -22.0860   21.0030 C   0  0  0  0  0  2  0  0  0  0  0  0
  -28.0440  -20.6450   20.5620 C   0  0  0  0  0  2  0  0  0  0  0  0
  -29.4750  -20.5300   19.9880 C   0  0  0  0  0  2  0  0  0  0  0  0
  -30.0370  -19.1680   20.1490 N   0  0  0  0  0  4  0  0  0  0  0  0
  -29.5710  -18.5360   19.5180 H   0  0  0  0  0  0  0  0  0  0  0  0
  -29.8480  -18.8670   21.0900 H   0  0  0  0  0  0  0  0  0  0  0  0
  -31.5020  -19.0840   19.9570 C   0  0  0  0  0  2  0  0  0  0  0  0
  -32.1510  -18.0500   20.8980 C   0  0  0  0  0  2  0  0  0  0  0  0
  -32.0810  -15.7110   20.0770 C   0  0  0  0  0  0  0  0  0  0  0  0
  -31.8330  -13.3510   19.4200 C   0  0  0  0  0  2  0  0  0  0  0  0
  -30.9580  -13.2040   18.1610 C   0  0  0  0  0  2  0  0  0  0  0  0
  -29.4630  -13.1520   18.5320 C   0  0  0  0  0  2  0  0  0  0  0  0
  -29.0490  -14.2930   19.5000 C   0  0  0  0  0  3  0  0  0  0  0  0
  -30.0300  -14.3820   20.6890 C   0  0  0  0  0  2  0  0  0  0  0  0
  -31.3940  -14.5460   20.1550 N   0  0  0  0  0  0  0  0  0  0  0  0
  -33.1290  -15.8460   19.4410 O   0  0  0  0  0  0  0  0  0  0  0  0
  -31.5520  -16.7230   20.7750 N   0  0  0  0  0  0  0  0  0  0  0  0
  -30.7290  -16.5090   21.3230 H   0  0  0  0  0  0  0  0  0  0  0  0
  -26.6980  -15.0950   20.1740 C   0  0  0  0  0  0  0  0  0  0  0  0
  -25.5640  -14.4120   20.5190 C   0  0  0  0  0  0  0  0  0  0  0  0
  -25.9090  -13.0260   20.4750 C   0  0  0  0  0  0  0  0  0  0  0  0
  -27.6690  -14.1330   19.9490 N   0  0  0  0  0  0  0  0  0  0  0  0
  -27.1960  -12.8830   20.1860 N   0  0  0  0  0  0  0  0  0  0  0  0
  -25.0780  -11.8270   20.6370 C   0  0  0  0  0  0  0  0  0  0  0  0
  -25.4010  -10.8260   21.5790 C   0  0  0  0  0  3  0  0  0  0  0  0
  -24.5760   -9.6900   21.7280 C   0  0  0  0  0  3  0  0  0  0  0  0
  -23.4140   -9.5470   20.9340 C   0  0  0  0  0  0  0  0  0  0  0  0
  -23.1100  -10.5350   19.9810 C   0  0  0  0  0  3  0  0  0  0  0  0
  -23.9340  -11.6630   19.8300 C   0  0  0  0  0  3  0  0  0  0  0  0
  -22.5680   -8.4660   20.9910 O   0  0  0  0  0  0  0  0  0  0  0  0
  -22.3670   -7.7700   22.1550 C   0  0  0  0  0  0  0  0  0  0  0  0
  -21.9130   -8.4030   23.3330 C   0  0  0  0  0  3  0  0  0  0  0  0
  -21.6550   -7.6380   24.4880 C   0  0  0  0  0  3  0  0  0  0  0  0
  -21.8420   -6.2440   24.4670 C   0  0  0  0  0  0  0  0  0  0  0  0
  -22.2880   -5.6100   23.2930 C   0  0  0  0  0  3  0  0  0  0  0  0
  -22.5490   -6.3710   22.1400 C   0  0  0  0  0  0  0  0  0  0  0  0
  -22.9590   -5.7550   21.0060 F   0  0  0  0  0  0  0  0  0  0  0  0
  -21.5870   -5.5070   25.5730 F   0  0  0  0  0  0  0  0  0  0  0  0
  -24.2080  -14.9990   20.7770 C   0  0  0  0  0  0  0  0  0  0  0  0
  -23.4140  -14.3620   21.6280 N   0  0  0  0  0  0  0  0  0  0  0  0
  -23.8640  -16.0610   20.2560 O   0  0  0  0  0  0  0  0  0  0  0  0
  -23.7040  -13.5020   22.0710 H   0  0  0  0  0  0  0  0  0  0  0  0
  -22.5040  -14.7420   21.8440 H   0  0  0  0  0  0  0  0  0  0  0  0
  -26.9780  -16.4490   20.0090 N   0  0  0  0  0  0  0  0  0  0  0  0
  -26.2390  -17.1420   20.0510 H   0  0  0  0  0  0  0  0  0  0  0  0
  -27.8160  -16.7860   19.5540 H   0  0  0  0  0  0  0  0  0  0  0  0
  2  5  1  0
  2  3  1  0
  2  1  1  0
  4  2  1  0
  6  5  1  0
  7  6  1  0
  8 10  1  0
  8  7  1  0
  9 20  2  0
 10 15  1  0
 11 19  1  0
 11 21  1  0
 12 18  1  0
 12 14  1  0
 13 19  1  0
 14 13  1  0
 15 14  2  0
 16 17  1  0
 16 10  2  0
 17 12  2  0
 18 11  1  0
 19  9  1  0
 21 23  2  0
 22 21  1  0
 24 22  1  0
 25 34  2  0
 25 30  1  0
 26 22  1  0
 26 30  1  0
 27 26  1  0
 28 29  1  0
 28 27  1  0
 29 25  1  0
 30 31  2  0
 31 32  1  0
 33 32  2  0
 34 33  1  0
 35  9  1  0
 35 36  1  0
 35 45  1  0
 36 39  1  0
 37 41  1  0
 37 36  1  0
 38 37  2  0
 41 40  1  0
 43 41  1  0
 43 44  1  0
 43 42  1  0
 45 48  1  1
 45 46  1  0
 47 45  1  0
 49  1  1  0
 50 49  1  0
 51 50  1  0
 52 53  1  0
 52 51  1  0
 53 55  1  0
 54 53  1  0
 56 53  1  0
 56 57  1  0
 58 64  1  0
 58 66  1  0
 59 64  1  0
 60 61  1  0
 60 59  1  0
 62 61  1  0
 62 71  1  0
 62 63  1  0
 64 63  1  0
 65 58  2  0
 66 57  1  0
 66 67  1  0
 68 69  2  0
 69 88  1  0
 70 69  1  0
 70 73  1  0
 71 68  1  0
 71 72  1  0
 72 70  2  0
 73 74  1  0
 74 75  2  0
 76 79  1  0
 76 75  1  0
 77 76  2  0
 78 77  1  0
 78 73  2  0
 79 80  1  0
 80 81  1  0
 81 82  2  0
 83 82  1  0
 83 87  1  0
 84 83  2  0
 85 80  2  0
 85 84  1  0
 86 85  1  0
 88 89  1  0
 89 92  1  0
 89 91  1  0
 90 88  2  0
 93 94  1  0
 93 68  1  0
 95 93  1  0
M  ISO  4   7 101   8 101  58 100  66 100
M  END
>  <TORSDO>  (16) 
F 27

>  <SCORE>  (16) 
-6.046

>  <name>  (16) 
15

>  <ligand_id>  (16) 
15

>  <original_smiles>  (16) 
[H]c1c([H])c([H])c2c(c1[H])C([H])([H])C([H])([H])C([H])([H])C2([H])N([H])C(=O)C1([H])N(C(=O)C([H])(N([H])C(=O)C([H])(N([H])C([H])([H])[H])C([H])([H])[H])C(C([H])([H])[H])(C([H])([H])[H])C([H])([H])[H])C([H])([H])c2c([H])c(OC([H])([H])C([H])([H])C([H])([H])[N+]([H])([H])C([H])([H])C([H])([H])C([H])([H])C([H])([H])C([H])([H])[N+]([H])([H])C([H])([H])C([H])([H])N([H])C(=O)N3C([H])([H])C([H])([H])C([H])([H])C([H])(n4nc(-c5c([H])c([H])c(Oc6c([H])c([H])c(F)c([H])c6F)c([H])c5[H])c(C(=O)N([H])[H])c4N([H])[H])C3([H])[H])c([H])c([H])c2C1([H])[H]

>  <smiles>  (16) 
[H]c1c([H])c([H])c2c(c1[H])C([H])([H])C([H])([H])C([H])([H])C2([H])N([H])C(=O)C1([H])N(C(=O)C([H])(N([H])C(=O)C([H])(N([H])C([H])([H])[H])C([H])([H])[H])C(C([H])([H])[H])(C([H])([H])[H])C([H])([H])[H])C([H])([H])c2c([H])c(OC([H])([H])C([H])([H])C([H])([H])[N+]([H])([H])C([H])([H])C([H])([H])C([H])([H])C([H])([H])C([H])([H])[N+]([H])([H])C([H])([H])C([H])([H])N([H])C(=O)N3C([H])([H])C([H])([H])C([H])([H])C([H])(n4nc(-c5c([H])c([H])c(Oc6c([H])c([H])c(F)c([H])c6F)c([H])c5[H])c(C(=O)N([H])[H])c4N([H])[H])C3([H])[H])c([H])c([H])c2C1([H])[H]

$$$$
16:0:0
     RDKit          3D

 97105  0  0  1  0  0  0  0  0999 V2000
  -28.8920  -20.1730   21.4730 C   0  0  0  0  0  2  0  0  0  0  0  0
  -29.5850  -18.9190   22.0450 C   0  0  0  0  0  2  0  0  0  0  0  0
  -30.9620  -18.5900   21.4170 C   0  0  0  0  0  2  0  0  0  0  0  0
  -31.5220  -13.7000   18.3230 C   0  0  0  0  0  0  0  0  0  0  0  0
  -30.7040  -11.4880   17.5750 C   0  0  0  0  0  2  0  0  0  0  0  0
  -29.4390  -11.6120   16.7030 C   0  0  0  0  0  2  0  0  0  0  0  0
  -28.1780  -11.6100   17.5880 C   0  0  0  0  0  2  0  0  0  0  0  0
  -28.2760  -12.6350   18.7400 C   0  0  0  0  0  3  0  0  0  0  0  0
  -29.6180  -12.5010   19.5000 C   0  0  0  0  0  2  0  0  0  0  0  0
  -30.7240  -12.6110   18.5300 N   0  0  0  0  0  0  0  0  0  0  0  0
  -32.3130  -13.7670   17.3780 O   0  0  0  0  0  0  0  0  0  0  0  0
  -32.7100  -15.0830   19.8900 C   0  0  0  0  0  0  0  0  0  0  0  0
  -33.5880  -14.1370   20.3080 C   0  0  0  0  0  3  0  0  0  0  0  0
  -33.0760  -16.5750   20.0600 C   0  0  0  0  0  2  0  0  0  0  0  0
  -30.3700  -15.6440   19.0460 C   0  0  0  0  0  2  0  0  0  0  0  0
  -32.1950  -17.6870   19.4560 C   0  0  0  0  0  2  0  0  0  0  0  0
  -30.1110  -16.5860   20.2280 C   0  0  0  0  0  2  0  0  0  0  0  0
  -34.9400  -14.3680   20.9680 C   0  0  0  0  0  1  0  0  0  0  0  0
  -31.4890  -14.6970   19.2430 N   0  0  0  0  0  0  0  0  0  0  0  0
  -30.8790  -17.8440   20.1250 N   0  0  1  0  0  4  0  0  0  0  0  0
  -30.3570  -18.4290   19.4890 H   0  0  0  0  0  0  0  0  0  0  0  0
  -26.5010  -13.5540   20.3550 C   0  0  0  0  0  0  0  0  0  0  0  0
  -25.4440  -12.9550   20.9840 C   0  0  0  0  0  0  0  0  0  0  0  0
  -25.4940  -11.5780   20.6080 C   0  0  0  0  0  0  0  0  0  0  0  0
  -27.1360  -12.5490   19.6450 N   0  0  0  0  0  0  0  0  0  0  0  0
  -26.5530  -11.3420   19.8500 N   0  0  0  0  0  0  0  0  0  0  0  0
  -24.5620  -10.4740   20.8740 C   0  0  0  0  0  0  0  0  0  0  0  0
  -24.8840   -9.4400   21.7810 C   0  0  0  0  0  3  0  0  0  0  0  0
  -23.9610   -8.4000   22.0350 C   0  0  0  0  0  3  0  0  0  0  0  0
  -22.7030   -8.3920   21.3850 C   0  0  0  0  0  0  0  0  0  0  0  0
  -22.4000   -9.4090   20.4600 C   0  0  0  0  0  3  0  0  0  0  0  0
  -23.3250  -10.4350   20.1990 C   0  0  0  0  0  3  0  0  0  0  0  0
  -21.7640   -7.4000   21.5430 O   0  0  0  0  0  0  0  0  0  0  0  0
  -21.4890   -6.8570   22.7750 C   0  0  0  0  0  0  0  0  0  0  0  0
  -20.9860   -7.6370   23.8370 C   0  0  0  0  0  3  0  0  0  0  0  0
  -20.6660   -7.0340   25.0700 C   0  0  0  0  0  3  0  0  0  0  0  0
  -20.8360   -5.6460   25.2410 C   0  0  0  0  0  0  0  0  0  0  0  0
  -21.3250   -4.8640   24.1820 C   0  0  0  0  0  3  0  0  0  0  0  0
  -21.6520   -5.4680   22.9540 C   0  0  0  0  0  0  0  0  0  0  0  0
  -22.1130   -4.7070   21.9330 F   0  0  0  0  0  0  0  0  0  0  0  0
  -20.5240   -5.0620   26.4230 F   0  0  0  0  0  0  0  0  0  0  0  0
  -24.3800  -13.6370   21.7980 C   0  0  0  0  0  0  0  0  0  0  0  0
  -23.8290  -12.9560   22.7940 N   0  0  0  0  0  0  0  0  0  0  0  0
  -24.0570  -14.8000   21.5690 O   0  0  0  0  0  0  0  0  0  0  0  0
  -24.0610  -11.9890   22.9620 H   0  0  0  0  0  0  0  0  0  0  0  0
  -23.1150  -13.4000   23.3550 H   0  0  0  0  0  0  0  0  0  0  0  0
  -26.9580  -14.8700   20.3090 N   0  0  0  0  0  0  0  0  0  0  0  0
  -26.4730  -15.6130   20.7950 H   0  0  0  0  0  0  0  0  0  0  0  0
  -27.6820  -15.2090   19.6880 H   0  0  0  0  0  0  0  0  0  0  0  0
  -29.7380  -21.4620   21.5400 C   0  0  0  0  0  2  0  0  0  0  0  0
  -29.3180  -22.4410   20.5200 N   0  0  0  0  0  4  0  0  0  0  0  0
  -28.3900  -22.7740   20.7390 H   0  0  0  0  0  0  0  0  0  0  0  0
  -29.2780  -21.9790   19.6240 H   0  0  0  0  0  0  0  0  0  0  0  0
  -30.2330  -23.5940   20.4100 C   0  0  0  0  0  2  0  0  0  0  0  0
  -29.7780  -24.5610   19.3150 C   0  0  0  0  0  2  0  0  0  0  0  0
  -30.5470  -25.8900   19.3590 C   0  0  0  0  0  2  0  0  0  0  0  0
  -29.9890  -26.8060   18.4300 O   0  0  0  0  0  0  0  0  0  0  0  0
  -26.5340  -29.6410   23.9620 C   0  0  0  0  0  0  0  0  0  0  0  0
  -28.8660  -27.4380   18.8960 C   0  0  0  0  0  0  0  0  0  0  0  0
  -25.2170  -29.3800   21.8810 C   0  0  0  0  0  3  0  0  0  0  0  0
  -26.5550  -28.7610   19.8010 C   0  0  0  0  0  0  0  0  0  0  0  0
  -27.7540  -29.6790   21.7960 C   0  0  0  0  0  2  0  0  0  0  0  0
  -27.7450  -28.8460   20.5350 C   0  0  0  0  0  0  0  0  0  0  0  0
  -28.9040  -28.1740   20.0950 C   0  0  0  0  0  3  0  0  0  0  0  0
  -27.6700  -27.3670   18.1520 C   0  0  0  0  0  3  0  0  0  0  0  0
  -26.5060  -28.0140   18.6110 C   0  0  0  0  0  3  0  0  0  0  0  0
  -25.3640  -29.5220   20.3440 C   0  0  0  0  0  2  0  0  0  0  0  0
  -26.5210  -29.5460   22.6040 N   0  0  0  0  0  0  0  0  0  0  0  0
  -25.4790  -29.6370   24.6130 O   0  0  0  0  0  0  0  0  0  0  0  0
  -24.5190  -28.0360   22.1850 C   0  0  0  0  0  0  0  0  0  0  0  0
  -23.2210  -27.9530   21.8520 N   0  0  0  0  0  0  0  0  0  0  0  0
  -25.1450  -27.0920   22.6760 O   0  0  0  0  0  0  0  0  0  0  0  0
  -22.7760  -28.7740   21.4660 H   0  0  0  0  0  0  0  0  0  0  0  0
  -19.9270  -26.6400   21.1650 C   0  0  0  0  0  0  0  0  0  0  0  0
  -22.3650  -26.7770   22.0090 C   0  0  0  0  0  3  0  0  0  0  0  0
  -22.6870  -25.7080   20.9380 C   0  0  0  0  0  2  0  0  0  0  0  0
  -21.8110  -25.8220   19.6880 C   0  0  0  0  0  2  0  0  0  0  0  0
  -20.3310  -25.6840   20.0550 C   0  0  0  0  0  2  0  0  0  0  0  0
  -20.8840  -27.1640   22.0730 C   0  0  0  0  0  0  0  0  0  0  0  0
  -20.4620  -28.0760   23.0650 C   0  0  0  0  0  3  0  0  0  0  0  0
  -19.1110  -28.4630   23.1580 C   0  0  0  0  0  3  0  0  0  0  0  0
  -18.1640  -27.9280   22.2680 C   0  0  0  0  0  3  0  0  0  0  0  0
  -18.5720  -27.0140   21.2780 C   0  0  0  0  0  3  0  0  0  0  0  0
  -27.8660  -29.7810   24.7630 C   0  0  0  0  0  3  0  0  0  0  0  0
  -28.3410  -28.4300   25.4250 C   0  0  1  0  0  0  0  0  0  0  0  0
  -27.2460  -27.7380   26.2700 C   0  0  0  0  0  1  0  0  0  0  0  0
  -28.8110  -27.4300   24.3420 C   0  0  0  0  0  1  0  0  0  0  0  0
  -29.5590  -28.6950   26.3400 C   0  0  0  0  0  1  0  0  0  0  0  0
  -27.6600  -30.8200   25.7800 N   0  0  0  0  0  0  0  0  0  0  0  0
  -28.1930  -32.0470   25.7310 C   0  0  0  0  0  0  0  0  0  0  0  0
  -28.9760  -32.4030   24.8460 O   0  0  0  0  0  0  0  0  0  0  0  0
  -26.9880  -30.6180   26.5060 H   0  0  0  0  0  0  0  0  0  0  0  0
  -26.7720  -34.0440   26.2830 C   0  0  0  0  0  1  0  0  0  0  0  0
  -27.7910  -33.0380   26.8380 C   0  0  0  0  0  3  0  0  0  0  0  0
  -29.8290  -32.9080   28.2010 C   0  0  0  0  0  1  0  0  0  0  0  0
  -28.9400  -33.7640   27.4220 N   0  0  0  0  0  0  0  0  0  0  0  0
  -28.6220  -34.5200   28.0220 H   0  0  0  0  0  0  0  0  0  0  0  0
  1 50  1  0
  1  2  1  0
  3  2  1  0
  4 10  1  0
  4 19  1  0
  5 10  1  0
  6  5  1  0
  6  7  1  0
  8  7  1  0
  8  9  1  0
  8 25  1  0
 10  9  1  0
 11  4  2  0
 12 14  1  0
 12 13  2  0
 13 18  1  0
 15 19  1  0
 15 17  1  0
 16 14  1  0
 16 20  1  0
 19 12  1  0
 20 17  1  0
 20  3  1  0
 20 21  1  6
 22 23  2  0
 23 42  1  0
 24 27  1  0
 24 23  1  0
 25 26  1  0
 25 22  1  0
 26 24  2  0
 27 28  1  0
 28 29  2  0
 30 33  1  0
 30 29  1  0
 31 30  2  0
 32 31  1  0
 32 27  2  0
 33 34  1  0
 34 39  2  0
 34 35  1  0
 35 36  2  0
 36 37  1  0
 37 41  1  0
 38 37  2  0
 39 38  1  0
 40 39  1  0
 42 43  1  0
 43 45  1  0
 43 46  1  0
 44 42  2  0
 47 22  1  0
 47 48  1  0
 49 47  1  0
 51 52  1  0
 51 50  1  0
 53 51  1  0
 54 51  1  0
 55 56  1  0
 55 54  1  0
 57 59  1  0
 57 56  1  0
 58 69  2  0
 59 64  1  0
 60 70  1  0
 60 68  1  0
 61 67  1  0
 61 63  1  0
 62 68  1  0
 63 62  1  0
 64 63  2  0
 65 66  1  0
 65 59  2  0
 66 61  2  0
 67 60  1  0
 68 58  1  0
 70 72  2  0
 71 70  1  0
 73 71  1  0
 74 83  2  0
 74 79  1  0
 75 71  1  0
 75 79  1  0
 76 75  1  0
 77 78  1  0
 77 76  1  0
 78 74  1  0
 79 80  2  0
 80 81  1  0
 82 81  2  0
 83 82  1  0
 84 58  1  0
 84 85  1  0
 84 89  1  0
 85 86  1  1
 85 88  1  0
 87 85  1  0
 89 92  1  0
 90 89  1  0
 90 94  1  0
 91 90  2  0
 94 93  1  0
 94 96  1  0
 96 97  1  0
 96 95  1  0
M  ISO  4   4 100  19 100  56 101  57 101
M  END
>  <TORSDO>  (17) 
F 23

>  <SCORE>  (17) 
-1.482

>  <name>  (17) 
16

>  <ligand_id>  (17) 
16

>  <original_smiles>  (17) 
[H]C(=C1N(C(=O)N2C([H])([H])C([H])([H])C([H])([H])C([H])(n3nc(-c4c([H])c([H])c(Oc5c([H])c([H])c(F)c([H])c5F)c([H])c4[H])c(C(=O)N([H])[H])c3N([H])[H])C2([H])[H])C([H])([H])C([H])([H])[N+]([H])(C([H])([H])C([H])([H])C([H])([H])C([H])([H])[N+]([H])([H])C([H])([H])C([H])([H])C([H])([H])Oc2c([H])c([H])c3c(c2[H])C([H])([H])N(C(=O)C([H])(N([H])C(=O)C([H])(N([H])C([H])([H])[H])C([H])([H])[H])C(C([H])([H])[H])(C([H])([H])[H])C([H])([H])[H])C([H])(C(=O)N([H])C2([H])c4c([H])c([H])c([H])c([H])c4C([H])([H])C([H])([H])C2([H])[H])C3([H])[H])C([H])([H])C1([H])[H])C([H])([H])[H]

>  <smiles>  (17) 
[H]C(=C1N(C(=O)N2C([H])([H])C([H])([H])C([H])([H])C([H])(n3nc(-c4c([H])c([H])c(Oc5c([H])c([H])c(F)c([H])c5F)c([H])c4[H])c(C(=O)N([H])[H])c3N([H])[H])C2([H])[H])C([H])([H])C([H])([H])[N+]([H])(C([H])([H])C([H])([H])C([H])([H])C([H])([H])[N+]([H])([H])C([H])([H])C([H])([H])C([H])([H])Oc2c([H])c([H])c3c(c2[H])C([H])([H])N(C(=O)C([H])(N([H])C(=O)C([H])(N([H])C([H])([H])[H])C([H])([H])[H])C(C([H])([H])[H])(C([H])([H])[H])C([H])([H])[H])C([H])(C(=O)N([H])C2([H])c4c([H])c([H])c([H])c([H])c4C([H])([H])C([H])([H])C2([H])[H])C3([H])[H])C([H])([H])C1([H])[H])C([H])([H])[H]

$$$$
17:0:0
     RDKit          3D

 91 99  0  0  1  0  0  0  0  0999 V2000
  -30.0610  -19.6390   18.0330 C   0  0  0  0  0  2  0  0  0  0  0  0
  -30.8340  -20.2400   19.2020 C   0  0  0  0  0  2  0  0  0  0  0  0
  -29.5580  -18.3100   18.6160 C   0  0  0  0  0  3  0  0  0  0  0  0
  -29.4490  -18.5420   20.1470 C   0  0  0  0  0  3  0  0  0  0  0  0
  -28.2740  -17.8000   17.9510 C   0  0  0  0  0  1  0  0  0  0  0  0
  -29.9610  -19.9830   20.3650 N   0  0  2  0  0  4  0  0  0  0  0  0
  -30.5140  -19.9790   21.2110 H   0  0  0  0  0  0  0  0  0  0  0  0
  -30.2300  -17.3510   20.9250 C   0  0  0  0  0  2  0  0  0  0  0  0
  -30.6270  -14.7690   20.4490 C   0  0  0  0  0  0  0  0  0  0  0  0
  -30.4240  -12.5210   19.3640 C   0  0  0  0  0  2  0  0  0  0  0  0
  -29.4750  -12.6170   18.1450 C   0  0  0  0  0  2  0  0  0  0  0  0
  -28.0120  -12.4180   18.5820 C   0  0  0  0  0  2  0  0  0  0  0  0
  -27.6400  -13.2890   19.8140 C   0  0  0  0  0  3  0  0  0  0  0  0
  -28.7030  -13.1770   20.9290 C   0  0  0  0  0  2  0  0  0  0  0  0
  -30.0000  -13.5470   20.3430 N   0  0  0  0  0  0  0  0  0  0  0  0
  -31.8140  -14.8910   20.1400 O   0  0  0  0  0  0  0  0  0  0  0  0
  -29.8480  -15.8790   20.7200 N   0  0  0  0  0  0  0  0  0  0  0  0
  -28.8790  -15.6590   20.8900 H   0  0  0  0  0  0  0  0  0  0  0  0
  -25.2450  -13.8710   20.5310 C   0  0  0  0  0  0  0  0  0  0  0  0
  -24.1820  -13.0890   20.9000 C   0  0  0  0  0  0  0  0  0  0  0  0
  -24.6540  -11.7420   20.8710 C   0  0  0  0  0  0  0  0  0  0  0  0
  -26.2960  -12.9950   20.3020 N   0  0  0  0  0  0  0  0  0  0  0  0
  -25.9450  -11.7080   20.5640 N   0  0  0  0  0  0  0  0  0  0  0  0
  -23.9350  -10.4730   21.0550 C   0  0  0  0  0  0  0  0  0  0  0  0
  -24.3730   -9.5040   21.9830 C   0  0  0  0  0  3  0  0  0  0  0  0
  -23.6540   -8.3030   22.1580 C   0  0  0  0  0  3  0  0  0  0  0  0
  -22.4830   -8.0630   21.4040 C   0  0  0  0  0  0  0  0  0  0  0  0
  -22.0640   -9.0180   20.4640 C   0  0  0  0  0  3  0  0  0  0  0  0
  -22.7840  -10.2110   20.2860 C   0  0  0  0  0  3  0  0  0  0  0  0
  -21.7330   -6.9140   21.4890 O   0  0  0  0  0  0  0  0  0  0  0  0
  -21.6940   -6.1640   22.6360 C   0  0  0  0  0  0  0  0  0  0  0  0
  -21.2710   -6.7090   23.8700 C   0  0  0  0  0  3  0  0  0  0  0  0
  -21.1780   -5.8840   25.0090 C   0  0  0  0  0  3  0  0  0  0  0  0
  -21.4990   -4.5160   24.9180 C   0  0  0  0  0  0  0  0  0  0  0  0
  -21.9130   -3.9710   23.6900 C   0  0  0  0  0  3  0  0  0  0  0  0
  -22.0080   -4.7920   22.5530 C   0  0  0  0  0  0  0  0  0  0  0  0
  -22.3890   -4.2570   21.3680 F   0  0  0  0  0  0  0  0  0  0  0  0
  -21.4030   -3.7230   26.0090 F   0  0  0  0  0  0  0  0  0  0  0  0
  -22.7810  -13.5590   21.1640 C   0  0  0  0  0  0  0  0  0  0  0  0
  -22.0530  -12.8570   22.0260 N   0  0  0  0  0  0  0  0  0  0  0  0
  -22.3400  -14.5830   20.6470 O   0  0  0  0  0  0  0  0  0  0  0  0
  -22.4200  -12.0280   22.4710 H   0  0  0  0  0  0  0  0  0  0  0  0
  -21.1140  -13.1540   22.2510 H   0  0  0  0  0  0  0  0  0  0  0  0
  -25.3930  -15.2390   20.3440 N   0  0  0  0  0  0  0  0  0  0  0  0
  -24.6040  -15.8720   20.4360 H   0  0  0  0  0  0  0  0  0  0  0  0
  -26.1990  -15.6780   19.9190 H   0  0  0  0  0  0  0  0  0  0  0  0
  -28.9360  -21.1250   20.4990 C   0  0  0  0  0  2  0  0  0  0  0  0
  -29.4560  -22.6130   20.8620 C   0  0  0  0  0  2  0  0  0  0  0  0
  -29.1240  -23.9160   19.9740 C   0  0  0  0  0  2  0  0  0  0  0  0
  -28.2320  -25.0810   20.6140 C   0  0  0  0  0  2  0  0  0  0  0  0
  -28.4410  -26.5030   20.2370 O   0  0  0  0  0  0  0  0  0  0  0  0
  -24.6610  -31.9050   23.2530 C   0  0  0  0  0  0  0  0  0  0  0  0
  -27.3230  -27.3510   20.2250 C   0  0  0  0  0  0  0  0  0  0  0  0
  -23.4810  -30.4970   21.6040 C   0  0  0  0  0  3  0  0  0  0  0  0
  -24.9550  -28.9520   20.1940 C   0  0  0  0  0  0  0  0  0  0  0  0
  -26.0240  -30.8200   21.4550 C   0  0  0  0  0  2  0  0  0  0  0  0
  -26.1120  -29.4420   20.8100 C   0  0  0  0  0  0  0  0  0  0  0  0
  -27.3030  -28.6530   20.8180 C   0  0  0  0  0  3  0  0  0  0  0  0
  -26.1470  -26.9210   19.5750 C   0  0  0  0  0  3  0  0  0  0  0  0
  -24.9750  -27.6990   19.5640 C   0  0  0  0  0  3  0  0  0  0  0  0
  -23.7160  -29.8250   20.2260 C   0  0  0  0  0  2  0  0  0  0  0  0
  -24.7400  -31.0940   22.1580 N   0  0  0  0  0  0  0  0  0  0  0  0
  -23.5700  -32.1730   23.7760 O   0  0  0  0  0  0  0  0  0  0  0  0
  -22.8150  -29.4750   22.5580 C   0  0  0  0  0  0  0  0  0  0  0  0
  -21.4930  -29.2850   22.4110 N   0  0  0  0  0  0  0  0  0  0  0  0
  -23.4910  -28.8560   23.3830 O   0  0  0  0  0  0  0  0  0  0  0  0
  -21.0070  -29.8430   21.7220 H   0  0  0  0  0  0  0  0  0  0  0  0
  -18.1180  -28.0660   22.8700 C   0  0  0  0  0  0  0  0  0  0  0  0
  -20.6720  -28.3440   23.1740 C   0  0  0  0  0  3  0  0  0  0  0  0
  -20.7890  -26.9120   22.6050 C   0  0  0  0  0  2  0  0  0  0  0  0
  -19.7050  -26.5770   21.5760 C   0  0  0  0  0  2  0  0  0  0  0  0
  -18.3140  -26.7150   22.2020 C   0  0  0  0  0  2  0  0  0  0  0  0
  -19.2270  -28.8380   23.3120 C   0  0  0  0  0  0  0  0  0  0  0  0
  -18.9930  -30.1020   23.8970 C   0  0  0  0  0  3  0  0  0  0  0  0
  -17.6820  -30.5960   24.0420 C   0  0  0  0  0  3  0  0  0  0  0  0
  -16.5890  -29.8240   23.6190 C   0  0  0  0  0  3  0  0  0  0  0  0
  -16.8070  -28.5600   23.0390 C   0  0  0  0  0  3  0  0  0  0  0  0
  -25.9310  -32.5480   23.8910 C   0  0  0  0  0  3  0  0  0  0  0  0
  -25.6100  -33.9480   24.2030 N   0  0  0  0  0  0  0  0  0  0  0  0
  -25.9460  -34.9960   23.4370 C   0  0  0  0  0  0  0  0  0  0  0  0
  -26.6320  -34.8860   22.4180 O   0  0  0  0  0  0  0  0  0  0  0  0
  -25.0080  -34.1050   24.9980 H   0  0  0  0  0  0  0  0  0  0  0  0
  -24.2150  -36.7740   23.0410 C   0  0  0  0  0  1  0  0  0  0  0  0
  -25.4460  -36.3850   23.8770 C   0  0  0  0  0  3  0  0  0  0  0  0
  -27.5660  -37.2810   24.7340 C   0  0  0  0  0  1  0  0  0  0  0  0
  -26.4740  -37.4420   23.7750 N   0  0  0  0  0  0  0  0  0  0  0  0
  -26.0610  -38.3610   23.9130 H   0  0  0  0  0  0  0  0  0  0  0  0
  -26.4320  -31.7910   25.1820 C   0  0  1  0  0  0  0  0  0  0  0  0
  -25.3250  -31.5640   26.2380 C   0  0  0  0  0  1  0  0  0  0  0  0
  -27.0210  -30.4090   24.8150 C   0  0  0  0  0  1  0  0  0  0  0  0
  -27.5700  -32.5950   25.8500 C   0  0  0  0  0  1  0  0  0  0  0  0
  1  3  1  0
  1  2  1  0
  2  6  1  0
  3  5  1  0
  3  4  1  0
  4  6  1  0
  4  8  1  0
  6 47  1  0
  6  7  1  1
  9 17  1  0
 10 15  1  0
 11 12  1  0
 11 10  1  0
 13 12  1  0
 13 22  1  0
 13 14  1  0
 15  9  1  0
 15 14  1  0
 16  9  2  0
 17 18  1  0
 17  8  1  0
 19 20  2  0
 20 39  1  0
 21 20  1  0
 21 24  1  0
 22 19  1  0
 22 23  1  0
 23 21  2  0
 24 25  1  0
 25 26  2  0
 27 30  1  0
 27 26  1  0
 28 27  2  0
 29 28  1  0
 29 24  2  0
 30 31  1  0
 31 32  1  0
 32 33  2  0
 34 33  1  0
 34 38  1  0
 35 34  2  0
 36 31  2  0
 36 35  1  0
 37 36  1  0
 39 40  1  0
 40 43  1  0
 40 42  1  0
 41 39  2  0
 44 45  1  0
 44 19  1  0
 46 44  1  0
 47 48  1  0
 49 50  1  0
 49 48  1  0
 51 50  1  0
 52 63  2  0
 53 51  1  0
 53 58  1  0
 54 62  1  0
 54 64  1  0
 55 61  1  0
 55 57  1  0
 56 62  1  0
 57 58  2  0
 57 56  1  0
 59 53  2  0
 60 59  1  0
 60 55  2  0
 61 54  1  0
 62 52  1  0
 64 66  2  0
 65 64  1  0
 67 65  1  0
 68 77  2  0
 68 73  1  0
 69 65  1  0
 69 73  1  0
 70 69  1  0
 71 72  1  0
 71 70  1  0
 72 68  1  0
 73 74  2  0
 74 75  1  0
 76 75  2  0
 77 76  1  0
 78 52  1  0
 78 79  1  0
 78 88  1  0
 79 82  1  0
 80 84  1  0
 80 79  1  0
 81 80  2  0
 84 83  1  0
 86 84  1  0
 86 87  1  0
 86 85  1  0
 88 91  1  1
 88 89  1  0
 90 88  1  0
M  ISO  4   9 100  17 100  50 101  51 101
M  END
>  <TORSDO>  (18) 
F 21

>  <SCORE>  (18) 
-13.577

>  <name>  (18) 
17

>  <ligand_id>  (18) 
17

>  <original_smiles>  (18) 
[H]c1c([H])c([H])c2c(c1[H])C([H])([H])C([H])([H])C([H])([H])C2([H])N([H])C(=O)C1([H])N(C(=O)C([H])(N([H])C(=O)C([H])(N([H])C([H])([H])[H])C([H])([H])[H])C(C([H])([H])[H])(C([H])([H])[H])C([H])([H])[H])C([H])([H])c2c([H])c(OC([H])([H])C([H])([H])C([H])([H])C([H])([H])[N+]3([H])C([H])([H])C([H])([H])C([H])(C([H])([H])[H])C3([H])C([H])([H])N([H])C(=O)N3C([H])([H])C([H])([H])C([H])([H])C([H])(n4nc(-c5c([H])c([H])c(Oc6c([H])c([H])c(F)c([H])c6F)c([H])c5[H])c(C(=O)N([H])[H])c4N([H])[H])C3([H])[H])c([H])c([H])c2C1([H])[H]

>  <smiles>  (18) 
[H]c1c([H])c([H])c2c(c1[H])C([H])([H])C([H])([H])C([H])([H])C2([H])N([H])C(=O)C1([H])N(C(=O)C([H])(N([H])C(=O)C([H])(N([H])C([H])([H])[H])C([H])([H])[H])C(C([H])([H])[H])(C([H])([H])[H])C([H])([H])[H])C([H])([H])c2c([H])c(OC([H])([H])C([H])([H])C([H])([H])C([H])([H])[N+]3([H])C([H])([H])C([H])([H])C([H])(C([H])([H])[H])C3([H])C([H])([H])N([H])C(=O)N3C([H])([H])C([H])([H])C([H])([H])C([H])(n4nc(-c5c([H])c([H])c(Oc6c([H])c([H])c(F)c([H])c6F)c([H])c5[H])c(C(=O)N([H])[H])c4N([H])[H])C3([H])[H])c([H])c([H])c2C1([H])[H]

$$$$
18:0:0
     RDKit          3D

 98106  0  0  1  0  0  0  0  0999 V2000
  -29.1840  -19.7810   18.0680 N   0  0  0  0  0  4  0  0  0  0  0  0
  -30.0000  -19.8670   17.4840 H   0  0  0  0  0  0  0  0  0  0  0  0
  -29.4500  -20.0110   19.0160 H   0  0  0  0  0  0  0  0  0  0  0  0
  -28.7770  -18.3590   18.1260 C   0  0  0  0  0  2  0  0  0  0  0  0
  -29.5760  -17.6100   19.2180 C   0  0  0  0  0  2  0  0  0  0  0  0
  -29.4440  -20.4660   21.6010 C   0  0  0  0  0  2  0  0  0  0  0  0
  -30.2220  -19.9520   22.8100 C   0  0  0  0  0  2  0  0  0  0  0  0
  -28.9000  -19.2870   20.7990 C   0  0  0  0  0  2  0  0  0  0  0  0
  -31.3090  -18.9560   22.3590 C   0  0  0  0  0  3  0  0  0  0  0  0
  -30.7180  -17.8600   21.4160 C   0  0  0  0  0  3  0  0  0  0  0  0
  -32.0250  -18.3930   23.6040 C   0  0  0  0  0  1  0  0  0  0  0  0
  -30.0420  -18.5270   20.2730 N   0  0  0  0  0  0  0  0  0  0  0  0
  -31.8170  -16.8740   20.9280 C   0  0  0  0  0  2  0  0  0  0  0  0
  -32.0360  -14.3930   20.8630 C   0  0  0  0  0  0  0  0  0  0  0  0
  -31.7910  -11.9720   20.4920 C   0  0  0  0  0  2  0  0  0  0  0  0
  -31.0180  -11.7270   19.1810 C   0  0  0  0  0  2  0  0  0  0  0  0
  -29.4980  -11.7620   19.4280 C   0  0  0  0  0  2  0  0  0  0  0  0
  -29.0470  -13.0100   20.2400 C   0  0  0  0  0  3  0  0  0  0  0  0
  -29.9280  -13.1700   21.4980 C   0  0  0  0  0  2  0  0  0  0  0  0
  -31.3340  -13.2500   21.0550 N   0  0  0  0  0  0  0  0  0  0  0  0
  -33.1850  -14.4290   20.4180 O   0  0  0  0  0  0  0  0  0  0  0  0
  -31.3540  -15.5070   21.1250 N   0  0  0  0  0  0  0  0  0  0  0  0
  -30.4320  -15.3830   21.5140 H   0  0  0  0  0  0  0  0  0  0  0  0
  -26.7010  -13.9610   20.7010 C   0  0  0  0  0  0  0  0  0  0  0  0
  -25.5000  -13.3520   20.9620 C   0  0  0  0  0  0  0  0  0  0  0  0
  -25.7670  -11.9500   20.9650 C   0  0  0  0  0  0  0  0  0  0  0  0
  -27.6270  -12.9380   20.5750 N   0  0  0  0  0  0  0  0  0  0  0  0
  -27.0620  -11.7210   20.7860 N   0  0  0  0  0  0  0  0  0  0  0  0
  -24.8550  -10.8030   21.0720 C   0  0  0  0  0  0  0  0  0  0  0  0
  -25.0490   -9.7950   22.0400 C   0  0  0  0  0  3  0  0  0  0  0  0
  -24.1500   -8.7110   22.1370 C   0  0  0  0  0  3  0  0  0  0  0  0
  -23.0410   -8.6290   21.2610 C   0  0  0  0  0  0  0  0  0  0  0  0
  -22.8660   -9.6230   20.2810 C   0  0  0  0  0  3  0  0  0  0  0  0
  -23.7670  -10.6980   20.1850 C   0  0  0  0  0  3  0  0  0  0  0  0
  -22.1360   -7.5970   21.2610 O   0  0  0  0  0  0  0  0  0  0  0  0
  -21.8610   -6.8810   22.3990 C   0  0  0  0  0  0  0  0  0  0  0  0
  -21.3650   -7.5000   23.5660 C   0  0  0  0  0  3  0  0  0  0  0  0
  -21.0280   -6.7200   24.6880 C   0  0  0  0  0  3  0  0  0  0  0  0
  -21.1790   -5.3210   24.6460 C   0  0  0  0  0  0  0  0  0  0  0  0
  -21.6680   -4.7010   23.4820 C   0  0  0  0  0  3  0  0  0  0  0  0
  -22.0050   -5.4780   22.3600 C   0  0  0  0  0  0  0  0  0  0  0  0
  -22.4520   -4.8750   21.2340 F   0  0  0  0  0  0  0  0  0  0  0  0
  -20.8520   -4.5680   25.7220 F   0  0  0  0  0  0  0  0  0  0  0  0
  -24.1660  -14.0250   21.0970 C   0  0  0  0  0  0  0  0  0  0  0  0
  -23.2840  -13.4650   21.9210 N   0  0  0  0  0  0  0  0  0  0  0  0
  -23.9100  -15.0750   20.5090 O   0  0  0  0  0  0  0  0  0  0  0  0
  -23.5050  -12.6140   22.4170 H   0  0  0  0  0  0  0  0  0  0  0  0
  -22.3850  -13.8980   22.0710 H   0  0  0  0  0  0  0  0  0  0  0  0
  -27.0720  -15.2880   20.5330 N   0  0  0  0  0  0  0  0  0  0  0  0
  -26.3740  -16.0210   20.4830 H   0  0  0  0  0  0  0  0  0  0  0  0
  -27.9670  -15.5630   20.1540 H   0  0  0  0  0  0  0  0  0  0  0  0
  -28.0990  -20.6800   17.6210 C   0  0  0  0  0  2  0  0  0  0  0  0
  -28.5340  -22.1550   17.4160 C   0  0  0  0  0  2  0  0  0  0  0  0
  -27.8190  -23.0090   18.3670 N   0  0  0  0  0  0  0  0  0  0  0  0
  -28.0090  -22.7150   19.3220 H   0  0  0  0  0  0  0  0  0  0  0  0
  -28.1220  -24.4320   18.2390 C   0  0  0  0  0  2  0  0  0  0  0  0
  -27.7450  -25.1160   19.5730 C   0  0  0  0  0  2  0  0  0  0  0  0
  -27.8930  -26.5370   19.5400 O   0  0  0  0  0  0  0  0  0  0  0  0
  -24.5000  -31.6340   23.1530 C   0  0  0  0  0  0  0  0  0  0  0  0
  -26.7480  -27.2960   19.6460 C   0  0  0  0  0  0  0  0  0  0  0  0
  -23.1450  -30.4250   21.4740 C   0  0  0  0  0  3  0  0  0  0  0  0
  -24.4430  -28.9140   19.8800 C   0  0  0  0  0  0  0  0  0  0  0  0
  -25.6760  -30.6580   21.1810 C   0  0  0  0  0  2  0  0  0  0  0  0
  -25.6520  -29.3340   20.4470 C   0  0  0  0  0  0  0  0  0  0  0  0
  -26.8080  -28.5310   20.3270 C   0  0  0  0  0  3  0  0  0  0  0  0
  -25.5210  -26.8900   19.0690 C   0  0  0  0  0  3  0  0  0  0  0  0
  -24.3710  -27.6910   19.1890 C   0  0  0  0  0  3  0  0  0  0  0  0
  -23.2530  -29.8360   20.0430 C   0  0  0  0  0  2  0  0  0  0  0  0
  -24.4630  -30.9150   21.9960 N   0  0  0  0  0  0  0  0  0  0  0  0
  -23.4610  -31.9260   23.7630 O   0  0  0  0  0  0  0  0  0  0  0  0
  -22.4720  -29.3780   22.3910 C   0  0  0  0  0  0  0  0  0  0  0  0
  -21.1350  -29.2700   22.2990 N   0  0  0  0  0  0  0  0  0  0  0  0
  -23.1500  -28.6640   23.1340 O   0  0  0  0  0  0  0  0  0  0  0  0
  -20.6510  -29.9010   21.6770 H   0  0  0  0  0  0  0  0  0  0  0  0
  -17.7290  -28.1800   22.7900 C   0  0  0  0  0  0  0  0  0  0  0  0
  -20.2960  -28.3210   23.0320 C   0  0  0  0  0  3  0  0  0  0  0  0
  -20.3380  -26.9190   22.3760 C   0  0  0  0  0  2  0  0  0  0  0  0
  -19.2030  -26.6880   21.3710 C   0  0  0  0  0  2  0  0  0  0  0  0
  -17.8390  -26.8590   22.0450 C   0  0  0  0  0  2  0  0  0  0  0  0
  -18.8820  -28.8720   23.2400 C   0  0  0  0  0  0  0  0  0  0  0  0
  -18.7250  -30.1150   23.8930 C   0  0  0  0  0  3  0  0  0  0  0  0
  -17.4440  -30.6600   24.1050 C   0  0  0  0  0  3  0  0  0  0  0  0
  -16.3060  -29.9590   23.6780 C   0  0  0  0  0  3  0  0  0  0  0  0
  -16.4460  -28.7210   23.0230 C   0  0  0  0  0  3  0  0  0  0  0  0
  -25.8460  -32.1470   23.7520 C   0  0  0  0  0  3  0  0  0  0  0  0
  -26.3630  -31.2670   24.9560 C   0  0  1  0  0  0  0  0  0  0  0  0
  -25.3030  -31.0300   26.0580 C   0  0  0  0  0  1  0  0  0  0  0  0
  -26.8390  -29.8850   24.4540 C   0  0  0  0  0  1  0  0  0  0  0  0
  -27.5900  -31.9440   25.6130 C   0  0  0  0  0  1  0  0  0  0  0  0
  -25.6440  -33.5380   24.1750 N   0  0  0  0  0  0  0  0  0  0  0  0
  -26.0220  -34.6110   23.4660 C   0  0  0  0  0  0  0  0  0  0  0  0
  -26.6530  -34.5270   22.4080 O   0  0  0  0  0  0  0  0  0  0  0  0
  -25.0850  -33.6840   25.0030 H   0  0  0  0  0  0  0  0  0  0  0  0
  -24.4050  -36.5260   23.2770 C   0  0  0  0  0  1  0  0  0  0  0  0
  -25.6440  -35.9980   24.0170 C   0  0  0  0  0  3  0  0  0  0  0  0
  -27.8550  -36.6980   24.8200 C   0  0  0  0  0  1  0  0  0  0  0  0
  -26.7390  -36.9890   23.9240 N   0  0  0  0  0  0  0  0  0  0  0  0
  -26.3990  -37.9240   24.1320 H   0  0  0  0  0  0  0  0  0  0  0  0
  1  4  1  0
  1  3  1  0
  2  1  1  0
  4  5  1  0
  5 12  1  0
  6  7  1  0
  8  6  1  0
  9  7  1  0
  9 11  1  0
 10 13  1  0
 10  9  1  0
 12  8  1  0
 12 10  1  0
 13 22  1  0
 14 20  1  0
 14 22  1  0
 15 20  1  0
 16 17  1  0
 16 15  1  0
 18 17  1  0
 18 27  1  0
 18 19  1  0
 20 19  1  0
 21 14  2  0
 22 23  1  0
 24 25  2  0
 25 26  1  0
 25 44  1  0
 26 29  1  0
 27 24  1  0
 27 28  1  0
 28 26  2  0
 29 30  1  0
 30 31  2  0
 32 31  1  0
 33 32  2  0
 34 33  1  0
 34 29  2  0
 35 32  1  0
 35 36  1  0
 36 37  1  0
 37 38  2  0
 39 38  1  0
 39 43  1  0
 40 39  2  0
 41 36  2  0
 41 40  1  0
 42 41  1  0
 44 45  1  0
 45 48  1  0
 45 47  1  0
 46 44  2  0
 49 24  1  0
 50 49  1  0
 51 49  1  0
 52  1  1  0
 53 52  1  0
 53 54  1  0
 54 55  1  0
 56 54  1  0
 56 57  1  0
 58 57  1  0
 58 60  1  0
 59 70  2  0
 60 65  1  0
 61 69  1  0
 61 71  1  0
 62 68  1  0
 62 64  1  0
 63 69  1  0
 64 63  1  0
 65 64  2  0
 66 67  1  0
 66 60  2  0
 67 62  2  0
 68 61  1  0
 69 59  1  0
 71 73  2  0
 72 71  1  0
 74 72  1  0
 75 84  2  0
 75 80  1  0
 76 72  1  0
 76 80  1  0
 77 76  1  0
 78 79  1  0
 78 77  1  0
 79 75  1  0
 80 81  2  0
 81 82  1  0
 83 82  2  0
 84 83  1  0
 85 59  1  0
 85 90  1  0
 85 86  1  0
 86 89  1  1
 86 87  1  0
 88 86  1  0
 90 93  1  0
 91 95  1  0
 91 90  1  0
 92 91  2  0
 95 94  1  0
 97 95  1  0
 97 98  1  0
 97 96  1  0
M  ISO  4  14 100  22 100  57 101  58 101
M  END
>  <TORSDO>  (19) 
F 25

>  <SCORE>  (19) 
-8.879

>  <name>  (19) 
18

>  <ligand_id>  (19) 
18

>  <original_smiles>  (19) 
[H]c1c([H])c([H])c2c(c1[H])C([H])([H])C([H])([H])C([H])([H])C2([H])N([H])C(=O)C1([H])N(C(=O)C([H])(N([H])C(=O)C([H])(N([H])C([H])([H])[H])C([H])([H])[H])C(C([H])([H])[H])(C([H])([H])[H])C([H])([H])[H])C([H])([H])c2c([H])c(OC([H])([H])C([H])([H])N([H])C([H])([H])C([H])([H])[N+]([H])([H])C([H])([H])C([H])([H])N3C([H])([H])C([H])([H])C([H])([H])C([H])(C([H])([H])[H])C3([H])C([H])([H])N([H])C(=O)N3C([H])([H])C([H])([H])C([H])([H])C([H])(n4nc(-c5c([H])c([H])c(Oc6c([H])c([H])c(F)c([H])c6F)c([H])c5[H])c(C(=O)N([H])[H])c4N([H])[H])C3([H])[H])c([H])c([H])c2C1([H])[H]

>  <smiles>  (19) 
[H]c1c([H])c([H])c2c(c1[H])C([H])([H])C([H])([H])C([H])([H])C2([H])N([H])C(=O)C1([H])N(C(=O)C([H])(N([H])C(=O)C([H])(N([H])C([H])([H])[H])C([H])([H])[H])C(C([H])([H])[H])(C([H])([H])[H])C([H])([H])[H])C([H])([H])c2c([H])c(OC([H])([H])C([H])([H])N([H])C([H])([H])C([H])([H])[N+]([H])([H])C([H])([H])C([H])([H])N3C([H])([H])C([H])([H])C([H])([H])C([H])(C([H])([H])[H])C3([H])C([H])([H])N([H])C(=O)N3C([H])([H])C([H])([H])C([H])([H])C([H])(n4nc(-c5c([H])c([H])c(Oc6c([H])c([H])c(F)c([H])c6F)c([H])c5[H])c(C(=O)N([H])[H])c4N([H])[H])C3([H])[H])c([H])c([H])c2C1([H])[H]

$$$$
19:0:0
     RDKit          3D

 95 98  0  0  1  0  0  0  0  0999 V2000
  -28.8860  -16.6840   19.6440 C   0  0  0  0  0  1  0  0  0  0  0  0
  -29.3560  -14.7910   19.1810 C   0  0  0  0  0  2  0  0  0  0  0  0
  -27.9240  -11.9650   19.0110 C   0  0  0  0  0  1  0  0  0  0  0  0
  -27.4920  -10.1660   20.1710 C   0  0  0  0  0  3  0  0  0  0  0  0
  -24.5590  -11.0550   20.4440 C   0  0  0  0  0 15  0  0  0  0  0  0
  -27.6780   -9.7610   21.6710 C   0  0  0  0  0  3  0  0  0  0  0  0
  -24.7940  -10.4060   22.4560 C   0  0  0  0  0 15  0  0  0  0  0  0
  -26.2990  -10.9870   19.4870 C   0  0  0  0  0  2  0  0  0  0  0  0
  -26.6820   -9.9950   22.8740 C   0  0  0  0  0  2  0  0  0  0  0  0
  -28.3040  -10.8330   23.4640 C   0  0  0  0  0  2  0  0  0  0  0  0
  -31.1590  -11.6820   21.9850 C   0  0  0  0  0  0  0  0  0  0  0  0
  -31.2370  -11.5190   19.1140 C   0  0  0  0  0  2  0  0  0  0  0  0
  -30.4220  -12.4570   17.7290 C   0  0  0  0  0  1  0  0  0  0  0  0
  -28.8980  -13.7110   18.1580 C   0  0  0  0  0  1  0  0  0  0  0  0
  -28.5360  -13.5630   20.1580 C   0  0  0  0  0  3  0  0  0  0  0  0
  -29.5630  -12.3480   21.0340 C   0  0  0  0  0  2  0  0  0  0  0  0
  -30.7480  -11.6330   20.6670 N   0  0  0  0  0  0  0  0  0  0  0  0
  -32.3480  -12.1530   22.0020 O   0  0  0  0  0  0  0  0  0  0  0  0
  -30.0940  -11.0780   23.0290 N   0  0  0  0  0  0  0  0  0  0  0  0
  -30.6090  -10.9610   23.8890 H   0  0  0  0  0  0  0  0  0  0  0  0
  -26.4860  -14.1960   20.9790 C   0  0  0  0  0  3  0  0  0  0  0  0
  -25.6960  -13.3270   21.5360 C   0  0  0  0  0  3  0  0  0  0  0  0
  -26.6570  -12.0690   21.3950 C   0  0  0  0  0  3  0  0  0  0  0  0
  -27.3970  -13.3360   20.7540 N   0  0  0  0  0  4  0  0  0  0  0  0
  -27.3890  -12.7710   21.9460 N   0  0  0  0  0  2  0  0  0  0  0  0
  -25.6260   -9.3400   20.8930 C   0  0  0  0  0  2  0  0  0  0  0  0
  -25.4140   -8.3110   21.9010 C   0  0  0  0  0  2  0  0  0  0  0  0
  -24.2060   -7.6450   22.2000 C   0  0  0  0  0  3  0  0  0  0  0  0
  -23.0200   -7.8610   21.4720 C   0  0  0  0  0  0  0  0  0  0  0  0
  -23.0900   -8.7400   20.4180 C   0  0  0  0  0  2  0  0  0  0  0  0
  -24.4080   -9.0550   20.0160 C   0  0  0  0  0  2  0  0  0  0  0  0
  -21.8930   -7.0910   21.5670 O   0  0  0  0  0  0  0  0  0  0  0  0
  -21.7930   -6.2040   22.6000 C   0  0  0  0  0  0  0  0  0  0  0  0
  -21.5110   -6.6990   23.8870 C   0  0  0  0  0  3  0  0  0  0  0  0
  -21.3710   -5.8100   24.9630 C   0  0  0  0  0  3  0  0  0  0  0  0
  -21.4950   -4.4260   24.7480 C   0  0  0  0  0  0  0  0  0  0  0  0
  -21.7840   -3.9280   23.4640 C   0  0  0  0  0  3  0  0  0  0  0  0
  -21.9390   -4.8170   22.3850 C   0  0  0  0  0  0  0  0  0  0  0  0
  -22.2140   -4.3320   21.1490 F   0  0  0  0  0  0  0  0  0  0  0  0
  -21.3310   -3.5730   25.7840 F   0  0  0  0  0  0  0  0  0  0  0  0
  -24.1790  -13.6810   21.5750 C   0  0  0  0  0  0  0  0  0  0  0  0
  -23.2910  -13.1090   22.3870 N   0  0  0  0  0  0  0  0  0  0  0  0
  -23.7590  -14.6030   20.8850 O   0  0  0  0  0  0  0  0  0  0  0  0
  -23.5890  -12.4030   23.0390 H   0  0  0  0  0  0  0  0  0  0  0  0
  -22.3270  -13.4100   22.3830 H   0  0  0  0  0  0  0  0  0  0  0  0
  -26.5680  -15.5060   20.6310 N   0  0  0  0  0  0  0  0  0  0  0  0
  -25.7850  -16.1380   20.7470 H   0  0  0  0  0  0  0  0  0  0  0  0
  -27.3230  -15.8970   20.0820 H   0  0  0  0  0  0  0  0  0  0  0  0
  -28.6400  -18.5040   19.0050 C   0  0  0  0  0  2  0  0  0  0  0  0
  -28.2260  -20.0830   19.7000 N   0  0  0  0  0  4  0  0  0  0  0  0
  -28.7170  -20.0770   20.5800 H   0  0  0  0  0  0  0  0  0  0  0  0
  -27.2590  -19.9670   19.9560 H   0  0  0  0  0  0  0  0  0  0  0  0
  -28.3210  -21.7860   19.2110 C   0  0  0  0  0  2  0  0  0  0  0  0
  -27.6700  -23.5140   19.8270 C   0  0  0  0  0  2  0  0  0  0  0  0
  -27.9580  -25.2620   19.7630 O   0  0  0  0  0  0  0  0  0  0  0  0
  -24.6560  -31.6230   22.9690 C   0  0  0  0  0  0  0  0  0  0  0  0
  -27.0430  -26.5100   19.8580 C   0  0  0  0  0  0  0  0  0  0  0  0
  -23.4410  -30.2430   21.3480 C   0  0  0  0  0  3  0  0  0  0  0  0
  -24.8390  -28.5890   19.9090 C   0  0  0  0  0  0  0  0  0  0  0  0
  -26.0260  -30.3430   21.2000 C   0  0  0  0  0  2  0  0  0  0  0  0
  -26.0550  -28.9140   20.5210 C   0  0  0  0  0  0  0  0  0  0  0  0
  -27.1540  -27.9000   20.4620 C   0  0  0  0  0  3  0  0  0  0  0  0
  -25.7920  -26.4010   19.2220 C   0  0  0  0  0  3  0  0  0  0  0  0
  -24.7450  -27.3600   19.2440 C   0  0  0  0  0  3  0  0  0  0  0  0
  -23.6550  -29.5610   19.9710 C   0  0  0  0  0  2  0  0  0  0  0  0
  -24.7350  -30.7700   21.8900 N   0  0  0  0  0  0  0  0  0  0  0  0
  -23.5690  -31.9320   23.4850 O   0  0  0  0  0  0  0  0  0  0  0  0
  -22.7290  -29.2630   22.3190 C   0  0  0  0  0  0  0  0  0  0  0  0
  -21.3910  -29.1420   22.2260 N   0  0  0  0  0  0  0  0  0  0  0  0
  -23.3910  -28.6100   23.1290 O   0  0  0  0  0  0  0  0  0  0  0  0
  -20.9080  -29.7190   21.5510 H   0  0  0  0  0  0  0  0  0  0  0  0
  -17.9830  -28.0330   22.8320 C   0  0  0  0  0  0  0  0  0  0  0  0
  -20.5600  -28.2170   23.0070 C   0  0  0  0  0  3  0  0  0  0  0  0
  -20.5940  -26.7940   22.4010 C   0  0  0  0  0  2  0  0  0  0  0  0
  -19.4470  -26.5280   21.4200 C   0  0  0  0  0  2  0  0  0  0  0  0
  -18.0940  -26.6970   22.1160 C   0  0  0  0  0  2  0  0  0  0  0  0
  -19.1390  -28.7540   23.2350 C   0  0  0  0  0  0  0  0  0  0  0  0
  -18.9770  -30.0030   23.8730 C   0  0  0  0  0  3  0  0  0  0  0  0
  -17.6920  -30.5320   24.1050 C   0  0  0  0  0  3  0  0  0  0  0  0
  -16.5530  -29.8100   23.7130 C   0  0  0  0  0  3  0  0  0  0  0  0
  -16.6990  -28.5610   23.0840 C   0  0  0  0  0  3  0  0  0  0  0  0
  -25.9270  -32.2670   23.6010 C   0  0  0  0  0  3  0  0  0  0  0  0
  -25.5930  -33.6490   23.9980 N   0  0  0  0  0  0  0  0  0  0  0  0
  -25.9200  -34.7530   23.3120 C   0  0  0  0  0  0  0  0  0  0  0  0
  -26.5940  -34.7140   22.2800 O   0  0  0  0  0  0  0  0  0  0  0  0
  -24.9920  -33.7490   24.8040 H   0  0  0  0  0  0  0  0  0  0  0  0
  -24.1920  -36.5710   23.0650 C   0  0  0  0  0  1  0  0  0  0  0  0
  -25.4290  -36.1120   23.8540 C   0  0  0  0  0  3  0  0  0  0  0  0
  -27.5560  -36.9560   24.7520 C   0  0  0  0  0  1  0  0  0  0  0  0
  -26.4600  -37.1740   23.8110 N   0  0  0  0  0  0  0  0  0  0  0  0
  -26.0510  -38.0840   24.0060 H   0  0  0  0  0  0  0  0  0  0  0  0
  -26.4630  -31.4680   24.8530 C   0  0  1  0  0  0  0  0  0  0  0  0
  -25.3870  -31.1970   25.9310 C   0  0  0  0  0  1  0  0  0  0  0  0
  -27.0510  -30.1030   24.4320 C   0  0  0  0  0  1  0  0  0  0  0  0
  -27.6190  -32.2530   25.5180 C   0  0  0  0  0  1  0  0  0  0  0  0
  3  8  1  0
  4  6  2  0
  6  9  1  0
  8  4  1  0
  9 10  1  0
 11 18  2  0
 11 19  1  0
 12 17  1  0
 13 12  1  0
 14  2  1  0
 15  2  1  0
 15 16  1  0
 17 16  1  0
 17 11  1  0
 19 10  1  0
 19 20  1  0
 21 46  1  0
 21 22  1  0
 22 41  1  0
 23 22  1  0
 23 25  1  0
 24 15  1  0
 24 21  1  0
 24 23  1  0
 24 25  1  0
 26 27  1  0
 27 28  1  0
 29 32  1  0
 29 28  2  0
 30 29  1  0
 31 30  1  0
 31 26  1  0
 32 33  1  0
 33 34  1  0
 34 35  2  0
 36 35  1  0
 36 40  1  0
 37 36  2  0
 38 33  2  0
 38 37  1  0
 39 38  1  0
 41 42  1  0
 42 44  1  0
 43 41  2  0
 45 42  1  0
 46 47  1  0
 48 46  1  0
 49  1  1  0
 49 50  1  0
 50 52  1  0
 50 51  1  0
 53 50  1  0
 53 54  1  0
 55 54  1  0
 55 57  1  0
 56 67  2  0
 57 62  1  0
 58 66  1  0
 58 68  1  0
 59 65  1  0
 59 61  1  0
 60 66  1  0
 61 60  1  0
 62 61  2  0
 63 64  1  0
 63 57  2  0
 64 59  2  0
 65 58  1  0
 66 56  1  0
 68 70  2  0
 69 68  1  0
 71 69  1  0
 72 81  2  0
 72 77  1  0
 73 69  1  0
 73 77  1  0
 74 73  1  0
 75 76  1  0
 75 74  1  0
 76 72  1  0
 77 78  2  0
 78 79  1  0
 80 79  2  0
 81 80  1  0
 82 56  1  0
 82 83  1  0
 82 92  1  0
 83 86  1  0
 84 88  1  0
 84 83  1  0
 85 84  2  0
 88 87  1  0
 90 88  1  0
 90 91  1  0
 90 89  1  0
 92 95  1  1
 92 93  1  0
 94 92  1  0
M  ISO  4  11 100  19 100  54 101  55 101
M  END
>  <TORSDO>  (20) 
F 24

>  <SCORE>  (20) 
-11.805

>  <name>  (20) 
19

>  <ligand_id>  (20) 
19

>  <original_smiles>  (20) 
[H]c1c([H])c([H])c2c(c1[H])C([H])([H])C([H])([H])C([H])([H])C2([H])N([H])C(=O)C1([H])N(C(=O)C([H])(N([H])C(=O)C([H])(N([H])C([H])([H])[H])C([H])([H])[H])C(C([H])([H])[H])(C([H])([H])[H])C([H])([H])[H])C([H])([H])c2c([H])c(OC([H])([H])C([H])([H])[N+]([H])([H])C([H])([H])C([H])([H])C([H])([H])C([H])([H])c3c([H])c([H])c(C([H])([H])N([H])C(=O)N4C([H])([H])C([H])([H])C([H])([H])C([H])(n5nc(-c6c([H])c([H])c(Oc7c([H])c([H])c(F)c([H])c7F)c([H])c6[H])c(C(=O)N([H])[H])c5N([H])[H])C4([H])[H])c([H])c3[H])c([H])c([H])c2C1([H])[H]

>  <smiles>  (20) 
[H]c1c([H])c([H])c2c(c1[H])C([H])([H])C([H])([H])C([H])([H])C2([H])N([H])C(=O)C1([H])N(C(=O)C([H])(N([H])C(=O)C([H])(N([H])C([H])([H])[H])C([H])([H])[H])C(C([H])([H])[H])(C([H])([H])[H])C([H])([H])[H])C([H])([H])c2c([H])c(OC([H])([H])C([H])([H])[N+]([H])([H])C([H])([H])C([H])([H])C([H])([H])C([H])([H])c3c([H])c([H])c(C([H])([H])N([H])C(=O)N4C([H])([H])C([H])([H])C([H])([H])C([H])(n5nc(-c6c([H])c([H])c(Oc7c([H])c([H])c(F)c([H])c7F)c([H])c6[H])c(C(=O)N([H])[H])c5N([H])[H])C4([H])[H])c([H])c3[H])c([H])c([H])c2C1([H])[H]

$$$$
20:0:0
     RDKit          3D

 94102  0  0  1  0  0  0  0  0999 V2000
  -30.7570  -19.5780   22.9340 C   0  0  0  0  0  2  0  0  0  0  0  0
  -29.3110  -20.2600   21.2880 C   0  0  0  0  0  2  0  0  0  0  0  0
  -30.9460  -21.0960   22.8790 C   0  0  0  0  0  3  0  0  0  0  0  0
  -29.7970  -21.5620   21.9640 C   0  0  0  0  0  3  0  0  0  0  0  0
  -30.3360  -19.2560   21.5740 N   0  0  0  0  0  0  0  0  0  0  0  0
  -30.2380  -22.6100   21.0090 N   0  0  0  0  0  4  0  0  0  0  0  0
  -30.8520  -22.2000   20.3230 H   0  0  0  0  0  0  0  0  0  0  0  0
  -30.7740  -23.2810   21.5330 H   0  0  0  0  0  0  0  0  0  0  0  0
  -29.1370  -23.3350   20.3300 C   0  0  0  0  0  2  0  0  0  0  0  0
  -29.4680  -24.8140   20.0240 C   0  0  0  0  0  2  0  0  0  0  0  0
  -28.2560  -25.5440   19.4200 C   0  0  0  0  0  2  0  0  0  0  0  0
  -28.3730  -26.9690   19.5070 O   0  0  0  0  0  0  0  0  0  0  0  0
  -24.4890  -31.7460   23.0450 C   0  0  0  0  0  0  0  0  0  0  0  0
  -27.1810  -27.6640   19.5510 C   0  0  0  0  0  0  0  0  0  0  0  0
  -23.2820  -30.4430   21.3250 C   0  0  0  0  0  3  0  0  0  0  0  0
  -24.7400  -29.0800   19.7410 C   0  0  0  0  0  0  0  0  0  0  0  0
  -25.7880  -30.9030   21.0930 C   0  0  0  0  0  2  0  0  0  0  0  0
  -25.8980  -29.5940   20.3410 C   0  0  0  0  0  0  0  0  0  0  0  0
  -27.1200  -28.8950   20.2410 C   0  0  0  0  0  3  0  0  0  0  0  0
  -26.0060  -27.1690   18.9380 C   0  0  0  0  0  3  0  0  0  0  0  0
  -24.7890  -27.8670   19.0360 C   0  0  0  0  0  3  0  0  0  0  0  0
  -23.4710  -29.8880   19.8900 C   0  0  0  0  0  2  0  0  0  0  0  0
  -24.5400  -31.0400   21.8800 N   0  0  0  0  0  0  0  0  0  0  0  0
  -23.4150  -31.9390   23.6320 O   0  0  0  0  0  0  0  0  0  0  0  0
  -22.6880  -29.3260   22.2140 C   0  0  0  0  0  0  0  0  0  0  0  0
  -21.3630  -29.1290   22.1210 N   0  0  0  0  0  0  0  0  0  0  0  0
  -23.4150  -28.6450   22.9430 O   0  0  0  0  0  0  0  0  0  0  0  0
  -20.8380  -29.7330   21.5060 H   0  0  0  0  0  0  0  0  0  0  0  0
  -18.0290  -27.8420   22.6470 C   0  0  0  0  0  0  0  0  0  0  0  0
  -20.5930  -28.1110   22.8340 C   0  0  0  0  0  3  0  0  0  0  0  0
  -20.6870  -26.7420   22.1210 C   0  0  0  0  0  2  0  0  0  0  0  0
  -19.5450  -26.4990   21.1290 C   0  0  0  0  0  2  0  0  0  0  0  0
  -18.1910  -26.5630   21.8420 C   0  0  0  0  0  2  0  0  0  0  0  0
  -19.1570  -28.5760   23.0990 C   0  0  0  0  0  0  0  0  0  0  0  0
  -18.9510  -29.7760   23.8150 C   0  0  0  0  0  3  0  0  0  0  0  0
  -17.6510  -30.2430   24.0800 C   0  0  0  0  0  3  0  0  0  0  0  0
  -16.5370  -29.5020   23.6460 C   0  0  0  0  0  3  0  0  0  0  0  0
  -16.7270  -28.3040   22.9350 C   0  0  0  0  0  3  0  0  0  0  0  0
  -25.7730  -32.3660   23.6810 C   0  0  0  0  0  3  0  0  0  0  0  0
  -25.4550  -33.7490   24.0600 N   0  0  0  0  0  0  0  0  0  0  0  0
  -25.7840  -34.8280   23.3380 C   0  0  0  0  0  0  0  0  0  0  0  0
  -26.4570  -34.7650   22.3060 O   0  0  0  0  0  0  0  0  0  0  0  0
  -24.8570  -33.8710   24.8640 H   0  0  0  0  0  0  0  0  0  0  0  0
  -24.0440  -36.6190   23.0390 C   0  0  0  0  0  1  0  0  0  0  0  0
  -25.2840  -36.1970   23.8420 C   0  0  0  0  0  3  0  0  0  0  0  0
  -27.4050  -37.0680   24.7160 C   0  0  0  0  0  1  0  0  0  0  0  0
  -26.3100  -37.2600   23.7700 N   0  0  0  0  0  0  0  0  0  0  0  0
  -25.8970  -38.1730   23.9430 H   0  0  0  0  0  0  0  0  0  0  0  0
  -26.3040  -31.5530   24.9260 C   0  0  1  0  0  0  0  0  0  0  0  0
  -25.2210  -31.2750   25.9940 C   0  0  0  0  0  1  0  0  0  0  0  0
  -26.8870  -30.1920   24.4780 C   0  0  0  0  0  1  0  0  0  0  0  0
  -27.4570  -32.3280   25.6050 C   0  0  0  0  0  1  0  0  0  0  0  0
  -32.2920  -21.6220   25.0080 C   0  0  0  0  0  1  0  0  0  0  0  0
  -30.9510  -21.7610   24.2700 C   0  0  0  0  0  2  0  0  0  0  0  0
  -29.8070  -17.8940   21.4550 C   0  0  0  0  0  2  0  0  0  0  0  0
  -30.9300  -16.8380   21.5020 C   0  0  0  0  0  2  0  0  0  0  0  0
  -30.9480  -14.6130   20.3700 C   0  0  0  0  0  0  0  0  0  0  0  0
  -30.6340  -12.4580   19.2140 C   0  0  0  0  0  2  0  0  0  0  0  0
  -29.6710  -12.6200   18.0220 C   0  0  0  0  0  2  0  0  0  0  0  0
  -28.2070  -12.4640   18.4780 C   0  0  0  0  0  2  0  0  0  0  0  0
  -27.8740  -13.3300   19.7230 C   0  0  0  0  0  3  0  0  0  0  0  0
  -28.9440  -13.1430   20.8210 C   0  0  0  0  0  2  0  0  0  0  0  0
  -30.2640  -13.4460   20.2370 N   0  0  0  0  0  0  0  0  0  0  0  0
  -31.9840  -14.8640   19.7480 O   0  0  0  0  0  0  0  0  0  0  0  0
  -30.4090  -15.5010   21.2170 N   0  0  0  0  0  0  0  0  0  0  0  0
  -29.5670  -15.2150   21.6950 H   0  0  0  0  0  0  0  0  0  0  0  0
  -25.4900  -13.9240   20.4930 C   0  0  0  0  0  0  0  0  0  0  0  0
  -24.4300  -13.1430   20.8710 C   0  0  0  0  0  0  0  0  0  0  0  0
  -24.8910  -11.7930   20.8030 C   0  0  0  0  0  0  0  0  0  0  0  0
  -26.5310  -13.0480   20.2230 N   0  0  0  0  0  0  0  0  0  0  0  0
  -26.1730  -11.7610   20.4640 N   0  0  0  0  0  0  0  0  0  0  0  0
  -24.1690  -10.5270   20.9860 C   0  0  0  0  0  0  0  0  0  0  0  0
  -24.6090   -9.5550   21.9110 C   0  0  0  0  0  3  0  0  0  0  0  0
  -23.8880   -8.3520   22.0810 C   0  0  0  0  0  3  0  0  0  0  0  0
  -22.7150   -8.1150   21.3260 C   0  0  0  0  0  0  0  0  0  0  0  0
  -22.2960   -9.0760   20.3900 C   0  0  0  0  0  3  0  0  0  0  0  0
  -23.0170  -10.2700   20.2180 C   0  0  0  0  0  3  0  0  0  0  0  0
  -21.9650   -6.9660   21.4060 O   0  0  0  0  0  0  0  0  0  0  0  0
  -21.8810   -6.2420   22.5680 C   0  0  0  0  0  0  0  0  0  0  0  0
  -21.3860   -6.8060   23.7640 C   0  0  0  0  0  3  0  0  0  0  0  0
  -21.2520   -6.0070   24.9160 C   0  0  0  0  0  3  0  0  0  0  0  0
  -21.6010   -4.6430   24.8730 C   0  0  0  0  0  0  0  0  0  0  0  0
  -22.0890   -4.0780   23.6820 C   0  0  0  0  0  3  0  0  0  0  0  0
  -22.2250   -4.8750   22.5320 C   0  0  0  0  0  0  0  0  0  0  0  0
  -22.6760   -4.3220   21.3800 F   0  0  0  0  0  0  0  0  0  0  0  0
  -21.4640   -3.8720   25.9780 F   0  0  0  0  0  0  0  0  0  0  0  0
  -23.0390  -13.6150   21.1870 C   0  0  0  0  0  0  0  0  0  0  0  0
  -22.3360  -12.9050   22.0640 N   0  0  0  0  0  0  0  0  0  0  0  0
  -22.5860  -14.6460   20.6940 O   0  0  0  0  0  0  0  0  0  0  0  0
  -22.7170  -12.0710   22.4850 H   0  0  0  0  0  0  0  0  0  0  0  0
  -21.4050  -13.2010   22.3180 H   0  0  0  0  0  0  0  0  0  0  0  0
  -25.6490  -15.2980   20.3380 N   0  0  0  0  0  0  0  0  0  0  0  0
  -24.8830  -15.9490   20.4740 H   0  0  0  0  0  0  0  0  0  0  0  0
  -26.4930  -15.7440   19.9990 H   0  0  0  0  0  0  0  0  0  0  0  0
  2  5  1  0
  2  4  1  0
  3  1  1  0
  3 54  1  0
  4  6  1  0
  4  3  1  0
  5  1  1  0
  6  8  1  0
  7  6  1  0
  9  6  1  0
 10  9  1  0
 11 12  1  0
 11 10  1  0
 12 14  1  0
 13 24  2  0
 14 19  1  0
 15 23  1  0
 15 25  1  0
 16 22  1  0
 16 18  1  0
 17 23  1  0
 18 17  1  0
 19 18  2  0
 20 21  1  0
 20 14  2  0
 21 16  2  0
 22 15  1  0
 23 13  1  0
 25 27  2  0
 26 25  1  0
 28 26  1  0
 29 38  2  0
 29 34  1  0
 30 26  1  0
 30 34  1  0
 31 30  1  0
 32 33  1  0
 32 31  1  0
 33 29  1  0
 34 35  2  0
 35 36  1  0
 37 36  2  0
 38 37  1  0
 39 13  1  0
 39 40  1  0
 39 49  1  0
 40 43  1  0
 41 45  1  0
 41 40  1  0
 42 41  2  0
 45 44  1  0
 47 45  1  0
 47 48  1  0
 47 46  1  0
 49 52  1  1
 49 50  1  0
 51 49  1  0
 54 53  1  0
 55 56  1  0
 55  5  1  0
 57 65  1  0
 58 63  1  0
 59 60  1  0
 59 58  1  0
 61 60  1  0
 61 70  1  0
 61 62  1  0
 63 57  1  0
 63 62  1  0
 64 57  2  0
 65 56  1  0
 65 66  1  0
 67 68  2  0
 68 87  1  0
 69 68  1  0
 69 72  1  0
 70 71  1  0
 70 67  1  0
 71 69  2  0
 72 73  1  0
 73 74  2  0
 75 78  1  0
 75 74  1  0
 76 75  2  0
 77 76  1  0
 77 72  2  0
 78 79  1  0
 79 80  1  0
 80 81  2  0
 82 81  1  0
 82 86  1  0
 83 82  2  0
 84 79  2  0
 84 83  1  0
 85 84  1  0
 87 88  1  0
 88 91  1  0
 88 90  1  0
 89 87  2  0
 92 93  1  0
 92 67  1  0
 94 92  1  0
M  ISO  4  11 101  12 101  57 100  65 100
M  END
>  <TORSDO>  (21) 
F 23

>  <SCORE>  (21) 
-11.675

>  <name>  (21) 
20

>  <ligand_id>  (21) 
20

>  <original_smiles>  (21) 
[H]c1c([H])c([H])c2c(c1[H])C([H])([H])C([H])([H])C([H])([H])C2([H])N([H])C(=O)C1([H])N(C(=O)C([H])(N([H])C(=O)C([H])(N([H])C([H])([H])[H])C([H])([H])[H])C(C([H])([H])[H])(C([H])([H])[H])C([H])([H])[H])C([H])([H])c2c([H])c(OC([H])([H])C([H])([H])C([H])([H])[N+]([H])([H])C3([H])C([H])([H])N(C([H])([H])C([H])([H])N([H])C(=O)N4C([H])([H])C([H])([H])C([H])([H])C([H])(n5nc(-c6c([H])c([H])c(Oc7c([H])c([H])c(F)c([H])c7F)c([H])c6[H])c(C(=O)N([H])[H])c5N([H])[H])C4([H])[H])C([H])([H])C3([H])C([H])([H])C([H])([H])[H])c([H])c([H])c2C1([H])[H]

>  <smiles>  (21) 
[H]c1c([H])c([H])c2c(c1[H])C([H])([H])C([H])([H])C([H])([H])C2([H])N([H])C(=O)C1([H])N(C(=O)C([H])(N([H])C(=O)C([H])(N([H])C([H])([H])[H])C([H])([H])[H])C(C([H])([H])[H])(C([H])([H])[H])C([H])([H])[H])C([H])([H])c2c([H])c(OC([H])([H])C([H])([H])C([H])([H])[N+]([H])([H])C3([H])C([H])([H])N(C([H])([H])C([H])([H])N([H])C(=O)N4C([H])([H])C([H])([H])C([H])([H])C([H])(n5nc(-c6c([H])c([H])c(Oc7c([H])c([H])c(F)c([H])c7F)c([H])c6[H])c(C(=O)N([H])[H])c5N([H])[H])C4([H])[H])C([H])([H])C3([H])C([H])([H])C([H])([H])[H])c([H])c([H])c2C1([H])[H]

$$$$
21:0:0
     RDKit          3D

 97105  0  0  1  0  0  0  0  0999 V2000
  -29.3760  -20.3800   21.7100 C   0  0  0  0  0  2  0  0  0  0  0  0
  -30.6440  -18.1910   21.3850 C   0  0  0  0  0  2  0  0  0  0  0  0
  -29.6070  -19.4190   19.3740 C   0  0  0  0  0  2  0  0  0  0  0  0
  -31.2190  -17.5430   18.9510 C   0  0  0  0  0  2  0  0  0  0  0  0
  -29.4670  -19.0710   20.8750 C   0  0  0  0  0  3  0  0  0  0  0  0
  -31.1910  -17.0970   20.4310 C   0  0  0  0  0  3  0  0  0  0  0  0
  -29.8990  -18.1880   18.5000 C   0  0  0  0  0  3  0  0  0  0  0  0
  -31.2390  -14.6370   20.1580 C   0  0  0  0  0  0  0  0  0  0  0  0
  -30.8050  -12.4900   19.0490 C   0  0  0  0  0  2  0  0  0  0  0  0
  -29.8460  -12.7200   17.8650 C   0  0  0  0  0  2  0  0  0  0  0  0
  -28.3800  -12.6310   18.3350 C   0  0  0  0  0  2  0  0  0  0  0  0
  -28.1010  -13.4820   19.6050 C   0  0  0  0  0  3  0  0  0  0  0  0
  -29.1830  -13.2620   20.6860 C   0  0  0  0  0  2  0  0  0  0  0  0
  -30.4950  -13.5030   20.0710 N   0  0  0  0  0  0  0  0  0  0  0  0
  -32.3680  -14.7230   19.6730 O   0  0  0  0  0  0  0  0  0  0  0  0
  -30.6120  -15.7470   20.6030 N   0  0  0  0  0  0  0  0  0  0  0  0
  -29.6700  -15.6570   20.9520 H   0  0  0  0  0  0  0  0  0  0  0  0
  -25.7510  -14.1390   20.4250 C   0  0  0  0  0  0  0  0  0  0  0  0
  -24.6710  -13.3880   20.8040 C   0  0  0  0  0  0  0  0  0  0  0  0
  -25.0850  -12.0240   20.7070 C   0  0  0  0  0  0  0  0  0  0  0  0
  -26.7580  -13.2340   20.1250 N   0  0  0  0  0  0  0  0  0  0  0  0
  -26.3610  -11.9550   20.3510 N   0  0  0  0  0  0  0  0  0  0  0  0
  -24.3240  -10.7790   20.8760 C   0  0  0  0  0  0  0  0  0  0  0  0
  -24.7200   -9.7900   21.8030 C   0  0  0  0  0  3  0  0  0  0  0  0
  -23.9600   -8.6120   21.9610 C   0  0  0  0  0  3  0  0  0  0  0  0
  -22.7890   -8.4130   21.1920 C   0  0  0  0  0  0  0  0  0  0  0  0
  -22.4120   -9.3910   20.2540 C   0  0  0  0  0  3  0  0  0  0  0  0
  -23.1730  -10.5610   20.0940 C   0  0  0  0  0  3  0  0  0  0  0  0
  -22.0030   -7.2890   21.2610 O   0  0  0  0  0  0  0  0  0  0  0  0
  -21.8710   -6.5730   22.4230 C   0  0  0  0  0  0  0  0  0  0  0  0
  -21.3620   -7.1560   23.6050 C   0  0  0  0  0  3  0  0  0  0  0  0
  -21.1780   -6.3660   24.7570 C   0  0  0  0  0  3  0  0  0  0  0  0
  -21.4910   -4.9930   24.7290 C   0  0  0  0  0  0  0  0  0  0  0  0
  -21.9910   -4.4100   23.5510 C   0  0  0  0  0  3  0  0  0  0  0  0
  -22.1770   -5.1970   22.4010 C   0  0  0  0  0  0  0  0  0  0  0  0
  -22.6390   -4.6250   21.2630 F   0  0  0  0  0  0  0  0  0  0  0  0
  -21.3060   -4.2320   25.8320 F   0  0  0  0  0  0  0  0  0  0  0  0
  -23.3010  -13.9000   21.1440 C   0  0  0  0  0  0  0  0  0  0  0  0
  -22.5840  -13.2000   22.0160 N   0  0  0  0  0  0  0  0  0  0  0  0
  -22.8790  -14.9560   20.6740 O   0  0  0  0  0  0  0  0  0  0  0  0
  -22.9390  -12.3450   22.4180 H   0  0  0  0  0  0  0  0  0  0  0  0
  -21.6650  -13.5230   22.2840 H   0  0  0  0  0  0  0  0  0  0  0  0
  -25.9550  -15.5090   20.2910 N   0  0  0  0  0  0  0  0  0  0  0  0
  -25.2130  -16.1800   20.4570 H   0  0  0  0  0  0  0  0  0  0  0  0
  -26.8050  -15.9330   19.9480 H   0  0  0  0  0  0  0  0  0  0  0  0
  -29.9410  -18.5530   17.0730 N   0  0  0  0  0  4  0  0  0  0  0  0
  -30.6730  -19.2170   16.8920 H   0  0  0  0  0  0  0  0  0  0  0  0
  -29.0640  -18.9600   16.7910 H   0  0  0  0  0  0  0  0  0  0  0  0
  -30.0970  -17.7420   16.4990 H   0  0  0  0  0  0  0  0  0  0  0  0
  -28.1010  -21.2360   21.4820 C   0  0  0  0  0  2  0  0  0  0  0  0
  -28.2700  -22.6770   21.8030 N   0  0  0  0  0  4  0  0  0  0  0  0
  -28.8650  -22.7710   22.6130 H   0  0  0  0  0  0  0  0  0  0  0  0
  -27.3620  -23.0270   22.0610 H   0  0  0  0  0  0  0  0  0  0  0  0
  -28.7820  -23.5180   20.6890 C   0  0  0  0  0  2  0  0  0  0  0  0
  -28.4460  -25.0230   20.8320 C   0  0  0  0  0  2  0  0  0  0  0  0
  -29.0170  -25.8590   19.6590 C   0  0  0  0  0  2  0  0  0  0  0  0
  -28.8770  -27.2750   19.8240 O   0  0  0  0  0  0  0  0  0  0  0  0
  -24.4680  -31.6900   23.1840 C   0  0  0  0  0  0  0  0  0  0  0  0
  -27.6240  -27.8510   19.8060 C   0  0  0  0  0  0  0  0  0  0  0  0
  -23.4590  -30.3550   21.3610 C   0  0  0  0  0  3  0  0  0  0  0  0
  -25.0960  -29.1200   19.8510 C   0  0  0  0  0  0  0  0  0  0  0  0
  -25.9400  -30.9730   21.3050 C   0  0  0  0  0  2  0  0  0  0  0  0
  -26.1780  -29.6910   20.5320 C   0  0  0  0  0  0  0  0  0  0  0  0
  -27.4430  -29.0660   20.5010 C   0  0  0  0  0  3  0  0  0  0  0  0
  -26.5230  -27.2880   19.1220 C   0  0  0  0  0  3  0  0  0  0  0  0
  -25.2650  -27.9170   19.1450 C   0  0  0  0  0  3  0  0  0  0  0  0
  -23.7750  -29.8440   19.9310 C   0  0  0  0  0  2  0  0  0  0  0  0
  -24.6370  -31.0190   22.0090 N   0  0  0  0  0  0  0  0  0  0  0  0
  -23.3480  -31.8000   23.7010 O   0  0  0  0  0  0  0  0  0  0  0  0
  -22.8800  -29.1840   22.1890 C   0  0  0  0  0  0  0  0  0  0  0  0
  -21.5820  -28.9020   21.9980 N   0  0  0  0  0  0  0  0  0  0  0  0
  -23.5990  -28.5360   22.9540 O   0  0  0  0  0  0  0  0  0  0  0  0
  -21.0580  -29.4880   21.3630 H   0  0  0  0  0  0  0  0  0  0  0  0
  -18.3120  -27.3840   22.2490 C   0  0  0  0  0  0  0  0  0  0  0  0
  -20.8300  -27.8200   22.6320 C   0  0  0  0  0  3  0  0  0  0  0  0
  -21.0700  -26.4770   21.9050 C   0  0  0  0  0  2  0  0  0  0  0  0
  -20.0260  -26.1800   20.8260 C   0  0  0  0  0  2  0  0  0  0  0  0
  -18.6210  -26.1370   21.4350 C   0  0  0  0  0  2  0  0  0  0  0  0
  -19.3500  -28.1830   22.7950 C   0  0  0  0  0  0  0  0  0  0  0  0
  -19.0110  -29.3520   23.5100 C   0  0  0  0  0  3  0  0  0  0  0  0
  -17.6650  -29.7240   23.6890 C   0  0  0  0  0  3  0  0  0  0  0  0
  -16.6400  -28.9170   23.1630 C   0  0  0  0  0  3  0  0  0  0  0  0
  -16.9640  -27.7500   22.4490 C   0  0  0  0  0  3  0  0  0  0  0  0
  -25.6650  -32.3710   23.9170 C   0  0  0  0  0  3  0  0  0  0  0  0
  -25.2590  -33.7450   24.2450 N   0  0  0  0  0  0  0  0  0  0  0  0
  -25.6070  -34.8290   23.5390 C   0  0  0  0  0  0  0  0  0  0  0  0
  -26.3690  -34.7810   22.5700 O   0  0  0  0  0  0  0  0  0  0  0  0
  -24.5890  -33.8490   24.9910 H   0  0  0  0  0  0  0  0  0  0  0  0
  -23.8270  -36.5410   23.0710 C   0  0  0  0  0  1  0  0  0  0  0  0
  -25.0130  -36.1820   23.9780 C   0  0  0  0  0  3  0  0  0  0  0  0
  -27.0180  -37.1520   25.0070 C   0  0  0  0  0  1  0  0  0  0  0  0
  -25.9980  -37.2850   23.9720 N   0  0  0  0  0  0  0  0  0  0  0  0
  -25.5360  -38.1800   24.1040 H   0  0  0  0  0  0  0  0  0  0  0  0
  -26.1220  -31.6000   25.2150 C   0  0  1  0  0  0  0  0  0  0  0  0
  -24.9640  -31.2900   26.1920 C   0  0  0  0  0  1  0  0  0  0  0  0
  -26.7960  -30.2590   24.8400 C   0  0  0  0  0  1  0  0  0  0  0  0
  -27.1840  -32.4300   25.9740 C   0  0  0  0  0  1  0  0  0  0  0  0
  3  5  1  0
  4  6  1  0
  5  2  1  0
  5  1  1  0
  6 16  1  0
  6  2  1  0
  7 46  1  0
  7  4  1  0
  7  3  1  0
  8 16  1  0
  9 14  1  0
 10 11  1  0
 10  9  1  0
 12 11  1  0
 12 21  1  0
 12 13  1  0
 14  8  1  0
 14 13  1  0
 15  8  2  0
 16 17  1  0
 18 19  2  0
 19 38  1  0
 20 19  1  0
 20 23  1  0
 21 22  1  0
 21 18  1  0
 22 20  2  0
 23 24  1  0
 24 25  2  0
 26 29  1  0
 26 25  1  0
 27 26  2  0
 28 27  1  0
 28 23  2  0
 29 30  1  0
 30 31  1  0
 31 32  2  0
 33 32  1  0
 33 37  1  0
 34 33  2  0
 35 30  2  0
 35 34  1  0
 36 35  1  0
 38 39  1  0
 39 42  1  0
 39 41  1  0
 40 38  2  0
 43 18  1  0
 43 44  1  0
 45 43  1  0
 47 46  1  0
 48 46  1  0
 49 46  1  0
 50  1  1  0
 50 51  1  0
 51 53  1  0
 51 52  1  0
 54 55  1  0
 54 51  1  0
 56 57  1  0
 56 55  1  0
 58 69  2  0
 59 57  1  0
 59 64  1  0
 60 68  1  0
 60 70  1  0
 61 67  1  0
 61 63  1  0
 62 68  1  0
 63 62  1  0
 64 63  2  0
 65 66  1  0
 65 59  2  0
 66 61  2  0
 67 60  1  0
 68 58  1  0
 70 72  2  0
 71 70  1  0
 73 71  1  0
 74 83  2  0
 74 79  1  0
 75 71  1  0
 75 79  1  0
 76 75  1  0
 77 78  1  0
 77 76  1  0
 78 74  1  0
 79 80  2  0
 80 81  1  0
 82 81  2  0
 83 82  1  0
 84 58  1  0
 84 85  1  0
 84 94  1  0
 85 88  1  0
 86 90  1  0
 86 85  1  0
 87 86  2  0
 90 89  1  0
 92 90  1  0
 92 93  1  0
 92 91  1  0
 94 97  1  1
 94 95  1  0
 96 94  1  0
M  ISO  4   8 100  16 100  56 101  57 101
M  END
>  <TORSDO>  (22) 
F 23

>  <SCORE>  (22) 
-11.449

>  <name>  (22) 
21

>  <ligand_id>  (22) 
21

>  <original_smiles>  (22) 
[H]c1c([H])c([H])c2c(c1[H])C([H])([H])C([H])([H])C([H])([H])C2([H])N([H])C(=O)C1([H])N(C(=O)C([H])(N([H])C(=O)C([H])(N([H])C([H])([H])[H])C([H])([H])[H])C(C([H])([H])[H])(C([H])([H])[H])C([H])([H])[H])C([H])([H])c2c([H])c(OC([H])([H])C([H])([H])C([H])([H])[N+]([H])([H])C([H])([H])C([H])([H])C3([H])C([H])([H])C([H])(N([H])C(=O)N4C([H])([H])C([H])([H])C([H])([H])C([H])(n5nc(-c6c([H])c([H])c(Oc7c([H])c([H])c(F)c([H])c7F)c([H])c6[H])c(C(=O)N([H])[H])c5N([H])[H])C4([H])[H])C([H])([H])C([H])([N+]([H])([H])[H])C3([H])[H])c([H])c([H])c2C1([H])[H]

>  <smiles>  (22) 
[H]c1c([H])c([H])c2c(c1[H])C([H])([H])C([H])([H])C([H])([H])C2([H])N([H])C(=O)C1([H])N(C(=O)C([H])(N([H])C(=O)C([H])(N([H])C([H])([H])[H])C([H])([H])[H])C(C([H])([H])[H])(C([H])([H])[H])C([H])([H])[H])C([H])([H])c2c([H])c(OC([H])([H])C([H])([H])C([H])([H])[N+]([H])([H])C([H])([H])C([H])([H])C3([H])C([H])([H])C([H])(N([H])C(=O)N4C([H])([H])C([H])([H])C([H])([H])C([H])(n5nc(-c6c([H])c([H])c(Oc7c([H])c([H])c(F)c([H])c7F)c([H])c6[H])c(C(=O)N([H])[H])c5N([H])[H])C4([H])[H])C([H])([H])C([H])([N+]([H])([H])[H])C3([H])[H])c([H])c([H])c2C1([H])[H]

$$$$
22:0:0
     RDKit          3D

 91 99  0  0  1  0  0  0  0  0999 V2000
  -29.0370  -22.4730   19.7540 N   0  0  0  0  0  4  0  0  0  0  0  0
  -28.2540  -22.2520   19.1600 H   0  0  0  0  0  0  0  0  0  0  0  0
  -29.8190  -22.6350   19.1370 H   0  0  0  0  0  0  0  0  0  0  0  0
  -29.3640  -21.1980   20.5350 C   0  0  0  0  0  2  0  0  0  0  0  0
  -29.6220  -19.8960   19.6560 C   0  0  0  0  0  0  0  0  0  0  0  0
  -29.5230  -19.9700   18.4270 O   0  0  0  0  0  0  0  0  0  0  0  0
  -30.6930  -14.7270   19.6950 C   0  0  0  0  0  0  0  0  0  0  0  0
  -30.3150  -12.5330   18.5630 C   0  0  0  0  0  2  0  0  0  0  0  0
  -29.2530  -12.6980   17.4500 C   0  0  0  0  0  2  0  0  0  0  0  0
  -27.8230  -12.5430   18.0090 C   0  0  0  0  0  2  0  0  0  0  0  0
  -27.6130  -13.3310   19.3310 C   0  0  0  0  0  3  0  0  0  0  0  0
  -28.7780  -13.0520   20.3000 C   0  0  0  0  0  2  0  0  0  0  0  0
  -30.0090  -13.5160   19.6380 N   0  0  0  0  0  0  0  0  0  0  0  0
  -31.8120  -14.7660   19.1710 O   0  0  0  0  0  0  0  0  0  0  0  0
  -29.2420  -16.2940   21.0260 C   0  0  0  0  0  0  0  0  0  0  0  0
  -28.8560  -17.7840   21.0260 C   0  0  0  0  0  2  0  0  0  0  0  0
  -30.5420  -17.2850   19.4480 C   0  0  0  0  0  2  0  0  0  0  0  0
  -30.0130  -18.4990   20.3280 C   0  0  0  0  0  3  0  0  0  0  0  0
  -30.1110  -15.9610   20.0410 N   0  0  0  0  0  0  0  0  0  0  0  0
  -28.8270  -15.5800   21.9360 O   0  0  0  0  0  0  0  0  0  0  0  0
  -25.3240  -13.9370   20.3210 C   0  0  0  0  0  0  0  0  0  0  0  0
  -24.2820  -13.1680   20.7610 C   0  0  0  0  0  0  0  0  0  0  0  0
  -24.7020  -11.8100   20.6070 C   0  0  0  0  0  0  0  0  0  0  0  0
  -26.3150  -13.0490   19.9340 N   0  0  0  0  0  0  0  0  0  0  0  0
  -25.9510  -11.7610   20.1620 N   0  0  0  0  0  0  0  0  0  0  0  0
  -23.9640  -10.5560   20.8010 C   0  0  0  0  0  0  0  0  0  0  0  0
  -24.4540   -9.5340   21.6440 C   0  0  0  0  0  3  0  0  0  0  0  0
  -23.7170   -8.3450   21.8300 C   0  0  0  0  0  3  0  0  0  0  0  0
  -22.4750   -8.1690   21.1750 C   0  0  0  0  0  0  0  0  0  0  0  0
  -22.0040   -9.1790   20.3180 C   0  0  0  0  0  3  0  0  0  0  0  0
  -22.7410  -10.3600   20.1290 C   0  0  0  0  0  3  0  0  0  0  0  0
  -21.7040   -7.0370   21.2760 O   0  0  0  0  0  0  0  0  0  0  0  0
  -21.7230   -6.2500   22.4000 C   0  0  0  0  0  0  0  0  0  0  0  0
  -21.4220   -6.7700   23.6770 C   0  0  0  0  0  3  0  0  0  0  0  0
  -21.3840   -5.9120   24.7950 C   0  0  0  0  0  3  0  0  0  0  0  0
  -21.6380   -4.5360   24.6370 C   0  0  0  0  0  0  0  0  0  0  0  0
  -21.9340   -4.0160   23.3640 C   0  0  0  0  0  3  0  0  0  0  0  0
  -21.9720   -4.8710   22.2490 C   0  0  0  0  0  0  0  0  0  0  0  0
  -22.2360   -4.3620   21.0220 F   0  0  0  0  0  0  0  0  0  0  0  0
  -21.5960   -3.7110   25.7080 F   0  0  0  0  0  0  0  0  0  0  0  0
  -22.9340  -13.6580   21.2010 C   0  0  0  0  0  0  0  0  0  0  0  0
  -22.2850  -12.9390   22.1100 N   0  0  0  0  0  0  0  0  0  0  0  0
  -22.4670  -14.7140   20.7750 O   0  0  0  0  0  0  0  0  0  0  0  0
  -22.6790  -12.0860   22.4780 H   0  0  0  0  0  0  0  0  0  0  0  0
  -21.3840  -13.2490   22.4460 H   0  0  0  0  0  0  0  0  0  0  0  0
  -25.5010  -15.3120   20.1920 N   0  0  0  0  0  0  0  0  0  0  0  0
  -24.7580  -15.9690   20.4060 H   0  0  0  0  0  0  0  0  0  0  0  0
  -26.3000  -15.7470   19.7540 H   0  0  0  0  0  0  0  0  0  0  0  0
  -28.7320  -23.7710   20.5250 C   0  0  0  0  0  3  0  0  0  0  0  0
  -28.4890  -25.1180   19.6770 C   0  0  0  0  0  3  0  0  0  0  0  0
  -28.3290  -26.4390   20.3600 O   0  0  0  0  0  0  0  0  0  0  0  0
  -24.5480  -31.8750   23.2550 C   0  0  0  0  0  0  0  0  0  0  0  0
  -27.1830  -27.2580   20.2740 C   0  0  0  0  0  0  0  0  0  0  0  0
  -23.3590  -30.4620   21.6170 C   0  0  0  0  0  3  0  0  0  0  0  0
  -24.8190  -28.8890   20.2260 C   0  0  0  0  0  0  0  0  0  0  0  0
  -25.9020  -30.7650   21.4600 C   0  0  0  0  0  2  0  0  0  0  0  0
  -25.9820  -29.3780   20.8290 C   0  0  0  0  0  0  0  0  0  0  0  0
  -27.1620  -28.5730   20.8440 C   0  0  0  0  0  3  0  0  0  0  0  0
  -25.9860  -26.8220   19.6580 C   0  0  0  0  0  3  0  0  0  0  0  0
  -24.8240  -27.6160   19.6350 C   0  0  0  0  0  3  0  0  0  0  0  0
  -23.5850  -29.7690   20.2480 C   0  0  0  0  0  2  0  0  0  0  0  0
  -24.6220  -31.0530   22.1670 N   0  0  0  0  0  0  0  0  0  0  0  0
  -23.4600  -32.1630   23.7740 O   0  0  0  0  0  0  0  0  0  0  0  0
  -22.6810  -29.4600   22.5820 C   0  0  0  0  0  0  0  0  0  0  0  0
  -21.3570  -29.2820   22.4390 N   0  0  0  0  0  0  0  0  0  0  0  0
  -23.3470  -28.8450   23.4190 O   0  0  0  0  0  0  0  0  0  0  0  0
  -20.8790  -29.8300   21.7370 H   0  0  0  0  0  0  0  0  0  0  0  0
  -17.9740  -28.0820   22.8920 C   0  0  0  0  0  0  0  0  0  0  0  0
  -20.5250  -28.3550   23.2100 C   0  0  0  0  0  3  0  0  0  0  0  0
  -20.6440  -26.9140   22.6630 C   0  0  0  0  0  2  0  0  0  0  0  0
  -19.5640  -26.5690   21.6330 C   0  0  0  0  0  2  0  0  0  0  0  0
  -18.1690  -26.7210   22.2450 C   0  0  0  0  0  2  0  0  0  0  0  0
  -19.0810  -28.8560   23.3300 C   0  0  0  0  0  0  0  0  0  0  0  0
  -18.8460  -30.1290   23.8930 C   0  0  0  0  0  3  0  0  0  0  0  0
  -17.5360  -30.6280   24.0240 C   0  0  0  0  0  3  0  0  0  0  0  0
  -16.4430  -29.8510   23.6010 C   0  0  0  0  0  3  0  0  0  0  0  0
  -16.6630  -28.5800   23.0410 C   0  0  0  0  0  3  0  0  0  0  0  0
  -25.8260  -32.5120   23.8850 C   0  0  0  0  0  3  0  0  0  0  0  0
  -26.3060  -31.7730   25.1940 C   0  0  1  0  0  0  0  0  0  0  0  0
  -25.1870  -31.5750   26.2440 C   0  0  0  0  0  1  0  0  0  0  0  0
  -26.8850  -30.3800   24.8550 C   0  0  0  0  0  1  0  0  0  0  0  0
  -27.4490  -32.5750   25.8590 C   0  0  0  0  0  1  0  0  0  0  0  0
  -25.5250  -33.9210   24.1720 N   0  0  0  0  0  0  0  0  0  0  0  0
  -25.8760  -34.9510   23.3880 C   0  0  0  0  0  0  0  0  0  0  0  0
  -26.5550  -34.8120   22.3680 O   0  0  0  0  0  0  0  0  0  0  0  0
  -24.9260  -34.1040   24.9630 H   0  0  0  0  0  0  0  0  0  0  0  0
  -24.1680  -36.7480   22.9670 C   0  0  0  0  0  1  0  0  0  0  0  0
  -25.3980  -36.3560   23.8020 C   0  0  0  0  0  3  0  0  0  0  0  0
  -27.5330  -37.2430   24.6280 C   0  0  0  0  0  1  0  0  0  0  0  0
  -26.4410  -37.3950   23.6700 N   0  0  0  0  0  0  0  0  0  0  0  0
  -26.0440  -38.3240   23.7880 H   0  0  0  0  0  0  0  0  0  0  0  0
  1 49  1  0
  1  4  1  0
  2  1  1  0
  3  1  1  0
  5  4  1  0
  6  5  2  0
  7 19  1  0
  8 13  1  0
  9 10  1  0
  9  8  1  0
 11 10  1  0
 11 24  1  0
 11 12  1  0
 13  7  1  0
 13 12  1  0
 14  7  2  0
 15 20  2  0
 16 15  1  0
 17 19  1  0
 17 18  1  0
 18  5  1  0
 18 16  1  0
 19 15  1  0
 21 22  2  0
 22 41  1  0
 23 22  1  0
 23 26  1  0
 24 25  1  0
 24 21  1  0
 25 23  2  0
 26 27  1  0
 27 28  2  0
 29 32  1  0
 29 28  1  0
 30 29  2  0
 31 30  1  0
 31 26  2  0
 32 33  1  0
 33 34  1  0
 34 35  2  0
 36 35  1  0
 36 40  1  0
 37 36  2  0
 38 33  2  0
 38 37  1  0
 39 38  1  0
 41 42  1  0
 42 45  1  0
 42 44  1  0
 43 41  2  0
 46 21  1  0
 46 47  1  0
 48 46  1  0
 50 51  1  0
 50 49  2  0
 52 63  2  0
 53 51  1  0
 53 58  1  0
 54 62  1  0
 54 64  1  0
 55 61  1  0
 55 57  1  0
 56 62  1  0
 57 58  2  0
 57 56  1  0
 59 53  2  0
 60 59  1  0
 60 55  2  0
 61 54  1  0
 62 52  1  0
 64 66  2  0
 65 64  1  0
 67 65  1  0
 68 77  2  0
 68 73  1  0
 69 65  1  0
 69 73  1  0
 70 69  1  0
 71 72  1  0
 71 70  1  0
 72 68  1  0
 73 74  2  0
 74 75  1  0
 76 75  2  0
 77 76  1  0
 78 52  1  0
 78 83  1  0
 78 79  1  0
 79 82  1  1
 79 80  1  0
 81 79  1  0
 83 86  1  0
 84 88  1  0
 84 83  1  0
 85 84  2  0
 88 87  1  0
 90 91  1  0
 90 88  1  0
 90 89  1  0
M  ISO  4   7 100  19 100  50 101  51 101
M  END
>  <TORSDO>  (23) 
F 20

>  <SCORE>  (23) 
-12.341

>  <name>  (23) 
22

>  <ligand_id>  (23) 
22

>  <original_smiles>  (23) 
[H]c1c([H])c([H])c2c(c1[H])C([H])([H])C([H])([H])C([H])([H])C2([H])N([H])C(=O)C1([H])N(C(=O)C([H])(N([H])C(=O)C([H])(N([H])C([H])([H])[H])C([H])([H])[H])C(C([H])([H])[H])(C([H])([H])[H])C([H])([H])[H])C([H])([H])c2c([H])c(OC([H])([H])C([H])([H])[N+]([H])([H])C([H])([H])C(=O)C3([H])C([H])([H])C(=O)N(C(=O)N4C([H])([H])C([H])([H])C([H])([H])C([H])(n5nc(-c6c([H])c([H])c(Oc7c([H])c([H])c(F)c([H])c7F)c([H])c6[H])c(C(=O)N([H])[H])c5N([H])[H])C4([H])[H])C3([H])[H])c([H])c([H])c2C1([H])[H]

>  <smiles>  (23) 
[H]c1c([H])c([H])c2c(c1[H])C([H])([H])C([H])([H])C([H])([H])C2([H])N([H])C(=O)C1([H])N(C(=O)C([H])(N([H])C(=O)C([H])(N([H])C([H])([H])[H])C([H])([H])[H])C(C([H])([H])[H])(C([H])([H])[H])C([H])([H])[H])C([H])([H])c2c([H])c(OC([H])([H])C([H])([H])[N+]([H])([H])C([H])([H])C(=O)C3([H])C([H])([H])C(=O)N(C(=O)N4C([H])([H])C([H])([H])C([H])([H])C([H])(n5nc(-c6c([H])c([H])c(Oc7c([H])c([H])c(F)c([H])c7F)c([H])c6[H])c(C(=O)N([H])[H])c5N([H])[H])C4([H])[H])C3([H])[H])c([H])c([H])c2C1([H])[H]

$$$$
23:0:0
     RDKit          3D

 94102  0  0  1  0  0  0  0  0999 V2000
  -29.6050  -19.5620   20.4930 C   0  0  0  0  0  0  0  0  0  0  0  0
  -28.6510  -20.5110   20.3270 N   0  0  0  0  0  0  0  0  0  0  0  0
  -30.7690  -19.8510   20.7730 O   0  0  0  0  0  0  0  0  0  0  0  0
  -27.7080  -20.1680   20.1920 H   0  0  0  0  0  0  0  0  0  0  0  0
  -30.6200  -14.5960   20.5050 C   0  0  0  0  0  0  0  0  0  0  0  0
  -30.3960  -12.3550   19.5120 C   0  0  0  0  0  2  0  0  0  0  0  0
  -29.4780  -12.4790   18.2760 C   0  0  0  0  0  2  0  0  0  0  0  0
  -27.9930  -12.3600   18.6790 C   0  0  0  0  0  2  0  0  0  0  0  0
  -27.6140  -13.2330   19.9070 C   0  0  0  0  0  3  0  0  0  0  0  0
  -28.6580  -13.1080   21.0400 C   0  0  0  0  0  2  0  0  0  0  0  0
  -29.9800  -13.3930   20.4640 N   0  0  0  0  0  0  0  0  0  0  0  0
  -31.8330  -14.7090   20.3110 O   0  0  0  0  0  0  0  0  0  0  0  0
  -29.7820  -16.9300   21.0890 C   0  0  0  0  0  2  0  0  0  0  0  0
  -29.6170  -16.0930   18.8830 C   0  0  0  0  0  2  0  0  0  0  0  0
  -29.2130  -18.0780   20.1850 C   0  0  0  0  0  3  0  0  0  0  0  0
  -29.7660  -17.6140   18.8330 C   0  0  0  0  0  3  0  0  0  0  0  0
  -29.8080  -15.6740   20.2850 N   0  0  0  0  0  0  0  0  0  0  0  0
  -25.2140  -13.8590   20.5730 C   0  0  0  0  0  0  0  0  0  0  0  0
  -24.1330  -13.0950   20.9230 C   0  0  0  0  0  0  0  0  0  0  0  0
  -24.5900  -11.7420   20.9100 C   0  0  0  0  0  0  0  0  0  0  0  0
  -26.2580  -12.9690   20.3690 N   0  0  0  0  0  0  0  0  0  0  0  0
  -25.8870  -11.6920   20.6340 N   0  0  0  0  0  0  0  0  0  0  0  0
  -23.8570  -10.4850   21.0910 C   0  0  0  0  0  0  0  0  0  0  0  0
  -24.2770   -9.5130   22.0260 C   0  0  0  0  0  3  0  0  0  0  0  0
  -23.5450   -8.3190   22.1930 C   0  0  0  0  0  3  0  0  0  0  0  0
  -22.3780   -8.0880   21.4260 C   0  0  0  0  0  0  0  0  0  0  0  0
  -21.9780   -9.0480   20.4810 C   0  0  0  0  0  3  0  0  0  0  0  0
  -22.7120  -10.2340   20.3110 C   0  0  0  0  0  3  0  0  0  0  0  0
  -21.6180   -6.9470   21.5060 O   0  0  0  0  0  0  0  0  0  0  0  0
  -21.5620   -6.1960   22.6530 C   0  0  0  0  0  0  0  0  0  0  0  0
  -21.1430   -6.7460   23.8840 C   0  0  0  0  0  3  0  0  0  0  0  0
  -21.0350   -5.9220   25.0230 C   0  0  0  0  0  3  0  0  0  0  0  0
  -21.3370   -4.5510   24.9300 C   0  0  0  0  0  0  0  0  0  0  0  0
  -21.7490   -4.0010   23.7040 C   0  0  0  0  0  3  0  0  0  0  0  0
  -21.8600   -4.8210   22.5680 C   0  0  0  0  0  0  0  0  0  0  0  0
  -22.2380   -4.2820   21.3840 F   0  0  0  0  0  0  0  0  0  0  0  0
  -21.2270   -3.7580   26.0220 F   0  0  0  0  0  0  0  0  0  0  0  0
  -22.7330  -13.5820   21.1570 C   0  0  0  0  0  0  0  0  0  0  0  0
  -21.9790  -12.8960   22.0090 N   0  0  0  0  0  0  0  0  0  0  0  0
  -22.3130  -14.6050   20.6190 O   0  0  0  0  0  0  0  0  0  0  0  0
  -22.3300  -12.0710   22.4730 H   0  0  0  0  0  0  0  0  0  0  0  0
  -21.0360  -13.2020   22.2050 H   0  0  0  0  0  0  0  0  0  0  0  0
  -25.3900  -15.2290   20.3910 N   0  0  0  0  0  0  0  0  0  0  0  0
  -24.6310  -15.8920   20.4950 H   0  0  0  0  0  0  0  0  0  0  0  0
  -26.2640  -15.6630   20.1260 H   0  0  0  0  0  0  0  0  0  0  0  0
  -29.1500  -18.2140   17.6290 N   0  0  0  0  0  4  0  0  0  0  0  0
  -28.1530  -18.1010   17.6190 H   0  0  0  0  0  0  0  0  0  0  0  0
  -29.5180  -17.7760   16.8010 H   0  0  0  0  0  0  0  0  0  0  0  0
  -29.3630  -19.1940   17.5640 H   0  0  0  0  0  0  0  0  0  0  0  0
  -28.8270  -21.9590   20.0430 C   0  0  0  0  0  2  0  0  0  0  0  0
  -28.3660  -22.9150   21.1830 C   0  0  0  0  0  2  0  0  0  0  0  0
  -27.7050  -24.2870   20.7950 C   0  0  0  0  0  2  0  0  0  0  0  0
  -28.4880  -25.2920   19.8940 C   0  0  0  0  0  2  0  0  0  0  0  0
  -28.4090  -26.6940   20.2650 O   0  0  0  0  0  0  0  0  0  0  0  0
  -24.5850  -31.9110   23.2470 C   0  0  0  0  0  0  0  0  0  0  0  0
  -27.2260  -27.4180   20.2010 C   0  0  0  0  0  0  0  0  0  0  0  0
  -23.3820  -30.5040   21.6060 C   0  0  0  0  0  3  0  0  0  0  0  0
  -24.8370  -28.9540   20.1880 C   0  0  0  0  0  0  0  0  0  0  0  0
  -25.9110  -30.8480   21.4180 C   0  0  0  0  0  2  0  0  0  0  0  0
  -25.9930  -29.4720   20.7810 C   0  0  0  0  0  0  0  0  0  0  0  0
  -27.1870  -28.7110   20.7810 C   0  0  0  0  0  3  0  0  0  0  0  0
  -26.0510  -26.9230   19.5930 C   0  0  0  0  0  3  0  0  0  0  0  0
  -24.8620  -27.6810   19.5900 C   0  0  0  0  0  3  0  0  0  0  0  0
  -23.5960  -29.8190   20.2280 C   0  0  0  0  0  2  0  0  0  0  0  0
  -24.6430  -31.1060   22.1480 N   0  0  0  0  0  0  0  0  0  0  0  0
  -23.5020  -32.1870   23.7820 O   0  0  0  0  0  0  0  0  0  0  0  0
  -22.7250  -29.4910   22.5690 C   0  0  0  0  0  0  0  0  0  0  0  0
  -21.3990  -29.3150   22.4420 N   0  0  0  0  0  0  0  0  0  0  0  0
  -23.4040  -28.8640   23.3870 O   0  0  0  0  0  0  0  0  0  0  0  0
  -20.9110  -29.8720   21.7530 H   0  0  0  0  0  0  0  0  0  0  0  0
  -18.0190  -28.1390   22.9430 C   0  0  0  0  0  0  0  0  0  0  0  0
  -20.5780  -28.3820   23.2130 C   0  0  0  0  0  3  0  0  0  0  0  0
  -20.6720  -26.9500   22.6350 C   0  0  0  0  0  2  0  0  0  0  0  0
  -19.5670  -26.6340   21.6220 C   0  0  0  0  0  2  0  0  0  0  0  0
  -18.1870  -26.7890   22.2670 C   0  0  0  0  0  2  0  0  0  0  0  0
  -19.1420  -28.8940   23.3720 C   0  0  0  0  0  0  0  0  0  0  0  0
  -18.9320  -30.1590   23.9630 C   0  0  0  0  0  3  0  0  0  0  0  0
  -17.6300  -30.6680   24.1300 C   0  0  0  0  0  3  0  0  0  0  0  0
  -16.5210  -29.9100   23.7180 C   0  0  0  0  0  3  0  0  0  0  0  0
  -16.7160  -28.6480   23.1300 C   0  0  0  0  0  3  0  0  0  0  0  0
  -25.8700  -32.5420   23.8680 C   0  0  0  0  0  3  0  0  0  0  0  0
  -25.5640  -33.9430   24.1920 N   0  0  0  0  0  0  0  0  0  0  0  0
  -25.9030  -34.9910   23.4310 C   0  0  0  0  0  0  0  0  0  0  0  0
  -26.5770  -34.8810   22.4020 O   0  0  0  0  0  0  0  0  0  0  0  0
  -24.9700  -34.1010   24.9930 H   0  0  0  0  0  0  0  0  0  0  0  0
  -24.1820  -36.7860   23.0600 C   0  0  0  0  0  1  0  0  0  0  0  0
  -25.4180  -36.3820   23.8810 C   0  0  0  0  0  3  0  0  0  0  0  0
  -27.5500  -37.2620   24.7230 C   0  0  0  0  0  1  0  0  0  0  0  0
  -26.4540  -37.4310   23.7710 N   0  0  0  0  0  0  0  0  0  0  0  0
  -26.0500  -38.3530   23.9130 H   0  0  0  0  0  0  0  0  0  0  0  0
  -26.3840  -31.7740   25.1490 C   0  0  1  0  0  0  0  0  0  0  0  0
  -25.2880  -31.5460   26.2160 C   0  0  0  0  0  1  0  0  0  0  0  0
  -26.9640  -30.3950   24.7620 C   0  0  0  0  0  1  0  0  0  0  0  0
  -27.5340  -32.5700   25.8100 C   0  0  0  0  0  1  0  0  0  0  0  0
  1  3  2  0
  2  1  1  0
  4  2  1  0
  6 11  1  0
  7  8  1  0
  7  6  1  0
  9  8  1  0
  9 21  1  0
  9 10  1  0
 11  5  1  0
 11 10  1  0
 12  5  2  0
 14 17  1  0
 15  1  1  0
 15 13  1  0
 16 46  1  0
 16 14  1  0
 16 15  1  0
 17  5  1  0
 17 13  1  0
 18 19  2  0
 19 38  1  0
 20 19  1  0
 20 23  1  0
 21 18  1  0
 21 22  1  0
 22 20  2  0
 23 24  1  0
 24 25  2  0
 26 29  1  0
 26 25  1  0
 27 26  2  0
 28 27  1  0
 28 23  2  0
 29 30  1  0
 30 31  1  0
 31 32  2  0
 33 32  1  0
 33 37  1  0
 34 33  2  0
 35 30  2  0
 35 34  1  0
 36 35  1  0
 38 39  1  0
 39 42  1  0
 39 41  1  0
 40 38  2  0
 43 44  1  0
 43 18  1  0
 45 43  1  0
 47 46  1  0
 48 46  1  0
 49 46  1  0
 50  2  1  0
 50 51  1  0
 52 51  1  0
 53 54  1  0
 53 52  1  0
 55 66  2  0
 56 54  1  0
 56 61  1  0
 57 65  1  0
 57 67  1  0
 58 64  1  0
 58 60  1  0
 59 65  1  0
 60 61  2  0
 60 59  1  0
 62 56  2  0
 63 62  1  0
 63 58  2  0
 64 57  1  0
 65 55  1  0
 67 69  2  0
 68 67  1  0
 70 68  1  0
 71 80  2  0
 71 76  1  0
 72 68  1  0
 72 76  1  0
 73 72  1  0
 74 75  1  0
 74 73  1  0
 75 71  1  0
 76 77  2  0
 77 78  1  0
 79 78  2  0
 80 79  1  0
 81 55  1  0
 81 82  1  0
 81 91  1  0
 82 85  1  0
 83 87  1  0
 83 82  1  0
 84 83  2  0
 87 86  1  0
 89 87  1  0
 89 90  1  0
 89 88  1  0
 91 94  1  1
 91 92  1  0
 93 91  1  0
M  ISO  4   5 100  17 100  53 101  54 101
M  END
>  <TORSDO>  (24) 
F 21

>  <SCORE>  (24) 
-13.821

>  <name>  (24) 
23

>  <ligand_id>  (24) 
23

>  <original_smiles>  (24) 
[H]c1c([H])c([H])c2c(c1[H])C([H])([H])C([H])([H])C([H])([H])C2([H])N([H])C(=O)C1([H])N(C(=O)C([H])(N([H])C(=O)C([H])(N([H])C([H])([H])[H])C([H])([H])[H])C(C([H])([H])[H])(C([H])([H])[H])C([H])([H])[H])C([H])([H])c2c([H])c(OC([H])([H])C([H])([H])C([H])([H])C([H])([H])N([H])C(=O)C3([H])C([H])([H])N(C(=O)N4C([H])([H])C([H])([H])C([H])([H])C([H])(n5nc(-c6c([H])c([H])c(Oc7c([H])c([H])c(F)c([H])c7F)c([H])c6[H])c(C(=O)N([H])[H])c5N([H])[H])C4([H])[H])C([H])([H])C3([H])[N+]([H])([H])[H])c([H])c([H])c2C1([H])[H]

>  <smiles>  (24) 
[H]c1c([H])c([H])c2c(c1[H])C([H])([H])C([H])([H])C([H])([H])C2([H])N([H])C(=O)C1([H])N(C(=O)C([H])(N([H])C(=O)C([H])(N([H])C([H])([H])[H])C([H])([H])[H])C(C([H])([H])[H])(C([H])([H])[H])C([H])([H])[H])C([H])([H])c2c([H])c(OC([H])([H])C([H])([H])C([H])([H])C([H])([H])N([H])C(=O)C3([H])C([H])([H])N(C(=O)N4C([H])([H])C([H])([H])C([H])([H])C([H])(n5nc(-c6c([H])c([H])c(Oc7c([H])c([H])c(F)c([H])c7F)c([H])c6[H])c(C(=O)N([H])[H])c5N([H])[H])C4([H])[H])C([H])([H])C3([H])[N+]([H])([H])[H])c([H])c([H])c2C1([H])[H]

$$$$
24:0:0
     RDKit          3D

 95105  0  0  1  0  0  0  0  0999 V2000
  -28.8190  -22.1970   22.5380 C   0  0  0  0  0  2  0  0  0  0  0  0
  -29.5250  -23.3940   23.0660 N   0  0  0  0  0  4  0  0  0  0  0  0
  -30.1910  -23.0940   23.7620 H   0  0  0  0  0  0  0  0  0  0  0  0
  -28.8470  -23.9530   23.5630 H   0  0  0  0  0  0  0  0  0  0  0  0
  -30.2510  -24.2770   22.1140 C   0  0  0  0  0  2  0  0  0  0  0  0
  -29.4110  -24.9010   20.9670 C   0  0  0  0  0  2  0  0  0  0  0  0
  -28.7250  -26.2470   21.2800 C   0  0  0  0  0  2  0  0  0  0  0  0
  -28.2990  -26.8140   20.0420 O   0  0  0  0  0  0  0  0  0  0  0  0
  -24.5490  -31.9690   23.2380 C   0  0  0  0  0  0  0  0  0  0  0  0
  -27.1520  -27.5620   20.1040 C   0  0  0  0  0  0  0  0  0  0  0  0
  -23.3170  -30.5770   21.6020 C   0  0  0  0  0  3  0  0  0  0  0  0
  -24.7540  -29.0440   20.1540 C   0  0  0  0  0  0  0  0  0  0  0  0
  -25.8360  -30.9400   21.3710 C   0  0  0  0  0  2  0  0  0  0  0  0
  -25.9150  -29.5700   20.7350 C   0  0  0  0  0  0  0  0  0  0  0  0
  -27.1180  -28.8320   20.7200 C   0  0  0  0  0  3  0  0  0  0  0  0
  -25.9840  -27.0480   19.5100 C   0  0  0  0  0  3  0  0  0  0  0  0
  -24.7800  -27.7770   19.5420 C   0  0  0  0  0  3  0  0  0  0  0  0
  -23.5090  -29.8990   20.2190 C   0  0  0  0  0  2  0  0  0  0  0  0
  -24.5860  -31.1770   22.1280 N   0  0  0  0  0  0  0  0  0  0  0  0
  -23.4770  -32.2370   23.7960 O   0  0  0  0  0  0  0  0  0  0  0  0
  -22.6810  -29.5490   22.5680 C   0  0  0  0  0  0  0  0  0  0  0  0
  -21.3590  -29.3530   22.4480 N   0  0  0  0  0  0  0  0  0  0  0  0
  -23.3760  -28.9300   23.3780 O   0  0  0  0  0  0  0  0  0  0  0  0
  -20.8560  -29.9000   21.7640 H   0  0  0  0  0  0  0  0  0  0  0  0
  -18.0030  -28.1140   22.9520 C   0  0  0  0  0  0  0  0  0  0  0  0
  -20.5570  -28.4060   23.2230 C   0  0  0  0  0  3  0  0  0  0  0  0
  -20.6780  -26.9730   22.6520 C   0  0  0  0  0  2  0  0  0  0  0  0
  -19.5810  -26.6320   21.6390 C   0  0  0  0  0  2  0  0  0  0  0  0
  -18.1980  -26.7630   22.2830 C   0  0  0  0  0  2  0  0  0  0  0  0
  -19.1120  -28.8930   23.3790 C   0  0  0  0  0  0  0  0  0  0  0  0
  -18.8790  -30.1570   23.9630 C   0  0  0  0  0  3  0  0  0  0  0  0
  -17.5690  -30.6440   24.1270 C   0  0  0  0  0  3  0  0  0  0  0  0
  -16.4740  -29.8640   23.7150 C   0  0  0  0  0  3  0  0  0  0  0  0
  -16.6910  -28.6010   23.1350 C   0  0  0  0  0  3  0  0  0  0  0  0
  -25.8470  -32.5930   23.8390 C   0  0  0  0  0  3  0  0  0  0  0  0
  -25.5500  -33.9940   24.1660 N   0  0  0  0  0  0  0  0  0  0  0  0
  -25.8950  -35.0390   23.4030 C   0  0  0  0  0  0  0  0  0  0  0  0
  -26.5680  -34.9260   22.3750 O   0  0  0  0  0  0  0  0  0  0  0  0
  -24.9570  -34.1540   24.9650 H   0  0  0  0  0  0  0  0  0  0  0  0
  -24.1910  -36.8490   23.0260 C   0  0  0  0  0  1  0  0  0  0  0  0
  -25.4180  -36.4340   23.8540 C   0  0  0  0  0  3  0  0  0  0  0  0
  -27.5530  -37.2950   24.7070 C   0  0  0  0  0  1  0  0  0  0  0  0
  -26.4640  -37.4750   23.7510 N   0  0  0  0  0  0  0  0  0  0  0  0
  -26.0660  -38.3990   23.8940 H   0  0  0  0  0  0  0  0  0  0  0  0
  -26.3800  -31.8220   25.1080 C   0  0  1  0  0  0  0  0  0  0  0  0
  -25.3000  -31.5870   26.1920 C   0  0  0  0  0  1  0  0  0  0  0  0
  -26.9530  -30.4420   24.7080 C   0  0  0  0  0  1  0  0  0  0  0  0
  -27.5420  -32.6120   25.7530 C   0  0  0  0  0  1  0  0  0  0  0  0
  -29.5980  -21.2910   21.5410 C   0  0  0  0  0  3  0  0  0  0  0  0
  -30.5840  -20.2580   22.1710 C   0  0  0  0  0  3  0  0  0  0  0  0
  -31.1310  -19.2320   21.2290 N   0  0  0  0  0  4  0  0  0  0  0  0
  -31.7790  -19.6820   20.6000 H   0  0  0  0  0  0  0  0  0  0  0  0
  -31.6640  -18.5620   21.7590 H   0  0  0  0  0  0  0  0  0  0  0  0
  -31.0520  -14.8520   20.1110 C   0  0  0  0  0  0  0  0  0  0  0  0
  -30.7220  -12.6100   19.1310 C   0  0  0  0  0  2  0  0  0  0  0  0
  -29.7540  -12.6900   17.9300 C   0  0  0  0  0  2  0  0  0  0  0  0
  -28.2960  -12.5350   18.4070 C   0  0  0  0  0  2  0  0  0  0  0  0
  -27.9660  -13.4710   19.5930 C   0  0  0  0  0  3  0  0  0  0  0  0
  -29.0510  -13.3740   20.7000 C   0  0  0  0  0  2  0  0  0  0  0  0
  -30.3500  -13.6760   20.0820 N   0  0  0  0  0  0  0  0  0  0  0  0
  -32.2060  -14.9170   19.6840 O   0  0  0  0  0  0  0  0  0  0  0  0
  -29.3420  -16.6950   18.8390 C   0  0  0  0  0  2  0  0  0  0  0  0
  -29.0270  -17.8180   21.1830 C   0  0  0  0  0  2  0  0  0  0  0  0
  -29.0430  -16.5360   20.3660 C   0  0  1  0  0  0  0  0  0  0  0  0
  -30.5680  -17.2740   19.6140 C   0  0  2  0  0  0  0  0  0  0  0  0
  -30.1260  -18.5040   20.4180 C   0  0  0  0  0  3  0  0  0  0  0  0
  -30.4170  -16.0370   20.4100 N   0  0  0  0  0  0  0  0  0  0  0  0
  -25.6170  -14.1530   20.4060 C   0  0  0  0  0  0  0  0  0  0  0  0
  -24.5430  -13.4080   20.8080 C   0  0  0  0  0  0  0  0  0  0  0  0
  -24.9630  -12.0460   20.7380 C   0  0  0  0  0  0  0  0  0  0  0  0
  -26.6260  -13.2440   20.1220 N   0  0  0  0  0  0  0  0  0  0  0  0
  -26.2380  -11.9720   20.3840 N   0  0  0  0  0  0  0  0  0  0  0  0
  -24.2080  -10.8030   20.9260 C   0  0  0  0  0  0  0  0  0  0  0  0
  -24.6340   -9.8130   21.8390 C   0  0  0  0  0  3  0  0  0  0  0  0
  -23.8810   -8.6320   22.0110 C   0  0  0  0  0  3  0  0  0  0  0  0
  -22.6900   -8.4360   21.2720 C   0  0  0  0  0  0  0  0  0  0  0  0
  -22.2850   -9.4150   20.3490 C   0  0  0  0  0  3  0  0  0  0  0  0
  -23.0370  -10.5870   20.1740 C   0  0  0  0  0  3  0  0  0  0  0  0
  -21.9080   -7.3090   21.3590 O   0  0  0  0  0  0  0  0  0  0  0  0
  -21.8380   -6.5710   22.5130 C   0  0  0  0  0  0  0  0  0  0  0  0
  -21.4210   -7.1410   23.7360 C   0  0  0  0  0  3  0  0  0  0  0  0
  -21.2960   -6.3330   24.8830 C   0  0  0  0  0  3  0  0  0  0  0  0
  -21.5760   -4.9550   24.8070 C   0  0  0  0  0  0  0  0  0  0  0  0
  -21.9840   -4.3840   23.5890 C   0  0  0  0  0  3  0  0  0  0  0  0
  -22.1120   -5.1910   22.4440 C   0  0  0  0  0  0  0  0  0  0  0  0
  -22.4880   -4.6330   21.2690 F   0  0  0  0  0  0  0  0  0  0  0  0
  -21.4470   -4.1740   25.9060 F   0  0  0  0  0  0  0  0  0  0  0  0
  -23.1720  -13.9220   21.1400 C   0  0  0  0  0  0  0  0  0  0  0  0
  -22.4590  -13.2380   22.0270 N   0  0  0  0  0  0  0  0  0  0  0  0
  -22.7430  -14.9670   20.6500 O   0  0  0  0  0  0  0  0  0  0  0  0
  -22.8190  -12.3910   22.4440 H   0  0  0  0  0  0  0  0  0  0  0  0
  -21.5420  -13.5650   22.2980 H   0  0  0  0  0  0  0  0  0  0  0  0
  -25.8010  -15.5220   20.2360 N   0  0  0  0  0  0  0  0  0  0  0  0
  -25.0400  -16.1790   20.3700 H   0  0  0  0  0  0  0  0  0  0  0  0
  -26.6150  -15.9350   19.8030 H   0  0  0  0  0  0  0  0  0  0  0  0
  1  2  1  0
  2  4  1  0
  2  3  1  0
  5  2  1  0
  6  7  1  0
  6  5  1  0
  8 10  1  0
  8  7  1  0
  9 20  2  0
 10 15  1  0
 11 19  1  0
 11 21  1  0
 12 18  1  0
 12 14  1  0
 13 19  1  0
 14 13  1  0
 15 14  2  0
 16 17  1  0
 16 10  2  0
 17 12  2  0
 18 11  1  0
 19  9  1  0
 21 23  2  0
 22 21  1  0
 24 22  1  0
 25 34  2  0
 25 30  1  0
 26 22  1  0
 26 30  1  0
 27 26  1  0
 28 29  1  0
 28 27  1  0
 29 25  1  0
 30 31  2  0
 31 32  1  0
 33 32  2  0
 34 33  1  0
 35  9  1  0
 35 36  1  0
 35 45  1  0
 36 39  1  0
 37 41  1  0
 37 36  1  0
 38 37  2  0
 41 40  1  0
 43 41  1  0
 43 44  1  0
 43 42  1  0
 45 48  1  1
 45 46  1  0
 47 45  1  0
 49 50  2  0
 49  1  1  0
 51 53  1  0
 51 50  1  0
 52 51  1  0
 54 67  1  0
 55 60  1  0
 56 57  1  0
 56 55  1  0
 58 57  1  0
 58 71  1  0
 58 59  1  0
 60 54  1  0
 60 59  1  0
 61 54  2  0
 64 62  1  1
 64 67  1  0
 64 63  1  0
 65 62  1  6
 65 64  1  0
 65 67  1  0
 65 66  1  0
 66 63  1  0
 66 51  1  0
 68 69  2  0
 69 88  1  0
 70 69  1  0
 70 73  1  0
 71 72  1  0
 71 68  1  0
 72 70  2  0
 73 74  1  0
 74 75  2  0
 76 79  1  0
 76 75  1  0
 77 76  2  0
 78 77  1  0
 78 73  2  0
 79 80  1  0
 80 81  1  0
 81 82  2  0
 83 82  1  0
 83 87  1  0
 84 83  2  0
 85 80  2  0
 85 84  1  0
 86 85  1  0
 88 89  1  0
 89 92  1  0
 89 91  1  0
 90 88  2  0
 93 94  1  0
 93 68  1  0
 95 93  1  0
M  ISO  4   7 101   8 101  54 100  67 100
M  END
>  <TORSDO>  (25) 
F 23

>  <SCORE>  (25) 
-12.349

>  <name>  (25) 
24

>  <ligand_id>  (25) 
24

>  <original_smiles>  (25) 
[H]c1c([H])c([H])c2c(c1[H])C([H])([H])C([H])([H])C([H])([H])C2([H])N([H])C(=O)C1([H])N(C(=O)C([H])(N([H])C(=O)C([H])(N([H])C([H])([H])[H])C([H])([H])[H])C(C([H])([H])[H])(C([H])([H])[H])C([H])([H])[H])C([H])([H])c2c([H])c(OC([H])([H])C([H])([H])C([H])([H])[N+]([H])([H])C([H])([H])C([H])([H])C([H])([H])[N+]([H])([H])C3([H])C([H])([H])C4([H])N(C(=O)N5C([H])([H])C([H])([H])C([H])([H])C([H])(n6nc(-c7c([H])c([H])c(Oc8c([H])c([H])c(F)c([H])c8F)c([H])c7[H])c(C(=O)N([H])[H])c6N([H])[H])C5([H])[H])C3([H])C4([H])[H])c([H])c([H])c2C1([H])[H]

>  <smiles>  (25) 
[H]c1c([H])c([H])c2c(c1[H])C([H])([H])C([H])([H])C([H])([H])C2([H])N([H])C(=O)C1([H])N(C(=O)C([H])(N([H])C(=O)C([H])(N([H])C([H])([H])[H])C([H])([H])[H])C(C([H])([H])[H])(C([H])([H])[H])C([H])([H])[H])C([H])([H])c2c([H])c(OC([H])([H])C([H])([H])C([H])([H])[N+]([H])([H])C([H])([H])C([H])([H])C([H])([H])[N+]([H])([H])C3([H])C([H])([H])C4([H])N(C(=O)N5C([H])([H])C([H])([H])C([H])([H])C([H])(n6nc(-c7c([H])c([H])c(Oc8c([H])c([H])c(F)c([H])c8F)c([H])c7[H])c(C(=O)N([H])[H])c6N([H])[H])C5([H])[H])C3([H])C4([H])[H])c([H])c([H])c2C1([H])[H]

$$$$
25:0:0
     RDKit          3D

 93100  0  0  1  0  0  0  0  0999 V2000
  -28.0590  -22.0590   21.3460 C   0  0  0  0  0  2  0  0  0  0  0  0
  -27.7950  -23.2110   20.4610 N   0  0  0  0  0  4  0  0  0  0  0  0
  -26.7990  -23.2380   20.2950 H   0  0  0  0  0  0  0  0  0  0  0  0
  -28.2330  -23.0360   19.5700 H   0  0  0  0  0  0  0  0  0  0  0  0
  -28.1980  -24.5470   20.9610 C   0  0  0  0  0  2  0  0  0  0  0  0
  -28.4780  -25.5030   19.7820 C   0  0  0  0  0  2  0  0  0  0  0  0
  -28.3800  -26.8710   20.1620 O   0  0  0  0  0  0  0  0  0  0  0  0
  -24.5640  -31.9480   23.2500 C   0  0  0  0  0  0  0  0  0  0  0  0
  -27.1650  -27.5220   20.1500 C   0  0  0  0  0  0  0  0  0  0  0  0
  -23.3300  -30.5540   21.6200 C   0  0  0  0  0  3  0  0  0  0  0  0
  -24.7610  -29.0130   20.1790 C   0  0  0  0  0  0  0  0  0  0  0  0
  -25.8480  -30.9210   21.3770 C   0  0  0  0  0  2  0  0  0  0  0  0
  -25.9230  -29.5450   20.7500 C   0  0  0  0  0  0  0  0  0  0  0  0
  -27.1260  -28.8070   20.7280 C   0  0  0  0  0  3  0  0  0  0  0  0
  -25.9790  -26.9940   19.5810 C   0  0  0  0  0  3  0  0  0  0  0  0
  -24.7830  -27.7370   19.5910 C   0  0  0  0  0  3  0  0  0  0  0  0
  -23.5170  -29.8670   20.2400 C   0  0  0  0  0  2  0  0  0  0  0  0
  -24.6020  -31.1540   22.1440 N   0  0  0  0  0  0  0  0  0  0  0  0
  -23.4910  -32.2240   23.8040 O   0  0  0  0  0  0  0  0  0  0  0  0
  -22.6870  -29.5370   22.5900 C   0  0  0  0  0  0  0  0  0  0  0  0
  -21.3630  -29.3490   22.4620 N   0  0  0  0  0  0  0  0  0  0  0  0
  -23.3750  -28.9190   23.4070 O   0  0  0  0  0  0  0  0  0  0  0  0
  -20.8760  -29.9000   21.7710 H   0  0  0  0  0  0  0  0  0  0  0  0
  -17.9990  -28.1180   22.9390 C   0  0  0  0  0  0  0  0  0  0  0  0
  -20.5490  -28.4130   23.2340 C   0  0  0  0  0  3  0  0  0  0  0  0
  -20.6780  -26.9770   22.6790 C   0  0  0  0  0  2  0  0  0  0  0  0
  -19.5900  -26.6210   21.6600 C   0  0  0  0  0  2  0  0  0  0  0  0
  -18.1980  -26.7620   22.2840 C   0  0  0  0  0  2  0  0  0  0  0  0
  -19.1050  -28.8990   23.3700 C   0  0  0  0  0  0  0  0  0  0  0  0
  -18.8660  -30.1670   23.9450 C   0  0  0  0  0  3  0  0  0  0  0  0
  -17.5560  -30.6570   24.0880 C   0  0  0  0  0  3  0  0  0  0  0  0
  -16.4630  -29.8760   23.6710 C   0  0  0  0  0  3  0  0  0  0  0  0
  -16.6850  -28.6070   23.1050 C   0  0  0  0  0  3  0  0  0  0  0  0
  -25.8580  -32.5700   23.8610 C   0  0  0  0  0  3  0  0  0  0  0  0
  -26.3880  -31.7890   25.1270 C   0  0  1  0  0  0  0  0  0  0  0  0
  -25.3020  -31.5410   26.2010 C   0  0  0  0  0  1  0  0  0  0  0  0
  -26.9680  -30.4160   24.7170 C   0  0  0  0  0  1  0  0  0  0  0  0
  -27.5550  -32.5700   25.7770 C   0  0  0  0  0  1  0  0  0  0  0  0
  -25.5590  -33.9690   24.1970 N   0  0  0  0  0  0  0  0  0  0  0  0
  -25.8990  -35.0200   23.4370 C   0  0  0  0  0  0  0  0  0  0  0  0
  -26.5680  -34.9130   22.4060 O   0  0  0  0  0  0  0  0  0  0  0  0
  -24.9550  -34.1220   24.9920 H   0  0  0  0  0  0  0  0  0  0  0  0
  -24.1850  -36.8260   23.0880 C   0  0  0  0  0  1  0  0  0  0  0  0
  -25.4240  -36.4110   23.8970 C   0  0  0  0  0  3  0  0  0  0  0  0
  -27.5710  -37.2720   24.7210 C   0  0  0  0  0  1  0  0  0  0  0  0
  -26.4670  -37.4540   23.7820 N   0  0  0  0  0  0  0  0  0  0  0  0
  -26.0730  -38.3800   23.9320 H   0  0  0  0  0  0  0  0  0  0  0  0
  -29.4980  -21.5030   21.2020 C   0  0  0  0  0  2  0  0  0  0  0  0
  -29.6070  -20.0640   21.7470 C   0  0  0  0  0  2  0  0  0  0  0  0
  -30.8430  -19.2560   21.2840 C   0  0  0  0  0  2  0  0  0  0  0  0
  -30.6760  -17.8230   21.6310 N   0  0  0  0  0  4  0  0  0  0  0  0
  -29.8250  -17.4850   21.2120 H   0  0  0  0  0  0  0  0  0  0  0  0
  -30.5800  -17.7480   22.6310 H   0  0  0  0  0  0  0  0  0  0  0  0
  -31.7730  -16.9280   21.2080 C   0  0  0  0  0  2  0  0  0  0  0  0
  -31.5670  -15.4850   21.7220 C   0  0  0  0  0  2  0  0  0  0  0  0
  -30.6150  -14.1150   19.8770 C   0  0  0  0  0  0  0  0  0  0  0  0
  -30.0860  -12.0360   18.6580 C   0  0  0  0  0  2  0  0  0  0  0  0
  -29.0290  -12.2010   17.5530 C   0  0  0  0  0  2  0  0  0  0  0  0
  -27.6120  -12.0520   18.1320 C   0  0  0  0  0  2  0  0  0  0  0  0
  -27.3910  -12.9450   19.3800 C   0  0  0  0  0  3  0  0  0  0  0  0
  -28.5410  -12.7720   20.3990 C   0  0  0  0  0  2  0  0  0  0  0  0
  -29.8230  -13.0230   19.7160 N   0  0  0  0  0  0  0  0  0  0  0  0
  -31.5090  -14.4280   19.0870 O   0  0  0  0  0  0  0  0  0  0  0  0
  -30.4900  -14.7360   21.0610 N   0  0  0  0  0  0  0  0  0  0  0  0
  -29.7330  -14.4090   21.6460 H   0  0  0  0  0  0  0  0  0  0  0  0
  -25.0680  -13.5850   20.2940 C   0  0  0  0  0  0  0  0  0  0  0  0
  -24.0350  -12.8270   20.7760 C   0  0  0  0  0  0  0  0  0  0  0  0
  -24.4850  -11.4730   20.7330 C   0  0  0  0  0  0  0  0  0  0  0  0
  -26.0840  -12.6920   19.9870 N   0  0  0  0  0  0  0  0  0  0  0  0
  -25.7400  -11.4190   20.3070 N   0  0  0  0  0  0  0  0  0  0  0  0
  -23.7760  -10.2190   21.0180 C   0  0  0  0  0  0  0  0  0  0  0  0
  -24.2760   -9.2830   21.9500 C   0  0  0  0  0  3  0  0  0  0  0  0
  -23.5650   -8.0930   22.2200 C   0  0  0  0  0  3  0  0  0  0  0  0
  -22.3410   -7.8310   21.5620 C   0  0  0  0  0  0  0  0  0  0  0  0
  -21.8580   -8.7560   20.6210 C   0  0  0  0  0  3  0  0  0  0  0  0
  -22.5680   -9.9390   20.3470 C   0  0  0  0  0  3  0  0  0  0  0  0
  -21.5960   -6.6910   21.7430 O   0  0  0  0  0  0  0  0  0  0  0  0
  -21.6240   -5.9930   22.9220 C   0  0  0  0  0  0  0  0  0  0  0  0
  -21.2960   -6.5980   24.1540 C   0  0  0  0  0  3  0  0  0  0  0  0
  -21.2700   -5.8270   25.3320 C   0  0  0  0  0  3  0  0  0  0  0  0
  -21.5620   -4.4490   25.2810 C   0  0  0  0  0  0  0  0  0  0  0  0
  -21.8860   -3.8440   24.0540 C   0  0  0  0  0  3  0  0  0  0  0  0
  -21.9120   -4.6140   22.8770 C   0  0  0  0  0  0  0  0  0  0  0  0
  -22.2050   -4.0200   21.6950 F   0  0  0  0  0  0  0  0  0  0  0  0
  -21.5300   -3.7060   26.4130 F   0  0  0  0  0  0  0  0  0  0  0  0
  -22.6730  -13.3200   21.1690 C   0  0  0  0  0  0  0  0  0  0  0  0
  -22.0280  -12.6490   22.1180 N   0  0  0  0  0  0  0  0  0  0  0  0
  -22.1890  -14.3330   20.6650 O   0  0  0  0  0  0  0  0  0  0  0  0
  -22.4340  -11.8280   22.5430 H   0  0  0  0  0  0  0  0  0  0  0  0
  -21.1190  -12.9620   22.4250 H   0  0  0  0  0  0  0  0  0  0  0  0
  -25.2230  -14.9500   20.0710 N   0  0  0  0  0  0  0  0  0  0  0  0
  -24.4780  -15.6170   20.2420 H   0  0  0  0  0  0  0  0  0  0  0  0
  -26.0480  -15.3730   19.6640 H   0  0  0  0  0  0  0  0  0  0  0  0
  2  5  1  0
  2  1  1  0
  3  2  1  0
  4  2  1  0
  6  7  1  0
  6  5  1  0
  8 19  2  0
  9  7  1  0
  9 14  1  0
 10 18  1  0
 10 20  1  0
 11 17  1  0
 11 13  1  0
 12 18  1  0
 13 12  1  0
 14 13  2  0
 15 16  1  0
 15  9  2  0
 16 11  2  0
 17 10  1  0
 18  8  1  0
 20 22  2  0
 21 20  1  0
 23 21  1  0
 24 33  2  0
 24 29  1  0
 25 21  1  0
 25 29  1  0
 26 25  1  0
 27 28  1  0
 27 26  1  0
 28 24  1  0
 29 30  2  0
 30 31  1  0
 32 31  2  0
 33 32  1  0
 34  8  1  0
 34 39  1  0
 34 35  1  0
 35 38  1  1
 35 36  1  0
 37 35  1  0
 39 42  1  0
 40 44  1  0
 40 39  1  0
 41 40  2  0
 44 43  1  0
 46 44  1  0
 46 47  1  0
 46 45  1  0
 48  1  1  0
 48 49  1  0
 50 51  1  0
 50 49  1  0
 51 53  1  0
 52 51  1  0
 54 51  1  0
 54 55  1  0
 56 64  1  0
 57 62  1  0
 58 59  1  0
 58 57  1  0
 60 59  1  0
 60 69  1  0
 60 61  1  0
 62 56  1  0
 62 61  1  0
 63 56  2  0
 64 65  1  0
 64 55  1  0
 66 67  2  0
 67 86  1  0
 68 67  1  0
 68 71  1  0
 69 66  1  0
 69 70  1  0
 70 68  2  0
 71 72  1  0
 72 73  2  0
 74 77  1  0
 74 73  1  0
 75 74  2  0
 76 75  1  0
 76 71  2  0
 77 78  1  0
 78 79  1  0
 79 80  2  0
 81 80  1  0
 81 85  1  0
 82 81  2  0
 83 78  2  0
 83 82  1  0
 84 83  1  0
 86 87  1  0
 87 90  1  0
 87 89  1  0
 88 86  2  0
 91 92  1  0
 91 66  1  0
 93 91  1  0
M  ISO  4   6 101   7 101  56 100  64 100
M  END
>  <TORSDO>  (26) 
F 25

>  <SCORE>  (26) 
-10.804

>  <name>  (26) 
25

>  <ligand_id>  (26) 
25

>  <original_smiles>  (26) 
[H]c1c([H])c([H])c2c(c1[H])C([H])([H])C([H])([H])C([H])([H])C2([H])N([H])C(=O)C1([H])N(C(=O)C([H])(N([H])C(=O)C([H])(N([H])C([H])([H])[H])C([H])([H])[H])C(C([H])([H])[H])(C([H])([H])[H])C([H])([H])[H])C([H])([H])c2c([H])c(OC([H])([H])C([H])([H])[N+]([H])([H])C([H])([H])C([H])([H])C([H])([H])C([H])([H])[N+]([H])([H])C([H])([H])C([H])([H])N([H])C(=O)N3C([H])([H])C([H])([H])C([H])([H])C([H])(n4nc(-c5c([H])c([H])c(Oc6c([H])c([H])c(F)c([H])c6F)c([H])c5[H])c(C(=O)N([H])[H])c4N([H])[H])C3([H])[H])c([H])c([H])c2C1([H])[H]

>  <smiles>  (26) 
[H]c1c([H])c([H])c2c(c1[H])C([H])([H])C([H])([H])C([H])([H])C2([H])N([H])C(=O)C1([H])N(C(=O)C([H])(N([H])C(=O)C([H])(N([H])C([H])([H])[H])C([H])([H])[H])C(C([H])([H])[H])(C([H])([H])[H])C([H])([H])[H])C([H])([H])c2c([H])c(OC([H])([H])C([H])([H])[N+]([H])([H])C([H])([H])C([H])([H])C([H])([H])C([H])([H])[N+]([H])([H])C([H])([H])C([H])([H])N([H])C(=O)N3C([H])([H])C([H])([H])C([H])([H])C([H])(n4nc(-c5c([H])c([H])c(Oc6c([H])c([H])c(F)c([H])c6F)c([H])c5[H])c(C(=O)N([H])[H])c4N([H])[H])C3([H])[H])c([H])c([H])c2C1([H])[H]

$$$$
26:0:0
     RDKit          3D

 91 98  0  0  1  0  0  0  0  0999 V2000
  -29.2930  -23.2190   18.8990 N   0  0  0  0  0  4  0  0  0  0  0  0
  -28.3720  -23.5490   18.6550 H   0  0  0  0  0  0  0  0  0  0  0  0
  -29.8120  -23.1070   18.0430 H   0  0  0  0  0  0  0  0  0  0  0  0
  -29.9950  -24.2140   19.7460 C   0  0  0  0  0  2  0  0  0  0  0  0
  -30.2190  -25.5760   19.0540 C   0  0  0  0  0  2  0  0  0  0  0  0
  -28.9430  -26.4040   18.8410 C   0  0  0  0  0  2  0  0  0  0  0  0
  -28.4360  -26.7870   20.1110 O   0  0  0  0  0  0  0  0  0  0  0  0
  -24.6250  -31.8930   23.2160 C   0  0  0  0  0  0  0  0  0  0  0  0
  -27.2570  -27.4880   20.1040 C   0  0  0  0  0  0  0  0  0  0  0  0
  -23.4020  -30.4880   21.5870 C   0  0  0  0  0  3  0  0  0  0  0  0
  -24.8450  -28.9510   20.1500 C   0  0  0  0  0  0  0  0  0  0  0  0
  -25.9190  -30.8570   21.3600 C   0  0  0  0  0  2  0  0  0  0  0  0
  -26.0030  -29.4850   20.7280 C   0  0  0  0  0  0  0  0  0  0  0  0
  -27.2070  -28.7550   20.7180 C   0  0  0  0  0  3  0  0  0  0  0  0
  -26.0850  -26.9510   19.5260 C   0  0  0  0  0  3  0  0  0  0  0  0
  -24.8800  -27.6780   19.5480 C   0  0  0  0  0  3  0  0  0  0  0  0
  -23.5970  -29.8030   20.2060 C   0  0  0  0  0  2  0  0  0  0  0  0
  -24.6680  -31.0920   22.1140 N   0  0  0  0  0  0  0  0  0  0  0  0
  -23.5500  -32.1640   23.7690 O   0  0  0  0  0  0  0  0  0  0  0  0
  -22.7650  -29.4650   22.5560 C   0  0  0  0  0  0  0  0  0  0  0  0
  -21.4400  -29.2820   22.4420 N   0  0  0  0  0  0  0  0  0  0  0  0
  -23.4580  -28.8430   23.3630 O   0  0  0  0  0  0  0  0  0  0  0  0
  -20.9410  -29.8400   21.7620 H   0  0  0  0  0  0  0  0  0  0  0  0
  -18.0730  -28.0870   22.9630 C   0  0  0  0  0  0  0  0  0  0  0  0
  -20.6310  -28.3470   23.2220 C   0  0  0  0  0  3  0  0  0  0  0  0
  -20.7320  -26.9150   22.6520 C   0  0  0  0  0  2  0  0  0  0  0  0
  -19.6270  -26.5850   21.6440 C   0  0  0  0  0  2  0  0  0  0  0  0
  -18.2470  -26.7350   22.2950 C   0  0  0  0  0  2  0  0  0  0  0  0
  -19.1920  -28.8520   23.3850 C   0  0  0  0  0  0  0  0  0  0  0  0
  -18.9770  -30.1190   23.9680 C   0  0  0  0  0  3  0  0  0  0  0  0
  -17.6720  -30.6210   24.1370 C   0  0  0  0  0  3  0  0  0  0  0  0
  -16.5660  -29.8540   23.7330 C   0  0  0  0  0  3  0  0  0  0  0  0
  -16.7680  -28.5890   23.1510 C   0  0  0  0  0  3  0  0  0  0  0  0
  -25.9210  -32.5250   23.8190 C   0  0  0  0  0  3  0  0  0  0  0  0
  -26.4640  -31.7450   25.0770 C   0  0  1  0  0  0  0  0  0  0  0  0
  -25.3930  -31.4930   26.1630 C   0  0  0  0  0  1  0  0  0  0  0  0
  -27.0460  -30.3770   24.6560 C   0  0  0  0  0  1  0  0  0  0  0  0
  -27.6230  -32.5380   25.7270 C   0  0  0  0  0  1  0  0  0  0  0  0
  -25.6130  -33.9190   24.1650 N   0  0  0  0  0  0  0  0  0  0  0  0
  -25.9310  -34.9780   23.4090 C   0  0  0  0  0  0  0  0  0  0  0  0
  -26.5870  -34.8850   22.3680 O   0  0  0  0  0  0  0  0  0  0  0  0
  -25.0340  -34.0640   24.9790 H   0  0  0  0  0  0  0  0  0  0  0  0
  -24.1920  -36.7620   23.0880 C   0  0  0  0  0  1  0  0  0  0  0  0
  -25.4440  -36.3600   23.8840 C   0  0  0  0  0  3  0  0  0  0  0  0
  -27.5850  -37.2430   24.6940 C   0  0  0  0  0  1  0  0  0  0  0  0
  -26.4700  -37.4170   23.7690 N   0  0  0  0  0  0  0  0  0  0  0  0
  -26.0610  -38.3320   23.9340 H   0  0  0  0  0  0  0  0  0  0  0  0
  -29.1370  -21.8940   19.5400 C   0  0  0  0  0  2  0  0  0  0  0  0
  -29.0290  -20.7510   18.5110 C   0  0  0  0  0  2  0  0  0  0  0  0
  -28.5430  -19.4130   19.1030 C   0  0  0  0  0  2  0  0  0  0  0  0
  -29.3500  -18.8880   20.3110 C   0  0  0  0  0  2  0  0  0  0  0  0
  -29.4840  -17.3610   20.2740 C   0  0  0  0  0  2  0  0  0  0  0  0
  -30.1560  -16.7300   21.5090 C   0  0  0  0  0  2  0  0  0  0  0  0
  -30.6550  -14.4230   20.6340 C   0  0  0  0  0  0  0  0  0  0  0  0
  -30.3780  -12.3350   19.3480 C   0  0  0  0  0  2  0  0  0  0  0  0
  -29.4290  -12.5730   18.1540 C   0  0  0  0  0  2  0  0  0  0  0  0
  -27.9490  -12.4260   18.5630 C   0  0  0  0  0  2  0  0  0  0  0  0
  -27.6170  -13.2160   19.8560 C   0  0  0  0  0  3  0  0  0  0  0  0
  -28.6580  -12.9210   20.9600 C   0  0  0  0  0  2  0  0  0  0  0  0
  -29.9940  -13.2510   20.4290 N   0  0  0  0  0  0  0  0  0  0  0  0
  -31.7070  -14.7200   20.0570 O   0  0  0  0  0  0  0  0  0  0  0  0
  -30.0150  -15.2750   21.4500 N   0  0  0  0  0  0  0  0  0  0  0  0
  -29.2150  -14.8960   21.9370 H   0  0  0  0  0  0  0  0  0  0  0  0
  -25.2090  -13.8410   20.5150 C   0  0  0  0  0  0  0  0  0  0  0  0
  -24.1350  -13.0770   20.8790 C   0  0  0  0  0  0  0  0  0  0  0  0
  -24.5900  -11.7230   20.8690 C   0  0  0  0  0  0  0  0  0  0  0  0
  -26.2530  -12.9530   20.3120 N   0  0  0  0  0  0  0  0  0  0  0  0
  -25.8820  -11.6740   20.5760 N   0  0  0  0  0  0  0  0  0  0  0  0
  -23.8590  -10.4640   21.0630 C   0  0  0  0  0  0  0  0  0  0  0  0
  -24.3030   -9.4900   21.9840 C   0  0  0  0  0  3  0  0  0  0  0  0
  -23.5740   -8.2960   22.1680 C   0  0  0  0  0  3  0  0  0  0  0  0
  -22.3880   -8.0710   21.4250 C   0  0  0  0  0  0  0  0  0  0  0  0
  -21.9650   -9.0320   20.4910 C   0  0  0  0  0  3  0  0  0  0  0  0
  -22.6950  -10.2190   20.3080 C   0  0  0  0  0  3  0  0  0  0  0  0
  -21.6240   -6.9320   21.5170 O   0  0  0  0  0  0  0  0  0  0  0  0
  -21.6030   -6.1680   22.6570 C   0  0  0  0  0  0  0  0  0  0  0  0
  -21.2350   -6.7050   23.9100 C   0  0  0  0  0  3  0  0  0  0  0  0
  -21.1680   -5.8680   25.0400 C   0  0  0  0  0  3  0  0  0  0  0  0
  -21.4510   -4.4930   24.9170 C   0  0  0  0  0  0  0  0  0  0  0  0
  -21.8150   -3.9550   23.6710 C   0  0  0  0  0  3  0  0  0  0  0  0
  -21.8870   -4.7900   22.5430 C   0  0  0  0  0  0  0  0  0  0  0  0
  -22.2130   -4.2640   21.3380 F   0  0  0  0  0  0  0  0  0  0  0  0
  -21.3750   -3.6890   26.0020 F   0  0  0  0  0  0  0  0  0  0  0  0
  -22.7400  -13.5590   21.1400 C   0  0  0  0  0  0  0  0  0  0  0  0
  -22.0050  -12.8720   22.0100 N   0  0  0  0  0  0  0  0  0  0  0  0
  -22.3090  -14.5810   20.6080 O   0  0  0  0  0  0  0  0  0  0  0  0
  -22.3640  -12.0460   22.4630 H   0  0  0  0  0  0  0  0  0  0  0  0
  -21.0680  -13.1790   22.2220 H   0  0  0  0  0  0  0  0  0  0  0  0
  -25.3790  -15.2110   20.3290 N   0  0  0  0  0  0  0  0  0  0  0  0
  -24.6080  -15.8650   20.4190 H   0  0  0  0  0  0  0  0  0  0  0  0
  -26.2420  -15.6570   20.0480 H   0  0  0  0  0  0  0  0  0  0  0  0
  1 48  1  0
  1  4  1  0
  2  1  1  0
  3  1  1  0
  5  4  1  0
  6  5  1  0
  6  7  1  0
  8 19  2  0
  9  7  1  0
  9 14  1  0
 10 18  1  0
 10 20  1  0
 11 17  1  0
 11 13  1  0
 12 18  1  0
 13 12  1  0
 14 13  2  0
 15 16  1  0
 15  9  2  0
 16 11  2  0
 17 10  1  0
 18  8  1  0
 20 22  2  0
 21 20  1  0
 23 21  1  0
 24 33  2  0
 24 29  1  0
 25 21  1  0
 25 29  1  0
 26 25  1  0
 27 28  1  0
 27 26  1  0
 28 24  1  0
 29 30  2  0
 30 31  1  0
 32 31  2  0
 33 32  1  0
 34  8  1  0
 34 39  1  0
 34 35  1  0
 35 38  1  1
 35 36  1  0
 37 35  1  0
 39 42  1  0
 40 44  1  0
 40 39  1  0
 41 40  2  0
 44 43  1  0
 46 44  1  0
 46 47  1  0
 46 45  1  0
 49 50  1  0
 49 48  1  0
 50 51  1  0
 52 51  1  0
 52 53  1  0
 54 62  1  0
 55 60  1  0
 56 57  1  0
 56 55  1  0
 58 57  1  0
 58 67  1  0
 58 59  1  0
 60 54  1  0
 60 59  1  0
 61 54  2  0
 62 53  1  0
 62 63  1  0
 64 65  2  0
 65 84  1  0
 66 65  1  0
 66 69  1  0
 67 64  1  0
 67 68  1  0
 68 66  2  0
 69 70  1  0
 70 71  2  0
 72 75  1  0
 72 71  1  0
 73 72  2  0
 74 73  1  0
 74 69  2  0
 75 76  1  0
 76 77  1  0
 77 78  2  0
 79 78  1  0
 79 83  1  0
 80 79  2  0
 81 76  2  0
 81 80  1  0
 82 81  1  0
 84 85  1  0
 85 88  1  0
 85 87  1  0
 86 84  2  0
 89 90  1  0
 89 64  1  0
 91 89  1  0
M  ISO  4   6 101   7 101  54 100  62 100
M  END
>  <TORSDO>  (27) 
F 25

>  <SCORE>  (27) 
-12.077

>  <name>  (27) 
26

>  <ligand_id>  (27) 
26

>  <original_smiles>  (27) 
[H]c1c([H])c([H])c2c(c1[H])C([H])([H])C([H])([H])C([H])([H])C2([H])N([H])C(=O)C1([H])N(C(=O)C([H])(N([H])C(=O)C([H])(N([H])C([H])([H])[H])C([H])([H])[H])C(C([H])([H])[H])(C([H])([H])[H])C([H])([H])[H])C([H])([H])c2c([H])c(OC([H])([H])C([H])([H])C([H])([H])[N+]([H])([H])C([H])([H])C([H])([H])C([H])([H])C([H])([H])C([H])([H])C([H])([H])N([H])C(=O)N3C([H])([H])C([H])([H])C([H])([H])C([H])(n4nc(-c5c([H])c([H])c(Oc6c([H])c([H])c(F)c([H])c6F)c([H])c5[H])c(C(=O)N([H])[H])c4N([H])[H])C3([H])[H])c([H])c([H])c2C1([H])[H]

>  <smiles>  (27) 
[H]c1c([H])c([H])c2c(c1[H])C([H])([H])C([H])([H])C([H])([H])C2([H])N([H])C(=O)C1([H])N(C(=O)C([H])(N([H])C(=O)C([H])(N([H])C([H])([H])[H])C([H])([H])[H])C(C([H])([H])[H])(C([H])([H])[H])C([H])([H])[H])C([H])([H])c2c([H])c(OC([H])([H])C([H])([H])C([H])([H])[N+]([H])([H])C([H])([H])C([H])([H])C([H])([H])C([H])([H])C([H])([H])C([H])([H])N([H])C(=O)N3C([H])([H])C([H])([H])C([H])([H])C([H])(n4nc(-c5c([H])c([H])c(Oc6c([H])c([H])c(F)c([H])c6F)c([H])c5[H])c(C(=O)N([H])[H])c4N([H])[H])C3([H])[H])c([H])c([H])c2C1([H])[H]

$$$$
27:0:0
     RDKit          3D

 94103  0  0  1  0  0  0  0  0999 V2000
  -28.5630  -21.3910   19.3040 C   0  0  0  0  0  0  0  0  0  0  0  0
  -28.3890  -22.7310   19.4370 N   0  0  0  0  0  0  0  0  0  0  0  0
  -27.7140  -20.8000   18.6360 O   0  0  0  0  0  0  0  0  0  0  0  0
  -27.5500  -23.0050   18.9470 H   0  0  0  0  0  0  0  0  0  0  0  0
  -30.9610  -14.6240   19.6870 C   0  0  0  0  0  0  0  0  0  0  0  0
  -30.4860  -12.4390   18.6190 C   0  0  0  0  0  2  0  0  0  0  0  0
  -29.4040  -12.6050   17.5330 C   0  0  0  0  0  2  0  0  0  0  0  0
  -28.0030  -12.4440   18.1500 C   0  0  0  0  0  2  0  0  0  0  0  0
  -27.8110  -13.2890   19.4380 C   0  0  0  0  0  3  0  0  0  0  0  0
  -29.0070  -13.1430   20.4010 C   0  0  0  0  0  2  0  0  0  0  0  0
  -30.2330  -13.4640   19.6520 N   0  0  0  0  0  0  0  0  0  0  0  0
  -32.0530  -14.6920   19.1140 O   0  0  0  0  0  0  0  0  0  0  0  0
  -28.9360  -17.1210   21.6170 C   0  0  0  0  0  2  0  0  0  0  0  0
  -29.3950  -19.7110   21.1440 C   0  0  0  0  0  2  0  0  0  0  0  0
  -30.1600  -16.1870   21.4420 C   0  0  0  0  0  2  0  0  0  0  0  0
  -30.6950  -17.0440   19.3010 C   0  0  0  0  0  2  0  0  0  0  0  0
  -29.7310  -20.5270   19.8640 C   0  0  0  0  0  3  0  0  0  0  0  0
  -28.8760  -18.3430   20.6520 C   0  0  0  0  0  3  0  0  0  0  0  0
  -29.5740  -18.1290   19.2980 C   0  0  0  0  0  3  0  0  0  0  0  0
  -30.3340  -15.7960   20.0320 N   0  0  0  0  0  0  0  0  0  0  0  0
  -30.0510  -19.4780   18.8550 N   0  0  0  0  0  4  0  0  0  0  0  0
  -31.0400  -19.4820   18.6710 H   0  0  0  0  0  0  0  0  0  0  0  0
  -29.5630  -19.7560   18.0170 H   0  0  0  0  0  0  0  0  0  0  0  0
  -25.5920  -13.8580   20.5990 C   0  0  0  0  0  0  0  0  0  0  0  0
  -24.5610  -13.0760   21.0420 C   0  0  0  0  0  0  0  0  0  0  0  0
  -24.9460  -11.7260   20.7750 C   0  0  0  0  0  0  0  0  0  0  0  0
  -26.5450  -12.9860   20.0980 N   0  0  0  0  0  0  0  0  0  0  0  0
  -26.1690  -11.6900   20.2610 N   0  0  0  0  0  0  0  0  0  0  0  0
  -24.1980  -10.4700   20.9280 C   0  0  0  0  0  0  0  0  0  0  0  0
  -24.6490   -9.4390   21.7800 C   0  0  0  0  0  3  0  0  0  0  0  0
  -23.9020   -8.2510   21.9260 C   0  0  0  0  0  3  0  0  0  0  0  0
  -22.6870   -8.0850   21.2180 C   0  0  0  0  0  0  0  0  0  0  0  0
  -22.2540   -9.1070   20.3540 C   0  0  0  0  0  3  0  0  0  0  0  0
  -23.0020  -10.2860   20.2070 C   0  0  0  0  0  3  0  0  0  0  0  0
  -21.9090   -6.9560   21.2760 O   0  0  0  0  0  0  0  0  0  0  0  0
  -21.7840   -6.2260   22.4320 C   0  0  0  0  0  0  0  0  0  0  0  0
  -21.3030   -6.8000   23.6290 C   0  0  0  0  0  3  0  0  0  0  0  0
  -21.1250   -5.9980   24.7740 C   0  0  0  0  0  3  0  0  0  0  0  0
  -21.4170   -4.6220   24.7220 C   0  0  0  0  0  0  0  0  0  0  0  0
  -21.8920   -4.0470   23.5310 C   0  0  0  0  0  3  0  0  0  0  0  0
  -22.0720   -4.8460   22.3880 C   0  0  0  0  0  0  0  0  0  0  0  0
  -22.5080   -4.2820   21.2360 F   0  0  0  0  0  0  0  0  0  0  0  0
  -21.2390   -3.8490   25.8190 F   0  0  0  0  0  0  0  0  0  0  0  0
  -23.2490  -13.5550   21.5900 C   0  0  0  0  0  0  0  0  0  0  0  0
  -22.6460  -12.7940   22.4970 N   0  0  0  0  0  0  0  0  0  0  0  0
  -22.7730  -14.6390   21.2510 O   0  0  0  0  0  0  0  0  0  0  0  0
  -23.0470  -11.9160   22.7940 H   0  0  0  0  0  0  0  0  0  0  0  0
  -21.7730  -13.0980   22.9040 H   0  0  0  0  0  0  0  0  0  0  0  0
  -25.7900  -15.2350   20.5580 N   0  0  0  0  0  0  0  0  0  0  0  0
  -25.0780  -15.8900   20.8640 H   0  0  0  0  0  0  0  0  0  0  0  0
  -26.5910  -15.6860   20.1350 H   0  0  0  0  0  0  0  0  0  0  0  0
  -29.0450  -23.9060   20.0660 C   0  0  0  0  0  2  0  0  0  0  0  0
  -28.0760  -25.1220   19.8200 C   0  0  0  0  0  2  0  0  0  0  0  0
  -28.3250  -26.5050   20.2430 O   0  0  0  0  0  0  0  0  0  0  0  0
  -24.6340  -31.8510   23.3220 C   0  0  0  0  0  0  0  0  0  0  0  0
  -27.2130  -27.3590   20.1850 C   0  0  0  0  0  0  0  0  0  0  0  0
  -23.4170  -30.4820   21.6690 C   0  0  0  0  0  3  0  0  0  0  0  0
  -24.8530  -28.9630   20.2110 C   0  0  0  0  0  0  0  0  0  0  0  0
  -25.9540  -30.8030   21.4760 C   0  0  0  0  0  2  0  0  0  0  0  0
  -26.0260  -29.4370   20.8150 C   0  0  0  0  0  0  0  0  0  0  0  0
  -27.2080  -28.6430   20.8010 C   0  0  0  0  0  3  0  0  0  0  0  0
  -26.0150  -26.9490   19.5420 C   0  0  0  0  0  3  0  0  0  0  0  0
  -24.8480  -27.7210   19.5680 C   0  0  0  0  0  3  0  0  0  0  0  0
  -23.6180  -29.8350   20.2770 C   0  0  0  0  0  2  0  0  0  0  0  0
  -24.6880  -31.0580   22.2150 N   0  0  0  0  0  0  0  0  0  0  0  0
  -23.5550  -32.1240   23.8670 O   0  0  0  0  0  0  0  0  0  0  0  0
  -22.7570  -29.4490   22.6140 C   0  0  0  0  0  0  0  0  0  0  0  0
  -21.4370  -29.2510   22.4640 N   0  0  0  0  0  0  0  0  0  0  0  0
  -23.4320  -28.8310   23.4410 O   0  0  0  0  0  0  0  0  0  0  0  0
  -20.9510  -29.7990   21.7670 H   0  0  0  0  0  0  0  0  0  0  0  0
  -18.0700  -28.0120   22.9070 C   0  0  0  0  0  0  0  0  0  0  0  0
  -20.6190  -28.3060   23.2230 C   0  0  0  0  0  3  0  0  0  0  0  0
  -20.7540  -26.8760   22.6510 C   0  0  0  0  0  2  0  0  0  0  0  0
  -19.6740  -26.5360   21.6180 C   0  0  0  0  0  2  0  0  0  0  0  0
  -18.2780  -26.6640   22.2370 C   0  0  0  0  0  2  0  0  0  0  0  0
  -19.1710  -28.7890   23.3570 C   0  0  0  0  0  0  0  0  0  0  0  0
  -18.9230  -30.0490   23.9440 C   0  0  0  0  0  3  0  0  0  0  0  0
  -17.6100  -30.5340   24.0820 C   0  0  0  0  0  3  0  0  0  0  0  0
  -16.5250  -29.7530   23.6510 C   0  0  0  0  0  3  0  0  0  0  0  0
  -16.7560  -28.4930   23.0710 C   0  0  0  0  0  3  0  0  0  0  0  0
  -25.9250  -32.4690   23.9420 C   0  0  0  0  0  3  0  0  0  0  0  0
  -25.6400  -33.8800   24.2360 N   0  0  0  0  0  0  0  0  0  0  0  0
  -25.9730  -34.9040   23.4390 C   0  0  0  0  0  0  0  0  0  0  0  0
  -26.6240  -34.7600   22.4000 O   0  0  0  0  0  0  0  0  0  0  0  0
  -25.0700  -34.0650   25.0480 H   0  0  0  0  0  0  0  0  0  0  0  0
  -24.2640  -36.7080   23.0520 C   0  0  0  0  0  1  0  0  0  0  0  0
  -25.5110  -36.3130   23.8600 C   0  0  0  0  0  3  0  0  0  0  0  0
  -27.6660  -37.1960   24.6380 C   0  0  0  0  0  1  0  0  0  0  0  0
  -26.5570  -37.3460   23.7010 N   0  0  0  0  0  0  0  0  0  0  0  0
  -26.1650  -38.2760   23.8180 H   0  0  0  0  0  0  0  0  0  0  0  0
  -26.4040  -31.7180   25.2430 C   0  0  1  0  0  0  0  0  0  0  0  0
  -25.2870  -31.5220   26.2940 C   0  0  0  0  0  1  0  0  0  0  0  0
  -26.9720  -30.3250   24.8890 C   0  0  0  0  0  1  0  0  0  0  0  0
  -27.5570  -32.5050   25.9090 C   0  0  0  0  0  1  0  0  0  0  0  0
  1  2  1  0
  2 52  1  0
  3  1  2  0
  4  2  1  0
  5 20  1  0
  6 11  1  0
  7  8  1  0
  7  6  1  0
  9  8  1  0
  9 27  1  0
  9 10  1  0
 11  5  1  0
 11 10  1  0
 12  5  2  0
 15 13  1  0
 16 20  1  0
 17  1  1  0
 17 14  1  0
 18 14  1  0
 18 13  1  0
 19 16  1  0
 19 18  1  0
 20 15  1  0
 21 19  1  0
 21 17  1  0
 22 21  1  0
 23 21  1  0
 24 25  2  0
 25 44  1  0
 26 29  1  0
 26 25  1  0
 27 28  1  0
 27 24  1  0
 28 26  2  0
 29 30  1  0
 30 31  2  0
 32 35  1  0
 32 31  1  0
 33 32  2  0
 34 33  1  0
 34 29  2  0
 35 36  1  0
 36 37  1  0
 37 38  2  0
 39 38  1  0
 39 43  1  0
 40 39  2  0
 41 36  2  0
 41 40  1  0
 42 41  1  0
 44 45  1  0
 45 47  1  0
 45 48  1  0
 46 44  2  0
 49 24  1  0
 49 50  1  0
 51 49  1  0
 53 52  1  0
 53 54  1  0
 55 66  2  0
 56 54  1  0
 56 61  1  0
 57 65  1  0
 57 67  1  0
 58 64  1  0
 58 60  1  0
 59 65  1  0
 60 59  1  0
 61 60  2  0
 62 63  1  0
 62 56  2  0
 63 58  2  0
 64 57  1  0
 65 55  1  0
 67 69  2  0
 68 67  1  0
 70 68  1  0
 71 80  2  0
 71 76  1  0
 72 68  1  0
 72 76  1  0
 73 72  1  0
 74 75  1  0
 74 73  1  0
 75 71  1  0
 76 77  2  0
 77 78  1  0
 79 78  2  0
 80 79  1  0
 81 55  1  0
 81 82  1  0
 81 91  1  0
 82 85  1  0
 83 87  1  0
 83 82  1  0
 84 83  2  0
 87 86  1  0
 89 90  1  0
 89 87  1  0
 89 88  1  0
 91 94  1  1
 91 92  1  0
 93 91  1  0
M  ISO  4   5 100  20 100  53 101  54 101
M  END
>  <TORSDO>  (28) 
F 18

>  <SCORE>  (28) 
-12.737

>  <name>  (28) 
27

>  <ligand_id>  (28) 
27

>  <original_smiles>  (28) 
[H]c1c([H])c([H])c2c(c1[H])C([H])([H])C([H])([H])C([H])([H])C2([H])N([H])C(=O)C1([H])N(C(=O)C([H])(N([H])C(=O)C([H])(N([H])C([H])([H])[H])C([H])([H])[H])C(C([H])([H])[H])(C([H])([H])[H])C([H])([H])[H])C([H])([H])c2c([H])c(OC([H])([H])C([H])([H])N([H])C(=O)C3([H])C([H])([H])C4([H])C([H])([H])C([H])([H])N(C(=O)N5C([H])([H])C([H])([H])C([H])([H])C([H])(n6nc(-c7c([H])c([H])c(Oc8c([H])c([H])c(F)c([H])c8F)c([H])c7[H])c(C(=O)N([H])[H])c6N([H])[H])C5([H])[H])C([H])([H])C4([H])[N+]3([H])[H])c([H])c([H])c2C1([H])[H]

>  <smiles>  (28) 
[H]c1c([H])c([H])c2c(c1[H])C([H])([H])C([H])([H])C([H])([H])C2([H])N([H])C(=O)C1([H])N(C(=O)C([H])(N([H])C(=O)C([H])(N([H])C([H])([H])[H])C([H])([H])[H])C(C([H])([H])[H])(C([H])([H])[H])C([H])([H])[H])C([H])([H])c2c([H])c(OC([H])([H])C([H])([H])N([H])C(=O)C3([H])C([H])([H])C4([H])C([H])([H])C([H])([H])N(C(=O)N5C([H])([H])C([H])([H])C([H])([H])C([H])(n6nc(-c7c([H])c([H])c(Oc8c([H])c([H])c(F)c([H])c8F)c([H])c7[H])c(C(=O)N([H])[H])c6N([H])[H])C5([H])[H])C([H])([H])C4([H])[N+]3([H])[H])c([H])c([H])c2C1([H])[H]

$$$$
28:0:0
     RDKit          3D

 99108  0  0  1  0  0  0  0  0999 V2000
  -32.9500  -21.7700   20.2100 C   0  0  0  0  0  2  0  0  0  0  0  0
  -32.2970  -20.4170   20.4120 C   0  0  0  0  0  2  0  0  0  0  0  0
  -31.8170  -22.6420   19.6690 C   0  0  0  0  0  2  0  0  0  0  0  0
  -30.8380  -20.7400   20.7960 C   0  0  0  0  0  3  0  0  0  0  0  0
  -30.5170  -22.0490   20.1010 N   0  0  1  0  0  4  0  0  0  0  0  0
  -30.0250  -21.7930   19.2580 H   0  0  0  0  0  0  0  0  0  0  0  0
  -28.6530  -19.6650   19.9290 C   0  0  0  0  0  3  0  0  0  0  0  0
  -28.2270  -17.2780   20.1750 C   0  0  0  0  0  3  0  0  0  0  0  0
  -30.3530  -18.1840   20.8830 C   0  0  0  0  0  3  0  0  0  0  0  0
  -27.8020  -18.5520   19.7470 C   0  0  0  0  0  0  0  0  0  0  0  0
  -29.9300  -19.5080   20.5180 C   0  0  0  0  0  0  0  0  0  0  0  0
  -29.5120  -17.0460   20.7060 C   0  0  0  0  0  0  0  0  0  0  0  0
  -30.5710  -14.7560   20.5530 C   0  0  0  0  0  0  0  0  0  0  0  0
  -30.4030  -12.5870   19.3590 C   0  0  0  0  0  2  0  0  0  0  0  0
  -29.4770  -12.8110   18.1450 C   0  0  0  0  0  2  0  0  0  0  0  0
  -28.0000  -12.6060   18.5350 C   0  0  0  0  0  2  0  0  0  0  0  0
  -27.6170  -13.3710   19.8290 C   0  0  0  0  0  3  0  0  0  0  0  0
  -28.6640  -13.1480   20.9450 C   0  0  0  0  0  2  0  0  0  0  0  0
  -29.9820  -13.5290   20.4150 N   0  0  0  0  0  0  0  0  0  0  0  0
  -31.6890  -15.0000   20.0920 O   0  0  0  0  0  0  0  0  0  0  0  0
  -29.8200  -15.7100   21.1760 N   0  0  0  0  0  0  0  0  0  0  0  0
  -29.0480  -15.2780   21.6600 H   0  0  0  0  0  0  0  0  0  0  0  0
  -25.1930  -13.9050   20.5260 C   0  0  0  0  0  0  0  0  0  0  0  0
  -24.1420  -13.1040   20.8680 C   0  0  0  0  0  0  0  0  0  0  0  0
  -24.6440  -11.7680   20.8400 C   0  0  0  0  0  0  0  0  0  0  0  0
  -26.2660  -13.0570   20.2920 N   0  0  0  0  0  0  0  0  0  0  0  0
  -25.9410  -11.7670   20.5430 N   0  0  0  0  0  0  0  0  0  0  0  0
  -23.9560  -10.4870   21.0320 C   0  0  0  0  0  0  0  0  0  0  0  0
  -24.3920   -9.5510   21.9940 C   0  0  0  0  0  3  0  0  0  0  0  0
  -23.6990   -8.3350   22.1680 C   0  0  0  0  0  3  0  0  0  0  0  0
  -22.5570   -8.0480   21.3840 C   0  0  0  0  0  0  0  0  0  0  0  0
  -22.1410   -8.9770   20.4110 C   0  0  0  0  0  3  0  0  0  0  0  0
  -22.8350  -10.1860   20.2350 C   0  0  0  0  0  3  0  0  0  0  0  0
  -21.8450   -6.8790   21.4630 O   0  0  0  0  0  0  0  0  0  0  0  0
  -21.7650   -6.1610   22.6300 C   0  0  0  0  0  0  0  0  0  0  0  0
  -21.2610   -6.7290   23.8190 C   0  0  0  0  0  3  0  0  0  0  0  0
  -21.1340   -5.9380   24.9790 C   0  0  0  0  0  3  0  0  0  0  0  0
  -21.5010   -4.5790   24.9440 C   0  0  0  0  0  0  0  0  0  0  0  0
  -21.9960   -4.0090   23.7590 C   0  0  0  0  0  3  0  0  0  0  0  0
  -22.1260   -4.7980   22.6010 C   0  0  0  0  0  0  0  0  0  0  0  0
  -22.5880   -4.2420   21.4550 F   0  0  0  0  0  0  0  0  0  0  0  0
  -21.3710   -3.8140   26.0540 F   0  0  0  0  0  0  0  0  0  0  0  0
  -22.7270  -13.5420   21.1160 C   0  0  0  0  0  0  0  0  0  0  0  0
  -22.0080  -12.8330   21.9760 N   0  0  0  0  0  0  0  0  0  0  0  0
  -22.2620  -14.5490   20.5800 O   0  0  0  0  0  0  0  0  0  0  0  0
  -22.3910  -12.0190   22.4320 H   0  0  0  0  0  0  0  0  0  0  0  0
  -21.0560  -13.1100   22.1760 H   0  0  0  0  0  0  0  0  0  0  0  0
  -25.3050  -15.2810   20.3930 N   0  0  0  0  0  0  0  0  0  0  0  0
  -24.5060  -15.8860   20.5460 H   0  0  0  0  0  0  0  0  0  0  0  0
  -26.1400  -15.7970   20.1690 H   0  0  0  0  0  0  0  0  0  0  0  0
  -26.4330  -18.7200   19.1560 C   0  0  0  0  0  0  0  0  0  0  0  0
  -26.3500  -19.4760   18.0690 N   0  0  0  0  0  0  0  0  0  0  0  0
  -25.4560  -18.1360   19.6160 O   0  0  0  0  0  0  0  0  0  0  0  0
  -27.1710  -19.8970   17.6630 H   0  0  0  0  0  0  0  0  0  0  0  0
  -25.4580  -19.5790   17.6070 H   0  0  0  0  0  0  0  0  0  0  0  0
  -29.6710  -23.0510   20.8460 C   0  0  0  0  0  3  0  0  0  0  0  0
  -29.2050  -24.3200   20.0180 C   0  0  0  0  0  3  0  0  0  0  0  0
  -28.5230  -25.4560   20.8570 C   0  0  0  0  0  2  0  0  0  0  0  0
  -28.5620  -26.7950   20.2890 O   0  0  0  0  0  0  0  0  0  0  0  0
  -24.6440  -31.9890   23.3370 C   0  0  0  0  0  0  0  0  0  0  0  0
  -27.3880  -27.5330   20.3150 C   0  0  0  0  0  0  0  0  0  0  0  0
  -23.4780  -30.5630   21.6860 C   0  0  0  0  0  3  0  0  0  0  0  0
  -24.9670  -29.0180   20.3050 C   0  0  0  0  0  0  0  0  0  0  0  0
  -26.0030  -30.9450   21.5150 C   0  0  0  0  0  2  0  0  0  0  0  0
  -26.1170  -29.5640   20.8900 C   0  0  0  0  0  0  0  0  0  0  0  0
  -27.3340  -28.8330   20.8830 C   0  0  0  0  0  3  0  0  0  0  0  0
  -26.2160  -27.0070   19.7340 C   0  0  0  0  0  3  0  0  0  0  0  0
  -25.0120  -27.7390   19.7220 C   0  0  0  0  0  3  0  0  0  0  0  0
  -23.7200  -29.8710   20.3150 C   0  0  0  0  0  2  0  0  0  0  0  0
  -24.7260  -31.1830   22.2390 N   0  0  0  0  0  0  0  0  0  0  0  0
  -23.5510  -32.2500   23.8600 O   0  0  0  0  0  0  0  0  0  0  0  0
  -22.8200  -29.5450   22.6490 C   0  0  0  0  0  0  0  0  0  0  0  0
  -21.5000  -29.3430   22.5010 N   0  0  0  0  0  0  0  0  0  0  0  0
  -23.4970  -28.9420   23.4860 O   0  0  0  0  0  0  0  0  0  0  0  0
  -21.0120  -29.8890   21.8040 H   0  0  0  0  0  0  0  0  0  0  0  0
  -18.1450  -28.0690   22.9440 C   0  0  0  0  0  0  0  0  0  0  0  0
  -20.6880  -28.3960   23.2680 C   0  0  0  0  0  3  0  0  0  0  0  0
  -20.8390  -26.9590   22.7200 C   0  0  0  0  0  2  0  0  0  0  0  0
  -19.7700  -26.5900   21.6870 C   0  0  0  0  0  2  0  0  0  0  0  0
  -18.3710  -26.7110   22.2970 C   0  0  0  0  0  2  0  0  0  0  0  0
  -19.2350  -28.8650   23.3870 C   0  0  0  0  0  0  0  0  0  0  0  0
  -18.9700  -30.1300   23.9560 C   0  0  0  0  0  3  0  0  0  0  0  0
  -17.6520  -30.6000   24.0850 C   0  0  0  0  0  3  0  0  0  0  0  0
  -16.5760  -29.8060   23.6540 C   0  0  0  0  0  3  0  0  0  0  0  0
  -16.8240  -28.5410   23.0890 C   0  0  0  0  0  3  0  0  0  0  0  0
  -25.9120  -32.6440   23.9670 C   0  0  0  0  0  3  0  0  0  0  0  0
  -25.5840  -34.0450   24.2710 N   0  0  0  0  0  0  0  0  0  0  0  0
  -25.9120  -35.0890   23.4990 C   0  0  0  0  0  0  0  0  0  0  0  0
  -26.5960  -34.9760   22.4790 O   0  0  0  0  0  0  0  0  0  0  0  0
  -24.9810  -34.2050   25.0640 H   0  0  0  0  0  0  0  0  0  0  0  0
  -24.1660  -36.8560   23.0960 C   0  0  0  0  0  1  0  0  0  0  0  0
  -25.4050  -36.4810   23.9240 C   0  0  0  0  0  3  0  0  0  0  0  0
  -27.5270  -37.4060   24.7490 C   0  0  0  0  0  1  0  0  0  0  0  0
  -26.4240  -37.5450   23.8010 N   0  0  0  0  0  0  0  0  0  0  0  0
  -26.0050  -38.4610   23.9300 H   0  0  0  0  0  0  0  0  0  0  0  0
  -26.4180  -31.8960   25.2620 C   0  0  1  0  0  0  0  0  0  0  0  0
  -25.3110  -31.6500   26.3140 C   0  0  0  0  0  1  0  0  0  0  0  0
  -27.0340  -30.5240   24.8970 C   0  0  0  0  0  1  0  0  0  0  0  0
  -27.5390  -32.7190   25.9380 C   0  0  0  0  0  1  0  0  0  0  0  0
  1  2  1  0
  2  4  1  0
  3  5  1  0
  3  1  1  0
  4 11  1  0
  5  4  1  0
  5 56  1  0
  5  6  1  6
  7 11  1  0
  8 12  2  0
 10  7  2  0
 10  8  1  0
 11  9  2  0
 12  9  1  0
 12 21  1  0
 13 21  1  0
 14 19  1  0
 15 16  1  0
 15 14  1  0
 17 16  1  0
 17 26  1  0
 17 18  1  0
 19 13  1  0
 19 18  1  0
 20 13  2  0
 21 22  1  0
 23 24  2  0
 24 43  1  0
 25 24  1  0
 25 28  1  0
 26 23  1  0
 26 27  1  0
 27 25  2  0
 28 29  1  0
 29 30  2  0
 31 34  1  0
 31 30  1  0
 32 31  2  0
 33 32  1  0
 33 28  2  0
 34 35  1  0
 35 36  1  0
 36 37  2  0
 38 37  1  0
 38 42  1  0
 39 38  2  0
 40 35  2  0
 40 39  1  0
 41 40  1  0
 43 44  1  0
 44 47  1  0
 44 46  1  0
 45 43  2  0
 48 23  1  0
 48 49  1  0
 50 48  1  0
 51 53  2  0
 51 10  1  0
 52 51  1  0
 54 52  1  0
 55 52  1  0
 57 56  2  0
 57 58  1  0
 59 61  1  0
 59 58  1  0
 60 71  2  0
 61 66  1  0
 62 70  1  0
 62 72  1  0
 63 69  1  0
 63 65  1  0
 64 70  1  0
 65 64  1  0
 66 65  2  0
 67 61  2  0
 68 67  1  0
 68 63  2  0
 69 62  1  0
 70 60  1  0
 72 74  2  0
 73 72  1  0
 75 73  1  0
 76 85  2  0
 76 81  1  0
 77 73  1  0
 77 81  1  0
 78 77  1  0
 79 80  1  0
 79 78  1  0
 80 76  1  0
 81 82  2  0
 82 83  1  0
 84 83  2  0
 85 84  1  0
 86 60  1  0
 86 87  1  0
 86 96  1  0
 87 90  1  0
 88 92  1  0
 88 87  1  0
 89 88  2  0
 92 91  1  0
 94 92  1  0
 94 95  1  0
 94 93  1  0
 96 99  1  1
 96 97  1  0
 98 96  1  0
M  ISO  4  13 100  21 100  58 101  59 101
M  END
>  <TORSDO>  (29) 
F 21

>  <SCORE>  (29) 
-13.347

>  <name>  (29) 
28

>  <ligand_id>  (29) 
28

>  <original_smiles>  (29) 
[H]c1c([H])c([H])c2c(c1[H])C([H])([H])C([H])([H])C([H])([H])C2([H])N([H])C(=O)C1([H])N(C(=O)C([H])(N([H])C(=O)C([H])(N([H])C([H])([H])[H])C([H])([H])[H])C(C([H])([H])[H])(C([H])([H])[H])C([H])([H])[H])C([H])([H])c2c([H])c(OC([H])([H])C([H])([H])C([H])([H])[N+]3([H])C([H])([H])C([H])([H])C([H])([H])C3([H])c3c([H])c(C(=O)N([H])[H])c([H])c(N([H])C(=O)N4C([H])([H])C([H])([H])C([H])([H])C([H])(n5nc(-c6c([H])c([H])c(Oc7c([H])c([H])c(F)c([H])c7F)c([H])c6[H])c(C(=O)N([H])[H])c5N([H])[H])C4([H])[H])c3[H])c([H])c([H])c2C1([H])[H]

>  <smiles>  (29) 
[H]c1c([H])c([H])c2c(c1[H])C([H])([H])C([H])([H])C([H])([H])C2([H])N([H])C(=O)C1([H])N(C(=O)C([H])(N([H])C(=O)C([H])(N([H])C([H])([H])[H])C([H])([H])[H])C(C([H])([H])[H])(C([H])([H])[H])C([H])([H])[H])C([H])([H])c2c([H])c(OC([H])([H])C([H])([H])C([H])([H])[N+]3([H])C([H])([H])C([H])([H])C([H])([H])C3([H])c3c([H])c(C(=O)N([H])[H])c([H])c(N([H])C(=O)N4C([H])([H])C([H])([H])C([H])([H])C([H])(n5nc(-c6c([H])c([H])c(Oc7c([H])c([H])c(F)c([H])c7F)c([H])c6[H])c(C(=O)N([H])[H])c5N([H])[H])C4([H])[H])c3[H])c([H])c([H])c2C1([H])[H]

$$$$
29:0:0
     RDKit          3D

 96104  0  0  1  0  0  0  0  0999 V2000
  -29.7810  -23.3860   20.9670 C   0  0  0  0  0  3  0  0  0  0  0  0
  -31.2290  -22.6240   18.9410 C   0  0  0  0  0  1  0  0  0  0  0  0
  -30.6050  -22.2290   20.2980 C   0  0  0  0  0  3  0  0  0  0  0  0
  -29.8580  -20.8660   20.1750 C   0  0  0  0  0  2  0  0  0  0  0  0
  -30.5080  -19.7120   21.0000 C   0  0  0  0  0  2  0  0  0  0  0  0
  -31.0050  -14.3930   20.0430 C   0  0  0  0  0  0  0  0  0  0  0  0
  -30.6820  -12.2160   18.9470 C   0  0  0  0  0  2  0  0  0  0  0  0
  -29.7140  -12.4370   17.7630 C   0  0  0  0  0  2  0  0  0  0  0  0
  -28.2440  -12.3350   18.2230 C   0  0  0  0  0  2  0  0  0  0  0  0
  -27.9530  -13.1690   19.5020 C   0  0  0  0  0  3  0  0  0  0  0  0
  -29.0320  -12.9150   20.5790 C   0  0  0  0  0  2  0  0  0  0  0  0
  -30.3430  -13.2070   19.9770 N   0  0  0  0  0  0  0  0  0  0  0  0
  -32.1330  -14.5580   19.5610 O   0  0  0  0  0  0  0  0  0  0  0  0
  -29.7150  -15.9580   21.4990 C   0  0  0  0  0  2  0  0  0  0  0  0
  -29.9820  -16.4090   19.0950 C   0  0  0  0  0  2  0  0  0  0  0  0
  -30.2310  -17.3870   21.8070 C   0  0  0  0  0  2  0  0  0  0  0  0
  -30.5620  -17.7930   19.4160 C   0  0  0  0  0  2  0  0  0  0  0  0
  -30.1890  -15.4640   20.1990 N   0  0  0  0  0  0  0  0  0  0  0  0
  -30.0060  -18.3420   20.6830 N   0  0  2  0  0  4  0  0  0  0  0  0
  -29.0060  -18.4160   20.5690 H   0  0  0  0  0  0  0  0  0  0  0  0
  -25.5850  -13.8400   20.2510 C   0  0  0  0  0  0  0  0  0  0  0  0
  -24.5120  -13.0970   20.6630 C   0  0  0  0  0  0  0  0  0  0  0  0
  -24.9530  -11.7370   20.6580 C   0  0  0  0  0  0  0  0  0  0  0  0
  -26.6060  -12.9340   20.0140 N   0  0  0  0  0  0  0  0  0  0  0  0
  -26.2300  -11.6640   20.3130 N   0  0  0  0  0  0  0  0  0  0  0  0
  -24.2150  -10.4930   20.9040 C   0  0  0  0  0  0  0  0  0  0  0  0
  -24.6090   -9.5910   21.9180 C   0  0  0  0  0  3  0  0  0  0  0  0
  -23.8740   -8.4090   22.1490 C   0  0  0  0  0  3  0  0  0  0  0  0
  -22.7300   -8.1200   21.3670 C   0  0  0  0  0  0  0  0  0  0  0  0
  -22.3550   -9.0110   20.3490 C   0  0  0  0  0  3  0  0  0  0  0  0
  -23.0900  -10.1840   20.1170 C   0  0  0  0  0  3  0  0  0  0  0  0
  -21.9710   -6.9800   21.4980 O   0  0  0  0  0  0  0  0  0  0  0  0
  -21.8180   -6.3580   22.7110 C   0  0  0  0  0  0  0  0  0  0  0  0
  -21.2720   -7.0270   23.8270 C   0  0  0  0  0  3  0  0  0  0  0  0
  -21.0620   -6.3270   25.0330 C   0  0  0  0  0  3  0  0  0  0  0  0
  -21.3890   -4.9600   25.1240 C   0  0  0  0  0  0  0  0  0  0  0  0
  -21.9290   -4.2940   24.0110 C   0  0  0  0  0  3  0  0  0  0  0  0
  -22.1400   -4.9900   22.8080 C   0  0  0  0  0  0  0  0  0  0  0  0
  -22.6400   -4.3360   21.7320 F   0  0  0  0  0  0  0  0  0  0  0  0
  -21.1850   -4.2880   26.2820 F   0  0  0  0  0  0  0  0  0  0  0  0
  -23.1310  -13.6050   20.9590 C   0  0  0  0  0  0  0  0  0  0  0  0
  -22.4250  -12.9640   21.8860 N   0  0  0  0  0  0  0  0  0  0  0  0
  -22.6840  -14.6060   20.4050 O   0  0  0  0  0  0  0  0  0  0  0  0
  -22.7990  -12.1610   22.3680 H   0  0  0  0  0  0  0  0  0  0  0  0
  -21.4990  -13.2910   22.1230 H   0  0  0  0  0  0  0  0  0  0  0  0
  -25.7720  -15.2050   20.0430 N   0  0  0  0  0  0  0  0  0  0  0  0
  -25.0320  -15.8830   20.1880 H   0  0  0  0  0  0  0  0  0  0  0  0
  -26.6320  -15.6210   19.7110 H   0  0  0  0  0  0  0  0  0  0  0  0
  -29.0970  -24.3360   19.9360 C   0  0  0  0  0  2  0  0  0  0  0  0
  -28.1070  -25.3660   20.5410 C   0  0  0  0  0  2  0  0  0  0  0  0
  -28.2480  -26.6700   19.9510 O   0  0  0  0  0  0  0  0  0  0  0  0
  -24.5640  -31.8240   23.2200 C   0  0  0  0  0  0  0  0  0  0  0  0
  -27.1030  -27.4340   19.9870 C   0  0  0  0  0  0  0  0  0  0  0  0
  -23.3170  -30.4820   21.5610 C   0  0  0  0  0  3  0  0  0  0  0  0
  -24.7310  -28.9680   20.0700 C   0  0  0  0  0  0  0  0  0  0  0  0
  -25.8430  -30.8140   21.3350 C   0  0  0  0  0  2  0  0  0  0  0  0
  -25.9030  -29.4590   20.6580 C   0  0  0  0  0  0  0  0  0  0  0  0
  -27.0940  -28.7010   20.6120 C   0  0  0  0  0  3  0  0  0  0  0  0
  -25.9190  -26.9590   19.3850 C   0  0  0  0  0  3  0  0  0  0  0  0
  -24.7330  -27.7150   19.4310 C   0  0  0  0  0  3  0  0  0  0  0  0
  -23.4970  -29.8390   20.1590 C   0  0  0  0  0  2  0  0  0  0  0  0
  -24.5940  -31.0520   22.0960 N   0  0  0  0  0  0  0  0  0  0  0  0
  -23.4920  -32.0960   23.7800 O   0  0  0  0  0  0  0  0  0  0  0  0
  -22.6680  -29.4410   22.5010 C   0  0  0  0  0  0  0  0  0  0  0  0
  -21.3440  -29.2610   22.3650 N   0  0  0  0  0  0  0  0  0  0  0  0
  -23.3520  -28.8020   23.3050 O   0  0  0  0  0  0  0  0  0  0  0  0
  -20.8560  -29.8230   21.6820 H   0  0  0  0  0  0  0  0  0  0  0  0
  -17.9700  -28.0560   22.8290 C   0  0  0  0  0  0  0  0  0  0  0  0
  -20.5260  -28.3120   23.1190 C   0  0  0  0  0  3  0  0  0  0  0  0
  -20.6340  -26.8910   22.5220 C   0  0  0  0  0  2  0  0  0  0  0  0
  -19.5380  -26.5830   21.4970 C   0  0  0  0  0  2  0  0  0  0  0  0
  -18.1510  -26.7180   22.1320 C   0  0  0  0  0  2  0  0  0  0  0  0
  -19.0860  -28.8120   23.2760 C   0  0  0  0  0  0  0  0  0  0  0  0
  -18.8630  -30.0680   23.8840 C   0  0  0  0  0  3  0  0  0  0  0  0
  -17.5570  -30.5640   24.0540 C   0  0  0  0  0  3  0  0  0  0  0  0
  -16.4560  -29.8030   23.6240 C   0  0  0  0  0  3  0  0  0  0  0  0
  -16.6630  -28.5520   23.0170 C   0  0  0  0  0  3  0  0  0  0  0  0
  -25.8650  -32.4230   23.8370 C   0  0  0  0  0  3  0  0  0  0  0  0
  -26.3660  -31.6400   25.1120 C   0  0  1  0  0  0  0  0  0  0  0  0
  -25.2700  -31.4270   26.1810 C   0  0  0  0  0  1  0  0  0  0  0  0
  -26.9190  -30.2500   24.7180 C   0  0  0  0  0  1  0  0  0  0  0  0
  -27.5330  -32.4100   25.7730 C   0  0  0  0  0  1  0  0  0  0  0  0
  -25.5900  -33.8280   24.1640 N   0  0  0  0  0  0  0  0  0  0  0  0
  -25.9640  -34.8730   23.4140 C   0  0  0  0  0  0  0  0  0  0  0  0
  -26.6490  -34.7530   22.3950 O   0  0  0  0  0  0  0  0  0  0  0  0
  -24.9860  -33.9980   24.9550 H   0  0  0  0  0  0  0  0  0  0  0  0
  -24.3020  -36.7200   23.0210 C   0  0  0  0  0  1  0  0  0  0  0  0
  -25.5050  -36.2710   23.8660 C   0  0  0  0  0  3  0  0  0  0  0  0
  -27.6370  -37.0870   24.7710 C   0  0  0  0  0  1  0  0  0  0  0  0
  -26.5710  -37.2940   23.7930 N   0  0  0  0  0  0  0  0  0  0  0  0
  -26.1880  -38.2240   23.9340 H   0  0  0  0  0  0  0  0  0  0  0  0
  -30.6830  -24.2180   21.9240 C   0  0  0  0  0  2  0  0  0  0  0  0
  -30.8540  -23.6050   23.2550 N   0  0  0  0  0  4  0  0  0  0  0  0
  -29.9930  -23.6170   23.7730 H   0  0  0  0  0  0  0  0  0  0  0  0
  -31.5280  -24.1370   23.7770 H   0  0  0  0  0  0  0  0  0  0  0  0
  -31.1870  -22.6610   23.1950 H   0  0  0  0  0  0  0  0  0  0  0  0
  1 49  1  0
  1 92  1  0
  3  2  1  0
  3  1  1  0
  4  3  1  0
  4  5  1  0
  6 18  1  0
  7 12  1  0
  8  9  1  0
  8  7  1  0
 10  9  1  0
 10 24  1  0
 10 11  1  0
 12  6  1  0
 12 11  1  0
 13  6  2  0
 14 16  1  0
 15 17  1  0
 15 18  1  0
 17 19  1  0
 18 14  1  0
 19  5  1  0
 19 16  1  0
 19 20  1  6
 21 22  2  0
 22 41  1  0
 23 22  1  0
 23 26  1  0
 24 21  1  0
 24 25  1  0
 25 23  2  0
 26 27  1  0
 27 28  2  0
 29 32  1  0
 29 28  1  0
 30 29  2  0
 31 30  1  0
 31 26  2  0
 32 33  1  0
 33 38  2  0
 33 34  1  0
 34 35  2  0
 35 36  1  0
 36 40  1  0
 37 36  2  0
 38 37  1  0
 39 38  1  0
 41 42  1  0
 42 45  1  0
 42 44  1  0
 43 41  2  0
 46 47  1  0
 46 21  1  0
 48 46  1  0
 49 50  1  0
 51 53  1  0
 51 50  1  0
 52 63  2  0
 53 58  1  0
 54 62  1  0
 54 64  1  0
 55 61  1  0
 55 57  1  0
 56 62  1  0
 57 56  1  0
 58 57  2  0
 59 60  1  0
 59 53  2  0
 60 55  2  0
 61 54  1  0
 62 52  1  0
 64 66  2  0
 65 64  1  0
 67 65  1  0
 68 77  2  0
 68 73  1  0
 69 65  1  0
 69 73  1  0
 70 69  1  0
 71 72  1  0
 71 70  1  0
 72 68  1  0
 73 74  2  0
 74 75  1  0
 76 75  2  0
 77 76  1  0
 78 52  1  0
 78 83  1  0
 78 79  1  0
 79 82  1  1
 79 80  1  0
 81 79  1  0
 83 86  1  0
 84 88  1  0
 84 83  1  0
 85 84  2  0
 88 87  1  0
 90 88  1  0
 90 91  1  0
 90 89  1  0
 92 93  1  0
 93 94  1  0
 93 95  1  0
 96 93  1  0
M  ISO  4   6 100  18 100  50 101  51 101
M  END
>  <TORSDO>  (30) 
F 23

>  <SCORE>  (30) 
-11.824

>  <name>  (30) 
29

>  <ligand_id>  (30) 
29

>  <original_smiles>  (30) 
[H]c1c([H])c([H])c2c(c1[H])C([H])([H])C([H])([H])C([H])([H])C2([H])N([H])C(=O)C1([H])N(C(=O)C([H])(N([H])C(=O)C([H])(N([H])C([H])([H])[H])C([H])([H])[H])C(C([H])([H])[H])(C([H])([H])[H])C([H])([H])[H])C([H])([H])c2c([H])c(OC([H])([H])C([H])([H])C([H])(C([H])(C([H])([H])[H])C([H])([H])C([H])([H])[N+]3([H])C([H])([H])C([H])([H])N(C(=O)N4C([H])([H])C([H])([H])C([H])([H])C([H])(n5nc(-c6c([H])c([H])c(Oc7c([H])c([H])c(F)c([H])c7F)c([H])c6[H])c(C(=O)N([H])[H])c5N([H])[H])C4([H])[H])C([H])([H])C3([H])[H])C([H])([H])[N+]([H])([H])[H])c([H])c([H])c2C1([H])[H]

>  <smiles>  (30) 
[H]c1c([H])c([H])c2c(c1[H])C([H])([H])C([H])([H])C([H])([H])C2([H])N([H])C(=O)C1([H])N(C(=O)C([H])(N([H])C(=O)C([H])(N([H])C([H])([H])[H])C([H])([H])[H])C(C([H])([H])[H])(C([H])([H])[H])C([H])([H])[H])C([H])([H])c2c([H])c(OC([H])([H])C([H])([H])C([H])(C([H])(C([H])([H])[H])C([H])([H])C([H])([H])[N+]3([H])C([H])([H])C([H])([H])N(C(=O)N4C([H])([H])C([H])([H])C([H])([H])C([H])(n5nc(-c6c([H])c([H])c(Oc7c([H])c([H])c(F)c([H])c7F)c([H])c6[H])c(C(=O)N([H])[H])c5N([H])[H])C4([H])[H])C([H])([H])C3([H])[H])C([H])([H])[N+]([H])([H])[H])c([H])c([H])c2C1([H])[H]

$$$$
30:0:0
     RDKit          3D

 92100  0  0  1  0  0  0  0  0999 V2000
  -29.8590  -21.2540   21.2350 N   0  0  0  0  0  4  0  0  0  0  0  0
  -30.7290  -21.0570   20.7670 H   0  0  0  0  0  0  0  0  0  0  0  0
  -30.1030  -21.6560   22.1250 H   0  0  0  0  0  0  0  0  0  0  0  0
  -29.1400  -19.9950   21.5550 C   0  0  0  0  0  2  0  0  0  0  0  0
  -28.9930  -18.9910   20.3850 C   0  0  0  0  0  2  0  0  0  0  0  0
  -31.7850  -14.7850   20.0370 C   0  0  0  0  0  0  0  0  0  0  0  0
  -31.5340  -12.4040   19.4760 C   0  0  0  0  0  2  0  0  0  0  0  0
  -30.6480  -12.2910   18.2180 C   0  0  0  0  0  2  0  0  0  0  0  0
  -29.1540  -12.2590   18.6000 C   0  0  0  0  0  2  0  0  0  0  0  0
  -28.7640  -13.3750   19.6090 C   0  0  0  0  0  3  0  0  0  0  0  0
  -29.7730  -13.4400   20.7790 C   0  0  0  0  0  2  0  0  0  0  0  0
  -31.1080  -13.6140   20.1940 N   0  0  0  0  0  0  0  0  0  0  0  0
  -32.9890  -14.7930   19.7560 O   0  0  0  0  0  0  0  0  0  0  0  0
  -30.5880  -18.0000   18.6410 C   0  0  0  0  0  2  0  0  0  0  0  0
  -30.1200  -16.6190   20.5370 C   0  0  0  0  0  2  0  0  0  0  0  0
  -30.2360  -18.1010   20.1170 C   0  0  0  0  0  3  0  0  0  0  0  0
  -31.4440  -16.7370   18.5520 C   0  0  0  0  0  3  0  0  0  0  0  0
  -31.3290  -16.0610   17.1730 C   0  0  0  0  0  1  0  0  0  0  0  0
  -31.0240  -15.8540   19.6600 N   0  0  0  0  0  0  0  0  0  0  0  0
  -26.4230  -14.1830   20.3040 C   0  0  0  0  0  0  0  0  0  0  0  0
  -25.2940  -13.5040   20.6740 C   0  0  0  0  0  0  0  0  0  0  0  0
  -25.6420  -12.1200   20.6540 C   0  0  0  0  0  0  0  0  0  0  0  0
  -27.3930  -13.2170   20.0850 N   0  0  0  0  0  0  0  0  0  0  0  0
  -26.9260  -11.9720   20.3540 N   0  0  0  0  0  0  0  0  0  0  0  0
  -24.8130  -10.9230   20.8460 C   0  0  0  0  0  0  0  0  0  0  0  0
  -25.1300   -9.9570   21.8280 C   0  0  0  0  0  3  0  0  0  0  0  0
  -24.3100   -8.8230   22.0060 C   0  0  0  0  0  3  0  0  0  0  0  0
  -23.1580   -8.6460   21.2030 C   0  0  0  0  0  0  0  0  0  0  0  0
  -22.8600   -9.5980   20.2120 C   0  0  0  0  0  3  0  0  0  0  0  0
  -23.6800  -10.7250   20.0320 C   0  0  0  0  0  3  0  0  0  0  0  0
  -22.3180   -7.5630   21.2880 O   0  0  0  0  0  0  0  0  0  0  0  0
  -22.0690   -6.9370   22.4820 C   0  0  0  0  0  0  0  0  0  0  0  0
  -21.5050   -7.6230   23.5800 C   0  0  0  0  0  3  0  0  0  0  0  0
  -21.2030   -6.9250   24.7670 C   0  0  0  0  0  3  0  0  0  0  0  0
  -21.4550   -5.5420   24.8530 C   0  0  0  0  0  0  0  0  0  0  0  0
  -22.0110   -4.8570   23.7600 C   0  0  0  0  0  3  0  0  0  0  0  0
  -22.3150   -5.5530   22.5760 C   0  0  0  0  0  0  0  0  0  0  0  0
  -22.8320   -4.8840   21.5180 F   0  0  0  0  0  0  0  0  0  0  0  0
  -21.1570   -4.8690   25.9910 F   0  0  0  0  0  0  0  0  0  0  0  0
  -23.9390  -14.0970   20.9320 C   0  0  0  0  0  0  0  0  0  0  0  0
  -23.1730  -13.5030   21.8400 N   0  0  0  0  0  0  0  0  0  0  0  0
  -23.5700  -15.1230   20.3610 O   0  0  0  0  0  0  0  0  0  0  0  0
  -23.4840  -12.6740   22.3250 H   0  0  0  0  0  0  0  0  0  0  0  0
  -22.2610  -13.8810   22.0530 H   0  0  0  0  0  0  0  0  0  0  0  0
  -26.7010  -15.5330   20.1130 N   0  0  0  0  0  0  0  0  0  0  0  0
  -25.9920  -16.2510   20.2100 H   0  0  0  0  0  0  0  0  0  0  0  0
  -27.5810  -15.8890   19.7640 H   0  0  0  0  0  0  0  0  0  0  0  0
  -29.1140  -22.3020   20.4930 C   0  0  0  0  0  2  0  0  0  0  0  0
  -29.3770  -23.7020   21.1030 C   0  0  0  0  0  2  0  0  0  0  0  0
  -28.8150  -24.9020   20.3040 C   0  0  0  0  0  2  0  0  0  0  0  0
  -29.1570  -26.2550   20.9740 C   0  0  0  0  0  2  0  0  0  0  0  0
  -28.9800  -27.3800   20.1120 O   0  0  0  0  0  0  0  0  0  0  0  0
  -24.6060  -31.9640   23.3850 C   0  0  0  0  0  0  0  0  0  0  0  0
  -27.7510  -27.9870   20.1650 C   0  0  0  0  0  0  0  0  0  0  0  0
  -23.5950  -30.5780   21.6000 C   0  0  0  0  0  3  0  0  0  0  0  0
  -25.2370  -29.2670   20.1550 C   0  0  0  0  0  0  0  0  0  0  0  0
  -26.0810  -31.1680   21.5410 C   0  0  0  0  0  2  0  0  0  0  0  0
  -26.3160  -29.8500   20.8310 C   0  0  0  0  0  0  0  0  0  0  0  0
  -27.5780  -29.2170   20.8380 C   0  0  0  0  0  3  0  0  0  0  0  0
  -26.6610  -27.4090   19.4870 C   0  0  0  0  0  3  0  0  0  0  0  0
  -25.4020  -28.0410   19.4830 C   0  0  0  0  0  3  0  0  0  0  0  0
  -23.9220  -30.0120   20.1920 C   0  0  0  0  0  2  0  0  0  0  0  0
  -24.7750  -31.2490   22.2370 N   0  0  0  0  0  0  0  0  0  0  0  0
  -23.4840  -32.1060   23.8920 O   0  0  0  0  0  0  0  0  0  0  0  0
  -22.9980  -29.4420   22.4630 C   0  0  0  0  0  0  0  0  0  0  0  0
  -21.7020  -29.1570   22.2610 N   0  0  0  0  0  0  0  0  0  0  0  0
  -23.7010  -28.8250   23.2680 O   0  0  0  0  0  0  0  0  0  0  0  0
  -21.1950  -29.7150   21.5890 H   0  0  0  0  0  0  0  0  0  0  0  0
  -18.4170  -27.6850   22.5580 C   0  0  0  0  0  0  0  0  0  0  0  0
  -20.9400  -28.1040   22.9300 C   0  0  0  0  0  3  0  0  0  0  0  0
  -21.1650  -26.7360   22.2460 C   0  0  0  0  0  2  0  0  0  0  0  0
  -20.1160  -26.4170   21.1760 C   0  0  0  0  0  2  0  0  0  0  0  0
  -18.7100  -26.4100   21.7850 C   0  0  0  0  0  2  0  0  0  0  0  0
  -19.4640  -28.4880   23.0810 C   0  0  0  0  0  0  0  0  0  0  0  0
  -19.1390  -29.6810   23.7620 C   0  0  0  0  0  3  0  0  0  0  0  0
  -17.7980  -30.0750   23.9250 C   0  0  0  0  0  3  0  0  0  0  0  0
  -16.7640  -29.2690   23.4180 C   0  0  0  0  0  3  0  0  0  0  0  0
  -17.0740  -28.0760   22.7420 C   0  0  0  0  0  3  0  0  0  0  0  0
  -25.8080  -32.6560   24.1020 C   0  0  0  0  0  3  0  0  0  0  0  0
  -26.2200  -31.9480   25.4510 C   0  0  1  0  0  0  0  0  0  0  0  0
  -25.0300  -31.6860   26.4030 C   0  0  0  0  0  1  0  0  0  0  0  0
  -26.9070  -30.5910   25.1660 C   0  0  0  0  0  1  0  0  0  0  0  0
  -27.2550  -32.8170   26.2060 C   0  0  0  0  0  1  0  0  0  0  0  0
  -25.4330  -34.0560   24.3400 N   0  0  0  0  0  0  0  0  0  0  0  0
  -25.8080  -35.0850   23.5670 C   0  0  0  0  0  0  0  0  0  0  0  0
  -26.5780  -34.9580   22.6110 O   0  0  0  0  0  0  0  0  0  0  0  0
  -24.7620  -34.2260   25.0760 H   0  0  0  0  0  0  0  0  0  0  0  0
  -24.0710  -36.8010   22.9690 C   0  0  0  0  0  1  0  0  0  0  0  0
  -25.2400  -36.4750   23.9110 C   0  0  0  0  0  3  0  0  0  0  0  0
  -27.2520  -37.4740   24.9050 C   0  0  0  0  0  1  0  0  0  0  0  0
  -26.2490  -37.5550   23.8460 N   0  0  0  0  0  0  0  0  0  0  0  0
  -25.8020  -38.4670   23.9040 H   0  0  0  0  0  0  0  0  0  0  0  0
  1  4  1  0
  1  3  1  0
  2  1  1  0
  5  4  1  0
  6 12  1  0
  7 12  1  0
  8  9  1  0
  8  7  1  0
 10  9  1  0
 10 23  1  0
 10 11  1  0
 12 11  1  0
 13  6  2  0
 14 16  1  0
 16  5  1  0
 16 15  1  0
 17 18  1  0
 17 14  1  0
 17 19  1  0
 19  6  1  0
 19 15  1  0
 20 21  2  0
 21 40  1  0
 22 21  1  0
 22 25  1  0
 23 20  1  0
 23 24  1  0
 24 22  2  0
 25 26  1  0
 26 27  2  0
 28 31  1  0
 28 27  1  0
 29 28  2  0
 30 29  1  0
 30 25  2  0
 31 32  1  0
 32 37  2  0
 32 33  1  0
 33 34  2  0
 34 35  1  0
 35 39  1  0
 36 35  2  0
 37 36  1  0
 38 37  1  0
 40 41  1  0
 41 44  1  0
 41 43  1  0
 42 40  2  0
 45 46  1  0
 45 20  1  0
 47 45  1  0
 48 49  1  0
 48  1  1  0
 50 51  1  0
 50 49  1  0
 52 54  1  0
 52 51  1  0
 53 64  2  0
 54 59  1  0
 55 63  1  0
 55 65  1  0
 56 62  1  0
 56 58  1  0
 57 63  1  0
 58 59  2  0
 58 57  1  0
 60 54  2  0
 61 60  1  0
 61 56  2  0
 62 55  1  0
 63 53  1  0
 65 67  2  0
 66 65  1  0
 68 66  1  0
 69 78  2  0
 69 74  1  0
 70 66  1  0
 70 74  1  0
 71 70  1  0
 72 73  1  0
 72 71  1  0
 73 69  1  0
 74 75  2  0
 75 76  1  0
 77 76  2  0
 78 77  1  0
 79 53  1  0
 79 84  1  0
 79 80  1  0
 80 83  1  1
 80 81  1  0
 82 80  1  0
 84 87  1  0
 85 89  1  0
 85 84  1  0
 86 85  2  0
 89 88  1  0
 91 92  1  0
 91 89  1  0
 91 90  1  0
M  ISO  4   6 100  19 100  51 101  52 101
M  END
>  <TORSDO>  (31) 
F 22

>  <SCORE>  (31) 
-10.533

>  <name>  (31) 
30

>  <ligand_id>  (31) 
30

>  <original_smiles>  (31) 
[H]c1c([H])c([H])c2c(c1[H])C([H])([H])C([H])([H])C([H])([H])C2([H])N([H])C(=O)C1([H])N(C(=O)C([H])(N([H])C(=O)C([H])(N([H])C([H])([H])[H])C([H])([H])[H])C(C([H])([H])[H])(C([H])([H])[H])C([H])([H])[H])C([H])([H])c2c([H])c(OC([H])([H])C([H])([H])C([H])([H])C([H])([H])[N+]([H])([H])C([H])([H])C([H])([H])C3([H])C([H])([H])N(C(=O)N4C([H])([H])C([H])([H])C([H])([H])C([H])(n5nc(-c6c([H])c([H])c(Oc7c([H])c([H])c(F)c([H])c7F)c([H])c6[H])c(C(=O)N([H])[H])c5N([H])[H])C4([H])[H])C([H])(C([H])([H])[H])C3([H])[H])c([H])c([H])c2C1([H])[H]

>  <smiles>  (31) 
[H]c1c([H])c([H])c2c(c1[H])C([H])([H])C([H])([H])C([H])([H])C2([H])N([H])C(=O)C1([H])N(C(=O)C([H])(N([H])C(=O)C([H])(N([H])C([H])([H])[H])C([H])([H])[H])C(C([H])([H])[H])(C([H])([H])[H])C([H])([H])[H])C([H])([H])c2c([H])c(OC([H])([H])C([H])([H])C([H])([H])C([H])([H])[N+]([H])([H])C([H])([H])C([H])([H])C3([H])C([H])([H])N(C(=O)N4C([H])([H])C([H])([H])C([H])([H])C([H])(n5nc(-c6c([H])c([H])c(Oc7c([H])c([H])c(F)c([H])c7F)c([H])c6[H])c(C(=O)N([H])[H])c5N([H])[H])C4([H])[H])C([H])(C([H])([H])[H])C3([H])[H])c([H])c([H])c2C1([H])[H]

$$$$
31:0:0
     RDKit          3D

 94101  0  0  1  0  0  0  0  0999 V2000
  -29.1060  -24.0850   22.3100 C   0  0  0  0  0  3  0  0  0  0  0  0
  -29.1240  -23.8920   23.7730 N   0  0  0  0  0  4  0  0  0  0  0  0
  -28.2050  -23.7800   24.1600 H   0  0  0  0  0  0  0  0  0  0  0  0
  -29.5850  -24.6610   24.2250 H   0  0  0  0  0  0  0  0  0  0  0  0
  -29.6400  -23.0500   23.9680 H   0  0  0  0  0  0  0  0  0  0  0  0
  -28.8800  -22.7380   21.6260 C   0  0  0  0  0  3  0  0  0  0  0  0
  -29.8370  -21.9110   21.4960 N   0  0  0  0  0  0  0  0  0  0  0  0
  -29.5730  -20.6060   20.9110 C   0  0  0  0  0  2  0  0  0  0  0  0
  -30.3850  -19.5630   21.7010 C   0  0  0  0  0  2  0  0  0  0  0  0
  -30.2150  -18.1100   21.2240 C   0  0  0  0  0  2  0  0  0  0  0  0
  -30.8430  -17.0990   22.2130 C   0  0  0  0  0  2  0  0  0  0  0  0
  -31.6180  -15.9350   21.5720 C   0  0  0  0  0  2  0  0  0  0  0  0
  -30.9130  -14.2320   19.8960 C   0  0  0  0  0  0  0  0  0  0  0  0
  -30.4210  -12.1260   18.7230 C   0  0  0  0  0  2  0  0  0  0  0  0
  -29.3850  -12.2660   17.5980 C   0  0  0  0  0  2  0  0  0  0  0  0
  -27.9490  -12.1650   18.1410 C   0  0  0  0  0  2  0  0  0  0  0  0
  -27.7190  -13.0820   19.3710 C   0  0  0  0  0  3  0  0  0  0  0  0
  -28.8390  -12.8960   20.4170 C   0  0  0  0  0  2  0  0  0  0  0  0
  -30.1420  -13.1290   19.7600 N   0  0  0  0  0  0  0  0  0  0  0  0
  -31.8190  -14.5300   19.1070 O   0  0  0  0  0  0  0  0  0  0  0  0
  -30.7320  -14.9020   21.0410 N   0  0  0  0  0  0  0  0  0  0  0  0
  -30.0230  -14.5400   21.6620 H   0  0  0  0  0  0  0  0  0  0  0  0
  -25.4050  -13.7830   20.2610 C   0  0  0  0  0  0  0  0  0  0  0  0
  -24.3470  -13.0530   20.7270 C   0  0  0  0  0  0  0  0  0  0  0  0
  -24.7580  -11.6850   20.6800 C   0  0  0  0  0  0  0  0  0  0  0  0
  -26.3990  -12.8640   19.9620 N   0  0  0  0  0  0  0  0  0  0  0  0
  -26.0170  -11.5980   20.2690 N   0  0  0  0  0  0  0  0  0  0  0  0
  -24.0100  -10.4500   20.9470 C   0  0  0  0  0  0  0  0  0  0  0  0
  -24.4480   -9.5170   21.9130 C   0  0  0  0  0  3  0  0  0  0  0  0
  -23.7060   -8.3450   22.1650 C   0  0  0  0  0  3  0  0  0  0  0  0
  -22.5080   -8.0980   21.4530 C   0  0  0  0  0  0  0  0  0  0  0  0
  -22.0880   -9.0180   20.4750 C   0  0  0  0  0  3  0  0  0  0  0  0
  -22.8300  -10.1840   20.2240 C   0  0  0  0  0  3  0  0  0  0  0  0
  -21.7280   -6.9800   21.6170 O   0  0  0  0  0  0  0  0  0  0  0  0
  -21.6510   -6.3210   22.8190 C   0  0  0  0  0  0  0  0  0  0  0  0
  -21.2160   -6.9680   23.9940 C   0  0  0  0  0  3  0  0  0  0  0  0
  -21.0870   -6.2390   25.1930 C   0  0  0  0  0  3  0  0  0  0  0  0
  -21.3780   -4.8620   25.2160 C   0  0  0  0  0  0  0  0  0  0  0  0
  -21.8030   -4.2120   24.0430 C   0  0  0  0  0  3  0  0  0  0  0  0
  -21.9360   -4.9400   22.8480 C   0  0  0  0  0  0  0  0  0  0  0  0
  -22.3250   -4.3040   21.7170 F   0  0  0  0  0  0  0  0  0  0  0  0
  -21.2460   -4.1600   26.3660 F   0  0  0  0  0  0  0  0  0  0  0  0
  -22.9890  -13.5750   21.1090 C   0  0  0  0  0  0  0  0  0  0  0  0
  -22.3140  -12.9220   22.0450 N   0  0  0  0  0  0  0  0  0  0  0  0
  -22.5380  -14.6020   20.6010 O   0  0  0  0  0  0  0  0  0  0  0  0
  -22.6910  -12.0960   22.4880 H   0  0  0  0  0  0  0  0  0  0  0  0
  -21.4020  -13.2540   22.3330 H   0  0  0  0  0  0  0  0  0  0  0  0
  -25.5980  -15.1460   20.0380 N   0  0  0  0  0  0  0  0  0  0  0  0
  -24.8630  -15.8330   20.1760 H   0  0  0  0  0  0  0  0  0  0  0  0
  -26.4470  -15.5410   19.6500 H   0  0  0  0  0  0  0  0  0  0  0  0
  -26.6750  -25.0710   22.1830 C   0  0  0  0  0  1  0  0  0  0  0  0
  -28.1790  -25.2500   21.8460 C   0  0  0  0  0  3  0  0  0  0  0  0
  -28.3860  -25.5610   20.3410 C   0  0  0  0  0  2  0  0  0  0  0  0
  -28.4070  -26.9560   20.0800 O   0  0  0  0  0  0  0  0  0  0  0  0
  -24.5600  -31.9320   23.2910 C   0  0  0  0  0  0  0  0  0  0  0  0
  -27.2080  -27.6230   20.0910 C   0  0  0  0  0  0  0  0  0  0  0  0
  -23.3370  -30.5490   21.6380 C   0  0  0  0  0  3  0  0  0  0  0  0
  -24.7890  -29.0590   20.1630 C   0  0  0  0  0  0  0  0  0  0  0  0
  -25.8490  -30.9490   21.4120 C   0  0  0  0  0  2  0  0  0  0  0  0
  -25.9410  -29.5940   20.7500 C   0  0  0  0  0  0  0  0  0  0  0  0
  -27.1550  -28.8860   20.7100 C   0  0  0  0  0  3  0  0  0  0  0  0
  -26.0530  -27.1020   19.4700 C   0  0  0  0  0  3  0  0  0  0  0  0
  -24.8410  -27.8130   19.5100 C   0  0  0  0  0  3  0  0  0  0  0  0
  -23.5250  -29.8800   20.2480 C   0  0  0  0  0  2  0  0  0  0  0  0
  -24.5990  -31.1580   22.1710 N   0  0  0  0  0  0  0  0  0  0  0  0
  -23.4840  -32.1870   23.8520 O   0  0  0  0  0  0  0  0  0  0  0  0
  -22.7020  -29.5160   22.5980 C   0  0  0  0  0  0  0  0  0  0  0  0
  -21.3820  -29.3120   22.4670 N   0  0  0  0  0  0  0  0  0  0  0  0
  -23.3950  -28.8980   23.4110 O   0  0  0  0  0  0  0  0  0  0  0  0
  -20.8770  -29.8490   21.7740 H   0  0  0  0  0  0  0  0  0  0  0  0
  -18.0250  -28.0920   22.9410 C   0  0  0  0  0  0  0  0  0  0  0  0
  -20.5790  -28.3590   23.2310 C   0  0  0  0  0  3  0  0  0  0  0  0
  -20.6930  -26.9350   22.6360 C   0  0  0  0  0  2  0  0  0  0  0  0
  -19.6000  -26.6200   21.6130 C   0  0  0  0  0  2  0  0  0  0  0  0
  -18.2140  -26.7530   22.2530 C   0  0  0  0  0  2  0  0  0  0  0  0
  -19.1350  -28.8540   23.3880 C   0  0  0  0  0  0  0  0  0  0  0  0
  -18.9090  -30.1130   23.9880 C   0  0  0  0  0  3  0  0  0  0  0  0
  -17.5990  -30.6020   24.1560 C   0  0  0  0  0  3  0  0  0  0  0  0
  -16.5010  -29.8330   23.7330 C   0  0  0  0  0  3  0  0  0  0  0  0
  -16.7150  -28.5810   23.1270 C   0  0  0  0  0  3  0  0  0  0  0  0
  -25.8530  -32.5590   23.9030 C   0  0  0  0  0  3  0  0  0  0  0  0
  -26.3650  -31.7900   25.1820 C   0  0  1  0  0  0  0  0  0  0  0  0
  -25.2690  -31.5550   26.2450 C   0  0  0  0  0  1  0  0  0  0  0  0
  -26.9470  -30.4140   24.7960 C   0  0  0  0  0  1  0  0  0  0  0  0
  -27.5120  -32.5830   25.8490 C   0  0  0  0  0  1  0  0  0  0  0  0
  -25.5530  -33.9580   24.2290 N   0  0  0  0  0  0  0  0  0  0  0  0
  -25.8980  -35.0090   23.4730 C   0  0  0  0  0  0  0  0  0  0  0  0
  -26.5690  -34.9000   22.4450 O   0  0  0  0  0  0  0  0  0  0  0  0
  -24.9650  -34.1140   25.0330 H   0  0  0  0  0  0  0  0  0  0  0  0
  -24.1960  -36.8180   23.0920 C   0  0  0  0  0  1  0  0  0  0  0  0
  -25.4190  -36.4010   23.9270 C   0  0  0  0  0  3  0  0  0  0  0  0
  -27.5450  -37.2590   24.8020 C   0  0  0  0  0  1  0  0  0  0  0  0
  -26.4660  -37.4420   23.8350 N   0  0  0  0  0  0  0  0  0  0  0  0
  -26.0690  -38.3700   23.9680 H   0  0  0  0  0  0  0  0  0  0  0  0
  1  6  1  0
  1  2  1  0
  2  5  1  0
  2  3  1  0
  2  4  1  0
  7  6  2  0
  8  7  1  0
  8  9  1  0
 10  9  1  0
 10 11  1  0
 12 11  1  0
 13 21  1  0
 14 19  1  0
 15 16  1  0
 15 14  1  0
 17 16  1  0
 17 26  1  0
 17 18  1  0
 19 13  1  0
 19 18  1  0
 20 13  2  0
 21 12  1  0
 21 22  1  0
 23 24  2  0
 24 43  1  0
 25 24  1  0
 25 28  1  0
 26 23  1  0
 26 27  1  0
 27 25  2  0
 28 29  1  0
 29 30  2  0
 31 34  1  0
 31 30  1  0
 32 31  2  0
 33 32  1  0
 33 28  2  0
 34 35  1  0
 35 40  2  0
 35 36  1  0
 36 37  2  0
 37 38  1  0
 38 42  1  0
 39 38  2  0
 40 39  1  0
 41 40  1  0
 43 44  1  0
 44 47  1  0
 44 46  1  0
 45 43  2  0
 48 49  1  0
 48 23  1  0
 50 48  1  0
 52 51  1  0
 52  1  1  0
 53 52  1  0
 54 56  1  0
 54 53  1  0
 55 66  2  0
 56 61  1  0
 57 65  1  0
 57 67  1  0
 58 64  1  0
 58 60  1  0
 59 65  1  0
 60 59  1  0
 61 60  2  0
 62 63  1  0
 62 56  2  0
 63 58  2  0
 64 57  1  0
 65 55  1  0
 67 69  2  0
 68 67  1  0
 70 68  1  0
 71 80  2  0
 71 76  1  0
 72 68  1  0
 72 76  1  0
 73 72  1  0
 74 75  1  0
 74 73  1  0
 75 71  1  0
 76 77  2  0
 77 78  1  0
 79 78  2  0
 80 79  1  0
 81 55  1  0
 81 86  1  0
 81 82  1  0
 82 85  1  1
 82 83  1  0
 84 82  1  0
 86 89  1  0
 87 91  1  0
 87 86  1  0
 88 87  2  0
 91 90  1  0
 93 91  1  0
 93 94  1  0
 93 92  1  0
M  ISO  4  13 100  21 100  53 101  54 101
M  END
>  <TORSDO>  (32) 
F 25

>  <SCORE>  (32) 
-11.581

>  <name>  (32) 
31

>  <ligand_id>  (32) 
31

>  <original_smiles>  (32) 
[H]C(=NC([H])([H])C([H])([H])C([H])([H])C([H])([H])C([H])([H])N([H])C(=O)N1C([H])([H])C([H])([H])C([H])([H])C([H])(n2nc(-c3c([H])c([H])c(Oc4c([H])c([H])c(F)c([H])c4F)c([H])c3[H])c(C(=O)N([H])[H])c2N([H])[H])C1([H])[H])C([H])(C([H])(C([H])([H])[H])C([H])([H])Oc1c([H])c([H])c2c(c1[H])C([H])([H])N(C(=O)C([H])(N([H])C(=O)C([H])(N([H])C([H])([H])[H])C([H])([H])[H])C(C([H])([H])[H])(C([H])([H])[H])C([H])([H])[H])C([H])(C(=O)N([H])C1([H])c3c([H])c([H])c([H])c([H])c3C([H])([H])C([H])([H])C1([H])[H])C2([H])[H])[N+]([H])([H])[H]

>  <smiles>  (32) 
[H]C(=NC([H])([H])C([H])([H])C([H])([H])C([H])([H])C([H])([H])N([H])C(=O)N1C([H])([H])C([H])([H])C([H])([H])C([H])(n2nc(-c3c([H])c([H])c(Oc4c([H])c([H])c(F)c([H])c4F)c([H])c3[H])c(C(=O)N([H])[H])c2N([H])[H])C1([H])[H])C([H])(C([H])(C([H])([H])[H])C([H])([H])Oc1c([H])c([H])c2c(c1[H])C([H])([H])N(C(=O)C([H])(N([H])C(=O)C([H])(N([H])C([H])([H])[H])C([H])([H])[H])C(C([H])([H])[H])(C([H])([H])[H])C([H])([H])[H])C([H])(C(=O)N([H])C1([H])c3c([H])c([H])c([H])c([H])c3C([H])([H])C([H])([H])C1([H])[H])C2([H])[H])[N+]([H])([H])[H]

$$$$
32:0:0
     RDKit          3D

 97105  0  0  1  0  0  0  0  0999 V2000
  -30.7180  -21.2850   18.5000 C   0  0  0  0  0  2  0  0  0  0  0  0
  -31.3800  -21.6750   17.2270 N   0  0  0  0  0  4  0  0  0  0  0  0
  -30.7670  -21.4660   16.4500 H   0  0  0  0  0  0  0  0  0  0  0  0
  -31.4910  -22.6760   17.2530 H   0  0  0  0  0  0  0  0  0  0  0  0
  -35.2400  -21.1620   14.1160 C   0  0  0  0  0  0  0  0  0  0  0  0
  -36.8080  -20.1990   12.4710 C   0  0  0  0  0  2  0  0  0  0  0  0
  -36.1010  -19.3910   11.3690 C   0  0  0  0  0  2  0  0  0  0  0  0
  -35.8900  -17.9340   11.8160 C   0  0  0  0  0  2  0  0  0  0  0  0
  -35.2320  -17.8340   13.2160 C   0  0  0  0  0  3  0  0  0  0  0  0
  -35.9580  -18.7400   14.2360 C   0  0  0  0  0  2  0  0  0  0  0  0
  -36.0110  -20.1180   13.7060 N   0  0  0  0  0  0  0  0  0  0  0  0
  -35.0410  -22.1630   13.4180 O   0  0  0  0  0  0  0  0  0  0  0  0
  -35.0360  -20.5560   17.7580 C   0  0  0  0  0  2  0  0  0  0  0  0
  -35.6430  -21.1720   16.4860 C   0  0  0  0  0  2  0  0  0  0  0  0
  -33.3810  -21.6790   15.6220 C   0  0  0  0  0  2  0  0  0  0  0  0
  -33.6910  -21.2100   18.1280 C   0  0  0  0  0  3  0  0  0  0  0  0
  -32.7200  -21.0940   16.9090 C   0  0  0  0  0  3  0  0  0  0  0  0
  -34.7060  -21.0720   15.3570 N   0  0  0  0  0  0  0  0  0  0  0  0
  -34.1180  -15.5400   13.5920 C   0  0  0  0  0  0  0  0  0  0  0  0
  -34.6030  -14.3620   14.0930 C   0  0  0  0  0  0  0  0  0  0  0  0
  -35.9620  -14.6140   14.4550 C   0  0  0  0  0  0  0  0  0  0  0  0
  -35.1650  -16.4450   13.6710 N   0  0  0  0  0  0  0  0  0  0  0  0
  -36.2650  -15.8880   14.2420 N   0  0  0  0  0  0  0  0  0  0  0  0
  -37.0070  -13.7030   14.9400 C   0  0  0  0  0  0  0  0  0  0  0  0
  -37.5210  -13.8000   16.2530 C   0  0  0  0  0  3  0  0  0  0  0  0
  -38.5140  -12.9000   16.6980 C   0  0  0  0  0  3  0  0  0  0  0  0
  -39.0030  -11.8950   15.8310 C   0  0  0  0  0  0  0  0  0  0  0  0
  -38.5050  -11.8190   14.5190 C   0  0  0  0  0  3  0  0  0  0  0  0
  -37.5180  -12.7150   14.0760 C   0  0  0  0  0  3  0  0  0  0  0  0
  -39.9820  -10.9930   16.1690 O   0  0  0  0  0  0  0  0  0  0  0  0
  -39.9000  -10.2340   17.3110 C   0  0  0  0  0  0  0  0  0  0  0  0
  -38.8730   -9.2850   17.5040 C   0  0  0  0  0  3  0  0  0  0  0  0
  -38.8680   -8.4780   18.6590 C   0  0  0  0  0  3  0  0  0  0  0  0
  -39.8900   -8.6130   19.6180 C   0  0  0  0  0  0  0  0  0  0  0  0
  -40.9160   -9.5530   19.4260 C   0  0  0  0  0  3  0  0  0  0  0  0
  -40.9230  -10.3600   18.2750 C   0  0  0  0  0  0  0  0  0  0  0  0
  -41.9270  -11.2490   18.0830 F   0  0  0  0  0  0  0  0  0  0  0  0
  -39.8880   -7.8320   20.7240 F   0  0  0  0  0  0  0  0  0  0  0  0
  -33.8790  -13.0480   14.1510 C   0  0  0  0  0  0  0  0  0  0  0  0
  -33.8280  -12.4290   15.3250 N   0  0  0  0  0  0  0  0  0  0  0  0
  -33.3070  -12.5890   13.1640 O   0  0  0  0  0  0  0  0  0  0  0  0
  -34.2790  -12.8190   16.1410 H   0  0  0  0  0  0  0  0  0  0  0  0
  -33.3320  -11.5540   15.4120 H   0  0  0  0  0  0  0  0  0  0  0  0
  -32.8860  -15.9140   13.0600 N   0  0  0  0  0  0  0  0  0  0  0  0
  -32.1310  -15.2490   12.9240 H   0  0  0  0  0  0  0  0  0  0  0  0
  -32.6790  -16.8290   12.6800 H   0  0  0  0  0  0  0  0  0  0  0  0
  -33.8850  -22.6470   18.6690 C   0  0  0  0  0  0  0  0  0  0  0  0
  -34.6640  -22.8350   19.9640 C   0  0  0  0  0  1  0  0  0  0  0  0
  -33.3920  -23.6220   18.0980 O   0  0  0  0  0  0  0  0  0  0  0  0
  -30.2990  -19.7920   18.4790 C   0  0  0  0  0  2  0  0  0  0  0  0
  -29.0970  -19.4170   19.3810 C   0  0  0  0  0  2  0  0  0  0  0  0
  -29.5480  -18.7080   20.6060 N   0  0  0  0  0  4  0  0  0  0  0  0
  -29.1990  -19.2060   21.4110 H   0  0  0  0  0  0  0  0  0  0  0  0
  -30.5560  -18.7580   20.6350 H   0  0  0  0  0  0  0  0  0  0  0  0
  -29.1490  -17.2800   20.7330 C   0  0  0  0  0  2  0  0  0  0  0  0
  -30.1400  -16.4970   21.6270 C   0  0  0  0  0  2  0  0  0  0  0  0
  -30.1380  -15.0960   21.3320 O   0  0  0  0  0  0  0  0  0  0  0  0
  -35.2770  -10.1700   20.8510 C   0  0  0  0  0  0  0  0  0  0  0  0
  -31.2660  -14.6460   20.6880 C   0  0  0  0  0  0  0  0  0  0  0  0
  -35.5770  -12.1950   19.4560 C   0  0  0  0  0  3  0  0  0  0  0  0
  -33.5540  -13.7420   19.3040 C   0  0  0  0  0  0  0  0  0  0  0  0
  -33.2380  -11.3950   20.1070 C   0  0  0  0  0  2  0  0  0  0  0  0
  -32.7950  -12.8420   20.0600 C   0  0  0  0  0  0  0  0  0  0  0  0
  -31.6460  -13.2870   20.7520 C   0  0  0  0  0  3  0  0  0  0  0  0
  -32.0420  -15.5430   19.9270 C   0  0  0  0  0  3  0  0  0  0  0  0
  -33.1860  -15.0980   19.2360 C   0  0  0  0  0  3  0  0  0  0  0  0
  -34.7590  -13.1810   18.5810 C   0  0  0  0  0  2  0  0  0  0  0  0
  -34.7070  -11.2190   20.1900 N   0  0  0  0  0  0  0  0  0  0  0  0
  -36.5010   -9.9840   20.8200 O   0  0  0  0  0  0  0  0  0  0  0  0
  -36.5000  -13.0120   20.3880 C   0  0  0  0  0  0  0  0  0  0  0  0
  -37.7650  -13.1880   19.9730 N   0  0  0  0  0  0  0  0  0  0  0  0
  -36.0710  -13.4950   21.4400 O   0  0  0  0  0  0  0  0  0  0  0  0
  -38.0440  -12.7520   19.1050 H   0  0  0  0  0  0  0  0  0  0  0  0
  -41.2210  -13.1320   21.0250 C   0  0  0  0  0  0  0  0  0  0  0  0
  -38.7980  -13.9570   20.6660 C   0  0  0  0  0  3  0  0  0  0  0  0
  -39.4100  -15.0300   19.7370 C   0  0  0  0  0  2  0  0  0  0  0  0
  -40.6650  -14.5500   19.0040 C   0  0  0  0  0  2  0  0  0  0  0  0
  -41.7440  -14.1300   20.0050 C   0  0  0  0  0  2  0  0  0  0  0  0
  -39.8360  -13.0410   21.3240 C   0  0  0  0  0  0  0  0  0  0  0  0
  -39.3970  -12.0730   22.2520 C   0  0  0  0  0  3  0  0  0  0  0  0
  -40.3140  -11.2090   22.8790 C   0  0  0  0  0  3  0  0  0  0  0  0
  -41.6860  -11.3130   22.5920 C   0  0  0  0  0  3  0  0  0  0  0  0
  -42.1370  -12.2740   21.6700 C   0  0  0  0  0  3  0  0  0  0  0  0
  -34.4180   -9.1450   21.6540 C   0  0  0  0  0  3  0  0  0  0  0  0
  -34.9490   -7.8050   21.3730 N   0  0  0  0  0  0  0  0  0  0  0  0
  -34.2240   -6.7860   20.8930 C   0  0  0  0  0  0  0  0  0  0  0  0
  -33.0060   -6.8580   20.7090 O   0  0  0  0  0  0  0  0  0  0  0  0
  -35.9500   -7.6900   21.4470 H   0  0  0  0  0  0  0  0  0  0  0  0
  -34.7880   -5.1390   19.0780 C   0  0  0  0  0  1  0  0  0  0  0  0
  -34.9680   -5.4770   20.5670 C   0  0  0  0  0  3  0  0  0  0  0  0
  -34.9020   -4.4580   22.8000 C   0  0  0  0  0  1  0  0  0  0  0  0
  -34.5300   -4.3310   21.3930 N   0  0  0  0  0  0  0  0  0  0  0  0
  -34.9210   -3.4620   21.0390 H   0  0  0  0  0  0  0  0  0  0  0  0
  -34.4040   -9.4260   23.2070 C   0  0  1  0  0  0  0  0  0  0  0  0
  -35.5430   -8.7200   23.9780 C   0  0  0  0  0  1  0  0  0  0  0  0
  -34.5120  -10.9430   23.4870 C   0  0  0  0  0  1  0  0  0  0  0  0
  -33.0600   -8.9580   23.8130 C   0  0  0  0  0  1  0  0  0  0  0  0
  2  4  1  0
  2  1  1  0
  3  2  1  0
  5 18  1  0
  6 11  1  0
  7  8  1  0
  7  6  1  0
  9  8  1  0
  9 22  1  0
  9 10  1  0
 11  5  1  0
 11 10  1  0
 12  5  2  0
 13 16  1  0
 14 13  1  0
 15 17  1  0
 16 47  1  0
 17  2  1  0
 17 16  1  0
 18 15  1  0
 18 14  1  0
 19 22  1  0
 19 20  2  0
 20 39  1  0
 20 21  1  0
 21 24  1  0
 22 23  1  0
 23 21  2  0
 24 25  1  0
 25 26  2  0
 27 30  1  0
 27 26  1  0
 28 27  2  0
 29 28  1  0
 29 24  2  0
 30 31  1  0
 31 32  2  0
 31 36  1  0
 32 33  1  0
 33 34  2  0
 34 38  1  0
 35 34  1  0
 36 35  2  0
 37 36  1  0
 39 40  1  0
 40 43  1  0
 40 42  1  0
 41 39  2  0
 44 19  1  0
 45 44  1  0
 46 44  1  0
 47 48  1  0
 49 47  2  0
 50  1  1  0
 50 51  1  0
 51 52  1  0
 52 54  1  0
 52 55  1  0
 52 53  1  0
 55 56  1  0
 57 56  1  0
 59 64  1  0
 59 57  1  0
 60 68  1  0
 60 70  1  0
 61 63  1  0
 62 68  1  0
 63 62  1  0
 63 64  2  0
 65 59  2  0
 66 61  2  0
 66 65  1  0
 67 61  1  0
 67 60  1  0
 68 58  1  0
 69 58  2  0
 70 72  2  0
 71 70  1  0
 73 71  1  0
 74 79  2  0
 74 83  1  0
 75 71  1  0
 75 79  1  0
 76 75  1  0
 77 76  1  0
 77 78  1  0
 78 74  1  0
 79 80  1  0
 80 81  2  0
 82 81  1  0
 83 82  2  0
 84 58  1  0
 84 94  1  0
 85 88  1  0
 85 84  1  0
 86 85  1  0
 87 86  2  0
 90 89  1  0
 90 86  1  0
 90 92  1  0
 92 91  1  0
 93 92  1  0
 94 96  1  6
 94 97  1  0
 94 95  1  0
M  ISO  4   5 100  18 100  56 101  57 101
M  END
>  <TORSDO>  (33) 
F 23

>  <SCORE>  (33) 
-4.136

>  <name>  (33) 
32

>  <ligand_id>  (33) 
32

>  <original_smiles>  (33) 
[H]c1c([H])c([H])c2c(c1[H])C([H])([H])C([H])([H])C([H])([H])C2([H])N([H])C(=O)C1([H])N(C(=O)C([H])(N([H])C(=O)C([H])(N([H])C([H])([H])[H])C([H])([H])[H])C(C([H])([H])[H])(C([H])([H])[H])C([H])([H])[H])C([H])([H])c2c([H])c(OC([H])([H])C([H])([H])[N+]([H])([H])C([H])([H])C([H])([H])C([H])([H])[N+]([H])([H])C3([H])C([H])([H])N(C(=O)N4C([H])([H])C([H])([H])C([H])([H])C([H])(n5nc(-c6c([H])c([H])c(Oc7c([H])c([H])c(F)c([H])c7F)c([H])c6[H])c(C(=O)N([H])[H])c5N([H])[H])C4([H])[H])C([H])([H])C([H])([H])C3([H])C(=O)C([H])([H])[H])c([H])c([H])c2C1([H])[H]

>  <smiles>  (33) 
[H]c1c([H])c([H])c2c(c1[H])C([H])([H])C([H])([H])C([H])([H])C2([H])N([H])C(=O)C1([H])N(C(=O)C([H])(N([H])C(=O)C([H])(N([H])C([H])([H])[H])C([H])([H])[H])C(C([H])([H])[H])(C([H])([H])[H])C([H])([H])[H])C([H])([H])c2c([H])c(OC([H])([H])C([H])([H])[N+]([H])([H])C([H])([H])C([H])([H])C([H])([H])[N+]([H])([H])C3([H])C([H])([H])N(C(=O)N4C([H])([H])C([H])([H])C([H])([H])C([H])(n5nc(-c6c([H])c([H])c(Oc7c([H])c([H])c(F)c([H])c7F)c([H])c6[H])c(C(=O)N([H])[H])c5N([H])[H])C4([H])[H])C([H])([H])C([H])([H])C3([H])C(=O)C([H])([H])[H])c([H])c([H])c2C1([H])[H]

$$$$
33:0:0
     RDKit          3D

 98106  0  0  1  0  0  0  0  0999 V2000
  -25.9870  -19.9400   19.5080 C   0  0  0  0  0  2  0  0  0  0  0  0
  -28.4070  -19.2980   19.7130 C   0  0  0  0  0  0  0  0  0  0  0  0
  -27.1890  -19.1780   19.1690 N   0  0  0  0  0  0  0  0  0  0  0  0
  -28.6610  -20.1790   20.5400 O   0  0  0  0  0  0  0  0  0  0  0  0
  -27.0660  -18.4470   18.4800 H   0  0  0  0  0  0  0  0  0  0  0  0
  -30.8590  -14.4430   20.1790 C   0  0  0  0  0  0  0  0  0  0  0  0
  -30.4390  -12.3000   19.0430 C   0  0  0  0  0  2  0  0  0  0  0  0
  -29.4700  -12.4890   17.8590 C   0  0  0  0  0  2  0  0  0  0  0  0
  -28.0120  -12.3520   18.3360 C   0  0  0  0  0  2  0  0  0  0  0  0
  -27.7140  -13.2110   19.5930 C   0  0  0  0  0  3  0  0  0  0  0  0
  -28.8060  -12.9990   20.6760 C   0  0  0  0  0  2  0  0  0  0  0  0
  -30.1080  -13.3090   20.0670 N   0  0  0  0  0  0  0  0  0  0  0  0
  -31.9650  -14.5200   19.6370 O   0  0  0  0  0  0  0  0  0  0  0  0
  -29.0130  -16.8370   19.3190 C   0  0  0  0  0  2  0  0  0  0  0  0
  -29.0980  -16.1780   20.7130 C   0  0  0  0  0  2  0  0  0  0  0  0
  -31.3860  -16.5330   21.3300 C   0  0  0  0  0  2  0  0  0  0  0  0
  -31.7590  -17.5360   20.2000 C   0  0  0  0  0  2  0  0  0  0  0  0
  -29.5000  -18.3150   19.2500 C   0  0  0  0  0  3  0  0  0  0  0  0
  -30.4050  -15.5230   20.8890 N   0  0  0  0  0  0  0  0  0  0  0  0
  -30.7530  -18.6070   19.9960 N   0  0  0  0  0  4  0  0  0  0  0  0
  -31.2000  -19.3660   19.5050 H   0  0  0  0  0  0  0  0  0  0  0  0
  -30.4700  -18.9980   20.8830 H   0  0  0  0  0  0  0  0  0  0  0  0
  -25.3490  -13.8660   20.3720 C   0  0  0  0  0  0  0  0  0  0  0  0
  -24.2790  -13.1100   20.7710 C   0  0  0  0  0  0  0  0  0  0  0  0
  -24.7150  -11.7520   20.7230 C   0  0  0  0  0  0  0  0  0  0  0  0
  -26.3710  -12.9650   20.1110 N   0  0  0  0  0  0  0  0  0  0  0  0
  -25.9950  -11.6900   20.3800 N   0  0  0  0  0  0  0  0  0  0  0  0
  -23.9760  -10.5010   20.9240 C   0  0  0  0  0  0  0  0  0  0  0  0
  -24.3780   -9.5560   21.8940 C   0  0  0  0  0  3  0  0  0  0  0  0
  -23.6410   -8.3660   22.0800 C   0  0  0  0  0  3  0  0  0  0  0  0
  -22.4870   -8.1160   21.3000 C   0  0  0  0  0  0  0  0  0  0  0  0
  -22.1040   -9.0520   20.3210 C   0  0  0  0  0  3  0  0  0  0  0  0
  -22.8430  -10.2320   20.1310 C   0  0  0  0  0  3  0  0  0  0  0  0
  -21.7240   -6.9770   21.3980 O   0  0  0  0  0  0  0  0  0  0  0  0
  -21.5970   -6.2950   22.5830 C   0  0  0  0  0  0  0  0  0  0  0  0
  -21.0560   -6.9010   23.7370 C   0  0  0  0  0  3  0  0  0  0  0  0
  -20.8800   -6.1440   24.9130 C   0  0  0  0  0  3  0  0  0  0  0  0
  -21.2350   -4.7820   24.9330 C   0  0  0  0  0  0  0  0  0  0  0  0
  -21.7690   -4.1750   23.7830 C   0  0  0  0  0  3  0  0  0  0  0  0
  -21.9460   -4.9300   22.6090 C   0  0  0  0  0  0  0  0  0  0  0  0
  -22.4420   -4.3360   21.4970 F   0  0  0  0  0  0  0  0  0  0  0  0
  -21.0570   -4.0520   26.0590 F   0  0  0  0  0  0  0  0  0  0  0  0
  -22.8970  -13.6110   21.0850 C   0  0  0  0  0  0  0  0  0  0  0  0
  -22.1780  -12.9170   21.9610 N   0  0  0  0  0  0  0  0  0  0  0  0
  -22.4660  -14.6500   20.5880 O   0  0  0  0  0  0  0  0  0  0  0  0
  -22.5380  -12.0790   22.3920 H   0  0  0  0  0  0  0  0  0  0  0  0
  -21.2510  -13.2320   22.2080 H   0  0  0  0  0  0  0  0  0  0  0  0
  -25.5320  -15.2320   20.1900 N   0  0  0  0  0  0  0  0  0  0  0  0
  -24.7870  -15.9010   20.3450 H   0  0  0  0  0  0  0  0  0  0  0  0
  -26.3840  -15.6550   19.8540 H   0  0  0  0  0  0  0  0  0  0  0  0
  -26.0300  -21.3710   18.9510 C   0  0  0  0  0  2  0  0  0  0  0  0
  -26.8810  -22.2360   19.7870 N   0  0  0  0  0  4  0  0  0  0  0  0
  -26.3210  -22.5780   20.5520 H   0  0  0  0  0  0  0  0  0  0  0  0
  -27.6090  -21.6480   20.1860 H   0  0  0  0  0  0  0  0  0  0  0  0
  -27.4970  -23.3670   19.0670 C   0  0  0  0  0  2  0  0  0  0  0  0
  -27.9910  -24.4550   20.0330 C   0  0  0  0  0  2  0  0  0  0  0  0
  -28.6240  -25.6530   19.2980 C   0  0  0  0  0  2  0  0  0  0  0  0
  -28.5140  -26.8510   20.0640 O   0  0  0  0  0  0  0  0  0  0  0  0
  -24.6580  -31.8280   23.3470 C   0  0  0  0  0  0  0  0  0  0  0  0
  -27.3160  -27.5400   20.0720 C   0  0  0  0  0  0  0  0  0  0  0  0
  -23.4680  -30.5360   21.6070 C   0  0  0  0  0  3  0  0  0  0  0  0
  -24.9290  -29.0610   20.1280 C   0  0  0  0  0  0  0  0  0  0  0  0
  -26.0020  -30.8670   21.4820 C   0  0  0  0  0  2  0  0  0  0  0  0
  -26.0790  -29.5330   20.7750 C   0  0  0  0  0  0  0  0  0  0  0  0
  -27.2680  -28.7750   20.7530 C   0  0  0  0  0  3  0  0  0  0  0  0
  -26.1440  -27.0800   19.4230 C   0  0  0  0  0  3  0  0  0  0  0  0
  -24.9560  -27.8300   19.4540 C   0  0  0  0  0  3  0  0  0  0  0  0
  -23.6960  -29.9310   20.1970 C   0  0  0  0  0  2  0  0  0  0  0  0
  -24.7280  -31.0860   22.2050 N   0  0  0  0  0  0  0  0  0  0  0  0
  -23.5700  -32.0910   23.8760 O   0  0  0  0  0  0  0  0  0  0  0  0
  -22.7820  -29.4740   22.4940 C   0  0  0  0  0  0  0  0  0  0  0  0
  -21.4590  -29.3150   22.3180 N   0  0  0  0  0  0  0  0  0  0  0  0
  -23.4350  -28.7990   23.2950 O   0  0  0  0  0  0  0  0  0  0  0  0
  -20.9940  -29.9110   21.6470 H   0  0  0  0  0  0  0  0  0  0  0  0
  -18.0620  -28.1370   22.6500 C   0  0  0  0  0  0  0  0  0  0  0  0
  -20.6100  -28.3510   23.0160 C   0  0  0  0  0  3  0  0  0  0  0  0
  -20.7180  -26.9500   22.3730 C   0  0  0  0  0  2  0  0  0  0  0  0
  -19.6450  -26.6880   21.3110 C   0  0  0  0  0  2  0  0  0  0  0  0
  -18.2450  -26.8210   21.9160 C   0  0  0  0  0  2  0  0  0  0  0  0
  -19.1730  -28.8640   23.1530 C   0  0  0  0  0  0  0  0  0  0  0  0
  -18.9490  -30.1010   23.7970 C   0  0  0  0  0  3  0  0  0  0  0  0
  -17.6450  -30.6110   23.9440 C   0  0  0  0  0  3  0  0  0  0  0  0
  -16.5470  -29.8800   23.4570 C   0  0  0  0  0  3  0  0  0  0  0  0
  -16.7570  -28.6460   22.8170 C   0  0  0  0  0  3  0  0  0  0  0  0
  -25.9410  -32.4000   24.0290 C   0  0  0  0  0  3  0  0  0  0  0  0
  -25.6600  -33.7930   24.3990 N   0  0  0  0  0  0  0  0  0  0  0  0
  -26.0530  -34.8610   23.6940 C   0  0  0  0  0  0  0  0  0  0  0  0
  -26.7610  -34.7750   22.6860 O   0  0  0  0  0  0  0  0  0  0  0  0
  -25.0390  -33.9390   25.1820 H   0  0  0  0  0  0  0  0  0  0  0  0
  -24.4040  -36.7210   23.3230 C   0  0  0  0  0  1  0  0  0  0  0  0
  -25.5850  -36.2440   24.1820 C   0  0  0  0  0  3  0  0  0  0  0  0
  -27.6930  -37.0280   25.1660 C   0  0  0  0  0  1  0  0  0  0  0  0
  -26.6540  -37.2660   24.1680 N   0  0  0  0  0  0  0  0  0  0  0  0
  -26.2670  -38.1930   24.3230 H   0  0  0  0  0  0  0  0  0  0  0  0
  -26.4040  -31.5650   25.2850 C   0  0  1  0  0  0  0  0  0  0  0  0
  -25.2750  -31.3150   26.3120 C   0  0  0  0  0  1  0  0  0  0  0  0
  -26.9630  -30.1900   24.8520 C   0  0  0  0  0  1  0  0  0  0  0  0
  -27.5530  -32.3050   26.0100 C   0  0  0  0  0  1  0  0  0  0  0  0
  2  4  2  0
  3  1  1  0
  3  2  1  0
  5  3  1  0
  6 19  1  0
  7 12  1  0
  8  9  1  0
  8  7  1  0
 10  9  1  0
 10 26  1  0
 10 11  1  0
 12  6  1  0
 12 11  1  0
 13  6  2  0
 14 15  1  0
 15 19  1  0
 17 16  1  0
 18 14  1  0
 18  2  1  0
 18 20  1  0
 19 16  1  0
 20 17  1  0
 20 22  1  0
 21 20  1  0
 23 24  2  0
 24 43  1  0
 25 24  1  0
 25 28  1  0
 26 23  1  0
 26 27  1  0
 27 25  2  0
 28 29  1  0
 29 30  2  0
 31 34  1  0
 31 30  1  0
 32 31  2  0
 33 32  1  0
 33 28  2  0
 34 35  1  0
 35 40  2  0
 35 36  1  0
 36 37  2  0
 37 38  1  0
 38 42  1  0
 39 38  2  0
 40 39  1  0
 41 40  1  0
 43 44  1  0
 44 47  1  0
 44 46  1  0
 45 43  2  0
 48 49  1  0
 48 23  1  0
 50 48  1  0
 51  1  1  0
 51 52  1  0
 52 54  1  0
 52 53  1  0
 55 52  1  0
 55 56  1  0
 57 56  1  0
 57 58  1  0
 58 60  1  0
 59 70  2  0
 60 65  1  0
 61 69  1  0
 61 71  1  0
 62 68  1  0
 62 64  1  0
 63 69  1  0
 64 63  1  0
 65 64  2  0
 66 67  1  0
 66 60  2  0
 67 62  2  0
 68 61  1  0
 69 59  1  0
 71 73  2  0
 72 71  1  0
 74 72  1  0
 75 84  2  0
 75 80  1  0
 76 72  1  0
 76 80  1  0
 77 76  1  0
 78 79  1  0
 78 77  1  0
 79 75  1  0
 80 81  2  0
 81 82  1  0
 83 82  2  0
 84 83  1  0
 85 59  1  0
 85 86  1  0
 85 95  1  0
 86 89  1  0
 87 91  1  0
 87 86  1  0
 88 87  2  0
 91 90  1  0
 93 91  1  0
 93 94  1  0
 93 92  1  0
 95 98  1  1
 95 96  1  0
 97 95  1  0
M  ISO  4   6 100  19 100  57 101  58 101
M  END
>  <TORSDO>  (34) 
F 22

>  <SCORE>  (34) 
-12.282

>  <name>  (34) 
33

>  <ligand_id>  (34) 
33

>  <original_smiles>  (34) 
[H]c1c([H])c([H])c2c(c1[H])C([H])([H])C([H])([H])C([H])([H])C2([H])N([H])C(=O)C1([H])N(C(=O)C([H])(N([H])C(=O)C([H])(N([H])C([H])([H])[H])C([H])([H])[H])C(C([H])([H])[H])(C([H])([H])[H])C([H])([H])[H])C([H])([H])c2c([H])c(OC([H])([H])C([H])([H])C([H])([H])[N+]([H])([H])C([H])([H])C([H])([H])N([H])C(=O)C3([H])C([H])([H])C([H])([H])N(C(=O)N4C([H])([H])C([H])([H])C([H])([H])C([H])(n5nc(-c6c([H])c([H])c(Oc7c([H])c([H])c(F)c([H])c7F)c([H])c6[H])c(C(=O)N([H])[H])c5N([H])[H])C4([H])[H])C([H])([H])C([H])([H])[N+]3([H])[H])c([H])c([H])c2C1([H])[H]

>  <smiles>  (34) 
[H]c1c([H])c([H])c2c(c1[H])C([H])([H])C([H])([H])C([H])([H])C2([H])N([H])C(=O)C1([H])N(C(=O)C([H])(N([H])C(=O)C([H])(N([H])C([H])([H])[H])C([H])([H])[H])C(C([H])([H])[H])(C([H])([H])[H])C([H])([H])[H])C([H])([H])c2c([H])c(OC([H])([H])C([H])([H])C([H])([H])[N+]([H])([H])C([H])([H])C([H])([H])N([H])C(=O)C3([H])C([H])([H])C([H])([H])N(C(=O)N4C([H])([H])C([H])([H])C([H])([H])C([H])(n5nc(-c6c([H])c([H])c(Oc7c([H])c([H])c(F)c([H])c7F)c([H])c6[H])c(C(=O)N([H])[H])c5N([H])[H])C4([H])[H])C([H])([H])C([H])([H])[N+]3([H])[H])c([H])c([H])c2C1([H])[H]

$$$$
34:0:0
     RDKit          3D

 93101  0  0  1  0  0  0  0  0999 V2000
  -29.3310  -21.8920   21.1350 C   0  0  0  0  0  2  0  0  0  0  0  0
  -28.9590  -22.9380   20.1440 N   0  0  0  0  0  4  0  0  0  0  0  0
  -27.9750  -22.8180   19.9820 H   0  0  0  0  0  0  0  0  0  0  0  0
  -29.4180  -22.7770   19.2630 H   0  0  0  0  0  0  0  0  0  0  0  0
  -29.1720  -24.3580   20.5700 C   0  0  0  0  0  2  0  0  0  0  0  0
  -28.0990  -25.2820   19.9820 C   0  0  0  0  0  2  0  0  0  0  0  0
  -28.3270  -26.6860   20.2280 O   0  0  0  0  0  0  0  0  0  0  0  0
  -24.5400  -31.9100   23.2460 C   0  0  0  0  0  0  0  0  0  0  0  0
  -27.1900  -27.4710   20.1680 C   0  0  0  0  0  0  0  0  0  0  0  0
  -23.3470  -30.5170   21.5890 C   0  0  0  0  0  3  0  0  0  0  0  0
  -24.8150  -29.0130   20.1590 C   0  0  0  0  0  0  0  0  0  0  0  0
  -25.8710  -30.8910   21.4010 C   0  0  0  0  0  2  0  0  0  0  0  0
  -25.9720  -29.5160   20.7690 C   0  0  0  0  0  0  0  0  0  0  0  0
  -27.1600  -28.7480   20.7850 C   0  0  0  0  0  3  0  0  0  0  0  0
  -26.0160  -27.0170   19.5140 C   0  0  0  0  0  3  0  0  0  0  0  0
  -24.8340  -27.7670   19.5290 C   0  0  0  0  0  3  0  0  0  0  0  0
  -23.5710  -29.8670   20.2010 C   0  0  0  0  0  2  0  0  0  0  0  0
  -24.6070  -31.1150   22.1410 N   0  0  0  0  0  0  0  0  0  0  0  0
  -23.4560  -32.1750   23.7800 O   0  0  0  0  0  0  0  0  0  0  0  0
  -22.7010  -29.4750   22.5310 C   0  0  0  0  0  0  0  0  0  0  0  0
  -21.3770  -29.2930   22.4000 N   0  0  0  0  0  0  0  0  0  0  0  0
  -23.3820  -28.8380   23.3390 O   0  0  0  0  0  0  0  0  0  0  0  0
  -20.8840  -29.8800   21.7430 H   0  0  0  0  0  0  0  0  0  0  0  0
  -18.0030  -28.0930   22.8560 C   0  0  0  0  0  0  0  0  0  0  0  0
  -20.5590  -28.3450   23.1560 C   0  0  0  0  0  3  0  0  0  0  0  0
  -20.6630  -26.9180   22.5680 C   0  0  0  0  0  2  0  0  0  0  0  0
  -19.5680  -26.6020   21.5420 C   0  0  0  0  0  2  0  0  0  0  0  0
  -18.1810  -26.7470   22.1760 C   0  0  0  0  0  2  0  0  0  0  0  0
  -19.1190  -28.8490   23.3040 C   0  0  0  0  0  0  0  0  0  0  0  0
  -18.8990  -30.1080   23.9000 C   0  0  0  0  0  3  0  0  0  0  0  0
  -17.5950  -30.6150   24.0570 C   0  0  0  0  0  3  0  0  0  0  0  0
  -16.4920  -29.8580   23.6270 C   0  0  0  0  0  3  0  0  0  0  0  0
  -16.6960  -28.5990   23.0320 C   0  0  0  0  0  3  0  0  0  0  0  0
  -25.8220  -32.5400   23.8770 C   0  0  0  0  0  3  0  0  0  0  0  0
  -25.5180  -33.9420   24.1800 N   0  0  0  0  0  0  0  0  0  0  0  0
  -25.8730  -34.9810   23.4150 C   0  0  0  0  0  0  0  0  0  0  0  0
  -26.5630  -34.8590   22.3970 O   0  0  0  0  0  0  0  0  0  0  0  0
  -24.9100  -34.1160   24.9670 H   0  0  0  0  0  0  0  0  0  0  0  0
  -24.1740  -36.7900   22.9910 C   0  0  0  0  0  1  0  0  0  0  0  0
  -25.3840  -36.3740   23.8440 C   0  0  0  0  0  3  0  0  0  0  0  0
  -27.4930  -37.2530   24.7430 C   0  0  0  0  0  1  0  0  0  0  0  0
  -26.4270  -37.4170   23.7590 N   0  0  0  0  0  0  0  0  0  0  0  0
  -26.0210  -38.3410   23.8850 H   0  0  0  0  0  0  0  0  0  0  0  0
  -26.3160  -31.7810   25.1670 C   0  0  1  0  0  0  0  0  0  0  0  0
  -25.2040  -31.5720   26.2210 C   0  0  0  0  0  1  0  0  0  0  0  0
  -26.8980  -30.3990   24.7870 C   0  0  0  0  0  1  0  0  0  0  0  0
  -27.4500  -32.5840   25.8480 C   0  0  0  0  0  1  0  0  0  0  0  0
  -28.7860  -20.4690   20.7920 C   0  0  0  0  0  2  0  0  0  0  0  0
  -29.4780  -19.1460   18.0840 C   0  0  0  0  0  2  0  0  0  0  0  0
  -30.3900  -19.8230   19.0950 C   0  0  0  0  0  2  0  0  0  0  0  0
  -29.0270  -17.8770   18.7990 C   0  0  0  0  0  3  0  0  0  0  0  0
  -29.2980  -18.1140   20.3080 C   0  0  0  0  0  3  0  0  0  0  0  0
  -27.5770  -17.4850   18.4730 C   0  0  0  0  0  1  0  0  0  0  0  0
  -29.8280  -19.4980   20.4060 N   0  0  0  0  0  0  0  0  0  0  0  0
  -30.3470  -17.1190   20.9120 C   0  0  0  0  0  2  0  0  0  0  0  0
  -30.6500  -14.6360   20.5670 C   0  0  0  0  0  0  0  0  0  0  0  0
  -30.4350  -12.4590   19.4480 C   0  0  0  0  0  2  0  0  0  0  0  0
  -29.5030  -12.5920   18.2240 C   0  0  0  0  0  2  0  0  0  0  0  0
  -28.0240  -12.4400   18.6270 C   0  0  0  0  0  2  0  0  0  0  0  0
  -27.6550  -13.3030   19.8640 C   0  0  0  0  0  3  0  0  0  0  0  0
  -28.6790  -13.1090   21.0010 C   0  0  0  0  0  2  0  0  0  0  0  0
  -30.0030  -13.4430   20.4550 N   0  0  0  0  0  0  0  0  0  0  0  0
  -31.7930  -14.7890   20.1310 O   0  0  0  0  0  0  0  0  0  0  0  0
  -29.9280  -15.6950   21.0190 N   0  0  0  0  0  0  0  0  0  0  0  0
  -29.0480  -15.5040   21.4760 H   0  0  0  0  0  0  0  0  0  0  0  0
  -25.2450  -13.9020   20.5210 C   0  0  0  0  0  0  0  0  0  0  0  0
  -24.1720  -13.1340   20.8630 C   0  0  0  0  0  0  0  0  0  0  0  0
  -24.6370  -11.7810   20.8520 C   0  0  0  0  0  0  0  0  0  0  0  0
  -26.2980  -13.0240   20.3160 N   0  0  0  0  0  0  0  0  0  0  0  0
  -25.9350  -11.7440   20.5790 N   0  0  0  0  0  0  0  0  0  0  0  0
  -23.9120  -10.5210   21.0320 C   0  0  0  0  0  0  0  0  0  0  0  0
  -24.3300   -9.5640   21.9830 C   0  0  0  0  0  3  0  0  0  0  0  0
  -23.6120   -8.3620   22.1500 C   0  0  0  0  0  3  0  0  0  0  0  0
  -22.4590   -8.1110   21.3640 C   0  0  0  0  0  0  0  0  0  0  0  0
  -22.0640   -9.0560   20.4010 C   0  0  0  0  0  3  0  0  0  0  0  0
  -22.7840  -10.2490   20.2340 C   0  0  0  0  0  3  0  0  0  0  0  0
  -21.7090   -6.9650   21.4430 O   0  0  0  0  0  0  0  0  0  0  0  0
  -21.6250   -6.2380   22.6040 C   0  0  0  0  0  0  0  0  0  0  0  0
  -21.1390   -6.7990   23.8020 C   0  0  0  0  0  3  0  0  0  0  0  0
  -21.0020   -5.9940   24.9520 C   0  0  0  0  0  3  0  0  0  0  0  0
  -21.3450   -4.6320   24.9010 C   0  0  0  0  0  0  0  0  0  0  0  0
  -21.8290   -4.0690   23.7070 C   0  0  0  0  0  3  0  0  0  0  0  0
  -21.9660   -4.8710   22.5600 C   0  0  0  0  0  0  0  0  0  0  0  0
  -22.4100   -4.3220   21.4060 F   0  0  0  0  0  0  0  0  0  0  0  0
  -21.2090   -3.8530   26.0020 F   0  0  0  0  0  0  0  0  0  0  0  0
  -22.7680  -13.6080   21.0910 C   0  0  0  0  0  0  0  0  0  0  0  0
  -22.0200  -12.9140   21.9420 N   0  0  0  0  0  0  0  0  0  0  0  0
  -22.3400  -14.6270   20.5530 O   0  0  0  0  0  0  0  0  0  0  0  0
  -22.3870  -12.0940   22.4050 H   0  0  0  0  0  0  0  0  0  0  0  0
  -21.0750  -13.2130   22.1390 H   0  0  0  0  0  0  0  0  0  0  0  0
  -25.4160  -15.2690   20.3450 N   0  0  0  0  0  0  0  0  0  0  0  0
  -24.6480  -15.9280   20.3550 H   0  0  0  0  0  0  0  0  0  0  0  0
  -26.2850  -15.6750   20.0310 H   0  0  0  0  0  0  0  0  0  0  0  0
  2  5  1  0
  2  1  1  0
  3  2  1  0
  4  2  1  0
  6  7  1  0
  6  5  1  0
  8 19  2  0
  9  7  1  0
  9 14  1  0
 10 18  1  0
 10 20  1  0
 11 17  1  0
 11 13  1  0
 12 18  1  0
 13 14  2  0
 13 12  1  0
 15 16  1  0
 15  9  2  0
 16 11  2  0
 17 10  1  0
 18  8  1  0
 20 22  2  0
 21 20  1  0
 23 21  1  0
 24 33  2  0
 24 29  1  0
 25 21  1  0
 25 29  1  0
 26 25  1  0
 27 28  1  0
 27 26  1  0
 28 24  1  0
 29 30  2  0
 30 31  1  0
 32 31  2  0
 33 32  1  0
 34  8  1  0
 34 35  1  0
 34 44  1  0
 35 38  1  0
 36 40  1  0
 36 35  1  0
 37 36  2  0
 40 39  1  0
 42 40  1  0
 42 43  1  0
 42 41  1  0
 44 47  1  1
 44 45  1  0
 46 44  1  0
 48  1  1  0
 49 51  1  0
 49 50  1  0
 50 54  1  0
 51 53  1  0
 51 52  1  0
 52 54  1  0
 52 55  1  0
 54 48  1  0
 55 64  1  0
 56 64  1  0
 57 62  1  0
 58 59  1  0
 58 57  1  0
 60 59  1  0
 60 69  1  0
 60 61  1  0
 62 56  1  0
 62 61  1  0
 63 56  2  0
 64 65  1  0
 66 67  2  0
 67 86  1  0
 68 67  1  0
 68 71  1  0
 69 66  1  0
 69 70  1  0
 70 68  2  0
 71 72  1  0
 72 73  2  0
 74 77  1  0
 74 73  1  0
 75 74  2  0
 76 75  1  0
 76 71  2  0
 77 78  1  0
 78 79  1  0
 79 80  2  0
 81 80  1  0
 81 85  1  0
 82 81  2  0
 83 78  2  0
 83 82  1  0
 84 83  1  0
 86 87  1  0
 87 90  1  0
 87 89  1  0
 88 86  2  0
 91 92  1  0
 91 66  1  0
 93 91  1  0
M  ISO  4   6 101   7 101  56 100  64 100
M  END
>  <TORSDO>  (35) 
F 22

>  <SCORE>  (35) 
-13.324

>  <name>  (35) 
34

>  <ligand_id>  (35) 
34

>  <original_smiles>  (35) 
[H]c1c([H])c([H])c2c(c1[H])C([H])([H])C([H])([H])C([H])([H])C2([H])N([H])C(=O)C1([H])N(C(=O)C([H])(N([H])C(=O)C([H])(N([H])C([H])([H])[H])C([H])([H])[H])C(C([H])([H])[H])(C([H])([H])[H])C([H])([H])[H])C([H])([H])c2c([H])c(OC([H])([H])C([H])([H])[N+]([H])([H])C([H])([H])C([H])([H])N3C([H])([H])C([H])([H])C([H])(C([H])([H])[H])C3([H])C([H])([H])N([H])C(=O)N3C([H])([H])C([H])([H])C([H])([H])C([H])(n4nc(-c5c([H])c([H])c(Oc6c([H])c([H])c(F)c([H])c6F)c([H])c5[H])c(C(=O)N([H])[H])c4N([H])[H])C3([H])[H])c([H])c([H])c2C1([H])[H]

>  <smiles>  (35) 
[H]c1c([H])c([H])c2c(c1[H])C([H])([H])C([H])([H])C([H])([H])C2([H])N([H])C(=O)C1([H])N(C(=O)C([H])(N([H])C(=O)C([H])(N([H])C([H])([H])[H])C([H])([H])[H])C(C([H])([H])[H])(C([H])([H])[H])C([H])([H])[H])C([H])([H])c2c([H])c(OC([H])([H])C([H])([H])[N+]([H])([H])C([H])([H])C([H])([H])N3C([H])([H])C([H])([H])C([H])(C([H])([H])[H])C3([H])C([H])([H])N([H])C(=O)N3C([H])([H])C([H])([H])C([H])([H])C([H])(n4nc(-c5c([H])c([H])c(Oc6c([H])c([H])c(F)c([H])c6F)c([H])c5[H])c(C(=O)N([H])[H])c4N([H])[H])C3([H])[H])c([H])c([H])c2C1([H])[H]

$$$$
35:0:0
     RDKit          3D

 96104  0  0  1  0  0  0  0  0999 V2000
  -29.3220  -19.9670   18.4710 C   0  0  0  0  0  2  0  0  0  0  0  0
  -29.0740  -21.3060   19.1850 C   0  0  0  0  0  2  0  0  0  0  0  0
  -30.6870  -21.1890   20.9110 C   0  0  0  0  0  2  0  0  0  0  0  0
  -31.2470  -19.7710   21.0900 C   0  0  0  0  0  2  0  0  0  0  0  0
  -30.7170  -19.3100   18.6200 C   0  0  0  0  0  3  0  0  0  0  0  0
  -31.8850  -20.0940   17.9850 C   0  0  0  0  0  1  0  0  0  0  0  0
  -29.2450  -21.2000   20.6400 N   0  0  0  0  0  0  0  0  0  0  0  0
  -31.0060  -18.7880   19.9940 N   0  0  2  0  0  4  0  0  0  0  0  0
  -31.9030  -18.3370   19.8890 H   0  0  0  0  0  0  0  0  0  0  0  0
  -28.7070  -22.3810   21.3160 C   0  0  0  0  0  2  0  0  0  0  0  0
  -27.1860  -22.5820   21.1720 C   0  0  0  0  0  2  0  0  0  0  0  0
  -26.6180  -23.5930   22.1910 C   0  0  0  0  0  2  0  0  0  0  0  0
  -26.6910  -25.0860   21.8000 C   0  0  0  0  0  2  0  0  0  0  0  0
  -28.1030  -25.6360   21.5240 C   0  0  0  0  0  2  0  0  0  0  0  0
  -28.4240  -25.7940   20.0170 C   0  0  0  0  0  2  0  0  0  0  0  0
  -28.3740  -27.1550   19.6100 O   0  0  0  0  0  0  0  0  0  0  0  0
  -24.5690  -31.9360   23.1940 C   0  0  0  0  0  0  0  0  0  0  0  0
  -27.1680  -27.8020   19.7130 C   0  0  0  0  0  0  0  0  0  0  0  0
  -23.3220  -30.6370   21.4940 C   0  0  0  0  0  3  0  0  0  0  0  0
  -24.7460  -29.2300   19.9160 C   0  0  0  0  0  0  0  0  0  0  0  0
  -25.8290  -31.0610   21.2340 C   0  0  0  0  0  2  0  0  0  0  0  0
  -25.9110  -29.7420   20.4980 C   0  0  0  0  0  0  0  0  0  0  0  0
  -27.1250  -29.0360   20.3930 C   0  0  0  0  0  3  0  0  0  0  0  0
  -25.9880  -27.2900   19.1300 C   0  0  0  0  0  3  0  0  0  0  0  0
  -24.7750  -28.0010   19.2310 C   0  0  0  0  0  3  0  0  0  0  0  0
  -23.4910  -30.0600   20.0620 C   0  0  0  0  0  2  0  0  0  0  0  0
  -24.5930  -31.2210   22.0330 N   0  0  0  0  0  0  0  0  0  0  0  0
  -23.5050  -32.1520   23.7890 O   0  0  0  0  0  0  0  0  0  0  0  0
  -22.7190  -29.5400   22.3990 C   0  0  0  0  0  0  0  0  0  0  0  0
  -21.3940  -29.3430   22.2940 N   0  0  0  0  0  0  0  0  0  0  0  0
  -23.4360  -28.8720   23.1490 O   0  0  0  0  0  0  0  0  0  0  0  0
  -20.8770  -29.9350   21.6590 H   0  0  0  0  0  0  0  0  0  0  0  0
  -18.0570  -28.0550   22.7860 C   0  0  0  0  0  0  0  0  0  0  0  0
  -20.6140  -28.3390   23.0170 C   0  0  0  0  0  3  0  0  0  0  0  0
  -20.7280  -26.9550   22.3400 C   0  0  0  0  0  2  0  0  0  0  0  0
  -19.6080  -26.6820   21.3310 C   0  0  0  0  0  2  0  0  0  0  0  0
  -18.2400  -26.7580   22.0160 C   0  0  0  0  0  2  0  0  0  0  0  0
  -19.1710  -28.8060   23.2420 C   0  0  0  0  0  0  0  0  0  0  0  0
  -18.9470  -30.0230   23.9210 C   0  0  0  0  0  3  0  0  0  0  0  0
  -17.6390  -30.4900   24.1480 C   0  0  0  0  0  3  0  0  0  0  0  0
  -16.5380  -29.7340   23.7090 C   0  0  0  0  0  3  0  0  0  0  0  0
  -16.7480  -28.5190   23.0340 C   0  0  0  0  0  3  0  0  0  0  0  0
  -25.8700  -32.5350   23.8150 C   0  0  0  0  0  3  0  0  0  0  0  0
  -25.5690  -33.9120   24.2270 N   0  0  0  0  0  0  0  0  0  0  0  0
  -25.8900  -35.0040   23.5220 C   0  0  0  0  0  0  0  0  0  0  0  0
  -26.5460  -34.9570   22.4770 O   0  0  0  0  0  0  0  0  0  0  0  0
  -24.9870  -34.0220   25.0460 H   0  0  0  0  0  0  0  0  0  0  0  0
  -24.1610  -36.8120   23.2850 C   0  0  0  0  0  1  0  0  0  0  0  0
  -25.4090  -36.3640   24.0610 C   0  0  0  0  0  3  0  0  0  0  0  0
  -27.5550  -37.1950   24.9180 C   0  0  0  0  0  1  0  0  0  0  0  0
  -26.4420  -37.4200   23.9970 N   0  0  0  0  0  0  0  0  0  0  0  0
  -26.0410  -38.3300   24.2030 H   0  0  0  0  0  0  0  0  0  0  0  0
  -26.4240  -31.6960   25.0300 C   0  0  1  0  0  0  0  0  0  0  0  0
  -25.3590  -31.4000   26.1110 C   0  0  0  0  0  1  0  0  0  0  0  0
  -26.9940  -30.3430   24.5420 C   0  0  0  0  0  1  0  0  0  0  0  0
  -27.5940  -32.4530   25.7020 C   0  0  0  0  0  1  0  0  0  0  0  0
  -30.1210  -17.6520   20.3790 C   0  0  0  0  0  2  0  0  0  0  0  0
  -30.6510  -16.8080   21.5660 C   0  0  0  0  0  2  0  0  0  0  0  0
  -30.7070  -14.5060   20.7340 C   0  0  0  0  0  0  0  0  0  0  0  0
  -30.3940  -12.3940   19.5240 C   0  0  0  0  0  2  0  0  0  0  0  0
  -29.4970  -12.6230   18.2930 C   0  0  0  0  0  2  0  0  0  0  0  0
  -28.0110  -12.4820   18.6730 C   0  0  0  0  0  2  0  0  0  0  0  0
  -27.6340  -13.3150   19.9280 C   0  0  0  0  0  3  0  0  0  0  0  0
  -28.6480  -13.0880   21.0730 C   0  0  0  0  0  2  0  0  0  0  0  0
  -30.0020  -13.3620   20.5580 N   0  0  0  0  0  0  0  0  0  0  0  0
  -31.7750  -14.7400   20.1630 O   0  0  0  0  0  0  0  0  0  0  0  0
  -30.1390  -15.4390   21.5050 N   0  0  0  0  0  0  0  0  0  0  0  0
  -29.2690  -15.2190   21.9700 H   0  0  0  0  0  0  0  0  0  0  0  0
  -25.2090  -13.9150   20.5600 C   0  0  0  0  0  0  0  0  0  0  0  0
  -24.1310  -13.1360   20.8900 C   0  0  0  0  0  0  0  0  0  0  0  0
  -24.5970  -11.7850   20.8640 C   0  0  0  0  0  0  0  0  0  0  0  0
  -26.2640  -13.0370   20.3570 N   0  0  0  0  0  0  0  0  0  0  0  0
  -25.8960  -11.7530   20.5950 N   0  0  0  0  0  0  0  0  0  0  0  0
  -23.8700  -10.5190   21.0230 C   0  0  0  0  0  0  0  0  0  0  0  0
  -24.2870   -9.5380   21.9480 C   0  0  0  0  0  3  0  0  0  0  0  0
  -23.5580   -8.3380   22.0960 C   0  0  0  0  0  3  0  0  0  0  0  0
  -22.3990   -8.1110   21.3160 C   0  0  0  0  0  0  0  0  0  0  0  0
  -22.0010   -9.0820   20.3800 C   0  0  0  0  0  3  0  0  0  0  0  0
  -22.7310  -10.2740   20.2300 C   0  0  0  0  0  3  0  0  0  0  0  0
  -21.6440   -6.9640   21.3720 O   0  0  0  0  0  0  0  0  0  0  0  0
  -21.5850   -6.1970   22.5080 C   0  0  0  0  0  0  0  0  0  0  0  0
  -21.1580   -6.7290   23.7450 C   0  0  0  0  0  3  0  0  0  0  0  0
  -21.0440   -5.8890   24.8710 C   0  0  0  0  0  3  0  0  0  0  0  0
  -21.3460   -4.5180   24.7600 C   0  0  0  0  0  0  0  0  0  0  0  0
  -21.7680   -3.9860   23.5290 C   0  0  0  0  0  3  0  0  0  0  0  0
  -21.8830   -4.8230   22.4060 C   0  0  0  0  0  0  0  0  0  0  0  0
  -22.2670   -4.3010   21.2150 F   0  0  0  0  0  0  0  0  0  0  0  0
  -21.2320   -3.7090   25.8390 F   0  0  0  0  0  0  0  0  0  0  0  0
  -22.7250  -13.6090   21.1230 C   0  0  0  0  0  0  0  0  0  0  0  0
  -21.9730  -12.9080   21.9650 N   0  0  0  0  0  0  0  0  0  0  0  0
  -22.2970  -14.6340   20.5930 O   0  0  0  0  0  0  0  0  0  0  0  0
  -22.3300  -12.0820   22.4210 H   0  0  0  0  0  0  0  0  0  0  0  0
  -21.0280  -13.2070   22.1610 H   0  0  0  0  0  0  0  0  0  0  0  0
  -25.3740  -15.2850   20.3970 N   0  0  0  0  0  0  0  0  0  0  0  0
  -24.6010  -15.9360   20.4830 H   0  0  0  0  0  0  0  0  0  0  0  0
  -26.2340  -15.7310   20.1040 H   0  0  0  0  0  0  0  0  0  0  0  0
  1  5  1  0
  1  2  1  0
  2  7  1  0
  3  4  1  0
  5  6  1  0
  5  8  1  0
  7  3  1  0
  7 10  1  0
  8 57  1  0
  8  4  1  0
  8  9  1  6
 11 10  1  0
 11 12  1  0
 13 12  1  0
 14 13  1  0
 15 14  1  0
 16 18  1  0
 16 15  1  0
 17 28  2  0
 18 23  1  0
 19 27  1  0
 19 29  1  0
 20 26  1  0
 20 22  1  0
 21 27  1  0
 22 21  1  0
 23 22  2  0
 24 25  1  0
 24 18  2  0
 25 20  2  0
 26 19  1  0
 27 17  1  0
 29 31  2  0
 30 29  1  0
 32 30  1  0
 33 42  2  0
 33 38  1  0
 34 30  1  0
 34 38  1  0
 35 34  1  0
 36 37  1  0
 36 35  1  0
 37 33  1  0
 38 39  2  0
 39 40  1  0
 41 40  2  0
 42 41  1  0
 43 17  1  0
 43 44  1  0
 43 53  1  0
 44 47  1  0
 45 49  1  0
 45 44  1  0
 46 45  2  0
 49 48  1  0
 51 49  1  0
 51 52  1  0
 51 50  1  0
 53 56  1  1
 53 54  1  0
 55 53  1  0
 57 58  1  0
 59 67  1  0
 60 65  1  0
 61 62  1  0
 61 60  1  0
 63 62  1  0
 63 72  1  0
 63 64  1  0
 65 59  1  0
 65 64  1  0
 66 59  2  0
 67 58  1  0
 67 68  1  0
 69 70  2  0
 70 89  1  0
 71 70  1  0
 71 74  1  0
 72 69  1  0
 72 73  1  0
 73 71  2  0
 74 75  1  0
 75 76  2  0
 77 80  1  0
 77 76  1  0
 78 77  2  0
 79 78  1  0
 79 74  2  0
 80 81  1  0
 81 82  1  0
 82 83  2  0
 84 83  1  0
 84 88  1  0
 85 84  2  0
 86 81  2  0
 86 85  1  0
 87 86  1  0
 89 90  1  0
 90 93  1  0
 90 92  1  0
 91 89  2  0
 94 95  1  0
 94 69  1  0
 96 94  1  0
M  ISO  4  15 101  16 101  59 100  67 100
M  END
>  <TORSDO>  (36) 
F 24

>  <SCORE>  (36) 
-12.271

>  <name>  (36) 
35

>  <ligand_id>  (36) 
35

>  <original_smiles>  (36) 
[H]c1c([H])c([H])c2c(c1[H])C([H])([H])C([H])([H])C([H])([H])C2([H])N([H])C(=O)C1([H])N(C(=O)C([H])(N([H])C(=O)C([H])(N([H])C([H])([H])[H])C([H])([H])[H])C(C([H])([H])[H])(C([H])([H])[H])C([H])([H])[H])C([H])([H])c2c([H])c(OC([H])([H])C([H])([H])C([H])([H])C([H])([H])C([H])([H])C([H])([H])N3C([H])([H])C([H])([H])C([H])(C([H])([H])[H])[N+]([H])(C([H])([H])C([H])([H])N([H])C(=O)N4C([H])([H])C([H])([H])C([H])([H])C([H])(n5nc(-c6c([H])c([H])c(Oc7c([H])c([H])c(F)c([H])c7F)c([H])c6[H])c(C(=O)N([H])[H])c5N([H])[H])C4([H])[H])C([H])([H])C3([H])[H])c([H])c([H])c2C1([H])[H]

>  <smiles>  (36) 
[H]c1c([H])c([H])c2c(c1[H])C([H])([H])C([H])([H])C([H])([H])C2([H])N([H])C(=O)C1([H])N(C(=O)C([H])(N([H])C(=O)C([H])(N([H])C([H])([H])[H])C([H])([H])[H])C(C([H])([H])[H])(C([H])([H])[H])C([H])([H])[H])C([H])([H])c2c([H])c(OC([H])([H])C([H])([H])C([H])([H])C([H])([H])C([H])([H])C([H])([H])N3C([H])([H])C([H])([H])C([H])(C([H])([H])[H])[N+]([H])(C([H])([H])C([H])([H])N([H])C(=O)N4C([H])([H])C([H])([H])C([H])([H])C([H])(n5nc(-c6c([H])c([H])c(Oc7c([H])c([H])c(F)c([H])c7F)c([H])c6[H])c(C(=O)N([H])[H])c5N([H])[H])C4([H])[H])C([H])([H])C3([H])[H])c([H])c([H])c2C1([H])[H]

$$$$
36:0:0
     RDKit          3D

 94102  0  0  1  0  0  0  0  0999 V2000
  -29.6890  -20.8950   20.3900 C   0  0  0  0  0  2  0  0  0  0  0  0
  -32.1630  -21.2130   20.9070 C   0  0  0  0  0  2  0  0  0  0  0  0
  -29.8480  -22.2770   19.7120 C   0  0  0  0  0  2  0  0  0  0  0  0
  -31.5970  -22.5340   21.4780 C   0  0  0  0  0  2  0  0  0  0  0  0
  -31.0620  -20.1880   20.5120 C   0  0  0  0  0  3  0  0  0  0  0  0
  -30.6840  -23.2210   20.5170 N   0  0  2  0  0  4  0  0  0  0  0  0
  -31.2870  -23.6540   19.8310 H   0  0  0  0  0  0  0  0  0  0  0  0
  -31.0380  -19.0140   21.4280 N   0  0  0  0  0  4  0  0  0  0  0  0
  -30.6070  -19.2650   22.3040 H   0  0  0  0  0  0  0  0  0  0  0  0
  -31.9950  -18.7730   21.6270 H   0  0  0  0  0  0  0  0  0  0  0  0
  -30.4050  -17.7710   20.9130 C   0  0  0  0  0  2  0  0  0  0  0  0
  -30.7110  -16.5660   21.8370 C   0  0  0  0  0  2  0  0  0  0  0  0
  -30.6820  -14.4280   20.5340 C   0  0  0  0  0  0  0  0  0  0  0  0
  -30.3510  -12.3370   19.2650 C   0  0  0  0  0  2  0  0  0  0  0  0
  -29.3970  -12.5740   18.0790 C   0  0  0  0  0  2  0  0  0  0  0  0
  -27.9260  -12.4350   18.5190 C   0  0  0  0  0  2  0  0  0  0  0  0
  -27.6030  -13.2410   19.8040 C   0  0  0  0  0  3  0  0  0  0  0  0
  -28.6590  -12.9650   20.8950 C   0  0  0  0  0  2  0  0  0  0  0  0
  -29.9870  -13.2790   20.3340 N   0  0  0  0  0  0  0  0  0  0  0  0
  -31.7430  -14.6890   19.9570 O   0  0  0  0  0  0  0  0  0  0  0  0
  -30.1220  -15.3020   21.3840 N   0  0  0  0  0  0  0  0  0  0  0  0
  -29.2450  -15.0270   21.8020 H   0  0  0  0  0  0  0  0  0  0  0  0
  -25.2010  -13.8400   20.5220 C   0  0  0  0  0  0  0  0  0  0  0  0
  -24.1370  -13.0650   20.8960 C   0  0  0  0  0  0  0  0  0  0  0  0
  -24.6020  -11.7150   20.8620 C   0  0  0  0  0  0  0  0  0  0  0  0
  -26.2490  -12.9630   20.2860 N   0  0  0  0  0  0  0  0  0  0  0  0
  -25.8900  -11.6800   20.5470 N   0  0  0  0  0  0  0  0  0  0  0  0
  -23.8820  -10.4500   21.0560 C   0  0  0  0  0  0  0  0  0  0  0  0
  -24.3280   -9.4790   21.9790 C   0  0  0  0  0  3  0  0  0  0  0  0
  -23.6080   -8.2790   22.1610 C   0  0  0  0  0  3  0  0  0  0  0  0
  -22.4260   -8.0420   21.4200 C   0  0  0  0  0  0  0  0  0  0  0  0
  -21.9980   -9.0030   20.4890 C   0  0  0  0  0  3  0  0  0  0  0  0
  -22.7190  -10.1930   20.3040 C   0  0  0  0  0  3  0  0  0  0  0  0
  -21.6760   -6.8950   21.5150 O   0  0  0  0  0  0  0  0  0  0  0  0
  -21.6530   -6.1380   22.6580 C   0  0  0  0  0  0  0  0  0  0  0  0
  -21.2600   -6.6790   23.9020 C   0  0  0  0  0  3  0  0  0  0  0  0
  -21.1840   -5.8480   25.0380 C   0  0  0  0  0  3  0  0  0  0  0  0
  -21.4920   -4.4800   24.9320 C   0  0  0  0  0  0  0  0  0  0  0  0
  -21.8800   -3.9380   23.6940 C   0  0  0  0  0  3  0  0  0  0  0  0
  -21.9570   -4.7650   22.5600 C   0  0  0  0  0  0  0  0  0  0  0  0
  -22.3100   -4.2350   21.3630 F   0  0  0  0  0  0  0  0  0  0  0  0
  -21.4120   -3.6820   26.0210 F   0  0  0  0  0  0  0  0  0  0  0  0
  -22.7390  -13.5380   21.1770 C   0  0  0  0  0  0  0  0  0  0  0  0
  -22.0150  -12.8400   22.0460 N   0  0  0  0  0  0  0  0  0  0  0  0
  -22.2950  -14.5620   20.6570 O   0  0  0  0  0  0  0  0  0  0  0  0
  -22.3840  -12.0140   22.4940 H   0  0  0  0  0  0  0  0  0  0  0  0
  -21.0760  -13.1370   22.2670 H   0  0  0  0  0  0  0  0  0  0  0  0
  -25.3630  -15.2100   20.3440 N   0  0  0  0  0  0  0  0  0  0  0  0
  -24.6020  -15.8710   20.4550 H   0  0  0  0  0  0  0  0  0  0  0  0
  -26.2140  -15.6410   20.0030 H   0  0  0  0  0  0  0  0  0  0  0  0
  -29.9330  -24.3650   21.1100 C   0  0  0  0  0  2  0  0  0  0  0  0
  -30.4480  -25.7320   20.6030 C   0  0  0  0  0  2  0  0  0  0  0  0
  -29.4750  -26.9000   20.8680 C   0  0  0  0  0  2  0  0  0  0  0  0
  -28.3320  -26.6470   20.0650 O   0  0  0  0  0  0  0  0  0  0  0  0
  -24.5660  -31.8820   23.2300 C   0  0  0  0  0  0  0  0  0  0  0  0
  -27.2170  -27.4470   20.1590 C   0  0  0  0  0  0  0  0  0  0  0  0
  -23.3600  -30.4810   21.5860 C   0  0  0  0  0  3  0  0  0  0  0  0
  -24.8160  -28.9380   20.1720 C   0  0  0  0  0  0  0  0  0  0  0  0
  -25.8840  -30.8360   21.3950 C   0  0  0  0  0  2  0  0  0  0  0  0
  -25.9710  -29.4630   20.7650 C   0  0  0  0  0  0  0  0  0  0  0  0
  -27.1760  -28.7220   20.7700 C   0  0  0  0  0  3  0  0  0  0  0  0
  -26.0450  -26.9340   19.5680 C   0  0  0  0  0  3  0  0  0  0  0  0
  -24.8440  -27.6670   19.5740 C   0  0  0  0  0  3  0  0  0  0  0  0
  -23.5730  -29.7980   20.2080 C   0  0  0  0  0  2  0  0  0  0  0  0
  -24.6210  -31.0810   22.1270 N   0  0  0  0  0  0  0  0  0  0  0  0
  -23.4860  -32.1560   23.7680 O   0  0  0  0  0  0  0  0  0  0  0  0
  -22.7050  -29.4620   22.5460 C   0  0  0  0  0  0  0  0  0  0  0  0
  -21.3790  -29.2830   22.4150 N   0  0  0  0  0  0  0  0  0  0  0  0
  -23.3840  -28.8340   23.3610 O   0  0  0  0  0  0  0  0  0  0  0  0
  -20.8930  -29.8400   21.7260 H   0  0  0  0  0  0  0  0  0  0  0  0
  -17.9990  -28.1080   22.9080 C   0  0  0  0  0  0  0  0  0  0  0  0
  -20.5570  -28.3510   23.1850 C   0  0  0  0  0  3  0  0  0  0  0  0
  -20.6530  -26.9200   22.6100 C   0  0  0  0  0  2  0  0  0  0  0  0
  -19.5520  -26.6020   21.5940 C   0  0  0  0  0  2  0  0  0  0  0  0
  -18.1690  -26.7560   22.2340 C   0  0  0  0  0  2  0  0  0  0  0  0
  -19.1210  -28.8630   23.3400 C   0  0  0  0  0  0  0  0  0  0  0  0
  -18.9070  -30.1290   23.9280 C   0  0  0  0  0  3  0  0  0  0  0  0
  -17.6050  -30.6370   24.0900 C   0  0  0  0  0  3  0  0  0  0  0  0
  -16.4970  -29.8780   23.6740 C   0  0  0  0  0  3  0  0  0  0  0  0
  -16.6960  -28.6140   23.0890 C   0  0  0  0  0  3  0  0  0  0  0  0
  -25.8550  -32.5070   23.8500 C   0  0  0  0  0  3  0  0  0  0  0  0
  -25.5510  -33.9060   24.1810 N   0  0  0  0  0  0  0  0  0  0  0  0
  -25.8910  -34.9570   23.4220 C   0  0  0  0  0  0  0  0  0  0  0  0
  -26.5650  -34.8500   22.3930 O   0  0  0  0  0  0  0  0  0  0  0  0
  -24.9570  -34.0640   24.9820 H   0  0  0  0  0  0  0  0  0  0  0  0
  -24.1740  -36.7560   23.0520 C   0  0  0  0  0  1  0  0  0  0  0  0
  -25.4060  -36.3460   23.8760 C   0  0  0  0  0  3  0  0  0  0  0  0
  -27.5380  -37.2160   24.7270 C   0  0  0  0  0  1  0  0  0  0  0  0
  -26.4450  -37.3940   23.7740 N   0  0  0  0  0  0  0  0  0  0  0  0
  -26.0430  -38.3160   23.9230 H   0  0  0  0  0  0  0  0  0  0  0  0
  -26.3740  -31.7310   25.1220 C   0  0  1  0  0  0  0  0  0  0  0  0
  -25.2840  -31.4920   26.1920 C   0  0  0  0  0  1  0  0  0  0  0  0
  -26.9530  -30.3540   24.7200 C   0  0  0  0  0  1  0  0  0  0  0  0
  -27.5290  -32.5210   25.7820 C   0  0  0  0  0  1  0  0  0  0  0  0
  1  5  1  0
  2  4  1  0
  3  1  1  0
  3  6  1  0
  5  2  1  0
  5  8  1  0
  6 51  1  0
  6  4  1  0
  6  7  1  6
  8 10  1  0
  8  9  1  0
 11  8  1  0
 11 12  1  0
 13 21  1  0
 14 19  1  0
 15 16  1  0
 15 14  1  0
 17 16  1  0
 17 26  1  0
 17 18  1  0
 19 13  1  0
 19 18  1  0
 20 13  2  0
 21 22  1  0
 21 12  1  0
 23 24  2  0
 24 43  1  0
 25 24  1  0
 25 28  1  0
 26 23  1  0
 26 27  1  0
 27 25  2  0
 28 29  1  0
 29 30  2  0
 31 34  1  0
 31 30  1  0
 32 31  2  0
 33 32  1  0
 33 28  2  0
 34 35  1  0
 35 36  1  0
 36 37  2  0
 38 37  1  0
 38 42  1  0
 39 38  2  0
 40 35  2  0
 40 39  1  0
 41 40  1  0
 43 44  1  0
 44 47  1  0
 44 46  1  0
 45 43  2  0
 48 49  1  0
 48 23  1  0
 50 48  1  0
 52 53  1  0
 52 51  1  0
 54 56  1  0
 54 53  1  0
 55 66  2  0
 56 61  1  0
 57 65  1  0
 57 67  1  0
 58 64  1  0
 58 60  1  0
 59 65  1  0
 60 61  2  0
 60 59  1  0
 62 63  1  0
 62 56  2  0
 63 58  2  0
 64 57  1  0
 65 55  1  0
 67 69  2  0
 68 67  1  0
 70 68  1  0
 71 80  2  0
 71 76  1  0
 72 68  1  0
 72 76  1  0
 73 72  1  0
 74 75  1  0
 74 73  1  0
 75 71  1  0
 76 77  2  0
 77 78  1  0
 79 78  2  0
 80 79  1  0
 81 55  1  0
 81 82  1  0
 81 91  1  0
 82 85  1  0
 83 87  1  0
 83 82  1  0
 84 83  2  0
 87 86  1  0
 89 87  1  0
 89 90  1  0
 89 88  1  0
 91 94  1  1
 91 92  1  0
 93 91  1  0
M  ISO  4  13 100  21 100  53 101  54 101
M  END
>  <TORSDO>  (37) 
F 22

>  <SCORE>  (37) 
-13.151

>  <name>  (37) 
36

>  <ligand_id>  (37) 
36

>  <original_smiles>  (37) 
[H]c1c([H])c([H])c2c(c1[H])C([H])([H])C([H])([H])C([H])([H])C2([H])N([H])C(=O)C1([H])N(C(=O)C([H])(N([H])C(=O)C([H])(N([H])C([H])([H])[H])C([H])([H])[H])C(C([H])([H])[H])(C([H])([H])[H])C([H])([H])[H])C([H])([H])c2c([H])c(OC([H])([H])C([H])([H])C([H])([H])[N+]3([H])C([H])([H])C([H])([H])C([H])([N+]([H])([H])C([H])([H])C([H])([H])N([H])C(=O)N4C([H])([H])C([H])([H])C([H])([H])C([H])(n5nc(-c6c([H])c([H])c(Oc7c([H])c([H])c(F)c([H])c7F)c([H])c6[H])c(C(=O)N([H])[H])c5N([H])[H])C4([H])[H])C([H])([H])C3([H])[H])c([H])c([H])c2C1([H])[H]

>  <smiles>  (37) 
[H]c1c([H])c([H])c2c(c1[H])C([H])([H])C([H])([H])C([H])([H])C2([H])N([H])C(=O)C1([H])N(C(=O)C([H])(N([H])C(=O)C([H])(N([H])C([H])([H])[H])C([H])([H])[H])C(C([H])([H])[H])(C([H])([H])[H])C([H])([H])[H])C([H])([H])c2c([H])c(OC([H])([H])C([H])([H])C([H])([H])[N+]3([H])C([H])([H])C([H])([H])C([H])([N+]([H])([H])C([H])([H])C([H])([H])N([H])C(=O)N4C([H])([H])C([H])([H])C([H])([H])C([H])(n5nc(-c6c([H])c([H])c(Oc7c([H])c([H])c(F)c([H])c7F)c([H])c6[H])c(C(=O)N([H])[H])c5N([H])[H])C4([H])[H])C([H])([H])C3([H])[H])c([H])c([H])c2C1([H])[H]

$$$$
37:0:0
     RDKit          3D

 95103  0  0  1  0  0  0  0  0999 V2000
  -31.6670  -17.9580   23.6770 C   0  0  0  0  0  2  0  0  0  0  0  0
  -30.6950  -17.3000   22.6950 C   0  0  0  0  0  2  0  0  0  0  0  0
  -31.3310  -20.0810   22.3860 C   0  0  0  0  0  2  0  0  0  0  0  0
  -31.3710  -19.4540   23.7870 C   0  0  0  0  0  3  0  0  0  0  0  0
  -30.6290  -18.0250   21.3210 C   0  0  0  0  0  3  0  0  0  0  0  0
  -30.2680  -19.4700   21.5540 N   0  0  0  0  0  0  0  0  0  0  0  0
  -30.1030  -19.7200   24.4860 N   0  0  0  0  0  4  0  0  0  0  0  0
  -29.3470  -19.4200   23.8950 H   0  0  0  0  0  0  0  0  0  0  0  0
  -29.9970  -20.7050   24.6540 H   0  0  0  0  0  0  0  0  0  0  0  0
  -30.0630  -19.2380   25.3660 H   0  0  0  0  0  0  0  0  0  0  0  0
  -29.7090  -17.2200   20.3400 C   0  0  0  0  0  2  0  0  0  0  0  0
  -30.4260  -14.7500   19.9870 C   0  0  0  0  0  0  0  0  0  0  0  0
  -30.1550  -12.5560   18.8690 C   0  0  0  0  0  2  0  0  0  0  0  0
  -29.1170  -12.7230   17.7360 C   0  0  0  0  0  2  0  0  0  0  0  0
  -27.6800  -12.5470   18.2690 C   0  0  0  0  0  2  0  0  0  0  0  0
  -27.4150  -13.3710   19.5570 C   0  0  0  0  0  3  0  0  0  0  0  0
  -28.5530  -13.1670   20.5840 C   0  0  0  0  0  2  0  0  0  0  0  0
  -29.8230  -13.5270   19.9270 N   0  0  0  0  0  0  0  0  0  0  0  0
  -31.5130  -14.9830   19.4500 O   0  0  0  0  0  0  0  0  0  0  0  0
  -29.6570  -15.7370   20.5070 N   0  0  0  0  0  0  0  0  0  0  0  0
  -28.8110  -15.3990   20.9410 H   0  0  0  0  0  0  0  0  0  0  0  0
  -25.0740  -13.9410   20.4600 C   0  0  0  0  0  0  0  0  0  0  0  0
  -24.0410  -13.1500   20.8870 C   0  0  0  0  0  0  0  0  0  0  0  0
  -24.5050  -11.8040   20.7840 C   0  0  0  0  0  0  0  0  0  0  0  0
  -26.1030  -13.0730   20.1270 N   0  0  0  0  0  0  0  0  0  0  0  0
  -25.7690  -11.7820   20.3780 N   0  0  0  0  0  0  0  0  0  0  0  0
  -23.8010  -10.5320   20.9920 C   0  0  0  0  0  0  0  0  0  0  0  0
  -24.2880   -9.5570   21.8910 C   0  0  0  0  0  3  0  0  0  0  0  0
  -23.5850   -8.3500   22.0880 C   0  0  0  0  0  3  0  0  0  0  0  0
  -22.3800   -8.1080   21.3860 C   0  0  0  0  0  0  0  0  0  0  0  0
  -21.9130   -9.0710   20.4740 C   0  0  0  0  0  3  0  0  0  0  0  0
  -22.6160  -10.2700   20.2750 C   0  0  0  0  0  3  0  0  0  0  0  0
  -21.6440   -6.9530   21.4930 O   0  0  0  0  0  0  0  0  0  0  0  0
  -21.6320   -6.2110   22.6480 C   0  0  0  0  0  0  0  0  0  0  0  0
  -21.2200   -6.7600   23.8810 C   0  0  0  0  0  3  0  0  0  0  0  0
  -21.1580   -5.9440   25.0280 C   0  0  0  0  0  3  0  0  0  0  0  0
  -21.4980   -4.5800   24.9430 C   0  0  0  0  0  0  0  0  0  0  0  0
  -21.9030   -4.0310   23.7130 C   0  0  0  0  0  3  0  0  0  0  0  0
  -21.9670   -4.8440   22.5690 C   0  0  0  0  0  0  0  0  0  0  0  0
  -22.3380   -4.3060   21.3820 F   0  0  0  0  0  0  0  0  0  0  0  0
  -21.4300   -3.7940   26.0430 F   0  0  0  0  0  0  0  0  0  0  0  0
  -22.6660  -13.6110   21.2790 C   0  0  0  0  0  0  0  0  0  0  0  0
  -22.0110  -12.8860   22.1790 N   0  0  0  0  0  0  0  0  0  0  0  0
  -22.1830  -14.6460   20.8220 O   0  0  0  0  0  0  0  0  0  0  0  0
  -22.4150  -12.0480   22.5710 H   0  0  0  0  0  0  0  0  0  0  0  0
  -21.0920  -13.1750   22.4840 H   0  0  0  0  0  0  0  0  0  0  0  0
  -25.2180  -15.3170   20.3090 N   0  0  0  0  0  0  0  0  0  0  0  0
  -24.4560  -15.9610   20.4840 H   0  0  0  0  0  0  0  0  0  0  0  0
  -26.0340  -15.7690   19.9160 H   0  0  0  0  0  0  0  0  0  0  0  0
  -29.9850  -20.3360   20.3670 C   0  0  0  0  0  2  0  0  0  0  0  0
  -29.8170  -21.8830   20.6900 C   0  0  0  0  0  2  0  0  0  0  0  0
  -29.0710  -22.8320   19.6890 C   0  0  0  0  0  2  0  0  0  0  0  0
  -29.1710  -24.3730   20.0290 C   0  0  0  0  0  3  0  0  0  0  0  0
  -28.1050  -25.3080   19.3600 C   0  0  0  0  0  3  0  0  0  0  0  0
  -28.2280  -26.7410   19.6370 O   0  0  0  0  0  0  0  0  0  0  0  0
  -24.4980  -31.8200   23.0540 C   0  0  0  0  0  0  0  0  0  0  0  0
  -27.0680  -27.5190   19.6570 C   0  0  0  0  0  0  0  0  0  0  0  0
  -23.2510  -30.4900   21.3870 C   0  0  0  0  0  3  0  0  0  0  0  0
  -24.6680  -29.0490   19.8250 C   0  0  0  0  0  0  0  0  0  0  0  0
  -25.7710  -30.8750   21.1220 C   0  0  0  0  0  2  0  0  0  0  0  0
  -25.8460  -29.5370   20.4030 C   0  0  0  0  0  0  0  0  0  0  0  0
  -27.0460  -28.7810   20.3150 C   0  0  0  0  0  3  0  0  0  0  0  0
  -25.8680  -27.0800   19.0500 C   0  0  0  0  0  3  0  0  0  0  0  0
  -24.6770  -27.8240   19.1430 C   0  0  0  0  0  3  0  0  0  0  0  0
  -23.4190  -29.8920   19.9650 C   0  0  0  0  0  2  0  0  0  0  0  0
  -24.5270  -31.0740   21.9120 N   0  0  0  0  0  0  0  0  0  0  0  0
  -23.4320  -32.0510   23.6430 O   0  0  0  0  0  0  0  0  0  0  0  0
  -22.6450  -29.4110   22.3150 C   0  0  0  0  0  0  0  0  0  0  0  0
  -21.3170  -29.2250   22.2360 N   0  0  0  0  0  0  0  0  0  0  0  0
  -23.3660  -28.7460   23.0640 O   0  0  0  0  0  0  0  0  0  0  0  0
  -20.7930  -29.8160   21.6060 H   0  0  0  0  0  0  0  0  0  0  0  0
  -17.9740  -27.9730   22.8120 C   0  0  0  0  0  0  0  0  0  0  0  0
  -20.5400  -28.2380   22.9870 C   0  0  0  0  0  3  0  0  0  0  0  0
  -20.6270  -26.8420   22.3280 C   0  0  0  0  0  2  0  0  0  0  0  0
  -19.4840  -26.5650   21.3470 C   0  0  0  0  0  2  0  0  0  0  0  0
  -18.1310  -26.6640   22.0560 C   0  0  0  0  0  2  0  0  0  0  0  0
  -19.1060  -28.7190   23.2360 C   0  0  0  0  0  0  0  0  0  0  0  0
  -18.9040  -29.9460   23.9050 C   0  0  0  0  0  3  0  0  0  0  0  0
  -17.6050  -30.4260   24.1540 C   0  0  0  0  0  3  0  0  0  0  0  0
  -16.4890  -29.6760   23.7460 C   0  0  0  0  0  3  0  0  0  0  0  0
  -16.6750  -28.4500   23.0810 C   0  0  0  0  0  3  0  0  0  0  0  0
  -25.7960  -32.4390   23.6580 C   0  0  0  0  0  3  0  0  0  0  0  0
  -26.3580  -31.6250   24.8870 C   0  0  1  0  0  0  0  0  0  0  0  0
  -25.3010  -31.3420   25.9800 C   0  0  0  0  0  1  0  0  0  0  0  0
  -26.9340  -30.2660   24.4240 C   0  0  0  0  0  1  0  0  0  0  0  0
  -27.5250  -32.4010   25.5410 C   0  0  0  0  0  1  0  0  0  0  0  0
  -25.4870  -33.8210   24.0490 N   0  0  0  0  0  0  0  0  0  0  0  0
  -25.8040  -34.9050   23.3280 C   0  0  0  0  0  0  0  0  0  0  0  0
  -26.4550  -34.8460   22.2830 O   0  0  0  0  0  0  0  0  0  0  0  0
  -24.9070  -33.9410   24.8670 H   0  0  0  0  0  0  0  0  0  0  0  0
  -24.0680  -36.7060   23.0700 C   0  0  0  0  0  1  0  0  0  0  0  0
  -25.3190  -36.2720   23.8500 C   0  0  0  0  0  3  0  0  0  0  0  0
  -27.4590  -37.1270   24.6970 C   0  0  0  0  0  1  0  0  0  0  0  0
  -26.3490  -37.3300   23.7690 N   0  0  0  0  0  0  0  0  0  0  0  0
  -25.9430  -38.2430   23.9550 H   0  0  0  0  0  0  0  0  0  0  0  0
  1  4  1  0
  2  1  1  0
  3  4  1  0
  4  7  1  0
  5 11  1  0
  5  6  1  0
  5  2  1  0
  6  3  1  0
  7  9  1  0
  7 10  1  0
  8  7  1  0
 11 20  1  0
 12 20  1  0
 13 18  1  0
 14 15  1  0
 14 13  1  0
 16 15  1  0
 16 25  1  0
 16 17  1  0
 18 12  1  0
 18 17  1  0
 19 12  2  0
 20 21  1  0
 22 23  2  0
 23 42  1  0
 24 23  1  0
 24 27  1  0
 25 26  1  0
 25 22  1  0
 26 24  2  0
 27 28  1  0
 28 29  2  0
 30 33  1  0
 30 29  1  0
 31 30  2  0
 32 31  1  0
 32 27  2  0
 33 34  1  0
 34 35  1  0
 35 36  2  0
 37 36  1  0
 37 41  1  0
 38 37  2  0
 39 34  2  0
 39 38  1  0
 40 39  1  0
 42 43  1  0
 43 46  1  0
 43 45  1  0
 44 42  2  0
 47 22  1  0
 47 48  1  0
 49 47  1  0
 50 51  1  0
 50  6  1  0
 52 53  1  0
 52 51  1  0
 54 55  1  0
 54 53  2  0
 55 57  1  0
 56 67  2  0
 57 62  1  0
 58 66  1  0
 58 68  1  0
 59 65  1  0
 59 61  1  0
 60 66  1  0
 61 60  1  0
 62 61  2  0
 63 64  1  0
 63 57  2  0
 64 59  2  0
 65 58  1  0
 66 56  1  0
 68 70  2  0
 69 68  1  0
 71 69  1  0
 72 81  2  0
 72 77  1  0
 73 69  1  0
 73 77  1  0
 74 73  1  0
 75 76  1  0
 75 74  1  0
 76 72  1  0
 77 78  2  0
 78 79  1  0
 80 79  2  0
 81 80  1  0
 82 56  1  0
 82 87  1  0
 82 83  1  0
 83 86  1  1
 83 84  1  0
 85 83  1  0
 87 90  1  0
 88 92  1  0
 88 87  1  0
 89 88  2  0
 92 91  1  0
 94 92  1  0
 94 95  1  0
 94 93  1  0
M  ISO  4  12 100  20 100  54 101  55 101
M  END
>  <TORSDO>  (38) 
F 23

>  <SCORE>  (38) 
-10.744

>  <name>  (38) 
37

>  <ligand_id>  (38) 
37

>  <original_smiles>  (38) 
[H]c1c([H])c([H])c2c(c1[H])C([H])([H])C([H])([H])C([H])([H])C2([H])N([H])C(=O)C1([H])N(C(=O)C([H])(N([H])C(=O)C([H])(N([H])C([H])([H])[H])C([H])([H])[H])C(C([H])([H])[H])(C([H])([H])[H])C([H])([H])[H])C([H])([H])c2c([H])c(OC([H])([H])C([H])([H])C([H])([H])C([H])([H])C([H])([H])N3C([H])([H])C([H])([N+]([H])([H])[H])C([H])([H])C([H])([H])C3([H])C([H])([H])N([H])C(=O)N3C([H])([H])C([H])([H])C([H])([H])C([H])(n4nc(-c5c([H])c([H])c(Oc6c([H])c([H])c(F)c([H])c6F)c([H])c5[H])c(C(=O)N([H])[H])c4N([H])[H])C3([H])[H])c([H])c([H])c2C1([H])[H]

>  <smiles>  (38) 
[H]c1c([H])c([H])c2c(c1[H])C([H])([H])C([H])([H])C([H])([H])C2([H])N([H])C(=O)C1([H])N(C(=O)C([H])(N([H])C(=O)C([H])(N([H])C([H])([H])[H])C([H])([H])[H])C(C([H])([H])[H])(C([H])([H])[H])C([H])([H])[H])C([H])([H])c2c([H])c(OC([H])([H])C([H])([H])C([H])([H])C([H])([H])C([H])([H])N3C([H])([H])C([H])([N+]([H])([H])[H])C([H])([H])C([H])([H])C3([H])C([H])([H])N([H])C(=O)N3C([H])([H])C([H])([H])C([H])([H])C([H])(n4nc(-c5c([H])c([H])c(Oc6c([H])c([H])c(F)c([H])c6F)c([H])c5[H])c(C(=O)N([H])[H])c4N([H])[H])C3([H])[H])c([H])c([H])c2C1([H])[H]

$$$$
38:0:0
     RDKit          3D

 96104  0  0  1  0  0  0  0  0999 V2000
  -29.7900  -18.6240   20.4940 C   0  0  0  0  0  3  0  0  0  0  0  0
  -27.8560  -19.9200   17.4480 C   0  0  0  0  0  3  0  0  0  0  0  0
  -28.7850  -17.6990   18.2880 C   0  0  0  0  0  0  0  0  0  0  0  0
  -28.2530  -18.4920   17.0970 C   0  0  0  0  0  2  0  0  0  0  0  0
  -27.3240  -19.2970   19.6330 C   0  0  0  0  0  2  0  0  0  0  0  0
  -28.4850  -18.2610   19.6850 C   0  0  0  0  0  3  0  0  0  0  0  0
  -27.4770  -20.3120   18.6000 N   0  0  0  0  0  0  0  0  0  0  0  0
  -29.4250  -16.6150   18.1260 N   0  0  0  0  0  0  0  0  0  0  0  0
  -29.5450  -16.3720   17.1480 H   0  0  0  0  0  0  0  0  0  0  0  0
  -29.7100  -19.9760   21.2230 N   0  0  0  0  0  4  0  0  0  0  0  0
  -28.8220  -20.0130   21.6950 H   0  0  0  0  0  0  0  0  0  0  0  0
  -30.4110  -19.9650   21.9480 H   0  0  0  0  0  0  0  0  0  0  0  0
  -29.9080  -21.3040   20.4880 C   0  0  0  0  0  3  0  0  0  0  0  0
  -29.2030  -22.6070   21.1250 C   0  0  0  0  0  3  0  0  0  0  0  0
  -29.3670  -24.0520   20.4330 C   0  0  0  0  0  3  0  0  0  0  0  0
  -28.5710  -25.2960   21.0620 C   0  0  0  0  0  3  0  0  0  0  0  0
  -28.7180  -26.6680   20.5050 O   0  0  0  0  0  0  0  0  0  0  0  0
  -24.6910  -32.0110   23.2690 C   0  0  0  0  0  0  0  0  0  0  0  0
  -27.5760  -27.4790   20.4320 C   0  0  0  0  0  0  0  0  0  0  0  0
  -23.6020  -30.5370   21.6150 C   0  0  0  0  0  3  0  0  0  0  0  0
  -25.1600  -29.0050   20.2850 C   0  0  0  0  0  0  0  0  0  0  0  0
  -26.1340  -30.9420   21.5220 C   0  0  0  0  0  2  0  0  0  0  0  0
  -26.2880  -29.5510   20.9140 C   0  0  0  0  0  0  0  0  0  0  0  0
  -27.5000  -28.8020   20.9740 C   0  0  0  0  0  3  0  0  0  0  0  0
  -26.4270  -26.9830   19.7810 C   0  0  0  0  0  3  0  0  0  0  0  0
  -25.2320  -27.7240   19.7120 C   0  0  0  0  0  3  0  0  0  0  0  0
  -23.8960  -29.8380   20.2610 C   0  0  0  0  0  2  0  0  0  0  0  0
  -24.8260  -31.1830   22.1920 N   0  0  0  0  0  0  0  0  0  0  0  0
  -23.5770  -32.2610   23.7540 O   0  0  0  0  0  0  0  0  0  0  0  0
  -22.9340  -29.5190   22.5710 C   0  0  0  0  0  0  0  0  0  0  0  0
  -21.6210  -29.2960   22.3930 N   0  0  0  0  0  0  0  0  0  0  0  0
  -23.5950  -28.9340   23.4320 O   0  0  0  0  0  0  0  0  0  0  0  0
  -21.1440  -29.8230   21.6750 H   0  0  0  0  0  0  0  0  0  0  0  0
  -18.2510  -28.0520   22.8270 C   0  0  0  0  0  0  0  0  0  0  0  0
  -20.7990  -28.3490   23.1500 C   0  0  0  0  0  3  0  0  0  0  0  0
  -20.9350  -26.9190   22.5800 C   0  0  0  0  0  2  0  0  0  0  0  0
  -19.8590  -26.5770   21.5450 C   0  0  0  0  0  2  0  0  0  0  0  0
  -18.4620  -26.7030   22.1580 C   0  0  0  0  0  2  0  0  0  0  0  0
  -19.3500  -28.8310   23.2780 C   0  0  0  0  0  0  0  0  0  0  0  0
  -19.0990  -30.0910   23.8610 C   0  0  0  0  0  3  0  0  0  0  0  0
  -17.7840  -30.5750   24.0010 C   0  0  0  0  0  3  0  0  0  0  0  0
  -16.6990  -29.7920   23.5670 C   0  0  0  0  0  3  0  0  0  0  0  0
  -16.9350  -28.5340   22.9860 C   0  0  0  0  0  3  0  0  0  0  0  0
  -25.9250  -32.7010   23.9290 C   0  0  0  0  0  3  0  0  0  0  0  0
  -25.5520  -34.0910   24.2300 N   0  0  0  0  0  0  0  0  0  0  0  0
  -25.8660  -35.1450   23.4670 C   0  0  0  0  0  0  0  0  0  0  0  0
  -26.5700  -35.0520   22.4570 O   0  0  0  0  0  0  0  0  0  0  0  0
  -24.9280  -34.2330   25.0100 H   0  0  0  0  0  0  0  0  0  0  0  0
  -24.0720  -36.8560   23.0520 C   0  0  0  0  0  1  0  0  0  0  0  0
  -25.3150  -36.5200   23.8910 C   0  0  0  0  0  3  0  0  0  0  0  0
  -27.3900  -37.5160   24.7470 C   0  0  0  0  0  1  0  0  0  0  0  0
  -26.3050  -37.6140   23.7740 N   0  0  0  0  0  0  0  0  0  0  0  0
  -25.8560  -38.5190   23.8890 H   0  0  0  0  0  0  0  0  0  0  0  0
  -26.4190  -31.9660   25.2370 C   0  0  1  0  0  0  0  0  0  0  0  0
  -25.2860  -31.6640   26.2450 C   0  0  0  0  0  1  0  0  0  0  0  0
  -27.1070  -30.6280   24.8800 C   0  0  0  0  0  1  0  0  0  0  0  0
  -27.4850  -32.8300   25.9510 C   0  0  0  0  0  1  0  0  0  0  0  0
  -30.2570  -17.3860   21.4290 C   0  0  0  0  0  2  0  0  0  0  0  0
  -30.7610  -14.9110   20.6360 C   0  0  0  0  0  0  0  0  0  0  0  0
  -30.5700  -12.7690   19.3730 C   0  0  0  0  0  2  0  0  0  0  0  0
  -29.6210  -12.9710   18.1690 C   0  0  0  0  0  2  0  0  0  0  0  0
  -28.1490  -12.7660   18.5830 C   0  0  0  0  0  2  0  0  0  0  0  0
  -27.7820  -13.5310   19.8800 C   0  0  0  0  0  3  0  0  0  0  0  0
  -28.8390  -13.3020   20.9830 C   0  0  0  0  0  2  0  0  0  0  0  0
  -30.1430  -13.7030   20.4320 N   0  0  0  0  0  0  0  0  0  0  0  0
  -31.9420  -15.0860   20.3230 O   0  0  0  0  0  0  0  0  0  0  0  0
  -29.9580  -15.9500   21.0320 N   0  0  0  0  0  0  0  0  0  0  0  0
  -29.0010  -15.6660   21.1650 H   0  0  0  0  0  0  0  0  0  0  0  0
  -25.3700  -14.0610   20.5950 C   0  0  0  0  0  0  0  0  0  0  0  0
  -24.3160  -13.2570   20.9280 C   0  0  0  0  0  0  0  0  0  0  0  0
  -24.8040  -11.9160   20.8520 C   0  0  0  0  0  0  0  0  0  0  0  0
  -26.4350  -13.2090   20.3400 N   0  0  0  0  0  0  0  0  0  0  0  0
  -26.0970  -11.9130   20.5590 N   0  0  0  0  0  0  0  0  0  0  0  0
  -24.0990  -10.6350   20.9820 C   0  0  0  0  0  0  0  0  0  0  0  0
  -24.5040   -9.6600   21.9200 C   0  0  0  0  0  3  0  0  0  0  0  0
  -23.7980   -8.4430   22.0360 C   0  0  0  0  0  3  0  0  0  0  0  0
  -22.6720   -8.1940   21.2160 C   0  0  0  0  0  0  0  0  0  0  0  0
  -22.2880   -9.1580   20.2660 C   0  0  0  0  0  3  0  0  0  0  0  0
  -22.9950  -10.3660   20.1480 C   0  0  0  0  0  3  0  0  0  0  0  0
  -21.9400   -7.0320   21.2420 O   0  0  0  0  0  0  0  0  0  0  0  0
  -21.8250   -6.2810   22.3850 C   0  0  0  0  0  0  0  0  0  0  0  0
  -21.2640   -6.8070   23.5690 C   0  0  0  0  0  3  0  0  0  0  0  0
  -21.1020   -5.9800   24.6990 C   0  0  0  0  0  3  0  0  0  0  0  0
  -21.4900   -4.6270   24.6440 C   0  0  0  0  0  0  0  0  0  0  0  0
  -22.0440   -4.1010   23.4640 C   0  0  0  0  0  3  0  0  0  0  0  0
  -22.2080   -4.9250   22.3370 C   0  0  0  0  0  0  0  0  0  0  0  0
  -22.7220   -4.4070   21.1960 F   0  0  0  0  0  0  0  0  0  0  0  0
  -21.3280   -3.8300   25.7260 F   0  0  0  0  0  0  0  0  0  0  0  0
  -22.9060  -13.6990   21.1930 C   0  0  0  0  0  0  0  0  0  0  0  0
  -22.1770  -12.9620   22.0260 N   0  0  0  0  0  0  0  0  0  0  0  0
  -22.4570  -14.7310   20.6970 O   0  0  0  0  0  0  0  0  0  0  0  0
  -22.5550  -12.1260   22.4470 H   0  0  0  0  0  0  0  0  0  0  0  0
  -21.2310  -13.2390   22.2440 H   0  0  0  0  0  0  0  0  0  0  0  0
  -25.5080  -15.4370   20.4510 N   0  0  0  0  0  0  0  0  0  0  0  0
  -24.6680  -16.0050   20.4450 H   0  0  0  0  0  0  0  0  0  0  0  0
  -26.2360  -15.7970   19.8500 H   0  0  0  0  0  0  0  0  0  0  0  0
  1 10  1  0
  1 58  1  0
  2  7  2  0
  3  6  1  0
  4  2  1  0
  4  3  1  0
  5  6  1  0
  6  1  1  0
  7  5  1  0
  8  3  2  0
  9  8  1  0
 10 11  1  0
 10 12  1  0
 13 14  2  0
 13 10  1  0
 15 16  2  0
 15 14  1  0
 17 16  1  0
 18 29  2  0
 19 17  1  0
 19 24  1  0
 20 28  1  0
 20 30  1  0
 21 23  1  0
 22 28  1  0
 23 24  2  0
 23 22  1  0
 25 19  2  0
 26 25  1  0
 26 21  2  0
 27 21  1  0
 27 20  1  0
 28 18  1  0
 30 32  2  0
 31 30  1  0
 33 31  1  0
 34 43  2  0
 34 39  1  0
 35 31  1  0
 35 39  1  0
 36 35  1  0
 37 38  1  0
 37 36  1  0
 38 34  1  0
 39 40  2  0
 40 41  1  0
 42 41  2  0
 43 42  1  0
 44 18  1  0
 44 45  1  0
 44 54  1  0
 45 48  1  0
 46 50  1  0
 46 45  1  0
 47 46  2  0
 50 49  1  0
 52 53  1  0
 52 50  1  0
 52 51  1  0
 54 57  1  1
 54 55  1  0
 56 54  1  0
 59 67  1  0
 60 65  1  0
 61 62  1  0
 61 60  1  0
 63 62  1  0
 63 72  1  0
 63 64  1  0
 65 59  1  0
 65 64  1  0
 66 59  2  0
 67 68  1  0
 67 58  1  0
 69 70  2  0
 70 89  1  0
 71 70  1  0
 71 74  1  0
 72 73  1  0
 72 69  1  0
 73 71  2  0
 74 75  1  0
 75 76  2  0
 77 80  1  0
 77 76  1  0
 78 77  2  0
 79 78  1  0
 79 74  2  0
 80 81  1  0
 81 82  1  0
 82 83  2  0
 84 83  1  0
 84 88  1  0
 85 84  2  0
 86 81  2  0
 86 85  1  0
 87 86  1  0
 89 90  1  0
 90 93  1  0
 90 92  1  0
 91 89  2  0
 94 69  1  0
 95 94  1  0
 96 94  1  0
M  ISO  4  16 101  17 101  59 100  67 100
M  END
>  <TORSDO>  (39) 
F 23

>  <SCORE>  (39) 
-12.805

>  <name>  (39) 
38

>  <ligand_id>  (39) 
38

>  <original_smiles>  (39) 
[H]N=C1C([H])([H])C([H])=NC([H])([H])C1([H])C([H])(C([H])([H])N([H])C(=O)N1C([H])([H])C([H])([H])C([H])([H])C([H])(n2nc(-c3c([H])c([H])c(Oc4c([H])c([H])c(F)c([H])c4F)c([H])c3[H])c(C(=O)N([H])[H])c2N([H])[H])C1([H])[H])[N+]([H])([H])C([H])([H])C([H])([H])C([H])([H])C([H])([H])Oc1c([H])c([H])c2c(c1[H])C([H])([H])N(C(=O)C([H])(N([H])C(=O)C([H])(N([H])C([H])([H])[H])C([H])([H])[H])C(C([H])([H])[H])(C([H])([H])[H])C([H])([H])[H])C([H])(C(=O)N([H])C1([H])c3c([H])c([H])c([H])c([H])c3C([H])([H])C([H])([H])C1([H])[H])C2([H])[H]

>  <smiles>  (39) 
[H]N=C1C([H])([H])C([H])=NC([H])([H])C1([H])C([H])(C([H])([H])N([H])C(=O)N1C([H])([H])C([H])([H])C([H])([H])C([H])(n2nc(-c3c([H])c([H])c(Oc4c([H])c([H])c(F)c([H])c4F)c([H])c3[H])c(C(=O)N([H])[H])c2N([H])[H])C1([H])[H])[N+]([H])([H])C([H])([H])C([H])([H])C([H])([H])C([H])([H])Oc1c([H])c([H])c2c(c1[H])C([H])([H])N(C(=O)C([H])(N([H])C(=O)C([H])(N([H])C([H])([H])[H])C([H])([H])[H])C(C([H])([H])[H])(C([H])([H])[H])C([H])([H])[H])C([H])(C(=O)N([H])C1([H])c3c([H])c([H])c([H])c([H])c3C([H])([H])C([H])([H])C1([H])[H])C2([H])[H]

$$$$
39:0:0
     RDKit          3D

 97105  0  0  1  0  0  0  0  0999 V2000
  -25.2430  -21.9790   20.8250 C   0  0  0  0  0  2  0  0  0  0  0  0
  -26.7790  -21.9380   20.9440 C   0  0  0  0  0  2  0  0  0  0  0  0
  -27.3610  -20.5870   20.4990 C   0  0  0  0  0  2  0  0  0  0  0  0
  -28.8870  -20.6140   20.2450 C   0  0  0  0  0  2  0  0  0  0  0  0
  -31.9200  -15.4410   20.1660 C   0  0  0  0  0  0  0  0  0  0  0  0
  -31.7510  -13.0400   19.6650 C   0  0  0  0  0  2  0  0  0  0  0  0
  -30.9010  -12.8770   18.3870 C   0  0  0  0  0  2  0  0  0  0  0  0
  -29.3930  -12.8220   18.7180 C   0  0  0  0  0  2  0  0  0  0  0  0
  -28.9480  -13.9570   19.6780 C   0  0  0  0  0  3  0  0  0  0  0  0
  -29.9170  -14.0540   20.8760 C   0  0  0  0  0  2  0  0  0  0  0  0
  -31.2750  -14.2530   20.3410 N   0  0  0  0  0  0  0  0  0  0  0  0
  -33.1300  -15.5070   19.9240 O   0  0  0  0  0  0  0  0  0  0  0  0
  -30.9920  -16.8430   18.5210 C   0  0  0  0  0  0  0  0  0  0  0  0
  -29.7580  -17.6320   18.0870 C   0  0  0  0  0  2  0  0  0  0  0  0
  -30.3980  -17.1890   20.9270 C   0  0  0  0  0  2  0  0  0  0  0  0
  -29.7890  -19.0970   18.5240 C   0  0  0  0  0  2  0  0  0  0  0  0
  -30.4250  -18.7350   20.8720 C   0  0  0  0  0  2  0  0  0  0  0  0
  -31.0970  -16.4690   19.8310 N   0  0  0  0  0  0  0  0  0  0  0  0
  -29.3870  -19.2490   19.9450 N   0  0  1  0  0  4  0  0  0  0  0  0
  -31.7750  -16.5080   17.6240 O   0  0  0  0  0  0  0  0  0  0  0  0
  -28.5750  -18.6700   20.1040 H   0  0  0  0  0  0  0  0  0  0  0  0
  -26.5820  -14.7650   20.2970 C   0  0  0  0  0  0  0  0  0  0  0  0
  -25.4420  -14.0830   20.6270 C   0  0  0  0  0  0  0  0  0  0  0  0
  -25.7930  -12.6990   20.6000 C   0  0  0  0  0  0  0  0  0  0  0  0
  -27.5600  -13.8000   20.1020 N   0  0  0  0  0  0  0  0  0  0  0  0
  -27.0850  -12.5530   20.3390 N   0  0  0  0  0  0  0  0  0  0  0  0
  -24.9610  -11.5000   20.7530 C   0  0  0  0  0  0  0  0  0  0  0  0
  -25.2510  -10.5210   21.7300 C   0  0  0  0  0  3  0  0  0  0  0  0
  -24.4270   -9.3840   21.8670 C   0  0  0  0  0  3  0  0  0  0  0  0
  -23.3010   -9.2170   21.0270 C   0  0  0  0  0  0  0  0  0  0  0  0
  -23.0320  -10.1820   20.0410 C   0  0  0  0  0  3  0  0  0  0  0  0
  -23.8550  -11.3130   19.9010 C   0  0  0  0  0  3  0  0  0  0  0  0
  -22.4580   -8.1340   21.0730 O   0  0  0  0  0  0  0  0  0  0  0  0
  -22.1910   -7.4810   22.2500 C   0  0  0  0  0  0  0  0  0  0  0  0
  -21.6420   -8.1520   23.3650 C   0  0  0  0  0  3  0  0  0  0  0  0
  -21.3170   -7.4280   24.5300 C   0  0  0  0  0  3  0  0  0  0  0  0
  -21.5290   -6.0380   24.5790 C   0  0  0  0  0  0  0  0  0  0  0  0
  -22.0710   -5.3680   23.4690 C   0  0  0  0  0  3  0  0  0  0  0  0
  -22.3980   -6.0880   22.3060 C   0  0  0  0  0  0  0  0  0  0  0  0
  -22.8990   -5.4350   21.2300 F   0  0  0  0  0  0  0  0  0  0  0  0
  -21.2100   -5.3420   25.6960 F   0  0  0  0  0  0  0  0  0  0  0  0
  -24.0790  -14.6730   20.8440 C   0  0  0  0  0  0  0  0  0  0  0  0
  -23.2670  -14.0450   21.6880 N   0  0  0  0  0  0  0  0  0  0  0  0
  -23.7440  -15.7240   20.3000 O   0  0  0  0  0  0  0  0  0  0  0  0
  -23.5500  -13.1930   22.1500 H   0  0  0  0  0  0  0  0  0  0  0  0
  -22.3490  -14.4210   21.8740 H   0  0  0  0  0  0  0  0  0  0  0  0
  -26.8560  -16.1180   20.1170 N   0  0  0  0  0  0  0  0  0  0  0  0
  -26.0410  -16.7190   20.0610 H   0  0  0  0  0  0  0  0  0  0  0  0
  -27.5290  -16.3420   19.3990 H   0  0  0  0  0  0  0  0  0  0  0  0
  -24.5980  -23.3610   21.0520 C   0  0  0  0  0  2  0  0  0  0  0  0
  -25.1470  -24.4040   20.1570 N   0  0  0  0  0  4  0  0  0  0  0  0
  -24.4220  -25.0910   20.0180 H   0  0  0  0  0  0  0  0  0  0  0  0
  -25.3340  -23.9930   19.2570 H   0  0  0  0  0  0  0  0  0  0  0  0
  -26.3320  -25.1370   20.6670 C   0  0  0  0  0  2  0  0  0  0  0  0
  -27.4640  -25.2350   19.6150 C   0  0  0  0  0  2  0  0  0  0  0  0
  -28.3400  -26.4990   19.7370 C   0  0  0  0  0  2  0  0  0  0  0  0
  -27.9740  -27.5200   18.8080 O   0  0  0  0  0  0  0  0  0  0  0  0
  -24.5590  -31.8550   23.2940 C   0  0  0  0  0  0  0  0  0  0  0  0
  -26.8200  -28.1920   19.1140 C   0  0  0  0  0  0  0  0  0  0  0  0
  -23.1640  -30.7600   21.5700 C   0  0  0  0  0  3  0  0  0  0  0  0
  -24.4370  -29.5680   19.7100 C   0  0  0  0  0  0  0  0  0  0  0  0
  -25.6420  -31.2220   21.1460 C   0  0  0  0  0  2  0  0  0  0  0  0
  -25.6540  -30.0040   20.2500 C   0  0  0  0  0  0  0  0  0  0  0  0
  -26.8500  -29.3160   19.9610 C   0  0  0  0  0  3  0  0  0  0  0  0
  -25.5990  -27.7880   18.5370 C   0  0  0  0  0  3  0  0  0  0  0  0
  -24.4020  -28.4530   18.8540 C   0  0  0  0  0  3  0  0  0  0  0  0
  -23.2030  -30.3620   20.0700 C   0  0  0  0  0  2  0  0  0  0  0  0
  -24.4800  -31.2820   22.0600 N   0  0  0  0  0  0  0  0  0  0  0  0
  -23.5530  -31.9900   24.0040 O   0  0  0  0  0  0  0  0  0  0  0  0
  -22.6430  -29.5560   22.3850 C   0  0  0  0  0  0  0  0  0  0  0  0
  -21.3300  -29.2910   22.2890 N   0  0  0  0  0  0  0  0  0  0  0  0
  -23.4150  -28.8650   23.0550 O   0  0  0  0  0  0  0  0  0  0  0  0
  -20.7630  -29.9090   21.7240 H   0  0  0  0  0  0  0  0  0  0  0  0
  -18.1120  -27.6840   22.6110 C   0  0  0  0  0  0  0  0  0  0  0  0
  -20.6250  -28.1890   22.9420 C   0  0  0  0  0  3  0  0  0  0  0  0
  -20.8870  -26.8540   22.2090 C   0  0  0  0  0  2  0  0  0  0  0  0
  -19.8260  -26.5290   21.1520 C   0  0  0  0  0  2  0  0  0  0  0  0
  -18.4360  -26.4480   21.7920 C   0  0  0  0  0  2  0  0  0  0  0  0
  -19.1400  -28.5110   23.1380 C   0  0  0  0  0  0  0  0  0  0  0  0
  -18.7810  -29.6700   23.8610 C   0  0  0  0  0  3  0  0  0  0  0  0
  -17.4290  -30.0020   24.0650 C   0  0  0  0  0  3  0  0  0  0  0  0
  -16.4170  -29.1700   23.5560 C   0  0  0  0  0  3  0  0  0  0  0  0
  -16.7600  -28.0120   22.8340 C   0  0  0  0  0  3  0  0  0  0  0  0
  -25.9110  -32.3930   23.8560 C   0  0  0  0  0  3  0  0  0  0  0  0
  -26.5190  -31.4730   24.9840 C   0  0  1  0  0  0  0  0  0  0  0  0
  -25.5200  -31.1400   26.1170 C   0  0  0  0  0  1  0  0  0  0  0  0
  -27.0210  -30.1370   24.3890 C   0  0  0  0  0  1  0  0  0  0  0  0
  -27.7490  -32.1650   25.6160 C   0  0  0  0  0  1  0  0  0  0  0  0
  -25.6700  -33.7480   24.3650 N   0  0  0  0  0  0  0  0  0  0  0  0
  -25.9880  -34.8740   23.7090 C   0  0  0  0  0  0  0  0  0  0  0  0
  -26.5900  -34.8740   22.6320 O   0  0  0  0  0  0  0  0  0  0  0  0
  -25.1280  -33.8220   25.2140 H   0  0  0  0  0  0  0  0  0  0  0  0
  -24.3020  -36.7370   23.6660 C   0  0  0  0  0  1  0  0  0  0  0  0
  -25.5730  -36.2100   24.3530 C   0  0  0  0  0  3  0  0  0  0  0  0
  -27.7780  -36.9320   25.1480 C   0  0  0  0  0  1  0  0  0  0  0  0
  -26.6310  -37.2420   24.3000 N   0  0  0  0  0  0  0  0  0  0  0  0
  -26.2660  -38.1480   24.5790 H   0  0  0  0  0  0  0  0  0  0  0  0
  1  2  1  0
  1 50  1  0
  3  2  1  0
  4  3  1  0
  5 11  1  0
  6 11  1  0
  7  8  1  0
  7  6  1  0
  9  8  1  0
  9 25  1  0
  9 10  1  0
 11 10  1  0
 12  5  2  0
 13 18  1  0
 14 13  1  0
 14 16  1  0
 16 19  1  0
 17 15  1  0
 18  5  1  0
 18 15  1  0
 19 21  1  6
 19  4  1  0
 19 17  1  0
 20 13  2  0
 22 23  2  0
 23 42  1  0
 24 23  1  0
 24 27  1  0
 25 22  1  0
 25 26  1  0
 26 24  2  0
 27 28  1  0
 28 29  2  0
 30 33  1  0
 30 29  1  0
 31 30  2  0
 32 31  1  0
 32 27  2  0
 33 34  1  0
 34 39  2  0
 34 35  1  0
 35 36  2  0
 36 37  1  0
 37 41  1  0
 38 37  2  0
 39 38  1  0
 40 39  1  0
 42 43  1  0
 43 46  1  0
 43 45  1  0
 44 42  2  0
 47 22  1  0
 48 47  1  0
 49 47  1  0
 51 54  1  0
 51 50  1  0
 52 51  1  0
 53 51  1  0
 55 56  1  0
 55 54  1  0
 57 59  1  0
 57 56  1  0
 58 69  2  0
 59 64  1  0
 60 68  1  0
 60 70  1  0
 61 67  1  0
 61 63  1  0
 62 68  1  0
 63 62  1  0
 64 63  2  0
 65 66  1  0
 65 59  2  0
 66 61  2  0
 67 60  1  0
 68 58  1  0
 70 72  2  0
 71 70  1  0
 73 71  1  0
 74 83  2  0
 74 79  1  0
 75 71  1  0
 75 79  1  0
 76 75  1  0
 77 78  1  0
 77 76  1  0
 78 74  1  0
 79 80  2  0
 80 81  1  0
 82 81  2  0
 83 82  1  0
 84 58  1  0
 84 89  1  0
 84 85  1  0
 85 88  1  1
 85 86  1  0
 87 85  1  0
 89 92  1  0
 90 94  1  0
 90 89  1  0
 91 90  2  0
 94 93  1  0
 96 94  1  0
 96 97  1  0
 96 95  1  0
M  ISO  4   5 100  18 100  56 101  57 101
M  END
>  <TORSDO>  (40) 
F 24

>  <SCORE>  (40) 
-6.680

>  <name>  (40) 
39

>  <ligand_id>  (40) 
39

>  <original_smiles>  (40) 
[H]c1c([H])c([H])c2c(c1[H])C([H])([H])C([H])([H])C([H])([H])C2([H])N([H])C(=O)C1([H])N(C(=O)C([H])(N([H])C(=O)C([H])(N([H])C([H])([H])[H])C([H])([H])[H])C(C([H])([H])[H])(C([H])([H])[H])C([H])([H])[H])C([H])([H])c2c([H])c(OC([H])([H])C([H])([H])C([H])([H])[N+]([H])([H])C([H])([H])C([H])([H])C([H])([H])C([H])([H])C([H])([H])[N+]3([H])C([H])([H])C([H])([H])C(=O)N(C(=O)N4C([H])([H])C([H])([H])C([H])([H])C([H])(n5nc(-c6c([H])c([H])c(Oc7c([H])c([H])c(F)c([H])c7F)c([H])c6[H])c(C(=O)N([H])[H])c5N([H])[H])C4([H])[H])C([H])([H])C3([H])[H])c([H])c([H])c2C1([H])[H]

>  <smiles>  (40) 
[H]c1c([H])c([H])c2c(c1[H])C([H])([H])C([H])([H])C([H])([H])C2([H])N([H])C(=O)C1([H])N(C(=O)C([H])(N([H])C(=O)C([H])(N([H])C([H])([H])[H])C([H])([H])[H])C(C([H])([H])[H])(C([H])([H])[H])C([H])([H])[H])C([H])([H])c2c([H])c(OC([H])([H])C([H])([H])C([H])([H])[N+]([H])([H])C([H])([H])C([H])([H])C([H])([H])C([H])([H])C([H])([H])[N+]3([H])C([H])([H])C([H])([H])C(=O)N(C(=O)N4C([H])([H])C([H])([H])C([H])([H])C([H])(n5nc(-c6c([H])c([H])c(Oc7c([H])c([H])c(F)c([H])c7F)c([H])c6[H])c(C(=O)N([H])[H])c5N([H])[H])C4([H])[H])C([H])([H])C3([H])[H])c([H])c([H])c2C1([H])[H]

$$$$
40:0:0
     RDKit          3D

 95103  0  0  1  0  0  0  0  0999 V2000
  -30.0030  -22.3640   22.7380 C   0  0  0  0  0  2  0  0  0  0  0  0
  -29.2550  -22.8360   21.5470 N   0  0  0  0  0  4  0  0  0  0  0  0
  -28.6130  -22.1170   21.2520 H   0  0  0  0  0  0  0  0  0  0  0  0
  -29.9110  -22.9990   20.7980 H   0  0  0  0  0  0  0  0  0  0  0  0
  -28.4690  -24.0720   21.7740 C   0  0  0  0  0  2  0  0  0  0  0  0
  -27.6450  -24.4830   20.5370 C   0  0  0  0  0  2  0  0  0  0  0  0
  -28.3810  -25.4520   19.5790 C   0  0  0  0  0  2  0  0  0  0  0  0
  -28.3770  -26.8080   20.0410 O   0  0  0  0  0  0  0  0  0  0  0  0
  -24.5770  -31.8880   23.2380 C   0  0  0  0  0  0  0  0  0  0  0  0
  -27.1920  -27.5170   20.0340 C   0  0  0  0  0  0  0  0  0  0  0  0
  -23.3570  -30.5250   21.5740 C   0  0  0  0  0  3  0  0  0  0  0  0
  -24.8000  -29.0300   20.1000 C   0  0  0  0  0  0  0  0  0  0  0  0
  -25.8840  -30.8860   21.3720 C   0  0  0  0  0  2  0  0  0  0  0  0
  -25.9630  -29.5310   20.6980 C   0  0  0  0  0  0  0  0  0  0  0  0
  -27.1590  -28.7790   20.6700 C   0  0  0  0  0  3  0  0  0  0  0  0
  -26.0060  -27.0370   19.4260 C   0  0  0  0  0  3  0  0  0  0  0  0
  -24.8170  -27.7820   19.4620 C   0  0  0  0  0  3  0  0  0  0  0  0
  -23.5580  -29.8860   20.1760 C   0  0  0  0  0  2  0  0  0  0  0  0
  -24.6250  -31.1120   22.1180 N   0  0  0  0  0  0  0  0  0  0  0  0
  -23.4990  -32.1500   23.7900 O   0  0  0  0  0  0  0  0  0  0  0  0
  -22.7160  -29.4780   22.5090 C   0  0  0  0  0  0  0  0  0  0  0  0
  -21.3960  -29.2770   22.3620 N   0  0  0  0  0  0  0  0  0  0  0  0
  -23.4000  -28.8520   23.3240 O   0  0  0  0  0  0  0  0  0  0  0  0
  -20.9060  -29.8350   21.6770 H   0  0  0  0  0  0  0  0  0  0  0  0
  -18.0350  -28.0110   22.7730 C   0  0  0  0  0  0  0  0  0  0  0  0
  -20.5800  -28.3190   23.1060 C   0  0  0  0  0  3  0  0  0  0  0  0
  -20.7260  -26.8930   22.5240 C   0  0  0  0  0  2  0  0  0  0  0  0
  -19.6540  -26.5540   21.4860 C   0  0  0  0  0  2  0  0  0  0  0  0
  -18.2540  -26.6690   22.0950 C   0  0  0  0  0  2  0  0  0  0  0  0
  -19.1280  -28.7930   23.2320 C   0  0  0  0  0  0  0  0  0  0  0  0
  -18.8710  -30.0510   23.8210 C   0  0  0  0  0  3  0  0  0  0  0  0
  -17.5530  -30.5280   23.9540 C   0  0  0  0  0  3  0  0  0  0  0  0
  -16.4740  -29.7420   23.5130 C   0  0  0  0  0  3  0  0  0  0  0  0
  -16.7160  -28.4860   22.9290 C   0  0  0  0  0  3  0  0  0  0  0  0
  -25.8690  -32.5020   23.8610 C   0  0  0  0  0  3  0  0  0  0  0  0
  -25.5700  -33.9010   24.1980 N   0  0  0  0  0  0  0  0  0  0  0  0
  -25.9110  -34.9520   23.4410 C   0  0  0  0  0  0  0  0  0  0  0  0
  -26.5800  -34.8470   22.4100 O   0  0  0  0  0  0  0  0  0  0  0  0
  -24.9760  -34.0570   25.0000 H   0  0  0  0  0  0  0  0  0  0  0  0
  -24.1970  -36.7580   23.0980 C   0  0  0  0  0  1  0  0  0  0  0  0
  -25.4360  -36.3420   23.9050 C   0  0  0  0  0  3  0  0  0  0  0  0
  -27.5800  -37.2050   24.7330 C   0  0  0  0  0  1  0  0  0  0  0  0
  -26.4780  -37.3870   23.7940 N   0  0  0  0  0  0  0  0  0  0  0  0
  -26.0780  -38.3090   23.9480 H   0  0  0  0  0  0  0  0  0  0  0  0
  -26.3790  -31.7150   25.1310 C   0  0  1  0  0  0  0  0  0  0  0  0
  -25.2790  -31.4640   26.1900 C   0  0  0  0  0  1  0  0  0  0  0  0
  -26.9600  -30.3410   24.7220 C   0  0  0  0  0  1  0  0  0  0  0  0
  -27.5270  -32.5010   25.8080 C   0  0  0  0  0  1  0  0  0  0  0  0
  -30.9270  -21.1560   22.4460 C   0  0  0  0  0  2  0  0  0  0  0  0
  -30.1830  -19.8520   22.0830 C   0  0  0  0  0  2  0  0  0  0  0  0
  -31.1020  -18.7410   21.7410 N   0  0  0  0  0  4  0  0  0  0  0  0
  -31.7450  -19.0520   21.0290 H   0  0  0  0  0  0  0  0  0  0  0  0
  -31.6440  -18.5030   22.5570 H   0  0  0  0  0  0  0  0  0  0  0  0
  -30.4020  -17.5350   21.2370 C   0  0  0  0  0  2  0  0  0  0  0  0
  -30.6270  -14.4240   19.6640 C   0  0  0  0  0  0  0  0  0  0  0  0
  -30.0250  -12.4230   18.3660 C   0  0  0  0  0  2  0  0  0  0  0  0
  -28.9540  -12.6920   17.2960 C   0  0  0  0  0  2  0  0  0  0  0  0
  -27.5480  -12.5380   17.8960 C   0  0  0  0  0  2  0  0  0  0  0  0
  -27.3710  -13.3480   19.2070 C   0  0  0  0  0  3  0  0  0  0  0  0
  -28.5400  -13.0930   20.1840 C   0  0  0  0  0  2  0  0  0  0  0  0
  -29.8180  -13.3470   19.4900 N   0  0  0  0  0  0  0  0  0  0  0  0
  -31.4540  -14.7840   18.8220 O   0  0  0  0  0  0  0  0  0  0  0  0
  -31.6340  -15.6600   22.5060 C   0  0  0  0  0  0  0  0  0  0  0  0
  -30.7700  -14.4520   22.1520 C   0  0  0  0  0  2  0  0  0  0  0  0
  -31.3050  -16.2990   21.1540 C   0  0  0  0  0  3  0  0  0  0  0  0
  -30.5220  -15.0790   20.8350 N   0  0  0  0  0  0  0  0  0  0  0  0
  -32.3130  -15.9960   23.4810 O   0  0  0  0  0  0  0  0  0  0  0  0
  -25.0740  -13.9470   20.2080 C   0  0  0  0  0  0  0  0  0  0  0  0
  -24.0470  -13.1690   20.6730 C   0  0  0  0  0  0  0  0  0  0  0  0
  -24.4870  -11.8160   20.5410 C   0  0  0  0  0  0  0  0  0  0  0  0
  -26.0770  -13.0680   19.8300 N   0  0  0  0  0  0  0  0  0  0  0  0
  -25.7330  -11.7800   20.0840 N   0  0  0  0  0  0  0  0  0  0  0  0
  -23.7740  -10.5520   20.7720 C   0  0  0  0  0  0  0  0  0  0  0  0
  -24.2720   -9.5740   21.6620 C   0  0  0  0  0  3  0  0  0  0  0  0
  -23.5600   -8.3760   21.8800 C   0  0  0  0  0  3  0  0  0  0  0  0
  -22.3350   -8.1450   21.2100 C   0  0  0  0  0  0  0  0  0  0  0  0
  -21.8560   -9.1110   20.3070 C   0  0  0  0  0  3  0  0  0  0  0  0
  -22.5680  -10.3020   20.0870 C   0  0  0  0  0  3  0  0  0  0  0  0
  -21.5890   -7.0000   21.3410 O   0  0  0  0  0  0  0  0  0  0  0  0
  -21.6040   -6.2580   22.4940 C   0  0  0  0  0  0  0  0  0  0  0  0
  -21.2670   -6.8170   23.7450 C   0  0  0  0  0  3  0  0  0  0  0  0
  -21.2300   -6.0020   24.8950 C   0  0  0  0  0  3  0  0  0  0  0  0
  -21.5200   -4.6280   24.7940 C   0  0  0  0  0  0  0  0  0  0  0  0
  -21.8500   -4.0680   23.5480 C   0  0  0  0  0  3  0  0  0  0  0  0
  -21.8890   -4.8800   22.4000 C   0  0  0  0  0  0  0  0  0  0  0  0
  -22.1880   -4.3310   21.1980 F   0  0  0  0  0  0  0  0  0  0  0  0
  -21.4760   -3.8430   25.8950 F   0  0  0  0  0  0  0  0  0  0  0  0
  -22.6960  -13.6450   21.1230 C   0  0  0  0  0  0  0  0  0  0  0  0
  -22.0790  -12.9370   22.0650 N   0  0  0  0  0  0  0  0  0  0  0  0
  -22.2000  -14.6780   20.6760 O   0  0  0  0  0  0  0  0  0  0  0  0
  -22.4940  -12.1010   22.4470 H   0  0  0  0  0  0  0  0  0  0  0  0
  -21.1760  -13.2370   22.4070 H   0  0  0  0  0  0  0  0  0  0  0  0
  -25.2330  -15.3210   20.0590 N   0  0  0  0  0  0  0  0  0  0  0  0
  -24.4950  -15.9810   20.2780 H   0  0  0  0  0  0  0  0  0  0  0  0
  -26.0500  -15.7600   19.6530 H   0  0  0  0  0  0  0  0  0  0  0  0
  2  5  1  0
  2  1  1  0
  3  2  1  0
  4  2  1  0
  6  5  1  0
  7  8  1  0
  7  6  1  0
  9 20  2  0
 10  8  1  0
 10 15  1  0
 11 19  1  0
 11 21  1  0
 12 18  1  0
 12 14  1  0
 13 19  1  0
 14 13  1  0
 15 14  2  0
 16 17  1  0
 16 10  2  0
 17 12  2  0
 18 11  1  0
 19  9  1  0
 21 23  2  0
 22 21  1  0
 24 22  1  0
 25 34  2  0
 25 30  1  0
 26 22  1  0
 26 30  1  0
 27 26  1  0
 28 29  1  0
 28 27  1  0
 29 25  1  0
 30 31  2  0
 31 32  1  0
 33 32  2  0
 34 33  1  0
 35  9  1  0
 35 36  1  0
 35 45  1  0
 36 39  1  0
 37 41  1  0
 37 36  1  0
 38 37  2  0
 41 40  1  0
 43 41  1  0
 43 44  1  0
 43 42  1  0
 45 48  1  1
 45 46  1  0
 47 45  1  0
 49  1  1  0
 50 49  1  0
 51 50  1  0
 51 53  1  0
 52 51  1  0
 54 51  1  0
 55 66  1  0
 56 61  1  0
 57 58  1  0
 57 56  1  0
 59 58  1  0
 59 71  1  0
 59 60  1  0
 61 55  1  0
 61 60  1  0
 62 55  2  0
 63 67  2  0
 64 63  1  0
 65 54  1  0
 65 63  1  0
 66 65  1  0
 66 64  1  0
 68 69  2  0
 69 88  1  0
 70 69  1  0
 70 73  1  0
 71 72  1  0
 71 68  1  0
 72 70  2  0
 73 74  1  0
 74 75  2  0
 76 79  1  0
 76 75  1  0
 77 76  2  0
 78 77  1  0
 78 73  2  0
 79 80  1  0
 80 81  1  0
 81 82  2  0
 83 82  1  0
 83 87  1  0
 84 83  2  0
 85 80  2  0
 85 84  1  0
 86 85  1  0
 88 89  1  0
 89 92  1  0
 89 91  1  0
 90 88  2  0
 93 68  1  0
 93 94  1  0
 95 93  1  0
M  ISO  4   7 101   8 101  55 100  66 100
M  END
>  <TORSDO>  (41) 
F 24

>  <SCORE>  (41) 
-6.993

>  <name>  (41) 
40

>  <ligand_id>  (41) 
40

>  <original_smiles>  (41) 
[H]c1c([H])c([H])c2c(c1[H])C([H])([H])C([H])([H])C([H])([H])C2([H])N([H])C(=O)C1([H])N(C(=O)C([H])(N([H])C(=O)C([H])(N([H])C([H])([H])[H])C([H])([H])[H])C(C([H])([H])[H])(C([H])([H])[H])C([H])([H])[H])C([H])([H])c2c([H])c(OC([H])([H])C([H])([H])C([H])([H])[N+]([H])([H])C([H])([H])C([H])([H])C([H])([H])[N+]([H])([H])C([H])([H])C3([H])C(=O)C([H])([H])N3C(=O)N3C([H])([H])C([H])([H])C([H])([H])C([H])(n4nc(-c5c([H])c([H])c(Oc6c([H])c([H])c(F)c([H])c6F)c([H])c5[H])c(C(=O)N([H])[H])c4N([H])[H])C3([H])[H])c([H])c([H])c2C1([H])[H]

>  <smiles>  (41) 
[H]c1c([H])c([H])c2c(c1[H])C([H])([H])C([H])([H])C([H])([H])C2([H])N([H])C(=O)C1([H])N(C(=O)C([H])(N([H])C(=O)C([H])(N([H])C([H])([H])[H])C([H])([H])[H])C(C([H])([H])[H])(C([H])([H])[H])C([H])([H])[H])C([H])([H])c2c([H])c(OC([H])([H])C([H])([H])C([H])([H])[N+]([H])([H])C([H])([H])C([H])([H])C([H])([H])[N+]([H])([H])C([H])([H])C3([H])C(=O)C([H])([H])N3C(=O)N3C([H])([H])C([H])([H])C([H])([H])C([H])(n4nc(-c5c([H])c([H])c(Oc6c([H])c([H])c(F)c([H])c6F)c([H])c5[H])c(C(=O)N([H])[H])c4N([H])[H])C3([H])[H])c([H])c([H])c2C1([H])[H]

$$$$
41:0:0
     RDKit          3D

 95103  0  0  1  0  0  0  0  0999 V2000
  -28.4620  -18.6800   18.6020 C   0  0  0  0  0  2  0  0  0  0  0  0
  -29.0600  -19.9330   19.2140 C   0  0  0  0  0  2  0  0  0  0  0  0
  -29.5530  -17.6290   18.8240 C   0  0  0  0  0  3  0  0  0  0  0  0
  -30.2730  -18.1050   20.1310 C   0  0  0  0  0  3  0  0  0  0  0  0
  -29.6370  -19.4010   20.4410 N   0  0  0  0  0  0  0  0  0  0  0  0
  -29.8400  -17.4080   16.3460 C   0  0  0  0  0  1  0  0  0  0  0  0
  -30.4860  -17.5810   17.6680 N   0  0  0  0  0  4  0  0  0  0  0  0
  -31.1200  -16.8100   17.7950 H   0  0  0  0  0  0  0  0  0  0  0  0
  -31.0470  -18.4190   17.6440 H   0  0  0  0  0  0  0  0  0  0  0  0
  -30.1490  -17.1960   21.3980 C   0  0  0  0  0  2  0  0  0  0  0  0
  -30.6970  -14.8470   20.5710 C   0  0  0  0  0  0  0  0  0  0  0  0
  -30.3870  -12.8800   19.1220 C   0  0  0  0  0  2  0  0  0  0  0  0
  -29.4120  -13.3000   18.0040 C   0  0  0  0  0  2  0  0  0  0  0  0
  -27.9500  -13.0850   18.4430 C   0  0  0  0  0  2  0  0  0  0  0  0
  -27.6480  -13.6930   19.8390 C   0  0  0  0  0  3  0  0  0  0  0  0
  -28.7390  -13.2880   20.8580 C   0  0  0  0  0  2  0  0  0  0  0  0
  -30.0520  -13.6770   20.3080 N   0  0  0  0  0  0  0  0  0  0  0  0
  -31.8010  -15.1420   20.1110 O   0  0  0  0  0  0  0  0  0  0  0  0
  -29.9270  -15.7590   21.1850 N   0  0  0  0  0  0  0  0  0  0  0  0
  -29.0540  -15.3970   21.5360 H   0  0  0  0  0  0  0  0  0  0  0  0
  -25.2320  -14.1780   20.5700 C   0  0  0  0  0  0  0  0  0  0  0  0
  -24.1960  -13.3520   20.9070 C   0  0  0  0  0  0  0  0  0  0  0  0
  -24.7110  -12.0210   20.8330 C   0  0  0  0  0  0  0  0  0  0  0  0
  -26.3110  -13.3460   20.3050 N   0  0  0  0  0  0  0  0  0  0  0  0
  -25.9990  -12.0430   20.5200 N   0  0  0  0  0  0  0  0  0  0  0  0
  -24.0390  -10.7230   20.9830 C   0  0  0  0  0  0  0  0  0  0  0  0
  -24.4770   -9.7710   21.9310 C   0  0  0  0  0  3  0  0  0  0  0  0
  -23.8020   -8.5400   22.0670 C   0  0  0  0  0  3  0  0  0  0  0  0
  -22.6780   -8.2530   21.2560 C   0  0  0  0  0  0  0  0  0  0  0  0
  -22.2610   -9.1970   20.3010 C   0  0  0  0  0  3  0  0  0  0  0  0
  -22.9370  -10.4190   20.1620 C   0  0  0  0  0  3  0  0  0  0  0  0
  -21.9770   -7.0730   21.3020 O   0  0  0  0  0  0  0  0  0  0  0  0
  -21.8570   -6.3510   22.4610 C   0  0  0  0  0  0  0  0  0  0  0  0
  -21.2760   -6.9030   23.6250 C   0  0  0  0  0  3  0  0  0  0  0  0
  -21.1080   -6.1070   24.7750 C   0  0  0  0  0  3  0  0  0  0  0  0
  -21.5110   -4.7570   24.7640 C   0  0  0  0  0  0  0  0  0  0  0  0
  -22.0840   -4.2010   23.6060 C   0  0  0  0  0  3  0  0  0  0  0  0
  -22.2530   -4.9960   22.4570 C   0  0  0  0  0  0  0  0  0  0  0  0
  -22.7910   -4.4540   21.3380 F   0  0  0  0  0  0  0  0  0  0  0  0
  -21.3400   -3.9890   25.8650 F   0  0  0  0  0  0  0  0  0  0  0  0
  -22.7830  -13.7660   21.1960 C   0  0  0  0  0  0  0  0  0  0  0  0
  -22.0840  -13.0150   22.0430 N   0  0  0  0  0  0  0  0  0  0  0  0
  -22.3000  -14.7870   20.7090 O   0  0  0  0  0  0  0  0  0  0  0  0
  -22.4880  -12.1850   22.4480 H   0  0  0  0  0  0  0  0  0  0  0  0
  -21.1360  -13.2710   22.2760 H   0  0  0  0  0  0  0  0  0  0  0  0
  -25.3460  -15.5620   20.4600 N   0  0  0  0  0  0  0  0  0  0  0  0
  -24.5800  -16.1800   20.7030 H   0  0  0  0  0  0  0  0  0  0  0  0
  -26.2040  -16.0550   20.2520 H   0  0  0  0  0  0  0  0  0  0  0  0
  -30.4440  -20.3810   21.1800 C   0  0  0  0  0  2  0  0  0  0  0  0
  -29.7030  -21.7390   21.3030 C   0  0  0  0  0  2  0  0  0  0  0  0
  -30.3450  -22.8740   20.4780 C   0  0  0  0  0  2  0  0  0  0  0  0
  -29.4980  -24.1660   20.4450 C   0  0  0  0  0  2  0  0  0  0  0  0
  -30.1470  -25.2950   19.6180 C   0  0  0  0  0  2  0  0  0  0  0  0
  -29.2020  -26.4670   19.3000 C   0  0  0  0  0  2  0  0  0  0  0  0
  -28.8720  -27.2220   20.4700 O   0  0  0  0  0  0  0  0  0  0  0  0
  -24.8340  -32.2180   23.5640 C   0  0  0  0  0  0  0  0  0  0  0  0
  -27.6560  -27.8760   20.4790 C   0  0  0  0  0  0  0  0  0  0  0  0
  -23.6790  -30.7370   21.9560 C   0  0  0  0  0  3  0  0  0  0  0  0
  -25.1870  -29.2630   20.5250 C   0  0  0  0  0  0  0  0  0  0  0  0
  -26.1850  -31.2130   21.7280 C   0  0  0  0  0  2  0  0  0  0  0  0
  -26.3260  -29.8440   21.0950 C   0  0  0  0  0  0  0  0  0  0  0  0
  -27.5590  -29.1510   21.0820 C   0  0  0  0  0  3  0  0  0  0  0  0
  -26.4840  -27.2960   19.9360 C   0  0  0  0  0  3  0  0  0  0  0  0
  -25.2600  -27.9840   19.9530 C   0  0  0  0  0  3  0  0  0  0  0  0
  -23.9010  -30.0590   20.5800 C   0  0  0  0  0  2  0  0  0  0  0  0
  -24.9170  -31.4060   22.4730 N   0  0  0  0  0  0  0  0  0  0  0  0
  -23.7490  -32.4470   24.1130 O   0  0  0  0  0  0  0  0  0  0  0  0
  -23.0940  -29.6920   22.9330 C   0  0  0  0  0  0  0  0  0  0  0  0
  -21.8300  -29.3020   22.7000 N   0  0  0  0  0  0  0  0  0  0  0  0
  -23.7750  -29.2380   23.8550 O   0  0  0  0  0  0  0  0  0  0  0  0
  -21.3370  -29.7240   21.9280 H   0  0  0  0  0  0  0  0  0  0  0  0
  -18.6860  -27.5380   22.8980 C   0  0  0  0  0  0  0  0  0  0  0  0
  -21.0850  -28.3070   23.4710 C   0  0  0  0  0  3  0  0  0  0  0  0
  -21.5270  -26.8720   23.1000 C   0  0  0  0  0  2  0  0  0  0  0  0
  -20.6670  -26.2460   21.9980 C   0  0  0  0  0  2  0  0  0  0  0  0
  -19.1980  -26.1870   22.4290 C   0  0  0  0  0  2  0  0  0  0  0  0
  -19.5740  -28.5390   23.3730 C   0  0  0  0  0  0  0  0  0  0  0  0
  -19.0510  -29.7920   23.7650 C   0  0  0  0  0  3  0  0  0  0  0  0
  -17.6680  -30.0470   23.6900 C   0  0  0  0  0  3  0  0  0  0  0  0
  -16.7910  -29.0460   23.2360 C   0  0  0  0  0  3  0  0  0  0  0  0
  -17.2990  -27.7950   22.8470 C   0  0  0  0  0  3  0  0  0  0  0  0
  -26.0960  -32.9200   24.1570 C   0  0  0  0  0  3  0  0  0  0  0  0
  -25.7490  -34.3280   24.3870 N   0  0  0  0  0  0  0  0  0  0  0  0
  -26.0820  -35.3360   23.5710 C   0  0  0  0  0  0  0  0  0  0  0  0
  -26.7850  -35.1820   22.5670 O   0  0  0  0  0  0  0  0  0  0  0  0
  -25.1240  -34.5210   25.1550 H   0  0  0  0  0  0  0  0  0  0  0  0
  -24.3260  -37.0590   23.0550 C   0  0  0  0  0  1  0  0  0  0  0  0
  -25.5510  -36.7380   23.9250 C   0  0  0  0  0  3  0  0  0  0  0  0
  -27.6380  -37.7230   24.7580 C   0  0  0  0  0  1  0  0  0  0  0  0
  -26.5620  -37.8060   23.7740 N   0  0  0  0  0  0  0  0  0  0  0  0
  -26.1300  -38.7210   23.8570 H   0  0  0  0  0  0  0  0  0  0  0  0
  -26.6160  -32.2470   25.4860 C   0  0  1  0  0  0  0  0  0  0  0  0
  -25.5070  -32.0050   26.5350 C   0  0  0  0  0  1  0  0  0  0  0  0
  -27.2860  -30.8860   25.1870 C   0  0  0  0  0  1  0  0  0  0  0  0
  -27.6970  -33.1420   26.1360 C   0  0  0  0  0  1  0  0  0  0  0  0
  1  3  1  0
  1  2  1  0
  2  5  1  0
  3  7  1  0
  3  4  1  0
  4  5  1  0
  4 10  1  0
  5 49  1  0
  6  7  1  0
  7  8  1  0
  9  7  1  0
 11 19  1  0
 12 17  1  0
 13 14  1  0
 13 12  1  0
 15 14  1  0
 15 24  1  0
 15 16  1  0
 17 11  1  0
 17 16  1  0
 18 11  2  0
 19 10  1  0
 19 20  1  0
 21 22  2  0
 22 41  1  0
 23 22  1  0
 23 26  1  0
 24 25  1  0
 24 21  1  0
 25 23  2  0
 26 27  1  0
 27 28  2  0
 29 32  1  0
 29 28  1  0
 30 29  2  0
 31 30  1  0
 31 26  2  0
 32 33  1  0
 33 34  1  0
 34 35  2  0
 36 35  1  0
 36 40  1  0
 37 36  2  0
 38 33  2  0
 38 37  1  0
 39 38  1  0
 41 42  1  0
 42 45  1  0
 42 44  1  0
 43 41  2  0
 46 21  1  0
 46 47  1  0
 48 46  1  0
 49 50  1  0
 51 50  1  0
 52 51  1  0
 53 52  1  0
 54 53  1  0
 54 55  1  0
 55 57  1  0
 56 67  2  0
 57 62  1  0
 58 66  1  0
 58 68  1  0
 59 65  1  0
 59 61  1  0
 60 66  1  0
 61 60  1  0
 62 61  2  0
 63 64  1  0
 63 57  2  0
 64 59  2  0
 65 58  1  0
 66 56  1  0
 68 70  2  0
 69 68  1  0
 71 69  1  0
 72 77  1  0
 73 69  1  0
 74 73  1  0
 75 76  1  0
 75 74  1  0
 76 72  1  0
 77 73  1  0
 77 78  2  0
 79 78  1  0
 80 79  2  0
 81 72  2  0
 81 80  1  0
 82 56  1  0
 82 83  1  0
 82 92  1  0
 83 86  1  0
 84 88  1  0
 84 83  1  0
 85 84  2  0
 88 87  1  0
 90 91  1  0
 90 88  1  0
 90 89  1  0
 92 95  1  1
 92 93  1  0
 94 92  1  0
M  ISO  4  11 100  19 100  54 101  55 101
M  END
>  <TORSDO>  (42) 
F 24

>  <SCORE>  (42) 
-10.714

>  <name>  (42) 
41

>  <ligand_id>  (42) 
41

>  <original_smiles>  (42) 
[H]c1c([H])c([H])c2c(c1[H])C([H])([H])C([H])([H])C([H])([H])C2([H])N([H])C(=O)C1([H])N(C(=O)C([H])(N([H])C(=O)C([H])(N([H])C([H])([H])[H])C([H])([H])[H])C(C([H])([H])[H])(C([H])([H])[H])C([H])([H])[H])C([H])([H])c2c([H])c(OC([H])([H])C([H])([H])C([H])([H])C([H])([H])C([H])([H])C([H])([H])N3C([H])([H])C([H])([H])C([H])([N+]([H])([H])C([H])([H])[H])C3([H])C([H])([H])N([H])C(=O)N3C([H])([H])C([H])([H])C([H])([H])C([H])(n4nc(-c5c([H])c([H])c(Oc6c([H])c([H])c(F)c([H])c6F)c([H])c5[H])c(C(=O)N([H])[H])c4N([H])[H])C3([H])[H])c([H])c([H])c2C1([H])[H]

>  <smiles>  (42) 
[H]c1c([H])c([H])c2c(c1[H])C([H])([H])C([H])([H])C([H])([H])C2([H])N([H])C(=O)C1([H])N(C(=O)C([H])(N([H])C(=O)C([H])(N([H])C([H])([H])[H])C([H])([H])[H])C(C([H])([H])[H])(C([H])([H])[H])C([H])([H])[H])C([H])([H])c2c([H])c(OC([H])([H])C([H])([H])C([H])([H])C([H])([H])C([H])([H])C([H])([H])N3C([H])([H])C([H])([H])C([H])([N+]([H])([H])C([H])([H])[H])C3([H])C([H])([H])N([H])C(=O)N3C([H])([H])C([H])([H])C([H])([H])C([H])(n4nc(-c5c([H])c([H])c(Oc6c([H])c([H])c(F)c([H])c6F)c([H])c5[H])c(C(=O)N([H])[H])c4N([H])[H])C3([H])[H])c([H])c([H])c2C1([H])[H]

$$$$
42:0:0
     RDKit          3D

 92100  0  0  1  0  0  0  0  0999 V2000
  -31.2350  -21.7140   22.2740 C   0  0  0  0  0  2  0  0  0  0  0  0
  -30.5780  -19.4570   21.4300 C   0  0  0  0  0  0  0  0  0  0  0  0
  -30.2980  -20.6160   22.0420 N   0  0  0  0  0  0  0  0  0  0  0  0
  -31.6440  -19.2650   20.8430 O   0  0  0  0  0  0  0  0  0  0  0  0
  -29.3960  -20.6860   22.4950 H   0  0  0  0  0  0  0  0  0  0  0  0
  -31.0310  -14.5880   20.0840 C   0  0  0  0  0  0  0  0  0  0  0  0
  -30.6270  -12.4740   18.8920 C   0  0  0  0  0  2  0  0  0  0  0  0
  -29.6460  -12.7350   17.7320 C   0  0  0  0  0  2  0  0  0  0  0  0
  -28.1950  -12.5760   18.2210 C   0  0  0  0  0  2  0  0  0  0  0  0
  -27.9090  -13.3780   19.5190 C   0  0  0  0  0  3  0  0  0  0  0  0
  -29.0130  -13.1590   20.5790 C   0  0  0  0  0  2  0  0  0  0  0  0
  -30.3140  -13.4400   19.9550 N   0  0  0  0  0  0  0  0  0  0  0  0
  -32.1410  -14.7480   19.5700 O   0  0  0  0  0  0  0  0  0  0  0  0
  -29.0910  -17.7510   20.1750 C   0  0  0  0  0  2  0  0  0  0  0  0
  -29.9210  -17.2080   22.4950 C   0  0  0  0  0  2  0  0  0  0  0  0
  -30.1030  -16.7280   19.6300 C   0  0  0  0  0  2  0  0  0  0  0  0
  -30.8970  -16.1920   21.8620 C   0  0  0  0  0  2  0  0  0  0  0  0
  -29.5070  -18.3480   21.5350 C   0  0  0  0  0  3  0  0  0  0  0  0
  -30.3760  -15.6500   20.5990 N   0  0  0  0  0  0  0  0  0  0  0  0
  -25.5280  -13.9390   20.3110 C   0  0  0  0  0  0  0  0  0  0  0  0
  -24.4860  -13.1470   20.7130 C   0  0  0  0  0  0  0  0  0  0  0  0
  -24.9670  -11.8040   20.6580 C   0  0  0  0  0  0  0  0  0  0  0  0
  -26.5790  -13.0780   20.0450 N   0  0  0  0  0  0  0  0  0  0  0  0
  -26.2480  -11.7870   20.3080 N   0  0  0  0  0  0  0  0  0  0  0  0
  -24.2670  -10.5280   20.8650 C   0  0  0  0  0  0  0  0  0  0  0  0
  -24.6850   -9.6080   21.8510 C   0  0  0  0  0  3  0  0  0  0  0  0
  -23.9840   -8.3970   22.0430 C   0  0  0  0  0  3  0  0  0  0  0  0
  -22.8520   -8.0990   21.2480 C   0  0  0  0  0  0  0  0  0  0  0  0
  -22.4530   -9.0100   20.2530 C   0  0  0  0  0  3  0  0  0  0  0  0
  -23.1540  -10.2110   20.0600 C   0  0  0  0  0  3  0  0  0  0  0  0
  -22.1270   -6.9360   21.3450 O   0  0  0  0  0  0  0  0  0  0  0  0
  -21.9720   -6.2820   22.5410 C   0  0  0  0  0  0  0  0  0  0  0  0
  -21.3830   -6.9080   23.6610 C   0  0  0  0  0  3  0  0  0  0  0  0
  -21.1810   -6.1790   24.8490 C   0  0  0  0  0  3  0  0  0  0  0  0
  -21.5550   -4.8230   24.9170 C   0  0  0  0  0  0  0  0  0  0  0  0
  -22.1340   -4.1960   23.8000 C   0  0  0  0  0  3  0  0  0  0  0  0
  -22.3400   -4.9230   22.6140 C   0  0  0  0  0  0  0  0  0  0  0  0
  -22.8790   -4.3090   21.5350 F   0  0  0  0  0  0  0  0  0  0  0  0
  -21.3540   -4.1190   26.0570 F   0  0  0  0  0  0  0  0  0  0  0  0
  -23.0920  -13.6020   21.0400 C   0  0  0  0  0  0  0  0  0  0  0  0
  -22.4190  -12.9030   21.9470 N   0  0  0  0  0  0  0  0  0  0  0  0
  -22.6110  -14.6100   20.5250 O   0  0  0  0  0  0  0  0  0  0  0  0
  -22.8210  -12.0840   22.3780 H   0  0  0  0  0  0  0  0  0  0  0  0
  -21.4900  -13.1920   22.2160 H   0  0  0  0  0  0  0  0  0  0  0  0
  -25.6640  -15.3120   20.1250 N   0  0  0  0  0  0  0  0  0  0  0  0
  -24.8840  -15.9530   20.2140 H   0  0  0  0  0  0  0  0  0  0  0  0
  -26.4940  -15.7450   19.7380 H   0  0  0  0  0  0  0  0  0  0  0  0
  -31.2350  -22.7790   21.1610 C   0  0  0  0  0  2  0  0  0  0  0  0
  -29.8510  -23.3960   20.8950 C   0  0  0  0  0  2  0  0  0  0  0  0
  -29.9220  -24.8230   20.3150 C   0  0  0  0  0  2  0  0  0  0  0  0
  -28.5290  -25.4390   20.1430 C   0  0  0  0  0  2  0  0  0  0  0  0
  -28.6360  -26.8570   20.0240 O   0  0  0  0  0  0  0  0  0  0  0  0
  -24.6850  -31.8050   23.2680 C   0  0  0  0  0  0  0  0  0  0  0  0
  -27.4440  -27.5450   20.0420 C   0  0  0  0  0  0  0  0  0  0  0  0
  -23.5240  -30.4530   21.5530 C   0  0  0  0  0  3  0  0  0  0  0  0
  -25.0220  -29.0010   20.0900 C   0  0  0  0  0  0  0  0  0  0  0  0
  -26.0480  -30.8590   21.4090 C   0  0  0  0  0  2  0  0  0  0  0  0
  -26.1630  -29.5190   20.7130 C   0  0  0  0  0  0  0  0  0  0  0  0
  -27.3790  -28.8010   20.6830 C   0  0  0  0  0  3  0  0  0  0  0  0
  -26.2810  -27.0350   19.4180 C   0  0  0  0  0  3  0  0  0  0  0  0
  -25.0750  -27.7550   19.4430 C   0  0  0  0  0  3  0  0  0  0  0  0
  -23.7620  -29.8340   20.1510 C   0  0  0  0  0  2  0  0  0  0  0  0
  -24.7700  -31.0490   22.1370 N   0  0  0  0  0  0  0  0  0  0  0  0
  -23.5930  -32.0390   23.8010 O   0  0  0  0  0  0  0  0  0  0  0  0
  -22.8780  -29.3820   22.4600 C   0  0  0  0  0  0  0  0  0  0  0  0
  -21.5590  -29.1830   22.3010 N   0  0  0  0  0  0  0  0  0  0  0  0
  -23.5600  -28.7330   23.2580 O   0  0  0  0  0  0  0  0  0  0  0  0
  -21.0720  -29.7600   21.6300 H   0  0  0  0  0  0  0  0  0  0  0  0
  -18.1900  -27.9490   22.7140 C   0  0  0  0  0  0  0  0  0  0  0  0
  -20.7440  -28.2040   23.0200 C   0  0  0  0  0  3  0  0  0  0  0  0
  -20.8600  -26.8030   22.3750 C   0  0  0  0  0  2  0  0  0  0  0  0
  -19.7680  -26.5260   21.3380 C   0  0  0  0  0  2  0  0  0  0  0  0
  -18.3790  -26.6350   21.9740 C   0  0  0  0  0  2  0  0  0  0  0  0
  -19.3020  -28.6930   23.1900 C   0  0  0  0  0  0  0  0  0  0  0  0
  -19.0740  -29.9270   23.8370 C   0  0  0  0  0  3  0  0  0  0  0  0
  -17.7650  -30.4150   24.0150 C   0  0  0  0  0  3  0  0  0  0  0  0
  -16.6680  -29.6650   23.5570 C   0  0  0  0  0  3  0  0  0  0  0  0
  -16.8810  -28.4340   22.9110 C   0  0  0  0  0  3  0  0  0  0  0  0
  -25.9530  -32.4280   23.9310 C   0  0  0  0  0  3  0  0  0  0  0  0
  -25.6400  -33.8260   24.2550 N   0  0  0  0  0  0  0  0  0  0  0  0
  -26.0150  -34.8790   23.5170 C   0  0  0  0  0  0  0  0  0  0  0  0
  -26.7330  -34.7760   22.5180 O   0  0  0  0  0  0  0  0  0  0  0  0
  -25.0120  -33.9810   25.0300 H   0  0  0  0  0  0  0  0  0  0  0  0
  -24.3370  -36.6940   23.0650 C   0  0  0  0  0  1  0  0  0  0  0  0
  -25.5150  -36.2670   23.9560 C   0  0  0  0  0  3  0  0  0  0  0  0
  -27.5960  -37.1160   24.9430 C   0  0  0  0  0  1  0  0  0  0  0  0
  -26.5640  -37.3090   23.9270 N   0  0  0  0  0  0  0  0  0  0  0  0
  -26.1610  -38.2330   24.0580 H   0  0  0  0  0  0  0  0  0  0  0  0
  -26.4270  -31.6490   25.2180 C   0  0  1  0  0  0  0  0  0  0  0  0
  -25.2990  -31.4050   26.2470 C   0  0  0  0  0  1  0  0  0  0  0  0
  -27.0220  -30.2740   24.8360 C   0  0  0  0  0  1  0  0  0  0  0  0
  -27.5550  -32.4390   25.9230 C   0  0  0  0  0  1  0  0  0  0  0  0
  2  3  1  0
  3  1  1  0
  3  5  1  0
  4  2  2  0
  6 19  1  0
  7 12  1  0
  8  9  1  0
  8  7  1  0
 10  9  1  0
 10 23  1  0
 10 11  1  0
 12  6  1  0
 12 11  1  0
 13  6  2  0
 14 18  1  0
 16 14  1  0
 16 19  1  0
 17 15  1  0
 18  2  1  0
 18 15  1  0
 19 17  1  0
 20 21  2  0
 21 40  1  0
 22 21  1  0
 22 25  1  0
 23 24  1  0
 23 20  1  0
 24 22  2  0
 25 26  1  0
 26 27  2  0
 28 31  1  0
 28 27  1  0
 29 28  2  0
 30 29  1  0
 30 25  2  0
 31 32  1  0
 32 37  2  0
 32 33  1  0
 33 34  2  0
 34 35  1  0
 35 39  1  0
 36 35  2  0
 37 36  1  0
 38 37  1  0
 40 41  1  0
 41 44  1  0
 41 43  1  0
 42 40  2  0
 45 46  1  0
 45 20  1  0
 47 45  1  0
 48  1  1  0
 49 48  1  0
 50 49  1  0
 51 50  1  0
 52 54  1  0
 52 51  1  0
 53 64  2  0
 54 59  1  0
 55 63  1  0
 55 65  1  0
 56 62  1  0
 56 58  1  0
 57 63  1  0
 58 57  1  0
 59 58  2  0
 60 61  1  0
 60 54  2  0
 61 56  2  0
 62 55  1  0
 63 53  1  0
 65 67  2  0
 66 65  1  0
 68 66  1  0
 69 78  2  0
 69 74  1  0
 70 66  1  0
 70 74  1  0
 71 70  1  0
 72 73  1  0
 72 71  1  0
 73 69  1  0
 74 75  2  0
 75 76  1  0
 77 76  2  0
 78 77  1  0
 79 53  1  0
 79 80  1  0
 79 89  1  0
 80 83  1  0
 81 85  1  0
 81 80  1  0
 82 81  2  0
 85 84  1  0
 87 85  1  0
 87 88  1  0
 87 86  1  0
 89 92  1  1
 89 90  1  0
 91 89  1  0
M  ISO  4   6 100  19 100  51 101  52 101
M  END
>  <TORSDO>  (43) 
F 21

>  <SCORE>  (43) 
-12.257

>  <name>  (43) 
42

>  <ligand_id>  (43) 
42

>  <original_smiles>  (43) 
[H]c1c([H])c([H])c2c(c1[H])C([H])([H])C([H])([H])C([H])([H])C2([H])N([H])C(=O)C1([H])N(C(=O)C([H])(N([H])C(=O)C([H])(N([H])C([H])([H])[H])C([H])([H])[H])C(C([H])([H])[H])(C([H])([H])[H])C([H])([H])[H])C([H])([H])c2c([H])c(OC([H])([H])C([H])([H])C([H])([H])C([H])([H])C([H])([H])N([H])C(=O)C3([H])C([H])([H])C([H])([H])N(C(=O)N4C([H])([H])C([H])([H])C([H])([H])C([H])(n5nc(-c6c([H])c([H])c(Oc7c([H])c([H])c(F)c([H])c7F)c([H])c6[H])c(C(=O)N([H])[H])c5N([H])[H])C4([H])[H])C([H])([H])C3([H])[H])c([H])c([H])c2C1([H])[H]

>  <smiles>  (43) 
[H]c1c([H])c([H])c2c(c1[H])C([H])([H])C([H])([H])C([H])([H])C2([H])N([H])C(=O)C1([H])N(C(=O)C([H])(N([H])C(=O)C([H])(N([H])C([H])([H])[H])C([H])([H])[H])C(C([H])([H])[H])(C([H])([H])[H])C([H])([H])[H])C([H])([H])c2c([H])c(OC([H])([H])C([H])([H])C([H])([H])C([H])([H])C([H])([H])N([H])C(=O)C3([H])C([H])([H])C([H])([H])N(C(=O)N4C([H])([H])C([H])([H])C([H])([H])C([H])(n5nc(-c6c([H])c([H])c(Oc7c([H])c([H])c(F)c([H])c7F)c([H])c6[H])c(C(=O)N([H])[H])c5N([H])[H])C4([H])[H])C([H])([H])C3([H])[H])c([H])c([H])c2C1([H])[H]

$$$$
43:0:0
     RDKit          3D

 94101  0  0  1  0  0  0  0  0999 V2000
  -29.2030  -23.0100   17.1650 C   0  0  0  0  0  2  0  0  0  0  0  0
  -30.5200  -23.6560   17.3600 N   0  0  0  0  0  4  0  0  0  0  0  0
  -31.1080  -23.3700   16.5930 H   0  0  0  0  0  0  0  0  0  0  0  0
  -30.9600  -23.3270   18.2040 H   0  0  0  0  0  0  0  0  0  0  0  0
  -30.5110  -25.1360   17.3670 C   0  0  0  0  0  2  0  0  0  0  0  0
  -30.1540  -25.7620   18.7360 C   0  0  0  0  0  2  0  0  0  0  0  0
  -28.6490  -25.8890   19.0130 C   0  0  0  0  0  2  0  0  0  0  0  0
  -28.4500  -26.8120   20.0760 O   0  0  0  0  0  0  0  0  0  0  0  0
  -24.6080  -31.8800   23.2260 C   0  0  0  0  0  0  0  0  0  0  0  0
  -27.2390  -27.4640   20.1180 C   0  0  0  0  0  0  0  0  0  0  0  0
  -23.3880  -30.4750   21.5940 C   0  0  0  0  0  3  0  0  0  0  0  0
  -24.8290  -28.9340   20.1690 C   0  0  0  0  0  0  0  0  0  0  0  0
  -25.9090  -30.8390   21.3770 C   0  0  0  0  0  2  0  0  0  0  0  0
  -25.9880  -29.4660   20.7480 C   0  0  0  0  0  0  0  0  0  0  0  0
  -27.1920  -28.7320   20.7300 C   0  0  0  0  0  3  0  0  0  0  0  0
  -26.0550  -26.9240   19.5640 C   0  0  0  0  0  3  0  0  0  0  0  0
  -24.8540  -27.6570   19.5830 C   0  0  0  0  0  3  0  0  0  0  0  0
  -23.5870  -29.7910   20.2160 C   0  0  0  0  0  2  0  0  0  0  0  0
  -24.6540  -31.0790   22.1240 N   0  0  0  0  0  0  0  0  0  0  0  0
  -23.5310  -32.1520   23.7740 O   0  0  0  0  0  0  0  0  0  0  0  0
  -22.7460  -29.4540   22.5600 C   0  0  0  0  0  0  0  0  0  0  0  0
  -21.4220  -29.2700   22.4380 N   0  0  0  0  0  0  0  0  0  0  0  0
  -23.4350  -28.8320   23.3730 O   0  0  0  0  0  0  0  0  0  0  0  0
  -20.9290  -29.8240   21.7510 H   0  0  0  0  0  0  0  0  0  0  0  0
  -18.0530  -28.0690   22.9370 C   0  0  0  0  0  0  0  0  0  0  0  0
  -20.6090  -28.3350   23.2120 C   0  0  0  0  0  3  0  0  0  0  0  0
  -20.7160  -26.9010   22.6450 C   0  0  0  0  0  2  0  0  0  0  0  0
  -19.6160  -26.5690   21.6310 C   0  0  0  0  0  2  0  0  0  0  0  0
  -18.2330  -26.7150   22.2720 C   0  0  0  0  0  2  0  0  0  0  0  0
  -19.1690  -28.8360   23.3650 C   0  0  0  0  0  0  0  0  0  0  0  0
  -18.9470  -30.1040   23.9450 C   0  0  0  0  0  3  0  0  0  0  0  0
  -17.6410  -30.6040   24.1040 C   0  0  0  0  0  3  0  0  0  0  0  0
  -16.5390  -29.8340   23.6940 C   0  0  0  0  0  3  0  0  0  0  0  0
  -16.7450  -28.5680   23.1160 C   0  0  0  0  0  3  0  0  0  0  0  0
  -25.9010  -32.5070   23.8370 C   0  0  0  0  0  3  0  0  0  0  0  0
  -26.4350  -31.7270   25.1000 C   0  0  1  0  0  0  0  0  0  0  0  0
  -25.3570  -31.4800   26.1810 C   0  0  0  0  0  1  0  0  0  0  0  0
  -27.0140  -30.3540   24.6850 C   0  0  0  0  0  1  0  0  0  0  0  0
  -27.5950  -32.5170   25.7500 C   0  0  0  0  0  1  0  0  0  0  0  0
  -25.5930  -33.9030   24.1770 N   0  0  0  0  0  0  0  0  0  0  0  0
  -25.9210  -34.9580   23.4190 C   0  0  0  0  0  0  0  0  0  0  0  0
  -26.5850  -34.8600   22.3830 O   0  0  0  0  0  0  0  0  0  0  0  0
  -25.0030  -34.0530   24.9810 H   0  0  0  0  0  0  0  0  0  0  0  0
  -24.1870  -36.7490   23.0830 C   0  0  0  0  0  1  0  0  0  0  0  0
  -25.4350  -36.3440   23.8850 C   0  0  0  0  0  3  0  0  0  0  0  0
  -27.5770  -37.2240   24.7020 C   0  0  0  0  0  1  0  0  0  0  0  0
  -26.4660  -37.3980   23.7690 N   0  0  0  0  0  0  0  0  0  0  0  0
  -26.0610  -38.3170   23.9270 H   0  0  0  0  0  0  0  0  0  0  0  0
  -29.2820  -21.4750   17.2140 C   0  0  0  0  0  2  0  0  0  0  0  0
  -29.6520  -20.9120   18.5990 C   0  0  0  0  0  2  0  0  0  0  0  0
  -29.5480  -19.3790   18.6350 C   0  0  0  0  0  2  0  0  0  0  0  0
  -29.9980  -18.8060   19.9220 N   0  0  0  0  0  4  0  0  0  0  0  0
  -29.4920  -19.2450   20.6740 H   0  0  0  0  0  0  0  0  0  0  0  0
  -30.9780  -19.0040   20.0440 H   0  0  0  0  0  0  0  0  0  0  0  0
  -29.7920  -17.3460   19.9970 C   0  0  0  0  0  2  0  0  0  0  0  0
  -30.3190  -16.7220   21.3070 C   0  0  0  0  0  2  0  0  0  0  0  0
  -30.6860  -14.3730   20.5870 C   0  0  0  0  0  0  0  0  0  0  0  0
  -30.3530  -12.2740   19.3430 C   0  0  0  0  0  2  0  0  0  0  0  0
  -29.4040  -12.5270   18.1540 C   0  0  0  0  0  2  0  0  0  0  0  0
  -27.9310  -12.4030   18.5870 C   0  0  0  0  0  2  0  0  0  0  0  0
  -27.6140  -13.2140   19.8710 C   0  0  0  0  0  3  0  0  0  0  0  0
  -28.6640  -12.9190   20.9660 C   0  0  0  0  0  2  0  0  0  0  0  0
  -30.0020  -13.2140   20.4160 N   0  0  0  0  0  0  0  0  0  0  0  0
  -31.7470  -14.6400   20.0160 O   0  0  0  0  0  0  0  0  0  0  0  0
  -30.0480  -15.2870   21.3280 N   0  0  0  0  0  0  0  0  0  0  0  0
  -29.2020  -14.9790   21.7850 H   0  0  0  0  0  0  0  0  0  0  0  0
  -25.2140  -13.8440   20.5590 C   0  0  0  0  0  0  0  0  0  0  0  0
  -24.1390  -13.0800   20.9260 C   0  0  0  0  0  0  0  0  0  0  0  0
  -24.5930  -11.7250   20.9020 C   0  0  0  0  0  0  0  0  0  0  0  0
  -26.2550  -12.9550   20.3410 N   0  0  0  0  0  0  0  0  0  0  0  0
  -25.8820  -11.6760   20.5990 N   0  0  0  0  0  0  0  0  0  0  0  0
  -23.8590  -10.4680   21.0930 C   0  0  0  0  0  0  0  0  0  0  0  0
  -24.3030   -9.4870   22.0060 C   0  0  0  0  0  3  0  0  0  0  0  0
  -23.5730   -8.2920   22.1860 C   0  0  0  0  0  3  0  0  0  0  0  0
  -22.3820   -8.0720   21.4540 C   0  0  0  0  0  0  0  0  0  0  0  0
  -21.9560   -9.0420   20.5290 C   0  0  0  0  0  3  0  0  0  0  0  0
  -22.6880  -10.2270   20.3470 C   0  0  0  0  0  3  0  0  0  0  0  0
  -21.6210   -6.9320   21.5460 O   0  0  0  0  0  0  0  0  0  0  0  0
  -21.6110   -6.1630   22.6820 C   0  0  0  0  0  0  0  0  0  0  0  0
  -21.2600   -6.6950   23.9410 C   0  0  0  0  0  3  0  0  0  0  0  0
  -21.1970   -5.8540   25.0700 C   0  0  0  0  0  3  0  0  0  0  0  0
  -21.4730   -4.4790   24.9400 C   0  0  0  0  0  0  0  0  0  0  0  0
  -21.8170   -3.9460   23.6850 C   0  0  0  0  0  3  0  0  0  0  0  0
  -21.8830   -4.7850   22.5600 C   0  0  0  0  0  0  0  0  0  0  0  0
  -22.1940   -4.2620   21.3500 F   0  0  0  0  0  0  0  0  0  0  0  0
  -21.4040   -3.6680   26.0210 F   0  0  0  0  0  0  0  0  0  0  0  0
  -22.7430  -13.5640   21.1960 C   0  0  0  0  0  0  0  0  0  0  0  0
  -22.0140  -12.8750   22.0670 N   0  0  0  0  0  0  0  0  0  0  0  0
  -22.3090  -14.5880   20.6700 O   0  0  0  0  0  0  0  0  0  0  0  0
  -22.3780  -12.0460   22.5130 H   0  0  0  0  0  0  0  0  0  0  0  0
  -21.0770  -13.1810   22.2910 H   0  0  0  0  0  0  0  0  0  0  0  0
  -25.3870  -15.2110   20.3710 N   0  0  0  0  0  0  0  0  0  0  0  0
  -24.6220  -15.8720   20.4630 H   0  0  0  0  0  0  0  0  0  0  0  0
  -26.2370  -15.6350   20.0230 H   0  0  0  0  0  0  0  0  0  0  0  0
  1 49  1  0
  1  2  1  0
  2  5  1  0
  2  4  1  0
  3  2  1  0
  5  6  1  0
  6  7  1  0
  7  8  1  0
  8 10  1  0
  9 20  2  0
 10 15  1  0
 11 19  1  0
 11 21  1  0
 12 18  1  0
 12 14  1  0
 13 19  1  0
 14 13  1  0
 15 14  2  0
 16 17  1  0
 16 10  2  0
 17 12  2  0
 18 11  1  0
 19  9  1  0
 21 23  2  0
 22 21  1  0
 24 22  1  0
 25 34  2  0
 25 30  1  0
 26 22  1  0
 26 30  1  0
 27 26  1  0
 28 29  1  0
 28 27  1  0
 29 25  1  0
 30 31  2  0
 31 32  1  0
 33 32  2  0
 34 33  1  0
 35  9  1  0
 35 40  1  0
 35 36  1  0
 36 39  1  1
 36 37  1  0
 38 36  1  0
 40 43  1  0
 41 45  1  0
 41 40  1  0
 42 41  2  0
 45 44  1  0
 47 45  1  0
 47 48  1  0
 47 46  1  0
 49 50  1  0
 50 51  1  0
 51 52  1  0
 52 55  1  0
 52 54  1  0
 52 53  1  0
 55 56  1  0
 56 65  1  0
 57 65  1  0
 58 63  1  0
 59 60  1  0
 59 58  1  0
 61 60  1  0
 61 70  1  0
 61 62  1  0
 63 57  1  0
 63 62  1  0
 64 57  2  0
 65 66  1  0
 67 68  2  0
 68 87  1  0
 69 68  1  0
 69 72  1  0
 70 67  1  0
 70 71  1  0
 71 69  2  0
 72 73  1  0
 73 74  2  0
 75 78  1  0
 75 74  1  0
 76 75  2  0
 77 76  1  0
 77 72  2  0
 78 79  1  0
 79 80  1  0
 80 81  2  0
 82 81  1  0
 82 86  1  0
 83 82  2  0
 84 79  2  0
 84 83  1  0
 85 84  1  0
 87 88  1  0
 88 91  1  0
 88 90  1  0
 89 87  2  0
 92 93  1  0
 92 67  1  0
 94 92  1  0
M  ISO  4   7 101   8 101  57 100  65 100
M  END
>  <TORSDO>  (44) 
F 26

>  <SCORE>  (44) 
-11.711

>  <name>  (44) 
43

>  <ligand_id>  (44) 
43

>  <original_smiles>  (44) 
[H]c1c([H])c([H])c2c(c1[H])C([H])([H])C([H])([H])C([H])([H])C2([H])N([H])C(=O)C1([H])N(C(=O)C([H])(N([H])C(=O)C([H])(N([H])C([H])([H])[H])C([H])([H])[H])C(C([H])([H])[H])(C([H])([H])[H])C([H])([H])[H])C([H])([H])c2c([H])c(OC([H])([H])C([H])([H])C([H])([H])[N+]([H])([H])C([H])([H])C([H])([H])C([H])([H])C([H])([H])[N+]([H])([H])C([H])([H])C([H])([H])N([H])C(=O)N3C([H])([H])C([H])([H])C([H])([H])C([H])(n4nc(-c5c([H])c([H])c(Oc6c([H])c([H])c(F)c([H])c6F)c([H])c5[H])c(C(=O)N([H])[H])c4N([H])[H])C3([H])[H])c([H])c([H])c2C1([H])[H]

>  <smiles>  (44) 
[H]c1c([H])c([H])c2c(c1[H])C([H])([H])C([H])([H])C([H])([H])C2([H])N([H])C(=O)C1([H])N(C(=O)C([H])(N([H])C(=O)C([H])(N([H])C([H])([H])[H])C([H])([H])[H])C(C([H])([H])[H])(C([H])([H])[H])C([H])([H])[H])C([H])([H])c2c([H])c(OC([H])([H])C([H])([H])C([H])([H])[N+]([H])([H])C([H])([H])C([H])([H])C([H])([H])C([H])([H])[N+]([H])([H])C([H])([H])C([H])([H])N([H])C(=O)N3C([H])([H])C([H])([H])C([H])([H])C([H])(n4nc(-c5c([H])c([H])c(Oc6c([H])c([H])c(F)c([H])c6F)c([H])c5[H])c(C(=O)N([H])[H])c4N([H])[H])C3([H])[H])c([H])c([H])c2C1([H])[H]

$$$$
44:0:0
     RDKit          3D

100108  0  0  1  0  0  0  0  0999 V2000
  -30.7310  -20.9620   22.3630 C   0  0  0  0  0  2  0  0  0  0  0  0
  -31.6920  -22.4220   24.1890 C   0  0  0  0  0  1  0  0  0  0  0  0
  -29.8400  -20.8760   24.7480 C   0  0  0  0  0  1  0  0  0  0  0  0
  -30.3880  -21.8010   23.6370 C   0  0  2  0  0  0  0  0  0  0  0  0
  -29.3320  -22.9160   23.3370 C   0  0  0  0  0  2  0  0  0  0  0  0
  -29.8870  -24.0940   22.6230 N   0  0  0  0  0  4  0  0  0  0  0  0
  -30.4260  -24.6200   23.2930 H   0  0  0  0  0  0  0  0  0  0  0  0
  -30.5260  -23.7750   21.9110 H   0  0  0  0  0  0  0  0  0  0  0  0
  -28.8790  -24.9940   21.9990 C   0  0  0  0  0  2  0  0  0  0  0  0
  -29.4640  -26.3760   21.6210 C   0  0  0  0  0  2  0  0  0  0  0  0
  -28.9230  -26.8450   20.3840 O   0  0  0  0  0  0  0  0  0  0  0  0
  -24.7870  -31.8460   23.3940 C   0  0  0  0  0  0  0  0  0  0  0  0
  -27.7410  -27.5440   20.4260 C   0  0  0  0  0  0  0  0  0  0  0  0
  -23.7180  -30.4300   21.6660 C   0  0  0  0  0  3  0  0  0  0  0  0
  -25.3000  -28.9570   20.3120 C   0  0  0  0  0  0  0  0  0  0  0  0
  -26.2330  -30.8750   21.6130 C   0  0  0  0  0  2  0  0  0  0  0  0
  -26.4000  -29.5120   20.9790 C   0  0  0  0  0  0  0  0  0  0  0  0
  -27.6220  -28.8090   21.0440 C   0  0  0  0  0  3  0  0  0  0  0  0
  -26.6310  -27.0010   19.7470 C   0  0  0  0  0  3  0  0  0  0  0  0
  -25.4080  -27.6960   19.6990 C   0  0  0  0  0  3  0  0  0  0  0  0
  -24.0280  -29.7760   20.2920 C   0  0  0  0  0  2  0  0  0  0  0  0
  -24.9260  -31.0670   22.2850 N   0  0  0  0  0  0  0  0  0  0  0  0
  -23.6690  -32.0760   23.8770 O   0  0  0  0  0  0  0  0  0  0  0  0
  -23.0500  -29.3740   22.5770 C   0  0  0  0  0  0  0  0  0  0  0  0
  -21.7380  -29.1610   22.3840 N   0  0  0  0  0  0  0  0  0  0  0  0
  -23.7100  -28.7500   23.4120 O   0  0  0  0  0  0  0  0  0  0  0  0
  -21.2670  -29.7240   21.6900 H   0  0  0  0  0  0  0  0  0  0  0  0
  -18.3650  -27.9150   22.7240 C   0  0  0  0  0  0  0  0  0  0  0  0
  -20.9080  -28.1890   23.0950 C   0  0  0  0  0  3  0  0  0  0  0  0
  -21.0460  -26.7790   22.4760 C   0  0  0  0  0  2  0  0  0  0  0  0
  -19.9840  -26.4790   21.4140 C   0  0  0  0  0  2  0  0  0  0  0  0
  -18.5790  -26.5880   22.0150 C   0  0  0  0  0  2  0  0  0  0  0  0
  -19.4590  -28.6730   23.2170 C   0  0  0  0  0  0  0  0  0  0  0  0
  -19.2070  -29.9140   23.8390 C   0  0  0  0  0  3  0  0  0  0  0  0
  -17.8930  -30.3980   23.9760 C   0  0  0  0  0  3  0  0  0  0  0  0
  -16.8110  -29.6360   23.5030 C   0  0  0  0  0  3  0  0  0  0  0  0
  -17.0480  -28.3960   22.8820 C   0  0  0  0  0  3  0  0  0  0  0  0
  -26.0180  -32.5040   24.0920 C   0  0  0  0  0  3  0  0  0  0  0  0
  -25.6680  -33.8980   24.3880 N   0  0  0  0  0  0  0  0  0  0  0  0
  -26.0220  -34.9470   23.6340 C   0  0  0  0  0  0  0  0  0  0  0  0
  -26.7480  -34.8430   22.6410 O   0  0  0  0  0  0  0  0  0  0  0  0
  -25.0310  -34.0510   25.1560 H   0  0  0  0  0  0  0  0  0  0  0  0
  -24.2810  -36.6950   23.1550 C   0  0  0  0  0  1  0  0  0  0  0  0
  -25.4800  -36.3300   24.0430 C   0  0  0  0  0  3  0  0  0  0  0  0
  -27.5400  -37.2720   24.9850 C   0  0  0  0  0  1  0  0  0  0  0  0
  -26.4950  -37.4030   23.9740 N   0  0  0  0  0  0  0  0  0  0  0  0
  -26.0610  -38.3160   24.0810 H   0  0  0  0  0  0  0  0  0  0  0  0
  -26.4670  -31.7490   25.4030 C   0  0  1  0  0  0  0  0  0  0  0  0
  -25.3140  -31.4920   26.4000 C   0  0  0  0  0  1  0  0  0  0  0  0
  -27.1060  -30.3860   25.0510 C   0  0  0  0  0  1  0  0  0  0  0  0
  -27.5540  -32.5710   26.1350 C   0  0  0  0  0  1  0  0  0  0  0  0
  -29.6690  -19.9130   21.9240 C   0  0  0  0  0  2  0  0  0  0  0  0
  -28.7770  -17.5420   19.1850 C   0  0  0  0  0  2  0  0  0  0  0  0
  -29.4050  -20.2620   19.5690 C   0  0  0  0  0  2  0  0  0  0  0  0
  -29.6210  -17.6980   17.9100 C   0  0  0  0  0  2  0  0  0  0  0  0
  -30.1160  -20.1120   18.2050 C   0  0  0  0  0  2  0  0  0  0  0  0
  -29.4690  -17.9370   20.5190 C   0  0  0  0  0  3  0  0  0  0  0  0
  -29.9390  -19.3430   20.5920 N   0  0  0  0  0  0  0  0  0  0  0  0
  -29.5290  -19.0600   17.3550 N   0  0  0  0  0  4  0  0  0  0  0  0
  -28.5660  -19.2830   17.1620 H   0  0  0  0  0  0  0  0  0  0  0  0
  -30.0120  -19.0750   16.4710 H   0  0  0  0  0  0  0  0  0  0  0  0
  -30.6360  -16.9800   20.9140 C   0  0  0  0  0  2  0  0  0  0  0  0
  -30.9110  -14.5900   20.1740 C   0  0  0  0  0  0  0  0  0  0  0  0
  -30.5680  -12.4580   18.9800 C   0  0  0  0  0  2  0  0  0  0  0  0
  -29.5910  -12.6820   17.8060 C   0  0  0  0  0  2  0  0  0  0  0  0
  -28.1310  -12.5330   18.2730 C   0  0  0  0  0  2  0  0  0  0  0  0
  -27.8320  -13.3540   19.5550 C   0  0  0  0  0  3  0  0  0  0  0  0
  -28.9150  -13.1140   20.6320 C   0  0  0  0  0  2  0  0  0  0  0  0
  -30.2280  -13.4200   20.0390 N   0  0  0  0  0  0  0  0  0  0  0  0
  -31.9880  -14.8060   19.6140 O   0  0  0  0  0  0  0  0  0  0  0  0
  -30.2680  -15.5560   20.8570 N   0  0  0  0  0  0  0  0  0  0  0  0
  -29.4030  -15.2890   21.3020 H   0  0  0  0  0  0  0  0  0  0  0  0
  -25.4560  -13.9800   20.3270 C   0  0  0  0  0  0  0  0  0  0  0  0
  -24.3940  -13.2130   20.7220 C   0  0  0  0  0  0  0  0  0  0  0  0
  -24.8460  -11.8590   20.6730 C   0  0  0  0  0  0  0  0  0  0  0  0
  -26.4890  -13.0920   20.0640 N   0  0  0  0  0  0  0  0  0  0  0  0
  -26.1270  -11.8120   20.3290 N   0  0  0  0  0  0  0  0  0  0  0  0
  -24.1190  -10.6010   20.8760 C   0  0  0  0  0  0  0  0  0  0  0  0
  -24.5220   -9.6680   21.8570 C   0  0  0  0  0  3  0  0  0  0  0  0
  -23.7970   -8.4710   22.0460 C   0  0  0  0  0  3  0  0  0  0  0  0
  -22.6560   -8.2000   21.2550 C   0  0  0  0  0  0  0  0  0  0  0  0
  -22.2740   -9.1220   20.2640 C   0  0  0  0  0  3  0  0  0  0  0  0
  -22.9990  -10.3090   20.0730 C   0  0  0  0  0  3  0  0  0  0  0  0
  -21.9060   -7.0530   21.3510 O   0  0  0  0  0  0  0  0  0  0  0  0
  -21.7590   -6.3870   22.5410 C   0  0  0  0  0  0  0  0  0  0  0  0
  -21.1920   -7.0050   23.6770 C   0  0  0  0  0  3  0  0  0  0  0  0
  -20.9960   -6.2630   24.8580 C   0  0  0  0  0  3  0  0  0  0  0  0
  -21.3560   -4.9040   24.9040 C   0  0  0  0  0  0  0  0  0  0  0  0
  -21.9150   -4.2840   23.7720 C   0  0  0  0  0  3  0  0  0  0  0  0
  -22.1130   -5.0240   22.5930 C   0  0  0  0  0  0  0  0  0  0  0  0
  -22.6330   -4.4170   21.4990 F   0  0  0  0  0  0  0  0  0  0  0  0
  -21.1600   -4.1880   26.0340 F   0  0  0  0  0  0  0  0  0  0  0  0
  -23.0070  -13.6970   21.0360 C   0  0  0  0  0  0  0  0  0  0  0  0
  -22.2960  -12.9950   21.9120 N   0  0  0  0  0  0  0  0  0  0  0  0
  -22.5640  -14.7320   20.5390 O   0  0  0  0  0  0  0  0  0  0  0  0
  -22.6690  -12.1580   22.3350 H   0  0  0  0  0  0  0  0  0  0  0  0
  -21.3660  -13.3000   22.1620 H   0  0  0  0  0  0  0  0  0  0  0  0
  -25.6230  -15.3500   20.1530 N   0  0  0  0  0  0  0  0  0  0  0  0
  -24.8570  -16.0020   20.2830 H   0  0  0  0  0  0  0  0  0  0  0  0
  -26.4590  -15.7910   19.7990 H   0  0  0  0  0  0  0  0  0  0  0  0
  1  4  1  0
  4  2  1  1
  4  3  1  0
  5  4  1  0
  6  7  1  0
  6  5  1  0
  8  6  1  0
  9  6  1  0
 10  9  1  0
 11 13  1  0
 11 10  1  0
 12 23  2  0
 13 18  1  0
 14 22  1  0
 14 24  1  0
 15 17  1  0
 16 22  1  0
 17 18  2  0
 17 16  1  0
 19 13  2  0
 20 19  1  0
 20 15  2  0
 21 15  1  0
 21 14  1  0
 22 12  1  0
 24 26  2  0
 25 24  1  0
 27 25  1  0
 28 37  2  0
 28 33  1  0
 29 25  1  0
 29 33  1  0
 30 29  1  0
 31 32  1  0
 31 30  1  0
 32 28  1  0
 33 34  2  0
 34 35  1  0
 36 35  2  0
 37 36  1  0
 38 12  1  0
 38 39  1  0
 38 48  1  0
 39 42  1  0
 40 44  1  0
 40 39  1  0
 41 40  2  0
 44 43  1  0
 46 44  1  0
 46 47  1  0
 46 45  1  0
 48 51  1  1
 48 49  1  0
 50 48  1  0
 52  1  1  0
 53 57  1  0
 54 58  1  0
 55 53  1  0
 56 54  1  0
 57 58  1  0
 57 62  1  0
 58 52  1  0
 59 55  1  0
 59 56  1  0
 60 59  1  0
 61 59  1  0
 63 71  1  0
 64 69  1  0
 65 66  1  0
 65 64  1  0
 67 66  1  0
 67 76  1  0
 67 68  1  0
 69 63  1  0
 69 68  1  0
 70 63  2  0
 71 62  1  0
 71 72  1  0
 73 74  2  0
 74 93  1  0
 75 74  1  0
 75 78  1  0
 76 73  1  0
 76 77  1  0
 77 75  2  0
 78 79  1  0
 79 80  2  0
 81 84  1  0
 81 80  1  0
 82 81  2  0
 83 82  1  0
 83 78  2  0
 84 85  1  0
 85 90  2  0
 85 86  1  0
 86 87  2  0
 87 88  1  0
 88 92  1  0
 89 88  2  0
 90 89  1  0
 91 90  1  0
 93 94  1  0
 94 97  1  0
 94 96  1  0
 95 93  2  0
 98 99  1  0
 98 73  1  0
100 98  1  0
M  ISO  4  10 101  11 101  63 100  71 100
M  END
>  <TORSDO>  (45) 
F 24

>  <SCORE>  (45) 
-10.858

>  <name>  (45) 
44

>  <ligand_id>  (45) 
44

>  <original_smiles>  (45) 
[H]c1c([H])c([H])c2c(c1[H])C([H])([H])C([H])([H])C([H])([H])C2([H])N([H])C(=O)C1([H])N(C(=O)C([H])(N([H])C(=O)C([H])(N([H])C([H])([H])[H])C([H])([H])[H])C(C([H])([H])[H])(C([H])([H])[H])C([H])([H])[H])C([H])([H])c2c([H])c(OC([H])([H])C([H])([H])[N+]([H])([H])C([H])([H])C(C([H])([H])[H])(C([H])([H])[H])C([H])([H])C([H])([H])N3C([H])([H])C([H])([H])[N+]([H])([H])C([H])([H])C([H])([H])C3([H])C([H])([H])N([H])C(=O)N3C([H])([H])C([H])([H])C([H])([H])C([H])(n4nc(-c5c([H])c([H])c(Oc6c([H])c([H])c(F)c([H])c6F)c([H])c5[H])c(C(=O)N([H])[H])c4N([H])[H])C3([H])[H])c([H])c([H])c2C1([H])[H]

>  <smiles>  (45) 
[H]c1c([H])c([H])c2c(c1[H])C([H])([H])C([H])([H])C([H])([H])C2([H])N([H])C(=O)C1([H])N(C(=O)C([H])(N([H])C(=O)C([H])(N([H])C([H])([H])[H])C([H])([H])[H])C(C([H])([H])[H])(C([H])([H])[H])C([H])([H])[H])C([H])([H])c2c([H])c(OC([H])([H])C([H])([H])[N+]([H])([H])C([H])([H])C(C([H])([H])[H])(C([H])([H])[H])C([H])([H])C([H])([H])N3C([H])([H])C([H])([H])[N+]([H])([H])C([H])([H])C([H])([H])C3([H])C([H])([H])N([H])C(=O)N3C([H])([H])C([H])([H])C([H])([H])C([H])(n4nc(-c5c([H])c([H])c(Oc6c([H])c([H])c(F)c([H])c6F)c([H])c5[H])c(C(=O)N([H])[H])c4N([H])[H])C3([H])[H])c([H])c([H])c2C1([H])[H]

$$$$
45:0:0
     RDKit          3D

 95103  0  0  1  0  0  0  0  0999 V2000
  -27.5440  -21.0000   20.1050 C   0  0  0  0  0  2  0  0  0  0  0  0
  -29.8980  -20.1500   20.6280 C   0  0  0  0  0  2  0  0  0  0  0  0
  -30.7250  -19.0420   21.3050 C   0  0  0  0  0  2  0  0  0  0  0  0
  -28.0000  -18.5020   20.3750 C   0  0  0  0  0  2  0  0  0  0  0  0
  -28.3820  -19.9290   20.8420 C   0  0  0  0  0  3  0  0  0  0  0  0
  -30.2810  -17.6400   20.8390 C   0  0  0  0  0  3  0  0  0  0  0  0
  -28.8220  -17.4700   21.0520 N   0  0  0  0  0  4  0  0  0  0  0  0
  -28.5410  -16.5690   20.7020 H   0  0  0  0  0  0  0  0  0  0  0  0
  -28.6200  -17.4830   22.0400 H   0  0  0  0  0  0  0  0  0  0  0  0
  -31.0930  -16.5140   21.5200 C   0  0  0  0  0  2  0  0  0  0  0  0
  -31.0340  -14.3810   20.2230 C   0  0  0  0  0  0  0  0  0  0  0  0
  -30.6320  -12.2870   18.9760 C   0  0  0  0  0  2  0  0  0  0  0  0
  -29.6710  -12.5150   17.7940 C   0  0  0  0  0  2  0  0  0  0  0  0
  -28.2010  -12.4150   18.2460 C   0  0  0  0  0  2  0  0  0  0  0  0
  -27.9110  -13.2680   19.5070 C   0  0  0  0  0  3  0  0  0  0  0  0
  -28.9660  -12.9890   20.6010 C   0  0  0  0  0  2  0  0  0  0  0  0
  -30.3050  -13.2510   20.0380 N   0  0  0  0  0  0  0  0  0  0  0  0
  -32.0360  -14.6680   19.5600 O   0  0  0  0  0  0  0  0  0  0  0  0
  -30.5760  -15.1840   21.1920 N   0  0  0  0  0  0  0  0  0  0  0  0
  -29.8300  -14.8120   21.7620 H   0  0  0  0  0  0  0  0  0  0  0  0
  -25.5380  -13.9630   20.2330 C   0  0  0  0  0  0  0  0  0  0  0  0
  -24.4550  -13.2290   20.6340 C   0  0  0  0  0  0  0  0  0  0  0  0
  -24.8720  -11.8630   20.6100 C   0  0  0  0  0  0  0  0  0  0  0  0
  -26.5540  -13.0470   20.0020 N   0  0  0  0  0  0  0  0  0  0  0  0
  -26.1540  -11.7810   20.2820 N   0  0  0  0  0  0  0  0  0  0  0  0
  -24.1140  -10.6230   20.8260 C   0  0  0  0  0  0  0  0  0  0  0  0
  -24.5090   -9.6750   21.7940 C   0  0  0  0  0  3  0  0  0  0  0  0
  -23.7540   -8.4990   21.9940 C   0  0  0  0  0  3  0  0  0  0  0  0
  -22.5920   -8.2630   21.2250 C   0  0  0  0  0  0  0  0  0  0  0  0
  -22.2140   -9.2000   20.2470 C   0  0  0  0  0  3  0  0  0  0  0  0
  -22.9690  -10.3680   20.0470 C   0  0  0  0  0  3  0  0  0  0  0  0
  -21.8120   -7.1370   21.3320 O   0  0  0  0  0  0  0  0  0  0  0  0
  -21.6900   -6.4550   22.5160 C   0  0  0  0  0  0  0  0  0  0  0  0
  -21.2270   -7.0820   23.6940 C   0  0  0  0  0  3  0  0  0  0  0  0
  -21.0540   -6.3280   24.8720 C   0  0  0  0  0  3  0  0  0  0  0  0
  -21.3310   -4.9490   24.8730 C   0  0  0  0  0  0  0  0  0  0  0  0
  -21.7850   -4.3200   23.6980 C   0  0  0  0  0  3  0  0  0  0  0  0
  -21.9610   -5.0720   22.5230 C   0  0  0  0  0  0  0  0  0  0  0  0
  -22.3800   -4.4580   21.3900 F   0  0  0  0  0  0  0  0  0  0  0  0
  -21.1560   -4.2220   25.9990 F   0  0  0  0  0  0  0  0  0  0  0  0
  -23.0750  -13.7500   20.9200 C   0  0  0  0  0  0  0  0  0  0  0  0
  -22.3410  -13.0900   21.8070 N   0  0  0  0  0  0  0  0  0  0  0  0
  -22.6600  -14.7790   20.3860 O   0  0  0  0  0  0  0  0  0  0  0  0
  -22.6900  -12.2580   22.2570 H   0  0  0  0  0  0  0  0  0  0  0  0
  -21.4130  -13.4200   22.0400 H   0  0  0  0  0  0  0  0  0  0  0  0
  -25.7400  -15.3250   20.0150 N   0  0  0  0  0  0  0  0  0  0  0  0
  -24.9020  -15.8960   19.9730 H   0  0  0  0  0  0  0  0  0  0  0  0
  -26.4030  -15.5820   19.2980 H   0  0  0  0  0  0  0  0  0  0  0  0
  -27.4870  -22.2900   20.8310 N   0  0  0  0  0  4  0  0  0  0  0  0
  -28.4000  -22.5310   21.1810 H   0  0  0  0  0  0  0  0  0  0  0  0
  -26.8800  -22.1750   21.6270 H   0  0  0  0  0  0  0  0  0  0  0  0
  -26.9730  -23.4170   20.0220 C   0  0  0  0  0  2  0  0  0  0  0  0
  -28.0930  -24.3900   19.5930 C   0  0  0  0  0  2  0  0  0  0  0  0
  -28.3930  -25.4820   20.6440 C   0  0  0  0  0  2  0  0  0  0  0  0
  -28.4170  -26.7940   20.0890 O   0  0  0  0  0  0  0  0  0  0  0  0
  -24.5630  -31.8740   23.2220 C   0  0  0  0  0  0  0  0  0  0  0  0
  -27.2250  -27.4780   20.1190 C   0  0  0  0  0  0  0  0  0  0  0  0
  -23.3590  -30.4750   21.5750 C   0  0  0  0  0  3  0  0  0  0  0  0
  -24.8150  -28.9500   20.1470 C   0  0  0  0  0  0  0  0  0  0  0  0
  -25.8790  -30.8510   21.3730 C   0  0  0  0  0  2  0  0  0  0  0  0
  -25.9710  -29.4860   20.7300 C   0  0  0  0  0  0  0  0  0  0  0  0
  -27.1790  -28.7570   20.7130 C   0  0  0  0  0  3  0  0  0  0  0  0
  -26.0500  -26.9490   19.5400 C   0  0  0  0  0  3  0  0  0  0  0  0
  -24.8490  -27.6790   19.5530 C   0  0  0  0  0  3  0  0  0  0  0  0
  -23.5660  -29.7980   20.1950 C   0  0  0  0  0  2  0  0  0  0  0  0
  -24.6180  -31.0810   22.1150 N   0  0  0  0  0  0  0  0  0  0  0  0
  -23.4820  -32.1390   23.7670 O   0  0  0  0  0  0  0  0  0  0  0  0
  -22.7130  -29.4500   22.5310 C   0  0  0  0  0  0  0  0  0  0  0  0
  -21.3880  -29.2640   22.4040 N   0  0  0  0  0  0  0  0  0  0  0  0
  -23.3990  -28.8220   23.3430 O   0  0  0  0  0  0  0  0  0  0  0  0
  -20.8910  -29.8220   21.7270 H   0  0  0  0  0  0  0  0  0  0  0  0
  -18.0230  -28.0520   22.8780 C   0  0  0  0  0  0  0  0  0  0  0  0
  -20.5740  -28.3220   23.1700 C   0  0  0  0  0  3  0  0  0  0  0  0
  -20.6890  -26.8940   22.5930 C   0  0  0  0  0  2  0  0  0  0  0  0
  -19.6030  -26.5740   21.5620 C   0  0  0  0  0  2  0  0  0  0  0  0
  -18.2100  -26.7130   22.1840 C   0  0  0  0  0  2  0  0  0  0  0  0
  -19.1310  -28.8170   23.3220 C   0  0  0  0  0  0  0  0  0  0  0  0
  -18.9010  -30.0800   23.9140 C   0  0  0  0  0  3  0  0  0  0  0  0
  -17.5940  -30.5750   24.0690 C   0  0  0  0  0  3  0  0  0  0  0  0
  -16.4970  -29.8040   23.6450 C   0  0  0  0  0  3  0  0  0  0  0  0
  -16.7120  -28.5460   23.0540 C   0  0  0  0  0  3  0  0  0  0  0  0
  -25.8510  -32.5050   23.8410 C   0  0  0  0  0  3  0  0  0  0  0  0
  -25.5410  -33.8970   24.1850 N   0  0  0  0  0  0  0  0  0  0  0  0
  -25.8670  -34.9560   23.4320 C   0  0  0  0  0  0  0  0  0  0  0  0
  -26.5360  -34.8610   22.3980 O   0  0  0  0  0  0  0  0  0  0  0  0
  -24.9490  -34.0440   24.9900 H   0  0  0  0  0  0  0  0  0  0  0  0
  -24.1320  -36.7430   23.0870 C   0  0  0  0  0  1  0  0  0  0  0  0
  -25.3720  -36.3380   23.9000 C   0  0  0  0  0  3  0  0  0  0  0  0
  -27.5010  -37.2220   24.7440 C   0  0  0  0  0  1  0  0  0  0  0  0
  -26.4000  -37.3970   23.8020 N   0  0  0  0  0  0  0  0  0  0  0  0
  -25.9890  -38.3120   23.9560 H   0  0  0  0  0  0  0  0  0  0  0  0
  -26.3800  -31.7230   25.1030 C   0  0  1  0  0  0  0  0  0  0  0  0
  -25.2930  -31.4680   26.1750 C   0  0  0  0  0  1  0  0  0  0  0  0
  -26.9670  -30.3520   24.6900 C   0  0  0  0  0  1  0  0  0  0  0  0
  -27.5320  -32.5140   25.7660 C   0  0  0  0  0  1  0  0  0  0  0  0
  1 49  1  0
  2  5  1  0
  2  3  1  0
  4  5  1  0
  4  7  1  0
  5  1  1  0
  6  7  1  0
  6  3  1  0
  6 10  1  0
  7  9  1  0
  8  7  1  0
 11 19  1  0
 12 17  1  0
 13 14  1  0
 13 12  1  0
 15 14  1  0
 15 24  1  0
 15 16  1  0
 17 11  1  0
 17 16  1  0
 18 11  2  0
 19 10  1  0
 19 20  1  0
 21 22  2  0
 22 41  1  0
 23 22  1  0
 23 26  1  0
 24 21  1  0
 24 25  1  0
 25 23  2  0
 26 27  1  0
 27 28  2  0
 29 32  1  0
 29 28  1  0
 30 29  2  0
 31 30  1  0
 31 26  2  0
 32 33  1  0
 33 38  2  0
 33 34  1  0
 34 35  2  0
 35 36  1  0
 36 40  1  0
 37 36  2  0
 38 37  1  0
 39 38  1  0
 41 42  1  0
 42 45  1  0
 42 44  1  0
 43 41  2  0
 46 21  1  0
 47 46  1  0
 48 46  1  0
 49 50  1  0
 49 51  1  0
 52 49  1  0
 53 52  1  0
 53 54  1  0
 55 57  1  0
 55 54  1  0
 56 67  2  0
 57 62  1  0
 58 66  1  0
 58 68  1  0
 59 65  1  0
 59 61  1  0
 60 66  1  0
 61 60  1  0
 62 61  2  0
 63 64  1  0
 63 57  2  0
 64 59  2  0
 65 58  1  0
 66 56  1  0
 68 70  2  0
 69 68  1  0
 71 69  1  0
 72 81  2  0
 72 77  1  0
 73 69  1  0
 73 77  1  0
 74 73  1  0
 75 76  1  0
 75 74  1  0
 76 72  1  0
 77 78  2  0
 78 79  1  0
 80 79  2  0
 81 80  1  0
 82 56  1  0
 82 83  1  0
 82 92  1  0
 83 86  1  0
 84 88  1  0
 84 83  1  0
 85 84  2  0
 88 87  1  0
 90 88  1  0
 90 91  1  0
 90 89  1  0
 92 95  1  1
 92 93  1  0
 94 92  1  0
M  ISO  4  11 100  19 100  54 101  55 101
M  END
>  <TORSDO>  (46) 
F 22

>  <SCORE>  (46) 
-13.073

>  <name>  (46) 
45

>  <ligand_id>  (46) 
45

>  <original_smiles>  (46) 
[H]c1c([H])c([H])c2c(c1[H])C([H])([H])C([H])([H])C([H])([H])C2([H])N([H])C(=O)C1([H])N(C(=O)C([H])(N([H])C(=O)C([H])(N([H])C([H])([H])[H])C([H])([H])[H])C(C([H])([H])[H])(C([H])([H])[H])C([H])([H])[H])C([H])([H])c2c([H])c(OC([H])([H])C([H])([H])C([H])([H])[N+]([H])([H])C([H])([H])C3([H])C([H])([H])C([H])([H])C([H])(C([H])([H])N([H])C(=O)N4C([H])([H])C([H])([H])C([H])([H])C([H])(n5nc(-c6c([H])c([H])c(Oc7c([H])c([H])c(F)c([H])c7F)c([H])c6[H])c(C(=O)N([H])[H])c5N([H])[H])C4([H])[H])[N+]([H])([H])C3([H])[H])c([H])c([H])c2C1([H])[H]

>  <smiles>  (46) 
[H]c1c([H])c([H])c2c(c1[H])C([H])([H])C([H])([H])C([H])([H])C2([H])N([H])C(=O)C1([H])N(C(=O)C([H])(N([H])C(=O)C([H])(N([H])C([H])([H])[H])C([H])([H])[H])C(C([H])([H])[H])(C([H])([H])[H])C([H])([H])[H])C([H])([H])c2c([H])c(OC([H])([H])C([H])([H])C([H])([H])[N+]([H])([H])C([H])([H])C3([H])C([H])([H])C([H])([H])C([H])(C([H])([H])N([H])C(=O)N4C([H])([H])C([H])([H])C([H])([H])C([H])(n5nc(-c6c([H])c([H])c(Oc7c([H])c([H])c(F)c([H])c7F)c([H])c6[H])c(C(=O)N([H])[H])c5N([H])[H])C4([H])[H])[N+]([H])([H])C3([H])[H])c([H])c([H])c2C1([H])[H]

$$$$
46:0:0
     RDKit          3D

 97105  0  0  1  0  0  0  0  0999 V2000
  -30.3170  -21.6310   17.4910 C   0  0  0  0  0  2  0  0  0  0  0  0
  -31.1820  -22.3970   18.4930 C   0  0  0  0  0  2  0  0  0  0  0  0
  -29.9200  -20.3520   18.2320 C   0  0  0  0  0  3  0  0  0  0  0  0
  -30.3890  -20.6240   19.6950 C   0  0  0  0  0  3  0  0  0  0  0  0
  -30.6080  -22.0890   19.8090 N   0  0  0  0  0  0  0  0  0  0  0  0
  -30.5620  -19.1800   17.5920 N   0  0  0  0  0  4  0  0  0  0  0  0
  -31.5660  -19.2250   17.6310 H   0  0  0  0  0  0  0  0  0  0  0  0
  -30.3060  -19.1510   16.6200 H   0  0  0  0  0  0  0  0  0  0  0  0
  -30.2550  -18.3130   17.9930 H   0  0  0  0  0  0  0  0  0  0  0  0
  -29.5670  -19.9520   20.8450 C   0  0  0  0  0  2  0  0  0  0  0  0
  -30.2950  -18.8510   21.5260 N   0  0  0  0  0  4  0  0  0  0  0  0
  -29.9480  -18.8220   22.4740 H   0  0  0  0  0  0  0  0  0  0  0  0
  -31.2760  -19.0780   21.5830 H   0  0  0  0  0  0  0  0  0  0  0  0
  -30.0890  -17.5000   20.9560 C   0  0  0  0  0  2  0  0  0  0  0  0
  -30.7340  -16.3850   21.8070 C   0  0  0  0  0  2  0  0  0  0  0  0
  -30.8140  -14.3100   20.3720 C   0  0  0  0  0  0  0  0  0  0  0  0
  -30.4120  -12.2940   18.9990 C   0  0  0  0  0  2  0  0  0  0  0  0
  -29.4230  -12.5940   17.8540 C   0  0  0  0  0  2  0  0  0  0  0  0
  -27.9610  -12.4730   18.3290 C   0  0  0  0  0  2  0  0  0  0  0  0
  -27.7010  -13.2400   19.6520 C   0  0  0  0  0  3  0  0  0  0  0  0
  -28.7730  -12.8680   20.6960 C   0  0  0  0  0  2  0  0  0  0  0  0
  -30.0990  -13.1810   20.1270 N   0  0  0  0  0  0  0  0  0  0  0  0
  -31.8210  -14.6400   19.7420 O   0  0  0  0  0  0  0  0  0  0  0  0
  -30.3090  -15.0580   21.3640 N   0  0  0  0  0  0  0  0  0  0  0  0
  -29.5050  -14.6640   21.8320 H   0  0  0  0  0  0  0  0  0  0  0  0
  -25.3240  -13.8950   20.4030 C   0  0  0  0  0  0  0  0  0  0  0  0
  -24.2520  -13.1420   20.7990 C   0  0  0  0  0  0  0  0  0  0  0  0
  -24.6910  -11.7830   20.7620 C   0  0  0  0  0  0  0  0  0  0  0  0
  -26.3500  -12.9960   20.1540 N   0  0  0  0  0  0  0  0  0  0  0  0
  -25.9720  -11.7220   20.4210 N   0  0  0  0  0  0  0  0  0  0  0  0
  -23.9520  -10.5330   20.9760 C   0  0  0  0  0  0  0  0  0  0  0  0
  -24.3960   -9.5610   21.9000 C   0  0  0  0  0  3  0  0  0  0  0  0
  -23.6580   -8.3740   22.1000 C   0  0  0  0  0  3  0  0  0  0  0  0
  -22.4640   -8.1510   21.3740 C   0  0  0  0  0  0  0  0  0  0  0  0
  -22.0380   -9.1110   20.4390 C   0  0  0  0  0  3  0  0  0  0  0  0
  -22.7760  -10.2900   20.2380 C   0  0  0  0  0  3  0  0  0  0  0  0
  -21.6990   -7.0150   21.4820 O   0  0  0  0  0  0  0  0  0  0  0  0
  -21.6730   -6.2720   22.6350 C   0  0  0  0  0  0  0  0  0  0  0  0
  -21.2940   -6.8330   23.8740 C   0  0  0  0  0  3  0  0  0  0  0  0
  -21.2120   -6.0170   25.0210 C   0  0  0  0  0  3  0  0  0  0  0  0
  -21.5010   -4.6420   24.9290 C   0  0  0  0  0  0  0  0  0  0  0  0
  -21.8730   -4.0820   23.6950 C   0  0  0  0  0  3  0  0  0  0  0  0
  -21.9550   -4.8940   22.5500 C   0  0  0  0  0  0  0  0  0  0  0  0
  -22.2950   -4.3450   21.3590 F   0  0  0  0  0  0  0  0  0  0  0  0
  -21.4170   -3.8560   26.0280 F   0  0  0  0  0  0  0  0  0  0  0  0
  -22.8680  -13.6420   21.1020 C   0  0  0  0  0  0  0  0  0  0  0  0
  -22.1530  -12.9590   21.9890 N   0  0  0  0  0  0  0  0  0  0  0  0
  -22.4320  -14.6700   20.5860 O   0  0  0  0  0  0  0  0  0  0  0  0
  -22.5240  -12.1300   22.4280 H   0  0  0  0  0  0  0  0  0  0  0  0
  -21.2240  -13.2730   22.2320 H   0  0  0  0  0  0  0  0  0  0  0  0
  -25.5090  -15.2620   20.2180 N   0  0  0  0  0  0  0  0  0  0  0  0
  -24.7540  -15.9280   20.3440 H   0  0  0  0  0  0  0  0  0  0  0  0
  -26.3550  -15.6820   19.8570 H   0  0  0  0  0  0  0  0  0  0  0  0
  -29.3870  -22.9020   20.0320 C   0  0  0  0  0  2  0  0  0  0  0  0
  -29.6380  -24.4250   20.2390 C   0  0  0  0  0  2  0  0  0  0  0  0
  -28.3180  -25.2130   20.0940 C   0  0  0  0  0  2  0  0  0  0  0  0
  -28.4590  -26.6410   20.2110 O   0  0  0  0  0  0  0  0  0  0  0  0
  -24.6170  -31.8430   23.2070 C   0  0  0  0  0  0  0  0  0  0  0  0
  -27.2870  -27.3780   20.1710 C   0  0  0  0  0  0  0  0  0  0  0  0
  -23.4250  -30.4430   21.5550 C   0  0  0  0  0  3  0  0  0  0  0  0
  -24.8940  -28.9040   20.1470 C   0  0  0  0  0  0  0  0  0  0  0  0
  -25.9580  -30.7950   21.3820 C   0  0  0  0  0  2  0  0  0  0  0  0
  -26.0500  -29.4240   20.7440 C   0  0  0  0  0  0  0  0  0  0  0  0
  -27.2490  -28.6720   20.7460 C   0  0  0  0  0  3  0  0  0  0  0  0
  -26.1040  -26.8800   19.5690 C   0  0  0  0  0  3  0  0  0  0  0  0
  -24.9190  -27.6320   19.5550 C   0  0  0  0  0  3  0  0  0  0  0  0
  -23.6480  -29.7600   20.1800 C   0  0  0  0  0  2  0  0  0  0  0  0
  -24.6860  -31.0430   22.1040 N   0  0  0  0  0  0  0  0  0  0  0  0
  -23.5300  -32.1150   23.7360 O   0  0  0  0  0  0  0  0  0  0  0  0
  -22.7660  -29.4190   22.5100 C   0  0  0  0  0  0  0  0  0  0  0  0
  -21.4380  -29.2500   22.3870 N   0  0  0  0  0  0  0  0  0  0  0  0
  -23.4470  -28.7830   23.3170 O   0  0  0  0  0  0  0  0  0  0  0  0
  -20.9480  -29.8180   21.7120 H   0  0  0  0  0  0  0  0  0  0  0  0
  -18.0510  -28.1050   22.8990 C   0  0  0  0  0  0  0  0  0  0  0  0
  -20.6140  -28.3130   23.1540 C   0  0  0  0  0  3  0  0  0  0  0  0
  -20.6880  -26.8860   22.5610 C   0  0  0  0  0  2  0  0  0  0  0  0
  -19.5740  -26.5970   21.5510 C   0  0  0  0  0  2  0  0  0  0  0  0
  -18.1990  -26.7620   22.2040 C   0  0  0  0  0  2  0  0  0  0  0  0
  -19.1860  -28.8410   23.3290 C   0  0  0  0  0  0  0  0  0  0  0  0
  -18.9950  -30.1050   23.9320 C   0  0  0  0  0  3  0  0  0  0  0  0
  -17.7010  -30.6260   24.1160 C   0  0  0  0  0  3  0  0  0  0  0  0
  -16.5800  -29.8850   23.7030 C   0  0  0  0  0  3  0  0  0  0  0  0
  -16.7570  -28.6280   23.0980 C   0  0  0  0  0  3  0  0  0  0  0  0
  -25.8980  -32.4750   23.8370 C   0  0  0  0  0  3  0  0  0  0  0  0
  -25.5840  -33.8700   24.1750 N   0  0  0  0  0  0  0  0  0  0  0  0
  -25.9120  -34.9250   23.4180 C   0  0  0  0  0  0  0  0  0  0  0  0
  -26.5830  -34.8270   22.3870 O   0  0  0  0  0  0  0  0  0  0  0  0
  -24.9990  -34.0210   24.9820 H   0  0  0  0  0  0  0  0  0  0  0  0
  -24.1780  -36.7060   23.0730 C   0  0  0  0  0  1  0  0  0  0  0  0
  -25.4210  -36.3080   23.8830 C   0  0  0  0  0  3  0  0  0  0  0  0
  -27.5500  -37.1990   24.7150 C   0  0  0  0  0  1  0  0  0  0  0  0
  -26.4470  -37.3650   23.7730 N   0  0  0  0  0  0  0  0  0  0  0  0
  -26.0360  -38.2830   23.9250 H   0  0  0  0  0  0  0  0  0  0  0  0
  -26.4120  -31.6970   25.1080 C   0  0  1  0  0  0  0  0  0  0  0  0
  -25.3180  -31.4510   26.1720 C   0  0  0  0  0  1  0  0  0  0  0  0
  -27.0010  -30.3260   24.7040 C   0  0  0  0  0  1  0  0  0  0  0  0
  -27.5580  -32.4880   25.7780 C   0  0  0  0  0  1  0  0  0  0  0  0
  1  3  1  0
  1  2  1  0
  2  5  1  0
  3  6  1  0
  3  4  1  0
  4  5  1  0
  4 10  1  0
  5 54  1  0
  6  7  1  0
  6  9  1  0
  8  6  1  0
 10 11  1  0
 11 13  1  0
 11 12  1  0
 14 11  1  0
 14 15  1  0
 16 24  1  0
 17 22  1  0
 18 19  1  0
 18 17  1  0
 20 19  1  0
 20 29  1  0
 20 21  1  0
 22 16  1  0
 22 21  1  0
 23 16  2  0
 24 15  1  0
 24 25  1  0
 26 27  2  0
 27 46  1  0
 28 27  1  0
 28 31  1  0
 29 26  1  0
 29 30  1  0
 30 28  2  0
 31 32  1  0
 32 33  2  0
 34 37  1  0
 34 33  1  0
 35 34  2  0
 36 35  1  0
 36 31  2  0
 37 38  1  0
 38 39  1  0
 39 40  2  0
 41 40  1  0
 41 45  1  0
 42 41  2  0
 43 38  2  0
 43 42  1  0
 44 43  1  0
 46 47  1  0
 47 50  1  0
 47 49  1  0
 48 46  2  0
 51 52  1  0
 51 26  1  0
 53 51  1  0
 54 55  1  0
 56 57  1  0
 56 55  1  0
 58 69  2  0
 59 57  1  0
 59 64  1  0
 60 68  1  0
 60 70  1  0
 61 67  1  0
 61 63  1  0
 62 68  1  0
 63 64  2  0
 63 62  1  0
 65 59  2  0
 66 65  1  0
 66 61  2  0
 67 60  1  0
 68 58  1  0
 70 72  2  0
 71 70  1  0
 73 71  1  0
 74 83  2  0
 74 79  1  0
 75 71  1  0
 75 79  1  0
 76 75  1  0
 77 78  1  0
 77 76  1  0
 78 74  1  0
 79 80  2  0
 80 81  1  0
 82 81  2  0
 83 82  1  0
 84 58  1  0
 84 85  1  0
 84 94  1  0
 85 88  1  0
 86 90  1  0
 86 85  1  0
 87 86  2  0
 90 89  1  0
 92 90  1  0
 92 93  1  0
 92 91  1  0
 94 97  1  1
 94 95  1  0
 96 94  1  0
M  ISO  4  16 100  24 100  56 101  57 101
M  END
>  <TORSDO>  (47) 
F 24

>  <SCORE>  (47) 
-12.830

>  <name>  (47) 
46

>  <ligand_id>  (47) 
46

>  <original_smiles>  (47) 
[H]c1c([H])c([H])c2c(c1[H])C([H])([H])C([H])([H])C([H])([H])C2([H])N([H])C(=O)C1([H])N(C(=O)C([H])(N([H])C(=O)C([H])(N([H])C([H])([H])[H])C([H])([H])[H])C(C([H])([H])[H])(C([H])([H])[H])C([H])([H])[H])C([H])([H])c2c([H])c(OC([H])([H])C([H])([H])C([H])([H])N3C([H])([H])C([H])([H])C([H])([N+]([H])([H])[H])C3([H])C([H])([H])[N+]([H])([H])C([H])([H])C([H])([H])N([H])C(=O)N3C([H])([H])C([H])([H])C([H])([H])C([H])(n4nc(-c5c([H])c([H])c(Oc6c([H])c([H])c(F)c([H])c6F)c([H])c5[H])c(C(=O)N([H])[H])c4N([H])[H])C3([H])[H])c([H])c([H])c2C1([H])[H]

>  <smiles>  (47) 
[H]c1c([H])c([H])c2c(c1[H])C([H])([H])C([H])([H])C([H])([H])C2([H])N([H])C(=O)C1([H])N(C(=O)C([H])(N([H])C(=O)C([H])(N([H])C([H])([H])[H])C([H])([H])[H])C(C([H])([H])[H])(C([H])([H])[H])C([H])([H])[H])C([H])([H])c2c([H])c(OC([H])([H])C([H])([H])C([H])([H])N3C([H])([H])C([H])([H])C([H])([N+]([H])([H])[H])C3([H])C([H])([H])[N+]([H])([H])C([H])([H])C([H])([H])N([H])C(=O)N3C([H])([H])C([H])([H])C([H])([H])C([H])(n4nc(-c5c([H])c([H])c(Oc6c([H])c([H])c(F)c([H])c6F)c([H])c5[H])c(C(=O)N([H])[H])c4N([H])[H])C3([H])[H])c([H])c([H])c2C1([H])[H]

$$$$
47:0:0
     RDKit          3D

 94102  0  0  1  0  0  0  0  0999 V2000
  -29.9840  -22.4780   19.7190 C   0  0  0  0  0  2  0  0  0  0  0  0
  -29.0980  -23.6260   19.3980 N   0  0  0  0  0  4  0  0  0  0  0  0
  -28.6880  -23.4450   18.4940 H   0  0  0  0  0  0  0  0  0  0  0  0
  -28.3490  -23.6610   20.0730 H   0  0  0  0  0  0  0  0  0  0  0  0
  -29.7940  -24.9400   19.3410 C   0  0  0  0  0  2  0  0  0  0  0  0
  -28.8650  -26.1190   18.9780 C   0  0  0  0  0  2  0  0  0  0  0  0
  -28.4000  -26.7510   20.1730 O   0  0  0  0  0  0  0  0  0  0  0  0
  -24.5520  -31.8690   23.2430 C   0  0  0  0  0  0  0  0  0  0  0  0
  -27.2230  -27.4650   20.1260 C   0  0  0  0  0  0  0  0  0  0  0  0
  -23.3560  -30.4810   21.5790 C   0  0  0  0  0  3  0  0  0  0  0  0
  -24.8180  -28.9550   20.1510 C   0  0  0  0  0  0  0  0  0  0  0  0
  -25.8830  -30.8400   21.4040 C   0  0  0  0  0  2  0  0  0  0  0  0
  -25.9690  -29.4750   20.7540 C   0  0  0  0  0  0  0  0  0  0  0  0
  -27.1700  -28.7310   20.7500 C   0  0  0  0  0  3  0  0  0  0  0  0
  -26.0480  -26.9460   19.5360 C   0  0  0  0  0  3  0  0  0  0  0  0
  -24.8500  -27.6860   19.5450 C   0  0  0  0  0  3  0  0  0  0  0  0
  -23.5750  -29.8130   20.1950 C   0  0  0  0  0  2  0  0  0  0  0  0
  -24.6150  -31.0780   22.1340 N   0  0  0  0  0  0  0  0  0  0  0  0
  -23.4690  -32.1370   23.7780 O   0  0  0  0  0  0  0  0  0  0  0  0
  -22.7000  -29.4520   22.5270 C   0  0  0  0  0  0  0  0  0  0  0  0
  -21.3740  -29.2820   22.4010 N   0  0  0  0  0  0  0  0  0  0  0  0
  -23.3800  -28.8100   23.3340 O   0  0  0  0  0  0  0  0  0  0  0  0
  -20.8880  -29.8500   21.7220 H   0  0  0  0  0  0  0  0  0  0  0  0
  -17.9870  -28.1260   22.8990 C   0  0  0  0  0  0  0  0  0  0  0  0
  -20.5500  -28.3420   23.1610 C   0  0  0  0  0  3  0  0  0  0  0  0
  -20.6290  -26.9210   22.5570 C   0  0  0  0  0  2  0  0  0  0  0  0
  -19.5160  -26.6320   21.5460 C   0  0  0  0  0  2  0  0  0  0  0  0
  -18.1390  -26.7870   22.1980 C   0  0  0  0  0  2  0  0  0  0  0  0
  -19.1200  -28.8640   23.3370 C   0  0  0  0  0  0  0  0  0  0  0  0
  -18.9230  -30.1190   23.9520 C   0  0  0  0  0  3  0  0  0  0  0  0
  -17.6270  -30.6370   24.1350 C   0  0  0  0  0  3  0  0  0  0  0  0
  -16.5090  -29.8970   23.7160 C   0  0  0  0  0  3  0  0  0  0  0  0
  -16.6900  -28.6440   23.1010 C   0  0  0  0  0  3  0  0  0  0  0  0
  -25.8360  -32.4940   23.8740 C   0  0  0  0  0  3  0  0  0  0  0  0
  -26.3460  -31.7130   25.1470 C   0  0  1  0  0  0  0  0  0  0  0  0
  -25.2470  -31.4660   26.2080 C   0  0  0  0  0  1  0  0  0  0  0  0
  -26.9310  -30.3390   24.7460 C   0  0  0  0  0  1  0  0  0  0  0  0
  -27.4920  -32.5020   25.8220 C   0  0  0  0  0  1  0  0  0  0  0  0
  -25.5270  -33.8900   24.2120 N   0  0  0  0  0  0  0  0  0  0  0  0
  -25.8730  -34.9470   23.4650 C   0  0  0  0  0  0  0  0  0  0  0  0
  -26.5550  -34.8490   22.4410 O   0  0  0  0  0  0  0  0  0  0  0  0
  -24.9250  -34.0400   25.0080 H   0  0  0  0  0  0  0  0  0  0  0  0
  -24.1600  -36.7500   23.0900 C   0  0  0  0  0  1  0  0  0  0  0  0
  -25.3820  -36.3330   23.9250 C   0  0  0  0  0  3  0  0  0  0  0  0
  -27.5020  -37.1980   24.8120 C   0  0  0  0  0  1  0  0  0  0  0  0
  -26.4220  -37.3820   23.8460 N   0  0  0  0  0  0  0  0  0  0  0  0
  -26.0180  -38.3020   23.9930 H   0  0  0  0  0  0  0  0  0  0  0  0
  -29.3940  -21.3530   17.4970 C   0  0  0  0  0  1  0  0  0  0  0  0
  -29.5640  -21.1570   19.0170 C   0  0  0  0  0  3  0  0  0  0  0  0
  -28.3240  -20.4510   19.6320 C   0  0  0  0  0  2  0  0  0  0  0  0
  -28.5830  -19.5020   20.8350 C   0  0  0  0  0  2  0  0  0  0  0  0
  -30.9000  -14.3630   20.0300 C   0  0  0  0  0  0  0  0  0  0  0  0
  -30.4800  -12.2170   18.9170 C   0  0  0  0  0  2  0  0  0  0  0  0
  -29.4690  -12.4360   17.7740 C   0  0  0  0  0  2  0  0  0  0  0  0
  -28.0220  -12.3260   18.2930 C   0  0  0  0  0  2  0  0  0  0  0  0
  -27.7710  -13.1640   19.5780 C   0  0  0  0  0  3  0  0  0  0  0  0
  -28.8970  -12.9510   20.6180 C   0  0  0  0  0  2  0  0  0  0  0  0
  -30.1830  -13.2130   19.9540 N   0  0  0  0  0  0  0  0  0  0  0  0
  -32.0460  -14.4750   19.5870 O   0  0  0  0  0  0  0  0  0  0  0  0
  -29.9190  -16.3190   19.1160 C   0  0  0  0  0  2  0  0  0  0  0  0
  -30.6130  -16.2890   21.4470 C   0  0  0  0  0  2  0  0  0  0  0  0
  -28.9330  -17.4640   19.4020 C   0  0  0  0  0  2  0  0  0  0  0  0
  -29.6300  -17.4450   21.7410 C   0  0  0  0  0  2  0  0  0  0  0  0
  -30.1850  -15.4770   20.2970 N   0  0  0  0  0  0  0  0  0  0  0  0
  -29.4070  -18.2920   20.5390 N   0  0  2  0  0  4  0  0  0  0  0  0
  -30.3170  -18.6370   20.2770 H   0  0  0  0  0  0  0  0  0  0  0  0
  -25.4330  -13.7860   20.4540 C   0  0  0  0  0  0  0  0  0  0  0  0
  -24.3790  -13.0180   20.8720 C   0  0  0  0  0  0  0  0  0  0  0  0
  -24.8180  -11.6610   20.7820 C   0  0  0  0  0  0  0  0  0  0  0  0
  -26.4490  -12.8960   20.1410 N   0  0  0  0  0  0  0  0  0  0  0  0
  -26.0850  -11.6140   20.3950 N   0  0  0  0  0  0  0  0  0  0  0  0
  -24.0890  -10.4030   20.9890 C   0  0  0  0  0  0  0  0  0  0  0  0
  -24.5310   -9.4360   21.9200 C   0  0  0  0  0  3  0  0  0  0  0  0
  -23.8020   -8.2430   22.1130 C   0  0  0  0  0  3  0  0  0  0  0  0
  -22.6180   -8.0070   21.3760 C   0  0  0  0  0  0  0  0  0  0  0  0
  -22.1960   -8.9610   20.4340 C   0  0  0  0  0  3  0  0  0  0  0  0
  -22.9250  -10.1460   20.2380 C   0  0  0  0  0  3  0  0  0  0  0  0
  -21.8580   -6.8660   21.4780 O   0  0  0  0  0  0  0  0  0  0  0  0
  -21.7750   -6.1590   22.6510 C   0  0  0  0  0  0  0  0  0  0  0  0
  -21.3040   -6.7470   23.8450 C   0  0  0  0  0  3  0  0  0  0  0  0
  -21.1750   -5.9650   25.0100 C   0  0  0  0  0  3  0  0  0  0  0  0
  -21.5020   -4.5960   24.9800 C   0  0  0  0  0  0  0  0  0  0  0  0
  -21.9640   -4.0080   23.7900 C   0  0  0  0  0  3  0  0  0  0  0  0
  -22.0970   -4.7870   22.6280 C   0  0  0  0  0  0  0  0  0  0  0  0
  -22.5220   -4.2110   21.4780 F   0  0  0  0  0  0  0  0  0  0  0  0
  -21.3690   -3.8430   26.0970 F   0  0  0  0  0  0  0  0  0  0  0  0
  -23.0090  -13.5050   21.2420 C   0  0  0  0  0  0  0  0  0  0  0  0
  -22.3320  -12.8070   22.1500 N   0  0  0  0  0  0  0  0  0  0  0  0
  -22.5480  -14.5400   20.7630 O   0  0  0  0  0  0  0  0  0  0  0  0
  -22.7190  -11.9680   22.5560 H   0  0  0  0  0  0  0  0  0  0  0  0
  -21.4150  -13.1140   22.4410 H   0  0  0  0  0  0  0  0  0  0  0  0
  -25.6110  -15.1550   20.2910 N   0  0  0  0  0  0  0  0  0  0  0  0
  -24.8600  -15.8240   20.4200 H   0  0  0  0  0  0  0  0  0  0  0  0
  -26.4380  -15.5590   19.8750 H   0  0  0  0  0  0  0  0  0  0  0  0
  2  1  1  0
  2  4  1  0
  3  2  1  0
  5  2  1  0
  6  5  1  0
  6  7  1  0
  8 19  2  0
  9  7  1  0
  9 14  1  0
 10 18  1  0
 10 20  1  0
 11 17  1  0
 11 13  1  0
 12 18  1  0
 13 12  1  0
 14 13  2  0
 15 16  1  0
 15  9  2  0
 16 11  2  0
 17 10  1  0
 18  8  1  0
 20 22  2  0
 21 20  1  0
 23 21  1  0
 24 33  2  0
 24 29  1  0
 25 21  1  0
 25 29  1  0
 26 25  1  0
 27 28  1  0
 27 26  1  0
 28 24  1  0
 29 30  2  0
 30 31  1  0
 32 31  2  0
 33 32  1  0
 34  8  1  0
 34 39  1  0
 34 35  1  0
 35 38  1  1
 35 36  1  0
 37 35  1  0
 39 42  1  0
 40 44  1  0
 40 39  1  0
 41 40  2  0
 44 43  1  0
 46 44  1  0
 46 47  1  0
 46 45  1  0
 49 48  1  0
 49 50  1  0
 49  1  1  0
 50 51  1  0
 52 64  1  0
 53 58  1  0
 54 55  1  0
 54 53  1  0
 56 55  1  0
 56 70  1  0
 56 57  1  0
 58 52  1  0
 58 57  1  0
 59 52  2  0
 60 62  1  0
 60 64  1  0
 61 63  1  0
 62 65  1  0
 64 61  1  0
 65 51  1  0
 65 63  1  0
 65 66  1  6
 67 68  2  0
 68 87  1  0
 69 68  1  0
 69 72  1  0
 70 71  1  0
 70 67  1  0
 71 69  2  0
 72 73  1  0
 73 74  2  0
 75 78  1  0
 75 74  1  0
 76 75  2  0
 77 76  1  0
 77 72  2  0
 78 79  1  0
 79 80  1  0
 80 81  2  0
 82 81  1  0
 82 86  1  0
 83 82  2  0
 84 79  2  0
 84 83  1  0
 85 84  1  0
 87 88  1  0
 88 91  1  0
 88 90  1  0
 89 87  2  0
 92 93  1  0
 92 67  1  0
 94 92  1  0
M  ISO  4   6 101   7 101  52 100  64 100
M  END
>  <TORSDO>  (48) 
F 22

>  <SCORE>  (48) 
-12.704

>  <name>  (48) 
47

>  <ligand_id>  (48) 
47

>  <original_smiles>  (48) 
[H]c1c([H])c([H])c2c(c1[H])C([H])([H])C([H])([H])C([H])([H])C2([H])N([H])C(=O)C1([H])N(C(=O)C([H])(N([H])C(=O)C([H])(N([H])C([H])([H])[H])C([H])([H])[H])C(C([H])([H])[H])(C([H])([H])[H])C([H])([H])[H])C([H])([H])c2c([H])c(OC([H])([H])C([H])([H])[N+]([H])([H])C([H])([H])C([H])(C([H])([H])[H])C([H])([H])C([H])([H])[N+]3([H])C([H])([H])C([H])([H])N(C(=O)N4C([H])([H])C([H])([H])C([H])([H])C([H])(n5nc(-c6c([H])c([H])c(Oc7c([H])c([H])c(F)c([H])c7F)c([H])c6[H])c(C(=O)N([H])[H])c5N([H])[H])C4([H])[H])C([H])([H])C3([H])[H])c([H])c([H])c2C1([H])[H]

>  <smiles>  (48) 
[H]c1c([H])c([H])c2c(c1[H])C([H])([H])C([H])([H])C([H])([H])C2([H])N([H])C(=O)C1([H])N(C(=O)C([H])(N([H])C(=O)C([H])(N([H])C([H])([H])[H])C([H])([H])[H])C(C([H])([H])[H])(C([H])([H])[H])C([H])([H])[H])C([H])([H])c2c([H])c(OC([H])([H])C([H])([H])[N+]([H])([H])C([H])([H])C([H])(C([H])([H])[H])C([H])([H])C([H])([H])[N+]3([H])C([H])([H])C([H])([H])N(C(=O)N4C([H])([H])C([H])([H])C([H])([H])C([H])(n5nc(-c6c([H])c([H])c(Oc7c([H])c([H])c(F)c([H])c7F)c([H])c6[H])c(C(=O)N([H])[H])c5N([H])[H])C4([H])[H])C([H])([H])C3([H])[H])c([H])c([H])c2C1([H])[H]

$$$$
48:0:0
     RDKit          3D

 95 94  0  0  1  0  0  0  0  0999 V2000
  -23.7620  -27.1690   20.8920 C   0  0  0  0  0  2  0  0  0  0  0  0
  -22.5820  -28.3930   20.9250 N   0  0  0  0  0  2  0  0  0  0  0  0
  -23.3510  -26.6950   19.8130 O   0  0  0  0  0  1  0  0  0  0  0  0
  -22.1290  -28.4850   20.0270 H   0  0  0  0  0  0  0  0  0  0  0  0
  -25.3680  -25.9740   22.3250 C   0  0  0  0  0 15  0  0  0  0  0  0
  -27.6200  -23.1150   21.4910 C   0  0  0  0  0  3  0  0  0  0  0  0
  -28.2620  -21.5910   21.2290 C   0  0  0  0  0  3  0  0  0  0  0  0
  -25.9480  -22.2930   22.1600 C   0  0  0  0  0  3  0  0  0  0  0  0
  -26.2890  -23.8660   22.0180 C   0  0  0  0  0  3  0  0  0  0  0  0
  -27.8890  -20.0250   21.3570 C   0  0  0  0  0  3  0  0  0  0  0  0
  -26.5590  -20.7590   21.8930 C   0  0  0  0  0  0  0  0  0  0  0  0
  -25.6330  -19.8330   22.2400 F   0  0  0  0  0  0  0  0  0  0  0  0
  -29.5190  -16.5790   20.7210 C   0  0  0  0  0  0  0  0  0  0  0  0
  -30.2050  -13.8940   19.7320 C   0  0  0  0  0  2  0  0  0  0  0  0
  -29.5610  -13.0400   18.5440 C   0  0  0  0  0  2  0  0  0  0  0  0
  -28.2310  -12.4040   18.9430 C   0  0  0  0  0  2  0  0  0  0  0  0
  -27.5240  -13.3980   19.8730 C   0  0  0  0  0  3  0  0  0  0  0  0
  -28.3670  -13.9950   21.0410 C   0  0  0  0  0  2  0  0  0  0  0  0
  -29.3020  -15.0230   20.4740 N   0  0  0  0  0  0  0  0  0  0  0  0
  -30.7810  -16.4840   20.5100 O   0  0  0  0  0  0  0  0  0  0  0  0
  -28.5830  -18.0990   21.0400 N   0  0  0  0  0  2  0  0  0  0  0  0
  -29.5120  -18.4740   20.9090 H   0  0  0  0  0  0  0  0  0  0  0  0
  -25.1820  -13.8350   20.5830 C   0  0  0  0  0  0  0  0  0  0  0  0
  -24.1380  -13.0370   20.9290 C   0  0  0  0  0  0  0  0  0  0  0  0
  -24.6250  -11.6930   20.8740 C   0  0  0  0  0  0  0  0  0  0  0  0
  -26.2280  -12.9800   20.3300 N   0  0  0  0  0  0  0  0  0  0  0  0
  -25.9200  -11.6780   20.5640 N   0  0  0  0  0  0  0  0  0  0  0  0
  -23.9060  -10.4250   21.0380 C   0  0  0  0  0  0  0  0  0  0  0  0
  -24.3630   -9.4190   21.9170 C   0  0  0  0  0  3  0  0  0  0  0  0
  -23.6300   -8.2220   22.0750 C   0  0  0  0  0  3  0  0  0  0  0  0
  -22.4280   -8.0260   21.3540 C   0  0  0  0  0  0  0  0  0  0  0  0
  -21.9910   -9.0220   20.4630 C   0  0  0  0  0  3  0  0  0  0  0  0
  -22.7240  -10.2090   20.3030 C   0  0  0  0  0  3  0  0  0  0  0  0
  -21.6630   -6.8860   21.4240 O   0  0  0  0  0  0  0  0  0  0  0  0
  -21.6850   -6.0730   22.5280 C   0  0  0  0  0  0  0  0  0  0  0  0
  -21.4010   -6.5640   23.8220 C   0  0  0  0  0  3  0  0  0  0  0  0
  -21.3660   -5.6790   24.9180 C   0  0  0  0  0  3  0  0  0  0  0  0
  -21.6040   -4.3050   24.7230 C   0  0  0  0  0  0  0  0  0  0  0  0
  -21.8820   -3.8140   23.4350 C   0  0  0  0  0  3  0  0  0  0  0  0
  -21.9190   -4.6960   22.3410 C   0  0  0  0  0  0  0  0  0  0  0  0
  -22.1660   -4.2150   21.0980 F   0  0  0  0  0  0  0  0  0  0  0  0
  -21.5630   -3.4540   25.7740 F   0  0  0  0  0  0  0  0  0  0  0  0
  -22.7430  -13.5060   21.1960 C   0  0  0  0  0  0  0  0  0  0  0  0
  -22.0160  -12.8040   22.0540 N   0  0  0  0  0  0  0  0  0  0  0  0
  -22.3110  -14.5370   20.6810 O   0  0  0  0  0  0  0  0  0  0  0  0
  -22.3850  -11.9740   22.4930 H   0  0  0  0  0  0  0  0  0  0  0  0
  -21.0770  -13.1020   22.2780 H   0  0  0  0  0  0  0  0  0  0  0  0
  -25.3330  -15.2140   20.4370 N   0  0  0  0  0  0  0  0  0  0  0  0
  -24.5630  -15.8610   20.5650 H   0  0  0  0  0  0  0  0  0  0  0  0
  -26.1850  -15.6670   20.1360 H   0  0  0  0  0  0  0  0  0  0  0  0
  -21.5620  -29.3550   22.5140 C   0  0  0  0  0 15  0  0  0  0  0  0
  -21.4700  -27.5510   24.3950 C   0  0  0  0  0 15  0  0  0  0  0  0
  -22.5700  -25.6440   23.4310 C   0  0  0  0  0 15  0  0  0  0  0  0
  -23.5570  -24.8010   21.5580 C   0  0  0  0  0 15  0  0  0  0  0  0
  -25.2620  -25.3180   20.2790 O   0  0  0  0  0  1  0  0  0  0  0  0
  -24.8760  -31.9130   23.2160 C   0  0  0  0  0  0  0  0  0  0  0  0
  -26.2450  -26.6180   20.0120 C   0  0  0  0  0  0  0  0  0  0  0  0
  -23.9800  -30.3190   21.8050 C   0  0  0  0  0  3  0  0  0  0  0  0
  -25.2150  -29.2680   19.7680 C   0  0  0  0  0  0  0  0  0  0  0  0
  -26.3710  -30.4910   21.5780 C   0  0  0  0  0  2  0  0  0  0  0  0
  -26.2140  -29.1750   20.6980 C   0  0  0  0  0  0  0  0  0  0  0  0
  -26.7910  -27.8320   20.7850 C   0  0  0  0  0  3  0  0  0  0  0  0
  -25.8960  -27.0950   18.7690 C   0  0  0  0  0  3  0  0  0  0  0  0
  -25.1700  -28.3160   18.7200 C   0  0  0  0  0  3  0  0  0  0  0  0
  -24.1380  -30.2530   20.1690 C   0  0  0  0  0  2  0  0  0  0  0  0
  -25.1040  -31.0430   22.1940 N   0  0  0  0  0  0  0  0  0  0  0  0
  -23.7400  -32.1920   23.6630 O   0  0  0  0  0  0  0  0  0  0  0  0
  -23.9830  -29.0590   22.9910 C   0  0  0  0  0  0  0  0  0  0  0  0
  -23.1420  -27.8900   23.0600 N   0  0  0  0  0  2  0  0  0  0  0  0
  -24.4010  -29.1710   24.0810 O   0  0  0  0  0  0  0  0  0  0  0  0
  -23.3680  -27.3630   23.8870 H   0  0  0  0  0  0  0  0  0  0  0  0
  -18.0570  -27.7970   22.6230 C   0  0  0  0  0  0  0  0  0  0  0  0
  -20.9440  -27.2530   22.2630 C   0  0  0  0  0  2  0  0  0  0  0  0
  -20.3540  -25.9280   22.1010 C   0  0  0  0  0  2  0  0  0  0  0  0
  -19.1120  -25.9980   21.2310 C   0  0  0  0  0  2  0  0  0  0  0  0
  -17.8910  -26.4840   21.9790 C   0  0  0  0  0  2  0  0  0  0  0  0
  -19.3870  -28.1920   22.9220 C   0  0  0  0  0  0  0  0  0  0  0  0
  -19.2170  -29.4380   23.7530 C   0  0  0  0  0  3  0  0  0  0  0  0
  -18.0370  -30.2290   23.9680 C   0  0  0  0  0  3  0  0  0  0  0  0
  -16.8020  -29.7470   23.5380 C   0  0  0  0  0  3  0  0  0  0  0  0
  -16.8370  -28.4910   22.9230 C   0  0  0  0  0  3  0  0  0  0  0  0
  -26.0850  -32.5280   23.8950 C   0  0  0  0  0  3  0  0  0  0  0  0
  -25.6990  -33.8920   24.2610 N   0  0  0  0  0  0  0  0  0  0  0  0
  -25.9320  -34.9680   23.5050 C   0  0  0  0  0  0  0  0  0  0  0  0
  -26.5550  -34.9130   22.4420 O   0  0  0  0  0  0  0  0  0  0  0  0
  -25.1420  -33.9940   25.0960 H   0  0  0  0  0  0  0  0  0  0  0  0
  -24.1530  -36.7330   23.2540 C   0  0  0  0  0  1  0  0  0  0  0  0
  -25.4170  -36.3210   24.0250 C   0  0  0  0  0  3  0  0  0  0  0  0
  -27.5600  -37.1930   24.8450 C   0  0  0  0  0  1  0  0  0  0  0  0
  -26.4280  -37.3960   23.9440 N   0  0  0  0  0  0  0  0  0  0  0  0
  -26.0100  -38.2980   24.1600 H   0  0  0  0  0  0  0  0  0  0  0  0
  -26.5400  -31.7050   25.1550 C   0  0  1  0  0  0  0  0  0  0  0  0
  -25.4160  -31.4420   26.1890 C   0  0  0  0  0  1  0  0  0  0  0  0
  -27.2180  -30.3600   24.7910 C   0  0  0  0  0  1  0  0  0  0  0  0
  -27.6450  -32.5070   25.8650 C   0  0  0  0  0  1  0  0  0  0  0  0
  1  2  1  0
  3  1  1  0
  4  2  1  0
  6  9  1  0
  7 10  1  0
  7  6  2  0
  9  8  2  0
 10 11  2  0
 11  8  1  0
 11 12  1  0
 13 21  1  0
 14 19  1  0
 15 16  1  0
 15 14  1  0
 17 16  1  0
 17 26  1  0
 17 18  1  0
 19 13  1  0
 19 18  1  0
 20 13  2  0
 22 21  1  0
 23 24  2  0
 24 43  1  0
 25 24  1  0
 25 28  1  0
 26 27  1  0
 26 23  1  0
 27 25  2  0
 28 29  1  0
 29 30  2  0
 31 34  1  0
 31 30  1  0
 32 31  2  0
 33 32  1  0
 33 28  2  0
 34 35  1  0
 35 36  1  0
 36 37  2  0
 38 37  1  0
 38 42  1  0
 39 38  2  0
 40 35  2  0
 40 39  1  0
 41 40  1  0
 43 44  1  0
 44 47  1  0
 44 46  1  0
 45 43  2  0
 48 49  1  0
 48 23  1  0
 50 48  1  0
 56 67  2  0
 57 55  1  0
 57 62  1  0
 58 66  1  0
 58 68  1  0
 59 65  1  0
 59 61  1  0
 60 66  1  0
 61 62  2  0
 61 60  1  0
 63 57  2  0
 64 63  1  0
 64 59  2  0
 65 58  1  0
 66 56  1  0
 68 69  1  0
 68 70  2  0
 69 71  1  0
 72 77  2  0
 72 81  1  0
 73 77  1  0
 74 73  1  0
 75 76  1  0
 75 74  1  0
 76 72  1  0
 77 78  1  0
 78 79  2  0
 80 79  1  0
 81 80  2  0
 82 56  1  0
 82 83  1  0
 82 92  1  0
 83 86  1  0
 84 88  1  0
 84 83  1  0
 85 84  2  0
 88 87  1  0
 90 88  1  0
 90 91  1  0
 90 89  1  0
 92 95  1  1
 92 93  1  0
 94 92  1  0
M  ISO  4  13 100  21 100  54 101  55 101
M  END
>  <TORSDO>  (49) 
F 22

>  <SCORE>  (49) 
1.614

>  <name>  (49) 
48

>  <ligand_id>  (49) 
48

>  <original_smiles>  (49) 
[H]c1c([H])c([H])c2c(c1[H])C([H])([H])C([H])([H])C([H])([H])C2([H])N([H])C(=O)C1([H])N(C(=O)C([H])(N([H])C(=O)C([H])(N([H])C([H])([H])[H])C([H])([H])[H])C(C([H])([H])[H])(C([H])([H])[H])C([H])([H])[H])C([H])([H])c2c([H])c(OC([H])([H])C([H])([H])C([H])([H])C([H])([H])N([H])C(=O)C([H])([H])c3c([H])c([H])c(N([H])C(=O)N4C([H])([H])C([H])([H])C([H])([H])C([H])(n5nc(-c6c([H])c([H])c(Oc7c([H])c([H])c(F)c([H])c7F)c([H])c6[H])c(C(=O)N([H])[H])c5N([H])[H])C4([H])[H])c(F)c3[H])c([H])c([H])c2C1([H])[H]

>  <smiles>  (49) 
[H]c1c([H])c([H])c2c(c1[H])C([H])([H])C([H])([H])C([H])([H])C2([H])N([H])C(=O)C1([H])N(C(=O)C([H])(N([H])C(=O)C([H])(N([H])C([H])([H])[H])C([H])([H])[H])C(C([H])([H])[H])(C([H])([H])[H])C([H])([H])[H])C([H])([H])c2c([H])c(OC([H])([H])C([H])([H])C([H])([H])C([H])([H])N([H])C(=O)C([H])([H])c3c([H])c([H])c(N([H])C(=O)N4C([H])([H])C([H])([H])C([H])([H])C([H])(n5nc(-c6c([H])c([H])c(Oc7c([H])c([H])c(F)c([H])c7F)c([H])c6[H])c(C(=O)N([H])[H])c5N([H])[H])C4([H])[H])c(F)c3[H])c([H])c([H])c2C1([H])[H]

$$$$
49:0:0
     RDKit          3D

 95103  0  0  1  0  0  0  0  0999 V2000
  -29.3850  -22.3820   22.4830 C   0  0  0  0  0  2  0  0  0  0  0  0
  -31.9100  -19.8840   24.0970 C   0  0  0  0  0  2  0  0  0  0  0  0
  -31.2460  -21.2030   23.6910 C   0  0  0  0  0  2  0  0  0  0  0  0
  -32.1110  -18.9970   22.8600 C   0  0  0  0  0  2  0  0  0  0  0  0
  -30.1410  -19.9930   21.7620 C   0  0  0  0  0  2  0  0  0  0  0  0
  -29.9170  -20.9910   22.9310 C   0  0  0  0  0  3  0  0  0  0  0  0
  -30.7990  -18.7380   22.2180 N   0  0  1  0  0  4  0  0  0  0  0  0
  -30.2080  -18.3710   22.9520 H   0  0  0  0  0  0  0  0  0  0  0  0
  -30.7990  -17.6600   21.1920 C   0  0  0  0  0  2  0  0  0  0  0  0
  -31.3700  -16.3390   21.7510 C   0  0  0  0  0  2  0  0  0  0  0  0
  -31.1350  -14.5060   20.0180 C   0  0  0  0  0  0  0  0  0  0  0  0
  -30.7530  -12.3720   18.8370 C   0  0  0  0  0  2  0  0  0  0  0  0
  -29.7530  -12.4960   17.6750 C   0  0  0  0  0  2  0  0  0  0  0  0
  -28.2980  -12.3700   18.1730 C   0  0  0  0  0  2  0  0  0  0  0  0
  -28.0100  -13.2880   19.3910 C   0  0  0  0  0  3  0  0  0  0  0  0
  -29.0960  -13.1000   20.4670 C   0  0  0  0  0  2  0  0  0  0  0  0
  -30.4140  -13.3700   19.8530 N   0  0  0  0  0  0  0  0  0  0  0  0
  -32.0760  -14.8510   19.2930 O   0  0  0  0  0  0  0  0  0  0  0  0
  -30.7900  -15.1630   21.1250 N   0  0  0  0  0  0  0  0  0  0  0  0
  -30.0390  -14.7220   21.6370 H   0  0  0  0  0  0  0  0  0  0  0  0
  -25.6680  -13.9780   20.2160 C   0  0  0  0  0  0  0  0  0  0  0  0
  -24.5940  -13.2410   20.6400 C   0  0  0  0  0  0  0  0  0  0  0  0
  -25.0080  -11.8750   20.5790 C   0  0  0  0  0  0  0  0  0  0  0  0
  -26.6710  -13.0620   19.9320 N   0  0  0  0  0  0  0  0  0  0  0  0
  -26.2780  -11.7920   20.2060 N   0  0  0  0  0  0  0  0  0  0  0  0
  -24.2510  -10.6360   20.7980 C   0  0  0  0  0  0  0  0  0  0  0  0
  -24.6300   -9.7100   21.7960 C   0  0  0  0  0  3  0  0  0  0  0  0
  -23.8780   -8.5340   22.0020 C   0  0  0  0  0  3  0  0  0  0  0  0
  -22.7340   -8.2760   21.2090 C   0  0  0  0  0  0  0  0  0  0  0  0
  -22.3770   -9.1890   20.2000 C   0  0  0  0  0  3  0  0  0  0  0  0
  -23.1280  -10.3570   19.9930 C   0  0  0  0  0  3  0  0  0  0  0  0
  -21.9590   -7.1470   21.3180 O   0  0  0  0  0  0  0  0  0  0  0  0
  -21.7760   -6.5110   22.5200 C   0  0  0  0  0  0  0  0  0  0  0  0
  -21.2220   -7.1740   23.6360 C   0  0  0  0  0  3  0  0  0  0  0  0
  -20.9890   -6.4660   24.8320 C   0  0  0  0  0  3  0  0  0  0  0  0
  -21.2970   -5.0950   24.9110 C   0  0  0  0  0  0  0  0  0  0  0  0
  -21.8420   -4.4310   23.7970 C   0  0  0  0  0  3  0  0  0  0  0  0
  -22.0780   -5.1370   22.6050 C   0  0  0  0  0  0  0  0  0  0  0  0
  -22.5840   -4.4870   21.5290 F   0  0  0  0  0  0  0  0  0  0  0  0
  -21.0650   -4.4110   26.0560 F   0  0  0  0  0  0  0  0  0  0  0  0
  -23.2290  -13.7620   20.9850 C   0  0  0  0  0  0  0  0  0  0  0  0
  -22.5320  -13.1020   21.9030 N   0  0  0  0  0  0  0  0  0  0  0  0
  -22.7890  -14.7900   20.4720 O   0  0  0  0  0  0  0  0  0  0  0  0
  -22.9000  -12.2730   22.3430 H   0  0  0  0  0  0  0  0  0  0  0  0
  -21.6160  -13.4320   22.1670 H   0  0  0  0  0  0  0  0  0  0  0  0
  -25.8730  -15.3420   20.0320 N   0  0  0  0  0  0  0  0  0  0  0  0
  -25.1350  -16.0250   20.1540 H   0  0  0  0  0  0  0  0  0  0  0  0
  -26.7250  -15.7410   19.6580 H   0  0  0  0  0  0  0  0  0  0  0  0
  -28.0760  -22.3750   21.7830 N   0  0  0  0  0  4  0  0  0  0  0  0
  -27.4070  -21.9000   22.3740 H   0  0  0  0  0  0  0  0  0  0  0  0
  -28.1290  -21.8700   20.9150 H   0  0  0  0  0  0  0  0  0  0  0  0
  -27.5330  -23.7340   21.5200 C   0  0  0  0  0  2  0  0  0  0  0  0
  -28.3030  -24.5360   20.4300 C   0  0  0  0  0  2  0  0  0  0  0  0
  -28.4320  -26.0410   20.7510 C   0  0  0  0  0  2  0  0  0  0  0  0
  -28.2150  -26.8610   19.5970 O   0  0  0  0  0  0  0  0  0  0  0  0
  -24.4930  -31.7220   23.2080 C   0  0  0  0  0  0  0  0  0  0  0  0
  -27.0670  -27.6080   19.6800 C   0  0  0  0  0  0  0  0  0  0  0  0
  -23.2430  -30.4550   21.4880 C   0  0  0  0  0  3  0  0  0  0  0  0
  -24.6640  -29.0610   19.8890 C   0  0  0  0  0  0  0  0  0  0  0  0
  -25.7560  -30.8640   21.2370 C   0  0  0  0  0  2  0  0  0  0  0  0
  -25.8350  -29.5550   20.4840 C   0  0  0  0  0  0  0  0  0  0  0  0
  -27.0440  -28.8360   20.3770 C   0  0  0  0  0  3  0  0  0  0  0  0
  -25.8900  -27.1210   19.0820 C   0  0  0  0  0  3  0  0  0  0  0  0
  -24.6840  -27.8430   19.1900 C   0  0  0  0  0  3  0  0  0  0  0  0
  -23.4100  -29.8940   20.0480 C   0  0  0  0  0  2  0  0  0  0  0  0
  -24.5190  -31.0210   22.0380 N   0  0  0  0  0  0  0  0  0  0  0  0
  -23.4280  -31.9410   23.8010 O   0  0  0  0  0  0  0  0  0  0  0  0
  -22.6290  -29.3500   22.3770 C   0  0  0  0  0  0  0  0  0  0  0  0
  -21.3110  -29.1350   22.2390 N   0  0  0  0  0  0  0  0  0  0  0  0
  -23.3350  -28.6910   23.1460 O   0  0  0  0  0  0  0  0  0  0  0  0
  -20.8000  -29.7260   21.5980 H   0  0  0  0  0  0  0  0  0  0  0  0
  -17.9850  -27.7740   22.6110 C   0  0  0  0  0  0  0  0  0  0  0  0
  -20.5250  -28.1190   22.9410 C   0  0  0  0  0  3  0  0  0  0  0  0
  -20.6960  -26.7300   22.2830 C   0  0  0  0  0  2  0  0  0  0  0  0
  -19.6200  -26.4240   21.2350 C   0  0  0  0  0  2  0  0  0  0  0  0
  -18.2260  -26.4730   21.8660 C   0  0  0  0  0  2  0  0  0  0  0  0
  -19.0640  -28.5550   23.1030 C   0  0  0  0  0  0  0  0  0  0  0  0
  -18.7860  -29.7740   23.7590 C   0  0  0  0  0  3  0  0  0  0  0  0
  -17.4570  -30.2090   23.9370 C   0  0  0  0  0  3  0  0  0  0  0  0
  -16.3930  -29.4240   23.4620 C   0  0  0  0  0  3  0  0  0  0  0  0
  -16.6550  -28.2100   22.8030 C   0  0  0  0  0  3  0  0  0  0  0  0
  -25.7930  -32.3090   23.8410 C   0  0  0  0  0  3  0  0  0  0  0  0
  -25.5140  -33.7000   24.2290 N   0  0  0  0  0  0  0  0  0  0  0  0
  -25.8820  -34.7750   23.5200 C   0  0  0  0  0  0  0  0  0  0  0  0
  -26.5640  -34.6990   22.4950 O   0  0  0  0  0  0  0  0  0  0  0  0
  -24.9210  -33.8360   25.0360 H   0  0  0  0  0  0  0  0  0  0  0  0
  -24.2130  -36.6290   23.2000 C   0  0  0  0  0  1  0  0  0  0  0  0
  -25.4190  -36.1550   24.0260 C   0  0  0  0  0  3  0  0  0  0  0  0
  -27.5490  -36.9440   24.9590 C   0  0  0  0  0  1  0  0  0  0  0  0
  -26.4810  -37.1840   23.9910 N   0  0  0  0  0  0  0  0  0  0  0  0
  -26.0940  -38.1080   24.1670 H   0  0  0  0  0  0  0  0  0  0  0  0
  -26.3130  -31.4780   25.0780 C   0  0  1  0  0  0  0  0  0  0  0  0
  -25.2300  -31.2040   26.1480 C   0  0  0  0  0  1  0  0  0  0  0  0
  -26.8740  -30.1130   24.6160 C   0  0  0  0  0  1  0  0  0  0  0  0
  -27.4810  -32.2280   25.7640 C   0  0  0  0  0  1  0  0  0  0  0  0
  3  2  1  0
  4  2  1  0
  5  7  1  0
  5  6  1  0
  6  1  1  0
  6  3  1  0
  7  4  1  0
  7  8  1  1
  9 10  1  0
  9  7  1  0
 11 19  1  0
 12 17  1  0
 13 14  1  0
 13 12  1  0
 15 14  1  0
 15 24  1  0
 15 16  1  0
 17 11  1  0
 17 16  1  0
 18 11  2  0
 19 20  1  0
 19 10  1  0
 21 22  2  0
 22 41  1  0
 23 22  1  0
 23 26  1  0
 24 25  1  0
 24 21  1  0
 25 23  2  0
 26 27  1  0
 27 28  2  0
 29 32  1  0
 29 28  1  0
 30 29  2  0
 31 30  1  0
 31 26  2  0
 32 33  1  0
 33 38  2  0
 33 34  1  0
 34 35  2  0
 35 36  1  0
 36 40  1  0
 37 36  2  0
 38 37  1  0
 39 38  1  0
 41 42  1  0
 42 45  1  0
 42 44  1  0
 43 41  2  0
 46 47  1  0
 46 21  1  0
 48 46  1  0
 49 50  1  0
 49  1  1  0
 51 49  1  0
 52 49  1  0
 53 54  1  0
 53 52  1  0
 55 57  1  0
 55 54  1  0
 56 67  2  0
 57 62  1  0
 58 66  1  0
 58 68  1  0
 59 65  1  0
 59 61  1  0
 60 66  1  0
 61 60  1  0
 62 61  2  0
 63 64  1  0
 63 57  2  0
 64 59  2  0
 65 58  1  0
 66 56  1  0
 68 70  2  0
 69 68  1  0
 71 69  1  0
 72 81  2  0
 72 77  1  0
 73 69  1  0
 73 77  1  0
 74 73  1  0
 75 76  1  0
 75 74  1  0
 76 72  1  0
 77 78  2  0
 78 79  1  0
 80 79  2  0
 81 80  1  0
 82 56  1  0
 82 83  1  0
 82 92  1  0
 83 86  1  0
 84 88  1  0
 84 83  1  0
 85 84  2  0
 88 87  1  0
 90 88  1  0
 90 91  1  0
 90 89  1  0
 92 95  1  1
 92 93  1  0
 94 92  1  0
M  ISO  4  11 100  19 100  54 101  55 101
M  END
>  <TORSDO>  (50) 
F 23

>  <SCORE>  (50) 
-11.409

>  <name>  (50) 
49

>  <ligand_id>  (50) 
49

>  <original_smiles>  (50) 
[H]c1c([H])c([H])c2c(c1[H])C([H])([H])C([H])([H])C([H])([H])C2([H])N([H])C(=O)C1([H])N(C(=O)C([H])(N([H])C(=O)C([H])(N([H])C([H])([H])[H])C([H])([H])[H])C(C([H])([H])[H])(C([H])([H])[H])C([H])([H])[H])C([H])([H])c2c([H])c(OC([H])([H])C([H])([H])C([H])([H])[N+]([H])([H])C([H])([H])C3([H])C([H])([H])C([H])([H])C([H])([H])[N+]([H])(C([H])([H])C([H])([H])N([H])C(=O)N4C([H])([H])C([H])([H])C([H])([H])C([H])(n5nc(-c6c([H])c([H])c(Oc7c([H])c([H])c(F)c([H])c7F)c([H])c6[H])c(C(=O)N([H])[H])c5N([H])[H])C4([H])[H])C3([H])[H])c([H])c([H])c2C1([H])[H]

>  <smiles>  (50) 
[H]c1c([H])c([H])c2c(c1[H])C([H])([H])C([H])([H])C([H])([H])C2([H])N([H])C(=O)C1([H])N(C(=O)C([H])(N([H])C(=O)C([H])(N([H])C([H])([H])[H])C([H])([H])[H])C(C([H])([H])[H])(C([H])([H])[H])C([H])([H])[H])C([H])([H])c2c([H])c(OC([H])([H])C([H])([H])C([H])([H])[N+]([H])([H])C([H])([H])C3([H])C([H])([H])C([H])([H])C([H])([H])[N+]([H])(C([H])([H])C([H])([H])N([H])C(=O)N4C([H])([H])C([H])([H])C([H])([H])C([H])(n5nc(-c6c([H])c([H])c(Oc7c([H])c([H])c(F)c([H])c7F)c([H])c6[H])c(C(=O)N([H])[H])c5N([H])[H])C4([H])[H])C3([H])[H])c([H])c([H])c2C1([H])[H]

$$$$
50:0:0
     RDKit          3D

 96104  0  0  1  0  0  0  0  0999 V2000
  -32.6790  -21.4910   21.6410 C   0  0  0  0  0  2  0  0  0  0  0  0
  -32.4690  -20.0130   22.0570 C   0  0  0  0  0  2  0  0  0  0  0  0
  -29.9730  -17.4990   22.8470 C   0  0  0  0  0  2  0  0  0  0  0  0
  -29.6690  -19.1430   20.9250 C   0  0  0  0  0  2  0  0  0  0  0  0
  -31.1570  -18.3520   23.3700 C   0  0  0  0  0  2  0  0  0  0  0  0
  -29.9540  -20.1090   22.0920 C   0  0  0  0  0  2  0  0  0  0  0  0
  -29.7550  -17.6510   21.3260 C   0  0  0  0  0  3  0  0  0  0  0  0
  -31.2060  -19.7380   22.8080 N   0  0  2  0  0  4  0  0  0  0  0  0
  -31.2450  -20.3380   23.6210 H   0  0  0  0  0  0  0  0  0  0  0  0
  -30.8210  -16.8880   20.5150 C   0  0  0  0  0  2  0  0  0  0  0  0
  -31.2720  -14.5180   19.9390 C   0  0  0  0  0  0  0  0  0  0  0  0
  -30.9150  -12.3520   18.8250 C   0  0  0  0  0  2  0  0  0  0  0  0
  -29.9150  -12.5500   17.6670 C   0  0  0  0  0  2  0  0  0  0  0  0
  -28.4600  -12.4400   18.1640 C   0  0  0  0  0  2  0  0  0  0  0  0
  -28.1940  -13.3130   19.4170 C   0  0  0  0  0  3  0  0  0  0  0  0
  -29.2880  -13.0690   20.4820 C   0  0  0  0  0  2  0  0  0  0  0  0
  -30.6010  -13.3420   19.8640 N   0  0  0  0  0  0  0  0  0  0  0  0
  -32.3110  -14.7640   19.3180 O   0  0  0  0  0  0  0  0  0  0  0  0
  -30.6400  -15.4520   20.6560 N   0  0  0  0  0  0  0  0  0  0  0  0
  -29.8200  -15.1410   21.1550 H   0  0  0  0  0  0  0  0  0  0  0  0
  -25.8530  -13.9910   20.2540 C   0  0  0  0  0  0  0  0  0  0  0  0
  -24.7800  -13.2470   20.6690 C   0  0  0  0  0  0  0  0  0  0  0  0
  -25.1930  -11.8830   20.5900 C   0  0  0  0  0  0  0  0  0  0  0  0
  -26.8550  -13.0800   19.9560 N   0  0  0  0  0  0  0  0  0  0  0  0
  -26.4630  -11.8050   20.2100 N   0  0  0  0  0  0  0  0  0  0  0  0
  -24.4380  -10.6410   20.7980 C   0  0  0  0  0  0  0  0  0  0  0  0
  -24.8250   -9.6980   21.7760 C   0  0  0  0  0  3  0  0  0  0  0  0
  -24.0730   -8.5200   21.9690 C   0  0  0  0  0  3  0  0  0  0  0  0
  -22.9210   -8.2760   21.1850 C   0  0  0  0  0  0  0  0  0  0  0  0
  -22.5550   -9.2050   20.1980 C   0  0  0  0  0  3  0  0  0  0  0  0
  -23.3070  -10.3760   20.0020 C   0  0  0  0  0  3  0  0  0  0  0  0
  -22.1440   -7.1470   21.2860 O   0  0  0  0  0  0  0  0  0  0  0  0
  -21.9490   -6.5130   22.4870 C   0  0  0  0  0  0  0  0  0  0  0  0
  -21.3890   -7.1780   23.5990 C   0  0  0  0  0  3  0  0  0  0  0  0
  -21.1420   -6.4700   24.7920 C   0  0  0  0  0  3  0  0  0  0  0  0
  -21.4430   -5.0970   24.8710 C   0  0  0  0  0  0  0  0  0  0  0  0
  -21.9950   -4.4320   23.7620 C   0  0  0  0  0  3  0  0  0  0  0  0
  -22.2450   -5.1370   22.5730 C   0  0  0  0  0  0  0  0  0  0  0  0
  -22.7580   -4.4870   21.5010 F   0  0  0  0  0  0  0  0  0  0  0  0
  -21.1990   -4.4130   26.0140 F   0  0  0  0  0  0  0  0  0  0  0  0
  -23.4160  -13.7640   21.0260 C   0  0  0  0  0  0  0  0  0  0  0  0
  -22.7210  -13.0840   21.9320 N   0  0  0  0  0  0  0  0  0  0  0  0
  -22.9780  -14.8040   20.5370 O   0  0  0  0  0  0  0  0  0  0  0  0
  -23.0860  -12.2410   22.3490 H   0  0  0  0  0  0  0  0  0  0  0  0
  -21.8080  -13.4130   22.2140 H   0  0  0  0  0  0  0  0  0  0  0  0
  -26.0530  -15.3580   20.0890 N   0  0  0  0  0  0  0  0  0  0  0  0
  -25.3080  -16.0310   20.2360 H   0  0  0  0  0  0  0  0  0  0  0  0
  -26.8990  -15.7760   19.7220 H   0  0  0  0  0  0  0  0  0  0  0  0
  -32.1110  -21.8450   20.2460 C   0  0  0  0  0  2  0  0  0  0  0  0
  -31.9920  -23.3060   20.0430 N   0  0  0  0  0  4  0  0  0  0  0  0
  -31.9540  -23.7460   20.9470 H   0  0  0  0  0  0  0  0  0  0  0  0
  -32.8200  -23.6440   19.5760 H   0  0  0  0  0  0  0  0  0  0  0  0
  -30.7840  -23.7280   19.2940 C   0  0  0  0  0  2  0  0  0  0  0  0
  -30.4880  -25.2180   19.5120 C   0  0  0  0  0  2  0  0  0  0  0  0
  -29.0570  -25.6280   19.1410 C   0  0  0  0  0  2  0  0  0  0  0  0
  -28.8920  -26.9350   19.6680 O   0  0  0  0  0  0  0  0  0  0  0  0
  -24.7130  -31.5300   23.0700 C   0  0  0  0  0  0  0  0  0  0  0  0
  -27.6390  -27.5000   19.7080 C   0  0  0  0  0  0  0  0  0  0  0  0
  -23.5970  -30.1680   21.3330 C   0  0  0  0  0  3  0  0  0  0  0  0
  -25.1410  -28.8160   19.8210 C   0  0  0  0  0  0  0  0  0  0  0  0
  -26.0920  -30.6970   21.1730 C   0  0  0  0  0  2  0  0  0  0  0  0
  -26.2600  -29.3810   20.4450 C   0  0  0  0  0  0  0  0  0  0  0  0
  -27.5070  -28.7270   20.3890 C   0  0  0  0  0  3  0  0  0  0  0  0
  -26.5000  -26.9320   19.0900 C   0  0  0  0  0  3  0  0  0  0  0  0
  -25.2540  -27.5870   19.1460 C   0  0  0  0  0  3  0  0  0  0  0  0
  -23.8480  -29.5910   19.9150 C   0  0  0  0  0  2  0  0  0  0  0  0
  -24.8180  -30.8100   21.9180 N   0  0  0  0  0  0  0  0  0  0  0  0
  -23.6170  -31.7020   23.6210 O   0  0  0  0  0  0  0  0  0  0  0  0
  -23.0090  -29.0480   22.2200 C   0  0  0  0  0  0  0  0  0  0  0  0
  -21.6980  -28.7960   22.0690 N   0  0  0  0  0  0  0  0  0  0  0  0
  -23.7260  -28.4130   22.9960 O   0  0  0  0  0  0  0  0  0  0  0  0
  -21.1790  -29.3650   21.4140 H   0  0  0  0  0  0  0  0  0  0  0  0
  -18.3940  -27.3970   22.4800 C   0  0  0  0  0  0  0  0  0  0  0  0
  -20.9360  -27.7640   22.7710 C   0  0  0  0  0  3  0  0  0  0  0  0
  -21.1110  -26.3870   22.0910 C   0  0  0  0  0  2  0  0  0  0  0  0
  -20.0230  -26.0830   21.0560 C   0  0  0  0  0  2  0  0  0  0  0  0
  -18.6380  -26.1110   21.7090 C   0  0  0  0  0  2  0  0  0  0  0  0
  -19.4740  -28.1830   22.9640 C   0  0  0  0  0  0  0  0  0  0  0  0
  -19.1940  -29.3880   23.6430 C   0  0  0  0  0  3  0  0  0  0  0  0
  -17.8660  -29.8090   23.8440 C   0  0  0  0  0  3  0  0  0  0  0  0
  -16.8000  -29.0210   23.3770 C   0  0  0  0  0  3  0  0  0  0  0  0
  -17.0660  -27.8160   22.7000 C   0  0  0  0  0  3  0  0  0  0  0  0
  -25.9600  -32.1920   23.7380 C   0  0  0  0  0  3  0  0  0  0  0  0
  -25.5880  -33.5660   24.0990 N   0  0  0  0  0  0  0  0  0  0  0  0
  -25.9040  -34.6530   23.3830 C   0  0  0  0  0  0  0  0  0  0  0  0
  -26.6110  -34.6070   22.3720 O   0  0  0  0  0  0  0  0  0  0  0  0
  -24.9610  -33.6740   24.8830 H   0  0  0  0  0  0  0  0  0  0  0  0
  -24.1290  -36.3950   23.0090 C   0  0  0  0  0  1  0  0  0  0  0  0
  -25.3480  -36.0060   23.8630 C   0  0  0  0  0  3  0  0  0  0  0  0
  -27.4050  -36.9380   24.8250 C   0  0  0  0  0  1  0  0  0  0  0  0
  -26.3460  -37.0970   23.8310 N   0  0  0  0  0  0  0  0  0  0  0  0
  -25.9000  -37.9980   23.9830 H   0  0  0  0  0  0  0  0  0  0  0  0
  -26.4830  -31.4030   25.0000 C   0  0  1  0  0  0  0  0  0  0  0  0
  -25.3780  -31.0850   26.0350 C   0  0  0  0  0  1  0  0  0  0  0  0
  -27.1340  -30.0650   24.5780 C   0  0  0  0  0  1  0  0  0  0  0  0
  -27.5850  -32.2240   25.7130 C   0  0  0  0  0  1  0  0  0  0  0  0
  1  2  1  0
  2  8  1  0
  3  5  1  0
  4  7  1  0
  4  6  1  0
  6  8  1  0
  7 10  1  0
  7  3  1  0
  8  5  1  0
  8  9  1  1
 10 19  1  0
 11 19  1  0
 12 17  1  0
 13 14  1  0
 13 12  1  0
 15 14  1  0
 15 24  1  0
 15 16  1  0
 17 11  1  0
 17 16  1  0
 18 11  2  0
 19 20  1  0
 21 22  2  0
 22 41  1  0
 23 22  1  0
 23 26  1  0
 24 25  1  0
 24 21  1  0
 25 23  2  0
 26 27  1  0
 27 28  2  0
 29 32  1  0
 29 28  1  0
 30 29  2  0
 31 30  1  0
 31 26  2  0
 32 33  1  0
 33 38  2  0
 33 34  1  0
 34 35  2  0
 35 36  1  0
 36 40  1  0
 37 36  2  0
 38 37  1  0
 39 38  1  0
 41 42  1  0
 42 45  1  0
 42 44  1  0
 43 41  2  0
 46 47  1  0
 46 21  1  0
 48 46  1  0
 49  1  1  0
 50 49  1  0
 50 51  1  0
 52 50  1  0
 53 54  1  0
 53 50  1  0
 55 54  1  0
 55 56  1  0
 56 58  1  0
 57 68  2  0
 58 63  1  0
 59 67  1  0
 59 69  1  0
 60 66  1  0
 60 62  1  0
 61 67  1  0
 62 61  1  0
 63 62  2  0
 64 65  1  0
 64 58  2  0
 65 60  2  0
 66 59  1  0
 67 57  1  0
 69 71  2  0
 70 69  1  0
 72 70  1  0
 73 82  2  0
 73 78  1  0
 74 70  1  0
 74 78  1  0
 75 74  1  0
 76 77  1  0
 76 75  1  0
 77 73  1  0
 78 79  2  0
 79 80  1  0
 81 80  2  0
 82 81  1  0
 83 57  1  0
 83 84  1  0
 83 93  1  0
 84 87  1  0
 85 89  1  0
 85 84  1  0
 86 85  2  0
 89 88  1  0
 91 89  1  0
 91 92  1  0
 91 90  1  0
 93 96  1  1
 93 94  1  0
 95 93  1  0
M  ISO  4  11 100  19 100  55 101  56 101
M  END
>  <TORSDO>  (51) 
F 24

>  <SCORE>  (51) 
-9.690

>  <name>  (51) 
50

>  <ligand_id>  (51) 
50

>  <original_smiles>  (51) 
[H]c1c([H])c([H])c2c(c1[H])C([H])([H])C([H])([H])C([H])([H])C2([H])N([H])C(=O)C1([H])N(C(=O)C([H])(N([H])C(=O)C([H])(N([H])C([H])([H])[H])C([H])([H])[H])C(C([H])([H])[H])(C([H])([H])[H])C([H])([H])[H])C([H])([H])c2c([H])c(OC([H])([H])C([H])([H])C([H])([H])[N+]([H])([H])C([H])([H])C([H])([H])C([H])([H])[N+]3([H])C([H])([H])C([H])([H])C([H])(C([H])([H])N([H])C(=O)N4C([H])([H])C([H])([H])C([H])([H])C([H])(n5nc(-c6c([H])c([H])c(Oc7c([H])c([H])c(F)c([H])c7F)c([H])c6[H])c(C(=O)N([H])[H])c5N([H])[H])C4([H])[H])C([H])([H])C3([H])[H])c([H])c([H])c2C1([H])[H]

>  <smiles>  (51) 
[H]c1c([H])c([H])c2c(c1[H])C([H])([H])C([H])([H])C([H])([H])C2([H])N([H])C(=O)C1([H])N(C(=O)C([H])(N([H])C(=O)C([H])(N([H])C([H])([H])[H])C([H])([H])[H])C(C([H])([H])[H])(C([H])([H])[H])C([H])([H])[H])C([H])([H])c2c([H])c(OC([H])([H])C([H])([H])C([H])([H])[N+]([H])([H])C([H])([H])C([H])([H])C([H])([H])[N+]3([H])C([H])([H])C([H])([H])C([H])(C([H])([H])N([H])C(=O)N4C([H])([H])C([H])([H])C([H])([H])C([H])(n5nc(-c6c([H])c([H])c(Oc7c([H])c([H])c(F)c([H])c7F)c([H])c6[H])c(C(=O)N([H])[H])c5N([H])[H])C4([H])[H])C([H])([H])C3([H])[H])c([H])c([H])c2C1([H])[H]

$$$$
51:0:0
     RDKit          3D

 95102  0  0  1  0  0  0  0  0999 V2000
  -26.8520  -22.6180   23.4520 C   0  0  0  0  0  2  0  0  0  0  0  0
  -26.5550  -23.4670   22.2810 N   0  0  0  0  0  4  0  0  0  0  0  0
  -25.7700  -24.0410   22.5420 H   0  0  0  0  0  0  0  0  0  0  0  0
  -26.2510  -22.8850   21.5150 H   0  0  0  0  0  0  0  0  0  0  0  0
  -27.6340  -24.3800   21.8310 C   0  0  0  0  0  2  0  0  0  0  0  0
  -27.1160  -25.2960   20.7090 C   0  0  0  0  0  2  0  0  0  0  0  0
  -28.1810  -26.1700   20.0000 C   0  0  0  0  0  2  0  0  0  0  0  0
  -27.6290  -27.0300   18.9900 O   0  0  0  0  0  0  0  0  0  0  0  0
  -25.5710  -31.1690   24.3950 C   0  0  0  0  0  0  0  0  0  0  0  0
  -26.7240  -27.9450   19.4670 C   0  0  0  0  0  0  0  0  0  0  0  0
  -23.8960  -30.7860   22.6150 C   0  0  0  0  0  3  0  0  0  0  0  0
  -24.7820  -29.7160   20.4750 C   0  0  0  0  0  0  0  0  0  0  0  0
  -26.3980  -30.7270   22.0910 C   0  0  0  0  0  2  0  0  0  0  0  0
  -26.0830  -29.7350   20.9920 C   0  0  0  0  0  0  0  0  0  0  0  0
  -27.0600  -28.8430   20.4990 C   0  0  0  0  0  3  0  0  0  0  0  0
  -25.4220  -27.9610   18.9240 C   0  0  0  0  0  3  0  0  0  0  0  0
  -24.4430  -28.8270   19.4420 C   0  0  0  0  0  3  0  0  0  0  0  0
  -23.7920  -30.6920   21.0700 C   0  0  0  0  0  2  0  0  0  0  0  0
  -25.3140  -30.8810   23.0890 N   0  0  0  0  0  0  0  0  0  0  0  0
  -24.6510  -31.3960   25.1920 O   0  0  0  0  0  0  0  0  0  0  0  0
  -23.1230  -29.6010   23.2350 C   0  0  0  0  0  0  0  0  0  0  0  0
  -21.7970  -29.5750   23.0210 N   0  0  0  0  0  0  0  0  0  0  0  0
  -23.7120  -28.7190   23.8670 O   0  0  0  0  0  0  0  0  0  0  0  0
  -21.3890  -30.3240   22.4800 H   0  0  0  0  0  0  0  0  0  0  0  0
  -18.3900  -28.4030   22.7730 C   0  0  0  0  0  0  0  0  0  0  0  0
  -20.8700  -28.5480   23.4900 C   0  0  0  0  0  3  0  0  0  0  0  0
  -21.0640  -27.2290   22.7130 C   0  0  0  0  0  2  0  0  0  0  0  0
  -20.1460  -27.1090   21.4930 C   0  0  0  0  0  2  0  0  0  0  0  0
  -18.6770  -27.1770   21.9220 C   0  0  0  0  0  2  0  0  0  0  0  0
  -19.4240  -29.0580   23.4940 C   0  0  0  0  0  0  0  0  0  0  0  0
  -19.1120  -30.2140   24.2420 C   0  0  0  0  0  3  0  0  0  0  0  0
  -17.7960  -30.7120   24.2860 C   0  0  0  0  0  3  0  0  0  0  0  0
  -16.7740  -30.0510   23.5840 C   0  0  0  0  0  3  0  0  0  0  0  0
  -17.0700  -28.8980   22.8330 C   0  0  0  0  0  3  0  0  0  0  0  0
  -27.0300  -31.2540   24.9440 C   0  0  0  0  0  3  0  0  0  0  0  0
  -27.1040  -32.4230   25.8300 N   0  0  0  0  0  0  0  0  0  0  0  0
  -27.7120  -33.5740   25.5170 C   0  0  0  0  0  0  0  0  0  0  0  0
  -28.3420  -33.7370   24.4680 O   0  0  0  0  0  0  0  0  0  0  0  0
  -26.5650  -32.3810   26.6820 H   0  0  0  0  0  0  0  0  0  0  0  0
  -26.5820  -35.7600   26.0300 C   0  0  0  0  0  1  0  0  0  0  0  0
  -27.6080  -34.7310   26.5290 C   0  0  0  0  0  3  0  0  0  0  0  0
  -29.8510  -34.5620   27.5120 C   0  0  0  0  0  1  0  0  0  0  0  0
  -28.9000  -35.4030   26.7910 N   0  0  0  0  0  0  0  0  0  0  0  0
  -28.7610  -36.2560   27.3280 H   0  0  0  0  0  0  0  0  0  0  0  0
  -27.4860  -29.9470   25.7000 C   0  0  1  0  0  0  0  0  0  0  0  0
  -26.4930  -29.4820   26.7910 C   0  0  0  0  0  1  0  0  0  0  0  0
  -27.6760  -28.7760   24.7080 C   0  0  0  0  0  1  0  0  0  0  0  0
  -28.8580  -30.1820   26.3740 C   0  0  0  0  0  1  0  0  0  0  0  0
  -28.3100  -22.1280   23.4920 C   0  0  0  0  0  2  0  0  0  0  0  0
  -28.6780  -21.5140   24.8590 C   0  0  0  0  0  2  0  0  0  0  0  0
  -30.1420  -21.7520   25.2680 C   0  0  0  0  0  2  0  0  0  0  0  0
  -31.0940  -21.3230   24.2220 N   0  0  0  0  0  4  0  0  0  0  0  0
  -30.8270  -21.7730   23.3610 H   0  0  0  0  0  0  0  0  0  0  0  0
  -31.0240  -20.3280   24.0840 H   0  0  0  0  0  0  0  0  0  0  0  0
  -32.4980  -21.6900   24.5020 C   0  0  0  0  0  2  0  0  0  0  0  0
  -33.4060  -21.3840   23.3000 C   0  0  0  0  0  2  0  0  0  0  0  0
  -34.8960  -21.3250   23.6760 C   0  0  0  0  0  2  0  0  0  0  0  0
  -36.4910  -20.0480   22.2810 C   0  0  0  0  0  0  0  0  0  0  0  0
  -36.6280  -17.9830   20.9580 C   0  0  0  0  0  2  0  0  0  0  0  0
  -36.2620  -18.3020   19.4940 C   0  0  0  0  0  2  0  0  0  0  0  0
  -34.7400  -18.1940   19.2800 C   0  0  0  0  0  2  0  0  0  0  0  0
  -33.9330  -18.9780   20.3500 C   0  0  0  0  0  3  0  0  0  0  0  0
  -34.4410  -18.6530   21.7700 C   0  0  0  0  0  2  0  0  0  0  0  0
  -35.8900  -18.9220   21.8150 N   0  0  0  0  0  0  0  0  0  0  0  0
  -37.7080  -20.2340   22.2470 O   0  0  0  0  0  0  0  0  0  0  0  0
  -35.6960  -21.1030   22.4790 N   0  0  0  0  0  0  0  0  0  0  0  0
  -36.1880  -21.9460   22.2200 H   0  0  0  0  0  0  0  0  0  0  0  0
  -31.4550  -19.6460   20.1180 C   0  0  0  0  0  0  0  0  0  0  0  0
  -30.3190  -18.8980   19.9630 C   0  0  0  0  0  0  0  0  0  0  0  0
  -30.7380  -17.5330   19.9820 C   0  0  0  0  0  0  0  0  0  0  0  0
  -32.4970  -18.7350   20.2270 N   0  0  0  0  0  0  0  0  0  0  0  0
  -32.0460  -17.4560   20.1990 N   0  0  0  0  0  0  0  0  0  0  0  0
  -29.9820  -16.2950   19.7530 C   0  0  0  0  0  0  0  0  0  0  0  0
  -29.8110  -15.3330   20.7740 C   0  0  0  0  0  3  0  0  0  0  0  0
  -29.0680  -14.1580   20.5320 C   0  0  0  0  0  3  0  0  0  0  0  0
  -28.4830  -13.9360   19.2640 C   0  0  0  0  0  0  0  0  0  0  0  0
  -28.6740  -14.8870   18.2450 C   0  0  0  0  0  3  0  0  0  0  0  0
  -29.4190  -16.0540   18.4850 C   0  0  0  0  0  3  0  0  0  0  0  0
  -27.7650  -12.8130   18.9290 O   0  0  0  0  0  0  0  0  0  0  0  0
  -26.8330  -12.2750   19.7800 C   0  0  0  0  0  0  0  0  0  0  0  0
  -25.7200  -13.0180   20.2300 C   0  0  0  0  0  3  0  0  0  0  0  0
  -24.7500  -12.4040   21.0480 C   0  0  0  0  0  3  0  0  0  0  0  0
  -24.8850  -11.0500   21.4090 C   0  0  0  0  0  0  0  0  0  0  0  0
  -25.9910  -10.3090   20.9580 C   0  0  0  0  0  3  0  0  0  0  0  0
  -26.9620  -10.9200   20.1440 C   0  0  0  0  0  0  0  0  0  0  0  0
  -28.0140  -10.1940   19.6940 F   0  0  0  0  0  0  0  0  0  0  0  0
  -23.9510  -10.4590   22.1890 F   0  0  0  0  0  0  0  0  0  0  0  0
  -28.9320  -19.4160   19.7140 C   0  0  0  0  0  0  0  0  0  0  0  0
  -27.9140  -18.6850   20.1520 N   0  0  0  0  0  0  0  0  0  0  0  0
  -28.7460  -20.5040   19.1710 O   0  0  0  0  0  0  0  0  0  0  0  0
  -28.0660  -17.8030   20.6170 H   0  0  0  0  0  0  0  0  0  0  0  0
  -26.9680  -19.0150   20.0220 H   0  0  0  0  0  0  0  0  0  0  0  0
  -31.6940  -21.0160   20.1540 N   0  0  0  0  0  0  0  0  0  0  0  0
  -30.9590  -21.6910   19.9690 H   0  0  0  0  0  0  0  0  0  0  0  0
  -32.6190  -21.4250   20.1540 H   0  0  0  0  0  0  0  0  0  0  0  0
  1 49  1  0
  2  3  1  0
  2  1  1  0
  4  2  1  0
  5  2  1  0
  6  5  1  0
  7  6  1  0
  8 10  1  0
  8  7  1  0
  9 20  2  0
 10 15  1  0
 11 19  1  0
 11 21  1  0
 12 14  1  0
 12 18  1  0
 13 19  1  0
 14 13  1  0
 15 14  2  0
 16 17  1  0
 16 10  2  0
 17 12  2  0
 18 11  1  0
 19  9  1  0
 21 23  2  0
 22 21  1  0
 24 22  1  0
 25 34  2  0
 25 30  1  0
 26 22  1  0
 26 30  1  0
 27 26  1  0
 28 29  1  0
 28 27  1  0
 29 25  1  0
 30 31  2  0
 31 32  1  0
 33 32  2  0
 34 33  1  0
 35  9  1  0
 35 45  1  0
 35 36  1  0
 36 39  1  0
 37 36  1  0
 37 41  1  0
 38 37  2  0
 41 40  1  0
 41 43  1  0
 43 44  1  0
 43 42  1  0
 45 48  1  1
 45 46  1  0
 47 45  1  0
 49 50  1  0
 50 51  1  0
 52 55  1  0
 52 51  1  0
 53 52  1  0
 54 52  1  0
 56 57  1  0
 56 55  1  0
 58 66  1  0
 59 64  1  0
 60 59  1  0
 61 60  1  0
 62 61  1  0
 62 63  1  0
 63 64  1  0
 64 58  1  0
 65 58  2  0
 66 57  1  0
 67 66  1  0
 68 93  1  0
 68 71  1  0
 69 70  1  0
 69 68  2  0
 70 72  2  0
 71 62  1  0
 72 71  1  0
 73 70  1  0
 73 74  1  0
 75 74  2  0
 76 75  1  0
 77 78  1  0
 77 76  2  0
 78 73  2  0
 79 76  1  0
 79 80  1  0
 80 85  2  0
 80 81  1  0
 81 82  2  0
 82 83  1  0
 83 87  1  0
 84 83  2  0
 85 84  1  0
 86 85  1  0
 88 69  1  0
 88 89  1  0
 89 91  1  0
 90 88  2  0
 92 89  1  0
 94 93  1  0
 95 93  1  0
M  ISO  4   7 101   8 101  58 100  66 100
M  END
>  <TORSDO>  (52) 
F 27

>  <SCORE>  (52) 
4.970

>  <name>  (52) 
51

>  <ligand_id>  (52) 
51

>  <original_smiles>  (52) 
[H]c1c([H])c([H])c2c(c1[H])C([H])([H])C([H])([H])C([H])([H])C2([H])N([H])C(=O)C1([H])N(C(=O)C([H])(N([H])C(=O)C([H])(N([H])C([H])([H])[H])C([H])([H])[H])C(C([H])([H])[H])(C([H])([H])[H])C([H])([H])[H])C([H])([H])c2c([H])c(OC([H])([H])C([H])([H])C([H])([H])[N+]([H])([H])C([H])([H])C([H])([H])C([H])([H])C([H])([H])[N+]([H])([H])C([H])([H])C([H])([H])C([H])([H])N([H])C(=O)N3C([H])([H])C([H])([H])C([H])([H])C([H])(n4nc(-c5c([H])c([H])c(Oc6c([H])c([H])c(F)c([H])c6F)c([H])c5[H])c(C(=O)N([H])[H])c4N([H])[H])C3([H])[H])c([H])c([H])c2C1([H])[H]

>  <smiles>  (52) 
[H]c1c([H])c([H])c2c(c1[H])C([H])([H])C([H])([H])C([H])([H])C2([H])N([H])C(=O)C1([H])N(C(=O)C([H])(N([H])C(=O)C([H])(N([H])C([H])([H])[H])C([H])([H])[H])C(C([H])([H])[H])(C([H])([H])[H])C([H])([H])[H])C([H])([H])c2c([H])c(OC([H])([H])C([H])([H])C([H])([H])[N+]([H])([H])C([H])([H])C([H])([H])C([H])([H])C([H])([H])[N+]([H])([H])C([H])([H])C([H])([H])C([H])([H])N([H])C(=O)N3C([H])([H])C([H])([H])C([H])([H])C([H])(n4nc(-c5c([H])c([H])c(Oc6c([H])c([H])c(F)c([H])c6F)c([H])c5[H])c(C(=O)N([H])[H])c4N([H])[H])C3([H])[H])c([H])c([H])c2C1([H])[H]

$$$$
52:0:0
     RDKit          3D

 92100  0  0  1  0  0  0  0  0999 V2000
  -28.9600  -22.0610   21.7060 C   0  0  0  0  0  2  0  0  0  0  0  0
  -29.2100  -22.2350   20.1990 C   0  0  0  0  0  2  0  0  0  0  0  0
  -28.3340  -23.3210   19.5690 C   0  0  0  0  0  2  0  0  0  0  0  0
  -28.4770  -24.7450   20.1480 C   0  0  0  0  0  2  0  0  0  0  0  0
  -28.2090  -25.7660   19.0370 C   0  0  0  0  0  2  0  0  0  0  0  0
  -28.1260  -27.0960   19.5400 O   0  0  0  0  0  0  0  0  0  0  0  0
  -24.5230  -31.9020   23.2980 C   0  0  0  0  0  0  0  0  0  0  0  0
  -26.9070  -27.7230   19.6930 C   0  0  0  0  0  0  0  0  0  0  0  0
  -23.1820  -30.6060   21.6720 C   0  0  0  0  0  3  0  0  0  0  0  0
  -24.5080  -29.1870   20.0300 C   0  0  0  0  0  0  0  0  0  0  0  0
  -25.6790  -31.0180   21.2710 C   0  0  0  0  0  2  0  0  0  0  0  0
  -25.7130  -29.6980   20.5250 C   0  0  0  0  0  0  0  0  0  0  0  0
  -26.9150  -28.9780   20.3410 C   0  0  0  0  0  3  0  0  0  0  0  0
  -25.6690  -27.1990   19.2440 C   0  0  0  0  0  3  0  0  0  0  0  0
  -24.4770  -27.9310   19.4040 C   0  0  0  0  0  3  0  0  0  0  0  0
  -23.2640  -30.0150   20.2400 C   0  0  0  0  0  2  0  0  0  0  0  0
  -24.4870  -31.1820   22.1400 N   0  0  0  0  0  0  0  0  0  0  0  0
  -23.4900  -32.1260   23.9410 O   0  0  0  0  0  0  0  0  0  0  0  0
  -22.6200  -29.5130   22.6110 C   0  0  0  0  0  0  0  0  0  0  0  0
  -21.3200  -29.2090   22.4650 N   0  0  0  0  0  0  0  0  0  0  0  0
  -23.3490  -28.9390   23.4250 O   0  0  0  0  0  0  0  0  0  0  0  0
  -20.7890  -29.7230   21.7780 H   0  0  0  0  0  0  0  0  0  0  0  0
  -18.1160  -27.5780   22.7930 C   0  0  0  0  0  0  0  0  0  0  0  0
  -20.5870  -28.1860   23.2100 C   0  0  0  0  0  3  0  0  0  0  0  0
  -20.9200  -26.7750   22.6830 C   0  0  0  0  0  2  0  0  0  0  0  0
  -19.9370  -26.2710   21.6270 C   0  0  0  0  0  2  0  0  0  0  0  0
  -18.5180  -26.2400   22.1940 C   0  0  0  0  0  2  0  0  0  0  0  0
  -19.0890  -28.4980   23.2600 C   0  0  0  0  0  0  0  0  0  0  0  0
  -18.6650  -29.7370   23.7830 C   0  0  0  0  0  3  0  0  0  0  0  0
  -17.2960  -30.0570   23.8520 C   0  0  0  0  0  3  0  0  0  0  0  0
  -16.3320  -29.1390   23.4010 C   0  0  0  0  0  3  0  0  0  0  0  0
  -16.7460  -27.9010   22.8720 C   0  0  0  0  0  3  0  0  0  0  0  0
  -25.8560  -32.4990   23.8500 C   0  0  0  0  0  3  0  0  0  0  0  0
  -26.4340  -31.6990   25.0790 C   0  0  1  0  0  0  0  0  0  0  0  0
  -25.3980  -31.4490   26.1990 C   0  0  0  0  0  1  0  0  0  0  0  0
  -26.9900  -30.3310   24.6240 C   0  0  0  0  0  1  0  0  0  0  0  0
  -27.6270  -32.4730   25.6910 C   0  0  0  0  0  1  0  0  0  0  0  0
  -25.5970  -33.8960   24.2150 N   0  0  0  0  0  0  0  0  0  0  0  0
  -25.8940  -34.9500   23.4400 C   0  0  0  0  0  0  0  0  0  0  0  0
  -26.4870  -34.8420   22.3630 O   0  0  0  0  0  0  0  0  0  0  0  0
  -25.0630  -34.0610   25.0560 H   0  0  0  0  0  0  0  0  0  0  0  0
  -24.1660  -36.7630   23.2390 C   0  0  0  0  0  1  0  0  0  0  0  0
  -25.4650  -36.3410   23.9440 C   0  0  0  0  0  3  0  0  0  0  0  0
  -27.6680  -37.1920   24.6060 C   0  0  0  0  0  1  0  0  0  0  0  0
  -26.5000  -37.3800   23.7500 N   0  0  0  0  0  0  0  0  0  0  0  0
  -26.1180  -38.3040   23.9310 H   0  0  0  0  0  0  0  0  0  0  0  0
  -29.8590  -21.0070   22.3890 C   0  0  0  0  0  2  0  0  0  0  0  0
  -29.4020  -19.5330   22.2400 C   0  0  0  0  0  2  0  0  0  0  0  0
  -31.3070  -14.4310   19.5520 C   0  0  0  0  0  0  0  0  0  0  0  0
  -30.7090  -12.3290   18.3850 C   0  0  0  0  0  2  0  0  0  0  0  0
  -29.6320  -12.5740   17.3050 C   0  0  0  0  0  2  0  0  0  0  0  0
  -28.2250  -12.4970   17.9300 C   0  0  0  0  0  2  0  0  0  0  0  0
  -28.0910  -13.3740   19.1990 C   0  0  0  0  0  3  0  0  0  0  0  0
  -29.2560  -13.0940   20.1780 C   0  0  0  0  0  2  0  0  0  0  0  0
  -30.5240  -13.3210   19.4610 N   0  0  0  0  0  0  0  0  0  0  0  0
  -32.3090  -14.6030   18.8510 O   0  0  0  0  0  0  0  0  0  0  0  0
  -31.2880  -16.6970   22.6110 C   0  0  0  0  0  2  0  0  0  0  0  0
  -31.7640  -15.6010   21.6320 C   0  0  0  0  0  2  0  0  0  0  0  0
  -30.1010  -16.4860   19.8570 C   0  0  0  0  0  2  0  0  0  0  0  0
  -31.4490  -18.1270   22.0580 C   0  0  0  0  0  2  0  0  0  0  0  0
  -29.4440  -17.7560   20.5050 C   0  0  0  0  0  2  0  0  0  0  0  0
  -30.9150  -15.3880   20.4380 N   0  0  0  0  0  0  0  0  0  0  0  0
  -30.2570  -18.6840   21.3570 N   0  0  1  0  0  4  0  0  0  0  0  0
  -30.6490  -19.3430   20.7030 H   0  0  0  0  0  0  0  0  0  0  0  0
  -25.8640  -14.1510   20.2370 C   0  0  0  0  0  0  0  0  0  0  0  0
  -24.7820  -13.4490   20.7060 C   0  0  0  0  0  0  0  0  0  0  0  0
  -25.1090  -12.0690   20.5480 C   0  0  0  0  0  0  0  0  0  0  0  0
  -26.7860  -13.1960   19.8340 N   0  0  0  0  0  0  0  0  0  0  0  0
  -26.3400  -11.9370   20.0740 N   0  0  0  0  0  0  0  0  0  0  0  0
  -24.3030  -10.8610   20.7720 C   0  0  0  0  0  0  0  0  0  0  0  0
  -24.6900   -9.8810   21.7110 C   0  0  0  0  0  3  0  0  0  0  0  0
  -23.8900   -8.7360   21.9230 C   0  0  0  0  0  3  0  0  0  0  0  0
  -22.6870   -8.5670   21.1930 C   0  0  0  0  0  0  0  0  0  0  0  0
  -22.3190   -9.5350   20.2430 C   0  0  0  0  0  3  0  0  0  0  0  0
  -23.1210  -10.6710   20.0320 C   0  0  0  0  0  3  0  0  0  0  0  0
  -21.8630   -7.4750   21.3100 O   0  0  0  0  0  0  0  0  0  0  0  0
  -21.6790   -6.8390   22.5130 C   0  0  0  0  0  0  0  0  0  0  0  0
  -21.2260   -7.5290   23.6580 C   0  0  0  0  0  3  0  0  0  0  0  0
  -20.9850   -6.8230   24.8540 C   0  0  0  0  0  3  0  0  0  0  0  0
  -21.1820   -5.4310   24.9020 C   0  0  0  0  0  0  0  0  0  0  0  0
  -21.6250   -4.7410   23.7600 C   0  0  0  0  0  3  0  0  0  0  0  0
  -21.8680   -5.4440   22.5670 C   0  0  0  0  0  0  0  0  0  0  0  0
  -22.2740   -4.7720   21.4620 F   0  0  0  0  0  0  0  0  0  0  0  0
  -20.9410   -4.7510   26.0480 F   0  0  0  0  0  0  0  0  0  0  0  0
  -23.4790  -14.0250   21.1750 C   0  0  0  0  0  0  0  0  0  0  0  0
  -22.8310  -13.3650   22.1330 N   0  0  0  0  0  0  0  0  0  0  0  0
  -23.0480  -15.0860   20.7320 O   0  0  0  0  0  0  0  0  0  0  0  0
  -23.1950  -12.4990   22.5020 H   0  0  0  0  0  0  0  0  0  0  0  0
  -21.9600  -13.7230   22.4930 H   0  0  0  0  0  0  0  0  0  0  0  0
  -26.1340  -15.5100   20.1000 N   0  0  0  0  0  0  0  0  0  0  0  0
  -25.4560  -16.2260   20.3400 H   0  0  0  0  0  0  0  0  0  0  0  0
  -26.9420  -15.8760   19.6100 H   0  0  0  0  0  0  0  0  0  0  0  0
  1 47  1  0
  2  1  1  0
  3  4  1  0
  3  2  1  0
  5  6  1  0
  5  4  1  0
  6  8  1  0
  7 18  2  0
  8 13  1  0
  9 17  1  0
  9 19  1  0
 10 16  1  0
 10 12  1  0
 11 17  1  0
 12 11  1  0
 13 12  2  0
 14 15  1  0
 14  8  2  0
 15 10  2  0
 16  9  1  0
 17  7  1  0
 19 21  2  0
 20 19  1  0
 22 20  1  0
 23 32  2  0
 23 28  1  0
 24 20  1  0
 24 28  1  0
 25 24  1  0
 26 27  1  0
 26 25  1  0
 27 23  1  0
 28 29  2  0
 29 30  1  0
 31 30  2  0
 32 31  1  0
 33  7  1  0
 33 38  1  0
 33 34  1  0
 34 37  1  1
 34 35  1  0
 36 34  1  0
 38 41  1  0
 39 43  1  0
 39 38  1  0
 40 39  2  0
 43 42  1  0
 45 46  1  0
 45 43  1  0
 45 44  1  0
 48 47  1  0
 49 62  1  0
 50 55  1  0
 51 52  1  0
 51 50  1  0
 53 52  1  0
 53 68  1  0
 53 54  1  0
 55 49  1  0
 55 54  1  0
 56 49  2  0
 58 57  1  0
 59 62  1  0
 59 61  1  0
 60 57  1  0
 61 63  1  0
 62 58  1  0
 63 60  1  0
 63 48  1  0
 63 64  1  6
 65 66  2  0
 66 85  1  0
 67 66  1  0
 67 70  1  0
 68 69  1  0
 68 65  1  0
 69 67  2  0
 70 71  1  0
 71 72  2  0
 73 76  1  0
 73 72  1  0
 74 73  2  0
 75 74  1  0
 75 70  2  0
 76 77  1  0
 77 82  2  0
 77 78  1  0
 78 79  2  0
 79 80  1  0
 80 84  1  0
 81 80  2  0
 82 81  1  0
 83 82  1  0
 85 86  1  0
 86 89  1  0
 86 88  1  0
 87 85  2  0
 90 65  1  0
 90 91  1  0
 92 90  1  0
M  ISO  4   5 101   6 101  49 100  62 100
M  END
>  <TORSDO>  (53) 
F 22

>  <SCORE>  (53) 
-9.515

>  <name>  (53) 
52

>  <ligand_id>  (53) 
52

>  <original_smiles>  (53) 
[H]c1c([H])c([H])c2c(c1[H])C([H])([H])C([H])([H])C([H])([H])C2([H])N([H])C(=O)C1([H])N(C(=O)C([H])(N([H])C(=O)C([H])(N([H])C([H])([H])[H])C([H])([H])[H])C(C([H])([H])[H])(C([H])([H])[H])C([H])([H])[H])C([H])([H])c2c([H])c(OC([H])([H])C([H])([H])C([H])([H])C([H])([H])C([H])([H])C([H])([H])C([H])([H])[N+]3([H])C([H])([H])C([H])([H])N(C(=O)N4C([H])([H])C([H])([H])C([H])([H])C([H])(n5nc(-c6c([H])c([H])c(Oc7c([H])c([H])c(F)c([H])c7F)c([H])c6[H])c(C(=O)N([H])[H])c5N([H])[H])C4([H])[H])C([H])([H])C([H])([H])C3([H])[H])c([H])c([H])c2C1([H])[H]

>  <smiles>  (53) 
[H]c1c([H])c([H])c2c(c1[H])C([H])([H])C([H])([H])C([H])([H])C2([H])N([H])C(=O)C1([H])N(C(=O)C([H])(N([H])C(=O)C([H])(N([H])C([H])([H])[H])C([H])([H])[H])C(C([H])([H])[H])(C([H])([H])[H])C([H])([H])[H])C([H])([H])c2c([H])c(OC([H])([H])C([H])([H])C([H])([H])C([H])([H])C([H])([H])C([H])([H])C([H])([H])[N+]3([H])C([H])([H])C([H])([H])N(C(=O)N4C([H])([H])C([H])([H])C([H])([H])C([H])(n5nc(-c6c([H])c([H])c(Oc7c([H])c([H])c(F)c([H])c7F)c([H])c6[H])c(C(=O)N([H])[H])c5N([H])[H])C4([H])[H])C([H])([H])C([H])([H])C3([H])[H])c([H])c([H])c2C1([H])[H]

$$$$
53:0:0
     RDKit          3D

 92 99  0  0  1  0  0  0  0  0999 V2000
  -27.8920  -22.7930   22.1680 C   0  0  0  0  0  0  0  0  0  0  0  0
  -27.6060  -24.0710   21.8910 N   0  0  0  0  0  0  0  0  0  0  0  0
  -28.7950  -22.4760   22.9420 O   0  0  0  0  0  0  0  0  0  0  0  0
  -26.7970  -24.2680   21.3140 H   0  0  0  0  0  0  0  0  0  0  0  0
  -27.0510  -21.7160   21.4790 C   0  0  0  0  0  2  0  0  0  0  0  0
  -27.8330  -20.8710   20.4520 C   0  0  0  0  0  2  0  0  0  0  0  0
  -29.1000  -20.1890   21.0050 C   0  0  0  0  0  2  0  0  0  0  0  0
  -29.4280  -18.8850   20.2770 C   0  0  0  0  0  2  0  0  0  0  0  0
  -30.6280  -18.1400   20.8830 C   0  0  0  0  0  2  0  0  0  0  0  0
  -30.5530  -16.6530   20.5210 C   0  0  0  0  0  2  0  0  0  0  0  0
  -32.1630  -14.8250   20.3690 C   0  0  0  0  0  0  0  0  0  0  0  0
  -31.7750  -12.5120   19.5990 C   0  0  0  0  0  2  0  0  0  0  0  0
  -30.8830  -12.4770   18.3420 C   0  0  0  0  0  2  0  0  0  0  0  0
  -29.3900  -12.4930   18.7210 C   0  0  0  0  0  2  0  0  0  0  0  0
  -29.0500  -13.6030   19.7490 C   0  0  0  0  0  3  0  0  0  0  0  0
  -30.0440  -13.5550   20.9330 C   0  0  0  0  0  2  0  0  0  0  0  0
  -31.4060  -13.6950   20.3900 N   0  0  0  0  0  0  0  0  0  0  0  0
  -33.2710  -14.8860   19.8310 O   0  0  0  0  0  0  0  0  0  0  0  0
  -31.6910  -15.8910   21.0290 N   0  0  0  0  0  0  0  0  0  0  0  0
  -32.4420  -16.4950   21.3300 H   0  0  0  0  0  0  0  0  0  0  0  0
  -26.7600  -14.5260   20.4660 C   0  0  0  0  0  0  0  0  0  0  0  0
  -25.5790  -13.9010   20.7680 C   0  0  0  0  0  0  0  0  0  0  0  0
  -25.8330  -12.5000   20.6500 C   0  0  0  0  0  0  0  0  0  0  0  0
  -27.6640  -13.5110   20.1940 N   0  0  0  0  0  0  0  0  0  0  0  0
  -27.1080  -12.2850   20.3600 N   0  0  0  0  0  0  0  0  0  0  0  0
  -24.9220  -11.3530   20.7480 C   0  0  0  0  0  0  0  0  0  0  0  0
  -25.1930  -10.2700   21.6130 C   0  0  0  0  0  3  0  0  0  0  0  0
  -24.2960   -9.1830   21.7020 C   0  0  0  0  0  3  0  0  0  0  0  0
  -23.1130   -9.1750   20.9260 C   0  0  0  0  0  0  0  0  0  0  0  0
  -22.8600  -10.2440   20.0470 C   0  0  0  0  0  3  0  0  0  0  0  0
  -23.7560  -11.3220   19.9560 C   0  0  0  0  0  3  0  0  0  0  0  0
  -22.1950   -8.1530   20.9280 O   0  0  0  0  0  0  0  0  0  0  0  0
  -21.9950   -7.3680   22.0350 C   0  0  0  0  0  0  0  0  0  0  0  0
  -21.6390   -7.9200   23.2850 C   0  0  0  0  0  3  0  0  0  0  0  0
  -21.3770   -7.0710   24.3790 C   0  0  0  0  0  3  0  0  0  0  0  0
  -21.4630   -5.6730   24.2220 C   0  0  0  0  0  0  0  0  0  0  0  0
  -21.8110   -5.1230   22.9760 C   0  0  0  0  0  3  0  0  0  0  0  0
  -22.0750   -5.9690   21.8860 C   0  0  0  0  0  0  0  0  0  0  0  0
  -22.3900   -5.4340   20.6810 F   0  0  0  0  0  0  0  0  0  0  0  0
  -21.2030   -4.8570   25.2710 F   0  0  0  0  0  0  0  0  0  0  0  0
  -24.2600  -14.5640   21.0520 C   0  0  0  0  0  0  0  0  0  0  0  0
  -23.4270  -13.9400   21.8750 N   0  0  0  0  0  0  0  0  0  0  0  0
  -23.9840  -15.6650   20.5800 O   0  0  0  0  0  0  0  0  0  0  0  0
  -23.6640  -13.0510   22.2890 H   0  0  0  0  0  0  0  0  0  0  0  0
  -22.5360  -14.3610   22.0940 H   0  0  0  0  0  0  0  0  0  0  0  0
  -27.1340  -15.8640   20.3820 N   0  0  0  0  0  0  0  0  0  0  0  0
  -26.4780  -16.6210   20.5360 H   0  0  0  0  0  0  0  0  0  0  0  0
  -28.0570  -16.1840   20.1220 H   0  0  0  0  0  0  0  0  0  0  0  0
  -28.3820  -25.1990   22.3970 C   0  0  0  0  0  2  0  0  0  0  0  0
  -29.7220  -25.3570   21.6450 C   0  0  0  0  0  2  0  0  0  0  0  0
  -29.5500  -25.9590   20.2520 C   0  0  0  0  0  2  0  0  0  0  0  0
  -29.3770  -27.3610   20.4450 O   0  0  0  0  0  0  0  0  0  0  0  0
  -24.8580  -31.9720   23.4170 C   0  0  0  0  0  0  0  0  0  0  0  0
  -28.1140  -27.9050   20.4110 C   0  0  0  0  0  0  0  0  0  0  0  0
  -23.9170  -30.5390   21.6370 C   0  0  0  0  0  3  0  0  0  0  0  0
  -25.6020  -29.1870   20.3000 C   0  0  0  0  0  0  0  0  0  0  0  0
  -26.4130  -31.1090   21.6750 C   0  0  0  0  0  2  0  0  0  0  0  0
  -26.6610  -29.7800   20.9990 C   0  0  0  0  0  0  0  0  0  0  0  0
  -27.9150  -29.1440   21.0580 C   0  0  0  0  0  3  0  0  0  0  0  0
  -27.0340  -27.3180   19.7100 C   0  0  0  0  0  3  0  0  0  0  0  0
  -25.7800  -27.9500   19.6630 C   0  0  0  0  0  3  0  0  0  0  0  0
  -24.2970  -29.9410   20.2590 C   0  0  0  0  0  2  0  0  0  0  0  0
  -25.0740  -31.2240   22.3020 N   0  0  0  0  0  0  0  0  0  0  0  0
  -23.7160  -32.1320   23.8700 O   0  0  0  0  0  0  0  0  0  0  0  0
  -23.2860  -29.4260   22.5030 C   0  0  0  0  0  0  0  0  0  0  0  0
  -21.9910  -29.1580   22.2760 N   0  0  0  0  0  0  0  0  0  0  0  0
  -23.9600  -28.8110   23.3330 O   0  0  0  0  0  0  0  0  0  0  0  0
  -21.5080  -29.7140   21.5850 H   0  0  0  0  0  0  0  0  0  0  0  0
  -18.6710  -27.7530   22.5150 C   0  0  0  0  0  0  0  0  0  0  0  0
  -21.1930  -28.1310   22.9460 C   0  0  0  0  0  3  0  0  0  0  0  0
  -21.4100  -26.7460   22.2930 C   0  0  0  0  0  2  0  0  0  0  0  0
  -20.3820  -26.4270   21.2020 C   0  0  0  0  0  2  0  0  0  0  0  0
  -18.9620  -26.4580   21.7750 C   0  0  0  0  0  2  0  0  0  0  0  0
  -19.7210  -28.5470   23.0500 C   0  0  0  0  0  0  0  0  0  0  0  0
  -19.4010  -29.7610   23.6950 C   0  0  0  0  0  3  0  0  0  0  0  0
  -18.0630  -30.1820   23.8170 C   0  0  0  0  0  3  0  0  0  0  0  0
  -17.0260  -29.3840   23.3020 C   0  0  0  0  0  3  0  0  0  0  0  0
  -17.3310  -28.1720   22.6570 C   0  0  0  0  0  3  0  0  0  0  0  0
  -26.0290  -32.6840   24.1630 C   0  0  0  0  0  3  0  0  0  0  0  0
  -26.4440  -31.9590   25.5020 C   0  0  1  0  0  0  0  0  0  0  0  0
  -25.2520  -31.6340   26.4300 C   0  0  0  0  0  1  0  0  0  0  0  0
  -27.1810  -30.6330   25.2010 C   0  0  0  0  0  1  0  0  0  0  0  0
  -27.4330  -32.8470   26.2930 C   0  0  0  0  0  1  0  0  0  0  0  0
  -25.6070  -34.0650   24.4290 N   0  0  0  0  0  0  0  0  0  0  0  0
  -25.9550  -35.1230   23.6830 C   0  0  0  0  0  0  0  0  0  0  0  0
  -26.7370  -35.0450   22.7320 O   0  0  0  0  0  0  0  0  0  0  0  0
  -24.9310  -34.2000   25.1660 H   0  0  0  0  0  0  0  0  0  0  0  0
  -24.1650  -36.7930   23.1110 C   0  0  0  0  0  1  0  0  0  0  0  0
  -25.3400  -36.4880   24.0530 C   0  0  0  0  0  3  0  0  0  0  0  0
  -27.3340  -37.5110   25.0550 C   0  0  0  0  0  1  0  0  0  0  0  0
  -26.3120  -37.6020   24.0150 N   0  0  0  0  0  0  0  0  0  0  0  0
  -25.8390  -38.4960   24.1120 H   0  0  0  0  0  0  0  0  0  0  0  0
  1  3  2  0
  2  1  1  0
  2 49  1  0
  4  2  1  0
  5  1  1  0
  6  7  1  0
  6  5  1  0
  8  9  1  0
  8  7  1  0
 10  9  1  0
 10 19  1  0
 11 17  1  0
 11 19  1  0
 12 17  1  0
 13 14  1  0
 13 12  1  0
 15 14  1  0
 15 24  1  0
 15 16  1  0
 17 16  1  0
 18 11  2  0
 19 20  1  0
 21 22  2  0
 22 41  1  0
 23 26  1  0
 23 22  1  0
 24 25  1  0
 24 21  1  0
 25 23  2  0
 26 27  1  0
 27 28  2  0
 29 32  1  0
 29 28  1  0
 30 29  2  0
 31 30  1  0
 31 26  2  0
 32 33  1  0
 33 34  1  0
 34 35  2  0
 36 35  1  0
 36 40  1  0
 37 36  2  0
 38 33  2  0
 38 37  1  0
 39 38  1  0
 41 42  1  0
 42 45  1  0
 42 44  1  0
 43 41  2  0
 46 21  1  0
 46 47  1  0
 48 46  1  0
 50 49  1  0
 51 52  1  0
 51 50  1  0
 53 64  2  0
 54 52  1  0
 54 59  1  0
 55 63  1  0
 55 65  1  0
 56 58  1  0
 57 63  1  0
 58 59  2  0
 58 57  1  0
 60 54  2  0
 61 60  1  0
 61 56  2  0
 62 56  1  0
 62 55  1  0
 63 53  1  0
 65 67  2  0
 66 65  1  0
 68 66  1  0
 69 78  2  0
 69 74  1  0
 70 66  1  0
 70 74  1  0
 71 70  1  0
 72 73  1  0
 72 71  1  0
 73 69  1  0
 74 75  2  0
 75 76  1  0
 77 76  2  0
 78 77  1  0
 79 53  1  0
 79 84  1  0
 79 80  1  0
 80 83  1  1
 80 81  1  0
 82 80  1  0
 84 87  1  0
 85 89  1  0
 85 84  1  0
 86 85  2  0
 89 88  1  0
 91 89  1  0
 91 92  1  0
 91 90  1  0
M  ISO  4  11 100  19 100  51 101  52 101
M  END
>  <TORSDO>  (54) 
F 25

>  <SCORE>  (54) 
-8.802

>  <name>  (54) 
53

>  <ligand_id>  (54) 
53

>  <original_smiles>  (54) 
[H]c1c([H])c([H])c2c(c1[H])C([H])([H])C([H])([H])C([H])([H])C2([H])N([H])C(=O)C1([H])N(C(=O)C([H])(N([H])C(=O)C([H])(N([H])C([H])([H])[H])C([H])([H])[H])C(C([H])([H])[H])(C([H])([H])[H])C([H])([H])[H])C([H])([H])c2c([H])c(OC([H])([H])C([H])([H])C([H])([H])N([H])C(=O)C([H])([H])C([H])([H])C([H])([H])C([H])([H])C([H])([H])C([H])([H])N([H])C(=O)N3C([H])([H])C([H])([H])C([H])([H])C([H])(n4nc(-c5c([H])c([H])c(Oc6c([H])c([H])c(F)c([H])c6F)c([H])c5[H])c(C(=O)N([H])[H])c4N([H])[H])C3([H])[H])c([H])c([H])c2C1([H])[H]

>  <smiles>  (54) 
[H]c1c([H])c([H])c2c(c1[H])C([H])([H])C([H])([H])C([H])([H])C2([H])N([H])C(=O)C1([H])N(C(=O)C([H])(N([H])C(=O)C([H])(N([H])C([H])([H])[H])C([H])([H])[H])C(C([H])([H])[H])(C([H])([H])[H])C([H])([H])[H])C([H])([H])c2c([H])c(OC([H])([H])C([H])([H])C([H])([H])N([H])C(=O)C([H])([H])C([H])([H])C([H])([H])C([H])([H])C([H])([H])C([H])([H])N([H])C(=O)N3C([H])([H])C([H])([H])C([H])([H])C([H])(n4nc(-c5c([H])c([H])c(Oc6c([H])c([H])c(F)c([H])c6F)c([H])c5[H])c(C(=O)N([H])[H])c4N([H])[H])C3([H])[H])c([H])c([H])c2C1([H])[H]

$$$$
54:0:0
     RDKit          3D

 98106  0  0  1  0  0  0  0  0999 V2000
  -29.7250  -19.6970   21.4820 N   0  0  0  0  0  4  0  0  0  0  0  0
  -30.4980  -20.2480   21.1460 H   0  0  0  0  0  0  0  0  0  0  0  0
  -29.9700  -19.4200   22.4200 H   0  0  0  0  0  0  0  0  0  0  0  0
  -31.4060  -15.0750   20.8290 C   0  0  0  0  0  0  0  0  0  0  0  0
  -31.1950  -12.8130   19.9040 C   0  0  0  0  0  2  0  0  0  0  0  0
  -30.4080  -12.8750   18.5760 C   0  0  0  0  0  2  0  0  0  0  0  0
  -28.8890  -12.8270   18.8330 C   0  0  0  0  0  2  0  0  0  0  0  0
  -28.4140  -13.7860   19.9590 C   0  0  0  0  0  3  0  0  0  0  0  0
  -29.3310  -13.7040   21.2000 C   0  0  0  0  0  2  0  0  0  0  0  0
  -30.7120  -13.9110   20.7510 N   0  0  0  0  0  0  0  0  0  0  0  0
  -32.6360  -15.1240   20.7870 O   0  0  0  0  0  0  0  0  0  0  0  0
  -31.1120  -16.5840   19.0210 C   0  0  0  0  0  2  0  0  0  0  0  0
  -30.6020  -17.3560   21.2450 C   0  0  0  0  0  2  0  0  0  0  0  0
  -30.0150  -17.4310   18.3540 C   0  0  0  0  0  3  0  0  0  0  0  0
  -29.6120  -18.4360   20.6920 C   0  0  0  0  0  3  0  0  0  0  0  0
  -29.8750  -18.7160   19.1890 C   0  0  0  0  0  3  0  0  0  0  0  0
  -30.7190  -16.1610   20.3820 N   0  0  0  0  0  0  0  0  0  0  0  0
  -28.8920  -19.4390   18.6620 F   0  0  0  0  0  0  0  0  0  0  0  0
  -25.9690  -14.4620   20.3750 C   0  0  0  0  0  0  0  0  0  0  0  0
  -24.8470  -13.7240   20.6380 C   0  0  0  0  0  0  0  0  0  0  0  0
  -25.2780  -12.3630   20.7060 C   0  0  0  0  0  0  0  0  0  0  0  0
  -27.0130  -13.5550   20.2970 N   0  0  0  0  0  0  0  0  0  0  0  0
  -26.5950  -12.2900   20.5590 N   0  0  0  0  0  0  0  0  0  0  0  0
  -24.5070  -11.1210   20.8420 C   0  0  0  0  0  0  0  0  0  0  0  0
  -24.8270  -10.1580   21.8230 C   0  0  0  0  0  3  0  0  0  0  0  0
  -24.0590   -8.9810   21.9480 C   0  0  0  0  0  3  0  0  0  0  0  0
  -22.9570   -8.7590   21.0870 C   0  0  0  0  0  0  0  0  0  0  0  0
  -22.6580   -9.7090   20.0950 C   0  0  0  0  0  3  0  0  0  0  0  0
  -23.4280  -10.8780   19.9690 C   0  0  0  0  0  3  0  0  0  0  0  0
  -22.1710   -7.6330   21.1180 O   0  0  0  0  0  0  0  0  0  0  0  0
  -21.9670   -6.9290   22.2780 C   0  0  0  0  0  0  0  0  0  0  0  0
  -21.4290   -7.5360   23.4340 C   0  0  0  0  0  3  0  0  0  0  0  0
  -21.1720   -6.7600   24.5820 C   0  0  0  0  0  3  0  0  0  0  0  0
  -21.4410   -5.3780   24.5740 C   0  0  0  0  0  0  0  0  0  0  0  0
  -21.9710   -4.7710   23.4220 C   0  0  0  0  0  3  0  0  0  0  0  0
  -22.2300   -5.5430   22.2760 C   0  0  0  0  0  0  0  0  0  0  0  0
  -22.7200   -4.9480   21.1620 F   0  0  0  0  0  0  0  0  0  0  0  0
  -21.1870   -4.6320   25.6730 F   0  0  0  0  0  0  0  0  0  0  0  0
  -23.4380  -14.2350   20.7210 C   0  0  0  0  0  0  0  0  0  0  0  0
  -22.6010  -13.5980   21.5310 N   0  0  0  0  0  0  0  0  0  0  0  0
  -23.0850  -15.2380   20.1020 O   0  0  0  0  0  0  0  0  0  0  0  0
  -22.8970  -12.7890   22.0560 H   0  0  0  0  0  0  0  0  0  0  0  0
  -21.6510  -13.9270   21.6310 H   0  0  0  0  0  0  0  0  0  0  0  0
  -26.1850  -15.8210   20.1680 N   0  0  0  0  0  0  0  0  0  0  0  0
  -25.4200  -16.4860   20.1420 H   0  0  0  0  0  0  0  0  0  0  0  0
  -27.0660  -16.2130   19.8680 H   0  0  0  0  0  0  0  0  0  0  0  0
  -30.3290  -17.7750   16.8720 C   0  0  0  0  0  2  0  0  0  0  0  0
  -30.7610  -16.6190   16.0630 N   0  0  0  0  0  4  0  0  0  0  0  0
  -31.6470  -16.2620   16.3730 H   0  0  0  0  0  0  0  0  0  0  0  0
  -30.8790  -16.9110   15.1080 H   0  0  0  0  0  0  0  0  0  0  0  0
  -30.0790  -15.8810   16.0740 H   0  0  0  0  0  0  0  0  0  0  0  0
  -28.5240  -20.5610   21.6390 C   0  0  0  0  0  2  0  0  0  0  0  0
  -28.1830  -21.4960   20.4510 C   0  0  0  0  0  2  0  0  0  0  0  0
  -29.2030  -22.6060   20.0800 C   0  0  0  0  0  2  0  0  0  0  0  0
  -29.2750  -23.8110   21.0480 C   0  0  0  0  0  2  0  0  0  0  0  0
  -29.7130  -25.1240   20.3520 C   0  0  0  0  0  2  0  0  0  0  0  0
  -29.6730  -26.3640   21.2770 C   0  0  0  0  0  2  0  0  0  0  0  0
  -29.6380  -27.6150   20.5710 O   0  0  0  0  0  0  0  0  0  0  0  0
  -24.9230  -31.9570   23.6720 C   0  0  0  0  0  0  0  0  0  0  0  0
  -28.3950  -28.2020   20.5150 C   0  0  0  0  0  0  0  0  0  0  0  0
  -24.0620  -30.5670   21.8150 C   0  0  0  0  0  3  0  0  0  0  0  0
  -25.8270  -29.3710   20.4160 C   0  0  0  0  0  0  0  0  0  0  0  0
  -26.5190  -31.2730   21.8850 C   0  0  0  0  0  2  0  0  0  0  0  0
  -26.8490  -29.9880   21.1500 C   0  0  0  0  0  0  0  0  0  0  0  0
  -28.1370  -29.4110   21.1990 C   0  0  0  0  0  3  0  0  0  0  0  0
  -27.3610  -27.5990   19.7700 C   0  0  0  0  0  3  0  0  0  0  0  0
  -26.0780  -28.1750   19.7220 C   0  0  0  0  0  3  0  0  0  0  0  0
  -24.4760  -30.0500   20.4120 C   0  0  0  0  0  2  0  0  0  0  0  0
  -25.1790  -31.2760   22.5190 N   0  0  0  0  0  0  0  0  0  0  0  0
  -23.7750  -32.0340   24.1290 O   0  0  0  0  0  0  0  0  0  0  0  0
  -23.4810  -29.3850   22.6250 C   0  0  0  0  0  0  0  0  0  0  0  0
  -22.2120  -29.0390   22.3520 N   0  0  0  0  0  0  0  0  0  0  0  0
  -24.1710  -28.7850   23.4540 O   0  0  0  0  0  0  0  0  0  0  0  0
  -21.7090  -29.5860   21.6660 H   0  0  0  0  0  0  0  0  0  0  0  0
  -19.0040  -27.3790   22.4300 C   0  0  0  0  0  0  0  0  0  0  0  0
  -21.4710  -27.9350   22.9610 C   0  0  0  0  0  3  0  0  0  0  0  0
  -21.8150  -26.5910   22.2770 C   0  0  0  0  0  2  0  0  0  0  0  0
  -20.8540  -26.2270   21.1420 C   0  0  0  0  0  2  0  0  0  0  0  0
  -19.4160  -26.1330   21.6640 C   0  0  0  0  0  2  0  0  0  0  0  0
  -19.9690  -28.2330   23.0250 C   0  0  0  0  0  0  0  0  0  0  0  0
  -19.5340  -29.3970   23.6950 C   0  0  0  0  0  3  0  0  0  0  0  0
  -18.1660  -29.7110   23.7770 C   0  0  0  0  0  3  0  0  0  0  0  0
  -17.2120  -28.8540   23.2000 C   0  0  0  0  0  3  0  0  0  0  0  0
  -17.6320  -27.6890   22.5330 C   0  0  0  0  0  3  0  0  0  0  0  0
  -26.0560  -32.6880   24.4580 C   0  0  0  0  0  3  0  0  0  0  0  0
  -25.6010  -34.0600   24.7160 N   0  0  0  0  0  0  0  0  0  0  0  0
  -25.9640  -35.1300   23.9950 C   0  0  0  0  0  0  0  0  0  0  0  0
  -26.7850  -35.0710   23.0760 O   0  0  0  0  0  0  0  0  0  0  0  0
  -24.8830  -34.1730   25.4170 H   0  0  0  0  0  0  0  0  0  0  0  0
  -24.1780  -36.7810   23.3590 C   0  0  0  0  0  1  0  0  0  0  0  0
  -25.3110  -36.4790   24.3520 C   0  0  0  0  0  3  0  0  0  0  0  0
  -27.2290  -37.5270   25.4700 C   0  0  0  0  0  1  0  0  0  0  0  0
  -26.2680  -37.6070   24.3730 N   0  0  0  0  0  0  0  0  0  0  0  0
  -25.7770  -38.4940   24.4480 H   0  0  0  0  0  0  0  0  0  0  0  0
  -26.4470  -31.9650   25.8050 C   0  0  1  0  0  0  0  0  0  0  0  0
  -25.2320  -31.6230   26.6980 C   0  0  0  0  0  1  0  0  0  0  0  0
  -27.2060  -30.6490   25.5180 C   0  0  0  0  0  1  0  0  0  0  0  0
  -27.4070  -32.8590   26.6230 C   0  0  0  0  0  1  0  0  0  0  0  0
  1 52  1  0
  1  3  1  0
  2  1  1  0
  5 10  1  0
  6  7  1  0
  6  5  1  0
  8  7  1  0
  8 22  1  0
  8  9  1  0
 10  4  1  0
 10  9  1  0
 11  4  2  0
 12 17  1  0
 14 47  1  0
 14 12  1  0
 14 16  1  0
 15 13  1  0
 15  1  1  0
 16 18  1  0
 16 15  1  0
 17  4  1  0
 17 13  1  0
 19 20  2  0
 20 21  1  0
 20 39  1  0
 21 24  1  0
 22 19  1  0
 22 23  1  0
 23 21  2  0
 24 25  1  0
 25 26  2  0
 27 30  1  0
 27 26  1  0
 28 27  2  0
 29 28  1  0
 29 24  2  0
 30 31  1  0
 31 32  1  0
 32 33  2  0
 34 33  1  0
 34 38  1  0
 35 34  2  0
 36 31  2  0
 36 35  1  0
 37 36  1  0
 39 40  1  0
 40 43  1  0
 40 42  1  0
 41 39  2  0
 44 19  1  0
 45 44  1  0
 46 44  1  0
 48 51  1  0
 48 49  1  0
 48 47  1  0
 50 48  1  0
 53 52  1  0
 54 53  1  0
 54 55  1  0
 56 55  1  0
 56 57  1  0
 58 57  1  0
 59 70  2  0
 60 58  1  0
 60 65  1  0
 61 69  1  0
 61 71  1  0
 62 64  1  0
 63 69  1  0
 64 65  2  0
 64 63  1  0
 66 60  2  0
 67 66  1  0
 67 62  2  0
 68 62  1  0
 68 61  1  0
 69 59  1  0
 71 73  2  0
 72 71  1  0
 74 72  1  0
 75 84  2  0
 75 80  1  0
 76 72  1  0
 76 80  1  0
 77 76  1  0
 78 79  1  0
 78 77  1  0
 79 75  1  0
 80 81  2  0
 81 82  1  0
 83 82  2  0
 84 83  1  0
 85 59  1  0
 85 86  1  0
 85 95  1  0
 86 89  1  0
 87 91  1  0
 87 86  1  0
 88 87  2  0
 91 90  1  0
 91 93  1  0
 93 94  1  0
 93 92  1  0
 95 98  1  1
 95 96  1  0
 97 95  1  0
M  ISO  4   4 100  17 100  57 101  58 101
M  END
>  <TORSDO>  (55) 
F 24

>  <SCORE>  (55) 
-8.577

>  <name>  (55) 
54

>  <ligand_id>  (55) 
54

>  <original_smiles>  (55) 
[H]c1c([H])c([H])c2c(c1[H])C([H])([H])C([H])([H])C([H])([H])C2([H])N([H])C(=O)C1([H])N(C(=O)C([H])(N([H])C(=O)C([H])(N([H])C([H])([H])[H])C([H])([H])[H])C(C([H])([H])[H])(C([H])([H])[H])C([H])([H])[H])C([H])([H])c2c([H])c(OC([H])([H])C([H])([H])C([H])([H])C([H])([H])C([H])([H])C([H])([H])[N+]([H])([H])C3([H])C([H])([H])N(C(=O)N4C([H])([H])C([H])([H])C([H])([H])C([H])(n5nc(-c6c([H])c([H])c(Oc7c([H])c([H])c(F)c([H])c7F)c([H])c6[H])c(C(=O)N([H])[H])c5N([H])[H])C4([H])[H])C([H])([H])C([H])(C([H])([H])[N+]([H])([H])[H])C3([H])F)c([H])c([H])c2C1([H])[H]

>  <smiles>  (55) 
[H]c1c([H])c([H])c2c(c1[H])C([H])([H])C([H])([H])C([H])([H])C2([H])N([H])C(=O)C1([H])N(C(=O)C([H])(N([H])C(=O)C([H])(N([H])C([H])([H])[H])C([H])([H])[H])C(C([H])([H])[H])(C([H])([H])[H])C([H])([H])[H])C([H])([H])c2c([H])c(OC([H])([H])C([H])([H])C([H])([H])C([H])([H])C([H])([H])C([H])([H])[N+]([H])([H])C3([H])C([H])([H])N(C(=O)N4C([H])([H])C([H])([H])C([H])([H])C([H])(n5nc(-c6c([H])c([H])c(Oc7c([H])c([H])c(F)c([H])c7F)c([H])c6[H])c(C(=O)N([H])[H])c5N([H])[H])C4([H])[H])C([H])([H])C([H])(C([H])([H])[N+]([H])([H])[H])C3([H])F)c([H])c([H])c2C1([H])[H]

$$$$
55:0:0
     RDKit          3D

 94102  0  0  1  0  0  0  0  0999 V2000
  -30.2400  -20.7170   20.1760 C   0  0  0  0  0  2  0  0  0  0  0  0
  -29.6300  -21.9420   20.7610 N   0  0  0  0  0  4  0  0  0  0  0  0
  -30.0620  -22.1220   21.6540 H   0  0  0  0  0  0  0  0  0  0  0  0
  -28.6510  -21.7790   20.9250 H   0  0  0  0  0  0  0  0  0  0  0  0
  -29.7520  -23.1500   19.8970 C   0  0  0  0  0  2  0  0  0  0  0  0
  -29.3190  -24.4790   20.5750 C   0  0  0  0  0  2  0  0  0  0  0  0
  -28.5670  -25.4280   19.6120 C   0  0  0  0  0  2  0  0  0  0  0  0
  -28.4240  -26.7390   20.1860 O   0  0  0  0  0  0  0  0  0  0  0  0
  -24.5810  -31.8800   23.2380 C   0  0  0  0  0  0  0  0  0  0  0  0
  -27.2230  -27.4280   20.1410 C   0  0  0  0  0  0  0  0  0  0  0  0
  -23.3750  -30.4810   21.5930 C   0  0  0  0  0  3  0  0  0  0  0  0
  -24.8220  -28.9490   20.1580 C   0  0  0  0  0  0  0  0  0  0  0  0
  -25.8990  -30.8320   21.4000 C   0  0  0  0  0  2  0  0  0  0  0  0
  -25.9800  -29.4630   20.7550 C   0  0  0  0  0  0  0  0  0  0  0  0
  -27.1720  -28.7050   20.7540 C   0  0  0  0  0  3  0  0  0  0  0  0
  -26.0430  -26.9430   19.5240 C   0  0  0  0  0  3  0  0  0  0  0  0
  -24.8510  -27.6860   19.5480 C   0  0  0  0  0  3  0  0  0  0  0  0
  -23.5790  -29.8090   20.2090 C   0  0  0  0  0  2  0  0  0  0  0  0
  -24.6360  -31.0790   22.1360 N   0  0  0  0  0  0  0  0  0  0  0  0
  -23.5000  -32.1560   23.7770 O   0  0  0  0  0  0  0  0  0  0  0  0
  -22.7230  -29.4570   22.5490 C   0  0  0  0  0  0  0  0  0  0  0  0
  -21.3990  -29.2770   22.4210 N   0  0  0  0  0  0  0  0  0  0  0  0
  -23.4060  -28.8280   23.3600 O   0  0  0  0  0  0  0  0  0  0  0  0
  -20.9100  -29.8350   21.7350 H   0  0  0  0  0  0  0  0  0  0  0  0
  -18.0230  -28.0880   22.9050 C   0  0  0  0  0  0  0  0  0  0  0  0
  -20.5800  -28.3410   23.1890 C   0  0  0  0  0  3  0  0  0  0  0  0
  -20.6830  -26.9110   22.6100 C   0  0  0  0  0  2  0  0  0  0  0  0
  -19.5820  -26.5910   21.5910 C   0  0  0  0  0  2  0  0  0  0  0  0
  -18.1990  -26.7390   22.2310 C   0  0  0  0  0  2  0  0  0  0  0  0
  -19.1420  -28.8470   23.3410 C   0  0  0  0  0  0  0  0  0  0  0  0
  -18.9250  -30.1120   23.9290 C   0  0  0  0  0  3  0  0  0  0  0  0
  -17.6230  -30.6170   24.0920 C   0  0  0  0  0  3  0  0  0  0  0  0
  -16.5160  -29.8540   23.6780 C   0  0  0  0  0  3  0  0  0  0  0  0
  -16.7180  -28.5930   23.0880 C   0  0  0  0  0  3  0  0  0  0  0  0
  -25.8710  -32.5060   23.8560 C   0  0  0  0  0  3  0  0  0  0  0  0
  -25.5660  -33.9030   24.1910 N   0  0  0  0  0  0  0  0  0  0  0  0
  -25.8940  -34.9550   23.4280 C   0  0  0  0  0  0  0  0  0  0  0  0
  -26.5590  -34.8520   22.3930 O   0  0  0  0  0  0  0  0  0  0  0  0
  -24.9800  -34.0560   24.9980 H   0  0  0  0  0  0  0  0  0  0  0  0
  -24.1600  -36.7470   23.0870 C   0  0  0  0  0  1  0  0  0  0  0  0
  -25.4070  -36.3420   23.8900 C   0  0  0  0  0  3  0  0  0  0  0  0
  -27.5410  -37.2290   24.7140 C   0  0  0  0  0  1  0  0  0  0  0  0
  -26.4360  -37.3950   23.7730 N   0  0  0  0  0  0  0  0  0  0  0  0
  -26.0280  -38.3110   23.9320 H   0  0  0  0  0  0  0  0  0  0  0  0
  -26.3920  -31.7260   25.1250 C   0  0  1  0  0  0  0  0  0  0  0  0
  -25.3050  -31.4850   26.1970 C   0  0  0  0  0  1  0  0  0  0  0  0
  -26.9710  -30.3510   24.7220 C   0  0  0  0  0  1  0  0  0  0  0  0
  -27.5490  -32.5110   25.7870 C   0  0  0  0  0  1  0  0  0  0  0  0
  -29.7830  -19.3790   20.8410 C   0  0  0  0  0  2  0  0  0  0  0  0
  -30.6590  -14.5580   20.4220 C   0  0  0  0  0  0  0  0  0  0  0  0
  -30.3850  -12.3590   19.3510 C   0  0  0  0  0  2  0  0  0  0  0  0
  -29.4390  -12.4990   18.1390 C   0  0  0  0  0  2  0  0  0  0  0  0
  -27.9670  -12.3460   18.5760 C   0  0  0  0  0  2  0  0  0  0  0  0
  -27.6040  -13.2130   19.8100 C   0  0  0  0  0  3  0  0  0  0  0  0
  -28.6690  -13.0840   20.9230 C   0  0  0  0  0  2  0  0  0  0  0  0
  -29.9850  -13.3770   20.3330 N   0  0  0  0  0  0  0  0  0  0  0  0
  -31.8480  -14.6710   20.1160 O   0  0  0  0  0  0  0  0  0  0  0  0
  -30.4000  -16.8760   21.3250 C   0  0  0  0  0  2  0  0  0  0  0  0
  -29.1930  -16.2390   19.4650 C   0  0  0  0  0  2  0  0  0  0  0  0
  -30.5000  -18.0800   20.3300 C   0  0  0  0  0  3  0  0  0  0  0  0
  -30.0200  -17.4360   19.0120 C   0  0  0  0  0  3  0  0  0  0  0  0
  -29.9010  -15.6750   20.6170 N   0  0  0  0  0  0  0  0  0  0  0  0
  -25.2160  -13.8320   20.5200 C   0  0  0  0  0  0  0  0  0  0  0  0
  -24.1470  -13.0610   20.8870 C   0  0  0  0  0  0  0  0  0  0  0  0
  -24.6120  -11.7100   20.8700 C   0  0  0  0  0  0  0  0  0  0  0  0
  -26.2590  -12.9440   20.2990 N   0  0  0  0  0  0  0  0  0  0  0  0
  -25.9010  -11.6670   20.5710 N   0  0  0  0  0  0  0  0  0  0  0  0
  -23.8870  -10.4500   21.0630 C   0  0  0  0  0  0  0  0  0  0  0  0
  -24.3300   -9.4800   21.9880 C   0  0  0  0  0  3  0  0  0  0  0  0
  -23.6050   -8.2820   22.1690 C   0  0  0  0  0  3  0  0  0  0  0  0
  -22.4270   -8.0480   21.4200 C   0  0  0  0  0  0  0  0  0  0  0  0
  -22.0040   -9.0080   20.4830 C   0  0  0  0  0  3  0  0  0  0  0  0
  -22.7300  -10.1960   20.3000 C   0  0  0  0  0  3  0  0  0  0  0  0
  -21.6730   -6.9040   21.5120 O   0  0  0  0  0  0  0  0  0  0  0  0
  -21.6450   -6.1490   22.6580 C   0  0  0  0  0  0  0  0  0  0  0  0
  -21.2540   -6.6960   23.8990 C   0  0  0  0  0  3  0  0  0  0  0  0
  -21.1710   -5.8700   25.0370 C   0  0  0  0  0  3  0  0  0  0  0  0
  -21.4740   -4.4980   24.9360 C   0  0  0  0  0  0  0  0  0  0  0  0
  -21.8610   -3.9520   23.7000 C   0  0  0  0  0  3  0  0  0  0  0  0
  -21.9460   -4.7760   22.5630 C   0  0  0  0  0  0  0  0  0  0  0  0
  -22.2980   -4.2390   21.3690 F   0  0  0  0  0  0  0  0  0  0  0  0
  -21.3890   -3.7030   26.0270 F   0  0  0  0  0  0  0  0  0  0  0  0
  -22.7470  -13.5410   21.1470 C   0  0  0  0  0  0  0  0  0  0  0  0
  -22.0130  -12.8520   22.0140 N   0  0  0  0  0  0  0  0  0  0  0  0
  -22.3140  -14.5640   20.6190 O   0  0  0  0  0  0  0  0  0  0  0  0
  -22.3750  -12.0270   22.4670 H   0  0  0  0  0  0  0  0  0  0  0  0
  -21.0750  -13.1590   22.2300 H   0  0  0  0  0  0  0  0  0  0  0  0
  -25.3780  -15.2010   20.3360 N   0  0  0  0  0  0  0  0  0  0  0  0
  -24.6120  -15.8540   20.4610 H   0  0  0  0  0  0  0  0  0  0  0  0
  -26.2360  -15.6460   20.0430 H   0  0  0  0  0  0  0  0  0  0  0  0
  -29.3340  -18.2910   18.0240 N   0  0  0  0  0  4  0  0  0  0  0  0
  -28.5050  -18.7200   18.3910 H   0  0  0  0  0  0  0  0  0  0  0  0
  -29.0550  -17.7380   17.2310 H   0  0  0  0  0  0  0  0  0  0  0  0
  -29.9530  -18.9960   17.6680 H   0  0  0  0  0  0  0  0  0  0  0  0
  1  2  1  0
  1 49  1  0
  2  4  1  0
  2  3  1  0
  5  6  1  0
  5  2  1  0
  7  8  1  0
  7  6  1  0
  9 20  2  0
 10  8  1  0
 10 15  1  0
 11 19  1  0
 11 21  1  0
 12 18  1  0
 12 14  1  0
 13 19  1  0
 14 13  1  0
 15 14  2  0
 16 17  1  0
 16 10  2  0
 17 12  2  0
 18 11  1  0
 19  9  1  0
 21 23  2  0
 22 21  1  0
 24 22  1  0
 25 34  2  0
 25 30  1  0
 26 22  1  0
 26 30  1  0
 27 26  1  0
 28 29  1  0
 28 27  1  0
 29 25  1  0
 30 31  2  0
 31 32  1  0
 33 32  2  0
 34 33  1  0
 35  9  1  0
 35 36  1  0
 35 45  1  0
 36 39  1  0
 37 41  1  0
 37 36  1  0
 38 37  2  0
 41 40  1  0
 43 41  1  0
 43 44  1  0
 43 42  1  0
 45 48  1  1
 45 46  1  0
 47 45  1  0
 50 62  1  0
 51 56  1  0
 52 53  1  0
 52 51  1  0
 54 53  1  0
 54 66  1  0
 54 55  1  0
 56 50  1  0
 56 55  1  0
 57 50  2  0
 59 62  1  0
 60 49  1  0
 60 58  1  0
 61 91  1  0
 61 59  1  0
 61 60  1  0
 62 58  1  0
 63 64  2  0
 64 83  1  0
 65 64  1  0
 65 68  1  0
 66 63  1  0
 66 67  1  0
 67 65  2  0
 68 69  1  0
 69 70  2  0
 71 74  1  0
 71 70  1  0
 72 71  2  0
 73 72  1  0
 73 68  2  0
 74 75  1  0
 75 76  1  0
 76 77  2  0
 78 77  1  0
 78 82  1  0
 79 78  2  0
 80 75  2  0
 80 79  1  0
 81 80  1  0
 83 84  1  0
 84 87  1  0
 84 86  1  0
 85 83  2  0
 88 89  1  0
 88 63  1  0
 90 88  1  0
 91 92  1  0
 93 91  1  0
 94 91  1  0
M  ISO  4   7 101   8 101  50 100  62 100
M  END
>  <TORSDO>  (56) 
F 22

>  <SCORE>  (56) 
-13.397

>  <name>  (56) 
55

>  <ligand_id>  (56) 
55

>  <original_smiles>  (56) 
[H]c1c([H])c([H])c2c(c1[H])C([H])([H])C([H])([H])C([H])([H])C2([H])N([H])C(=O)C1([H])N(C(=O)C([H])(N([H])C(=O)C([H])(N([H])C([H])([H])[H])C([H])([H])[H])C(C([H])([H])[H])(C([H])([H])[H])C([H])([H])[H])C([H])([H])c2c([H])c(OC([H])([H])C([H])([H])C([H])([H])[N+]([H])([H])C([H])([H])C([H])([H])C3([H])C([H])([H])N(C(=O)N4C([H])([H])C([H])([H])C([H])([H])C([H])(n5nc(-c6c([H])c([H])c(Oc7c([H])c([H])c(F)c([H])c7F)c([H])c6[H])c(C(=O)N([H])[H])c5N([H])[H])C4([H])[H])C([H])([H])C3([H])[N+]([H])([H])[H])c([H])c([H])c2C1([H])[H]

>  <smiles>  (56) 
[H]c1c([H])c([H])c2c(c1[H])C([H])([H])C([H])([H])C([H])([H])C2([H])N([H])C(=O)C1([H])N(C(=O)C([H])(N([H])C(=O)C([H])(N([H])C([H])([H])[H])C([H])([H])[H])C(C([H])([H])[H])(C([H])([H])[H])C([H])([H])[H])C([H])([H])c2c([H])c(OC([H])([H])C([H])([H])C([H])([H])[N+]([H])([H])C([H])([H])C([H])([H])C3([H])C([H])([H])N(C(=O)N4C([H])([H])C([H])([H])C([H])([H])C([H])(n5nc(-c6c([H])c([H])c(Oc7c([H])c([H])c(F)c([H])c7F)c([H])c6[H])c(C(=O)N([H])[H])c5N([H])[H])C4([H])[H])C([H])([H])C3([H])[N+]([H])([H])[H])c([H])c([H])c2C1([H])[H]

$$$$
56:0:0
     RDKit          3D

 92100  0  0  1  0  0  0  0  0999 V2000
  -28.7240  -21.8600   19.5540 N   0  0  0  0  0  4  0  0  0  0  0  0
  -28.0040  -21.6990   18.8680 H   0  0  0  0  0  0  0  0  0  0  0  0
  -28.2830  -22.1710   20.4060 H   0  0  0  0  0  0  0  0  0  0  0  0
  -29.6230  -22.9250   19.0770 C   0  0  0  0  0  2  0  0  0  0  0  0
  -28.8630  -24.2370   18.8870 C   0  0  0  0  0  2  0  0  0  0  0  0
  -29.7960  -25.4420   18.7120 C   0  0  0  0  0  2  0  0  0  0  0  0
  -29.0100  -26.7530   18.7560 C   0  0  0  0  0  2  0  0  0  0  0  0
  -28.4440  -26.8590   20.0610 O   0  0  0  0  0  0  0  0  0  0  0  0
  -24.5750  -31.8990   23.2330 C   0  0  0  0  0  0  0  0  0  0  0  0
  -27.2490  -27.5260   20.1140 C   0  0  0  0  0  0  0  0  0  0  0  0
  -23.3720  -30.4860   21.5970 C   0  0  0  0  0  3  0  0  0  0  0  0
  -24.8300  -28.9560   20.1720 C   0  0  0  0  0  0  0  0  0  0  0  0
  -25.8880  -30.8720   21.3840 C   0  0  0  0  0  2  0  0  0  0  0  0
  -25.9800  -29.4990   20.7600 C   0  0  0  0  0  0  0  0  0  0  0  0
  -27.1900  -28.7810   20.7490 C   0  0  0  0  0  3  0  0  0  0  0  0
  -26.0850  -26.9720   19.5420 C   0  0  0  0  0  3  0  0  0  0  0  0
  -24.8710  -27.6850   19.5710 C   0  0  0  0  0  3  0  0  0  0  0  0
  -23.5800  -29.8030   20.2190 C   0  0  0  0  0  2  0  0  0  0  0  0
  -24.6310  -31.0990   22.1330 N   0  0  0  0  0  0  0  0  0  0  0  0
  -23.4960  -32.1680   23.7790 O   0  0  0  0  0  0  0  0  0  0  0  0
  -22.7300  -29.4660   22.5600 C   0  0  0  0  0  0  0  0  0  0  0  0
  -21.4020  -29.2880   22.4450 N   0  0  0  0  0  0  0  0  0  0  0  0
  -23.4200  -28.8330   23.3640 O   0  0  0  0  0  0  0  0  0  0  0  0
  -20.9050  -29.8500   21.7680 H   0  0  0  0  0  0  0  0  0  0  0  0
  -18.0330  -28.0980   22.9590 C   0  0  0  0  0  0  0  0  0  0  0  0
  -20.5910  -28.3490   23.2180 C   0  0  0  0  0  3  0  0  0  0  0  0
  -20.6870  -26.9190   22.6370 C   0  0  0  0  0  2  0  0  0  0  0  0
  -19.5780  -26.6030   21.6270 C   0  0  0  0  0  2  0  0  0  0  0  0
  -18.2010  -26.7490   22.2800 C   0  0  0  0  0  2  0  0  0  0  0  0
  -19.1550  -28.8560   23.3870 C   0  0  0  0  0  0  0  0  0  0  0  0
  -18.9430  -30.1190   23.9820 C   0  0  0  0  0  3  0  0  0  0  0  0
  -17.6410  -30.6250   24.1480 C   0  0  0  0  0  3  0  0  0  0  0  0
  -16.5330  -29.8640   23.7370 C   0  0  0  0  0  3  0  0  0  0  0  0
  -16.7310  -28.6020   23.1490 C   0  0  0  0  0  3  0  0  0  0  0  0
  -25.8610  -32.5360   23.8470 C   0  0  0  0  0  3  0  0  0  0  0  0
  -26.3880  -31.7660   25.1190 C   0  0  1  0  0  0  0  0  0  0  0  0
  -25.3000  -31.5180   26.1910 C   0  0  0  0  0  1  0  0  0  0  0  0
  -26.9690  -30.3900   24.7170 C   0  0  0  0  0  1  0  0  0  0  0  0
  -27.5410  -32.5600   25.7760 C   0  0  0  0  0  1  0  0  0  0  0  0
  -25.5500  -33.9340   24.1710 N   0  0  0  0  0  0  0  0  0  0  0  0
  -25.8870  -34.9830   23.4080 C   0  0  0  0  0  0  0  0  0  0  0  0
  -26.5610  -34.8760   22.3790 O   0  0  0  0  0  0  0  0  0  0  0  0
  -24.9410  -34.0950   24.9600 H   0  0  0  0  0  0  0  0  0  0  0  0
  -24.1550  -36.7680   23.0480 C   0  0  0  0  0  1  0  0  0  0  0  0
  -25.3980  -36.3720   23.8580 C   0  0  0  0  0  3  0  0  0  0  0  0
  -27.5330  -37.2610   24.6830 C   0  0  0  0  0  1  0  0  0  0  0  0
  -26.4300  -37.4240   23.7400 N   0  0  0  0  0  0  0  0  0  0  0  0
  -26.0220  -38.3440   23.8870 H   0  0  0  0  0  0  0  0  0  0  0  0
  -29.4320  -20.6040   19.8290 C   0  0  0  0  0  2  0  0  0  0  0  0
  -28.5070  -19.4930   20.3650 C   0  0  0  0  0  2  0  0  0  0  0  0
  -30.7960  -14.3980   20.0720 C   0  0  0  0  0  0  0  0  0  0  0  0
  -30.3830  -12.2710   18.9320 C   0  0  0  0  0  2  0  0  0  0  0  0
  -29.4020  -12.5520   17.7780 C   0  0  0  0  0  2  0  0  0  0  0  0
  -27.9460  -12.4210   18.2730 C   0  0  0  0  0  2  0  0  0  0  0  0
  -27.6810  -13.2180   19.5800 C   0  0  0  0  0  3  0  0  0  0  0  0
  -28.7910  -12.9760   20.6270 C   0  0  0  0  0  2  0  0  0  0  0  0
  -30.0840  -13.2470   19.9840 N   0  0  0  0  0  0  0  0  0  0  0  0
  -31.9540  -14.5000   19.6550 O   0  0  0  0  0  0  0  0  0  0  0  0
  -29.9270  -16.1710   21.4760 C   0  0  0  0  0  2  0  0  0  0  0  0
  -30.2110  -16.4700   19.0630 C   0  0  0  0  0  2  0  0  0  0  0  0
  -28.9110  -17.3350   21.4490 C   0  0  0  0  0  2  0  0  0  0  0  0
  -29.1470  -17.5630   19.0920 C   0  0  0  0  0  2  0  0  0  0  0  0
  -30.0430  -15.5090   20.1680 N   0  0  0  0  0  0  0  0  0  0  0  0
  -29.2800  -18.2550   20.3720 N   0  0  0  0  0  0  0  0  0  0  0  0
  -25.3220  -13.8060   20.4110 C   0  0  0  0  0  0  0  0  0  0  0  0
  -24.2760  -13.0270   20.8240 C   0  0  0  0  0  0  0  0  0  0  0  0
  -24.7390  -11.6770   20.7580 C   0  0  0  0  0  0  0  0  0  0  0  0
  -26.3570  -12.9330   20.1210 N   0  0  0  0  0  0  0  0  0  0  0  0
  -26.0130  -11.6460   20.3880 N   0  0  0  0  0  0  0  0  0  0  0  0
  -24.0290  -10.4110   20.9750 C   0  0  0  0  0  0  0  0  0  0  0  0
  -24.4890   -9.4560   21.9090 C   0  0  0  0  0  3  0  0  0  0  0  0
  -23.7810   -8.2530   22.1110 C   0  0  0  0  0  3  0  0  0  0  0  0
  -22.5970   -7.9940   21.3810 C   0  0  0  0  0  0  0  0  0  0  0  0
  -22.1560   -8.9360   20.4360 C   0  0  0  0  0  3  0  0  0  0  0  0
  -22.8650  -10.1320   20.2320 C   0  0  0  0  0  3  0  0  0  0  0  0
  -21.8580   -6.8410   21.4920 O   0  0  0  0  0  0  0  0  0  0  0  0
  -21.8080   -6.1280   22.6620 C   0  0  0  0  0  0  0  0  0  0  0  0
  -21.3790   -6.7130   23.8730 C   0  0  0  0  0  3  0  0  0  0  0  0
  -21.2750   -5.9250   25.0370 C   0  0  0  0  0  3  0  0  0  0  0  0
  -21.5900   -4.5550   24.9910 C   0  0  0  0  0  0  0  0  0  0  0  0
  -22.0150   -3.9700   23.7850 C   0  0  0  0  0  3  0  0  0  0  0  0
  -22.1200   -4.7550   22.6230 C   0  0  0  0  0  0  0  0  0  0  0  0
  -22.5080   -4.1820   21.4590 F   0  0  0  0  0  0  0  0  0  0  0  0
  -21.4850   -3.7940   26.1070 F   0  0  0  0  0  0  0  0  0  0  0  0
  -22.8940  -13.4950   21.1690 C   0  0  0  0  0  0  0  0  0  0  0  0
  -22.2140  -12.7960   22.0690 N   0  0  0  0  0  0  0  0  0  0  0  0
  -22.4230  -14.5180   20.6700 O   0  0  0  0  0  0  0  0  0  0  0  0
  -22.6050  -11.9670   22.4930 H   0  0  0  0  0  0  0  0  0  0  0  0
  -21.2890  -13.0990   22.3420 H   0  0  0  0  0  0  0  0  0  0  0  0
  -25.4710  -15.1790   20.2410 N   0  0  0  0  0  0  0  0  0  0  0  0
  -24.7020  -15.8240   20.3890 H   0  0  0  0  0  0  0  0  0  0  0  0
  -26.3090  -15.6270   19.8930 H   0  0  0  0  0  0  0  0  0  0  0  0
  1 49  1  0
  1  3  1  0
  2  1  1  0
  4  1  1  0
  5  4  1  0
  6  7  1  0
  6  5  1  0
  7  8  1  0
  8 10  1  0
  9 20  2  0
 10 15  1  0
 11 19  1  0
 11 21  1  0
 12 18  1  0
 12 14  1  0
 13 19  1  0
 14 13  1  0
 15 14  2  0
 16 17  1  0
 16 10  2  0
 17 12  2  0
 18 11  1  0
 19  9  1  0
 21 23  2  0
 22 21  1  0
 24 22  1  0
 25 34  2  0
 25 30  1  0
 26 22  1  0
 26 30  1  0
 27 26  1  0
 28 29  1  0
 28 27  1  0
 29 25  1  0
 30 31  2  0
 31 32  1  0
 33 32  2  0
 34 33  1  0
 35  9  1  0
 35 40  1  0
 35 36  1  0
 36 39  1  1
 36 37  1  0
 38 36  1  0
 40 43  1  0
 41 45  1  0
 41 40  1  0
 42 41  2  0
 45 44  1  0
 47 45  1  0
 47 48  1  0
 47 46  1  0
 49 50  1  0
 50 64  1  0
 51 63  1  0
 52 57  1  0
 53 54  1  0
 53 52  1  0
 55 54  1  0
 55 68  1  0
 55 56  1  0
 57 51  1  0
 57 56  1  0
 58 51  2  0
 60 62  1  0
 60 63  1  0
 61 59  1  0
 62 64  1  0
 63 59  1  0
 64 61  1  0
 65 66  2  0
 66 85  1  0
 67 66  1  0
 67 70  1  0
 68 69  1  0
 68 65  1  0
 69 67  2  0
 70 71  1  0
 71 72  2  0
 73 76  1  0
 73 72  1  0
 74 73  2  0
 75 74  1  0
 75 70  2  0
 76 77  1  0
 77 78  1  0
 78 79  2  0
 80 79  1  0
 80 84  1  0
 81 80  2  0
 82 77  2  0
 82 81  1  0
 83 82  1  0
 85 86  1  0
 86 89  1  0
 86 88  1  0
 87 85  2  0
 90 91  1  0
 90 65  1  0
 92 90  1  0
M  ISO  4   7 101   8 101  51 100  63 100
M  END
>  <TORSDO>  (57) 
F 22

>  <SCORE>  (57) 
-12.503

>  <name>  (57) 
56

>  <ligand_id>  (57) 
56

>  <original_smiles>  (57) 
[H]c1c([H])c([H])c2c(c1[H])C([H])([H])C([H])([H])C([H])([H])C2([H])N([H])C(=O)C1([H])N(C(=O)C([H])(N([H])C(=O)C([H])(N([H])C([H])([H])[H])C([H])([H])[H])C(C([H])([H])[H])(C([H])([H])[H])C([H])([H])[H])C([H])([H])c2c([H])c(OC([H])([H])C([H])([H])C([H])([H])C([H])([H])[N+]([H])([H])C([H])([H])C([H])([H])N3C([H])([H])C([H])([H])N(C(=O)N4C([H])([H])C([H])([H])C([H])([H])C([H])(n5nc(-c6c([H])c([H])c(Oc7c([H])c([H])c(F)c([H])c7F)c([H])c6[H])c(C(=O)N([H])[H])c5N([H])[H])C4([H])[H])C([H])([H])C3([H])[H])c([H])c([H])c2C1([H])[H]

>  <smiles>  (57) 
[H]c1c([H])c([H])c2c(c1[H])C([H])([H])C([H])([H])C([H])([H])C2([H])N([H])C(=O)C1([H])N(C(=O)C([H])(N([H])C(=O)C([H])(N([H])C([H])([H])[H])C([H])([H])[H])C(C([H])([H])[H])(C([H])([H])[H])C([H])([H])[H])C([H])([H])c2c([H])c(OC([H])([H])C([H])([H])C([H])([H])C([H])([H])[N+]([H])([H])C([H])([H])C([H])([H])N3C([H])([H])C([H])([H])N(C(=O)N4C([H])([H])C([H])([H])C([H])([H])C([H])(n5nc(-c6c([H])c([H])c(Oc7c([H])c([H])c(F)c([H])c7F)c([H])c6[H])c(C(=O)N([H])[H])c5N([H])[H])C4([H])[H])C([H])([H])C3([H])[H])c([H])c([H])c2C1([H])[H]

$$$$
57:0:0
     RDKit          3D

 96105  0  0  1  0  0  0  0  0999 V2000
  -32.6770  -17.8300   18.7320 C   0  0  0  0  0  0  0  0  0  0  0  0
  -32.4150  -18.2920   21.0590 C   0  0  0  0  0  2  0  0  0  0  0  0
  -31.1860  -19.7470   17.8730 C   0  0  0  0  0  2  0  0  0  0  0  0
  -30.3360  -21.3320   19.6100 C   0  0  0  0  0  2  0  0  0  0  0  0
  -32.3580  -19.3190   18.7960 C   0  0  0  0  0  3  0  0  0  0  0  0
  -33.1150  -17.3040   20.0940 C   0  0  0  0  0  3  0  0  0  0  0  0
  -32.1050  -19.6000   20.2940 C   0  0  0  0  0  3  0  0  0  0  0  0
  -30.6660  -20.1350   20.5350 C   0  0  0  0  0  3  0  0  0  0  0  0
  -30.4140  -20.4810   22.0070 C   0  0  0  0  0  1  0  0  0  0  0  0
  -30.7630  -21.1420   18.1920 N   0  0  2  0  0  4  0  0  0  0  0  0
  -32.5500  -17.1600   17.7040 O   0  0  0  0  0  0  0  0  0  0  0  0
  -31.6000  -21.6990   18.1020 H   0  0  0  0  0  0  0  0  0  0  0  0
  -33.1240  -14.7670   19.9510 C   0  0  0  0  0  0  0  0  0  0  0  0
  -32.5440  -12.3860   19.6880 C   0  0  0  0  0  2  0  0  0  0  0  0
  -31.6610  -12.1670   18.4410 C   0  0  0  0  0  2  0  0  0  0  0  0
  -30.1710  -12.4330   18.7440 C   0  0  0  0  0  2  0  0  0  0  0  0
  -29.9510  -13.7770   19.4810 C   0  0  0  0  0  3  0  0  0  0  0  0
  -30.8980  -13.8780   20.6930 C   0  0  0  0  0  2  0  0  0  0  0  0
  -32.2820  -13.7350   20.2000 N   0  0  0  0  0  0  0  0  0  0  0  0
  -34.2160  -14.6360   19.3800 O   0  0  0  0  0  0  0  0  0  0  0  0
  -32.6290  -15.9470   20.3460 N   0  0  0  0  0  0  0  0  0  0  0  0
  -31.7550  -15.8880   20.8470 H   0  0  0  0  0  0  0  0  0  0  0  0
  -27.8190  -15.1210   20.0040 C   0  0  0  0  0  0  0  0  0  0  0  0
  -26.5510  -14.7240   20.3410 C   0  0  0  0  0  0  0  0  0  0  0  0
  -26.5800  -13.2980   20.3840 C   0  0  0  0  0  0  0  0  0  0  0  0
  -28.5560  -13.9530   19.8750 N   0  0  0  0  0  0  0  0  0  0  0  0
  -27.8120  -12.8540   20.1570 N   0  0  0  0  0  0  0  0  0  0  0  0
  -25.5010  -12.3210   20.5690 C   0  0  0  0  0  0  0  0  0  0  0  0
  -25.6760  -11.1670   21.3630 C   0  0  0  0  0  3  0  0  0  0  0  0
  -24.6140  -10.2530   21.5390 C   0  0  0  0  0  3  0  0  0  0  0  0
  -23.3620  -10.4920   20.9230 C   0  0  0  0  0  0  0  0  0  0  0  0
  -23.2030  -11.6290   20.1120 C   0  0  0  0  0  3  0  0  0  0  0  0
  -24.2610  -12.5350   19.9330 C   0  0  0  0  0  3  0  0  0  0  0  0
  -22.2810   -9.6480   21.0200 O   0  0  0  0  0  0  0  0  0  0  0  0
  -22.2440   -8.6290   21.9370 C   0  0  0  0  0  0  0  0  0  0  0  0
  -22.3440   -8.8710   23.3270 C   0  0  0  0  0  3  0  0  0  0  0  0
  -22.2300   -7.8000   24.2350 C   0  0  0  0  0  3  0  0  0  0  0  0
  -22.0140   -6.4920   23.7640 C   0  0  0  0  0  0  0  0  0  0  0  0
  -21.9070   -6.2530   22.3830 C   0  0  0  0  0  3  0  0  0  0  0  0
  -22.0210   -7.3170   21.4720 C   0  0  0  0  0  0  0  0  0  0  0  0
  -21.8970   -7.0820   20.1450 F   0  0  0  0  0  0  0  0  0  0  0  0
  -21.8970   -5.4650   24.6380 F   0  0  0  0  0  0  0  0  0  0  0  0
  -25.3510  -15.6120   20.5150 C   0  0  0  0  0  0  0  0  0  0  0  0
  -24.4130  -15.2060   21.3640 N   0  0  0  0  0  0  0  0  0  0  0  0
  -25.2620  -16.6910   19.9320 O   0  0  0  0  0  0  0  0  0  0  0  0
  -24.4950  -14.3290   21.8550 H   0  0  0  0  0  0  0  0  0  0  0  0
  -23.6040  -15.7860   21.5290 H   0  0  0  0  0  0  0  0  0  0  0  0
  -28.4060  -16.3630   19.7750 N   0  0  0  0  0  0  0  0  0  0  0  0
  -27.8450  -17.2050   19.6990 H   0  0  0  0  0  0  0  0  0  0  0  0
  -29.3160  -16.4530   19.3380 H   0  0  0  0  0  0  0  0  0  0  0  0
  -29.8100  -21.7580   17.2330 C   0  0  0  0  0  2  0  0  0  0  0  0
  -30.4830  -22.6350   16.1490 C   0  0  0  0  0  2  0  0  0  0  0  0
  -31.6160  -23.5590   16.6570 C   0  0  0  0  0  2  0  0  0  0  0  0
  -31.2060  -24.5530   17.7610 C   0  0  0  0  0  2  0  0  0  0  0  0
  -31.0530  -26.0000   17.2510 C   0  0  0  0  0  2  0  0  0  0  0  0
  -30.7170  -26.8830   18.3190 O   0  0  0  0  0  0  0  0  0  0  0  0
  -26.1500  -28.5510   23.4840 C   0  0  0  0  0  0  0  0  0  0  0  0
  -29.4030  -27.1830   18.6090 C   0  0  0  0  0  0  0  0  0  0  0  0
  -25.1280  -28.1090   21.2740 C   0  0  0  0  0  3  0  0  0  0  0  0
  -26.7580  -27.9180   19.3190 C   0  0  0  0  0  0  0  0  0  0  0  0
  -27.5220  -28.9840   21.4470 C   0  0  0  0  0  2  0  0  0  0  0  0
  -27.8260  -28.2410   20.1640 C   0  0  0  0  0  0  0  0  0  0  0  0
  -29.1420  -27.8780   19.8120 C   0  0  0  0  0  3  0  0  0  0  0  0
  -28.3110  -26.8510   17.7740 C   0  0  0  0  0  3  0  0  0  0  0  0
  -26.9930  -27.2210   18.1210 C   0  0  0  0  0  3  0  0  0  0  0  0
  -25.3810  -28.3610   19.7620 C   0  0  0  0  0  2  0  0  0  0  0  0
  -26.2850  -28.5320   22.1270 N   0  0  0  0  0  0  0  0  0  0  0  0
  -25.0720  -28.2660   24.0260 O   0  0  0  0  0  0  0  0  0  0  0  0
  -24.7340  -26.6280   21.4660 C   0  0  0  0  0  0  0  0  0  0  0  0
  -23.5110  -26.2770   21.0360 N   0  0  0  0  0  0  0  0  0  0  0  0
  -25.5260  -25.8200   21.9580 O   0  0  0  0  0  0  0  0  0  0  0  0
  -22.9230  -27.0000   20.6420 H   0  0  0  0  0  0  0  0  0  0  0  0
  -20.6340  -24.3170   20.0820 C   0  0  0  0  0  0  0  0  0  0  0  0
  -22.9410  -24.9330   21.0690 C   0  0  0  0  0  3  0  0  0  0  0  0
  -23.5470  -24.0430   19.9570 C   0  0  0  0  0  2  0  0  0  0  0  0
  -22.7150  -24.0450   18.6690 C   0  0  0  0  0  2  0  0  0  0  0  0
  -21.2900  -23.5550   18.9440 C   0  0  0  0  0  2  0  0  0  0  0  0
  -21.4090  -24.9740   21.0730 C   0  0  0  0  0  0  0  0  0  0  0  0
  -20.7490  -25.6970   22.0890 C   0  0  0  0  0  3  0  0  0  0  0  0
  -19.3430  -25.7620   22.1320 C   0  0  0  0  0  3  0  0  0  0  0  0
  -18.5800  -25.0960   21.1580 C   0  0  0  0  0  3  0  0  0  0  0  0
  -19.2250  -24.3730   20.1370 C   0  0  0  0  0  3  0  0  0  0  0  0
  -27.3330  -28.9490   24.4190 C   0  0  0  0  0  3  0  0  0  0  0  0
  -26.8490  -30.0030   25.3210 N   0  0  0  0  0  0  0  0  0  0  0  0
  -27.1220  -31.3060   25.1810 C   0  0  0  0  0  0  0  0  0  0  0  0
  -27.8790  -31.7450   24.3120 O   0  0  0  0  0  0  0  0  0  0  0  0
  -26.1790  -29.7240   26.0210 H   0  0  0  0  0  0  0  0  0  0  0  0
  -25.2410  -32.9480   25.4880 C   0  0  0  0  0  1  0  0  0  0  0  0
  -26.4470  -32.2810   26.1660 C   0  0  0  0  0  3  0  0  0  0  0  0
  -28.3850  -32.7990   27.5810 C   0  0  0  0  0  1  0  0  0  0  0  0
  -27.3610  -33.3220   26.6820 N   0  0  0  0  0  0  0  0  0  0  0  0
  -26.8410  -34.0440   27.1760 H   0  0  0  0  0  0  0  0  0  0  0  0
  -27.9160  -27.7330   25.2400 C   0  0  1  0  0  0  0  0  0  0  0  0
  -26.8410  -26.9280   26.0070 C   0  0  0  0  0  1  0  0  0  0  0  0
  -28.6640  -26.7570   24.3020 C   0  0  0  0  0  1  0  0  0  0  0  0
  -28.9530  -28.2430   26.2680 C   0  0  0  0  0  1  0  0  0  0  0  0
  1  5  1  0
  1  6  1  0
  3 10  1  0
  4  8  1  0
  5  3  1  0
  5  7  1  0
  6 21  1  0
  6  2  1  0
  7  8  1  0
  7  2  1  0
  8  9  1  0
 10  4  1  0
 11  1  2  0
 10 12  1  1
 13 19  1  0
 13 21  1  0
 14 19  1  0
 15 16  1  0
 15 14  1  0
 17 16  1  0
 17 26  1  0
 17 18  1  0
 19 18  1  0
 20 13  2  0
 21 22  1  0
 23 24  2  0
 24 25  1  0
 24 43  1  0
 25 28  1  0
 26 23  1  0
 26 27  1  0
 27 25  2  0
 28 29  1  0
 29 30  2  0
 31 34  1  0
 31 30  1  0
 32 31  2  0
 33 32  1  0
 33 28  2  0
 34 35  1  0
 35 36  1  0
 36 37  2  0
 38 37  1  0
 38 42  1  0
 39 38  2  0
 40 35  2  0
 40 39  1  0
 41 40  1  0
 43 44  1  0
 44 47  1  0
 44 46  1  0
 45 43  2  0
 48 23  1  0
 49 48  1  0
 50 48  1  0
 51 10  1  0
 52 53  1  0
 52 51  1  0
 53 54  1  0
 55 54  1  0
 55 56  1  0
 56 58  1  0
 57 68  2  0
 58 63  1  0
 59 69  1  0
 59 67  1  0
 60 66  1  0
 60 62  1  0
 61 67  1  0
 62 61  1  0
 63 62  2  0
 64 65  1  0
 64 58  2  0
 65 60  2  0
 66 59  1  0
 67 57  1  0
 69 71  2  0
 70 69  1  0
 72 70  1  0
 73 82  2  0
 73 78  1  0
 74 70  1  0
 74 78  1  0
 75 74  1  0
 76 77  1  0
 76 75  1  0
 77 73  1  0
 78 79  2  0
 79 80  1  0
 81 80  2  0
 82 81  1  0
 83 57  1  0
 83 93  1  0
 83 84  1  0
 84 87  1  0
 85 84  1  0
 85 89  1  0
 86 85  2  0
 89 88  1  0
 89 91  1  0
 91 92  1  0
 91 90  1  0
 93 94  1  1
 93 96  1  0
 95 93  1  0
M  ISO  4  13 100  21 100  55 101  56 101
M  END
>  <TORSDO>  (58) 
F 21

>  <SCORE>  (58) 
-6.962

>  <name>  (58) 
57

>  <ligand_id>  (58) 
57

>  <original_smiles>  (58) 
[H]c1c([H])c([H])c2c(c1[H])C([H])([H])C([H])([H])C([H])([H])C2([H])N([H])C(=O)C1([H])N(C(=O)C([H])(N([H])C(=O)C([H])(N([H])C([H])([H])[H])C([H])([H])[H])C(C([H])([H])[H])(C([H])([H])[H])C([H])([H])[H])C([H])([H])c2c([H])c(OC([H])([H])C([H])([H])C([H])([H])C([H])([H])C([H])([H])[N+]3([H])C([H])([H])C4([H])C(=O)C([H])(N([H])C(=O)N5C([H])([H])C([H])([H])C([H])([H])C([H])(n6nc(-c7c([H])c([H])c(Oc8c([H])c([H])c(F)c([H])c8F)c([H])c7[H])c(C(=O)N([H])[H])c6N([H])[H])C5([H])[H])C([H])([H])C4([H])C([H])(C([H])([H])[H])C3([H])[H])c([H])c([H])c2C1([H])[H]

>  <smiles>  (58) 
[H]c1c([H])c([H])c2c(c1[H])C([H])([H])C([H])([H])C([H])([H])C2([H])N([H])C(=O)C1([H])N(C(=O)C([H])(N([H])C(=O)C([H])(N([H])C([H])([H])[H])C([H])([H])[H])C(C([H])([H])[H])(C([H])([H])[H])C([H])([H])[H])C([H])([H])c2c([H])c(OC([H])([H])C([H])([H])C([H])([H])C([H])([H])C([H])([H])[N+]3([H])C([H])([H])C4([H])C(=O)C([H])(N([H])C(=O)N5C([H])([H])C([H])([H])C([H])([H])C([H])(n6nc(-c7c([H])c([H])c(Oc8c([H])c([H])c(F)c([H])c8F)c([H])c7[H])c(C(=O)N([H])[H])c6N([H])[H])C5([H])[H])C([H])([H])C4([H])C([H])(C([H])([H])[H])C3([H])[H])c([H])c([H])c2C1([H])[H]

$$$$
58:0:0
     RDKit          3D

 98107  0  0  1  0  0  0  0  0999 V2000
  -31.3180  -20.3320   16.8550 C   0  0  0  0  0  2  0  0  0  0  0  0
  -30.7920  -21.7380   16.5950 C   0  0  0  0  0  2  0  0  0  0  0  0
  -28.4780  -20.9580   16.4290 C   0  0  0  0  0  2  0  0  0  0  0  0
  -30.3840  -19.2560   16.2720 C   0  0  0  0  0  3  0  0  0  0  0  0
  -28.8940  -19.4840   16.6570 C   0  0  0  0  0  3  0  0  0  0  0  0
  -27.9570  -18.5100   15.9190 C   0  0  0  0  0  1  0  0  0  0  0  0
  -29.4230  -21.8450   17.1440 N   0  0  2  0  0  4  0  0  0  0  0  0
  -29.4620  -21.4740   18.0800 H   0  0  0  0  0  0  0  0  0  0  0  0
  -32.4950  -16.0850   16.2740 C   0  0  0  0  0  3  0  0  0  0  0  0
  -31.8840  -17.2760   15.8590 C   0  0  0  0  0  3  0  0  0  0  0  0
  -32.1470  -15.5110   17.5080 C   0  0  0  0  0  3  0  0  0  0  0  0
  -30.5630  -17.3080   17.9180 C   0  0  0  0  0  3  0  0  0  0  0  0
  -30.9280  -17.8990   16.6840 C   0  0  0  0  0  0  0  0  0  0  0  0
  -31.1640  -16.1070   18.3470 C   0  0  0  0  0  0  0  0  0  0  0  0
  -31.2760  -14.4270   20.1230 C   0  0  0  0  0  0  0  0  0  0  0  0
  -30.7430  -12.4510   18.8530 C   0  0  0  0  0  2  0  0  0  0  0  0
  -29.7770  -12.8940   17.7310 C   0  0  0  0  0  2  0  0  0  0  0  0
  -28.3180  -12.8360   18.2170 C   0  0  0  0  0  2  0  0  0  0  0  0
  -28.0890  -13.5030   19.6010 C   0  0  0  0  0  3  0  0  0  0  0  0
  -29.1880  -13.1110   20.6200 C   0  0  0  0  0  2  0  0  0  0  0  0
  -30.5030  -13.3270   20.0010 N   0  0  0  0  0  0  0  0  0  0  0  0
  -32.4990  -14.4140   20.2040 O   0  0  0  0  0  0  0  0  0  0  0  0
  -30.7070  -15.5100   19.5700 N   0  0  0  0  0  0  0  0  0  0  0  0
  -29.7210  -15.6150   19.7480 H   0  0  0  0  0  0  0  0  0  0  0  0
  -25.6870  -14.0920   20.3200 C   0  0  0  0  0  0  0  0  0  0  0  0
  -24.6270  -13.3100   20.6960 C   0  0  0  0  0  0  0  0  0  0  0  0
  -25.1060  -11.9640   20.6870 C   0  0  0  0  0  0  0  0  0  0  0  0
  -26.7450  -13.2210   20.1050 N   0  0  0  0  0  0  0  0  0  0  0  0
  -26.4000  -11.9380   20.3910 N   0  0  0  0  0  0  0  0  0  0  0  0
  -24.3940  -10.6950   20.8860 C   0  0  0  0  0  0  0  0  0  0  0  0
  -24.7620   -9.7950   21.9110 C   0  0  0  0  0  3  0  0  0  0  0  0
  -24.0500   -8.5910   22.0960 C   0  0  0  0  0  3  0  0  0  0  0  0
  -22.9550   -8.2780   21.2570 C   0  0  0  0  0  0  0  0  0  0  0  0
  -22.6070   -9.1660   20.2230 C   0  0  0  0  0  3  0  0  0  0  0  0
  -23.3200  -10.3610   20.0360 C   0  0  0  0  0  3  0  0  0  0  0  0
  -22.2200   -7.1200   21.3480 O   0  0  0  0  0  0  0  0  0  0  0  0
  -21.9810   -6.5120   22.5540 C   0  0  0  0  0  0  0  0  0  0  0  0
  -21.3100   -7.1760   23.6040 C   0  0  0  0  0  3  0  0  0  0  0  0
  -21.0260   -6.4920   24.8010 C   0  0  0  0  0  3  0  0  0  0  0  0
  -21.4010   -5.1430   24.9500 C   0  0  0  0  0  0  0  0  0  0  0  0
  -22.0630   -4.4780   23.9020 C   0  0  0  0  0  3  0  0  0  0  0  0
  -22.3510   -5.1600   22.7080 C   0  0  0  0  0  0  0  0  0  0  0  0
  -22.9720   -4.5100   21.6950 F   0  0  0  0  0  0  0  0  0  0  0  0
  -21.1210   -4.4810   26.0960 F   0  0  0  0  0  0  0  0  0  0  0  0
  -23.2220  -13.7740   20.9520 C   0  0  0  0  0  0  0  0  0  0  0  0
  -22.5030  -13.0930   21.8370 N   0  0  0  0  0  0  0  0  0  0  0  0
  -22.7700  -14.7760   20.4020 O   0  0  0  0  0  0  0  0  0  0  0  0
  -22.8810  -12.2830   22.3060 H   0  0  0  0  0  0  0  0  0  0  0  0
  -21.5600  -13.3880   22.0490 H   0  0  0  0  0  0  0  0  0  0  0  0
  -25.8330  -15.4610   20.1210 N   0  0  0  0  0  0  0  0  0  0  0  0
  -25.0520  -16.1020   20.2160 H   0  0  0  0  0  0  0  0  0  0  0  0
  -26.6830  -15.9130   19.8130 H   0  0  0  0  0  0  0  0  0  0  0  0
  -28.9960  -23.2440   17.3490 C   0  0  0  0  0  2  0  0  0  0  0  0
  -29.4810  -23.6910   18.7410 C   0  0  0  0  0  2  0  0  0  0  0  0
  -29.9890  -25.1310   18.8030 C   0  0  0  0  0  2  0  0  0  0  0  0
  -30.3460  -25.5110   20.2450 C   0  0  0  0  0  2  0  0  0  0  0  0
  -30.6450  -27.0040   20.3930 C   0  0  0  0  0  2  0  0  0  0  0  0
  -30.0420  -27.5180   21.5720 O   0  0  0  0  0  0  0  0  0  0  0  0
  -25.2330  -32.2070   23.8650 C   0  0  0  0  0  0  0  0  0  0  0  0
  -28.7770  -28.0330   21.4110 C   0  0  0  0  0  0  0  0  0  0  0  0
  -24.4370  -30.6100   22.1510 C   0  0  0  0  0  3  0  0  0  0  0  0
  -26.2400  -29.2060   21.0310 C   0  0  0  0  0  0  0  0  0  0  0  0
  -26.9040  -31.2630   22.2830 C   0  0  0  0  0  2  0  0  0  0  0  0
  -27.2290  -29.8880   21.7490 C   0  0  0  0  0  0  0  0  0  0  0  0
  -28.4930  -29.3000   21.9560 C   0  0  0  0  0  3  0  0  0  0  0  0
  -27.7660  -27.3480   20.6950 C   0  0  0  0  0  3  0  0  0  0  0  0
  -26.4990  -27.9270   20.5090 C   0  0  0  0  0  3  0  0  0  0  0  0
  -24.9150  -29.9080   20.8530 C   0  0  0  0  0  2  0  0  0  0  0  0
  -25.5320  -31.3790   22.8260 N   0  0  0  0  0  0  0  0  0  0  0  0
  -24.0620  -32.3700   24.2360 O   0  0  0  0  0  0  0  0  0  0  0  0
  -23.7780  -29.5530   23.0660 C   0  0  0  0  0  0  0  0  0  0  0  0
  -22.5310  -29.1760   22.7390 N   0  0  0  0  0  0  0  0  0  0  0  0
  -24.3910  -29.0740   24.0240 O   0  0  0  0  0  0  0  0  0  0  0  0
  -22.0960  -29.6220   21.9440 H   0  0  0  0  0  0  0  0  0  0  0  0
  -19.3070  -27.5490   22.7710 C   0  0  0  0  0  0  0  0  0  0  0  0
  -21.7270  -28.1720   23.4340 C   0  0  0  0  0  3  0  0  0  0  0  0
  -22.1100  -26.7440   22.9850 C   0  0  0  0  0  2  0  0  0  0  0  0
  -21.2460  -26.2210   21.8320 C   0  0  0  0  0  2  0  0  0  0  0  0
  -19.7690  -26.2050   22.2330 C   0  0  0  0  0  2  0  0  0  0  0  0
  -20.2290  -28.4790   23.3200 C   0  0  0  0  0  0  0  0  0  0  0  0
  -19.7530  -29.7290   23.7740 C   0  0  0  0  0  3  0  0  0  0  0  0
  -18.3860  -30.0530   23.6890 C   0  0  0  0  0  3  0  0  0  0  0  0
  -17.4750  -29.1210   23.1580 C   0  0  0  0  0  3  0  0  0  0  0  0
  -17.9360  -27.8730   22.7050 C   0  0  0  0  0  3  0  0  0  0  0  0
  -26.3420  -33.0060   24.6190 C   0  0  0  0  0  3  0  0  0  0  0  0
  -25.8480  -34.3770   24.8040 N   0  0  0  0  0  0  0  0  0  0  0  0
  -26.1570  -35.4090   24.0080 C   0  0  0  0  0  0  0  0  0  0  0  0
  -26.9580  -35.3180   23.0730 O   0  0  0  0  0  0  0  0  0  0  0  0
  -25.1460  -34.5140   25.5160 H   0  0  0  0  0  0  0  0  0  0  0  0
  -24.2900  -36.9500   23.3280 C   0  0  0  0  0  1  0  0  0  0  0  0
  -25.4700  -36.7570   24.2950 C   0  0  0  0  0  3  0  0  0  0  0  0
  -27.3890  -37.9440   25.2610 C   0  0  0  0  0  1  0  0  0  0  0  0
  -26.3850  -37.9160   24.2020 N   0  0  0  0  0  0  0  0  0  0  0  0
  -25.8660  -38.7880   24.2330 H   0  0  0  0  0  0  0  0  0  0  0  0
  -26.7400  -32.3630   26.0040 C   0  0  1  0  0  0  0  0  0  0  0  0
  -25.5280  -32.0150   26.8980 C   0  0  0  0  0  1  0  0  0  0  0  0
  -27.5560  -31.0670   25.7870 C   0  0  0  0  0  1  0  0  0  0  0  0
  -27.6530  -33.3340   26.7900 C   0  0  0  0  0  1  0  0  0  0  0  0
  2  1  1  0
  2  7  1  0
  3  5  1  0
  3  7  1  0
  4  5  1  0
  4 13  1  0
  4  1  1  0
  5  6  1  0
  7 53  1  0
  7  8  1  1
  9 11  1  0
 10  9  2  0
 10 13  1  0
 11 14  2  0
 12 14  1  0
 13 12  2  0
 14 23  1  0
 15 22  2  0
 16 21  1  0
 17 18  1  0
 17 16  1  0
 19 18  1  0
 19 28  1  0
 19 20  1  0
 21 15  1  0
 21 20  1  0
 23 24  1  0
 23 15  1  0
 25 26  2  0
 26 45  1  0
 27 26  1  0
 27 30  1  0
 28 25  1  0
 28 29  1  0
 29 27  2  0
 30 31  1  0
 31 32  2  0
 33 36  1  0
 33 32  1  0
 34 33  2  0
 35 34  1  0
 35 30  2  0
 36 37  1  0
 37 42  2  0
 37 38  1  0
 38 39  2  0
 39 40  1  0
 40 44  1  0
 41 40  2  0
 42 41  1  0
 43 42  1  0
 45 46  1  0
 46 49  1  0
 46 48  1  0
 47 45  2  0
 50 51  1  0
 50 25  1  0
 52 50  1  0
 53 54  1  0
 54 55  1  0
 55 56  1  0
 56 57  1  0
 57 58  1  0
 59 70  2  0
 60 58  1  0
 60 65  1  0
 61 69  1  0
 61 71  1  0
 62 64  1  0
 63 69  1  0
 64 65  2  0
 64 63  1  0
 66 60  2  0
 67 66  1  0
 67 62  2  0
 68 62  1  0
 68 61  1  0
 69 59  1  0
 71 73  2  0
 72 71  1  0
 74 72  1  0
 75 80  1  0
 76 72  1  0
 77 76  1  0
 78 79  1  0
 78 77  1  0
 79 75  1  0
 80 76  1  0
 80 81  2  0
 82 81  1  0
 83 82  2  0
 84 75  2  0
 84 83  1  0
 85 59  1  0
 85 86  1  0
 85 95  1  0
 86 89  1  0
 87 91  1  0
 87 86  1  0
 88 87  2  0
 91 90  1  0
 93 94  1  0
 93 91  1  0
 93 92  1  0
 95 98  1  1
 95 96  1  0
 97 95  1  0
M  ISO  4  15 100  23 100  57 101  58 101
M  END
>  <TORSDO>  (59) 
F 22

>  <SCORE>  (59) 
-9.771

>  <name>  (59) 
58

>  <ligand_id>  (59) 
58

>  <original_smiles>  (59) 
[H]c1c([H])c([H])c2c(c1[H])C([H])([H])C([H])([H])C([H])([H])C2([H])N([H])C(=O)C1([H])N(C(=O)C([H])(N([H])C(=O)C([H])(N([H])C([H])([H])[H])C([H])([H])[H])C(C([H])([H])[H])(C([H])([H])[H])C([H])([H])[H])C([H])([H])c2c([H])c(OC([H])([H])C([H])([H])C([H])([H])C([H])([H])C([H])([H])[N+]3([H])C([H])([H])C([H])([H])C([H])(c4c([H])c([H])c([H])c(N([H])C(=O)N5C([H])([H])C([H])([H])C([H])([H])C([H])(n6nc(-c7c([H])c([H])c(Oc8c([H])c([H])c(F)c([H])c8F)c([H])c7[H])c(C(=O)N([H])[H])c6N([H])[H])C5([H])[H])c4[H])C([H])(C([H])([H])[H])C3([H])[H])c([H])c([H])c2C1([H])[H]

>  <smiles>  (59) 
[H]c1c([H])c([H])c2c(c1[H])C([H])([H])C([H])([H])C([H])([H])C2([H])N([H])C(=O)C1([H])N(C(=O)C([H])(N([H])C(=O)C([H])(N([H])C([H])([H])[H])C([H])([H])[H])C(C([H])([H])[H])(C([H])([H])[H])C([H])([H])[H])C([H])([H])c2c([H])c(OC([H])([H])C([H])([H])C([H])([H])C([H])([H])C([H])([H])[N+]3([H])C([H])([H])C([H])([H])C([H])(c4c([H])c([H])c([H])c(N([H])C(=O)N5C([H])([H])C([H])([H])C([H])([H])C([H])(n6nc(-c7c([H])c([H])c(Oc8c([H])c([H])c(F)c([H])c8F)c([H])c7[H])c(C(=O)N([H])[H])c6N([H])[H])C5([H])[H])c4[H])C([H])(C([H])([H])[H])C3([H])[H])c([H])c([H])c2C1([H])[H]

$$$$
59:0:0
     RDKit          3D

 96 96  0  0  1  0  0  0  0  0999 V2000
  -25.4570  -19.4520   19.3690 C   0  0  0  0  0  2  0  0  0  0  0  0
  -27.0290  -17.4900   18.7360 C   0  0  0  0  0  1  0  0  0  0  0  0
  -25.7410  -17.8060   19.5150 C   0  0  0  0  0  3  0  0  0  0  0  0
  -24.6430  -16.5540   19.1760 C   0  0  0  0  0  2  0  0  0  0  0  0
  -25.0770  -15.4650   22.1170 C   0  0  0  0  0 15  0  0  0  0  0  0
  -24.9560  -12.8450   18.9270 C   0  0  0  0  0 15  0  0  0  0  0  0
  -26.5380  -13.9980   23.1070 C   0  0  0  0  0 15  0  0  0  0  0  0
  -26.4500  -11.1550   20.0130 C   0  0  0  0  0 15  0  0  0  0  0  0
  -24.3940  -15.0120   19.8810 C   0  0  0  0  0  1  0  0  0  0  0  0
  -27.4760  -12.1340   22.1840 C   0  0  0  0  0  1  0  0  0  0  0  0
  -29.0960  -12.7000   22.4120 C   0  0  0  0  0  2  0  0  0  0  0  0
  -30.8570  -13.5090   20.4150 C   0  0  0  0  0  0  0  0  0  0  0  0
  -31.0000  -11.9240   18.4600 C   0  0  0  0  0  2  0  0  0  0  0  0
  -29.8320  -12.1020   17.4030 C   0  0  0  0  0  2  0  0  0  0  0  0
  -28.3410  -12.1590   17.8920 C   0  0  0  0  0  2  0  0  0  0  0  0
  -28.3290  -12.7050   19.3190 C   0  0  0  0  0  3  0  0  0  0  0  0
  -29.3410  -11.7400   19.9760 C   0  0  0  0  0  2  0  0  0  0  0  0
  -30.5960  -12.3560   19.7930 N   0  0  0  0  0  0  0  0  0  0  0  0
  -31.7110  -14.2760   19.9000 O   0  0  0  0  0  0  0  0  0  0  0  0
  -29.9870  -13.6810   21.5220 N   0  0  0  0  0  0  0  0  0  0  0  0
  -30.0470  -14.6130   21.9060 H   0  0  0  0  0  0  0  0  0  0  0  0
  -26.2690  -13.6010   20.5250 C   0  0  0  0  0  0  0  0  0  0  0  0
  -24.7630  -12.8920   21.0220 C   0  0  0  0  0  0  0  0  0  0  0  0
  -24.9370  -11.6100   21.3130 C   0  0  0  0  0  2  0  0  0  0  0  0
  -27.0480  -13.0110   20.0500 N   0  0  0  0  0  2  0  0  0  0  0  0
  -25.6770  -12.6440   20.7480 N   0  0  0  0  0  2  0  0  0  0  0  0
  -24.1790  -10.3090   21.1170 C   0  0  0  0  0  3  0  0  0  0  0  0
  -24.5530   -9.2210   21.9470 C   0  0  0  0  0  3  0  0  0  0  0  0
  -23.7650   -8.0550   22.0480 C   0  0  0  0  0  3  0  0  0  0  0  0
  -22.5610   -7.9500   21.3190 C   0  0  0  0  0  0  0  0  0  0  0  0
  -22.2320   -8.9820   20.4150 C   0  0  0  0  0  3  0  0  0  0  0  0
  -23.0390  -10.1370   20.2950 C   0  0  0  0  0  3  0  0  0  0  0  0
  -21.7010   -6.8750   21.4120 O   0  0  0  0  0  0  0  0  0  0  0  0
  -21.6050   -6.1100   22.5530 C   0  0  0  0  0  0  0  0  0  0  0  0
  -21.2720   -6.6690   23.8070 C   0  0  0  0  0  3  0  0  0  0  0  0
  -21.1240   -5.8370   24.9370 C   0  0  0  0  0  3  0  0  0  0  0  0
  -21.2950   -4.4450   24.8150 C   0  0  0  0  0  0  0  0  0  0  0  0
  -21.6160   -3.8840   23.5680 C   0  0  0  0  0  3  0  0  0  0  0  0
  -21.7670   -4.7140   22.4410 C   0  0  0  0  0  0  0  0  0  0  0  0
  -22.0570   -4.1600   21.2390 F   0  0  0  0  0  0  0  0  0  0  0  0
  -21.1450   -3.6440   25.8980 F   0  0  0  0  0  0  0  0  0  0  0  0
  -23.2360  -13.2860   21.3990 C   0  0  0  0  0  0  0  0  0  0  0  0
  -22.6290  -12.6170   22.3760 N   0  0  0  0  0  0  0  0  0  0  0  0
  -22.5960  -14.2410   20.9650 O   0  0  0  0  0  0  0  0  0  0  0  0
  -23.0800  -11.8500   22.8510 H   0  0  0  0  0  0  0  0  0  0  0  0
  -21.6950  -12.8830   22.6510 H   0  0  0  0  0  0  0  0  0  0  0  0
  -27.0640  -14.8120   20.3080 N   0  0  0  0  0  4  0  0  0  0  0  0
  -26.4300  -15.5920   20.2250 H   0  0  0  0  0  0  0  0  0  0  0  0
  -27.7030  -14.7680   19.5320 H   0  0  0  0  0  0  0  0  0  0  0  0
  -26.6500  -20.6380   19.3850 C   0  0  0  0  0  2  0  0  0  0  0  0
  -26.4010  -22.1370   19.8080 N   0  0  0  0  0  4  0  0  0  0  0  0
  -26.3240  -22.1220   20.8130 H   0  0  0  0  0  0  0  0  0  0  0  0
  -25.4840  -22.3870   19.4720 H   0  0  0  0  0  0  0  0  0  0  0  0
  -27.3650  -23.3360   19.4300 C   0  0  0  0  0  3  0  0  0  0  0  0
  -27.4790  -24.7180   20.3640 C   0  0  0  0  0  3  0  0  0  0  0  0
  -28.0870  -26.1150   20.0270 O   0  0  0  0  0  0  0  0  0  0  0  0
  -24.7950  -31.8280   23.2790 C   0  0  0  0  0  0  0  0  0  0  0  0
  -27.1980  -27.2150   20.0180 C   0  0  0  0  0  0  0  0  0  0  0  0
  -23.5760  -30.5100   21.6020 C   0  0  0  0  0  3  0  0  0  0  0  0
  -24.9800  -29.0120   20.0880 C   0  0  0  0  0  0  0  0  0  0  0  0
  -26.1350  -30.7500   21.4380 C   0  0  0  0  0  2  0  0  0  0  0  0
  -26.1740  -29.3940   20.7180 C   0  0  0  0  0  0  0  0  0  0  0  0
  -27.3050  -28.5000   20.6780 C   0  0  0  0  0  3  0  0  0  0  0  0
  -26.0160  -26.9640   19.3130 C   0  0  0  0  0  3  0  0  0  0  0  0
  -24.9120  -27.8150   19.3720 C   0  0  0  0  0  3  0  0  0  0  0  0
  -23.7750  -29.9190   20.1880 C   0  0  0  0  0  2  0  0  0  0  0  0
  -24.8570  -31.0480   22.1590 N   0  0  0  0  0  0  0  0  0  0  0  0
  -23.7110  -32.1000   23.8200 O   0  0  0  0  0  0  0  0  0  0  0  0
  -22.9090  -29.4520   22.5160 C   0  0  0  0  0  0  0  0  0  0  0  0
  -21.5790  -29.2910   22.3930 N   0  0  0  0  0  0  0  0  0  0  0  0
  -23.5870  -28.7850   23.3030 O   0  0  0  0  0  0  0  0  0  0  0  0
  -21.0910  -29.8810   21.7340 H   0  0  0  0  0  0  0  0  0  0  0  0
  -18.1940  -28.1060   22.8800 C   0  0  0  0  0  0  0  0  0  0  0  0
  -20.7570  -28.3340   23.1350 C   0  0  0  0  0  3  0  0  0  0  0  0
  -20.8410  -26.9230   22.5060 C   0  0  0  0  0  2  0  0  0  0  0  0
  -19.7280  -26.6490   21.4900 C   0  0  0  0  0  2  0  0  0  0  0  0
  -18.3520  -26.7830   22.1510 C   0  0  0  0  0  2  0  0  0  0  0  0
  -19.3240  -28.8420   23.3280 C   0  0  0  0  0  0  0  0  0  0  0  0
  -19.1200  -30.0820   23.9700 C   0  0  0  0  0  3  0  0  0  0  0  0
  -17.8210  -30.5870   24.1680 C   0  0  0  0  0  3  0  0  0  0  0  0
  -16.7070  -29.8480   23.7350 C   0  0  0  0  0  3  0  0  0  0  0  0
  -16.8940  -28.6090   23.0960 C   0  0  0  0  0  3  0  0  0  0  0  0
  -26.0790  -32.4370   23.9170 C   0  0  0  0  0  3  0  0  0  0  0  0
  -25.7570  -33.8100   24.3360 N   0  0  0  0  0  0  0  0  0  0  0  0
  -26.0700  -34.9130   23.6450 C   0  0  0  0  0  0  0  0  0  0  0  0
  -26.7300  -34.8830   22.6030 O   0  0  0  0  0  0  0  0  0  0  0  0
  -25.1680  -33.9060   25.1510 H   0  0  0  0  0  0  0  0  0  0  0  0
  -24.3250  -36.7130   23.4220 C   0  0  0  0  0  1  0  0  0  0  0  0
  -25.5750  -36.2650   24.1960 C   0  0  0  0  0  3  0  0  0  0  0  0
  -27.7090  -37.1120   25.0680 C   0  0  0  0  0  1  0  0  0  0  0  0
  -26.5980  -37.3320   24.1450 N   0  0  0  0  0  0  0  0  0  0  0  0
  -26.1860  -38.2380   24.3560 H   0  0  0  0  0  0  0  0  0  0  0  0
  -26.6140  -31.5980   25.1420 C   0  0  1  0  0  0  0  0  0  0  0  0
  -25.5360  -31.2940   26.2090 C   0  0  0  0  0  1  0  0  0  0  0  0
  -27.1980  -30.2450   24.6740 C   0  0  0  0  0  1  0  0  0  0  0  0
  -27.7680  -32.3610   25.8320 C   0  0  0  0  0  1  0  0  0  0  0  0
  1 50  1  0
  1  3  1  0
  3  2  1  0
  4  3  1  0
  4  9  1  0
 10 11  1  0
 12 20  1  0
 13 18  1  0
 14 15  1  0
 14 13  1  0
 15 16  1  0
 16 17  1  0
 16 25  1  0
 18 17  1  0
 18 12  1  0
 19 12  2  0
 20 21  1  0
 20 11  1  0
 22 26  1  0
 23 24  2  0
 23 42  1  0
 25 22  1  0
 26 23  1  0
 27 28  1  0
 28 29  2  0
 30 33  1  0
 30 29  1  0
 31 30  2  0
 32 31  1  0
 32 27  2  0
 33 34  1  0
 34 35  1  0
 35 36  2  0
 37 36  1  0
 37 41  1  0
 38 37  2  0
 39 34  2  0
 39 38  1  0
 40 39  1  0
 42 43  1  0
 43 46  1  0
 43 45  1  0
 44 42  2  0
 47 22  2  0
 48 47  1  0
 49 47  1  0
 50 51  1  0
 51 52  1  0
 53 51  1  0
 54 51  1  0
 54 55  2  0
 56 55  1  0
 57 68  2  0
 58 56  1  0
 58 63  1  0
 59 67  1  0
 59 69  1  0
 60 66  1  0
 60 62  1  0
 61 67  1  0
 62 61  1  0
 63 62  2  0
 64 65  1  0
 64 58  2  0
 65 60  2  0
 66 59  1  0
 67 57  1  0
 69 71  2  0
 70 69  1  0
 72 70  1  0
 73 82  2  0
 73 78  1  0
 74 70  1  0
 74 78  1  0
 75 74  1  0
 76 77  1  0
 76 75  1  0
 77 73  1  0
 78 79  2  0
 79 80  1  0
 81 80  2  0
 82 81  1  0
 83 57  1  0
 83 84  1  0
 83 93  1  0
 84 87  1  0
 85 89  1  0
 85 84  1  0
 86 85  2  0
 89 88  1  0
 91 89  1  0
 91 92  1  0
 91 90  1  0
 93 96  1  1
 93 94  1  0
 95 93  1  0
M  ISO  4  12 100  20 100  55 101  56 101
M  END
>  <TORSDO>  (60) 
F 24

>  <SCORE>  (60) 
-2.751

>  <name>  (60) 
59

>  <ligand_id>  (60) 
59

>  <original_smiles>  (60) 
[H]c1c([H])c([H])c2c(c1[H])C([H])([H])C([H])([H])C([H])([H])C2([H])N([H])C(=O)C1([H])N(C(=O)C([H])(N([H])C(=O)C([H])(N([H])C([H])([H])[H])C([H])([H])[H])C(C([H])([H])[H])(C([H])([H])[H])C([H])([H])[H])C([H])([H])c2c([H])c(OC([H])([H])C([H])([H])[N+]([H])([H])C([H])([H])C([H])([H])C([H])(C([H])([H])[H])C([H])([H])C3([H])C([H])([H])C([H])([H])C([H])(C([H])([H])N([H])C(=O)N4C([H])([H])C([H])([H])C([H])([H])C([H])(n5nc(-c6c([H])c([H])c(Oc7c([H])c([H])c(F)c([H])c7F)c([H])c6[H])c(C(=O)N([H])[H])c5N([H])[H])C4([H])[H])C([H])([H])C3([H])[H])c([H])c([H])c2C1([H])[H]

>  <smiles>  (60) 
[H]c1c([H])c([H])c2c(c1[H])C([H])([H])C([H])([H])C([H])([H])C2([H])N([H])C(=O)C1([H])N(C(=O)C([H])(N([H])C(=O)C([H])(N([H])C([H])([H])[H])C([H])([H])[H])C(C([H])([H])[H])(C([H])([H])[H])C([H])([H])[H])C([H])([H])c2c([H])c(OC([H])([H])C([H])([H])[N+]([H])([H])C([H])([H])C([H])([H])C([H])(C([H])([H])[H])C([H])([H])C3([H])C([H])([H])C([H])([H])C([H])(C([H])([H])N([H])C(=O)N4C([H])([H])C([H])([H])C([H])([H])C([H])(n5nc(-c6c([H])c([H])c(Oc7c([H])c([H])c(F)c([H])c7F)c([H])c6[H])c(C(=O)N([H])[H])c5N([H])[H])C4([H])[H])C([H])([H])C3([H])[H])c([H])c([H])c2C1([H])[H]

$$$$
60:0:0
     RDKit          3D

 95103  0  0  1  0  0  0  0  0999 V2000
  -31.4060  -23.0230   22.3310 C   0  0  0  0  0  2  0  0  0  0  0  0
  -30.5470  -19.5230   21.0820 C   0  0  0  0  0  3  0  0  0  0  0  0
  -31.3860  -19.3160   23.3580 C   0  0  0  0  0  3  0  0  0  0  0  0
  -30.7490  -20.9120   21.1340 C   0  0  0  0  0  3  0  0  0  0  0  0
  -31.5860  -20.7120   23.4140 C   0  0  0  0  0  3  0  0  0  0  0  0
  -30.8520  -18.7070   22.1980 C   0  0  0  0  0  0  0  0  0  0  0  0
  -31.2600  -21.5140   22.3000 C   0  0  0  0  0  0  0  0  0  0  0  0
  -30.6210  -17.2310   22.1670 C   0  0  0  0  0  0  0  0  0  0  0  0
  -31.0590  -16.4560   23.0270 O   0  0  0  0  0  0  0  0  0  0  0  0
  -29.7460  -16.6940   21.0240 C   0  0  0  0  0  2  0  0  0  0  0  0
  -30.2630  -14.3650   20.3500 C   0  0  0  0  0  0  0  0  0  0  0  0
  -30.0050  -12.2860   19.0610 C   0  0  0  0  0  2  0  0  0  0  0  0
  -29.0010  -12.5380   17.9150 C   0  0  0  0  0  2  0  0  0  0  0  0
  -27.5510  -12.3250   18.3930 C   0  0  0  0  0  2  0  0  0  0  0  0
  -27.2420  -13.0690   19.7190 C   0  0  0  0  0  3  0  0  0  0  0  0
  -28.3460  -12.7880   20.7650 C   0  0  0  0  0  2  0  0  0  0  0  0
  -29.6440  -13.1710   20.1760 N   0  0  0  0  0  0  0  0  0  0  0  0
  -31.3100  -14.6860   19.7790 O   0  0  0  0  0  0  0  0  0  0  0  0
  -29.5590  -15.2450   21.0670 N   0  0  0  0  0  0  0  0  0  0  0  0
  -28.7340  -14.9020   21.5340 H   0  0  0  0  0  0  0  0  0  0  0  0
  -24.8180  -13.5450   20.4580 C   0  0  0  0  0  0  0  0  0  0  0  0
  -23.8100  -12.7160   20.8720 C   0  0  0  0  0  0  0  0  0  0  0  0
  -24.3580  -11.3970   20.8660 C   0  0  0  0  0  0  0  0  0  0  0  0
  -25.9150  -12.7260   20.2290 N   0  0  0  0  0  0  0  0  0  0  0  0
  -25.6400  -11.4310   20.5280 N   0  0  0  0  0  0  0  0  0  0  0  0
  -23.7220  -10.0940   21.1070 C   0  0  0  0  0  0  0  0  0  0  0  0
  -24.1990   -9.2110   22.0990 C   0  0  0  0  0  3  0  0  0  0  0  0
  -23.5590   -7.9740   22.3240 C   0  0  0  0  0  3  0  0  0  0  0  0
  -22.4280   -7.6100   21.5540 C   0  0  0  0  0  0  0  0  0  0  0  0
  -21.9710   -8.4830   20.5520 C   0  0  0  0  0  3  0  0  0  0  0  0
  -22.6120   -9.7120   20.3260 C   0  0  0  0  0  3  0  0  0  0  0  0
  -21.7590   -6.4160   21.6840 O   0  0  0  0  0  0  0  0  0  0  0  0
  -21.7030   -5.7500   22.8810 C   0  0  0  0  0  0  0  0  0  0  0  0
  -21.1660   -6.3470   24.0430 C   0  0  0  0  0  3  0  0  0  0  0  0
  -21.0620   -5.6030   25.2340 C   0  0  0  0  0  3  0  0  0  0  0  0
  -21.4870   -4.2610   25.2670 C   0  0  0  0  0  0  0  0  0  0  0  0
  -22.0180   -3.6630   24.1090 C   0  0  0  0  0  3  0  0  0  0  0  0
  -22.1230   -4.4050   22.9200 C   0  0  0  0  0  0  0  0  0  0  0  0
  -22.6160   -3.8170   21.8040 F   0  0  0  0  0  0  0  0  0  0  0  0
  -21.3810   -3.5430   26.4090 F   0  0  0  0  0  0  0  0  0  0  0  0
  -22.3910  -13.1090   21.1670 C   0  0  0  0  0  0  0  0  0  0  0  0
  -21.7360  -12.4020   22.0820 N   0  0  0  0  0  0  0  0  0  0  0  0
  -21.8690  -14.0800   20.6210 O   0  0  0  0  0  0  0  0  0  0  0  0
  -22.1700  -11.6190   22.5460 H   0  0  0  0  0  0  0  0  0  0  0  0
  -20.7870  -12.6510   22.3230 H   0  0  0  0  0  0  0  0  0  0  0  0
  -24.8890  -14.9180   20.2410 N   0  0  0  0  0  0  0  0  0  0  0  0
  -24.0830  -15.5250   20.3460 H   0  0  0  0  0  0  0  0  0  0  0  0
  -25.7020  -15.3990   19.8750 H   0  0  0  0  0  0  0  0  0  0  0  0
  -30.1630  -23.6950   22.9450 C   0  0  0  0  0  2  0  0  0  0  0  0
  -30.0120  -25.1160   22.5550 N   0  0  0  0  0  4  0  0  0  0  0  0
  -30.8940  -25.5960   22.6550 H   0  0  0  0  0  0  0  0  0  0  0  0
  -29.3740  -25.5270   23.2190 H   0  0  0  0  0  0  0  0  0  0  0  0
  -29.4530  -25.2990   21.1890 C   0  0  0  0  0  2  0  0  0  0  0  0
  -28.9060  -26.7120   20.9510 C   0  0  0  0  0  2  0  0  0  0  0  0
  -28.0620  -26.6660   19.7970 O   0  0  0  0  0  0  0  0  0  0  0  0
  -24.4530  -31.8300   23.0960 C   0  0  0  0  0  0  0  0  0  0  0  0
  -26.9330  -27.4470   19.8560 C   0  0  0  0  0  0  0  0  0  0  0  0
  -23.1680  -30.4910   21.4560 C   0  0  0  0  0  3  0  0  0  0  0  0
  -24.5520  -28.9590   19.9570 C   0  0  0  0  0  0  0  0  0  0  0  0
  -25.6850  -30.8220   21.1850 C   0  0  0  0  0  2  0  0  0  0  0  0
  -25.7280  -29.4640   20.5230 C   0  0  0  0  0  0  0  0  0  0  0  0
  -26.9200  -28.7170   20.4740 C   0  0  0  0  0  3  0  0  0  0  0  0
  -25.7490  -26.9540   19.2710 C   0  0  0  0  0  3  0  0  0  0  0  0
  -24.5540  -27.7010   19.3270 C   0  0  0  0  0  3  0  0  0  0  0  0
  -23.3220  -29.8320   20.0570 C   0  0  0  0  0  2  0  0  0  0  0  0
  -24.4560  -31.0600   21.9730 N   0  0  0  0  0  0  0  0  0  0  0  0
  -23.3950  -32.1110   23.6760 O   0  0  0  0  0  0  0  0  0  0  0  0
  -22.5250  -29.4620   22.4130 C   0  0  0  0  0  0  0  0  0  0  0  0
  -21.1940  -29.3110   22.3160 N   0  0  0  0  0  0  0  0  0  0  0  0
  -23.2180  -28.8050   23.1930 O   0  0  0  0  0  0  0  0  0  0  0  0
  -20.6990  -29.8930   21.6550 H   0  0  0  0  0  0  0  0  0  0  0  0
  -17.8090  -28.1830   22.8730 C   0  0  0  0  0  0  0  0  0  0  0  0
  -20.3780  -28.3750   23.0860 C   0  0  0  0  0  3  0  0  0  0  0  0
  -20.4320  -26.9560   22.4750 C   0  0  0  0  0  2  0  0  0  0  0  0
  -19.2970  -26.6820   21.4810 C   0  0  0  0  0  2  0  0  0  0  0  0
  -17.9360  -26.8450   22.1640 C   0  0  0  0  0  2  0  0  0  0  0  0
  -18.9560  -28.9080   23.2920 C   0  0  0  0  0  0  0  0  0  0  0  0
  -18.7820  -30.1630   23.9130 C   0  0  0  0  0  3  0  0  0  0  0  0
  -17.4950  -30.6920   24.1220 C   0  0  0  0  0  3  0  0  0  0  0  0
  -16.3630  -29.9630   23.7200 C   0  0  0  0  0  3  0  0  0  0  0  0
  -16.5210  -28.7090   23.1010 C   0  0  0  0  0  3  0  0  0  0  0  0
  -25.7720  -32.4150   23.6930 C   0  0  0  0  0  3  0  0  0  0  0  0
  -25.5030  -33.8060   24.0780 N   0  0  0  0  0  0  0  0  0  0  0  0
  -25.8580  -34.8760   23.3530 C   0  0  0  0  0  0  0  0  0  0  0  0
  -26.5180  -34.7920   22.3140 O   0  0  0  0  0  0  0  0  0  0  0  0
  -24.9130  -33.9460   24.8860 H   0  0  0  0  0  0  0  0  0  0  0  0
  -24.1840  -36.7300   23.0630 C   0  0  0  0  0  1  0  0  0  0  0  0
  -25.4090  -36.2590   23.8640 C   0  0  0  0  0  3  0  0  0  0  0  0
  -27.5630  -37.0470   24.7390 C   0  0  0  0  0  1  0  0  0  0  0  0
  -26.4730  -37.2840   23.7960 N   0  0  0  0  0  0  0  0  0  0  0  0
  -26.0940  -38.2110   23.9740 H   0  0  0  0  0  0  0  0  0  0  0  0
  -26.3220  -31.5890   24.9200 C   0  0  1  0  0  0  0  0  0  0  0  0
  -25.2640  -31.3300   26.0170 C   0  0  0  0  0  1  0  0  0  0  0  0
  -26.8670  -30.2180   24.4530 C   0  0  0  0  0  1  0  0  0  0  0  0
  -27.5110  -32.3390   25.5650 C   0  0  0  0  0  1  0  0  0  0  0  0
  1 49  1  0
  2  4  2  0
  2  6  1  0
  3  5  1  0
  4  7  1  0
  6  3  2  0
  7  1  1  0
  7  5  2  0
  8  6  1  0
  8  9  2  0
 10 19  1  0
 10  8  1  0
 11 19  1  0
 12 17  1  0
 13 14  1  0
 13 12  1  0
 15 14  1  0
 15 24  1  0
 15 16  1  0
 17 11  1  0
 17 16  1  0
 18 11  2  0
 19 20  1  0
 21 22  2  0
 22 41  1  0
 23 22  1  0
 23 26  1  0
 24 21  1  0
 24 25  1  0
 25 23  2  0
 26 27  1  0
 27 28  2  0
 29 32  1  0
 29 28  1  0
 30 29  2  0
 31 30  1  0
 31 26  2  0
 32 33  1  0
 33 38  2  0
 33 34  1  0
 34 35  2  0
 35 36  1  0
 36 40  1  0
 37 36  2  0
 38 37  1  0
 39 38  1  0
 41 42  1  0
 42 45  1  0
 42 44  1  0
 43 41  2  0
 46 47  1  0
 46 21  1  0
 48 46  1  0
 50 51  1  0
 50 49  1  0
 50 52  1  0
 53 50  1  0
 54 53  1  0
 55 57  1  0
 55 54  1  0
 56 67  2  0
 57 62  1  0
 58 66  1  0
 58 68  1  0
 59 65  1  0
 59 61  1  0
 60 66  1  0
 61 60  1  0
 62 61  2  0
 63 64  1  0
 63 57  2  0
 64 59  2  0
 65 58  1  0
 66 56  1  0
 68 70  2  0
 69 68  1  0
 71 69  1  0
 72 81  2  0
 72 77  1  0
 73 69  1  0
 73 77  1  0
 74 73  1  0
 75 76  1  0
 75 74  1  0
 76 72  1  0
 77 78  2  0
 78 79  1  0
 80 79  2  0
 81 80  1  0
 82 56  1  0
 82 83  1  0
 82 92  1  0
 83 86  1  0
 84 88  1  0
 84 83  1  0
 85 84  2  0
 88 87  1  0
 90 88  1  0
 90 91  1  0
 90 89  1  0
 92 95  1  1
 92 93  1  0
 94 92  1  0
M  ISO  4  11 100  19 100  54 101  55 101
M  END
>  <TORSDO>  (61) 
F 23

>  <SCORE>  (61) 
-11.275

>  <name>  (61) 
60

>  <ligand_id>  (61) 
60

>  <original_smiles>  (61) 
[H]c1c([H])c([H])c2c(c1[H])C([H])([H])C([H])([H])C([H])([H])C2([H])N([H])C(=O)C1([H])N(C(=O)C([H])(N([H])C(=O)C([H])(N([H])C([H])([H])[H])C([H])([H])[H])C(C([H])([H])[H])(C([H])([H])[H])C([H])([H])[H])C([H])([H])c2c([H])c(OC([H])([H])C([H])([H])[N+]([H])([H])C([H])([H])C([H])([H])c3c([H])c([H])c(C(=O)C([H])([H])N([H])C(=O)N4C([H])([H])C([H])([H])C([H])([H])C([H])(n5nc(-c6c([H])c([H])c(Oc7c([H])c([H])c(F)c([H])c7F)c([H])c6[H])c(C(=O)N([H])[H])c5N([H])[H])C4([H])[H])c([H])c3[H])c([H])c([H])c2C1([H])[H]

>  <smiles>  (61) 
[H]c1c([H])c([H])c2c(c1[H])C([H])([H])C([H])([H])C([H])([H])C2([H])N([H])C(=O)C1([H])N(C(=O)C([H])(N([H])C(=O)C([H])(N([H])C([H])([H])[H])C([H])([H])[H])C(C([H])([H])[H])(C([H])([H])[H])C([H])([H])[H])C([H])([H])c2c([H])c(OC([H])([H])C([H])([H])[N+]([H])([H])C([H])([H])C([H])([H])c3c([H])c([H])c(C(=O)C([H])([H])N([H])C(=O)N4C([H])([H])C([H])([H])C([H])([H])C([H])(n5nc(-c6c([H])c([H])c(Oc7c([H])c([H])c(F)c([H])c7F)c([H])c6[H])c(C(=O)N([H])[H])c5N([H])[H])C4([H])[H])c([H])c3[H])c([H])c([H])c2C1([H])[H]

$$$$
61:0:0
     RDKit          3D

 92100  0  0  1  0  0  0  0  0999 V2000
  -30.1340  -20.9840   21.6220 C   0  0  0  0  0  2  0  0  0  0  0  0
  -30.4290  -22.3670   21.2420 N   0  0  0  0  0  0  0  0  0  0  0  0
  -30.9590  -22.8140   21.9880 H   0  0  0  0  0  0  0  0  0  0  0  0
  -29.1960  -23.1080   20.9970 C   0  0  0  0  0  2  0  0  0  0  0  0
  -29.4800  -24.5930   20.6930 C   0  0  0  0  0  2  0  0  0  0  0  0
  -28.2080  -25.3140   20.2200 C   0  0  0  0  0  2  0  0  0  0  0  0
  -28.3630  -26.7380   20.1840 O   0  0  0  0  0  0  0  0  0  0  0  0
  -24.5450  -31.8990   23.2300 C   0  0  0  0  0  0  0  0  0  0  0  0
  -27.1900  -27.4640   20.1530 C   0  0  0  0  0  0  0  0  0  0  0  0
  -23.3390  -30.4990   21.5890 C   0  0  0  0  0  3  0  0  0  0  0  0
  -24.7930  -28.9660   20.1630 C   0  0  0  0  0  0  0  0  0  0  0  0
  -25.8650  -30.8600   21.3900 C   0  0  0  0  0  2  0  0  0  0  0  0
  -25.9510  -29.4910   20.7480 C   0  0  0  0  0  0  0  0  0  0  0  0
  -27.1540  -28.7490   20.7370 C   0  0  0  0  0  3  0  0  0  0  0  0
  -26.0110  -26.9540   19.5570 C   0  0  0  0  0  3  0  0  0  0  0  0
  -24.8170  -27.6950   19.5640 C   0  0  0  0  0  3  0  0  0  0  0  0
  -23.5490  -29.8220   20.2080 C   0  0  0  0  0  2  0  0  0  0  0  0
  -24.6020  -31.1010   22.1280 N   0  0  0  0  0  0  0  0  0  0  0  0
  -23.4640  -32.1730   23.7700 O   0  0  0  0  0  0  0  0  0  0  0  0
  -22.6890  -29.4760   22.5480 C   0  0  0  0  0  0  0  0  0  0  0  0
  -21.3640  -29.2970   22.4220 N   0  0  0  0  0  0  0  0  0  0  0  0
  -23.3730  -28.8470   23.3590 O   0  0  0  0  0  0  0  0  0  0  0  0
  -20.8750  -29.8560   21.7370 H   0  0  0  0  0  0  0  0  0  0  0  0
  -17.9850  -28.1230   22.9270 C   0  0  0  0  0  0  0  0  0  0  0  0
  -20.5450  -28.3620   23.1920 C   0  0  0  0  0  3  0  0  0  0  0  0
  -20.6370  -26.9330   22.6090 C   0  0  0  0  0  2  0  0  0  0  0  0
  -19.5290  -26.6220   21.5980 C   0  0  0  0  0  2  0  0  0  0  0  0
  -18.1500  -26.7750   22.2470 C   0  0  0  0  0  2  0  0  0  0  0  0
  -19.1100  -28.8760   23.3560 C   0  0  0  0  0  0  0  0  0  0  0  0
  -18.9030  -30.1390   23.9510 C   0  0  0  0  0  3  0  0  0  0  0  0
  -17.6020  -30.6500   24.1230 C   0  0  0  0  0  3  0  0  0  0  0  0
  -16.4910  -29.8930   23.7110 C   0  0  0  0  0  3  0  0  0  0  0  0
  -16.6830  -28.6330   23.1180 C   0  0  0  0  0  3  0  0  0  0  0  0
  -25.8330  -32.5300   23.8500 C   0  0  0  0  0  3  0  0  0  0  0  0
  -26.3530  -31.7550   25.1230 C   0  0  1  0  0  0  0  0  0  0  0  0
  -25.2630  -31.5140   26.1920 C   0  0  0  0  0  1  0  0  0  0  0  0
  -26.9360  -30.3800   24.7230 C   0  0  0  0  0  1  0  0  0  0  0  0
  -27.5030  -32.5500   25.7850 C   0  0  0  0  0  1  0  0  0  0  0  0
  -25.5250  -33.9270   24.1800 N   0  0  0  0  0  0  0  0  0  0  0  0
  -25.8640  -34.9790   23.4220 C   0  0  0  0  0  0  0  0  0  0  0  0
  -26.5400  -34.8750   22.3960 O   0  0  0  0  0  0  0  0  0  0  0  0
  -24.9260  -34.0830   24.9780 H   0  0  0  0  0  0  0  0  0  0  0  0
  -24.1450  -36.7770   23.0510 C   0  0  0  0  0  1  0  0  0  0  0  0
  -25.3750  -36.3680   23.8770 C   0  0  0  0  0  3  0  0  0  0  0  0
  -27.5020  -37.2420   24.7360 C   0  0  0  0  0  1  0  0  0  0  0  0
  -26.4130  -37.4180   23.7790 N   0  0  0  0  0  0  0  0  0  0  0  0
  -26.0080  -38.3380   23.9250 H   0  0  0  0  0  0  0  0  0  0  0  0
  -31.4170  -20.1270   21.5410 C   0  0  0  0  0  2  0  0  0  0  0  0
  -31.3160  -18.8000   22.1990 N   0  0  0  0  0  4  0  0  0  0  0  0
  -32.2270  -18.3780   22.1110 H   0  0  0  0  0  0  0  0  0  0  0  0
  -31.1600  -18.9350   23.1860 H   0  0  0  0  0  0  0  0  0  0  0  0
  -30.7060  -14.4680   20.4750 C   0  0  0  0  0  0  0  0  0  0  0  0
  -30.3650  -12.3360   19.2950 C   0  0  0  0  0  2  0  0  0  0  0  0
  -29.4260  -12.5640   18.0950 C   0  0  0  0  0  2  0  0  0  0  0  0
  -27.9520  -12.4320   18.5250 C   0  0  0  0  0  2  0  0  0  0  0  0
  -27.6200  -13.2620   19.7940 C   0  0  0  0  0  3  0  0  0  0  0  0
  -28.6750  -13.0350   20.9010 C   0  0  0  0  0  2  0  0  0  0  0  0
  -30.0020  -13.3150   20.3290 N   0  0  0  0  0  0  0  0  0  0  0  0
  -31.8440  -14.6250   20.0210 O   0  0  0  0  0  0  0  0  0  0  0  0
  -30.1200  -17.7830   20.1700 C   0  0  0  0  0  2  0  0  0  0  0  0
  -29.4260  -16.4320   19.9970 C   0  0  0  0  0  2  0  0  0  0  0  0
  -30.6590  -16.3680   22.0150 C   0  0  0  0  0  2  0  0  0  0  0  0
  -30.3170  -17.8310   21.6790 C   0  0  0  0  0  3  0  0  0  0  0  0
  -30.0270  -15.5200   20.9840 N   0  0  0  0  0  0  0  0  0  0  0  0
  -25.2200  -13.8780   20.4910 C   0  0  0  0  0  0  0  0  0  0  0  0
  -24.1510  -13.1090   20.8630 C   0  0  0  0  0  0  0  0  0  0  0  0
  -24.6120  -11.7570   20.8470 C   0  0  0  0  0  0  0  0  0  0  0  0
  -26.2660  -12.9940   20.2720 N   0  0  0  0  0  0  0  0  0  0  0  0
  -25.9040  -11.7140   20.5440 N   0  0  0  0  0  0  0  0  0  0  0  0
  -23.8860  -10.4970   21.0460 C   0  0  0  0  0  0  0  0  0  0  0  0
  -24.3220   -9.5350   21.9830 C   0  0  0  0  0  3  0  0  0  0  0  0
  -23.5990   -8.3370   22.1700 C   0  0  0  0  0  3  0  0  0  0  0  0
  -22.4230   -8.0950   21.4200 C   0  0  0  0  0  0  0  0  0  0  0  0
  -22.0060   -9.0460   20.4720 C   0  0  0  0  0  3  0  0  0  0  0  0
  -22.7310  -10.2350   20.2830 C   0  0  0  0  0  3  0  0  0  0  0  0
  -21.6700   -6.9500   21.5150 O   0  0  0  0  0  0  0  0  0  0  0  0
  -21.6320   -6.2080   22.6690 C   0  0  0  0  0  0  0  0  0  0  0  0
  -21.2190   -6.7640   23.8990 C   0  0  0  0  0  3  0  0  0  0  0  0
  -21.1280   -5.9480   25.0440 C   0  0  0  0  0  3  0  0  0  0  0  0
  -21.4400   -4.5780   24.9610 C   0  0  0  0  0  0  0  0  0  0  0  0
  -21.8450   -4.0210   23.7350 C   0  0  0  0  0  3  0  0  0  0  0  0
  -21.9390   -4.8340   22.5910 C   0  0  0  0  0  0  0  0  0  0  0  0
  -22.3090   -4.2890   21.4080 F   0  0  0  0  0  0  0  0  0  0  0  0
  -21.3440   -3.7920   26.0590 F   0  0  0  0  0  0  0  0  0  0  0  0
  -22.7530  -13.5890   21.1260 C   0  0  0  0  0  0  0  0  0  0  0  0
  -22.0210  -12.8980   21.9940 N   0  0  0  0  0  0  0  0  0  0  0  0
  -22.3170  -14.6100   20.5990 O   0  0  0  0  0  0  0  0  0  0  0  0
  -22.3870  -12.0730   22.4450 H   0  0  0  0  0  0  0  0  0  0  0  0
  -21.0820  -13.2010   22.2110 H   0  0  0  0  0  0  0  0  0  0  0  0
  -25.3860  -15.2470   20.3000 N   0  0  0  0  0  0  0  0  0  0  0  0
  -24.6200  -15.9030   20.3980 H   0  0  0  0  0  0  0  0  0  0  0  0
  -26.2400  -15.6800   19.9730 H   0  0  0  0  0  0  0  0  0  0  0  0
  2  1  1  0
  2  3  1  0
  4  2  1  0
  5  4  1  0
  6  5  1  0
  7  6  1  0
  8 19  2  0
  9  7  1  0
  9 14  1  0
 10 18  1  0
 10 20  1  0
 11 17  1  0
 11 13  1  0
 12 18  1  0
 13 12  1  0
 14 13  2  0
 15 16  1  0
 15  9  2  0
 16 11  2  0
 17 10  1  0
 18  8  1  0
 20 22  2  0
 21 20  1  0
 23 21  1  0
 24 33  2  0
 24 29  1  0
 25 21  1  0
 25 29  1  0
 26 25  1  0
 27 28  1  0
 27 26  1  0
 28 24  1  0
 29 30  2  0
 30 31  1  0
 32 31  2  0
 33 32  1  0
 34  8  1  0
 34 39  1  0
 34 35  1  0
 35 38  1  1
 35 36  1  0
 37 35  1  0
 39 42  1  0
 40 44  1  0
 40 39  1  0
 41 40  2  0
 44 43  1  0
 46 44  1  0
 46 47  1  0
 46 45  1  0
 48  1  1  0
 48 49  1  0
 49 51  1  0
 50 49  1  0
 52 64  1  0
 53 58  1  0
 54 55  1  0
 54 53  1  0
 56 55  1  0
 56 68  1  0
 56 57  1  0
 58 52  1  0
 58 57  1  0
 59 52  2  0
 60 63  1  0
 61 60  1  0
 61 64  1  0
 63 62  1  0
 63 49  1  0
 64 62  1  0
 65 66  2  0
 66 85  1  0
 67 66  1  0
 67 70  1  0
 68 65  1  0
 68 69  1  0
 69 67  2  0
 70 71  1  0
 71 72  2  0
 73 76  1  0
 73 72  1  0
 74 73  2  0
 75 74  1  0
 75 70  2  0
 76 77  1  0
 77 78  1  0
 78 79  2  0
 80 79  1  0
 80 84  1  0
 81 80  2  0
 82 77  2  0
 82 81  1  0
 83 82  1  0
 85 86  1  0
 86 89  1  0
 86 88  1  0
 87 85  2  0
 90 91  1  0
 90 65  1  0
 92 90  1  0
M  ISO  4   6 101   7 101  52 100  64 100
M  END
>  <TORSDO>  (62) 
F 22

>  <SCORE>  (62) 
-13.292

>  <name>  (62) 
61

>  <ligand_id>  (62) 
61

>  <original_smiles>  (62) 
[H]c1c([H])c([H])c2c(c1[H])C([H])([H])C([H])([H])C([H])([H])C2([H])N([H])C(=O)C1([H])N(C(=O)C([H])(N([H])C(=O)C([H])(N([H])C([H])([H])[H])C([H])([H])[H])C(C([H])([H])[H])(C([H])([H])[H])C([H])([H])[H])C([H])([H])c2c([H])c(OC([H])([H])C([H])([H])C([H])([H])N([H])C([H])([H])C([H])([H])[N+]([H])([H])C3([H])C([H])([H])N(C(=O)N4C([H])([H])C([H])([H])C([H])([H])C([H])(n5nc(-c6c([H])c([H])c(Oc7c([H])c([H])c(F)c([H])c7F)c([H])c6[H])c(C(=O)N([H])[H])c5N([H])[H])C4([H])[H])C([H])([H])C3([H])[H])c([H])c([H])c2C1([H])[H]

>  <smiles>  (62) 
[H]c1c([H])c([H])c2c(c1[H])C([H])([H])C([H])([H])C([H])([H])C2([H])N([H])C(=O)C1([H])N(C(=O)C([H])(N([H])C(=O)C([H])(N([H])C([H])([H])[H])C([H])([H])[H])C(C([H])([H])[H])(C([H])([H])[H])C([H])([H])[H])C([H])([H])c2c([H])c(OC([H])([H])C([H])([H])C([H])([H])N([H])C([H])([H])C([H])([H])[N+]([H])([H])C3([H])C([H])([H])N(C(=O)N4C([H])([H])C([H])([H])C([H])([H])C([H])(n5nc(-c6c([H])c([H])c(Oc7c([H])c([H])c(F)c([H])c7F)c([H])c6[H])c(C(=O)N([H])[H])c5N([H])[H])C4([H])[H])C([H])([H])C3([H])[H])c([H])c([H])c2C1([H])[H]

$$$$
62:0:0
     RDKit          3D

 96105  0  0  1  0  0  0  0  0999 V2000
  -31.1120  -25.5240   19.6400 C   0  0  0  0  0  2  0  0  0  0  0  0
  -29.1920  -24.6640   18.2710 C   0  0  0  0  0  2  0  0  0  0  0  0
  -31.9340  -24.2920   19.2160 C   0  0  0  0  0  2  0  0  0  0  0  0
  -30.0560  -23.4540   17.8720 C   0  0  0  0  0  2  0  0  0  0  0  0
  -30.0660  -25.8940   18.5740 C   0  0  0  0  0  3  0  0  0  0  0  0
  -31.0550  -23.1270   18.9280 N   0  0  1  0  0  4  0  0  0  0  0  0
  -30.5520  -22.9500   19.7840 H   0  0  0  0  0  0  0  0  0  0  0  0
  -31.8320  -21.8890   18.6360 C   0  0  0  0  0  2  0  0  0  0  0  0
  -30.7850  -20.1790   20.2860 C   0  0  0  0  0  0  0  0  0  0  0  0
  -30.0580  -18.8500   20.5270 C   0  0  0  0  0  2  0  0  0  0  0  0
  -31.6860  -19.3970   18.0870 C   0  0  0  0  0  2  0  0  0  0  0  0
  -30.8320  -18.1270   18.1940 C   0  0  0  0  0  2  0  0  0  0  0  0
  -31.0220  -20.5770   18.8180 C   0  0  0  0  0  3  0  0  0  0  0  0
  -30.5960  -17.6850   19.6570 C   0  0  0  0  0  3  0  0  0  0  0  0
  -31.1090  -20.9170   21.2210 O   0  0  0  0  0  0  0  0  0  0  0  0
  -29.6110  -16.4920   19.6510 C   0  0  0  0  0  2  0  0  0  0  0  0
  -30.6310  -14.4370   20.4510 C   0  0  0  0  0  0  0  0  0  0  0  0
  -30.3410  -12.2710   19.3520 C   0  0  0  0  0  2  0  0  0  0  0  0
  -29.4060  -12.5150   18.1460 C   0  0  0  0  0  2  0  0  0  0  0  0
  -27.9250  -12.4100   18.5640 C   0  0  0  0  0  2  0  0  0  0  0  0
  -27.5960  -13.2220   19.8460 C   0  0  0  0  0  3  0  0  0  0  0  0
  -28.6500  -12.9660   20.9520 C   0  0  0  0  0  2  0  0  0  0  0  0
  -29.9850  -13.2450   20.3930 N   0  0  0  0  0  0  0  0  0  0  0  0
  -31.7690  -14.6220   20.0100 O   0  0  0  0  0  0  0  0  0  0  0  0
  -29.8160  -15.4750   20.6870 N   0  0  0  0  0  0  0  0  0  0  0  0
  -28.9760  -15.2230   21.1860 H   0  0  0  0  0  0  0  0  0  0  0  0
  -25.1950  -13.8460   20.5440 C   0  0  0  0  0  0  0  0  0  0  0  0
  -24.1250  -13.0760   20.9170 C   0  0  0  0  0  0  0  0  0  0  0  0
  -24.5830  -11.7240   20.8910 C   0  0  0  0  0  0  0  0  0  0  0  0
  -26.2380  -12.9600   20.3180 N   0  0  0  0  0  0  0  0  0  0  0  0
  -25.8720  -11.6790   20.5820 N   0  0  0  0  0  0  0  0  0  0  0  0
  -23.8530  -10.4640   21.0830 C   0  0  0  0  0  0  0  0  0  0  0  0
  -24.2970   -9.4850   21.9990 C   0  0  0  0  0  3  0  0  0  0  0  0
  -23.5670   -8.2910   22.1810 C   0  0  0  0  0  3  0  0  0  0  0  0
  -22.3790   -8.0680   21.4460 C   0  0  0  0  0  0  0  0  0  0  0  0
  -21.9550   -9.0350   20.5170 C   0  0  0  0  0  3  0  0  0  0  0  0
  -22.6860  -10.2200   20.3340 C   0  0  0  0  0  3  0  0  0  0  0  0
  -21.6200   -6.9260   21.5360 O   0  0  0  0  0  0  0  0  0  0  0  0
  -21.6090   -6.1590   22.6730 C   0  0  0  0  0  0  0  0  0  0  0  0
  -21.2480   -6.6950   23.9280 C   0  0  0  0  0  3  0  0  0  0  0  0
  -21.1810   -5.8560   25.0590 C   0  0  0  0  0  3  0  0  0  0  0  0
  -21.4640   -4.4830   24.9350 C   0  0  0  0  0  0  0  0  0  0  0  0
  -21.8170   -3.9470   23.6840 C   0  0  0  0  0  3  0  0  0  0  0  0
  -21.8870   -4.7820   22.5550 C   0  0  0  0  0  0  0  0  0  0  0  0
  -22.2070   -4.2560   21.3480 F   0  0  0  0  0  0  0  0  0  0  0  0
  -21.3920   -3.6750   26.0190 F   0  0  0  0  0  0  0  0  0  0  0  0
  -22.7290  -13.5590   21.1910 C   0  0  0  0  0  0  0  0  0  0  0  0
  -22.0010  -12.8650   22.0600 N   0  0  0  0  0  0  0  0  0  0  0  0
  -22.2920  -14.5860   20.6710 O   0  0  0  0  0  0  0  0  0  0  0  0
  -22.3670  -12.0310   22.4960 H   0  0  0  0  0  0  0  0  0  0  0  0
  -21.0660  -13.1660   22.2890 H   0  0  0  0  0  0  0  0  0  0  0  0
  -25.3580  -15.2160   20.3630 N   0  0  0  0  0  0  0  0  0  0  0  0
  -24.5870  -15.8630   20.4880 H   0  0  0  0  0  0  0  0  0  0  0  0
  -26.2030  -15.6620   20.0320 H   0  0  0  0  0  0  0  0  0  0  0  0
  -29.2280  -27.1170   18.9760 C   0  0  0  0  0  2  0  0  0  0  0  0
  -28.4040  -26.7780   20.0810 O   0  0  0  0  0  0  0  0  0  0  0  0
  -24.6020  -31.8920   23.2240 C   0  0  0  0  0  0  0  0  0  0  0  0
  -27.2400  -27.4930   20.1260 C   0  0  0  0  0  0  0  0  0  0  0  0
  -23.3860  -30.4850   21.5900 C   0  0  0  0  0  3  0  0  0  0  0  0
  -24.8350  -28.9520   20.1590 C   0  0  0  0  0  0  0  0  0  0  0  0
  -25.9050  -30.8620   21.3710 C   0  0  0  0  0  2  0  0  0  0  0  0
  -25.9910  -29.4920   20.7370 C   0  0  0  0  0  0  0  0  0  0  0  0
  -27.2000  -28.7680   20.7240 C   0  0  0  0  0  3  0  0  0  0  0  0
  -26.0730  -26.9460   19.5580 C   0  0  0  0  0  3  0  0  0  0  0  0
  -24.8670  -27.6740   19.5700 C   0  0  0  0  0  3  0  0  0  0  0  0
  -23.5850  -29.8010   20.2110 C   0  0  0  0  0  2  0  0  0  0  0  0
  -24.6490  -31.0930   22.1210 N   0  0  0  0  0  0  0  0  0  0  0  0
  -23.5240  -32.1620   23.7730 O   0  0  0  0  0  0  0  0  0  0  0  0
  -22.7450  -29.4640   22.5570 C   0  0  0  0  0  0  0  0  0  0  0  0
  -21.4200  -29.2830   22.4360 N   0  0  0  0  0  0  0  0  0  0  0  0
  -23.4340  -28.8390   23.3660 O   0  0  0  0  0  0  0  0  0  0  0  0
  -20.9260  -29.8410   21.7530 H   0  0  0  0  0  0  0  0  0  0  0  0
  -18.0490  -28.0920   22.9470 C   0  0  0  0  0  0  0  0  0  0  0  0
  -20.6060  -28.3470   23.2100 C   0  0  0  0  0  3  0  0  0  0  0  0
  -20.7070  -26.9160   22.6320 C   0  0  0  0  0  2  0  0  0  0  0  0
  -19.6000  -26.5940   21.6230 C   0  0  0  0  0  2  0  0  0  0  0  0
  -18.2210  -26.7420   22.2710 C   0  0  0  0  0  2  0  0  0  0  0  0
  -19.1700  -28.8520   23.3720 C   0  0  0  0  0  0  0  0  0  0  0  0
  -18.9550  -30.1190   23.9600 C   0  0  0  0  0  3  0  0  0  0  0  0
  -17.6530  -30.6230   24.1290 C   0  0  0  0  0  3  0  0  0  0  0  0
  -16.5460  -29.8570   23.7230 C   0  0  0  0  0  3  0  0  0  0  0  0
  -16.7440  -28.5950   23.1380 C   0  0  0  0  0  3  0  0  0  0  0  0
  -25.8930  -32.5220   23.8360 C   0  0  0  0  0  3  0  0  0  0  0  0
  -26.4280  -31.7420   25.0980 C   0  0  1  0  0  0  0  0  0  0  0  0
  -25.3480  -31.4890   26.1760 C   0  0  0  0  0  1  0  0  0  0  0  0
  -27.0110  -30.3700   24.6850 C   0  0  0  0  0  1  0  0  0  0  0  0
  -27.5840  -32.5330   25.7550 C   0  0  0  0  0  1  0  0  0  0  0  0
  -25.5850  -33.9170   24.1770 N   0  0  0  0  0  0  0  0  0  0  0  0
  -25.9160  -34.9730   23.4210 C   0  0  0  0  0  0  0  0  0  0  0  0
  -26.5820  -34.8750   22.3870 O   0  0  0  0  0  0  0  0  0  0  0  0
  -24.9950  -34.0660   24.9810 H   0  0  0  0  0  0  0  0  0  0  0  0
  -24.1800  -36.7630   23.0800 C   0  0  0  0  0  1  0  0  0  0  0  0
  -25.4260  -36.3580   23.8860 C   0  0  0  0  0  3  0  0  0  0  0  0
  -27.5640  -37.2390   24.7100 C   0  0  0  0  0  1  0  0  0  0  0  0
  -26.4560  -37.4130   23.7740 N   0  0  0  0  0  0  0  0  0  0  0  0
  -26.0500  -38.3310   23.9290 H   0  0  0  0  0  0  0  0  0  0  0  0
  2  5  1  0
  3  1  1  0
  4  2  1  0
  4  6  1  0
  5 55  1  0
  5  1  1  0
  6  3  1  0
  6  7  1  1
  8  6  1  0
  9 10  1  0
  9 15  2  0
 11 12  1  0
 11 13  1  0
 12 14  1  0
 13  8  1  0
 13  9  1  0
 14 16  1  0
 14 10  1  0
 16 25  1  0
 17 25  1  0
 18 23  1  0
 19 20  1  0
 19 18  1  0
 21 20  1  0
 21 30  1  0
 21 22  1  0
 23 17  1  0
 23 22  1  0
 24 17  2  0
 25 26  1  0
 27 28  2  0
 28 47  1  0
 29 28  1  0
 29 32  1  0
 30 27  1  0
 30 31  1  0
 31 29  2  0
 32 33  1  0
 33 34  2  0
 35 38  1  0
 35 34  1  0
 36 35  2  0
 37 36  1  0
 37 32  2  0
 38 39  1  0
 39 40  1  0
 40 41  2  0
 42 41  1  0
 42 46  1  0
 43 42  2  0
 44 39  2  0
 44 43  1  0
 45 44  1  0
 47 48  1  0
 48 51  1  0
 48 50  1  0
 49 47  2  0
 52 53  1  0
 52 27  1  0
 54 52  1  0
 55 56  1  0
 56 58  1  0
 57 68  2  0
 58 63  1  0
 59 67  1  0
 59 69  1  0
 60 66  1  0
 60 62  1  0
 61 67  1  0
 62 61  1  0
 63 62  2  0
 64 65  1  0
 64 58  2  0
 65 60  2  0
 66 59  1  0
 67 57  1  0
 69 71  2  0
 70 69  1  0
 72 70  1  0
 73 82  2  0
 73 78  1  0
 74 70  1  0
 74 78  1  0
 75 74  1  0
 76 77  1  0
 76 75  1  0
 77 73  1  0
 78 79  2  0
 79 80  1  0
 81 80  2  0
 82 81  1  0
 83 57  1  0
 83 88  1  0
 83 84  1  0
 84 87  1  1
 84 85  1  0
 86 84  1  0
 88 91  1  0
 89 93  1  0
 89 88  1  0
 90 89  2  0
 93 92  1  0
 95 93  1  0
 95 96  1  0
 95 94  1  0
M  ISO  4  17 100  25 100  55 101  56 101
M  END
>  <TORSDO>  (63) 
F 20

>  <SCORE>  (63) 
-13.878

>  <name>  (63) 
62

>  <ligand_id>  (63) 
62

>  <original_smiles>  (63) 
[H]c1c([H])c([H])c2c(c1[H])C([H])([H])C([H])([H])C([H])([H])C2([H])N([H])C(=O)C1([H])N(C(=O)C([H])(N([H])C(=O)C([H])(N([H])C([H])([H])[H])C([H])([H])[H])C(C([H])([H])[H])(C([H])([H])[H])C([H])([H])[H])C([H])([H])c2c([H])c(OC([H])([H])C3([H])C([H])([H])C([H])([H])[N+]([H])(C([H])([H])C4([H])C(=O)C([H])([H])C([H])(C([H])([H])N([H])C(=O)N5C([H])([H])C([H])([H])C([H])([H])C([H])(n6nc(-c7c([H])c([H])c(Oc8c([H])c([H])c(F)c([H])c8F)c([H])c7[H])c(C(=O)N([H])[H])c6N([H])[H])C5([H])[H])C([H])([H])C4([H])[H])C([H])([H])C3([H])[H])c([H])c([H])c2C1([H])[H]

>  <smiles>  (63) 
[H]c1c([H])c([H])c2c(c1[H])C([H])([H])C([H])([H])C([H])([H])C2([H])N([H])C(=O)C1([H])N(C(=O)C([H])(N([H])C(=O)C([H])(N([H])C([H])([H])[H])C([H])([H])[H])C(C([H])([H])[H])(C([H])([H])[H])C([H])([H])[H])C([H])([H])c2c([H])c(OC([H])([H])C3([H])C([H])([H])C([H])([H])[N+]([H])(C([H])([H])C4([H])C(=O)C([H])([H])C([H])(C([H])([H])N([H])C(=O)N5C([H])([H])C([H])([H])C([H])([H])C([H])(n6nc(-c7c([H])c([H])c(Oc8c([H])c([H])c(F)c([H])c8F)c([H])c7[H])c(C(=O)N([H])[H])c6N([H])[H])C5([H])[H])C([H])([H])C4([H])[H])C([H])([H])C3([H])[H])c([H])c([H])c2C1([H])[H]

$$$$
63:0:0
     RDKit          3D

100109  0  0  1  0  0  0  0  0999 V2000
  -29.8360  -26.6410   12.5130 C   0  0  0  0  0  3  0  0  0  0  0  0
  -28.5520  -26.3660   12.9930 C   0  0  0  0  0  3  0  0  0  0  0  0
  -30.1750  -26.2640   11.2110 C   0  0  0  0  0  3  0  0  0  0  0  0
  -27.9330  -25.2690   10.8670 C   0  0  0  0  0  0  0  0  0  0  0  0
  -27.5930  -25.7000   12.1950 C   0  0  0  0  0  0  0  0  0  0  0  0
  -29.2380  -25.6130   10.3790 C   0  0  0  0  0  0  0  0  0  0  0  0
  -26.9490  -24.5610    9.9510 C   0  0  0  0  0  0  0  0  0  0  0  0
  -26.2290  -25.5070   12.8540 C   0  0  0  0  0  2  0  0  0  0  0  0
  -25.0340  -26.0290   12.0380 C   0  0  0  0  0  2  0  0  0  0  0  0
  -24.4800  -24.1720   10.5540 C   0  0  0  0  0  2  0  0  0  0  0  0
  -25.9190  -23.5690   10.5300 C   0  0  0  0  0  3  0  0  0  0  0  0
  -24.1110  -24.9220   11.7660 N   0  0  0  0  0  0  0  0  0  0  0  0
  -26.9670  -24.7240    8.7240 O   0  0  0  0  0  0  0  0  0  0  0  0
  -30.2530  -24.1340    8.7110 C   0  0  0  0  0  0  0  0  0  0  0  0
  -31.1250  -22.8140    6.8250 C   0  0  0  0  0  2  0  0  0  0  0  0
  -32.6620  -22.8440    6.7520 C   0  0  0  0  0  2  0  0  0  0  0  0
  -33.1430  -24.0700    5.9540 C   0  0  0  0  0  2  0  0  0  0  0  0
  -32.4860  -25.3890    6.4380 C   0  0  0  0  0  3  0  0  0  0  0  0
  -30.9540  -25.2300    6.5500 C   0  0  0  0  0  2  0  0  0  0  0  0
  -30.6600  -24.0740    7.4200 N   0  0  0  0  0  0  0  0  0  0  0  0
  -30.3080  -23.1690    9.4840 O   0  0  0  0  0  0  0  0  0  0  0  0
  -29.6850  -25.2950    9.0680 N   0  0  0  0  0  0  0  0  0  0  0  0
  -29.7360  -26.0370    8.3850 H   0  0  0  0  0  0  0  0  0  0  0  0
  -33.0690  -26.5310    4.2040 C   0  0  0  0  0  0  0  0  0  0  0  0
  -33.3100  -27.8420    3.8830 C   0  0  0  0  0  0  0  0  0  0  0  0
  -33.2220  -28.5710    5.1090 C   0  0  0  0  0  0  0  0  0  0  0  0
  -32.8490  -26.5100    5.5720 N   0  0  0  0  0  0  0  0  0  0  0  0
  -32.9960  -27.7440    6.1200 N   0  0  0  0  0  0  0  0  0  0  0  0
  -33.2830  -30.0150    5.3710 C   0  0  0  0  0  0  0  0  0  0  0  0
  -32.1240  -30.8230    5.3330 C   0  0  0  0  0  3  0  0  0  0  0  0
  -32.2060  -32.2050    5.6080 C   0  0  0  0  0  3  0  0  0  0  0  0
  -33.4520  -32.7940    5.9270 C   0  0  0  0  0  0  0  0  0  0  0  0
  -34.6060  -31.9890    5.9400 C   0  0  0  0  0  3  0  0  0  0  0  0
  -34.5240  -30.6140    5.6620 C   0  0  0  0  0  3  0  0  0  0  0  0
  -33.6310  -34.1310    6.1810 O   0  0  0  0  0  0  0  0  0  0  0  0
  -33.7980  -35.0400    5.1670 C   0  0  0  0  0  0  0  0  0  0  0  0
  -32.7290  -35.4340    4.3350 C   0  0  0  0  0  3  0  0  0  0  0  0
  -32.9280  -36.4220    3.3510 C   0  0  0  0  0  3  0  0  0  0  0  0
  -34.1930  -37.0220    3.2020 C   0  0  0  0  0  0  0  0  0  0  0  0
  -35.2590  -36.6350    4.0330 C   0  0  0  0  0  3  0  0  0  0  0  0
  -35.0610  -35.6480    5.0150 C   0  0  0  0  0  0  0  0  0  0  0  0
  -36.0860  -35.2940    5.8280 F   0  0  0  0  0  0  0  0  0  0  0  0
  -34.3850  -37.9770    2.2620 F   0  0  0  0  0  0  0  0  0  0  0  0
  -33.5200  -28.4030    2.5060 C   0  0  0  0  0  0  0  0  0  0  0  0
  -32.7180  -29.3890    2.1180 N   0  0  0  0  0  0  0  0  0  0  0  0
  -34.4310  -28.0000    1.7840 O   0  0  0  0  0  0  0  0  0  0  0  0
  -31.9820  -29.7320    2.7170 H   0  0  0  0  0  0  0  0  0  0  0  0
  -32.8410  -29.8080    1.2070 H   0  0  0  0  0  0  0  0  0  0  0  0
  -33.0010  -25.3630    3.4490 N   0  0  0  0  0  0  0  0  0  0  0  0
  -32.9570  -25.4060    2.4380 H   0  0  0  0  0  0  0  0  0  0  0  0
  -32.6540  -24.4920    3.8330 H   0  0  0  0  0  0  0  0  0  0  0  0
  -25.9800  -22.3620    9.6860 N   0  0  0  0  0  4  0  0  0  0  0  0
  -25.8530  -22.6170    8.7210 H   0  0  0  0  0  0  0  0  0  0  0  0
  -25.2880  -21.6900    9.9610 H   0  0  0  0  0  0  0  0  0  0  0  0
  -26.8870  -21.9410    9.7760 H   0  0  0  0  0  0  0  0  0  0  0  0
  -22.7330  -25.4110   11.6520 C   0  0  0  0  0  2  0  0  0  0  0  0
  -21.7600  -24.2380   11.4090 C   0  0  0  0  0  2  0  0  0  0  0  0
  -20.3590  -24.4950   11.9850 C   0  0  0  0  0  2  0  0  0  0  0  0
  -20.0630  -25.9970   12.1690 C   0  0  0  0  0  2  0  0  0  0  0  0
  -20.9520  -26.6010   13.1030 O   0  0  0  0  0  0  0  0  0  0  0  0
  -22.7950  -26.9570   19.9670 C   0  0  0  0  0  0  0  0  0  0  0  0
  -21.0480  -25.9650   14.3140 C   0  0  0  0  0  0  0  0  0  0  0  0
  -22.1990  -24.7090   19.1210 C   0  0  0  0  0  3  0  0  0  0  0  0
  -21.1420  -24.6450   16.8010 C   0  0  0  0  0  0  0  0  0  0  0  0
  -21.2070  -26.8100   18.0550 C   0  0  0  0  0  2  0  0  0  0  0  0
  -21.1460  -26.0450   16.7500 C   0  0  0  0  0  0  0  0  0  0  0  0
  -21.0940  -26.7110   15.5080 C   0  0  0  0  0  3  0  0  0  0  0  0
  -21.0400  -24.5570   14.3720 C   0  0  0  0  0  3  0  0  0  0  0  0
  -21.0940  -23.8930   15.6130 C   0  0  0  0  0  3  0  0  0  0  0  0
  -21.1850  -24.0130   18.1730 C   0  0  0  0  0  2  0  0  0  0  0  0
  -22.1080  -26.2040   19.0610 N   0  0  0  0  0  0  0  0  0  0  0  0
  -23.4590  -26.4290   20.8690 O   0  0  0  0  0  0  0  0  0  0  0  0
  -23.6120  -24.1680   18.8110 C   0  0  0  0  0  0  0  0  0  0  0  0
  -24.5560  -24.3980   19.7380 N   0  0  0  0  0  0  0  0  0  0  0  0
  -23.8330  -23.5340   17.7760 O   0  0  0  0  0  0  0  0  0  0  0  0
  -24.2940  -24.9340   20.5530 H   0  0  0  0  0  0  0  0  0  0  0  0
  -27.9840  -25.5410   19.7310 C   0  0  0  0  0  0  0  0  0  0  0  0
  -25.9460  -23.9510   19.6800 C   0  0  0  0  0  3  0  0  0  0  0  0
  -26.4290  -23.4540   21.0630 C   0  0  0  0  0  2  0  0  0  0  0  0
  -27.1160  -24.5470   21.8910 C   0  0  0  0  0  2  0  0  0  0  0  0
  -28.3320  -25.1010   21.1430 C   0  0  0  0  0  2  0  0  0  0  0  0
  -26.8550  -25.0130   19.0510 C   0  0  0  0  0  0  0  0  0  0  0  0
  -26.5540  -25.4810   17.7530 C   0  0  0  0  0  3  0  0  0  0  0  0
  -27.3570  -26.4600   17.1370 C   0  0  0  0  0  3  0  0  0  0  0  0
  -28.4830  -26.9680   17.8090 C   0  0  0  0  0  3  0  0  0  0  0  0
  -28.7970  -26.5040   19.0980 C   0  0  0  0  0  3  0  0  0  0  0  0
  -22.7590  -28.5180   19.9280 C   0  0  0  0  0  3  0  0  0  0  0  0
  -22.3130  -28.9810   21.2470 N   0  0  0  0  0  0  0  0  0  0  0  0
  -21.0880  -28.7730   21.7510 C   0  0  0  0  0  0  0  0  0  0  0  0
  -20.1850  -28.2260   21.1130 O   0  0  0  0  0  0  0  0  0  0  0  0
  -23.0160  -29.3910   21.8430 H   0  0  0  0  0  0  0  0  0  0  0  0
  -22.0400  -28.9200   24.0730 C   0  0  0  0  0  1  0  0  0  0  0  0
  -20.8250  -29.2480   23.1930 C   0  0  0  0  0  3  0  0  0  0  0  0
  -18.3810  -29.3630   23.4010 C   0  0  0  0  0  1  0  0  0  0  0  0
  -19.6030  -28.6660   23.7900 N   0  0  0  0  0  0  0  0  0  0  0  0
  -19.6620  -28.6720   24.8050 H   0  0  0  0  0  0  0  0  0  0  0  0
  -24.1490  -29.1630   19.5490 C   0  0  1  0  0  0  0  0  0  0  0  0
  -25.3180  -28.6970   20.4500 C   0  0  0  0  0  1  0  0  0  0  0  0
  -24.5200  -28.8330   18.0840 C   0  0  0  0  0  1  0  0  0  0  0  0
  -24.0550  -30.7040   19.6490 C   0  0  0  0  0  1  0  0  0  0  0  0
  1  2  1  0
  3  1  2  0
  4  5  1  0
  5  8  1  0
  5  2  2  0
  6  4  2  0
  6  3  1  0
  7 11  1  0
  7  4  1  0
  9  8  1  0
 10 12  1  0
 11 52  1  0
 11 10  1  0
 12  9  1  0
 13  7  2  0
 14 22  1  0
 14 21  2  0
 15 20  1  0
 16 15  1  0
 17 18  1  0
 17 16  1  0
 18 27  1  0
 18 19  1  0
 19 20  1  0
 20 14  1  0
 22  6  1  0
 23 22  1  0
 24 27  1  0
 25 24  2  0
 25 26  1  0
 26 29  1  0
 26 28  2  0
 27 28  1  0
 29 34  1  0
 30 29  2  0
 30 31  1  0
 31 32  2  0
 32 33  1  0
 32 35  1  0
 34 33  2  0
 36 35  1  0
 37 36  2  0
 38 37  1  0
 39 38  2  0
 39 40  1  0
 40 41  2  0
 41 36  1  0
 41 42  1  0
 43 39  1  0
 44 25  1  0
 45 44  1  0
 45 47  1  0
 46 44  2  0
 48 45  1  0
 49 51  1  0
 49 24  1  0
 50 49  1  0
 52 55  1  0
 52 54  1  0
 53 52  1  0
 56 12  1  0
 57 56  1  0
 57 58  1  0
 58 59  1  0
 59 60  1  0
 60 62  1  0
 61 72  2  0
 62 68  2  0
 62 67  1  0
 63 73  1  0
 64 70  1  0
 65 71  1  0
 66 64  1  0
 66 65  1  0
 67 66  2  0
 68 69  1  0
 69 64  2  0
 70 63  1  0
 71 63  1  0
 71 61  1  0
 73 74  1  0
 74 76  1  0
 75 73  2  0
 77 81  1  0
 78 74  1  0
 78 79  1  0
 79 80  1  0
 81 80  1  0
 82 78  1  0
 82 77  2  0
 83 82  1  0
 84 83  2  0
 84 85  1  0
 85 86  2  0
 86 77  1  0
 87 61  1  0
 87 88  1  0
 88 89  1  0
 88 91  1  0
 89 93  1  0
 90 89  2  0
 93 95  1  0
 93 92  1  0
 94 95  1  0
 95 96  1  0
 97100  1  6
 97 87  1  0
 97 98  1  0
 99 97  1  0
M  ISO  4  14 100  22 100  59 101  60 101
M  END
>  <TORSDO>  (64) 
F 21

>  <SCORE>  (64) 
-5.695

>  <name>  (64) 
63

>  <ligand_id>  (64) 
63

>  <original_smiles>  (64) 
[H]c1c([H])c(N([H])C(=O)N2C([H])([H])C([H])([H])C([H])([H])C([H])(n3nc(-c4c([H])c([H])c(Oc5c([H])c([H])c(F)c([H])c5F)c([H])c4[H])c(C(=O)N([H])[H])c3N([H])[H])C2([H])[H])c2c(c1[H])C([H])([H])C([H])([H])N(C([H])([H])C([H])([H])C([H])([H])C([H])([H])Oc1c([H])c([H])c3c(c1[H])C([H])([H])N(C(=O)C([H])(N([H])C(=O)C([H])(N([H])C([H])([H])[H])C([H])([H])[H])C(C([H])([H])[H])(C([H])([H])[H])C([H])([H])[H])C([H])(C(=O)N([H])C1([H])c4c([H])c([H])c([H])c([H])c4C([H])([H])C([H])([H])C1([H])[H])C3([H])[H])C([H])([H])C([H])([N+]([H])([H])[H])C2=O

>  <smiles>  (64) 
[H]c1c([H])c(N([H])C(=O)N2C([H])([H])C([H])([H])C([H])([H])C([H])(n3nc(-c4c([H])c([H])c(Oc5c([H])c([H])c(F)c([H])c5F)c([H])c4[H])c(C(=O)N([H])[H])c3N([H])[H])C2([H])[H])c2c(c1[H])C([H])([H])C([H])([H])N(C([H])([H])C([H])([H])C([H])([H])C([H])([H])Oc1c([H])c([H])c3c(c1[H])C([H])([H])N(C(=O)C([H])(N([H])C(=O)C([H])(N([H])C([H])([H])[H])C([H])([H])[H])C(C([H])([H])[H])(C([H])([H])[H])C([H])([H])[H])C([H])(C(=O)N([H])C1([H])c4c([H])c([H])c([H])c([H])c4C([H])([H])C([H])([H])C1([H])[H])C3([H])[H])C([H])([H])C([H])([N+]([H])([H])[H])C2=O

$$$$
64:0:0
     RDKit          3D

 95103  0  0  1  0  0  0  0  0999 V2000
  -28.8180  -21.8280   23.2620 C   0  0  0  0  0  2  0  0  0  0  0  0
  -30.0100  -21.9260   22.6410 C   0  0  0  0  0  0  0  0  0  0  0  0
  -31.2060  -21.1010   23.1010 C   0  0  0  0  0  2  0  0  0  0  0  0
  -30.6190  -18.6950   22.4600 C   0  0  0  0  0  3  0  0  0  0  0  0
  -32.6260  -19.7070   21.5280 C   0  0  0  0  0  3  0  0  0  0  0  0
  -30.9250  -17.4830   21.8070 C   0  0  0  0  0  3  0  0  0  0  0  0
  -32.9360  -18.4970   20.8830 C   0  0  0  0  0  3  0  0  0  0  0  0
  -31.4720  -19.8130   22.3300 C   0  0  0  0  0  0  0  0  0  0  0  0
  -32.0930  -17.3730   21.0190 C   0  0  0  0  0  0  0  0  0  0  0  0
  -32.5100  -16.0600   20.3700 C   0  0  0  0  0  2  0  0  0  0  0  0
  -31.3500  -14.4340   18.8860 C   0  0  0  0  0  0  0  0  0  0  0  0
  -30.7830  -12.1740   18.0800 C   0  0  0  0  0  2  0  0  0  0  0  0
  -29.6220  -12.1300   17.0770 C   0  0  0  0  0  2  0  0  0  0  0  0
  -28.2790  -12.0400   17.8200 C   0  0  0  0  0  2  0  0  0  0  0  0
  -28.1390  -13.1230   18.9220 C   0  0  0  0  0  3  0  0  0  0  0  0
  -29.3890  -13.1650   19.8290 C   0  0  0  0  0  2  0  0  0  0  0  0
  -30.5910  -13.3150   18.9860 N   0  0  0  0  0  0  0  0  0  0  0  0
  -32.0850  -14.6710   17.9220 O   0  0  0  0  0  0  0  0  0  0  0  0
  -31.4240  -15.1440   20.0200 N   0  0  0  0  0  0  0  0  0  0  0  0
  -30.8220  -14.8460   20.7730 H   0  0  0  0  0  0  0  0  0  0  0  0
  -26.0920  -13.8730   20.2960 C   0  0  0  0  0  0  0  0  0  0  0  0
  -25.0520  -13.1710   20.8460 C   0  0  0  0  0  0  0  0  0  0  0  0
  -25.3040  -11.7960   20.5500 C   0  0  0  0  0  0  0  0  0  0  0  0
  -26.9180  -12.9290   19.7050 N   0  0  0  0  0  0  0  0  0  0  0  0
  -26.4590  -11.6670   19.9100 N   0  0  0  0  0  0  0  0  0  0  0  0
  -24.4810  -10.6010   20.7860 C   0  0  0  0  0  0  0  0  0  0  0  0
  -24.8970   -9.5800   21.6670 C   0  0  0  0  0  3  0  0  0  0  0  0
  -24.0810   -8.4500   21.8900 C   0  0  0  0  0  3  0  0  0  0  0  0
  -22.8330   -8.3370   21.2330 C   0  0  0  0  0  0  0  0  0  0  0  0
  -22.4330   -9.3460   20.3390 C   0  0  0  0  0  3  0  0  0  0  0  0
  -23.2510  -10.4670   20.1140 C   0  0  0  0  0  3  0  0  0  0  0  0
  -21.9850   -7.2620   21.3680 O   0  0  0  0  0  0  0  0  0  0  0  0
  -21.8390   -6.6070   22.5640 C   0  0  0  0  0  0  0  0  0  0  0  0
  -21.3930   -7.2710   23.7280 C   0  0  0  0  0  3  0  0  0  0  0  0
  -21.1910   -6.5450   24.9190 C   0  0  0  0  0  3  0  0  0  0  0  0
  -21.4230   -5.1570   24.9460 C   0  0  0  0  0  0  0  0  0  0  0  0
  -21.8610   -4.4930   23.7870 C   0  0  0  0  0  3  0  0  0  0  0  0
  -22.0650   -5.2150   22.5990 C   0  0  0  0  0  0  0  0  0  0  0  0
  -22.4670   -4.5670   21.4790 F   0  0  0  0  0  0  0  0  0  0  0  0
  -21.2220   -4.4580   26.0880 F   0  0  0  0  0  0  0  0  0  0  0  0
  -23.8430  -13.7490   21.5250 C   0  0  0  0  0  0  0  0  0  0  0  0
  -23.2910  -13.0380   22.5020 N   0  0  0  0  0  0  0  0  0  0  0  0
  -23.4110  -14.8600   21.2240 O   0  0  0  0  0  0  0  0  0  0  0  0
  -23.6560  -12.1350   22.7620 H   0  0  0  0  0  0  0  0  0  0  0  0
  -22.4900  -13.4060   22.9960 H   0  0  0  0  0  0  0  0  0  0  0  0
  -26.3950  -15.2300   20.2330 N   0  0  0  0  0  0  0  0  0  0  0  0
  -25.7880  -15.9410   20.6240 H   0  0  0  0  0  0  0  0  0  0  0  0
  -27.2020  -15.6140   19.7550 H   0  0  0  0  0  0  0  0  0  0  0  0
  -30.2910  -22.8830   21.4800 C   0  0  0  0  0  2  0  0  0  0  0  0
  -29.0570  -23.4360   20.8830 N   0  0  0  0  0  4  0  0  0  0  0  0
  -28.6040  -22.7110   20.3470 H   0  0  0  0  0  0  0  0  0  0  0  0
  -28.4440  -23.6680   21.6500 H   0  0  0  0  0  0  0  0  0  0  0  0
  -29.2520  -24.6540   20.0550 C   0  0  0  0  0  2  0  0  0  0  0  0
  -27.9240  -25.1270   19.4410 C   0  0  0  0  0  2  0  0  0  0  0  0
  -28.0230  -26.4990   19.0490 O   0  0  0  0  0  0  0  0  0  0  0  0
  -24.8690  -31.4110   23.0830 C   0  0  0  0  0  0  0  0  0  0  0  0
  -26.8910  -27.2610   19.2400 C   0  0  0  0  0  0  0  0  0  0  0  0
  -23.4030  -30.2580   21.4590 C   0  0  0  0  0  3  0  0  0  0  0  0
  -24.5920  -28.8380   19.7080 C   0  0  0  0  0  0  0  0  0  0  0  0
  -25.8980  -30.5430   20.9840 C   0  0  0  0  0  2  0  0  0  0  0  0
  -25.8380  -29.2510   20.2000 C   0  0  0  0  0  0  0  0  0  0  0  0
  -26.9890  -28.4700   19.9620 C   0  0  0  0  0  3  0  0  0  0  0  0
  -25.6290  -26.8650   18.7380 C   0  0  0  0  0  3  0  0  0  0  0  0
  -24.4810  -27.6450   18.9730 C   0  0  0  0  0  3  0  0  0  0  0  0
  -23.4110  -29.7350   19.9980 C   0  0  0  0  0  2  0  0  0  0  0  0
  -24.7500  -30.7430   21.9000 N   0  0  0  0  0  0  0  0  0  0  0  0
  -23.8750  -31.6600   23.7800 O   0  0  0  0  0  0  0  0  0  0  0  0
  -22.8190  -29.1570   22.3740 C   0  0  0  0  0  0  0  0  0  0  0  0
  -21.5020  -28.9190   22.2560 N   0  0  0  0  0  0  0  0  0  0  0  0
  -23.5450  -28.5220   23.1440 O   0  0  0  0  0  0  0  0  0  0  0  0
  -20.9760  -29.4920   21.6100 H   0  0  0  0  0  0  0  0  0  0  0  0
  -18.2380  -27.4060   22.5820 C   0  0  0  0  0  0  0  0  0  0  0  0
  -20.7400  -27.9070   22.9890 C   0  0  0  0  0  3  0  0  0  0  0  0
  -21.0120  -26.4920   22.4280 C   0  0  0  0  0  2  0  0  0  0  0  0
  -20.0010  -26.0640   21.3590 C   0  0  0  0  0  2  0  0  0  0  0  0
  -18.5790  -26.0770   21.9280 C   0  0  0  0  0  2  0  0  0  0  0  0
  -19.2540  -28.2720   23.0670 C   0  0  0  0  0  0  0  0  0  0  0  0
  -18.8850  -29.5090   23.6350 C   0  0  0  0  0  3  0  0  0  0  0  0
  -17.5320  -29.8840   23.7280 C   0  0  0  0  0  3  0  0  0  0  0  0
  -16.5290  -29.0170   23.2590 C   0  0  0  0  0  3  0  0  0  0  0  0
  -16.8820  -27.7800   22.6930 C   0  0  0  0  0  3  0  0  0  0  0  0
  -26.2510  -31.9150   23.6030 C   0  0  0  0  0  3  0  0  0  0  0  0
  -26.0600  -33.2760   24.1160 N   0  0  0  0  0  0  0  0  0  0  0  0
  -26.4050  -34.3910   23.4560 C   0  0  0  0  0  0  0  0  0  0  0  0
  -26.9880  -34.3720   22.3690 O   0  0  0  0  0  0  0  0  0  0  0  0
  -25.5370  -33.3680   24.9730 H   0  0  0  0  0  0  0  0  0  0  0  0
  -24.7930  -36.3230   23.4210 C   0  0  0  0  0  1  0  0  0  0  0  0
  -26.0420  -35.7410   24.1040 C   0  0  0  0  0  3  0  0  0  0  0  0
  -28.2750  -36.3750   24.9060 C   0  0  0  0  0  1  0  0  0  0  0  0
  -27.1410  -36.7310   24.0570 N   0  0  0  0  0  0  0  0  0  0  0  0
  -26.8110  -37.6500   24.3370 H   0  0  0  0  0  0  0  0  0  0  0  0
  -26.8740  -30.9820   24.7120 C   0  0  1  0  0  0  0  0  0  0  0  0
  -25.8930  -30.6360   25.8560 C   0  0  0  0  0  1  0  0  0  0  0  0
  -27.3660  -29.6530   24.0900 C   0  0  0  0  0  1  0  0  0  0  0  0
  -28.1150  -31.6630   25.3350 C   0  0  0  0  0  1  0  0  0  0  0  0
  2  3  1  0
  2  1  2  0
  5  8  2  0
  6  4  2  0
  7  9  2  0
  7  5  1  0
  8  4  1  0
  8  3  1  0
  9  6  1  0
 10  9  1  0
 11 17  1  0
 11 19  1  0
 12 17  1  0
 13 14  1  0
 13 12  1  0
 15 14  1  0
 15 24  1  0
 15 16  1  0
 17 16  1  0
 18 11  2  0
 19 10  1  0
 19 20  1  0
 21 22  2  0
 22 41  1  0
 23 26  1  0
 23 22  1  0
 24 25  1  0
 24 21  1  0
 25 23  2  0
 26 27  1  0
 27 28  2  0
 29 32  1  0
 29 28  1  0
 30 29  2  0
 31 30  1  0
 31 26  2  0
 32 33  1  0
 33 38  2  0
 33 34  1  0
 34 35  2  0
 35 36  1  0
 36 40  1  0
 37 36  2  0
 38 37  1  0
 39 38  1  0
 41 42  1  0
 42 44  1  0
 42 45  1  0
 43 41  2  0
 46 21  1  0
 46 47  1  0
 48 46  1  0
 49  2  1  0
 50 49  1  0
 50 52  1  0
 51 50  1  0
 53 50  1  0
 54 53  1  0
 55 57  1  0
 55 54  1  0
 56 67  2  0
 57 62  1  0
 58 66  1  0
 58 68  1  0
 59 65  1  0
 59 61  1  0
 60 66  1  0
 61 60  1  0
 62 61  2  0
 63 64  1  0
 63 57  2  0
 64 59  2  0
 65 58  1  0
 66 56  1  0
 68 70  2  0
 69 68  1  0
 71 69  1  0
 72 81  2  0
 72 77  1  0
 73 69  1  0
 73 77  1  0
 74 73  1  0
 75 76  1  0
 75 74  1  0
 76 72  1  0
 77 78  2  0
 78 79  1  0
 80 79  2  0
 81 80  1  0
 82 56  1  0
 82 83  1  0
 82 92  1  0
 83 86  1  0
 84 88  1  0
 84 83  1  0
 85 84  2  0
 88 87  1  0
 90 88  1  0
 90 91  1  0
 90 89  1  0
 92 95  1  1
 92 93  1  0
 94 92  1  0
M  ISO  4  11 100  19 100  54 101  55 101
M  END
>  <TORSDO>  (65) 
F 23

>  <SCORE>  (65) 
-8.686

>  <name>  (65) 
64

>  <ligand_id>  (65) 
64

>  <original_smiles>  (65) 
[H]C([H])=C(C([H])([H])c1c([H])c([H])c(C([H])([H])N([H])C(=O)N2C([H])([H])C([H])([H])C([H])([H])C([H])(n3nc(-c4c([H])c([H])c(Oc5c([H])c([H])c(F)c([H])c5F)c([H])c4[H])c(C(=O)N([H])[H])c3N([H])[H])C2([H])[H])c([H])c1[H])C([H])([H])[N+]([H])([H])C([H])([H])C([H])([H])Oc1c([H])c([H])c2c(c1[H])C([H])([H])N(C(=O)C([H])(N([H])C(=O)C([H])(N([H])C([H])([H])[H])C([H])([H])[H])C(C([H])([H])[H])(C([H])([H])[H])C([H])([H])[H])C([H])(C(=O)N([H])C1([H])c3c([H])c([H])c([H])c([H])c3C([H])([H])C([H])([H])C1([H])[H])C2([H])[H]

>  <smiles>  (65) 
[H]C([H])=C(C([H])([H])c1c([H])c([H])c(C([H])([H])N([H])C(=O)N2C([H])([H])C([H])([H])C([H])([H])C([H])(n3nc(-c4c([H])c([H])c(Oc5c([H])c([H])c(F)c([H])c5F)c([H])c4[H])c(C(=O)N([H])[H])c3N([H])[H])C2([H])[H])c([H])c1[H])C([H])([H])[N+]([H])([H])C([H])([H])C([H])([H])Oc1c([H])c([H])c2c(c1[H])C([H])([H])N(C(=O)C([H])(N([H])C(=O)C([H])(N([H])C([H])([H])[H])C([H])([H])[H])C(C([H])([H])[H])(C([H])([H])[H])C([H])([H])[H])C([H])(C(=O)N([H])C1([H])c3c([H])c([H])c([H])c([H])c3C([H])([H])C([H])([H])C1([H])[H])C2([H])[H]

$$$$
65:0:0
     RDKit          3D

103107  0  0  1  0  0  0  0  0999 V2000
  -23.5210  -24.7110   19.3060 C   0  0  0  0  0  3  0  0  0  0  0  0
  -19.2080  -24.9830   20.9060 C   0  0  0  0  0  2  0  0  0  0  0  0
  -19.0790  -27.6430   19.8880 C   0  0  0  0  0  1  0  0  0  0  0  0
  -21.1100  -24.5690   20.9830 C   0  0  0  0  0  2  0  0  0  0  0  0
  -20.5400  -28.3670   19.4400 C   0  0  0  0  0  2  0  0  0  0  0  0
  -22.3750  -25.8370   20.2050 C   0  0  0  0  0  2  0  0  0  0  0  0
  -21.8050  -27.8240   20.1950 N   0  0  0  0  0  2  0  0  0  0  0  0
  -22.5750  -28.2860   19.7280 H   0  0  0  0  0  0  0  0  0  0  0  0
  -21.3180  -28.9780   21.6960 C   0  0  0  0  0 15  0  0  0  0  0  0
  -22.0910  -28.8870   23.7370 C   0  0  0  0  0  1  0  0  0  0  0  0
  -24.1630  -28.4570   24.2890 C   0  0  0  0  0 15  0  0  0  0  0  0
  -25.7590  -27.7850   23.4060 O   0  0  0  0  0  1  0  0  0  0  0  0
  -24.3090  -31.2790   23.0480 C   0  0  0  0  0  0  0  0  0  0  0  0
  -26.3500  -27.1770   22.1690 C   0  0  0  0  0  3  0  0  0  0  0  0
  -23.7380  -28.8990   21.6460 C   0  0  0  0  0  3  0  0  0  0  0  0
  -25.1490  -28.1270   20.1460 C   0  0  0  0  0  3  0  0  0  0  0  0
  -25.8420  -30.2220   21.4600 C   0  0  0  0  0  2  0  0  0  0  0  0
  -26.1470  -28.8580   20.8600 C   0  0  0  0  0  3  0  0  0  0  0  0
  -27.1050  -28.1280   21.5370 C   0  0  0  0  0  2  0  0  0  0  0  0
  -25.8300  -26.1920   21.2450 C   0  0  0  0  0  2  0  0  0  0  0  0
  -25.1640  -26.7230   20.1290 C   0  0  0  0  0  2  0  0  0  0  0  0
  -23.8520  -28.7570   20.1270 C   0  0  0  0  0  2  0  0  0  0  0  0
  -24.5700  -30.1940   22.1430 N   0  0  0  0  0  0  0  0  0  0  0  0
  -23.1860  -31.7960   23.1730 O   0  0  0  0  0  0  0  0  0  0  0  0
  -23.1140  -27.3600   22.6030 C   0  0  0  0  0  0  0  0  0  0  0  0
  -21.8920  -27.1610   23.4140 N   0  0  2  0  0  4  0  0  0  0  0  0
  -23.7310  -26.4850   23.1220 O   0  0  0  0  0  0  0  0  0  0  0  0
  -22.1230  -26.5170   24.1560 H   0  0  0  0  0  0  0  0  0  0  0  0
  -17.4860  -27.8680   23.7160 C   0  0  0  0  0  0  0  0  0  0  0  0
  -20.3330  -27.1730   23.2070 C   0  0  0  0  0  2  0  0  0  0  0  0
  -19.2700  -24.9510   22.3430 C   0  0  0  0  0  2  0  0  0  0  0  0
  -17.5860  -24.9310   22.6000 C   0  0  0  0  0  3  0  0  0  0  0  0
  -16.8010  -26.3120   23.3870 C   0  0  0  0  0  3  0  0  0  0  0  0
  -18.9960  -28.3520   23.6760 C   0  0  0  0  0  0  0  0  0  0  0  0
  -19.0970  -29.7520   23.3710 C   0  0  0  0  0  3  0  0  0  0  0  0
  -17.9760  -30.5800   23.0740 C   0  0  0  0  0  3  0  0  0  0  0  0
  -16.6640  -30.0900   23.0740 C   0  0  0  0  0  3  0  0  0  0  0  0
  -16.4410  -28.7650   23.4180 C   0  0  0  0  0  3  0  0  0  0  0  0
  -25.3790  -31.9420   24.0260 C   0  0  0  0  0  3  0  0  0  0  0  0
  -24.9360  -33.3250   24.2340 N   0  0  0  0  0  0  0  0  0  0  0  0
  -25.3250  -34.3360   23.4620 C   0  0  0  0  0  0  0  0  0  0  0  0
  -26.1510  -34.1860   22.5600 O   0  0  0  0  0  0  0  0  0  0  0  0
  -24.2190  -33.4840   24.9260 H   0  0  0  0  0  0  0  0  0  0  0  0
  -23.6540  -36.0510   22.7090 C   0  0  0  0  0  1  0  0  0  0  0  0
  -24.7310  -35.7210   23.7520 C   0  0  0  0  0  3  0  0  0  0  0  0
  -26.6720  -36.6800   24.9070 C   0  0  0  0  0  1  0  0  0  0  0  0
  -25.7550  -36.7840   23.7750 N   0  0  0  0  0  0  0  0  0  0  0  0
  -25.3190  -37.7030   23.8030 H   0  0  0  0  0  0  0  0  0  0  0  0
  -25.6660  -31.3640   25.4980 C   0  0  1  0  0  0  0  0  0  0  0  0
  -24.3780  -31.0570   26.3550 C   0  0  0  0  0  1  0  0  0  0  0  0
  -26.7190  -30.2010   25.4540 C   0  0  0  0  0  1  0  0  0  0  0  0
  -26.4230  -32.4120   26.3420 C   0  0  0  0  0  1  0  0  0  0  0  0
  -24.8640  -23.6030   19.9260 C   0  0  0  0  0  3  0  0  0  0  0  0
  -25.9990  -22.5800   19.1890 N   0  0  0  0  0  4  0  0  0  0  0  0
  -25.4540  -21.9600   18.6130 H   0  0  0  0  0  0  0  0  0  0  0  0
  -26.4920  -23.1730   18.5440 H   0  0  0  0  0  0  0  0  0  0  0  0
  -27.1990  -21.5930   19.8690 C   0  0  0  0  0  2  0  0  0  0  0  0
  -30.9650  -15.5560   19.7180 C   0  0  0  0  0  0  0  0  0  0  0  0
  -31.0800  -13.0330   19.0520 C   0  0  0  0  0  2  0  0  0  0  0  0
  -30.1530  -12.7080   17.8520 C   0  0  0  0  0  2  0  0  0  0  0  0
  -28.6990  -12.5100   18.3260 C   0  0  0  0  0  2  0  0  0  0  0  0
  -28.2820  -13.5800   19.3680 C   0  0  0  0  0  3  0  0  0  0  0  0
  -29.3180  -13.7380   20.4860 C   0  0  0  0  0  2  0  0  0  0  0  0
  -30.5030  -14.2180   19.7980 N   0  0  0  0  0  0  0  0  0  0  0  0
  -32.1930  -15.5630   19.4750 O   0  0  0  0  0  0  0  0  0  0  0  0
  -27.8220  -18.5940   20.0690 C   0  0  0  0  0  2  0  0  0  0  0  0
  -28.6170  -17.1190   19.7900 C   0  0  0  0  0  2  0  0  0  0  0  0
  -30.5290  -18.2690   19.2930 C   0  0  0  0  0  2  0  0  0  0  0  0
  -28.0960  -20.0510   19.3610 C   0  0  0  0  0  3  0  0  0  0  0  0
  -29.7120  -19.7400   19.6140 C   0  0  0  0  0  3  0  0  0  0  0  0
  -30.1210  -16.8280   19.7140 N   0  0  0  0  0  0  0  0  0  0  0  0
  -25.9830  -14.3140   20.1720 C   0  0  0  0  0  0  0  0  0  0  0  0
  -24.9050  -13.6230   20.6170 C   0  0  0  0  0  0  0  0  0  0  0  0
  -25.2880  -12.2500   20.5960 C   0  0  0  0  0  0  0  0  0  0  0  0
  -26.9630  -13.3730   19.9150 N   0  0  0  0  0  0  0  0  0  0  0  0
  -26.5590  -12.1210   20.2380 N   0  0  0  0  0  0  0  0  0  0  0  0
  -24.4890  -11.0500   20.8220 C   0  0  0  0  0  0  0  0  0  0  0  0
  -24.8460  -10.1020   21.8020 C   0  0  0  0  0  3  0  0  0  0  0  0
  -24.0410   -8.9650   22.0140 C   0  0  0  0  0  3  0  0  0  0  0  0
  -22.8680   -8.7730   21.2440 C   0  0  0  0  0  0  0  0  0  0  0  0
  -22.5330   -9.7100   20.2530 C   0  0  0  0  0  3  0  0  0  0  0  0
  -23.3380  -10.8390   20.0380 C   0  0  0  0  0  3  0  0  0  0  0  0
  -22.0380   -7.6880   21.3660 O   0  0  0  0  0  0  0  0  0  0  0  0
  -21.8240   -7.0810   22.5770 C   0  0  0  0  0  0  0  0  0  0  0  0
  -21.3260   -7.7910   23.6900 C   0  0  0  0  0  3  0  0  0  0  0  0
  -21.0570   -7.1110   24.8940 C   0  0  0  0  0  3  0  0  0  0  0  0
  -21.2760   -5.7230   24.9850 C   0  0  0  0  0  0  0  0  0  0  0  0
  -21.7710   -5.0140   23.8750 C   0  0  0  0  0  3  0  0  0  0  0  0
  -22.0410   -5.6910   22.6730 C   0  0  0  0  0  0  0  0  0  0  0  0
  -22.4970   -5.0010   21.6000 F   0  0  0  0  0  0  0  0  0  0  0  0
  -21.0100   -5.0680   26.1380 F   0  0  0  0  0  0  0  0  0  0  0  0
  -23.5610  -14.2100   20.9290 C   0  0  0  0  0  0  0  0  0  0  0  0
  -22.8320  -13.6020   21.8530 N   0  0  0  0  0  0  0  0  0  0  0  0
  -23.1770  -15.2490   20.3900 O   0  0  0  0  0  0  0  0  0  0  0  0
  -23.1600  -12.7630   22.3080 H   0  0  0  0  0  0  0  0  0  0  0  0
  -21.9310  -13.9780   22.1110 H   0  0  0  0  0  0  0  0  0  0  0  0
  -26.1590  -15.6630   19.9330 N   0  0  0  0  0  0  0  0  0  0  0  0
  -25.4070  -16.3270   20.0740 H   0  0  0  0  0  0  0  0  0  0  0  0
  -27.0020  -16.0830   19.5690 H   0  0  0  0  0  0  0  0  0  0  0  0
  -30.5030  -20.8240   19.0000 N   0  0  0  0  0  4  0  0  0  0  0  0
  -30.4370  -20.8030   17.9980 H   0  0  0  0  0  0  0  0  0  0  0  0
  -31.4730  -20.7290   19.2490 H   0  0  0  0  0  0  0  0  0  0  0  0
  -30.2040  -21.7250   19.3240 H   0  0  0  0  0  0  0  0  0  0  0  0
  1 53  2  0
  1  6  1  0
  2  4  1  0
  2 31  1  0
  5  3  1  0
  5  7  1  0
  6  4  1  0
  8  7  1  0
 13 24  2  0
 14 12  1  0
 15 23  1  0
 15 25  1  0
 16 22  1  0
 16 18  1  0
 17 23  1  0
 18 17  1  0
 18 19  1  0
 19 14  1  0
 20 14  1  0
 21 16  1  0
 21 20  1  0
 22 15  1  0
 23 13  1  0
 25 27  2  0
 25 26  1  0
 26 10  1  0
 26 28  1  1
 30 26  1  0
 30 34  1  0
 31 32  1  0
 32 33  2  0
 33 29  1  0
 34 29  1  0
 35 34  2  0
 36 35  1  0
 37 36  2  0
 37 38  1  0
 38 29  2  0
 39 13  1  0
 39 40  1  0
 39 49  1  0
 40 43  1  0
 41 45  1  0
 41 40  1  0
 42 41  2  0
 45 44  1  0
 45 47  1  0
 47 48  1  0
 47 46  1  0
 49 52  1  1
 49 50  1  0
 51 49  1  0
 54 57  1  0
 54 53  1  0
 55 54  1  0
 56 54  1  0
 58 64  1  0
 59 64  1  0
 60 61  1  0
 60 59  1  0
 62 61  1  0
 62 75  1  0
 62 63  1  0
 64 63  1  0
 65 58  2  0
 67 66  1  0
 68 70  1  0
 68 71  1  0
 69 70  1  0
 69 57  1  0
 69 66  1  0
 70100  1  0
 71 58  1  0
 71 67  1  0
 72 73  2  0
 73 92  1  0
 74 73  1  0
 74 77  1  0
 75 72  1  0
 75 76  1  0
 76 74  2  0
 77 78  1  0
 78 79  2  0
 80 83  1  0
 80 79  1  0
 81 80  2  0
 82 81  1  0
 82 77  2  0
 83 84  1  0
 84 89  2  0
 84 85  1  0
 85 86  2  0
 86 87  1  0
 87 91  1  0
 88 87  2  0
 89 88  1  0
 90 89  1  0
 92 93  1  0
 93 96  1  0
 93 95  1  0
 94 92  2  0
 97 98  1  0
 97 72  1  0
 99 97  1  0
100102  1  0
100103  1  0
101100  1  0
M  ISO  4  11 101  12 101  58 100  71 100
M  END
>  <TORSDO>  (66) 
F 24

>  <SCORE>  (66) 
-11.386

>  <name>  (66) 
65

>  <ligand_id>  (66) 
65

>  <original_smiles>  (66) 
[H]c1c([H])c([H])c2c(c1[H])C([H])([H])C([H])([H])C([H])([H])C2([H])N([H])C(=O)C1([H])N(C(=O)C([H])(N([H])C(=O)C([H])(N([H])C([H])([H])[H])C([H])([H])[H])C(C([H])([H])[H])(C([H])([H])[H])C([H])([H])[H])C([H])([H])c2c([H])c(OC([H])([H])C([H])([H])C([H])([H])[N+]3([H])C([H])([H])C([H])([H])C([H])([H])C([H])([H])C3([H])C([H])([H])C([H])([H])[N+]([H])([H])C([H])([H])C3([H])C([H])([H])C([H])([H])N(C(=O)N4C([H])([H])C([H])([H])C([H])([H])C([H])(n5nc(-c6c([H])c([H])c(Oc7c([H])c([H])c(F)c([H])c7F)c([H])c6[H])c(C(=O)N([H])[H])c5N([H])[H])C4([H])[H])C([H])([H])C3([H])[N+]([H])([H])[H])c([H])c([H])c2C1([H])[H]

>  <smiles>  (66) 
[H]c1c([H])c([H])c2c(c1[H])C([H])([H])C([H])([H])C([H])([H])C2([H])N([H])C(=O)C1([H])N(C(=O)C([H])(N([H])C(=O)C([H])(N([H])C([H])([H])[H])C([H])([H])[H])C(C([H])([H])[H])(C([H])([H])[H])C([H])([H])[H])C([H])([H])c2c([H])c(OC([H])([H])C([H])([H])C([H])([H])[N+]3([H])C([H])([H])C([H])([H])C([H])([H])C([H])([H])C3([H])C([H])([H])C([H])([H])[N+]([H])([H])C([H])([H])C3([H])C([H])([H])C([H])([H])N(C(=O)N4C([H])([H])C([H])([H])C([H])([H])C([H])(n5nc(-c6c([H])c([H])c(Oc7c([H])c([H])c(F)c([H])c7F)c([H])c6[H])c(C(=O)N([H])[H])c5N([H])[H])C4([H])[H])C([H])([H])C3([H])[N+]([H])([H])[H])c([H])c([H])c2C1([H])[H]

$$$$
66:0:0
     RDKit          3D

 96103  0  0  1  0  0  0  0  0999 V2000
  -31.1150  -21.0680   19.7490 N   0  0  0  0  0  4  0  0  0  0  0  0
  -30.3180  -20.6070   20.1530 H   0  0  0  0  0  0  0  0  0  0  0  0
  -31.0030  -21.0570   18.7490 H   0  0  0  0  0  0  0  0  0  0  0  0
  -32.3390  -20.3070   20.0940 C   0  0  0  0  0  2  0  0  0  0  0  0
  -32.3400  -18.8880   19.4810 C   0  0  0  0  0  2  0  0  0  0  0  0
  -31.5560  -17.8380   20.2960 C   0  0  0  0  0  2  0  0  0  0  0  0
  -30.8260  -16.7940   19.4170 C   0  0  0  0  0  2  0  0  0  0  0  0
  -30.8510  -14.5190   20.3420 C   0  0  0  0  0  0  0  0  0  0  0  0
  -30.5220  -12.3520   19.2100 C   0  0  0  0  0  2  0  0  0  0  0  0
  -29.5690  -12.5460   18.0120 C   0  0  0  0  0  2  0  0  0  0  0  0
  -28.0960  -12.4180   18.4500 C   0  0  0  0  0  2  0  0  0  0  0  0
  -27.7770  -13.2440   19.7270 C   0  0  0  0  0  3  0  0  0  0  0  0
  -28.8470  -12.9920   20.8140 C   0  0  0  0  0  2  0  0  0  0  0  0
  -30.1390  -13.3580   20.2170 N   0  0  0  0  0  0  0  0  0  0  0  0
  -32.0590  -14.5240   20.0880 O   0  0  0  0  0  0  0  0  0  0  0  0
  -30.1710  -15.7100   20.2040 N   0  0  0  0  0  0  0  0  0  0  0  0
  -25.3840  -13.8890   20.3980 C   0  0  0  0  0  0  0  0  0  0  0  0
  -24.3030  -13.1340   20.7570 C   0  0  0  0  0  0  0  0  0  0  0  0
  -24.7560  -11.7780   20.7590 C   0  0  0  0  0  0  0  0  0  0  0  0
  -26.4260  -12.9940   20.2030 N   0  0  0  0  0  0  0  0  0  0  0  0
  -26.0490  -11.7220   20.4760 N   0  0  0  0  0  0  0  0  0  0  0  0
  -24.0200  -10.5270   20.9680 C   0  0  0  0  0  0  0  0  0  0  0  0
  -24.4460   -9.5700   21.9160 C   0  0  0  0  0  3  0  0  0  0  0  0
  -23.7110   -8.3810   22.1110 C   0  0  0  0  0  3  0  0  0  0  0  0
  -22.5370   -8.1430   21.3580 C   0  0  0  0  0  0  0  0  0  0  0  0
  -22.1280   -9.0890   20.4020 C   0  0  0  0  0  3  0  0  0  0  0  0
  -22.8640  -10.2690   20.2050 C   0  0  0  0  0  3  0  0  0  0  0  0
  -21.7730   -7.0050   21.4630 O   0  0  0  0  0  0  0  0  0  0  0  0
  -21.7260   -6.2750   22.6230 C   0  0  0  0  0  0  0  0  0  0  0  0
  -21.3190   -6.8470   23.8480 C   0  0  0  0  0  3  0  0  0  0  0  0
  -21.2190   -6.0450   25.0020 C   0  0  0  0  0  3  0  0  0  0  0  0
  -21.5150   -4.6710   24.9310 C   0  0  0  0  0  0  0  0  0  0  0  0
  -21.9160   -4.0990   23.7110 C   0  0  0  0  0  3  0  0  0  0  0  0
  -22.0180   -4.8990   22.5590 C   0  0  0  0  0  0  0  0  0  0  0  0
  -22.3840   -4.3390   21.3810 F   0  0  0  0  0  0  0  0  0  0  0  0
  -21.4110   -3.8960   26.0370 F   0  0  0  0  0  0  0  0  0  0  0  0
  -22.9110  -13.6340   21.0070 C   0  0  0  0  0  0  0  0  0  0  0  0
  -22.1720  -12.9620   21.8820 N   0  0  0  0  0  0  0  0  0  0  0  0
  -22.4960  -14.6590   20.4710 O   0  0  0  0  0  0  0  0  0  0  0  0
  -22.5310  -12.1330   22.3340 H   0  0  0  0  0  0  0  0  0  0  0  0
  -21.2370  -13.2770   22.0970 H   0  0  0  0  0  0  0  0  0  0  0  0
  -25.5650  -15.2570   20.2230 N   0  0  0  0  0  0  0  0  0  0  0  0
  -24.6360  -15.6520   20.0870 H   0  0  0  0  0  0  0  0  0  0  0  0
  -25.8140  -15.5760   21.1550 H   0  0  0  0  0  0  0  0  0  0  0  0
  -29.1330  -16.2240   21.1400 C   0  0  0  0  0  2  0  0  0  0  0  0
  -28.2310  -17.3710   20.6060 C   0  0  0  0  0  2  0  0  0  0  0  0
  -27.6240  -17.0800   19.2950 N   0  0  0  0  0  4  0  0  0  0  0  0
  -28.2990  -16.7240   18.6420 H   0  0  0  0  0  0  0  0  0  0  0  0
  -27.2000  -17.9040   18.9060 H   0  0  0  0  0  0  0  0  0  0  0  0
  -26.8790  -16.3950   19.4250 H   0  0  0  0  0  0  0  0  0  0  0  0
  -31.1140  -22.4790   20.2010 C   0  0  0  0  0  2  0  0  0  0  0  0
  -29.7900  -23.1860   19.8380 C   0  0  0  0  0  2  0  0  0  0  0  0
  -29.7330  -24.6790   20.2210 C   0  0  0  0  0  3  0  0  0  0  0  0
  -29.9590  -24.7870   21.5320 F   0  0  0  0  0  0  0  0  0  0  0  0
  -28.3670  -25.3140   19.8980 C   0  0  0  0  0  2  0  0  0  0  0  0
  -28.3830  -26.7150   20.1770 O   0  0  0  0  0  0  0  0  0  0  0  0
  -24.5390  -31.8570   23.2160 C   0  0  0  0  0  0  0  0  0  0  0  0
  -27.1830  -27.3950   20.1660 C   0  0  0  0  0  0  0  0  0  0  0  0
  -23.3260  -30.4380   21.5910 C   0  0  0  0  0  3  0  0  0  0  0  0
  -24.7750  -28.8850   20.1820 C   0  0  0  0  0  0  0  0  0  0  0  0
  -25.8500  -30.7980   21.3790 C   0  0  0  0  0  2  0  0  0  0  0  0
  -25.9330  -29.4200   20.7560 C   0  0  0  0  0  0  0  0  0  0  0  0
  -27.1370  -28.6830   20.7440 C   0  0  0  0  0  3  0  0  0  0  0  0
  -26.0000  -26.8680   19.5930 C   0  0  0  0  0  3  0  0  0  0  0  0
  -24.8020  -27.6060   19.6000 C   0  0  0  0  0  3  0  0  0  0  0  0
  -23.5290  -29.7380   20.2210 C   0  0  0  0  0  2  0  0  0  0  0  0
  -24.5900  -31.0460   22.1200 N   0  0  0  0  0  0  0  0  0  0  0  0
  -23.4610  -32.1350   23.7570 O   0  0  0  0  0  0  0  0  0  0  0  0
  -22.6790  -29.4290   22.5660 C   0  0  0  0  0  0  0  0  0  0  0  0
  -21.3580  -29.2330   22.4360 N   0  0  0  0  0  0  0  0  0  0  0  0
  -23.3660  -28.8230   23.3940 O   0  0  0  0  0  0  0  0  0  0  0  0
  -20.8680  -29.7780   21.7400 H   0  0  0  0  0  0  0  0  0  0  0  0
  -17.9970  -28.0010   22.9150 C   0  0  0  0  0  0  0  0  0  0  0  0
  -20.5450  -28.3020   23.2170 C   0  0  0  0  0  3  0  0  0  0  0  0
  -20.6770  -26.8600   22.6770 C   0  0  0  0  0  2  0  0  0  0  0  0
  -19.5950  -26.4970   21.6550 C   0  0  0  0  0  2  0  0  0  0  0  0
  -18.2020  -26.6370   22.2750 C   0  0  0  0  0  2  0  0  0  0  0  0
  -19.0970  -28.7890   23.3430 C   0  0  0  0  0  0  0  0  0  0  0  0
  -18.8540  -30.0630   23.9000 C   0  0  0  0  0  3  0  0  0  0  0  0
  -17.5400  -30.5500   24.0340 C   0  0  0  0  0  3  0  0  0  0  0  0
  -16.4530  -29.7610   23.6230 C   0  0  0  0  0  3  0  0  0  0  0  0
  -16.6820  -28.4870   23.0680 C   0  0  0  0  0  3  0  0  0  0  0  0
  -25.8300  -32.4950   23.8240 C   0  0  0  0  0  3  0  0  0  0  0  0
  -25.5150  -33.8910   24.1520 N   0  0  0  0  0  0  0  0  0  0  0  0
  -25.8490  -34.9460   23.3930 C   0  0  0  0  0  0  0  0  0  0  0  0
  -26.5220  -34.8440   22.3640 O   0  0  0  0  0  0  0  0  0  0  0  0
  -24.9130  -34.0480   24.9470 H   0  0  0  0  0  0  0  0  0  0  0  0
  -24.1210  -36.7400   23.0310 C   0  0  0  0  0  1  0  0  0  0  0  0
  -25.3570  -36.3330   23.8490 C   0  0  0  0  0  3  0  0  0  0  0  0
  -27.4840  -37.2160   24.7010 C   0  0  0  0  0  1  0  0  0  0  0  0
  -26.3890  -37.3870   23.7480 N   0  0  0  0  0  0  0  0  0  0  0  0
  -25.9790  -38.3050   23.9020 H   0  0  0  0  0  0  0  0  0  0  0  0
  -26.3640  -31.7280   25.0950 C   0  0  1  0  0  0  0  0  0  0  0  0
  -25.2850  -31.4820   26.1740 C   0  0  0  0  0  1  0  0  0  0  0  0
  -26.9510  -30.3550   24.6950 C   0  0  0  0  0  1  0  0  0  0  0  0
  -27.5150  -32.5320   25.7460 C   0  0  0  0  0  1  0  0  0  0  0  0
  1  4  1  0
  1  2  1  0
  1 51  1  0
  3  1  1  0
  5  4  1  0
  5  6  1  0
  7 16  1  0
  7  6  1  0
  9 14  1  0
 10 11  1  0
 10  9  1  0
 12 11  1  0
 12 20  1  0
 12 13  1  0
 14  8  1  0
 14 13  1  0
 15  8  2  0
 16  8  1  0
 16 45  1  0
 17 18  2  0
 18 19  1  0
 18 37  1  0
 19 22  1  0
 20 17  1  0
 20 21  1  0
 21 19  2  0
 22 23  1  0
 23 24  2  0
 25 28  1  0
 25 24  1  0
 26 25  2  0
 27 26  1  0
 27 22  2  0
 28 29  1  0
 29 30  1  0
 30 31  2  0
 32 31  1  0
 32 36  1  0
 33 32  2  0
 34 29  2  0
 34 33  1  0
 35 34  1  0
 37 38  1  0
 38 41  1  0
 38 40  1  0
 39 37  2  0
 42 17  1  0
 42 44  1  0
 43 42  1  0
 46 45  1  0
 47 50  1  0
 47 46  1  0
 48 47  1  0
 49 47  1  0
 52 51  1  0
 52 53  1  0
 53 54  1  0
 55 56  1  0
 55 53  1  0
 57 68  2  0
 58 56  1  0
 58 63  1  0
 59 67  1  0
 59 69  1  0
 60 66  1  0
 60 62  1  0
 61 67  1  0
 62 61  1  0
 63 62  2  0
 64 65  1  0
 64 58  2  0
 65 60  2  0
 66 59  1  0
 67 57  1  0
 69 71  2  0
 70 69  1  0
 72 70  1  0
 73 82  2  0
 73 78  1  0
 74 70  1  0
 74 78  1  0
 75 74  1  0
 76 77  1  0
 76 75  1  0
 77 73  1  0
 78 79  2  0
 79 80  1  0
 81 80  2  0
 82 81  1  0
 83 57  1  0
 83 84  1  0
 83 93  1  0
 84 87  1  0
 85 89  1  0
 85 84  1  0
 86 85  2  0
 89 88  1  0
 91 89  1  0
 91 92  1  0
 91 90  1  0
 93 96  1  1
 93 94  1  0
 95 93  1  0
M  ISO  4   8 100  16 100  55 101  56 101
M  END
>  <TORSDO>  (67) 
F 27

>  <SCORE>  (67) 
-11.755

>  <name>  (67) 
66

>  <ligand_id>  (67) 
66

>  <original_smiles>  (67) 
[H]c1c([H])c([H])c2c(c1[H])C([H])([H])C([H])([H])C([H])([H])C2([H])N([H])C(=O)C1([H])N(C(=O)C([H])(N([H])C(=O)C([H])(N([H])C([H])([H])[H])C([H])([H])[H])C(C([H])([H])[H])(C([H])([H])[H])C([H])([H])[H])C([H])([H])c2c([H])c(OC([H])([H])C([H])(F)C([H])([H])C([H])([H])[N+]([H])([H])C([H])([H])C([H])([H])C([H])([H])C([H])([H])N(C(=O)N3C([H])([H])C([H])([H])C([H])([H])C([H])(n4nc(-c5c([H])c([H])c(Oc6c([H])c([H])c(F)c([H])c6F)c([H])c5[H])c(C(=O)N([H])[H])c4N([H])[H])C3([H])[H])C([H])([H])C([H])([H])[N+]([H])([H])[H])c([H])c([H])c2C1([H])[H]

>  <smiles>  (67) 
[H]c1c([H])c([H])c2c(c1[H])C([H])([H])C([H])([H])C([H])([H])C2([H])N([H])C(=O)C1([H])N(C(=O)C([H])(N([H])C(=O)C([H])(N([H])C([H])([H])[H])C([H])([H])[H])C(C([H])([H])[H])(C([H])([H])[H])C([H])([H])[H])C([H])([H])c2c([H])c(OC([H])([H])C([H])(F)C([H])([H])C([H])([H])[N+]([H])([H])C([H])([H])C([H])([H])C([H])([H])C([H])([H])N(C(=O)N3C([H])([H])C([H])([H])C([H])([H])C([H])(n4nc(-c5c([H])c([H])c(Oc6c([H])c([H])c(F)c([H])c6F)c([H])c5[H])c(C(=O)N([H])[H])c4N([H])[H])C3([H])[H])C([H])([H])C([H])([H])[N+]([H])([H])[H])c([H])c([H])c2C1([H])[H]

$$$$
67:0:0
     RDKit          3D

 99107  0  0  1  0  0  0  0  0999 V2000
  -31.5050  -20.1170   22.3740 C   0  0  0  0  0  2  0  0  0  0  0  0
  -31.7700  -20.0850   20.8600 C   0  0  0  0  0  2  0  0  0  0  0  0
  -32.2060  -18.7670   20.3750 N   0  0  0  0  0  4  0  0  0  0  0  0
  -32.8300  -18.9510   19.5940 H   0  0  0  0  0  0  0  0  0  0  0  0
  -32.7370  -18.2700   21.0730 H   0  0  0  0  0  0  0  0  0  0  0  0
  -30.8050  -14.4750   20.6940 C   0  0  0  0  0  0  0  0  0  0  0  0
  -30.6400  -12.2110   19.8020 C   0  0  0  0  0  2  0  0  0  0  0  0
  -29.7340  -12.1650   18.5590 C   0  0  0  0  0  2  0  0  0  0  0  0
  -28.2550  -12.0160   18.9690 C   0  0  0  0  0  2  0  0  0  0  0  0
  -27.7860  -13.0190   20.0640 C   0  0  0  0  0  3  0  0  0  0  0  0
  -28.8020  -13.0340   21.2250 C   0  0  0  0  0  2  0  0  0  0  0  0
  -30.1330  -13.2960   20.6560 N   0  0  0  0  0  0  0  0  0  0  0  0
  -32.0330  -14.5170   20.6960 O   0  0  0  0  0  0  0  0  0  0  0  0
  -30.6410  -16.2100   18.0430 C   0  0  0  0  0  2  0  0  0  0  0  0
  -29.5570  -15.8000   19.0600 C   0  0  0  0  0  2  0  0  0  0  0  0
  -30.5840  -16.9290   20.9160 C   0  0  0  0  0  2  0  0  0  0  0  0
  -31.7890  -17.0100   18.6760 C   0  0  0  0  0  3  0  0  0  0  0  0
  -31.1820  -17.8710   19.8050 C   0  0  0  0  0  3  0  0  0  0  0  0
  -30.0990  -15.6130   20.4200 N   0  0  0  0  0  0  0  0  0  0  0  0
  -25.3840  -13.7000   20.6580 C   0  0  0  0  0  0  0  0  0  0  0  0
  -24.2830  -12.9590   20.9780 C   0  0  0  0  0  0  0  0  0  0  0  0
  -24.7160  -11.5950   20.9880 C   0  0  0  0  0  0  0  0  0  0  0  0
  -26.4180  -12.7860   20.4990 N   0  0  0  0  0  0  0  0  0  0  0  0
  -26.0170  -11.5190   20.7590 N   0  0  0  0  0  0  0  0  0  0  0  0
  -23.9580  -10.3520   21.1500 C   0  0  0  0  0  0  0  0  0  0  0  0
  -24.3450   -9.3800   22.0990 C   0  0  0  0  0  3  0  0  0  0  0  0
  -23.5950   -8.1960   22.2530 C   0  0  0  0  0  3  0  0  0  0  0  0
  -22.4490   -7.9790   21.4530 C   0  0  0  0  0  0  0  0  0  0  0  0
  -22.0800   -8.9390   20.4960 C   0  0  0  0  0  3  0  0  0  0  0  0
  -22.8290  -10.1150   20.3370 C   0  0  0  0  0  3  0  0  0  0  0  0
  -21.6730   -6.8470   21.5170 O   0  0  0  0  0  0  0  0  0  0  0  0
  -21.5940   -6.0950   22.6590 C   0  0  0  0  0  0  0  0  0  0  0  0
  -21.1550   -6.6440   23.8850 C   0  0  0  0  0  3  0  0  0  0  0  0
  -21.0150   -5.8160   25.0160 C   0  0  0  0  0  3  0  0  0  0  0  0
  -21.3120   -4.4430   24.9250 C   0  0  0  0  0  0  0  0  0  0  0  0
  -21.7510   -3.8960   23.7070 C   0  0  0  0  0  3  0  0  0  0  0  0
  -21.8880   -4.7190   22.5780 C   0  0  0  0  0  0  0  0  0  0  0  0
  -22.2870   -4.1810   21.3980 F   0  0  0  0  0  0  0  0  0  0  0  0
  -21.1730   -3.6470   26.0100 F   0  0  0  0  0  0  0  0  0  0  0  0
  -22.8770  -13.4620   21.1610 C   0  0  0  0  0  0  0  0  0  0  0  0
  -22.0840  -12.8000   21.9930 N   0  0  0  0  0  0  0  0  0  0  0  0
  -22.4870  -14.4840   20.5930 O   0  0  0  0  0  0  0  0  0  0  0  0
  -22.3950  -11.9680   22.4720 H   0  0  0  0  0  0  0  0  0  0  0  0
  -21.1380  -13.1230   22.1400 H   0  0  0  0  0  0  0  0  0  0  0  0
  -25.5910  -15.0690   20.4690 N   0  0  0  0  0  0  0  0  0  0  0  0
  -24.8340  -15.7380   20.5490 H   0  0  0  0  0  0  0  0  0  0  0  0
  -26.4810  -15.5110   20.2620 H   0  0  0  0  0  0  0  0  0  0  0  0
  -33.5620  -16.6010   16.8940 C   0  0  0  0  0  1  0  0  0  0  0  0
  -32.7050  -17.6650   17.6070 C   0  0  0  0  0  3  0  0  0  0  0  0
  -33.5700  -18.5030   18.1850 F   0  0  0  0  0  0  0  0  0  0  0  0
  -30.6520  -21.3350   22.7920 C   0  0  0  0  0  2  0  0  0  0  0  0
  -31.0630  -22.6760   22.1290 C   0  0  0  0  0  2  0  0  0  0  0  0
  -30.1620  -23.7880   22.4920 N   0  0  0  0  0  4  0  0  0  0  0  0
  -30.3310  -24.0980   23.4370 H   0  0  0  0  0  0  0  0  0  0  0  0
  -29.2150  -23.4500   22.4500 H   0  0  0  0  0  0  0  0  0  0  0  0
  -30.2460  -24.9240   21.5570 C   0  0  0  0  0  2  0  0  0  0  0  0
  -29.0650  -25.8770   21.6960 C   0  0  0  0  0  2  0  0  0  0  0  0
  -29.1060  -26.9030   20.5570 C   0  0  0  0  0  2  0  0  0  0  0  0
  -27.9980  -26.6620   19.6890 O   0  0  0  0  0  0  0  0  0  0  0  0
  -24.4480  -31.8100   23.1010 C   0  0  0  0  0  0  0  0  0  0  0  0
  -26.8620  -27.4150   19.8450 C   0  0  0  0  0  0  0  0  0  0  0  0
  -23.1270  -30.4670   21.4830 C   0  0  0  0  0  3  0  0  0  0  0  0
  -24.4720  -28.9160   19.9760 C   0  0  0  0  0  0  0  0  0  0  0  0
  -25.6330  -30.7940   21.1610 C   0  0  0  0  0  2  0  0  0  0  0  0
  -25.6540  -29.4240   20.5240 C   0  0  0  0  0  0  0  0  0  0  0  0
  -26.8410  -28.6870   20.4580 C   0  0  0  0  0  3  0  0  0  0  0  0
  -25.6620  -26.9010   19.3070 C   0  0  0  0  0  3  0  0  0  0  0  0
  -24.4690  -27.6450   19.3690 C   0  0  0  0  0  3  0  0  0  0  0  0
  -23.2510  -29.7970   20.0830 C   0  0  0  0  0  2  0  0  0  0  0  0
  -24.4240  -31.0370   21.9750 N   0  0  0  0  0  0  0  0  0  0  0  0
  -23.3990  -32.0960   23.6940 O   0  0  0  0  0  0  0  0  0  0  0  0
  -22.5040  -29.4470   22.4610 C   0  0  0  0  0  0  0  0  0  0  0  0
  -21.1720  -29.2890   22.3800 N   0  0  0  0  0  0  0  0  0  0  0  0
  -23.2090  -28.8060   23.2440 O   0  0  0  0  0  0  0  0  0  0  0  0
  -20.6690  -29.8640   21.7190 H   0  0  0  0  0  0  0  0  0  0  0  0
  -17.7970  -28.1410   22.9350 C   0  0  0  0  0  0  0  0  0  0  0  0
  -20.3610  -28.3570   23.1660 C   0  0  0  0  0  3  0  0  0  0  0  0
  -20.4350  -26.9290   22.5780 C   0  0  0  0  0  2  0  0  0  0  0  0
  -19.3100  -26.6260   21.5860 C   0  0  0  0  0  2  0  0  0  0  0  0
  -17.9420  -26.7890   22.2550 C   0  0  0  0  0  2  0  0  0  0  0  0
  -18.9340  -28.8840   23.3480 C   0  0  0  0  0  0  0  0  0  0  0  0
  -18.7480  -30.1480   23.9430 C   0  0  0  0  0  3  0  0  0  0  0  0
  -17.4550  -30.6680   24.1380 C   0  0  0  0  0  3  0  0  0  0  0  0
  -16.3300  -29.9200   23.7470 C   0  0  0  0  0  3  0  0  0  0  0  0
  -16.5030  -28.6610   23.1480 C   0  0  0  0  0  3  0  0  0  0  0  0
  -25.7770  -32.3890   23.6790 C   0  0  0  0  0  3  0  0  0  0  0  0
  -26.3460  -31.5550   24.8930 C   0  0  1  0  0  0  0  0  0  0  0  0
  -25.3110  -31.2940   26.0130 C   0  0  0  0  0  1  0  0  0  0  0  0
  -26.8820  -30.1930   24.3950 C   0  0  0  0  0  1  0  0  0  0  0  0
  -27.5520  -32.2950   25.5170 C   0  0  0  0  0  1  0  0  0  0  0  0
  -25.5170  -33.7780   24.0810 N   0  0  0  0  0  0  0  0  0  0  0  0
  -25.8500  -34.8500   23.3510 C   0  0  0  0  0  0  0  0  0  0  0  0
  -26.4780  -34.7730   22.2910 O   0  0  0  0  0  0  0  0  0  0  0  0
  -24.9650  -33.9140   24.9150 H   0  0  0  0  0  0  0  0  0  0  0  0
  -24.1680  -36.6970   23.1140 C   0  0  0  0  0  1  0  0  0  0  0  0
  -25.4140  -36.2270   23.8800 C   0  0  0  0  0  3  0  0  0  0  0  0
  -27.5920  -37.0190   24.6870 C   0  0  0  0  0  1  0  0  0  0  0  0
  -26.4710  -37.2580   23.7820 N   0  0  0  0  0  0  0  0  0  0  0  0
  -26.0950  -38.1830   23.9770 H   0  0  0  0  0  0  0  0  0  0  0  0
  1 51  1  0
  2  1  1  0
  3  2  1  0
  3  5  1  0
  4  3  1  0
  6 13  2  0
  7 12  1  0
  8  9  1  0
  8  7  1  0
 10  9  1  0
 10 23  1  0
 10 11  1  0
 12  6  1  0
 12 11  1  0
 14 17  1  0
 14 15  1  0
 15 19  1  0
 17 49  1  0
 17 18  1  0
 18  3  1  0
 18 16  1  0
 19  6  1  0
 19 16  1  0
 20 21  2  0
 21 22  1  0
 21 40  1  0
 22 25  1  0
 23 20  1  0
 23 24  1  0
 24 22  2  0
 25 26  1  0
 26 27  2  0
 28 31  1  0
 28 27  1  0
 29 28  2  0
 30 29  1  0
 30 25  2  0
 31 32  1  0
 32 33  1  0
 33 34  2  0
 35 34  1  0
 35 39  1  0
 36 35  2  0
 37 32  2  0
 37 36  1  0
 38 37  1  0
 40 41  1  0
 41 44  1  0
 41 43  1  0
 42 40  2  0
 45 46  1  0
 45 20  1  0
 47 45  1  0
 49 48  1  0
 49 50  1  0
 52 53  1  0
 52 51  1  0
 53 54  1  0
 55 53  1  0
 56 57  1  0
 56 53  1  0
 58 57  1  0
 59 61  1  0
 59 58  1  0
 60 71  2  0
 61 66  1  0
 62 70  1  0
 62 72  1  0
 63 69  1  0
 63 65  1  0
 64 70  1  0
 65 64  1  0
 66 65  2  0
 67 68  1  0
 67 61  2  0
 68 63  2  0
 69 62  1  0
 70 60  1  0
 72 74  2  0
 73 72  1  0
 75 73  1  0
 76 85  2  0
 76 81  1  0
 77 73  1  0
 77 81  1  0
 78 77  1  0
 79 80  1  0
 79 78  1  0
 80 76  1  0
 81 82  2  0
 82 83  1  0
 84 83  2  0
 85 84  1  0
 86 60  1  0
 86 91  1  0
 86 87  1  0
 87 90  1  1
 87 88  1  0
 89 87  1  0
 91 94  1  0
 92 96  1  0
 92 91  1  0
 93 92  2  0
 96 95  1  0
 98 96  1  0
 98 99  1  0
 98 97  1  0
M  ISO  4   6 100  19 100  58 101  59 101
M  END
>  <TORSDO>  (68) 
F 25

>  <SCORE>  (68) 
-11.563

>  <name>  (68) 
67

>  <ligand_id>  (68) 
67

>  <original_smiles>  (68) 
[H]c1c([H])c([H])c2c(c1[H])C([H])([H])C([H])([H])C([H])([H])C2([H])N([H])C(=O)C1([H])N(C(=O)C([H])(N([H])C(=O)C([H])(N([H])C([H])([H])[H])C([H])([H])[H])C(C([H])([H])[H])(C([H])([H])[H])C([H])([H])[H])C([H])([H])c2c([H])c(OC([H])([H])C([H])([H])C([H])([H])[N+]([H])([H])C([H])([H])C([H])([H])C([H])([H])C([H])([H])[N+]([H])([H])C3([H])C([H])([H])N(C(=O)N4C([H])([H])C([H])([H])C([H])([H])C([H])(n5nc(-c6c([H])c([H])c(Oc7c([H])c([H])c(F)c([H])c7F)c([H])c6[H])c(C(=O)N([H])[H])c5N([H])[H])C4([H])[H])C([H])([H])C([H])([H])C3([H])C([H])(F)C([H])([H])[H])c([H])c([H])c2C1([H])[H]

>  <smiles>  (68) 
[H]c1c([H])c([H])c2c(c1[H])C([H])([H])C([H])([H])C([H])([H])C2([H])N([H])C(=O)C1([H])N(C(=O)C([H])(N([H])C(=O)C([H])(N([H])C([H])([H])[H])C([H])([H])[H])C(C([H])([H])[H])(C([H])([H])[H])C([H])([H])[H])C([H])([H])c2c([H])c(OC([H])([H])C([H])([H])C([H])([H])[N+]([H])([H])C([H])([H])C([H])([H])C([H])([H])C([H])([H])[N+]([H])([H])C3([H])C([H])([H])N(C(=O)N4C([H])([H])C([H])([H])C([H])([H])C([H])(n5nc(-c6c([H])c([H])c(Oc7c([H])c([H])c(F)c([H])c7F)c([H])c6[H])c(C(=O)N([H])[H])c5N([H])[H])C4([H])[H])C([H])([H])C([H])([H])C3([H])C([H])(F)C([H])([H])[H])c([H])c([H])c2C1([H])[H]

$$$$
68:0:0
     RDKit          3D

 96104  0  0  1  0  0  0  0  0999 V2000
  -28.7130  -20.8040   21.0390 C   0  0  0  0  0  3  0  0  0  0  0  0
  -29.6840  -19.8780   21.8370 C   0  0  0  0  0  3  0  0  0  0  0  0
  -31.6570  -14.7300   19.7090 C   0  0  0  0  0  0  0  0  0  0  0  0
  -31.1600  -12.5510   18.6240 C   0  0  0  0  0  2  0  0  0  0  0  0
  -30.1150  -12.7400   17.5000 C   0  0  0  0  0  2  0  0  0  0  0  0
  -28.6730  -12.6800   18.0500 C   0  0  0  0  0  2  0  0  0  0  0  0
  -28.4910  -13.5370   19.3300 C   0  0  0  0  0  3  0  0  0  0  0  0
  -29.6360  -13.2260   20.3200 C   0  0  0  0  0  2  0  0  0  0  0  0
  -30.9020  -13.5790   19.6620 N   0  0  0  0  0  0  0  0  0  0  0  0
  -32.6840  -14.7950   19.0180 O   0  0  0  0  0  0  0  0  0  0  0  0
  -29.9240  -17.3470   22.0740 C   0  0  0  0  0  2  0  0  0  0  0  0
  -30.2210  -15.9670   21.4390 C   0  0  0  0  0  2  0  0  0  0  0  0
  -31.8350  -17.1540   19.8650 C   0  0  0  0  0  2  0  0  0  0  0  0
  -30.0850  -18.5420   21.1260 C   0  0  0  0  0  3  0  0  0  0  0  0
  -31.5580  -18.4480   20.6730 C   0  0  0  0  0  3  0  0  0  0  0  0
  -31.2150  -15.8800   20.3400 N   0  0  0  0  0  0  0  0  0  0  0  0
  -26.2580  -14.2770   20.3800 C   0  0  0  0  0  0  0  0  0  0  0  0
  -25.1680  -13.5660   20.7950 C   0  0  0  0  0  0  0  0  0  0  0  0
  -25.4720  -12.1920   20.5540 C   0  0  0  0  0  0  0  0  0  0  0  0
  -27.1770  -13.3370   19.9310 N   0  0  0  0  0  0  0  0  0  0  0  0
  -26.7100  -12.0720   20.0860 N   0  0  0  0  0  0  0  0  0  0  0  0
  -24.6440  -10.9880   20.6950 C   0  0  0  0  0  0  0  0  0  0  0  0
  -25.0000   -9.9480   21.5800 C   0  0  0  0  0  3  0  0  0  0  0  0
  -24.1790   -8.8070   21.7150 C   0  0  0  0  0  3  0  0  0  0  0  0
  -22.9870   -8.7000   20.9600 C   0  0  0  0  0  0  0  0  0  0  0  0
  -22.6470   -9.7290   20.0640 C   0  0  0  0  0  3  0  0  0  0  0  0
  -23.4680  -10.8610   19.9290 C   0  0  0  0  0  3  0  0  0  0  0  0
  -22.1420   -7.6180   21.0010 O   0  0  0  0  0  0  0  0  0  0  0  0
  -21.9210   -6.9210   22.1620 C   0  0  0  0  0  0  0  0  0  0  0  0
  -21.4260   -7.5490   23.3260 C   0  0  0  0  0  3  0  0  0  0  0  0
  -21.1500   -6.7820   24.4750 C   0  0  0  0  0  3  0  0  0  0  0  0
  -21.3590   -5.3890   24.4580 C   0  0  0  0  0  0  0  0  0  0  0  0
  -21.8470   -4.7630   23.2980 C   0  0  0  0  0  3  0  0  0  0  0  0
  -22.1240   -5.5270   22.1520 C   0  0  0  0  0  0  0  0  0  0  0  0
  -22.5750   -4.9170   21.0290 F   0  0  0  0  0  0  0  0  0  0  0  0
  -21.0870   -4.6500   25.5580 F   0  0  0  0  0  0  0  0  0  0  0  0
  -23.8710  -14.1340   21.3030 C   0  0  0  0  0  0  0  0  0  0  0  0
  -23.2150  -13.4330   22.2200 N   0  0  0  0  0  0  0  0  0  0  0  0
  -23.4550  -15.2260   20.9180 O   0  0  0  0  0  0  0  0  0  0  0  0
  -23.5630  -12.5440   22.5500 H   0  0  0  0  0  0  0  0  0  0  0  0
  -22.3490  -13.7890   22.6020 H   0  0  0  0  0  0  0  0  0  0  0  0
  -26.5450  -15.6390   20.3250 N   0  0  0  0  0  0  0  0  0  0  0  0
  -25.8460  -16.3410   20.5440 H   0  0  0  0  0  0  0  0  0  0  0  0
  -27.3810  -16.0220   19.9030 H   0  0  0  0  0  0  0  0  0  0  0  0
  -32.0100  -19.6330   19.9220 N   0  0  0  0  0  4  0  0  0  0  0  0
  -31.4700  -19.7660   19.0850 H   0  0  0  0  0  0  0  0  0  0  0  0
  -32.9780  -19.5380   19.6670 H   0  0  0  0  0  0  0  0  0  0  0  0
  -31.9360  -20.4550   20.4960 H   0  0  0  0  0  0  0  0  0  0  0  0
  -28.3000  -22.1070   21.7670 C   0  0  0  0  0  2  0  0  0  0  0  0
  -27.4650  -23.0020   20.9190 N   0  0  0  0  0  4  0  0  0  0  0  0
  -26.5010  -22.7910   21.1250 H   0  0  0  0  0  0  0  0  0  0  0  0
  -27.5970  -22.8050   19.9410 H   0  0  0  0  0  0  0  0  0  0  0  0
  -27.6230  -24.4600   21.1460 C   0  0  0  0  0  2  0  0  0  0  0  0
  -28.7690  -25.1150   20.3350 C   0  0  0  0  0  2  0  0  0  0  0  0
  -28.3850  -25.5700   18.9050 C   0  0  0  0  0  2  0  0  0  0  0  0
  -28.2640  -26.9960   18.7960 O   0  0  0  0  0  0  0  0  0  0  0  0
  -24.5360  -31.5030   22.7920 C   0  0  0  0  0  0  0  0  0  0  0  0
  -27.0400  -27.6000   18.9870 C   0  0  0  0  0  0  0  0  0  0  0  0
  -23.2250  -30.2310   21.1170 C   0  0  0  0  0  3  0  0  0  0  0  0
  -24.5910  -28.9490   19.3940 C   0  0  0  0  0  0  0  0  0  0  0  0
  -25.6960  -30.7650   20.7210 C   0  0  0  0  0  2  0  0  0  0  0  0
  -25.7750  -29.4840   19.9130 C   0  0  0  0  0  0  0  0  0  0  0  0
  -27.0000  -28.8150   19.7070 C   0  0  0  0  0  3  0  0  0  0  0  0
  -25.8400  -27.0860   18.4510 C   0  0  0  0  0  3  0  0  0  0  0  0
  -24.6180  -27.7490   18.6640 C   0  0  0  0  0  3  0  0  0  0  0  0
  -23.3160  -29.7130   19.6550 C   0  0  0  0  0  2  0  0  0  0  0  0
  -24.5060  -30.8430   21.5980 N   0  0  0  0  0  0  0  0  0  0  0  0
  -23.5070  -31.6520   23.4670 O   0  0  0  0  0  0  0  0  0  0  0  0
  -22.7290  -29.0760   22.0160 C   0  0  0  0  0  0  0  0  0  0  0  0
  -21.4190  -28.7940   21.9570 N   0  0  0  0  0  0  0  0  0  0  0  0
  -23.5180  -28.4360   22.7170 O   0  0  0  0  0  0  0  0  0  0  0  0
  -20.8420  -29.3320   21.3280 H   0  0  0  0  0  0  0  0  0  0  0  0
  -18.1920  -27.3130   22.5360 C   0  0  0  0  0  0  0  0  0  0  0  0
  -20.7350  -27.7350   22.6910 C   0  0  0  0  0  3  0  0  0  0  0  0
  -20.9030  -26.3740   21.9830 C   0  0  0  0  0  2  0  0  0  0  0  0
  -19.7720  -26.0630   20.9970 C   0  0  0  0  0  2  0  0  0  0  0  0
  -18.4190  -26.0560   21.7110 C   0  0  0  0  0  2  0  0  0  0  0  0
  -19.2780  -28.1140   22.9790 C   0  0  0  0  0  0  0  0  0  0  0  0
  -19.0120  -29.2940   23.7070 C   0  0  0  0  0  3  0  0  0  0  0  0
  -17.6900  -29.6770   23.9980 C   0  0  0  0  0  3  0  0  0  0  0  0
  -16.6180  -28.8720   23.5730 C   0  0  0  0  0  3  0  0  0  0  0  0
  -16.8680  -27.6960   22.8430 C   0  0  0  0  0  3  0  0  0  0  0  0
  -25.8580  -32.1220   23.3500 C   0  0  0  0  0  3  0  0  0  0  0  0
  -25.5190  -33.4320   23.9150 N   0  0  0  0  0  0  0  0  0  0  0  0
  -25.7320  -34.6030   23.3000 C   0  0  0  0  0  0  0  0  0  0  0  0
  -26.3120  -34.6950   22.2140 O   0  0  0  0  0  0  0  0  0  0  0  0
  -24.9770  -33.4320   24.7650 H   0  0  0  0  0  0  0  0  0  0  0  0
  -23.9040  -36.3280   23.3640 C   0  0  0  0  0  1  0  0  0  0  0  0
  -25.2270  -35.8760   24.0040 C   0  0  0  0  0  3  0  0  0  0  0  0
  -27.3810  -36.7410   24.7980 C   0  0  0  0  0  1  0  0  0  0  0  0
  -26.2010  -36.9900   23.9750 N   0  0  0  0  0  0  0  0  0  0  0  0
  -25.7670  -37.8510   24.2950 H   0  0  0  0  0  0  0  0  0  0  0  0
  -26.5690  -31.2130   24.4250 C   0  0  1  0  0  0  0  0  0  0  0  0
  -25.6190  -30.7450   25.5500 C   0  0  0  0  0  1  0  0  0  0  0  0
  -27.1870  -29.9550   23.7690 C   0  0  0  0  0  1  0  0  0  0  0  0
  -27.7370  -31.9890   25.0750 C   0  0  0  0  0  1  0  0  0  0  0  0
  1 49  1  0
  1  2  2  0
  3 16  1  0
  4  9  1  0
  5  6  1  0
  5  4  1  0
  7  6  1  0
  7 20  1  0
  7  8  1  0
  9  3  1  0
  9  8  1  0
 10  3  2  0
 12 11  1  0
 13 16  1  0
 13 15  1  0
 14  2  1  0
 14 11  1  0
 15 45  1  0
 15 14  1  0
 16 12  1  0
 17 18  2  0
 18 37  1  0
 19 22  1  0
 19 18  1  0
 20 21  1  0
 20 17  1  0
 21 19  2  0
 22 23  1  0
 23 24  2  0
 25 28  1  0
 25 24  1  0
 26 25  2  0
 27 26  1  0
 27 22  2  0
 28 29  1  0
 29 30  1  0
 30 31  2  0
 32 31  1  0
 32 36  1  0
 33 32  2  0
 34 29  2  0
 34 33  1  0
 35 34  1  0
 37 38  1  0
 38 40  1  0
 38 41  1  0
 39 37  2  0
 42 17  1  0
 42 43  1  0
 44 42  1  0
 45 48  1  0
 46 45  1  0
 47 45  1  0
 50 51  1  0
 50 53  1  0
 50 49  1  0
 52 50  1  0
 54 53  1  0
 55 54  1  0
 56 55  1  0
 56 58  1  0
 57 68  2  0
 58 63  1  0
 59 67  1  0
 59 69  1  0
 60 66  1  0
 60 62  1  0
 61 67  1  0
 62 61  1  0
 63 62  2  0
 64 65  1  0
 64 58  2  0
 65 60  2  0
 66 59  1  0
 67 57  1  0
 69 71  2  0
 70 69  1  0
 72 70  1  0
 73 82  2  0
 73 78  1  0
 74 70  1  0
 74 78  1  0
 75 74  1  0
 76 77  1  0
 76 75  1  0
 77 73  1  0
 78 79  2  0
 79 80  1  0
 81 80  2  0
 82 81  1  0
 83 57  1  0
 83 84  1  0
 83 93  1  0
 84 87  1  0
 85 84  1  0
 85 89  1  0
 86 85  2  0
 89 88  1  0
 91 89  1  0
 91 92  1  0
 91 90  1  0
 93 96  1  1
 93 94  1  0
 95 93  1  0
M  ISO  4   3 100  16 100  55 101  56 101
M  END
>  <TORSDO>  (69) 
F 23

>  <SCORE>  (69) 
-9.520

>  <name>  (69) 
68

>  <ligand_id>  (69) 
68

>  <original_smiles>  (69) 
[H]c1c([H])c([H])c2c(c1[H])C([H])([H])C([H])([H])C([H])([H])C2([H])N([H])C(=O)C1([H])N(C(=O)C([H])(N([H])C(=O)C([H])(N([H])C([H])([H])[H])C([H])([H])[H])C(C([H])([H])[H])(C([H])([H])[H])C([H])([H])[H])C([H])([H])c2c([H])c(OC([H])([H])C([H])([H])C([H])([H])[N+]([H])([H])C([H])([H])C([H])([H])C([H])([H])C3([H])C([H])([H])C([H])([H])N(C(=O)N4C([H])([H])C([H])([H])C([H])([H])C([H])(n5nc(-c6c([H])c([H])c(Oc7c([H])c([H])c(F)c([H])c7F)c([H])c6[H])c(C(=O)N([H])[H])c5N([H])[H])C4([H])[H])C([H])([H])C3([H])[N+]([H])([H])[H])c([H])c([H])c2C1([H])[H]

>  <smiles>  (69) 
[H]c1c([H])c([H])c2c(c1[H])C([H])([H])C([H])([H])C([H])([H])C2([H])N([H])C(=O)C1([H])N(C(=O)C([H])(N([H])C(=O)C([H])(N([H])C([H])([H])[H])C([H])([H])[H])C(C([H])([H])[H])(C([H])([H])[H])C([H])([H])[H])C([H])([H])c2c([H])c(OC([H])([H])C([H])([H])C([H])([H])[N+]([H])([H])C([H])([H])C([H])([H])C([H])([H])C3([H])C([H])([H])C([H])([H])N(C(=O)N4C([H])([H])C([H])([H])C([H])([H])C([H])(n5nc(-c6c([H])c([H])c(Oc7c([H])c([H])c(F)c([H])c7F)c([H])c6[H])c(C(=O)N([H])[H])c5N([H])[H])C4([H])[H])C([H])([H])C3([H])[N+]([H])([H])[H])c([H])c([H])c2C1([H])[H]

$$$$
69:0:0
     RDKit          3D

 97105  0  0  1  0  0  0  0  0999 V2000
  -28.6840  -19.0880   18.8460 C   0  0  0  0  0  2  0  0  0  0  0  0
  -29.8890  -19.9790   21.7560 C   0  0  0  0  0  2  0  0  0  0  0  0
  -28.4680  -19.6720   21.2500 C   0  0  0  0  0  2  0  0  0  0  0  0
  -30.7300  -18.7440   21.3990 C   0  0  0  0  0  3  0  0  0  0  0  0
  -29.6920  -17.7550   20.8150 C   0  0  0  0  0  3  0  0  0  0  0  0
  -28.6410  -18.6230   20.2510 N   0  0  0  0  0  0  0  0  0  0  0  0
  -31.4660  -18.2370   22.5730 N   0  0  0  0  0  4  0  0  0  0  0  0
  -32.1200  -18.9250   22.8960 H   0  0  0  0  0  0  0  0  0  0  0  0
  -32.0090  -17.4260   22.3400 H   0  0  0  0  0  0  0  0  0  0  0  0
  -30.8460  -18.0180   23.3320 H   0  0  0  0  0  0  0  0  0  0  0  0
  -30.2370  -16.6400   19.8800 C   0  0  0  0  0  2  0  0  0  0  0  0
  -31.1640  -14.3800   19.9660 C   0  0  0  0  0  0  0  0  0  0  0  0
  -30.7080  -12.2400   18.8340 C   0  0  0  0  0  2  0  0  0  0  0  0
  -29.7330  -12.4840   17.6640 C   0  0  0  0  0  2  0  0  0  0  0  0
  -28.2720  -12.4060   18.1520 C   0  0  0  0  0  2  0  0  0  0  0  0
  -28.0200  -13.2620   19.4190 C   0  0  0  0  0  3  0  0  0  0  0  0
  -29.1100  -13.0110   20.4860 C   0  0  0  0  0  2  0  0  0  0  0  0
  -30.4250  -13.2450   19.8670 N   0  0  0  0  0  0  0  0  0  0  0  0
  -32.2390  -14.5410   19.3880 O   0  0  0  0  0  0  0  0  0  0  0  0
  -30.5820  -15.4070   20.6050 N   0  0  0  0  0  0  0  0  0  0  0  0
  -31.0610  -15.5920   21.4720 H   0  0  0  0  0  0  0  0  0  0  0  0
  -25.6810  -13.9650   20.2340 C   0  0  0  0  0  0  0  0  0  0  0  0
  -24.5910  -13.2410   20.6330 C   0  0  0  0  0  0  0  0  0  0  0  0
  -24.9860  -11.8680   20.5640 C   0  0  0  0  0  0  0  0  0  0  0  0
  -26.6760  -13.0420   19.9500 N   0  0  0  0  0  0  0  0  0  0  0  0
  -26.2600  -11.7740   20.2060 N   0  0  0  0  0  0  0  0  0  0  0  0
  -24.2070  -10.6370   20.7610 C   0  0  0  0  0  0  0  0  0  0  0  0
  -24.5760   -9.6770   21.7280 C   0  0  0  0  0  3  0  0  0  0  0  0
  -23.8030   -8.5100   21.9140 C   0  0  0  0  0  3  0  0  0  0  0  0
  -22.6440   -8.2970   21.1310 C   0  0  0  0  0  0  0  0  0  0  0  0
  -22.2940   -9.2420   20.1500 C   0  0  0  0  0  3  0  0  0  0  0  0
  -23.0690  -10.4000   19.9630 C   0  0  0  0  0  3  0  0  0  0  0  0
  -21.8440   -7.1840   21.2250 O   0  0  0  0  0  0  0  0  0  0  0  0
  -21.6780   -6.5140   22.4100 C   0  0  0  0  0  0  0  0  0  0  0  0
  -21.1690   -7.1530   23.5610 C   0  0  0  0  0  3  0  0  0  0  0  0
  -20.9550   -6.4100   24.7390 C   0  0  0  0  0  3  0  0  0  0  0  0
  -21.2330   -5.0300   24.7640 C   0  0  0  0  0  0  0  0  0  0  0  0
  -21.7290   -4.3920   23.6150 C   0  0  0  0  0  3  0  0  0  0  0  0
  -21.9500   -5.1310   22.4400 C   0  0  0  0  0  0  0  0  0  0  0  0
  -22.4140   -4.5080   21.3300 F   0  0  0  0  0  0  0  0  0  0  0  0
  -21.0140   -4.3140   25.8910 F   0  0  0  0  0  0  0  0  0  0  0  0
  -23.2300  -13.7780   20.9720 C   0  0  0  0  0  0  0  0  0  0  0  0
  -22.5210  -13.1140   21.8770 N   0  0  0  0  0  0  0  0  0  0  0  0
  -22.8090  -14.8210   20.4700 O   0  0  0  0  0  0  0  0  0  0  0  0
  -22.8700  -12.2620   22.2930 H   0  0  0  0  0  0  0  0  0  0  0  0
  -21.6070  -13.4540   22.1440 H   0  0  0  0  0  0  0  0  0  0  0  0
  -25.9070  -15.3300   20.0610 N   0  0  0  0  0  0  0  0  0  0  0  0
  -25.1710  -16.0190   20.1750 H   0  0  0  0  0  0  0  0  0  0  0  0
  -26.7510  -15.7140   19.6560 H   0  0  0  0  0  0  0  0  0  0  0  0
  -29.3010  -20.4800   18.4990 C   0  0  0  0  0  2  0  0  0  0  0  0
  -28.3160  -21.6850   18.4640 C   0  0  0  0  0  2  0  0  0  0  0  0
  -29.0100  -23.0000   18.5440 N   0  0  0  0  0  4  0  0  0  0  0  0
  -29.6780  -23.0570   17.7880 H   0  0  0  0  0  0  0  0  0  0  0  0
  -29.5350  -23.0330   19.4040 H   0  0  0  0  0  0  0  0  0  0  0  0
  -28.1340  -24.2080   18.4680 C   0  0  0  0  0  2  0  0  0  0  0  0
  -28.4970  -25.2970   19.5160 C   0  0  0  0  0  2  0  0  0  0  0  0
  -28.3780  -26.6620   19.0780 O   0  0  0  0  0  0  0  0  0  0  0  0
  -24.4230  -31.3610   22.7350 C   0  0  0  0  0  0  0  0  0  0  0  0
  -27.1640  -27.3010   19.2240 C   0  0  0  0  0  0  0  0  0  0  0  0
  -23.2340  -30.0540   21.0010 C   0  0  0  0  0  3  0  0  0  0  0  0
  -24.7100  -28.6980   19.4310 C   0  0  0  0  0  0  0  0  0  0  0  0
  -25.7370  -30.5310   20.7870 C   0  0  0  0  0  2  0  0  0  0  0  0
  -25.8610  -29.2210   20.0320 C   0  0  0  0  0  0  0  0  0  0  0  0
  -27.0920  -28.5330   19.9220 C   0  0  0  0  0  3  0  0  0  0  0  0
  -25.9910  -26.7910   18.6300 C   0  0  0  0  0  3  0  0  0  0  0  0
  -24.7690  -27.4820   18.7310 C   0  0  0  0  0  3  0  0  0  0  0  0
  -23.4380  -29.5020   19.5670 C   0  0  0  0  0  2  0  0  0  0  0  0
  -24.4830  -30.6600   21.5670 N   0  0  0  0  0  0  0  0  0  0  0  0
  -23.3440  -31.5440   23.3180 O   0  0  0  0  0  0  0  0  0  0  0  0
  -22.6450  -28.9320   21.8850 C   0  0  0  0  0  0  0  0  0  0  0  0
  -21.3230  -28.7190   21.7800 N   0  0  0  0  0  0  0  0  0  0  0  0
  -23.3720  -28.2610   22.6200 O   0  0  0  0  0  0  0  0  0  0  0  0
  -20.7970  -29.3100   21.1510 H   0  0  0  0  0  0  0  0  0  0  0  0
  -18.0010  -27.3940   22.2720 C   0  0  0  0  0  0  0  0  0  0  0  0
  -20.5580  -27.6880   22.4810 C   0  0  0  0  0  3  0  0  0  0  0  0
  -20.6760  -26.3240   21.7590 C   0  0  0  0  0  2  0  0  0  0  0  0
  -19.5410  -26.0700   20.7640 C   0  0  0  0  0  2  0  0  0  0  0  0
  -18.1830  -26.1170   21.4700 C   0  0  0  0  0  2  0  0  0  0  0  0
  -19.1160  -28.1380   22.7350 C   0  0  0  0  0  0  0  0  0  0  0  0
  -18.8920  -29.3350   23.4460 C   0  0  0  0  0  3  0  0  0  0  0  0
  -17.5850  -29.7880   23.7020 C   0  0  0  0  0  3  0  0  0  0  0  0
  -16.4830  -29.0380   23.2570 C   0  0  0  0  0  3  0  0  0  0  0  0
  -16.6910  -27.8430   22.5460 C   0  0  0  0  0  3  0  0  0  0  0  0
  -25.6980  -31.9870   23.3810 C   0  0  0  0  0  3  0  0  0  0  0  0
  -25.3430  -33.3310   23.8500 N   0  0  0  0  0  0  0  0  0  0  0  0
  -25.6190  -34.4650   23.1910 C   0  0  0  0  0  0  0  0  0  0  0  0
  -26.2730  -34.4910   22.1440 O   0  0  0  0  0  0  0  0  0  0  0  0
  -24.7550  -33.3850   24.6700 H   0  0  0  0  0  0  0  0  0  0  0  0
  -23.8090  -36.2060   23.0440 C   0  0  0  0  0  1  0  0  0  0  0  0
  -25.0850  -35.7800   23.7880 C   0  0  0  0  0  3  0  0  0  0  0  0
  -27.1980  -36.6740   24.6640 C   0  0  0  0  0  1  0  0  0  0  0  0
  -26.0700  -36.8830   23.7590 N   0  0  0  0  0  0  0  0  0  0  0  0
  -25.6290  -37.7650   24.0030 H   0  0  0  0  0  0  0  0  0  0  0  0
  -26.2880  -31.1220   24.5620 C   0  0  1  0  0  0  0  0  0  0  0  0
  -25.2420  -30.7420   25.6350 C   0  0  0  0  0  1  0  0  0  0  0  0
  -26.9100  -29.8120   24.0250 C   0  0  0  0  0  1  0  0  0  0  0  0
  -27.4290  -31.8980   25.2620 C   0  0  0  0  0  1  0  0  0  0  0  0
  1  6  1  0
  3  2  1  0
  4  2  1  0
  4  7  1  0
  5 11  1  0
  5  4  1  0
  6  5  1  0
  6  3  1  0
  7  8  1  0
  7 10  1  0
  9  7  1  0
 11 20  1  0
 12 20  1  0
 13 18  1  0
 14 15  1  0
 14 13  1  0
 16 15  1  0
 16 25  1  0
 16 17  1  0
 18 12  1  0
 18 17  1  0
 19 12  2  0
 20 21  1  0
 22 23  2  0
 23 42  1  0
 24 23  1  0
 24 27  1  0
 25 26  1  0
 25 22  1  0
 26 24  2  0
 27 28  1  0
 28 29  2  0
 30 33  1  0
 30 29  1  0
 31 30  2  0
 32 31  1  0
 32 27  2  0
 33 34  1  0
 34 39  2  0
 34 35  1  0
 35 36  2  0
 36 37  1  0
 37 41  1  0
 38 37  2  0
 39 38  1  0
 40 39  1  0
 42 43  1  0
 43 46  1  0
 43 45  1  0
 44 42  2  0
 47 48  1  0
 47 22  1  0
 49 47  1  0
 50  1  1  0
 51 50  1  0
 51 52  1  0
 52 54  1  0
 53 52  1  0
 55 52  1  0
 55 56  1  0
 57 59  1  0
 57 56  1  0
 58 69  2  0
 59 64  1  0
 60 68  1  0
 60 70  1  0
 61 67  1  0
 61 63  1  0
 62 68  1  0
 63 62  1  0
 64 63  2  0
 65 66  1  0
 65 59  2  0
 66 61  2  0
 67 60  1  0
 68 58  1  0
 70 72  2  0
 71 70  1  0
 73 71  1  0
 74 83  2  0
 74 79  1  0
 75 71  1  0
 75 79  1  0
 76 75  1  0
 77 78  1  0
 77 76  1  0
 78 74  1  0
 79 80  2  0
 80 81  1  0
 82 81  2  0
 83 82  1  0
 84 58  1  0
 84 85  1  0
 84 94  1  0
 85 88  1  0
 86 90  1  0
 86 85  1  0
 87 86  2  0
 90 89  1  0
 92 90  1  0
 92 93  1  0
 92 91  1  0
 94 97  1  1
 94 95  1  0
 96 94  1  0
M  ISO  4  12 100  20 100  56 101  57 101
M  END
>  <TORSDO>  (70) 
F 24

>  <SCORE>  (70) 
-10.186

>  <name>  (70) 
69

>  <ligand_id>  (70) 
69

>  <original_smiles>  (70) 
[H]c1c([H])c([H])c2c(c1[H])C([H])([H])C([H])([H])C([H])([H])C2([H])N([H])C(=O)C1([H])N(C(=O)C([H])(N([H])C(=O)C([H])(N([H])C([H])([H])[H])C([H])([H])[H])C(C([H])([H])[H])(C([H])([H])[H])C([H])([H])[H])C([H])([H])c2c([H])c(OC([H])([H])C([H])([H])[N+]([H])([H])C([H])([H])C([H])([H])C([H])([H])N3C([H])([H])C([H])([H])C([H])([N+]([H])([H])[H])C3([H])C([H])([H])N([H])C(=O)N3C([H])([H])C([H])([H])C([H])([H])C([H])(n4nc(-c5c([H])c([H])c(Oc6c([H])c([H])c(F)c([H])c6F)c([H])c5[H])c(C(=O)N([H])[H])c4N([H])[H])C3([H])[H])c([H])c([H])c2C1([H])[H]

>  <smiles>  (70) 
[H]c1c([H])c([H])c2c(c1[H])C([H])([H])C([H])([H])C([H])([H])C2([H])N([H])C(=O)C1([H])N(C(=O)C([H])(N([H])C(=O)C([H])(N([H])C([H])([H])[H])C([H])([H])[H])C(C([H])([H])[H])(C([H])([H])[H])C([H])([H])[H])C([H])([H])c2c([H])c(OC([H])([H])C([H])([H])[N+]([H])([H])C([H])([H])C([H])([H])C([H])([H])N3C([H])([H])C([H])([H])C([H])([N+]([H])([H])[H])C3([H])C([H])([H])N([H])C(=O)N3C([H])([H])C([H])([H])C([H])([H])C([H])(n4nc(-c5c([H])c([H])c(Oc6c([H])c([H])c(F)c([H])c6F)c([H])c5[H])c(C(=O)N([H])[H])c4N([H])[H])C3([H])[H])c([H])c([H])c2C1([H])[H]

$$$$
70:0:0
     RDKit          3D

 97105  0  0  1  0  0  0  0  0999 V2000
  -29.2750  -20.0690   17.5830 N   0  0  0  0  0  4  0  0  0  0  0  0
  -28.5090  -20.1170   18.2350 H   0  0  0  0  0  0  0  0  0  0  0  0
  -28.9050  -20.3210   16.6780 H   0  0  0  0  0  0  0  0  0  0  0  0
  -29.7630  -18.6710   17.4660 C   0  0  0  0  0  2  0  0  0  0  0  0
  -31.1170  -14.3910   19.5970 C   0  0  0  0  0  0  0  0  0  0  0  0
  -30.6320  -12.3040   18.3790 C   0  0  0  0  0  2  0  0  0  0  0  0
  -29.5520  -12.5960   17.3140 C   0  0  0  0  0  2  0  0  0  0  0  0
  -28.1320  -12.4820   17.9100 C   0  0  0  0  0  2  0  0  0  0  0  0
  -27.9860  -13.2480   19.2510 C   0  0  0  0  0  3  0  0  0  0  0  0
  -29.1560  -12.8640   20.1900 C   0  0  0  0  0  2  0  0  0  0  0  0
  -30.3980  -13.2340   19.4970 N   0  0  0  0  0  0  0  0  0  0  0  0
  -32.2510  -14.4670   19.1080 O   0  0  0  0  0  0  0  0  0  0  0  0
  -28.6140  -17.8520   19.6040 C   0  0  0  0  0  2  0  0  0  0  0  0
  -30.4930  -16.5140   18.6220 C   0  0  0  0  0  2  0  0  0  0  0  0
  -29.9220  -17.9360   18.8240 C   0  0  0  0  0  3  0  0  0  0  0  0
  -28.9230  -17.2920   20.9930 C   0  0  0  0  0  3  0  0  0  0  0  0
  -29.5560  -15.8760   20.9490 C   0  0  0  0  0  3  0  0  0  0  0  0
  -30.3160  -15.5970   22.2690 C   0  0  0  0  0  1  0  0  0  0  0  0
  -30.3950  -15.5480   19.7540 N   0  0  0  0  0  0  0  0  0  0  0  0
  -25.7080  -13.9370   20.2380 C   0  0  0  0  0  0  0  0  0  0  0  0
  -24.6610  -13.1920   20.7110 C   0  0  0  0  0  0  0  0  0  0  0  0
  -25.0690  -11.8260   20.6090 C   0  0  0  0  0  0  0  0  0  0  0  0
  -26.6860  -13.0210   19.8740 N   0  0  0  0  0  0  0  0  0  0  0  0
  -26.3130  -11.7500   20.1560 N   0  0  0  0  0  0  0  0  0  0  0  0
  -24.3310  -10.5810   20.8590 C   0  0  0  0  0  0  0  0  0  0  0  0
  -24.7550   -9.6570   21.8370 C   0  0  0  0  0  3  0  0  0  0  0  0
  -24.0200   -8.4750   22.0730 C   0  0  0  0  0  3  0  0  0  0  0  0
  -22.8450   -8.2100   21.3290 C   0  0  0  0  0  0  0  0  0  0  0  0
  -22.4400   -9.1230   20.3390 C   0  0  0  0  0  3  0  0  0  0  0  0
  -23.1770  -10.2960   20.1020 C   0  0  0  0  0  3  0  0  0  0  0  0
  -22.0820   -7.0780   21.4730 O   0  0  0  0  0  0  0  0  0  0  0  0
  -21.9370   -6.4570   22.6880 C   0  0  0  0  0  0  0  0  0  0  0  0
  -21.4050   -7.1290   23.8090 C   0  0  0  0  0  3  0  0  0  0  0  0
  -21.2080   -6.4340   25.0190 C   0  0  0  0  0  3  0  0  0  0  0  0
  -21.5330   -5.0670   25.1070 C   0  0  0  0  0  0  0  0  0  0  0  0
  -22.0570   -4.3940   23.9890 C   0  0  0  0  0  3  0  0  0  0  0  0
  -22.2550   -5.0870   22.7830 C   0  0  0  0  0  0  0  0  0  0  0  0
  -22.7420   -4.4290   21.7030 F   0  0  0  0  0  0  0  0  0  0  0  0
  -21.3360   -4.3960   26.2670 F   0  0  0  0  0  0  0  0  0  0  0  0
  -23.3160  -13.7040   21.1340 C   0  0  0  0  0  0  0  0  0  0  0  0
  -22.6740  -13.0340   22.0870 N   0  0  0  0  0  0  0  0  0  0  0  0
  -22.8460  -14.7330   20.6520 O   0  0  0  0  0  0  0  0  0  0  0  0
  -23.0670  -12.2000   22.4960 H   0  0  0  0  0  0  0  0  0  0  0  0
  -21.7760  -13.3620   22.4120 H   0  0  0  0  0  0  0  0  0  0  0  0
  -25.8990  -15.3090   20.0580 N   0  0  0  0  0  0  0  0  0  0  0  0
  -24.9980  -15.7790   20.0540 H   0  0  0  0  0  0  0  0  0  0  0  0
  -26.3750  -15.4900   19.1820 H   0  0  0  0  0  0  0  0  0  0  0  0
  -27.7130  -17.2900   21.8400 N   0  0  0  0  0  4  0  0  0  0  0  0
  -27.9320  -17.0020   22.7760 H   0  0  0  0  0  0  0  0  0  0  0  0
  -27.0220  -16.6520   21.4620 H   0  0  0  0  0  0  0  0  0  0  0  0
  -27.3060  -18.2070   21.8890 H   0  0  0  0  0  0  0  0  0  0  0  0
  -30.3100  -21.0710   17.9270 C   0  0  0  0  0  2  0  0  0  0  0  0
  -29.8330  -22.5310   17.7510 C   0  0  0  0  0  2  0  0  0  0  0  0
  -29.0200  -23.0960   18.9320 C   0  0  0  0  0  2  0  0  0  0  0  0
  -28.7890  -24.6170   18.8130 C   0  0  0  0  0  2  0  0  0  0  0  0
  -28.2740  -25.2520   20.1140 C   0  0  0  0  0  2  0  0  0  0  0  0
  -28.3620  -26.6780   20.0450 O   0  0  0  0  0  0  0  0  0  0  0  0
  -24.5570  -31.7230   23.2760 C   0  0  0  0  0  0  0  0  0  0  0  0
  -27.1890  -27.3950   20.0410 C   0  0  0  0  0  0  0  0  0  0  0  0
  -23.3660  -30.4350   21.5310 C   0  0  0  0  0  3  0  0  0  0  0  0
  -24.8220  -28.9370   20.0710 C   0  0  0  0  0  0  0  0  0  0  0  0
  -25.9000  -30.7480   21.4180 C   0  0  0  0  0  2  0  0  0  0  0  0
  -25.9720  -29.4110   20.7120 C   0  0  0  0  0  0  0  0  0  0  0  0
  -27.1590  -28.6470   20.6930 C   0  0  0  0  0  3  0  0  0  0  0  0
  -26.0220  -26.9320   19.3920 C   0  0  0  0  0  3  0  0  0  0  0  0
  -24.8410  -27.6980   19.4070 C   0  0  0  0  0  3  0  0  0  0  0  0
  -23.5960  -29.8190   20.1250 C   0  0  0  0  0  2  0  0  0  0  0  0
  -24.6240  -30.9810   22.1340 N   0  0  0  0  0  0  0  0  0  0  0  0
  -23.4680  -31.9910   23.8020 O   0  0  0  0  0  0  0  0  0  0  0  0
  -22.6680  -29.3820   22.4210 C   0  0  0  0  0  0  0  0  0  0  0  0
  -21.3380  -29.2650   22.2750 N   0  0  0  0  0  0  0  0  0  0  0  0
  -23.3190  -28.6760   23.1950 O   0  0  0  0  0  0  0  0  0  0  0  0
  -20.8770  -29.8870   21.6250 H   0  0  0  0  0  0  0  0  0  0  0  0
  -17.9070  -28.2260   22.7180 C   0  0  0  0  0  0  0  0  0  0  0  0
  -20.4770  -28.3150   22.9780 C   0  0  0  0  0  3  0  0  0  0  0  0
  -20.4930  -26.9330   22.2860 C   0  0  0  0  0  2  0  0  0  0  0  0
  -19.3670  -26.7560   21.2630 C   0  0  0  0  0  2  0  0  0  0  0  0
  -18.0010  -26.9280   21.9350 C   0  0  0  0  0  2  0  0  0  0  0  0
  -19.0700  -28.8860   23.1940 C   0  0  0  0  0  0  0  0  0  0  0  0
  -18.9300  -30.1090   23.8860 C   0  0  0  0  0  3  0  0  0  0  0  0
  -17.6580  -30.6690   24.1060 C   0  0  0  0  0  3  0  0  0  0  0  0
  -16.5080  -30.0040   23.6470 C   0  0  0  0  0  3  0  0  0  0  0  0
  -16.6340  -28.7840   22.9580 C   0  0  0  0  0  3  0  0  0  0  0  0
  -25.8400  -32.2900   23.9610 C   0  0  0  0  0  3  0  0  0  0  0  0
  -25.5440  -33.6640   24.3870 N   0  0  0  0  0  0  0  0  0  0  0  0
  -25.9050  -34.7650   23.7120 C   0  0  0  0  0  0  0  0  0  0  0  0
  -26.5940  -34.7260   22.6890 O   0  0  0  0  0  0  0  0  0  0  0  0
  -24.9370  -33.7680   25.1870 H   0  0  0  0  0  0  0  0  0  0  0  0
  -24.2110  -36.6040   23.4500 C   0  0  0  0  0  1  0  0  0  0  0  0
  -25.4260  -36.1220   24.2600 C   0  0  0  0  0  3  0  0  0  0  0  0
  -27.5460  -36.9130   25.2100 C   0  0  0  0  0  1  0  0  0  0  0  0
  -26.4750  -37.1640   24.2500 N   0  0  0  0  0  0  0  0  0  0  0  0
  -26.0780  -38.0780   24.4490 H   0  0  0  0  0  0  0  0  0  0  0  0
  -26.3300  -31.4200   25.1830 C   0  0  1  0  0  0  0  0  0  0  0  0
  -25.2180  -31.1150   26.2130 C   0  0  0  0  0  1  0  0  0  0  0  0
  -26.9080  -30.0710   24.6950 C   0  0  0  0  0  1  0  0  0  0  0  0
  -27.4770  -32.1510   25.9210 C   0  0  0  0  0  1  0  0  0  0  0  0
  1 52  1  0
  1  2  1  0
  3  1  1  0
  4  1  1  0
  5 19  1  0
  6 11  1  0
  7  8  1  0
  7  6  1  0
  9  8  1  0
  9 23  1  0
  9 10  1  0
 11  5  1  0
 11 10  1  0
 12  5  2  0
 13 16  1  0
 14 15  1  0
 14 19  1  0
 15  4  1  0
 15 13  1  0
 16 48  1  0
 17 16  1  0
 17 18  1  0
 19 17  1  0
 20 21  2  0
 21 40  1  0
 22 21  1  0
 22 25  1  0
 23 24  1  0
 23 20  1  0
 24 22  2  0
 25 26  1  0
 26 27  2  0
 28 31  1  0
 28 27  1  0
 29 28  2  0
 30 29  1  0
 30 25  2  0
 31 32  1  0
 32 37  2  0
 32 33  1  0
 33 34  2  0
 34 35  1  0
 35 39  1  0
 36 35  2  0
 37 36  1  0
 38 37  1  0
 40 41  1  0
 41 44  1  0
 41 43  1  0
 42 40  2  0
 45 20  1  0
 46 45  1  0
 47 45  1  0
 48 51  1  0
 48 49  1  0
 50 48  1  0
 53 52  1  0
 53 54  1  0
 55 54  1  0
 55 56  1  0
 57 56  1  0
 58 69  2  0
 59 57  1  0
 59 64  1  0
 60 68  1  0
 60 70  1  0
 61 67  1  0
 61 63  1  0
 62 68  1  0
 63 62  1  0
 64 63  2  0
 65 66  1  0
 65 59  2  0
 66 61  2  0
 67 60  1  0
 68 58  1  0
 70 72  2  0
 71 70  1  0
 73 71  1  0
 74 83  2  0
 74 79  1  0
 75 71  1  0
 75 79  1  0
 76 75  1  0
 77 78  1  0
 77 76  1  0
 78 74  1  0
 79 80  2  0
 80 81  1  0
 82 81  2  0
 83 82  1  0
 84 58  1  0
 84 85  1  0
 84 94  1  0
 85 88  1  0
 86 90  1  0
 86 85  1  0
 87 86  2  0
 90 89  1  0
 92 90  1  0
 92 93  1  0
 92 91  1  0
 94 97  1  1
 94 95  1  0
 96 94  1  0
M  ISO  4   5 100  19 100  56 101  57 101
M  END
>  <TORSDO>  (71) 
F 23

>  <SCORE>  (71) 
-8.815

>  <name>  (71) 
70

>  <ligand_id>  (71) 
70

>  <original_smiles>  (71) 
[H]c1c([H])c([H])c2c(c1[H])C([H])([H])C([H])([H])C([H])([H])C2([H])N([H])C(=O)C1([H])N(C(=O)C([H])(N([H])C(=O)C([H])(N([H])C([H])([H])[H])C([H])([H])[H])C(C([H])([H])[H])(C([H])([H])[H])C([H])([H])[H])C([H])([H])c2c([H])c(OC([H])([H])C([H])([H])C([H])([H])C([H])([H])C([H])([H])[N+]([H])([H])C([H])([H])C3([H])C([H])([H])N(C(=O)N4C([H])([H])C([H])([H])C([H])([H])C([H])(n5nc(-c6c([H])c([H])c(Oc7c([H])c([H])c(F)c([H])c7F)c([H])c6[H])c(C(=O)N([H])[H])c5N([H])[H])C4([H])[H])C([H])(C([H])([H])[H])C([H])([N+]([H])([H])[H])C3([H])[H])c([H])c([H])c2C1([H])[H]

>  <smiles>  (71) 
[H]c1c([H])c([H])c2c(c1[H])C([H])([H])C([H])([H])C([H])([H])C2([H])N([H])C(=O)C1([H])N(C(=O)C([H])(N([H])C(=O)C([H])(N([H])C([H])([H])[H])C([H])([H])[H])C(C([H])([H])[H])(C([H])([H])[H])C([H])([H])[H])C([H])([H])c2c([H])c(OC([H])([H])C([H])([H])C([H])([H])C([H])([H])C([H])([H])[N+]([H])([H])C([H])([H])C3([H])C([H])([H])N(C(=O)N4C([H])([H])C([H])([H])C([H])([H])C([H])(n5nc(-c6c([H])c([H])c(Oc7c([H])c([H])c(F)c([H])c7F)c([H])c6[H])c(C(=O)N([H])[H])c5N([H])[H])C4([H])[H])C([H])(C([H])([H])[H])C([H])([N+]([H])([H])[H])C3([H])[H])c([H])c([H])c2C1([H])[H]

$$$$
71:0:0
     RDKit          3D

 89 96  0  0  1  0  0  0  0  0999 V2000
  -28.8570  -22.4550   20.8270 C   0  0  0  0  0  2  0  0  0  0  0  0
  -28.9620  -21.1200   20.0860 N   0  0  0  0  0  4  0  0  0  0  0  0
  -28.0350  -20.8700   19.7840 H   0  0  0  0  0  0  0  0  0  0  0  0
  -29.5110  -21.2730   19.2560 H   0  0  0  0  0  0  0  0  0  0  0  0
  -29.5690  -19.9250   20.8270 C   0  0  0  0  0  2  0  0  0  0  0  0
  -29.3480  -18.4360   20.2460 C   0  0  0  0  0  3  0  0  0  0  0  0
  -30.2070  -17.2350   20.8870 C   0  0  0  0  0  3  0  0  0  0  0  0
  -30.5760  -14.6960   20.3310 C   0  0  0  0  0  0  0  0  0  0  0  0
  -30.3500  -12.4560   19.2620 C   0  0  0  0  0  2  0  0  0  0  0  0
  -29.3870  -12.5630   18.0600 C   0  0  0  0  0  2  0  0  0  0  0  0
  -27.9220  -12.3950   18.5140 C   0  0  0  0  0  2  0  0  0  0  0  0
  -27.5780  -13.2670   19.7510 C   0  0  0  0  0  3  0  0  0  0  0  0
  -28.6530  -13.1330   20.8500 C   0  0  0  0  0  2  0  0  0  0  0  0
  -29.9440  -13.4820   20.2440 N   0  0  0  0  0  0  0  0  0  0  0  0
  -31.7510  -14.8250   19.9760 O   0  0  0  0  0  0  0  0  0  0  0  0
  -29.8020  -15.7920   20.6480 N   0  0  0  0  0  0  0  0  0  0  0  0
  -28.8400  -15.5690   20.8550 H   0  0  0  0  0  0  0  0  0  0  0  0
  -25.1970  -13.8600   20.5060 C   0  0  0  0  0  0  0  0  0  0  0  0
  -24.1370  -13.0860   20.8910 C   0  0  0  0  0  0  0  0  0  0  0  0
  -24.6010  -11.7360   20.8550 C   0  0  0  0  0  0  0  0  0  0  0  0
  -26.2390  -12.9820   20.2580 N   0  0  0  0  0  0  0  0  0  0  0  0
  -25.8880  -11.6990   20.5300 N   0  0  0  0  0  0  0  0  0  0  0  0
  -23.8800  -10.4720   21.0550 C   0  0  0  0  0  0  0  0  0  0  0  0
  -24.3330   -9.4990   21.9730 C   0  0  0  0  0  3  0  0  0  0  0  0
  -23.6120   -8.3010   22.1610 C   0  0  0  0  0  3  0  0  0  0  0  0
  -22.4230   -8.0670   21.4290 C   0  0  0  0  0  0  0  0  0  0  0  0
  -21.9890   -9.0280   20.4990 C   0  0  0  0  0  3  0  0  0  0  0  0
  -22.7110  -10.2180   20.3100 C   0  0  0  0  0  3  0  0  0  0  0  0
  -21.6710   -6.9220   21.5270 O   0  0  0  0  0  0  0  0  0  0  0  0
  -21.6560   -6.1660   22.6720 C   0  0  0  0  0  0  0  0  0  0  0  0
  -21.2730   -6.7080   23.9180 C   0  0  0  0  0  3  0  0  0  0  0  0
  -21.2060   -5.8790   25.0550 C   0  0  0  0  0  3  0  0  0  0  0  0
  -21.5100   -4.5100   24.9490 C   0  0  0  0  0  0  0  0  0  0  0  0
  -21.8860   -3.9670   23.7080 C   0  0  0  0  0  3  0  0  0  0  0  0
  -21.9550   -4.7930   22.5720 C   0  0  0  0  0  0  0  0  0  0  0  0
  -22.2980   -4.2600   21.3740 F   0  0  0  0  0  0  0  0  0  0  0  0
  -21.4370   -3.7110   26.0400 F   0  0  0  0  0  0  0  0  0  0  0  0
  -22.7420  -13.5620   21.1790 C   0  0  0  0  0  0  0  0  0  0  0  0
  -22.0270  -12.8640   22.0540 N   0  0  0  0  0  0  0  0  0  0  0  0
  -22.2970  -14.5860   20.6630 O   0  0  0  0  0  0  0  0  0  0  0  0
  -22.4010  -12.0350   22.4920 H   0  0  0  0  0  0  0  0  0  0  0  0
  -21.0920  -13.1640   22.2910 H   0  0  0  0  0  0  0  0  0  0  0  0
  -25.3570  -15.2310   20.3220 N   0  0  0  0  0  0  0  0  0  0  0  0
  -24.5850  -15.8810   20.4290 H   0  0  0  0  0  0  0  0  0  0  0  0
  -26.1880  -15.6670   19.9430 H   0  0  0  0  0  0  0  0  0  0  0  0
  -28.5990  -23.8050   19.9860 C   0  0  0  0  0  3  0  0  0  0  0  0
  -29.6970  -24.0210   19.2590 F   0  0  0  0  0  0  0  0  0  0  0  0
  -28.2630  -25.1480   20.8060 C   0  0  0  0  0  2  0  0  0  0  0  0
  -28.3540  -26.5020   20.1930 O   0  0  0  0  0  0  0  0  0  0  0  0
  -24.5980  -31.8820   23.2510 C   0  0  0  0  0  0  0  0  0  0  0  0
  -27.2250  -27.3320   20.2100 C   0  0  0  0  0  0  0  0  0  0  0  0
  -23.3960  -30.4770   21.6140 C   0  0  0  0  0  3  0  0  0  0  0  0
  -24.8510  -28.9230   20.1940 C   0  0  0  0  0  0  0  0  0  0  0  0
  -25.9320  -30.8080   21.4230 C   0  0  0  0  0  2  0  0  0  0  0  0
  -26.0190  -29.4270   20.7840 C   0  0  0  0  0  0  0  0  0  0  0  0
  -27.2120  -28.6440   20.7750 C   0  0  0  0  0  3  0  0  0  0  0  0
  -26.0370  -26.8710   19.6070 C   0  0  0  0  0  3  0  0  0  0  0  0
  -24.8620  -27.6500   19.5970 C   0  0  0  0  0  3  0  0  0  0  0  0
  -23.6110  -29.7930   20.2360 C   0  0  0  0  0  2  0  0  0  0  0  0
  -24.6610  -31.0730   22.1530 N   0  0  0  0  0  0  0  0  0  0  0  0
  -23.5140  -32.1560   23.7880 O   0  0  0  0  0  0  0  0  0  0  0  0
  -22.7380  -29.4600   22.5790 C   0  0  0  0  0  0  0  0  0  0  0  0
  -21.4120  -29.2780   22.4520 N   0  0  0  0  0  0  0  0  0  0  0  0
  -23.4190  -28.8390   23.3970 O   0  0  0  0  0  0  0  0  0  0  0  0
  -20.9230  -29.8320   21.7640 H   0  0  0  0  0  0  0  0  0  0  0  0
  -18.0410  -28.0660   22.9490 C   0  0  0  0  0  0  0  0  0  0  0  0
  -20.5970  -28.3400   23.2250 C   0  0  0  0  0  3  0  0  0  0  0  0
  -20.7080  -26.9060   22.6540 C   0  0  0  0  0  2  0  0  0  0  0  0
  -19.6110  -26.5750   21.6380 C   0  0  0  0  0  2  0  0  0  0  0  0
  -18.2270  -26.7150   22.2780 C   0  0  0  0  0  2  0  0  0  0  0  0
  -19.1540  -28.8350   23.3780 C   0  0  0  0  0  0  0  0  0  0  0  0
  -18.9270  -30.1000   23.9650 C   0  0  0  0  0  3  0  0  0  0  0  0
  -17.6200  -30.5940   24.1250 C   0  0  0  0  0  3  0  0  0  0  0  0
  -16.5200  -29.8220   23.7120 C   0  0  0  0  0  3  0  0  0  0  0  0
  -16.7320  -28.5600   23.1290 C   0  0  0  0  0  3  0  0  0  0  0  0
  -25.8780  -32.5200   23.8720 C   0  0  0  0  0  3  0  0  0  0  0  0
  -26.3960  -31.7540   25.1520 C   0  0  1  0  0  0  0  0  0  0  0  0
  -25.3030  -31.5200   26.2220 C   0  0  0  0  0  1  0  0  0  0  0  0
  -26.9790  -30.3760   24.7660 C   0  0  0  0  0  1  0  0  0  0  0  0
  -27.5460  -32.5510   25.8090 C   0  0  0  0  0  1  0  0  0  0  0  0
  -25.5650  -33.9190   24.1980 N   0  0  0  0  0  0  0  0  0  0  0  0
  -25.8970  -34.9710   23.4380 C   0  0  0  0  0  0  0  0  0  0  0  0
  -26.5670  -34.8660   22.4060 O   0  0  0  0  0  0  0  0  0  0  0  0
  -24.9710  -34.0740   25.0000 H   0  0  0  0  0  0  0  0  0  0  0  0
  -24.1650  -36.7600   23.0820 C   0  0  0  0  0  1  0  0  0  0  0  0
  -25.4080  -36.3600   23.8920 C   0  0  0  0  0  3  0  0  0  0  0  0
  -27.5430  -37.2500   24.7170 C   0  0  0  0  0  1  0  0  0  0  0  0
  -26.4390  -37.4140   23.7750 N   0  0  0  0  0  0  0  0  0  0  0  0
  -26.0310  -38.3340   23.9220 H   0  0  0  0  0  0  0  0  0  0  0  0
  2  1  1  0
  2  5  1  0
  3  2  1  0
  4  2  1  0
  6  5  1  0
  6  7  2  0
  8 16  1  0
  9 14  1  0
 10 11  1  0
 10  9  1  0
 12 11  1  0
 12 21  1  0
 12 13  1  0
 14  8  1  0
 14 13  1  0
 15  8  2  0
 16 17  1  0
 16  7  1  0
 18 19  2  0
 19 38  1  0
 20 19  1  0
 20 23  1  0
 21 18  1  0
 21 22  1  0
 22 20  2  0
 23 24  1  0
 24 25  2  0
 26 29  1  0
 26 25  1  0
 27 26  2  0
 28 27  1  0
 28 23  2  0
 29 30  1  0
 30 31  1  0
 31 32  2  0
 33 32  1  0
 33 37  1  0
 34 33  2  0
 35 30  2  0
 35 34  1  0
 36 35  1  0
 38 39  1  0
 39 42  1  0
 39 41  1  0
 40 38  2  0
 43 44  1  0
 43 18  1  0
 45 43  1  0
 46 47  1  0
 46 48  1  0
 46  1  1  0
 49 51  1  0
 49 48  1  0
 50 61  2  0
 51 56  1  0
 52 60  1  0
 52 62  1  0
 53 59  1  0
 53 55  1  0
 54 60  1  0
 55 54  1  0
 56 55  2  0
 57 51  2  0
 58 57  1  0
 58 53  2  0
 59 52  1  0
 60 50  1  0
 62 64  2  0
 63 62  1  0
 65 63  1  0
 66 75  2  0
 66 71  1  0
 67 63  1  0
 67 71  1  0
 68 67  1  0
 69 70  1  0
 69 68  1  0
 70 66  1  0
 71 72  2  0
 72 73  1  0
 74 73  2  0
 75 74  1  0
 76 50  1  0
 76 81  1  0
 76 77  1  0
 77 80  1  1
 77 78  1  0
 79 77  1  0
 81 84  1  0
 82 86  1  0
 82 81  1  0
 83 82  2  0
 86 85  1  0
 88 86  1  0
 88 89  1  0
 88 87  1  0
M  ISO  4   8 100  16 100  48 101  49 101
M  END
>  <TORSDO>  (72) 
F 22

>  <SCORE>  (72) 
-12.926

>  <name>  (72) 
71

>  <ligand_id>  (72) 
71

>  <original_smiles>  (72) 
[H]c1c([H])c([H])c2c(c1[H])C([H])([H])C([H])([H])C([H])([H])C2([H])N([H])C(=O)C1([H])N(C(=O)C([H])(N([H])C(=O)C([H])(N([H])C([H])([H])[H])C([H])([H])[H])C(C([H])([H])[H])(C([H])([H])[H])C([H])([H])[H])C([H])([H])c2c([H])c(OC([H])([H])C([H])(F)C([H])([H])[N+]([H])([H])C([H])([H])C([H])([H])C([H])([H])N([H])C(=O)N3C([H])([H])C([H])([H])C([H])([H])C([H])(n4nc(-c5c([H])c([H])c(Oc6c([H])c([H])c(F)c([H])c6F)c([H])c5[H])c(C(=O)N([H])[H])c4N([H])[H])C3([H])[H])c([H])c([H])c2C1([H])[H]

>  <smiles>  (72) 
[H]c1c([H])c([H])c2c(c1[H])C([H])([H])C([H])([H])C([H])([H])C2([H])N([H])C(=O)C1([H])N(C(=O)C([H])(N([H])C(=O)C([H])(N([H])C([H])([H])[H])C([H])([H])[H])C(C([H])([H])[H])(C([H])([H])[H])C([H])([H])[H])C([H])([H])c2c([H])c(OC([H])([H])C([H])(F)C([H])([H])[N+]([H])([H])C([H])([H])C([H])([H])C([H])([H])N([H])C(=O)N3C([H])([H])C([H])([H])C([H])([H])C([H])(n4nc(-c5c([H])c([H])c(Oc6c([H])c([H])c(F)c([H])c6F)c([H])c5[H])c(C(=O)N([H])[H])c4N([H])[H])C3([H])[H])c([H])c([H])c2C1([H])[H]

$$$$
72:0:0
     RDKit          3D

 99107  0  0  1  0  0  0  0  0999 V2000
  -27.6910  -18.5290   19.2370 C   0  0  0  0  0  2  0  0  0  0  0  0
  -29.1680  -18.0720   19.2290 C   0  0  0  0  0  2  0  0  0  0  0  0
  -29.7960  -19.9100   20.7590 C   0  0  0  0  0  2  0  0  0  0  0  0
  -28.3190  -20.3930   20.8200 C   0  0  0  0  0  3  0  0  0  0  0  0
  -27.5080  -20.0410   19.5270 C   0  0  0  0  0  3  0  0  0  0  0  0
  -29.8750  -18.4410   20.4850 N   0  0  2  0  0  4  0  0  0  0  0  0
  -29.3910  -17.9790   21.2420 H   0  0  0  0  0  0  0  0  0  0  0  0
  -27.8160  -20.8490   18.3180 N   0  0  0  0  0  4  0  0  0  0  0  0
  -28.7920  -20.8950   18.0830 H   0  0  0  0  0  0  0  0  0  0  0  0
  -27.4440  -21.7780   18.3620 H   0  0  0  0  0  0  0  0  0  0  0  0
  -27.3500  -20.4330   17.5270 H   0  0  0  0  0  0  0  0  0  0  0  0
  -28.0280  -21.7130   21.6220 C   0  0  0  0  0  2  0  0  0  0  0  0
  -28.0250  -23.0300   20.9290 N   0  0  0  0  0  4  0  0  0  0  0  0
  -27.5850  -23.6510   21.5910 H   0  0  0  0  0  0  0  0  0  0  0  0
  -27.4060  -23.0280   20.1370 H   0  0  0  0  0  0  0  0  0  0  0  0
  -29.3370  -23.6560   20.6290 C   0  0  0  0  0  2  0  0  0  0  0  0
  -29.2600  -25.2030   20.6060 C   0  0  0  0  0  2  0  0  0  0  0  0
  -28.5380  -25.7910   19.3790 C   0  0  0  0  0  2  0  0  0  0  0  0
  -28.4610  -27.2160   19.4960 O   0  0  0  0  0  0  0  0  0  0  0  0
  -24.4920  -31.8220   23.1780 C   0  0  0  0  0  0  0  0  0  0  0  0
  -27.2320  -27.8350   19.5980 C   0  0  0  0  0  0  0  0  0  0  0  0
  -23.3010  -30.5550   21.4210 C   0  0  0  0  0  3  0  0  0  0  0  0
  -24.7790  -29.2300   19.8200 C   0  0  0  0  0  0  0  0  0  0  0  0
  -25.8090  -31.0240   21.2230 C   0  0  0  0  0  2  0  0  0  0  0  0
  -25.9280  -29.7320   20.4420 C   0  0  0  0  0  0  0  0  0  0  0  0
  -27.1540  -29.0400   20.3300 C   0  0  0  0  0  3  0  0  0  0  0  0
  -26.0610  -27.3510   18.9640 C   0  0  0  0  0  3  0  0  0  0  0  0
  -24.8390  -28.0370   19.0830 C   0  0  0  0  0  3  0  0  0  0  0  0
  -23.5040  -30.0300   19.9750 C   0  0  0  0  0  2  0  0  0  0  0  0
  -24.5520  -31.1440   21.9990 N   0  0  0  0  0  0  0  0  0  0  0  0
  -23.4130  -31.9970   23.7620 O   0  0  0  0  0  0  0  0  0  0  0  0
  -22.7140  -29.4120   22.2800 C   0  0  0  0  0  0  0  0  0  0  0  0
  -21.3910  -29.2080   22.1750 N   0  0  0  0  0  0  0  0  0  0  0  0
  -23.4420  -28.7170   22.9950 O   0  0  0  0  0  0  0  0  0  0  0  0
  -20.8680  -29.8190   21.5630 H   0  0  0  0  0  0  0  0  0  0  0  0
  -18.0720  -27.8550   22.6090 C   0  0  0  0  0  0  0  0  0  0  0  0
  -20.6240  -28.1700   22.8620 C   0  0  0  0  0  3  0  0  0  0  0  0
  -20.7630  -26.8110   22.1380 C   0  0  0  0  0  2  0  0  0  0  0  0
  -19.6500  -26.5560   21.1170 C   0  0  0  0  0  2  0  0  0  0  0  0
  -18.2780  -26.5880   21.7970 C   0  0  0  0  0  2  0  0  0  0  0  0
  -19.1730  -28.6070   23.0960 C   0  0  0  0  0  0  0  0  0  0  0  0
  -18.9260  -29.7970   23.8140 C   0  0  0  0  0  3  0  0  0  0  0  0
  -17.6100  -30.2330   24.0540 C   0  0  0  0  0  3  0  0  0  0  0  0
  -16.5230  -29.4760   23.5830 C   0  0  0  0  0  3  0  0  0  0  0  0
  -16.7550  -28.2900   22.8650 C   0  0  0  0  0  3  0  0  0  0  0  0
  -25.7690  -32.4320   23.8370 C   0  0  0  0  0  3  0  0  0  0  0  0
  -25.4420  -33.8050   24.2420 N   0  0  0  0  0  0  0  0  0  0  0  0
  -25.7640  -34.9000   23.5410 C   0  0  0  0  0  0  0  0  0  0  0  0
  -26.4400  -34.8630   22.5090 O   0  0  0  0  0  0  0  0  0  0  0  0
  -24.8330  -33.9060   25.0410 H   0  0  0  0  0  0  0  0  0  0  0  0
  -24.0040  -36.6790   23.2900 C   0  0  0  0  0  1  0  0  0  0  0  0
  -25.2570  -36.2550   24.0700 C   0  0  0  0  0  3  0  0  0  0  0  0
  -27.3810  -37.1350   24.9350 C   0  0  0  0  0  1  0  0  0  0  0  0
  -26.2720  -37.3280   24.0030 N   0  0  0  0  0  0  0  0  0  0  0  0
  -25.8520  -38.2340   24.1940 H   0  0  0  0  0  0  0  0  0  0  0  0
  -26.2970  -31.5950   25.0660 C   0  0  1  0  0  0  0  0  0  0  0  0
  -25.2080  -31.2940   26.1240 C   0  0  0  0  0  1  0  0  0  0  0  0
  -26.8820  -30.2400   24.5970 C   0  0  0  0  0  1  0  0  0  0  0  0
  -27.4500  -32.3540   25.7620 C   0  0  0  0  0  1  0  0  0  0  0  0
  -31.2560  -17.8850   20.5620 C   0  0  0  0  0  2  0  0  0  0  0  0
  -31.3560  -16.6650   21.5130 C   0  0  0  0  0  2  0  0  0  0  0  0
  -31.0970  -14.5600   20.2100 C   0  0  0  0  0  0  0  0  0  0  0  0
  -30.7090  -12.3900   19.0970 C   0  0  0  0  0  2  0  0  0  0  0  0
  -29.7390  -12.5350   17.9080 C   0  0  0  0  0  2  0  0  0  0  0  0
  -28.2780  -12.4230   18.3800 C   0  0  0  0  0  2  0  0  0  0  0  0
  -27.9730  -13.3340   19.5970 C   0  0  0  0  0  3  0  0  0  0  0  0
  -29.0470  -13.1630   20.6960 C   0  0  0  0  0  2  0  0  0  0  0  0
  -30.3700  -13.4160   20.0940 N   0  0  0  0  0  0  0  0  0  0  0  0
  -32.1290  -14.7750   19.5700 O   0  0  0  0  0  0  0  0  0  0  0  0
  -30.6240  -15.4700   21.0730 N   0  0  0  0  0  0  0  0  0  0  0  0
  -29.7880  -15.2140   21.5790 H   0  0  0  0  0  0  0  0  0  0  0  0
  -25.6180  -14.0080   20.3900 C   0  0  0  0  0  0  0  0  0  0  0  0
  -24.5380  -13.2660   20.7860 C   0  0  0  0  0  0  0  0  0  0  0  0
  -24.9550  -11.9010   20.7230 C   0  0  0  0  0  0  0  0  0  0  0  0
  -26.6270  -13.0990   20.1160 N   0  0  0  0  0  0  0  0  0  0  0  0
  -26.2320  -11.8260   20.3710 N   0  0  0  0  0  0  0  0  0  0  0  0
  -24.1960  -10.6600   20.9210 C   0  0  0  0  0  0  0  0  0  0  0  0
  -24.5950   -9.6940   21.8720 C   0  0  0  0  0  3  0  0  0  0  0  0
  -23.8380   -8.5170   22.0570 C   0  0  0  0  0  3  0  0  0  0  0  0
  -22.6690   -8.2970   21.2900 C   0  0  0  0  0  0  0  0  0  0  0  0
  -22.2900   -9.2500   20.3290 C   0  0  0  0  0  3  0  0  0  0  0  0
  -23.0470  -10.4190   20.1410 C   0  0  0  0  0  3  0  0  0  0  0  0
  -21.8870   -7.1710   21.3830 O   0  0  0  0  0  0  0  0  0  0  0  0
  -21.7570   -6.4800   22.5620 C   0  0  0  0  0  0  0  0  0  0  0  0
  -21.2560   -7.0920   23.7310 C   0  0  0  0  0  3  0  0  0  0  0  0
  -21.0730   -6.3280   24.9020 C   0  0  0  0  0  3  0  0  0  0  0  0
  -21.3820   -4.9540   24.9020 C   0  0  0  0  0  0  0  0  0  0  0  0
  -21.8760   -4.3440   23.7370 C   0  0  0  0  0  3  0  0  0  0  0  0
  -22.0610   -5.1040   22.5690 C   0  0  0  0  0  0  0  0  0  0  0  0
  -22.5170   -4.5050   21.4420 F   0  0  0  0  0  0  0  0  0  0  0  0
  -21.1990   -4.2180   26.0230 F   0  0  0  0  0  0  0  0  0  0  0  0
  -23.1660  -13.7840   21.1090 C   0  0  0  0  0  0  0  0  0  0  0  0
  -22.4520  -13.1100   22.0040 N   0  0  0  0  0  0  0  0  0  0  0  0
  -22.7380  -14.8200   20.6020 O   0  0  0  0  0  0  0  0  0  0  0  0
  -22.8110  -12.2710   22.4340 H   0  0  0  0  0  0  0  0  0  0  0  0
  -21.5320  -13.4390   22.2630 H   0  0  0  0  0  0  0  0  0  0  0  0
  -25.8200  -15.3750   20.2210 N   0  0  0  0  0  0  0  0  0  0  0  0
  -25.0710  -16.0460   20.3370 H   0  0  0  0  0  0  0  0  0  0  0  0
  -26.6520  -15.7700   19.8050 H   0  0  0  0  0  0  0  0  0  0  0  0
  1  5  1  0
  2  1  1  0
  2  6  1  0
  3  4  1  0
  4 12  1  0
  5  8  1  0
  5  4  1  0
  6 60  1  0
  6  3  1  0
  6  7  1  1
  8 10  1  0
  9  8  1  0
 11  8  1  0
 13 14  1  0
 13 12  1  0
 15 13  1  0
 16 13  1  0
 17 16  1  0
 18 19  1  0
 18 17  1  0
 19 21  1  0
 20 31  2  0
 21 26  1  0
 22 30  1  0
 22 32  1  0
 23 29  1  0
 23 25  1  0
 24 30  1  0
 25 24  1  0
 26 25  2  0
 27 28  1  0
 27 21  2  0
 28 23  2  0
 29 22  1  0
 30 20  1  0
 32 34  2  0
 33 32  1  0
 35 33  1  0
 36 45  2  0
 36 41  1  0
 37 33  1  0
 37 41  1  0
 38 37  1  0
 39 40  1  0
 39 38  1  0
 40 36  1  0
 41 42  2  0
 42 43  1  0
 44 43  2  0
 45 44  1  0
 46 20  1  0
 46 47  1  0
 46 56  1  0
 47 50  1  0
 48 52  1  0
 48 47  1  0
 49 48  2  0
 52 51  1  0
 54 52  1  0
 54 55  1  0
 54 53  1  0
 56 59  1  1
 56 57  1  0
 58 56  1  0
 60 61  1  0
 62 70  1  0
 63 68  1  0
 64 65  1  0
 64 63  1  0
 66 65  1  0
 66 75  1  0
 66 67  1  0
 68 62  1  0
 68 67  1  0
 69 62  2  0
 70 61  1  0
 70 71  1  0
 72 73  2  0
 73 92  1  0
 74 73  1  0
 74 77  1  0
 75 76  1  0
 75 72  1  0
 76 74  2  0
 77 78  1  0
 78 79  2  0
 80 83  1  0
 80 79  1  0
 81 80  2  0
 82 81  1  0
 82 77  2  0
 83 84  1  0
 84 89  2  0
 84 85  1  0
 85 86  2  0
 87 86  1  0
 87 91  1  0
 88 87  2  0
 89 88  1  0
 90 89  1  0
 92 93  1  0
 93 96  1  0
 93 95  1  0
 94 92  2  0
 97 98  1  0
 97 72  1  0
 99 97  1  0
M  ISO  4  18 101  19 101  62 100  70 100
M  END
>  <TORSDO>  (73) 
F 24

>  <SCORE>  (73) 
-12.136

>  <name>  (73) 
72

>  <ligand_id>  (73) 
72

>  <original_smiles>  (73) 
[H]c1c([H])c([H])c2c(c1[H])C([H])([H])C([H])([H])C([H])([H])C2([H])N([H])C(=O)C1([H])N(C(=O)C([H])(N([H])C(=O)C([H])(N([H])C([H])([H])[H])C([H])([H])[H])C(C([H])([H])[H])(C([H])([H])[H])C([H])([H])[H])C([H])([H])c2c([H])c(OC([H])([H])C([H])([H])C([H])([H])[N+]([H])([H])C([H])([H])C3([H])C([H])([N+]([H])([H])[H])C([H])([H])C([H])([H])[N+]([H])(C([H])([H])C([H])([H])N([H])C(=O)N4C([H])([H])C([H])([H])C([H])([H])C([H])(n5nc(-c6c([H])c([H])c(Oc7c([H])c([H])c(F)c([H])c7F)c([H])c6[H])c(C(=O)N([H])[H])c5N([H])[H])C4([H])[H])C3([H])[H])c([H])c([H])c2C1([H])[H]

>  <smiles>  (73) 
[H]c1c([H])c([H])c2c(c1[H])C([H])([H])C([H])([H])C([H])([H])C2([H])N([H])C(=O)C1([H])N(C(=O)C([H])(N([H])C(=O)C([H])(N([H])C([H])([H])[H])C([H])([H])[H])C(C([H])([H])[H])(C([H])([H])[H])C([H])([H])[H])C([H])([H])c2c([H])c(OC([H])([H])C([H])([H])C([H])([H])[N+]([H])([H])C([H])([H])C3([H])C([H])([N+]([H])([H])[H])C([H])([H])C([H])([H])[N+]([H])(C([H])([H])C([H])([H])N([H])C(=O)N4C([H])([H])C([H])([H])C([H])([H])C([H])(n5nc(-c6c([H])c([H])c(Oc7c([H])c([H])c(F)c([H])c7F)c([H])c6[H])c(C(=O)N([H])[H])c5N([H])[H])C4([H])[H])C3([H])[H])c([H])c([H])c2C1([H])[H]

$$$$
73:0:0
     RDKit          3D

 92100  0  0  1  0  0  0  0  0999 V2000
  -29.4320  -22.6680   17.9530 C   0  0  0  0  0  1  0  0  0  0  0  0
  -28.9020  -22.0720   19.2800 C   0  0  0  0  0  3  0  0  0  0  0  0
  -28.9740  -23.1090   20.4220 C   0  0  0  0  0  0  0  0  0  0  0  0
  -29.7360  -22.9540   21.3780 O   0  0  0  0  0  0  0  0  0  0  0  0
  -28.0570  -24.3390   20.3640 C   0  0  0  0  0  2  0  0  0  0  0  0
  -28.6250  -25.5020   19.5210 C   0  0  0  0  0  2  0  0  0  0  0  0
  -28.5060  -26.7680   20.1720 O   0  0  0  0  0  0  0  0  0  0  0  0
  -24.6340  -31.8720   23.2230 C   0  0  0  0  0  0  0  0  0  0  0  0
  -27.3010  -27.4390   20.1530 C   0  0  0  0  0  0  0  0  0  0  0  0
  -23.4360  -30.4630   21.5810 C   0  0  0  0  0  3  0  0  0  0  0  0
  -24.8950  -28.9260   20.1650 C   0  0  0  0  0  0  0  0  0  0  0  0
  -25.9620  -30.8240   21.3960 C   0  0  0  0  0  2  0  0  0  0  0  0
  -26.0480  -29.4550   20.7580 C   0  0  0  0  0  0  0  0  0  0  0  0
  -27.2490  -28.7160   20.7530 C   0  0  0  0  0  3  0  0  0  0  0  0
  -26.1250  -26.9170   19.5620 C   0  0  0  0  0  3  0  0  0  0  0  0
  -24.9280  -27.6550   19.5680 C   0  0  0  0  0  3  0  0  0  0  0  0
  -23.6520  -29.7840   20.2030 C   0  0  0  0  0  2  0  0  0  0  0  0
  -24.6950  -31.0680   22.1240 N   0  0  0  0  0  0  0  0  0  0  0  0
  -23.5510  -32.1450   23.7580 O   0  0  0  0  0  0  0  0  0  0  0  0
  -22.7870  -29.4400   22.5390 C   0  0  0  0  0  0  0  0  0  0  0  0
  -21.4610  -29.2680   22.4210 N   0  0  0  0  0  0  0  0  0  0  0  0
  -23.4710  -28.8070   23.3480 O   0  0  0  0  0  0  0  0  0  0  0  0
  -20.9690  -29.8340   21.7440 H   0  0  0  0  0  0  0  0  0  0  0  0
  -18.0820  -28.0990   22.9330 C   0  0  0  0  0  0  0  0  0  0  0  0
  -20.6430  -28.3310   23.1910 C   0  0  0  0  0  3  0  0  0  0  0  0
  -20.7290  -26.9030   22.6070 C   0  0  0  0  0  2  0  0  0  0  0  0
  -19.6170  -26.5950   21.5980 C   0  0  0  0  0  2  0  0  0  0  0  0
  -18.2420  -26.7490   22.2520 C   0  0  0  0  0  2  0  0  0  0  0  0
  -19.2110  -28.8470   23.3600 C   0  0  0  0  0  0  0  0  0  0  0  0
  -19.0090  -30.1110   23.9570 C   0  0  0  0  0  3  0  0  0  0  0  0
  -17.7110  -30.6250   24.1320 C   0  0  0  0  0  3  0  0  0  0  0  0
  -16.5960  -29.8730   23.7210 C   0  0  0  0  0  3  0  0  0  0  0  0
  -16.7830  -28.6110   23.1280 C   0  0  0  0  0  3  0  0  0  0  0  0
  -25.9180  -32.5050   23.8450 C   0  0  0  0  0  3  0  0  0  0  0  0
  -25.6010  -33.8970   24.1860 N   0  0  0  0  0  0  0  0  0  0  0  0
  -25.9160  -34.9570   23.4290 C   0  0  0  0  0  0  0  0  0  0  0  0
  -26.5790  -34.8670   22.3940 O   0  0  0  0  0  0  0  0  0  0  0  0
  -25.0070  -34.0420   24.9910 H   0  0  0  0  0  0  0  0  0  0  0  0
  -24.1630  -36.7320   23.1000 C   0  0  0  0  0  1  0  0  0  0  0  0
  -25.4160  -36.3360   23.8980 C   0  0  0  0  0  3  0  0  0  0  0  0
  -27.5480  -37.2410   24.7140 C   0  0  0  0  0  1  0  0  0  0  0  0
  -26.4350  -37.4030   23.7840 N   0  0  0  0  0  0  0  0  0  0  0  0
  -26.0160  -38.3160   23.9450 H   0  0  0  0  0  0  0  0  0  0  0  0
  -26.4480  -31.7260   25.1110 C   0  0  1  0  0  0  0  0  0  0  0  0
  -25.3610  -31.4710   26.1830 C   0  0  0  0  0  1  0  0  0  0  0  0
  -27.0410  -30.3550   24.7060 C   0  0  0  0  0  1  0  0  0  0  0  0
  -27.5920  -32.5240   25.7790 C   0  0  0  0  0  1  0  0  0  0  0  0
  -29.6610  -20.7500   19.6020 C   0  0  0  0  0  2  0  0  0  0  0  0
  -28.9860  -19.7890   20.6190 C   0  0  0  0  0  2  0  0  0  0  0  0
  -30.8440  -14.4380   20.1330 C   0  0  0  0  0  0  0  0  0  0  0  0
  -30.4560  -12.3140   18.9530 C   0  0  0  0  0  2  0  0  0  0  0  0
  -29.4650  -12.5780   17.8010 C   0  0  0  0  0  2  0  0  0  0  0  0
  -28.0110  -12.4580   18.2990 C   0  0  0  0  0  2  0  0  0  0  0  0
  -27.7450  -13.2520   19.6090 C   0  0  0  0  0  3  0  0  0  0  0  0
  -28.8530  -12.9940   20.6530 C   0  0  0  0  0  2  0  0  0  0  0  0
  -30.1440  -13.2790   20.0170 N   0  0  0  0  0  0  0  0  0  0  0  0
  -31.9960  -14.5730   19.7070 O   0  0  0  0  0  0  0  0  0  0  0  0
  -29.8950  -16.3900   19.1810 C   0  0  0  0  0  2  0  0  0  0  0  0
  -30.3370  -16.2780   21.6360 C   0  0  0  0  0  2  0  0  0  0  0  0
  -29.0140  -17.6160   19.4330 C   0  0  0  0  0  2  0  0  0  0  0  0
  -29.5790  -17.6320   21.7890 C   0  0  0  0  0  2  0  0  0  0  0  0
  -30.0960  -15.5420   20.3750 N   0  0  0  0  0  0  0  0  0  0  0  0
  -29.5800  -18.4220   20.5340 N   0  0  2  0  0  4  0  0  0  0  0  0
  -30.5530  -18.5740   20.3180 H   0  0  0  0  0  0  0  0  0  0  0  0
  -25.3850  -13.8540   20.4420 C   0  0  0  0  0  0  0  0  0  0  0  0
  -24.3320  -13.0800   20.8470 C   0  0  0  0  0  0  0  0  0  0  0  0
  -24.7860  -11.7270   20.7680 C   0  0  0  0  0  0  0  0  0  0  0  0
  -26.4150  -12.9740   20.1480 N   0  0  0  0  0  0  0  0  0  0  0  0
  -26.0630  -11.6880   20.4050 N   0  0  0  0  0  0  0  0  0  0  0  0
  -24.0620  -10.4640   20.9630 C   0  0  0  0  0  0  0  0  0  0  0  0
  -24.5060   -9.4960   21.8900 C   0  0  0  0  0  3  0  0  0  0  0  0
  -23.7820   -8.2980   22.0770 C   0  0  0  0  0  3  0  0  0  0  0  0
  -22.6010   -8.0600   21.3350 C   0  0  0  0  0  0  0  0  0  0  0  0
  -22.1760   -9.0170   20.3970 C   0  0  0  0  0  3  0  0  0  0  0  0
  -22.9010  -10.2060   20.2090 C   0  0  0  0  0  3  0  0  0  0  0  0
  -21.8450   -6.9170   21.4340 O   0  0  0  0  0  0  0  0  0  0  0  0
  -21.7750   -6.1990   22.6000 C   0  0  0  0  0  0  0  0  0  0  0  0
  -21.3290   -6.7790   23.8080 C   0  0  0  0  0  3  0  0  0  0  0  0
  -21.2040   -5.9880   24.9670 C   0  0  0  0  0  3  0  0  0  0  0  0
  -21.5180   -4.6170   24.9200 C   0  0  0  0  0  0  0  0  0  0  0  0
  -21.9570   -4.0360   23.7180 C   0  0  0  0  0  3  0  0  0  0  0  0
  -22.0830   -4.8250   22.5610 C   0  0  0  0  0  0  0  0  0  0  0  0
  -22.4840   -4.2550   21.3990 F   0  0  0  0  0  0  0  0  0  0  0  0
  -21.3920   -3.8530   26.0310 F   0  0  0  0  0  0  0  0  0  0  0  0
  -22.9500  -13.5540   21.1930 C   0  0  0  0  0  0  0  0  0  0  0  0
  -22.2610  -12.8490   22.0850 N   0  0  0  0  0  0  0  0  0  0  0  0
  -22.4880  -14.5860   20.7070 O   0  0  0  0  0  0  0  0  0  0  0  0
  -22.6450  -12.0150   22.5070 H   0  0  0  0  0  0  0  0  0  0  0  0
  -21.3350  -13.1510   22.3550 H   0  0  0  0  0  0  0  0  0  0  0  0
  -25.5450  -15.2280   20.2760 N   0  0  0  0  0  0  0  0  0  0  0  0
  -24.7810  -15.8780   20.4240 H   0  0  0  0  0  0  0  0  0  0  0  0
  -26.3780  -15.6660   19.9120 H   0  0  0  0  0  0  0  0  0  0  0  0
  2  1  1  0
  2 48  1  0
  2  3  1  0
  3  4  2  0
  5  3  1  0
  6  7  1  0
  6  5  1  0
  8 19  2  0
  9  7  1  0
  9 14  1  0
 10 18  1  0
 10 20  1  0
 11 17  1  0
 11 13  1  0
 12 18  1  0
 13 12  1  0
 14 13  2  0
 15 16  1  0
 15  9  2  0
 16 11  2  0
 17 10  1  0
 18  8  1  0
 20 22  2  0
 21 20  1  0
 23 21  1  0
 24 33  2  0
 24 29  1  0
 25 21  1  0
 25 29  1  0
 26 25  1  0
 27 28  1  0
 27 26  1  0
 28 24  1  0
 29 30  2  0
 30 31  1  0
 32 31  2  0
 33 32  1  0
 34  8  1  0
 34 35  1  0
 34 44  1  0
 35 38  1  0
 36 40  1  0
 36 35  1  0
 37 36  2  0
 40 39  1  0
 42 40  1  0
 42 43  1  0
 42 41  1  0
 44 47  1  1
 44 45  1  0
 46 44  1  0
 48 49  1  0
 50 62  1  0
 51 56  1  0
 52 53  1  0
 52 51  1  0
 54 53  1  0
 54 68  1  0
 54 55  1  0
 56 50  1  0
 56 55  1  0
 57 50  2  0
 58 60  1  0
 58 62  1  0
 59 61  1  0
 60 63  1  0
 62 59  1  0
 63 49  1  0
 63 61  1  0
 63 64  1  6
 65 66  2  0
 66 85  1  0
 67 66  1  0
 67 70  1  0
 68 69  1  0
 68 65  1  0
 69 67  2  0
 70 71  1  0
 71 72  2  0
 73 76  1  0
 73 72  1  0
 74 73  2  0
 75 74  1  0
 75 70  2  0
 76 77  1  0
 77 78  1  0
 78 79  2  0
 80 79  1  0
 80 84  1  0
 81 80  2  0
 82 77  2  0
 82 81  1  0
 83 82  1  0
 85 86  1  0
 86 89  1  0
 86 88  1  0
 87 85  2  0
 90 91  1  0
 90 65  1  0
 92 90  1  0
M  ISO  4   6 101   7 101  50 100  62 100
M  END
>  <TORSDO>  (74) 
F 21

>  <SCORE>  (74) 
-13.138

>  <name>  (74) 
73

>  <ligand_id>  (74) 
73

>  <original_smiles>  (74) 
[H]c1c([H])c([H])c2c(c1[H])C([H])([H])C([H])([H])C([H])([H])C2([H])N([H])C(=O)C1([H])N(C(=O)C([H])(N([H])C(=O)C([H])(N([H])C([H])([H])[H])C([H])([H])[H])C(C([H])([H])[H])(C([H])([H])[H])C([H])([H])[H])C([H])([H])c2c([H])c(OC([H])([H])C([H])([H])C(=O)C([H])(C([H])([H])[H])C([H])([H])C([H])([H])[N+]3([H])C([H])([H])C([H])([H])N(C(=O)N4C([H])([H])C([H])([H])C([H])([H])C([H])(n5nc(-c6c([H])c([H])c(Oc7c([H])c([H])c(F)c([H])c7F)c([H])c6[H])c(C(=O)N([H])[H])c5N([H])[H])C4([H])[H])C([H])([H])C3([H])[H])c([H])c([H])c2C1([H])[H]

>  <smiles>  (74) 
[H]c1c([H])c([H])c2c(c1[H])C([H])([H])C([H])([H])C([H])([H])C2([H])N([H])C(=O)C1([H])N(C(=O)C([H])(N([H])C(=O)C([H])(N([H])C([H])([H])[H])C([H])([H])[H])C(C([H])([H])[H])(C([H])([H])[H])C([H])([H])[H])C([H])([H])c2c([H])c(OC([H])([H])C([H])([H])C(=O)C([H])(C([H])([H])[H])C([H])([H])C([H])([H])[N+]3([H])C([H])([H])C([H])([H])N(C(=O)N4C([H])([H])C([H])([H])C([H])([H])C([H])(n5nc(-c6c([H])c([H])c(Oc7c([H])c([H])c(F)c([H])c7F)c([H])c6[H])c(C(=O)N([H])[H])c5N([H])[H])C4([H])[H])C([H])([H])C3([H])[H])c([H])c([H])c2C1([H])[H]

$$$$
74:0:0
     RDKit          3D

 98107  0  0  1  0  0  0  0  0999 V2000
  -28.4660  -21.4270   18.5200 C   0  0  0  0  0  2  0  0  0  0  0  0
  -29.3550  -22.5600   17.9610 C   0  0  0  0  0  2  0  0  0  0  0  0
  -28.5720  -23.7550   20.0120 C   0  0  0  0  0  2  0  0  0  0  0  0
  -28.7200  -21.1590   20.0160 C   0  0  0  0  0  3  0  0  0  0  0  0
  -28.5140  -22.4500   20.8710 C   0  0  0  0  0  3  0  0  0  0  0  0
  -27.2460  -22.3350   21.7460 C   0  0  0  0  0  1  0  0  0  0  0  0
  -29.6210  -23.6500   18.9520 N   0  0  2  0  0  4  0  0  0  0  0  0
  -30.4310  -23.3510   19.4730 H   0  0  0  0  0  0  0  0  0  0  0  0
  -31.9690  -15.6850   19.8330 C   0  0  0  0  0  0  0  0  0  0  0  0
  -31.4860  -13.4570   19.0060 C   0  0  0  0  0  2  0  0  0  0  0  0
  -30.5140  -13.4650   17.8160 C   0  0  0  0  0  2  0  0  0  0  0  0
  -29.0620  -13.3510   18.3150 C   0  0  0  0  0  2  0  0  0  0  0  0
  -28.7250  -14.3300   19.4700 C   0  0  0  0  0  3  0  0  0  0  0  0
  -29.8480  -14.4220   20.5340 C   0  0  0  0  0  2  0  0  0  0  0  0
  -31.1190  -14.6190   19.8130 N   0  0  0  0  0  0  0  0  0  0  0  0
  -33.1570  -15.5400   20.0560 O   0  0  0  0  0  0  0  0  0  0  0  0
  -30.5260  -19.3470   19.8750 C   0  0  0  0  0  0  0  0  0  0  0  0
  -31.9480  -19.0190   20.1360 C   0  0  0  0  0  0  0  0  0  0  0  0
  -30.1140  -20.5870   20.1970 C   0  0  0  0  0  3  0  0  0  0  0  0
  -29.6630  -18.2490   19.2190 C   0  0  0  0  0  2  0  0  0  0  0  0
  -32.5810  -18.0010   19.2040 C   0  0  0  0  0  2  0  0  0  0  0  0
  -30.4780  -17.2100   18.4100 C   0  0  0  0  0  2  0  0  0  0  0  0
  -31.6600  -16.8390   19.1800 N   0  0  0  0  0  0  0  0  0  0  0  0
  -32.6190  -19.5130   21.0460 O   0  0  0  0  0  0  0  0  0  0  0  0
  -26.3860  -14.9780   20.2660 C   0  0  0  0  0  0  0  0  0  0  0  0
  -25.3070  -14.2190   20.6340 C   0  0  0  0  0  0  0  0  0  0  0  0
  -25.7400  -12.8610   20.5700 C   0  0  0  0  0  0  0  0  0  0  0  0
  -27.4050  -14.0720   20.0170 N   0  0  0  0  0  0  0  0  0  0  0  0
  -27.0280  -12.7960   20.2600 N   0  0  0  0  0  0  0  0  0  0  0  0
  -24.9920  -11.6100   20.7400 C   0  0  0  0  0  0  0  0  0  0  0  0
  -25.3030  -10.7180   21.7900 C   0  0  0  0  0  3  0  0  0  0  0  0
  -24.5660   -9.5280   21.9540 C   0  0  0  0  0  3  0  0  0  0  0  0
  -23.5060   -9.2230   21.0670 C   0  0  0  0  0  0  0  0  0  0  0  0
  -23.2170  -10.1020   20.0090 C   0  0  0  0  0  3  0  0  0  0  0  0
  -23.9530  -11.2860   19.8430 C   0  0  0  0  0  3  0  0  0  0  0  0
  -22.7530   -8.0760   21.1330 O   0  0  0  0  0  0  0  0  0  0  0  0
  -22.3660   -7.5410   22.3340 C   0  0  0  0  0  0  0  0  0  0  0  0
  -21.5500   -8.2550   23.2390 C   0  0  0  0  0  3  0  0  0  0  0  0
  -21.1150   -7.6400   24.4310 C   0  0  0  0  0  3  0  0  0  0  0  0
  -21.4900   -6.3140   24.7160 C   0  0  0  0  0  0  0  0  0  0  0  0
  -22.3030   -5.6010   23.8150 C   0  0  0  0  0  3  0  0  0  0  0  0
  -22.7350   -6.2130   22.6260 C   0  0  0  0  0  0  0  0  0  0  0  0
  -23.4980   -5.5160   21.7480 F   0  0  0  0  0  0  0  0  0  0  0  0
  -21.0660   -5.7200   25.8560 F   0  0  0  0  0  0  0  0  0  0  0  0
  -23.9250  -14.7250   20.9300 C   0  0  0  0  0  0  0  0  0  0  0  0
  -23.2040  -14.0300   21.8030 N   0  0  0  0  0  0  0  0  0  0  0  0
  -23.4960  -15.7600   20.4260 O   0  0  0  0  0  0  0  0  0  0  0  0
  -23.5720  -13.1840   22.2140 H   0  0  0  0  0  0  0  0  0  0  0  0
  -22.2860  -14.3500   22.0740 H   0  0  0  0  0  0  0  0  0  0  0  0
  -26.5830  -16.3430   20.1020 N   0  0  0  0  0  0  0  0  0  0  0  0
  -25.8250  -17.0100   20.1780 H   0  0  0  0  0  0  0  0  0  0  0  0
  -27.4510  -16.7540   19.7780 H   0  0  0  0  0  0  0  0  0  0  0  0
  -30.0220  -24.9350   18.3030 C   0  0  0  0  0  2  0  0  0  0  0  0
  -31.5020  -24.9100   17.8200 C   0  0  0  0  0  2  0  0  0  0  0  0
  -32.1720  -26.2590   17.4520 C   0  0  0  0  0  2  0  0  0  0  0  0
  -31.5430  -26.9900   16.2410 C   0  0  0  0  0  2  0  0  0  0  0  0
  -30.1790  -27.6190   16.5510 C   0  0  0  0  0  2  0  0  0  0  0  0
  -29.1210  -26.7720   16.0890 O   0  0  0  0  0  0  0  0  0  0  0  0
  -24.4120  -27.9550   21.3200 C   0  0  0  0  0  0  0  0  0  0  0  0
  -27.8340  -27.0750   16.4750 C   0  0  0  0  0  0  0  0  0  0  0  0
  -23.4540  -27.7750   19.0360 C   0  0  0  0  0  3  0  0  0  0  0  0
  -25.1560  -27.7440   17.1320 C   0  0  0  0  0  0  0  0  0  0  0  0
  -25.8530  -28.5630   19.3950 C   0  0  0  0  0  2  0  0  0  0  0  0
  -26.1900  -27.9560   18.0520 C   0  0  0  0  0  0  0  0  0  0  0  0
  -27.5170  -27.6210   17.7350 C   0  0  0  0  0  3  0  0  0  0  0  0
  -26.7870  -26.8350   15.5600 C   0  0  0  0  0  3  0  0  0  0  0  0
  -25.4490  -27.1630   15.8810 C   0  0  0  0  0  3  0  0  0  0  0  0
  -23.7690  -28.1720   17.5650 C   0  0  0  0  0  2  0  0  0  0  0  0
  -24.5840  -28.0780   19.9740 N   0  0  0  0  0  0  0  0  0  0  0  0
  -23.3140  -27.6400   21.7980 O   0  0  0  0  0  0  0  0  0  0  0  0
  -23.0350  -26.2910   19.0600 C   0  0  0  0  0  0  0  0  0  0  0  0
  -21.8470  -26.0000   18.5080 N   0  0  0  0  0  0  0  0  0  0  0  0
  -23.7780  -25.4310   19.5410 O   0  0  0  0  0  0  0  0  0  0  0  0
  -21.3040  -26.7670   18.1370 H   0  0  0  0  0  0  0  0  0  0  0  0
  -19.0440  -24.1950   17.1310 C   0  0  0  0  0  0  0  0  0  0  0  0
  -21.2550  -24.6710   18.3830 C   0  0  0  0  0  3  0  0  0  0  0  0
  -21.9490  -23.8620   17.2620 C   0  0  0  0  0  2  0  0  0  0  0  0
  -21.2510  -23.9880   15.9070 C   0  0  0  0  0  2  0  0  0  0  0  0
  -19.7980  -23.5110   16.0020 C   0  0  0  0  0  2  0  0  0  0  0  0
  -19.7310  -24.7530   18.2410 C   0  0  0  0  0  0  0  0  0  0  0  0
  -18.9880  -25.4040   19.2480 C   0  0  0  0  0  3  0  0  0  0  0  0
  -17.5860  -25.4940   19.1660 C   0  0  0  0  0  3  0  0  0  0  0  0
  -16.9090  -24.9260   18.0730 C   0  0  0  0  0  3  0  0  0  0  0  0
  -17.6380  -24.2780   17.0600 C   0  0  0  0  0  3  0  0  0  0  0  0
  -25.5780  -28.2340   22.3250 C   0  0  0  0  0  3  0  0  0  0  0  0
  -25.0300  -29.0270   23.4300 N   0  0  0  0  0  0  0  0  0  0  0  0
  -25.1990  -30.3480   23.5730 C   0  0  0  0  0  0  0  0  0  0  0  0
  -25.9050  -31.0210   22.8160 O   0  0  0  0  0  0  0  0  0  0  0  0
  -24.3920  -28.5470   24.0480 H   0  0  0  0  0  0  0  0  0  0  0  0
  -23.2080  -31.7380   24.2110 C   0  0  0  0  0  1  0  0  0  0  0  0
  -24.4680  -31.0380   24.7400 C   0  0  0  0  0  3  0  0  0  0  0  0
  -26.3770  -31.3680   26.2460 C   0  0  0  0  0  1  0  0  0  0  0  0
  -25.3130  -32.0030   25.4760 N   0  0  0  0  0  0  0  0  0  0  0  0
  -24.7530  -32.5550   26.1220 H   0  0  0  0  0  0  0  0  0  0  0  0
  -26.2560  -26.9170   22.8680 C   0  0  1  0  0  0  0  0  0  0  0  0
  -25.2520  -25.8660   23.4020 C   0  0  0  0  0  1  0  0  0  0  0  0
  -27.0890  -26.2400   21.7560 C   0  0  0  0  0  1  0  0  0  0  0  0
  -27.2400  -27.2620   24.0120 C   0  0  0  0  0  1  0  0  0  0  0  0
  1  4  1  0
  2  1  1  0
  2  7  1  0
  3  5  1  0
  4 19  1  0
  4  5  1  0
  5  6  1  0
  7  8  1  1
  7  3  1  0
  9 16  2  0
 10 15  1  0
 11 12  1  0
 11 10  1  0
 13 12  1  0
 13 28  1  0
 13 14  1  0
 15  9  1  0
 15 14  1  0
 17 18  1  0
 17 19  2  0
 18 24  2  0
 20 17  1  0
 21 18  1  0
 22 23  1  0
 22 20  1  0
 23 21  1  0
 23  9  1  0
 25 26  2  0
 26 45  1  0
 27 26  1  0
 27 30  1  0
 28 29  1  0
 28 25  1  0
 29 27  2  0
 30 31  1  0
 31 32  2  0
 33 36  1  0
 33 32  1  0
 34 33  2  0
 35 34  1  0
 35 30  2  0
 36 37  1  0
 37 42  2  0
 37 38  1  0
 38 39  2  0
 39 40  1  0
 40 44  1  0
 41 40  2  0
 42 41  1  0
 43 42  1  0
 45 46  1  0
 46 49  1  0
 46 48  1  0
 47 45  2  0
 50 51  1  0
 50 25  1  0
 52 50  1  0
 53  7  1  0
 54 53  1  0
 55 54  1  0
 56 57  1  0
 56 55  1  0
 58 60  1  0
 58 57  1  0
 59 70  2  0
 60 65  1  0
 61 71  1  0
 61 69  1  0
 62 68  1  0
 62 64  1  0
 63 69  1  0
 64 63  1  0
 65 64  2  0
 66 67  1  0
 66 60  2  0
 67 62  2  0
 68 61  1  0
 69 59  1  0
 71 73  2  0
 72 71  1  0
 74 72  1  0
 75 80  1  0
 76 72  1  0
 77 76  1  0
 78 79  1  0
 78 77  1  0
 79 75  1  0
 80 76  1  0
 80 81  2  0
 82 81  1  0
 83 82  2  0
 84 75  2  0
 84 83  1  0
 85 59  1  0
 85 95  1  0
 85 86  1  0
 86 87  1  0
 86 89  1  0
 87 91  1  0
 88 87  2  0
 91 90  1  0
 91 93  1  0
 93 94  1  0
 93 92  1  0
 95 96  1  1
 95 98  1  0
 97 95  1  0
M  ISO  4   9 100  23 100  57 101  58 101
M  END
>  <TORSDO>  (75) 
F 21

>  <SCORE>  (75) 
-7.566

>  <name>  (75) 
74

>  <ligand_id>  (75) 
74

>  <original_smiles>  (75) 
[H]C(=C1C(=O)C([H])([H])N(C(=O)N2C([H])([H])C([H])([H])C([H])([H])C([H])(n3nc(-c4c([H])c([H])c(Oc5c([H])c([H])c(F)c([H])c5F)c([H])c4[H])c(C(=O)N([H])[H])c3N([H])[H])C2([H])[H])C([H])([H])C1([H])[H])C1([H])C([H])([H])C([H])([H])[N+]([H])(C([H])([H])C([H])([H])C([H])([H])C([H])([H])C([H])([H])Oc2c([H])c([H])c3c(c2[H])C([H])([H])N(C(=O)C([H])(N([H])C(=O)C([H])(N([H])C([H])([H])[H])C([H])([H])[H])C(C([H])([H])[H])(C([H])([H])[H])C([H])([H])[H])C([H])(C(=O)N([H])C2([H])c4c([H])c([H])c([H])c([H])c4C([H])([H])C([H])([H])C2([H])[H])C3([H])[H])C([H])([H])C1([H])C([H])([H])[H]

>  <smiles>  (75) 
[H]C(=C1C(=O)C([H])([H])N(C(=O)N2C([H])([H])C([H])([H])C([H])([H])C([H])(n3nc(-c4c([H])c([H])c(Oc5c([H])c([H])c(F)c([H])c5F)c([H])c4[H])c(C(=O)N([H])[H])c3N([H])[H])C2([H])[H])C([H])([H])C1([H])[H])C1([H])C([H])([H])C([H])([H])[N+]([H])(C([H])([H])C([H])([H])C([H])([H])C([H])([H])C([H])([H])Oc2c([H])c([H])c3c(c2[H])C([H])([H])N(C(=O)C([H])(N([H])C(=O)C([H])(N([H])C([H])([H])[H])C([H])([H])[H])C(C([H])([H])[H])(C([H])([H])[H])C([H])([H])[H])C([H])(C(=O)N([H])C2([H])c4c([H])c([H])c([H])c([H])c4C([H])([H])C([H])([H])C2([H])[H])C3([H])[H])C([H])([H])C1([H])C([H])([H])[H]

$$$$
75:0:0
     RDKit          3D

 95103  0  0  1  0  0  0  0  0999 V2000
  -28.4100  -19.8820   20.4660 C   0  0  0  0  0  2  0  0  0  0  0  0
  -27.6470  -21.1890   20.2550 C   0  0  0  0  0  2  0  0  0  0  0  0
  -29.8920  -22.2830   20.3400 C   0  0  0  0  0  2  0  0  0  0  0  0
  -29.5260  -19.9870   21.5320 C   0  0  0  0  0  3  0  0  0  0  0  0
  -30.0570  -21.4520   21.6420 C   0  0  0  0  0  3  0  0  0  0  0  0
  -28.5580  -22.1980   19.7170 N   0  0  0  0  0  0  0  0  0  0  0  0
  -29.4260  -22.1690   22.7660 N   0  0  0  0  0  4  0  0  0  0  0  0
  -28.4310  -22.2080   22.6440 H   0  0  0  0  0  0  0  0  0  0  0  0
  -29.7760  -23.1090   22.8290 H   0  0  0  0  0  0  0  0  0  0  0  0
  -29.6290  -21.7040   23.6340 H   0  0  0  0  0  0  0  0  0  0  0  0
  -30.6260  -18.9240   21.2680 C   0  0  0  0  0  2  0  0  0  0  0  0
  -30.0500  -17.5040   21.0630 C   0  0  0  0  0  2  0  0  0  0  0  0
  -31.0810  -16.3590   21.1980 C   0  0  0  0  0  2  0  0  0  0  0  0
  -31.7330  -14.4000   19.8460 C   0  0  0  0  0  0  0  0  0  0  0  0
  -31.3290  -12.1220   19.0160 C   0  0  0  0  0  2  0  0  0  0  0  0
  -30.3530  -12.2020   17.8230 C   0  0  0  0  0  2  0  0  0  0  0  0
  -28.8880  -12.2030   18.3080 C   0  0  0  0  0  2  0  0  0  0  0  0
  -28.6280  -13.2260   19.4470 C   0  0  0  0  0  3  0  0  0  0  0  0
  -29.7050  -13.0950   20.5480 C   0  0  0  0  0  2  0  0  0  0  0  0
  -31.0240  -13.2460   19.9100 N   0  0  0  0  0  0  0  0  0  0  0  0
  -32.8520  -14.4950   19.3380 O   0  0  0  0  0  0  0  0  0  0  0  0
  -31.0010  -15.5020   20.0210 N   0  0  0  0  0  0  0  0  0  0  0  0
  -31.0610  -16.0740   19.1910 H   0  0  0  0  0  0  0  0  0  0  0  0
  -26.3460  -14.0800   20.2910 C   0  0  0  0  0  0  0  0  0  0  0  0
  -25.2190  -13.4180   20.6970 C   0  0  0  0  0  0  0  0  0  0  0  0
  -25.5280  -12.0250   20.6080 C   0  0  0  0  0  0  0  0  0  0  0  0
  -27.2780  -13.0970   19.9890 N   0  0  0  0  0  0  0  0  0  0  0  0
  -26.7880  -11.8550   20.2310 N   0  0  0  0  0  0  0  0  0  0  0  0
  -24.6770  -10.8450   20.8030 C   0  0  0  0  0  0  0  0  0  0  0  0
  -25.0100   -9.8450   21.7430 C   0  0  0  0  0  3  0  0  0  0  0  0
  -24.1700   -8.7260   21.9290 C   0  0  0  0  0  3  0  0  0  0  0  0
  -22.9790   -8.6020   21.1730 C   0  0  0  0  0  0  0  0  0  0  0  0
  -22.6640   -9.5860   20.2220 C   0  0  0  0  0  3  0  0  0  0  0  0
  -23.5050  -10.6970   20.0360 C   0  0  0  0  0  3  0  0  0  0  0  0
  -22.1150   -7.5370   21.2700 O   0  0  0  0  0  0  0  0  0  0  0  0
  -21.9290   -6.8650   22.4500 C   0  0  0  0  0  0  0  0  0  0  0  0
  -21.4840   -7.5210   23.6190 C   0  0  0  0  0  3  0  0  0  0  0  0
  -21.2350   -6.7800   24.7910 C   0  0  0  0  0  3  0  0  0  0  0  0
  -21.4240   -5.3850   24.7970 C   0  0  0  0  0  0  0  0  0  0  0  0
  -21.8630   -4.7290   23.6320 C   0  0  0  0  0  3  0  0  0  0  0  0
  -22.1110   -5.4670   22.4620 C   0  0  0  0  0  0  0  0  0  0  0  0
  -22.5120   -4.8270   21.3350 F   0  0  0  0  0  0  0  0  0  0  0  0
  -21.1790   -4.6720   25.9200 F   0  0  0  0  0  0  0  0  0  0  0  0
  -23.9000  -14.0320   21.0600 C   0  0  0  0  0  0  0  0  0  0  0  0
  -23.1580  -13.4090   21.9690 N   0  0  0  0  0  0  0  0  0  0  0  0
  -23.5390  -15.0990   20.5660 O   0  0  0  0  0  0  0  0  0  0  0  0
  -23.4570  -12.5340   22.3740 H   0  0  0  0  0  0  0  0  0  0  0  0
  -22.2760  -13.8060   22.2550 H   0  0  0  0  0  0  0  0  0  0  0  0
  -26.6500  -15.4310   20.1360 N   0  0  0  0  0  0  0  0  0  0  0  0
  -25.9660  -16.1640   20.2990 H   0  0  0  0  0  0  0  0  0  0  0  0
  -27.5410  -15.7800   19.8100 H   0  0  0  0  0  0  0  0  0  0  0  0
  -27.9000  -23.4830   19.4560 C   0  0  0  0  0  2  0  0  0  0  0  0
  -28.8710  -24.4560   18.7660 C   0  0  0  0  0  2  0  0  0  0  0  0
  -28.1970  -25.4940   17.8500 C   0  0  0  0  0  2  0  0  0  0  0  0
  -28.2090  -26.7750   18.4730 O   0  0  0  0  0  0  0  0  0  0  0  0
  -25.1170  -31.1250   23.1390 C   0  0  0  0  0  0  0  0  0  0  0  0
  -27.0480  -27.4500   18.7800 C   0  0  0  0  0  0  0  0  0  0  0  0
  -23.6330  -30.2610   21.3590 C   0  0  0  0  0  3  0  0  0  0  0  0
  -24.7950  -29.0220   19.4590 C   0  0  0  0  0  0  0  0  0  0  0  0
  -26.1510  -30.4900   20.9660 C   0  0  0  0  0  2  0  0  0  0  0  0
  -26.0460  -29.3220   20.0080 C   0  0  0  0  0  0  0  0  0  0  0  0
  -27.1710  -28.5420   19.6680 C   0  0  0  0  0  3  0  0  0  0  0  0
  -25.7710  -27.1380   18.2620 C   0  0  0  0  0  3  0  0  0  0  0  0
  -24.6490  -27.9240   18.5950 C   0  0  0  0  0  3  0  0  0  0  0  0
  -23.6490  -29.9290   19.8430 C   0  0  0  0  0  2  0  0  0  0  0  0
  -24.9910  -30.6220   21.8790 N   0  0  0  0  0  0  0  0  0  0  0  0
  -24.1230  -31.3280   23.8490 O   0  0  0  0  0  0  0  0  0  0  0  0
  -22.9830  -29.0810   22.1130 C   0  0  0  0  0  0  0  0  0  0  0  0
  -21.6460  -28.9800   22.0360 N   0  0  0  0  0  0  0  0  0  0  0  0
  -23.6760  -28.2640   22.7250 O   0  0  0  0  0  0  0  0  0  0  0  0
  -21.1420  -29.6930   21.5260 H   0  0  0  0  0  0  0  0  0  0  0  0
  -18.2650  -27.7600   22.3840 C   0  0  0  0  0  0  0  0  0  0  0  0
  -20.8310  -27.9270   22.6420 C   0  0  0  0  0  3  0  0  0  0  0  0
  -20.8980  -26.6250   21.8110 C   0  0  0  0  0  2  0  0  0  0  0  0
  -19.7710  -26.5120   20.7790 C   0  0  0  0  0  2  0  0  0  0  0  0
  -18.4030  -26.5570   21.4660 C   0  0  0  0  0  2  0  0  0  0  0  0
  -19.4040  -28.4120   22.9250 C   0  0  0  0  0  0  0  0  0  0  0  0
  -19.2220  -29.5480   23.7440 C   0  0  0  0  0  3  0  0  0  0  0  0
  -17.9300  -30.0300   24.0240 C   0  0  0  0  0  3  0  0  0  0  0  0
  -16.8050  -29.3740   23.4980 C   0  0  0  0  0  3  0  0  0  0  0  0
  -16.9730  -28.2400   22.6830 C   0  0  0  0  0  3  0  0  0  0  0  0
  -26.5110  -31.4960   23.7330 C   0  0  0  0  0  3  0  0  0  0  0  0
  -27.0870  -30.3900   24.7010 C   0  0  1  0  0  0  0  0  0  0  0  0
  -26.0960  -29.9560   25.8040 C   0  0  0  0  0  1  0  0  0  0  0  0
  -27.4980  -29.1240   23.9110 C   0  0  0  0  0  1  0  0  0  0  0  0
  -28.3710  -30.9130   25.3870 C   0  0  0  0  0  1  0  0  0  0  0  0
  -26.3670  -32.7770   24.4360 N   0  0  0  0  0  0  0  0  0  0  0  0
  -26.7700  -33.9590   23.9500 C   0  0  0  0  0  0  0  0  0  0  0  0
  -27.3730  -34.0740   22.8790 O   0  0  0  0  0  0  0  0  0  0  0  0
  -25.8390  -32.7650   25.2950 H   0  0  0  0  0  0  0  0  0  0  0  0
  -25.2360  -35.9380   24.1760 C   0  0  0  0  0  1  0  0  0  0  0  0
  -26.4490  -35.2150   24.7820 C   0  0  0  0  0  3  0  0  0  0  0  0
  -28.6890  -35.6400   25.6910 C   0  0  0  0  0  1  0  0  0  0  0  0
  -27.5850  -36.1570   24.8880 N   0  0  0  0  0  0  0  0  0  0  0  0
  -27.2830  -37.0380   25.2930 H   0  0  0  0  0  0  0  0  0  0  0  0
  1  4  1  0
  2  1  1  0
  3  5  1  0
  4 11  1  0
  4  5  1  0
  5  7  1  0
  6  2  1  0
  6  3  1  0
  7  9  1  0
  7 10  1  0
  8  7  1  0
 12 13  1  0
 12 11  1  0
 14 20  1  0
 14 22  1  0
 15 20  1  0
 16 17  1  0
 16 15  1  0
 18 17  1  0
 18 27  1  0
 18 19  1  0
 20 19  1  0
 21 14  2  0
 22 13  1  0
 23 22  1  0
 24 25  2  0
 25 44  1  0
 26 25  1  0
 26 29  1  0
 27 28  1  0
 27 24  1  0
 28 26  2  0
 29 30  1  0
 30 31  2  0
 32 35  1  0
 32 31  1  0
 33 32  2  0
 34 33  1  0
 34 29  2  0
 35 36  1  0
 36 41  2  0
 36 37  1  0
 37 38  2  0
 38 39  1  0
 39 43  1  0
 40 39  2  0
 41 40  1  0
 42 41  1  0
 44 45  1  0
 45 48  1  0
 45 47  1  0
 46 44  2  0
 49 24  1  0
 49 50  1  0
 51 49  1  0
 52  6  1  0
 53 52  1  0
 54 55  1  0
 54 53  1  0
 55 57  1  0
 56 67  2  0
 57 62  1  0
 58 66  1  0
 58 68  1  0
 59 65  1  0
 59 61  1  0
 60 66  1  0
 61 60  1  0
 62 61  2  0
 63 64  1  0
 63 57  2  0
 64 59  2  0
 65 58  1  0
 66 56  1  0
 68 70  2  0
 69 68  1  0
 71 69  1  0
 72 81  2  0
 72 77  1  0
 73 69  1  0
 73 77  1  0
 74 73  1  0
 75 76  1  0
 75 74  1  0
 76 72  1  0
 77 78  2  0
 78 79  1  0
 80 79  2  0
 81 80  1  0
 82 56  1  0
 82 87  1  0
 82 83  1  0
 83 86  1  1
 83 84  1  0
 85 83  1  0
 87 90  1  0
 88 87  1  0
 88 92  1  0
 89 88  2  0
 92 91  1  0
 92 94  1  0
 94 95  1  0
 94 93  1  0
M  ISO  4  14 100  22 100  54 101  55 101
M  END
>  <TORSDO>  (76) 
F 23

>  <SCORE>  (76) 
-10.295

>  <name>  (76) 
75

>  <ligand_id>  (76) 
75

>  <original_smiles>  (76) 
[H]c1c([H])c([H])c2c(c1[H])C([H])([H])C([H])([H])C([H])([H])C2([H])N([H])C(=O)C1([H])N(C(=O)C([H])(N([H])C(=O)C([H])(N([H])C([H])([H])[H])C([H])([H])[H])C(C([H])([H])[H])(C([H])([H])[H])C([H])([H])[H])C([H])([H])c2c([H])c(OC([H])([H])C([H])([H])C([H])([H])N3C([H])([H])C([H])([H])C([H])(C([H])([H])C([H])([H])C([H])([H])N([H])C(=O)N4C([H])([H])C([H])([H])C([H])([H])C([H])(n5nc(-c6c([H])c([H])c(Oc7c([H])c([H])c(F)c([H])c7F)c([H])c6[H])c(C(=O)N([H])[H])c5N([H])[H])C4([H])[H])C([H])([N+]([H])([H])[H])C3([H])[H])c([H])c([H])c2C1([H])[H]

>  <smiles>  (76) 
[H]c1c([H])c([H])c2c(c1[H])C([H])([H])C([H])([H])C([H])([H])C2([H])N([H])C(=O)C1([H])N(C(=O)C([H])(N([H])C(=O)C([H])(N([H])C([H])([H])[H])C([H])([H])[H])C(C([H])([H])[H])(C([H])([H])[H])C([H])([H])[H])C([H])([H])c2c([H])c(OC([H])([H])C([H])([H])C([H])([H])N3C([H])([H])C([H])([H])C([H])(C([H])([H])C([H])([H])C([H])([H])N([H])C(=O)N4C([H])([H])C([H])([H])C([H])([H])C([H])(n5nc(-c6c([H])c([H])c(Oc7c([H])c([H])c(F)c([H])c7F)c([H])c6[H])c(C(=O)N([H])[H])c5N([H])[H])C4([H])[H])C([H])([N+]([H])([H])[H])C3([H])[H])c([H])c([H])c2C1([H])[H]

$$$$
76:0:0
     RDKit          3D

 95103  0  0  1  0  0  0  0  0999 V2000
  -26.7950  -23.4550   17.4220 C   0  0  0  0  0  2  0  0  0  0  0  0
  -27.5590  -24.3660   16.5370 N   0  0  0  0  0  4  0  0  0  0  0  0
  -27.0050  -24.5140   15.7080 H   0  0  0  0  0  0  0  0  0  0  0  0
  -28.3990  -23.9030   16.2250 H   0  0  0  0  0  0  0  0  0  0  0  0
  -27.9180  -25.7020   17.0820 C   0  0  0  0  0  2  0  0  0  0  0  0
  -29.0210  -25.6770   18.1720 C   0  0  0  0  0  2  0  0  0  0  0  0
  -28.5940  -25.6100   19.6590 C   0  0  0  0  0  2  0  0  0  0  0  0
  -28.4230  -26.8940   20.2530 O   0  0  0  0  0  0  0  0  0  0  0  0
  -24.5450  -31.9830   23.2960 C   0  0  0  0  0  0  0  0  0  0  0  0
  -27.2010  -27.5310   20.2550 C   0  0  0  0  0  0  0  0  0  0  0  0
  -23.3370  -30.5600   21.6730 C   0  0  0  0  0  3  0  0  0  0  0  0
  -24.7860  -29.0090   20.2670 C   0  0  0  0  0  0  0  0  0  0  0  0
  -25.8590  -30.9280   21.4600 C   0  0  0  0  0  2  0  0  0  0  0  0
  -25.9440  -29.5520   20.8380 C   0  0  0  0  0  0  0  0  0  0  0  0
  -27.1500  -28.8220   20.8240 C   0  0  0  0  0  3  0  0  0  0  0  0
  -26.0110  -26.9790   19.7270 C   0  0  0  0  0  3  0  0  0  0  0  0
  -24.8140  -27.7200   19.7110 C   0  0  0  0  0  3  0  0  0  0  0  0
  -23.5400  -29.8610   20.3020 C   0  0  0  0  0  2  0  0  0  0  0  0
  -24.5970  -31.1740   22.2000 N   0  0  0  0  0  0  0  0  0  0  0  0
  -23.4660  -32.2600   23.8350 O   0  0  0  0  0  0  0  0  0  0  0  0
  -22.6910  -29.5490   22.6460 C   0  0  0  0  0  0  0  0  0  0  0  0
  -21.3710  -29.3450   22.5020 N   0  0  0  0  0  0  0  0  0  0  0  0
  -23.3720  -28.9500   23.4830 O   0  0  0  0  0  0  0  0  0  0  0  0
  -20.8840  -29.8830   21.7990 H   0  0  0  0  0  0  0  0  0  0  0  0
  -18.0090  -28.0950   22.9390 C   0  0  0  0  0  0  0  0  0  0  0  0
  -20.5540  -28.4130   23.2750 C   0  0  0  0  0  3  0  0  0  0  0  0
  -20.7000  -26.9690   22.7450 C   0  0  0  0  0  2  0  0  0  0  0  0
  -19.6350  -26.5920   21.7100 C   0  0  0  0  0  2  0  0  0  0  0  0
  -18.2330  -26.7290   22.3120 C   0  0  0  0  0  2  0  0  0  0  0  0
  -19.1010  -28.8920   23.3780 C   0  0  0  0  0  0  0  0  0  0  0  0
  -18.8430  -30.1700   23.9190 C   0  0  0  0  0  3  0  0  0  0  0  0
  -17.5240  -30.6490   24.0320 C   0  0  0  0  0  3  0  0  0  0  0  0
  -16.4470  -29.8460   23.6190 C   0  0  0  0  0  3  0  0  0  0  0  0
  -16.6900  -28.5710   23.0750 C   0  0  0  0  0  3  0  0  0  0  0  0
  -25.8340  -32.6170   23.9090 C   0  0  0  0  0  3  0  0  0  0  0  0
  -26.3570  -31.8570   25.1890 C   0  0  1  0  0  0  0  0  0  0  0  0
  -25.2650  -31.6040   26.2540 C   0  0  0  0  0  1  0  0  0  0  0  0
  -26.9660  -30.4900   24.8000 C   0  0  0  0  0  1  0  0  0  0  0  0
  -27.4930  -32.6710   25.8520 C   0  0  0  0  0  1  0  0  0  0  0  0
  -25.5310  -34.0210   24.2240 N   0  0  0  0  0  0  0  0  0  0  0  0
  -25.8680  -35.0640   23.4540 C   0  0  0  0  0  0  0  0  0  0  0  0
  -26.5410  -34.9480   22.4260 O   0  0  0  0  0  0  0  0  0  0  0  0
  -24.9430  -34.1910   25.0280 H   0  0  0  0  0  0  0  0  0  0  0  0
  -24.1460  -36.8510   23.0750 C   0  0  0  0  0  1  0  0  0  0  0  0
  -25.3820  -36.4560   23.8980 C   0  0  0  0  0  3  0  0  0  0  0  0
  -27.5130  -37.3430   24.7310 C   0  0  0  0  0  1  0  0  0  0  0  0
  -26.4170  -37.5050   23.7790 N   0  0  0  0  0  0  0  0  0  0  0  0
  -26.0100  -38.4290   23.9120 H   0  0  0  0  0  0  0  0  0  0  0  0
  -27.5070  -22.1000   17.5650 C   0  0  0  0  0  2  0  0  0  0  0  0
  -27.0380  -21.2350   18.7580 C   0  0  0  0  0  2  0  0  0  0  0  0
  -27.9170  -19.9770   18.8560 C   0  0  0  0  0  2  0  0  0  0  0  0
  -27.6570  -18.9790   20.0150 C   0  0  0  0  0  2  0  0  0  0  0  0
  -31.0060  -14.3980   20.0700 C   0  0  0  0  0  0  0  0  0  0  0  0
  -30.5710  -12.2900   18.8860 C   0  0  0  0  0  2  0  0  0  0  0  0
  -29.5660  -12.5620   17.7480 C   0  0  0  0  0  2  0  0  0  0  0  0
  -28.1140  -12.4530   18.2580 C   0  0  0  0  0  2  0  0  0  0  0  0
  -27.8740  -13.2500   19.5700 C   0  0  0  0  0  3  0  0  0  0  0  0
  -28.9910  -12.9700   20.5990 C   0  0  0  0  0  2  0  0  0  0  0  0
  -30.2810  -13.2540   19.9560 N   0  0  0  0  0  0  0  0  0  0  0  0
  -32.1560  -14.4980   19.6340 O   0  0  0  0  0  0  0  0  0  0  0  0
  -30.4580  -16.5240   19.1160 C   0  0  0  0  0  2  0  0  0  0  0  0
  -29.9030  -16.1390   21.4480 C   0  0  0  0  0  2  0  0  0  0  0  0
  -29.1790  -17.3270   18.9090 C   0  0  0  0  0  2  0  0  0  0  0  0
  -28.6670  -17.0750   21.3150 C   0  0  0  0  0  2  0  0  0  0  0  0
  -30.2540  -15.5180   20.1610 N   0  0  0  0  0  0  0  0  0  0  0  0
  -28.7930  -18.0200   20.1660 N   0  0  2  0  0  4  0  0  0  0  0  0
  -29.5820  -18.6020   20.4040 H   0  0  0  0  0  0  0  0  0  0  0  0
  -25.5320  -13.8700   20.4320 C   0  0  0  0  0  0  0  0  0  0  0  0
  -24.4840  -13.1070   20.8640 C   0  0  0  0  0  0  0  0  0  0  0  0
  -24.9180  -11.7520   20.7680 C   0  0  0  0  0  0  0  0  0  0  0  0
  -26.5490  -12.9830   20.1220 N   0  0  0  0  0  0  0  0  0  0  0  0
  -26.1860  -11.7010   20.3780 N   0  0  0  0  0  0  0  0  0  0  0  0
  -24.1830  -10.4970   20.9620 C   0  0  0  0  0  0  0  0  0  0  0  0
  -24.5970   -9.5390   21.9100 C   0  0  0  0  0  3  0  0  0  0  0  0
  -23.8610   -8.3480   22.0920 C   0  0  0  0  0  3  0  0  0  0  0  0
  -22.6930   -8.1100   21.3270 C   0  0  0  0  0  0  0  0  0  0  0  0
  -22.3000   -9.0590   20.3660 C   0  0  0  0  0  3  0  0  0  0  0  0
  -23.0370  -10.2400   20.1830 C   0  0  0  0  0  3  0  0  0  0  0  0
  -21.9320   -6.9720   21.4190 O   0  0  0  0  0  0  0  0  0  0  0  0
  -21.7930   -6.2940   22.6060 C   0  0  0  0  0  0  0  0  0  0  0  0
  -21.2710   -6.9120   23.7620 C   0  0  0  0  0  3  0  0  0  0  0  0
  -21.0800   -6.1590   24.9380 C   0  0  0  0  0  3  0  0  0  0  0  0
  -21.4020   -4.7900   24.9580 C   0  0  0  0  0  0  0  0  0  0  0  0
  -21.9160   -4.1700   23.8040 C   0  0  0  0  0  3  0  0  0  0  0  0
  -22.1080   -4.9200   22.6310 C   0  0  0  0  0  0  0  0  0  0  0  0
  -22.5830   -4.3140   21.5160 F   0  0  0  0  0  0  0  0  0  0  0  0
  -21.2130   -4.0630   26.0840 F   0  0  0  0  0  0  0  0  0  0  0  0
  -23.1140  -13.6020   21.2320 C   0  0  0  0  0  0  0  0  0  0  0  0
  -22.4350  -12.9140   22.1410 N   0  0  0  0  0  0  0  0  0  0  0  0
  -22.6560  -14.6350   20.7460 O   0  0  0  0  0  0  0  0  0  0  0  0
  -22.8180  -12.0770   22.5580 H   0  0  0  0  0  0  0  0  0  0  0  0
  -21.5190  -13.2280   22.4290 H   0  0  0  0  0  0  0  0  0  0  0  0
  -25.6910  -15.2390   20.2460 N   0  0  0  0  0  0  0  0  0  0  0  0
  -24.8510  -15.8060   20.2830 H   0  0  0  0  0  0  0  0  0  0  0  0
  -26.3370  -15.5470   19.5320 H   0  0  0  0  0  0  0  0  0  0  0  0
  1 49  1  0
  2  5  1  0
  2  1  1  0
  3  2  1  0
  4  2  1  0
  5  6  1  0
  6  7  1  0
  7  8  1  0
  8 10  1  0
  9 20  2  0
 10 15  1  0
 11 19  1  0
 11 21  1  0
 12 18  1  0
 12 14  1  0
 13 19  1  0
 14 13  1  0
 15 14  2  0
 16 10  2  0
 17 16  1  0
 17 12  2  0
 18 11  1  0
 19  9  1  0
 21 23  2  0
 22 21  1  0
 24 22  1  0
 25 34  2  0
 25 30  1  0
 26 22  1  0
 26 30  1  0
 27 26  1  0
 28 29  1  0
 28 27  1  0
 29 25  1  0
 30 31  2  0
 31 32  1  0
 33 32  2  0
 34 33  1  0
 35  9  1  0
 35 40  1  0
 35 36  1  0
 36 39  1  1
 36 37  1  0
 38 36  1  0
 40 43  1  0
 41 45  1  0
 41 40  1  0
 42 41  2  0
 45 44  1  0
 47 45  1  0
 47 48  1  0
 47 46  1  0
 49 50  1  0
 50 51  1  0
 51 52  1  0
 52 66  1  0
 53 65  1  0
 54 59  1  0
 55 56  1  0
 55 54  1  0
 57 56  1  0
 57 71  1  0
 57 58  1  0
 59 53  1  0
 59 58  1  0
 60 53  2  0
 61 65  1  0
 63 61  1  0
 63 66  1  0
 64 62  1  0
 65 62  1  0
 66 67  1  1
 66 64  1  0
 68 69  2  0
 69 88  1  0
 70 69  1  0
 70 73  1  0
 71 72  1  0
 71 68  1  0
 72 70  2  0
 73 74  1  0
 74 75  2  0
 76 79  1  0
 76 75  1  0
 77 76  2  0
 78 77  1  0
 78 73  2  0
 79 80  1  0
 80 85  2  0
 80 81  1  0
 81 82  2  0
 82 83  1  0
 83 87  1  0
 84 83  2  0
 85 84  1  0
 86 85  1  0
 88 89  1  0
 89 92  1  0
 89 91  1  0
 90 88  2  0
 93 94  1  0
 93 68  1  0
 95 93  1  0
M  ISO  4   7 101   8 101  53 100  65 100
M  END
>  <TORSDO>  (77) 
F 24

>  <SCORE>  (77) 
-11.308

>  <name>  (77) 
76

>  <ligand_id>  (77) 
76

>  <original_smiles>  (77) 
[H]c1c([H])c([H])c2c(c1[H])C([H])([H])C([H])([H])C([H])([H])C2([H])N([H])C(=O)C1([H])N(C(=O)C([H])(N([H])C(=O)C([H])(N([H])C([H])([H])[H])C([H])([H])[H])C(C([H])([H])[H])(C([H])([H])[H])C([H])([H])[H])C([H])([H])c2c([H])c(OC([H])([H])C([H])([H])C([H])([H])[N+]([H])([H])C([H])([H])C([H])([H])C([H])([H])C([H])([H])C([H])([H])[N+]3([H])C([H])([H])C([H])([H])N(C(=O)N4C([H])([H])C([H])([H])C([H])([H])C([H])(n5nc(-c6c([H])c([H])c(Oc7c([H])c([H])c(F)c([H])c7F)c([H])c6[H])c(C(=O)N([H])[H])c5N([H])[H])C4([H])[H])C([H])([H])C3([H])[H])c([H])c([H])c2C1([H])[H]

>  <smiles>  (77) 
[H]c1c([H])c([H])c2c(c1[H])C([H])([H])C([H])([H])C([H])([H])C2([H])N([H])C(=O)C1([H])N(C(=O)C([H])(N([H])C(=O)C([H])(N([H])C([H])([H])[H])C([H])([H])[H])C(C([H])([H])[H])(C([H])([H])[H])C([H])([H])[H])C([H])([H])c2c([H])c(OC([H])([H])C([H])([H])C([H])([H])[N+]([H])([H])C([H])([H])C([H])([H])C([H])([H])C([H])([H])C([H])([H])[N+]3([H])C([H])([H])C([H])([H])N(C(=O)N4C([H])([H])C([H])([H])C([H])([H])C([H])(n5nc(-c6c([H])c([H])c(Oc7c([H])c([H])c(F)c([H])c7F)c([H])c6[H])c(C(=O)N([H])[H])c5N([H])[H])C4([H])[H])C([H])([H])C3([H])[H])c([H])c([H])c2C1([H])[H]

$$$$
77:0:0
     RDKit          3D

 94103  0  0  1  0  0  0  0  0999 V2000
  -30.5710  -18.2900   22.9360 C   0  0  0  0  0  2  0  0  0  0  0  0
  -31.2960  -16.9400   23.0510 C   0  0  0  0  0  2  0  0  0  0  0  0
  -28.9020  -19.6470   21.5590 C   0  0  0  0  0  2  0  0  0  0  0  0
  -31.8830  -17.4750   20.5700 C   0  0  0  0  0  2  0  0  0  0  0  0
  -29.6710  -20.5470   20.5920 C   0  0  0  0  0  2  0  0  0  0  0  0
  -29.7130  -18.3540   21.6620 C   0  0  0  0  0  3  0  0  0  0  0  0
  -31.8870  -16.4110   21.7210 C   0  0  0  0  0  3  0  0  0  0  0  0
  -30.5940  -18.3440   20.4020 C   0  0  0  0  0  3  0  0  0  0  0  0
  -30.8500  -19.7870   20.1030 N   0  0  1  0  0  4  0  0  0  0  0  0
  -31.6120  -20.0670   20.7000 H   0  0  0  0  0  0  0  0  0  0  0  0
  -31.8880  -14.0480   20.7950 C   0  0  0  0  0  0  0  0  0  0  0  0
  -31.3840  -12.0060   19.4980 C   0  0  0  0  0  2  0  0  0  0  0  0
  -30.5400  -12.4050   18.2680 C   0  0  0  0  0  2  0  0  0  0  0  0
  -29.0390  -12.4510   18.6180 C   0  0  0  0  0  2  0  0  0  0  0  0
  -28.7580  -13.2520   19.9160 C   0  0  0  0  0  3  0  0  0  0  0  0
  -29.7080  -12.8140   21.0510 C   0  0  0  0  0  2  0  0  0  0  0  0
  -31.0850  -12.9730   20.5650 N   0  0  0  0  0  0  0  0  0  0  0  0
  -33.0530  -14.1050   20.3910 O   0  0  0  0  0  0  0  0  0  0  0  0
  -31.2790  -15.1050   21.3790 N   0  0  0  0  0  0  0  0  0  0  0  0
  -30.3270  -14.9460   21.6710 H   0  0  0  0  0  0  0  0  0  0  0  0
  -26.4250  -14.1610   20.4940 C   0  0  0  0  0  0  0  0  0  0  0  0
  -25.2490  -13.5300   20.8030 C   0  0  0  0  0  0  0  0  0  0  0  0
  -25.5400  -12.1310   20.8020 C   0  0  0  0  0  0  0  0  0  0  0  0
  -27.3590  -13.1530   20.3200 N   0  0  0  0  0  0  0  0  0  0  0  0
  -26.8270  -11.9280   20.5610 N   0  0  0  0  0  0  0  0  0  0  0  0
  -24.6550  -10.9700   20.9600 C   0  0  0  0  0  0  0  0  0  0  0  0
  -24.9680   -9.9180   21.8500 C   0  0  0  0  0  3  0  0  0  0  0  0
  -24.0910   -8.8220   21.9960 C   0  0  0  0  0  3  0  0  0  0  0  0
  -22.8860   -8.7720   21.2550 C   0  0  0  0  0  0  0  0  0  0  0  0
  -22.5920   -9.8100   20.3540 C   0  0  0  0  0  3  0  0  0  0  0  0
  -23.4690  -10.8980   20.2050 C   0  0  0  0  0  3  0  0  0  0  0  0
  -21.9870   -7.7330   21.3110 O   0  0  0  0  0  0  0  0  0  0  0  0
  -21.8980   -6.9200   22.4110 C   0  0  0  0  0  0  0  0  0  0  0  0
  -21.6650   -7.4390   23.7040 C   0  0  0  0  0  3  0  0  0  0  0  0
  -21.5050   -6.5630   24.7960 C   0  0  0  0  0  3  0  0  0  0  0  0
  -21.5730   -5.1690   24.5970 C   0  0  0  0  0  0  0  0  0  0  0  0
  -21.8000   -4.6510   23.3100 C   0  0  0  0  0  3  0  0  0  0  0  0
  -21.9580   -5.5250   22.2200 C   0  0  0  0  0  0  0  0  0  0  0  0
  -22.1550   -5.0180   20.9780 F   0  0  0  0  0  0  0  0  0  0  0  0
  -21.4130   -4.3280   25.6450 F   0  0  0  0  0  0  0  0  0  0  0  0
  -23.9100  -14.1780   20.9970 C   0  0  0  0  0  0  0  0  0  0  0  0
  -23.0690  -13.6040   21.8480 N   0  0  0  0  0  0  0  0  0  0  0  0
  -23.6220  -15.2310   20.4300 O   0  0  0  0  0  0  0  0  0  0  0  0
  -23.3140  -12.7500   22.3290 H   0  0  0  0  0  0  0  0  0  0  0  0
  -22.1680  -14.0250   22.0220 H   0  0  0  0  0  0  0  0  0  0  0  0
  -26.7760  -15.4970   20.3290 N   0  0  0  0  0  0  0  0  0  0  0  0
  -26.1050  -16.2510   20.4260 H   0  0  0  0  0  0  0  0  0  0  0  0
  -27.6790  -15.8100   19.9970 H   0  0  0  0  0  0  0  0  0  0  0  0
  -31.2410  -20.1120   18.6990 C   0  0  0  0  0  2  0  0  0  0  0  0
  -30.8830  -21.5570   18.2410 C   0  0  0  0  0  2  0  0  0  0  0  0
  -31.9180  -22.6440   18.5870 C   0  0  0  0  0  2  0  0  0  0  0  0
  -31.2690  -23.9740   19.0350 C   0  0  0  0  0  2  0  0  0  0  0  0
  -32.0570  -25.2240   18.5850 C   0  0  0  0  0  2  0  0  0  0  0  0
  -31.7830  -26.3880   19.3720 O   0  0  0  0  0  0  0  0  0  0  0  0
  -26.9980  -29.2630   23.7630 C   0  0  0  0  0  0  0  0  0  0  0  0
  -30.4960  -26.8750   19.4790 C   0  0  0  0  0  0  0  0  0  0  0  0
  -26.1530  -28.5340   21.5760 C   0  0  0  0  0  3  0  0  0  0  0  0
  -27.8910  -27.9280   19.8200 C   0  0  0  0  0  0  0  0  0  0  0  0
  -28.5820  -29.2520   21.8310 C   0  0  0  0  0  2  0  0  0  0  0  0
  -28.9120  -28.2910   20.7050 C   0  0  0  0  0  0  0  0  0  0  0  0
  -30.2100  -27.7650   20.5390 C   0  0  0  0  0  3  0  0  0  0  0  0
  -29.4550  -26.5360   18.5820 C   0  0  0  0  0  3  0  0  0  0  0  0
  -28.1550  -27.0430   18.7580 C   0  0  0  0  0  3  0  0  0  0  0  0
  -26.5280  -28.5250   20.0690 C   0  0  0  0  0  2  0  0  0  0  0  0
  -27.2590  -29.0090   22.4500 N   0  0  0  0  0  0  0  0  0  0  0  0
  -25.8560  -29.1530   24.2280 O   0  0  0  0  0  0  0  0  0  0  0  0
  -25.6240  -27.1380   21.9650 C   0  0  0  0  0  0  0  0  0  0  0  0
  -24.3610  -26.9500   21.6040 N   0  0  0  0  0  0  0  0  0  0  0  0
  -26.3260  -26.2870   22.5130 O   0  0  0  0  0  0  0  0  0  0  0  0
  -23.9050  -27.7770   21.2420 H   0  0  0  0  0  0  0  0  0  0  0  0
  -21.2190  -25.0400   20.9530 C   0  0  0  0  0  0  0  0  0  0  0  0
  -23.5790  -25.7550   21.4210 C   0  0  0  0  0  3  0  0  0  0  0  0
  -24.1190  -24.5260   20.6810 C   0  0  0  0  0  2  0  0  0  0  0  0
  -23.2040  -24.2460   19.4700 C   0  0  0  0  0  2  0  0  0  0  0  0
  -21.7200  -24.0850   19.8720 C   0  0  0  0  0  2  0  0  0  0  0  0
  -22.1140  -25.7620   21.7780 C   0  0  0  0  0  0  0  0  0  0  0  0
  -21.6210  -26.6290   22.7760 C   0  0  0  0  0  3  0  0  0  0  0  0
  -20.2340  -26.8170   22.9190 C   0  0  0  0  0  3  0  0  0  0  0  0
  -19.3410  -26.1290   22.0770 C   0  0  0  0  0  3  0  0  0  0  0  0
  -19.8330  -25.2330   21.1090 C   0  0  0  0  0  3  0  0  0  0  0  0
  -28.1220  -29.7320   24.7340 C   0  0  0  0  0  3  0  0  0  0  0  0
  -27.5880  -30.8510   25.5180 N   0  0  0  0  0  0  0  0  0  0  0  0
  -27.8650  -32.1410   25.2840 C   0  0  0  0  0  0  0  0  0  0  0  0
  -28.6700  -32.5080   24.4220 O   0  0  0  0  0  0  0  0  0  0  0  0
  -26.8780  -30.6260   26.2000 H   0  0  0  0  0  0  0  0  0  0  0  0
  -25.9830  -33.8060   25.3460 C   0  0  0  0  0  1  0  0  0  0  0  0
  -27.1400  -33.1900   26.1480 C   0  0  0  0  0  3  0  0  0  0  0  0
  -29.0020  -33.7960   27.6290 C   0  0  0  0  0  1  0  0  0  0  0  0
  -28.0320  -34.2610   26.6420 N   0  0  0  0  0  0  0  0  0  0  0  0
  -27.4940  -35.0160   27.0580 H   0  0  0  0  0  0  0  0  0  0  0  0
  -28.6380  -28.5780   25.6790 C   0  0  1  0  0  0  0  0  0  0  0  0
  -27.5110  -27.8350   26.4340 C   0  0  0  0  0  1  0  0  0  0  0  0
  -29.4400  -27.5290   24.8730 C   0  0  0  0  0  1  0  0  0  0  0  0
  -29.6120  -29.1630   26.7290 C   0  0  0  0  0  1  0  0  0  0  0  0
  1  2  1  0
  4  7  1  0
  5  3  1  0
  6  3  1  0
  6  1  1  0
  7 19  1  0
  7  2  1  0
  8  4  1  0
  8  6  1  0
  9  8  1  0
  9  5  1  0
  9 10  1  1
 11 19  1  0
 12 17  1  0
 13 14  1  0
 13 12  1  0
 15 14  1  0
 15 24  1  0
 15 16  1  0
 17 11  1  0
 17 16  1  0
 18 11  2  0
 19 20  1  0
 21 22  2  0
 22 41  1  0
 23 22  1  0
 23 26  1  0
 24 21  1  0
 24 25  1  0
 25 23  2  0
 26 27  1  0
 27 28  2  0
 29 32  1  0
 29 28  1  0
 30 29  2  0
 31 30  1  0
 31 26  2  0
 32 33  1  0
 33 34  1  0
 34 35  2  0
 36 35  1  0
 36 40  1  0
 37 36  2  0
 38 33  2  0
 38 37  1  0
 39 38  1  0
 41 42  1  0
 42 45  1  0
 42 44  1  0
 43 41  2  0
 46 47  1  0
 46 21  1  0
 48 46  1  0
 49  9  1  0
 50 51  1  0
 50 49  1  0
 51 52  1  0
 53 52  1  0
 53 54  1  0
 54 56  1  0
 55 66  2  0
 56 61  1  0
 57 67  1  0
 57 65  1  0
 58 64  1  0
 58 60  1  0
 59 65  1  0
 60 59  1  0
 61 60  2  0
 62 63  1  0
 62 56  2  0
 63 58  2  0
 64 57  1  0
 65 55  1  0
 67 69  2  0
 68 67  1  0
 70 68  1  0
 71 80  2  0
 71 76  1  0
 72 68  1  0
 72 76  1  0
 73 72  1  0
 74 75  1  0
 74 73  1  0
 75 71  1  0
 76 77  2  0
 77 78  1  0
 79 78  2  0
 80 79  1  0
 81 55  1  0
 81 82  1  0
 81 91  1  0
 82 85  1  0
 83 82  1  0
 83 87  1  0
 84 83  2  0
 87 86  1  0
 87 89  1  0
 89 90  1  0
 89 88  1  0
 91 92  1  1
 91 94  1  0
 93 91  1  0
M  ISO  4  11 100  19 100  53 101  54 101
M  END
>  <TORSDO>  (78) 
F 21

>  <SCORE>  (78) 
-6.653

>  <name>  (78) 
77

>  <ligand_id>  (78) 
77

>  <original_smiles>  (78) 
[H]c1c([H])c([H])c2c(c1[H])C([H])([H])C([H])([H])C([H])([H])C2([H])N([H])C(=O)C1([H])N(C(=O)C([H])(N([H])C(=O)C([H])(N([H])C([H])([H])[H])C([H])([H])[H])C(C([H])([H])[H])(C([H])([H])[H])C([H])([H])[H])C([H])([H])c2c([H])c(OC([H])([H])C([H])([H])C([H])([H])C([H])([H])C([H])([H])[N+]3([H])C([H])([H])C([H])([H])C4([H])C([H])([H])C([H])([H])C([H])(N([H])C(=O)N5C([H])([H])C([H])([H])C([H])([H])C([H])(n6nc(-c7c([H])c([H])c(Oc8c([H])c([H])c(F)c([H])c8F)c([H])c7[H])c(C(=O)N([H])[H])c6N([H])[H])C5([H])[H])C([H])([H])C43[H])c([H])c([H])c2C1([H])[H]

>  <smiles>  (78) 
[H]c1c([H])c([H])c2c(c1[H])C([H])([H])C([H])([H])C([H])([H])C2([H])N([H])C(=O)C1([H])N(C(=O)C([H])(N([H])C(=O)C([H])(N([H])C([H])([H])[H])C([H])([H])[H])C(C([H])([H])[H])(C([H])([H])[H])C([H])([H])[H])C([H])([H])c2c([H])c(OC([H])([H])C([H])([H])C([H])([H])C([H])([H])C([H])([H])[N+]3([H])C([H])([H])C([H])([H])C4([H])C([H])([H])C([H])([H])C([H])(N([H])C(=O)N5C([H])([H])C([H])([H])C([H])([H])C([H])(n6nc(-c7c([H])c([H])c(Oc8c([H])c([H])c(F)c([H])c8F)c([H])c7[H])c(C(=O)N([H])[H])c6N([H])[H])C5([H])[H])C([H])([H])C43[H])c([H])c([H])c2C1([H])[H]

$$$$
78:0:0
     RDKit          3D

 93101  0  0  1  0  0  0  0  0999 V2000
  -29.9280  -21.0420   21.4360 N   0  0  0  0  0  0  0  0  0  0  0  0
  -30.7110  -21.3720   21.9950 H   0  0  0  0  0  0  0  0  0  0  0  0
  -31.1130  -18.9060   21.5920 C   0  0  0  0  0  2  0  0  0  0  0  0
  -29.1700  -19.0570   20.1130 C   0  0  0  0  0  2  0  0  0  0  0  0
  -30.3580  -19.8750   20.6720 C   0  0  0  0  0  3  0  0  0  0  0  0
  -30.6890  -17.5280   21.0880 C   0  0  0  0  0  3  0  0  0  0  0  0
  -29.2840  -17.7100   20.6920 N   0  0  0  0  0  4  0  0  0  0  0  0
  -28.9750  -17.0090   20.0410 H   0  0  0  0  0  0  0  0  0  0  0  0
  -28.7060  -17.6770   21.5160 H   0  0  0  0  0  0  0  0  0  0  0  0
  -30.8990  -16.3850   22.1030 C   0  0  0  0  0  2  0  0  0  0  0  0
  -30.7690  -14.3460   20.6850 C   0  0  0  0  0  0  0  0  0  0  0  0
  -30.4160  -12.2810   19.3870 C   0  0  0  0  0  2  0  0  0  0  0  0
  -29.4820  -12.5260   18.1860 C   0  0  0  0  0  2  0  0  0  0  0  0
  -28.0070  -12.3770   18.6040 C   0  0  0  0  0  2  0  0  0  0  0  0
  -27.6650  -13.1980   19.8750 C   0  0  0  0  0  3  0  0  0  0  0  0
  -28.7040  -12.9340   20.9880 C   0  0  0  0  0  2  0  0  0  0  0  0
  -30.0490  -13.2200   20.4550 N   0  0  0  0  0  0  0  0  0  0  0  0
  -31.7880  -14.6490   20.0580 O   0  0  0  0  0  0  0  0  0  0  0  0
  -30.2940  -15.1310   21.6570 N   0  0  0  0  0  0  0  0  0  0  0  0
  -29.4790  -14.7960   22.1520 H   0  0  0  0  0  0  0  0  0  0  0  0
  -25.2610  -13.8140   20.5680 C   0  0  0  0  0  0  0  0  0  0  0  0
  -24.1850  -13.0430   20.9170 C   0  0  0  0  0  0  0  0  0  0  0  0
  -24.6400  -11.6910   20.8730 C   0  0  0  0  0  0  0  0  0  0  0  0
  -26.3040  -12.9300   20.3350 N   0  0  0  0  0  0  0  0  0  0  0  0
  -25.9320  -11.6480   20.5750 N   0  0  0  0  0  0  0  0  0  0  0  0
  -23.9060  -10.4290   21.0400 C   0  0  0  0  0  0  0  0  0  0  0  0
  -24.3620   -9.4220   21.9190 C   0  0  0  0  0  3  0  0  0  0  0  0
  -23.6290   -8.2260   22.0760 C   0  0  0  0  0  3  0  0  0  0  0  0
  -22.4280   -8.0280   21.3550 C   0  0  0  0  0  0  0  0  0  0  0  0
  -21.9910   -9.0250   20.4640 C   0  0  0  0  0  3  0  0  0  0  0  0
  -22.7240  -10.2130   20.3050 C   0  0  0  0  0  3  0  0  0  0  0  0
  -21.6640   -6.8880   21.4250 O   0  0  0  0  0  0  0  0  0  0  0  0
  -21.6850   -6.0740   22.5280 C   0  0  0  0  0  0  0  0  0  0  0  0
  -21.4000   -6.5650   23.8210 C   0  0  0  0  0  3  0  0  0  0  0  0
  -21.3650   -5.6800   24.9170 C   0  0  0  0  0  3  0  0  0  0  0  0
  -21.6050   -4.3070   24.7220 C   0  0  0  0  0  0  0  0  0  0  0  0
  -21.8820   -3.8160   23.4340 C   0  0  0  0  0  3  0  0  0  0  0  0
  -21.9200   -4.6970   22.3400 C   0  0  0  0  0  0  0  0  0  0  0  0
  -22.1670   -4.2160   21.0980 F   0  0  0  0  0  0  0  0  0  0  0  0
  -21.5630   -3.4540   25.7730 F   0  0  0  0  0  0  0  0  0  0  0  0
  -22.7870  -13.5250   21.1840 C   0  0  0  0  0  0  0  0  0  0  0  0
  -22.0500  -12.8240   22.0380 N   0  0  0  0  0  0  0  0  0  0  0  0
  -22.3580  -14.5580   20.6700 O   0  0  0  0  0  0  0  0  0  0  0  0
  -22.4070  -11.9860   22.4730 H   0  0  0  0  0  0  0  0  0  0  0  0
  -21.1120  -13.1290   22.2590 H   0  0  0  0  0  0  0  0  0  0  0  0
  -25.4320  -15.1860   20.4090 N   0  0  0  0  0  0  0  0  0  0  0  0
  -24.6560  -15.8320   20.4990 H   0  0  0  0  0  0  0  0  0  0  0  0
  -26.2680  -15.6210   20.0450 H   0  0  0  0  0  0  0  0  0  0  0  0
  -29.5620  -22.1030   20.5110 C   0  0  0  0  0  2  0  0  0  0  0  0
  -29.1260  -23.3430   21.2910 C   0  0  0  0  0  2  0  0  0  0  0  0
  -28.8340  -24.4940   20.3290 C   0  0  0  0  0  2  0  0  0  0  0  0
  -28.5390  -25.8080   21.0460 C   0  0  0  0  0  2  0  0  0  0  0  0
  -28.4170  -26.8050   20.0460 O   0  0  0  0  0  0  0  0  0  0  0  0
  -24.6070  -31.8730   23.2140 C   0  0  0  0  0  0  0  0  0  0  0  0
  -27.2400  -27.4950   20.0900 C   0  0  0  0  0  0  0  0  0  0  0  0
  -23.3920  -30.4940   21.5540 C   0  0  0  0  0  3  0  0  0  0  0  0
  -24.8410  -28.9610   20.1200 C   0  0  0  0  0  0  0  0  0  0  0  0
  -25.9130  -30.8550   21.3580 C   0  0  0  0  0  2  0  0  0  0  0  0
  -25.9940  -29.4910   20.7110 C   0  0  0  0  0  0  0  0  0  0  0  0
  -27.2000  -28.7630   20.6970 C   0  0  0  0  0  3  0  0  0  0  0  0
  -26.0770  -26.9590   19.5030 C   0  0  0  0  0  3  0  0  0  0  0  0
  -24.8730  -27.6900   19.5160 C   0  0  0  0  0  3  0  0  0  0  0  0
  -23.5960  -29.8180   20.1700 C   0  0  0  0  0  2  0  0  0  0  0  0
  -24.6560  -31.0870   22.1020 N   0  0  0  0  0  0  0  0  0  0  0  0
  -23.5280  -32.1480   23.7560 O   0  0  0  0  0  0  0  0  0  0  0  0
  -22.7360  -29.4690   22.5050 C   0  0  0  0  0  0  0  0  0  0  0  0
  -21.4100  -29.3020   22.3780 N   0  0  0  0  0  0  0  0  0  0  0  0
  -23.4170  -28.8260   23.3100 O   0  0  0  0  0  0  0  0  0  0  0  0
  -20.9250  -29.8720   21.6980 H   0  0  0  0  0  0  0  0  0  0  0  0
  -18.0260  -28.1360   22.8510 C   0  0  0  0  0  0  0  0  0  0  0  0
  -20.5840  -28.3650   23.1350 C   0  0  0  0  0  3  0  0  0  0  0  0
  -20.6760  -26.9390   22.5440 C   0  0  0  0  0  2  0  0  0  0  0  0
  -19.5750  -26.6370   21.5230 C   0  0  0  0  0  2  0  0  0  0  0  0
  -18.1910  -26.7940   22.1590 C   0  0  0  0  0  2  0  0  0  0  0  0
  -19.1510  -28.8820   23.2920 C   0  0  0  0  0  0  0  0  0  0  0  0
  -18.9440  -30.1420   23.8930 C   0  0  0  0  0  3  0  0  0  0  0  0
  -17.6450  -30.6590   24.0550 C   0  0  0  0  0  3  0  0  0  0  0  0
  -16.5330  -29.9090   23.6320 C   0  0  0  0  0  3  0  0  0  0  0  0
  -16.7240  -28.6490   23.0380 C   0  0  0  0  0  3  0  0  0  0  0  0
  -25.9000  -32.4850   23.8420 C   0  0  0  0  0  3  0  0  0  0  0  0
  -25.5890  -33.8650   24.2360 N   0  0  0  0  0  0  0  0  0  0  0  0
  -25.9040  -34.9500   23.5160 C   0  0  0  0  0  0  0  0  0  0  0  0
  -26.5600  -34.8940   22.4720 O   0  0  0  0  0  0  0  0  0  0  0  0
  -25.0060  -33.9820   25.0520 H   0  0  0  0  0  0  0  0  0  0  0  0
  -24.1470  -36.7310   23.2640 C   0  0  0  0  0  1  0  0  0  0  0  0
  -25.4100  -36.3140   24.0350 C   0  0  0  0  0  3  0  0  0  0  0  0
  -27.5590  -37.1800   24.8470 C   0  0  0  0  0  1  0  0  0  0  0  0
  -26.4280  -37.3830   23.9420 N   0  0  0  0  0  0  0  0  0  0  0  0
  -26.0190  -38.2900   24.1490 H   0  0  0  0  0  0  0  0  0  0  0  0
  -26.4460  -31.6600   25.0720 C   0  0  1  0  0  0  0  0  0  0  0  0
  -25.3740  -31.3650   26.1470 C   0  0  0  0  0  1  0  0  0  0  0  0
  -27.0290  -30.3060   24.6050 C   0  0  0  0  0  1  0  0  0  0  0  0
  -27.6030  -32.4310   25.7500 C   0  0  0  0  0  1  0  0  0  0  0  0
  1  2  1  0
  4  5  1  0
  4  7  1  0
  5  1  1  0
  5  3  1  0
  6  3  1  0
  6 10  1  0
  7  6  1  0
  7  9  1  0
  8  7  1  0
 11 19  1  0
 12 17  1  0
 13 14  1  0
 13 12  1  0
 15 14  1  0
 15 24  1  0
 15 16  1  0
 17 11  1  0
 17 16  1  0
 18 11  2  0
 19 10  1  0
 19 20  1  0
 21 22  2  0
 22 41  1  0
 23 22  1  0
 23 26  1  0
 24 21  1  0
 24 25  1  0
 25 23  2  0
 26 27  1  0
 27 28  2  0
 29 32  1  0
 29 28  1  0
 30 29  2  0
 31 30  1  0
 31 26  2  0
 32 33  1  0
 33 34  1  0
 34 35  2  0
 36 35  1  0
 36 40  1  0
 37 36  2  0
 38 33  2  0
 38 37  1  0
 39 38  1  0
 41 42  1  0
 42 45  1  0
 42 44  1  0
 43 41  2  0
 46 47  1  0
 46 21  1  0
 48 46  1  0
 49 50  1  0
 49  1  1  0
 51 52  1  0
 51 50  1  0
 53 55  1  0
 53 52  1  0
 54 65  2  0
 55 60  1  0
 56 64  1  0
 56 66  1  0
 57 63  1  0
 57 59  1  0
 58 64  1  0
 59 58  1  0
 60 59  2  0
 61 62  1  0
 61 55  2  0
 62 57  2  0
 63 56  1  0
 64 54  1  0
 66 68  2  0
 67 66  1  0
 69 67  1  0
 70 79  2  0
 70 75  1  0
 71 67  1  0
 71 75  1  0
 72 71  1  0
 73 74  1  0
 73 72  1  0
 74 70  1  0
 75 76  2  0
 76 77  1  0
 78 77  2  0
 79 78  1  0
 80 54  1  0
 80 81  1  0
 80 90  1  0
 81 84  1  0
 82 86  1  0
 82 81  1  0
 83 82  2  0
 86 85  1  0
 88 86  1  0
 88 89  1  0
 88 87  1  0
 90 93  1  1
 90 91  1  0
 92 90  1  0
M  ISO  4  11 100  19 100  52 101  53 101
M  END
>  <TORSDO>  (79) 
F 22

>  <SCORE>  (79) 
-13.113

>  <name>  (79) 
78

>  <ligand_id>  (79) 
78

>  <original_smiles>  (79) 
[H]c1c([H])c([H])c2c(c1[H])C([H])([H])C([H])([H])C([H])([H])C2([H])N([H])C(=O)C1([H])N(C(=O)C([H])(N([H])C(=O)C([H])(N([H])C([H])([H])[H])C([H])([H])[H])C(C([H])([H])[H])(C([H])([H])[H])C([H])([H])[H])C([H])([H])c2c([H])c(OC([H])([H])C([H])([H])C([H])([H])C([H])([H])N([H])C3([H])C([H])([H])C([H])(C([H])([H])N([H])C(=O)N4C([H])([H])C([H])([H])C([H])([H])C([H])(n5nc(-c6c([H])c([H])c(Oc7c([H])c([H])c(F)c([H])c7F)c([H])c6[H])c(C(=O)N([H])[H])c5N([H])[H])C4([H])[H])[N+]([H])([H])C3([H])[H])c([H])c([H])c2C1([H])[H]

>  <smiles>  (79) 
[H]c1c([H])c([H])c2c(c1[H])C([H])([H])C([H])([H])C([H])([H])C2([H])N([H])C(=O)C1([H])N(C(=O)C([H])(N([H])C(=O)C([H])(N([H])C([H])([H])[H])C([H])([H])[H])C(C([H])([H])[H])(C([H])([H])[H])C([H])([H])[H])C([H])([H])c2c([H])c(OC([H])([H])C([H])([H])C([H])([H])C([H])([H])N([H])C3([H])C([H])([H])C([H])(C([H])([H])N([H])C(=O)N4C([H])([H])C([H])([H])C([H])([H])C([H])(n5nc(-c6c([H])c([H])c(Oc7c([H])c([H])c(F)c([H])c7F)c([H])c6[H])c(C(=O)N([H])[H])c5N([H])[H])C4([H])[H])[N+]([H])([H])C3([H])[H])c([H])c([H])c2C1([H])[H]

$$$$
79:0:0
     RDKit          3D

 92100  0  0  1  0  0  0  0  0999 V2000
  -30.9550  -20.9940   20.9530 C   0  0  0  0  0  2  0  0  0  0  0  0
  -30.8920  -22.3300   20.1700 C   0  0  0  0  0  2  0  0  0  0  0  0
  -29.8690  -23.3200   20.7930 C   0  0  0  0  0  2  0  0  0  0  0  0
  -29.7200  -24.6870   20.0770 C   0  0  0  0  0  2  0  0  0  0  0  0
  -28.6600  -25.6110   20.7330 C   0  0  0  0  0  2  0  0  0  0  0  0
  -28.7200  -26.9540   20.2270 O   0  0  0  0  0  0  0  0  0  0  0  0
  -24.7230  -31.9920   23.3200 C   0  0  0  0  0  0  0  0  0  0  0  0
  -27.5310  -27.6540   20.2420 C   0  0  0  0  0  0  0  0  0  0  0  0
  -23.5790  -30.5880   21.6330 C   0  0  0  0  0  3  0  0  0  0  0  0
  -25.0970  -29.1000   20.2210 C   0  0  0  0  0  0  0  0  0  0  0  0
  -26.0980  -31.0070   21.4890 C   0  0  0  0  0  2  0  0  0  0  0  0
  -26.2310  -29.6460   20.8360 C   0  0  0  0  0  0  0  0  0  0  0  0
  -27.4520  -28.9320   20.8410 C   0  0  0  0  0  3  0  0  0  0  0  0
  -26.3810  -27.1200   19.6210 C   0  0  0  0  0  3  0  0  0  0  0  0
  -25.1670  -27.8340   19.6120 C   0  0  0  0  0  3  0  0  0  0  0  0
  -23.8320  -29.9300   20.2500 C   0  0  0  0  0  2  0  0  0  0  0  0
  -24.8170  -31.2100   22.2060 N   0  0  0  0  0  0  0  0  0  0  0  0
  -23.6270  -32.2320   23.8430 O   0  0  0  0  0  0  0  0  0  0  0  0
  -22.9330  -29.5400   22.5670 C   0  0  0  0  0  0  0  0  0  0  0  0
  -21.6190  -29.3150   22.3980 N   0  0  0  0  0  0  0  0  0  0  0  0
  -23.6110  -28.9310   23.3990 O   0  0  0  0  0  0  0  0  0  0  0  0
  -21.1330  -29.8590   21.6990 H   0  0  0  0  0  0  0  0  0  0  0  0
  -18.2800  -27.9830   22.7580 C   0  0  0  0  0  0  0  0  0  0  0  0
  -20.8110  -28.3460   23.1370 C   0  0  0  0  0  3  0  0  0  0  0  0
  -20.9970  -26.9190   22.5700 C   0  0  0  0  0  2  0  0  0  0  0  0
  -19.9540  -26.5510   21.5100 C   0  0  0  0  0  2  0  0  0  0  0  0
  -18.5400  -26.6400   22.0950 C   0  0  0  0  0  2  0  0  0  0  0  0
  -19.3480  -28.7900   23.2320 C   0  0  0  0  0  0  0  0  0  0  0  0
  -19.0540  -30.0440   23.8100 C   0  0  0  0  0  3  0  0  0  0  0  0
  -17.7250  -30.4940   23.9180 C   0  0  0  0  0  3  0  0  0  0  0  0
  -16.6710  -29.6840   23.4600 C   0  0  0  0  0  3  0  0  0  0  0  0
  -16.9490  -28.4310   22.8870 C   0  0  0  0  0  3  0  0  0  0  0  0
  -25.9840  -32.6410   23.9720 C   0  0  0  0  0  3  0  0  0  0  0  0
  -25.6590  -34.0460   24.2550 N   0  0  0  0  0  0  0  0  0  0  0  0
  -26.0200  -35.0800   23.4820 C   0  0  0  0  0  0  0  0  0  0  0  0
  -26.7300  -34.9540   22.4820 O   0  0  0  0  0  0  0  0  0  0  0  0
  -25.0360  -34.2180   25.0300 H   0  0  0  0  0  0  0  0  0  0  0  0
  -24.3070  -36.8580   23.0110 C   0  0  0  0  0  1  0  0  0  0  0  0
  -25.5120  -36.4770   23.8860 C   0  0  0  0  0  3  0  0  0  0  0  0
  -27.6000  -37.3930   24.7940 C   0  0  0  0  0  1  0  0  0  0  0  0
  -26.5460  -37.5300   23.7910 N   0  0  0  0  0  0  0  0  0  0  0  0
  -26.1320  -38.4530   23.8920 H   0  0  0  0  0  0  0  0  0  0  0  0
  -26.4560  -31.9020   25.2840 C   0  0  1  0  0  0  0  0  0  0  0  0
  -25.3230  -31.6740   26.3110 C   0  0  0  0  0  1  0  0  0  0  0  0
  -27.0690  -30.5220   24.9430 C   0  0  0  0  0  1  0  0  0  0  0  0
  -27.5690  -32.7230   25.9780 C   0  0  0  0  0  1  0  0  0  0  0  0
  -31.7530  -19.8290   20.2910 C   0  0  0  0  0  2  0  0  0  0  0  0
  -30.7970  -14.5520   19.7300 C   0  0  0  0  0  0  0  0  0  0  0  0
  -30.3230  -12.4710   18.4710 C   0  0  0  0  0  2  0  0  0  0  0  0
  -29.2580  -12.6940   17.3760 C   0  0  0  0  0  2  0  0  0  0  0  0
  -27.8390  -12.5130   17.9480 C   0  0  0  0  0  2  0  0  0  0  0  0
  -27.6310  -13.3010   19.2660 C   0  0  0  0  0  3  0  0  0  0  0  0
  -28.7990  -13.0260   20.2480 C   0  0  0  0  0  2  0  0  0  0  0  0
  -30.0580  -13.4060   19.5830 N   0  0  0  0  0  0  0  0  0  0  0  0
  -31.7790  -14.7660   19.0130 O   0  0  0  0  0  0  0  0  0  0  0  0
  -29.0780  -17.4500   20.9520 C   0  0  0  0  0  0  0  0  0  0  0  0
  -29.2250  -15.9400   21.1420 C   0  0  0  0  0  2  0  0  0  0  0  0
  -29.9890  -18.1560   19.9600 C   0  0  0  0  0  2  0  0  0  0  0  0
  -31.6930  -16.0900   21.4340 C   0  0  0  0  0  2  0  0  0  0  0  0
  -32.2090  -17.3810   20.7200 C   0  0  0  0  0  2  0  0  0  0  0  0
  -30.5550  -15.3960   20.7770 N   0  0  0  0  0  0  0  0  0  0  0  0
  -31.2190  -18.4980   20.7050 N   0  0  1  0  0  4  0  0  0  0  0  0
  -28.2740  -18.0930   21.6290 O   0  0  0  0  0  0  0  0  0  0  0  0
  -30.9330  -18.6240   21.6650 H   0  0  0  0  0  0  0  0  0  0  0  0
  -25.3300  -13.8950   20.2570 C   0  0  0  0  0  0  0  0  0  0  0  0
  -24.3010  -13.1110   20.7050 C   0  0  0  0  0  0  0  0  0  0  0  0
  -24.7370  -11.7600   20.5480 C   0  0  0  0  0  0  0  0  0  0  0  0
  -26.3330  -13.0190   19.8690 N   0  0  0  0  0  0  0  0  0  0  0  0
  -25.9840  -11.7280   20.0960 N   0  0  0  0  0  0  0  0  0  0  0  0
  -24.0180  -10.4950   20.7420 C   0  0  0  0  0  0  0  0  0  0  0  0
  -24.4820   -9.5180   21.6500 C   0  0  0  0  0  3  0  0  0  0  0  0
  -23.7670   -8.3160   21.8340 C   0  0  0  0  0  3  0  0  0  0  0  0
  -22.5740   -8.0830   21.1100 C   0  0  0  0  0  0  0  0  0  0  0  0
  -22.1300   -9.0490   20.1900 C   0  0  0  0  0  3  0  0  0  0  0  0
  -22.8460  -10.2420   20.0040 C   0  0  0  0  0  3  0  0  0  0  0  0
  -21.8260   -6.9340   21.2070 O   0  0  0  0  0  0  0  0  0  0  0  0
  -21.7510   -6.2210   22.3770 C   0  0  0  0  0  0  0  0  0  0  0  0
  -21.2830   -6.8010   23.5760 C   0  0  0  0  0  3  0  0  0  0  0  0
  -21.1540   -6.0130   24.7350 C   0  0  0  0  0  3  0  0  0  0  0  0
  -21.4870   -4.6440   24.6990 C   0  0  0  0  0  0  0  0  0  0  0  0
  -21.9530   -4.0660   23.5060 C   0  0  0  0  0  3  0  0  0  0  0  0
  -22.0820   -4.8510   22.3480 C   0  0  0  0  0  0  0  0  0  0  0  0
  -22.5090   -4.2820   21.1930 F   0  0  0  0  0  0  0  0  0  0  0  0
  -21.3560   -3.8850   25.8120 F   0  0  0  0  0  0  0  0  0  0  0  0
  -22.9470  -13.5840   21.1530 C   0  0  0  0  0  0  0  0  0  0  0  0
  -22.3180  -12.8630   22.0730 N   0  0  0  0  0  0  0  0  0  0  0  0
  -22.4590  -14.6280   20.7210 O   0  0  0  0  0  0  0  0  0  0  0  0
  -22.7230  -12.0160   22.4440 H   0  0  0  0  0  0  0  0  0  0  0  0
  -21.4140  -13.1610   22.4130 H   0  0  0  0  0  0  0  0  0  0  0  0
  -25.4830  -15.2720   20.1260 N   0  0  0  0  0  0  0  0  0  0  0  0
  -24.6970  -15.8930   20.2810 H   0  0  0  0  0  0  0  0  0  0  0  0
  -26.2240  -15.7080   19.5930 H   0  0  0  0  0  0  0  0  0  0  0  0
  2  3  1  0
  2  1  1  0
  4  5  1  0
  4  3  1  0
  6  8  1  0
  6  5  1  0
  7 18  2  0
  8 13  1  0
  9 17  1  0
  9 19  1  0
 10 16  1  0
 10 12  1  0
 11 17  1  0
 12 13  2  0
 12 11  1  0
 14  8  2  0
 15 14  1  0
 15 10  2  0
 16  9  1  0
 17  7  1  0
 19 21  2  0
 20 19  1  0
 22 20  1  0
 23 32  2  0
 23 28  1  0
 24 20  1  0
 24 28  1  0
 25 24  1  0
 26 27  1  0
 26 25  1  0
 27 23  1  0
 28 29  2  0
 29 30  1  0
 31 30  2  0
 32 31  1  0
 33  7  1  0
 33 34  1  0
 33 43  1  0
 34 37  1  0
 35 39  1  0
 35 34  1  0
 36 35  2  0
 39 38  1  0
 41 39  1  0
 41 42  1  0
 41 40  1  0
 43 46  1  1
 43 44  1  0
 45 43  1  0
 47 62  1  0
 47  1  1  0
 48 61  1  0
 49 54  1  0
 50 51  1  0
 50 49  1  0
 52 51  1  0
 52 68  1  0
 52 53  1  0
 54 48  1  0
 54 53  1  0
 55 48  2  0
 56 57  1  0
 56 63  2  0
 58 62  1  0
 58 56  1  0
 60 59  1  0
 61 57  1  0
 61 59  1  0
 62 60  1  0
 62 64  1  1
 65 66  2  0
 66 85  1  0
 67 66  1  0
 67 70  1  0
 68 69  1  0
 68 65  1  0
 69 67  2  0
 70 71  1  0
 71 72  2  0
 73 76  1  0
 73 72  1  0
 74 73  2  0
 75 74  1  0
 75 70  2  0
 76 77  1  0
 77 78  1  0
 78 79  2  0
 80 79  1  0
 80 84  1  0
 81 80  2  0
 82 77  2  0
 82 81  1  0
 83 82  1  0
 85 86  1  0
 86 89  1  0
 86 88  1  0
 87 85  2  0
 90 65  1  0
 90 91  1  0
 92 90  1  0
M  ISO  4   5 101   6 101  48 100  61 100
M  END
>  <TORSDO>  (80) 
F 21

>  <SCORE>  (80) 
-11.213

>  <name>  (80) 
79

>  <ligand_id>  (80) 
79

>  <original_smiles>  (80) 
[H]c1c([H])c([H])c2c(c1[H])C([H])([H])C([H])([H])C([H])([H])C2([H])N([H])C(=O)C1([H])N(C(=O)C([H])(N([H])C(=O)C([H])(N([H])C([H])([H])[H])C([H])([H])[H])C(C([H])([H])[H])(C([H])([H])[H])C([H])([H])[H])C([H])([H])c2c([H])c(OC([H])([H])C([H])([H])C([H])([H])C([H])([H])C([H])([H])C([H])([H])[N+]3([H])C([H])([H])C(=O)C([H])([H])N(C(=O)N4C([H])([H])C([H])([H])C([H])([H])C([H])(n5nc(-c6c([H])c([H])c(Oc7c([H])c([H])c(F)c([H])c7F)c([H])c6[H])c(C(=O)N([H])[H])c5N([H])[H])C4([H])[H])C([H])([H])C3([H])[H])c([H])c([H])c2C1([H])[H]

>  <smiles>  (80) 
[H]c1c([H])c([H])c2c(c1[H])C([H])([H])C([H])([H])C([H])([H])C2([H])N([H])C(=O)C1([H])N(C(=O)C([H])(N([H])C(=O)C([H])(N([H])C([H])([H])[H])C([H])([H])[H])C(C([H])([H])[H])(C([H])([H])[H])C([H])([H])[H])C([H])([H])c2c([H])c(OC([H])([H])C([H])([H])C([H])([H])C([H])([H])C([H])([H])C([H])([H])[N+]3([H])C([H])([H])C(=O)C([H])([H])N(C(=O)N4C([H])([H])C([H])([H])C([H])([H])C([H])(n5nc(-c6c([H])c([H])c(Oc7c([H])c([H])c(F)c([H])c7F)c([H])c6[H])c(C(=O)N([H])[H])c5N([H])[H])C4([H])[H])C([H])([H])C3([H])[H])c([H])c([H])c2C1([H])[H]

$$$$
80:0:0
     RDKit          3D

 96104  0  0  1  0  0  0  0  0999 V2000
  -27.6950  -18.9080   18.9050 C   0  0  0  0  0  2  0  0  0  0  0  0
  -27.3330  -19.7690   20.1330 C   0  0  0  0  0  2  0  0  0  0  0  0
  -29.5590  -19.3900   21.1740 C   0  0  0  0  0  2  0  0  0  0  0  0
  -29.3740  -17.9650   20.5710 C   0  0  0  0  0  3  0  0  0  0  0  0
  -29.0230  -18.1240   19.0610 C   0  0  0  0  0  3  0  0  0  0  0  0
  -28.5340  -20.3940   20.7470 N   0  0  2  0  0  4  0  0  0  0  0  0
  -28.9690  -20.9400   20.0170 H   0  0  0  0  0  0  0  0  0  0  0  0
  -28.9820  -16.8660   18.2870 N   0  0  0  0  0  4  0  0  0  0  0  0
  -28.2500  -16.2530   18.5990 H   0  0  0  0  0  0  0  0  0  0  0  0
  -29.8650  -16.3840   18.3210 H   0  0  0  0  0  0  0  0  0  0  0  0
  -28.8030  -17.0720   17.3200 H   0  0  0  0  0  0  0  0  0  0  0  0
  -30.6160  -17.0840   20.8940 C   0  0  0  0  0  2  0  0  0  0  0  0
  -31.0560  -14.6540   20.3840 C   0  0  0  0  0  0  0  0  0  0  0  0
  -30.7900  -12.4510   19.3220 C   0  0  0  0  0  2  0  0  0  0  0  0
  -29.8640  -12.6100   18.0980 C   0  0  0  0  0  2  0  0  0  0  0  0
  -28.3810  -12.5060   18.5090 C   0  0  0  0  0  2  0  0  0  0  0  0
  -28.0290  -13.4030   19.7290 C   0  0  0  0  0  3  0  0  0  0  0  0
  -29.0620  -13.1960   20.8600 C   0  0  0  0  0  2  0  0  0  0  0  0
  -30.3990  -13.4690   20.3050 N   0  0  0  0  0  0  0  0  0  0  0  0
  -32.1660  -14.8630   19.8930 O   0  0  0  0  0  0  0  0  0  0  0  0
  -30.3030  -15.6500   20.8700 N   0  0  0  0  0  0  0  0  0  0  0  0
  -29.4270  -15.3620   21.2800 H   0  0  0  0  0  0  0  0  0  0  0  0
  -25.6410  -14.0870   20.4200 C   0  0  0  0  0  0  0  0  0  0  0  0
  -24.5440  -13.3440   20.7640 C   0  0  0  0  0  0  0  0  0  0  0  0
  -24.9630  -11.9800   20.7160 C   0  0  0  0  0  0  0  0  0  0  0  0
  -26.6610  -13.1750   20.1870 N   0  0  0  0  0  0  0  0  0  0  0  0
  -26.2530  -11.9020   20.4180 N   0  0  0  0  0  0  0  0  0  0  0  0
  -24.1970  -10.7390   20.8800 C   0  0  0  0  0  0  0  0  0  0  0  0
  -24.5820   -9.7510   21.8150 C   0  0  0  0  0  3  0  0  0  0  0  0
  -23.8200   -8.5740   21.9660 C   0  0  0  0  0  3  0  0  0  0  0  0
  -22.6560   -8.3760   21.1850 C   0  0  0  0  0  0  0  0  0  0  0  0
  -22.2920   -9.3510   20.2400 C   0  0  0  0  0  3  0  0  0  0  0  0
  -23.0540  -10.5190   20.0860 C   0  0  0  0  0  3  0  0  0  0  0  0
  -21.8690   -7.2520   21.2450 O   0  0  0  0  0  0  0  0  0  0  0  0
  -21.7510   -6.5200   22.3990 C   0  0  0  0  0  0  0  0  0  0  0  0
  -21.2970   -7.0980   23.6040 C   0  0  0  0  0  3  0  0  0  0  0  0
  -21.1270   -6.2940   24.7490 C   0  0  0  0  0  3  0  0  0  0  0  0
  -21.3960   -4.9130   24.6870 C   0  0  0  0  0  0  0  0  0  0  0  0
  -21.8440   -4.3350   23.4840 C   0  0  0  0  0  3  0  0  0  0  0  0
  -22.0170   -5.1380   22.3430 C   0  0  0  0  0  0  0  0  0  0  0  0
  -22.4290   -4.5740   21.1820 F   0  0  0  0  0  0  0  0  0  0  0  0
  -21.2240   -4.1380   25.7820 F   0  0  0  0  0  0  0  0  0  0  0  0
  -23.1620  -13.8620   21.0360 C   0  0  0  0  0  0  0  0  0  0  0  0
  -22.4170  -13.1910   21.9080 N   0  0  0  0  0  0  0  0  0  0  0  0
  -22.7500  -14.8960   20.5110 O   0  0  0  0  0  0  0  0  0  0  0  0
  -22.7630  -12.3560   22.3560 H   0  0  0  0  0  0  0  0  0  0  0  0
  -21.4890  -13.5190   22.1350 H   0  0  0  0  0  0  0  0  0  0  0  0
  -25.8490  -15.4560   20.2770 N   0  0  0  0  0  0  0  0  0  0  0  0
  -25.0930  -16.1190   20.4160 H   0  0  0  0  0  0  0  0  0  0  0  0
  -26.7350  -15.8970   20.0860 H   0  0  0  0  0  0  0  0  0  0  0  0
  -28.2060  -21.3720   21.8210 C   0  0  0  0  0  2  0  0  0  0  0  0
  -27.6060  -22.6920   21.2870 C   0  0  0  0  0  2  0  0  0  0  0  0
  -28.6460  -23.7990   21.0340 C   0  0  0  0  0  2  0  0  0  0  0  0
  -28.0130  -25.0290   20.3650 C   0  0  0  0  0  2  0  0  0  0  0  0
  -28.8780  -26.3010   20.4550 C   0  0  0  0  0  2  0  0  0  0  0  0
  -28.5310  -27.2610   19.4630 O   0  0  0  0  0  0  0  0  0  0  0  0
  -24.5110  -31.8410   23.1580 C   0  0  0  0  0  0  0  0  0  0  0  0
  -27.3190  -27.8830   19.6270 C   0  0  0  0  0  0  0  0  0  0  0  0
  -23.3360  -30.5160   21.4290 C   0  0  0  0  0  3  0  0  0  0  0  0
  -24.8360  -29.2020   19.8400 C   0  0  0  0  0  0  0  0  0  0  0  0
  -25.8250  -31.0540   21.1970 C   0  0  0  0  0  2  0  0  0  0  0  0
  -25.9750  -29.7500   20.4450 C   0  0  0  0  0  0  0  0  0  0  0  0
  -27.2200  -29.0970   20.3400 C   0  0  0  0  0  3  0  0  0  0  0  0
  -26.1690  -27.3450   19.0120 C   0  0  0  0  0  3  0  0  0  0  0  0
  -24.9260  -27.9960   19.1230 C   0  0  0  0  0  3  0  0  0  0  0  0
  -23.5430  -29.9710   19.9900 C   0  0  0  0  0  2  0  0  0  0  0  0
  -24.5770  -31.1490   21.9870 N   0  0  0  0  0  0  0  0  0  0  0  0
  -23.4320  -31.9970   23.7490 O   0  0  0  0  0  0  0  0  0  0  0  0
  -22.7790  -29.3770   22.3110 C   0  0  0  0  0  0  0  0  0  0  0  0
  -21.4660  -29.1200   22.1950 N   0  0  0  0  0  0  0  0  0  0  0  0
  -23.5220  -28.7300   23.0540 O   0  0  0  0  0  0  0  0  0  0  0  0
  -20.9250  -29.7020   21.5700 H   0  0  0  0  0  0  0  0  0  0  0  0
  -18.2020  -27.6290   22.5970 C   0  0  0  0  0  0  0  0  0  0  0  0
  -20.7290  -28.0700   22.8980 C   0  0  0  0  0  3  0  0  0  0  0  0
  -20.9460  -26.6950   22.2240 C   0  0  0  0  0  2  0  0  0  0  0  0
  -19.8720  -26.3540   21.1880 C   0  0  0  0  0  2  0  0  0  0  0  0
  -18.4830  -26.3480   21.8310 C   0  0  0  0  0  2  0  0  0  0  0  0
  -19.2550  -28.4470   23.0830 C   0  0  0  0  0  0  0  0  0  0  0  0
  -18.9380  -29.6460   23.7540 C   0  0  0  0  0  3  0  0  0  0  0  0
  -17.5980  -30.0330   23.9440 C   0  0  0  0  0  3  0  0  0  0  0  0
  -16.5590  -29.2130   23.4730 C   0  0  0  0  0  3  0  0  0  0  0  0
  -16.8610  -28.0120   22.8080 C   0  0  0  0  0  3  0  0  0  0  0  0
  -25.7770  -32.4900   23.7990 C   0  0  0  0  0  3  0  0  0  0  0  0
  -26.3430  -31.6730   25.0250 C   0  0  1  0  0  0  0  0  0  0  0  0
  -25.2790  -31.3430   26.0970 C   0  0  0  0  0  1  0  0  0  0  0  0
  -26.9630  -30.3380   24.5500 C   0  0  0  0  0  1  0  0  0  0  0  0
  -27.4780  -32.4720   25.7070 C   0  0  0  0  0  1  0  0  0  0  0  0
  -25.4170  -33.8550   24.2020 N   0  0  0  0  0  0  0  0  0  0  0  0
  -25.7090  -34.9570   23.4970 C   0  0  0  0  0  0  0  0  0  0  0  0
  -26.3820  -34.9310   22.4620 O   0  0  0  0  0  0  0  0  0  0  0  0
  -24.8160  -33.9460   25.0080 H   0  0  0  0  0  0  0  0  0  0  0  0
  -23.9080  -36.6910   23.2400 C   0  0  0  0  0  1  0  0  0  0  0  0
  -25.1700  -36.3000   24.0240 C   0  0  0  0  0  3  0  0  0  0  0  0
  -27.2750  -37.2270   24.8840 C   0  0  0  0  0  1  0  0  0  0  0  0
  -26.1580  -37.3980   23.9570 N   0  0  0  0  0  0  0  0  0  0  0  0
  -25.7170  -38.2930   24.1520 H   0  0  0  0  0  0  0  0  0  0  0  0
  1  5  1  0
  1  2  1  0
  2  6  1  0
  4 12  1  0
  4  3  1  0
  5  8  1  0
  5  4  1  0
  6  3  1  0
  6 51  1  0
  6  7  1  6
  8 10  1  0
  8  9  1  0
 11  8  1  0
 13 21  1  0
 14 19  1  0
 15 16  1  0
 15 14  1  0
 17 16  1  0
 17 26  1  0
 17 18  1  0
 19 13  1  0
 19 18  1  0
 20 13  2  0
 21 12  1  0
 21 22  1  0
 23 24  2  0
 24 43  1  0
 25 24  1  0
 25 28  1  0
 26 27  1  0
 26 23  1  0
 27 25  2  0
 28 29  1  0
 29 30  2  0
 31 34  1  0
 31 30  1  0
 32 31  2  0
 33 32  1  0
 33 28  2  0
 34 35  1  0
 35 36  1  0
 36 37  2  0
 38 37  1  0
 38 42  1  0
 39 38  2  0
 40 35  2  0
 40 39  1  0
 41 40  1  0
 43 44  1  0
 44 47  1  0
 44 46  1  0
 45 43  2  0
 48 49  1  0
 48 23  1  0
 50 48  1  0
 52 51  1  0
 53 52  1  0
 54 55  1  0
 54 53  1  0
 56 58  1  0
 56 55  1  0
 57 68  2  0
 58 63  1  0
 59 67  1  0
 59 69  1  0
 60 66  1  0
 60 62  1  0
 61 67  1  0
 62 61  1  0
 63 62  2  0
 64 65  1  0
 64 58  2  0
 65 60  2  0
 66 59  1  0
 67 57  1  0
 69 71  2  0
 70 69  1  0
 72 70  1  0
 73 82  2  0
 73 78  1  0
 74 70  1  0
 74 78  1  0
 75 74  1  0
 76 77  1  0
 76 75  1  0
 77 73  1  0
 78 79  2  0
 79 80  1  0
 81 80  2  0
 82 81  1  0
 83 57  1  0
 83 88  1  0
 83 84  1  0
 84 87  1  1
 84 85  1  0
 86 84  1  0
 88 91  1  0
 89 93  1  0
 89 88  1  0
 90 89  2  0
 93 92  1  0
 95 93  1  0
 95 96  1  0
 95 94  1  0
M  ISO  4  13 100  21 100  55 101  56 101
M  END
>  <TORSDO>  (81) 
F 23

>  <SCORE>  (81) 
-11.774

>  <name>  (81) 
80

>  <ligand_id>  (81) 
80

>  <original_smiles>  (81) 
[H]c1c([H])c([H])c2c(c1[H])C([H])([H])C([H])([H])C([H])([H])C2([H])N([H])C(=O)C1([H])N(C(=O)C([H])(N([H])C(=O)C([H])(N([H])C([H])([H])[H])C([H])([H])[H])C(C([H])([H])[H])(C([H])([H])[H])C([H])([H])[H])C([H])([H])c2c([H])c(OC([H])([H])C([H])([H])C([H])([H])C([H])([H])C([H])([H])[N+]3([H])C([H])([H])C([H])([H])C([H])([N+]([H])([H])[H])C([H])(C([H])([H])N([H])C(=O)N4C([H])([H])C([H])([H])C([H])([H])C([H])(n5nc(-c6c([H])c([H])c(Oc7c([H])c([H])c(F)c([H])c7F)c([H])c6[H])c(C(=O)N([H])[H])c5N([H])[H])C4([H])[H])C3([H])[H])c([H])c([H])c2C1([H])[H]

>  <smiles>  (81) 
[H]c1c([H])c([H])c2c(c1[H])C([H])([H])C([H])([H])C([H])([H])C2([H])N([H])C(=O)C1([H])N(C(=O)C([H])(N([H])C(=O)C([H])(N([H])C([H])([H])[H])C([H])([H])[H])C(C([H])([H])[H])(C([H])([H])[H])C([H])([H])[H])C([H])([H])c2c([H])c(OC([H])([H])C([H])([H])C([H])([H])C([H])([H])C([H])([H])[N+]3([H])C([H])([H])C([H])([H])C([H])([N+]([H])([H])[H])C([H])(C([H])([H])N([H])C(=O)N4C([H])([H])C([H])([H])C([H])([H])C([H])(n5nc(-c6c([H])c([H])c(Oc7c([H])c([H])c(F)c([H])c7F)c([H])c6[H])c(C(=O)N([H])[H])c5N([H])[H])C4([H])[H])C3([H])[H])c([H])c([H])c2C1([H])[H]

$$$$
81:0:0
     RDKit          3D

 93101  0  0  1  0  0  0  0  0999 V2000
  -29.9990  -21.6540   22.8560 C   0  0  0  0  0  3  0  0  0  0  0  0
  -29.5880  -22.8280   22.1720 C   0  0  0  0  0  3  0  0  0  0  0  0
  -30.1080  -20.3800   22.2430 C   0  0  0  0  0  3  0  0  0  0  0  0
  -29.2430  -22.8370   20.8030 C   0  0  0  0  0  0  0  0  0  0  0  0
  -29.8170  -20.1890   20.8840 C   0  0  0  0  0  0  0  0  0  0  0  0
  -29.3940  -21.4650   20.2170 N   0  0  0  0  0  0  0  0  0  0  0  0
  -28.6310  -24.3900   20.1550 C   0  0  0  0  0  2  0  0  0  0  0  0
  -28.7230  -26.0490   20.4280 O   0  0  0  0  0  0  0  0  0  0  0  0
  -24.8520  -31.9060   23.3220 C   0  0  0  0  0  0  0  0  0  0  0  0
  -27.6950  -27.1440   20.3120 C   0  0  0  0  0  0  0  0  0  0  0  0
  -23.7850  -30.5270   21.5830 C   0  0  0  0  0  3  0  0  0  0  0  0
  -25.3520  -28.9950   20.1930 C   0  0  0  0  0  0  0  0  0  0  0  0
  -26.3520  -30.7970   21.5820 C   0  0  0  0  0  2  0  0  0  0  0  0
  -26.4940  -29.4040   20.8910 C   0  0  0  0  0  0  0  0  0  0  0  0
  -27.6570  -28.5010   20.9240 C   0  0  0  0  0  3  0  0  0  0  0  0
  -26.5210  -26.9000   19.5640 C   0  0  0  0  0  3  0  0  0  0  0  0
  -25.3940  -27.7660   19.5100 C   0  0  0  0  0  3  0  0  0  0  0  0
  -24.1080  -29.8860   20.2030 C   0  0  0  0  0  2  0  0  0  0  0  0
  -25.0150  -31.1040   22.2180 N   0  0  0  0  0  0  0  0  0  0  0  0
  -23.7290  -32.1520   23.7910 O   0  0  0  0  0  0  0  0  0  0  0  0
  -23.0660  -29.4900   22.4850 C   0  0  0  0  0  0  0  0  0  0  0  0
  -21.7450  -29.3070   22.2970 N   0  0  0  0  0  0  0  0  0  0  0  0
  -23.7050  -28.8500   23.3230 O   0  0  0  0  0  0  0  0  0  0  0  0
  -21.2800  -29.8770   21.6040 H   0  0  0  0  0  0  0  0  0  0  0  0
  -18.3620  -28.0350   22.6400 C   0  0  0  0  0  0  0  0  0  0  0  0
  -20.9080  -28.3270   22.9990 C   0  0  0  0  0  3  0  0  0  0  0  0
  -21.0500  -26.9220   22.3680 C   0  0  0  0  0  2  0  0  0  0  0  0
  -19.9870  -26.6280   21.3040 C   0  0  0  0  0  2  0  0  0  0  0  0
  -18.5830  -26.7220   21.9070 C   0  0  0  0  0  2  0  0  0  0  0  0
  -19.4530  -28.7960   23.1390 C   0  0  0  0  0  0  0  0  0  0  0  0
  -19.1910  -30.0230   23.7850 C   0  0  0  0  0  3  0  0  0  0  0  0
  -17.8720  -30.4910   23.9360 C   0  0  0  0  0  3  0  0  0  0  0  0
  -16.7960  -29.7280   23.4500 C   0  0  0  0  0  3  0  0  0  0  0  0
  -17.0410  -28.5010   22.8090 C   0  0  0  0  0  3  0  0  0  0  0  0
  -26.0670  -32.5640   24.0410 C   0  0  0  0  0  3  0  0  0  0  0  0
  -25.6930  -33.9460   24.3970 N   0  0  0  0  0  0  0  0  0  0  0  0
  -26.0750  -35.0430   23.7290 C   0  0  0  0  0  0  0  0  0  0  0  0
  -26.8380  -34.9990   22.7610 O   0  0  0  0  0  0  0  0  0  0  0  0
  -25.0220  -34.0510   25.1440 H   0  0  0  0  0  0  0  0  0  0  0  0
  -24.3590  -36.8380   23.3050 C   0  0  0  0  0  1  0  0  0  0  0  0
  -25.5260  -36.4030   24.2070 C   0  0  0  0  0  3  0  0  0  0  0  0
  -27.5520  -37.2800   25.2850 C   0  0  0  0  0  1  0  0  0  0  0  0
  -26.5480  -37.4740   24.2430 N   0  0  0  0  0  0  0  0  0  0  0  0
  -26.1140  -38.3810   24.3850 H   0  0  0  0  0  0  0  0  0  0  0  0
  -26.5220  -31.7790   25.3350 C   0  0  1  0  0  0  0  0  0  0  0  0
  -25.3710  -31.4980   26.3300 C   0  0  0  0  0  1  0  0  0  0  0  0
  -27.1570  -30.4210   24.9620 C   0  0  0  0  0  1  0  0  0  0  0  0
  -27.6130  -32.5840   26.0800 C   0  0  0  0  0  1  0  0  0  0  0  0
  -30.0360  -18.5460   20.2510 C   0  0  0  0  0  3  0  0  0  0  0  0
  -31.0260  -15.7260   20.7980 C   0  0  0  0  0  0  0  0  0  0  0  0
  -31.0590  -13.2060   20.0910 C   0  0  0  0  0  2  0  0  0  0  0  0
  -30.2780  -12.8730   18.7860 C   0  0  0  0  0  2  0  0  0  0  0  0
  -28.7530  -13.0490   18.9360 C   0  0  0  0  0  2  0  0  0  0  0  0
  -28.3410  -13.1780   20.4090 C   0  0  0  0  0  3  0  0  0  0  0  0
  -29.1880  -14.0040   21.3920 C   0  0  0  0  0  2  0  0  0  0  0  0
  -30.4590  -14.4170   20.7880 N   0  0  0  0  0  0  0  0  0  0  0  0
  -32.2380  -15.7010   20.5370 O   0  0  0  0  0  0  0  0  0  0  0  0
  -30.2590  -17.0080   20.9420 N   0  0  0  0  0  0  0  0  0  0  0  0
  -29.4280  -16.7970   21.4720 H   0  0  0  0  0  0  0  0  0  0  0  0
  -25.8990  -14.1300   20.7350 C   0  0  0  0  0  0  0  0  0  0  0  0
  -24.7540  -13.4130   21.0010 C   0  0  0  0  0  0  0  0  0  0  0  0
  -25.1420  -12.0410   21.0020 C   0  0  0  0  0  0  0  0  0  0  0  0
  -26.9100  -13.1690   20.6510 N   0  0  0  0  0  0  0  0  0  0  0  0
  -26.4290  -11.9260   20.8080 N   0  0  0  0  0  0  0  0  0  0  0  0
  -24.3890  -10.7990   21.1210 C   0  0  0  0  0  0  0  0  0  0  0  0
  -24.7370   -9.8250   22.0810 C   0  0  0  0  0  3  0  0  0  0  0  0
  -24.0000   -8.6280   22.1770 C   0  0  0  0  0  3  0  0  0  0  0  0
  -22.9060   -8.4040   21.3090 C   0  0  0  0  0  0  0  0  0  0  0  0
  -22.5850   -9.3660   20.3350 C   0  0  0  0  0  3  0  0  0  0  0  0
  -23.3230  -10.5550   20.2380 C   0  0  0  0  0  3  0  0  0  0  0  0
  -22.1420   -7.2640   21.3150 O   0  0  0  0  0  0  0  0  0  0  0  0
  -21.9130   -6.5630   22.4710 C   0  0  0  0  0  0  0  0  0  0  0  0
  -21.2760   -7.1500   23.5860 C   0  0  0  0  0  3  0  0  0  0  0  0
  -20.9980   -6.3710   24.7270 C   0  0  0  0  0  3  0  0  0  0  0  0
  -21.3460   -5.0060   24.7500 C   0  0  0  0  0  0  0  0  0  0  0  0
  -21.9770   -4.4210   23.6380 C   0  0  0  0  0  3  0  0  0  0  0  0
  -22.2570   -5.1980   22.5000 C   0  0  0  0  0  0  0  0  0  0  0  0
  -22.8470   -4.6260   21.4230 F   0  0  0  0  0  0  0  0  0  0  0  0
  -21.0700   -4.2540   25.8400 F   0  0  0  0  0  0  0  0  0  0  0  0
  -23.3580  -13.9340   21.1850 C   0  0  0  0  0  0  0  0  0  0  0  0
  -22.5540  -13.2480   21.9920 N   0  0  0  0  0  0  0  0  0  0  0  0
  -22.9870  -14.9780   20.6530 O   0  0  0  0  0  0  0  0  0  0  0  0
  -22.8660  -12.4020   22.4460 H   0  0  0  0  0  0  0  0  0  0  0  0
  -21.6140  -13.5760   22.1590 H   0  0  0  0  0  0  0  0  0  0  0  0
  -26.1590  -15.4940   20.5780 N   0  0  0  0  0  0  0  0  0  0  0  0
  -25.3620  -16.0470   20.8790 H   0  0  0  0  0  0  0  0  0  0  0  0
  -26.9770  -15.7540   21.1160 H   0  0  0  0  0  0  0  0  0  0  0  0
  -28.7390  -18.3360   19.4180 C   0  0  0  0  0  2  0  0  0  0  0  0
  -28.6890  -17.1140   18.4670 C   0  0  0  0  0  2  0  0  0  0  0  0
  -27.3110  -16.6300   18.2480 N   0  0  0  0  0  4  0  0  0  0  0  0
  -26.9270  -16.2270   19.0960 H   0  0  0  0  0  0  0  0  0  0  0  0
  -27.3040  -15.9150   17.5410 H   0  0  0  0  0  0  0  0  0  0  0  0
  -26.7080  -17.3730   17.9380 H   0  0  0  0  0  0  0  0  0  0  0  0
  2  1  2  0
  3  1  1  0
  4  2  1  0
  5  3  2  0
  6  4  2  0
  6  5  1  0
  7  8  1  0
  7  4  1  0
  9 20  2  0
 10  8  1  0
 10 15  1  0
 11 19  1  0
 11 21  1  0
 12 18  1  0
 12 14  1  0
 13 19  1  0
 14 15  2  0
 14 13  1  0
 16 10  2  0
 17 16  1  0
 17 12  2  0
 18 11  1  0
 19  9  1  0
 21 23  2  0
 22 21  1  0
 24 22  1  0
 25 34  2  0
 25 30  1  0
 26 22  1  0
 26 30  1  0
 27 26  1  0
 28 29  1  0
 28 27  1  0
 29 25  1  0
 30 31  2  0
 31 32  1  0
 33 32  2  0
 34 33  1  0
 35  9  1  0
 35 36  1  0
 35 45  1  0
 36 39  1  0
 37 41  1  0
 37 36  1  0
 38 37  2  0
 41 40  1  0
 41 43  1  0
 43 44  1  0
 43 42  1  0
 45 48  1  1
 45 46  1  0
 47 45  1  0
 49 88  1  0
 49  5  1  0
 49 58  1  0
 50 58  1  0
 51 56  1  0
 52 53  1  0
 52 51  1  0
 54 53  1  0
 54 63  1  0
 54 55  1  0
 56 50  1  0
 56 55  1  0
 57 50  2  0
 58 59  1  0
 60 61  2  0
 61 62  1  0
 61 80  1  0
 62 65  1  0
 63 60  1  0
 63 64  1  0
 64 62  2  0
 65 66  1  0
 66 67  2  0
 68 71  1  0
 68 67  1  0
 69 68  2  0
 70 69  1  0
 70 65  2  0
 71 72  1  0
 72 77  2  0
 72 73  1  0
 73 74  2  0
 74 75  1  0
 75 79  1  0
 76 75  2  0
 77 76  1  0
 78 77  1  0
 80 81  1  0
 81 84  1  0
 81 83  1  0
 82 80  2  0
 85 60  1  0
 85 86  1  0
 85 87  1  0
 89 88  1  0
 90 89  1  0
 90 91  1  0
 92 90  1  0
 93 90  1  0
M  ISO  4   7 101   8 101  50 100  58 100
M  END
>  <TORSDO>  (82) 
F 21

>  <SCORE>  (82) 
-13.682

>  <name>  (82) 
81

>  <ligand_id>  (82) 
81

>  <original_smiles>  (82) 
[H]c1c(C([H])([H])Oc2c([H])c([H])c3c(c2[H])C([H])([H])N(C(=O)C([H])(N([H])C(=O)C([H])(N([H])C([H])([H])[H])C([H])([H])[H])C(C([H])([H])[H])(C([H])([H])[H])C([H])([H])[H])C([H])(C(=O)N([H])C2([H])c4c([H])c([H])c([H])c([H])c4C([H])([H])C([H])([H])C2([H])[H])C3([H])[H])nc(C([H])(N([H])C(=O)N2C([H])([H])C([H])([H])C([H])([H])C([H])(n3nc(-c4c([H])c([H])c(Oc5c([H])c([H])c(F)c([H])c5F)c([H])c4[H])c(C(=O)N([H])[H])c3N([H])[H])C2([H])[H])C([H])([H])C([H])([H])[N+]([H])([H])[H])c([H])c1[H]

>  <smiles>  (82) 
[H]c1c(C([H])([H])Oc2c([H])c([H])c3c(c2[H])C([H])([H])N(C(=O)C([H])(N([H])C(=O)C([H])(N([H])C([H])([H])[H])C([H])([H])[H])C(C([H])([H])[H])(C([H])([H])[H])C([H])([H])[H])C([H])(C(=O)N([H])C2([H])c4c([H])c([H])c([H])c([H])c4C([H])([H])C([H])([H])C2([H])[H])C3([H])[H])nc(C([H])(N([H])C(=O)N2C([H])([H])C([H])([H])C([H])([H])C([H])(n3nc(-c4c([H])c([H])c(Oc5c([H])c([H])c(F)c([H])c5F)c([H])c4[H])c(C(=O)N([H])[H])c3N([H])[H])C2([H])[H])C([H])([H])C([H])([H])[N+]([H])([H])[H])c([H])c1[H]

$$$$
82:0:0
     RDKit          3D

 96105  0  0  1  0  0  0  0  0999 V2000
  -26.5990  -21.5010   20.0470 C   0  0  0  0  0  2  0  0  0  0  0  0
  -27.4620  -20.8680   21.1360 C   0  0  0  0  0  2  0  0  0  0  0  0
  -27.5840  -21.8730   18.9420 C   0  0  0  0  0  2  0  0  0  0  0  0
  -28.9110  -21.3660   20.8770 C   0  0  0  0  0  3  0  0  0  0  0  0
  -28.8500  -22.1840   19.6310 N   0  0  2  0  0  4  0  0  0  0  0  0
  -29.5920  -21.7590   19.0830 H   0  0  0  0  0  0  0  0  0  0  0  0
  -29.8740  -20.1750   20.6480 C   0  0  0  0  0  0  0  0  0  0  0  0
  -29.8260  -19.1300   21.4970 N   0  0  0  0  0  0  0  0  0  0  0  0
  -30.6360  -20.1970   19.6740 O   0  0  0  0  0  0  0  0  0  0  0  0
  -29.1830  -19.2010   22.2750 H   0  0  0  0  0  0  0  0  0  0  0  0
  -30.7610  -14.6560   19.9570 C   0  0  0  0  0  0  0  0  0  0  0  0
  -30.3710  -12.5580   18.7050 C   0  0  0  0  0  2  0  0  0  0  0  0
  -29.3550  -12.7920   17.5680 C   0  0  0  0  0  2  0  0  0  0  0  0
  -27.9130  -12.6360   18.0890 C   0  0  0  0  0  2  0  0  0  0  0  0
  -27.6550  -13.4620   19.3770 C   0  0  0  0  0  3  0  0  0  0  0  0
  -28.7660  -13.1860   20.4170 C   0  0  0  0  0  2  0  0  0  0  0  0
  -30.0660  -13.4980   19.7940 N   0  0  0  0  0  0  0  0  0  0  0  0
  -31.7690  -14.9400   19.2970 O   0  0  0  0  0  0  0  0  0  0  0  0
  -30.6730  -15.5850   22.2030 C   0  0  0  0  0  2  0  0  0  0  0  0
  -29.8820  -16.9010   20.3810 C   0  0  0  0  0  2  0  0  0  0  0  0
  -30.5580  -17.0440   22.6660 C   0  0  0  0  0  3  0  0  0  0  0  0
  -30.5570  -17.8640   21.3680 C   0  0  0  0  0  3  0  0  0  0  0  0
  -31.6310  -17.4410   23.6900 C   0  0  0  0  0  1  0  0  0  0  0  0
  -30.2060  -15.5390   20.8140 N   0  0  0  0  0  0  0  0  0  0  0  0
  -25.3000  -14.0820   20.2150 C   0  0  0  0  0  0  0  0  0  0  0  0
  -24.2490  -13.3100   20.6330 C   0  0  0  0  0  0  0  0  0  0  0  0
  -24.6990  -11.9560   20.5640 C   0  0  0  0  0  0  0  0  0  0  0  0
  -26.3260  -13.1960   19.9220 N   0  0  0  0  0  0  0  0  0  0  0  0
  -25.9690  -11.9130   20.1850 N   0  0  0  0  0  0  0  0  0  0  0  0
  -23.9790  -10.6950   20.7810 C   0  0  0  0  0  0  0  0  0  0  0  0
  -24.4030   -9.7610   21.7530 C   0  0  0  0  0  3  0  0  0  0  0  0
  -23.6840   -8.5630   21.9550 C   0  0  0  0  0  3  0  0  0  0  0  0
  -22.5290   -8.2900   21.1850 C   0  0  0  0  0  0  0  0  0  0  0  0
  -22.1240   -9.2120   20.2040 C   0  0  0  0  0  3  0  0  0  0  0  0
  -22.8430  -10.4020   20.0000 C   0  0  0  0  0  3  0  0  0  0  0  0
  -21.7870   -7.1400   21.2940 O   0  0  0  0  0  0  0  0  0  0  0  0
  -21.6700   -6.4670   22.4840 C   0  0  0  0  0  0  0  0  0  0  0  0
  -21.1560   -7.0900   23.6420 C   0  0  0  0  0  3  0  0  0  0  0  0
  -20.9870   -6.3450   24.8260 C   0  0  0  0  0  3  0  0  0  0  0  0
  -21.3220   -4.9780   24.8520 C   0  0  0  0  0  0  0  0  0  0  0  0
  -21.8290   -4.3540   23.6970 C   0  0  0  0  0  3  0  0  0  0  0  0
  -21.9980   -5.0970   22.5160 C   0  0  0  0  0  0  0  0  0  0  0  0
  -22.4660   -4.4870   21.4000 F   0  0  0  0  0  0  0  0  0  0  0  0
  -21.1520   -4.2590   25.9850 F   0  0  0  0  0  0  0  0  0  0  0  0
  -22.8710  -13.7910   20.9920 C   0  0  0  0  0  0  0  0  0  0  0  0
  -22.2030  -13.1040   21.9100 N   0  0  0  0  0  0  0  0  0  0  0  0
  -22.3970  -14.8110   20.4910 O   0  0  0  0  0  0  0  0  0  0  0  0
  -22.5980  -12.2770   22.3350 H   0  0  0  0  0  0  0  0  0  0  0  0
  -21.2840  -13.4120   22.1980 H   0  0  0  0  0  0  0  0  0  0  0  0
  -25.4640  -15.4520   20.0470 N   0  0  0  0  0  0  0  0  0  0  0  0
  -24.7170  -16.1150   20.2250 H   0  0  0  0  0  0  0  0  0  0  0  0
  -26.3110  -15.8880   19.7090 H   0  0  0  0  0  0  0  0  0  0  0  0
  -29.1740  -23.6490   19.6980 C   0  0  0  0  0  2  0  0  0  0  0  0
  -28.1650  -24.5460   20.4730 C   0  0  0  0  0  2  0  0  0  0  0  0
  -28.6140  -26.0290   20.6400 C   0  0  0  0  0  2  0  0  0  0  0  0
  -28.3650  -26.8950   19.5180 O   0  0  0  0  0  0  0  0  0  0  0  0
  -24.6010  -31.8160   23.0830 C   0  0  0  0  0  0  0  0  0  0  0  0
  -27.2140  -27.6480   19.6160 C   0  0  0  0  0  0  0  0  0  0  0  0
  -23.3710  -30.5230   21.3690 C   0  0  0  0  0  3  0  0  0  0  0  0
  -24.8080  -29.1180   19.7980 C   0  0  0  0  0  0  0  0  0  0  0  0
  -25.8870  -30.9340   21.1350 C   0  0  0  0  0  2  0  0  0  0  0  0
  -25.9730  -29.6110   20.3980 C   0  0  0  0  0  0  0  0  0  0  0  0
  -27.1800  -28.8800   20.3110 C   0  0  0  0  0  3  0  0  0  0  0  0
  -26.0390  -27.1710   19.0050 C   0  0  0  0  0  3  0  0  0  0  0  0
  -24.8340  -27.8950   19.1030 C   0  0  0  0  0  3  0  0  0  0  0  0
  -23.5550  -29.9540   19.9370 C   0  0  0  0  0  2  0  0  0  0  0  0
  -24.6390  -31.1040   21.9210 N   0  0  0  0  0  0  0  0  0  0  0  0
  -23.5310  -32.0290   23.6710 O   0  0  0  0  0  0  0  0  0  0  0  0
  -22.7570  -29.4240   22.2660 C   0  0  0  0  0  0  0  0  0  0  0  0
  -21.4260  -29.2570   22.1850 N   0  0  0  0  0  0  0  0  0  0  0  0
  -23.4730  -28.7290   22.9910 O   0  0  0  0  0  0  0  0  0  0  0  0
  -20.9050  -29.8740   21.5770 H   0  0  0  0  0  0  0  0  0  0  0  0
  -18.0700  -28.0300   22.7290 C   0  0  0  0  0  0  0  0  0  0  0  0
  -20.6400  -28.2560   22.9060 C   0  0  0  0  0  3  0  0  0  0  0  0
  -20.7080  -26.8820   22.2010 C   0  0  0  0  0  2  0  0  0  0  0  0
  -19.5580  -26.6510   21.2150 C   0  0  0  0  0  2  0  0  0  0  0  0
  -18.2070  -26.7440   21.9320 C   0  0  0  0  0  2  0  0  0  0  0  0
  -19.2120  -28.7470   23.1730 C   0  0  0  0  0  0  0  0  0  0  0  0
  -19.0310  -29.9540   23.8810 C   0  0  0  0  0  3  0  0  0  0  0  0
  -17.7400  -30.4440   24.1530 C   0  0  0  0  0  3  0  0  0  0  0  0
  -16.6120  -29.7230   23.7260 C   0  0  0  0  0  3  0  0  0  0  0  0
  -16.7770  -28.5190   23.0180 C   0  0  0  0  0  3  0  0  0  0  0  0
  -25.8960  -32.4140   23.7160 C   0  0  0  0  0  3  0  0  0  0  0  0
  -26.4530  -31.5580   24.9170 C   0  0  1  0  0  0  0  0  0  0  0  0
  -25.4010  -31.2430   26.0050 C   0  0  0  0  0  1  0  0  0  0  0  0
  -27.0190  -30.2150   24.4080 C   0  0  0  0  0  1  0  0  0  0  0  0
  -27.6300  -32.3010   25.5910 C   0  0  0  0  0  1  0  0  0  0  0  0
  -25.5900  -33.7840   24.1500 N   0  0  0  0  0  0  0  0  0  0  0  0
  -25.8890  -34.8880   23.4540 C   0  0  0  0  0  0  0  0  0  0  0  0
  -26.5300  -34.8640   22.4000 O   0  0  0  0  0  0  0  0  0  0  0  0
  -25.0200  -33.8840   24.9790 H   0  0  0  0  0  0  0  0  0  0  0  0
  -24.1290  -36.6760   23.2750 C   0  0  0  0  0  1  0  0  0  0  0  0
  -25.3990  -36.2360   24.0190 C   0  0  0  0  0  3  0  0  0  0  0  0
  -27.5430  -37.0950   24.8440 C   0  0  0  0  0  1  0  0  0  0  0  0
  -26.4110  -37.3100   23.9470 N   0  0  0  0  0  0  0  0  0  0  0  0
  -25.9980  -38.2140   24.1610 H   0  0  0  0  0  0  0  0  0  0  0  0
  1  2  1  0
  3  5  1  0
  3  1  1  0
  4  7  1  0
  4  2  1  0
  5 53  1  0
  5  4  1  0
  5  6  1  6
  7  8  1  0
  8 10  1  0
  9  7  2  0
 11 24  1  0
 12 17  1  0
 13 14  1  0
 13 12  1  0
 15 14  1  0
 15 28  1  0
 15 16  1  0
 17 11  1  0
 17 16  1  0
 18 11  2  0
 19 21  1  0
 20 24  1  0
 20 22  1  0
 21 23  1  0
 22  8  1  0
 22 21  1  0
 24 19  1  0
 25 26  2  0
 26 45  1  0
 27 26  1  0
 27 30  1  0
 28 29  1  0
 28 25  1  0
 29 27  2  0
 30 31  1  0
 31 32  2  0
 33 36  1  0
 33 32  1  0
 34 33  2  0
 35 34  1  0
 35 30  2  0
 36 37  1  0
 37 42  2  0
 37 38  1  0
 38 39  2  0
 39 40  1  0
 40 44  1  0
 41 40  2  0
 42 41  1  0
 43 42  1  0
 45 46  1  0
 46 49  1  0
 46 48  1  0
 47 45  2  0
 50 25  1  0
 50 51  1  0
 52 50  1  0
 53 54  1  0
 54 55  1  0
 56 58  1  0
 56 55  1  0
 57 68  2  0
 58 63  1  0
 59 67  1  0
 59 69  1  0
 60 66  1  0
 60 62  1  0
 61 67  1  0
 62 61  1  0
 63 62  2  0
 64 65  1  0
 64 58  2  0
 65 60  2  0
 66 59  1  0
 67 57  1  0
 69 71  2  0
 70 69  1  0
 72 70  1  0
 73 82  2  0
 73 78  1  0
 74 70  1  0
 74 78  1  0
 75 74  1  0
 76 77  1  0
 76 75  1  0
 77 73  1  0
 78 79  2  0
 79 80  1  0
 81 80  2  0
 82 81  1  0
 83 57  1  0
 83 88  1  0
 83 84  1  0
 84 87  1  1
 84 85  1  0
 86 84  1  0
 88 91  1  0
 89 93  1  0
 89 88  1  0
 90 89  2  0
 93 92  1  0
 95 93  1  0
 95 96  1  0
 95 94  1  0
M  ISO  4  11 100  24 100  55 101  56 101
M  END
>  <TORSDO>  (83) 
F 20

>  <SCORE>  (83) 
-9.813

>  <name>  (83) 
82

>  <ligand_id>  (83) 
82

>  <original_smiles>  (83) 
[H]c1c([H])c([H])c2c(c1[H])C([H])([H])C([H])([H])C([H])([H])C2([H])N([H])C(=O)C1([H])N(C(=O)C([H])(N([H])C(=O)C([H])(N([H])C([H])([H])[H])C([H])([H])[H])C(C([H])([H])[H])(C([H])([H])[H])C([H])([H])[H])C([H])([H])c2c([H])c(OC([H])([H])C([H])([H])C([H])([H])[N+]3([H])C([H])([H])C([H])([H])C([H])([H])C3([H])C(=O)N([H])C3([H])C([H])([H])N(C(=O)N4C([H])([H])C([H])([H])C([H])([H])C([H])(n5nc(-c6c([H])c([H])c(Oc7c([H])c([H])c(F)c([H])c7F)c([H])c6[H])c(C(=O)N([H])[H])c5N([H])[H])C4([H])[H])C([H])([H])C3([H])C([H])([H])[H])c([H])c([H])c2C1([H])[H]

>  <smiles>  (83) 
[H]c1c([H])c([H])c2c(c1[H])C([H])([H])C([H])([H])C([H])([H])C2([H])N([H])C(=O)C1([H])N(C(=O)C([H])(N([H])C(=O)C([H])(N([H])C([H])([H])[H])C([H])([H])[H])C(C([H])([H])[H])(C([H])([H])[H])C([H])([H])[H])C([H])([H])c2c([H])c(OC([H])([H])C([H])([H])C([H])([H])[N+]3([H])C([H])([H])C([H])([H])C([H])([H])C3([H])C(=O)N([H])C3([H])C([H])([H])N(C(=O)N4C([H])([H])C([H])([H])C([H])([H])C([H])(n5nc(-c6c([H])c([H])c(Oc7c([H])c([H])c(F)c([H])c7F)c([H])c6[H])c(C(=O)N([H])[H])c5N([H])[H])C4([H])[H])C([H])([H])C3([H])C([H])([H])[H])c([H])c([H])c2C1([H])[H]

$$$$
83:0:0
     RDKit          3D

 95103  0  0  1  0  0  0  0  0999 V2000
  -30.7500  -22.2700   21.5410 C   0  0  0  0  0  2  0  0  0  0  0  0
  -31.3990  -23.6040   21.5890 N   0  0  0  0  0  4  0  0  0  0  0  0
  -31.9040  -23.7700   20.7330 H   0  0  0  0  0  0  0  0  0  0  0  0
  -32.0850  -23.5740   22.3260 H   0  0  0  0  0  0  0  0  0  0  0  0
  -30.5200  -24.7670   21.8810 C   0  0  0  0  0  2  0  0  0  0  0  0
  -29.6060  -25.1790   20.7050 C   0  0  0  0  0  2  0  0  0  0  0  0
  -28.7900  -26.4650   20.9620 C   0  0  0  0  0  2  0  0  0  0  0  0
  -28.0010  -26.7050   19.7990 O   0  0  0  0  0  0  0  0  0  0  0  0
  -24.4440  -31.9270   23.1820 C   0  0  0  0  0  0  0  0  0  0  0  0
  -26.8790  -27.4850   19.9450 C   0  0  0  0  0  0  0  0  0  0  0  0
  -23.1450  -30.5780   21.5620 C   0  0  0  0  0  3  0  0  0  0  0  0
  -24.5130  -29.0240   20.0720 C   0  0  0  0  0  0  0  0  0  0  0  0
  -25.6680  -30.8830   21.2810 C   0  0  0  0  0  2  0  0  0  0  0  0
  -25.7010  -29.5140   20.6330 C   0  0  0  0  0  0  0  0  0  0  0  0
  -26.8880  -28.7460   20.5820 C   0  0  0  0  0  3  0  0  0  0  0  0
  -25.6810  -27.0100   19.3730 C   0  0  0  0  0  3  0  0  0  0  0  0
  -24.4960  -27.7660   19.4440 C   0  0  0  0  0  3  0  0  0  0  0  0
  -23.2950  -29.9150   20.1670 C   0  0  0  0  0  2  0  0  0  0  0  0
  -24.4390  -31.1440   22.0660 N   0  0  0  0  0  0  0  0  0  0  0  0
  -23.3920  -32.2200   23.7650 O   0  0  0  0  0  0  0  0  0  0  0  0
  -22.5020  -29.5620   22.5330 C   0  0  0  0  0  0  0  0  0  0  0  0
  -21.1730  -29.3950   22.4310 N   0  0  0  0  0  0  0  0  0  0  0  0
  -23.1930  -28.9260   23.3340 O   0  0  0  0  0  0  0  0  0  0  0  0
  -20.6770  -29.9610   21.7560 H   0  0  0  0  0  0  0  0  0  0  0  0
  -17.7980  -28.2170   22.9660 C   0  0  0  0  0  0  0  0  0  0  0  0
  -20.3590  -28.4630   23.2120 C   0  0  0  0  0  3  0  0  0  0  0  0
  -20.4500  -27.0300   22.6400 C   0  0  0  0  0  2  0  0  0  0  0  0
  -19.3380  -26.7100   21.6370 C   0  0  0  0  0  2  0  0  0  0  0  0
  -17.9620  -26.8630   22.2920 C   0  0  0  0  0  2  0  0  0  0  0  0
  -18.9240  -28.9740   23.3820 C   0  0  0  0  0  0  0  0  0  0  0  0
  -18.7180  -30.2410   23.9700 C   0  0  0  0  0  3  0  0  0  0  0  0
  -17.4180  -30.7500   24.1480 C   0  0  0  0  0  3  0  0  0  0  0  0
  -16.3070  -29.9900   23.7470 C   0  0  0  0  0  3  0  0  0  0  0  0
  -16.4970  -28.7250   23.1600 C   0  0  0  0  0  3  0  0  0  0  0  0
  -25.7700  -32.5130   23.7620 C   0  0  0  0  0  3  0  0  0  0  0  0
  -25.5150  -33.9150   24.1180 N   0  0  0  0  0  0  0  0  0  0  0  0
  -25.8720  -34.9670   23.3680 C   0  0  0  0  0  0  0  0  0  0  0  0
  -26.5240  -34.8560   22.3250 O   0  0  0  0  0  0  0  0  0  0  0  0
  -24.9400  -34.0810   24.9310 H   0  0  0  0  0  0  0  0  0  0  0  0
  -24.2210  -36.8320   23.0410 C   0  0  0  0  0  1  0  0  0  0  0  0
  -25.4400  -36.3630   23.8500 C   0  0  0  0  0  3  0  0  0  0  0  0
  -27.5990  -37.1480   24.7170 C   0  0  0  0  0  1  0  0  0  0  0  0
  -26.5150  -37.3750   23.7650 N   0  0  0  0  0  0  0  0  0  0  0  0
  -26.1450  -38.3070   23.9230 H   0  0  0  0  0  0  0  0  0  0  0  0
  -26.3110  -31.7110   25.0080 C   0  0  1  0  0  0  0  0  0  0  0  0
  -25.2500  -31.4900   26.1110 C   0  0  0  0  0  1  0  0  0  0  0  0
  -26.8430  -30.3260   24.5720 C   0  0  0  0  0  1  0  0  0  0  0  0
  -27.5070  -32.4660   25.6380 C   0  0  0  0  0  1  0  0  0  0  0  0
  -31.7850  -21.1340   21.3450 C   0  0  0  0  0  2  0  0  0  0  0  0
  -30.9090  -19.1290   20.0910 C   0  0  0  0  0  3  0  0  0  0  0  0
  -31.1880  -19.7220   21.2720 C   0  0  0  0  0  0  0  0  0  0  0  0
  -30.9930  -18.9520   22.5390 C   0  0  0  0  0  0  0  0  0  0  0  0
  -30.4110  -17.7020   19.9140 C   0  0  0  0  0  2  0  0  0  0  0  0
  -30.3910  -17.5420   22.4460 C   0  0  0  0  0  2  0  0  0  0  0  0
  -30.7580  -16.8190   21.1320 C   0  0  0  0  0  3  0  0  0  0  0  0
  -31.3020  -19.4340   23.6680 N   0  0  0  0  0  0  0  0  0  0  0  0
  -31.7060  -20.3610   23.5940 H   0  0  0  0  0  0  0  0  0  0  0  0
  -30.6610  -14.4990   20.2290 C   0  0  0  0  0  0  0  0  0  0  0  0
  -30.2640  -12.3830   19.0320 C   0  0  0  0  0  2  0  0  0  0  0  0
  -29.2690  -12.6070   17.8770 C   0  0  0  0  0  2  0  0  0  0  0  0
  -27.8260  -12.4230   18.3770 C   0  0  0  0  0  2  0  0  0  0  0  0
  -27.5340  -13.2300   19.6710 C   0  0  0  0  0  3  0  0  0  0  0  0
  -28.6500  -13.0340   20.7250 C   0  0  0  0  0  2  0  0  0  0  0  0
  -29.9450  -13.3480   20.0980 N   0  0  0  0  0  0  0  0  0  0  0  0
  -31.7030  -14.7010   19.6040 O   0  0  0  0  0  0  0  0  0  0  0  0
  -30.1570  -15.4700   21.0140 N   0  0  0  0  0  0  0  0  0  0  0  0
  -29.2960  -15.2770   21.5030 H   0  0  0  0  0  0  0  0  0  0  0  0
  -25.1590  -13.7580   20.5200 C   0  0  0  0  0  0  0  0  0  0  0  0
  -24.1280  -12.9500   20.9210 C   0  0  0  0  0  0  0  0  0  0  0  0
  -24.6160  -11.6110   20.8260 C   0  0  0  0  0  0  0  0  0  0  0  0
  -26.2110  -12.9100   20.2110 N   0  0  0  0  0  0  0  0  0  0  0  0
  -25.8900  -11.6110   20.4500 N   0  0  0  0  0  0  0  0  0  0  0  0
  -23.9280  -10.3270   21.0150 C   0  0  0  0  0  0  0  0  0  0  0  0
  -24.3980   -9.3650   21.9360 C   0  0  0  0  0  3  0  0  0  0  0  0
  -23.7070   -8.1470   22.1140 C   0  0  0  0  0  3  0  0  0  0  0  0
  -22.5310   -7.8820   21.3710 C   0  0  0  0  0  0  0  0  0  0  0  0
  -22.0810   -8.8330   20.4390 C   0  0  0  0  0  3  0  0  0  0  0  0
  -22.7720  -10.0440   20.2590 C   0  0  0  0  0  3  0  0  0  0  0  0
  -21.8110   -6.7160   21.4580 O   0  0  0  0  0  0  0  0  0  0  0  0
  -21.7620   -5.9850   22.6190 C   0  0  0  0  0  0  0  0  0  0  0  0
  -21.2490   -6.5260   23.8190 C   0  0  0  0  0  3  0  0  0  0  0  0
  -21.1510   -5.7190   24.9700 C   0  0  0  0  0  3  0  0  0  0  0  0
  -21.5570   -4.3700   24.9220 C   0  0  0  0  0  0  0  0  0  0  0  0
  -22.0600   -3.8300   23.7270 C   0  0  0  0  0  3  0  0  0  0  0  0
  -22.1600   -4.6340   22.5780 C   0  0  0  0  0  0  0  0  0  0  0  0
  -22.6280   -4.1010   21.4230 F   0  0  0  0  0  0  0  0  0  0  0  0
  -21.4560   -3.5920   26.0250 F   0  0  0  0  0  0  0  0  0  0  0  0
  -22.7360  -13.3870   21.2780 C   0  0  0  0  0  0  0  0  0  0  0  0
  -22.0690  -12.6510   22.1600 N   0  0  0  0  0  0  0  0  0  0  0  0
  -22.2490  -14.4160   20.8100 O   0  0  0  0  0  0  0  0  0  0  0  0
  -22.4770  -11.8200   22.5620 H   0  0  0  0  0  0  0  0  0  0  0  0
  -21.1350  -12.9220   22.4350 H   0  0  0  0  0  0  0  0  0  0  0  0
  -25.2810  -15.1360   20.3750 N   0  0  0  0  0  0  0  0  0  0  0  0
  -24.5020  -15.7650   20.5440 H   0  0  0  0  0  0  0  0  0  0  0  0
  -26.1020  -15.6090   20.0170 H   0  0  0  0  0  0  0  0  0  0  0  0
  1  2  1  0
  2  5  1  0
  2  4  1  0
  3  2  1  0
  6  7  1  0
  6  5  1  0
  8 10  1  0
  8  7  1  0
  9 20  2  0
 10 15  1  0
 11 19  1  0
 11 21  1  0
 12 18  1  0
 12 14  1  0
 13 19  1  0
 14 13  1  0
 15 14  2  0
 16 17  1  0
 16 10  2  0
 17 12  2  0
 18 11  1  0
 19  9  1  0
 21 23  2  0
 22 21  1  0
 24 22  1  0
 25 34  2  0
 25 30  1  0
 26 22  1  0
 26 30  1  0
 27 26  1  0
 28 29  1  0
 28 27  1  0
 29 25  1  0
 30 31  2  0
 31 32  1  0
 33 32  2  0
 34 33  1  0
 35  9  1  0
 35 36  1  0
 35 45  1  0
 36 39  1  0
 37 41  1  0
 37 36  1  0
 38 37  2  0
 41 40  1  0
 43 41  1  0
 43 44  1  0
 43 42  1  0
 45 48  1  1
 45 46  1  0
 47 45  1  0
 49  1  1  0
 50 51  2  0
 51 49  1  0
 51 52  1  0
 52 56  2  0
 53 50  1  0
 53 55  1  0
 54 52  1  0
 55 66  1  0
 55 54  1  0
 57 56  1  0
 58 66  1  0
 59 64  1  0
 60 61  1  0
 60 59  1  0
 62 61  1  0
 62 71  1  0
 62 63  1  0
 64 58  1  0
 64 63  1  0
 65 58  2  0
 66 67  1  0
 68 69  2  0
 69 88  1  0
 70 69  1  0
 70 73  1  0
 71 72  1  0
 71 68  1  0
 72 70  2  0
 73 74  1  0
 74 75  2  0
 76 79  1  0
 76 75  1  0
 77 76  2  0
 78 77  1  0
 78 73  2  0
 79 80  1  0
 80 81  1  0
 81 82  2  0
 83 82  1  0
 83 87  1  0
 84 83  2  0
 85 80  2  0
 85 84  1  0
 86 85  1  0
 88 89  1  0
 89 92  1  0
 89 91  1  0
 90 88  2  0
 93 68  1  0
 93 94  1  0
 95 93  1  0
M  ISO  4   7 101   8 101  58 100  66 100
M  END
>  <TORSDO>  (84) 
F 22

>  <SCORE>  (84) 
-12.905

>  <name>  (84) 
83

>  <ligand_id>  (84) 
83

>  <original_smiles>  (84) 
[H]N=C1C(C([H])([H])C([H])([H])[N+]([H])([H])C([H])([H])C([H])([H])C([H])([H])Oc2c([H])c([H])c3c(c2[H])C([H])([H])N(C(=O)C([H])(N([H])C(=O)C([H])(N([H])C([H])([H])[H])C([H])([H])[H])C(C([H])([H])[H])(C([H])([H])[H])C([H])([H])[H])C([H])(C(=O)N([H])C2([H])c4c([H])c([H])c([H])c([H])c4C([H])([H])C([H])([H])C2([H])[H])C3([H])[H])=C([H])C([H])([H])C([H])(N([H])C(=O)N2C([H])([H])C([H])([H])C([H])([H])C([H])(n3nc(-c4c([H])c([H])c(Oc5c([H])c([H])c(F)c([H])c5F)c([H])c4[H])c(C(=O)N([H])[H])c3N([H])[H])C2([H])[H])C1([H])[H]

>  <smiles>  (84) 
[H]N=C1C(C([H])([H])C([H])([H])[N+]([H])([H])C([H])([H])C([H])([H])C([H])([H])Oc2c([H])c([H])c3c(c2[H])C([H])([H])N(C(=O)C([H])(N([H])C(=O)C([H])(N([H])C([H])([H])[H])C([H])([H])[H])C(C([H])([H])[H])(C([H])([H])[H])C([H])([H])[H])C([H])(C(=O)N([H])C2([H])c4c([H])c([H])c([H])c([H])c4C([H])([H])C([H])([H])C2([H])[H])C3([H])[H])=C([H])C([H])([H])C([H])(N([H])C(=O)N2C([H])([H])C([H])([H])C([H])([H])C([H])(n3nc(-c4c([H])c([H])c(Oc5c([H])c([H])c(F)c([H])c5F)c([H])c4[H])c(C(=O)N([H])[H])c3N([H])[H])C2([H])[H])C1([H])[H]

$$$$
85:0:0
     RDKit          3D

 96104  0  0  1  0  0  0  0  0999 V2000
  -27.8060  -21.9610   18.4080 C   0  0  0  0  0  2  0  0  0  0  0  0
  -29.8470  -22.5270   19.7780 C   0  0  0  0  0  2  0  0  0  0  0  0
  -27.9570  -23.2900   17.6430 C   0  0  0  0  0  2  0  0  0  0  0  0
  -29.9790  -23.8520   19.0140 C   0  0  0  0  0  2  0  0  0  0  0  0
  -29.1530  -21.4340   18.9390 C   0  0  0  0  0  3  0  0  0  0  0  0
  -28.6110  -24.3750   18.5290 C   0  0  0  0  0  3  0  0  0  0  0  0
  -28.9520  -20.1310   19.7450 C   0  0  0  0  0  2  0  0  0  0  0  0
  -30.2620  -19.3950   20.0680 C   0  0  0  0  0  2  0  0  0  0  0  0
  -30.0360  -18.0690   20.8090 C   0  0  0  0  0  2  0  0  0  0  0  0
  -31.3640  -17.3580   21.1080 C   0  0  0  0  0  2  0  0  0  0  0  0
  -31.2180  -16.0770   21.9510 C   0  0  0  0  0  2  0  0  0  0  0  0
  -30.7580  -14.2930   20.2580 C   0  0  0  0  0  0  0  0  0  0  0  0
  -30.2620  -12.2830   18.9150 C   0  0  0  0  0  2  0  0  0  0  0  0
  -29.2600  -12.5720   17.7830 C   0  0  0  0  0  2  0  0  0  0  0  0
  -27.8110  -12.4460   18.2890 C   0  0  0  0  0  2  0  0  0  0  0  0
  -27.5670  -13.2320   19.6020 C   0  0  0  0  0  3  0  0  0  0  0  0
  -28.6690  -12.9230   20.6400 C   0  0  0  0  0  2  0  0  0  0  0  0
  -29.9800  -13.2040   20.0260 N   0  0  0  0  0  0  0  0  0  0  0  0
  -31.7550  -14.5670   19.5830 O   0  0  0  0  0  0  0  0  0  0  0  0
  -30.4120  -15.0280   21.3230 N   0  0  0  0  0  0  0  0  0  0  0  0
  -29.5790  -14.7360   21.8120 H   0  0  0  0  0  0  0  0  0  0  0  0
  -25.2080  -13.8640   20.4180 C   0  0  0  0  0  0  0  0  0  0  0  0
  -24.1460  -13.1010   20.8270 C   0  0  0  0  0  0  0  0  0  0  0  0
  -24.5890  -11.7440   20.7650 C   0  0  0  0  0  0  0  0  0  0  0  0
  -26.2310  -12.9720   20.1360 N   0  0  0  0  0  0  0  0  0  0  0  0
  -25.8640  -11.6910   20.4010 N   0  0  0  0  0  0  0  0  0  0  0  0
  -23.8550  -10.4880   20.9770 C   0  0  0  0  0  0  0  0  0  0  0  0
  -24.3130   -9.5120   21.8880 C   0  0  0  0  0  3  0  0  0  0  0  0
  -23.5810   -8.3220   22.0900 C   0  0  0  0  0  3  0  0  0  0  0  0
  -22.3770   -8.1000   21.3790 C   0  0  0  0  0  0  0  0  0  0  0  0
  -21.9390   -9.0660   20.4560 C   0  0  0  0  0  3  0  0  0  0  0  0
  -22.6720  -10.2480   20.2540 C   0  0  0  0  0  3  0  0  0  0  0  0
  -21.6150   -6.9630   21.4890 O   0  0  0  0  0  0  0  0  0  0  0  0
  -21.6030   -6.2130   22.6380 C   0  0  0  0  0  0  0  0  0  0  0  0
  -21.2320   -6.7640   23.8830 C   0  0  0  0  0  3  0  0  0  0  0  0
  -21.1670   -5.9420   25.0260 C   0  0  0  0  0  3  0  0  0  0  0  0
  -21.4600   -4.5700   24.9240 C   0  0  0  0  0  0  0  0  0  0  0  0
  -21.8240   -4.0180   23.6830 C   0  0  0  0  0  3  0  0  0  0  0  0
  -21.8920   -4.8370   22.5420 C   0  0  0  0  0  0  0  0  0  0  0  0
  -22.2220   -4.2950   21.3450 F   0  0  0  0  0  0  0  0  0  0  0  0
  -21.3910   -3.7770   26.0190 F   0  0  0  0  0  0  0  0  0  0  0  0
  -22.7690  -13.5920   21.1670 C   0  0  0  0  0  0  0  0  0  0  0  0
  -22.0720  -12.8950   22.0570 N   0  0  0  0  0  0  0  0  0  0  0  0
  -22.3200  -14.6280   20.6780 O   0  0  0  0  0  0  0  0  0  0  0  0
  -22.4480  -12.0560   22.4740 H   0  0  0  0  0  0  0  0  0  0  0  0
  -21.1490  -13.2060   22.3260 H   0  0  0  0  0  0  0  0  0  0  0  0
  -25.3810  -15.2350   20.2450 N   0  0  0  0  0  0  0  0  0  0  0  0
  -24.6290  -15.8990   20.3950 H   0  0  0  0  0  0  0  0  0  0  0  0
  -26.2260  -15.6660   19.8920 H   0  0  0  0  0  0  0  0  0  0  0  0
  -28.7450  -25.7750   17.8540 C   0  0  0  0  0  3  0  0  0  0  0  0
  -27.5650  -26.1330   17.0350 N   0  0  0  0  0  4  0  0  0  0  0  0
  -26.7430  -26.2410   17.6040 H   0  0  0  0  0  0  0  0  0  0  0  0
  -27.3900  -25.4200   16.3470 H   0  0  0  0  0  0  0  0  0  0  0  0
  -27.7170  -26.9970   16.5400 H   0  0  0  0  0  0  0  0  0  0  0  0
  -29.0790  -26.9080   18.8670 C   0  0  0  0  0  2  0  0  0  0  0  0
  -28.3460  -26.7840   20.0910 O   0  0  0  0  0  0  0  0  0  0  0  0
  -24.5670  -31.9230   23.2400 C   0  0  0  0  0  0  0  0  0  0  0  0
  -27.1740  -27.4920   20.1450 C   0  0  0  0  0  0  0  0  0  0  0  0
  -23.3410  -30.5180   21.6150 C   0  0  0  0  0  3  0  0  0  0  0  0
  -24.7750  -28.9660   20.1980 C   0  0  0  0  0  0  0  0  0  0  0  0
  -25.8630  -30.8760   21.3900 C   0  0  0  0  0  2  0  0  0  0  0  0
  -25.9410  -29.5040   20.7590 C   0  0  0  0  0  0  0  0  0  0  0  0
  -27.1470  -28.7750   20.7290 C   0  0  0  0  0  3  0  0  0  0  0  0
  -25.9830  -26.9320   19.6400 C   0  0  0  0  0  3  0  0  0  0  0  0
  -24.7870  -27.6740   19.6410 C   0  0  0  0  0  3  0  0  0  0  0  0
  -23.5360  -29.8270   20.2410 C   0  0  0  0  0  2  0  0  0  0  0  0
  -24.6100  -31.1170   22.1420 N   0  0  0  0  0  0  0  0  0  0  0  0
  -23.4920  -32.2030   23.7870 O   0  0  0  0  0  0  0  0  0  0  0  0
  -22.6920  -29.5050   22.5880 C   0  0  0  0  0  0  0  0  0  0  0  0
  -21.3670  -29.3240   22.4670 N   0  0  0  0  0  0  0  0  0  0  0  0
  -23.3780  -28.8850   23.4040 O   0  0  0  0  0  0  0  0  0  0  0  0
  -20.8760  -29.8740   21.7770 H   0  0  0  0  0  0  0  0  0  0  0  0
  -17.9940  -28.1430   22.9750 C   0  0  0  0  0  0  0  0  0  0  0  0
  -20.5510  -28.3950   23.2470 C   0  0  0  0  0  3  0  0  0  0  0  0
  -20.6530  -26.9580   22.6820 C   0  0  0  0  0  2  0  0  0  0  0  0
  -19.5510  -26.6300   21.6710 C   0  0  0  0  0  2  0  0  0  0  0  0
  -18.1680  -26.7870   22.3100 C   0  0  0  0  0  2  0  0  0  0  0  0
  -19.1140  -28.9050   23.4010 C   0  0  0  0  0  0  0  0  0  0  0  0
  -18.8980  -30.1760   23.9770 C   0  0  0  0  0  3  0  0  0  0  0  0
  -17.5950  -30.6860   24.1290 C   0  0  0  0  0  3  0  0  0  0  0  0
  -16.4890  -29.9190   23.7240 C   0  0  0  0  0  3  0  0  0  0  0  0
  -16.6890  -28.6490   23.1530 C   0  0  0  0  0  3  0  0  0  0  0  0
  -25.8620  -32.5490   23.8460 C   0  0  0  0  0  3  0  0  0  0  0  0
  -26.3950  -31.7730   25.1140 C   0  0  1  0  0  0  0  0  0  0  0  0
  -25.3140  -31.5330   26.1940 C   0  0  0  0  0  1  0  0  0  0  0  0
  -26.9700  -30.3950   24.7060 C   0  0  0  0  0  1  0  0  0  0  0  0
  -27.5550  -32.5630   25.7630 C   0  0  0  0  0  1  0  0  0  0  0  0
  -25.5630  -33.9490   24.1770 N   0  0  0  0  0  0  0  0  0  0  0  0
  -25.9000  -34.9950   23.4140 C   0  0  0  0  0  0  0  0  0  0  0  0
  -26.5670  -34.8880   22.3810 O   0  0  0  0  0  0  0  0  0  0  0  0
  -24.9660  -34.1100   24.9760 H   0  0  0  0  0  0  0  0  0  0  0  0
  -24.1830  -36.7960   23.0620 C   0  0  0  0  0  1  0  0  0  0  0  0
  -25.4210  -36.3860   23.8730 C   0  0  0  0  0  3  0  0  0  0  0  0
  -27.5640  -37.2570   24.7010 C   0  0  0  0  0  1  0  0  0  0  0  0
  -26.4600  -37.4330   23.7600 N   0  0  0  0  0  0  0  0  0  0  0  0
  -26.0590  -38.3550   23.9080 H   0  0  0  0  0  0  0  0  0  0  0  0
  1  5  1  0
  3  1  1  0
  3  6  1  0
  4  2  1  0
  5  7  1  0
  5  2  1  0
  6 50  1  0
  6  4  1  0
  7  8  1  0
  8  9  1  0
  9 10  1  0
 10 11  1  0
 12 20  1  0
 13 18  1  0
 14 15  1  0
 14 13  1  0
 16 15  1  0
 16 25  1  0
 16 17  1  0
 18 12  1  0
 18 17  1  0
 19 12  2  0
 20 21  1  0
 20 11  1  0
 22 23  2  0
 23 42  1  0
 24 23  1  0
 24 27  1  0
 25 26  1  0
 25 22  1  0
 26 24  2  0
 27 28  1  0
 28 29  2  0
 30 33  1  0
 30 29  1  0
 31 30  2  0
 32 31  1  0
 32 27  2  0
 33 34  1  0
 34 35  1  0
 35 36  2  0
 37 36  1  0
 37 41  1  0
 38 37  2  0
 39 34  2  0
 39 38  1  0
 40 39  1  0
 42 43  1  0
 43 46  1  0
 43 45  1  0
 44 42  2  0
 47 48  1  0
 47 22  1  0
 49 47  1  0
 50 55  1  0
 51 52  1  0
 51 50  1  0
 53 51  1  0
 54 51  1  0
 55 56  1  0
 56 58  1  0
 57 68  2  0
 58 63  1  0
 59 67  1  0
 59 69  1  0
 60 66  1  0
 60 62  1  0
 61 67  1  0
 62 61  1  0
 63 62  2  0
 64 65  1  0
 64 58  2  0
 65 60  2  0
 66 59  1  0
 67 57  1  0
 69 71  2  0
 70 69  1  0
 72 70  1  0
 73 82  2  0
 73 78  1  0
 74 70  1  0
 74 78  1  0
 75 74  1  0
 76 77  1  0
 76 75  1  0
 77 73  1  0
 78 79  2  0
 79 80  1  0
 81 80  2  0
 82 81  1  0
 83 57  1  0
 83 88  1  0
 83 84  1  0
 84 87  1  1
 84 85  1  0
 86 84  1  0
 88 91  1  0
 89 93  1  0
 89 88  1  0
 90 89  2  0
 93 92  1  0
 95 93  1  0
 95 96  1  0
 95 94  1  0
M  ISO  4  12 100  20 100  55 101  56 101
M  END
>  <TORSDO>  (85) 
F 24

>  <SCORE>  (85) 
-12.496

>  <name>  (85) 
85

>  <ligand_id>  (85) 
85

>  <original_smiles>  (85) 
[H]c1c([H])c([H])c2c(c1[H])C([H])([H])C([H])([H])C([H])([H])C2([H])N([H])C(=O)C1([H])N(C(=O)C([H])(N([H])C(=O)C([H])(N([H])C([H])([H])[H])C([H])([H])[H])C(C([H])([H])[H])(C([H])([H])[H])C([H])([H])[H])C([H])([H])c2c([H])c(OC([H])([H])C([H])(C3([H])C([H])([H])C([H])([H])C([H])(C([H])([H])C([H])([H])C([H])([H])C([H])([H])C([H])([H])N([H])C(=O)N4C([H])([H])C([H])([H])C([H])([H])C([H])(n5nc(-c6c([H])c([H])c(Oc7c([H])c([H])c(F)c([H])c7F)c([H])c6[H])c(C(=O)N([H])[H])c5N([H])[H])C4([H])[H])C([H])([H])C3([H])[H])[N+]([H])([H])[H])c([H])c([H])c2C1([H])[H]

>  <smiles>  (85) 
[H]c1c([H])c([H])c2c(c1[H])C([H])([H])C([H])([H])C([H])([H])C2([H])N([H])C(=O)C1([H])N(C(=O)C([H])(N([H])C(=O)C([H])(N([H])C([H])([H])[H])C([H])([H])[H])C(C([H])([H])[H])(C([H])([H])[H])C([H])([H])[H])C([H])([H])c2c([H])c(OC([H])([H])C([H])(C3([H])C([H])([H])C([H])([H])C([H])(C([H])([H])C([H])([H])C([H])([H])C([H])([H])C([H])([H])N([H])C(=O)N4C([H])([H])C([H])([H])C([H])([H])C([H])(n5nc(-c6c([H])c([H])c(Oc7c([H])c([H])c(F)c([H])c7F)c([H])c6[H])c(C(=O)N([H])[H])c5N([H])[H])C4([H])[H])C([H])([H])C3([H])[H])[N+]([H])([H])[H])c([H])c([H])c2C1([H])[H]

$$$$
86:0:0
     RDKit          3D

 95103  0  0  1  0  0  0  0  0999 V2000
  -29.1800  -20.4630   21.3190 N   0  0  0  0  0  4  0  0  0  0  0  0
  -30.0170  -20.5080   21.8770 H   0  0  0  0  0  0  0  0  0  0  0  0
  -28.3980  -20.4830   21.9550 H   0  0  0  0  0  0  0  0  0  0  0  0
  -29.5300  -17.9190   21.4570 C   0  0  0  0  0  2  0  0  0  0  0  0
  -30.0350  -19.0620   19.3590 C   0  0  0  0  0  2  0  0  0  0  0  0
  -30.3970  -16.9790   20.5680 C   0  0  0  0  0  3  0  0  0  0  0  0
  -29.1290  -19.1540   20.5940 C   0  0  0  0  0  3  0  0  0  0  0  0
  -30.2190  -17.5540   19.1440 C   0  0  0  0  0  3  0  0  0  0  0  0
  -30.7190  -14.5290   20.0970 C   0  0  0  0  0  0  0  0  0  0  0  0
  -30.3870  -12.3930   18.9290 C   0  0  0  0  0  2  0  0  0  0  0  0
  -29.3780  -12.6120   17.7850 C   0  0  0  0  0  2  0  0  0  0  0  0
  -27.9340  -12.4430   18.2950 C   0  0  0  0  0  2  0  0  0  0  0  0
  -27.6570  -13.2510   19.5920 C   0  0  0  0  0  3  0  0  0  0  0  0
  -28.7730  -13.0190   20.6360 C   0  0  0  0  0  2  0  0  0  0  0  0
  -30.0610  -13.3440   20.0030 N   0  0  0  0  0  0  0  0  0  0  0  0
  -31.7890  -14.7540   19.5200 O   0  0  0  0  0  0  0  0  0  0  0  0
  -30.0360  -15.5450   20.6640 N   0  0  0  0  0  0  0  0  0  0  0  0
  -29.1730  -15.3050   21.1270 H   0  0  0  0  0  0  0  0  0  0  0  0
  -25.3000  -13.8190   20.4570 C   0  0  0  0  0  0  0  0  0  0  0  0
  -24.2610  -13.0290   20.8700 C   0  0  0  0  0  0  0  0  0  0  0  0
  -24.7290  -11.6830   20.7750 C   0  0  0  0  0  0  0  0  0  0  0  0
  -26.3360  -12.9530   20.1390 N   0  0  0  0  0  0  0  0  0  0  0  0
  -25.9990  -11.6620   20.3890 N   0  0  0  0  0  0  0  0  0  0  0  0
  -24.0240  -10.4120   20.9790 C   0  0  0  0  0  0  0  0  0  0  0  0
  -24.4830   -9.4520   21.9090 C   0  0  0  0  0  3  0  0  0  0  0  0
  -23.7770   -8.2440   22.0990 C   0  0  0  0  0  3  0  0  0  0  0  0
  -22.5990   -7.9880   21.3590 C   0  0  0  0  0  0  0  0  0  0  0  0
  -22.1570   -8.9360   20.4210 C   0  0  0  0  0  3  0  0  0  0  0  0
  -22.8650  -10.1350   20.2280 C   0  0  0  0  0  3  0  0  0  0  0  0
  -21.8650   -6.8290   21.4570 O   0  0  0  0  0  0  0  0  0  0  0  0
  -21.7950   -6.1170   22.6270 C   0  0  0  0  0  0  0  0  0  0  0  0
  -21.2830   -6.6840   23.8150 C   0  0  0  0  0  3  0  0  0  0  0  0
  -21.1610   -5.8970   24.9770 C   0  0  0  0  0  3  0  0  0  0  0  0
  -21.5460   -4.5420   24.9550 C   0  0  0  0  0  0  0  0  0  0  0  0
  -22.0530   -3.9760   23.7730 C   0  0  0  0  0  3  0  0  0  0  0  0
  -22.1750   -4.7600   22.6120 C   0  0  0  0  0  0  0  0  0  0  0  0
  -22.6440   -4.2030   21.4690 F   0  0  0  0  0  0  0  0  0  0  0  0
  -21.4240   -3.7830   26.0680 F   0  0  0  0  0  0  0  0  0  0  0  0
  -22.8800  -13.4890   21.2370 C   0  0  0  0  0  0  0  0  0  0  0  0
  -22.2020  -12.7640   22.1220 N   0  0  0  0  0  0  0  0  0  0  0  0
  -22.4090  -14.5290   20.7790 O   0  0  0  0  0  0  0  0  0  0  0  0
  -22.5910  -11.9230   22.5220 H   0  0  0  0  0  0  0  0  0  0  0  0
  -21.2810  -13.0610   22.4050 H   0  0  0  0  0  0  0  0  0  0  0  0
  -25.4420  -15.1970   20.3090 N   0  0  0  0  0  0  0  0  0  0  0  0
  -24.6730  -15.8340   20.4870 H   0  0  0  0  0  0  0  0  0  0  0  0
  -26.2600  -15.6570   19.9350 H   0  0  0  0  0  0  0  0  0  0  0  0
  -31.3300  -17.2190   18.2380 N   0  0  0  0  0  4  0  0  0  0  0  0
  -32.1390  -17.7880   18.4120 H   0  0  0  0  0  0  0  0  0  0  0  0
  -31.0600  -17.3210   17.2750 H   0  0  0  0  0  0  0  0  0  0  0  0
  -31.5920  -16.2520   18.4090 H   0  0  0  0  0  0  0  0  0  0  0  0
  -29.1160  -21.6880   20.4730 C   0  0  0  0  0  2  0  0  0  0  0  0
  -28.8830  -22.9910   21.2820 C   0  0  0  0  0  2  0  0  0  0  0  0
  -29.0240  -24.2920   20.4430 C   0  0  0  0  0  2  0  0  0  0  0  0
  -28.3370  -25.5190   21.0810 C   0  0  0  0  0  2  0  0  0  0  0  0
  -28.5060  -26.7180   20.3020 O   0  0  0  0  0  0  0  0  0  0  0  0
  -24.6320  -31.9040   23.2280 C   0  0  0  0  0  0  0  0  0  0  0  0
  -27.3640  -27.4830   20.2320 C   0  0  0  0  0  0  0  0  0  0  0  0
  -23.4640  -30.4800   21.5750 C   0  0  0  0  0  3  0  0  0  0  0  0
  -24.9600  -28.9610   20.1710 C   0  0  0  0  0  0  0  0  0  0  0  0
  -25.9830  -30.8790   21.4030 C   0  0  0  0  0  2  0  0  0  0  0  0
  -26.1010  -29.5030   20.7780 C   0  0  0  0  0  0  0  0  0  0  0  0
  -27.3090  -28.7730   20.8040 C   0  0  0  0  0  3  0  0  0  0  0  0
  -26.2140  -26.9580   19.6030 C   0  0  0  0  0  3  0  0  0  0  0  0
  -25.0120  -27.6890   19.5780 C   0  0  0  0  0  3  0  0  0  0  0  0
  -23.7020  -29.8000   20.1990 C   0  0  0  0  0  2  0  0  0  0  0  0
  -24.7110  -31.1000   22.1300 N   0  0  0  0  0  0  0  0  0  0  0  0
  -23.5410  -32.1620   23.7550 O   0  0  0  0  0  0  0  0  0  0  0  0
  -22.8160  -29.4510   22.5290 C   0  0  0  0  0  0  0  0  0  0  0  0
  -21.4920  -29.2670   22.3970 N   0  0  0  0  0  0  0  0  0  0  0  0
  -23.4990  -28.8250   23.3430 O   0  0  0  0  0  0  0  0  0  0  0  0
  -21.0010  -29.8260   21.7150 H   0  0  0  0  0  0  0  0  0  0  0  0
  -18.1150  -28.0890   22.8950 C   0  0  0  0  0  0  0  0  0  0  0  0
  -20.6750  -28.3270   23.1640 C   0  0  0  0  0  3  0  0  0  0  0  0
  -20.7670  -26.9010   22.5750 C   0  0  0  0  0  2  0  0  0  0  0  0
  -19.6630  -26.5960   21.5580 C   0  0  0  0  0  2  0  0  0  0  0  0
  -18.2820  -26.7460   22.2040 C   0  0  0  0  0  2  0  0  0  0  0  0
  -19.2400  -28.8380   23.3320 C   0  0  0  0  0  0  0  0  0  0  0  0
  -19.0320  -30.0970   23.9360 C   0  0  0  0  0  3  0  0  0  0  0  0
  -17.7320  -30.6070   24.1080 C   0  0  0  0  0  3  0  0  0  0  0  0
  -16.6210  -29.8550   23.6880 C   0  0  0  0  0  3  0  0  0  0  0  0
  -16.8140  -28.5970   23.0890 C   0  0  0  0  0  3  0  0  0  0  0  0
  -25.9030  -32.5510   23.8630 C   0  0  0  0  0  3  0  0  0  0  0  0
  -25.5730  -33.9440   24.1890 N   0  0  0  0  0  0  0  0  0  0  0  0
  -25.9130  -35.0000   23.4350 C   0  0  0  0  0  0  0  0  0  0  0  0
  -26.6060  -34.9040   22.4190 O   0  0  0  0  0  0  0  0  0  0  0  0
  -24.9570  -34.0930   24.9750 H   0  0  0  0  0  0  0  0  0  0  0  0
  -24.1850  -36.7800   23.0250 C   0  0  0  0  0  1  0  0  0  0  0  0
  -25.3980  -36.3820   23.8780 C   0  0  0  0  0  3  0  0  0  0  0  0
  -27.4950  -37.2810   24.7900 C   0  0  0  0  0  1  0  0  0  0  0  0
  -26.4270  -37.4420   23.8060 N   0  0  0  0  0  0  0  0  0  0  0  0
  -26.0080  -38.3600   23.9430 H   0  0  0  0  0  0  0  0  0  0  0  0
  -26.4190  -31.7850   25.1420 C   0  0  1  0  0  0  0  0  0  0  0  0
  -25.3180  -31.5330   26.1960 C   0  0  0  0  0  1  0  0  0  0  0  0
  -27.0220  -30.4170   24.7480 C   0  0  0  0  0  1  0  0  0  0  0  0
  -27.5500  -32.5940   25.8190 C   0  0  0  0  0  1  0  0  0  0  0  0
  1  2  1  0
  1  3  1  0
  5  7  1  0
  6 17  1  0
  6  4  1  0
  7  1  1  0
  7  4  1  0
  8 47  1  0
  8  5  1  0
  8  6  1  0
  9 17  1  0
 10 15  1  0
 11 12  1  0
 11 10  1  0
 13 12  1  0
 13 22  1  0
 13 14  1  0
 15  9  1  0
 15 14  1  0
 16  9  2  0
 17 18  1  0
 19 20  2  0
 20 39  1  0
 21 20  1  0
 21 24  1  0
 22 23  1  0
 22 19  1  0
 23 21  2  0
 24 25  1  0
 25 26  2  0
 27 30  1  0
 27 26  1  0
 28 27  2  0
 29 28  1  0
 29 24  2  0
 30 31  1  0
 31 32  1  0
 32 33  2  0
 34 33  1  0
 34 38  1  0
 35 34  2  0
 36 31  2  0
 36 35  1  0
 37 36  1  0
 39 40  1  0
 40 43  1  0
 40 42  1  0
 41 39  2  0
 44 19  1  0
 44 45  1  0
 46 44  1  0
 47 50  1  0
 47 48  1  0
 49 47  1  0
 51 52  1  0
 51  1  1  0
 53 54  1  0
 53 52  1  0
 55 54  1  0
 56 67  2  0
 57 55  1  0
 57 62  1  0
 58 66  1  0
 58 68  1  0
 59 65  1  0
 59 61  1  0
 60 66  1  0
 61 62  2  0
 61 60  1  0
 63 57  2  0
 64 63  1  0
 64 59  2  0
 65 58  1  0
 66 56  1  0
 68 70  2  0
 69 68  1  0
 71 69  1  0
 72 81  2  0
 72 77  1  0
 73 69  1  0
 73 77  1  0
 74 73  1  0
 75 76  1  0
 75 74  1  0
 76 72  1  0
 77 78  2  0
 78 79  1  0
 80 79  2  0
 81 80  1  0
 82 56  1  0
 82 83  1  0
 82 92  1  0
 83 86  1  0
 84 88  1  0
 84 83  1  0
 85 84  2  0
 88 87  1  0
 90 88  1  0
 90 91  1  0
 90 89  1  0
 92 95  1  1
 92 93  1  0
 94 92  1  0
M  ISO  4   9 100  17 100  54 101  55 101
M  END
>  <TORSDO>  (86) 
F 22

>  <SCORE>  (86) 
-13.133

>  <name>  (86) 
86

>  <ligand_id>  (86) 
86

>  <original_smiles>  (86) 
[H]c1c([H])c([H])c2c(c1[H])C([H])([H])C([H])([H])C([H])([H])C2([H])N([H])C(=O)C1([H])N(C(=O)C([H])(N([H])C(=O)C([H])(N([H])C([H])([H])[H])C([H])([H])[H])C(C([H])([H])[H])(C([H])([H])[H])C([H])([H])[H])C([H])([H])c2c([H])c(OC([H])([H])C([H])([H])C([H])([H])C([H])([H])[N+]([H])([H])C3([H])C([H])([H])C([H])(N([H])C(=O)N4C([H])([H])C([H])([H])C([H])([H])C([H])(n5nc(-c6c([H])c([H])c(Oc7c([H])c([H])c(F)c([H])c7F)c([H])c6[H])c(C(=O)N([H])[H])c5N([H])[H])C4([H])[H])C([H])([N+]([H])([H])[H])C3([H])[H])c([H])c([H])c2C1([H])[H]

>  <smiles>  (86) 
[H]c1c([H])c([H])c2c(c1[H])C([H])([H])C([H])([H])C([H])([H])C2([H])N([H])C(=O)C1([H])N(C(=O)C([H])(N([H])C(=O)C([H])(N([H])C([H])([H])[H])C([H])([H])[H])C(C([H])([H])[H])(C([H])([H])[H])C([H])([H])[H])C([H])([H])c2c([H])c(OC([H])([H])C([H])([H])C([H])([H])C([H])([H])[N+]([H])([H])C3([H])C([H])([H])C([H])(N([H])C(=O)N4C([H])([H])C([H])([H])C([H])([H])C([H])(n5nc(-c6c([H])c([H])c(Oc7c([H])c([H])c(F)c([H])c7F)c([H])c6[H])c(C(=O)N([H])[H])c5N([H])[H])C4([H])[H])C([H])([N+]([H])([H])[H])C3([H])[H])c([H])c([H])c2C1([H])[H]

$$$$
87:0:0
     RDKit          3D

 96103  0  0  1  0  0  0  0  0999 V2000
  -28.9210  -21.4700   16.5860 C   0  0  0  0  0  2  0  0  0  0  0  0
  -30.3420  -21.0550   17.0210 C   0  0  0  0  0  2  0  0  0  0  0  0
  -30.5880  -19.5380   17.1440 C   0  0  0  0  0  2  0  0  0  0  0  0
  -29.6270  -18.8280   18.0160 N   0  0  0  0  0  4  0  0  0  0  0  0
  -29.9330  -17.8740   18.1170 H   0  0  0  0  0  0  0  0  0  0  0  0
  -28.7500  -18.7930   17.5250 H   0  0  0  0  0  0  0  0  0  0  0  0
  -29.3300  -19.3730   19.3640 C   0  0  0  0  0  2  0  0  0  0  0  0
  -29.9700  -18.5670   20.4950 C   0  0  0  0  0  2  0  0  0  0  0  0
  -29.6590  -17.0680   20.4340 C   0  0  0  0  0  2  0  0  0  0  0  0
  -30.4310  -16.2970   21.5130 C   0  0  0  0  0  2  0  0  0  0  0  0
  -30.7580  -14.1190   20.3850 C   0  0  0  0  0  0  0  0  0  0  0  0
  -30.3440  -12.1350   18.9870 C   0  0  0  0  0  2  0  0  0  0  0  0
  -29.3600  -12.5050   17.8600 C   0  0  0  0  0  2  0  0  0  0  0  0
  -27.8910  -12.4200   18.3220 C   0  0  0  0  0  2  0  0  0  0  0  0
  -27.6500  -13.1320   19.6770 C   0  0  0  0  0  3  0  0  0  0  0  0
  -28.7150  -12.6920   20.7030 C   0  0  0  0  0  2  0  0  0  0  0  0
  -30.0510  -12.9900   20.1440 N   0  0  0  0  0  0  0  0  0  0  0  0
  -31.7600  -14.4700   19.7500 O   0  0  0  0  0  0  0  0  0  0  0  0
  -30.2170  -14.8720   21.3430 N   0  0  0  0  0  0  0  0  0  0  0  0
  -29.4480  -14.4470   21.8440 H   0  0  0  0  0  0  0  0  0  0  0  0
  -25.2730  -13.7920   20.4220 C   0  0  0  0  0  0  0  0  0  0  0  0
  -24.2000  -13.0320   20.8170 C   0  0  0  0  0  0  0  0  0  0  0  0
  -24.6420  -11.6750   20.7850 C   0  0  0  0  0  0  0  0  0  0  0  0
  -26.2980  -12.8900   20.1780 N   0  0  0  0  0  0  0  0  0  0  0  0
  -25.9220  -11.6150   20.4460 N   0  0  0  0  0  0  0  0  0  0  0  0
  -23.9070  -10.4220   20.9980 C   0  0  0  0  0  0  0  0  0  0  0  0
  -24.3540   -9.4490   21.9190 C   0  0  0  0  0  3  0  0  0  0  0  0
  -23.6170   -8.2620   22.1180 C   0  0  0  0  0  3  0  0  0  0  0  0
  -22.4210   -8.0380   21.3940 C   0  0  0  0  0  0  0  0  0  0  0  0
  -21.9940   -9.0010   20.4610 C   0  0  0  0  0  3  0  0  0  0  0  0
  -22.7320  -10.1790   20.2600 C   0  0  0  0  0  3  0  0  0  0  0  0
  -21.6530   -6.9040   21.5030 O   0  0  0  0  0  0  0  0  0  0  0  0
  -21.6350   -6.1570   22.6530 C   0  0  0  0  0  0  0  0  0  0  0  0
  -21.2550   -6.7110   23.8960 C   0  0  0  0  0  3  0  0  0  0  0  0
  -21.1810   -5.8900   25.0380 C   0  0  0  0  0  3  0  0  0  0  0  0
  -21.4740   -4.5160   24.9400 C   0  0  0  0  0  0  0  0  0  0  0  0
  -21.8500   -3.9630   23.7040 C   0  0  0  0  0  3  0  0  0  0  0  0
  -21.9260   -4.7800   22.5620 C   0  0  0  0  0  0  0  0  0  0  0  0
  -22.2650   -4.2390   21.3690 F   0  0  0  0  0  0  0  0  0  0  0  0
  -21.3960   -3.7260   26.0360 F   0  0  0  0  0  0  0  0  0  0  0  0
  -22.8170  -13.5320   21.1130 C   0  0  0  0  0  0  0  0  0  0  0  0
  -22.0970  -12.8510   22.0010 N   0  0  0  0  0  0  0  0  0  0  0  0
  -22.3790  -14.5560   20.5940 O   0  0  0  0  0  0  0  0  0  0  0  0
  -22.4640  -12.0230   22.4430 H   0  0  0  0  0  0  0  0  0  0  0  0
  -21.1660  -13.1680   22.2360 H   0  0  0  0  0  0  0  0  0  0  0  0
  -25.4560  -15.1570   20.2340 N   0  0  0  0  0  0  0  0  0  0  0  0
  -24.7180  -15.8380   20.3730 H   0  0  0  0  0  0  0  0  0  0  0  0
  -26.3160  -15.5730   19.8980 H   0  0  0  0  0  0  0  0  0  0  0  0
  -28.7620  -23.0020   16.5740 C   0  0  0  0  0  2  0  0  0  0  0  0
  -28.5640  -23.5860   17.9960 C   0  0  0  0  0  2  0  0  0  0  0  0
  -29.7020  -24.4060   18.4730 N   0  0  0  0  0  4  0  0  0  0  0  0
  -29.7100  -25.2930   17.9900 H   0  0  0  0  0  0  0  0  0  0  0  0
  -30.5550  -23.9300   18.2200 H   0  0  0  0  0  0  0  0  0  0  0  0
  -29.7600  -24.6330   19.9450 C   0  0  0  0  0  2  0  0  0  0  0  0
  -28.4990  -25.2920   20.5510 C   0  0  0  0  0  2  0  0  0  0  0  0
  -28.4890  -26.6810   20.2280 O   0  0  0  0  0  0  0  0  0  0  0  0
  -24.5780  -31.8120   23.2490 C   0  0  0  0  0  0  0  0  0  0  0  0
  -27.2820  -27.3430   20.2650 C   0  0  0  0  0  0  0  0  0  0  0  0
  -23.4050  -30.3980   21.5940 C   0  0  0  0  0  3  0  0  0  0  0  0
  -24.8810  -28.8310   20.2320 C   0  0  0  0  0  0  0  0  0  0  0  0
  -25.9340  -30.7460   21.4480 C   0  0  0  0  0  2  0  0  0  0  0  0
  -26.0280  -29.3690   20.8250 C   0  0  0  0  0  0  0  0  0  0  0  0
  -27.2340  -28.6350   20.8330 C   0  0  0  0  0  3  0  0  0  0  0  0
  -26.1150  -26.8070   19.6820 C   0  0  0  0  0  3  0  0  0  0  0  0
  -24.9150  -27.5440   19.6670 C   0  0  0  0  0  3  0  0  0  0  0  0
  -23.6420  -29.6980   20.2300 C   0  0  0  0  0  2  0  0  0  0  0  0
  -24.6560  -30.9990   22.1570 N   0  0  0  0  0  0  0  0  0  0  0  0
  -23.4870  -32.0920   23.7630 O   0  0  0  0  0  0  0  0  0  0  0  0
  -22.7230  -29.3900   22.5460 C   0  0  0  0  0  0  0  0  0  0  0  0
  -21.4010  -29.2230   22.3970 N   0  0  0  0  0  0  0  0  0  0  0  0
  -23.3860  -28.7610   23.3770 O   0  0  0  0  0  0  0  0  0  0  0  0
  -20.9280  -29.7830   21.7010 H   0  0  0  0  0  0  0  0  0  0  0  0
  -18.0010  -28.0870   22.8510 C   0  0  0  0  0  0  0  0  0  0  0  0
  -20.5590  -28.3000   23.1580 C   0  0  0  0  0  3  0  0  0  0  0  0
  -20.6430  -26.8670   22.5820 C   0  0  0  0  0  2  0  0  0  0  0  0
  -19.5470  -26.5630   21.5550 C   0  0  0  0  0  2  0  0  0  0  0  0
  -18.1610  -26.7350   22.1810 C   0  0  0  0  0  2  0  0  0  0  0  0
  -19.1270  -28.8290   23.2970 C   0  0  0  0  0  0  0  0  0  0  0  0
  -18.9240  -30.0980   23.8820 C   0  0  0  0  0  3  0  0  0  0  0  0
  -17.6280  -30.6250   24.0290 C   0  0  0  0  0  3  0  0  0  0  0  0
  -16.5150  -29.8800   23.6020 C   0  0  0  0  0  3  0  0  0  0  0  0
  -16.7020  -28.6150   23.0180 C   0  0  0  0  0  3  0  0  0  0  0  0
  -25.8530  -32.4400   23.8930 C   0  0  0  0  0  3  0  0  0  0  0  0
  -25.5470  -33.8420   24.2040 N   0  0  0  0  0  0  0  0  0  0  0  0
  -25.8960  -34.8840   23.4370 C   0  0  0  0  0  0  0  0  0  0  0  0
  -26.5840  -34.7670   22.4190 O   0  0  0  0  0  0  0  0  0  0  0  0
  -24.9480  -34.0120   24.9990 H   0  0  0  0  0  0  0  0  0  0  0  0
  -24.1810  -36.6740   23.0230 C   0  0  0  0  0  1  0  0  0  0  0  0
  -25.4040  -36.2790   23.8680 C   0  0  0  0  0  3  0  0  0  0  0  0
  -27.5240  -37.1620   24.7350 C   0  0  0  0  0  1  0  0  0  0  0  0
  -26.4430  -37.3280   23.7660 N   0  0  0  0  0  0  0  0  0  0  0  0
  -26.0390  -38.2510   23.8970 H   0  0  0  0  0  0  0  0  0  0  0  0
  -26.3410  -31.6770   25.1860 C   0  0  1  0  0  0  0  0  0  0  0  0
  -25.2240  -31.4530   26.2300 C   0  0  0  0  0  1  0  0  0  0  0  0
  -26.9250  -30.2940   24.8150 C   0  0  0  0  0  1  0  0  0  0  0  0
  -27.4830  -32.4690   25.8640 C   0  0  0  0  0  1  0  0  0  0  0  0
  1  2  1  0
  2  3  1  0
  3  4  1  0
  4  5  1  0
  4  7  1  0
  6  4  1  0
  7  8  1  0
  9  8  1  0
  9 10  1  0
 11 19  1  0
 12 17  1  0
 13 14  1  0
 13 12  1  0
 15 14  1  0
 15 24  1  0
 15 16  1  0
 17 11  1  0
 17 16  1  0
 18 11  2  0
 19 10  1  0
 19 20  1  0
 21 22  2  0
 22 41  1  0
 23 22  1  0
 23 26  1  0
 24 21  1  0
 24 25  1  0
 25 23  2  0
 26 27  1  0
 27 28  2  0
 29 32  1  0
 29 28  1  0
 30 29  2  0
 31 30  1  0
 31 26  2  0
 32 33  1  0
 33 34  1  0
 34 35  2  0
 36 35  1  0
 36 40  1  0
 37 36  2  0
 38 33  2  0
 38 37  1  0
 39 38  1  0
 41 42  1  0
 42 45  1  0
 42 44  1  0
 43 41  2  0
 46 47  1  0
 46 21  1  0
 48 46  1  0
 49  1  1  0
 49 50  1  0
 50 51  1  0
 51 54  1  0
 52 51  1  0
 53 51  1  0
 54 55  1  0
 56 58  1  0
 56 55  1  0
 57 68  2  0
 58 63  1  0
 59 67  1  0
 59 69  1  0
 60 62  1  0
 61 67  1  0
 62 63  2  0
 62 61  1  0
 64 58  2  0
 65 64  1  0
 65 60  2  0
 66 60  1  0
 66 59  1  0
 67 57  1  0
 69 71  2  0
 70 69  1  0
 72 70  1  0
 73 82  2  0
 73 78  1  0
 74 70  1  0
 74 78  1  0
 75 74  1  0
 76 77  1  0
 76 75  1  0
 77 73  1  0
 78 79  2  0
 79 80  1  0
 81 80  2  0
 82 81  1  0
 83 57  1  0
 83 84  1  0
 83 93  1  0
 84 87  1  0
 85 89  1  0
 85 84  1  0
 86 85  2  0
 89 88  1  0
 91 89  1  0
 91 92  1  0
 91 90  1  0
 93 96  1  1
 93 94  1  0
 95 93  1  0
M  ISO  4  11 100  19 100  55 101  56 101
M  END
>  <TORSDO>  (87) 
F 28

>  <SCORE>  (87) 
-10.895

>  <name>  (87) 
87

>  <ligand_id>  (87) 
87

>  <original_smiles>  (87) 
[H]c1c([H])c([H])c2c(c1[H])C([H])([H])C([H])([H])C([H])([H])C2([H])N([H])C(=O)C1([H])N(C(=O)C([H])(N([H])C(=O)C([H])(N([H])C([H])([H])[H])C([H])([H])[H])C(C([H])([H])[H])(C([H])([H])[H])C([H])([H])[H])C([H])([H])c2c([H])c(OC([H])([H])C([H])([H])[N+]([H])([H])C([H])([H])C([H])([H])C([H])([H])C([H])([H])C([H])([H])[N+]([H])([H])C([H])([H])C([H])([H])C([H])([H])C([H])([H])N([H])C(=O)N3C([H])([H])C([H])([H])C([H])([H])C([H])(n4nc(-c5c([H])c([H])c(Oc6c([H])c([H])c(F)c([H])c6F)c([H])c5[H])c(C(=O)N([H])[H])c4N([H])[H])C3([H])[H])c([H])c([H])c2C1([H])[H]

>  <smiles>  (87) 
[H]c1c([H])c([H])c2c(c1[H])C([H])([H])C([H])([H])C([H])([H])C2([H])N([H])C(=O)C1([H])N(C(=O)C([H])(N([H])C(=O)C([H])(N([H])C([H])([H])[H])C([H])([H])[H])C(C([H])([H])[H])(C([H])([H])[H])C([H])([H])[H])C([H])([H])c2c([H])c(OC([H])([H])C([H])([H])[N+]([H])([H])C([H])([H])C([H])([H])C([H])([H])C([H])([H])C([H])([H])[N+]([H])([H])C([H])([H])C([H])([H])C([H])([H])C([H])([H])N([H])C(=O)N3C([H])([H])C([H])([H])C([H])([H])C([H])(n4nc(-c5c([H])c([H])c(Oc6c([H])c([H])c(F)c([H])c6F)c([H])c5[H])c(C(=O)N([H])[H])c4N([H])[H])C3([H])[H])c([H])c([H])c2C1([H])[H]

$$$$
88:0:0
     RDKit          3D

 96104  0  0  1  0  0  0  0  0999 V2000
  -31.5960  -22.4820   20.1270 C   0  0  0  0  0  2  0  0  0  0  0  0
  -32.1640  -23.4570   19.0860 C   0  0  0  0  0  2  0  0  0  0  0  0
  -32.2030  -24.9100   19.5720 C   0  0  0  0  0  2  0  0  0  0  0  0
  -30.8680  -25.5350   19.5040 N   0  0  0  0  0  4  0  0  0  0  0  0
  -30.2030  -24.9990   20.0410 H   0  0  0  0  0  0  0  0  0  0  0  0
  -30.5570  -25.5250   18.5460 H   0  0  0  0  0  0  0  0  0  0  0  0
  -30.8330  -26.9250   19.9930 C   0  0  0  0  0  2  0  0  0  0  0  0
  -29.5270  -27.6060   19.5910 C   0  0  0  0  0  2  0  0  0  0  0  0
  -28.4220  -26.8510   20.1010 O   0  0  0  0  0  0  0  0  0  0  0  0
  -24.5300  -31.9150   23.2310 C   0  0  0  0  0  0  0  0  0  0  0  0
  -27.2390  -27.5420   20.1620 C   0  0  0  0  0  0  0  0  0  0  0  0
  -23.3340  -30.4970   21.5880 C   0  0  0  0  0  3  0  0  0  0  0  0
  -24.8040  -28.9640   20.1730 C   0  0  0  0  0  0  0  0  0  0  0  0
  -25.8440  -30.8950   21.3850 C   0  0  0  0  0  2  0  0  0  0  0  0
  -25.9430  -29.5190   20.7670 C   0  0  0  0  0  0  0  0  0  0  0  0
  -27.1540  -28.8080   20.7810 C   0  0  0  0  0  3  0  0  0  0  0  0
  -26.0820  -26.9760   19.5900 C   0  0  0  0  0  3  0  0  0  0  0  0
  -24.8630  -27.6860   19.5880 C   0  0  0  0  0  3  0  0  0  0  0  0
  -23.5490  -29.8060   20.2110 C   0  0  0  0  0  2  0  0  0  0  0  0
  -24.5860  -31.1170   22.1280 N   0  0  0  0  0  0  0  0  0  0  0  0
  -23.4490  -32.1800   23.7730 O   0  0  0  0  0  0  0  0  0  0  0  0
  -22.6950  -29.4740   22.5540 C   0  0  0  0  0  0  0  0  0  0  0  0
  -21.3720  -29.2800   22.4230 N   0  0  0  0  0  0  0  0  0  0  0  0
  -23.3840  -28.8570   23.3700 O   0  0  0  0  0  0  0  0  0  0  0  0
  -20.8800  -29.8320   21.7360 H   0  0  0  0  0  0  0  0  0  0  0  0
  -18.0060  -28.0710   22.9150 C   0  0  0  0  0  0  0  0  0  0  0  0
  -20.5620  -28.3400   23.1940 C   0  0  0  0  0  3  0  0  0  0  0  0
  -20.6710  -26.9080   22.6200 C   0  0  0  0  0  2  0  0  0  0  0  0
  -19.5740  -26.5810   21.6020 C   0  0  0  0  0  2  0  0  0  0  0  0
  -18.1900  -26.7200   22.2440 C   0  0  0  0  0  2  0  0  0  0  0  0
  -19.1210  -28.8380   23.3470 C   0  0  0  0  0  0  0  0  0  0  0  0
  -18.8960  -30.1030   23.9330 C   0  0  0  0  0  3  0  0  0  0  0  0
  -17.5890  -30.6010   24.0930 C   0  0  0  0  0  3  0  0  0  0  0  0
  -16.4900  -29.8300   23.6770 C   0  0  0  0  0  3  0  0  0  0  0  0
  -16.6980  -28.5670   23.0950 C   0  0  0  0  0  3  0  0  0  0  0  0
  -25.8150  -32.5530   23.8490 C   0  0  0  0  0  3  0  0  0  0  0  0
  -25.5010  -33.9500   24.1730 N   0  0  0  0  0  0  0  0  0  0  0  0
  -25.8430  -35.0010   23.4150 C   0  0  0  0  0  0  0  0  0  0  0  0
  -26.5290  -34.8970   22.3950 O   0  0  0  0  0  0  0  0  0  0  0  0
  -24.8910  -34.1050   24.9640 H   0  0  0  0  0  0  0  0  0  0  0  0
  -24.1230  -36.7920   23.0230 C   0  0  0  0  0  1  0  0  0  0  0  0
  -25.3460  -36.3890   23.8620 C   0  0  0  0  0  3  0  0  0  0  0  0
  -27.4640  -37.2700   24.7350 C   0  0  0  0  0  1  0  0  0  0  0  0
  -26.3810  -37.4420   23.7710 N   0  0  0  0  0  0  0  0  0  0  0  0
  -25.9720  -38.3610   23.9150 H   0  0  0  0  0  0  0  0  0  0  0  0
  -26.3420  -31.7870   25.1230 C   0  0  1  0  0  0  0  0  0  0  0  0
  -25.2550  -31.5420   26.1940 C   0  0  0  0  0  1  0  0  0  0  0  0
  -26.9330  -30.4150   24.7240 C   0  0  0  0  0  1  0  0  0  0  0  0
  -27.4900  -32.5890   25.7800 C   0  0  0  0  0  1  0  0  0  0  0  0
  -31.3880  -21.0900   19.5170 C   0  0  0  0  0  2  0  0  0  0  0  0
  -32.0820  -18.3510   22.1200 C   0  0  0  0  0  2  0  0  0  0  0  0
  -29.9600  -17.8390   20.9440 C   0  0  0  0  0  2  0  0  0  0  0  0
  -32.3400  -19.5240   21.1590 C   0  0  0  0  0  2  0  0  0  0  0  0
  -30.2060  -18.9970   19.9680 C   0  0  0  0  0  2  0  0  0  0  0  0
  -31.3060  -17.2500   21.3880 C   0  0  0  0  0  3  0  0  0  0  0  0
  -31.0900  -20.0540   20.5360 N   0  0  2  0  0  4  0  0  0  0  0  0
  -30.5540  -20.4960   21.2680 H   0  0  0  0  0  0  0  0  0  0  0  0
  -31.1810  -15.9570   22.2120 C   0  0  0  0  0  2  0  0  0  0  0  0
  -30.6520  -14.3650   20.3540 C   0  0  0  0  0  0  0  0  0  0  0  0
  -30.1660  -12.4300   18.9120 C   0  0  0  0  0  2  0  0  0  0  0  0
  -29.1600  -12.7420   17.7890 C   0  0  0  0  0  2  0  0  0  0  0  0
  -27.7160  -12.5700   18.2920 C   0  0  0  0  0  2  0  0  0  0  0  0
  -27.4590  -13.3220   19.6240 C   0  0  0  0  0  3  0  0  0  0  0  0
  -28.5570  -12.9950   20.6570 C   0  0  0  0  0  2  0  0  0  0  0  0
  -29.8730  -13.2950   20.0620 N   0  0  0  0  0  0  0  0  0  0  0  0
  -31.5950  -14.7320   19.6460 O   0  0  0  0  0  0  0  0  0  0  0  0
  -30.3880  -14.9300   21.5390 N   0  0  0  0  0  0  0  0  0  0  0  0
  -29.6160  -14.5340   22.0560 H   0  0  0  0  0  0  0  0  0  0  0  0
  -25.0810  -13.8970   20.4310 C   0  0  0  0  0  0  0  0  0  0  0  0
  -24.0370  -13.1070   20.8360 C   0  0  0  0  0  0  0  0  0  0  0  0
  -24.5170  -11.7610   20.7760 C   0  0  0  0  0  0  0  0  0  0  0  0
  -26.1270  -13.0320   20.1500 N   0  0  0  0  0  0  0  0  0  0  0  0
  -25.7910  -11.7430   20.4120 N   0  0  0  0  0  0  0  0  0  0  0  0
  -23.8190  -10.4860   20.9860 C   0  0  0  0  0  0  0  0  0  0  0  0
  -24.2940   -9.5280   21.9090 C   0  0  0  0  0  3  0  0  0  0  0  0
  -23.5960   -8.3170   22.1050 C   0  0  0  0  0  3  0  0  0  0  0  0
  -22.4100   -8.0550   21.3790 C   0  0  0  0  0  0  0  0  0  0  0  0
  -21.9530   -9.0030   20.4450 C   0  0  0  0  0  3  0  0  0  0  0  0
  -22.6520  -10.2060   20.2470 C   0  0  0  0  0  3  0  0  0  0  0  0
  -21.6820   -6.8950   21.4840 O   0  0  0  0  0  0  0  0  0  0  0  0
  -21.6670   -6.1570   22.6390 C   0  0  0  0  0  0  0  0  0  0  0  0
  -21.2680   -6.7130   23.8750 C   0  0  0  0  0  3  0  0  0  0  0  0
  -21.2030   -5.8990   25.0230 C   0  0  0  0  0  3  0  0  0  0  0  0
  -21.5250   -4.5320   24.9370 C   0  0  0  0  0  0  0  0  0  0  0  0
  -21.9180   -3.9760   23.7070 C   0  0  0  0  0  3  0  0  0  0  0  0
  -21.9850   -4.7870   22.5620 C   0  0  0  0  0  0  0  0  0  0  0  0
  -22.3440   -4.2430   21.3730 F   0  0  0  0  0  0  0  0  0  0  0  0
  -21.4540   -3.7480   26.0380 F   0  0  0  0  0  0  0  0  0  0  0  0
  -22.6450  -13.5610   21.1690 C   0  0  0  0  0  0  0  0  0  0  0  0
  -21.9620  -12.8450   22.0550 N   0  0  0  0  0  0  0  0  0  0  0  0
  -22.1730  -14.5870   20.6810 O   0  0  0  0  0  0  0  0  0  0  0  0
  -22.3590  -12.0190   22.4770 H   0  0  0  0  0  0  0  0  0  0  0  0
  -21.0280  -13.1320   22.3170 H   0  0  0  0  0  0  0  0  0  0  0  0
  -25.2230  -15.2710   20.2610 N   0  0  0  0  0  0  0  0  0  0  0  0
  -24.4640  -15.9240   20.4210 H   0  0  0  0  0  0  0  0  0  0  0  0
  -26.0660  -15.7220   19.9270 H   0  0  0  0  0  0  0  0  0  0  0  0
  2  3  1  0
  2  1  1  0
  4  3  1  0
  4  7  1  0
  4  5  1  0
  6  4  1  0
  8  7  1  0
  8  9  1  0
  9 11  1  0
 10 21  2  0
 11 16  1  0
 12 20  1  0
 12 22  1  0
 13 19  1  0
 13 15  1  0
 14 20  1  0
 15 16  2  0
 15 14  1  0
 17 11  2  0
 18 17  1  0
 18 13  2  0
 19 12  1  0
 20 10  1  0
 22 24  2  0
 23 22  1  0
 25 23  1  0
 26 35  2  0
 26 31  1  0
 27 23  1  0
 27 31  1  0
 28 27  1  0
 29 30  1  0
 29 28  1  0
 30 26  1  0
 31 32  2  0
 32 33  1  0
 34 33  2  0
 35 34  1  0
 36 10  1  0
 36 37  1  0
 36 46  1  0
 37 40  1  0
 38 42  1  0
 38 37  1  0
 39 38  2  0
 42 41  1  0
 44 42  1  0
 44 45  1  0
 44 43  1  0
 46 49  1  1
 46 47  1  0
 48 46  1  0
 50  1  1  0
 50 56  1  0
 52 55  1  0
 53 51  1  0
 54 56  1  0
 54 52  1  0
 55 51  1  0
 55 58  1  0
 56 53  1  0
 56 57  1  1
 59 67  1  0
 60 65  1  0
 61 62  1  0
 61 60  1  0
 63 62  1  0
 63 72  1  0
 63 64  1  0
 65 59  1  0
 65 64  1  0
 66 59  2  0
 67 68  1  0
 67 58  1  0
 69 70  2  0
 70 89  1  0
 71 70  1  0
 71 74  1  0
 72 73  1  0
 72 69  1  0
 73 71  2  0
 74 75  1  0
 75 76  2  0
 77 80  1  0
 77 76  1  0
 78 77  2  0
 79 78  1  0
 79 74  2  0
 80 81  1  0
 81 82  1  0
 82 83  2  0
 84 83  1  0
 84 88  1  0
 85 84  2  0
 86 81  2  0
 86 85  1  0
 87 86  1  0
 89 90  1  0
 90 93  1  0
 90 92  1  0
 91 89  2  0
 94 95  1  0
 94 69  1  0
 96 94  1  0
M  ISO  4   8 101   9 101  59 100  67 100
M  END
>  <TORSDO>  (88) 
F 24

>  <SCORE>  (88) 
-11.820

>  <name>  (88) 
88

>  <ligand_id>  (88) 
88

>  <original_smiles>  (88) 
[H]c1c([H])c([H])c2c(c1[H])C([H])([H])C([H])([H])C([H])([H])C2([H])N([H])C(=O)C1([H])N(C(=O)C([H])(N([H])C(=O)C([H])(N([H])C([H])([H])[H])C([H])([H])[H])C(C([H])([H])[H])(C([H])([H])[H])C([H])([H])[H])C([H])([H])c2c([H])c(OC([H])([H])C([H])([H])[N+]([H])([H])C([H])([H])C([H])([H])C([H])([H])C([H])([H])[N+]3([H])C([H])([H])C([H])([H])C([H])(C([H])([H])N([H])C(=O)N4C([H])([H])C([H])([H])C([H])([H])C([H])(n5nc(-c6c([H])c([H])c(Oc7c([H])c([H])c(F)c([H])c7F)c([H])c6[H])c(C(=O)N([H])[H])c5N([H])[H])C4([H])[H])C([H])([H])C3([H])[H])c([H])c([H])c2C1([H])[H]

>  <smiles>  (88) 
[H]c1c([H])c([H])c2c(c1[H])C([H])([H])C([H])([H])C([H])([H])C2([H])N([H])C(=O)C1([H])N(C(=O)C([H])(N([H])C(=O)C([H])(N([H])C([H])([H])[H])C([H])([H])[H])C(C([H])([H])[H])(C([H])([H])[H])C([H])([H])[H])C([H])([H])c2c([H])c(OC([H])([H])C([H])([H])[N+]([H])([H])C([H])([H])C([H])([H])C([H])([H])C([H])([H])[N+]3([H])C([H])([H])C([H])([H])C([H])(C([H])([H])N([H])C(=O)N4C([H])([H])C([H])([H])C([H])([H])C([H])(n5nc(-c6c([H])c([H])c(Oc7c([H])c([H])c(F)c([H])c7F)c([H])c6[H])c(C(=O)N([H])[H])c5N([H])[H])C4([H])[H])C([H])([H])C3([H])[H])c([H])c([H])c2C1([H])[H]

$$$$
89:0:0
     RDKit          3D

 96104  0  0  1  0  0  0  0  0999 V2000
  -27.1240  -21.2790   20.3170 C   0  0  0  0  0  2  0  0  0  0  0  0
  -28.0580  -20.2100   19.6860 C   0  0  0  0  0  2  0  0  0  0  0  0
  -28.3310  -19.0060   20.5310 N   0  0  0  0  0  4  0  0  0  0  0  0
  -27.4440  -18.5930   20.7720 H   0  0  0  0  0  0  0  0  0  0  0  0
  -28.7810  -19.2850   21.3870 H   0  0  0  0  0  0  0  0  0  0  0  0
  -31.0090  -14.6900   20.1940 C   0  0  0  0  0  0  0  0  0  0  0  0
  -30.5720  -12.5350   19.0950 C   0  0  0  0  0  2  0  0  0  0  0  0
  -29.6230  -12.6970   17.8960 C   0  0  0  0  0  2  0  0  0  0  0  0
  -28.1640  -12.5500   18.3620 C   0  0  0  0  0  2  0  0  0  0  0  0
  -27.8400  -13.4280   19.5970 C   0  0  0  0  0  3  0  0  0  0  0  0
  -28.9230  -13.3130   20.6950 C   0  0  0  0  0  2  0  0  0  0  0  0
  -30.2150  -13.5910   20.0600 N   0  0  0  0  0  0  0  0  0  0  0  0
  -32.2110  -14.6030   19.9430 O   0  0  0  0  0  0  0  0  0  0  0  0
  -31.3180  -17.0010   19.4990 C   0  0  0  0  0  2  0  0  0  0  0  0
  -29.2760  -16.6030   20.6410 C   0  0  0  0  0  2  0  0  0  0  0  0
  -30.6370  -18.3450   19.7230 C   0  0  0  0  0  3  0  0  0  0  0  0
  -29.1660  -17.9580   19.8790 C   0  0  0  0  0  3  0  0  0  0  0  0
  -30.4660  -15.9420   20.0720 N   0  0  0  0  0  0  0  0  0  0  0  0
  -25.4660  -14.0390   20.3680 C   0  0  0  0  0  0  0  0  0  0  0  0
  -24.4060  -13.2670   20.7590 C   0  0  0  0  0  0  0  0  0  0  0  0
  -24.8660  -11.9150   20.7240 C   0  0  0  0  0  0  0  0  0  0  0  0
  -26.5040  -13.1550   20.1170 N   0  0  0  0  0  0  0  0  0  0  0  0
  -26.1520  -11.8750   20.3970 N   0  0  0  0  0  0  0  0  0  0  0  0
  -24.1440  -10.6540   20.9220 C   0  0  0  0  0  0  0  0  0  0  0  0
  -24.5490   -9.7170   21.8990 C   0  0  0  0  0  3  0  0  0  0  0  0
  -23.8260   -8.5190   22.0830 C   0  0  0  0  0  3  0  0  0  0  0  0
  -22.6850   -8.2480   21.2900 C   0  0  0  0  0  0  0  0  0  0  0  0
  -22.3030   -9.1730   20.3010 C   0  0  0  0  0  3  0  0  0  0  0  0
  -23.0270  -10.3620   20.1150 C   0  0  0  0  0  3  0  0  0  0  0  0
  -21.9370   -7.0990   21.3820 O   0  0  0  0  0  0  0  0  0  0  0  0
  -21.8040   -6.4200   22.5660 C   0  0  0  0  0  0  0  0  0  0  0  0
  -21.2310   -7.0200   23.7080 C   0  0  0  0  0  3  0  0  0  0  0  0
  -21.0500   -6.2640   24.8840 C   0  0  0  0  0  3  0  0  0  0  0  0
  -21.4340   -4.9090   24.9170 C   0  0  0  0  0  0  0  0  0  0  0  0
  -21.9990   -4.3100   23.7780 C   0  0  0  0  0  3  0  0  0  0  0  0
  -22.1820   -5.0630   22.6050 C   0  0  0  0  0  0  0  0  0  0  0  0
  -22.7080   -4.4740   21.5030 F   0  0  0  0  0  0  0  0  0  0  0  0
  -21.2530   -4.1800   26.0420 F   0  0  0  0  0  0  0  0  0  0  0  0
  -23.0130  -13.7450   21.0500 C   0  0  0  0  0  0  0  0  0  0  0  0
  -22.2950  -13.0440   21.9210 N   0  0  0  0  0  0  0  0  0  0  0  0
  -22.5710  -14.7740   20.5390 O   0  0  0  0  0  0  0  0  0  0  0  0
  -22.6660  -12.2110   22.3500 H   0  0  0  0  0  0  0  0  0  0  0  0
  -21.3620  -13.3450   22.1610 H   0  0  0  0  0  0  0  0  0  0  0  0
  -25.6250  -15.4080   20.1720 N   0  0  0  0  0  0  0  0  0  0  0  0
  -24.8290  -16.0370   20.2220 H   0  0  0  0  0  0  0  0  0  0  0  0
  -26.4140  -15.8000   19.6780 H   0  0  0  0  0  0  0  0  0  0  0  0
  -30.9670  -19.2080   18.5970 N   0  0  0  0  0  0  0  0  0  0  0  0
  -30.5810  -18.8420   17.7320 H   0  0  0  0  0  0  0  0  0  0  0  0
  -30.5740  -20.1360   18.6980 H   0  0  0  0  0  0  0  0  0  0  0  0
  -27.7540  -22.2020   21.3940 C   0  0  0  0  0  2  0  0  0  0  0  0
  -28.6260  -23.2940   20.8800 N   0  0  0  0  0  4  0  0  0  0  0  0
  -29.3000  -22.9490   20.2120 H   0  0  0  0  0  0  0  0  0  0  0  0
  -29.1640  -23.6050   21.6740 H   0  0  0  0  0  0  0  0  0  0  0  0
  -27.9530  -24.5030   20.3280 C   0  0  0  0  0  2  0  0  0  0  0  0
  -28.5830  -25.8040   20.8920 C   0  0  0  0  0  2  0  0  0  0  0  0
  -28.4660  -26.9480   20.0410 O   0  0  0  0  0  0  0  0  0  0  0  0
  -24.5270  -31.9770   23.2180 C   0  0  0  0  0  0  0  0  0  0  0  0
  -27.2790  -27.6350   20.1030 C   0  0  0  0  0  0  0  0  0  0  0  0
  -23.3640  -30.5780   21.5410 C   0  0  0  0  0  3  0  0  0  0  0  0
  -24.8590  -29.0850   20.1150 C   0  0  0  0  0  0  0  0  0  0  0  0
  -25.8840  -30.9860   21.3780 C   0  0  0  0  0  2  0  0  0  0  0  0
  -25.9990  -29.6250   20.7250 C   0  0  0  0  0  0  0  0  0  0  0  0
  -27.2150  -28.9060   20.7160 C   0  0  0  0  0  3  0  0  0  0  0  0
  -26.1260  -27.1070   19.4870 C   0  0  0  0  0  3  0  0  0  0  0  0
  -24.9160  -27.8240   19.4970 C   0  0  0  0  0  3  0  0  0  0  0  0
  -23.6000  -29.9210   20.1540 C   0  0  0  0  0  2  0  0  0  0  0  0
  -24.6100  -31.1950   22.1030 N   0  0  0  0  0  0  0  0  0  0  0  0
  -23.4350  -32.2220   23.7490 O   0  0  0  0  0  0  0  0  0  0  0  0
  -22.7200  -29.5320   22.4790 C   0  0  0  0  0  0  0  0  0  0  0  0
  -21.3950  -29.3460   22.3500 N   0  0  0  0  0  0  0  0  0  0  0  0
  -23.4100  -28.8910   23.2760 O   0  0  0  0  0  0  0  0  0  0  0  0
  -20.9020  -29.9170   21.6780 H   0  0  0  0  0  0  0  0  0  0  0  0
  -18.0240  -28.1520   22.8490 C   0  0  0  0  0  0  0  0  0  0  0  0
  -20.5850  -28.3870   23.0980 C   0  0  0  0  0  3  0  0  0  0  0  0
  -20.6730  -26.9740   22.4750 C   0  0  0  0  0  2  0  0  0  0  0  0
  -19.5580  -26.6900   21.4640 C   0  0  0  0  0  2  0  0  0  0  0  0
  -18.1850  -26.8230   22.1280 C   0  0  0  0  0  2  0  0  0  0  0  0
  -19.1530  -28.8930   23.2900 C   0  0  0  0  0  0  0  0  0  0  0  0
  -18.9470  -30.1380   23.9240 C   0  0  0  0  0  3  0  0  0  0  0  0
  -17.6480  -30.6410   24.1200 C   0  0  0  0  0  3  0  0  0  0  0  0
  -16.5340  -29.8970   23.6940 C   0  0  0  0  0  3  0  0  0  0  0  0
  -16.7240  -28.6530   23.0640 C   0  0  0  0  0  3  0  0  0  0  0  0
  -25.7970  -32.6200   23.8600 C   0  0  0  0  0  3  0  0  0  0  0  0
  -25.4700  -34.0160   24.1800 N   0  0  0  0  0  0  0  0  0  0  0  0
  -25.8110  -35.0680   23.4250 C   0  0  0  0  0  0  0  0  0  0  0  0
  -26.5050  -34.9660   22.4090 O   0  0  0  0  0  0  0  0  0  0  0  0
  -24.8570  -34.1680   24.9680 H   0  0  0  0  0  0  0  0  0  0  0  0
  -24.0930  -36.8560   23.0060 C   0  0  0  0  0  1  0  0  0  0  0  0
  -25.3010  -36.4530   23.8660 C   0  0  0  0  0  3  0  0  0  0  0  0
  -27.3920  -37.3470   24.7930 C   0  0  0  0  0  1  0  0  0  0  0  0
  -26.3340  -37.5090   23.7980 N   0  0  0  0  0  0  0  0  0  0  0  0
  -25.9190  -38.4290   23.9230 H   0  0  0  0  0  0  0  0  0  0  0  0
  -26.2990  -31.8540   25.1450 C   0  0  1  0  0  0  0  0  0  0  0  0
  -25.1880  -31.6020   26.1910 C   0  0  0  0  0  1  0  0  0  0  0  0
  -26.9050  -30.4850   24.7620 C   0  0  0  0  0  1  0  0  0  0  0  0
  -27.4260  -32.6610   25.8290 C   0  0  0  0  0  1  0  0  0  0  0  0
  1 50  1  0
  2  1  1  0
  2  3  1  0
  3  4  1  0
  3  5  1  0
  7 12  1  0
  8  9  1  0
  8  7  1  0
 10  9  1  0
 10 22  1  0
 10 11  1  0
 12  6  1  0
 12 11  1  0
 13  6  2  0
 14 16  1  0
 14 18  1  0
 16 47  1  0
 16 17  1  0
 17  3  1  0
 17 15  1  0
 18  6  1  0
 18 15  1  0
 19 20  2  0
 20 39  1  0
 21 20  1  0
 21 24  1  0
 22 19  1  0
 22 23  1  0
 23 21  2  0
 24 25  1  0
 25 26  2  0
 27 30  1  0
 27 26  1  0
 28 27  2  0
 29 28  1  0
 29 24  2  0
 30 31  1  0
 31 36  2  0
 31 32  1  0
 32 33  2  0
 33 34  1  0
 34 38  1  0
 35 34  2  0
 36 35  1  0
 37 36  1  0
 39 40  1  0
 40 43  1  0
 40 42  1  0
 41 39  2  0
 44 45  1  0
 44 19  1  0
 46 44  1  0
 47 49  1  0
 48 47  1  0
 51 50  1  0
 51 53  1  0
 52 51  1  0
 54 51  1  0
 54 55  1  0
 56 58  1  0
 56 55  1  0
 57 68  2  0
 58 63  1  0
 59 67  1  0
 59 69  1  0
 60 66  1  0
 60 62  1  0
 61 67  1  0
 62 61  1  0
 63 62  2  0
 64 65  1  0
 64 58  2  0
 65 60  2  0
 66 59  1  0
 67 57  1  0
 69 71  2  0
 70 69  1  0
 72 70  1  0
 73 82  2  0
 73 78  1  0
 74 70  1  0
 74 78  1  0
 75 74  1  0
 76 77  1  0
 76 75  1  0
 77 73  1  0
 78 79  2  0
 79 80  1  0
 81 80  2  0
 82 81  1  0
 83 57  1  0
 83 84  1  0
 83 93  1  0
 84 87  1  0
 85 89  1  0
 85 84  1  0
 86 85  2  0
 89 88  1  0
 91 89  1  0
 91 92  1  0
 91 90  1  0
 93 96  1  1
 93 94  1  0
 95 93  1  0
M  ISO  4   6 100  18 100  55 101  56 101
M  END
>  <TORSDO>  (89) 
F 23

>  <SCORE>  (89) 
-12.606

>  <name>  (89) 
89

>  <ligand_id>  (89) 
89

>  <original_smiles>  (89) 
[H]c1c([H])c([H])c2c(c1[H])C([H])([H])C([H])([H])C([H])([H])C2([H])N([H])C(=O)C1([H])N(C(=O)C([H])(N([H])C(=O)C([H])(N([H])C([H])([H])[H])C([H])([H])[H])C(C([H])([H])[H])(C([H])([H])[H])C([H])([H])[H])C([H])([H])c2c([H])c(OC([H])([H])C([H])([H])[N+]([H])([H])C([H])([H])C([H])([H])C([H])([H])[N+]([H])([H])C3([H])C([H])([H])N(C(=O)N4C([H])([H])C([H])([H])C([H])([H])C([H])(n5nc(-c6c([H])c([H])c(Oc7c([H])c([H])c(F)c([H])c7F)c([H])c6[H])c(C(=O)N([H])[H])c5N([H])[H])C4([H])[H])C([H])([H])C3([H])N([H])[H])c([H])c([H])c2C1([H])[H]

>  <smiles>  (89) 
[H]c1c([H])c([H])c2c(c1[H])C([H])([H])C([H])([H])C([H])([H])C2([H])N([H])C(=O)C1([H])N(C(=O)C([H])(N([H])C(=O)C([H])(N([H])C([H])([H])[H])C([H])([H])[H])C(C([H])([H])[H])(C([H])([H])[H])C([H])([H])[H])C([H])([H])c2c([H])c(OC([H])([H])C([H])([H])[N+]([H])([H])C([H])([H])C([H])([H])C([H])([H])[N+]([H])([H])C3([H])C([H])([H])N(C(=O)N4C([H])([H])C([H])([H])C([H])([H])C([H])(n5nc(-c6c([H])c([H])c(Oc7c([H])c([H])c(F)c([H])c7F)c([H])c6[H])c(C(=O)N([H])[H])c5N([H])[H])C4([H])[H])C([H])([H])C3([H])N([H])[H])c([H])c([H])c2C1([H])[H]

$$$$
90:0:0
     RDKit          3D

 91 99  0  0  1  0  0  0  0  0999 V2000
  -29.8850  -20.6750   21.3250 C   0  0  0  0  0  2  0  0  0  0  0  0
  -30.8740  -19.6160   20.9940 N   0  0  0  0  0  4  0  0  0  0  0  0
  -30.9920  -19.5680   19.9950 H   0  0  0  0  0  0  0  0  0  0  0  0
  -31.7580  -19.9010   21.3860 H   0  0  0  0  0  0  0  0  0  0  0  0
  -30.6830  -14.4780   20.1810 C   0  0  0  0  0  0  0  0  0  0  0  0
  -30.2550  -12.3920   18.9220 C   0  0  0  0  0  2  0  0  0  0  0  0
  -29.2540  -12.6240   17.7740 C   0  0  0  0  0  2  0  0  0  0  0  0
  -27.8080  -12.4510   18.2750 C   0  0  0  0  0  2  0  0  0  0  0  0
  -27.5340  -13.2570   19.5700 C   0  0  0  0  0  3  0  0  0  0  0  0
  -28.6460  -13.0160   20.6220 C   0  0  0  0  0  2  0  0  0  0  0  0
  -29.9450  -13.3410   20.0080 N   0  0  0  0  0  0  0  0  0  0  0  0
  -31.7010  -14.6970   19.5160 O   0  0  0  0  0  0  0  0  0  0  0  0
  -31.7960  -17.3400   21.5370 C   0  0  0  0  0  2  0  0  0  0  0  0
  -29.4240  -17.5570   20.7420 C   0  0  0  0  0  2  0  0  0  0  0  0
  -31.4490  -15.9110   22.0290 C   0  0  0  0  0  2  0  0  0  0  0  0
  -29.1620  -16.1280   21.2700 C   0  0  0  0  0  2  0  0  0  0  0  0
  -30.5560  -18.2610   21.5260 C   0  0  0  0  0  3  0  0  0  0  0  0
  -30.3780  -15.2950   21.2240 N   0  0  0  0  0  0  0  0  0  0  0  0
  -25.1710  -13.8470   20.4050 C   0  0  0  0  0  0  0  0  0  0  0  0
  -24.1240  -13.0630   20.8130 C   0  0  0  0  0  0  0  0  0  0  0  0
  -24.5890  -11.7140   20.7360 C   0  0  0  0  0  0  0  0  0  0  0  0
  -26.2070  -12.9730   20.1110 N   0  0  0  0  0  0  0  0  0  0  0  0
  -25.8620  -11.6850   20.3650 N   0  0  0  0  0  0  0  0  0  0  0  0
  -23.8780  -10.4460   20.9380 C   0  0  0  0  0  0  0  0  0  0  0  0
  -24.3330   -9.4840   21.8670 C   0  0  0  0  0  3  0  0  0  0  0  0
  -23.6240   -8.2790   22.0560 C   0  0  0  0  0  3  0  0  0  0  0  0
  -22.4440   -8.0270   21.3150 C   0  0  0  0  0  0  0  0  0  0  0  0
  -22.0090   -8.9770   20.3740 C   0  0  0  0  0  3  0  0  0  0  0  0
  -22.7200  -10.1730   20.1830 C   0  0  0  0  0  3  0  0  0  0  0  0
  -21.7040   -6.8740   21.4140 O   0  0  0  0  0  0  0  0  0  0  0  0
  -21.6650   -6.1410   22.5730 C   0  0  0  0  0  0  0  0  0  0  0  0
  -21.2210   -6.6980   23.7920 C   0  0  0  0  0  3  0  0  0  0  0  0
  -21.1310   -5.8900   24.9430 C   0  0  0  0  0  3  0  0  0  0  0  0
  -21.4760   -4.5260   24.8750 C   0  0  0  0  0  0  0  0  0  0  0  0
  -21.9120   -3.9690   23.6600 C   0  0  0  0  0  3  0  0  0  0  0  0
  -22.0040   -4.7750   22.5120 C   0  0  0  0  0  0  0  0  0  0  0  0
  -22.4050   -4.2280   21.3390 F   0  0  0  0  0  0  0  0  0  0  0  0
  -21.3830   -3.7470   25.9780 F   0  0  0  0  0  0  0  0  0  0  0  0
  -22.7400  -13.5290   21.1610 C   0  0  0  0  0  0  0  0  0  0  0  0
  -22.0530  -12.8050   22.0380 N   0  0  0  0  0  0  0  0  0  0  0  0
  -22.2770  -14.5670   20.6920 O   0  0  0  0  0  0  0  0  0  0  0  0
  -22.4410  -11.9630   22.4380 H   0  0  0  0  0  0  0  0  0  0  0  0
  -21.1240  -13.0950   22.3120 H   0  0  0  0  0  0  0  0  0  0  0  0
  -25.3210  -15.2200   20.2420 N   0  0  0  0  0  0  0  0  0  0  0  0
  -24.5560  -15.8670   20.3970 H   0  0  0  0  0  0  0  0  0  0  0  0
  -26.1490  -15.6670   19.8710 H   0  0  0  0  0  0  0  0  0  0  0  0
  -30.3120  -22.0950   20.8710 C   0  0  0  0  0  2  0  0  0  0  0  0
  -29.1940  -23.1340   21.1110 C   0  0  0  0  0  2  0  0  0  0  0  0
  -29.4940  -24.5770   20.6400 C   0  0  0  0  0  2  0  0  0  0  0  0
  -28.2220  -25.4450   20.6970 C   0  0  0  0  0  2  0  0  0  0  0  0
  -28.4030  -26.7890   20.2250 O   0  0  0  0  0  0  0  0  0  0  0  0
  -24.5900  -31.9910   23.2420 C   0  0  0  0  0  0  0  0  0  0  0  0
  -27.2390  -27.5310   20.1990 C   0  0  0  0  0  0  0  0  0  0  0  0
  -23.3840  -30.5720   21.6160 C   0  0  0  0  0  3  0  0  0  0  0  0
  -24.8390  -29.0280   20.2010 C   0  0  0  0  0  0  0  0  0  0  0  0
  -25.9080  -30.9370   21.4070 C   0  0  0  0  0  2  0  0  0  0  0  0
  -25.9980  -29.5610   20.7800 C   0  0  0  0  0  0  0  0  0  0  0  0
  -27.2020  -28.8210   20.7740 C   0  0  0  0  0  3  0  0  0  0  0  0
  -26.0650  -27.0200   19.5990 C   0  0  0  0  0  3  0  0  0  0  0  0
  -24.8680  -27.7570   19.6070 C   0  0  0  0  0  3  0  0  0  0  0  0
  -23.5920  -29.8810   20.2410 C   0  0  0  0  0  2  0  0  0  0  0  0
  -24.6460  -31.1810   22.1460 N   0  0  0  0  0  0  0  0  0  0  0  0
  -23.5100  -32.2650   23.7820 O   0  0  0  0  0  0  0  0  0  0  0  0
  -22.7390  -29.5560   22.5860 C   0  0  0  0  0  0  0  0  0  0  0  0
  -21.4130  -29.3750   22.4680 N   0  0  0  0  0  0  0  0  0  0  0  0
  -23.4270  -28.9340   23.4000 O   0  0  0  0  0  0  0  0  0  0  0  0
  -20.9190  -29.9270   21.7810 H   0  0  0  0  0  0  0  0  0  0  0  0
  -18.0380  -28.1980   23.0000 C   0  0  0  0  0  0  0  0  0  0  0  0
  -20.6000  -28.4440   23.2510 C   0  0  0  0  0  3  0  0  0  0  0  0
  -20.6910  -27.0110   22.6800 C   0  0  0  0  0  2  0  0  0  0  0  0
  -19.5800  -26.6890   21.6770 C   0  0  0  0  0  2  0  0  0  0  0  0
  -18.2040  -26.8450   22.3300 C   0  0  0  0  0  2  0  0  0  0  0  0
  -19.1640  -28.9560   23.4180 C   0  0  0  0  0  0  0  0  0  0  0  0
  -18.9560  -30.2240   24.0030 C   0  0  0  0  0  3  0  0  0  0  0  0
  -17.6550  -30.7340   24.1750 C   0  0  0  0  0  3  0  0  0  0  0  0
  -16.5440  -29.9720   23.7740 C   0  0  0  0  0  3  0  0  0  0  0  0
  -16.7360  -28.7070   23.1910 C   0  0  0  0  0  3  0  0  0  0  0  0
  -25.8770  -32.6300   23.8520 C   0  0  0  0  0  3  0  0  0  0  0  0
  -25.5680  -34.0300   24.1680 N   0  0  0  0  0  0  0  0  0  0  0  0
  -25.9210  -35.0760   23.4080 C   0  0  0  0  0  0  0  0  0  0  0  0
  -26.6120  -34.9640   22.3930 O   0  0  0  0  0  0  0  0  0  0  0  0
  -24.9580  -34.1920   24.9560 H   0  0  0  0  0  0  0  0  0  0  0  0
  -24.2240  -36.8820   22.9820 C   0  0  0  0  0  1  0  0  0  0  0  0
  -25.4270  -36.4680   23.8440 C   0  0  0  0  0  3  0  0  0  0  0  0
  -27.5340  -37.3310   24.7620 C   0  0  0  0  0  1  0  0  0  0  0  0
  -26.4720  -37.5120   23.7760 N   0  0  0  0  0  0  0  0  0  0  0  0
  -26.0690  -38.4350   23.9120 H   0  0  0  0  0  0  0  0  0  0  0  0
  -26.4020  -31.8700   25.1310 C   0  0  1  0  0  0  0  0  0  0  0  0
  -25.3120  -31.6310   26.2020 C   0  0  0  0  0  1  0  0  0  0  0  0
  -26.9920  -30.4940   24.7440 C   0  0  0  0  0  1  0  0  0  0  0  0
  -27.5490  -32.6750   25.7870 C   0  0  0  0  0  1  0  0  0  0  0  0
  2  1  1  0
  2  4  1  0
  3  2  1  0
  5 18  1  0
  6 11  1  0
  7  8  1  0
  7  6  1  0
  9  8  1  0
  9 22  1  0
  9 10  1  0
 11  5  1  0
 11 10  1  0
 12  5  2  0
 13 15  1  0
 14 16  1  0
 14 17  1  0
 17  2  1  0
 17 13  1  0
 18 16  1  0
 18 15  1  0
 19 20  2  0
 20 39  1  0
 21 20  1  0
 21 24  1  0
 22 23  1  0
 22 19  1  0
 23 21  2  0
 24 25  1  0
 25 26  2  0
 27 30  1  0
 27 26  1  0
 28 27  2  0
 29 28  1  0
 29 24  2  0
 30 31  1  0
 31 32  1  0
 32 33  2  0
 34 33  1  0
 34 38  1  0
 35 34  2  0
 36 31  2  0
 36 35  1  0
 37 36  1  0
 39 40  1  0
 40 43  1  0
 40 42  1  0
 41 39  2  0
 44 45  1  0
 44 19  1  0
 46 44  1  0
 47 48  1  0
 47  1  1  0
 49 50  1  0
 49 48  1  0
 51 50  1  0
 52 63  2  0
 53 51  1  0
 53 58  1  0
 54 62  1  0
 54 64  1  0
 55 61  1  0
 55 57  1  0
 56 62  1  0
 57 56  1  0
 58 57  2  0
 59 60  1  0
 59 53  2  0
 60 55  2  0
 61 54  1  0
 62 52  1  0
 64 66  2  0
 65 64  1  0
 67 65  1  0
 68 77  2  0
 68 73  1  0
 69 65  1  0
 69 73  1  0
 70 69  1  0
 71 72  1  0
 71 70  1  0
 72 68  1  0
 73 74  2  0
 74 75  1  0
 76 75  2  0
 77 76  1  0
 78 52  1  0
 78 79  1  0
 78 88  1  0
 79 82  1  0
 80 84  1  0
 80 79  1  0
 81 80  2  0
 84 83  1  0
 86 84  1  0
 86 87  1  0
 86 85  1  0
 88 91  1  1
 88 89  1  0
 90 88  1  0
M  ISO  4   5 100  18 100  50 101  51 101
M  END
>  <TORSDO>  (90) 
F 21

>  <SCORE>  (90) 
-12.621

>  <name>  (90) 
90

>  <ligand_id>  (90) 
90

>  <original_smiles>  (90) 
[H]c1c([H])c([H])c2c(c1[H])C([H])([H])C([H])([H])C([H])([H])C2([H])N([H])C(=O)C1([H])N(C(=O)C([H])(N([H])C(=O)C([H])(N([H])C([H])([H])[H])C([H])([H])[H])C(C([H])([H])[H])(C([H])([H])[H])C([H])([H])[H])C([H])([H])c2c([H])c(OC([H])([H])C([H])([H])C([H])([H])C([H])([H])C([H])([H])[N+]([H])([H])C3([H])C([H])([H])C([H])([H])N(C(=O)N4C([H])([H])C([H])([H])C([H])([H])C([H])(n5nc(-c6c([H])c([H])c(Oc7c([H])c([H])c(F)c([H])c7F)c([H])c6[H])c(C(=O)N([H])[H])c5N([H])[H])C4([H])[H])C([H])([H])C3([H])[H])c([H])c([H])c2C1([H])[H]

>  <smiles>  (90) 
[H]c1c([H])c([H])c2c(c1[H])C([H])([H])C([H])([H])C([H])([H])C2([H])N([H])C(=O)C1([H])N(C(=O)C([H])(N([H])C(=O)C([H])(N([H])C([H])([H])[H])C([H])([H])[H])C(C([H])([H])[H])(C([H])([H])[H])C([H])([H])[H])C([H])([H])c2c([H])c(OC([H])([H])C([H])([H])C([H])([H])C([H])([H])C([H])([H])[N+]([H])([H])C3([H])C([H])([H])C([H])([H])N(C(=O)N4C([H])([H])C([H])([H])C([H])([H])C([H])(n5nc(-c6c([H])c([H])c(Oc7c([H])c([H])c(F)c([H])c7F)c([H])c6[H])c(C(=O)N([H])[H])c5N([H])[H])C4([H])[H])C([H])([H])C3([H])[H])c([H])c([H])c2C1([H])[H]

$$$$
91:0:0
     RDKit          3D

 95103  0  0  1  0  0  0  0  0999 V2000
  -29.7500  -19.1730   21.3330 C   0  0  0  0  0  0  0  0  0  0  0  0
  -29.1750  -20.3980   21.3870 N   0  0  0  0  0  0  0  0  0  0  0  0
  -30.9320  -19.0010   21.6160 O   0  0  0  0  0  0  0  0  0  0  0  0
  -28.1770  -20.4200   21.2340 H   0  0  0  0  0  0  0  0  0  0  0  0
  -27.9520  -18.5080   19.6360 C   0  0  0  0  0  2  0  0  0  0  0  0
  -28.6810  -18.6790   18.2620 C   0  0  0  0  0  2  0  0  0  0  0  0
  -30.6410  -17.2510   19.0210 C   0  0  0  0  0  2  0  0  0  0  0  0
  -28.8820  -17.9910   20.7730 C   0  0  0  0  0  3  0  0  0  0  0  0
  -29.6240  -16.7740   20.0910 C   0  0  0  0  0  3  0  0  0  0  0  0
  -30.1540  -18.4510   18.2890 N   0  0  0  0  0  4  0  0  0  0  0  0
  -30.5950  -19.2530   18.7050 H   0  0  0  0  0  0  0  0  0  0  0  0
  -30.4940  -18.4000   17.3420 H   0  0  0  0  0  0  0  0  0  0  0  0
  -30.6740  -14.5100   20.4440 C   0  0  0  0  0  0  0  0  0  0  0  0
  -30.4010  -12.3300   19.3180 C   0  0  0  0  0  2  0  0  0  0  0  0
  -29.4790  -12.5520   18.0970 C   0  0  0  0  0  2  0  0  0  0  0  0
  -27.9980  -12.4200   18.5050 C   0  0  0  0  0  2  0  0  0  0  0  0
  -27.6510  -13.2580   19.7650 C   0  0  0  0  0  3  0  0  0  0  0  0
  -28.6850  -13.0220   20.8910 C   0  0  0  0  0  2  0  0  0  0  0  0
  -30.0240  -13.3130   20.3490 N   0  0  0  0  0  0  0  0  0  0  0  0
  -31.7900  -14.7010   19.9570 O   0  0  0  0  0  0  0  0  0  0  0  0
  -29.9160  -15.5440   20.8790 N   0  0  0  0  0  0  0  0  0  0  0  0
  -29.1280  -15.2330   21.4310 H   0  0  0  0  0  0  0  0  0  0  0  0
  -25.2430  -13.8990   20.4130 C   0  0  0  0  0  0  0  0  0  0  0  0
  -24.1650  -13.1430   20.7800 C   0  0  0  0  0  0  0  0  0  0  0  0
  -24.6160  -11.7890   20.7870 C   0  0  0  0  0  0  0  0  0  0  0  0
  -26.2860  -13.0050   20.2210 N   0  0  0  0  0  0  0  0  0  0  0  0
  -25.9090  -11.7310   20.4980 N   0  0  0  0  0  0  0  0  0  0  0  0
  -23.8780  -10.5360   20.9910 C   0  0  0  0  0  0  0  0  0  0  0  0
  -24.3050   -9.5730   21.9320 C   0  0  0  0  0  3  0  0  0  0  0  0
  -23.5690   -8.3850   22.1240 C   0  0  0  0  0  3  0  0  0  0  0  0
  -22.3930   -8.1510   21.3730 C   0  0  0  0  0  0  0  0  0  0  0  0
  -21.9840   -9.1020   20.4210 C   0  0  0  0  0  3  0  0  0  0  0  0
  -22.7210  -10.2830   20.2280 C   0  0  0  0  0  3  0  0  0  0  0  0
  -21.6270   -7.0150   21.4770 O   0  0  0  0  0  0  0  0  0  0  0  0
  -21.5910   -6.2710   22.6300 C   0  0  0  0  0  0  0  0  0  0  0  0
  -21.2120   -6.8350   23.8680 C   0  0  0  0  0  3  0  0  0  0  0  0
  -21.1210   -6.0190   25.0130 C   0  0  0  0  0  3  0  0  0  0  0  0
  -21.4000   -4.6430   24.9210 C   0  0  0  0  0  0  0  0  0  0  0  0
  -21.7710   -4.0800   23.6890 C   0  0  0  0  0  3  0  0  0  0  0  0
  -21.8650   -4.8920   22.5450 C   0  0  0  0  0  0  0  0  0  0  0  0
  -22.2040   -4.3400   21.3550 F   0  0  0  0  0  0  0  0  0  0  0  0
  -21.3040   -3.8590   26.0210 F   0  0  0  0  0  0  0  0  0  0  0  0
  -22.7670  -13.6390   21.0210 C   0  0  0  0  0  0  0  0  0  0  0  0
  -22.0210  -12.9690   21.8930 N   0  0  0  0  0  0  0  0  0  0  0  0
  -22.3440  -14.6550   20.4710 O   0  0  0  0  0  0  0  0  0  0  0  0
  -22.3750  -12.1500   22.3620 H   0  0  0  0  0  0  0  0  0  0  0  0
  -21.0820  -13.2820   22.0920 H   0  0  0  0  0  0  0  0  0  0  0  0
  -25.4190  -15.2640   20.2080 N   0  0  0  0  0  0  0  0  0  0  0  0
  -24.6460  -15.9130   20.2750 H   0  0  0  0  0  0  0  0  0  0  0  0
  -26.2700  -15.6890   19.8700 H   0  0  0  0  0  0  0  0  0  0  0  0
  -29.8320  -21.7200   21.4420 C   0  0  0  0  0  2  0  0  0  0  0  0
  -28.7830  -22.8700   21.3160 C   0  0  0  0  0  2  0  0  0  0  0  0
  -29.2960  -24.3240   21.0410 C   0  0  0  0  0  2  0  0  0  0  0  0
  -28.1180  -25.3420   20.9550 C   0  0  0  0  0  2  0  0  0  0  0  0
  -28.3700  -26.6160   20.3080 O   0  0  0  0  0  0  0  0  0  0  0  0
  -24.6330  -31.9110   23.2560 C   0  0  0  0  0  0  0  0  0  0  0  0
  -27.2390  -27.4110   20.2270 C   0  0  0  0  0  0  0  0  0  0  0  0
  -23.4290  -30.4920   21.6540 C   0  0  0  0  0  3  0  0  0  0  0  0
  -24.8480  -28.9300   20.2220 C   0  0  0  0  0  0  0  0  0  0  0  0
  -25.9390  -30.8450   21.4090 C   0  0  0  0  0  2  0  0  0  0  0  0
  -26.0150  -29.4640   20.7890 C   0  0  0  0  0  0  0  0  0  0  0  0
  -27.2130  -28.7100   20.7870 C   0  0  0  0  0  3  0  0  0  0  0  0
  -26.0640  -26.9140   19.6210 C   0  0  0  0  0  3  0  0  0  0  0  0
  -24.8690  -27.6560   19.6310 C   0  0  0  0  0  3  0  0  0  0  0  0
  -23.6050  -29.7850   20.2820 C   0  0  0  0  0  2  0  0  0  0  0  0
  -24.6890  -31.1000   22.1640 N   0  0  0  0  0  0  0  0  0  0  0  0
  -23.5550  -32.1920   23.7980 O   0  0  0  0  0  0  0  0  0  0  0  0
  -22.7850  -29.4990   22.6440 C   0  0  0  0  0  0  0  0  0  0  0  0
  -21.4640  -29.4280   22.5240 N   0  0  0  0  0  0  0  0  0  0  0  0
  -23.4480  -28.8200   23.4280 O   0  0  0  0  0  0  0  0  0  0  0  0
  -21.0660  -30.1280   21.9150 H   0  0  0  0  0  0  0  0  0  0  0  0
  -18.0390  -28.0180   23.0090 C   0  0  0  0  0  0  0  0  0  0  0  0
  -20.5130  -28.4250   22.9230 C   0  0  0  0  0  3  0  0  0  0  0  0
  -20.7700  -26.9250   22.7360 C   0  0  0  0  0  2  0  0  0  0  0  0
  -19.6580  -26.3560   21.8310 C   0  0  0  0  0  2  0  0  0  0  0  0
  -18.2460  -26.6340   22.3870 C   0  0  0  0  0  2  0  0  0  0  0  0
  -19.1330  -28.8390   23.3720 C   0  0  0  0  0  0  0  0  0  0  0  0
  -18.9150  -30.1000   23.9610 C   0  0  0  0  0  3  0  0  0  0  0  0
  -17.6010  -30.5700   24.1430 C   0  0  0  0  0  3  0  0  0  0  0  0
  -16.5110  -29.7740   23.7490 C   0  0  0  0  0  3  0  0  0  0  0  0
  -16.7290  -28.4950   23.2010 C   0  0  0  0  0  3  0  0  0  0  0  0
  -25.9200  -32.5490   23.8570 C   0  0  0  0  0  3  0  0  0  0  0  0
  -25.6040  -33.9420   24.1950 N   0  0  0  0  0  0  0  0  0  0  0  0
  -25.9110  -34.9980   23.4290 C   0  0  0  0  0  0  0  0  0  0  0  0
  -26.5630  -34.9000   22.3870 O   0  0  0  0  0  0  0  0  0  0  0  0
  -25.0220  -34.0900   25.0060 H   0  0  0  0  0  0  0  0  0  0  0  0
  -24.1650  -36.7750   23.1080 C   0  0  0  0  0  1  0  0  0  0  0  0
  -25.4210  -36.3800   23.8990 C   0  0  0  0  0  3  0  0  0  0  0  0
  -27.5660  -37.2730   24.6920 C   0  0  0  0  0  1  0  0  0  0  0  0
  -26.4440  -37.4390   23.7710 N   0  0  0  0  0  0  0  0  0  0  0  0
  -26.0360  -38.3570   23.9240 H   0  0  0  0  0  0  0  0  0  0  0  0
  -26.4600  -31.7710   25.1180 C   0  0  1  0  0  0  0  0  0  0  0  0
  -25.3870  -31.5200   26.2030 C   0  0  0  0  0  1  0  0  0  0  0  0
  -27.0450  -30.4010   24.7030 C   0  0  0  0  0  1  0  0  0  0  0  0
  -27.6180  -32.5690   25.7630 C   0  0  0  0  0  1  0  0  0  0  0  0
  1  2  1  0
  1  3  2  0
  2 51  1  0
  4  2  1  0
  5  8  1  0
  6 10  1  0
  6  5  1  0
  7  9  1  0
  8  1  1  0
  9  8  1  0
  9 21  1  0
 10 11  1  0
 10  7  1  0
 12 10  1  0
 13 21  1  0
 14 19  1  0
 15 16  1  0
 15 14  1  0
 17 16  1  0
 17 26  1  0
 17 18  1  0
 19 13  1  0
 19 18  1  0
 20 13  2  0
 21 22  1  0
 23 24  2  0
 24 25  1  0
 24 43  1  0
 25 28  1  0
 26 23  1  0
 26 27  1  0
 27 25  2  0
 28 29  1  0
 29 30  2  0
 31 34  1  0
 31 30  1  0
 32 31  2  0
 33 32  1  0
 33 28  2  0
 34 35  1  0
 35 36  1  0
 36 37  2  0
 38 37  1  0
 38 42  1  0
 39 38  2  0
 40 35  2  0
 40 39  1  0
 41 40  1  0
 43 44  1  0
 44 47  1  0
 44 46  1  0
 45 43  2  0
 48 49  1  0
 48 23  1  0
 50 48  1  0
 52 51  1  0
 53 52  1  0
 54 53  1  0
 55 54  1  0
 56 67  2  0
 57 55  1  0
 57 62  1  0
 58 66  1  0
 58 68  1  0
 59 65  1  0
 59 61  1  0
 60 66  1  0
 61 60  1  0
 62 61  2  0
 63 64  1  0
 63 57  2  0
 64 59  2  0
 65 58  1  0
 66 56  1  0
 68 70  2  0
 69 68  1  0
 71 69  1  0
 72 81  2  0
 72 77  1  0
 73 69  1  0
 73 77  1  0
 74 73  1  0
 75 76  1  0
 75 74  1  0
 76 72  1  0
 77 78  2  0
 78 79  1  0
 80 79  2  0
 81 80  1  0
 82 56  1  0
 82 83  1  0
 82 92  1  0
 83 86  1  0
 84 88  1  0
 84 83  1  0
 85 84  2  0
 88 87  1  0
 90 88  1  0
 90 91  1  0
 90 89  1  0
 92 95  1  1
 92 93  1  0
 94 92  1  0
M  ISO  4  13 100  21 100  54 101  55 101
M  END
>  <TORSDO>  (91) 
F 21

>  <SCORE>  (91) 
-13.667

>  <name>  (91) 
91

>  <ligand_id>  (91) 
91

>  <original_smiles>  (91) 
[H]c1c([H])c([H])c2c(c1[H])C([H])([H])C([H])([H])C([H])([H])C2([H])N([H])C(=O)C1([H])N(C(=O)C([H])(N([H])C(=O)C([H])(N([H])C([H])([H])[H])C([H])([H])[H])C(C([H])([H])[H])(C([H])([H])[H])C([H])([H])[H])C([H])([H])c2c([H])c(OC([H])([H])C([H])([H])C([H])([H])C([H])([H])N([H])C(=O)C3([H])C([H])([H])C([H])([H])[N+]([H])([H])C([H])([H])C3([H])N([H])C(=O)N3C([H])([H])C([H])([H])C([H])([H])C([H])(n4nc(-c5c([H])c([H])c(Oc6c([H])c([H])c(F)c([H])c6F)c([H])c5[H])c(C(=O)N([H])[H])c4N([H])[H])C3([H])[H])c([H])c([H])c2C1([H])[H]

>  <smiles>  (91) 
[H]c1c([H])c([H])c2c(c1[H])C([H])([H])C([H])([H])C([H])([H])C2([H])N([H])C(=O)C1([H])N(C(=O)C([H])(N([H])C(=O)C([H])(N([H])C([H])([H])[H])C([H])([H])[H])C(C([H])([H])[H])(C([H])([H])[H])C([H])([H])[H])C([H])([H])c2c([H])c(OC([H])([H])C([H])([H])C([H])([H])C([H])([H])N([H])C(=O)C3([H])C([H])([H])C([H])([H])[N+]([H])([H])C([H])([H])C3([H])N([H])C(=O)N3C([H])([H])C([H])([H])C([H])([H])C([H])(n4nc(-c5c([H])c([H])c(Oc6c([H])c([H])c(F)c([H])c6F)c([H])c5[H])c(C(=O)N([H])[H])c4N([H])[H])C3([H])[H])c([H])c([H])c2C1([H])[H]

$$$$
92:0:0
     RDKit          3D

 98100  0  0  1  0  0  0  0  0999 V2000
  -29.0380  -18.2650   19.5710 C   0  0  0  0  0  3  0  0  0  0  0  0
  -29.7720  -17.1040   18.6950 C   0  0  0  0  0  3  0  0  0  0  0  0
  -32.1220  -12.5770   19.3320 C   0  0  0  0  0 15  0  0  0  0  0  0
  -29.7150  -15.1460   20.9370 C   0  0  0  0  0 15  0  0  0  0  0  0
  -31.1560  -13.1880   21.4630 C   0  0  0  0  0  1  0  0  0  0  0  0
  -30.9900  -14.4100   17.8070 C   0  0  0  0  0  1  0  0  0  0  0  0
  -29.7120  -15.5930   18.9660 N   0  0  0  0  0  1  0  0  0  0  0  0
  -32.1380  -13.3790   22.5570 N   0  0  0  0  0  4  0  0  0  0  0  0
  -32.6830  -14.1980   22.3390 H   0  0  0  0  0  0  0  0  0  0  0  0
  -32.7460  -12.5850   22.6450 H   0  0  0  0  0  0  0  0  0  0  0  0
  -31.6750  -13.5240   23.4370 H   0  0  0  0  0  0  0  0  0  0  0  0
  -32.1490  -15.2290   17.4790 C   0  0  0  0  0  2  0  0  0  0  0  0
  -31.6660  -14.8990   19.8410 C   0  0  0  0  0  2  0  0  0  0  0  0
  -29.8470  -12.2450   18.5200 C   0  0  0  0  0  2  0  0  0  0  0  0
  -28.7850  -12.5090   17.4830 C   0  0  0  0  0  2  0  0  0  0  0  0
  -27.4730  -12.4060   18.1650 C   0  0  0  0  0  2  0  0  0  0  0  0
  -27.4650  -13.2280   19.4630 C   0  0  0  0  0  3  0  0  0  0  0  0
  -28.7230  -12.9070   20.3080 C   0  0  0  0  0  2  0  0  0  0  0  0
  -30.0270  -13.4330   19.5580 N   0  0  0  0  0  2  0  0  0  0  0  0
  -32.0990  -15.5160   20.7610 O   0  0  0  0  0  1  0  0  0  0  0  0
  -32.5050  -15.2570   18.8380 N   0  0  0  0  0  0  0  0  0  0  0  0
  -33.2580  -15.8740   19.0990 H   0  0  0  0  0  0  0  0  0  0  0  0
  -25.1950  -13.8560   20.4340 C   0  0  0  0  0  0  0  0  0  0  0  0
  -24.1510  -13.0800   20.8630 C   0  0  0  0  0  0  0  0  0  0  0  0
  -24.6040  -11.7280   20.7860 C   0  0  0  0  0  0  0  0  0  0  0  0
  -26.2130  -12.9720   20.1400 N   0  0  0  0  0  0  0  0  0  0  0  0
  -25.8720  -11.6890   20.4210 N   0  0  0  0  0  0  0  0  0  0  0  0
  -23.8900  -10.4620   20.9870 C   0  0  0  0  0  0  0  0  0  0  0  0
  -24.3700   -9.4810   21.8800 C   0  0  0  0  0  3  0  0  0  0  0  0
  -23.6560   -8.2820   22.0760 C   0  0  0  0  0  3  0  0  0  0  0  0
  -22.4470   -8.0540   21.3780 C   0  0  0  0  0  0  0  0  0  0  0  0
  -21.9870   -9.0210   20.4680 C   0  0  0  0  0  3  0  0  0  0  0  0
  -22.7040  -10.2120   20.2690 C   0  0  0  0  0  3  0  0  0  0  0  0
  -21.6930   -6.9110   21.4970 O   0  0  0  0  0  0  0  0  0  0  0  0
  -21.6870   -6.1700   22.6510 C   0  0  0  0  0  0  0  0  0  0  0  0
  -21.3300   -6.7330   23.8960 C   0  0  0  0  0  3  0  0  0  0  0  0
  -21.2700   -5.9210   25.0460 C   0  0  0  0  0  3  0  0  0  0  0  0
  -21.5560   -4.5440   24.9520 C   0  0  0  0  0  0  0  0  0  0  0  0
  -21.9110   -3.9820   23.7120 C   0  0  0  0  0  3  0  0  0  0  0  0
  -21.9720   -4.7930   22.5650 C   0  0  0  0  0  0  0  0  0  0  0  0
  -22.2920   -4.2420   21.3690 F   0  0  0  0  0  0  0  0  0  0  0  0
  -21.4900   -3.7620   26.0520 F   0  0  0  0  0  0  0  0  0  0  0  0
  -22.7770  -13.5570   21.2190 C   0  0  0  0  0  0  0  0  0  0  0  0
  -22.1100  -12.8530   22.1270 N   0  0  0  0  0  0  0  0  0  0  0  0
  -22.3100  -14.5860   20.7360 O   0  0  0  0  0  0  0  0  0  0  0  0
  -22.5060  -12.0200   22.5390 H   0  0  0  0  0  0  0  0  0  0  0  0
  -21.1890  -13.1510   22.4160 H   0  0  0  0  0  0  0  0  0  0  0  0
  -25.3580  -15.2230   20.2360 N   0  0  0  0  0  0  0  0  0  0  0  0
  -24.6130  -15.8970   20.3750 H   0  0  0  0  0  0  0  0  0  0  0  0
  -26.1990  -15.6330   19.8480 H   0  0  0  0  0  0  0  0  0  0  0  0
  -29.2960  -19.8290   19.1680 C   0  0  0  0  0  2  0  0  0  0  0  0
  -28.5600  -20.9900   19.8830 N   0  0  0  0  0  4  0  0  0  0  0  0
  -28.6600  -20.8640   20.8780 H   0  0  0  0  0  0  0  0  0  0  0  0
  -27.5800  -20.8970   19.6730 H   0  0  0  0  0  0  0  0  0  0  0  0
  -28.9980  -22.4430   19.5750 C   0  0  0  0  0  2  0  0  0  0  0  0
  -28.0020  -23.7240   19.7620 C   0  0  0  0  0  2  0  0  0  0  0  0
  -28.3920  -25.0010   20.6760 C   0  0  0  0  0  2  0  0  0  0  0  0
  -28.3650  -26.4440   20.2620 O   0  0  0  0  0  0  0  0  0  0  0  0
  -24.5850  -31.9180   23.2480 C   0  0  0  0  0  0  0  0  0  0  0  0
  -27.2200  -27.2540   20.3210 C   0  0  0  0  0  0  0  0  0  0  0  0
  -23.3990  -30.4750   21.6360 C   0  0  0  0  0  3  0  0  0  0  0  0
  -24.8590  -28.8750   20.2710 C   0  0  0  0  0  0  0  0  0  0  0  0
  -25.9400  -30.7820   21.4680 C   0  0  0  0  0  2  0  0  0  0  0  0
  -26.0230  -29.3820   20.8580 C   0  0  0  0  0  0  0  0  0  0  0  0
  -27.2110  -28.5840   20.8630 C   0  0  0  0  0  3  0  0  0  0  0  0
  -26.0260  -26.7930   19.7370 C   0  0  0  0  0  3  0  0  0  0  0  0
  -24.8630  -27.5910   19.7010 C   0  0  0  0  0  3  0  0  0  0  0  0
  -23.6260  -29.7580   20.2790 C   0  0  0  0  0  2  0  0  0  0  0  0
  -24.6600  -31.0780   22.1740 N   0  0  0  0  0  0  0  0  0  0  0  0
  -23.4960  -32.2130   23.7630 O   0  0  0  0  0  0  0  0  0  0  0  0
  -22.7200  -29.4890   22.6170 C   0  0  0  0  0  0  0  0  0  0  0  0
  -21.3940  -29.3170   22.4870 N   0  0  0  0  0  0  0  0  0  0  0  0
  -23.3890  -28.8770   23.4570 O   0  0  0  0  0  0  0  0  0  0  0  0
  -20.9140  -29.8620   21.7850 H   0  0  0  0  0  0  0  0  0  0  0  0
  -18.0050  -28.1480   22.9850 C   0  0  0  0  0  0  0  0  0  0  0  0
  -20.5620  -28.4010   23.2700 C   0  0  0  0  0  3  0  0  0  0  0  0
  -20.6620  -26.9560   22.7290 C   0  0  0  0  0  2  0  0  0  0  0  0
  -19.5660  -26.6150   21.7140 C   0  0  0  0  0  2  0  0  0  0  0  0
  -18.1790  -26.7820   22.3420 C   0  0  0  0  0  2  0  0  0  0  0  0
  -19.1250  -28.9140   23.4050 C   0  0  0  0  0  0  0  0  0  0  0  0
  -18.9060  -30.1920   23.9660 C   0  0  0  0  0  3  0  0  0  0  0  0
  -17.6020  -30.7030   24.1100 C   0  0  0  0  0  3  0  0  0  0  0  0
  -16.4980  -29.9330   23.7050 C   0  0  0  0  0  3  0  0  0  0  0  0
  -16.7000  -28.6580   23.1490 C   0  0  0  0  0  3  0  0  0  0  0  0
  -25.8590  -32.5680   23.8690 C   0  0  0  0  0  3  0  0  0  0  0  0
  -26.3830  -31.8050   25.1480 C   0  0  1  0  0  0  0  0  0  0  0  0
  -25.2890  -31.5630   26.2160 C   0  0  0  0  0  1  0  0  0  0  0  0
  -26.9780  -30.4320   24.7630 C   0  0  0  0  0  1  0  0  0  0  0  0
  -27.5280  -32.6100   25.8070 C   0  0  0  0  0  1  0  0  0  0  0  0
  -25.5350  -33.9650   24.1990 N   0  0  0  0  0  0  0  0  0  0  0  0
  -25.8600  -35.0210   23.4410 C   0  0  0  0  0  0  0  0  0  0  0  0
  -26.5320  -34.9210   22.4110 O   0  0  0  0  0  0  0  0  0  0  0  0
  -24.9400  -34.1130   25.0010 H   0  0  0  0  0  0  0  0  0  0  0  0
  -24.1170  -36.7970   23.0860 C   0  0  0  0  0  1  0  0  0  0  0  0
  -25.3620  -36.4060   23.8990 C   0  0  0  0  0  3  0  0  0  0  0  0
  -27.4930  -37.3040   24.7240 C   0  0  0  0  0  1  0  0  0  0  0  0
  -26.3870  -37.4670   23.7830 N   0  0  0  0  0  0  0  0  0  0  0  0
  -25.9760  -38.3850   23.9330 H   0  0  0  0  0  0  0  0  0  0  0  0
  2  7  1  0
  2  1  2  0
  5  8  1  0
  8 10  1  0
  8 11  1  0
  9  8  1  0
 12  6  1  0
 12 21  1  0
 13 20  1  0
 14 19  1  0
 15 16  1  0
 15 14  1  0
 17 16  1  0
 17 26  1  0
 17 18  1  0
 19 18  1  0
 21 22  1  0
 21 13  1  0
 23 24  2  0
 24 43  1  0
 25 24  1  0
 25 28  1  0
 26 27  1  0
 26 23  1  0
 27 25  2  0
 28 29  1  0
 29 30  2  0
 31 34  1  0
 31 30  1  0
 32 31  2  0
 33 32  1  0
 33 28  2  0
 34 35  1  0
 35 36  1  0
 36 37  2  0
 38 37  1  0
 38 42  1  0
 39 38  2  0
 40 35  2  0
 40 39  1  0
 41 40  1  0
 43 44  1  0
 44 47  1  0
 44 46  1  0
 45 43  2  0
 48 49  1  0
 48 23  1  0
 50 48  1  0
 51  1  1  0
 51 52  1  0
 52 53  1  0
 54 52  1  0
 55 56  1  0
 55 52  1  0
 56 57  1  0
 58 60  1  0
 58 57  1  0
 59 70  2  0
 60 65  1  0
 61 69  1  0
 61 71  1  0
 62 68  1  0
 62 64  1  0
 63 69  1  0
 64 65  2  0
 64 63  1  0
 66 60  2  0
 67 66  1  0
 67 62  2  0
 68 61  1  0
 69 59  1  0
 71 73  2  0
 72 71  1  0
 74 72  1  0
 75 84  2  0
 75 80  1  0
 76 72  1  0
 76 80  1  0
 77 76  1  0
 78 79  1  0
 78 77  1  0
 79 75  1  0
 80 81  2  0
 81 82  1  0
 83 82  2  0
 84 83  1  0
 85 59  1  0
 85 90  1  0
 85 86  1  0
 86 89  1  1
 86 87  1  0
 88 86  1  0
 90 93  1  0
 91 95  1  0
 91 90  1  0
 92 91  2  0
 95 94  1  0
 97 95  1  0
 97 98  1  0
 97 96  1  0
M  ISO  4  13 100  21 100  57 101  58 101
M  END
>  <TORSDO>  (92) 
F 25

>  <SCORE>  (92) 
-11.426

>  <name>  (92) 
92

>  <ligand_id>  (92) 
92

>  <original_smiles>  (92) 
[H]c1c([H])c([H])c2c(c1[H])C([H])([H])C([H])([H])C([H])([H])C2([H])N([H])C(=O)C1([H])N(C(=O)C([H])(N([H])C(=O)C([H])(N([H])C([H])([H])[H])C([H])([H])[H])C(C([H])([H])[H])(C([H])([H])[H])C([H])([H])[H])C([H])([H])c2c([H])c(OC([H])([H])C([H])([H])C([H])([H])[N+]([H])([H])C([H])([H])C([H])([H])C([H])([H])N3C([H])([H])C([H])([N+]([H])([H])[H])C([H])([H])C3([H])C([H])([H])N([H])C(=O)N3C([H])([H])C([H])([H])C([H])([H])C([H])(n4nc(-c5c([H])c([H])c(Oc6c([H])c([H])c(F)c([H])c6F)c([H])c5[H])c(C(=O)N([H])[H])c4N([H])[H])C3([H])[H])c([H])c([H])c2C1([H])[H]

>  <smiles>  (92) 
[H]c1c([H])c([H])c2c(c1[H])C([H])([H])C([H])([H])C([H])([H])C2([H])N([H])C(=O)C1([H])N(C(=O)C([H])(N([H])C(=O)C([H])(N([H])C([H])([H])[H])C([H])([H])[H])C(C([H])([H])[H])(C([H])([H])[H])C([H])([H])[H])C([H])([H])c2c([H])c(OC([H])([H])C([H])([H])C([H])([H])[N+]([H])([H])C([H])([H])C([H])([H])C([H])([H])N3C([H])([H])C([H])([N+]([H])([H])[H])C([H])([H])C3([H])C([H])([H])N([H])C(=O)N3C([H])([H])C([H])([H])C([H])([H])C([H])(n4nc(-c5c([H])c([H])c(Oc6c([H])c([H])c(F)c([H])c6F)c([H])c5[H])c(C(=O)N([H])[H])c4N([H])[H])C3([H])[H])c([H])c([H])c2C1([H])[H]

$$$$
94:0:0
     RDKit          3D

101109  0  0  1  0  0  0  0  0999 V2000
  -27.8900  -18.3110   20.1740 C   0  0  0  0  0  3  0  0  0  0  0  0
  -29.4530  -18.8720   18.3940 C   0  0  0  0  0  3  0  0  0  0  0  0
  -27.1860  -19.5050   19.9360 C   0  0  0  0  0  3  0  0  0  0  0  0
  -28.7290  -20.0490   18.1280 C   0  0  0  0  0  3  0  0  0  0  0  0
  -29.0690  -18.0210   19.4520 C   0  0  0  0  0  0  0  0  0  0  0  0
  -27.6230  -20.3960   18.9320 C   0  0  0  0  0  0  0  0  0  0  0  0
  -29.8450  -16.7750   19.6600 C   0  0  0  0  0  0  0  0  0  0  0  0
  -29.8130  -15.9000   18.7910 O   0  0  0  0  0  0  0  0  0  0  0  0
  -30.7340  -16.5490   20.9210 C   0  0  0  0  0  3  0  0  0  0  0  0
  -31.1410  -14.1360   20.8220 C   0  0  0  0  0  0  0  0  0  0  0  0
  -30.7920  -11.9440   19.7810 C   0  0  0  0  0  2  0  0  0  0  0  0
  -29.9430  -12.1340   18.5060 C   0  0  0  0  0  2  0  0  0  0  0  0
  -28.4380  -12.1050   18.8380 C   0  0  0  0  0  2  0  0  0  0  0  0
  -28.0620  -13.0260   20.0290 C   0  0  0  0  0  3  0  0  0  0  0  0
  -29.0330  -12.8150   21.2160 C   0  0  0  0  0  2  0  0  0  0  0  0
  -30.4130  -12.9980   20.7300 N   0  0  0  0  0  0  0  0  0  0  0  0
  -32.2630  -14.2750   20.3260 O   0  0  0  0  0  0  0  0  0  0  0  0
  -30.4890  -15.1710   21.3530 N   0  0  0  0  0  0  0  0  0  0  0  0
  -29.5760  -14.9630   21.7300 H   0  0  0  0  0  0  0  0  0  0  0  0
  -25.6660  -13.7790   20.6140 C   0  0  0  0  0  0  0  0  0  0  0  0
  -24.5340  -13.0720   20.9240 C   0  0  0  0  0  0  0  0  0  0  0  0
  -24.9120  -11.6950   20.9080 C   0  0  0  0  0  0  0  0  0  0  0  0
  -26.6680  -12.8370   20.4320 N   0  0  0  0  0  0  0  0  0  0  0  0
  -26.2120  -11.5780   20.6630 N   0  0  0  0  0  0  0  0  0  0  0  0
  -24.1020  -10.4780   21.0530 C   0  0  0  0  0  0  0  0  0  0  0  0
  -24.4580   -9.4560   21.9610 C   0  0  0  0  0  3  0  0  0  0  0  0
  -23.6500   -8.3050   22.0950 C   0  0  0  0  0  3  0  0  0  0  0  0
  -22.4740   -8.1690   21.3230 C   0  0  0  0  0  0  0  0  0  0  0  0
  -22.1360   -9.1780   20.4040 C   0  0  0  0  0  3  0  0  0  0  0  0
  -22.9430  -10.3210   20.2670 C   0  0  0  0  0  3  0  0  0  0  0  0
  -21.6450   -7.0740   21.3700 O   0  0  0  0  0  0  0  0  0  0  0  0
  -21.5710   -6.2730   22.4810 C   0  0  0  0  0  0  0  0  0  0  0  0
  -21.1810   -6.7800   23.7400 C   0  0  0  0  0  3  0  0  0  0  0  0
  -21.0510   -5.9100   24.8400 C   0  0  0  0  0  3  0  0  0  0  0  0
  -21.3000   -4.5330   24.6830 C   0  0  0  0  0  0  0  0  0  0  0  0
  -21.6820   -4.0250   23.4290 C   0  0  0  0  0  3  0  0  0  0  0  0
  -21.8150   -4.8920   22.3320 C   0  0  0  0  0  0  0  0  0  0  0  0
  -22.1640   -4.3950   21.1200 F   0  0  0  0  0  0  0  0  0  0  0  0
  -21.1670   -3.6950   25.7380 F   0  0  0  0  0  0  0  0  0  0  0  0
  -23.1560  -13.6350   21.1260 C   0  0  0  0  0  0  0  0  0  0  0  0
  -22.3490  -12.9920   21.9650 N   0  0  0  0  0  0  0  0  0  0  0  0
  -22.8040  -14.6770   20.5790 O   0  0  0  0  0  0  0  0  0  0  0  0
  -22.6440  -12.1460   22.4280 H   0  0  0  0  0  0  0  0  0  0  0  0
  -21.4220  -13.3520   22.1460 H   0  0  0  0  0  0  0  0  0  0  0  0
  -25.9210  -15.1360   20.4490 N   0  0  0  0  0  0  0  0  0  0  0  0
  -25.1820  -15.8270   20.5040 H   0  0  0  0  0  0  0  0  0  0  0  0
  -26.7820  -15.5100   20.0760 H   0  0  0  0  0  0  0  0  0  0  0  0
  -30.5360  -17.5140   22.1280 C   0  0  0  0  0  2  0  0  0  0  0  0
  -31.4510  -18.7630   22.1560 C   0  0  0  0  0  2  0  0  0  0  0  0
  -31.0030  -19.8890   21.3180 N   0  0  0  0  0  4  0  0  0  0  0  0
  -30.9500  -19.6450   20.3470 H   0  0  0  0  0  0  0  0  0  0  0  0
  -31.6770  -20.6310   21.4020 H   0  0  0  0  0  0  0  0  0  0  0  0
  -30.1180  -20.2480   21.6330 H   0  0  0  0  0  0  0  0  0  0  0  0
  -26.9210  -21.7320   18.7380 C   0  0  0  0  0  2  0  0  0  0  0  0
  -27.3880  -22.7250   19.7290 N   0  0  0  0  0  4  0  0  0  0  0  0
  -26.6410  -23.3920   19.8410 H   0  0  0  0  0  0  0  0  0  0  0  0
  -27.5090  -22.2580   20.6130 H   0  0  0  0  0  0  0  0  0  0  0  0
  -28.6270  -23.4520   19.3480 C   0  0  0  0  0  2  0  0  0  0  0  0
  -29.0160  -24.5400   20.3630 C   0  0  0  0  0  2  0  0  0  0  0  0
  -29.9250  -25.6290   19.7420 C   0  0  0  0  0  2  0  0  0  0  0  0
  -29.7530  -26.8980   20.3740 O   0  0  0  0  0  0  0  0  0  0  0  0
  -25.1820  -31.2930   23.5550 C   0  0  0  0  0  0  0  0  0  0  0  0
  -28.5220  -27.5200   20.2780 C   0  0  0  0  0  0  0  0  0  0  0  0
  -24.3010  -30.0770   21.5920 C   0  0  0  0  0  3  0  0  0  0  0  0
  -26.0310  -28.8510   20.1800 C   0  0  0  0  0  0  0  0  0  0  0  0
  -26.7970  -30.6040   21.7900 C   0  0  0  0  0  2  0  0  0  0  0  0
  -27.0600  -29.3500   20.9870 C   0  0  0  0  0  0  0  0  0  0  0  0
  -28.3040  -28.6880   21.0420 C   0  0  0  0  0  3  0  0  0  0  0  0
  -27.4730  -27.0390   19.4590 C   0  0  0  0  0  3  0  0  0  0  0  0
  -26.2300  -27.6930   19.4130 C   0  0  0  0  0  3  0  0  0  0  0  0
  -24.7260  -29.6130   20.1750 C   0  0  0  0  0  2  0  0  0  0  0  0
  -25.4370  -30.6660   22.3730 N   0  0  0  0  0  0  0  0  0  0  0  0
  -24.0230  -31.4250   23.9730 O   0  0  0  0  0  0  0  0  0  0  0  0
  -23.6180  -28.8930   22.3080 C   0  0  0  0  0  0  0  0  0  0  0  0
  -22.3350  -28.6680   21.9900 N   0  0  0  0  0  0  0  0  0  0  0  0
  -24.2430  -28.1870   23.1040 O   0  0  0  0  0  0  0  0  0  0  0  0
  -21.8940  -29.3020   21.3390 H   0  0  0  0  0  0  0  0  0  0  0  0
  -19.0120  -27.2580   21.8770 C   0  0  0  0  0  0  0  0  0  0  0  0
  -21.5000  -27.5830   22.4960 C   0  0  0  0  0  3  0  0  0  0  0  0
  -21.7600  -26.2760   21.7150 C   0  0  0  0  0  2  0  0  0  0  0  0
  -20.8050  -26.0840   20.5340 C   0  0  0  0  0  2  0  0  0  0  0  0
  -19.3510  -26.0490   21.0200 C   0  0  0  0  0  2  0  0  0  0  0  0
  -20.0250  -27.9890   22.5520 C   0  0  0  0  0  0  0  0  0  0  0  0
  -19.6670  -29.1300   23.3000 C   0  0  0  0  0  3  0  0  0  0  0  0
  -18.3250  -29.5430   23.3820 C   0  0  0  0  0  3  0  0  0  0  0  0
  -17.3220  -28.8100   22.7240 C   0  0  0  0  0  3  0  0  0  0  0  0
  -17.6660  -27.6660   21.9810 C   0  0  0  0  0  3  0  0  0  0  0  0
  -26.3280  -31.8990   24.4250 C   0  0  0  0  0  3  0  0  0  0  0  0
  -26.5720  -31.1110   25.7700 C   0  0  1  0  0  0  0  0  0  0  0  0
  -25.2890  -30.9000   26.6080 C   0  0  0  0  0  1  0  0  0  0  0  0
  -27.1880  -29.7210   25.4880 C   0  0  0  0  0  1  0  0  0  0  0  0
  -27.5940  -31.8760   26.6470 C   0  0  0  0  0  1  0  0  0  0  0  0
  -25.9810  -33.3000   24.6950 N   0  0  0  0  0  0  0  0  0  0  0  0
  -26.5070  -34.3510   24.0520 C   0  0  0  0  0  0  0  0  0  0  0  0
  -27.4000  -34.2400   23.2080 O   0  0  0  0  0  0  0  0  0  0  0  0
  -25.2110  -33.4620   25.3290 H   0  0  0  0  0  0  0  0  0  0  0  0
  -24.9630  -36.1940   23.3130 C   0  0  0  0  0  1  0  0  0  0  0  0
  -25.9530  -35.7460   24.3990 C   0  0  0  0  0  3  0  0  0  0  0  0
  -27.8320  -36.5580   25.7550 C   0  0  0  0  0  1  0  0  0  0  0  0
  -27.0080  -36.7700   24.5680 N   0  0  0  0  0  0  0  0  0  0  0  0
  -26.6010  -37.6990   24.6270 H   0  0  0  0  0  0  0  0  0  0  0  0
  2  5  1  0
  3  1  1  0
  4  2  2  0
  4  6  1  0
  5  7  1  0
  5  1  2  0
  6  3  2  0
  7  9  1  0
  8  7  2  0
  9 18  1  0
  9 48  1  0
 10 18  1  0
 11 16  1  0
 12 13  1  0
 12 11  1  0
 14 13  1  0
 14 23  1  0
 14 15  1  0
 16 10  1  0
 16 15  1  0
 17 10  2  0
 18 19  1  0
 20 21  2  0
 21 40  1  0
 22 21  1  0
 22 25  1  0
 23 20  1  0
 23 24  1  0
 24 22  2  0
 25 26  1  0
 26 27  2  0
 28 31  1  0
 28 27  1  0
 29 28  2  0
 30 29  1  0
 30 25  2  0
 31 32  1  0
 32 33  1  0
 33 34  2  0
 35 34  1  0
 35 39  1  0
 36 35  2  0
 37 32  2  0
 37 36  1  0
 38 37  1  0
 40 41  1  0
 41 44  1  0
 41 43  1  0
 42 40  2  0
 45 46  1  0
 45 20  1  0
 47 45  1  0
 48 49  1  0
 50 52  1  0
 50 53  1  0
 50 49  1  0
 51 50  1  0
 54  6  1  0
 54 55  1  0
 55 56  1  0
 55 57  1  0
 58 55  1  0
 58 59  1  0
 60 59  1  0
 60 61  1  0
 62 73  2  0
 63 61  1  0
 63 68  1  0
 64 74  1  0
 64 72  1  0
 65 67  1  0
 66 72  1  0
 67 68  2  0
 67 66  1  0
 69 63  2  0
 70 69  1  0
 70 65  2  0
 71 65  1  0
 71 64  1  0
 72 62  1  0
 74 76  2  0
 75 74  1  0
 77 75  1  0
 78 87  2  0
 78 83  1  0
 79 75  1  0
 79 83  1  0
 80 79  1  0
 81 82  1  0
 81 80  1  0
 82 78  1  0
 83 84  2  0
 84 85  1  0
 86 85  2  0
 87 86  1  0
 88 62  1  0
 88 93  1  0
 88 89  1  0
 89 90  1  1
 89 92  1  0
 91 89  1  0
 93 96  1  0
 94 98  1  0
 94 93  1  0
 95 94  2  0
 98 97  1  0
 98100  1  0
100101  1  0
100 99  1  0
M  ISO  4  10 100  18 100  60 101  61 101
M  END
>  <TORSDO>  (93) 
F 26

>  <SCORE>  (93) 
-10.055

>  <name>  (93) 
94

>  <ligand_id>  (93) 
94

>  <original_smiles>  (93) 
[H]c1c([H])c([H])c2c(c1[H])C([H])([H])C([H])([H])C([H])([H])C2([H])N([H])C(=O)C1([H])N(C(=O)C([H])(N([H])C(=O)C([H])(N([H])C([H])([H])[H])C([H])([H])[H])C(C([H])([H])[H])(C([H])([H])[H])C([H])([H])[H])C([H])([H])c2c([H])c(OC([H])([H])C([H])([H])C([H])([H])[N+]([H])([H])C([H])([H])c3c([H])c([H])c(C(=O)C([H])(N([H])C(=O)N4C([H])([H])C([H])([H])C([H])([H])C([H])(n5nc(-c6c([H])c([H])c(Oc7c([H])c([H])c(F)c([H])c7F)c([H])c6[H])c(C(=O)N([H])[H])c5N([H])[H])C4([H])[H])C([H])([H])C([H])([H])[N+]([H])([H])[H])c([H])c3[H])c([H])c([H])c2C1([H])[H]

>  <smiles>  (93) 
[H]c1c([H])c([H])c2c(c1[H])C([H])([H])C([H])([H])C([H])([H])C2([H])N([H])C(=O)C1([H])N(C(=O)C([H])(N([H])C(=O)C([H])(N([H])C([H])([H])[H])C([H])([H])[H])C(C([H])([H])[H])(C([H])([H])[H])C([H])([H])[H])C([H])([H])c2c([H])c(OC([H])([H])C([H])([H])C([H])([H])[N+]([H])([H])C([H])([H])c3c([H])c([H])c(C(=O)C([H])(N([H])C(=O)N4C([H])([H])C([H])([H])C([H])([H])C([H])(n5nc(-c6c([H])c([H])c(Oc7c([H])c([H])c(F)c([H])c7F)c([H])c6[H])c(C(=O)N([H])[H])c5N([H])[H])C4([H])[H])C([H])([H])C([H])([H])[N+]([H])([H])[H])c([H])c3[H])c([H])c([H])c2C1([H])[H]

$$$$
95:0:0
     RDKit          3D

 94102  0  0  1  0  0  0  0  0999 V2000
  -30.5200  -20.4590   20.5230 C   0  0  0  0  0  2  0  0  0  0  0  0
  -28.2480  -19.4870   20.7740 C   0  0  0  0  0  2  0  0  0  0  0  0
  -30.9190  -19.2290   19.6620 C   0  0  0  0  0  3  0  0  0  0  0  0
  -29.0200  -20.7660   20.3460 C   0  0  0  0  0  3  0  0  0  0  0  0
  -30.0500  -17.9410   19.8950 C   0  0  0  0  0  3  0  0  0  0  0  0
  -32.4370  -18.9800   19.6930 C   0  0  0  0  0  1  0  0  0  0  0  0
  -28.6080  -18.3060   19.9420 N   0  0  0  0  0  4  0  0  0  0  0  0
  -28.3070  -18.5040   19.0010 H   0  0  0  0  0  0  0  0  0  0  0  0
  -28.0760  -17.5140   20.2590 H   0  0  0  0  0  0  0  0  0  0  0  0
  -28.5520  -21.9420   21.1070 N   0  0  0  0  0  0  0  0  0  0  0  0
  -28.7830  -21.8400   22.0930 H   0  0  0  0  0  0  0  0  0  0  0  0
  -28.9740  -23.2710   20.6170 C   0  0  0  0  0  2  0  0  0  0  0  0
  -28.1310  -24.4130   21.2730 C   0  0  0  0  0  2  0  0  0  0  0  0
  -28.7190  -25.8600   21.2460 C   0  0  0  0  0  2  0  0  0  0  0  0
  -28.4070  -26.6620   20.0950 O   0  0  0  0  0  0  0  0  0  0  0  0
  -24.5860  -31.8670   23.2240 C   0  0  0  0  0  0  0  0  0  0  0  0
  -27.2540  -27.4200   20.1620 C   0  0  0  0  0  0  0  0  0  0  0  0
  -23.3930  -30.4720   21.5660 C   0  0  0  0  0  3  0  0  0  0  0  0
  -24.8610  -28.9330   20.1530 C   0  0  0  0  0  0  0  0  0  0  0  0
  -25.9210  -30.8280   21.3910 C   0  0  0  0  0  2  0  0  0  0  0  0
  -26.0130  -29.4510   20.7590 C   0  0  0  0  0  0  0  0  0  0  0  0
  -27.2150  -28.7020   20.7660 C   0  0  0  0  0  3  0  0  0  0  0  0
  -26.0900  -26.9210   19.5480 C   0  0  0  0  0  3  0  0  0  0  0  0
  -24.8930  -27.6640   19.5470 C   0  0  0  0  0  3  0  0  0  0  0  0
  -23.6160  -29.7940   20.1860 C   0  0  0  0  0  2  0  0  0  0  0  0
  -24.6510  -31.0720   22.1190 N   0  0  0  0  0  0  0  0  0  0  0  0
  -23.5000  -32.1380   23.7560 O   0  0  0  0  0  0  0  0  0  0  0  0
  -22.7310  -29.4500   22.5170 C   0  0  0  0  0  0  0  0  0  0  0  0
  -21.4060  -29.2740   22.3850 N   0  0  0  0  0  0  0  0  0  0  0  0
  -23.4090  -28.8170   23.3330 O   0  0  0  0  0  0  0  0  0  0  0  0
  -20.9190  -29.8400   21.7040 H   0  0  0  0  0  0  0  0  0  0  0  0
  -18.0230  -28.0930   22.8580 C   0  0  0  0  0  0  0  0  0  0  0  0
  -20.5830  -28.3320   23.1430 C   0  0  0  0  0  3  0  0  0  0  0  0
  -20.6780  -26.9060   22.5530 C   0  0  0  0  0  2  0  0  0  0  0  0
  -19.5770  -26.6000   21.5320 C   0  0  0  0  0  2  0  0  0  0  0  0
  -18.1940  -26.7490   22.1710 C   0  0  0  0  0  2  0  0  0  0  0  0
  -19.1450  -28.8440   23.2990 C   0  0  0  0  0  0  0  0  0  0  0  0
  -18.9310  -30.1040   23.8980 C   0  0  0  0  0  3  0  0  0  0  0  0
  -17.6290  -30.6110   24.0640 C   0  0  0  0  0  3  0  0  0  0  0  0
  -16.5210  -29.8560   23.6380 C   0  0  0  0  0  3  0  0  0  0  0  0
  -16.7190  -28.6000   23.0380 C   0  0  0  0  0  3  0  0  0  0  0  0
  -25.8650  -32.4950   23.8580 C   0  0  0  0  0  3  0  0  0  0  0  0
  -25.5610  -33.8960   24.1810 N   0  0  0  0  0  0  0  0  0  0  0  0
  -25.9110  -34.9450   23.4220 C   0  0  0  0  0  0  0  0  0  0  0  0
  -26.5960  -34.8330   22.4000 O   0  0  0  0  0  0  0  0  0  0  0  0
  -24.9630  -34.0590   24.9770 H   0  0  0  0  0  0  0  0  0  0  0  0
  -24.2010  -36.7440   23.0290 C   0  0  0  0  0  1  0  0  0  0  0  0
  -25.4240  -36.3370   23.8660 C   0  0  0  0  0  3  0  0  0  0  0  0
  -27.5470  -37.2090   24.7370 C   0  0  0  0  0  1  0  0  0  0  0  0
  -26.4650  -37.3820   23.7710 N   0  0  0  0  0  0  0  0  0  0  0  0
  -26.0630  -38.3050   23.9060 H   0  0  0  0  0  0  0  0  0  0  0  0
  -26.3650  -31.7240   25.1410 C   0  0  1  0  0  0  0  0  0  0  0  0
  -25.2600  -31.4910   26.1970 C   0  0  0  0  0  1  0  0  0  0  0  0
  -26.9440  -30.3440   24.7530 C   0  0  0  0  0  1  0  0  0  0  0  0
  -27.5130  -32.5120   25.8150 C   0  0  0  0  0  1  0  0  0  0  0  0
  -30.4690  -16.9700   21.0570 C   0  0  0  0  0  2  0  0  0  0  0  0
  -30.6930  -14.5390   20.3720 C   0  0  0  0  0  0  0  0  0  0  0  0
  -30.3860  -12.3890   19.1940 C   0  0  0  0  0  2  0  0  0  0  0  0
  -29.4380  -12.6160   17.9970 C   0  0  0  0  0  2  0  0  0  0  0  0
  -27.9630  -12.4760   18.4300 C   0  0  0  0  0  2  0  0  0  0  0  0
  -27.6390  -13.2880   19.7120 C   0  0  0  0  0  3  0  0  0  0  0  0
  -28.7010  -13.0480   20.8110 C   0  0  0  0  0  2  0  0  0  0  0  0
  -30.0200  -13.3610   20.2380 N   0  0  0  0  0  0  0  0  0  0  0  0
  -31.8190  -14.7160   19.9010 O   0  0  0  0  0  0  0  0  0  0  0  0
  -29.9950  -15.5670   20.9090 N   0  0  0  0  0  0  0  0  0  0  0  0
  -29.0850  -15.3300   21.2740 H   0  0  0  0  0  0  0  0  0  0  0  0
  -25.2410  -13.8910   20.4210 C   0  0  0  0  0  0  0  0  0  0  0  0
  -24.1750  -13.1210   20.8030 C   0  0  0  0  0  0  0  0  0  0  0  0
  -24.6400  -11.7700   20.7820 C   0  0  0  0  0  0  0  0  0  0  0  0
  -26.2880  -13.0110   20.1960 N   0  0  0  0  0  0  0  0  0  0  0  0
  -25.9290  -11.7310   20.4690 N   0  0  0  0  0  0  0  0  0  0  0  0
  -23.9150  -10.5090   20.9820 C   0  0  0  0  0  0  0  0  0  0  0  0
  -24.3500   -9.5500   21.9230 C   0  0  0  0  0  3  0  0  0  0  0  0
  -23.6270   -8.3530   22.1110 C   0  0  0  0  0  3  0  0  0  0  0  0
  -22.4530   -8.1060   21.3580 C   0  0  0  0  0  0  0  0  0  0  0  0
  -22.0380   -9.0540   20.4060 C   0  0  0  0  0  3  0  0  0  0  0  0
  -22.7620  -10.2430   20.2170 C   0  0  0  0  0  3  0  0  0  0  0  0
  -21.7000   -6.9610   21.4570 O   0  0  0  0  0  0  0  0  0  0  0  0
  -21.6560   -6.2250   22.6130 C   0  0  0  0  0  0  0  0  0  0  0  0
  -21.2350   -6.7860   23.8380 C   0  0  0  0  0  3  0  0  0  0  0  0
  -21.1390   -5.9760   24.9880 C   0  0  0  0  0  3  0  0  0  0  0  0
  -21.4540   -4.6060   24.9130 C   0  0  0  0  0  0  0  0  0  0  0  0
  -21.8670   -4.0430   23.6930 C   0  0  0  0  0  3  0  0  0  0  0  0
  -21.9660   -4.8500   22.5450 C   0  0  0  0  0  0  0  0  0  0  0  0
  -22.3440   -4.3000   21.3670 F   0  0  0  0  0  0  0  0  0  0  0  0
  -21.3540   -3.8260   26.0140 F   0  0  0  0  0  0  0  0  0  0  0  0
  -22.7780  -13.5990   21.0710 C   0  0  0  0  0  0  0  0  0  0  0  0
  -22.0490  -12.9090   21.9410 N   0  0  0  0  0  0  0  0  0  0  0  0
  -22.3400  -14.6200   20.5420 O   0  0  0  0  0  0  0  0  0  0  0  0
  -22.4120  -12.0830   22.3910 H   0  0  0  0  0  0  0  0  0  0  0  0
  -21.1110  -13.2130   22.1630 H   0  0  0  0  0  0  0  0  0  0  0  0
  -25.4010  -15.2590   20.2210 N   0  0  0  0  0  0  0  0  0  0  0  0
  -24.6110  -15.8940   20.2730 H   0  0  0  0  0  0  0  0  0  0  0  0
  -26.1990  -15.6530   19.7440 H   0  0  0  0  0  0  0  0  0  0  0  0
  3  6  1  0
  3  5  1  0
  3  1  1  0
  4  1  1  0
  4  2  1  0
  4 10  1  0
  5  7  1  0
  5 56  1  0
  7  9  1  0
  7  2  1  0
  8  7  1  0
 10 11  1  0
 12 10  1  0
 12 13  1  0
 14 13  1  0
 15 17  1  0
 15 14  1  0
 16 27  2  0
 17 22  1  0
 18 26  1  0
 18 28  1  0
 19 25  1  0
 19 21  1  0
 20 26  1  0
 21 22  2  0
 21 20  1  0
 23 17  2  0
 24 23  1  0
 24 19  2  0
 25 18  1  0
 26 16  1  0
 28 30  2  0
 29 28  1  0
 31 29  1  0
 32 41  2  0
 32 37  1  0
 33 29  1  0
 33 37  1  0
 34 33  1  0
 35 36  1  0
 35 34  1  0
 36 32  1  0
 37 38  2  0
 38 39  1  0
 40 39  2  0
 41 40  1  0
 42 16  1  0
 42 43  1  0
 42 52  1  0
 43 46  1  0
 44 48  1  0
 44 43  1  0
 45 44  2  0
 48 47  1  0
 50 48  1  0
 50 51  1  0
 50 49  1  0
 52 55  1  1
 52 53  1  0
 54 52  1  0
 57 65  1  0
 58 63  1  0
 59 60  1  0
 59 58  1  0
 61 60  1  0
 61 70  1  0
 61 62  1  0
 63 57  1  0
 63 62  1  0
 64 57  2  0
 65 56  1  0
 65 66  1  0
 67 68  2  0
 68 87  1  0
 69 68  1  0
 69 72  1  0
 70 67  1  0
 70 71  1  0
 71 69  2  0
 72 73  1  0
 73 74  2  0
 75 78  1  0
 75 74  1  0
 76 75  2  0
 77 76  1  0
 77 72  2  0
 78 79  1  0
 79 80  1  0
 80 81  2  0
 82 81  1  0
 82 86  1  0
 83 82  2  0
 84 79  2  0
 84 83  1  0
 85 84  1  0
 87 88  1  0
 88 91  1  0
 88 90  1  0
 89 87  2  0
 92 93  1  0
 92 67  1  0
 94 92  1  0
M  ISO  4  14 101  15 101  57 100  65 100
M  END
>  <TORSDO>  (94) 
F 21

>  <SCORE>  (94) 
-13.478

>  <name>  (94) 
95

>  <ligand_id>  (94) 
95

>  <original_smiles>  (94) 
[H]c1c([H])c([H])c2c(c1[H])C([H])([H])C([H])([H])C([H])([H])C2([H])N([H])C(=O)C1([H])N(C(=O)C([H])(N([H])C(=O)C([H])(N([H])C([H])([H])[H])C([H])([H])[H])C(C([H])([H])[H])(C([H])([H])[H])C([H])([H])[H])C([H])([H])c2c([H])c(OC([H])([H])C([H])([H])C([H])([H])N([H])C3([H])C([H])([H])C([H])(C([H])([H])[H])C([H])(C([H])([H])N([H])C(=O)N4C([H])([H])C([H])([H])C([H])([H])C([H])(n5nc(-c6c([H])c([H])c(Oc7c([H])c([H])c(F)c([H])c7F)c([H])c6[H])c(C(=O)N([H])[H])c5N([H])[H])C4([H])[H])[N+]([H])([H])C3([H])[H])c([H])c([H])c2C1([H])[H]

>  <smiles>  (94) 
[H]c1c([H])c([H])c2c(c1[H])C([H])([H])C([H])([H])C([H])([H])C2([H])N([H])C(=O)C1([H])N(C(=O)C([H])(N([H])C(=O)C([H])(N([H])C([H])([H])[H])C([H])([H])[H])C(C([H])([H])[H])(C([H])([H])[H])C([H])([H])[H])C([H])([H])c2c([H])c(OC([H])([H])C([H])([H])C([H])([H])N([H])C3([H])C([H])([H])C([H])(C([H])([H])[H])C([H])(C([H])([H])N([H])C(=O)N4C([H])([H])C([H])([H])C([H])([H])C([H])(n5nc(-c6c([H])c([H])c(Oc7c([H])c([H])c(F)c([H])c7F)c([H])c6[H])c(C(=O)N([H])[H])c5N([H])[H])C4([H])[H])[N+]([H])([H])C3([H])[H])c([H])c([H])c2C1([H])[H]

$$$$
96:0:0
     RDKit          3D

 98106  0  0  1  0  0  0  0  0999 V2000
  -29.4500  -19.1500   20.9850 C   0  0  0  0  0  2  0  0  0  0  0  0
  -30.7260  -18.9420   18.8150 C   0  0  0  0  0  2  0  0  0  0  0  0
  -29.9510  -18.1690   19.9080 C   0  0  0  0  0  3  0  0  0  0  0  0
  -28.6110  -20.2730   20.3420 C   0  0  0  0  0  3  0  0  0  0  0  0
  -29.3880  -20.9780   19.1940 C   0  0  0  0  0  3  0  0  0  0  0  0
  -29.8760  -19.9870   18.2200 N   0  0  0  0  0  4  0  0  0  0  0  0
  -29.0870  -19.5750   17.7510 H   0  0  0  0  0  0  0  0  0  0  0  0
  -30.4050  -20.5070   17.5360 H   0  0  0  0  0  0  0  0  0  0  0  0
  -31.0370  -14.7020   20.2140 C   0  0  0  0  0  0  0  0  0  0  0  0
  -30.6610  -12.4850   19.2160 C   0  0  0  0  0  2  0  0  0  0  0  0
  -29.7430  -12.6440   17.9910 C   0  0  0  0  0  2  0  0  0  0  0  0
  -28.2700  -12.5190   18.4220 C   0  0  0  0  0  2  0  0  0  0  0  0
  -27.9230  -13.4330   19.6270 C   0  0  0  0  0  3  0  0  0  0  0  0
  -28.9810  -13.3300   20.7500 C   0  0  0  0  0  2  0  0  0  0  0  0
  -30.3070  -13.5580   20.1570 N   0  0  0  0  0  0  0  0  0  0  0  0
  -32.1970  -14.7520   19.7980 O   0  0  0  0  0  0  0  0  0  0  0  0
  -30.8470  -17.0680   20.4960 C   0  0  0  0  0  0  0  0  0  0  0  0
  -30.3450  -15.8170   20.5050 N   0  0  0  0  0  0  0  0  0  0  0  0
  -31.9890  -17.3630   20.8680 O   0  0  0  0  0  0  0  0  0  0  0  0
  -29.3440  -15.7230   20.5360 H   0  0  0  0  0  0  0  0  0  0  0  0
  -25.5390  -14.0630   20.3620 C   0  0  0  0  0  0  0  0  0  0  0  0
  -24.4670  -13.2990   20.7410 C   0  0  0  0  0  0  0  0  0  0  0  0
  -24.9170  -11.9440   20.7120 C   0  0  0  0  0  0  0  0  0  0  0  0
  -26.5740  -13.1710   20.1240 N   0  0  0  0  0  0  0  0  0  0  0  0
  -26.2040  -11.8920   20.3950 N   0  0  0  0  0  0  0  0  0  0  0  0
  -24.1800  -10.6870   20.9120 C   0  0  0  0  0  0  0  0  0  0  0  0
  -24.5720   -9.7460   21.8930 C   0  0  0  0  0  3  0  0  0  0  0  0
  -23.8350   -8.5560   22.0780 C   0  0  0  0  0  3  0  0  0  0  0  0
  -22.6910   -8.2980   21.2830 C   0  0  0  0  0  0  0  0  0  0  0  0
  -22.3200   -9.2250   20.2940 C   0  0  0  0  0  3  0  0  0  0  0  0
  -23.0590  -10.4070   20.1060 C   0  0  0  0  0  3  0  0  0  0  0  0
  -21.9280   -7.1590   21.3780 O   0  0  0  0  0  0  0  0  0  0  0  0
  -21.7980   -6.4720   22.5600 C   0  0  0  0  0  0  0  0  0  0  0  0
  -21.2190   -7.0600   23.7040 C   0  0  0  0  0  3  0  0  0  0  0  0
  -21.0470   -6.2980   24.8770 C   0  0  0  0  0  3  0  0  0  0  0  0
  -21.4450   -4.9470   24.9020 C   0  0  0  0  0  0  0  0  0  0  0  0
  -22.0180   -4.3580   23.7610 C   0  0  0  0  0  3  0  0  0  0  0  0
  -22.1920   -5.1180   22.5930 C   0  0  0  0  0  0  0  0  0  0  0  0
  -22.7240   -4.5410   21.4880 F   0  0  0  0  0  0  0  0  0  0  0  0
  -21.2710   -4.2100   26.0230 F   0  0  0  0  0  0  0  0  0  0  0  0
  -23.0750  -13.7870   21.0250 C   0  0  0  0  0  0  0  0  0  0  0  0
  -22.3480  -13.1000   21.9000 N   0  0  0  0  0  0  0  0  0  0  0  0
  -22.6390  -14.8120   20.5020 O   0  0  0  0  0  0  0  0  0  0  0  0
  -22.7140  -12.2680   22.3400 H   0  0  0  0  0  0  0  0  0  0  0  0
  -21.4170  -13.4070   22.1390 H   0  0  0  0  0  0  0  0  0  0  0  0
  -25.7140  -15.4330   20.1790 N   0  0  0  0  0  0  0  0  0  0  0  0
  -24.9480  -16.0890   20.2810 H   0  0  0  0  0  0  0  0  0  0  0  0
  -26.5640  -15.8630   19.8380 H   0  0  0  0  0  0  0  0  0  0  0  0
  -28.2170  -21.1940   21.4000 N   0  0  0  0  0  0  0  0  0  0  0  0
  -27.6600  -21.9470   21.0100 H   0  0  0  0  0  0  0  0  0  0  0  0
  -29.0240  -21.6680   21.7930 H   0  0  0  0  0  0  0  0  0  0  0  0
  -28.5260  -21.9960   18.4350 C   0  0  0  0  0  2  0  0  0  0  0  0
  -29.3880  -22.7870   17.5490 N   0  0  0  0  0  0  0  0  0  0  0  0
  -29.4070  -22.3640   16.6240 H   0  0  0  0  0  0  0  0  0  0  0  0
  -28.9110  -24.1510   17.3650 C   0  0  0  0  0  2  0  0  0  0  0  0
  -28.7720  -24.8680   18.7130 C   0  0  0  0  0  2  0  0  0  0  0  0
  -28.8320  -26.3810   18.5930 C   0  0  0  0  0  2  0  0  0  0  0  0
  -28.4380  -26.9050   19.8490 O   0  0  0  0  0  0  0  0  0  0  0  0
  -24.5300  -31.7500   23.1750 C   0  0  0  0  0  0  0  0  0  0  0  0
  -27.2170  -27.5210   19.9000 C   0  0  0  0  0  0  0  0  0  0  0  0
  -23.3300  -30.4220   21.4630 C   0  0  0  0  0  3  0  0  0  0  0  0
  -24.7960  -28.9590   19.9790 C   0  0  0  0  0  0  0  0  0  0  0  0
  -25.8500  -30.8110   21.2890 C   0  0  0  0  0  2  0  0  0  0  0  0
  -25.9390  -29.4690   20.6040 C   0  0  0  0  0  0  0  0  0  0  0  0
  -27.1440  -28.7430   20.5870 C   0  0  0  0  0  3  0  0  0  0  0  0
  -26.0530  -26.9980   19.2840 C   0  0  0  0  0  3  0  0  0  0  0  0
  -24.8420  -27.7140   19.3240 C   0  0  0  0  0  3  0  0  0  0  0  0
  -23.5450  -29.8030   20.0550 C   0  0  0  0  0  2  0  0  0  0  0  0
  -24.5880  -31.0050   22.0360 N   0  0  0  0  0  0  0  0  0  0  0  0
  -23.4480  -31.9950   23.7250 O   0  0  0  0  0  0  0  0  0  0  0  0
  -22.6860  -29.3520   22.3720 C   0  0  0  0  0  0  0  0  0  0  0  0
  -21.3560  -29.2010   22.2580 N   0  0  0  0  0  0  0  0  0  0  0  0
  -23.3760  -28.6660   23.1310 O   0  0  0  0  0  0  0  0  0  0  0  0
  -20.8690  -29.8100   21.6160 H   0  0  0  0  0  0  0  0  0  0  0  0
  -17.9580  -28.1050   22.7870 C   0  0  0  0  0  0  0  0  0  0  0  0
  -20.5320  -28.2360   22.9830 C   0  0  0  0  0  3  0  0  0  0  0  0
  -20.5550  -26.8570   22.2850 C   0  0  0  0  0  2  0  0  0  0  0  0
  -19.4030  -26.6610   21.2950 C   0  0  0  0  0  2  0  0  0  0  0  0
  -18.0530  -26.8080   22.0010 C   0  0  0  0  0  2  0  0  0  0  0  0
  -19.1220  -28.7840   23.2340 C   0  0  0  0  0  0  0  0  0  0  0  0
  -18.9780  -30.0060   23.9280 C   0  0  0  0  0  3  0  0  0  0  0  0
  -17.7010  -30.5410   24.1840 C   0  0  0  0  0  3  0  0  0  0  0  0
  -16.5520  -29.8530   23.7580 C   0  0  0  0  0  3  0  0  0  0  0  0
  -16.6820  -28.6390   23.0630 C   0  0  0  0  0  3  0  0  0  0  0  0
  -25.8160  -32.3510   23.8270 C   0  0  0  0  0  3  0  0  0  0  0  0
  -25.5240  -33.7490   24.1650 N   0  0  0  0  0  0  0  0  0  0  0  0
  -25.8920  -34.8010   23.4210 C   0  0  0  0  0  0  0  0  0  0  0  0
  -26.5840  -34.6960   22.4050 O   0  0  0  0  0  0  0  0  0  0  0  0
  -24.9150  -33.9030   24.9530 H   0  0  0  0  0  0  0  0  0  0  0  0
  -24.2190  -36.6360   23.0240 C   0  0  0  0  0  1  0  0  0  0  0  0
  -25.4170  -36.1930   23.8800 C   0  0  0  0  0  3  0  0  0  0  0  0
  -27.5210  -37.0310   24.8270 C   0  0  0  0  0  1  0  0  0  0  0  0
  -26.4730  -37.2250   23.8290 N   0  0  0  0  0  0  0  0  0  0  0  0
  -26.0790  -38.1540   23.9590 H   0  0  0  0  0  0  0  0  0  0  0  0
  -26.2950  -31.5550   25.1020 C   0  0  1  0  0  0  0  0  0  0  0  0
  -25.1750  -31.3180   26.1440 C   0  0  0  0  0  1  0  0  0  0  0  0
  -26.8620  -30.1720   24.7000 C   0  0  0  0  0  1  0  0  0  0  0  0
  -27.4410  -32.3240   25.8010 C   0  0  0  0  0  1  0  0  0  0  0  0
  2  3  1  0
  3 17  1  0
  3  1  1  0
  4  1  1  0
  4 49  1  0
  5 52  1  0
  5  4  1  0
  6  2  1  0
  6  5  1  0
  7  6  1  0
  8  6  1  0
  9 18  1  0
 10 15  1  0
 11 12  1  0
 11 10  1  0
 13 12  1  0
 13 24  1  0
 13 14  1  0
 15  9  1  0
 15 14  1  0
 16  9  2  0
 17 18  1  0
 17 19  2  0
 18 20  1  0
 21 22  2  0
 22 41  1  0
 23 22  1  0
 23 26  1  0
 24 21  1  0
 24 25  1  0
 25 23  2  0
 26 27  1  0
 27 28  2  0
 29 32  1  0
 29 28  1  0
 30 29  2  0
 31 30  1  0
 31 26  2  0
 32 33  1  0
 33 38  2  0
 33 34  1  0
 34 35  2  0
 35 36  1  0
 36 40  1  0
 37 36  2  0
 38 37  1  0
 39 38  1  0
 41 42  1  0
 42 45  1  0
 42 44  1  0
 43 41  2  0
 46 47  1  0
 46 21  1  0
 48 46  1  0
 49 51  1  0
 50 49  1  0
 53 52  1  0
 54 53  1  0
 55 53  1  0
 55 56  1  0
 57 56  1  0
 57 58  1  0
 58 60  1  0
 59 70  2  0
 60 65  1  0
 61 69  1  0
 61 71  1  0
 62 68  1  0
 62 64  1  0
 63 69  1  0
 64 63  1  0
 65 64  2  0
 66 67  1  0
 66 60  2  0
 67 62  2  0
 68 61  1  0
 69 59  1  0
 71 73  2  0
 72 71  1  0
 74 72  1  0
 75 84  2  0
 75 80  1  0
 76 72  1  0
 76 80  1  0
 77 76  1  0
 78 79  1  0
 78 77  1  0
 79 75  1  0
 80 81  2  0
 81 82  1  0
 83 82  2  0
 84 83  1  0
 85 59  1  0
 85 86  1  0
 85 95  1  0
 86 89  1  0
 87 91  1  0
 87 86  1  0
 88 87  2  0
 91 90  1  0
 93 91  1  0
 93 94  1  0
 93 92  1  0
 95 98  1  1
 95 96  1  0
 97 95  1  0
M  ISO  4   9 100  18 100  57 101  58 101
M  END
>  <TORSDO>  (95) 
F 22

>  <SCORE>  (95) 
-13.264

>  <name>  (95) 
96

>  <ligand_id>  (95) 
96

>  <original_smiles>  (95) 
[H]c1c([H])c([H])c2c(c1[H])C([H])([H])C([H])([H])C([H])([H])C2([H])N([H])C(=O)C1([H])N(C(=O)C([H])(N([H])C(=O)C([H])(N([H])C([H])([H])[H])C([H])([H])[H])C(C([H])([H])[H])(C([H])([H])[H])C([H])([H])[H])C([H])([H])c2c([H])c(OC([H])([H])C([H])([H])C([H])([H])N([H])C([H])([H])C3([H])C([H])(N([H])[H])C([H])([H])C([H])(C(=O)N([H])C(=O)N4C([H])([H])C([H])([H])C([H])([H])C([H])(n5nc(-c6c([H])c([H])c(Oc7c([H])c([H])c(F)c([H])c7F)c([H])c6[H])c(C(=O)N([H])[H])c5N([H])[H])C4([H])[H])C([H])([H])[N+]3([H])[H])c([H])c([H])c2C1([H])[H]

>  <smiles>  (95) 
[H]c1c([H])c([H])c2c(c1[H])C([H])([H])C([H])([H])C([H])([H])C2([H])N([H])C(=O)C1([H])N(C(=O)C([H])(N([H])C(=O)C([H])(N([H])C([H])([H])[H])C([H])([H])[H])C(C([H])([H])[H])(C([H])([H])[H])C([H])([H])[H])C([H])([H])c2c([H])c(OC([H])([H])C([H])([H])C([H])([H])N([H])C([H])([H])C3([H])C([H])(N([H])[H])C([H])([H])C([H])(C(=O)N([H])C(=O)N4C([H])([H])C([H])([H])C([H])([H])C([H])(n5nc(-c6c([H])c([H])c(Oc7c([H])c([H])c(F)c([H])c7F)c([H])c6[H])c(C(=O)N([H])[H])c5N([H])[H])C4([H])[H])C([H])([H])[N+]3([H])[H])c([H])c([H])c2C1([H])[H]

$$$$
97:0:0
     RDKit          3D

 94102  0  0  1  0  0  0  0  0999 V2000
  -30.1880  -22.3580   20.7250 C   0  0  0  0  0  2  0  0  0  0  0  0
  -29.8400  -23.7600   20.3740 N   0  0  0  0  0  4  0  0  0  0  0  0
  -29.7950  -23.8270   19.3700 H   0  0  0  0  0  0  0  0  0  0  0  0
  -28.9260  -23.9790   20.7370 H   0  0  0  0  0  0  0  0  0  0  0  0
  -30.8060  -24.7660   20.8840 C   0  0  0  0  0  2  0  0  0  0  0  0
  -30.7230  -26.1520   20.1970 C   0  0  0  0  0  2  0  0  0  0  0  0
  -29.5970  -27.1000   20.6620 C   0  0  0  0  0  2  0  0  0  0  0  0
  -28.3670  -26.6520   20.1150 O   0  0  0  0  0  0  0  0  0  0  0  0
  -24.5810  -31.8960   23.2420 C   0  0  0  0  0  0  0  0  0  0  0  0
  -27.2490  -27.4570   20.1860 C   0  0  0  0  0  0  0  0  0  0  0  0
  -23.3770  -30.4850   21.6040 C   0  0  0  0  0  3  0  0  0  0  0  0
  -24.8390  -28.9410   20.1930 C   0  0  0  0  0  0  0  0  0  0  0  0
  -25.9010  -30.8510   21.4070 C   0  0  0  0  0  2  0  0  0  0  0  0
  -25.9930  -29.4740   20.7820 C   0  0  0  0  0  0  0  0  0  0  0  0
  -27.2000  -28.7400   20.7860 C   0  0  0  0  0  3  0  0  0  0  0  0
  -26.0760  -26.9360   19.6040 C   0  0  0  0  0  3  0  0  0  0  0  0
  -24.8740  -27.6660   19.6040 C   0  0  0  0  0  3  0  0  0  0  0  0
  -23.5910  -29.7950   20.2290 C   0  0  0  0  0  2  0  0  0  0  0  0
  -24.6380  -31.0920   22.1430 N   0  0  0  0  0  0  0  0  0  0  0  0
  -23.5000  -32.1720   23.7790 O   0  0  0  0  0  0  0  0  0  0  0  0
  -22.7260  -29.4700   22.5690 C   0  0  0  0  0  0  0  0  0  0  0  0
  -21.4000  -29.2920   22.4440 N   0  0  0  0  0  0  0  0  0  0  0  0
  -23.4090  -28.8440   23.3840 O   0  0  0  0  0  0  0  0  0  0  0  0
  -20.9120  -29.8480   21.7570 H   0  0  0  0  0  0  0  0  0  0  0  0
  -18.0200  -28.1230   22.9550 C   0  0  0  0  0  0  0  0  0  0  0  0
  -20.5810  -28.3600   23.2180 C   0  0  0  0  0  3  0  0  0  0  0  0
  -20.6700  -26.9290   22.6390 C   0  0  0  0  0  2  0  0  0  0  0  0
  -19.5610  -26.6150   21.6310 C   0  0  0  0  0  2  0  0  0  0  0  0
  -18.1830  -26.7720   22.2790 C   0  0  0  0  0  2  0  0  0  0  0  0
  -19.1470  -28.8760   23.3820 C   0  0  0  0  0  0  0  0  0  0  0  0
  -18.9420  -30.1420   23.9710 C   0  0  0  0  0  3  0  0  0  0  0  0
  -17.6420  -30.6540   24.1410 C   0  0  0  0  0  3  0  0  0  0  0  0
  -16.5290  -29.8980   23.7340 C   0  0  0  0  0  3  0  0  0  0  0  0
  -16.7200  -28.6350   23.1450 C   0  0  0  0  0  3  0  0  0  0  0  0
  -25.8680  -32.5290   23.8600 C   0  0  0  0  0  3  0  0  0  0  0  0
  -25.5600  -33.9280   24.1850 N   0  0  0  0  0  0  0  0  0  0  0  0
  -25.8980  -34.9770   23.4230 C   0  0  0  0  0  0  0  0  0  0  0  0
  -26.5720  -34.8700   22.3960 O   0  0  0  0  0  0  0  0  0  0  0  0
  -24.9610  -34.0860   24.9830 H   0  0  0  0  0  0  0  0  0  0  0  0
  -24.1740  -36.7700   23.0500 C   0  0  0  0  0  1  0  0  0  0  0  0
  -25.4080  -36.3670   23.8720 C   0  0  0  0  0  3  0  0  0  0  0  0
  -27.5390  -37.2470   24.7160 C   0  0  0  0  0  1  0  0  0  0  0  0
  -26.4440  -37.4180   23.7650 N   0  0  0  0  0  0  0  0  0  0  0  0
  -26.0390  -38.3390   23.9100 H   0  0  0  0  0  0  0  0  0  0  0  0
  -26.3890  -31.7590   25.1340 C   0  0  1  0  0  0  0  0  0  0  0  0
  -25.2990  -31.5210   26.2050 C   0  0  0  0  0  1  0  0  0  0  0  0
  -26.9710  -30.3810   24.7390 C   0  0  0  0  0  1  0  0  0  0  0  0
  -27.5410  -32.5540   25.7920 C   0  0  0  0  0  1  0  0  0  0  0  0
  -29.0530  -21.3550   20.3990 C   0  0  0  0  0  2  0  0  0  0  0  0
  -30.1970  -19.2460   21.0230 C   0  0  0  0  0  2  0  0  0  0  0  0
  -28.3740  -19.1880   19.5780 C   0  0  0  0  0  2  0  0  0  0  0  0
  -30.1620  -17.8100   20.4740 C   0  0  0  0  0  3  0  0  0  0  0  0
  -28.7530  -17.7300   19.8870 C   0  0  0  0  0  3  0  0  0  0  0  0
  -29.5130  -20.0210   19.9830 N   0  0  0  0  0  0  0  0  0  0  0  0
  -27.8830  -17.2510   20.7810 F   0  0  0  0  0  0  0  0  0  0  0  0
  -30.5520  -16.7120   21.5020 C   0  0  0  0  0  2  0  0  0  0  0  0
  -30.7190  -14.4500   20.3800 C   0  0  0  0  0  0  0  0  0  0  0  0
  -30.3650  -12.3560   19.1190 C   0  0  0  0  0  2  0  0  0  0  0  0
  -29.3980  -12.6090   17.9440 C   0  0  0  0  0  2  0  0  0  0  0  0
  -27.9300  -12.4800   18.3980 C   0  0  0  0  0  2  0  0  0  0  0  0
  -27.6310  -13.2830   19.6920 C   0  0  0  0  0  3  0  0  0  0  0  0
  -28.6990  -12.9890   20.7690 C   0  0  0  0  0  2  0  0  0  0  0  0
  -30.0220  -13.2960   20.1940 N   0  0  0  0  0  0  0  0  0  0  0  0
  -31.7970  -14.6910   19.8300 O   0  0  0  0  0  0  0  0  0  0  0  0
  -30.1040  -15.3580   21.1520 N   0  0  0  0  0  0  0  0  0  0  0  0
  -29.2150  -15.0710   21.5350 H   0  0  0  0  0  0  0  0  0  0  0  0
  -25.2380  -13.9060   20.4140 C   0  0  0  0  0  0  0  0  0  0  0  0
  -24.1690  -13.1410   20.7950 C   0  0  0  0  0  0  0  0  0  0  0  0
  -24.6250  -11.7880   20.7710 C   0  0  0  0  0  0  0  0  0  0  0  0
  -26.2790  -13.0190   20.1830 N   0  0  0  0  0  0  0  0  0  0  0  0
  -25.9120  -11.7400   20.4540 N   0  0  0  0  0  0  0  0  0  0  0  0
  -23.8960  -10.5300   20.9790 C   0  0  0  0  0  0  0  0  0  0  0  0
  -24.3390   -9.5650   21.9100 C   0  0  0  0  0  3  0  0  0  0  0  0
  -23.6110   -8.3710   22.1040 C   0  0  0  0  0  3  0  0  0  0  0  0
  -22.4260   -8.1350   21.3670 C   0  0  0  0  0  0  0  0  0  0  0  0
  -22.0020   -9.0880   20.4260 C   0  0  0  0  0  3  0  0  0  0  0  0
  -22.7300  -10.2740   20.2300 C   0  0  0  0  0  3  0  0  0  0  0  0
  -21.6690   -6.9920   21.4710 O   0  0  0  0  0  0  0  0  0  0  0  0
  -21.6400   -6.2490   22.6240 C   0  0  0  0  0  0  0  0  0  0  0  0
  -21.2530   -6.8090   23.8610 C   0  0  0  0  0  3  0  0  0  0  0  0
  -21.1710   -5.9930   25.0080 C   0  0  0  0  0  3  0  0  0  0  0  0
  -21.4670   -4.6190   24.9180 C   0  0  0  0  0  0  0  0  0  0  0  0
  -21.8460   -4.0590   23.6850 C   0  0  0  0  0  3  0  0  0  0  0  0
  -21.9300   -4.8730   22.5400 C   0  0  0  0  0  0  0  0  0  0  0  0
  -22.2770   -4.3250   21.3510 F   0  0  0  0  0  0  0  0  0  0  0  0
  -21.3800   -3.8330   26.0160 F   0  0  0  0  0  0  0  0  0  0  0  0
  -22.7770  -13.6270   21.0800 C   0  0  0  0  0  0  0  0  0  0  0  0
  -22.0560  -12.9400   21.9600 N   0  0  0  0  0  0  0  0  0  0  0  0
  -22.3360  -14.6490   20.5570 O   0  0  0  0  0  0  0  0  0  0  0  0
  -22.4240  -12.1120   22.4050 H   0  0  0  0  0  0  0  0  0  0  0  0
  -21.1220  -13.2470   22.1930 H   0  0  0  0  0  0  0  0  0  0  0  0
  -25.4060  -15.2760   20.2330 N   0  0  0  0  0  0  0  0  0  0  0  0
  -24.6540  -15.9360   20.3890 H   0  0  0  0  0  0  0  0  0  0  0  0
  -26.2890  -15.7290   20.0290 H   0  0  0  0  0  0  0  0  0  0  0  0
  2  1  1  0
  2  4  1  0
  2  5  1  0
  3  2  1  0
  6  7  1  0
  6  5  1  0
  8 10  1  0
  8  7  1  0
  9 20  2  0
 10 15  1  0
 11 19  1  0
 11 21  1  0
 12 18  1  0
 12 14  1  0
 13 19  1  0
 14 15  2  0
 14 13  1  0
 16 10  2  0
 17 16  1  0
 17 12  2  0
 18 11  1  0
 19  9  1  0
 21 23  2  0
 22 21  1  0
 24 22  1  0
 25 34  2  0
 25 30  1  0
 26 22  1  0
 26 30  1  0
 27 26  1  0
 28 29  1  0
 28 27  1  0
 29 25  1  0
 30 31  2  0
 31 32  1  0
 33 32  2  0
 34 33  1  0
 35  9  1  0
 35 36  1  0
 35 45  1  0
 36 39  1  0
 37 41  1  0
 37 36  1  0
 38 37  2  0
 41 40  1  0
 43 41  1  0
 43 44  1  0
 43 42  1  0
 45 48  1  1
 45 46  1  0
 47 45  1  0
 49  1  1  0
 51 53  1  0
 51 54  1  0
 52 50  1  0
 52 56  1  0
 53 52  1  0
 53 55  1  0
 54 49  1  0
 54 50  1  0
 57 65  1  0
 58 63  1  0
 59 60  1  0
 59 58  1  0
 61 60  1  0
 61 70  1  0
 61 62  1  0
 63 57  1  0
 63 62  1  0
 64 57  2  0
 65 56  1  0
 65 66  1  0
 67 68  2  0
 68 87  1  0
 69 68  1  0
 69 72  1  0
 70 67  1  0
 70 71  1  0
 71 69  2  0
 72 73  1  0
 73 74  2  0
 75 78  1  0
 75 74  1  0
 76 75  2  0
 77 76  1  0
 77 72  2  0
 78 79  1  0
 79 80  1  0
 80 81  2  0
 82 81  1  0
 82 86  1  0
 83 82  2  0
 84 79  2  0
 84 83  1  0
 85 84  1  0
 87 88  1  0
 88 91  1  0
 88 90  1  0
 89 87  2  0
 92 93  1  0
 92 67  1  0
 94 92  1  0
M  ISO  4   7 101   8 101  57 100  65 100
M  END
>  <TORSDO>  (96) 
F 23

>  <SCORE>  (96) 
-13.106

>  <name>  (96) 
97

>  <ligand_id>  (96) 
97

>  <original_smiles>  (96) 
[H]c1c([H])c([H])c2c(c1[H])C([H])([H])C([H])([H])C([H])([H])C2([H])N([H])C(=O)C1([H])N(C(=O)C([H])(N([H])C(=O)C([H])(N([H])C([H])([H])[H])C([H])([H])[H])C(C([H])([H])[H])(C([H])([H])[H])C([H])([H])[H])C([H])([H])c2c([H])c(OC([H])([H])C([H])([H])C([H])([H])[N+]([H])([H])C([H])([H])C([H])([H])N3C([H])([H])C([H])(F)C([H])(C([H])([H])N([H])C(=O)N4C([H])([H])C([H])([H])C([H])([H])C([H])(n5nc(-c6c([H])c([H])c(Oc7c([H])c([H])c(F)c([H])c7F)c([H])c6[H])c(C(=O)N([H])[H])c5N([H])[H])C4([H])[H])C3([H])[H])c([H])c([H])c2C1([H])[H]

>  <smiles>  (96) 
[H]c1c([H])c([H])c2c(c1[H])C([H])([H])C([H])([H])C([H])([H])C2([H])N([H])C(=O)C1([H])N(C(=O)C([H])(N([H])C(=O)C([H])(N([H])C([H])([H])[H])C([H])([H])[H])C(C([H])([H])[H])(C([H])([H])[H])C([H])([H])[H])C([H])([H])c2c([H])c(OC([H])([H])C([H])([H])C([H])([H])[N+]([H])([H])C([H])([H])C([H])([H])N3C([H])([H])C([H])(F)C([H])(C([H])([H])N([H])C(=O)N4C([H])([H])C([H])([H])C([H])([H])C([H])(n5nc(-c6c([H])c([H])c(Oc7c([H])c([H])c(F)c([H])c7F)c([H])c6[H])c(C(=O)N([H])[H])c5N([H])[H])C4([H])[H])C3([H])[H])c([H])c([H])c2C1([H])[H]

$$$$
98:0:0
     RDKit          3D

 92100  0  0  1  0  0  0  0  0999 V2000
  -28.6900  -21.6880   20.3330 N   0  0  0  0  0  4  0  0  0  0  0  0
  -27.7390  -21.5070   20.0510 H   0  0  0  0  0  0  0  0  0  0  0  0
  -29.2510  -21.7260   19.4960 H   0  0  0  0  0  0  0  0  0  0  0  0
  -29.1710  -20.5580   21.1880 C   0  0  0  0  0  2  0  0  0  0  0  0
  -28.6990  -19.1270   20.7660 C   0  0  0  0  0  2  0  0  0  0  0  0
  -30.9010  -14.6510   20.2840 C   0  0  0  0  0  0  0  0  0  0  0  0
  -30.6070  -12.4000   19.3610 C   0  0  0  0  0  2  0  0  0  0  0  0
  -29.6760  -12.5030   18.1360 C   0  0  0  0  0  2  0  0  0  0  0  0
  -28.2000  -12.3900   18.5660 C   0  0  0  0  0  2  0  0  0  0  0  0
  -27.8410  -13.3000   19.7720 C   0  0  0  0  0  3  0  0  0  0  0  0
  -28.9030  -13.2260   20.8920 C   0  0  0  0  0  2  0  0  0  0  0  0
  -30.2120  -13.4780   20.2790 N   0  0  0  0  0  0  0  0  0  0  0  0
  -32.1290  -14.6620   20.1870 O   0  0  0  0  0  0  0  0  0  0  0  0
  -30.4590  -18.5420   19.0250 C   0  0  0  0  0  2  0  0  0  0  0  0
  -30.7640  -16.1680   18.3740 C   0  0  0  0  0  2  0  0  0  0  0  0
  -29.2850  -16.6290   20.2850 C   0  0  0  0  0  2  0  0  0  0  0  0
  -31.4930  -17.5080   18.5620 C   0  0  0  0  0  3  0  0  0  0  0  0
  -29.8070  -18.1120   20.3520 C   0  0  0  0  0  3  0  0  0  0  0  0
  -32.2430  -17.9580   17.3010 C   0  0  0  0  0  1  0  0  0  0  0  0
  -30.2430  -15.6780   19.6670 N   0  0  0  0  0  0  0  0  0  0  0  0
  -25.4620  -13.9230   20.5080 C   0  0  0  0  0  0  0  0  0  0  0  0
  -24.3890  -13.1590   20.8770 C   0  0  0  0  0  0  0  0  0  0  0  0
  -24.8380  -11.8040   20.8430 C   0  0  0  0  0  0  0  0  0  0  0  0
  -26.4960  -13.0330   20.2700 N   0  0  0  0  0  0  0  0  0  0  0  0
  -26.1270  -11.7530   20.5360 N   0  0  0  0  0  0  0  0  0  0  0  0
  -24.0970  -10.5480   21.0260 C   0  0  0  0  0  0  0  0  0  0  0  0
  -24.5130   -9.5820   21.9680 C   0  0  0  0  0  3  0  0  0  0  0  0
  -23.7770   -8.3890   22.1400 C   0  0  0  0  0  3  0  0  0  0  0  0
  -22.6130   -8.1570   21.3700 C   0  0  0  0  0  0  0  0  0  0  0  0
  -22.2160   -9.1130   20.4180 C   0  0  0  0  0  3  0  0  0  0  0  0
  -22.9530  -10.2960   20.2430 C   0  0  0  0  0  3  0  0  0  0  0  0
  -21.8470   -7.0200   21.4540 O   0  0  0  0  0  0  0  0  0  0  0  0
  -21.7590   -6.2930   22.6160 C   0  0  0  0  0  0  0  0  0  0  0  0
  -21.2350   -6.8470   23.8040 C   0  0  0  0  0  3  0  0  0  0  0  0
  -21.1020   -6.0440   24.9550 C   0  0  0  0  0  3  0  0  0  0  0  0
  -21.4810   -4.6880   24.9160 C   0  0  0  0  0  0  0  0  0  0  0  0
  -21.9950   -4.1340   23.7310 C   0  0  0  0  0  3  0  0  0  0  0  0
  -22.1320   -4.9350   22.5830 C   0  0  0  0  0  0  0  0  0  0  0  0
  -22.6110   -4.3900   21.4390 F   0  0  0  0  0  0  0  0  0  0  0  0
  -21.3440   -3.9140   26.0170 F   0  0  0  0  0  0  0  0  0  0  0  0
  -22.9970  -13.6510   21.1510 C   0  0  0  0  0  0  0  0  0  0  0  0
  -22.2630  -12.9640   22.0190 N   0  0  0  0  0  0  0  0  0  0  0  0
  -22.5670  -14.6780   20.6270 O   0  0  0  0  0  0  0  0  0  0  0  0
  -22.6200  -12.1350   22.4690 H   0  0  0  0  0  0  0  0  0  0  0  0
  -21.3290  -13.2750   22.2430 H   0  0  0  0  0  0  0  0  0  0  0  0
  -25.6400  -15.2920   20.3330 N   0  0  0  0  0  0  0  0  0  0  0  0
  -24.8810  -15.9530   20.4490 H   0  0  0  0  0  0  0  0  0  0  0  0
  -26.4960  -15.7190   20.0070 H   0  0  0  0  0  0  0  0  0  0  0  0
  -28.7310  -23.0160   21.0200 C   0  0  0  0  0  2  0  0  0  0  0  0
  -28.5040  -24.2750   20.1220 C   0  0  0  0  0  2  0  0  0  0  0  0
  -28.4690  -25.5930   20.9520 C   0  0  0  0  0  2  0  0  0  0  0  0
  -28.4930  -26.8170   20.1870 O   0  0  0  0  0  0  0  0  0  0  0  0
  -24.5860  -31.9640   23.2340 C   0  0  0  0  0  0  0  0  0  0  0  0
  -27.3270  -27.5510   20.1930 C   0  0  0  0  0  0  0  0  0  0  0  0
  -23.4230  -30.5580   21.5610 C   0  0  0  0  0  3  0  0  0  0  0  0
  -24.9190  -29.0350   20.1590 C   0  0  0  0  0  0  0  0  0  0  0  0
  -25.9490  -30.9420   21.4100 C   0  0  0  0  0  2  0  0  0  0  0  0
  -26.0600  -29.5710   20.7710 C   0  0  0  0  0  0  0  0  0  0  0  0
  -27.2680  -28.8380   20.7830 C   0  0  0  0  0  3  0  0  0  0  0  0
  -26.1710  -27.0300   19.5770 C   0  0  0  0  0  3  0  0  0  0  0  0
  -24.9710  -27.7640   19.5580 C   0  0  0  0  0  3  0  0  0  0  0  0
  -23.6680  -29.8820   20.1840 C   0  0  0  0  0  2  0  0  0  0  0  0
  -24.6700  -31.1700   22.1260 N   0  0  0  0  0  0  0  0  0  0  0  0
  -23.4930  -32.2150   23.7600 O   0  0  0  0  0  0  0  0  0  0  0  0
  -22.7620  -29.5280   22.5070 C   0  0  0  0  0  0  0  0  0  0  0  0
  -21.4380  -29.3490   22.3690 N   0  0  0  0  0  0  0  0  0  0  0  0
  -23.4400  -28.8930   23.3190 O   0  0  0  0  0  0  0  0  0  0  0  0
  -20.9530  -29.9170   21.6880 H   0  0  0  0  0  0  0  0  0  0  0  0
  -18.0550  -28.1840   22.8600 C   0  0  0  0  0  0  0  0  0  0  0  0
  -20.6180  -28.3990   23.1200 C   0  0  0  0  0  3  0  0  0  0  0  0
  -20.6970  -26.9820   22.5080 C   0  0  0  0  0  2  0  0  0  0  0  0
  -19.5830  -26.7010   21.4940 C   0  0  0  0  0  2  0  0  0  0  0  0
  -18.2080  -26.8510   22.1510 C   0  0  0  0  0  2  0  0  0  0  0  0
  -19.1880  -28.9190   23.3040 C   0  0  0  0  0  0  0  0  0  0  0  0
  -18.9900  -30.1710   23.9280 C   0  0  0  0  0  3  0  0  0  0  0  0
  -17.6930  -30.6850   24.1160 C   0  0  0  0  0  3  0  0  0  0  0  0
  -16.5760  -29.9450   23.6920 C   0  0  0  0  0  3  0  0  0  0  0  0
  -16.7580  -28.6970   23.0680 C   0  0  0  0  0  3  0  0  0  0  0  0
  -25.8540  -32.6060   23.8780 C   0  0  0  0  0  3  0  0  0  0  0  0
  -25.5350  -34.0090   24.1800 N   0  0  0  0  0  0  0  0  0  0  0  0
  -25.8940  -35.0500   23.4180 C   0  0  0  0  0  0  0  0  0  0  0  0
  -26.5970  -34.9290   22.4100 O   0  0  0  0  0  0  0  0  0  0  0  0
  -24.9180  -34.1760   24.9620 H   0  0  0  0  0  0  0  0  0  0  0  0
  -24.2010  -36.8540   22.9600 C   0  0  0  0  0  1  0  0  0  0  0  0
  -25.3950  -36.4450   23.8380 C   0  0  0  0  0  3  0  0  0  0  0  0
  -27.4830  -37.3280   24.7840 C   0  0  0  0  0  1  0  0  0  0  0  0
  -26.4390  -37.4900   23.7740 N   0  0  0  0  0  0  0  0  0  0  0  0
  -26.0330  -38.4160   23.8850 H   0  0  0  0  0  0  0  0  0  0  0  0
  -26.3370  -31.8530   25.1790 C   0  0  1  0  0  0  0  0  0  0  0  0
  -25.2160  -31.6250   26.2190 C   0  0  0  0  0  1  0  0  0  0  0  0
  -26.9360  -30.4730   24.8220 C   0  0  0  0  0  1  0  0  0  0  0  0
  -27.4630  -32.6600   25.8660 C   0  0  0  0  0  1  0  0  0  0  0  0
  1 49  1  0
  1  4  1  0
  2  1  1  0
  3  1  1  0
  5  4  1  0
  7 12  1  0
  8  9  1  0
  8  7  1  0
 10  9  1  0
 10 24  1  0
 10 11  1  0
 12  6  1  0
 12 11  1  0
 13  6  2  0
 14 18  1  0
 15 17  1  0
 15 20  1  0
 16 18  1  0
 17 19  1  0
 17 14  1  0
 18  5  1  0
 20  6  1  0
 20 16  1  0
 21 22  2  0
 22 41  1  0
 23 22  1  0
 23 26  1  0
 24 21  1  0
 24 25  1  0
 25 23  2  0
 26 27  1  0
 27 28  2  0
 29 32  1  0
 29 28  1  0
 30 29  2  0
 31 30  1  0
 31 26  2  0
 32 33  1  0
 33 34  1  0
 34 35  2  0
 36 35  1  0
 36 40  1  0
 37 36  2  0
 38 33  2  0
 38 37  1  0
 39 38  1  0
 41 42  1  0
 42 45  1  0
 42 44  1  0
 43 41  2  0
 46 47  1  0
 46 21  1  0
 48 46  1  0
 50 51  1  0
 50 49  1  0
 52 54  1  0
 52 51  1  0
 53 64  2  0
 54 59  1  0
 55 63  1  0
 55 65  1  0
 56 62  1  0
 56 58  1  0
 57 63  1  0
 58 59  2  0
 58 57  1  0
 60 54  2  0
 61 60  1  0
 61 56  2  0
 62 55  1  0
 63 53  1  0
 65 67  2  0
 66 65  1  0
 68 66  1  0
 69 78  2  0
 69 74  1  0
 70 66  1  0
 70 74  1  0
 71 70  1  0
 72 73  1  0
 72 71  1  0
 73 69  1  0
 74 75  2  0
 75 76  1  0
 77 76  2  0
 78 77  1  0
 79 53  1  0
 79 80  1  0
 79 89  1  0
 80 83  1  0
 81 85  1  0
 81 80  1  0
 82 81  2  0
 85 84  1  0
 87 85  1  0
 87 88  1  0
 87 86  1  0
 89 92  1  1
 89 90  1  0
 91 89  1  0
M  ISO  4   6 100  20 100  51 101  52 101
M  END
>  <TORSDO>  (97) 
F 21

>  <SCORE>  (97) 
-13.148

>  <name>  (97) 
98

>  <ligand_id>  (97) 
98

>  <original_smiles>  (97) 
[H]c1c([H])c([H])c2c(c1[H])C([H])([H])C([H])([H])C([H])([H])C2([H])N([H])C(=O)C1([H])N(C(=O)C([H])(N([H])C(=O)C([H])(N([H])C([H])([H])[H])C([H])([H])[H])C(C([H])([H])[H])(C([H])([H])[H])C([H])([H])[H])C([H])([H])c2c([H])c(OC([H])([H])C([H])([H])C([H])([H])[N+]([H])([H])C([H])([H])C([H])([H])C3([H])C([H])([H])N(C(=O)N4C([H])([H])C([H])([H])C([H])([H])C([H])(n5nc(-c6c([H])c([H])c(Oc7c([H])c([H])c(F)c([H])c7F)c([H])c6[H])c(C(=O)N([H])[H])c5N([H])[H])C4([H])[H])C([H])([H])C([H])(C([H])([H])[H])C3([H])[H])c([H])c([H])c2C1([H])[H]

>  <smiles>  (97) 
[H]c1c([H])c([H])c2c(c1[H])C([H])([H])C([H])([H])C([H])([H])C2([H])N([H])C(=O)C1([H])N(C(=O)C([H])(N([H])C(=O)C([H])(N([H])C([H])([H])[H])C([H])([H])[H])C(C([H])([H])[H])(C([H])([H])[H])C([H])([H])[H])C([H])([H])c2c([H])c(OC([H])([H])C([H])([H])C([H])([H])[N+]([H])([H])C([H])([H])C([H])([H])C3([H])C([H])([H])N(C(=O)N4C([H])([H])C([H])([H])C([H])([H])C([H])(n5nc(-c6c([H])c([H])c(Oc7c([H])c([H])c(F)c([H])c7F)c([H])c6[H])c(C(=O)N([H])[H])c5N([H])[H])C4([H])[H])C([H])([H])C([H])(C([H])([H])[H])C3([H])[H])c([H])c([H])c2C1([H])[H]

$$$$
