0:0:0
     RDKit          3D

 98106  0  0  1  0  0  0  0  0999 V2000
  -32.2770  -23.8370   19.1910 C   0  0  0  0  0  2  0  0  0  0  0  0
  -32.8420  -25.1100   19.8530 C   0  0  0  0  0  2  0  0  0  0  0  0
  -33.2420  -26.2080   18.8430 C   0  0  0  0  0  2  0  0  0  0  0  0
  -32.1010  -26.6770   18.0290 N   0  0  0  0  0  4  0  0  0  0  0  0
  -31.6030  -25.8720   17.6900 H   0  0  0  0  0  0  0  0  0  0  0  0
  -32.4750  -27.1520   17.2210 H   0  0  0  0  0  0  0  0  0  0  0  0
  -31.1740  -27.6120   18.7090 C   0  0  0  0  0  2  0  0  0  0  0  0
  -29.7520  -27.5380   18.1220 C   0  0  0  0  0  2  0  0  0  0  0  0
  -28.8970  -26.4120   18.7370 C   0  0  0  0  0  2  0  0  0  0  0  0
  -28.4660  -26.7810   20.0500 O   0  0  0  0  0  0  0  0  0  0  0  0
  -24.6460  -31.8810   23.2280 C   0  0  0  0  0  0  0  0  0  0  0  0
  -27.2780  -27.4690   20.1070 C   0  0  0  0  0  0  0  0  0  0  0  0
  -23.4260  -30.4760   21.5970 C   0  0  0  0  0  3  0  0  0  0  0  0
  -24.8690  -28.9360   20.1680 C   0  0  0  0  0  0  0  0  0  0  0  0
  -25.9480  -30.8400   21.3800 C   0  0  0  0  0  2  0  0  0  0  0  0
  -26.0280  -29.4680   20.7460 C   0  0  0  0  0  0  0  0  0  0  0  0
  -27.2330  -28.7350   20.7290 C   0  0  0  0  0  3  0  0  0  0  0  0
  -26.0960  -26.9280   19.5580 C   0  0  0  0  0  3  0  0  0  0  0  0
  -24.8930  -27.6590   19.5810 C   0  0  0  0  0  3  0  0  0  0  0  0
  -23.6260  -29.7950   20.2160 C   0  0  0  0  0  2  0  0  0  0  0  0
  -24.6910  -31.0800   22.1260 N   0  0  0  0  0  0  0  0  0  0  0  0
  -23.5690  -32.1550   23.7760 O   0  0  0  0  0  0  0  0  0  0  0  0
  -22.7840  -29.4540   22.5620 C   0  0  0  0  0  0  0  0  0  0  0  0
  -21.4590  -29.2690   22.4410 N   0  0  0  0  0  0  0  0  0  0  0  0
  -23.4730  -28.8330   23.3750 O   0  0  0  0  0  0  0  0  0  0  0  0
  -20.9660  -29.8230   21.7560 H   0  0  0  0  0  0  0  0  0  0  0  0
  -18.0880  -28.0700   22.9480 C   0  0  0  0  0  0  0  0  0  0  0  0
  -20.6460  -28.3320   23.2160 C   0  0  0  0  0  3  0  0  0  0  0  0
  -20.7500  -26.9000   22.6420 C   0  0  0  0  0  2  0  0  0  0  0  0
  -19.6460  -26.5720   21.6320 C   0  0  0  0  0  2  0  0  0  0  0  0
  -18.2650  -26.7180   22.2780 C   0  0  0  0  0  2  0  0  0  0  0  0
  -19.2070  -28.8350   23.3730 C   0  0  0  0  0  0  0  0  0  0  0  0
  -18.9880  -30.1010   23.9580 C   0  0  0  0  0  3  0  0  0  0  0  0
  -17.6840  -30.6020   24.1240 C   0  0  0  0  0  3  0  0  0  0  0  0
  -16.5800  -29.8340   23.7150 C   0  0  0  0  0  3  0  0  0  0  0  0
  -16.7830  -28.5710   23.1330 C   0  0  0  0  0  3  0  0  0  0  0  0
  -25.9380  -32.5100   23.8370 C   0  0  0  0  0  3  0  0  0  0  0  0
  -26.4700  -31.7320   25.1040 C   0  0  1  0  0  0  0  0  0  0  0  0
  -25.3910  -31.4880   26.1820 C   0  0  0  0  0  1  0  0  0  0  0  0
  -27.0510  -30.3580   24.6950 C   0  0  0  0  0  1  0  0  0  0  0  0
  -27.6270  -32.5250   25.7560 C   0  0  0  0  0  1  0  0  0  0  0  0
  -25.6330  -33.9060   24.1750 N   0  0  0  0  0  0  0  0  0  0  0  0
  -25.9620  -34.9600   23.4170 C   0  0  0  0  0  0  0  0  0  0  0  0
  -26.6270  -34.8600   22.3830 O   0  0  0  0  0  0  0  0  0  0  0  0
  -25.0450  -34.0580   24.9820 H   0  0  0  0  0  0  0  0  0  0  0  0
  -24.2350  -36.7530   23.0660 C   0  0  0  0  0  1  0  0  0  0  0  0
  -25.4760  -36.3470   23.8790 C   0  0  0  0  0  3  0  0  0  0  0  0
  -27.6100  -37.2210   24.7170 C   0  0  0  0  0  1  0  0  0  0  0  0
  -26.5100  -37.3990   23.7730 N   0  0  0  0  0  0  0  0  0  0  0  0
  -26.1050  -38.3190   23.9260 H   0  0  0  0  0  0  0  0  0  0  0  0
  -31.9230  -22.7390   20.2050 C   0  0  0  0  0  2  0  0  0  0  0  0
  -31.2790  -21.5090   19.5270 C   0  0  0  0  0  2  0  0  0  0  0  0
  -32.1490  -18.5080   21.7660 C   0  0  0  0  0  2  0  0  0  0  0  0
  -29.8700  -18.1680   20.8040 C   0  0  0  0  0  2  0  0  0  0  0  0
  -32.3660  -19.6910   20.8100 C   0  0  0  0  0  2  0  0  0  0  0  0
  -30.1020  -19.3800   19.8780 C   0  0  0  0  0  2  0  0  0  0  0  0
  -31.1980  -17.4750   21.1520 C   0  0  0  0  0  3  0  0  0  0  0  0
  -31.0830  -20.3520   20.4390 N   0  0  2  0  0  4  0  0  0  0  0  0
  -30.6730  -20.7130   21.2870 H   0  0  0  0  0  0  0  0  0  0  0  0
  -31.0280  -16.2550   22.0850 C   0  0  0  0  0  2  0  0  0  0  0  0
  -30.6660  -14.3970   20.4720 C   0  0  0  0  0  0  0  0  0  0  0  0
  -30.2540  -12.3650   19.1430 C   0  0  0  0  0  2  0  0  0  0  0  0
  -29.2980  -12.6340   17.9660 C   0  0  0  0  0  2  0  0  0  0  0  0
  -27.8310  -12.4910   18.4150 C   0  0  0  0  0  2  0  0  0  0  0  0
  -27.5230  -13.2850   19.7120 C   0  0  0  0  0  3  0  0  0  0  0  0
  -28.5850  -13.0040   20.7980 C   0  0  0  0  0  2  0  0  0  0  0  0
  -29.9160  -13.2920   20.2320 N   0  0  0  0  0  0  0  0  0  0  0  0
  -31.6860  -14.6690   19.8340 O   0  0  0  0  0  0  0  0  0  0  0  0
  -30.2590  -15.1620   21.4920 N   0  0  0  0  0  0  0  0  0  0  0  0
  -29.4180  -14.8730   21.9680 H   0  0  0  0  0  0  0  0  0  0  0  0
  -25.1180  -13.8820   20.4150 C   0  0  0  0  0  0  0  0  0  0  0  0
  -24.0570  -13.1060   20.7930 C   0  0  0  0  0  0  0  0  0  0  0  0
  -24.5280  -11.7570   20.7750 C   0  0  0  0  0  0  0  0  0  0  0  0
  -26.1710  -13.0070   20.1940 N   0  0  0  0  0  0  0  0  0  0  0  0
  -25.8180  -11.7240   20.4650 N   0  0  0  0  0  0  0  0  0  0  0  0
  -23.8130  -10.4910   20.9790 C   0  0  0  0  0  0  0  0  0  0  0  0
  -24.2540   -9.5360   21.9220 C   0  0  0  0  0  3  0  0  0  0  0  0
  -23.5390   -8.3340   22.1130 C   0  0  0  0  0  3  0  0  0  0  0  0
  -22.3680   -8.0770   21.3600 C   0  0  0  0  0  0  0  0  0  0  0  0
  -21.9460   -9.0210   20.4080 C   0  0  0  0  0  3  0  0  0  0  0  0
  -22.6610  -10.2140   20.2140 C   0  0  0  0  0  3  0  0  0  0  0  0
  -21.6250   -6.9270   21.4600 O   0  0  0  0  0  0  0  0  0  0  0  0
  -21.5880   -6.1920   22.6180 C   0  0  0  0  0  0  0  0  0  0  0  0
  -21.1760   -6.7550   23.8460 C   0  0  0  0  0  3  0  0  0  0  0  0
  -21.0850   -5.9460   24.9960 C   0  0  0  0  0  3  0  0  0  0  0  0
  -21.3980   -4.5750   24.9200 C   0  0  0  0  0  0  0  0  0  0  0  0
  -21.8020   -4.0120   23.6970 C   0  0  0  0  0  3  0  0  0  0  0  0
  -21.8940   -4.8180   22.5490 C   0  0  0  0  0  0  0  0  0  0  0  0
  -22.2650   -4.2650   21.3690 F   0  0  0  0  0  0  0  0  0  0  0  0
  -21.3030   -3.7960   26.0220 F   0  0  0  0  0  0  0  0  0  0  0  0
  -22.6570  -13.5740   21.0660 C   0  0  0  0  0  0  0  0  0  0  0  0
  -21.9350  -12.8780   21.9380 N   0  0  0  0  0  0  0  0  0  0  0  0
  -22.2100  -14.5920   20.5400 O   0  0  0  0  0  0  0  0  0  0  0  0
  -22.3080  -12.0540   22.3850 H   0  0  0  0  0  0  0  0  0  0  0  0
  -20.9960  -13.1740   22.1620 H   0  0  0  0  0  0  0  0  0  0  0  0
  -25.2730  -15.2520   20.2250 N   0  0  0  0  0  0  0  0  0  0  0  0
  -24.5050  -15.9050   20.3320 H   0  0  0  0  0  0  0  0  0  0  0  0
  -26.1270  -15.6920   19.9040 H   0  0  0  0  0  0  0  0  0  0  0  0
  1  2  1  0
  1 51  1  0
  3  2  1  0
  4  7  1  0
  4  3  1  0
  5  4  1  0
  6  4  1  0
  8  7  1  0
  8  9  1  0
  9 10  1  0
 10 12  1  0
 11 22  2  0
 12 17  1  0
 13 21  1  0
 13 23  1  0
 14 20  1  0
 14 16  1  0
 15 21  1  0
 16 15  1  0
 17 16  2  0
 18 19  1  0
 18 12  2  0
 19 14  2  0
 20 13  1  0
 21 11  1  0
 23 25  2  0
 24 23  1  0
 26 24  1  0
 27 36  2  0
 27 32  1  0
 28 24  1  0
 28 32  1  0
 29 28  1  0
 30 31  1  0
 30 29  1  0
 31 27  1  0
 32 33  2  0
 33 34  1  0
 35 34  2  0
 36 35  1  0
 37 11  1  0
 37 42  1  0
 37 38  1  0
 38 41  1  1
 38 39  1  0
 40 38  1  0
 42 45  1  0
 43 47  1  0
 43 42  1  0
 44 43  2  0
 47 46  1  0
 49 47  1  0
 49 50  1  0
 49 48  1  0
 52 51  1  0
 52 58  1  0
 54 57  1  0
 55 53  1  0
 56 58  1  0
 56 54  1  0
 57 53  1  0
 57 60  1  0
 58 55  1  0
 58 59  1  1
 61 69  1  0
 62 67  1  0
 63 64  1  0
 63 62  1  0
 65 64  1  0
 65 74  1  0
 65 66  1  0
 67 61  1  0
 67 66  1  0
 68 61  2  0
 69 70  1  0
 69 60  1  0
 71 72  2  0
 72 91  1  0
 73 72  1  0
 73 76  1  0
 74 71  1  0
 74 75  1  0
 75 73  2  0
 76 77  1  0
 77 78  2  0
 79 82  1  0
 79 78  1  0
 80 79  2  0
 81 80  1  0
 81 76  2  0
 82 83  1  0
 83 84  1  0
 84 85  2  0
 86 85  1  0
 86 90  1  0
 87 86  2  0
 88 83  2  0
 88 87  1  0
 89 88  1  0
 91 92  1  0
 92 95  1  0
 92 94  1  0
 93 91  2  0
 96 97  1  0
 96 71  1  0
 98 96  1  0
M  ISO  4   9 101  10 101  61 100  69 100
M  END
>  <TORSDO>  (1) 
F 26

>  <SCORE>  (1) 
-11.789

>  <name>  (1) 
0

>  <ligand_id>  (1) 
0

>  <original_smiles>  (1) 
[H]c1c([H])c([H])c2c(c1[H])C([H])([H])C([H])([H])C([H])([H])C2([H])N([H])C(=O)C1([H])N(C(=O)C([H])(N([H])C(=O)C([H])(N([H])C([H])([H])[H])C([H])([H])[H])C(C([H])([H])[H])(C([H])([H])[H])C([H])([H])[H])C([H])([H])c2c([H])c(OC([H])([H])C([H])([H])C([H])([H])[N+]([H])([H])C([H])([H])C([H])([H])C([H])([H])C([H])([H])C([H])([H])[N+]3([H])C([H])([H])C([H])([H])C([H])(C([H])([H])N([H])C(=O)N4C([H])([H])C([H])([H])C([H])([H])C([H])(n5nc(-c6c([H])c([H])c(Oc7c([H])c([H])c(F)c([H])c7F)c([H])c6[H])c(C(=O)N([H])[H])c5N([H])[H])C4([H])[H])C([H])([H])C3([H])[H])c([H])c([H])c2C1([H])[H]

>  <smiles>  (1) 
[H]c1c([H])c([H])c2c(c1[H])C([H])([H])C([H])([H])C([H])([H])C2([H])N([H])C(=O)C1([H])N(C(=O)C([H])(N([H])C(=O)C([H])(N([H])C([H])([H])[H])C([H])([H])[H])C(C([H])([H])[H])(C([H])([H])[H])C([H])([H])[H])C([H])([H])c2c([H])c(OC([H])([H])C([H])([H])C([H])([H])[N+]([H])([H])C([H])([H])C([H])([H])C([H])([H])C([H])([H])C([H])([H])[N+]3([H])C([H])([H])C([H])([H])C([H])(C([H])([H])N([H])C(=O)N4C([H])([H])C([H])([H])C([H])([H])C([H])(n5nc(-c6c([H])c([H])c(Oc7c([H])c([H])c(F)c([H])c7F)c([H])c6[H])c(C(=O)N([H])[H])c5N([H])[H])C4([H])[H])C([H])([H])C3([H])[H])c([H])c([H])c2C1([H])[H]

$$$$
1:0:0
     RDKit          3D

 96104  0  0  1  0  0  0  0  0999 V2000
  -29.4380  -19.6820   20.5630 C   0  0  0  0  0  2  0  0  0  0  0  0
  -30.6750  -14.5770   20.1110 C   0  0  0  0  0  0  0  0  0  0  0  0
  -30.2630  -12.4650   18.9220 C   0  0  0  0  0  2  0  0  0  0  0  0
  -29.2740  -12.7510   17.7730 C   0  0  0  0  0  2  0  0  0  0  0  0
  -27.8180  -12.6250   18.2660 C   0  0  0  0  0  2  0  0  0  0  0  0
  -27.5570  -13.4010   19.5860 C   0  0  0  0  0  3  0  0  0  0  0  0
  -28.6680  -13.1420   20.6290 C   0  0  0  0  0  2  0  0  0  0  0  0
  -29.9590  -13.4290   19.9900 N   0  0  0  0  0  0  0  0  0  0  0  0
  -31.8370  -14.6790   19.7080 O   0  0  0  0  0  0  0  0  0  0  0  0
  -28.6800  -17.3900   21.5860 C   0  0  0  0  0  2  0  0  0  0  0  0
  -29.8950  -16.4280   21.5160 C   0  0  0  0  0  2  0  0  0  0  0  0
  -30.0120  -16.6800   19.1320 C   0  0  0  0  0  2  0  0  0  0  0  0
  -28.5620  -18.3840   20.3930 C   0  0  0  0  0  3  0  0  0  0  0  0
  -28.7550  -17.5850   19.0620 C   0  0  0  0  0  3  0  0  0  0  0  0
  -29.9270  -15.7070   20.2380 N   0  0  0  0  0  0  0  0  0  0  0  0
  -25.1940  -13.9970   20.4050 C   0  0  0  0  0  0  0  0  0  0  0  0
  -24.1420  -13.2180   20.8060 C   0  0  0  0  0  0  0  0  0  0  0  0
  -24.6000  -11.8670   20.7390 C   0  0  0  0  0  0  0  0  0  0  0  0
  -26.2280  -13.1170   20.1210 N   0  0  0  0  0  0  0  0  0  0  0  0
  -25.8790  -11.8310   20.3800 N   0  0  0  0  0  0  0  0  0  0  0  0
  -23.8790  -10.6030   20.9400 C   0  0  0  0  0  0  0  0  0  0  0  0
  -24.3450   -9.6240   21.8450 C   0  0  0  0  0  3  0  0  0  0  0  0
  -23.6270   -8.4240   22.0370 C   0  0  0  0  0  3  0  0  0  0  0  0
  -22.4260   -8.1950   21.3230 C   0  0  0  0  0  0  0  0  0  0  0  0
  -21.9780   -9.1630   20.4060 C   0  0  0  0  0  3  0  0  0  0  0  0
  -22.6970  -10.3550   20.2130 C   0  0  0  0  0  3  0  0  0  0  0  0
  -21.6760   -7.0490   21.4230 O   0  0  0  0  0  0  0  0  0  0  0  0
  -21.6660   -6.2950   22.5690 C   0  0  0  0  0  0  0  0  0  0  0  0
  -21.3070   -6.8430   23.8200 C   0  0  0  0  0  3  0  0  0  0  0  0
  -21.2450   -6.0130   24.9590 C   0  0  0  0  0  3  0  0  0  0  0  0
  -21.5310   -4.6390   24.8470 C   0  0  0  0  0  0  0  0  0  0  0  0
  -21.8830   -4.0910   23.6010 C   0  0  0  0  0  3  0  0  0  0  0  0
  -21.9470   -4.9180   22.4660 C   0  0  0  0  0  0  0  0  0  0  0  0
  -22.2650   -4.3810   21.2630 F   0  0  0  0  0  0  0  0  0  0  0  0
  -21.4620   -3.8410   25.9390 F   0  0  0  0  0  0  0  0  0  0  0  0
  -22.7600  -13.6940   21.1430 C   0  0  0  0  0  0  0  0  0  0  0  0
  -22.0710  -12.9940   22.0390 N   0  0  0  0  0  0  0  0  0  0  0  0
  -22.2980  -14.7210   20.6460 O   0  0  0  0  0  0  0  0  0  0  0  0
  -22.4540  -12.1590   22.4610 H   0  0  0  0  0  0  0  0  0  0  0  0
  -21.1440  -13.2950   22.3030 H   0  0  0  0  0  0  0  0  0  0  0  0
  -25.3510  -15.3680   20.2370 N   0  0  0  0  0  0  0  0  0  0  0  0
  -24.5940  -16.0250   20.3850 H   0  0  0  0  0  0  0  0  0  0  0  0
  -26.2040  -15.8070   19.9160 H   0  0  0  0  0  0  0  0  0  0  0  0
  -28.7420  -18.4600   17.7810 C   0  0  0  0  0  2  0  0  0  0  0  0
  -28.5760  -17.6790   16.5400 N   0  0  0  0  0  4  0  0  0  0  0  0
  -29.2530  -16.9410   16.4680 H   0  0  0  0  0  0  0  0  0  0  0  0
  -28.7020  -18.2760   15.7430 H   0  0  0  0  0  0  0  0  0  0  0  0
  -27.6530  -17.2840   16.4820 H   0  0  0  0  0  0  0  0  0  0  0  0
  -28.7170  -20.9570   20.2430 N   0  0  0  0  0  4  0  0  0  0  0  0
  -28.0100  -21.0970   20.9460 H   0  0  0  0  0  0  0  0  0  0  0  0
  -28.2510  -20.8630   19.3560 H   0  0  0  0  0  0  0  0  0  0  0  0
  -29.5590  -22.1880   20.1780 C   0  0  0  0  0  2  0  0  0  0  0  0
  -28.7610  -23.4960   19.8670 C   0  0  0  0  0  2  0  0  0  0  0  0
  -29.6570  -24.6960   19.4470 C   0  0  0  0  0  2  0  0  0  0  0  0
  -28.9340  -26.0180   19.0700 C   0  0  0  0  0  2  0  0  0  0  0  0
  -28.5570  -26.8210   20.2040 O   0  0  0  0  0  0  0  0  0  0  0  0
  -24.5910  -31.9410   23.2170 C   0  0  0  0  0  0  0  0  0  0  0  0
  -27.3660  -27.5260   20.1700 C   0  0  0  0  0  0  0  0  0  0  0  0
  -23.4310  -30.5010   21.5750 C   0  0  0  0  0  3  0  0  0  0  0  0
  -24.9310  -28.9820   20.1770 C   0  0  0  0  0  0  0  0  0  0  0  0
  -25.9540  -30.9060   21.4040 C   0  0  0  0  0  2  0  0  0  0  0  0
  -26.0740  -29.5320   20.7700 C   0  0  0  0  0  0  0  0  0  0  0  0
  -27.2910  -28.8060   20.7720 C   0  0  0  0  0  3  0  0  0  0  0  0
  -26.1910  -26.9820   19.6020 C   0  0  0  0  0  3  0  0  0  0  0  0
  -24.9830  -27.7040   19.5970 C   0  0  0  0  0  3  0  0  0  0  0  0
  -23.6690  -29.8150   20.2030 C   0  0  0  0  0  2  0  0  0  0  0  0
  -24.6760  -31.1310   22.1240 N   0  0  0  0  0  0  0  0  0  0  0  0
  -23.4980  -32.1950   23.7440 O   0  0  0  0  0  0  0  0  0  0  0  0
  -22.7910  -29.4740   22.5380 C   0  0  0  0  0  0  0  0  0  0  0  0
  -21.4700  -29.2710   22.4070 N   0  0  0  0  0  0  0  0  0  0  0  0
  -23.4820  -28.8620   23.3570 O   0  0  0  0  0  0  0  0  0  0  0  0
  -20.9750  -29.8170   21.7160 H   0  0  0  0  0  0  0  0  0  0  0  0
  -18.1100  -28.0410   22.9100 C   0  0  0  0  0  0  0  0  0  0  0  0
  -20.6660  -28.3230   23.1760 C   0  0  0  0  0  3  0  0  0  0  0  0
  -20.7820  -26.8930   22.5980 C   0  0  0  0  0  2  0  0  0  0  0  0
  -19.6800  -26.5620   21.5860 C   0  0  0  0  0  2  0  0  0  0  0  0
  -18.2990  -26.6940   22.2320 C   0  0  0  0  0  2  0  0  0  0  0  0
  -19.2220  -28.8130   23.3400 C   0  0  0  0  0  0  0  0  0  0  0  0
  -18.9920  -30.0740   23.9310 C   0  0  0  0  0  3  0  0  0  0  0  0
  -17.6830  -30.5630   24.0990 C   0  0  0  0  0  3  0  0  0  0  0  0
  -16.5840  -29.7870   23.6880 C   0  0  0  0  0  3  0  0  0  0  0  0
  -16.8000  -28.5280   23.0980 C   0  0  0  0  0  3  0  0  0  0  0  0
  -25.8570  -32.6040   23.8450 C   0  0  0  0  0  3  0  0  0  0  0  0
  -25.5160  -33.9980   24.1600 N   0  0  0  0  0  0  0  0  0  0  0  0
  -25.8370  -35.0500   23.3950 C   0  0  0  0  0  0  0  0  0  0  0  0
  -26.5210  -34.9510   22.3710 O   0  0  0  0  0  0  0  0  0  0  0  0
  -24.9110  -34.1490   24.9540 H   0  0  0  0  0  0  0  0  0  0  0  0
  -24.0750  -36.8010   23.0030 C   0  0  0  0  0  1  0  0  0  0  0  0
  -25.3150  -36.4330   23.8330 C   0  0  0  0  0  3  0  0  0  0  0  0
  -27.4240  -37.3650   24.6790 C   0  0  0  0  0  1  0  0  0  0  0  0
  -26.3270  -37.5050   23.7230 N   0  0  0  0  0  0  0  0  0  0  0  0
  -25.9010  -38.4170   23.8610 H   0  0  0  0  0  0  0  0  0  0  0  0
  -26.3790  -31.8550   25.1330 C   0  0  1  0  0  0  0  0  0  0  0  0
  -25.2810  -31.6050   26.1930 C   0  0  0  0  0  1  0  0  0  0  0  0
  -26.9940  -30.4880   24.7570 C   0  0  0  0  0  1  0  0  0  0  0  0
  -27.5070  -32.6790   25.7970 C   0  0  0  0  0  1  0  0  0  0  0  0
  2 15  1  0
  3  8  1  0
  4  5  1  0
  4  3  1  0
  6  5  1  0
  6 19  1  0
  6  7  1  0
  8  2  1  0
  8  7  1  0
  9  2  2  0
 11 10  1  0
 12 15  1  0
 13  1  1  0
 13 10  1  0
 14 44  1  0
 14 12  1  0
 14 13  1  0
 15 11  1  0
 16 17  2  0
 17 36  1  0
 18 17  1  0
 18 21  1  0
 19 20  1  0
 19 16  1  0
 20 18  2  0
 21 22  1  0
 22 23  2  0
 24 27  1  0
 24 23  1  0
 25 24  2  0
 26 25  1  0
 26 21  2  0
 27 28  1  0
 28 29  1  0
 29 30  2  0
 31 30  1  0
 31 35  1  0
 32 31  2  0
 33 28  2  0
 33 32  1  0
 34 33  1  0
 36 37  1  0
 37 40  1  0
 37 39  1  0
 38 36  2  0
 41 42  1  0
 41 16  1  0
 43 41  1  0
 45 44  1  0
 46 45  1  0
 47 45  1  0
 48 45  1  0
 49  1  1  0
 49 50  1  0
 51 49  1  0
 52 49  1  0
 53 52  1  0
 54 53  1  0
 55 54  1  0
 55 56  1  0
 57 68  2  0
 58 56  1  0
 58 63  1  0
 59 67  1  0
 59 69  1  0
 60 66  1  0
 60 62  1  0
 61 67  1  0
 62 63  2  0
 62 61  1  0
 64 58  2  0
 65 64  1  0
 65 60  2  0
 66 59  1  0
 67 57  1  0
 69 71  2  0
 70 69  1  0
 72 70  1  0
 73 82  2  0
 73 78  1  0
 74 70  1  0
 74 78  1  0
 75 74  1  0
 76 77  1  0
 76 75  1  0
 77 73  1  0
 78 79  2  0
 79 80  1  0
 81 80  2  0
 82 81  1  0
 83 57  1  0
 83 84  1  0
 83 93  1  0
 84 87  1  0
 85 89  1  0
 85 84  1  0
 86 85  2  0
 89 88  1  0
 91 89  1  0
 91 92  1  0
 91 90  1  0
 93 96  1  1
 93 94  1  0
 95 93  1  0
M  ISO  4   2 100  15 100  55 101  56 101
M  END
>  <TORSDO>  (2) 
F 23

>  <SCORE>  (2) 
-11.450

>  <name>  (2) 
1

>  <ligand_id>  (2) 
1

>  <original_smiles>  (2) 
[H]c1c([H])c([H])c2c(c1[H])C([H])([H])C([H])([H])C([H])([H])C2([H])N([H])C(=O)C1([H])N(C(=O)C([H])(N([H])C(=O)C([H])(N([H])C([H])([H])[H])C([H])([H])[H])C(C([H])([H])[H])(C([H])([H])[H])C([H])([H])[H])C([H])([H])c2c([H])c(OC([H])([H])C([H])([H])C([H])([H])C([H])([H])[N+]([H])([H])C([H])([H])C3([H])C([H])([H])C([H])([H])N(C(=O)N4C([H])([H])C([H])([H])C([H])([H])C([H])(n5nc(-c6c([H])c([H])c(Oc7c([H])c([H])c(F)c([H])c7F)c([H])c6[H])c(C(=O)N([H])[H])c5N([H])[H])C4([H])[H])C([H])([H])C3([H])C([H])([H])[N+]([H])([H])[H])c([H])c([H])c2C1([H])[H]

>  <smiles>  (2) 
[H]c1c([H])c([H])c2c(c1[H])C([H])([H])C([H])([H])C([H])([H])C2([H])N([H])C(=O)C1([H])N(C(=O)C([H])(N([H])C(=O)C([H])(N([H])C([H])([H])[H])C([H])([H])[H])C(C([H])([H])[H])(C([H])([H])[H])C([H])([H])[H])C([H])([H])c2c([H])c(OC([H])([H])C([H])([H])C([H])([H])C([H])([H])[N+]([H])([H])C([H])([H])C3([H])C([H])([H])C([H])([H])N(C(=O)N4C([H])([H])C([H])([H])C([H])([H])C([H])(n5nc(-c6c([H])c([H])c(Oc7c([H])c([H])c(F)c([H])c7F)c([H])c6[H])c(C(=O)N([H])[H])c5N([H])[H])C4([H])[H])C([H])([H])C3([H])C([H])([H])[N+]([H])([H])[H])c([H])c([H])c2C1([H])[H]

$$$$
2:0:0
     RDKit          3D

 92100  0  0  1  0  0  0  0  0999 V2000
  -30.0050  -20.4960   20.3620 C   0  0  0  0  0  2  0  0  0  0  0  0
  -33.0320  -18.4380   20.8460 C   0  0  0  0  0  2  0  0  0  0  0  0
  -32.7010  -19.6250   21.7710 C   0  0  0  0  0  2  0  0  0  0  0  0
  -31.8880  -18.1000   19.8630 C   0  0  0  0  0  2  0  0  0  0  0  0
  -31.2680  -19.5670   22.3440 C   0  0  0  0  0  2  0  0  0  0  0  0
  -30.5090  -18.0160   20.5750 C   0  0  0  0  0  3  0  0  0  0  0  0
  -30.2480  -19.3250   21.2820 N   0  0  2  0  0  4  0  0  0  0  0  0
  -29.3720  -19.1910   21.7690 H   0  0  0  0  0  0  0  0  0  0  0  0
  -30.4270  -16.8000   21.5670 C   0  0  0  0  0  2  0  0  0  0  0  0
  -30.9360  -14.5320   20.4280 C   0  0  0  0  0  0  0  0  0  0  0  0
  -30.6790  -12.3770   19.2360 C   0  0  0  0  0  2  0  0  0  0  0  0
  -29.7070  -12.5650   18.0520 C   0  0  0  0  0  2  0  0  0  0  0  0
  -28.2360  -12.4360   18.5050 C   0  0  0  0  0  2  0  0  0  0  0  0
  -27.9250  -13.2720   19.7740 C   0  0  0  0  0  3  0  0  0  0  0  0
  -28.9900  -13.0010   20.8580 C   0  0  0  0  0  2  0  0  0  0  0  0
  -30.3020  -13.3410   20.2760 N   0  0  0  0  0  0  0  0  0  0  0  0
  -32.0590  -14.7570   19.9730 O   0  0  0  0  0  0  0  0  0  0  0  0
  -30.1660  -15.4580   21.0250 N   0  0  0  0  0  0  0  0  0  0  0  0
  -29.2650  -15.0840   21.2840 H   0  0  0  0  0  0  0  0  0  0  0  0
  -25.5580  -13.9250   20.5500 C   0  0  0  0  0  0  0  0  0  0  0  0
  -24.4810  -13.1690   20.9210 C   0  0  0  0  0  0  0  0  0  0  0  0
  -24.9090  -11.8060   20.8420 C   0  0  0  0  0  0  0  0  0  0  0  0
  -26.5760  -13.0230   20.2710 N   0  0  0  0  0  0  0  0  0  0  0  0
  -26.1880  -11.7450   20.5010 N   0  0  0  0  0  0  0  0  0  0  0  0
  -24.1590  -10.5580   21.0140 C   0  0  0  0  0  0  0  0  0  0  0  0
  -24.5760   -9.5730   21.9360 C   0  0  0  0  0  3  0  0  0  0  0  0
  -23.8320   -8.3850   22.0970 C   0  0  0  0  0  3  0  0  0  0  0  0
  -22.6560   -8.1770   21.3380 C   0  0  0  0  0  0  0  0  0  0  0  0
  -22.2580   -9.1520   20.4070 C   0  0  0  0  0  3  0  0  0  0  0  0
  -23.0020  -10.3310   20.2440 C   0  0  0  0  0  3  0  0  0  0  0  0
  -21.8830   -7.0430   21.4080 O   0  0  0  0  0  0  0  0  0  0  0  0
  -21.8010   -6.3000   22.5570 C   0  0  0  0  0  0  0  0  0  0  0  0
  -21.3120   -6.8450   23.7660 C   0  0  0  0  0  3  0  0  0  0  0  0
  -21.1790   -6.0260   24.9040 C   0  0  0  0  0  3  0  0  0  0  0  0
  -21.5240   -4.6630   24.8360 C   0  0  0  0  0  0  0  0  0  0  0  0
  -22.0060   -4.1180   23.6340 C   0  0  0  0  0  3  0  0  0  0  0  0
  -22.1400   -4.9330   22.4960 C   0  0  0  0  0  0  0  0  0  0  0  0
  -22.5850   -4.3980   21.3340 F   0  0  0  0  0  0  0  0  0  0  0  0
  -21.3890   -3.8740   25.9280 F   0  0  0  0  0  0  0  0  0  0  0  0
  -23.1020  -13.6700   21.2390 C   0  0  0  0  0  0  0  0  0  0  0  0
  -22.3790  -12.9640   22.0990 N   0  0  0  0  0  0  0  0  0  0  0  0
  -22.6760  -14.7220   20.7620 O   0  0  0  0  0  0  0  0  0  0  0  0
  -22.7380  -12.1120   22.5030 H   0  0  0  0  0  0  0  0  0  0  0  0
  -21.4510  -13.2760   22.3540 H   0  0  0  0  0  0  0  0  0  0  0  0
  -25.7580  -15.2950   20.4120 N   0  0  0  0  0  0  0  0  0  0  0  0
  -25.0160  -15.9670   20.5750 H   0  0  0  0  0  0  0  0  0  0  0  0
  -26.6140  -15.7220   20.0830 H   0  0  0  0  0  0  0  0  0  0  0  0
  -29.3860  -21.7930   21.0000 C   0  0  0  0  0  2  0  0  0  0  0  0
  -29.2360  -22.9980   20.0110 C   0  0  0  0  0  3  0  0  0  0  0  0
  -28.5650  -24.2960   20.5760 C   0  0  0  0  0  3  0  0  0  0  0  0
  -28.5190  -25.5120   19.5920 C   0  0  0  0  0  2  0  0  0  0  0  0
  -28.3310  -26.7910   20.2420 O   0  0  0  0  0  0  0  0  0  0  0  0
  -24.5240  -32.0010   23.2820 C   0  0  0  0  0  0  0  0  0  0  0  0
  -27.1250  -27.4820   20.2270 C   0  0  0  0  0  0  0  0  0  0  0  0
  -23.2940  -30.5810   21.6710 C   0  0  0  0  0  3  0  0  0  0  0  0
  -24.7280  -29.0120   20.2560 C   0  0  0  0  0  0  0  0  0  0  0  0
  -25.8200  -30.9220   21.4410 C   0  0  0  0  0  2  0  0  0  0  0  0
  -25.8930  -29.5380   20.8220 C   0  0  0  0  0  0  0  0  0  0  0  0
  -27.0900  -28.7790   20.8060 C   0  0  0  0  0  3  0  0  0  0  0  0
  -25.9320  -26.9690   19.6700 C   0  0  0  0  0  3  0  0  0  0  0  0
  -24.7450  -27.7280   19.6820 C   0  0  0  0  0  3  0  0  0  0  0  0
  -23.4890  -29.8770   20.3010 C   0  0  0  0  0  2  0  0  0  0  0  0
  -24.5650  -31.1870   22.1880 N   0  0  0  0  0  0  0  0  0  0  0  0
  -23.4510  -32.2830   23.8330 O   0  0  0  0  0  0  0  0  0  0  0  0
  -22.6490  -29.5790   22.6570 C   0  0  0  0  0  0  0  0  0  0  0  0
  -21.3310  -29.3620   22.5190 N   0  0  0  0  0  0  0  0  0  0  0  0
  -23.3330  -28.9970   23.5020 O   0  0  0  0  0  0  0  0  0  0  0  0
  -20.8380  -29.8860   21.8100 H   0  0  0  0  0  0  0  0  0  0  0  0
  -17.9860  -28.0810   23.0030 C   0  0  0  0  0  0  0  0  0  0  0  0
  -20.5280  -28.4290   23.3120 C   0  0  0  0  0  3  0  0  0  0  0  0
  -20.6850  -26.9810   22.7960 C   0  0  0  0  0  2  0  0  0  0  0  0
  -19.6160  -26.5870   21.7720 C   0  0  0  0  0  2  0  0  0  0  0  0
  -18.2180  -26.7130   22.3820 C   0  0  0  0  0  2  0  0  0  0  0  0
  -19.0730  -28.8930   23.4250 C   0  0  0  0  0  0  0  0  0  0  0  0
  -18.8060  -30.1690   23.9660 C   0  0  0  0  0  3  0  0  0  0  0  0
  -17.4850  -30.6360   24.0880 C   0  0  0  0  0  3  0  0  0  0  0  0
  -16.4110  -29.8240   23.6850 C   0  0  0  0  0  3  0  0  0  0  0  0
  -16.6630  -28.5480   23.1490 C   0  0  0  0  0  3  0  0  0  0  0  0
  -25.8190  -32.6370   23.8770 C   0  0  0  0  0  3  0  0  0  0  0  0
  -25.5210  -34.0420   24.1860 N   0  0  0  0  0  0  0  0  0  0  0  0
  -25.8560  -35.0820   23.4100 C   0  0  0  0  0  0  0  0  0  0  0  0
  -26.5220  -34.9610   22.3790 O   0  0  0  0  0  0  0  0  0  0  0  0
  -24.9350  -34.2100   24.9920 H   0  0  0  0  0  0  0  0  0  0  0  0
  -24.1530  -36.8940   23.0190 C   0  0  0  0  0  1  0  0  0  0  0  0
  -25.3790  -36.4800   23.8500 C   0  0  0  0  0  3  0  0  0  0  0  0
  -27.5080  -37.3560   24.7070 C   0  0  0  0  0  1  0  0  0  0  0  0
  -26.4240  -37.5210   23.7450 N   0  0  0  0  0  0  0  0  0  0  0  0
  -26.0210  -38.4460   23.8750 H   0  0  0  0  0  0  0  0  0  0  0  0
  -26.3580  -31.8850   25.1580 C   0  0  1  0  0  0  0  0  0  0  0  0
  -25.2800  -31.6480   26.2400 C   0  0  0  0  0  1  0  0  0  0  0  0
  -26.9620  -30.5120   24.7780 C   0  0  0  0  0  1  0  0  0  0  0  0
  -27.5010  -32.7050   25.8010 C   0  0  0  0  0  1  0  0  0  0  0  0
  1 48  1  0
  1  7  1  0
  2  3  1  0
  3  5  1  0
  4  6  1  0
  4  2  1  0
  6  7  1  0
  6  9  1  0
  7  8  1  1
  7  5  1  0
 10 18  1  0
 11 16  1  0
 12 13  1  0
 12 11  1  0
 14 13  1  0
 14 23  1  0
 14 15  1  0
 16 10  1  0
 16 15  1  0
 17 10  2  0
 18 19  1  0
 18  9  1  0
 20 21  2  0
 21 40  1  0
 22 21  1  0
 22 25  1  0
 23 24  1  0
 23 20  1  0
 24 22  2  0
 25 26  1  0
 26 27  2  0
 28 31  1  0
 28 27  1  0
 29 28  2  0
 30 29  1  0
 30 25  2  0
 31 32  1  0
 32 33  1  0
 33 34  2  0
 35 34  1  0
 35 39  1  0
 36 35  2  0
 37 32  2  0
 37 36  1  0
 38 37  1  0
 40 41  1  0
 41 44  1  0
 41 43  1  0
 42 40  2  0
 45 20  1  0
 45 46  1  0
 47 45  1  0
 49 50  2  0
 49 48  1  0
 51 52  1  0
 51 50  1  0
 53 64  2  0
 54 52  1  0
 54 59  1  0
 55 63  1  0
 55 65  1  0
 56 62  1  0
 56 58  1  0
 57 63  1  0
 58 57  1  0
 59 58  2  0
 60 61  1  0
 60 54  2  0
 61 56  2  0
 62 55  1  0
 63 53  1  0
 65 67  2  0
 66 65  1  0
 68 66  1  0
 69 78  2  0
 69 74  1  0
 70 66  1  0
 70 74  1  0
 71 70  1  0
 72 73  1  0
 72 71  1  0
 73 69  1  0
 74 75  2  0
 75 76  1  0
 77 76  2  0
 78 77  1  0
 79 53  1  0
 79 80  1  0
 79 89  1  0
 80 83  1  0
 81 85  1  0
 81 80  1  0
 82 81  2  0
 85 84  1  0
 87 85  1  0
 87 88  1  0
 87 86  1  0
 89 92  1  1
 89 90  1  0
 91 89  1  0
M  ISO  4  10 100  18 100  51 101  52 101
M  END
>  <TORSDO>  (3) 
F 22

>  <SCORE>  (3) 
-13.134

>  <name>  (3) 
2

>  <ligand_id>  (3) 
2

>  <original_smiles>  (3) 
[H]c1c([H])c([H])c2c(c1[H])C([H])([H])C([H])([H])C([H])([H])C2([H])N([H])C(=O)C1([H])N(C(=O)C([H])(N([H])C(=O)C([H])(N([H])C([H])([H])[H])C([H])([H])[H])C(C([H])([H])[H])(C([H])([H])[H])C([H])([H])[H])C([H])([H])c2c([H])c(OC([H])([H])C([H])([H])C([H])([H])C([H])([H])C([H])([H])[N+]3([H])C([H])([H])C([H])([H])C([H])([H])C([H])([H])C3([H])C([H])([H])N([H])C(=O)N3C([H])([H])C([H])([H])C([H])([H])C([H])(n4nc(-c5c([H])c([H])c(Oc6c([H])c([H])c(F)c([H])c6F)c([H])c5[H])c(C(=O)N([H])[H])c4N([H])[H])C3([H])[H])c([H])c([H])c2C1([H])[H]

>  <smiles>  (3) 
[H]c1c([H])c([H])c2c(c1[H])C([H])([H])C([H])([H])C([H])([H])C2([H])N([H])C(=O)C1([H])N(C(=O)C([H])(N([H])C(=O)C([H])(N([H])C([H])([H])[H])C([H])([H])[H])C(C([H])([H])[H])(C([H])([H])[H])C([H])([H])[H])C([H])([H])c2c([H])c(OC([H])([H])C([H])([H])C([H])([H])C([H])([H])C([H])([H])[N+]3([H])C([H])([H])C([H])([H])C([H])([H])C([H])([H])C3([H])C([H])([H])N([H])C(=O)N3C([H])([H])C([H])([H])C([H])([H])C([H])(n4nc(-c5c([H])c([H])c(Oc6c([H])c([H])c(F)c([H])c6F)c([H])c5[H])c(C(=O)N([H])[H])c4N([H])[H])C3([H])[H])c([H])c([H])c2C1([H])[H]

$$$$
3:0:0
     RDKit          3D

 94102  0  0  1  0  0  0  0  0999 V2000
  -30.0930  -20.9360   21.5050 C   0  0  0  0  0  0  0  0  0  0  0  0
  -29.0540  -20.3150   21.7540 O   0  0  0  0  0  0  0  0  0  0  0  0
  -30.1720  -22.4670   21.6400 C   0  0  0  0  0  2  0  0  0  0  0  0
  -28.9890  -23.2250   20.9870 C   0  0  0  0  0  2  0  0  0  0  0  0
  -29.2000  -24.7580   20.8720 C   0  0  0  0  0  2  0  0  0  0  0  0
  -28.0490  -25.4610   20.1170 C   0  0  0  0  0  2  0  0  0  0  0  0
  -28.1860  -26.8910   20.1150 O   0  0  0  0  0  0  0  0  0  0  0  0
  -24.5020  -32.0900   23.2580 C   0  0  0  0  0  0  0  0  0  0  0  0
  -27.0180  -27.6340   20.0950 C   0  0  0  0  0  0  0  0  0  0  0  0
  -23.2400  -30.7200   21.6300 C   0  0  0  0  0  3  0  0  0  0  0  0
  -24.6410  -29.1750   20.1610 C   0  0  0  0  0  0  0  0  0  0  0  0
  -25.7670  -31.0450   21.3790 C   0  0  0  0  0  2  0  0  0  0  0  0
  -25.8190  -29.6780   20.7270 C   0  0  0  0  0  0  0  0  0  0  0  0
  -27.0090  -28.9180   20.6880 C   0  0  0  0  0  3  0  0  0  0  0  0
  -25.8240  -27.1510   19.5090 C   0  0  0  0  0  3  0  0  0  0  0  0
  -24.6390  -27.9100   19.5470 C   0  0  0  0  0  3  0  0  0  0  0  0
  -23.4090  -30.0500   20.2400 C   0  0  0  0  0  2  0  0  0  0  0  0
  -24.5230  -31.2980   22.1470 N   0  0  0  0  0  0  0  0  0  0  0  0
  -23.4360  -32.3710   23.8230 O   0  0  0  0  0  0  0  0  0  0  0  0
  -22.5960  -29.6990   22.5960 C   0  0  0  0  0  0  0  0  0  0  0  0
  -21.2810  -29.4740   22.4390 N   0  0  0  0  0  0  0  0  0  0  0  0
  -23.2770  -29.1100   23.4400 O   0  0  0  0  0  0  0  0  0  0  0  0
  -20.7940  -30.0030   21.7290 H   0  0  0  0  0  0  0  0  0  0  0  0
  -17.9470  -28.1390   22.8300 C   0  0  0  0  0  0  0  0  0  0  0  0
  -20.4740  -28.5300   23.2090 C   0  0  0  0  0  3  0  0  0  0  0  0
  -20.6700  -27.0840   22.6980 C   0  0  0  0  0  2  0  0  0  0  0  0
  -19.6340  -26.6690   21.6480 C   0  0  0  0  0  2  0  0  0  0  0  0
  -18.2180  -26.7730   22.2200 C   0  0  0  0  0  2  0  0  0  0  0  0
  -19.0070  -28.9690   23.2810 C   0  0  0  0  0  0  0  0  0  0  0  0
  -18.7030  -30.2420   23.8100 C   0  0  0  0  0  3  0  0  0  0  0  0
  -17.3700  -30.6870   23.8930 C   0  0  0  0  0  3  0  0  0  0  0  0
  -16.3230  -29.8560   23.4570 C   0  0  0  0  0  3  0  0  0  0  0  0
  -16.6120  -28.5830   22.9330 C   0  0  0  0  0  3  0  0  0  0  0  0
  -25.8090  -32.6970   23.8550 C   0  0  0  0  0  3  0  0  0  0  0  0
  -25.5410  -34.1080   24.1590 N   0  0  0  0  0  0  0  0  0  0  0  0
  -25.8880  -35.1340   23.3710 C   0  0  0  0  0  0  0  0  0  0  0  0
  -26.5390  -34.9900   22.3310 O   0  0  0  0  0  0  0  0  0  0  0  0
  -24.9620  -34.2970   24.9640 H   0  0  0  0  0  0  0  0  0  0  0  0
  -24.1910  -36.9560   23.0090 C   0  0  0  0  0  1  0  0  0  0  0  0
  -25.4430  -36.5450   23.8020 C   0  0  0  0  0  3  0  0  0  0  0  0
  -27.6170  -37.4020   24.5560 C   0  0  0  0  0  1  0  0  0  0  0  0
  -26.4960  -37.5700   23.6350 N   0  0  0  0  0  0  0  0  0  0  0  0
  -26.1150  -38.5030   23.7670 H   0  0  0  0  0  0  0  0  0  0  0  0
  -26.3150  -31.9360   25.1410 C   0  0  1  0  0  0  0  0  0  0  0  0
  -25.2210  -31.7330   26.2140 C   0  0  0  0  0  1  0  0  0  0  0  0
  -26.8740  -30.5430   24.7640 C   0  0  0  0  0  1  0  0  0  0  0  0
  -27.4820  -32.7200   25.7870 C   0  0  0  0  0  1  0  0  0  0  0  0
  -31.3680  -20.2050   21.0660 C   0  0  0  0  0  2  0  0  0  0  0  0
  -32.7170  -17.6340   18.7120 C   0  0  0  0  0  2  0  0  0  0  0  0
  -33.3530  -18.1330   20.0110 C   0  0  0  0  0  2  0  0  0  0  0  0
  -31.3320  -18.2780   18.4850 C   0  0  0  0  0  2  0  0  0  0  0  0
  -32.3710  -17.9530   21.1850 C   0  0  0  0  0  2  0  0  0  0  0  0
  -30.3970  -18.3290   19.7300 C   0  0  0  0  0  3  0  0  0  0  0  0
  -31.1240  -18.7350   20.9710 N   0  0  2  0  0  4  0  0  0  0  0  0
  -30.5030  -18.5520   21.7490 H   0  0  0  0  0  0  0  0  0  0  0  0
  -29.3440  -17.1830   19.9300 C   0  0  0  0  0  2  0  0  0  0  0  0
  -30.3450  -14.9530   20.0880 C   0  0  0  0  0  0  0  0  0  0  0  0
  -30.1600  -12.7170   19.1030 C   0  0  0  0  0  2  0  0  0  0  0  0
  -29.1670  -12.7930   17.9250 C   0  0  0  0  0  2  0  0  0  0  0  0
  -27.7300  -12.5410   18.4170 C   0  0  0  0  0  2  0  0  0  0  0  0
  -27.3620  -13.4010   19.6560 C   0  0  0  0  0  3  0  0  0  0  0  0
  -28.4790  -13.3590   20.7310 C   0  0  0  0  0  2  0  0  0  0  0  0
  -29.7600  -13.7240   20.0980 N   0  0  0  0  0  0  0  0  0  0  0  0
  -31.3500  -15.1950   19.4250 O   0  0  0  0  0  0  0  0  0  0  0  0
  -29.6750  -15.9510   20.6730 N   0  0  0  0  0  0  0  0  0  0  0  0
  -28.9720  -15.6440   21.3310 H   0  0  0  0  0  0  0  0  0  0  0  0
  -24.9590  -13.8030   20.4940 C   0  0  0  0  0  0  0  0  0  0  0  0
  -23.9790  -12.9430   20.9110 C   0  0  0  0  0  0  0  0  0  0  0  0
  -24.5410  -11.6330   20.8320 C   0  0  0  0  0  0  0  0  0  0  0  0
  -26.0590  -13.0110   20.2010 N   0  0  0  0  0  0  0  0  0  0  0  0
  -25.8130  -11.7010   20.4580 N   0  0  0  0  0  0  0  0  0  0  0  0
  -23.9280  -10.3130   21.0430 C   0  0  0  0  0  0  0  0  0  0  0  0
  -24.4310   -9.4120   22.0090 C   0  0  0  0  0  3  0  0  0  0  0  0
  -23.8140   -8.1580   22.2070 C   0  0  0  0  0  3  0  0  0  0  0  0
  -22.6810   -7.7950   21.4400 C   0  0  0  0  0  0  0  0  0  0  0  0
  -22.1990   -8.6860   20.4640 C   0  0  0  0  0  3  0  0  0  0  0  0
  -22.8180   -9.9320   20.2650 C   0  0  0  0  0  3  0  0  0  0  0  0
  -22.0330   -6.5870   21.5470 O   0  0  0  0  0  0  0  0  0  0  0  0
  -21.9640   -5.9100   22.7380 C   0  0  0  0  0  0  0  0  0  0  0  0
  -21.3960   -6.4890   23.8940 C   0  0  0  0  0  3  0  0  0  0  0  0
  -21.2810   -5.7320   25.0770 C   0  0  0  0  0  3  0  0  0  0  0  0
  -21.7260   -4.3970   25.1040 C   0  0  0  0  0  0  0  0  0  0  0  0
  -22.2880   -3.8170   23.9540 C   0  0  0  0  0  3  0  0  0  0  0  0
  -22.4040   -4.5710   22.7730 C   0  0  0  0  0  0  0  0  0  0  0  0
  -22.9260   -4.0010   21.6610 F   0  0  0  0  0  0  0  0  0  0  0  0
  -21.6080   -3.6660   26.2370 F   0  0  0  0  0  0  0  0  0  0  0  0
  -22.5660  -13.3030   21.2730 C   0  0  0  0  0  0  0  0  0  0  0  0
  -21.9520  -12.5500   22.1800 N   0  0  0  0  0  0  0  0  0  0  0  0
  -22.0130  -14.2890   20.7860 O   0  0  0  0  0  0  0  0  0  0  0  0
  -22.4120  -11.7560   22.5980 H   0  0  0  0  0  0  0  0  0  0  0  0
  -21.0100  -12.7780   22.4650 H   0  0  0  0  0  0  0  0  0  0  0  0
  -25.0070  -15.1830   20.3230 N   0  0  0  0  0  0  0  0  0  0  0  0
  -24.2020  -15.7830   20.4700 H   0  0  0  0  0  0  0  0  0  0  0  0
  -25.8070  -15.6810   19.9510 H   0  0  0  0  0  0  0  0  0  0  0  0
  1  3  1  0
  1  2  2  0
  4  3  1  0
  5  4  1  0
  6  5  1  0
  7  6  1  0
  8 19  2  0
  9  7  1  0
  9 14  1  0
 10 18  1  0
 10 20  1  0
 11 17  1  0
 11 13  1  0
 12 18  1  0
 13 12  1  0
 14 13  2  0
 15 16  1  0
 15  9  2  0
 16 11  2  0
 17 10  1  0
 18  8  1  0
 20 22  2  0
 21 20  1  0
 23 21  1  0
 24 33  2  0
 24 29  1  0
 25 21  1  0
 25 29  1  0
 26 25  1  0
 27 28  1  0
 27 26  1  0
 28 24  1  0
 29 30  2  0
 30 31  1  0
 32 31  2  0
 33 32  1  0
 34  8  1  0
 34 35  1  0
 34 44  1  0
 35 38  1  0
 36 40  1  0
 36 35  1  0
 37 36  2  0
 40 39  1  0
 42 43  1  0
 42 40  1  0
 42 41  1  0
 44 47  1  1
 44 45  1  0
 46 44  1  0
 48  1  1  0
 49 50  1  0
 50 52  1  0
 51 49  1  0
 51 53  1  0
 53 56  1  0
 53 54  1  0
 54 48  1  0
 54 52  1  0
 54 55  1  1
 56 65  1  0
 57 63  1  0
 57 65  1  0
 58 63  1  0
 59 60  1  0
 59 58  1  0
 61 60  1  0
 61 70  1  0
 61 62  1  0
 63 62  1  0
 64 57  2  0
 65 66  1  0
 67 68  2  0
 68 87  1  0
 69 68  1  0
 69 72  1  0
 70 71  1  0
 70 67  1  0
 71 69  2  0
 72 73  1  0
 73 74  2  0
 75 78  1  0
 75 74  1  0
 76 75  2  0
 77 76  1  0
 77 72  2  0
 78 79  1  0
 79 84  2  0
 79 80  1  0
 80 81  2  0
 81 82  1  0
 82 86  1  0
 83 82  2  0
 84 83  1  0
 85 84  1  0
 87 88  1  0
 88 91  1  0
 88 90  1  0
 89 87  2  0
 92 93  1  0
 92 67  1  0
 94 92  1  0
M  ISO  4   6 101   7 101  57 100  65 100
M  END
>  <TORSDO>  (4) 
F 23

>  <SCORE>  (4) 
-11.955

>  <name>  (4) 
3

>  <ligand_id>  (4) 
3

>  <original_smiles>  (4) 
[H]c1c([H])c([H])c2c(c1[H])C([H])([H])C([H])([H])C([H])([H])C2([H])N([H])C(=O)C1([H])N(C(=O)C([H])(N([H])C(=O)C([H])(N([H])C([H])([H])[H])C([H])([H])[H])C(C([H])([H])[H])(C([H])([H])[H])C([H])([H])[H])C([H])([H])c2c([H])c(OC([H])([H])C([H])([H])C([H])([H])C([H])([H])C(=O)C([H])([H])[N+]3([H])C([H])([H])C([H])([H])C([H])([H])C([H])([H])C3([H])C([H])([H])N([H])C(=O)N3C([H])([H])C([H])([H])C([H])([H])C([H])(n4nc(-c5c([H])c([H])c(Oc6c([H])c([H])c(F)c([H])c6F)c([H])c5[H])c(C(=O)N([H])[H])c4N([H])[H])C3([H])[H])c([H])c([H])c2C1([H])[H]

>  <smiles>  (4) 
[H]c1c([H])c([H])c2c(c1[H])C([H])([H])C([H])([H])C([H])([H])C2([H])N([H])C(=O)C1([H])N(C(=O)C([H])(N([H])C(=O)C([H])(N([H])C([H])([H])[H])C([H])([H])[H])C(C([H])([H])[H])(C([H])([H])[H])C([H])([H])[H])C([H])([H])c2c([H])c(OC([H])([H])C([H])([H])C([H])([H])C([H])([H])C(=O)C([H])([H])[N+]3([H])C([H])([H])C([H])([H])C([H])([H])C([H])([H])C3([H])C([H])([H])N([H])C(=O)N3C([H])([H])C([H])([H])C([H])([H])C([H])(n4nc(-c5c([H])c([H])c(Oc6c([H])c([H])c(F)c([H])c6F)c([H])c5[H])c(C(=O)N([H])[H])c4N([H])[H])C3([H])[H])c([H])c([H])c2C1([H])[H]

$$$$
4:0:0
     RDKit          3D

 94102  0  0  1  0  0  0  0  0999 V2000
  -30.3980  -22.1230   20.6990 C   0  0  0  0  0  0  0  0  0  0  0  0
  -29.6720  -21.9580   21.6880 O   0  0  0  0  0  0  0  0  0  0  0  0
  -30.8230  -20.9720   19.7770 C   0  0  0  0  0  2  0  0  0  0  0  0
  -31.7290  -18.7410   20.5700 C   0  0  0  0  0  3  0  0  0  0  0  0
  -29.3130  -18.9940   20.3930 C   0  0  0  0  0  3  0  0  0  0  0  0
  -31.5610  -17.3820   20.8920 C   0  0  0  0  0  3  0  0  0  0  0  0
  -29.1450  -17.6320   20.7190 C   0  0  0  0  0  3  0  0  0  0  0  0
  -30.6080  -19.5510   20.2900 C   0  0  0  0  0  0  0  0  0  0  0  0
  -30.2700  -16.8030   20.9210 C   0  0  0  0  0  0  0  0  0  0  0  0
  -30.6970  -14.4300   20.4530 C   0  0  0  0  0  0  0  0  0  0  0  0
  -30.3450  -12.3180   19.2430 C   0  0  0  0  0  2  0  0  0  0  0  0
  -29.3910  -12.5620   18.0570 C   0  0  0  0  0  2  0  0  0  0  0  0
  -27.9210  -12.4330   18.5020 C   0  0  0  0  0  2  0  0  0  0  0  0
  -27.6070  -13.2460   19.7860 C   0  0  0  0  0  3  0  0  0  0  0  0
  -28.6700  -12.9840   20.8770 C   0  0  0  0  0  2  0  0  0  0  0  0
  -29.9970  -13.2750   20.3050 N   0  0  0  0  0  0  0  0  0  0  0  0
  -31.8000  -14.6060   19.9250 O   0  0  0  0  0  0  0  0  0  0  0  0
  -30.0640  -15.4090   21.1250 N   0  0  0  0  0  0  0  0  0  0  0  0
  -29.1690  -15.1390   21.5030 H   0  0  0  0  0  0  0  0  0  0  0  0
  -25.2070  -13.8570   20.5040 C   0  0  0  0  0  0  0  0  0  0  0  0
  -24.1420  -13.0840   20.8800 C   0  0  0  0  0  0  0  0  0  0  0  0
  -24.6060  -11.7330   20.8540 C   0  0  0  0  0  0  0  0  0  0  0  0
  -26.2530  -12.9750   20.2720 N   0  0  0  0  0  0  0  0  0  0  0  0
  -25.8940  -11.6940   20.5400 N   0  0  0  0  0  0  0  0  0  0  0  0
  -23.8850  -10.4700   21.0540 C   0  0  0  0  0  0  0  0  0  0  0  0
  -24.3340   -9.5010   21.9780 C   0  0  0  0  0  3  0  0  0  0  0  0
  -23.6130   -8.3030   22.1680 C   0  0  0  0  0  3  0  0  0  0  0  0
  -22.4290   -8.0640   21.4310 C   0  0  0  0  0  0  0  0  0  0  0  0
  -21.9970   -9.0210   20.4960 C   0  0  0  0  0  3  0  0  0  0  0  0
  -22.7190  -10.2110   20.3060 C   0  0  0  0  0  3  0  0  0  0  0  0
  -21.6790   -6.9150   21.5290 O   0  0  0  0  0  0  0  0  0  0  0  0
  -21.6630   -6.1610   22.6740 C   0  0  0  0  0  0  0  0  0  0  0  0
  -21.2780   -6.7050   23.9190 C   0  0  0  0  0  3  0  0  0  0  0  0
  -21.2070   -5.8790   25.0580 C   0  0  0  0  0  3  0  0  0  0  0  0
  -21.5130   -4.5080   24.9540 C   0  0  0  0  0  0  0  0  0  0  0  0
  -21.8920   -3.9630   23.7140 C   0  0  0  0  0  3  0  0  0  0  0  0
  -21.9640   -4.7880   22.5770 C   0  0  0  0  0  0  0  0  0  0  0  0
  -22.3090   -4.2540   21.3800 F   0  0  0  0  0  0  0  0  0  0  0  0
  -21.4370   -3.7110   26.0450 F   0  0  0  0  0  0  0  0  0  0  0  0
  -22.7440  -13.5600   21.1550 C   0  0  0  0  0  0  0  0  0  0  0  0
  -22.0210  -12.8690   22.0280 N   0  0  0  0  0  0  0  0  0  0  0  0
  -22.3000  -14.5800   20.6280 O   0  0  0  0  0  0  0  0  0  0  0  0
  -22.3910  -12.0450   22.4770 H   0  0  0  0  0  0  0  0  0  0  0  0
  -21.0830  -13.1690   22.2530 H   0  0  0  0  0  0  0  0  0  0  0  0
  -25.3710  -15.2280   20.3250 N   0  0  0  0  0  0  0  0  0  0  0  0
  -24.6220  -15.8910   20.4830 H   0  0  0  0  0  0  0  0  0  0  0  0
  -26.2220  -15.6630   19.9900 H   0  0  0  0  0  0  0  0  0  0  0  0
  -30.9250  -23.5060   20.3080 C   0  0  0  0  0  2  0  0  0  0  0  0
  -30.1390  -24.5600   20.9860 N   0  0  0  0  0  4  0  0  0  0  0  0
  -30.1740  -24.3910   21.9800 H   0  0  0  0  0  0  0  0  0  0  0  0
  -29.1780  -24.4440   20.7020 H   0  0  0  0  0  0  0  0  0  0  0  0
  -30.5840  -25.9390   20.6610 C   0  0  0  0  0  2  0  0  0  0  0  0
  -29.4940  -26.9880   20.9290 C   0  0  0  0  0  2  0  0  0  0  0  0
  -28.3860  -26.6720   20.0900 O   0  0  0  0  0  0  0  0  0  0  0  0
  -24.5860  -31.8710   23.2260 C   0  0  0  0  0  0  0  0  0  0  0  0
  -27.2540  -27.4570   20.1540 C   0  0  0  0  0  0  0  0  0  0  0  0
  -23.3780  -30.4670   21.5820 C   0  0  0  0  0  3  0  0  0  0  0  0
  -24.8390  -28.9320   20.1610 C   0  0  0  0  0  0  0  0  0  0  0  0
  -25.9000  -30.8360   21.3860 C   0  0  0  0  0  2  0  0  0  0  0  0
  -25.9900  -29.4650   20.7520 C   0  0  0  0  0  0  0  0  0  0  0  0
  -27.1980  -28.7350   20.7590 C   0  0  0  0  0  3  0  0  0  0  0  0
  -26.0870  -26.9370   19.5560 C   0  0  0  0  0  3  0  0  0  0  0  0
  -24.8800  -27.6620   19.5610 C   0  0  0  0  0  3  0  0  0  0  0  0
  -23.5900  -29.7850   20.2030 C   0  0  0  0  0  2  0  0  0  0  0  0
  -24.6380  -31.0740   22.1220 N   0  0  0  0  0  0  0  0  0  0  0  0
  -23.5060  -32.1420   23.7700 O   0  0  0  0  0  0  0  0  0  0  0  0
  -22.7310  -29.4450   22.5430 C   0  0  0  0  0  0  0  0  0  0  0  0
  -21.4070  -29.2620   22.4170 N   0  0  0  0  0  0  0  0  0  0  0  0
  -23.4170  -28.8200   23.3580 O   0  0  0  0  0  0  0  0  0  0  0  0
  -20.9160  -29.8150   21.7270 H   0  0  0  0  0  0  0  0  0  0  0  0
  -18.0330  -28.0790   22.9200 C   0  0  0  0  0  0  0  0  0  0  0  0
  -20.5910  -28.3280   23.1920 C   0  0  0  0  0  3  0  0  0  0  0  0
  -20.6880  -26.8950   22.6170 C   0  0  0  0  0  2  0  0  0  0  0  0
  -19.5880  -26.5780   21.6010 C   0  0  0  0  0  2  0  0  0  0  0  0
  -18.2040  -26.7310   22.2390 C   0  0  0  0  0  2  0  0  0  0  0  0
  -19.1540  -28.8370   23.3520 C   0  0  0  0  0  0  0  0  0  0  0  0
  -18.9410  -30.1000   23.9450 C   0  0  0  0  0  3  0  0  0  0  0  0
  -17.6370  -30.6060   24.1110 C   0  0  0  0  0  3  0  0  0  0  0  0
  -16.5300  -29.8450   23.6960 C   0  0  0  0  0  3  0  0  0  0  0  0
  -16.7280  -28.5840   23.1070 C   0  0  0  0  0  3  0  0  0  0  0  0
  -25.8750  -32.5010   23.8410 C   0  0  0  0  0  3  0  0  0  0  0  0
  -25.5680  -33.8980   24.1710 N   0  0  0  0  0  0  0  0  0  0  0  0
  -25.9060  -34.9500   23.4130 C   0  0  0  0  0  0  0  0  0  0  0  0
  -26.5800  -34.8470   22.3840 O   0  0  0  0  0  0  0  0  0  0  0  0
  -24.9710  -34.0540   24.9690 H   0  0  0  0  0  0  0  0  0  0  0  0
  -24.1850  -36.7470   23.0480 C   0  0  0  0  0  1  0  0  0  0  0  0
  -25.4180  -36.3380   23.8690 C   0  0  0  0  0  3  0  0  0  0  0  0
  -27.5530  -37.2110   24.7150 C   0  0  0  0  0  1  0  0  0  0  0  0
  -26.4540  -37.3900   23.7690 N   0  0  0  0  0  0  0  0  0  0  0  0
  -26.0490  -38.3080   23.9240 H   0  0  0  0  0  0  0  0  0  0  0  0
  -26.4010  -31.7280   25.1110 C   0  0  1  0  0  0  0  0  0  0  0  0
  -25.3160  -31.4940   26.1880 C   0  0  0  0  0  1  0  0  0  0  0  0
  -26.9790  -30.3500   24.7130 C   0  0  0  0  0  1  0  0  0  0  0  0
  -27.5600  -32.5210   25.7610 C   0  0  0  0  0  1  0  0  0  0  0  0
  1  2  2  0
  3  8  1  0
  3  1  1  0
  4  6  1  0
  5  7  2  0
  6  9  2  0
  7  9  1  0
  8  5  1  0
  8  4  2  0
  9 18  1  0
 10 18  1  0
 11 16  1  0
 12 13  1  0
 12 11  1  0
 14 13  1  0
 14 23  1  0
 14 15  1  0
 16 10  1  0
 16 15  1  0
 17 10  2  0
 18 19  1  0
 20 21  2  0
 21 40  1  0
 22 21  1  0
 22 25  1  0
 23 20  1  0
 23 24  1  0
 24 22  2  0
 25 26  1  0
 26 27  2  0
 28 31  1  0
 28 27  1  0
 29 28  2  0
 30 29  1  0
 30 25  2  0
 31 32  1  0
 32 33  1  0
 33 34  2  0
 35 34  1  0
 35 39  1  0
 36 35  2  0
 37 32  2  0
 37 36  1  0
 38 37  1  0
 40 41  1  0
 41 44  1  0
 41 43  1  0
 42 40  2  0
 45 46  1  0
 45 20  1  0
 47 45  1  0
 48  1  1  0
 48 49  1  0
 49 50  1  0
 51 49  1  0
 52 53  1  0
 52 49  1  0
 54 56  1  0
 54 53  1  0
 55 66  2  0
 56 61  1  0
 57 65  1  0
 57 67  1  0
 58 64  1  0
 58 60  1  0
 59 65  1  0
 60 61  2  0
 60 59  1  0
 62 63  1  0
 62 56  2  0
 63 58  2  0
 64 57  1  0
 65 55  1  0
 67 69  2  0
 68 67  1  0
 70 68  1  0
 71 80  2  0
 71 76  1  0
 72 68  1  0
 72 76  1  0
 73 72  1  0
 74 75  1  0
 74 73  1  0
 75 71  1  0
 76 77  2  0
 77 78  1  0
 79 78  2  0
 80 79  1  0
 81 55  1  0
 81 82  1  0
 81 91  1  0
 82 85  1  0
 83 87  1  0
 83 82  1  0
 84 83  2  0
 87 86  1  0
 89 87  1  0
 89 90  1  0
 89 88  1  0
 91 94  1  1
 91 92  1  0
 93 91  1  0
M  ISO  4  10 100  18 100  53 101  54 101
M  END
>  <TORSDO>  (5) 
F 22

>  <SCORE>  (5) 
-13.421

>  <name>  (5) 
4

>  <ligand_id>  (5) 
4

>  <original_smiles>  (5) 
[H]c1c([H])c([H])c2c(c1[H])C([H])([H])C([H])([H])C([H])([H])C2([H])N([H])C(=O)C1([H])N(C(=O)C([H])(N([H])C(=O)C([H])(N([H])C([H])([H])[H])C([H])([H])[H])C(C([H])([H])[H])(C([H])([H])[H])C([H])([H])[H])C([H])([H])c2c([H])c(OC([H])([H])C([H])([H])[N+]([H])([H])C([H])([H])C(=O)C([H])([H])c3c([H])c([H])c(N([H])C(=O)N4C([H])([H])C([H])([H])C([H])([H])C([H])(n5nc(-c6c([H])c([H])c(Oc7c([H])c([H])c(F)c([H])c7F)c([H])c6[H])c(C(=O)N([H])[H])c5N([H])[H])C4([H])[H])c([H])c3[H])c([H])c([H])c2C1([H])[H]

>  <smiles>  (5) 
[H]c1c([H])c([H])c2c(c1[H])C([H])([H])C([H])([H])C([H])([H])C2([H])N([H])C(=O)C1([H])N(C(=O)C([H])(N([H])C(=O)C([H])(N([H])C([H])([H])[H])C([H])([H])[H])C(C([H])([H])[H])(C([H])([H])[H])C([H])([H])[H])C([H])([H])c2c([H])c(OC([H])([H])C([H])([H])[N+]([H])([H])C([H])([H])C(=O)C([H])([H])c3c([H])c([H])c(N([H])C(=O)N4C([H])([H])C([H])([H])C([H])([H])C([H])(n5nc(-c6c([H])c([H])c(Oc7c([H])c([H])c(F)c([H])c7F)c([H])c6[H])c(C(=O)N([H])[H])c5N([H])[H])C4([H])[H])c([H])c3[H])c([H])c([H])c2C1([H])[H]

$$$$
6:0:0
     RDKit          3D

 97105  0  0  1  0  0  0  0  0999 V2000
  -29.1390  -21.6150   24.2810 C   0  0  0  0  0  2  0  0  0  0  0  0
  -29.4280  -20.5240   23.2240 C   0  0  0  0  0  2  0  0  0  0  0  0
  -30.8680  -20.1680   23.1370 N   0  0  0  0  0  4  0  0  0  0  0  0
  -31.3370  -20.7000   22.4210 H   0  0  0  0  0  0  0  0  0  0  0  0
  -31.2900  -20.4240   24.0160 H   0  0  0  0  0  0  0  0  0  0  0  0
  -31.1890  -18.7300   22.9630 C   0  0  0  0  0  2  0  0  0  0  0  0
  -32.6680  -14.9490   20.3050 C   0  0  0  0  0  0  0  0  0  0  0  0
  -32.1850  -12.7640   19.2940 C   0  0  0  0  0  2  0  0  0  0  0  0
  -31.3070  -13.0170   18.0500 C   0  0  0  0  0  2  0  0  0  0  0  0
  -29.8110  -13.0820   18.4310 C   0  0  0  0  0  2  0  0  0  0  0  0
  -29.5370  -14.0060   19.6490 C   0  0  0  0  0  3  0  0  0  0  0  0
  -30.5300  -13.6910   20.7950 C   0  0  0  0  0  2  0  0  0  0  0  0
  -31.8890  -13.8350   20.2540 N   0  0  0  0  0  0  0  0  0  0  0  0
  -33.8580  -14.9340   19.9710 O   0  0  0  0  0  0  0  0  0  0  0  0
  -30.1940  -18.4720   19.1530 C   0  0  0  0  0  3  0  0  0  0  0  0
  -30.9880  -17.6090   18.5050 C   0  0  0  0  0  3  0  0  0  0  0  0
  -30.3540  -18.9860   20.5720 C   0  0  0  0  0  2  0  0  0  0  0  0
  -32.2460  -16.9790   19.0560 C   0  0  0  0  0  2  0  0  0  0  0  0
  -31.3300  -16.7340   21.3980 C   0  0  0  0  0  2  0  0  0  0  0  0
  -31.3970  -18.2890   21.4870 C   0  0  0  0  0  3  0  0  0  0  0  0
  -31.9730  -16.1140   20.2160 N   0  0  0  0  0  0  0  0  0  0  0  0
  -27.2350  -14.9380   20.3210 C   0  0  0  0  0  0  0  0  0  0  0  0
  -26.0600  -14.3170   20.6490 C   0  0  0  0  0  0  0  0  0  0  0  0
  -26.3260  -12.9150   20.5960 C   0  0  0  0  0  0  0  0  0  0  0  0
  -28.1500  -13.9210   20.0940 N   0  0  0  0  0  0  0  0  0  0  0  0
  -27.6040  -12.6990   20.3140 N   0  0  0  0  0  0  0  0  0  0  0  0
  -25.4280  -11.7620   20.7420 C   0  0  0  0  0  0  0  0  0  0  0  0
  -25.7020  -10.7240   21.6580 C   0  0  0  0  0  3  0  0  0  0  0  0
  -24.8130   -9.6360   21.7930 C   0  0  0  0  0  3  0  0  0  0  0  0
  -23.6360   -9.5800   21.0110 C   0  0  0  0  0  0  0  0  0  0  0  0
  -23.3790  -10.6060   20.0830 C   0  0  0  0  0  3  0  0  0  0  0  0
  -24.2670  -11.6860   19.9470 C   0  0  0  0  0  3  0  0  0  0  0  0
  -22.7290   -8.5480   21.0560 O   0  0  0  0  0  0  0  0  0  0  0  0
  -22.4960   -7.8450   22.2100 C   0  0  0  0  0  0  0  0  0  0  0  0
  -22.0980   -8.4840   23.4040 C   0  0  0  0  0  3  0  0  0  0  0  0
  -21.8000   -7.7160   24.5490 C   0  0  0  0  0  3  0  0  0  0  0  0
  -21.8930   -6.3120   24.4980 C   0  0  0  0  0  0  0  0  0  0  0  0
  -22.2840   -5.6730   23.3080 C   0  0  0  0  0  3  0  0  0  0  0  0
  -22.5810   -6.4390   22.1670 C   0  0  0  0  0  0  0  0  0  0  0  0
  -22.9380   -5.8180   21.0170 F   0  0  0  0  0  0  0  0  0  0  0  0
  -21.6000   -5.5730   25.5950 F   0  0  0  0  0  0  0  0  0  0  0  0
  -24.7360  -14.9810   20.9030 C   0  0  0  0  0  0  0  0  0  0  0  0
  -23.9020  -14.3840   21.7470 N   0  0  0  0  0  0  0  0  0  0  0  0
  -24.4530  -16.0620   20.3880 O   0  0  0  0  0  0  0  0  0  0  0  0
  -24.1440  -13.5070   22.1870 H   0  0  0  0  0  0  0  0  0  0  0  0
  -23.0110  -14.8090   21.9570 H   0  0  0  0  0  0  0  0  0  0  0  0
  -27.5950  -16.2740   20.1830 N   0  0  0  0  0  0  0  0  0  0  0  0
  -26.9240  -17.0270   20.2940 H   0  0  0  0  0  0  0  0  0  0  0  0
  -28.5110  -16.5960   19.8970 H   0  0  0  0  0  0  0  0  0  0  0  0
  -29.8770  -22.9620   24.0940 C   0  0  0  0  0  2  0  0  0  0  0  0
  -29.1710  -23.9230   23.2110 N   0  0  0  0  0  4  0  0  0  0  0  0
  -28.2690  -24.1270   23.6120 H   0  0  0  0  0  0  0  0  0  0  0  0
  -29.0230  -23.5070   22.3070 H   0  0  0  0  0  0  0  0  0  0  0  0
  -29.9010  -25.2030   23.0510 C   0  0  0  0  0  2  0  0  0  0  0  0
  -29.1450  -26.2610   22.2210 C   0  0  0  0  0  2  0  0  0  0  0  0
  -29.0260  -25.9360   20.7210 C   0  0  0  0  0  2  0  0  0  0  0  0
  -28.8670  -27.1430   19.9880 O   0  0  0  0  0  0  0  0  0  0  0  0
  -24.8010  -31.9520   23.2890 C   0  0  0  0  0  0  0  0  0  0  0  0
  -27.6430  -27.7550   20.0800 C   0  0  0  0  0  0  0  0  0  0  0  0
  -23.6550  -30.5490   21.6050 C   0  0  0  0  0  3  0  0  0  0  0  0
  -25.1740  -29.1140   20.1450 C   0  0  0  0  0  0  0  0  0  0  0  0
  -26.1570  -31.0340   21.4140 C   0  0  0  0  0  2  0  0  0  0  0  0
  -26.3040  -29.6870   20.7410 C   0  0  0  0  0  0  0  0  0  0  0  0
  -27.5450  -29.0160   20.7010 C   0  0  0  0  0  3  0  0  0  0  0  0
  -26.4970  -27.1770   19.4950 C   0  0  0  0  0  3  0  0  0  0  0  0
  -25.2640  -27.8540   19.5240 C   0  0  0  0  0  3  0  0  0  0  0  0
  -23.8930  -29.9130   20.2090 C   0  0  0  0  0  2  0  0  0  0  0  0
  -24.8880  -31.1920   22.1620 N   0  0  0  0  0  0  0  0  0  0  0  0
  -23.7090  -32.1620   23.8370 O   0  0  0  0  0  0  0  0  0  0  0  0
  -23.0490  -29.4740   22.5340 C   0  0  0  0  0  0  0  0  0  0  0  0
  -21.7310  -29.2470   22.4020 N   0  0  0  0  0  0  0  0  0  0  0  0
  -23.7580  -28.8480   23.3240 O   0  0  0  0  0  0  0  0  0  0  0  0
  -21.2190  -29.8080   21.7360 H   0  0  0  0  0  0  0  0  0  0  0  0
  -18.4030  -27.9260   22.8680 C   0  0  0  0  0  0  0  0  0  0  0  0
  -20.9520  -28.2550   23.1410 C   0  0  0  0  0  3  0  0  0  0  0  0
  -21.0980  -26.8510   22.5110 C   0  0  0  0  0  2  0  0  0  0  0  0
  -20.0020  -26.5310   21.4890 C   0  0  0  0  0  2  0  0  0  0  0  0
  -18.6200  -26.6080   22.1440 C   0  0  0  0  0  2  0  0  0  0  0  0
  -19.4980  -28.7070   23.3210 C   0  0  0  0  0  0  0  0  0  0  0  0
  -19.2430  -29.9410   23.9560 C   0  0  0  0  0  3  0  0  0  0  0  0
  -17.9240  -30.3940   24.1450 C   0  0  0  0  0  3  0  0  0  0  0  0
  -16.8420  -29.6100   23.7090 C   0  0  0  0  0  3  0  0  0  0  0  0
  -17.0820  -28.3770   23.0750 C   0  0  0  0  0  3  0  0  0  0  0  0
  -26.0600  -32.6130   23.9320 C   0  0  0  0  0  3  0  0  0  0  0  0
  -25.7080  -34.0000   24.2650 N   0  0  0  0  0  0  0  0  0  0  0  0
  -26.0380  -35.0660   23.5230 C   0  0  0  0  0  0  0  0  0  0  0  0
  -26.7420  -34.9870   22.5130 O   0  0  0  0  0  0  0  0  0  0  0  0
  -25.0830  -34.1330   25.0460 H   0  0  0  0  0  0  0  0  0  0  0  0
  -24.2790  -36.8180   23.1290 C   0  0  0  0  0  1  0  0  0  0  0  0
  -25.5030  -36.4370   23.9770 C   0  0  0  0  0  3  0  0  0  0  0  0
  -27.5940  -37.3600   24.8760 C   0  0  0  0  0  1  0  0  0  0  0  0
  -26.5130  -37.5160   23.9060 N   0  0  0  0  0  0  0  0  0  0  0  0
  -26.0800  -38.4220   24.0570 H   0  0  0  0  0  0  0  0  0  0  0  0
  -26.5860  -31.8470   25.2070 C   0  0  1  0  0  0  0  0  0  0  0  0
  -25.4850  -31.5560   26.2520 C   0  0  0  0  0  1  0  0  0  0  0  0
  -27.2270  -30.4980   24.8050 C   0  0  0  0  0  1  0  0  0  0  0  0
  -27.6940  -32.6770   25.8970 C   0  0  0  0  0  1  0  0  0  0  0  0
  2  1  1  0
  3  2  1  0
  3  5  1  0
  4  3  1  0
  6  3  1  0
  8 13  1  0
  9 10  1  0
  9  8  1  0
 11 10  1  0
 11 25  1  0
 11 12  1  0
 13  7  1  0
 13 12  1  0
 14  7  2  0
 15 17  1  0
 16 18  1  0
 16 15  2  0
 17 20  1  0
 18 21  1  0
 19 20  1  0
 20  6  1  0
 21  7  1  0
 21 19  1  0
 22 23  2  0
 23 42  1  0
 24 23  1  0
 24 27  1  0
 25 26  1  0
 25 22  1  0
 26 24  2  0
 27 28  1  0
 28 29  2  0
 30 33  1  0
 30 29  1  0
 31 30  2  0
 32 31  1  0
 32 27  2  0
 33 34  1  0
 34 35  1  0
 35 36  2  0
 37 36  1  0
 37 41  1  0
 38 37  2  0
 39 34  2  0
 39 38  1  0
 40 39  1  0
 42 43  1  0
 43 46  1  0
 43 45  1  0
 44 42  2  0
 47 48  1  0
 47 22  1  0
 49 47  1  0
 50  1  1  0
 51 52  1  0
 51 50  1  0
 53 51  1  0
 54 51  1  0
 55 54  1  0
 56 55  1  0
 57 59  1  0
 57 56  1  0
 58 69  2  0
 59 64  1  0
 60 68  1  0
 60 70  1  0
 61 67  1  0
 61 63  1  0
 62 68  1  0
 63 62  1  0
 64 63  2  0
 65 66  1  0
 65 59  2  0
 66 61  2  0
 67 60  1  0
 68 58  1  0
 70 72  2  0
 71 70  1  0
 73 71  1  0
 74 83  2  0
 74 79  1  0
 75 71  1  0
 75 79  1  0
 76 75  1  0
 77 78  1  0
 77 76  1  0
 78 74  1  0
 79 80  2  0
 80 81  1  0
 82 81  2  0
 83 82  1  0
 84 58  1  0
 84 85  1  0
 84 94  1  0
 85 88  1  0
 86 90  1  0
 86 85  1  0
 87 86  2  0
 90 89  1  0
 92 90  1  0
 92 93  1  0
 92 91  1  0
 94 97  1  1
 94 95  1  0
 96 94  1  0
M  ISO  4   7 100  21 100  56 101  57 101
M  END
>  <TORSDO>  (6) 
F 24

>  <SCORE>  (6) 
-7.504

>  <name>  (6) 
6

>  <ligand_id>  (6) 
6

>  <original_smiles>  (6) 
[H]C1=C([H])C([H])([H])C([H])(C([H])([H])[N+]([H])([H])C([H])([H])C([H])([H])C([H])([H])[N+]([H])([H])C([H])([H])C([H])([H])C([H])([H])Oc2c([H])c([H])c3c(c2[H])C([H])([H])N(C(=O)C([H])(N([H])C(=O)C([H])(N([H])C([H])([H])[H])C([H])([H])[H])C(C([H])([H])[H])(C([H])([H])[H])C([H])([H])[H])C([H])(C(=O)N([H])C2([H])c4c([H])c([H])c([H])c([H])c4C([H])([H])C([H])([H])C2([H])[H])C3([H])[H])C([H])([H])N(C(=O)N2C([H])([H])C([H])([H])C([H])([H])C([H])(n3nc(-c4c([H])c([H])c(Oc5c([H])c([H])c(F)c([H])c5F)c([H])c4[H])c(C(=O)N([H])[H])c3N([H])[H])C2([H])[H])C1([H])[H]

>  <smiles>  (6) 
[H]C1=C([H])C([H])([H])C([H])(C([H])([H])[N+]([H])([H])C([H])([H])C([H])([H])C([H])([H])[N+]([H])([H])C([H])([H])C([H])([H])C([H])([H])Oc2c([H])c([H])c3c(c2[H])C([H])([H])N(C(=O)C([H])(N([H])C(=O)C([H])(N([H])C([H])([H])[H])C([H])([H])[H])C(C([H])([H])[H])(C([H])([H])[H])C([H])([H])[H])C([H])(C(=O)N([H])C2([H])c4c([H])c([H])c([H])c([H])c4C([H])([H])C([H])([H])C2([H])[H])C3([H])[H])C([H])([H])N(C(=O)N2C([H])([H])C([H])([H])C([H])([H])C([H])(n3nc(-c4c([H])c([H])c(Oc5c([H])c([H])c(F)c([H])c5F)c([H])c4[H])c(C(=O)N([H])[H])c3N([H])[H])C2([H])[H])C1([H])[H]

$$$$
7:0:0
     RDKit          3D

 91 99  0  0  1  0  0  0  0  0999 V2000
  -29.9090  -20.7590   21.2920 C   0  0  0  0  0  2  0  0  0  0  0  0
  -30.5180  -19.6700   20.5050 N   0  0  0  0  0  4  0  0  0  0  0  0
  -29.8360  -19.3000   19.8630 H   0  0  0  0  0  0  0  0  0  0  0  0
  -31.2570  -20.0760   19.9540 H   0  0  0  0  0  0  0  0  0  0  0  0
  -30.1100  -17.5820   21.9350 C   0  0  0  0  0  2  0  0  0  0  0  0
  -31.6360  -17.4100   20.4840 C   0  0  0  0  0  2  0  0  0  0  0  0
  -31.1430  -16.4850   21.6160 C   0  0  0  0  0  3  0  0  0  0  0  0
  -31.1070  -18.5820   21.3190 C   0  0  0  0  0  3  0  0  0  0  0  0
  -31.0090  -14.3590   20.2810 C   0  0  0  0  0  0  0  0  0  0  0  0
  -30.5800  -12.2770   19.0380 C   0  0  0  0  0  2  0  0  0  0  0  0
  -29.5930  -12.5250   17.8820 C   0  0  0  0  0  2  0  0  0  0  0  0
  -28.1390  -12.3950   18.3720 C   0  0  0  0  0  2  0  0  0  0  0  0
  -27.8660  -13.2240   19.6540 C   0  0  0  0  0  3  0  0  0  0  0  0
  -28.9550  -12.9580   20.7170 C   0  0  0  0  0  2  0  0  0  0  0  0
  -30.2710  -13.2340   20.1100 N   0  0  0  0  0  0  0  0  0  0  0  0
  -32.0430  -14.5890   19.6470 O   0  0  0  0  0  0  0  0  0  0  0  0
  -30.5280  -15.2280   21.1820 N   0  0  0  0  0  0  0  0  0  0  0  0
  -29.6830  -14.9420   21.6550 H   0  0  0  0  0  0  0  0  0  0  0  0
  -25.5130  -13.8610   20.4850 C   0  0  0  0  0  0  0  0  0  0  0  0
  -24.4440  -13.0990   20.8750 C   0  0  0  0  0  0  0  0  0  0  0  0
  -24.8720  -11.7410   20.7770 C   0  0  0  0  0  0  0  0  0  0  0  0
  -26.5270  -12.9660   20.1810 N   0  0  0  0  0  0  0  0  0  0  0  0
  -26.1450  -11.6830   20.4100 N   0  0  0  0  0  0  0  0  0  0  0  0
  -24.1270  -10.4870   20.9580 C   0  0  0  0  0  0  0  0  0  0  0  0
  -24.5390   -9.5100   21.8910 C   0  0  0  0  0  3  0  0  0  0  0  0
  -23.7960   -8.3230   22.0580 C   0  0  0  0  0  3  0  0  0  0  0  0
  -22.6260   -8.1040   21.2910 C   0  0  0  0  0  0  0  0  0  0  0  0
  -22.2350   -9.0690   20.3460 C   0  0  0  0  0  3  0  0  0  0  0  0
  -22.9790  -10.2480   20.1780 C   0  0  0  0  0  3  0  0  0  0  0  0
  -21.8570   -6.9680   21.3670 O   0  0  0  0  0  0  0  0  0  0  0  0
  -21.7320   -6.2590   22.5350 C   0  0  0  0  0  0  0  0  0  0  0  0
  -21.1590   -6.8270   23.6930 C   0  0  0  0  0  3  0  0  0  0  0  0
  -20.9860   -6.0420   24.8510 C   0  0  0  0  0  3  0  0  0  0  0  0
  -21.3760   -4.6900   24.8490 C   0  0  0  0  0  0  0  0  0  0  0  0
  -21.9420   -4.1210   23.6950 C   0  0  0  0  0  3  0  0  0  0  0  0
  -22.1170   -4.9030   22.5400 C   0  0  0  0  0  0  0  0  0  0  0  0
  -22.6430   -4.3440   21.4240 F   0  0  0  0  0  0  0  0  0  0  0  0
  -21.2040   -3.9330   25.9580 F   0  0  0  0  0  0  0  0  0  0  0  0
  -23.0710  -13.5960   21.2290 C   0  0  0  0  0  0  0  0  0  0  0  0
  -22.3640  -12.8780   22.0950 N   0  0  0  0  0  0  0  0  0  0  0  0
  -22.6370  -14.6550   20.7750 O   0  0  0  0  0  0  0  0  0  0  0  0
  -22.7280  -12.0210   22.4820 H   0  0  0  0  0  0  0  0  0  0  0  0
  -21.4450  -13.1910   22.3730 H   0  0  0  0  0  0  0  0  0  0  0  0
  -25.7040  -15.2330   20.3470 N   0  0  0  0  0  0  0  0  0  0  0  0
  -24.9610  -15.9040   20.5110 H   0  0  0  0  0  0  0  0  0  0  0  0
  -26.5560  -15.6600   20.0070 H   0  0  0  0  0  0  0  0  0  0  0  0
  -29.5480  -21.9580   20.3980 C   0  0  0  0  0  2  0  0  0  0  0  0
  -29.0890  -23.1820   21.2040 C   0  0  0  0  0  2  0  0  0  0  0  0
  -28.9780  -24.4420   20.3350 C   0  0  0  0  0  2  0  0  0  0  0  0
  -28.6040  -25.6740   21.1620 C   0  0  0  0  0  2  0  0  0  0  0  0
  -28.6300  -26.8220   20.3260 O   0  0  0  0  0  0  0  0  0  0  0  0
  -24.6680  -31.9330   23.2380 C   0  0  0  0  0  0  0  0  0  0  0  0
  -27.4470  -27.5090   20.3040 C   0  0  0  0  0  0  0  0  0  0  0  0
  -23.5140  -30.4730   21.6050 C   0  0  0  0  0  3  0  0  0  0  0  0
  -25.0200  -28.9290   20.2460 C   0  0  0  0  0  0  0  0  0  0  0  0
  -26.0310  -30.8840   21.4390 C   0  0  0  0  0  2  0  0  0  0  0  0
  -26.1530  -29.5030   20.8370 C   0  0  0  0  0  0  0  0  0  0  0  0
  -27.3730  -28.7990   20.8640 C   0  0  0  0  0  3  0  0  0  0  0  0
  -26.3040  -26.9320   19.7170 C   0  0  0  0  0  3  0  0  0  0  0  0
  -25.0870  -27.6400   19.6870 C   0  0  0  0  0  3  0  0  0  0  0  0
  -23.7580  -29.7610   20.2470 C   0  0  0  0  0  2  0  0  0  0  0  0
  -24.7540  -31.1130   22.1530 N   0  0  0  0  0  0  0  0  0  0  0  0
  -23.5740  -32.1960   23.7560 O   0  0  0  0  0  0  0  0  0  0  0  0
  -22.8660  -29.4620   22.5790 C   0  0  0  0  0  0  0  0  0  0  0  0
  -21.5570  -29.2220   22.4040 N   0  0  0  0  0  0  0  0  0  0  0  0
  -23.5390  -28.8960   23.4440 O   0  0  0  0  0  0  0  0  0  0  0  0
  -21.0750  -29.7330   21.6760 H   0  0  0  0  0  0  0  0  0  0  0  0
  -18.2090  -27.9280   22.8080 C   0  0  0  0  0  0  0  0  0  0  0  0
  -20.7430  -28.2830   23.1750 C   0  0  0  0  0  3  0  0  0  0  0  0
  -20.9180  -26.8380   22.6550 C   0  0  0  0  0  2  0  0  0  0  0  0
  -19.8730  -26.4430   21.6070 C   0  0  0  0  0  2  0  0  0  0  0  0
  -18.4590  -26.5640   22.1850 C   0  0  0  0  0  2  0  0  0  0  0  0
  -19.2830  -28.7410   23.2560 C   0  0  0  0  0  0  0  0  0  0  0  0
  -18.9980  -30.0170   23.7910 C   0  0  0  0  0  3  0  0  0  0  0  0
  -17.6720  -30.4790   23.8840 C   0  0  0  0  0  3  0  0  0  0  0  0
  -16.6120  -29.6620   23.4550 C   0  0  0  0  0  3  0  0  0  0  0  0
  -16.8810  -28.3890   22.9220 C   0  0  0  0  0  3  0  0  0  0  0  0
  -25.9330  -32.5980   23.8660 C   0  0  0  0  0  3  0  0  0  0  0  0
  -25.5900  -33.9880   24.1850 N   0  0  0  0  0  0  0  0  0  0  0  0
  -25.9120  -35.0450   23.4280 C   0  0  0  0  0  0  0  0  0  0  0  0
  -26.6010  -34.9530   22.4080 O   0  0  0  0  0  0  0  0  0  0  0  0
  -24.9800  -34.1330   24.9770 H   0  0  0  0  0  0  0  0  0  0  0  0
  -24.1630  -36.8040   23.0160 C   0  0  0  0  0  1  0  0  0  0  0  0
  -25.3840  -36.4230   23.8700 C   0  0  0  0  0  3  0  0  0  0  0  0
  -27.4650  -37.3510   24.7830 C   0  0  0  0  0  1  0  0  0  0  0  0
  -26.4010  -37.4950   23.7940 N   0  0  0  0  0  0  0  0  0  0  0  0
  -25.9710  -38.4070   23.9230 H   0  0  0  0  0  0  0  0  0  0  0  0
  -26.4640  -31.8430   25.1470 C   0  0  1  0  0  0  0  0  0  0  0  0
  -25.3620  -31.5440   26.1910 C   0  0  0  0  0  1  0  0  0  0  0  0
  -27.1200  -30.5000   24.7540 C   0  0  0  0  0  1  0  0  0  0  0  0
  -27.5600  -32.6880   25.8370 C   0  0  0  0  0  1  0  0  0  0  0  0
  2  1  1  0
  3  2  1  0
  4  2  1  0
  6  8  1  0
  6  7  1  0
  7 17  1  0
  7  5  1  0
  8  2  1  0
  8  5  1  0
  9 17  1  0
 10 15  1  0
 11 12  1  0
 11 10  1  0
 13 12  1  0
 13 22  1  0
 13 14  1  0
 15  9  1  0
 15 14  1  0
 16  9  2  0
 17 18  1  0
 19 20  2  0
 20 39  1  0
 21 20  1  0
 21 24  1  0
 22 23  1  0
 22 19  1  0
 23 21  2  0
 24 25  1  0
 25 26  2  0
 27 30  1  0
 27 26  1  0
 28 27  2  0
 29 28  1  0
 29 24  2  0
 30 31  1  0
 31 36  2  0
 31 32  1  0
 32 33  2  0
 34 33  1  0
 34 38  1  0
 35 34  2  0
 36 35  1  0
 37 36  1  0
 39 40  1  0
 40 43  1  0
 40 42  1  0
 41 39  2  0
 44 19  1  0
 44 45  1  0
 46 44  1  0
 47 48  1  0
 47  1  1  0
 49 50  1  0
 49 48  1  0
 51 50  1  0
 52 63  2  0
 53 51  1  0
 53 58  1  0
 54 62  1  0
 54 64  1  0
 55 61  1  0
 55 57  1  0
 56 62  1  0
 57 58  2  0
 57 56  1  0
 59 53  2  0
 60 59  1  0
 60 55  2  0
 61 54  1  0
 62 52  1  0
 64 66  2  0
 65 64  1  0
 67 65  1  0
 68 77  2  0
 68 73  1  0
 69 65  1  0
 69 73  1  0
 70 69  1  0
 71 72  1  0
 71 70  1  0
 72 68  1  0
 73 74  2  0
 74 75  1  0
 76 75  2  0
 77 76  1  0
 78 52  1  0
 78 79  1  0
 78 88  1  0
 79 82  1  0
 80 84  1  0
 80 79  1  0
 81 80  2  0
 84 83  1  0
 86 84  1  0
 86 87  1  0
 86 85  1  0
 88 91  1  1
 88 89  1  0
 90 88  1  0
M  ISO  4   9 100  17 100  50 101  51 101
M  END
>  <TORSDO>  (7) 
F 22

>  <SCORE>  (7) 
-12.938

>  <name>  (7) 
7

>  <ligand_id>  (7) 
7

>  <original_smiles>  (7) 
[H]c1c([H])c([H])c2c(c1[H])C([H])([H])C([H])([H])C([H])([H])C2([H])N([H])C(=O)C1([H])N(C(=O)C([H])(N([H])C(=O)C([H])(N([H])C([H])([H])[H])C([H])([H])[H])C(C([H])([H])[H])(C([H])([H])[H])C([H])([H])[H])C([H])([H])c2c([H])c(OC([H])([H])C([H])([H])C([H])([H])C([H])([H])C([H])([H])[N+]([H])([H])C3([H])C([H])([H])C([H])(N([H])C(=O)N4C([H])([H])C([H])([H])C([H])([H])C([H])(n5nc(-c6c([H])c([H])c(Oc7c([H])c([H])c(F)c([H])c7F)c([H])c6[H])c(C(=O)N([H])[H])c5N([H])[H])C4([H])[H])C3([H])[H])c([H])c([H])c2C1([H])[H]

>  <smiles>  (7) 
[H]c1c([H])c([H])c2c(c1[H])C([H])([H])C([H])([H])C([H])([H])C2([H])N([H])C(=O)C1([H])N(C(=O)C([H])(N([H])C(=O)C([H])(N([H])C([H])([H])[H])C([H])([H])[H])C(C([H])([H])[H])(C([H])([H])[H])C([H])([H])[H])C([H])([H])c2c([H])c(OC([H])([H])C([H])([H])C([H])([H])C([H])([H])C([H])([H])[N+]([H])([H])C3([H])C([H])([H])C([H])(N([H])C(=O)N4C([H])([H])C([H])([H])C([H])([H])C([H])(n5nc(-c6c([H])c([H])c(Oc7c([H])c([H])c(F)c([H])c7F)c([H])c6[H])c(C(=O)N([H])[H])c5N([H])[H])C4([H])[H])C3([H])[H])c([H])c([H])c2C1([H])[H]

$$$$
8:0:0
     RDKit          3D

 95103  0  0  1  0  0  0  0  0999 V2000
  -29.9720  -22.5490   23.2520 C   0  0  0  0  0  2  0  0  0  0  0  0
  -29.0480  -22.7220   22.1060 N   0  0  0  0  0  4  0  0  0  0  0  0
  -28.1050  -22.6930   22.4570 H   0  0  0  0  0  0  0  0  0  0  0  0
  -29.1660  -21.9450   21.4770 H   0  0  0  0  0  0  0  0  0  0  0  0
  -29.2100  -23.9930   21.3530 C   0  0  0  0  0  2  0  0  0  0  0  0
  -28.1140  -24.1750   20.2750 C   0  0  0  0  0  2  0  0  0  0  0  0
  -28.3070  -25.3890   19.3370 C   0  0  0  0  0  2  0  0  0  0  0  0
  -28.1960  -26.6570   19.9930 O   0  0  0  0  0  0  0  0  0  0  0  0
  -24.5100  -31.8120   23.1880 C   0  0  0  0  0  0  0  0  0  0  0  0
  -27.0020  -27.3510   20.0060 C   0  0  0  0  0  0  0  0  0  0  0  0
  -23.2340  -30.4440   21.5670 C   0  0  0  0  0  3  0  0  0  0  0  0
  -24.6210  -28.8900   20.0940 C   0  0  0  0  0  0  0  0  0  0  0  0
  -25.7580  -30.7620   21.2980 C   0  0  0  0  0  2  0  0  0  0  0  0
  -25.8030  -29.3940   20.6510 C   0  0  0  0  0  0  0  0  0  0  0  0
  -26.9910  -28.6320   20.6040 C   0  0  0  0  0  3  0  0  0  0  0  0
  -25.7930  -26.8500   19.4610 C   0  0  0  0  0  3  0  0  0  0  0  0
  -24.6110  -27.6160   19.5010 C   0  0  0  0  0  3  0  0  0  0  0  0
  -23.3940  -29.7700   20.1790 C   0  0  0  0  0  2  0  0  0  0  0  0
  -24.5200  -31.0220   22.0750 N   0  0  0  0  0  0  0  0  0  0  0  0
  -23.4510  -32.0970   23.7630 O   0  0  0  0  0  0  0  0  0  0  0  0
  -22.5920  -29.4280   22.5410 C   0  0  0  0  0  0  0  0  0  0  0  0
  -21.2690  -29.2330   22.4150 N   0  0  0  0  0  0  0  0  0  0  0  0
  -23.2820  -28.8170   23.3620 O   0  0  0  0  0  0  0  0  0  0  0  0
  -20.7750  -29.7760   21.7200 H   0  0  0  0  0  0  0  0  0  0  0  0
  -17.9160  -27.9690   22.8710 C   0  0  0  0  0  0  0  0  0  0  0  0
  -20.4600  -28.2960   23.1940 C   0  0  0  0  0  3  0  0  0  0  0  0
  -20.6100  -26.8520   22.6620 C   0  0  0  0  0  2  0  0  0  0  0  0
  -19.5420  -26.4760   21.6300 C   0  0  0  0  0  2  0  0  0  0  0  0
  -18.1410  -26.6080   22.2330 C   0  0  0  0  0  2  0  0  0  0  0  0
  -19.0060  -28.7690   23.3050 C   0  0  0  0  0  0  0  0  0  0  0  0
  -18.7440  -30.0440   23.8510 C   0  0  0  0  0  3  0  0  0  0  0  0
  -17.4240  -30.5180   23.9730 C   0  0  0  0  0  3  0  0  0  0  0  0
  -16.3480  -29.7130   23.5570 C   0  0  0  0  0  3  0  0  0  0  0  0
  -16.5940  -28.4410   23.0110 C   0  0  0  0  0  3  0  0  0  0  0  0
  -25.8260  -32.4150   23.7750 C   0  0  0  0  0  3  0  0  0  0  0  0
  -25.5470  -33.8100   24.1430 N   0  0  0  0  0  0  0  0  0  0  0  0
  -25.8770  -34.8720   23.3950 C   0  0  0  0  0  0  0  0  0  0  0  0
  -26.5240  -34.7800   22.3480 O   0  0  0  0  0  0  0  0  0  0  0  0
  -24.9850  -33.9590   24.9680 H   0  0  0  0  0  0  0  0  0  0  0  0
  -24.1710  -36.6950   23.1090 C   0  0  0  0  0  1  0  0  0  0  0  0
  -25.4200  -36.2580   23.8890 C   0  0  0  0  0  3  0  0  0  0  0  0
  -27.5870  -37.0890   24.6950 C   0  0  0  0  0  1  0  0  0  0  0  0
  -26.4680  -37.2970   23.7790 N   0  0  0  0  0  0  0  0  0  0  0  0
  -26.0780  -38.2190   23.9610 H   0  0  0  0  0  0  0  0  0  0  0  0
  -26.3830  -31.6100   25.0140 C   0  0  1  0  0  0  0  0  0  0  0  0
  -25.3330  -31.3480   26.1160 C   0  0  0  0  0  1  0  0  0  0  0  0
  -26.9450  -30.2410   24.5630 C   0  0  0  0  0  1  0  0  0  0  0  0
  -27.5650  -32.3820   25.6480 C   0  0  0  0  0  1  0  0  0  0  0  0
  -29.8460  -21.1660   23.9430 C   0  0  0  0  0  2  0  0  0  0  0  0
  -31.2090  -19.6870   22.2910 C   0  0  0  0  0  0  0  0  0  0  0  0
  -31.6180  -18.4000   21.6880 C   0  0  0  0  0  0  0  0  0  0  0  0
  -30.1950  -19.8960   23.1620 C   0  0  0  0  0  2  0  0  0  0  0  0
  -32.1990  -20.6890   21.7680 C   0  0  0  0  0  2  0  0  0  0  0  0
  -33.1000  -19.8600   20.8480 C   0  0  0  0  0  3  0  0  0  0  0  0
  -32.6130  -18.4940   20.9040 N   0  0  0  0  0  0  0  0  0  0  0  0
  -30.9890  -17.0440   22.0360 C   0  0  0  0  0  2  0  0  0  0  0  0
  -30.1740  -16.3420   20.9200 C   0  0  0  0  0  2  0  0  0  0  0  0
  -31.6060  -14.4340   19.9710 C   0  0  0  0  0  0  0  0  0  0  0  0
  -31.1190  -12.2470   18.9700 C   0  0  0  0  0  2  0  0  0  0  0  0
  -30.1550  -12.4370   17.7780 C   0  0  0  0  0  2  0  0  0  0  0  0
  -28.6820  -12.4490   18.2480 C   0  0  0  0  0  2  0  0  0  0  0  0
  -28.4440  -13.3700   19.4780 C   0  0  0  0  0  3  0  0  0  0  0  0
  -29.5140  -13.1010   20.5600 C   0  0  0  0  0  2  0  0  0  0  0  0
  -30.8260  -13.3180   19.9340 N   0  0  0  0  0  0  0  0  0  0  0  0
  -32.7650  -14.4390   19.5580 O   0  0  0  0  0  0  0  0  0  0  0  0
  -30.9880  -15.6250   19.9310 N   0  0  0  0  0  0  0  0  0  0  0  0
  -31.6060  -16.2710   19.4590 H   0  0  0  0  0  0  0  0  0  0  0  0
  -26.1410  -14.2020   20.2600 C   0  0  0  0  0  0  0  0  0  0  0  0
  -25.0120  -13.5360   20.6510 C   0  0  0  0  0  0  0  0  0  0  0  0
  -25.3300  -12.1430   20.5810 C   0  0  0  0  0  0  0  0  0  0  0  0
  -27.0860  -13.2240   19.9930 N   0  0  0  0  0  0  0  0  0  0  0  0
  -26.6010  -11.9800   20.2370 N   0  0  0  0  0  0  0  0  0  0  0  0
  -24.4860  -10.9550   20.7650 C   0  0  0  0  0  0  0  0  0  0  0  0
  -24.8290   -9.9400   21.6850 C   0  0  0  0  0  3  0  0  0  0  0  0
  -23.9900   -8.8190   21.8580 C   0  0  0  0  0  3  0  0  0  0  0  0
  -22.7960   -8.7010   21.1080 C   0  0  0  0  0  0  0  0  0  0  0  0
  -22.4710   -9.7020   20.1780 C   0  0  0  0  0  3  0  0  0  0  0  0
  -23.3080  -10.8170   20.0020 C   0  0  0  0  0  3  0  0  0  0  0  0
  -21.9340   -7.6340   21.1940 O   0  0  0  0  0  0  0  0  0  0  0  0
  -21.7850   -6.9160   22.3530 C   0  0  0  0  0  0  0  0  0  0  0  0
  -21.4060   -7.5310   23.5670 C   0  0  0  0  0  3  0  0  0  0  0  0
  -21.1980   -6.7440   24.7180 C   0  0  0  0  0  3  0  0  0  0  0  0
  -21.3600   -5.3480   24.6580 C   0  0  0  0  0  0  0  0  0  0  0  0
  -21.7350   -4.7350   23.4500 C   0  0  0  0  0  3  0  0  0  0  0  0
  -21.9450   -5.5160   22.3020 C   0  0  0  0  0  0  0  0  0  0  0  0
  -22.2840   -4.9170   21.1340 F   0  0  0  0  0  0  0  0  0  0  0  0
  -21.1540   -4.5920   25.7620 F   0  0  0  0  0  0  0  0  0  0  0  0
  -23.6790  -14.1440   20.9810 C   0  0  0  0  0  0  0  0  0  0  0  0
  -22.9210  -13.5170   21.8740 N   0  0  0  0  0  0  0  0  0  0  0  0
  -23.3220  -15.2110   20.4820 O   0  0  0  0  0  0  0  0  0  0  0  0
  -23.2200  -12.6540   22.3030 H   0  0  0  0  0  0  0  0  0  0  0  0
  -22.0270  -13.9060   22.1360 H   0  0  0  0  0  0  0  0  0  0  0  0
  -26.4410  -15.5500   20.0830 N   0  0  0  0  0  0  0  0  0  0  0  0
  -25.7480  -16.2870   20.1560 H   0  0  0  0  0  0  0  0  0  0  0  0
  -27.3200  -15.8660   19.6890 H   0  0  0  0  0  0  0  0  0  0  0  0
  1 49  1  0
  2  3  1  0
  2  1  1  0
  4  2  1  0
  5  2  1  0
  6  5  1  0
  7  8  1  0
  7  6  1  0
  8 10  1  0
  9 20  2  0
 10 15  1  0
 11 19  1  0
 11 21  1  0
 12 18  1  0
 12 14  1  0
 13 19  1  0
 14 13  1  0
 15 14  2  0
 16 17  1  0
 16 10  2  0
 17 12  2  0
 18 11  1  0
 19  9  1  0
 21 23  2  0
 22 21  1  0
 24 22  1  0
 25 34  2  0
 25 30  1  0
 26 22  1  0
 26 30  1  0
 27 26  1  0
 28 29  1  0
 28 27  1  0
 29 25  1  0
 30 31  2  0
 31 32  1  0
 33 32  2  0
 34 33  1  0
 35  9  1  0
 35 36  1  0
 35 45  1  0
 36 39  1  0
 37 41  1  0
 37 36  1  0
 38 37  2  0
 41 40  1  0
 43 41  1  0
 43 44  1  0
 43 42  1  0
 45 48  1  1
 45 46  1  0
 47 45  1  0
 50 52  1  0
 51 56  1  0
 51 50  2  0
 52 49  1  0
 53 50  1  0
 54 55  2  0
 54 53  1  0
 55 51  1  0
 57 56  1  0
 59 64  1  0
 60 61  1  0
 60 59  1  0
 62 61  1  0
 62 71  1  0
 62 63  1  0
 64 58  1  0
 64 63  1  0
 65 58  2  0
 66 58  1  0
 66 57  1  0
 67 66  1  0
 68 69  2  0
 69 88  1  0
 70 69  1  0
 70 73  1  0
 71 72  1  0
 71 68  1  0
 72 70  2  0
 73 74  1  0
 74 75  2  0
 76 79  1  0
 76 75  1  0
 77 76  2  0
 78 77  1  0
 78 73  2  0
 79 80  1  0
 80 81  1  0
 81 82  2  0
 83 82  1  0
 83 87  1  0
 84 83  2  0
 85 80  2  0
 85 84  1  0
 86 85  1  0
 88 89  1  0
 89 92  1  0
 89 91  1  0
 90 88  2  0
 93 94  1  0
 93 68  1  0
 95 93  1  0
M  ISO  4   7 101   8 101  58 100  66 100
M  END
>  <TORSDO>  (8) 
F 24

>  <SCORE>  (8) 
-11.502

>  <name>  (8) 
8

>  <ligand_id>  (8) 
8

>  <original_smiles>  (8) 
[H]C(=C1C(C([H])([H])C([H])([H])N([H])C(=O)N2C([H])([H])C([H])([H])C([H])([H])C([H])(n3nc(-c4c([H])c([H])c(Oc5c([H])c([H])c(F)c([H])c5F)c([H])c4[H])c(C(=O)N([H])[H])c3N([H])[H])C2([H])[H])=NC([H])([H])C1([H])[H])C([H])([H])C([H])([H])[N+]([H])([H])C([H])([H])C([H])([H])C([H])([H])Oc1c([H])c([H])c2c(c1[H])C([H])([H])N(C(=O)C([H])(N([H])C(=O)C([H])(N([H])C([H])([H])[H])C([H])([H])[H])C(C([H])([H])[H])(C([H])([H])[H])C([H])([H])[H])C([H])(C(=O)N([H])C1([H])c3c([H])c([H])c([H])c([H])c3C([H])([H])C([H])([H])C1([H])[H])C2([H])[H]

>  <smiles>  (8) 
[H]C(=C1C(C([H])([H])C([H])([H])N([H])C(=O)N2C([H])([H])C([H])([H])C([H])([H])C([H])(n3nc(-c4c([H])c([H])c(Oc5c([H])c([H])c(F)c([H])c5F)c([H])c4[H])c(C(=O)N([H])[H])c3N([H])[H])C2([H])[H])=NC([H])([H])C1([H])[H])C([H])([H])C([H])([H])[N+]([H])([H])C([H])([H])C([H])([H])C([H])([H])Oc1c([H])c([H])c2c(c1[H])C([H])([H])N(C(=O)C([H])(N([H])C(=O)C([H])(N([H])C([H])([H])[H])C([H])([H])[H])C(C([H])([H])[H])(C([H])([H])[H])C([H])([H])[H])C([H])(C(=O)N([H])C1([H])c3c([H])c([H])c([H])c([H])c3C([H])([H])C([H])([H])C1([H])[H])C2([H])[H]

$$$$
9:0:0
     RDKit          3D

101110  0  0  1  0  0  0  0  0999 V2000
  -32.4940  -22.8430   21.0990 C   0  0  0  0  0  2  0  0  0  0  0  0
  -33.4660  -21.9870   20.2880 C   0  0  0  0  0  2  0  0  0  0  0  0
  -31.0940  -22.4710   20.5560 C   0  0  0  0  0  3  0  0  0  0  0  0
  -31.3710  -21.6530   19.2610 C   0  0  0  0  0  3  0  0  0  0  0  0
  -32.8070  -21.8360   18.9890 N   0  0  0  0  0  4  0  0  0  0  0  0
  -33.2030  -21.1000   18.4260 H   0  0  0  0  0  0  0  0  0  0  0  0
  -32.9100  -22.7050   18.4890 H   0  0  0  0  0  0  0  0  0  0  0  0
  -30.2960  -23.6560   20.2340 N   0  0  0  0  0  0  0  0  0  0  0  0
  -29.4120  -23.3500   19.8300 H   0  0  0  0  0  0  0  0  0  0  0  0
  -29.9780  -24.4810   21.4020 C   0  0  0  0  0  2  0  0  0  0  0  0
  -28.8080  -25.4290   21.0700 C   0  0  0  0  0  2  0  0  0  0  0  0
  -29.1970  -26.6070   20.1540 C   0  0  0  0  0  2  0  0  0  0  0  0
  -28.1750  -26.8320   19.1890 O   0  0  0  0  0  0  0  0  0  0  0  0
  -24.6240  -31.6190   23.2160 C   0  0  0  0  0  0  0  0  0  0  0  0
  -27.0660  -27.5930   19.4840 C   0  0  0  0  0  0  0  0  0  0  0  0
  -23.3270  -30.4720   21.4440 C   0  0  0  0  0  3  0  0  0  0  0  0
  -24.7010  -29.1040   19.7900 C   0  0  0  0  0  0  0  0  0  0  0  0
  -25.8540  -30.8020   21.2150 C   0  0  0  0  0  2  0  0  0  0  0  0
  -25.8880  -29.5240   20.4080 C   0  0  0  0  0  0  0  0  0  0  0  0
  -27.0750  -28.7680   20.2700 C   0  0  0  0  0  3  0  0  0  0  0  0
  -25.8640  -27.1810   18.8770 C   0  0  0  0  0  3  0  0  0  0  0  0
  -24.6780  -27.9240   19.0320 C   0  0  0  0  0  3  0  0  0  0  0  0
  -23.4800  -29.9750   19.9830 C   0  0  0  0  0  2  0  0  0  0  0  0
  -24.6200  -30.9700   22.0180 N   0  0  0  0  0  0  0  0  0  0  0  0
  -23.5700  -31.8380   23.8280 O   0  0  0  0  0  0  0  0  0  0  0  0
  -22.6830  -29.3450   22.2830 C   0  0  0  0  0  0  0  0  0  0  0  0
  -21.3510  -29.2030   22.1740 N   0  0  0  0  0  0  0  0  0  0  0  0
  -23.3740  -28.6050   22.9900 O   0  0  0  0  0  0  0  0  0  0  0  0
  -20.8520  -29.8460   21.5740 H   0  0  0  0  0  0  0  0  0  0  0  0
  -17.9650  -28.0360   22.6410 C   0  0  0  0  0  0  0  0  0  0  0  0
  -20.5380  -28.1880   22.8420 C   0  0  0  0  0  3  0  0  0  0  0  0
  -20.5770  -26.8460   22.0730 C   0  0  0  0  0  2  0  0  0  0  0  0
  -19.4310  -26.6950   21.0690 C   0  0  0  0  0  2  0  0  0  0  0  0
  -18.0770  -26.7890   21.7770 C   0  0  0  0  0  2  0  0  0  0  0  0
  -19.1220  -28.7030   23.1230 C   0  0  0  0  0  0  0  0  0  0  0  0
  -18.9640  -29.8820   23.8820 C   0  0  0  0  0  3  0  0  0  0  0  0
  -17.6820  -30.3900   24.1660 C   0  0  0  0  0  3  0  0  0  0  0  0
  -16.5410  -29.7140   23.7030 C   0  0  0  0  0  3  0  0  0  0  0  0
  -16.6840  -28.5370   22.9470 C   0  0  0  0  0  3  0  0  0  0  0  0
  -25.9500  -32.1340   23.8630 C   0  0  0  0  0  3  0  0  0  0  0  0
  -25.7270  -33.5210   24.2840 N   0  0  0  0  0  0  0  0  0  0  0  0
  -26.1170  -34.5980   23.5890 C   0  0  0  0  0  0  0  0  0  0  0  0
  -26.7770  -34.5210   22.5490 O   0  0  0  0  0  0  0  0  0  0  0  0
  -25.1680  -33.6590   25.1140 H   0  0  0  0  0  0  0  0  0  0  0  0
  -24.4950  -36.4990   23.3500 C   0  0  0  0  0  1  0  0  0  0  0  0
  -25.7100  -35.9790   24.1350 C   0  0  0  0  0  3  0  0  0  0  0  0
  -27.8800  -36.6900   25.0330 C   0  0  0  0  0  1  0  0  0  0  0  0
  -26.8020  -36.9750   24.0890 N   0  0  0  0  0  0  0  0  0  0  0  0
  -26.4480  -37.9070   24.2870 H   0  0  0  0  0  0  0  0  0  0  0  0
  -26.4320  -31.2540   25.0800 C   0  0  1  0  0  0  0  0  0  0  0  0
  -25.3330  -31.0110   26.1390 C   0  0  0  0  0  1  0  0  0  0  0  0
  -26.9400  -29.8750   24.5940 C   0  0  0  0  0  1  0  0  0  0  0  0
  -27.6240  -31.9400   25.7880 C   0  0  0  0  0  1  0  0  0  0  0  0
  -31.0070  -20.1550   19.3840 C   0  0  0  0  0  2  0  0  0  0  0  0
  -29.5430  -19.8750   18.9800 C   0  0  0  0  0  2  0  0  0  0  0  0
  -28.9170  -18.7270   19.6830 N   0  0  0  0  0  4  0  0  0  0  0  0
  -28.9820  -18.8410   20.6880 H   0  0  0  0  0  0  0  0  0  0  0  0
  -27.9330  -18.7700   19.4650 H   0  0  0  0  0  0  0  0  0  0  0  0
  -30.4400  -14.4360   19.2610 C   0  0  0  0  0  0  0  0  0  0  0  0
  -30.3180  -12.0040   18.8570 C   0  0  0  0  0  2  0  0  0  0  0  0
  -29.3050  -11.6810   17.7430 C   0  0  0  0  0  2  0  0  0  0  0  0
  -27.8840  -11.5380   18.3210 C   0  0  0  0  0  2  0  0  0  0  0  0
  -27.5010  -12.7150   19.2550 C   0  0  0  0  0  3  0  0  0  0  0  0
  -28.6240  -12.9910   20.2830 C   0  0  0  0  0  2  0  0  0  0  0  0
  -29.8780  -13.2290   19.5470 N   0  0  0  0  0  0  0  0  0  0  0  0
  -31.4150  -14.5510   18.5130 O   0  0  0  0  0  0  0  0  0  0  0  0
  -28.6690  -16.1750   19.8620 C   0  0  0  0  0  2  0  0  0  0  0  0
  -30.6740  -16.8260   19.9800 C   0  0  0  0  0  3  0  0  0  0  0  0
  -29.4130  -17.3780   19.2940 C   0  0  0  0  0  3  0  0  0  0  0  0
  -29.9910  -15.5120   19.9480 N   0  0  0  0  0  0  0  0  0  0  0  0
  -25.2500  -13.3990   20.2980 C   0  0  0  0  0  0  0  0  0  0  0  0
  -24.2090  -12.6570   20.7950 C   0  0  0  0  0  0  0  0  0  0  0  0
  -24.6040  -11.2920   20.6710 C   0  0  0  0  0  0  0  0  0  0  0  0
  -26.2140  -12.4840   19.9070 N   0  0  0  0  0  0  0  0  0  0  0  0
  -25.8360  -11.2100   20.1860 N   0  0  0  0  0  0  0  0  0  0  0  0
  -23.8600  -10.0530   20.9350 C   0  0  0  0  0  0  0  0  0  0  0  0
  -24.2820   -9.1340   21.9200 C   0  0  0  0  0  3  0  0  0  0  0  0
  -23.5410   -7.9580   22.1670 C   0  0  0  0  0  3  0  0  0  0  0  0
  -22.3650   -7.6920   21.4270 C   0  0  0  0  0  0  0  0  0  0  0  0
  -21.9610   -8.5990   20.4310 C   0  0  0  0  0  3  0  0  0  0  0  0
  -22.7030   -9.7660   20.1830 C   0  0  0  0  0  3  0  0  0  0  0  0
  -21.5970   -6.5640   21.5800 O   0  0  0  0  0  0  0  0  0  0  0  0
  -21.4920   -5.9220   22.7880 C   0  0  0  0  0  0  0  0  0  0  0  0
  -20.9660   -6.5650   23.9280 C   0  0  0  0  0  3  0  0  0  0  0  0
  -20.8100   -5.8480   25.1320 C   0  0  0  0  0  3  0  0  0  0  0  0
  -21.1730   -4.4900   25.1950 C   0  0  0  0  0  0  0  0  0  0  0  0
  -21.6920   -3.8470   24.0590 C   0  0  0  0  0  3  0  0  0  0  0  0
  -21.8490   -4.5610   22.8580 C   0  0  0  0  0  0  0  0  0  0  0  0
  -22.3320   -3.9300   21.7600 F   0  0  0  0  0  0  0  0  0  0  0  0
  -21.0150   -3.7990   26.3490 F   0  0  0  0  0  0  0  0  0  0  0  0
  -22.8830  -13.1790   21.2660 C   0  0  0  0  0  0  0  0  0  0  0  0
  -22.2740  -12.5100   22.2410 N   0  0  0  0  0  0  0  0  0  0  0  0
  -22.4020  -14.2110   20.8070 O   0  0  0  0  0  0  0  0  0  0  0  0
  -22.6840  -11.6750   22.6310 H   0  0  0  0  0  0  0  0  0  0  0  0
  -21.3900  -12.8400   22.5990 H   0  0  0  0  0  0  0  0  0  0  0  0
  -25.4460  -14.7650   20.1280 N   0  0  0  0  0  0  0  0  0  0  0  0
  -24.7210  -15.4410   20.3420 H   0  0  0  0  0  0  0  0  0  0  0  0
  -26.2350  -15.1700   19.6400 H   0  0  0  0  0  0  0  0  0  0  0  0
  -31.0250  -17.2310   21.3900 C   0  0  0  0  0  0  0  0  0  0  0  0
  -31.6990  -16.1500   22.2250 C   0  0  0  0  0  1  0  0  0  0  0  0
  -30.8160  -18.3410   21.8860 O   0  0  0  0  0  0  0  0  0  0  0  0
  2  1  1  0
  3  8  1  0
  3  1  1  0
  4 54  1  0
  4  3  1  0
  5  4  1  0
  5  2  1  0
  6  5  1  0
  7  5  1  0
  8 10  1  0
  9  8  1  0
 11 10  1  0
 12 11  1  0
 13 15  1  0
 13 12  1  0
 14 25  2  0
 15 20  1  0
 16 24  1  0
 16 26  1  0
 17 23  1  0
 17 19  1  0
 18 24  1  0
 19 18  1  0
 20 19  2  0
 21 22  1  0
 21 15  2  0
 22 17  2  0
 23 16  1  0
 24 14  1  0
 26 28  2  0
 27 26  1  0
 29 27  1  0
 30 39  2  0
 30 35  1  0
 31 27  1  0
 31 35  1  0
 32 31  1  0
 33 34  1  0
 33 32  1  0
 34 30  1  0
 35 36  2  0
 36 37  1  0
 38 37  2  0
 39 38  1  0
 40 14  1  0
 40 41  1  0
 40 50  1  0
 41 44  1  0
 42 46  1  0
 42 41  1  0
 43 42  2  0
 46 45  1  0
 48 46  1  0
 48 49  1  0
 48 47  1  0
 50 53  1  1
 50 51  1  0
 52 50  1  0
 55 54  1  0
 55 56  1  0
 56 57  1  0
 58 56  1  0
 59 65  1  0
 59 70  1  0
 60 65  1  0
 61 62  1  0
 61 60  1  0
 63 62  1  0
 63 74  1  0
 63 64  1  0
 65 64  1  0
 66 59  2  0
 67 70  1  0
 68 99  1  0
 69 56  1  0
 69 67  1  0
 69 68  1  0
 70 68  1  0
 71 72  2  0
 72 91  1  0
 73 72  1  0
 73 76  1  0
 74 75  1  0
 74 71  1  0
 75 73  2  0
 76 77  1  0
 77 78  2  0
 79 82  1  0
 79 78  1  0
 80 79  2  0
 81 80  1  0
 81 76  2  0
 82 83  1  0
 83 88  2  0
 83 84  1  0
 84 85  2  0
 85 86  1  0
 86 90  1  0
 87 86  2  0
 88 87  1  0
 89 88  1  0
 91 92  1  0
 92 95  1  0
 92 94  1  0
 93 91  2  0
 96 71  1  0
 96 97  1  0
 98 96  1  0
 99101  2  0
 99100  1  0
M  ISO  4  12 101  13 101  59 100  70 100
M  END
>  <TORSDO>  (9) 
F 24

>  <SCORE>  (9) 
-9.964

>  <name>  (9) 
9

>  <ligand_id>  (9) 
9

>  <original_smiles>  (9) 
[H]c1c([H])c([H])c2c(c1[H])C([H])([H])C([H])([H])C([H])([H])C2([H])N([H])C(=O)C1([H])N(C(=O)C([H])(N([H])C(=O)C([H])(N([H])C([H])([H])[H])C([H])([H])[H])C(C([H])([H])[H])(C([H])([H])[H])C([H])([H])[H])C([H])([H])c2c([H])c(OC([H])([H])C([H])([H])C([H])([H])N([H])C3([H])C([H])([H])C([H])([H])[N+]([H])([H])C3([H])C([H])([H])C([H])([H])[N+]([H])([H])C3([H])C([H])([H])N(C(=O)N4C([H])([H])C([H])([H])C([H])([H])C([H])(n5nc(-c6c([H])c([H])c(Oc7c([H])c([H])c(F)c([H])c7F)c([H])c6[H])c(C(=O)N([H])[H])c5N([H])[H])C4([H])[H])C3([H])C(=O)C([H])([H])[H])c([H])c([H])c2C1([H])[H]

>  <smiles>  (9) 
[H]c1c([H])c([H])c2c(c1[H])C([H])([H])C([H])([H])C([H])([H])C2([H])N([H])C(=O)C1([H])N(C(=O)C([H])(N([H])C(=O)C([H])(N([H])C([H])([H])[H])C([H])([H])[H])C(C([H])([H])[H])(C([H])([H])[H])C([H])([H])[H])C([H])([H])c2c([H])c(OC([H])([H])C([H])([H])C([H])([H])N([H])C3([H])C([H])([H])C([H])([H])[N+]([H])([H])C3([H])C([H])([H])C([H])([H])[N+]([H])([H])C3([H])C([H])([H])N(C(=O)N4C([H])([H])C([H])([H])C([H])([H])C([H])(n5nc(-c6c([H])c([H])c(Oc7c([H])c([H])c(F)c([H])c7F)c([H])c6[H])c(C(=O)N([H])[H])c5N([H])[H])C4([H])[H])C3([H])C(=O)C([H])([H])[H])c([H])c([H])c2C1([H])[H]

$$$$
10:0:0
     RDKit          3D

 96104  0  0  1  0  0  0  0  0999 V2000
  -26.8670  -23.2000   21.7860 C   0  0  0  0  0  1  0  0  0  0  0  0
  -28.1340  -23.2270   20.8940 C   0  0  0  0  0  3  0  0  0  0  0  0
  -28.4080  -21.8220   20.2840 C   0  0  0  0  0  2  0  0  0  0  0  0
  -29.1420  -20.8630   21.2640 C   0  0  0  0  0  2  0  0  0  0  0  0
  -30.5820  -17.8080   19.3750 C   0  0  0  0  0  2  0  0  0  0  0  0
  -30.7020  -17.6680   21.9130 C   0  0  0  0  0  2  0  0  0  0  0  0
  -30.3620  -19.3010   19.7220 C   0  0  0  0  0  2  0  0  0  0  0  0
  -29.3570  -18.4330   21.8390 C   0  0  0  0  0  2  0  0  0  0  0  0
  -31.0820  -16.9740   20.5840 C   0  0  0  0  0  3  0  0  0  0  0  0
  -29.3010  -19.4680   20.7560 N   0  0  1  0  0  4  0  0  0  0  0  0
  -28.4310  -19.2710   20.2850 H   0  0  0  0  0  0  0  0  0  0  0  0
  -31.1430  -14.5700   19.8500 C   0  0  0  0  0  0  0  0  0  0  0  0
  -30.7500  -12.3480   18.8530 C   0  0  0  0  0  2  0  0  0  0  0  0
  -29.7760  -12.4810   17.6680 C   0  0  0  0  0  2  0  0  0  0  0  0
  -28.3190  -12.3760   18.1540 C   0  0  0  0  0  2  0  0  0  0  0  0
  -28.0250  -13.3160   19.3550 C   0  0  0  0  0  3  0  0  0  0  0  0
  -29.1140  -13.1900   20.4450 C   0  0  0  0  0  2  0  0  0  0  0  0
  -30.4290  -13.4130   19.8180 N   0  0  0  0  0  0  0  0  0  0  0  0
  -32.1940  -14.7310   19.2250 O   0  0  0  0  0  0  0  0  0  0  0  0
  -30.5880  -15.5840   20.5400 N   0  0  0  0  0  0  0  0  0  0  0  0
  -29.7420  -15.3630   21.0440 H   0  0  0  0  0  0  0  0  0  0  0  0
  -25.6910  -14.0130   20.1870 C   0  0  0  0  0  0  0  0  0  0  0  0
  -24.6150  -13.2800   20.6150 C   0  0  0  0  0  0  0  0  0  0  0  0
  -25.0210  -11.9120   20.5570 C   0  0  0  0  0  0  0  0  0  0  0  0
  -26.6870  -13.0900   19.8990 N   0  0  0  0  0  0  0  0  0  0  0  0
  -26.2890  -11.8220   20.1770 N   0  0  0  0  0  0  0  0  0  0  0  0
  -24.2550  -10.6790   20.7820 C   0  0  0  0  0  0  0  0  0  0  0  0
  -24.6550   -9.7270   21.7460 C   0  0  0  0  0  3  0  0  0  0  0  0
  -23.8930   -8.5560   21.9540 C   0  0  0  0  0  3  0  0  0  0  0  0
  -22.7160   -8.3310   21.2020 C   0  0  0  0  0  0  0  0  0  0  0  0
  -22.3340   -9.2700   20.2270 C   0  0  0  0  0  3  0  0  0  0  0  0
  -23.0970  -10.4320   20.0170 C   0  0  0  0  0  3  0  0  0  0  0  0
  -21.9270   -7.2110   21.3230 O   0  0  0  0  0  0  0  0  0  0  0  0
  -21.7930   -6.5490   22.5170 C   0  0  0  0  0  0  0  0  0  0  0  0
  -21.3250   -7.1980   23.6810 C   0  0  0  0  0  3  0  0  0  0  0  0
  -21.1340   -6.4630   24.8680 C   0  0  0  0  0  3  0  0  0  0  0  0
  -21.4020   -5.0820   24.8940 C   0  0  0  0  0  0  0  0  0  0  0  0
  -21.8620   -4.4320   23.7350 C   0  0  0  0  0  3  0  0  0  0  0  0
  -22.0550   -5.1640   22.5500 C   0  0  0  0  0  0  0  0  0  0  0  0
  -22.4780   -4.5290   21.4310 F   0  0  0  0  0  0  0  0  0  0  0  0
  -21.2120   -4.3740   26.0320 F   0  0  0  0  0  0  0  0  0  0  0  0
  -23.2560  -13.8100   20.9660 C   0  0  0  0  0  0  0  0  0  0  0  0
  -22.5570  -13.1500   21.8860 N   0  0  0  0  0  0  0  0  0  0  0  0
  -22.8230  -14.8450   20.4640 O   0  0  0  0  0  0  0  0  0  0  0  0
  -22.9220  -12.3140   22.3170 H   0  0  0  0  0  0  0  0  0  0  0  0
  -21.6480  -13.4910   22.1650 H   0  0  0  0  0  0  0  0  0  0  0  0
  -25.9000  -15.3740   20.0020 N   0  0  0  0  0  0  0  0  0  0  0  0
  -25.1480  -16.0480   20.0850 H   0  0  0  0  0  0  0  0  0  0  0  0
  -26.7430  -15.7680   19.6050 H   0  0  0  0  0  0  0  0  0  0  0  0
  -28.0460  -24.4230   19.8910 C   0  0  0  0  0  3  0  0  0  0  0  0
  -28.9790  -24.3010   18.7470 N   0  0  0  0  0  4  0  0  0  0  0  0
  -29.9390  -24.2890   19.0440 H   0  0  0  0  0  0  0  0  0  0  0  0
  -28.8570  -25.0920   18.1330 H   0  0  0  0  0  0  0  0  0  0  0  0
  -28.7950  -23.4700   18.2130 H   0  0  0  0  0  0  0  0  0  0  0  0
  -28.3520  -25.7520   20.6340 C   0  0  0  0  0  2  0  0  0  0  0  0
  -28.2920  -26.9020   19.7950 O   0  0  0  0  0  0  0  0  0  0  0  0
  -24.5560  -31.9290   23.2250 C   0  0  0  0  0  0  0  0  0  0  0  0
  -27.1220  -27.6100   19.9010 C   0  0  0  0  0  0  0  0  0  0  0  0
  -23.3030  -30.5600   21.5890 C   0  0  0  0  0  3  0  0  0  0  0  0
  -24.7140  -29.0710   20.0790 C   0  0  0  0  0  0  0  0  0  0  0  0
  -25.8180  -30.9420   21.3180 C   0  0  0  0  0  2  0  0  0  0  0  0
  -25.8900  -29.5880   20.6390 C   0  0  0  0  0  0  0  0  0  0  0  0
  -27.0990  -28.8610   20.5540 C   0  0  0  0  0  3  0  0  0  0  0  0
  -25.9310  -27.1030   19.3390 C   0  0  0  0  0  3  0  0  0  0  0  0
  -24.7270  -27.8210   19.4380 C   0  0  0  0  0  3  0  0  0  0  0  0
  -23.4660  -29.9180   20.1880 C   0  0  0  0  0  2  0  0  0  0  0  0
  -24.5780  -31.1540   22.1040 N   0  0  0  0  0  0  0  0  0  0  0  0
  -23.4940  -32.1830   23.8090 O   0  0  0  0  0  0  0  0  0  0  0  0
  -22.6910  -29.5090   22.5400 C   0  0  0  0  0  0  0  0  0  0  0  0
  -21.3710  -29.2930   22.4240 N   0  0  0  0  0  0  0  0  0  0  0  0
  -23.3960  -28.8920   23.3410 O   0  0  0  0  0  0  0  0  0  0  0  0
  -20.8570  -29.8420   21.7500 H   0  0  0  0  0  0  0  0  0  0  0  0
  -18.0570  -27.9600   22.8720 C   0  0  0  0  0  0  0  0  0  0  0  0
  -20.5930  -28.3210   23.1930 C   0  0  0  0  0  3  0  0  0  0  0  0
  -20.7620  -26.8910   22.6290 C   0  0  0  0  0  2  0  0  0  0  0  0
  -19.7080  -26.5410   21.5770 C   0  0  0  0  0  2  0  0  0  0  0  0
  -18.3000  -26.6320   22.1720 C   0  0  0  0  0  2  0  0  0  0  0  0
  -19.1320  -28.7630   23.3290 C   0  0  0  0  0  0  0  0  0  0  0  0
  -18.8500  -30.0120   23.9230 C   0  0  0  0  0  3  0  0  0  0  0  0
  -17.5230  -30.4600   24.0610 C   0  0  0  0  0  3  0  0  0  0  0  0
  -16.4610  -29.6520   23.6220 C   0  0  0  0  0  3  0  0  0  0  0  0
  -16.7270  -28.4040   23.0360 C   0  0  0  0  0  3  0  0  0  0  0  0
  -25.8630  -32.5460   23.8190 C   0  0  0  0  0  3  0  0  0  0  0  0
  -25.5650  -33.9340   24.1910 N   0  0  0  0  0  0  0  0  0  0  0  0
  -25.8770  -35.0020   23.4440 C   0  0  0  0  0  0  0  0  0  0  0  0
  -26.5190  -34.9180   22.3930 O   0  0  0  0  0  0  0  0  0  0  0  0
  -24.9880  -34.0710   25.0070 H   0  0  0  0  0  0  0  0  0  0  0  0
  -24.1360  -36.7970   23.1690 C   0  0  0  0  0  1  0  0  0  0  0  0
  -25.3990  -36.3790   23.9390 C   0  0  0  0  0  3  0  0  0  0  0  0
  -27.5550  -37.2490   24.7260 C   0  0  0  0  0  1  0  0  0  0  0  0
  -26.4270  -37.4360   23.8170 N   0  0  0  0  0  0  0  0  0  0  0  0
  -26.0270  -38.3520   23.9980 H   0  0  0  0  0  0  0  0  0  0  0  0
  -26.4230  -31.7450   25.0570 C   0  0  1  0  0  0  0  0  0  0  0  0
  -25.3650  -31.4770   26.1550 C   0  0  0  0  0  1  0  0  0  0  0  0
  -26.9980  -30.3800   24.6110 C   0  0  0  0  0  1  0  0  0  0  0  0
  -27.5930  -32.5260   25.7020 C   0  0  0  0  0  1  0  0  0  0  0  0
  2  1  1  0
  3  2  1  0
  3  4  1  0
  5  7  1  0
  5  9  1  0
  7 10  1  0
  8  6  1  0
  9 20  1  0
  9  6  1  0
 10  4  1  0
 10  8  1  0
 10 11  1  6
 12 20  1  0
 13 18  1  0
 14 15  1  0
 14 13  1  0
 16 15  1  0
 16 25  1  0
 16 17  1  0
 18 12  1  0
 18 17  1  0
 19 12  2  0
 20 21  1  0
 22 23  2  0
 23 42  1  0
 24 23  1  0
 24 27  1  0
 25 26  1  0
 25 22  1  0
 26 24  2  0
 27 28  1  0
 28 29  2  0
 30 33  1  0
 30 29  1  0
 31 30  2  0
 32 31  1  0
 32 27  2  0
 33 34  1  0
 34 39  2  0
 34 35  1  0
 35 36  2  0
 36 37  1  0
 37 41  1  0
 38 37  2  0
 39 38  1  0
 40 39  1  0
 42 43  1  0
 43 46  1  0
 43 45  1  0
 44 42  2  0
 47 48  1  0
 47 22  1  0
 49 47  1  0
 50 55  1  0
 50  2  1  0
 51 52  1  0
 51 50  1  0
 53 51  1  0
 54 51  1  0
 56 58  1  0
 56 55  1  0
 57 68  2  0
 58 63  1  0
 59 67  1  0
 59 69  1  0
 60 66  1  0
 60 62  1  0
 61 67  1  0
 62 61  1  0
 63 62  2  0
 64 65  1  0
 64 58  2  0
 65 60  2  0
 66 59  1  0
 67 57  1  0
 69 71  2  0
 70 69  1  0
 72 70  1  0
 73 82  2  0
 73 78  1  0
 74 70  1  0
 74 78  1  0
 75 74  1  0
 76 77  1  0
 76 75  1  0
 77 73  1  0
 78 79  2  0
 79 80  1  0
 81 80  2  0
 82 81  1  0
 83 57  1  0
 83 84  1  0
 83 93  1  0
 84 87  1  0
 85 89  1  0
 85 84  1  0
 86 85  2  0
 89 88  1  0
 91 89  1  0
 91 92  1  0
 91 90  1  0
 93 96  1  1
 93 94  1  0
 95 93  1  0
M  ISO  4  12 100  20 100  55 101  56 101
M  END
>  <TORSDO>  (10) 
F 22

>  <SCORE>  (10) 
-12.164

>  <name>  (10) 
10

>  <ligand_id>  (10) 
10

>  <original_smiles>  (10) 
[H]c1c([H])c([H])c2c(c1[H])C([H])([H])C([H])([H])C([H])([H])C2([H])N([H])C(=O)C1([H])N(C(=O)C([H])(N([H])C(=O)C([H])(N([H])C([H])([H])[H])C([H])([H])[H])C(C([H])([H])[H])(C([H])([H])[H])C([H])([H])[H])C([H])([H])c2c([H])c(OC([H])([H])C([H])(C([H])(C([H])([H])[H])C([H])([H])C([H])([H])[N+]3([H])C([H])([H])C([H])([H])C([H])(N([H])C(=O)N4C([H])([H])C([H])([H])C([H])([H])C([H])(n5nc(-c6c([H])c([H])c(Oc7c([H])c([H])c(F)c([H])c7F)c([H])c6[H])c(C(=O)N([H])[H])c5N([H])[H])C4([H])[H])C([H])([H])C3([H])[H])[N+]([H])([H])[H])c([H])c([H])c2C1([H])[H]

>  <smiles>  (10) 
[H]c1c([H])c([H])c2c(c1[H])C([H])([H])C([H])([H])C([H])([H])C2([H])N([H])C(=O)C1([H])N(C(=O)C([H])(N([H])C(=O)C([H])(N([H])C([H])([H])[H])C([H])([H])[H])C(C([H])([H])[H])(C([H])([H])[H])C([H])([H])[H])C([H])([H])c2c([H])c(OC([H])([H])C([H])(C([H])(C([H])([H])[H])C([H])([H])C([H])([H])[N+]3([H])C([H])([H])C([H])([H])C([H])(N([H])C(=O)N4C([H])([H])C([H])([H])C([H])([H])C([H])(n5nc(-c6c([H])c([H])c(Oc7c([H])c([H])c(F)c([H])c7F)c([H])c6[H])c(C(=O)N([H])[H])c5N([H])[H])C4([H])[H])C([H])([H])C3([H])[H])[N+]([H])([H])[H])c([H])c([H])c2C1([H])[H]

$$$$
11:0:0
     RDKit          3D

 97105  0  0  1  0  0  0  0  0999 V2000
  -28.9040  -21.9540   20.2140 C   0  0  0  0  0  2  0  0  0  0  0  0
  -29.4560  -19.5720   19.5820 C   0  0  0  0  0  2  0  0  0  0  0  0
  -29.5850  -20.2350   21.7730 C   0  0  0  0  0  2  0  0  0  0  0  0
  -29.7620  -18.2580   20.3980 C   0  0  0  0  0  3  0  0  0  0  0  0
  -30.2290  -18.8410   21.7490 C   0  0  0  0  0  3  0  0  0  0  0  0
  -29.7800  -20.7660   20.4100 N   0  0  0  0  0  0  0  0  0  0  0  0
  -31.6820  -19.0490   21.8480 N   0  0  0  0  0  4  0  0  0  0  0  0
  -31.9580  -19.6400   21.0790 H   0  0  0  0  0  0  0  0  0  0  0  0
  -32.1790  -18.1770   21.8660 H   0  0  0  0  0  0  0  0  0  0  0  0
  -31.8970  -19.5330   22.7040 H   0  0  0  0  0  0  0  0  0  0  0  0
  -30.6090  -17.1120   19.6920 C   0  0  0  0  0  2  0  0  0  0  0  0
  -30.9270  -14.5770   19.4870 C   0  0  0  0  0  0  0  0  0  0  0  0
  -30.6160  -12.2890   18.5590 C   0  0  0  0  0  2  0  0  0  0  0  0
  -29.5340  -12.2870   17.4570 C   0  0  0  0  0  2  0  0  0  0  0  0
  -28.1320  -12.1460   18.0780 C   0  0  0  0  0  2  0  0  0  0  0  0
  -27.9000  -13.1420   19.2480 C   0  0  0  0  0  3  0  0  0  0  0  0
  -29.0580  -13.0460   20.2640 C   0  0  0  0  0  2  0  0  0  0  0  0
  -30.3000  -13.3590   19.5380 N   0  0  0  0  0  0  0  0  0  0  0  0
  -31.9800  -14.7260   18.8520 O   0  0  0  0  0  0  0  0  0  0  0  0
  -30.2830  -15.6690   20.0040 N   0  0  0  0  0  0  0  0  0  0  0  0
  -29.4550  -15.4820   20.5670 H   0  0  0  0  0  0  0  0  0  0  0  0
  -25.6500  -13.8420   20.2890 C   0  0  0  0  0  0  0  0  0  0  0  0
  -24.6090  -13.1060   20.7830 C   0  0  0  0  0  0  0  0  0  0  0  0
  -24.9880  -11.7370   20.6470 C   0  0  0  0  0  0  0  0  0  0  0  0
  -26.6060  -12.9210   19.8860 N   0  0  0  0  0  0  0  0  0  0  0  0
  -26.2190  -11.6500   20.1580 N   0  0  0  0  0  0  0  0  0  0  0  0
  -24.2350  -10.5050   20.8920 C   0  0  0  0  0  0  0  0  0  0  0  0
  -24.6470   -9.5710   21.8660 C   0  0  0  0  0  3  0  0  0  0  0  0
  -23.8970   -8.3980   22.0930 C   0  0  0  0  0  3  0  0  0  0  0  0
  -22.7220   -8.1530   21.3420 C   0  0  0  0  0  0  0  0  0  0  0  0
  -22.3300   -9.0760   20.3560 C   0  0  0  0  0  3  0  0  0  0  0  0
  -23.0810  -10.2410   20.1270 C   0  0  0  0  0  3  0  0  0  0  0  0
  -21.9410   -7.0300   21.4780 O   0  0  0  0  0  0  0  0  0  0  0  0
  -21.7340   -6.4410   22.6990 C   0  0  0  0  0  0  0  0  0  0  0  0
  -21.1500   -7.1430   23.7760 C   0  0  0  0  0  3  0  0  0  0  0  0
  -20.8910   -6.4820   24.9910 C   0  0  0  0  0  3  0  0  0  0  0  0
  -21.2020   -5.1150   25.1310 C   0  0  0  0  0  0  0  0  0  0  0  0
  -21.7800   -4.4120   24.0590 C   0  0  0  0  0  3  0  0  0  0  0  0
  -22.0410   -5.0720   22.8450 C   0  0  0  0  0  0  0  0  0  0  0  0
  -22.5760   -4.3840   21.8080 F   0  0  0  0  0  0  0  0  0  0  0  0
  -20.9490   -4.4770   26.2970 F   0  0  0  0  0  0  0  0  0  0  0  0
  -23.2870  -13.6370   21.2680 C   0  0  0  0  0  0  0  0  0  0  0  0
  -22.6610  -12.9580   22.2190 N   0  0  0  0  0  0  0  0  0  0  0  0
  -22.8270  -14.6930   20.8310 O   0  0  0  0  0  0  0  0  0  0  0  0
  -23.0470  -12.1040   22.5960 H   0  0  0  0  0  0  0  0  0  0  0  0
  -21.7780  -13.2970   22.5810 H   0  0  0  0  0  0  0  0  0  0  0  0
  -25.8620  -15.2120   20.1290 N   0  0  0  0  0  0  0  0  0  0  0  0
  -25.1400  -15.8840   20.3500 H   0  0  0  0  0  0  0  0  0  0  0  0
  -26.6210  -15.6180   19.5990 H   0  0  0  0  0  0  0  0  0  0  0  0
  -29.4430  -23.3720   19.7670 C   0  0  0  0  0  2  0  0  0  0  0  0
  -28.3180  -24.1940   19.0220 C   0  0  0  0  0  3  0  0  0  0  0  0
  -26.9900  -23.9240   19.6090 N   0  0  0  0  0  4  0  0  0  0  0  0
  -26.2920  -24.4330   19.1030 H   0  0  0  0  0  0  0  0  0  0  0  0
  -26.9390  -24.2130   20.5720 H   0  0  0  0  0  0  0  0  0  0  0  0
  -26.7560  -22.9440   19.5280 H   0  0  0  0  0  0  0  0  0  0  0  0
  -28.4350  -25.7340   18.6770 C   0  0  0  0  0  2  0  0  0  0  0  0
  -28.2410  -26.7270   19.7160 O   0  0  0  0  0  0  0  0  0  0  0  0
  -24.5410  -31.7890   23.1710 C   0  0  0  0  0  0  0  0  0  0  0  0
  -27.0710  -27.4820   19.7700 C   0  0  0  0  0  0  0  0  0  0  0  0
  -23.2710  -30.4440   21.5330 C   0  0  0  0  0  3  0  0  0  0  0  0
  -24.6660  -28.9880   19.9800 C   0  0  0  0  0  0  0  0  0  0  0  0
  -25.7800  -30.8240   21.2350 C   0  0  0  0  0  2  0  0  0  0  0  0
  -25.8450  -29.4710   20.5520 C   0  0  0  0  0  0  0  0  0  0  0  0
  -27.0430  -28.7150   20.4740 C   0  0  0  0  0  3  0  0  0  0  0  0
  -25.8610  -27.0480   19.1750 C   0  0  0  0  0  3  0  0  0  0  0  0
  -24.6690  -27.7690   19.2980 C   0  0  0  0  0  3  0  0  0  0  0  0
  -23.4230  -29.8340   20.1140 C   0  0  0  0  0  2  0  0  0  0  0  0
  -24.5510  -31.0370   22.0370 N   0  0  0  0  0  0  0  0  0  0  0  0
  -23.4880  -32.0200   23.7810 O   0  0  0  0  0  0  0  0  0  0  0  0
  -22.6770  -29.3730   22.4800 C   0  0  0  0  0  0  0  0  0  0  0  0
  -21.3630  -29.1250   22.3580 N   0  0  0  0  0  0  0  0  0  0  0  0
  -23.3950  -28.7780   23.2860 O   0  0  0  0  0  0  0  0  0  0  0  0
  -20.8390  -29.6670   21.6870 H   0  0  0  0  0  0  0  0  0  0  0  0
  -18.0880  -27.6420   22.7800 C   0  0  0  0  0  0  0  0  0  0  0  0
  -20.6070  -28.1210   23.1180 C   0  0  0  0  0  3  0  0  0  0  0  0
  -20.8490  -26.7020   22.5660 C   0  0  0  0  0  2  0  0  0  0  0  0
  -19.8040  -26.2450   21.5450 C   0  0  0  0  0  2  0  0  0  0  0  0
  -18.3920  -26.3040   22.1340 C   0  0  0  0  0  2  0  0  0  0  0  0
  -19.1290  -28.5000   23.2360 C   0  0  0  0  0  0  0  0  0  0  0  0
  -18.7800  -29.7440   23.8080 C   0  0  0  0  0  3  0  0  0  0  0  0
  -17.4340  -30.1300   23.9280 C   0  0  0  0  0  3  0  0  0  0  0  0
  -16.4100  -29.2760   23.4830 C   0  0  0  0  0  3  0  0  0  0  0  0
  -16.7400  -28.0350   22.9100 C   0  0  0  0  0  3  0  0  0  0  0  0
  -25.8520  -32.4120   23.7450 C   0  0  0  0  0  3  0  0  0  0  0  0
  -26.4300  -31.6220   24.9830 C   0  0  1  0  0  0  0  0  0  0  0  0
  -25.3860  -31.3630   26.0940 C   0  0  0  0  0  1  0  0  0  0  0  0
  -27.0000  -30.2530   24.5420 C   0  0  0  0  0  1  0  0  0  0  0  0
  -27.6030  -32.4150   25.6040 C   0  0  0  0  0  1  0  0  0  0  0  0
  -25.5590  -33.8070   24.1040 N   0  0  0  0  0  0  0  0  0  0  0  0
  -25.8570  -34.8660   23.3440 C   0  0  0  0  0  0  0  0  0  0  0  0
  -26.4860  -34.7780   22.2850 O   0  0  0  0  0  0  0  0  0  0  0  0
  -24.9950  -33.9500   24.9290 H   0  0  0  0  0  0  0  0  0  0  0  0
  -24.1160  -36.6530   23.0800 C   0  0  0  0  0  1  0  0  0  0  0  0
  -25.3920  -36.2460   23.8310 C   0  0  0  0  0  3  0  0  0  0  0  0
  -27.5550  -37.1290   24.5820 C   0  0  0  0  0  1  0  0  0  0  0  0
  -26.4160  -37.3010   23.6820 N   0  0  0  0  0  0  0  0  0  0  0  0
  -26.0140  -38.2180   23.8620 H   0  0  0  0  0  0  0  0  0  0  0  0
  1  6  1  0
  2  4  1  0
  2  6  1  0
  4 11  1  0
  4  5  1  0
  5  3  1  0
  5  7  1  0
  6  3  1  0
  7  9  1  0
  7 10  1  0
  8  7  1  0
 11 20  1  0
 12 18  1  0
 12 20  1  0
 13 18  1  0
 14 15  1  0
 14 13  1  0
 16 15  1  0
 16 25  1  0
 16 17  1  0
 18 17  1  0
 19 12  2  0
 20 21  1  0
 22 23  2  0
 23 42  1  0
 24 23  1  0
 24 27  1  0
 25 26  1  0
 25 22  1  0
 26 24  2  0
 27 28  1  0
 28 29  2  0
 30 33  1  0
 30 29  1  0
 31 30  2  0
 32 31  1  0
 32 27  2  0
 33 34  1  0
 34 39  2  0
 34 35  1  0
 35 36  2  0
 36 37  1  0
 37 41  1  0
 38 37  2  0
 39 38  1  0
 40 39  1  0
 42 43  1  0
 43 46  1  0
 43 45  1  0
 44 42  2  0
 47 22  1  0
 47 48  1  0
 49 47  1  0
 50  1  1  0
 51 56  1  0
 51 52  1  0
 51 50  1  0
 52 54  1  0
 53 52  1  0
 55 52  1  0
 56 57  1  0
 57 59  1  0
 58 69  2  0
 59 64  1  0
 60 68  1  0
 60 70  1  0
 61 67  1  0
 61 63  1  0
 62 68  1  0
 63 62  1  0
 64 63  2  0
 65 66  1  0
 65 59  2  0
 66 61  2  0
 67 60  1  0
 68 58  1  0
 70 72  2  0
 71 70  1  0
 73 71  1  0
 74 83  2  0
 74 79  1  0
 75 71  1  0
 75 79  1  0
 76 75  1  0
 77 78  1  0
 77 76  1  0
 78 74  1  0
 79 80  2  0
 80 81  1  0
 82 81  2  0
 83 82  1  0
 84 58  1  0
 84 89  1  0
 84 85  1  0
 85 88  1  1
 85 86  1  0
 87 85  1  0
 89 92  1  0
 90 94  1  0
 90 89  1  0
 91 90  2  0
 94 93  1  0
 96 94  1  0
 96 97  1  0
 96 95  1  0
M  ISO  4  12 100  20 100  56 101  57 101
M  END
>  <TORSDO>  (11) 
F 23

>  <SCORE>  (11) 
-11.528

>  <name>  (11) 
11

>  <ligand_id>  (11) 
11

>  <original_smiles>  (11) 
[H]c1c([H])c([H])c2c(c1[H])C([H])([H])C([H])([H])C([H])([H])C2([H])N([H])C(=O)C1([H])N(C(=O)C([H])(N([H])C(=O)C([H])(N([H])C([H])([H])[H])C([H])([H])[H])C(C([H])([H])[H])(C([H])([H])[H])C([H])([H])[H])C([H])([H])c2c([H])c(OC([H])([H])C([H])(C([H])([H])C([H])([H])N3C([H])([H])C([H])(C([H])([H])N([H])C(=O)N4C([H])([H])C([H])([H])C([H])([H])C([H])(n5nc(-c6c([H])c([H])c(Oc7c([H])c([H])c(F)c([H])c7F)c([H])c6[H])c(C(=O)N([H])[H])c5N([H])[H])C4([H])[H])C([H])([N+]([H])([H])[H])C3([H])[H])[N+]([H])([H])[H])c([H])c([H])c2C1([H])[H]

>  <smiles>  (11) 
[H]c1c([H])c([H])c2c(c1[H])C([H])([H])C([H])([H])C([H])([H])C2([H])N([H])C(=O)C1([H])N(C(=O)C([H])(N([H])C(=O)C([H])(N([H])C([H])([H])[H])C([H])([H])[H])C(C([H])([H])[H])(C([H])([H])[H])C([H])([H])[H])C([H])([H])c2c([H])c(OC([H])([H])C([H])(C([H])([H])C([H])([H])N3C([H])([H])C([H])(C([H])([H])N([H])C(=O)N4C([H])([H])C([H])([H])C([H])([H])C([H])(n5nc(-c6c([H])c([H])c(Oc7c([H])c([H])c(F)c([H])c7F)c([H])c6[H])c(C(=O)N([H])[H])c5N([H])[H])C4([H])[H])C([H])([N+]([H])([H])[H])C3([H])[H])[N+]([H])([H])[H])c([H])c([H])c2C1([H])[H]

$$$$
12:0:0
     RDKit          3D

101110  0  0  1  0  0  0  0  0999 V2000
  -26.3120  -19.8700   21.0500 C   0  0  0  0  0  0  0  0  0  0  0  0
  -25.2250  -20.7060   20.4100 C   0  0  0  0  0  2  0  0  0  0  0  0
  -25.9280  -22.0420   20.2050 C   0  0  0  0  0  2  0  0  0  0  0  0
  -27.6700  -20.6010   20.9860 C   0  0  0  0  0  3  0  0  0  0  0  0
  -27.3860  -21.7600   20.0870 N   0  0  2  0  0  4  0  0  0  0  0  0
  -26.0790  -18.7580   21.5410 O   0  0  0  0  0  0  0  0  0  0  0  0
  -27.4930  -21.3990   19.1500 H   0  0  0  0  0  0  0  0  0  0  0  0
  -29.2530  -18.6420   21.3250 C   0  0  0  0  0  3  0  0  0  0  0  0
  -28.9740  -19.4850   19.0760 C   0  0  0  0  0  3  0  0  0  0  0  0
  -30.4640  -17.6080   19.4860 C   0  0  0  0  0  3  0  0  0  0  0  0
  -28.6490  -19.5870   20.4540 C   0  0  0  0  0  0  0  0  0  0  0  0
  -30.1220  -17.6370   20.8530 C   0  0  0  0  0  0  0  0  0  0  0  0
  -29.8710  -18.5120   18.5860 C   0  0  0  0  0  0  0  0  0  0  0  0
  -30.1640  -18.4300   17.0940 C   0  0  1  0  0  0  0  0  0  0  0  0
  -29.0770  -18.7360   16.3860 F   0  0  0  0  0  0  0  0  0  0  0  0
  -31.1300  -19.2890   16.7810 F   0  0  0  0  0  0  0  0  0  0  0  0
  -30.5520  -17.2050   16.7450 F   0  0  0  0  0  0  0  0  0  0  0  0
  -30.6300  -16.5530   21.7970 C   0  0  0  0  0  2  0  0  0  0  0  0
  -30.7290  -14.3510   20.6370 C   0  0  0  0  0  0  0  0  0  0  0  0
  -30.4050  -12.2820   19.3340 C   0  0  0  0  0  2  0  0  0  0  0  0
  -29.4500  -12.5370   18.1500 C   0  0  0  0  0  2  0  0  0  0  0  0
  -27.9710  -12.4290   18.5730 C   0  0  0  0  0  2  0  0  0  0  0  0
  -27.6590  -13.2040   19.8790 C   0  0  0  0  0  3  0  0  0  0  0  0
  -28.7070  -12.8790   20.9640 C   0  0  0  0  0  2  0  0  0  0  0  0
  -30.0370  -13.2040   20.4180 N   0  0  0  0  0  0  0  0  0  0  0  0
  -31.8110  -14.6030   20.1020 O   0  0  0  0  0  0  0  0  0  0  0  0
  -30.1230  -15.2330   21.4350 N   0  0  0  0  0  0  0  0  0  0  0  0
  -29.2110  -14.9800   21.7890 H   0  0  0  0  0  0  0  0  0  0  0  0
  -25.2570  -13.8170   20.5740 C   0  0  0  0  0  0  0  0  0  0  0  0
  -24.1800  -13.0460   20.9160 C   0  0  0  0  0  0  0  0  0  0  0  0
  -24.6340  -11.6910   20.8670 C   0  0  0  0  0  0  0  0  0  0  0  0
  -26.3000  -12.9330   20.3410 N   0  0  0  0  0  0  0  0  0  0  0  0
  -25.9260  -11.6490   20.5740 N   0  0  0  0  0  0  0  0  0  0  0  0
  -23.9020  -10.4310   21.0370 C   0  0  0  0  0  0  0  0  0  0  0  0
  -24.3580   -9.4230   21.9160 C   0  0  0  0  0  3  0  0  0  0  0  0
  -23.6270   -8.2260   22.0750 C   0  0  0  0  0  3  0  0  0  0  0  0
  -22.4250   -8.0270   21.3540 C   0  0  0  0  0  0  0  0  0  0  0  0
  -21.9870   -9.0230   20.4640 C   0  0  0  0  0  3  0  0  0  0  0  0
  -22.7180  -10.2130   20.3030 C   0  0  0  0  0  3  0  0  0  0  0  0
  -21.6640   -6.8860   21.4240 O   0  0  0  0  0  0  0  0  0  0  0  0
  -21.6860   -6.0720   22.5270 C   0  0  0  0  0  0  0  0  0  0  0  0
  -21.4010   -6.5640   23.8200 C   0  0  0  0  0  3  0  0  0  0  0  0
  -21.3640   -5.6790   24.9160 C   0  0  0  0  0  3  0  0  0  0  0  0
  -21.6050   -4.3050   24.7230 C   0  0  0  0  0  0  0  0  0  0  0  0
  -21.8820   -3.8130   23.4350 C   0  0  0  0  0  3  0  0  0  0  0  0
  -21.9200   -4.6950   22.3400 C   0  0  0  0  0  0  0  0  0  0  0  0
  -22.1660   -4.2130   21.0990 F   0  0  0  0  0  0  0  0  0  0  0  0
  -21.5630   -3.4540   25.7750 F   0  0  0  0  0  0  0  0  0  0  0  0
  -22.7820  -13.5240   21.1820 C   0  0  0  0  0  0  0  0  0  0  0  0
  -22.0460  -12.8210   22.0350 N   0  0  0  0  0  0  0  0  0  0  0  0
  -22.3490  -14.5560   20.6700 O   0  0  0  0  0  0  0  0  0  0  0  0
  -22.4070  -11.9830   22.4650 H   0  0  0  0  0  0  0  0  0  0  0  0
  -21.1060  -13.1210   22.2560 H   0  0  0  0  0  0  0  0  0  0  0  0
  -25.4420  -15.1910   20.4300 N   0  0  0  0  0  0  0  0  0  0  0  0
  -24.7150  -15.8710   20.6280 H   0  0  0  0  0  0  0  0  0  0  0  0
  -26.3370  -15.6260   20.2450 H   0  0  0  0  0  0  0  0  0  0  0  0
  -28.3240  -22.9350   20.1570 C   0  0  0  0  0  2  0  0  0  0  0  0
  -27.7130  -24.2620   19.5940 C   0  0  0  0  0  3  0  0  0  0  0  0
  -27.1520  -23.9680   18.4180 F   0  0  0  0  0  0  0  0  0  0  0  0
  -28.6230  -25.5050   19.3270 C   0  0  0  0  0  2  0  0  0  0  0  0
  -28.4150  -26.6820   20.1400 O   0  0  0  0  0  0  0  0  0  0  0  0
  -24.6170  -31.8630   23.2060 C   0  0  0  0  0  0  0  0  0  0  0  0
  -27.2440  -27.4220   20.0730 C   0  0  0  0  0  0  0  0  0  0  0  0
  -23.4010  -30.4910   21.5420 C   0  0  0  0  0  3  0  0  0  0  0  0
  -24.8520  -28.9550   20.1080 C   0  0  0  0  0  0  0  0  0  0  0  0
  -25.9340  -30.8250   21.3580 C   0  0  0  0  0  2  0  0  0  0  0  0
  -26.0140  -29.4570   20.7080 C   0  0  0  0  0  0  0  0  0  0  0  0
  -27.2030  -28.6960   20.6970 C   0  0  0  0  0  3  0  0  0  0  0  0
  -26.0660  -26.9590   19.4430 C   0  0  0  0  0  3  0  0  0  0  0  0
  -24.8740  -27.7040   19.4770 C   0  0  0  0  0  3  0  0  0  0  0  0
  -23.6140  -29.8210   20.1580 C   0  0  0  0  0  2  0  0  0  0  0  0
  -24.6690  -31.0750   22.0940 N   0  0  0  0  0  0  0  0  0  0  0  0
  -23.5370  -32.1370   23.7500 O   0  0  0  0  0  0  0  0  0  0  0  0
  -22.7370  -29.4630   22.4880 C   0  0  0  0  0  0  0  0  0  0  0  0
  -21.4090  -29.3020   22.3660 N   0  0  0  0  0  0  0  0  0  0  0  0
  -23.4150  -28.8090   23.2860 O   0  0  0  0  0  0  0  0  0  0  0  0
  -20.9170  -29.8830   21.7010 H   0  0  0  0  0  0  0  0  0  0  0  0
  -18.0260  -28.1370   22.8440 C   0  0  0  0  0  0  0  0  0  0  0  0
  -20.5840  -28.3620   23.1270 C   0  0  0  0  0  3  0  0  0  0  0  0
  -20.6730  -26.9340   22.5400 C   0  0  0  0  0  2  0  0  0  0  0  0
  -19.5740  -26.6370   21.5150 C   0  0  0  0  0  2  0  0  0  0  0  0
  -18.1910  -26.7920   22.1570 C   0  0  0  0  0  2  0  0  0  0  0  0
  -19.1510  -28.8810   23.2870 C   0  0  0  0  0  0  0  0  0  0  0  0
  -18.9460  -30.1430   23.8860 C   0  0  0  0  0  3  0  0  0  0  0  0
  -17.6480  -30.6570   24.0550 C   0  0  0  0  0  3  0  0  0  0  0  0
  -16.5360  -29.9060   23.6350 C   0  0  0  0  0  3  0  0  0  0  0  0
  -16.7260  -28.6500   23.0320 C   0  0  0  0  0  3  0  0  0  0  0  0
  -25.9080  -32.4770   23.8330 C   0  0  0  0  0  3  0  0  0  0  0  0
  -25.5930  -33.8580   24.2280 N   0  0  0  0  0  0  0  0  0  0  0  0
  -25.9030  -34.9440   23.5060 C   0  0  0  0  0  0  0  0  0  0  0  0
  -26.5560  -34.8900   22.4600 O   0  0  0  0  0  0  0  0  0  0  0  0
  -25.0270  -33.9760   25.0520 H   0  0  0  0  0  0  0  0  0  0  0  0
  -24.1470  -36.7270   23.2630 C   0  0  0  0  0  1  0  0  0  0  0  0
  -25.4100  -36.3050   24.0300 C   0  0  0  0  0  3  0  0  0  0  0  0
  -27.5550  -37.1780   24.8470 C   0  0  0  0  0  1  0  0  0  0  0  0
  -26.4250  -37.3760   23.9420 N   0  0  0  0  0  0  0  0  0  0  0  0
  -26.0110  -38.2790   24.1480 H   0  0  0  0  0  0  0  0  0  0  0  0
  -26.4540  -31.6530   25.0650 C   0  0  1  0  0  0  0  0  0  0  0  0
  -25.3850  -31.3550   26.1410 C   0  0  0  0  0  1  0  0  0  0  0  0
  -27.0340  -30.2970   24.6000 C   0  0  0  0  0  1  0  0  0  0  0  0
  -27.6120  -32.4220   25.7450 C   0  0  0  0  0  1  0  0  0  0  0  0
  1  6  2  0
  2  1  1  0
  3  2  1  0
  4 11  1  0
  4  1  1  0
  5 57  1  0
  5  3  1  0
  5  4  1  0
  5  7  1  6
  9 11  1  0
 10 12  2  0
 11  8  2  0
 12  8  1  0
 12 18  1  0
 13  9  2  0
 13 10  1  0
 14 13  1  0
 14 15  1  6
 16 14  1  0
 17 14  1  0
 19 27  1  0
 20 25  1  0
 21 22  1  0
 21 20  1  0
 23 22  1  0
 23 32  1  0
 23 24  1  0
 25 19  1  0
 25 24  1  0
 26 19  2  0
 27 28  1  0
 27 18  1  0
 29 30  2  0
 30 49  1  0
 31 30  1  0
 31 34  1  0
 32 29  1  0
 32 33  1  0
 33 31  2  0
 34 35  1  0
 35 36  2  0
 37 40  1  0
 37 36  1  0
 38 37  2  0
 39 38  1  0
 39 34  2  0
 40 41  1  0
 41 42  1  0
 42 43  2  0
 44 43  1  0
 44 48  1  0
 45 44  2  0
 46 41  2  0
 46 45  1  0
 47 46  1  0
 49 50  1  0
 50 53  1  0
 50 52  1  0
 51 49  2  0
 54 29  1  0
 54 55  1  0
 56 54  1  0
 58 59  1  0
 58 57  1  0
 60 58  1  0
 60 61  1  0
 62 73  2  0
 63 61  1  0
 63 68  1  0
 64 72  1  0
 64 74  1  0
 65 71  1  0
 65 67  1  0
 66 72  1  0
 67 66  1  0
 68 67  2  0
 69 70  1  0
 69 63  2  0
 70 65  2  0
 71 64  1  0
 72 62  1  0
 74 76  2  0
 75 74  1  0
 77 75  1  0
 78 87  2  0
 78 83  1  0
 79 75  1  0
 79 83  1  0
 80 79  1  0
 81 82  1  0
 81 80  1  0
 82 78  1  0
 83 84  2  0
 84 85  1  0
 86 85  2  0
 87 86  1  0
 88 62  1  0
 88 89  1  0
 88 98  1  0
 89 92  1  0
 90 94  1  0
 90 89  1  0
 91 90  2  0
 94 93  1  0
 96 94  1  0
 96 97  1  0
 96 95  1  0
 98101  1  1
 98 99  1  0
100 98  1  0
M  ISO  4  19 100  27 100  60 101  61 101
M  END
>  <TORSDO>  (12) 
F 22

>  <SCORE>  (12) 
-2.161

>  <name>  (12) 
12

>  <ligand_id>  (12) 
12

>  <original_smiles>  (12) 
[H]c1c([H])c([H])c2c(c1[H])C([H])([H])C([H])([H])C([H])([H])C2([H])N([H])C(=O)C1([H])N(C(=O)C([H])(N([H])C(=O)C([H])(N([H])C([H])([H])[H])C([H])([H])[H])C(C([H])([H])[H])(C([H])([H])[H])C([H])([H])[H])C([H])([H])c2c([H])c(OC([H])([H])C([H])(F)C([H])([H])[N+]3([H])C([H])(c4c([H])c(C(F)(F)F)c([H])c(C([H])([H])N([H])C(=O)N5C([H])([H])C([H])([H])C([H])([H])C([H])(n6nc(-c7c([H])c([H])c(Oc8c([H])c([H])c(F)c([H])c8F)c([H])c7[H])c(C(=O)N([H])[H])c6N([H])[H])C5([H])[H])c4[H])C(=O)C([H])([H])C3([H])[H])c([H])c([H])c2C1([H])[H]

>  <smiles>  (12) 
[H]c1c([H])c([H])c2c(c1[H])C([H])([H])C([H])([H])C([H])([H])C2([H])N([H])C(=O)C1([H])N(C(=O)C([H])(N([H])C(=O)C([H])(N([H])C([H])([H])[H])C([H])([H])[H])C(C([H])([H])[H])(C([H])([H])[H])C([H])([H])[H])C([H])([H])c2c([H])c(OC([H])([H])C([H])(F)C([H])([H])[N+]3([H])C([H])(c4c([H])c(C(F)(F)F)c([H])c(C([H])([H])N([H])C(=O)N5C([H])([H])C([H])([H])C([H])([H])C([H])(n6nc(-c7c([H])c([H])c(Oc8c([H])c([H])c(F)c([H])c8F)c([H])c7[H])c(C(=O)N([H])[H])c6N([H])[H])C5([H])[H])c4[H])C(=O)C([H])([H])C3([H])[H])c([H])c([H])c2C1([H])[H]

$$$$
13:0:0
     RDKit          3D

 94102  0  0  1  0  0  0  0  0999 V2000
  -28.7410  -20.0610   19.5750 C   0  0  0  0  0  0  0  0  0  0  0  0
  -29.2470  -21.2960   19.8290 N   0  0  0  0  0  0  0  0  0  0  0  0
  -27.5990  -19.9310   19.1350 O   0  0  0  0  0  0  0  0  0  0  0  0
  -30.1930  -21.3690   20.1830 H   0  0  0  0  0  0  0  0  0  0  0  0
  -30.9410  -14.5570   19.5320 C   0  0  0  0  0  0  0  0  0  0  0  0
  -30.4610  -12.3750   18.4730 C   0  0  0  0  0  2  0  0  0  0  0  0
  -29.3630  -12.5360   17.4020 C   0  0  0  0  0  2  0  0  0  0  0  0
  -27.9630  -12.4030   18.0330 C   0  0  0  0  0  2  0  0  0  0  0  0
  -27.7990  -13.2450   19.3300 C   0  0  0  0  0  3  0  0  0  0  0  0
  -29.0050  -13.0440   20.2700 C   0  0  0  0  0  2  0  0  0  0  0  0
  -30.2040  -13.4030   19.5030 N   0  0  0  0  0  0  0  0  0  0  0  0
  -32.0920  -14.5450   19.0820 O   0  0  0  0  0  0  0  0  0  0  0  0
  -30.0430  -18.1240   18.5390 C   0  0  0  0  0  2  0  0  0  0  0  0
  -30.9100  -16.8630   18.7640 C   0  0  0  0  0  2  0  0  0  0  0  0
  -29.7070  -16.3430   20.8190 C   0  0  0  0  0  2  0  0  0  0  0  0
  -29.5790  -18.7700   19.8580 C   0  0  0  0  0  3  0  0  0  0  0  0
  -28.8220  -17.6240   20.6130 C   0  0  0  0  0  3  0  0  0  0  0  0
  -30.2920  -15.7770   19.5790 N   0  0  0  0  0  0  0  0  0  0  0  0
  -25.5780  -13.8510   20.4670 C   0  0  0  0  0  0  0  0  0  0  0  0
  -24.5460  -13.0840   20.9320 C   0  0  0  0  0  0  0  0  0  0  0  0
  -24.9320  -11.7260   20.7110 C   0  0  0  0  0  0  0  0  0  0  0  0
  -26.5310  -12.9630   19.9960 N   0  0  0  0  0  0  0  0  0  0  0  0
  -26.1560  -11.6740   20.2000 N   0  0  0  0  0  0  0  0  0  0  0  0
  -24.1820  -10.4780   20.9000 C   0  0  0  0  0  0  0  0  0  0  0  0
  -24.6180   -9.4850   21.8040 C   0  0  0  0  0  3  0  0  0  0  0  0
  -23.8710   -8.3010   21.9830 C   0  0  0  0  0  3  0  0  0  0  0  0
  -22.6730   -8.1020   21.2560 C   0  0  0  0  0  0  0  0  0  0  0  0
  -22.2560   -9.0830   20.3400 C   0  0  0  0  0  3  0  0  0  0  0  0
  -23.0030  -10.2580   20.1600 C   0  0  0  0  0  3  0  0  0  0  0  0
  -21.8960   -6.9710   21.3460 O   0  0  0  0  0  0  0  0  0  0  0  0
  -21.7240   -6.3090   22.5350 C   0  0  0  0  0  0  0  0  0  0  0  0
  -21.1530   -6.9360   23.6640 C   0  0  0  0  0  3  0  0  0  0  0  0
  -20.9310   -6.1990   24.8430 C   0  0  0  0  0  3  0  0  0  0  0  0
  -21.2690   -4.8340   24.8950 C   0  0  0  0  0  0  0  0  0  0  0  0
  -21.8320   -4.2040   23.7710 C   0  0  0  0  0  3  0  0  0  0  0  0
  -22.0560   -4.9400   22.5940 C   0  0  0  0  0  0  0  0  0  0  0  0
  -22.5790   -4.3240   21.5070 F   0  0  0  0  0  0  0  0  0  0  0  0
  -21.0480   -4.1210   26.0250 F   0  0  0  0  0  0  0  0  0  0  0  0
  -23.2300  -13.5820   21.4560 C   0  0  0  0  0  0  0  0  0  0  0  0
  -22.6170  -12.8470   22.3780 N   0  0  0  0  0  0  0  0  0  0  0  0
  -22.7600  -14.6570   21.0840 O   0  0  0  0  0  0  0  0  0  0  0  0
  -23.0130  -11.9770   22.7030 H   0  0  0  0  0  0  0  0  0  0  0  0
  -21.7380  -13.1600   22.7660 H   0  0  0  0  0  0  0  0  0  0  0  0
  -25.7770  -15.2260   20.3810 N   0  0  0  0  0  0  0  0  0  0  0  0
  -25.0030  -15.8540   20.5620 H   0  0  0  0  0  0  0  0  0  0  0  0
  -26.4700  -15.6240   19.7600 H   0  0  0  0  0  0  0  0  0  0  0  0
  -28.2460  -18.0660   21.9000 N   0  0  0  0  0  4  0  0  0  0  0  0
  -28.9580  -18.3560   22.5510 H   0  0  0  0  0  0  0  0  0  0  0  0
  -27.7260  -17.3170   22.3210 H   0  0  0  0  0  0  0  0  0  0  0  0
  -27.6040  -18.8270   21.7610 H   0  0  0  0  0  0  0  0  0  0  0  0
  -28.4740  -22.5490   19.6230 C   0  0  0  0  0  2  0  0  0  0  0  0
  -29.1430  -23.9320   19.9710 C   0  0  0  0  0  2  0  0  0  0  0  0
  -28.1840  -25.1070   19.5850 C   0  0  0  0  0  2  0  0  0  0  0  0
  -28.4030  -26.4920   20.0180 O   0  0  0  0  0  0  0  0  0  0  0  0
  -24.5300  -31.6680   23.1770 C   0  0  0  0  0  0  0  0  0  0  0  0
  -27.2700  -27.3140   19.9760 C   0  0  0  0  0  0  0  0  0  0  0  0
  -23.3740  -30.3020   21.4790 C   0  0  0  0  0  3  0  0  0  0  0  0
  -24.8690  -28.8520   20.0130 C   0  0  0  0  0  0  0  0  0  0  0  0
  -25.9070  -30.6910   21.3350 C   0  0  0  0  0  2  0  0  0  0  0  0
  -26.0230  -29.3450   20.6380 C   0  0  0  0  0  0  0  0  0  0  0  0
  -27.2270  -28.5850   20.6160 C   0  0  0  0  0  3  0  0  0  0  0  0
  -26.0900  -26.8820   19.3170 C   0  0  0  0  0  3  0  0  0  0  0  0
  -24.9020  -27.6230   19.3480 C   0  0  0  0  0  3  0  0  0  0  0  0
  -23.6150  -29.6920   20.0770 C   0  0  0  0  0  2  0  0  0  0  0  0
  -24.6210  -30.9010   22.0530 N   0  0  0  0  0  0  0  0  0  0  0  0
  -23.4360  -31.9030   23.7090 O   0  0  0  0  0  0  0  0  0  0  0  0
  -22.7320  -29.2300   22.3920 C   0  0  0  0  0  0  0  0  0  0  0  0
  -21.4160  -29.0150   22.2360 N   0  0  0  0  0  0  0  0  0  0  0  0
  -23.4170  -28.6000   23.2020 O   0  0  0  0  0  0  0  0  0  0  0  0
  -20.9210  -29.5810   21.5600 H   0  0  0  0  0  0  0  0  0  0  0  0
  -18.0590  -27.7420   22.6720 C   0  0  0  0  0  0  0  0  0  0  0  0
  -20.6100  -28.0330   22.9640 C   0  0  0  0  0  3  0  0  0  0  0  0
  -20.7400  -26.6270   22.3340 C   0  0  0  0  0  2  0  0  0  0  0  0
  -19.6470  -26.3240   21.3030 C   0  0  0  0  0  2  0  0  0  0  0  0
  -18.2610  -26.4220   21.9460 C   0  0  0  0  0  2  0  0  0  0  0  0
  -19.1620  -28.5050   23.1360 C   0  0  0  0  0  0  0  0  0  0  0  0
  -18.9200  -29.7400   23.7750 C   0  0  0  0  0  3  0  0  0  0  0  0
  -17.6060  -30.2130   23.9540 C   0  0  0  0  0  3  0  0  0  0  0  0
  -16.5160  -29.4460   23.5040 C   0  0  0  0  0  3  0  0  0  0  0  0
  -16.7440  -28.2120   22.8680 C   0  0  0  0  0  3  0  0  0  0  0  0
  -25.7940  -32.3080   23.8310 C   0  0  0  0  0  3  0  0  0  0  0  0
  -26.2750  -31.5460   25.1270 C   0  0  1  0  0  0  0  0  0  0  0  0
  -25.1500  -31.3030   26.1590 C   0  0  0  0  0  1  0  0  0  0  0  0
  -26.8850  -30.1720   24.7630 C   0  0  0  0  0  1  0  0  0  0  0  0
  -27.3910  -32.3570   25.8250 C   0  0  0  0  0  1  0  0  0  0  0  0
  -25.4690  -33.7070   24.1410 N   0  0  0  0  0  0  0  0  0  0  0  0
  -25.7760  -34.7510   23.3590 C   0  0  0  0  0  0  0  0  0  0  0  0
  -26.4340  -34.6400   22.3220 O   0  0  0  0  0  0  0  0  0  0  0  0
  -24.8800  -33.8660   24.9450 H   0  0  0  0  0  0  0  0  0  0  0  0
  -23.9980  -36.5000   23.0190 C   0  0  0  0  0  1  0  0  0  0  0  0
  -25.2730  -36.1390   23.8000 C   0  0  0  0  0  3  0  0  0  0  0  0
  -27.4070  -37.0950   24.5510 C   0  0  0  0  0  1  0  0  0  0  0  0
  -26.2790  -37.2100   23.6300 N   0  0  0  0  0  0  0  0  0  0  0  0
  -25.8560  -38.1240   23.7590 H   0  0  0  0  0  0  0  0  0  0  0  0
  1  2  1  0
  2  4  1  0
  3  1  2  0
  5 18  1  0
  6 11  1  0
  7  8  1  0
  7  6  1  0
  9  8  1  0
  9 22  1  0
  9 10  1  0
 11  5  1  0
 11 10  1  0
 12  5  2  0
 13 14  1  0
 13 16  1  0
 14 18  1  0
 16  1  1  0
 16 17  1  0
 17 15  1  0
 17 47  1  0
 18 15  1  0
 19 20  2  0
 20 39  1  0
 21 24  1  0
 21 20  1  0
 22 23  1  0
 22 19  1  0
 23 21  2  0
 24 25  1  0
 25 26  2  0
 27 30  1  0
 27 26  1  0
 28 27  2  0
 29 28  1  0
 29 24  2  0
 30 31  1  0
 31 36  2  0
 31 32  1  0
 32 33  2  0
 33 34  1  0
 34 38  1  0
 35 34  2  0
 36 35  1  0
 37 36  1  0
 39 40  1  0
 40 42  1  0
 40 43  1  0
 41 39  2  0
 44 19  1  0
 44 45  1  0
 46 44  1  0
 47 49  1  0
 47 48  1  0
 50 47  1  0
 51  2  1  0
 51 52  1  0
 53 52  1  0
 53 54  1  0
 55 66  2  0
 56 54  1  0
 56 61  1  0
 57 65  1  0
 57 67  1  0
 58 64  1  0
 58 60  1  0
 59 65  1  0
 60 59  1  0
 61 60  2  0
 62 63  1  0
 62 56  2  0
 63 58  2  0
 64 57  1  0
 65 55  1  0
 67 69  2  0
 68 67  1  0
 70 68  1  0
 71 80  2  0
 71 76  1  0
 72 68  1  0
 72 76  1  0
 73 72  1  0
 74 75  1  0
 74 73  1  0
 75 71  1  0
 76 77  2  0
 77 78  1  0
 79 78  2  0
 80 79  1  0
 81 55  1  0
 81 86  1  0
 81 82  1  0
 82 85  1  1
 82 83  1  0
 84 82  1  0
 86 89  1  0
 87 91  1  0
 87 86  1  0
 88 87  2  0
 91 90  1  0
 93 94  1  0
 93 91  1  0
 93 92  1  0
M  ISO  4   5 100  18 100  53 101  54 101
M  END
>  <TORSDO>  (13) 
F 20

>  <SCORE>  (13) 
-10.900

>  <name>  (13) 
13

>  <ligand_id>  (13) 
13

>  <original_smiles>  (13) 
[H]c1c([H])c([H])c2c(c1[H])C([H])([H])C([H])([H])C([H])([H])C2([H])N([H])C(=O)C1([H])N(C(=O)C([H])(N([H])C(=O)C([H])(N([H])C([H])([H])[H])C([H])([H])[H])C(C([H])([H])[H])(C([H])([H])[H])C([H])([H])[H])C([H])([H])c2c([H])c(OC([H])([H])C([H])([H])C([H])([H])N([H])C(=O)C3([H])C([H])([H])C([H])([H])N(C(=O)N4C([H])([H])C([H])([H])C([H])([H])C([H])(n5nc(-c6c([H])c([H])c(Oc7c([H])c([H])c(F)c([H])c7F)c([H])c6[H])c(C(=O)N([H])[H])c5N([H])[H])C4([H])[H])C([H])([H])C3([H])[N+]([H])([H])[H])c([H])c([H])c2C1([H])[H]

>  <smiles>  (13) 
[H]c1c([H])c([H])c2c(c1[H])C([H])([H])C([H])([H])C([H])([H])C2([H])N([H])C(=O)C1([H])N(C(=O)C([H])(N([H])C(=O)C([H])(N([H])C([H])([H])[H])C([H])([H])[H])C(C([H])([H])[H])(C([H])([H])[H])C([H])([H])[H])C([H])([H])c2c([H])c(OC([H])([H])C([H])([H])C([H])([H])N([H])C(=O)C3([H])C([H])([H])C([H])([H])N(C(=O)N4C([H])([H])C([H])([H])C([H])([H])C([H])(n5nc(-c6c([H])c([H])c(Oc7c([H])c([H])c(F)c([H])c7F)c([H])c6[H])c(C(=O)N([H])[H])c5N([H])[H])C4([H])[H])C([H])([H])C3([H])[N+]([H])([H])[H])c([H])c([H])c2C1([H])[H]

$$$$
14:0:0
     RDKit          3D

 95103  0  0  1  0  0  0  0  0999 V2000
  -30.2110  -22.7100   19.9990 C   0  0  0  0  0  2  0  0  0  0  0  0
  -31.1480  -23.7080   19.4220 N   0  0  0  0  0  4  0  0  0  0  0  0
  -31.3000  -23.5280   18.4410 H   0  0  0  0  0  0  0  0  0  0  0  0
  -32.0400  -23.5670   19.8700 H   0  0  0  0  0  0  0  0  0  0  0  0
  -30.8310  -25.1380   19.6400 C   0  0  0  0  0  2  0  0  0  0  0  0
  -29.9140  -25.7540   18.5660 C   0  0  0  0  0  2  0  0  0  0  0  0
  -28.4320  -25.8350   18.9540 C   0  0  0  0  0  2  0  0  0  0  0  0
  -28.2700  -26.7620   20.0340 O   0  0  0  0  0  0  0  0  0  0  0  0
  -24.5290  -31.9230   23.2310 C   0  0  0  0  0  0  0  0  0  0  0  0
  -27.0770  -27.4500   20.1020 C   0  0  0  0  0  0  0  0  0  0  0  0
  -23.2810  -30.5330   21.6090 C   0  0  0  0  0  3  0  0  0  0  0  0
  -24.6930  -28.9660   20.1800 C   0  0  0  0  0  0  0  0  0  0  0  0
  -25.8070  -30.8550   21.3760 C   0  0  0  0  0  2  0  0  0  0  0  0
  -25.8650  -29.4790   20.7470 C   0  0  0  0  0  0  0  0  0  0  0  0
  -27.0570  -28.7200   20.7180 C   0  0  0  0  0  3  0  0  0  0  0  0
  -25.8770  -26.9330   19.5630 C   0  0  0  0  0  3  0  0  0  0  0  0
  -24.6880  -27.6850   19.6000 C   0  0  0  0  0  3  0  0  0  0  0  0
  -23.4670  -29.8450   20.2300 C   0  0  0  0  0  2  0  0  0  0  0  0
  -24.5600  -31.1160   22.1310 N   0  0  0  0  0  0  0  0  0  0  0  0
  -23.4590  -32.2090   23.7850 O   0  0  0  0  0  0  0  0  0  0  0  0
  -22.6280  -29.5230   22.5800 C   0  0  0  0  0  0  0  0  0  0  0  0
  -21.3020  -29.3490   22.4640 N   0  0  0  0  0  0  0  0  0  0  0  0
  -23.3130  -28.8980   23.3960 O   0  0  0  0  0  0  0  0  0  0  0  0
  -20.8100  -29.9040   21.7750 H   0  0  0  0  0  0  0  0  0  0  0  0
  -17.9270  -28.1670   22.9730 C   0  0  0  0  0  0  0  0  0  0  0  0
  -20.4840  -28.4250   23.2500 C   0  0  0  0  0  3  0  0  0  0  0  0
  -20.5870  -26.9840   22.6970 C   0  0  0  0  0  2  0  0  0  0  0  0
  -19.4880  -26.6470   21.6850 C   0  0  0  0  0  2  0  0  0  0  0  0
  -18.1050  -26.8060   22.3210 C   0  0  0  0  0  2  0  0  0  0  0  0
  -19.0460  -28.9330   23.3940 C   0  0  0  0  0  0  0  0  0  0  0  0
  -18.8290  -30.2070   23.9650 C   0  0  0  0  0  3  0  0  0  0  0  0
  -17.5250  -30.7140   24.1150 C   0  0  0  0  0  3  0  0  0  0  0  0
  -16.4210  -29.9460   23.7080 C   0  0  0  0  0  3  0  0  0  0  0  0
  -16.6230  -28.6730   23.1440 C   0  0  0  0  0  3  0  0  0  0  0  0
  -25.8320  -32.5380   23.8270 C   0  0  0  0  0  3  0  0  0  0  0  0
  -25.5430  -33.9360   24.1750 N   0  0  0  0  0  0  0  0  0  0  0  0
  -25.8770  -34.9900   23.4190 C   0  0  0  0  0  0  0  0  0  0  0  0
  -26.5320  -34.8890   22.3780 O   0  0  0  0  0  0  0  0  0  0  0  0
  -24.9580  -34.0880   24.9830 H   0  0  0  0  0  0  0  0  0  0  0  0
  -24.1580  -36.7970   23.1040 C   0  0  0  0  0  1  0  0  0  0  0  0
  -25.4090  -36.3790   23.8920 C   0  0  0  0  0  3  0  0  0  0  0  0
  -27.5660  -37.2330   24.6930 C   0  0  0  0  0  1  0  0  0  0  0  0
  -26.4490  -37.4240   23.7730 N   0  0  0  0  0  0  0  0  0  0  0  0
  -26.0540  -38.3450   23.9420 H   0  0  0  0  0  0  0  0  0  0  0  0
  -26.3710  -31.7530   25.0850 C   0  0  1  0  0  0  0  0  0  0  0  0
  -25.3000  -31.5200   26.1770 C   0  0  0  0  0  1  0  0  0  0  0  0
  -26.9300  -30.3740   24.6650 C   0  0  0  0  0  1  0  0  0  0  0  0
  -27.5430  -32.5320   25.7280 C   0  0  0  0  0  1  0  0  0  0  0  0
  -30.9860  -21.4480   20.4450 C   0  0  0  0  0  2  0  0  0  0  0  0
  -30.1650  -20.3580   21.1790 C   0  0  0  0  0  2  0  0  0  0  0  0
  -31.3120  -18.4660   23.7770 C   0  0  0  0  0  2  0  0  0  0  0  0
  -30.1970  -17.6290   23.1390 C   0  0  0  0  0  2  0  0  0  0  0  0
  -31.9080  -19.3110   22.6430 C   0  0  0  0  0  2  0  0  0  0  0  0
  -30.3000  -17.8710   21.6260 C   0  0  0  0  0  3  0  0  0  0  0  0
  -31.0130  -19.1650   21.4680 N   0  0  1  0  0  4  0  0  0  0  0  0
  -31.5960  -19.0540   20.6550 H   0  0  0  0  0  0  0  0  0  0  0  0
  -31.1110  -16.7790   20.8950 C   0  0  0  0  0  2  0  0  0  0  0  0
  -31.0850  -14.4060   20.2920 C   0  0  0  0  0  0  0  0  0  0  0  0
  -30.6740  -12.2690   19.1570 C   0  0  0  0  0  2  0  0  0  0  0  0
  -29.7500  -12.5160   17.9480 C   0  0  0  0  0  2  0  0  0  0  0  0
  -28.2760  -12.4190   18.3870 C   0  0  0  0  0  2  0  0  0  0  0  0
  -27.9620  -13.2740   19.6430 C   0  0  0  0  0  3  0  0  0  0  0  0
  -29.0120  -13.0420   20.7540 C   0  0  0  0  0  2  0  0  0  0  0  0
  -30.3450  -13.2740   20.1770 N   0  0  0  0  0  0  0  0  0  0  0  0
  -32.2010  -14.5380   19.7850 O   0  0  0  0  0  0  0  0  0  0  0  0
  -30.4810  -15.4550   20.8690 N   0  0  0  0  0  0  0  0  0  0  0  0
  -29.5420  -15.3450   21.2220 H   0  0  0  0  0  0  0  0  0  0  0  0
  -25.5780  -13.9430   20.3480 C   0  0  0  0  0  0  0  0  0  0  0  0
  -24.4950  -13.1980   20.7280 C   0  0  0  0  0  0  0  0  0  0  0  0
  -24.9250  -11.8360   20.7130 C   0  0  0  0  0  0  0  0  0  0  0  0
  -26.6040  -13.0370   20.1250 N   0  0  0  0  0  0  0  0  0  0  0  0
  -26.2130  -11.7650   20.3990 N   0  0  0  0  0  0  0  0  0  0  0  0
  -24.1730  -10.5920   20.9190 C   0  0  0  0  0  0  0  0  0  0  0  0
  -24.5780   -9.6320   21.8720 C   0  0  0  0  0  3  0  0  0  0  0  0
  -23.8240   -8.4530   22.0650 C   0  0  0  0  0  3  0  0  0  0  0  0
  -22.6510   -8.2300   21.3050 C   0  0  0  0  0  0  0  0  0  0  0  0
  -22.2660   -9.1790   20.3420 C   0  0  0  0  0  3  0  0  0  0  0  0
  -23.0210  -10.3480   20.1450 C   0  0  0  0  0  3  0  0  0  0  0  0
  -21.8720   -7.1020   21.4030 O   0  0  0  0  0  0  0  0  0  0  0  0
  -21.7850   -6.3890   22.5730 C   0  0  0  0  0  0  0  0  0  0  0  0
  -21.3720   -6.9900   23.7820 C   0  0  0  0  0  3  0  0  0  0  0  0
  -21.2270   -6.2050   24.9430 C   0  0  0  0  0  3  0  0  0  0  0  0
  -21.4850   -4.8230   24.8980 C   0  0  0  0  0  0  0  0  0  0  0  0
  -21.8940   -4.2220   23.6940 C   0  0  0  0  0  3  0  0  0  0  0  0
  -22.0400   -5.0040   22.5340 C   0  0  0  0  0  0  0  0  0  0  0  0
  -22.4130   -4.4170   21.3720 F   0  0  0  0  0  0  0  0  0  0  0  0
  -21.3420   -4.0680   26.0130 F   0  0  0  0  0  0  0  0  0  0  0  0
  -23.1090  -13.7110   20.9980 C   0  0  0  0  0  0  0  0  0  0  0  0
  -22.3700  -13.0540   21.8860 N   0  0  0  0  0  0  0  0  0  0  0  0
  -22.6910  -14.7330   20.4590 O   0  0  0  0  0  0  0  0  0  0  0  0
  -22.7230  -12.2310   22.3520 H   0  0  0  0  0  0  0  0  0  0  0  0
  -21.4420  -13.3880   22.1080 H   0  0  0  0  0  0  0  0  0  0  0  0
  -25.7710  -15.3070   20.1590 N   0  0  0  0  0  0  0  0  0  0  0  0
  -25.0070  -15.9690   20.2560 H   0  0  0  0  0  0  0  0  0  0  0  0
  -26.6170  -15.7300   19.8010 H   0  0  0  0  0  0  0  0  0  0  0  0
  1 49  1  0
  2  5  1  0
  2  4  1  0
  2  1  1  0
  3  2  1  0
  6  7  1  0
  6  5  1  0
  7  8  1  0
  8 10  1  0
  9 20  2  0
 10 15  1  0
 11 19  1  0
 11 21  1  0
 12 18  1  0
 12 14  1  0
 13 19  1  0
 14 13  1  0
 15 14  2  0
 16 17  1  0
 16 10  2  0
 17 12  2  0
 18 11  1  0
 19  9  1  0
 21 23  2  0
 22 21  1  0
 24 22  1  0
 25 34  2  0
 25 30  1  0
 26 22  1  0
 26 30  1  0
 27 26  1  0
 28 29  1  0
 28 27  1  0
 29 25  1  0
 30 31  2  0
 31 32  1  0
 33 32  2  0
 34 33  1  0
 35  9  1  0
 35 36  1  0
 35 45  1  0
 36 39  1  0
 37 41  1  0
 37 36  1  0
 38 37  2  0
 41 40  1  0
 43 41  1  0
 43 44  1  0
 43 42  1  0
 45 48  1  1
 45 46  1  0
 47 45  1  0
 49 50  1  0
 50 55  1  0
 52 51  1  0
 53 51  1  0
 54 57  1  0
 54 52  1  0
 55 54  1  0
 55 53  1  0
 55 56  1  6
 58 66  1  0
 59 64  1  0
 60 61  1  0
 60 59  1  0
 62 61  1  0
 62 71  1  0
 62 63  1  0
 64 58  1  0
 64 63  1  0
 65 58  2  0
 66 57  1  0
 66 67  1  0
 68 69  2  0
 69 88  1  0
 70 69  1  0
 70 73  1  0
 71 68  1  0
 71 72  1  0
 72 70  2  0
 73 74  1  0
 74 75  2  0
 76 79  1  0
 76 75  1  0
 77 76  2  0
 78 77  1  0
 78 73  2  0
 79 80  1  0
 80 81  1  0
 81 82  2  0
 83 82  1  0
 83 87  1  0
 84 83  2  0
 85 80  2  0
 85 84  1  0
 86 85  1  0
 88 89  1  0
 89 92  1  0
 89 91  1  0
 90 88  2  0
 93 94  1  0
 93 68  1  0
 95 93  1  0
M  ISO  4   7 101   8 101  58 100  66 100
M  END
>  <TORSDO>  (14) 
F 24

>  <SCORE>  (14) 
-11.094

>  <name>  (14) 
14

>  <ligand_id>  (14) 
14

>  <original_smiles>  (14) 
[H]c1c([H])c([H])c2c(c1[H])C([H])([H])C([H])([H])C([H])([H])C2([H])N([H])C(=O)C1([H])N(C(=O)C([H])(N([H])C(=O)C([H])(N([H])C([H])([H])[H])C([H])([H])[H])C(C([H])([H])[H])(C([H])([H])[H])C([H])([H])[H])C([H])([H])c2c([H])c(OC([H])([H])C([H])([H])C([H])([H])[N+]([H])([H])C([H])([H])C([H])([H])C([H])([H])[N+]3([H])C([H])([H])C([H])([H])C([H])([H])C3([H])C([H])([H])N([H])C(=O)N3C([H])([H])C([H])([H])C([H])([H])C([H])(n4nc(-c5c([H])c([H])c(Oc6c([H])c([H])c(F)c([H])c6F)c([H])c5[H])c(C(=O)N([H])[H])c4N([H])[H])C3([H])[H])c([H])c([H])c2C1([H])[H]

>  <smiles>  (14) 
[H]c1c([H])c([H])c2c(c1[H])C([H])([H])C([H])([H])C([H])([H])C2([H])N([H])C(=O)C1([H])N(C(=O)C([H])(N([H])C(=O)C([H])(N([H])C([H])([H])[H])C([H])([H])[H])C(C([H])([H])[H])(C([H])([H])[H])C([H])([H])[H])C([H])([H])c2c([H])c(OC([H])([H])C([H])([H])C([H])([H])[N+]([H])([H])C([H])([H])C([H])([H])C([H])([H])[N+]3([H])C([H])([H])C([H])([H])C([H])([H])C3([H])C([H])([H])N([H])C(=O)N3C([H])([H])C([H])([H])C([H])([H])C([H])(n4nc(-c5c([H])c([H])c(Oc6c([H])c([H])c(F)c([H])c6F)c([H])c5[H])c(C(=O)N([H])[H])c4N([H])[H])C3([H])[H])c([H])c([H])c2C1([H])[H]

$$$$
15:0:0
     RDKit          3D

 97105  0  0  1  0  0  0  0  0999 V2000
  -27.0760  -19.7160   20.2190 C   0  0  0  0  0  2  0  0  0  0  0  0
  -29.0760  -20.9550   21.1370 C   0  0  0  0  0  2  0  0  0  0  0  0
  -26.4970  -21.0070   19.5920 C   0  0  0  0  0  2  0  0  0  0  0  0
  -28.1500  -22.1840   20.9810 C   0  0  0  0  0  2  0  0  0  0  0  0
  -28.6200  -19.7380   20.2960 C   0  0  0  0  0  3  0  0  0  0  0  0
  -27.4330  -22.1650   19.6780 N   0  0  2  0  0  4  0  0  0  0  0  0
  -28.1290  -22.0070   18.9650 H   0  0  0  0  0  0  0  0  0  0  0  0
  -29.2230  -18.3970   20.7620 C   0  0  0  0  0  0  0  0  0  0  0  0
  -28.5710  -17.3460   20.7190 O   0  0  0  0  0  0  0  0  0  0  0  0
  -30.6910  -18.3780   21.2050 C   0  0  0  0  0  2  0  0  0  0  0  0
  -31.0300  -16.9710   21.4860 N   0  0  0  0  0  4  0  0  0  0  0  0
  -30.2160  -16.4620   21.1700 H   0  0  0  0  0  0  0  0  0  0  0  0
  -31.1100  -16.8300   22.4800 H   0  0  0  0  0  0  0  0  0  0  0  0
  -32.2340  -16.4850   20.7790 C   0  0  0  0  0  2  0  0  0  0  0  0
  -32.4390  -14.9710   20.9440 C   0  0  0  0  0  2  0  0  0  0  0  0
  -31.2200  -13.5430   19.3030 C   0  0  0  0  0  0  0  0  0  0  0  0
  -30.5400  -11.3270   18.4610 C   0  0  0  0  0  2  0  0  0  0  0  0
  -29.4310  -11.3360   17.4000 C   0  0  0  0  0  2  0  0  0  0  0  0
  -28.0430  -11.3630   18.0650 C   0  0  0  0  0  2  0  0  0  0  0  0
  -27.9210  -12.4800   19.1310 C   0  0  0  0  0  3  0  0  0  0  0  0
  -29.1120  -12.4410   20.1100 C   0  0  0  0  0  2  0  0  0  0  0  0
  -30.3710  -12.4900   19.3410 N   0  0  0  0  0  0  0  0  0  0  0  0
  -32.0180  -13.7580   18.3840 O   0  0  0  0  0  0  0  0  0  0  0  0
  -31.2990  -14.1790   20.4790 N   0  0  0  0  0  0  0  0  0  0  0  0
  -30.6540  -13.8450   21.1810 H   0  0  0  0  0  0  0  0  0  0  0  0
  -25.8160  -13.4220   20.2770 C   0  0  0  0  0  0  0  0  0  0  0  0
  -24.7150  -12.8110   20.8120 C   0  0  0  0  0  0  0  0  0  0  0  0
  -24.9310  -11.4060   20.6620 C   0  0  0  0  0  0  0  0  0  0  0  0
  -26.6450  -12.4010   19.8390 N   0  0  0  0  0  0  0  0  0  0  0  0
  -26.1240  -11.1800   20.1260 N   0  0  0  0  0  0  0  0  0  0  0  0
  -24.0520  -10.2650   20.9470 C   0  0  0  0  0  0  0  0  0  0  0  0
  -24.4490   -9.2240   21.8160 C   0  0  0  0  0  3  0  0  0  0  0  0
  -23.5780   -8.1480   22.0870 C   0  0  0  0  0  3  0  0  0  0  0  0
  -22.2930   -8.1060   21.4930 C   0  0  0  0  0  0  0  0  0  0  0  0
  -21.9120   -9.1340   20.6130 C   0  0  0  0  0  3  0  0  0  0  0  0
  -22.7820  -10.2030   20.3390 C   0  0  0  0  0  3  0  0  0  0  0  0
  -21.3900   -7.0890   21.6780 O   0  0  0  0  0  0  0  0  0  0  0  0
  -21.3660   -6.3500   22.8350 C   0  0  0  0  0  0  0  0  0  0  0  0
  -21.1460   -6.9480   24.0950 C   0  0  0  0  0  3  0  0  0  0  0  0
  -21.0590   -6.1430   25.2490 C   0  0  0  0  0  3  0  0  0  0  0  0
  -21.1790   -4.7450   25.1460 C   0  0  0  0  0  0  0  0  0  0  0  0
  -21.3950   -4.1480   23.8910 C   0  0  0  0  0  3  0  0  0  0  0  0
  -21.4830   -4.9490   22.7380 C   0  0  0  0  0  0  0  0  0  0  0  0
  -21.6670   -4.3670   21.5280 F   0  0  0  0  0  0  0  0  0  0  0  0
  -21.0900   -3.9710   26.2530 F   0  0  0  0  0  0  0  0  0  0  0  0
  -23.4830  -13.4860   21.3440 C   0  0  0  0  0  0  0  0  0  0  0  0
  -22.8260  -12.8800   22.3270 N   0  0  0  0  0  0  0  0  0  0  0  0
  -23.1250  -14.5850   20.9230 O   0  0  0  0  0  0  0  0  0  0  0  0
  -23.1320  -11.9870   22.6860 H   0  0  0  0  0  0  0  0  0  0  0  0
  -22.0040  -13.3120   22.7230 H   0  0  0  0  0  0  0  0  0  0  0  0
  -26.1720  -14.7580   20.1110 N   0  0  0  0  0  0  0  0  0  0  0  0
  -25.5690  -15.5190   20.3990 H   0  0  0  0  0  0  0  0  0  0  0  0
  -27.0490  -15.0740   19.7150 H   0  0  0  0  0  0  0  0  0  0  0  0
  -26.7760  -23.4490   19.3090 C   0  0  0  0  0  2  0  0  0  0  0  0
  -27.7560  -24.5700   18.8770 C   0  0  0  0  0  2  0  0  0  0  0  0
  -28.1760  -25.5260   20.0180 C   0  0  0  0  0  2  0  0  0  0  0  0
  -28.2720  -26.9020   19.6320 O   0  0  0  0  0  0  0  0  0  0  0  0
  -24.4440  -31.7880   23.1100 C   0  0  0  0  0  0  0  0  0  0  0  0
  -27.0920  -27.6060   19.7030 C   0  0  0  0  0  0  0  0  0  0  0  0
  -23.2210  -30.4340   21.4470 C   0  0  0  0  0  3  0  0  0  0  0  0
  -24.6640  -29.0310   19.8940 C   0  0  0  0  0  0  0  0  0  0  0  0
  -25.7280  -30.8870   21.1730 C   0  0  0  0  0  2  0  0  0  0  0  0
  -25.8310  -29.5580   20.4590 C   0  0  0  0  0  0  0  0  0  0  0  0
  -27.0530  -28.8570   20.3580 C   0  0  0  0  0  3  0  0  0  0  0  0
  -25.9020  -27.0970   19.1350 C   0  0  0  0  0  3  0  0  0  0  0  0
  -24.6920  -27.7990   19.2290 C   0  0  0  0  0  3  0  0  0  0  0  0
  -23.3960  -29.8390   20.0280 C   0  0  0  0  0  2  0  0  0  0  0  0
  -24.4850  -31.0480   21.9670 N   0  0  0  0  0  0  0  0  0  0  0  0
  -23.3770  -32.0000   23.7000 O   0  0  0  0  0  0  0  0  0  0  0  0
  -22.6420  -29.3390   22.3720 C   0  0  0  0  0  0  0  0  0  0  0  0
  -21.3240  -29.1010   22.2620 N   0  0  0  0  0  0  0  0  0  0  0  0
  -23.3710  -28.7060   23.1390 O   0  0  0  0  0  0  0  0  0  0  0  0
  -20.7930  -29.6770   21.6240 H   0  0  0  0  0  0  0  0  0  0  0  0
  -18.0240  -27.7050   22.7210 C   0  0  0  0  0  0  0  0  0  0  0  0
  -20.5630  -28.0930   23.0000 C   0  0  0  0  0  3  0  0  0  0  0  0
  -20.7400  -26.6870   22.3800 C   0  0  0  0  0  2  0  0  0  0  0  0
  -19.6560  -26.3380   21.3560 C   0  0  0  0  0  2  0  0  0  0  0  0
  -18.2710  -26.3860   22.0070 C   0  0  0  0  0  2  0  0  0  0  0  0
  -19.0990  -28.5140   23.1730 C   0  0  0  0  0  0  0  0  0  0  0  0
  -18.8130  -29.7500   23.7950 C   0  0  0  0  0  3  0  0  0  0  0  0
  -17.4820  -30.1740   23.9730 C   0  0  0  0  0  3  0  0  0  0  0  0
  -16.4210  -29.3580   23.5430 C   0  0  0  0  0  3  0  0  0  0  0  0
  -16.6930  -28.1260   22.9220 C   0  0  0  0  0  3  0  0  0  0  0  0
  -25.7320  -32.4250   23.7170 C   0  0  0  0  0  3  0  0  0  0  0  0
  -25.4050  -33.8060   24.0930 N   0  0  0  0  0  0  0  0  0  0  0  0
  -25.7000  -34.8860   23.3580 C   0  0  0  0  0  0  0  0  0  0  0  0
  -26.3550  -34.8260   22.3130 O   0  0  0  0  0  0  0  0  0  0  0  0
  -24.8250  -33.9270   24.9110 H   0  0  0  0  0  0  0  0  0  0  0  0
  -23.9280  -36.6490   23.0940 C   0  0  0  0  0  1  0  0  0  0  0  0
  -25.1950  -36.2490   23.8630 C   0  0  0  0  0  3  0  0  0  0  0  0
  -27.3330  -37.1550   24.6680 C   0  0  0  0  0  1  0  0  0  0  0  0
  -26.2020  -37.3260   23.7570 N   0  0  0  0  0  0  0  0  0  0  0  0
  -25.7810  -38.2330   23.9420 H   0  0  0  0  0  0  0  0  0  0  0  0
  -26.3000  -31.6260   24.9530 C   0  0  1  0  0  0  0  0  0  0  0  0
  -25.2450  -31.3330   26.0480 C   0  0  0  0  0  1  0  0  0  0  0  0
  -26.8950  -30.2720   24.4970 C   0  0  0  0  0  1  0  0  0  0  0  0
  -27.4580  -32.4200   25.6040 C   0  0  0  0  0  1  0  0  0  0  0  0
  1  5  1  0
  3  6  1  0
  3  1  1  0
  4  2  1  0
  5  8  1  0
  5  2  1  0
  6  4  1  0
  6  7  1  6
  8 10  1  0
  9  8  2  0
 10 11  1  0
 11 13  1  0
 12 11  1  0
 14 15  1  0
 14 11  1  0
 16 22  1  0
 16 24  1  0
 17 22  1  0
 18 19  1  0
 18 17  1  0
 20 19  1  0
 20 29  1  0
 20 21  1  0
 22 21  1  0
 23 16  2  0
 24 15  1  0
 24 25  1  0
 26 27  2  0
 27 46  1  0
 28 27  1  0
 28 31  1  0
 29 30  1  0
 29 26  1  0
 30 28  2  0
 31 32  1  0
 32 33  2  0
 34 37  1  0
 34 33  1  0
 35 34  2  0
 36 35  1  0
 36 31  2  0
 37 38  1  0
 38 39  1  0
 39 40  2  0
 41 40  1  0
 41 45  1  0
 42 41  2  0
 43 38  2  0
 43 42  1  0
 44 43  1  0
 46 47  1  0
 47 49  1  0
 47 50  1  0
 48 46  2  0
 51 26  1  0
 51 52  1  0
 53 51  1  0
 54  6  1  0
 55 54  1  0
 55 56  1  0
 57 59  1  0
 57 56  1  0
 58 69  2  0
 59 64  1  0
 60 68  1  0
 60 70  1  0
 61 67  1  0
 61 63  1  0
 62 68  1  0
 63 62  1  0
 64 63  2  0
 65 66  1  0
 65 59  2  0
 66 61  2  0
 67 60  1  0
 68 58  1  0
 70 72  2  0
 71 70  1  0
 73 71  1  0
 74 83  2  0
 74 79  1  0
 75 71  1  0
 75 79  1  0
 76 75  1  0
 77 78  1  0
 77 76  1  0
 78 74  1  0
 79 80  2  0
 80 81  1  0
 82 81  2  0
 83 82  1  0
 84 58  1  0
 84 85  1  0
 84 94  1  0
 85 88  1  0
 86 90  1  0
 86 85  1  0
 87 86  2  0
 90 89  1  0
 92 90  1  0
 92 93  1  0
 92 91  1  0
 94 97  1  1
 94 95  1  0
 96 94  1  0
M  ISO  4  16 100  24 100  56 101  57 101
M  END
>  <TORSDO>  (15) 
F 24

>  <SCORE>  (15) 
-9.508

>  <name>  (15) 
15

>  <ligand_id>  (15) 
15

>  <original_smiles>  (15) 
[H]c1c([H])c([H])c2c(c1[H])C([H])([H])C([H])([H])C([H])([H])C2([H])N([H])C(=O)C1([H])N(C(=O)C([H])(N([H])C(=O)C([H])(N([H])C([H])([H])[H])C([H])([H])[H])C(C([H])([H])[H])(C([H])([H])[H])C([H])([H])[H])C([H])([H])c2c([H])c(OC([H])([H])C([H])([H])C([H])([H])[N+]3([H])C([H])([H])C([H])([H])C([H])(C(=O)C([H])([H])[N+]([H])([H])C([H])([H])C([H])([H])N([H])C(=O)N4C([H])([H])C([H])([H])C([H])([H])C([H])(n5nc(-c6c([H])c([H])c(Oc7c([H])c([H])c(F)c([H])c7F)c([H])c6[H])c(C(=O)N([H])[H])c5N([H])[H])C4([H])[H])C([H])([H])C3([H])[H])c([H])c([H])c2C1([H])[H]

>  <smiles>  (15) 
[H]c1c([H])c([H])c2c(c1[H])C([H])([H])C([H])([H])C([H])([H])C2([H])N([H])C(=O)C1([H])N(C(=O)C([H])(N([H])C(=O)C([H])(N([H])C([H])([H])[H])C([H])([H])[H])C(C([H])([H])[H])(C([H])([H])[H])C([H])([H])[H])C([H])([H])c2c([H])c(OC([H])([H])C([H])([H])C([H])([H])[N+]3([H])C([H])([H])C([H])([H])C([H])(C(=O)C([H])([H])[N+]([H])([H])C([H])([H])C([H])([H])N([H])C(=O)N4C([H])([H])C([H])([H])C([H])([H])C([H])(n5nc(-c6c([H])c([H])c(Oc7c([H])c([H])c(F)c([H])c7F)c([H])c6[H])c(C(=O)N([H])[H])c5N([H])[H])C4([H])[H])C([H])([H])C3([H])[H])c([H])c([H])c2C1([H])[H]

$$$$
16:0:0
     RDKit          3D

 92100  0  0  1  0  0  0  0  0999 V2000
  -28.2090  -21.3240   20.8090 C   0  0  0  0  0  0  0  0  0  0  0  0
  -28.3660  -22.1730   21.8330 N   0  0  0  0  0  0  0  0  0  0  0  0
  -27.7300  -21.6650   19.7250 O   0  0  0  0  0  0  0  0  0  0  0  0
  -28.7470  -21.7690   22.6800 H   0  0  0  0  0  0  0  0  0  0  0  0
  -27.6820  -18.8040   20.5700 C   0  0  0  0  0  2  0  0  0  0  0  0
  -28.5360  -17.5360   20.4870 C   0  0  0  0  0  2  0  0  0  0  0  0
  -29.9970  -19.4930   20.3810 C   0  0  0  0  0  2  0  0  0  0  0  0
  -28.6650  -19.8720   21.0650 C   0  0  0  0  0  3  0  0  0  0  0  0
  -29.8840  -18.0190   19.9310 C   0  0  0  0  0  3  0  0  0  0  0  0
  -31.0980  -17.1430   20.3300 C   0  0  0  0  0  2  0  0  0  0  0  0
  -31.3840  -14.7050   19.7850 C   0  0  0  0  0  0  0  0  0  0  0  0
  -31.0140  -12.4550   18.8370 C   0  0  0  0  0  2  0  0  0  0  0  0
  -30.0190  -12.5480   17.6620 C   0  0  0  0  0  2  0  0  0  0  0  0
  -28.5610  -12.4980   18.1650 C   0  0  0  0  0  2  0  0  0  0  0  0
  -28.3010  -13.4810   19.3370 C   0  0  0  0  0  3  0  0  0  0  0  0
  -29.3870  -13.3170   20.4230 C   0  0  0  0  0  2  0  0  0  0  0  0
  -30.6970  -13.5330   19.7860 N   0  0  0  0  0  0  0  0  0  0  0  0
  -32.4540  -14.8620   19.1850 O   0  0  0  0  0  0  0  0  0  0  0  0
  -30.7490  -15.7220   20.3920 N   0  0  0  0  0  0  0  0  0  0  0  0
  -29.8850  -15.4830   20.8560 H   0  0  0  0  0  0  0  0  0  0  0  0
  -26.0030  -14.2710   20.1890 C   0  0  0  0  0  0  0  0  0  0  0  0
  -24.9020  -13.5810   20.6180 C   0  0  0  0  0  0  0  0  0  0  0  0
  -25.2530  -12.1970   20.5540 C   0  0  0  0  0  0  0  0  0  0  0  0
  -26.9600  -13.3120   19.8920 N   0  0  0  0  0  0  0  0  0  0  0  0
  -26.5130  -12.0600   20.1670 N   0  0  0  0  0  0  0  0  0  0  0  0
  -24.4450  -10.9930   20.7820 C   0  0  0  0  0  0  0  0  0  0  0  0
  -24.8200  -10.0230   21.7390 C   0  0  0  0  0  3  0  0  0  0  0  0
  -24.0170   -8.8810   21.9520 C   0  0  0  0  0  3  0  0  0  0  0  0
  -22.8260   -8.7040   21.2080 C   0  0  0  0  0  0  0  0  0  0  0  0
  -22.4700   -9.6600   20.2410 C   0  0  0  0  0  3  0  0  0  0  0  0
  -23.2720  -10.7940   20.0270 C   0  0  0  0  0  3  0  0  0  0  0  0
  -21.9970   -7.6150   21.3300 O   0  0  0  0  0  0  0  0  0  0  0  0
  -21.8450   -6.9560   22.5220 C   0  0  0  0  0  0  0  0  0  0  0  0
  -21.3960   -7.6160   23.6860 C   0  0  0  0  0  3  0  0  0  0  0  0
  -21.1880   -6.8870   24.8740 C   0  0  0  0  0  3  0  0  0  0  0  0
  -21.4190   -5.4980   24.8980 C   0  0  0  0  0  0  0  0  0  0  0  0
  -21.8600   -4.8370   23.7370 C   0  0  0  0  0  3  0  0  0  0  0  0
  -22.0690   -5.5640   22.5530 C   0  0  0  0  0  0  0  0  0  0  0  0
  -22.4750   -4.9180   21.4320 F   0  0  0  0  0  0  0  0  0  0  0  0
  -21.2110   -4.7950   26.0360 F   0  0  0  0  0  0  0  0  0  0  0  0
  -23.5650  -14.1610   20.9800 C   0  0  0  0  0  0  0  0  0  0  0  0
  -22.8480  -13.5290   21.9030 N   0  0  0  0  0  0  0  0  0  0  0  0
  -23.1670  -15.2090   20.4730 O   0  0  0  0  0  0  0  0  0  0  0  0
  -23.1800  -12.6800   22.3340 H   0  0  0  0  0  0  0  0  0  0  0  0
  -21.9540  -13.9070   22.1840 H   0  0  0  0  0  0  0  0  0  0  0  0
  -26.2660  -15.6240   20.0090 N   0  0  0  0  0  0  0  0  0  0  0  0
  -25.5740  -16.3410   20.1950 H   0  0  0  0  0  0  0  0  0  0  0  0
  -27.1360  -15.9960   19.6520 H   0  0  0  0  0  0  0  0  0  0  0  0
  -27.9710  -23.5820   21.9140 C   0  0  0  0  0  2  0  0  0  0  0  0
  -28.8630  -24.5250   21.0760 C   0  0  0  0  0  2  0  0  0  0  0  0
  -28.7060  -26.0170   21.4450 C   0  0  0  0  0  2  0  0  0  0  0  0
  -28.5750  -26.8450   20.2860 O   0  0  0  0  0  0  0  0  0  0  0  0
  -24.5430  -31.8870   23.2760 C   0  0  0  0  0  0  0  0  0  0  0  0
  -27.4030  -27.5580   20.2630 C   0  0  0  0  0  0  0  0  0  0  0  0
  -23.4240  -30.4550   21.5990 C   0  0  0  0  0  3  0  0  0  0  0  0
  -24.9630  -28.9620   20.2170 C   0  0  0  0  0  0  0  0  0  0  0  0
  -25.9390  -30.8980   21.4690 C   0  0  0  0  0  2  0  0  0  0  0  0
  -26.0850  -29.5320   20.8310 C   0  0  0  0  0  0  0  0  0  0  0  0
  -27.3120  -28.8350   20.8570 C   0  0  0  0  0  3  0  0  0  0  0  0
  -26.2730  -26.9930   19.6440 C   0  0  0  0  0  3  0  0  0  0  0  0
  -25.0480  -27.6870   19.6260 C   0  0  0  0  0  3  0  0  0  0  0  0
  -23.6910  -29.7790   20.2260 C   0  0  0  0  0  2  0  0  0  0  0  0
  -24.6520  -31.0950   22.1740 N   0  0  0  0  0  0  0  0  0  0  0  0
  -23.4410  -32.1250   23.7900 O   0  0  0  0  0  0  0  0  0  0  0  0
  -22.7810  -29.4140   22.5390 C   0  0  0  0  0  0  0  0  0  0  0  0
  -21.4660  -29.1970   22.3800 N   0  0  0  0  0  0  0  0  0  0  0  0
  -23.4630  -28.8020   23.3660 O   0  0  0  0  0  0  0  0  0  0  0  0
  -20.9750  -29.7460   21.6870 H   0  0  0  0  0  0  0  0  0  0  0  0
  -18.1110  -27.9210   22.7890 C   0  0  0  0  0  0  0  0  0  0  0  0
  -20.6560  -28.2300   23.1190 C   0  0  0  0  0  3  0  0  0  0  0  0
  -20.8040  -26.8110   22.5240 C   0  0  0  0  0  2  0  0  0  0  0  0
  -19.7280  -26.4800   21.4820 C   0  0  0  0  0  2  0  0  0  0  0  0
  -18.3310  -26.5860   22.0980 C   0  0  0  0  0  2  0  0  0  0  0  0
  -19.2030  -28.7010   23.2530 C   0  0  0  0  0  0  0  0  0  0  0  0
  -18.9460  -29.9540   23.8530 C   0  0  0  0  0  3  0  0  0  0  0  0
  -17.6280  -30.4260   23.9940 C   0  0  0  0  0  3  0  0  0  0  0  0
  -16.5500  -29.6420   23.5480 C   0  0  0  0  0  3  0  0  0  0  0  0
  -16.7910  -28.3920   22.9510 C   0  0  0  0  0  3  0  0  0  0  0  0
  -25.7940  -32.5530   23.9340 C   0  0  0  0  0  3  0  0  0  0  0  0
  -25.4460  -33.9470   24.2360 N   0  0  0  0  0  0  0  0  0  0  0  0
  -25.7810  -34.9960   23.4720 C   0  0  0  0  0  0  0  0  0  0  0  0
  -26.4890  -34.8930   22.4660 O   0  0  0  0  0  0  0  0  0  0  0  0
  -24.8210  -34.1010   25.0140 H   0  0  0  0  0  0  0  0  0  0  0  0
  -24.0270  -36.7420   23.0310 C   0  0  0  0  0  1  0  0  0  0  0  0
  -25.2480  -36.3790   23.8920 C   0  0  0  0  0  3  0  0  0  0  0  0
  -27.3320  -37.3210   24.7820 C   0  0  0  0  0  1  0  0  0  0  0  0
  -26.2600  -37.4530   23.7990 N   0  0  0  0  0  0  0  0  0  0  0  0
  -25.8290  -38.3650   23.9190 H   0  0  0  0  0  0  0  0  0  0  0  0
  -26.2860  -31.8060   25.2320 C   0  0  1  0  0  0  0  0  0  0  0  0
  -25.1600  -31.5370   26.2570 C   0  0  0  0  0  1  0  0  0  0  0  0
  -26.9300  -30.4470   24.8700 C   0  0  0  0  0  1  0  0  0  0  0  0
  -27.3850  -32.6390   25.9340 C   0  0  0  0  0  1  0  0  0  0  0  0
  1  2  1  0
  2 49  1  0
  2  4  1  0
  3  1  2  0
  5  8  1  0
  6  5  1  0
  7  8  1  0
  8  1  1  0
  9 10  1  0
  9  7  1  0
  9  6  1  0
 10 19  1  0
 11 17  1  0
 11 19  1  0
 12 17  1  0
 13 14  1  0
 13 12  1  0
 15 14  1  0
 15 24  1  0
 15 16  1  0
 17 16  1  0
 18 11  2  0
 19 20  1  0
 21 22  2  0
 22 41  1  0
 23 22  1  0
 23 26  1  0
 24 25  1  0
 24 21  1  0
 25 23  2  0
 26 27  1  0
 27 28  2  0
 29 32  1  0
 29 28  1  0
 30 29  2  0
 31 30  1  0
 31 26  2  0
 32 33  1  0
 33 38  2  0
 33 34  1  0
 34 35  2  0
 35 36  1  0
 36 40  1  0
 37 36  2  0
 38 37  1  0
 39 38  1  0
 41 42  1  0
 42 45  1  0
 42 44  1  0
 43 41  2  0
 46 21  1  0
 46 47  1  0
 48 46  1  0
 50 51  1  0
 50 49  1  0
 52 51  1  0
 53 64  2  0
 54 52  1  0
 54 59  1  0
 55 63  1  0
 55 65  1  0
 56 62  1  0
 56 58  1  0
 57 63  1  0
 58 59  2  0
 58 57  1  0
 60 54  2  0
 61 60  1  0
 61 56  2  0
 62 55  1  0
 63 53  1  0
 65 67  2  0
 66 65  1  0
 68 66  1  0
 69 78  2  0
 69 74  1  0
 70 66  1  0
 70 74  1  0
 71 70  1  0
 72 73  1  0
 72 71  1  0
 73 69  1  0
 74 75  2  0
 75 76  1  0
 77 76  2  0
 78 77  1  0
 79 53  1  0
 79 80  1  0
 79 89  1  0
 80 83  1  0
 81 85  1  0
 81 80  1  0
 82 81  2  0
 85 84  1  0
 87 85  1  0
 87 88  1  0
 87 86  1  0
 89 92  1  1
 89 90  1  0
 91 89  1  0
M  ISO  4  11 100  19 100  51 101  52 101
M  END
>  <TORSDO>  (16) 
F 21

>  <SCORE>  (16) 
-12.384

>  <name>  (16) 
16

>  <ligand_id>  (16) 
16

>  <original_smiles>  (16) 
[H]c1c([H])c([H])c2c(c1[H])C([H])([H])C([H])([H])C([H])([H])C2([H])N([H])C(=O)C1([H])N(C(=O)C([H])(N([H])C(=O)C([H])(N([H])C([H])([H])[H])C([H])([H])[H])C(C([H])([H])[H])(C([H])([H])[H])C([H])([H])[H])C([H])([H])c2c([H])c(OC([H])([H])C([H])([H])C([H])([H])N([H])C(=O)C3([H])C([H])([H])C([H])([H])C([H])(C([H])([H])N([H])C(=O)N4C([H])([H])C([H])([H])C([H])([H])C([H])(n5nc(-c6c([H])c([H])c(Oc7c([H])c([H])c(F)c([H])c7F)c([H])c6[H])c(C(=O)N([H])[H])c5N([H])[H])C4([H])[H])C3([H])[H])c([H])c([H])c2C1([H])[H]

>  <smiles>  (16) 
[H]c1c([H])c([H])c2c(c1[H])C([H])([H])C([H])([H])C([H])([H])C2([H])N([H])C(=O)C1([H])N(C(=O)C([H])(N([H])C(=O)C([H])(N([H])C([H])([H])[H])C([H])([H])[H])C(C([H])([H])[H])(C([H])([H])[H])C([H])([H])[H])C([H])([H])c2c([H])c(OC([H])([H])C([H])([H])C([H])([H])N([H])C(=O)C3([H])C([H])([H])C([H])([H])C([H])(C([H])([H])N([H])C(=O)N4C([H])([H])C([H])([H])C([H])([H])C([H])(n5nc(-c6c([H])c([H])c(Oc7c([H])c([H])c(F)c([H])c7F)c([H])c6[H])c(C(=O)N([H])[H])c5N([H])[H])C4([H])[H])C3([H])[H])c([H])c([H])c2C1([H])[H]

$$$$
17:0:0
     RDKit          3D

 91 99  0  0  1  0  0  0  0  0999 V2000
  -29.3910  -20.2520   21.1390 C   0  0  0  0  0  2  0  0  0  0  0  0
  -27.7730  -18.5190   18.3640 C   0  0  0  0  0  2  0  0  0  0  0  0
  -28.5650  -17.3430   18.9160 C   0  0  0  0  0  2  0  0  0  0  0  0
  -28.5490  -19.7470   18.8440 C   0  0  0  0  0  2  0  0  0  0  0  0
  -29.1050  -17.8780   20.2470 C   0  0  0  0  0  3  0  0  0  0  0  0
  -29.4240  -19.3210   19.9690 N   0  0  2  0  0  4  0  0  0  0  0  0
  -30.3650  -19.3370   19.6060 H   0  0  0  0  0  0  0  0  0  0  0  0
  -30.2810  -17.0090   20.7940 C   0  0  0  0  0  2  0  0  0  0  0  0
  -30.6620  -14.5290   20.4710 C   0  0  0  0  0  0  0  0  0  0  0  0
  -30.3720  -12.3670   19.3280 C   0  0  0  0  0  2  0  0  0  0  0  0
  -29.4250  -12.5630   18.1250 C   0  0  0  0  0  2  0  0  0  0  0  0
  -27.9530  -12.4170   18.5600 C   0  0  0  0  0  2  0  0  0  0  0  0
  -27.6140  -13.2550   19.8190 C   0  0  0  0  0  3  0  0  0  0  0  0
  -28.6720  -13.0470   20.9290 C   0  0  0  0  0  2  0  0  0  0  0  0
  -29.9940  -13.3500   20.3570 N   0  0  0  0  0  0  0  0  0  0  0  0
  -31.7980  -14.6980   20.0230 O   0  0  0  0  0  0  0  0  0  0  0  0
  -29.9340  -15.5710   20.9210 N   0  0  0  0  0  0  0  0  0  0  0  0
  -29.0180  -15.3470   21.2840 H   0  0  0  0  0  0  0  0  0  0  0  0
  -25.2140  -13.8750   20.5150 C   0  0  0  0  0  0  0  0  0  0  0  0
  -24.1450  -13.1060   20.8870 C   0  0  0  0  0  0  0  0  0  0  0  0
  -24.6030  -11.7530   20.8650 C   0  0  0  0  0  0  0  0  0  0  0  0
  -26.2590  -12.9890   20.2960 N   0  0  0  0  0  0  0  0  0  0  0  0
  -25.8940  -11.7100   20.5620 N   0  0  0  0  0  0  0  0  0  0  0  0
  -23.8770  -10.4940   21.0600 C   0  0  0  0  0  0  0  0  0  0  0  0
  -24.3210   -9.5200   21.9810 C   0  0  0  0  0  3  0  0  0  0  0  0
  -23.5950   -8.3220   22.1620 C   0  0  0  0  0  3  0  0  0  0  0  0
  -22.4120   -8.0920   21.4220 C   0  0  0  0  0  0  0  0  0  0  0  0
  -21.9880   -9.0530   20.4890 C   0  0  0  0  0  3  0  0  0  0  0  0
  -22.7140  -10.2420   20.3060 C   0  0  0  0  0  3  0  0  0  0  0  0
  -21.6570   -6.9480   21.5140 O   0  0  0  0  0  0  0  0  0  0  0  0
  -21.6360   -6.1890   22.6570 C   0  0  0  0  0  0  0  0  0  0  0  0
  -21.2550   -6.7310   23.9040 C   0  0  0  0  0  3  0  0  0  0  0  0
  -21.1800   -5.8990   25.0390 C   0  0  0  0  0  3  0  0  0  0  0  0
  -21.4770   -4.5270   24.9280 C   0  0  0  0  0  0  0  0  0  0  0  0
  -21.8510   -3.9860   23.6860 C   0  0  0  0  0  3  0  0  0  0  0  0
  -21.9270   -4.8140   22.5530 C   0  0  0  0  0  0  0  0  0  0  0  0
  -22.2670   -4.2830   21.3540 F   0  0  0  0  0  0  0  0  0  0  0  0
  -21.3980   -3.7270   26.0170 F   0  0  0  0  0  0  0  0  0  0  0  0
  -22.7460  -13.5870   21.1520 C   0  0  0  0  0  0  0  0  0  0  0  0
  -22.0160  -12.8960   22.0200 N   0  0  0  0  0  0  0  0  0  0  0  0
  -22.3110  -14.6090   20.6230 O   0  0  0  0  0  0  0  0  0  0  0  0
  -22.3820  -12.0680   22.4650 H   0  0  0  0  0  0  0  0  0  0  0  0
  -21.0780  -13.1970   22.2410 H   0  0  0  0  0  0  0  0  0  0  0  0
  -25.3830  -15.2440   20.3240 N   0  0  0  0  0  0  0  0  0  0  0  0
  -24.6050  -15.8900   20.3880 H   0  0  0  0  0  0  0  0  0  0  0  0
  -26.2130  -15.6630   19.9300 H   0  0  0  0  0  0  0  0  0  0  0  0
  -29.9100  -21.7110   20.8670 C   0  0  0  0  0  3  0  0  0  0  0  0
  -28.8580  -22.7640   20.4080 C   0  0  0  0  0  3  0  0  0  0  0  0
  -29.2830  -24.2650   20.4970 C   0  0  0  0  0  2  0  0  0  0  0  0
  -28.1380  -25.2140   20.0530 C   0  0  0  0  0  2  0  0  0  0  0  0
  -28.3460  -26.6380   20.2180 O   0  0  0  0  0  0  0  0  0  0  0  0
  -24.5820  -31.9120   23.2500 C   0  0  0  0  0  0  0  0  0  0  0  0
  -27.1990  -27.4260   20.1710 C   0  0  0  0  0  0  0  0  0  0  0  0
  -23.3730  -30.5200   21.6050 C   0  0  0  0  0  3  0  0  0  0  0  0
  -24.8200  -28.9810   20.1790 C   0  0  0  0  0  0  0  0  0  0  0  0
  -25.9070  -30.8550   21.4150 C   0  0  0  0  0  2  0  0  0  0  0  0
  -25.9850  -29.4840   20.7700 C   0  0  0  0  0  0  0  0  0  0  0  0
  -27.1780  -28.7160   20.7600 C   0  0  0  0  0  3  0  0  0  0  0  0
  -26.0090  -26.9580   19.5590 C   0  0  0  0  0  3  0  0  0  0  0  0
  -24.8290  -27.7180   19.5700 C   0  0  0  0  0  3  0  0  0  0  0  0
  -23.5820  -29.8460   20.2250 C   0  0  0  0  0  2  0  0  0  0  0  0
  -24.6390  -31.1100   22.1490 N   0  0  0  0  0  0  0  0  0  0  0  0
  -23.5010  -32.1900   23.7870 O   0  0  0  0  0  0  0  0  0  0  0  0
  -22.7140  -29.5000   22.5620 C   0  0  0  0  0  0  0  0  0  0  0  0
  -21.3880  -29.3230   22.4330 N   0  0  0  0  0  0  0  0  0  0  0  0
  -23.3920  -28.8710   23.3790 O   0  0  0  0  0  0  0  0  0  0  0  0
  -20.9000  -29.8860   21.7510 H   0  0  0  0  0  0  0  0  0  0  0  0
  -18.0120  -28.1260   22.9140 C   0  0  0  0  0  0  0  0  0  0  0  0
  -20.5670  -28.3870   23.2020 C   0  0  0  0  0  3  0  0  0  0  0  0
  -20.6730  -26.9520   22.6340 C   0  0  0  0  0  2  0  0  0  0  0  0
  -19.5790  -26.6240   21.6130 C   0  0  0  0  0  2  0  0  0  0  0  0
  -18.1940  -26.7730   22.2470 C   0  0  0  0  0  2  0  0  0  0  0  0
  -19.1270  -28.8900   23.3490 C   0  0  0  0  0  0  0  0  0  0  0  0
  -18.9050  -30.1570   23.9320 C   0  0  0  0  0  3  0  0  0  0  0  0
  -17.6000  -30.6600   24.0850 C   0  0  0  0  0  3  0  0  0  0  0  0
  -16.4980  -29.8930   23.6670 C   0  0  0  0  0  3  0  0  0  0  0  0
  -16.7050  -28.6280   23.0890 C   0  0  0  0  0  3  0  0  0  0  0  0
  -25.8690  -32.5390   23.8710 C   0  0  0  0  0  3  0  0  0  0  0  0
  -25.5660  -33.9390   24.1990 N   0  0  0  0  0  0  0  0  0  0  0  0
  -25.9020  -34.9890   23.4370 C   0  0  0  0  0  0  0  0  0  0  0  0
  -26.5700  -34.8810   22.4050 O   0  0  0  0  0  0  0  0  0  0  0  0
  -24.9710  -34.0970   24.9990 H   0  0  0  0  0  0  0  0  0  0  0  0
  -24.1780  -36.7850   23.0800 C   0  0  0  0  0  1  0  0  0  0  0  0
  -25.4190  -36.3790   23.8910 C   0  0  0  0  0  3  0  0  0  0  0  0
  -27.5590  -37.2570   24.7130 C   0  0  0  0  0  1  0  0  0  0  0  0
  -26.4550  -37.4280   23.7730 N   0  0  0  0  0  0  0  0  0  0  0  0
  -26.0540  -38.3500   23.9190 H   0  0  0  0  0  0  0  0  0  0  0  0
  -26.3840  -31.7650   25.1450 C   0  0  1  0  0  0  0  0  0  0  0  0
  -25.2910  -31.5300   26.2140 C   0  0  0  0  0  1  0  0  0  0  0  0
  -26.9590  -30.3850   24.7500 C   0  0  0  0  0  1  0  0  0  0  0  0
  -27.5390  -32.5520   25.8050 C   0  0  0  0  0  1  0  0  0  0  0  0
  2  4  1  0
  2  3  1  0
  3  5  1  0
  4  6  1  0
  5  8  1  0
  6  5  1  0
  6  1  1  0
  6  7  1  6
  8 17  1  0
  9 17  1  0
 10 15  1  0
 11 12  1  0
 11 10  1  0
 13 12  1  0
 13 22  1  0
 13 14  1  0
 15  9  1  0
 15 14  1  0
 16  9  2  0
 17 18  1  0
 19 20  2  0
 20 39  1  0
 21 20  1  0
 21 24  1  0
 22 19  1  0
 22 23  1  0
 23 21  2  0
 24 25  1  0
 25 26  2  0
 27 30  1  0
 27 26  1  0
 28 27  2  0
 29 28  1  0
 29 24  2  0
 30 31  1  0
 31 32  1  0
 32 33  2  0
 34 33  1  0
 34 38  1  0
 35 34  2  0
 36 31  2  0
 36 35  1  0
 37 36  1  0
 39 40  1  0
 40 43  1  0
 40 42  1  0
 41 39  2  0
 44 45  1  0
 44 19  1  0
 46 44  1  0
 47  1  1  0
 48 49  1  0
 48 47  2  0
 50 51  1  0
 50 49  1  0
 52 63  2  0
 53 51  1  0
 53 58  1  0
 54 62  1  0
 54 64  1  0
 55 61  1  0
 55 57  1  0
 56 62  1  0
 57 56  1  0
 58 57  2  0
 59 60  1  0
 59 53  2  0
 60 55  2  0
 61 54  1  0
 62 52  1  0
 64 66  2  0
 65 64  1  0
 67 65  1  0
 68 77  2  0
 68 73  1  0
 69 65  1  0
 69 73  1  0
 70 69  1  0
 71 72  1  0
 71 70  1  0
 72 68  1  0
 73 74  2  0
 74 75  1  0
 76 75  2  0
 77 76  1  0
 78 52  1  0
 78 79  1  0
 78 88  1  0
 79 82  1  0
 80 84  1  0
 80 79  1  0
 81 80  2  0
 84 83  1  0
 86 84  1  0
 86 87  1  0
 86 85  1  0
 88 91  1  1
 88 89  1  0
 90 88  1  0
M  ISO  4   9 100  17 100  50 101  51 101
M  END
>  <TORSDO>  (17) 
F 22

>  <SCORE>  (17) 
-13.296

>  <name>  (17) 
17

>  <ligand_id>  (17) 
17

>  <original_smiles>  (17) 
[H]c1c([H])c([H])c2c(c1[H])C([H])([H])C([H])([H])C([H])([H])C2([H])N([H])C(=O)C1([H])N(C(=O)C([H])(N([H])C(=O)C([H])(N([H])C([H])([H])[H])C([H])([H])[H])C(C([H])([H])[H])(C([H])([H])[H])C([H])([H])[H])C([H])([H])c2c([H])c(OC([H])([H])C([H])([H])C([H])([H])C([H])([H])C([H])([H])[N+]3([H])C([H])([H])C([H])([H])C([H])([H])C3([H])C([H])([H])N([H])C(=O)N3C([H])([H])C([H])([H])C([H])([H])C([H])(n4nc(-c5c([H])c([H])c(Oc6c([H])c([H])c(F)c([H])c6F)c([H])c5[H])c(C(=O)N([H])[H])c4N([H])[H])C3([H])[H])c([H])c([H])c2C1([H])[H]

>  <smiles>  (17) 
[H]c1c([H])c([H])c2c(c1[H])C([H])([H])C([H])([H])C([H])([H])C2([H])N([H])C(=O)C1([H])N(C(=O)C([H])(N([H])C(=O)C([H])(N([H])C([H])([H])[H])C([H])([H])[H])C(C([H])([H])[H])(C([H])([H])[H])C([H])([H])[H])C([H])([H])c2c([H])c(OC([H])([H])C([H])([H])C([H])([H])C([H])([H])C([H])([H])[N+]3([H])C([H])([H])C([H])([H])C([H])([H])C3([H])C([H])([H])N([H])C(=O)N3C([H])([H])C([H])([H])C([H])([H])C([H])(n4nc(-c5c([H])c([H])c(Oc6c([H])c([H])c(F)c([H])c6F)c([H])c5[H])c(C(=O)N([H])[H])c4N([H])[H])C3([H])[H])c([H])c([H])c2C1([H])[H]

$$$$
18:0:0
     RDKit          3D

 98106  0  0  1  0  0  0  0  0999 V2000
  -30.7520  -14.6100   20.4520 C   0  0  0  0  0  0  0  0  0  0  0  0
  -30.4640  -12.3590   19.4450 C   0  0  0  0  0  2  0  0  0  0  0  0
  -29.5580  -12.4230   18.1980 C   0  0  0  0  0  2  0  0  0  0  0  0
  -28.0780  -12.2600   18.5980 C   0  0  0  0  0  2  0  0  0  0  0  0
  -27.6860  -13.1750   19.7850 C   0  0  0  0  0  3  0  0  0  0  0  0
  -28.7270  -13.0630   20.9340 C   0  0  0  0  0  2  0  0  0  0  0  0
  -30.0300  -13.4380   20.3670 N   0  0  0  0  0  0  0  0  0  0  0  0
  -31.9370  -14.5760   20.1080 O   0  0  0  0  0  0  0  0  0  0  0  0
  -28.7410  -16.1740   20.5850 C   0  0  0  0  0  2  0  0  0  0  0  0
  -31.1000  -17.0480   20.5600 C   0  0  0  0  0  2  0  0  0  0  0  0
  -28.1710  -17.5020   21.1270 C   0  0  0  0  0  2  0  0  0  0  0  0
  -30.8370  -18.4100   21.3070 C   0  0  0  0  0  3  0  0  0  0  0  0
  -29.7820  -19.3570   20.6210 C   0  0  0  0  0  3  0  0  0  0  0  0
  -30.1840  -15.8600   20.7310 N   0  0  0  0  0  0  0  0  0  0  0  0
  -28.5240  -18.6570   20.2830 N   0  0  0  0  0  4  0  0  0  0  0  0
  -27.7680  -19.3220   20.3310 H   0  0  0  0  0  0  0  0  0  0  0  0
  -28.5650  -18.3490   19.3250 H   0  0  0  0  0  0  0  0  0  0  0  0
  -25.2900  -13.8530   20.4210 C   0  0  0  0  0  0  0  0  0  0  0  0
  -24.2030  -13.1090   20.7900 C   0  0  0  0  0  0  0  0  0  0  0  0
  -24.6460  -11.7510   20.8050 C   0  0  0  0  0  0  0  0  0  0  0  0
  -26.3250  -12.9460   20.2410 N   0  0  0  0  0  0  0  0  0  0  0  0
  -25.9410  -11.6810   20.5330 N   0  0  0  0  0  0  0  0  0  0  0  0
  -23.8990  -10.5050   21.0030 C   0  0  0  0  0  0  0  0  0  0  0  0
  -24.3190   -9.5400   21.9440 C   0  0  0  0  0  3  0  0  0  0  0  0
  -23.5750   -8.3560   22.1300 C   0  0  0  0  0  3  0  0  0  0  0  0
  -22.4010   -8.1300   21.3750 C   0  0  0  0  0  0  0  0  0  0  0  0
  -22.0020   -9.0830   20.4210 C   0  0  0  0  0  3  0  0  0  0  0  0
  -22.7460  -10.2590   20.2320 C   0  0  0  0  0  3  0  0  0  0  0  0
  -21.6300   -6.9970   21.4710 O   0  0  0  0  0  0  0  0  0  0  0  0
  -21.5890   -6.2520   22.6210 C   0  0  0  0  0  0  0  0  0  0  0  0
  -21.2140   -6.8150   23.8610 C   0  0  0  0  0  3  0  0  0  0  0  0
  -21.1180   -5.9980   25.0050 C   0  0  0  0  0  3  0  0  0  0  0  0
  -21.3850   -4.6190   24.9100 C   0  0  0  0  0  0  0  0  0  0  0  0
  -21.7520   -4.0550   23.6750 C   0  0  0  0  0  3  0  0  0  0  0  0
  -21.8520   -4.8710   22.5330 C   0  0  0  0  0  0  0  0  0  0  0  0
  -22.1860   -4.3200   21.3420 F   0  0  0  0  0  0  0  0  0  0  0  0
  -21.2840   -3.8320   26.0060 F   0  0  0  0  0  0  0  0  0  0  0  0
  -22.8060  -13.6130   21.0080 C   0  0  0  0  0  0  0  0  0  0  0  0
  -22.0450  -12.9570   21.8760 N   0  0  0  0  0  0  0  0  0  0  0  0
  -22.3970  -14.6250   20.4400 O   0  0  0  0  0  0  0  0  0  0  0  0
  -22.3870  -12.1390   22.3580 H   0  0  0  0  0  0  0  0  0  0  0  0
  -21.1050  -13.2780   22.0580 H   0  0  0  0  0  0  0  0  0  0  0  0
  -25.4690  -15.2140   20.1910 N   0  0  0  0  0  0  0  0  0  0  0  0
  -24.6490  -15.8100   20.1610 H   0  0  0  0  0  0  0  0  0  0  0  0
  -26.2170  -15.5500   19.6010 H   0  0  0  0  0  0  0  0  0  0  0  0
  -29.4750  -20.7110   21.3670 C   0  0  0  0  0  2  0  0  0  0  0  0
  -29.8960  -22.0020   20.6180 C   0  0  0  0  0  0  0  0  0  0  0  0
  -29.1360  -23.1050   20.7680 N   0  0  0  0  0  0  0  0  0  0  0  0
  -30.9110  -21.9880   19.9170 O   0  0  0  0  0  0  0  0  0  0  0  0
  -28.3410  -23.0380   21.3900 H   0  0  0  0  0  0  0  0  0  0  0  0
  -29.3400  -24.4170   20.1210 C   0  0  0  0  0  2  0  0  0  0  0  0
  -28.0620  -25.2960   20.2010 C   0  0  0  0  0  2  0  0  0  0  0  0
  -28.2060  -26.6440   19.6960 O   0  0  0  0  0  0  0  0  0  0  0  0
  -24.4860  -31.7120   23.0620 C   0  0  0  0  0  0  0  0  0  0  0  0
  -27.0460  -27.4000   19.7310 C   0  0  0  0  0  0  0  0  0  0  0  0
  -23.2310  -30.3680   21.4100 C   0  0  0  0  0  3  0  0  0  0  0  0
  -24.6440  -28.9020   19.8720 C   0  0  0  0  0  0  0  0  0  0  0  0
  -25.7480  -30.7540   21.1370 C   0  0  0  0  0  2  0  0  0  0  0  0
  -25.8220  -29.4090   20.4370 C   0  0  0  0  0  0  0  0  0  0  0  0
  -27.0280  -28.6700   20.3560 C   0  0  0  0  0  3  0  0  0  0  0  0
  -25.8510  -26.9190   19.1480 C   0  0  0  0  0  3  0  0  0  0  0  0
  -24.6560  -27.6580   19.2210 C   0  0  0  0  0  3  0  0  0  0  0  0
  -23.3960  -29.7460   19.9980 C   0  0  0  0  0  2  0  0  0  0  0  0
  -24.5090  -30.9560   21.9270 N   0  0  0  0  0  0  0  0  0  0  0  0
  -23.4230  -31.9530   23.6520 O   0  0  0  0  0  0  0  0  0  0  0  0
  -22.6200  -29.3040   22.3520 C   0  0  0  0  0  0  0  0  0  0  0  0
  -21.2920  -29.1220   22.2690 N   0  0  0  0  0  0  0  0  0  0  0  0
  -23.3360  -28.6480   23.1130 O   0  0  0  0  0  0  0  0  0  0  0  0
  -20.7750  -29.7030   21.6240 H   0  0  0  0  0  0  0  0  0  0  0  0
  -17.9430  -27.8890   22.8430 C   0  0  0  0  0  0  0  0  0  0  0  0
  -20.5090  -28.1500   23.0310 C   0  0  0  0  0  3  0  0  0  0  0  0
  -20.5950  -26.7430   22.3950 C   0  0  0  0  0  2  0  0  0  0  0  0
  -19.4580  -26.4550   21.4090 C   0  0  0  0  0  2  0  0  0  0  0  0
  -18.1010  -26.5670   22.1090 C   0  0  0  0  0  2  0  0  0  0  0  0
  -19.0740  -28.6390   23.2630 C   0  0  0  0  0  0  0  0  0  0  0  0
  -18.8720  -29.8760   23.9120 C   0  0  0  0  0  3  0  0  0  0  0  0
  -17.5720  -30.3640   24.1440 C   0  0  0  0  0  3  0  0  0  0  0  0
  -16.4570  -29.6100   23.7410 C   0  0  0  0  0  3  0  0  0  0  0  0
  -16.6440  -28.3740   23.0960 C   0  0  0  0  0  3  0  0  0  0  0  0
  -25.7890  -32.3290   23.6600 C   0  0  0  0  0  3  0  0  0  0  0  0
  -25.4740  -33.7000   24.0840 N   0  0  0  0  0  0  0  0  0  0  0  0
  -25.7530  -34.7990   23.3710 C   0  0  0  0  0  0  0  0  0  0  0  0
  -26.3750  -34.7670   22.3060 O   0  0  0  0  0  0  0  0  0  0  0  0
  -24.9140  -33.7970   24.9180 H   0  0  0  0  0  0  0  0  0  0  0  0
  -23.9790  -36.5740   23.2040 C   0  0  0  0  0  1  0  0  0  0  0  0
  -25.2660  -36.1500   23.9290 C   0  0  0  0  0  3  0  0  0  0  0  0
  -27.4270  -37.0270   24.6980 C   0  0  0  0  0  1  0  0  0  0  0  0
  -26.2730  -37.2270   23.8240 N   0  0  0  0  0  0  0  0  0  0  0  0
  -25.8610  -38.1290   24.0450 H   0  0  0  0  0  0  0  0  0  0  0  0
  -26.3770  -31.4940   24.8610 C   0  0  1  0  0  0  0  0  0  0  0  0
  -25.3410  -31.1790   25.9650 C   0  0  0  0  0  1  0  0  0  0  0  0
  -26.9590  -30.1510   24.3610 C   0  0  0  0  0  1  0  0  0  0  0  0
  -27.5490  -32.2660   25.5130 C   0  0  0  0  0  1  0  0  0  0  0  0
  -32.1890  -19.1500   21.5670 C   0  0  0  0  0  2  0  0  0  0  0  0
  -32.8610  -19.6700   20.3560 N   0  0  0  0  0  4  0  0  0  0  0  0
  -32.9820  -18.9620   19.6530 H   0  0  0  0  0  0  0  0  0  0  0  0
  -33.7770  -20.0000   20.6050 H   0  0  0  0  0  0  0  0  0  0  0  0
  -32.3630  -20.4610   19.9700 H   0  0  0  0  0  0  0  0  0  0  0  0
  1 14  1  0
  2  7  1  0
  3  4  1  0
  3  2  1  0
  5  4  1  0
  5 21  1  0
  5  6  1  0
  7  1  1  0
  7  6  1  0
  8  1  2  0
  9 14  1  0
  9 11  1  0
 10 14  1  0
 10 12  1  0
 12 94  1  0
 13 12  1  0
 13 46  1  0
 15 16  1  0
 15 13  1  0
 15 11  1  0
 17 15  1  0
 18 19  2  0
 19 20  1  0
 19 38  1  0
 20 23  1  0
 21 18  1  0
 21 22  1  0
 22 20  2  0
 23 24  1  0
 24 25  2  0
 26 29  1  0
 26 25  1  0
 27 26  2  0
 28 27  1  0
 28 23  2  0
 29 30  1  0
 30 31  1  0
 31 32  2  0
 33 32  1  0
 33 37  1  0
 34 33  2  0
 35 30  2  0
 35 34  1  0
 36 35  1  0
 38 39  1  0
 39 42  1  0
 39 41  1  0
 40 38  2  0
 43 18  1  0
 44 43  1  0
 45 43  1  0
 47 48  1  0
 47 46  1  0
 48 50  1  0
 49 47  2  0
 51 52  1  0
 51 48  1  0
 53 55  1  0
 53 52  1  0
 54 65  2  0
 55 60  1  0
 56 64  1  0
 56 66  1  0
 57 63  1  0
 57 59  1  0
 58 64  1  0
 59 58  1  0
 60 59  2  0
 61 62  1  0
 61 55  2  0
 62 57  2  0
 63 56  1  0
 64 54  1  0
 66 68  2  0
 67 66  1  0
 69 67  1  0
 70 79  2  0
 70 75  1  0
 71 67  1  0
 71 75  1  0
 72 71  1  0
 73 74  1  0
 73 72  1  0
 74 70  1  0
 75 76  2  0
 76 77  1  0
 78 77  2  0
 79 78  1  0
 80 54  1  0
 80 81  1  0
 80 90  1  0
 81 84  1  0
 82 86  1  0
 82 81  1  0
 83 82  2  0
 86 85  1  0
 88 86  1  0
 88 89  1  0
 88 87  1  0
 90 93  1  1
 90 91  1  0
 92 90  1  0
 95 97  1  0
 95 94  1  0
 96 95  1  0
 98 95  1  0
M  ISO  4   1 100  14 100  52 101  53 101
M  END
>  <TORSDO>  (18) 
F 21

>  <SCORE>  (18) 
-12.880

>  <name>  (18) 
18

>  <ligand_id>  (18) 
18

>  <original_smiles>  (18) 
[H]c1c([H])c([H])c2c(c1[H])C([H])([H])C([H])([H])C([H])([H])C2([H])N([H])C(=O)C1([H])N(C(=O)C([H])(N([H])C(=O)C([H])(N([H])C([H])([H])[H])C([H])([H])[H])C(C([H])([H])[H])(C([H])([H])[H])C([H])([H])[H])C([H])([H])c2c([H])c(OC([H])([H])C([H])([H])N([H])C(=O)C([H])([H])C3([H])C([H])(C([H])([H])[N+]([H])([H])[H])C([H])([H])N(C(=O)N4C([H])([H])C([H])([H])C([H])([H])C([H])(n5nc(-c6c([H])c([H])c(Oc7c([H])c([H])c(F)c([H])c7F)c([H])c6[H])c(C(=O)N([H])[H])c5N([H])[H])C4([H])[H])C([H])([H])C([H])([H])[N+]3([H])[H])c([H])c([H])c2C1([H])[H]

>  <smiles>  (18) 
[H]c1c([H])c([H])c2c(c1[H])C([H])([H])C([H])([H])C([H])([H])C2([H])N([H])C(=O)C1([H])N(C(=O)C([H])(N([H])C(=O)C([H])(N([H])C([H])([H])[H])C([H])([H])[H])C(C([H])([H])[H])(C([H])([H])[H])C([H])([H])[H])C([H])([H])c2c([H])c(OC([H])([H])C([H])([H])N([H])C(=O)C([H])([H])C3([H])C([H])(C([H])([H])[N+]([H])([H])[H])C([H])([H])N(C(=O)N4C([H])([H])C([H])([H])C([H])([H])C([H])(n5nc(-c6c([H])c([H])c(Oc7c([H])c([H])c(F)c([H])c7F)c([H])c6[H])c(C(=O)N([H])[H])c5N([H])[H])C4([H])[H])C([H])([H])C([H])([H])[N+]3([H])[H])c([H])c([H])c2C1([H])[H]

$$$$
19:0:0
     RDKit          3D

 97104  0  0  1  0  0  0  0  0999 V2000
  -33.2070  -22.7060   21.8200 C   0  0  0  0  0  2  0  0  0  0  0  0
  -32.1290  -20.4570   21.7140 C   0  0  0  0  0  0  0  0  0  0  0  0
  -32.8020  -21.4700   21.1550 N   0  0  0  0  0  0  0  0  0  0  0  0
  -31.7670  -20.4630   22.8930 O   0  0  0  0  0  0  0  0  0  0  0  0
  -33.0620  -21.3730   20.1800 H   0  0  0  0  0  0  0  0  0  0  0  0
  -31.7910  -19.2720   20.8190 C   0  0  0  0  0  2  0  0  0  0  0  0
  -31.6050  -18.0490   21.6220 N   0  0  0  0  0  4  0  0  0  0  0  0
  -31.0880  -18.3100   22.4480 H   0  0  0  0  0  0  0  0  0  0  0  0
  -32.5120  -17.7450   21.9350 H   0  0  0  0  0  0  0  0  0  0  0  0
  -30.9330  -16.9450   20.9100 C   0  0  0  0  0  2  0  0  0  0  0  0
  -31.0830  -15.6100   21.6660 C   0  0  0  0  0  2  0  0  0  0  0  0
  -30.5760  -13.8500   19.9720 C   0  0  0  0  0  0  0  0  0  0  0  0
  -30.0880  -11.7890   18.7060 C   0  0  0  0  0  2  0  0  0  0  0  0
  -29.0450  -12.0130   17.5950 C   0  0  0  0  0  2  0  0  0  0  0  0
  -27.6130  -11.8890   18.1500 C   0  0  0  0  0  2  0  0  0  0  0  0
  -27.3980  -12.7250   19.4390 C   0  0  0  0  0  3  0  0  0  0  0  0
  -28.5300  -12.4600   20.4530 C   0  0  0  0  0  2  0  0  0  0  0  0
  -29.8210  -12.7390   19.7940 N   0  0  0  0  0  0  0  0  0  0  0  0
  -31.5130  -14.1740   19.2360 O   0  0  0  0  0  0  0  0  0  0  0  0
  -30.2870  -14.5340   21.0850 N   0  0  0  0  0  0  0  0  0  0  0  0
  -29.5080  -14.1890   21.6260 H   0  0  0  0  0  0  0  0  0  0  0  0
  -25.0610  -13.3600   20.3190 C   0  0  0  0  0  0  0  0  0  0  0  0
  -24.0250  -12.6000   20.7930 C   0  0  0  0  0  0  0  0  0  0  0  0
  -24.4810  -11.2470   20.7550 C   0  0  0  0  0  0  0  0  0  0  0  0
  -26.0830  -12.4700   20.0260 N   0  0  0  0  0  0  0  0  0  0  0  0
  -25.7410  -11.1960   20.3420 N   0  0  0  0  0  0  0  0  0  0  0  0
  -23.7720   -9.9920   21.0340 C   0  0  0  0  0  0  0  0  0  0  0  0
  -24.2320   -9.0850   22.0150 C   0  0  0  0  0  3  0  0  0  0  0  0
  -23.5220   -7.8940   22.2760 C   0  0  0  0  0  3  0  0  0  0  0  0
  -22.3390   -7.6010   21.5570 C   0  0  0  0  0  0  0  0  0  0  0  0
  -21.8980   -8.4950   20.5650 C   0  0  0  0  0  3  0  0  0  0  0  0
  -22.6090   -9.6780   20.3030 C   0  0  0  0  0  3  0  0  0  0  0  0
  -21.5980   -6.4550   21.7250 O   0  0  0  0  0  0  0  0  0  0  0  0
  -21.5290   -5.8140   22.9370 C   0  0  0  0  0  0  0  0  0  0  0  0
  -21.0490   -6.4620   24.0950 C   0  0  0  0  0  3  0  0  0  0  0  0
  -20.9270   -5.7450   25.3040 C   0  0  0  0  0  3  0  0  0  0  0  0
  -21.2770   -4.3830   25.3520 C   0  0  0  0  0  0  0  0  0  0  0  0
  -21.7500   -3.7350   24.1980 C   0  0  0  0  0  3  0  0  0  0  0  0
  -21.8740   -4.4490   22.9930 C   0  0  0  0  0  0  0  0  0  0  0  0
  -22.3110   -3.8140   21.8790 F   0  0  0  0  0  0  0  0  0  0  0  0
  -21.1540   -3.6920   26.5100 F   0  0  0  0  0  0  0  0  0  0  0  0
  -22.6560  -13.0880   21.1690 C   0  0  0  0  0  0  0  0  0  0  0  0
  -22.0050  -12.4210   22.1150 N   0  0  0  0  0  0  0  0  0  0  0  0
  -22.1740  -14.0980   20.6570 O   0  0  0  0  0  0  0  0  0  0  0  0
  -22.4080  -11.6050   22.5520 H   0  0  0  0  0  0  0  0  0  0  0  0
  -21.0890  -12.7300   22.4100 H   0  0  0  0  0  0  0  0  0  0  0  0
  -25.2130  -14.7260   20.0980 N   0  0  0  0  0  0  0  0  0  0  0  0
  -24.4620  -15.3880   20.2610 H   0  0  0  0  0  0  0  0  0  0  0  0
  -26.0380  -15.1560   19.6950 H   0  0  0  0  0  0  0  0  0  0  0  0
  -32.3990  -23.9110   21.3080 C   0  0  0  0  0  2  0  0  0  0  0  0
  -30.8770  -23.7710   21.5210 C   0  0  0  0  0  2  0  0  0  0  0  0
  -30.1630  -25.0560   21.3650 N   0  0  0  0  0  4  0  0  0  0  0  0
  -30.7680  -25.8090   21.6600 H   0  0  0  0  0  0  0  0  0  0  0  0
  -29.3870  -25.0370   22.0100 H   0  0  0  0  0  0  0  0  0  0  0  0
  -29.6270  -25.3130   20.0050 C   0  0  0  0  0  2  0  0  0  0  0  0
  -28.8950  -26.6610   19.9310 C   0  0  0  0  0  2  0  0  0  0  0  0
  -27.9270  -26.6200   18.8830 O   0  0  0  0  0  0  0  0  0  0  0  0
  -24.4160  -31.4210   22.8060 C   0  0  0  0  0  0  0  0  0  0  0  0
  -26.8070  -27.4010   19.0580 C   0  0  0  0  0  0  0  0  0  0  0  0
  -23.0880  -30.2670   21.0610 C   0  0  0  0  0  3  0  0  0  0  0  0
  -24.4300  -28.8990   19.3750 C   0  0  0  0  0  0  0  0  0  0  0  0
  -25.6010  -30.6170   20.7700 C   0  0  0  0  0  2  0  0  0  0  0  0
  -25.6220  -29.3370   19.9670 C   0  0  0  0  0  0  0  0  0  0  0  0
  -26.8090  -28.5980   19.8110 C   0  0  0  0  0  3  0  0  0  0  0  0
  -25.6040  -26.9770   18.4530 C   0  0  0  0  0  3  0  0  0  0  0  0
  -24.4140  -27.7150   18.6160 C   0  0  0  0  0  3  0  0  0  0  0  0
  -23.2080  -29.7590   19.5960 C   0  0  0  0  0  2  0  0  0  0  0  0
  -24.3900  -30.7730   21.6060 N   0  0  0  0  0  0  0  0  0  0  0  0
  -23.3730  -31.6400   23.4380 O   0  0  0  0  0  0  0  0  0  0  0  0
  -22.4630  -29.1430   21.9180 C   0  0  0  0  0  0  0  0  0  0  0  0
  -21.1250  -29.0350   21.8710 N   0  0  0  0  0  0  0  0  0  0  0  0
  -23.1730  -28.3800   22.5760 O   0  0  0  0  0  0  0  0  0  0  0  0
  -20.6150  -29.7040   21.3110 H   0  0  0  0  0  0  0  0  0  0  0  0
  -17.7380  -27.9510   22.4970 C   0  0  0  0  0  0  0  0  0  0  0  0
  -20.3200  -28.0300   22.5630 C   0  0  0  0  0  3  0  0  0  0  0  0
  -20.2800  -26.7050   21.7660 C   0  0  0  0  0  2  0  0  0  0  0  0
  -19.0770  -26.6050   20.8230 C   0  0  0  0  0  2  0  0  0  0  0  0
  -17.7690  -26.7170   21.6100 C   0  0  0  0  0  2  0  0  0  0  0  0
  -18.9370  -28.5760   22.9320 C   0  0  0  0  0  0  0  0  0  0  0  0
  -18.8530  -29.7410   23.7240 C   0  0  0  0  0  3  0  0  0  0  0  0
  -17.6040  -30.2780   24.0850 C   0  0  0  0  0  3  0  0  0  0  0  0
  -16.4200  -29.6470   23.6650 C   0  0  0  0  0  3  0  0  0  0  0  0
  -16.4890  -28.4840   22.8780 C   0  0  0  0  0  3  0  0  0  0  0  0
  -25.7510  -31.9380   23.4290 C   0  0  0  0  0  3  0  0  0  0  0  0
  -26.3090  -31.0000   24.5690 C   0  0  1  0  0  0  0  0  0  0  0  0
  -25.2680  -30.6600   25.6620 C   0  0  0  0  0  1  0  0  0  0  0  0
  -26.8230  -29.6680   23.9740 C   0  0  0  0  0  1  0  0  0  0  0  0
  -27.5210  -31.6750   25.2550 C   0  0  0  0  0  1  0  0  0  0  0  0
  -25.5030  -33.2920   23.9410 N   0  0  0  0  0  0  0  0  0  0  0  0
  -25.8620  -34.4190   23.3110 C   0  0  0  0  0  0  0  0  0  0  0  0
  -26.5110  -34.4230   22.2620 O   0  0  0  0  0  0  0  0  0  0  0  0
  -24.9290  -33.3660   24.7680 H   0  0  0  0  0  0  0  0  0  0  0  0
  -24.1980  -36.3030   23.2180 C   0  0  0  0  0  1  0  0  0  0  0  0
  -25.4360  -35.7560   23.9480 C   0  0  0  0  0  3  0  0  0  0  0  0
  -27.6130  -36.4520   24.8440 C   0  0  0  0  0  1  0  0  0  0  0  0
  -26.5070  -36.7770   23.9470 N   0  0  0  0  0  0  0  0  0  0  0  0
  -26.1400  -37.6870   24.2120 H   0  0  0  0  0  0  0  0  0  0  0  0
  2  4  2  0
  3  2  1  0
  3  1  1  0
  5  3  1  0
  6  7  1  0
  6  2  1  0
  7  9  1  0
  7  8  1  0
 10  7  1  0
 10 11  1  0
 12 20  1  0
 13 18  1  0
 14 15  1  0
 14 13  1  0
 16 15  1  0
 16 25  1  0
 16 17  1  0
 18 12  1  0
 18 17  1  0
 19 12  2  0
 20 21  1  0
 20 11  1  0
 22 23  2  0
 23 42  1  0
 24 23  1  0
 24 27  1  0
 25 22  1  0
 25 26  1  0
 26 24  2  0
 27 28  1  0
 28 29  2  0
 30 33  1  0
 30 29  1  0
 31 30  2  0
 32 31  1  0
 32 27  2  0
 33 34  1  0
 34 39  2  0
 34 35  1  0
 35 36  2  0
 36 37  1  0
 37 41  1  0
 38 37  2  0
 39 38  1  0
 40 39  1  0
 42 43  1  0
 43 46  1  0
 43 45  1  0
 44 42  2  0
 47 48  1  0
 47 22  1  0
 49 47  1  0
 50 51  1  0
 50  1  1  0
 52 51  1  0
 52 53  1  0
 52 54  1  0
 55 52  1  0
 56 55  1  0
 57 59  1  0
 57 56  1  0
 58 69  2  0
 59 64  1  0
 60 68  1  0
 60 70  1  0
 61 67  1  0
 61 63  1  0
 62 68  1  0
 63 62  1  0
 64 63  2  0
 65 66  1  0
 65 59  2  0
 66 61  2  0
 67 60  1  0
 68 58  1  0
 70 72  2  0
 71 70  1  0
 73 71  1  0
 74 83  2  0
 74 79  1  0
 75 71  1  0
 75 79  1  0
 76 75  1  0
 77 78  1  0
 77 76  1  0
 78 74  1  0
 79 80  2  0
 80 81  1  0
 82 81  2  0
 83 82  1  0
 84 58  1  0
 84 89  1  0
 84 85  1  0
 85 88  1  1
 85 86  1  0
 87 85  1  0
 89 92  1  0
 90 89  1  0
 90 94  1  0
 91 90  2  0
 94 93  1  0
 96 94  1  0
 96 97  1  0
 96 95  1  0
M  ISO  4  12 100  20 100  56 101  57 101
M  END
>  <TORSDO>  (19) 
F 26

>  <SCORE>  (19) 
-7.260

>  <name>  (19) 
19

>  <ligand_id>  (19) 
19

>  <original_smiles>  (19) 
[H]c1c([H])c([H])c2c(c1[H])C([H])([H])C([H])([H])C([H])([H])C2([H])N([H])C(=O)C1([H])N(C(=O)C([H])(N([H])C(=O)C([H])(N([H])C([H])([H])[H])C([H])([H])[H])C(C([H])([H])[H])(C([H])([H])[H])C([H])([H])[H])C([H])([H])c2c([H])c(OC([H])([H])C([H])([H])[N+]([H])([H])C([H])([H])C([H])([H])C([H])([H])N([H])C(=O)C([H])([H])[N+]([H])([H])C([H])([H])C([H])([H])N([H])C(=O)N3C([H])([H])C([H])([H])C([H])([H])C([H])(n4nc(-c5c([H])c([H])c(Oc6c([H])c([H])c(F)c([H])c6F)c([H])c5[H])c(C(=O)N([H])[H])c4N([H])[H])C3([H])[H])c([H])c([H])c2C1([H])[H]

>  <smiles>  (19) 
[H]c1c([H])c([H])c2c(c1[H])C([H])([H])C([H])([H])C([H])([H])C2([H])N([H])C(=O)C1([H])N(C(=O)C([H])(N([H])C(=O)C([H])(N([H])C([H])([H])[H])C([H])([H])[H])C(C([H])([H])[H])(C([H])([H])[H])C([H])([H])[H])C([H])([H])c2c([H])c(OC([H])([H])C([H])([H])[N+]([H])([H])C([H])([H])C([H])([H])C([H])([H])N([H])C(=O)C([H])([H])[N+]([H])([H])C([H])([H])C([H])([H])N([H])C(=O)N3C([H])([H])C([H])([H])C([H])([H])C([H])(n4nc(-c5c([H])c([H])c(Oc6c([H])c([H])c(F)c([H])c6F)c([H])c5[H])c(C(=O)N([H])[H])c4N([H])[H])C3([H])[H])c([H])c([H])c2C1([H])[H]

$$$$
20:0:0
     RDKit          3D

 90 98  0  0  1  0  0  0  0  0999 V2000
  -29.9940  -20.9240   19.9870 C   0  0  0  0  0  2  0  0  0  0  0  0
  -27.7590  -17.8700   19.3890 C   0  0  0  0  0  2  0  0  0  0  0  0
  -28.2560  -17.6490   20.8310 C   0  0  0  0  0  2  0  0  0  0  0  0
  -28.5080  -19.1180   18.8830 C   0  0  0  0  0  2  0  0  0  0  0  0
  -29.6430  -18.3040   20.8380 C   0  0  0  0  0  3  0  0  0  0  0  0
  -29.2770  -19.5720   20.0560 N   0  0  1  0  0  4  0  0  0  0  0  0
  -28.5240  -19.8670   20.6590 H   0  0  0  0  0  0  0  0  0  0  0  0
  -30.7330  -17.2550   20.2650 C   0  0  0  0  0  2  0  0  0  0  0  0
  -31.2830  -14.6720   20.1160 C   0  0  0  0  0  0  0  0  0  0  0  0
  -30.9370  -12.4790   18.9780 C   0  0  0  0  0  2  0  0  0  0  0  0
  -29.9710  -12.6710   17.7860 C   0  0  0  0  0  2  0  0  0  0  0  0
  -28.5070  -12.5480   18.2480 C   0  0  0  0  0  2  0  0  0  0  0  0
  -28.2120  -13.3990   19.5120 C   0  0  0  0  0  3  0  0  0  0  0  0
  -29.2890  -13.1760   20.6020 C   0  0  0  0  0  2  0  0  0  0  0  0
  -30.5970  -13.4850   20.0090 N   0  0  0  0  0  0  0  0  0  0  0  0
  -32.4140  -14.7890   19.6390 O   0  0  0  0  0  0  0  0  0  0  0  0
  -30.5920  -15.7660   20.5880 N   0  0  0  0  0  0  0  0  0  0  0  0
  -29.7090  -15.5170   21.0090 H   0  0  0  0  0  0  0  0  0  0  0  0
  -25.8510  -14.0780   20.2640 C   0  0  0  0  0  0  0  0  0  0  0  0
  -24.7650  -13.3470   20.6620 C   0  0  0  0  0  0  0  0  0  0  0  0
  -25.1810  -11.9810   20.6310 C   0  0  0  0  0  0  0  0  0  0  0  0
  -26.8620  -13.1630   20.0190 N   0  0  0  0  0  0  0  0  0  0  0  0
  -26.4640  -11.8960   20.2980 N   0  0  0  0  0  0  0  0  0  0  0  0
  -24.4140  -10.7460   20.8420 C   0  0  0  0  0  0  0  0  0  0  0  0
  -24.7650   -9.8210   21.8510 C   0  0  0  0  0  3  0  0  0  0  0  0
  -23.9980   -8.6520   22.0470 C   0  0  0  0  0  3  0  0  0  0  0  0
  -22.8680   -8.3990   21.2330 C   0  0  0  0  0  0  0  0  0  0  0  0
  -22.5360   -9.3110   20.2170 C   0  0  0  0  0  3  0  0  0  0  0  0
  -23.3040  -10.4720   20.0200 C   0  0  0  0  0  3  0  0  0  0  0  0
  -22.0830   -7.2750   21.3340 O   0  0  0  0  0  0  0  0  0  0  0  0
  -21.8670   -6.6530   22.5360 C   0  0  0  0  0  0  0  0  0  0  0  0
  -21.3000   -7.3320   23.6370 C   0  0  0  0  0  3  0  0  0  0  0  0
  -21.0310   -6.6370   24.8310 C   0  0  0  0  0  3  0  0  0  0  0  0
  -21.3200   -5.2610   24.9280 C   0  0  0  0  0  0  0  0  0  0  0  0
  -21.8810   -4.5820   23.8310 C   0  0  0  0  0  3  0  0  0  0  0  0
  -22.1510   -5.2760   22.6380 C   0  0  0  0  0  0  0  0  0  0  0  0
  -22.6720   -4.6120   21.5790 F   0  0  0  0  0  0  0  0  0  0  0  0
  -21.0560   -4.5900   26.0720 F   0  0  0  0  0  0  0  0  0  0  0  0
  -23.3910  -13.8760   20.9570 C   0  0  0  0  0  0  0  0  0  0  0  0
  -22.6740  -13.2430   21.8800 N   0  0  0  0  0  0  0  0  0  0  0  0
  -22.9640  -14.8880   20.4030 O   0  0  0  0  0  0  0  0  0  0  0  0
  -23.0300  -12.4220   22.3480 H   0  0  0  0  0  0  0  0  0  0  0  0
  -21.7560  -13.5870   22.1230 H   0  0  0  0  0  0  0  0  0  0  0  0
  -26.0520  -15.4400   20.0680 N   0  0  0  0  0  0  0  0  0  0  0  0
  -25.2990  -16.1100   20.1740 H   0  0  0  0  0  0  0  0  0  0  0  0
  -26.8970  -15.8440   19.6910 H   0  0  0  0  0  0  0  0  0  0  0  0
  -29.0070  -22.2150   19.9450 C   0  0  0  0  0  2  0  0  0  0  0  0
  -29.4960  -23.7520   20.0580 C   0  0  0  0  0  3  0  0  0  0  0  0
  -28.3780  -24.8830   19.8350 C   0  0  0  0  0  3  0  0  0  0  0  0
  -28.6380  -26.3520   19.9420 O   0  0  0  0  0  0  0  0  0  0  0  0
  -24.6980  -31.4950   23.1730 C   0  0  0  0  0  0  0  0  0  0  0  0
  -27.5210  -27.2160   19.8930 C   0  0  0  0  0  0  0  0  0  0  0  0
  -23.5940  -30.2230   21.3710 C   0  0  0  0  0  3  0  0  0  0  0  0
  -25.1370  -28.8150   19.8930 C   0  0  0  0  0  0  0  0  0  0  0  0
  -26.1380  -30.5820   21.3370 C   0  0  0  0  0  2  0  0  0  0  0  0
  -26.2720  -29.2630   20.5800 C   0  0  0  0  0  0  0  0  0  0  0  0
  -27.4680  -28.4790   20.5670 C   0  0  0  0  0  3  0  0  0  0  0  0
  -26.3600  -26.8370   19.1780 C   0  0  0  0  0  3  0  0  0  0  0  0
  -25.1850  -27.6100   19.1820 C   0  0  0  0  0  3  0  0  0  0  0  0
  -23.8860  -29.6690   19.9530 C   0  0  0  0  0  2  0  0  0  0  0  0
  -24.8260  -30.7770   22.0200 N   0  0  0  0  0  0  0  0  0  0  0  0
  -23.5860  -31.7160   23.6750 O   0  0  0  0  0  0  0  0  0  0  0  0
  -22.9020  -29.1220   22.2120 C   0  0  0  0  0  0  0  0  0  0  0  0
  -21.5750  -28.9760   22.0460 N   0  0  0  0  0  0  0  0  0  0  0  0
  -23.5590  -28.4080   22.9750 O   0  0  0  0  0  0  0  0  0  0  0  0
  -21.1050  -29.6060   21.4120 H   0  0  0  0  0  0  0  0  0  0  0  0
  -18.1640  -27.8500   22.4580 C   0  0  0  0  0  0  0  0  0  0  0  0
  -20.7340  -27.9750   22.7070 C   0  0  0  0  0  3  0  0  0  0  0  0
  -20.7680  -26.6290   21.9460 C   0  0  0  0  0  2  0  0  0  0  0  0
  -19.6400  -26.4850   20.9200 C   0  0  0  0  0  2  0  0  0  0  0  0
  -18.2740  -26.5970   21.6060 C   0  0  0  0  0  2  0  0  0  0  0  0
  -19.3190  -28.5070   22.9610 C   0  0  0  0  0  0  0  0  0  0  0  0
  -19.1600  -29.6890   23.7130 C   0  0  0  0  0  3  0  0  0  0  0  0
  -17.8790  -30.2130   23.9680 C   0  0  0  0  0  3  0  0  0  0  0  0
  -16.7390  -29.5500   23.4820 C   0  0  0  0  0  3  0  0  0  0  0  0
  -16.8830  -28.3670   22.7350 C   0  0  0  0  0  3  0  0  0  0  0  0
  -25.9420  -32.0890   23.9040 C   0  0  0  0  0  3  0  0  0  0  0  0
  -25.6090  -33.4660   24.2960 N   0  0  0  0  0  0  0  0  0  0  0  0
  -25.9940  -34.5620   23.6300 C   0  0  0  0  0  0  0  0  0  0  0  0
  -26.7330  -34.5190   22.6420 O   0  0  0  0  0  0  0  0  0  0  0  0
  -24.9590  -33.5740   25.0630 H   0  0  0  0  0  0  0  0  0  0  0  0
  -24.3080  -36.3900   23.2590 C   0  0  0  0  0  1  0  0  0  0  0  0
  -25.4780  -35.9210   24.1380 C   0  0  0  0  0  3  0  0  0  0  0  0
  -27.5370  -36.7320   25.2010 C   0  0  0  0  0  1  0  0  0  0  0  0
  -26.5220  -36.9690   24.1780 N   0  0  0  0  0  0  0  0  0  0  0  0
  -26.1080  -37.8830   24.3470 H   0  0  0  0  0  0  0  0  0  0  0  0
  -26.3860  -31.2430   25.1600 C   0  0  1  0  0  0  0  0  0  0  0  0
  -25.2310  -30.9380   26.1420 C   0  0  0  0  0  1  0  0  0  0  0  0
  -27.0000  -29.8920   24.7240 C   0  0  0  0  0  1  0  0  0  0  0  0
  -27.4920  -31.9990   25.9340 C   0  0  0  0  0  1  0  0  0  0  0  0
  1  6  1  0
  2  3  1  0
  3  5  1  0
  4  2  1  0
  4  6  1  0
  5  8  1  0
  6  7  1  1
  6  5  1  0
  8 17  1  0
  9 17  1  0
 10 15  1  0
 11 12  1  0
 11 10  1  0
 13 12  1  0
 13 22  1  0
 13 14  1  0
 15  9  1  0
 15 14  1  0
 16  9  2  0
 17 18  1  0
 19 20  2  0
 20 39  1  0
 21 20  1  0
 21 24  1  0
 22 19  1  0
 22 23  1  0
 23 21  2  0
 24 25  1  0
 25 26  2  0
 27 30  1  0
 27 26  1  0
 28 27  2  0
 29 28  1  0
 29 24  2  0
 30 31  1  0
 31 36  2  0
 31 32  1  0
 32 33  2  0
 33 34  1  0
 34 38  1  0
 35 34  2  0
 36 35  1  0
 37 36  1  0
 39 40  1  0
 40 43  1  0
 40 42  1  0
 41 39  2  0
 44 45  1  0
 44 19  1  0
 46 44  1  0
 47  1  1  0
 47 48  1  0
 49 50  1  0
 49 48  2  0
 51 62  2  0
 52 50  1  0
 52 57  1  0
 53 61  1  0
 53 63  1  0
 54 60  1  0
 54 56  1  0
 55 61  1  0
 56 55  1  0
 57 56  2  0
 58 59  1  0
 58 52  2  0
 59 54  2  0
 60 53  1  0
 61 51  1  0
 63 65  2  0
 64 63  1  0
 66 64  1  0
 67 76  2  0
 67 72  1  0
 68 64  1  0
 68 72  1  0
 69 68  1  0
 70 71  1  0
 70 69  1  0
 71 67  1  0
 72 73  2  0
 73 74  1  0
 75 74  2  0
 76 75  1  0
 77 51  1  0
 77 78  1  0
 77 87  1  0
 78 81  1  0
 79 83  1  0
 79 78  1  0
 80 79  2  0
 83 82  1  0
 83 85  1  0
 85 86  1  0
 85 84  1  0
 87 90  1  1
 87 88  1  0
 89 87  1  0
M  ISO  4   9 100  17 100  49 101  50 101
M  END
>  <TORSDO>  (20) 
F 21

>  <SCORE>  (20) 
-11.992

>  <name>  (20) 
20

>  <ligand_id>  (20) 
20

>  <original_smiles>  (20) 
[H]c1c([H])c([H])c2c(c1[H])C([H])([H])C([H])([H])C([H])([H])C2([H])N([H])C(=O)C1([H])N(C(=O)C([H])(N([H])C(=O)C([H])(N([H])C([H])([H])[H])C([H])([H])[H])C(C([H])([H])[H])(C([H])([H])[H])C([H])([H])[H])C([H])([H])c2c([H])c(OC([H])([H])C([H])([H])C([H])([H])C([H])([H])[N+]3([H])C([H])([H])C([H])([H])C([H])([H])C3([H])C([H])([H])N([H])C(=O)N3C([H])([H])C([H])([H])C([H])([H])C([H])(n4nc(-c5c([H])c([H])c(Oc6c([H])c([H])c(F)c([H])c6F)c([H])c5[H])c(C(=O)N([H])[H])c4N([H])[H])C3([H])[H])c([H])c([H])c2C1([H])[H]

>  <smiles>  (20) 
[H]c1c([H])c([H])c2c(c1[H])C([H])([H])C([H])([H])C([H])([H])C2([H])N([H])C(=O)C1([H])N(C(=O)C([H])(N([H])C(=O)C([H])(N([H])C([H])([H])[H])C([H])([H])[H])C(C([H])([H])[H])(C([H])([H])[H])C([H])([H])[H])C([H])([H])c2c([H])c(OC([H])([H])C([H])([H])C([H])([H])C([H])([H])[N+]3([H])C([H])([H])C([H])([H])C([H])([H])C3([H])C([H])([H])N([H])C(=O)N3C([H])([H])C([H])([H])C([H])([H])C([H])(n4nc(-c5c([H])c([H])c(Oc6c([H])c([H])c(F)c([H])c6F)c([H])c5[H])c(C(=O)N([H])[H])c4N([H])[H])C3([H])[H])c([H])c([H])c2C1([H])[H]

$$$$
21:0:0
     RDKit          3D

 98106  0  0  1  0  0  0  0  0999 V2000
  -26.1000  -19.7820   19.0790 C   0  0  0  0  0  2  0  0  0  0  0  0
  -27.5220  -19.8710   19.6670 C   0  0  0  0  0  0  0  0  0  0  0  0
  -27.8140  -20.8020   20.4220 O   0  0  0  0  0  0  0  0  0  0  0  0
  -31.5380  -15.3950   20.5930 C   0  0  0  0  0  0  0  0  0  0  0  0
  -31.3710  -13.0260   19.9720 C   0  0  0  0  0  2  0  0  0  0  0  0
  -30.5890  -12.9070   18.6490 C   0  0  0  0  0  2  0  0  0  0  0  0
  -29.0730  -12.8340   18.9190 C   0  0  0  0  0  2  0  0  0  0  0  0
  -28.5600  -13.8990   19.9310 C   0  0  0  0  0  3  0  0  0  0  0  0
  -29.4910  -14.0140   21.1540 C   0  0  0  0  0  2  0  0  0  0  0  0
  -30.8600  -14.2170   20.6620 N   0  0  0  0  0  0  0  0  0  0  0  0
  -32.7630  -15.4320   20.4770 O   0  0  0  0  0  0  0  0  0  0  0  0
  -28.7870  -17.8670   20.6220 C   0  0  0  0  0  2  0  0  0  0  0  0
  -30.2220  -17.4350   21.0070 C   0  0  0  0  0  2  0  0  0  0  0  0
  -31.2890  -17.0660   18.8380 C   0  0  0  0  0  2  0  0  0  0  0  0
  -30.3990  -16.6670   17.6510 C   0  0  0  0  0  2  0  0  0  0  0  0
  -28.3430  -18.0250   18.0090 C   0  0  0  0  0  2  0  0  0  0  0  0
  -28.5830  -18.7800   19.3600 C   0  0  0  0  0  3  0  0  0  0  0  0
  -30.8170  -16.4390   20.0970 N   0  0  0  0  0  0  0  0  0  0  0  0
  -29.5540  -17.7810   17.1960 N   0  0  0  0  0  4  0  0  0  0  0  0
  -29.2420  -17.5380   16.2680 H   0  0  0  0  0  0  0  0  0  0  0  0
  -30.0980  -18.6230   17.0990 H   0  0  0  0  0  0  0  0  0  0  0  0
  -26.1230  -14.5430   20.4660 C   0  0  0  0  0  0  0  0  0  0  0  0
  -25.0240  -13.7940   20.7610 C   0  0  0  0  0  0  0  0  0  0  0  0
  -25.4610  -12.4380   20.7530 C   0  0  0  0  0  0  0  0  0  0  0  0
  -27.1730  -13.6480   20.3160 N   0  0  0  0  0  0  0  0  0  0  0  0
  -26.7700  -12.3720   20.5440 N   0  0  0  0  0  0  0  0  0  0  0  0
  -24.6920  -11.1960   20.8780 C   0  0  0  0  0  0  0  0  0  0  0  0
  -25.0230  -10.2170   21.8390 C   0  0  0  0  0  3  0  0  0  0  0  0
  -24.2550   -9.0390   21.9470 C   0  0  0  0  0  3  0  0  0  0  0  0
  -23.1420   -8.8330   21.0960 C   0  0  0  0  0  0  0  0  0  0  0  0
  -22.8300   -9.8040   20.1300 C   0  0  0  0  0  3  0  0  0  0  0  0
  -23.5970  -10.9740   20.0170 C   0  0  0  0  0  3  0  0  0  0  0  0
  -22.3520   -7.7090   21.1150 O   0  0  0  0  0  0  0  0  0  0  0  0
  -22.0980   -7.0330   22.2790 C   0  0  0  0  0  0  0  0  0  0  0  0
  -21.4550   -7.6490   23.3750 C   0  0  0  0  0  3  0  0  0  0  0  0
  -21.1450   -6.8950   24.5260 C   0  0  0  0  0  3  0  0  0  0  0  0
  -21.4730   -5.5270   24.5800 C   0  0  0  0  0  0  0  0  0  0  0  0
  -22.1080   -4.9100   23.4880 C   0  0  0  0  0  3  0  0  0  0  0  0
  -22.4150   -5.6610   22.3400 C   0  0  0  0  0  0  0  0  0  0  0  0
  -23.0070   -5.0570   21.2810 F   0  0  0  0  0  0  0  0  0  0  0  0
  -21.1690   -4.8020   25.6820 F   0  0  0  0  0  0  0  0  0  0  0  0
  -23.6240  -14.3050   20.9340 C   0  0  0  0  0  0  0  0  0  0  0  0
  -22.8230  -13.6450   21.7610 N   0  0  0  0  0  0  0  0  0  0  0  0
  -23.2420  -15.3310   20.3680 O   0  0  0  0  0  0  0  0  0  0  0  0
  -23.1390  -12.8160   22.2430 H   0  0  0  0  0  0  0  0  0  0  0  0
  -21.8800  -13.9720   21.9040 H   0  0  0  0  0  0  0  0  0  0  0  0
  -26.2910  -15.9070   20.2830 N   0  0  0  0  0  0  0  0  0  0  0  0
  -25.5280  -16.5640   20.4090 H   0  0  0  0  0  0  0  0  0  0  0  0
  -27.1860  -16.3340   20.1080 H   0  0  0  0  0  0  0  0  0  0  0  0
  -25.1960  -21.0160   19.3120 C   0  0  0  0  0  2  0  0  0  0  0  0
  -25.6200  -22.2860   18.5310 C   0  0  0  0  0  2  0  0  0  0  0  0
  -26.7690  -23.1060   19.1700 C   0  0  0  0  0  2  0  0  0  0  0  0
  -26.9550  -24.4290   18.5310 N   0  0  0  0  0  4  0  0  0  0  0  0
  -26.2480  -25.0600   18.8820 H   0  0  0  0  0  0  0  0  0  0  0  0
  -26.8030  -24.3030   17.5410 H   0  0  0  0  0  0  0  0  0  0  0  0
  -28.3130  -25.0160   18.7130 C   0  0  0  0  0  2  0  0  0  0  0  0
  -28.4850  -26.4480   18.1410 C   0  0  0  0  0  2  0  0  0  0  0  0
  -28.3150  -27.4950   19.1080 O   0  0  0  0  0  0  0  0  0  0  0  0
  -24.4710  -31.6900   23.3500 C   0  0  0  0  0  0  0  0  0  0  0  0
  -27.0920  -28.1100   19.2830 C   0  0  0  0  0  0  0  0  0  0  0  0
  -23.2160  -30.5900   21.5170 C   0  0  0  0  0  3  0  0  0  0  0  0
  -24.6380  -29.4550   19.7250 C   0  0  0  0  0  0  0  0  0  0  0  0
  -25.7020  -31.1080   21.2650 C   0  0  0  0  0  2  0  0  0  0  0  0
  -25.8000  -29.8900   20.3700 C   0  0  0  0  0  0  0  0  0  0  0  0
  -27.0230  -29.2110   20.1720 C   0  0  0  0  0  3  0  0  0  0  0  0
  -25.9140  -27.7160   18.6090 C   0  0  0  0  0  3  0  0  0  0  0  0
  -24.6880  -28.3660   18.8410 C   0  0  0  0  0  3  0  0  0  0  0  0
  -23.3640  -30.2150   20.0150 C   0  0  0  0  0  2  0  0  0  0  0  0
  -24.4840  -31.1370   22.1030 N   0  0  0  0  0  0  0  0  0  0  0  0
  -23.4190  -31.7890   23.9960 O   0  0  0  0  0  0  0  0  0  0  0  0
  -22.6760  -29.3610   22.2800 C   0  0  0  0  0  0  0  0  0  0  0  0
  -21.3630  -29.1130   22.1510 N   0  0  0  0  0  0  0  0  0  0  0  0
  -23.4290  -28.6470   22.9470 O   0  0  0  0  0  0  0  0  0  0  0  0
  -20.8170  -29.7480   21.5880 H   0  0  0  0  0  0  0  0  0  0  0  0
  -18.1150  -27.5500   22.4180 C   0  0  0  0  0  0  0  0  0  0  0  0
  -20.6400  -27.9900   22.7480 C   0  0  0  0  0  3  0  0  0  0  0  0
  -20.8630  -26.6870   21.9410 C   0  0  0  0  0  2  0  0  0  0  0  0
  -19.7880  -26.4480   20.8770 C   0  0  0  0  0  2  0  0  0  0  0  0
  -18.4050  -26.3510   21.5290 C   0  0  0  0  0  2  0  0  0  0  0  0
  -19.1630  -28.3270   22.9780 C   0  0  0  0  0  0  0  0  0  0  0  0
  -18.8360  -29.4510   23.7670 C   0  0  0  0  0  3  0  0  0  0  0  0
  -17.4930  -29.8010   24.0010 C   0  0  0  0  0  3  0  0  0  0  0  0
  -16.4590  -29.0180   23.4570 C   0  0  0  0  0  3  0  0  0  0  0  0
  -16.7690  -27.8930   22.6710 C   0  0  0  0  0  3  0  0  0  0  0  0
  -25.7690  -32.2480   24.0130 C   0  0  0  0  0  3  0  0  0  0  0  0
  -26.1920  -31.4600   25.3130 C   0  0  1  0  0  0  0  0  0  0  0  0
  -25.0560  -31.3240   26.3530 C   0  0  0  0  0  1  0  0  0  0  0  0
  -26.6830  -30.0370   24.9540 C   0  0  0  0  0  1  0  0  0  0  0  0
  -27.3750  -32.1790   26.0020 C   0  0  0  0  0  1  0  0  0  0  0  0
  -25.5360  -33.6670   24.3170 N   0  0  0  0  0  0  0  0  0  0  0  0
  -26.0460  -34.6890   23.6160 C   0  0  0  0  0  0  0  0  0  0  0  0
  -26.8300  -34.5310   22.6750 O   0  0  0  0  0  0  0  0  0  0  0  0
  -24.8570  -33.8690   25.0380 H   0  0  0  0  0  0  0  0  0  0  0  0
  -24.5760  -36.6440   23.0270 C   0  0  0  0  0  1  0  0  0  0  0  0
  -25.6200  -36.1110   24.0230 C   0  0  0  0  0  3  0  0  0  0  0  0
  -27.6530  -36.7840   25.2260 C   0  0  0  0  0  1  0  0  0  0  0  0
  -26.7490  -37.0620   24.1120 N   0  0  0  0  0  0  0  0  0  0  0  0
  -26.4090  -38.0150   24.2100 H   0  0  0  0  0  0  0  0  0  0  0  0
  1 50  1  0
  1  2  1  0
  2  3  2  0
  4 10  1  0
  5 10  1  0
  6  7  1  0
  6  5  1  0
  8  7  1  0
  8 25  1  0
  8  9  1  0
 10  9  1  0
 11  4  2  0
 12 13  1  0
 14 18  1  0
 15 14  1  0
 16 17  1  0
 17  2  1  0
 17 12  1  0
 18  4  1  0
 18 13  1  0
 19 15  1  0
 19 16  1  0
 20 19  1  0
 21 19  1  0
 22 23  2  0
 23 42  1  0
 24 23  1  0
 24 27  1  0
 25 22  1  0
 25 26  1  0
 26 24  2  0
 27 28  1  0
 28 29  2  0
 30 33  1  0
 30 29  1  0
 31 30  2  0
 32 31  1  0
 32 27  2  0
 33 34  1  0
 34 39  2  0
 34 35  1  0
 35 36  2  0
 36 37  1  0
 37 41  1  0
 38 37  2  0
 39 38  1  0
 40 39  1  0
 42 43  1  0
 43 46  1  0
 43 45  1  0
 44 42  2  0
 47 48  1  0
 47 22  1  0
 49 47  1  0
 51 52  1  0
 51 50  1  0
 53 56  1  0
 53 54  1  0
 53 52  1  0
 55 53  1  0
 57 56  1  0
 57 58  1  0
 58 60  1  0
 59 70  2  0
 60 65  1  0
 61 69  1  0
 61 71  1  0
 62 68  1  0
 62 64  1  0
 63 69  1  0
 64 63  1  0
 65 64  2  0
 66 67  1  0
 66 60  2  0
 67 62  2  0
 68 61  1  0
 69 59  1  0
 71 73  2  0
 72 71  1  0
 74 72  1  0
 75 84  2  0
 75 80  1  0
 76 72  1  0
 76 80  1  0
 77 76  1  0
 78 79  1  0
 78 77  1  0
 79 75  1  0
 80 81  2  0
 81 82  1  0
 83 82  2  0
 84 83  1  0
 85 59  1  0
 85 90  1  0
 85 86  1  0
 86 89  1  1
 86 87  1  0
 88 86  1  0
 90 93  1  0
 91 95  1  0
 91 90  1  0
 92 91  2  0
 95 94  1  0
 95 97  1  0
 97 98  1  0
 97 96  1  0
M  ISO  4   4 100  18 100  57 101  58 101
M  END
>  <TORSDO>  (21) 
F 23

>  <SCORE>  (21) 
-8.723

>  <name>  (21) 
21

>  <ligand_id>  (21) 
21

>  <original_smiles>  (21) 
[H]c1c([H])c([H])c2c(c1[H])C([H])([H])C([H])([H])C([H])([H])C2([H])N([H])C(=O)C1([H])N(C(=O)C([H])(N([H])C(=O)C([H])(N([H])C([H])([H])[H])C([H])([H])[H])C(C([H])([H])[H])(C([H])([H])[H])C([H])([H])[H])C([H])([H])c2c([H])c(OC([H])([H])C([H])([H])[N+]([H])([H])C([H])([H])C([H])([H])C([H])([H])C([H])([H])C(=O)C3([H])C([H])([H])C([H])([H])N(C(=O)N4C([H])([H])C([H])([H])C([H])([H])C([H])(n5nc(-c6c([H])c([H])c(Oc7c([H])c([H])c(F)c([H])c7F)c([H])c6[H])c(C(=O)N([H])[H])c5N([H])[H])C4([H])[H])C([H])([H])C([H])([H])[N+]([H])([H])C3([H])[H])c([H])c([H])c2C1([H])[H]

>  <smiles>  (21) 
[H]c1c([H])c([H])c2c(c1[H])C([H])([H])C([H])([H])C([H])([H])C2([H])N([H])C(=O)C1([H])N(C(=O)C([H])(N([H])C(=O)C([H])(N([H])C([H])([H])[H])C([H])([H])[H])C(C([H])([H])[H])(C([H])([H])[H])C([H])([H])[H])C([H])([H])c2c([H])c(OC([H])([H])C([H])([H])[N+]([H])([H])C([H])([H])C([H])([H])C([H])([H])C([H])([H])C(=O)C3([H])C([H])([H])C([H])([H])N(C(=O)N4C([H])([H])C([H])([H])C([H])([H])C([H])(n5nc(-c6c([H])c([H])c(Oc7c([H])c([H])c(F)c([H])c7F)c([H])c6[H])c(C(=O)N([H])[H])c5N([H])[H])C4([H])[H])C([H])([H])C([H])([H])[N+]([H])([H])C3([H])[H])c([H])c([H])c2C1([H])[H]

$$$$
22:0:0
     RDKit          3D

 95103  0  0  1  0  0  0  0  0999 V2000
  -29.3280  -21.8050   20.9590 C   0  0  0  0  0  2  0  0  0  0  0  0
  -29.1730  -20.3430   20.4340 C   0  0  0  0  0  2  0  0  0  0  0  0
  -31.2880  -18.8720   18.4110 C   0  0  0  0  0  2  0  0  0  0  0  0
  -31.4800  -19.7630   19.6240 C   0  0  0  0  0  2  0  0  0  0  0  0
  -30.7180  -17.5830   18.9990 C   0  0  0  0  0  3  0  0  0  0  0  0
  -30.0390  -17.9970   20.3320 C   0  0  0  0  0  3  0  0  0  0  0  0
  -29.7800  -16.8570   18.0240 C   0  0  0  0  0  1  0  0  0  0  0  0
  -30.3710  -19.4440   20.5550 N   0  0  2  0  0  4  0  0  0  0  0  0
  -30.7140  -19.5430   21.5000 H   0  0  0  0  0  0  0  0  0  0  0  0
  -30.4690  -17.0980   21.5340 C   0  0  0  0  0  2  0  0  0  0  0  0
  -30.8060  -14.6360   21.0650 C   0  0  0  0  0  0  0  0  0  0  0  0
  -30.6280  -12.4320   19.9810 C   0  0  0  0  0  2  0  0  0  0  0  0
  -29.8010  -12.5950   18.6900 C   0  0  0  0  0  2  0  0  0  0  0  0
  -28.2970  -12.4380   18.9900 C   0  0  0  0  0  2  0  0  0  0  0  0
  -27.8320  -13.3010   20.1930 C   0  0  0  0  0  3  0  0  0  0  0  0
  -28.7900  -13.1510   21.3980 C   0  0  0  0  0  2  0  0  0  0  0  0
  -30.1530  -13.4510   20.9290 N   0  0  0  0  0  0  0  0  0  0  0  0
  -31.9800  -14.8010   20.7320 O   0  0  0  0  0  0  0  0  0  0  0  0
  -30.0400  -15.6850   21.4270 N   0  0  0  0  0  0  0  0  0  0  0  0
  -29.0730  -15.4840   21.6340 H   0  0  0  0  0  0  0  0  0  0  0  0
  -25.3730  -13.8820   20.6760 C   0  0  0  0  0  0  0  0  0  0  0  0
  -24.2880  -13.0980   20.9640 C   0  0  0  0  0  0  0  0  0  0  0  0
  -24.7700  -11.7550   21.0020 C   0  0  0  0  0  0  0  0  0  0  0  0
  -26.4470  -13.0130   20.5580 N   0  0  0  0  0  0  0  0  0  0  0  0
  -26.0830  -11.7290   20.8080 N   0  0  0  0  0  0  0  0  0  0  0  0
  -24.0430  -10.4880   21.1530 C   0  0  0  0  0  0  0  0  0  0  0  0
  -24.4130   -9.5380   22.1320 C   0  0  0  0  0  3  0  0  0  0  0  0
  -23.6900   -8.3330   22.2680 C   0  0  0  0  0  3  0  0  0  0  0  0
  -22.5850   -8.0680   21.4240 C   0  0  0  0  0  0  0  0  0  0  0  0
  -22.2370   -9.0050   20.4350 C   0  0  0  0  0  3  0  0  0  0  0  0
  -22.9590  -10.2020   20.2990 C   0  0  0  0  0  3  0  0  0  0  0  0
  -21.8400   -6.9150   21.4670 O   0  0  0  0  0  0  0  0  0  0  0  0
  -21.7130   -6.1820   22.6220 C   0  0  0  0  0  0  0  0  0  0  0  0
  -21.1690   -6.7400   23.7980 C   0  0  0  0  0  3  0  0  0  0  0  0
  -20.9900   -5.9340   24.9400 C   0  0  0  0  0  3  0  0  0  0  0  0
  -21.3420   -4.5730   24.9050 C   0  0  0  0  0  0  0  0  0  0  0  0
  -21.8790   -4.0150   23.7320 C   0  0  0  0  0  3  0  0  0  0  0  0
  -22.0610   -4.8170   22.5920 C   0  0  0  0  0  0  0  0  0  0  0  0
  -22.5570   -4.2680   21.4570 F   0  0  0  0  0  0  0  0  0  0  0  0
  -21.1650   -3.7970   26.0020 F   0  0  0  0  0  0  0  0  0  0  0  0
  -22.8650  -13.5590   21.1020 C   0  0  0  0  0  0  0  0  0  0  0  0
  -22.0770  -12.8690   21.9200 N   0  0  0  0  0  0  0  0  0  0  0  0
  -22.4580  -14.5650   20.5240 O   0  0  0  0  0  0  0  0  0  0  0  0
  -22.4180  -12.0560   22.4110 H   0  0  0  0  0  0  0  0  0  0  0  0
  -21.1210  -13.1640   22.0570 H   0  0  0  0  0  0  0  0  0  0  0  0
  -25.5270  -15.2520   20.4820 N   0  0  0  0  0  0  0  0  0  0  0  0
  -24.7350  -15.8850   20.5040 H   0  0  0  0  0  0  0  0  0  0  0  0
  -26.3780  -15.6980   20.1700 H   0  0  0  0  0  0  0  0  0  0  0  0
  -29.7560  -22.8700   19.9110 C   0  0  0  0  0  2  0  0  0  0  0  0
  -29.9250  -24.2410   20.4490 N   0  0  0  0  0  4  0  0  0  0  0  0
  -30.7650  -24.2280   21.0090 H   0  0  0  0  0  0  0  0  0  0  0  0
  -29.1660  -24.5060   21.0570 H   0  0  0  0  0  0  0  0  0  0  0  0
  -30.1010  -25.2840   19.3990 C   0  0  0  0  0  2  0  0  0  0  0  0
  -28.7900  -26.0300   19.0630 C   0  0  0  0  0  2  0  0  0  0  0  0
  -28.4160  -26.8460   20.1820 O   0  0  0  0  0  0  0  0  0  0  0  0
  -24.5240  -31.9300   23.2730 C   0  0  0  0  0  0  0  0  0  0  0  0
  -27.2160  -27.5300   20.1550 C   0  0  0  0  0  0  0  0  0  0  0  0
  -23.3240  -30.5230   21.6260 C   0  0  0  0  0  3  0  0  0  0  0  0
  -24.7920  -28.9980   20.1940 C   0  0  0  0  0  0  0  0  0  0  0  0
  -25.8450  -30.9010   21.4260 C   0  0  0  0  0  2  0  0  0  0  0  0
  -25.9400  -29.5290   20.7910 C   0  0  0  0  0  0  0  0  0  0  0  0
  -27.1460  -28.7940   20.7850 C   0  0  0  0  0  3  0  0  0  0  0  0
  -26.0450  -27.0050   19.5640 C   0  0  0  0  0  3  0  0  0  0  0  0
  -24.8380  -27.7330   19.5830 C   0  0  0  0  0  3  0  0  0  0  0  0
  -23.5370  -29.8430   20.2460 C   0  0  0  0  0  2  0  0  0  0  0  0
  -24.5820  -31.1340   22.1680 N   0  0  0  0  0  0  0  0  0  0  0  0
  -23.4420  -32.1950   23.8150 O   0  0  0  0  0  0  0  0  0  0  0  0
  -22.6790  -29.4990   22.5870 C   0  0  0  0  0  0  0  0  0  0  0  0
  -21.3550  -29.3140   22.4620 N   0  0  0  0  0  0  0  0  0  0  0  0
  -23.3660  -28.8740   23.4000 O   0  0  0  0  0  0  0  0  0  0  0  0
  -20.8620  -29.8680   21.7760 H   0  0  0  0  0  0  0  0  0  0  0  0
  -17.9840  -28.1090   22.9570 C   0  0  0  0  0  0  0  0  0  0  0  0
  -20.5420  -28.3710   23.2300 C   0  0  0  0  0  3  0  0  0  0  0  0
  -20.6470  -26.9420   22.6490 C   0  0  0  0  0  2  0  0  0  0  0  0
  -19.5450  -26.6220   21.6350 C   0  0  0  0  0  2  0  0  0  0  0  0
  -18.1620  -26.7610   22.2770 C   0  0  0  0  0  2  0  0  0  0  0  0
  -19.1000  -28.8700   23.3900 C   0  0  0  0  0  0  0  0  0  0  0  0
  -18.8790  -30.1320   23.9850 C   0  0  0  0  0  3  0  0  0  0  0  0
  -17.5730  -30.6310   24.1510 C   0  0  0  0  0  3  0  0  0  0  0  0
  -16.4700  -29.8650   23.7330 C   0  0  0  0  0  3  0  0  0  0  0  0
  -16.6770  -28.6060   23.1420 C   0  0  0  0  0  3  0  0  0  0  0  0
  -25.8090  -32.5650   23.8930 C   0  0  0  0  0  3  0  0  0  0  0  0
  -25.5060  -33.9710   24.1950 N   0  0  0  0  0  0  0  0  0  0  0  0
  -25.8700  -35.0080   23.4290 C   0  0  0  0  0  0  0  0  0  0  0  0
  -26.5640  -34.8800   22.4160 O   0  0  0  0  0  0  0  0  0  0  0  0
  -24.8880  -34.1440   24.9750 H   0  0  0  0  0  0  0  0  0  0  0  0
  -24.1840  -36.8200   22.9870 C   0  0  0  0  0  1  0  0  0  0  0  0
  -25.3870  -36.4080   23.8500 C   0  0  0  0  0  3  0  0  0  0  0  0
  -27.5000  -37.2700   24.7550 C   0  0  0  0  0  1  0  0  0  0  0  0
  -26.4410  -37.4440   23.7650 N   0  0  0  0  0  0  0  0  0  0  0  0
  -26.0440  -38.3720   23.8840 H   0  0  0  0  0  0  0  0  0  0  0  0
  -26.3130  -31.8110   25.1830 C   0  0  1  0  0  0  0  0  0  0  0  0
  -25.2110  -31.5990   26.2480 C   0  0  0  0  0  1  0  0  0  0  0  0
  -26.8890  -30.4240   24.8150 C   0  0  0  0  0  1  0  0  0  0  0  0
  -27.4640  -32.6100   25.8400 C   0  0  0  0  0  1  0  0  0  0  0  0
  2  8  1  0
  2  1  1  0
  3  5  1  0
  3  4  1  0
  4  8  1  0
  5  7  1  0
  5  6  1  0
  6  8  1  0
  6 10  1  0
  8  9  1  1
 11 19  1  0
 12 17  1  0
 13 14  1  0
 13 12  1  0
 15 14  1  0
 15 24  1  0
 15 16  1  0
 17 11  1  0
 17 16  1  0
 18 11  2  0
 19 10  1  0
 19 20  1  0
 21 22  2  0
 22 23  1  0
 22 41  1  0
 23 26  1  0
 24 21  1  0
 24 25  1  0
 25 23  2  0
 26 27  1  0
 27 28  2  0
 29 32  1  0
 29 28  1  0
 30 29  2  0
 31 30  1  0
 31 26  2  0
 32 33  1  0
 33 34  1  0
 34 35  2  0
 36 35  1  0
 36 40  1  0
 37 36  2  0
 38 33  2  0
 38 37  1  0
 39 38  1  0
 41 42  1  0
 42 45  1  0
 42 44  1  0
 43 41  2  0
 46 47  1  0
 46 21  1  0
 48 46  1  0
 49 50  1  0
 49  1  1  0
 50 51  1  0
 50 52  1  0
 53 50  1  0
 54 53  1  0
 54 55  1  0
 56 67  2  0
 57 55  1  0
 57 62  1  0
 58 66  1  0
 58 68  1  0
 59 65  1  0
 59 61  1  0
 60 66  1  0
 61 60  1  0
 62 61  2  0
 63 64  1  0
 63 57  2  0
 64 59  2  0
 65 58  1  0
 66 56  1  0
 68 70  2  0
 69 68  1  0
 71 69  1  0
 72 81  2  0
 72 77  1  0
 73 69  1  0
 73 77  1  0
 74 73  1  0
 75 76  1  0
 75 74  1  0
 76 72  1  0
 77 78  2  0
 78 79  1  0
 80 79  2  0
 81 80  1  0
 82 56  1  0
 82 83  1  0
 82 92  1  0
 83 86  1  0
 84 88  1  0
 84 83  1  0
 85 84  2  0
 88 87  1  0
 90 88  1  0
 90 91  1  0
 90 89  1  0
 92 95  1  1
 92 93  1  0
 94 92  1  0
M  ISO  4  11 100  19 100  54 101  55 101
M  END
>  <TORSDO>  (22) 
F 23

>  <SCORE>  (22) 
-12.285

>  <name>  (22) 
22

>  <ligand_id>  (22) 
22

>  <original_smiles>  (22) 
[H]c1c([H])c([H])c2c(c1[H])C([H])([H])C([H])([H])C([H])([H])C2([H])N([H])C(=O)C1([H])N(C(=O)C([H])(N([H])C(=O)C([H])(N([H])C([H])([H])[H])C([H])([H])[H])C(C([H])([H])[H])(C([H])([H])[H])C([H])([H])[H])C([H])([H])c2c([H])c(OC([H])([H])C([H])([H])[N+]([H])([H])C([H])([H])C([H])([H])C([H])([H])[N+]3([H])C([H])([H])C([H])([H])C([H])(C([H])([H])[H])C3([H])C([H])([H])N([H])C(=O)N3C([H])([H])C([H])([H])C([H])([H])C([H])(n4nc(-c5c([H])c([H])c(Oc6c([H])c([H])c(F)c([H])c6F)c([H])c5[H])c(C(=O)N([H])[H])c4N([H])[H])C3([H])[H])c([H])c([H])c2C1([H])[H]

>  <smiles>  (22) 
[H]c1c([H])c([H])c2c(c1[H])C([H])([H])C([H])([H])C([H])([H])C2([H])N([H])C(=O)C1([H])N(C(=O)C([H])(N([H])C(=O)C([H])(N([H])C([H])([H])[H])C([H])([H])[H])C(C([H])([H])[H])(C([H])([H])[H])C([H])([H])[H])C([H])([H])c2c([H])c(OC([H])([H])C([H])([H])[N+]([H])([H])C([H])([H])C([H])([H])C([H])([H])[N+]3([H])C([H])([H])C([H])([H])C([H])(C([H])([H])[H])C3([H])C([H])([H])N([H])C(=O)N3C([H])([H])C([H])([H])C([H])([H])C([H])(n4nc(-c5c([H])c([H])c(Oc6c([H])c([H])c(F)c([H])c6F)c([H])c5[H])c(C(=O)N([H])[H])c4N([H])[H])C3([H])[H])c([H])c([H])c2C1([H])[H]

$$$$
23:0:0
     RDKit          3D

 93101  0  0  1  0  0  0  0  0999 V2000
  -29.9280  -21.0420   21.4360 N   0  0  0  0  0  0  0  0  0  0  0  0
  -30.7110  -21.3720   21.9950 H   0  0  0  0  0  0  0  0  0  0  0  0
  -31.1130  -18.9060   21.5920 C   0  0  0  0  0  2  0  0  0  0  0  0
  -29.1700  -19.0570   20.1130 C   0  0  0  0  0  2  0  0  0  0  0  0
  -30.3580  -19.8750   20.6720 C   0  0  0  0  0  3  0  0  0  0  0  0
  -30.6890  -17.5280   21.0880 C   0  0  0  0  0  3  0  0  0  0  0  0
  -29.2840  -17.7100   20.6920 N   0  0  0  0  0  4  0  0  0  0  0  0
  -28.9750  -17.0090   20.0410 H   0  0  0  0  0  0  0  0  0  0  0  0
  -28.7060  -17.6770   21.5160 H   0  0  0  0  0  0  0  0  0  0  0  0
  -30.8990  -16.3850   22.1030 C   0  0  0  0  0  2  0  0  0  0  0  0
  -30.7690  -14.3460   20.6850 C   0  0  0  0  0  0  0  0  0  0  0  0
  -30.4160  -12.2810   19.3870 C   0  0  0  0  0  2  0  0  0  0  0  0
  -29.4820  -12.5260   18.1860 C   0  0  0  0  0  2  0  0  0  0  0  0
  -28.0070  -12.3770   18.6040 C   0  0  0  0  0  2  0  0  0  0  0  0
  -27.6650  -13.1980   19.8750 C   0  0  0  0  0  3  0  0  0  0  0  0
  -28.7040  -12.9340   20.9880 C   0  0  0  0  0  2  0  0  0  0  0  0
  -30.0490  -13.2200   20.4550 N   0  0  0  0  0  0  0  0  0  0  0  0
  -31.7880  -14.6490   20.0580 O   0  0  0  0  0  0  0  0  0  0  0  0
  -30.2940  -15.1310   21.6570 N   0  0  0  0  0  0  0  0  0  0  0  0
  -29.4790  -14.7960   22.1520 H   0  0  0  0  0  0  0  0  0  0  0  0
  -25.2610  -13.8140   20.5680 C   0  0  0  0  0  0  0  0  0  0  0  0
  -24.1850  -13.0430   20.9170 C   0  0  0  0  0  0  0  0  0  0  0  0
  -24.6400  -11.6910   20.8730 C   0  0  0  0  0  0  0  0  0  0  0  0
  -26.3040  -12.9300   20.3350 N   0  0  0  0  0  0  0  0  0  0  0  0
  -25.9320  -11.6480   20.5750 N   0  0  0  0  0  0  0  0  0  0  0  0
  -23.9060  -10.4290   21.0400 C   0  0  0  0  0  0  0  0  0  0  0  0
  -24.3620   -9.4220   21.9190 C   0  0  0  0  0  3  0  0  0  0  0  0
  -23.6290   -8.2260   22.0760 C   0  0  0  0  0  3  0  0  0  0  0  0
  -22.4280   -8.0280   21.3550 C   0  0  0  0  0  0  0  0  0  0  0  0
  -21.9910   -9.0250   20.4640 C   0  0  0  0  0  3  0  0  0  0  0  0
  -22.7240  -10.2130   20.3050 C   0  0  0  0  0  3  0  0  0  0  0  0
  -21.6640   -6.8880   21.4250 O   0  0  0  0  0  0  0  0  0  0  0  0
  -21.6850   -6.0740   22.5280 C   0  0  0  0  0  0  0  0  0  0  0  0
  -21.4000   -6.5650   23.8210 C   0  0  0  0  0  3  0  0  0  0  0  0
  -21.3650   -5.6800   24.9170 C   0  0  0  0  0  3  0  0  0  0  0  0
  -21.6050   -4.3070   24.7220 C   0  0  0  0  0  0  0  0  0  0  0  0
  -21.8820   -3.8160   23.4340 C   0  0  0  0  0  3  0  0  0  0  0  0
  -21.9200   -4.6970   22.3400 C   0  0  0  0  0  0  0  0  0  0  0  0
  -22.1670   -4.2160   21.0980 F   0  0  0  0  0  0  0  0  0  0  0  0
  -21.5630   -3.4540   25.7730 F   0  0  0  0  0  0  0  0  0  0  0  0
  -22.7870  -13.5250   21.1840 C   0  0  0  0  0  0  0  0  0  0  0  0
  -22.0500  -12.8240   22.0380 N   0  0  0  0  0  0  0  0  0  0  0  0
  -22.3580  -14.5580   20.6700 O   0  0  0  0  0  0  0  0  0  0  0  0
  -22.4070  -11.9860   22.4730 H   0  0  0  0  0  0  0  0  0  0  0  0
  -21.1120  -13.1290   22.2590 H   0  0  0  0  0  0  0  0  0  0  0  0
  -25.4320  -15.1860   20.4090 N   0  0  0  0  0  0  0  0  0  0  0  0
  -24.6560  -15.8320   20.4990 H   0  0  0  0  0  0  0  0  0  0  0  0
  -26.2680  -15.6210   20.0450 H   0  0  0  0  0  0  0  0  0  0  0  0
  -29.5620  -22.1030   20.5110 C   0  0  0  0  0  2  0  0  0  0  0  0
  -29.1260  -23.3430   21.2910 C   0  0  0  0  0  2  0  0  0  0  0  0
  -28.8340  -24.4940   20.3290 C   0  0  0  0  0  2  0  0  0  0  0  0
  -28.5390  -25.8080   21.0460 C   0  0  0  0  0  2  0  0  0  0  0  0
  -28.4170  -26.8050   20.0460 O   0  0  0  0  0  0  0  0  0  0  0  0
  -24.6070  -31.8730   23.2140 C   0  0  0  0  0  0  0  0  0  0  0  0
  -27.2400  -27.4950   20.0900 C   0  0  0  0  0  0  0  0  0  0  0  0
  -23.3920  -30.4940   21.5540 C   0  0  0  0  0  3  0  0  0  0  0  0
  -24.8410  -28.9610   20.1200 C   0  0  0  0  0  0  0  0  0  0  0  0
  -25.9130  -30.8550   21.3580 C   0  0  0  0  0  2  0  0  0  0  0  0
  -25.9940  -29.4910   20.7110 C   0  0  0  0  0  0  0  0  0  0  0  0
  -27.2000  -28.7630   20.6970 C   0  0  0  0  0  3  0  0  0  0  0  0
  -26.0770  -26.9590   19.5030 C   0  0  0  0  0  3  0  0  0  0  0  0
  -24.8730  -27.6900   19.5160 C   0  0  0  0  0  3  0  0  0  0  0  0
  -23.5960  -29.8180   20.1700 C   0  0  0  0  0  2  0  0  0  0  0  0
  -24.6560  -31.0870   22.1020 N   0  0  0  0  0  0  0  0  0  0  0  0
  -23.5280  -32.1480   23.7560 O   0  0  0  0  0  0  0  0  0  0  0  0
  -22.7360  -29.4690   22.5050 C   0  0  0  0  0  0  0  0  0  0  0  0
  -21.4100  -29.3020   22.3780 N   0  0  0  0  0  0  0  0  0  0  0  0
  -23.4170  -28.8260   23.3100 O   0  0  0  0  0  0  0  0  0  0  0  0
  -20.9250  -29.8720   21.6980 H   0  0  0  0  0  0  0  0  0  0  0  0
  -18.0260  -28.1360   22.8510 C   0  0  0  0  0  0  0  0  0  0  0  0
  -20.5840  -28.3650   23.1350 C   0  0  0  0  0  3  0  0  0  0  0  0
  -20.6760  -26.9390   22.5440 C   0  0  0  0  0  2  0  0  0  0  0  0
  -19.5750  -26.6370   21.5230 C   0  0  0  0  0  2  0  0  0  0  0  0
  -18.1910  -26.7940   22.1590 C   0  0  0  0  0  2  0  0  0  0  0  0
  -19.1510  -28.8820   23.2920 C   0  0  0  0  0  0  0  0  0  0  0  0
  -18.9440  -30.1420   23.8930 C   0  0  0  0  0  3  0  0  0  0  0  0
  -17.6450  -30.6590   24.0550 C   0  0  0  0  0  3  0  0  0  0  0  0
  -16.5330  -29.9090   23.6320 C   0  0  0  0  0  3  0  0  0  0  0  0
  -16.7240  -28.6490   23.0380 C   0  0  0  0  0  3  0  0  0  0  0  0
  -25.9000  -32.4850   23.8420 C   0  0  0  0  0  3  0  0  0  0  0  0
  -25.5890  -33.8650   24.2360 N   0  0  0  0  0  0  0  0  0  0  0  0
  -25.9040  -34.9500   23.5160 C   0  0  0  0  0  0  0  0  0  0  0  0
  -26.5600  -34.8940   22.4720 O   0  0  0  0  0  0  0  0  0  0  0  0
  -25.0060  -33.9820   25.0520 H   0  0  0  0  0  0  0  0  0  0  0  0
  -24.1470  -36.7310   23.2640 C   0  0  0  0  0  1  0  0  0  0  0  0
  -25.4100  -36.3140   24.0350 C   0  0  0  0  0  3  0  0  0  0  0  0
  -27.5590  -37.1800   24.8470 C   0  0  0  0  0  1  0  0  0  0  0  0
  -26.4280  -37.3830   23.9420 N   0  0  0  0  0  0  0  0  0  0  0  0
  -26.0190  -38.2900   24.1490 H   0  0  0  0  0  0  0  0  0  0  0  0
  -26.4460  -31.6600   25.0720 C   0  0  1  0  0  0  0  0  0  0  0  0
  -25.3740  -31.3650   26.1470 C   0  0  0  0  0  1  0  0  0  0  0  0
  -27.0290  -30.3060   24.6050 C   0  0  0  0  0  1  0  0  0  0  0  0
  -27.6030  -32.4310   25.7500 C   0  0  0  0  0  1  0  0  0  0  0  0
  1  2  1  0
  4  5  1  0
  4  7  1  0
  5  1  1  0
  5  3  1  0
  6  3  1  0
  6 10  1  0
  7  6  1  0
  7  9  1  0
  8  7  1  0
 11 19  1  0
 12 17  1  0
 13 14  1  0
 13 12  1  0
 15 14  1  0
 15 24  1  0
 15 16  1  0
 17 11  1  0
 17 16  1  0
 18 11  2  0
 19 10  1  0
 19 20  1  0
 21 22  2  0
 22 41  1  0
 23 22  1  0
 23 26  1  0
 24 21  1  0
 24 25  1  0
 25 23  2  0
 26 27  1  0
 27 28  2  0
 29 32  1  0
 29 28  1  0
 30 29  2  0
 31 30  1  0
 31 26  2  0
 32 33  1  0
 33 34  1  0
 34 35  2  0
 36 35  1  0
 36 40  1  0
 37 36  2  0
 38 33  2  0
 38 37  1  0
 39 38  1  0
 41 42  1  0
 42 45  1  0
 42 44  1  0
 43 41  2  0
 46 47  1  0
 46 21  1  0
 48 46  1  0
 49 50  1  0
 49  1  1  0
 51 52  1  0
 51 50  1  0
 53 55  1  0
 53 52  1  0
 54 65  2  0
 55 60  1  0
 56 64  1  0
 56 66  1  0
 57 63  1  0
 57 59  1  0
 58 64  1  0
 59 58  1  0
 60 59  2  0
 61 62  1  0
 61 55  2  0
 62 57  2  0
 63 56  1  0
 64 54  1  0
 66 68  2  0
 67 66  1  0
 69 67  1  0
 70 79  2  0
 70 75  1  0
 71 67  1  0
 71 75  1  0
 72 71  1  0
 73 74  1  0
 73 72  1  0
 74 70  1  0
 75 76  2  0
 76 77  1  0
 78 77  2  0
 79 78  1  0
 80 54  1  0
 80 81  1  0
 80 90  1  0
 81 84  1  0
 82 86  1  0
 82 81  1  0
 83 82  2  0
 86 85  1  0
 88 86  1  0
 88 89  1  0
 88 87  1  0
 90 93  1  1
 90 91  1  0
 92 90  1  0
M  ISO  4  11 100  19 100  52 101  53 101
M  END
>  <TORSDO>  (23) 
F 22

>  <SCORE>  (23) 
-13.113

>  <name>  (23) 
23

>  <ligand_id>  (23) 
23

>  <original_smiles>  (23) 
[H]c1c([H])c([H])c2c(c1[H])C([H])([H])C([H])([H])C([H])([H])C2([H])N([H])C(=O)C1([H])N(C(=O)C([H])(N([H])C(=O)C([H])(N([H])C([H])([H])[H])C([H])([H])[H])C(C([H])([H])[H])(C([H])([H])[H])C([H])([H])[H])C([H])([H])c2c([H])c(OC([H])([H])C([H])([H])C([H])([H])C([H])([H])N([H])C3([H])C([H])([H])C([H])(C([H])([H])N([H])C(=O)N4C([H])([H])C([H])([H])C([H])([H])C([H])(n5nc(-c6c([H])c([H])c(Oc7c([H])c([H])c(F)c([H])c7F)c([H])c6[H])c(C(=O)N([H])[H])c5N([H])[H])C4([H])[H])[N+]([H])([H])C3([H])[H])c([H])c([H])c2C1([H])[H]

>  <smiles>  (23) 
[H]c1c([H])c([H])c2c(c1[H])C([H])([H])C([H])([H])C([H])([H])C2([H])N([H])C(=O)C1([H])N(C(=O)C([H])(N([H])C(=O)C([H])(N([H])C([H])([H])[H])C([H])([H])[H])C(C([H])([H])[H])(C([H])([H])[H])C([H])([H])[H])C([H])([H])c2c([H])c(OC([H])([H])C([H])([H])C([H])([H])C([H])([H])N([H])C3([H])C([H])([H])C([H])(C([H])([H])N([H])C(=O)N4C([H])([H])C([H])([H])C([H])([H])C([H])(n5nc(-c6c([H])c([H])c(Oc7c([H])c([H])c(F)c([H])c7F)c([H])c6[H])c(C(=O)N([H])[H])c5N([H])[H])C4([H])[H])[N+]([H])([H])C3([H])[H])c([H])c([H])c2C1([H])[H]

$$$$
24:0:0
     RDKit          3D

 94102  0  0  1  0  0  0  0  0999 V2000
  -26.7260  -22.3650   20.3340 C   0  0  0  0  0  2  0  0  0  0  0  0
  -27.8350  -23.2020   20.8470 N   0  0  0  0  0  4  0  0  0  0  0  0
  -28.7100  -22.7470   20.6510 H   0  0  0  0  0  0  0  0  0  0  0  0
  -27.7510  -23.2720   21.8500 H   0  0  0  0  0  0  0  0  0  0  0  0
  -27.8900  -24.5700   20.2820 C   0  0  0  0  0  2  0  0  0  0  0  0
  -29.2850  -24.8970   19.7110 C   0  0  0  0  0  2  0  0  0  0  0  0
  -29.3810  -26.2040   18.8950 C   0  0  0  0  0  2  0  0  0  0  0  0
  -29.0740  -27.3650   19.6680 O   0  0  0  0  0  0  0  0  0  0  0  0
  -24.5700  -31.5470   23.2210 C   0  0  0  0  0  0  0  0  0  0  0  0
  -27.7900  -27.8710   19.7080 C   0  0  0  0  0  0  0  0  0  0  0  0
  -23.5620  -30.1890   21.4160 C   0  0  0  0  0  3  0  0  0  0  0  0
  -25.2070  -29.0220   19.8590 C   0  0  0  0  0  0  0  0  0  0  0  0
  -26.0180  -30.8950   21.3020 C   0  0  0  0  0  2  0  0  0  0  0  0
  -26.2830  -29.6250   20.5200 C   0  0  0  0  0  0  0  0  0  0  0  0
  -27.5710  -29.0530   20.4490 C   0  0  0  0  0  3  0  0  0  0  0  0
  -26.6880  -27.2750   19.0470 C   0  0  0  0  0  3  0  0  0  0  0  0
  -25.4040  -27.8400   19.1250 C   0  0  0  0  0  3  0  0  0  0  0  0
  -23.8610  -29.6970   19.9760 C   0  0  0  0  0  2  0  0  0  0  0  0
  -24.7340  -30.8870   22.0400 N   0  0  0  0  0  0  0  0  0  0  0  0
  -23.4610  -31.6130   23.7690 O   0  0  0  0  0  0  0  0  0  0  0  0
  -23.0530  -28.9900   22.2480 C   0  0  0  0  0  0  0  0  0  0  0  0
  -21.8060  -28.5670   21.9840 N   0  0  0  0  0  0  0  0  0  0  0  0
  -23.7800  -28.4460   23.0840 O   0  0  0  0  0  0  0  0  0  0  0  0
  -21.2720  -29.0710   21.2900 H   0  0  0  0  0  0  0  0  0  0  0  0
  -18.7600  -26.6280   21.9810 C   0  0  0  0  0  0  0  0  0  0  0  0
  -21.1330  -27.4320   22.6120 C   0  0  0  0  0  3  0  0  0  0  0  0
  -21.6350  -26.0930   22.0230 C   0  0  0  0  0  2  0  0  0  0  0  0
  -20.7750  -25.5850   20.8610 C   0  0  0  0  0  2  0  0  0  0  0  0
  -19.3250  -25.3860   21.3120 C   0  0  0  0  0  2  0  0  0  0  0  0
  -19.6100  -27.5960   22.5780 C   0  0  0  0  0  0  0  0  0  0  0  0
  -19.0350  -28.7500   23.1540 C   0  0  0  0  0  3  0  0  0  0  0  0
  -17.6420  -28.9430   23.1420 C   0  0  0  0  0  3  0  0  0  0  0  0
  -16.8020  -27.9740   22.5650 C   0  0  0  0  0  3  0  0  0  0  0  0
  -17.3620  -26.8180   21.9910 C   0  0  0  0  0  3  0  0  0  0  0  0
  -25.7590  -32.2700   23.9270 C   0  0  0  0  0  3  0  0  0  0  0  0
  -26.1800  -31.5900   25.2880 C   0  0  1  0  0  0  0  0  0  0  0  0
  -25.0020  -31.3660   26.2640 C   0  0  0  0  0  1  0  0  0  0  0  0
  -26.8430  -30.2170   25.0300 C   0  0  0  0  0  1  0  0  0  0  0  0
  -27.2370  -32.4630   26.0060 C   0  0  0  0  0  1  0  0  0  0  0  0
  -25.3600  -33.6670   24.1420 N   0  0  0  0  0  0  0  0  0  0  0  0
  -25.7940  -34.7020   23.4110 C   0  0  0  0  0  0  0  0  0  0  0  0
  -26.6360  -34.5830   22.5160 O   0  0  0  0  0  0  0  0  0  0  0  0
  -24.6310  -33.8320   24.8220 H   0  0  0  0  0  0  0  0  0  0  0  0
  -24.1600  -36.4510   22.6400 C   0  0  0  0  0  1  0  0  0  0  0  0
  -25.1970  -36.0880   23.7150 C   0  0  0  0  0  3  0  0  0  0  0  0
  -27.0800  -37.0300   24.9800 C   0  0  0  0  0  1  0  0  0  0  0  0
  -26.2140  -37.1580   23.8110 N   0  0  0  0  0  0  0  0  0  0  0  0
  -25.7730  -38.0730   23.8400 H   0  0  0  0  0  0  0  0  0  0  0  0
  -26.8860  -20.8720   20.6860 C   0  0  0  0  0  2  0  0  0  0  0  0
  -27.9460  -20.1480   19.8330 C   0  0  0  0  0  2  0  0  0  0  0  0
  -27.8600  -18.6040   19.9090 C   0  0  0  0  0  2  0  0  0  0  0  0
  -31.6610  -14.5030   19.6050 C   0  0  0  0  0  0  0  0  0  0  0  0
  -31.4290  -12.0810   19.1980 C   0  0  0  0  0  2  0  0  0  0  0  0
  -30.4690  -11.8300   18.0180 C   0  0  0  0  0  2  0  0  0  0  0  0
  -29.0050  -11.7740   18.5030 C   0  0  0  0  0  2  0  0  0  0  0  0
  -28.6390  -12.9720   19.4180 C   0  0  0  0  0  3  0  0  0  0  0  0
  -29.7070  -13.1590   20.5130 C   0  0  0  0  0  2  0  0  0  0  0  0
  -31.0160  -13.3310   19.8580 N   0  0  0  0  0  0  0  0  0  0  0  0
  -32.7330  -14.5480   18.9910 O   0  0  0  0  0  0  0  0  0  0  0  0
  -30.9900  -16.6750   18.7340 C   0  0  0  0  0  2  0  0  0  0  0  0
  -30.6700  -16.2360   21.0740 C   0  0  0  0  0  2  0  0  0  0  0  0
  -29.6350  -17.3970   18.6370 C   0  0  0  0  0  2  0  0  0  0  0  0
  -29.2920  -16.9360   21.0530 C   0  0  0  0  0  2  0  0  0  0  0  0
  -30.9310  -15.6320   19.7620 N   0  0  0  0  0  0  0  0  0  0  0  0
  -29.1930  -17.9380   19.9530 N   0  0  2  0  0  4  0  0  0  0  0  0
  -29.8550  -18.6600   20.1960 H   0  0  0  0  0  0  0  0  0  0  0  0
  -26.3900  -13.7990   20.3610 C   0  0  0  0  0  0  0  0  0  0  0  0
  -25.2770  -13.1250   20.7880 C   0  0  0  0  0  0  0  0  0  0  0  0
  -25.5800  -11.7350   20.6550 C   0  0  0  0  0  0  0  0  0  0  0  0
  -27.3060  -12.8230   19.9960 N   0  0  0  0  0  0  0  0  0  0  0  0
  -26.8270  -11.5750   20.2310 N   0  0  0  0  0  0  0  0  0  0  0  0
  -24.7370  -10.5500   20.8490 C   0  0  0  0  0  0  0  0  0  0  0  0
  -25.0170   -9.6020   21.8590 C   0  0  0  0  0  3  0  0  0  0  0  0
  -24.1830   -8.4780   22.0370 C   0  0  0  0  0  3  0  0  0  0  0  0
  -23.0520   -8.2950   21.2060 C   0  0  0  0  0  0  0  0  0  0  0  0
  -22.7900   -9.2290   20.1890 C   0  0  0  0  0  3  0  0  0  0  0  0
  -23.6240  -10.3440   20.0080 C   0  0  0  0  0  3  0  0  0  0  0  0
  -22.1990   -7.2210   21.2900 O   0  0  0  0  0  0  0  0  0  0  0  0
  -21.8920   -6.6390   22.4950 C   0  0  0  0  0  0  0  0  0  0  0  0
  -21.3180   -7.3740   23.5540 C   0  0  0  0  0  3  0  0  0  0  0  0
  -20.9540   -6.7200   24.7490 C   0  0  0  0  0  3  0  0  0  0  0  0
  -21.1520   -5.3330   24.8820 C   0  0  0  0  0  0  0  0  0  0  0  0
  -21.7180   -4.5990   23.8250 C   0  0  0  0  0  3  0  0  0  0  0  0
  -22.0830   -5.2490   22.6330 C   0  0  0  0  0  0  0  0  0  0  0  0
  -22.6080   -4.5310   21.6100 F   0  0  0  0  0  0  0  0  0  0  0  0
  -20.7960   -4.7040   26.0260 F   0  0  0  0  0  0  0  0  0  0  0  0
  -23.9670  -13.7330   21.2000 C   0  0  0  0  0  0  0  0  0  0  0  0
  -23.2400  -13.0750   22.0970 N   0  0  0  0  0  0  0  0  0  0  0  0
  -23.6020  -14.8210   20.7610 O   0  0  0  0  0  0  0  0  0  0  0  0
  -23.5490  -12.1920   22.4760 H   0  0  0  0  0  0  0  0  0  0  0  0
  -22.3600  -13.4610   22.4100 H   0  0  0  0  0  0  0  0  0  0  0  0
  -26.6910  -15.1510   20.2310 N   0  0  0  0  0  0  0  0  0  0  0  0
  -25.9570  -15.8430   20.3420 H   0  0  0  0  0  0  0  0  0  0  0  0
  -27.4600  -15.4780   19.6630 H   0  0  0  0  0  0  0  0  0  0  0  0
  1 49  1  0
  1  2  1  0
  2  4  1  0
  3  2  1  0
  5  2  1  0
  6  5  1  0
  7  8  1  0
  7  6  1  0
  8 10  1  0
  9 20  2  0
 10 15  1  0
 11 19  1  0
 11 21  1  0
 12 18  1  0
 12 14  1  0
 13 19  1  0
 14 13  1  0
 15 14  2  0
 16 17  1  0
 16 10  2  0
 17 12  2  0
 18 11  1  0
 19  9  1  0
 21 23  2  0
 22 21  1  0
 24 22  1  0
 25 34  2  0
 25 30  1  0
 26 22  1  0
 27 26  1  0
 28 29  1  0
 28 27  1  0
 29 25  1  0
 30 26  1  0
 30 31  2  0
 32 31  1  0
 33 32  2  0
 34 33  1  0
 35  9  1  0
 35 40  1  0
 35 36  1  0
 36 39  1  1
 36 37  1  0
 38 36  1  0
 40 43  1  0
 41 45  1  0
 41 40  1  0
 42 41  2  0
 45 44  1  0
 45 47  1  0
 47 48  1  0
 47 46  1  0
 50 51  1  0
 50 49  1  0
 51 65  1  0
 52 64  1  0
 52 58  1  0
 53 58  1  0
 54 55  1  0
 54 53  1  0
 56 55  1  0
 56 70  1  0
 56 57  1  0
 58 57  1  0
 59 52  2  0
 60 64  1  0
 62 60  1  0
 62 65  1  0
 63 61  1  0
 64 61  1  0
 65 66  1  1
 65 63  1  0
 67 68  2  0
 68 87  1  0
 69 68  1  0
 69 72  1  0
 70 71  1  0
 70 67  1  0
 71 69  2  0
 72 73  1  0
 73 74  2  0
 75 78  1  0
 75 74  1  0
 76 75  2  0
 77 76  1  0
 77 72  2  0
 78 79  1  0
 79 84  2  0
 79 80  1  0
 80 81  2  0
 81 82  1  0
 82 86  1  0
 83 82  2  0
 84 83  1  0
 85 84  1  0
 87 88  1  0
 88 91  1  0
 88 90  1  0
 89 87  2  0
 92 93  1  0
 92 67  1  0
 94 92  1  0
M  ISO  4   7 101   8 101  52 100  64 100
M  END
>  <TORSDO>  (24) 
F 23

>  <SCORE>  (24) 
-9.056

>  <name>  (24) 
24

>  <ligand_id>  (24) 
24

>  <original_smiles>  (24) 
[H]c1c([H])c([H])c2c(c1[H])C([H])([H])C([H])([H])C([H])([H])C2([H])N([H])C(=O)C1([H])N(C(=O)C([H])(N([H])C(=O)C([H])(N([H])C([H])([H])[H])C([H])([H])[H])C(C([H])([H])[H])(C([H])([H])[H])C([H])([H])[H])C([H])([H])c2c([H])c(OC([H])([H])C([H])([H])C([H])([H])[N+]([H])([H])C([H])([H])C([H])([H])C([H])([H])C([H])([H])[N+]3([H])C([H])([H])C([H])([H])N(C(=O)N4C([H])([H])C([H])([H])C([H])([H])C([H])(n5nc(-c6c([H])c([H])c(Oc7c([H])c([H])c(F)c([H])c7F)c([H])c6[H])c(C(=O)N([H])[H])c5N([H])[H])C4([H])[H])C([H])([H])C3([H])[H])c([H])c([H])c2C1([H])[H]

>  <smiles>  (24) 
[H]c1c([H])c([H])c2c(c1[H])C([H])([H])C([H])([H])C([H])([H])C2([H])N([H])C(=O)C1([H])N(C(=O)C([H])(N([H])C(=O)C([H])(N([H])C([H])([H])[H])C([H])([H])[H])C(C([H])([H])[H])(C([H])([H])[H])C([H])([H])[H])C([H])([H])c2c([H])c(OC([H])([H])C([H])([H])C([H])([H])[N+]([H])([H])C([H])([H])C([H])([H])C([H])([H])C([H])([H])[N+]3([H])C([H])([H])C([H])([H])N(C(=O)N4C([H])([H])C([H])([H])C([H])([H])C([H])(n5nc(-c6c([H])c([H])c(Oc7c([H])c([H])c(F)c([H])c7F)c([H])c6[H])c(C(=O)N([H])[H])c5N([H])[H])C4([H])[H])C([H])([H])C3([H])[H])c([H])c([H])c2C1([H])[H]

$$$$
25:0:0
     RDKit          3D

 94102  0  0  1  0  0  0  0  0999 V2000
  -28.7370  -18.7750   20.6740 C   0  0  0  0  0  3  0  0  0  0  0  0
  -28.2730  -20.1210   20.7680 C   0  0  0  0  0  3  0  0  0  0  0  0
  -30.9850  -19.6210   20.5660 C   0  0  0  0  0  3  0  0  0  0  0  0
  -30.1200  -18.4990   20.6010 C   0  0  0  0  0  0  0  0  0  0  0  0
  -29.1480  -21.2480   20.8030 C   0  0  0  0  0  0  0  0  0  0  0  0
  -30.5420  -20.9720   20.6690 C   0  0  0  0  0  0  0  0  0  0  0  0
  -31.6010  -22.0790   20.6460 C   0  0  1  0  0  0  0  0  0  0  0  0
  -32.8320  -21.5910   20.8130 F   0  0  0  0  0  0  0  0  0  0  0  0
  -31.5720  -22.6900   19.4610 F   0  0  0  0  0  0  0  0  0  0  0  0
  -31.4040  -22.9790   21.6090 F   0  0  0  0  0  0  0  0  0  0  0  0
  -28.5630  -22.6590   21.1800 C   0  0  0  0  0  2  0  0  0  0  0  0
  -28.7250  -23.9510   20.2720 C   0  0  0  0  0  3  0  0  0  0  0  0
  -28.0990  -23.7180   19.1180 F   0  0  0  0  0  0  0  0  0  0  0  0
  -28.1370  -25.2730   20.9130 C   0  0  0  0  0  2  0  0  0  0  0  0
  -28.3780  -26.5720   20.2640 O   0  0  0  0  0  0  0  0  0  0  0  0
  -24.6030  -31.8930   23.2560 C   0  0  0  0  0  0  0  0  0  0  0  0
  -27.2730  -27.4140   20.2050 C   0  0  0  0  0  0  0  0  0  0  0  0
  -23.4240  -30.5010   21.5910 C   0  0  0  0  0  3  0  0  0  0  0  0
  -24.9000  -28.9780   20.1640 C   0  0  0  0  0  0  0  0  0  0  0  0
  -25.9580  -30.8520   21.4330 C   0  0  0  0  0  2  0  0  0  0  0  0
  -26.0540  -29.4830   20.7750 C   0  0  0  0  0  0  0  0  0  0  0  0
  -27.2500  -28.7130   20.7840 C   0  0  0  0  0  3  0  0  0  0  0  0
  -26.1070  -26.9520   19.5630 C   0  0  0  0  0  3  0  0  0  0  0  0
  -24.9260  -27.7180   19.5460 C   0  0  0  0  0  3  0  0  0  0  0  0
  -23.6540  -29.8380   20.2060 C   0  0  0  0  0  2  0  0  0  0  0  0
  -24.6790  -31.0970   22.1510 N   0  0  0  0  0  0  0  0  0  0  0  0
  -23.5130  -32.1600   23.7830 O   0  0  0  0  0  0  0  0  0  0  0  0
  -22.7620  -29.4710   22.5350 C   0  0  0  0  0  0  0  0  0  0  0  0
  -21.4370  -29.2910   22.3970 N   0  0  0  0  0  0  0  0  0  0  0  0
  -23.4370  -28.8390   23.3530 O   0  0  0  0  0  0  0  0  0  0  0  0
  -20.9530  -29.8500   21.7090 H   0  0  0  0  0  0  0  0  0  0  0  0
  -18.0550  -28.1080   22.8800 C   0  0  0  0  0  0  0  0  0  0  0  0
  -20.6150  -28.3460   23.1540 C   0  0  0  0  0  3  0  0  0  0  0  0
  -20.7090  -26.9230   22.5550 C   0  0  0  0  0  2  0  0  0  0  0  0
  -19.6040  -26.6240   21.5380 C   0  0  0  0  0  2  0  0  0  0  0  0
  -18.2230  -26.7680   22.1840 C   0  0  0  0  0  2  0  0  0  0  0  0
  -19.1790  -28.8560   23.3210 C   0  0  0  0  0  0  0  0  0  0  0  0
  -18.9690  -30.1110   23.9330 C   0  0  0  0  0  3  0  0  0  0  0  0
  -17.6670  -30.6170   24.1080 C   0  0  0  0  0  3  0  0  0  0  0  0
  -16.5580  -29.8650   23.6830 C   0  0  0  0  0  3  0  0  0  0  0  0
  -16.7520  -28.6140   23.0750 C   0  0  0  0  0  3  0  0  0  0  0  0
  -25.8770  -32.5280   23.8960 C   0  0  0  0  0  3  0  0  0  0  0  0
  -25.5610  -33.9260   24.2170 N   0  0  0  0  0  0  0  0  0  0  0  0
  -25.9000  -34.9770   23.4580 C   0  0  0  0  0  0  0  0  0  0  0  0
  -26.5810  -34.8720   22.4350 O   0  0  0  0  0  0  0  0  0  0  0  0
  -24.9600  -34.0840   25.0120 H   0  0  0  0  0  0  0  0  0  0  0  0
  -24.1780  -36.7670   23.0720 C   0  0  0  0  0  1  0  0  0  0  0  0
  -25.4040  -36.3650   23.9060 C   0  0  0  0  0  3  0  0  0  0  0  0
  -27.5170  -37.2540   24.7820 C   0  0  0  0  0  1  0  0  0  0  0  0
  -26.4380  -37.4170   23.8120 N   0  0  0  0  0  0  0  0  0  0  0  0
  -26.0280  -38.3370   23.9490 H   0  0  0  0  0  0  0  0  0  0  0  0
  -26.3740  -31.7610   25.1810 C   0  0  1  0  0  0  0  0  0  0  0  0
  -25.2660  -31.5180   26.2330 C   0  0  0  0  0  1  0  0  0  0  0  0
  -26.9700  -30.3850   24.7990 C   0  0  0  0  0  1  0  0  0  0  0  0
  -27.5100  -32.5620   25.8630 C   0  0  0  0  0  1  0  0  0  0  0  0
  -30.7890  -17.0910   20.5930 C   0  0  0  0  0  2  0  0  0  0  0  0
  -30.6960  -14.6380   20.1960 C   0  0  0  0  0  0  0  0  0  0  0  0
  -30.3150  -12.4770   19.0620 C   0  0  0  0  0  2  0  0  0  0  0  0
  -29.3260  -12.6630   17.8950 C   0  0  0  0  0  2  0  0  0  0  0  0
  -27.8780  -12.5120   18.3930 C   0  0  0  0  0  2  0  0  0  0  0  0
  -27.5900  -13.3440   19.6710 C   0  0  0  0  0  3  0  0  0  0  0  0
  -28.6970  -13.1760   20.7350 C   0  0  0  0  0  2  0  0  0  0  0  0
  -29.9780  -13.4810   20.0900 N   0  0  0  0  0  0  0  0  0  0  0  0
  -31.8560  -14.7000   19.7870 O   0  0  0  0  0  0  0  0  0  0  0  0
  -30.0590  -15.7870   20.5730 N   0  0  0  0  0  0  0  0  0  0  0  0
  -29.0910  -15.7520   20.8510 H   0  0  0  0  0  0  0  0  0  0  0  0
  -25.2290  -13.9230   20.4980 C   0  0  0  0  0  0  0  0  0  0  0  0
  -24.1780  -13.1390   20.8910 C   0  0  0  0  0  0  0  0  0  0  0  0
  -24.6410  -11.7890   20.8170 C   0  0  0  0  0  0  0  0  0  0  0  0
  -26.2650  -13.0500   20.2080 N   0  0  0  0  0  0  0  0  0  0  0  0
  -25.9190  -11.7610   20.4610 N   0  0  0  0  0  0  0  0  0  0  0  0
  -23.9230  -10.5220   21.0070 C   0  0  0  0  0  0  0  0  0  0  0  0
  -24.3700   -9.5520   21.9300 C   0  0  0  0  0  3  0  0  0  0  0  0
  -23.6540   -8.3490   22.1090 C   0  0  0  0  0  3  0  0  0  0  0  0
  -22.4750   -8.1080   21.3640 C   0  0  0  0  0  0  0  0  0  0  0  0
  -22.0480   -9.0670   20.4290 C   0  0  0  0  0  3  0  0  0  0  0  0
  -22.7650  -10.2600   20.2470 C   0  0  0  0  0  3  0  0  0  0  0  0
  -21.7280   -6.9580   21.4540 O   0  0  0  0  0  0  0  0  0  0  0  0
  -21.6710   -6.2250   22.6120 C   0  0  0  0  0  0  0  0  0  0  0  0
  -21.1880   -6.7760   23.8190 C   0  0  0  0  0  3  0  0  0  0  0  0
  -21.0810   -5.9670   24.9680 C   0  0  0  0  0  3  0  0  0  0  0  0
  -21.4460   -4.6090   24.9100 C   0  0  0  0  0  0  0  0  0  0  0  0
  -21.9200   -4.0560   23.7080 C   0  0  0  0  0  3  0  0  0  0  0  0
  -22.0290   -4.8620   22.5620 C   0  0  0  0  0  0  0  0  0  0  0  0
  -22.4670   -4.3200   21.3990 F   0  0  0  0  0  0  0  0  0  0  0  0
  -21.3360   -3.8300   26.0130 F   0  0  0  0  0  0  0  0  0  0  0  0
  -22.7930  -13.6080   21.2260 C   0  0  0  0  0  0  0  0  0  0  0  0
  -22.0950  -12.8850   22.0960 N   0  0  0  0  0  0  0  0  0  0  0  0
  -22.3360  -14.6470   20.7500 O   0  0  0  0  0  0  0  0  0  0  0  0
  -22.4790  -12.0420   22.4980 H   0  0  0  0  0  0  0  0  0  0  0  0
  -21.1680  -13.1800   22.3650 H   0  0  0  0  0  0  0  0  0  0  0  0
  -25.3900  -15.2970   20.3390 N   0  0  0  0  0  0  0  0  0  0  0  0
  -24.6330  -15.9560   20.4870 H   0  0  0  0  0  0  0  0  0  0  0  0
  -26.2220  -15.7310   19.9600 H   0  0  0  0  0  0  0  0  0  0  0  0
  1  2  1  0
  2  5  2  0
  3  4  1  0
  3  6  2  0
  4  1  2  0
  5 11  1  0
  6  5  1  0
  7  6  1  0
  7  8  1  1
  7 10  1  0
  9  7  1  0
 12 13  1  0
 12 14  1  0
 12 11  1  0
 15 14  1  0
 16 27  2  0
 17 15  1  0
 17 22  1  0
 18 26  1  0
 18 28  1  0
 19 25  1  0
 19 21  1  0
 20 26  1  0
 21 22  2  0
 21 20  1  0
 23 17  2  0
 24 23  1  0
 24 19  2  0
 25 18  1  0
 26 16  1  0
 28 30  2  0
 29 28  1  0
 31 29  1  0
 32 41  2  0
 32 37  1  0
 33 29  1  0
 33 37  1  0
 34 33  1  0
 35 36  1  0
 35 34  1  0
 36 32  1  0
 37 38  2  0
 38 39  1  0
 40 39  2  0
 41 40  1  0
 42 16  1  0
 42 43  1  0
 42 52  1  0
 43 46  1  0
 44 48  1  0
 44 43  1  0
 45 44  2  0
 48 47  1  0
 50 48  1  0
 50 51  1  0
 50 49  1  0
 52 55  1  1
 52 53  1  0
 54 52  1  0
 56  4  1  0
 57 65  1  0
 58 63  1  0
 59 60  1  0
 59 58  1  0
 61 60  1  0
 61 70  1  0
 61 62  1  0
 63 57  1  0
 63 62  1  0
 64 57  2  0
 65 56  1  0
 65 66  1  0
 67 68  2  0
 68 87  1  0
 69 68  1  0
 69 72  1  0
 70 71  1  0
 70 67  1  0
 71 69  2  0
 72 73  1  0
 73 74  2  0
 75 78  1  0
 75 74  1  0
 76 75  2  0
 77 76  1  0
 77 72  2  0
 78 79  1  0
 79 80  1  0
 80 81  2  0
 82 81  1  0
 82 86  1  0
 83 82  2  0
 84 79  2  0
 84 83  1  0
 85 84  1  0
 87 88  1  0
 88 91  1  0
 88 90  1  0
 89 87  2  0
 92 93  1  0
 92 67  1  0
 94 92  1  0
M  ISO  4  14 101  15 101  57 100  65 100
M  END
>  <TORSDO>  (25) 
F 21

>  <SCORE>  (25) 
-13.637

>  <name>  (25) 
25

>  <ligand_id>  (25) 
25

>  <original_smiles>  (25) 
[H]c1c([H])c([H])c2c(c1[H])C([H])([H])C([H])([H])C([H])([H])C2([H])N([H])C(=O)C1([H])N(C(=O)C([H])(N([H])C(=O)C([H])(N([H])C([H])([H])[H])C([H])([H])[H])C(C([H])([H])[H])(C([H])([H])[H])C([H])([H])[H])C([H])([H])c2c([H])c(OC([H])([H])C([H])(F)C([H])([H])c3c([H])c([H])c(C([H])([H])N([H])C(=O)N4C([H])([H])C([H])([H])C([H])([H])C([H])(n5nc(-c6c([H])c([H])c(Oc7c([H])c([H])c(F)c([H])c7F)c([H])c6[H])c(C(=O)N([H])[H])c5N([H])[H])C4([H])[H])c([H])c3C(F)(F)F)c([H])c([H])c2C1([H])[H]

>  <smiles>  (25) 
[H]c1c([H])c([H])c2c(c1[H])C([H])([H])C([H])([H])C([H])([H])C2([H])N([H])C(=O)C1([H])N(C(=O)C([H])(N([H])C(=O)C([H])(N([H])C([H])([H])[H])C([H])([H])[H])C(C([H])([H])[H])(C([H])([H])[H])C([H])([H])[H])C([H])([H])c2c([H])c(OC([H])([H])C([H])(F)C([H])([H])c3c([H])c([H])c(C([H])([H])N([H])C(=O)N4C([H])([H])C([H])([H])C([H])([H])C([H])(n5nc(-c6c([H])c([H])c(Oc7c([H])c([H])c(F)c([H])c7F)c([H])c6[H])c(C(=O)N([H])[H])c5N([H])[H])C4([H])[H])c([H])c3C(F)(F)F)c([H])c([H])c2C1([H])[H]

$$$$
26:0:0
     RDKit          3D

 92100  0  0  1  0  0  0  0  0999 V2000
  -29.8740  -21.5510   20.4260 N   0  0  0  0  0  4  0  0  0  0  0  0
  -30.7020  -21.6490   19.8610 H   0  0  0  0  0  0  0  0  0  0  0  0
  -30.1410  -21.7790   21.3700 H   0  0  0  0  0  0  0  0  0  0  0  0
  -29.7200  -17.7930   19.1890 C   0  0  0  0  0  2  0  0  0  0  0  0
  -29.5860  -17.8200   21.6690 C   0  0  0  0  0  2  0  0  0  0  0  0
  -30.0000  -19.3280   19.1710 C   0  0  0  0  0  2  0  0  0  0  0  0
  -29.8890  -19.3480   21.6840 C   0  0  0  0  0  2  0  0  0  0  0  0
  -30.2350  -17.0860   20.4700 C   0  0  0  0  0  3  0  0  0  0  0  0
  -29.4430  -20.1040   20.4010 C   0  0  0  0  0  3  0  0  0  0  0  0
  -30.7080  -14.5930   20.0520 C   0  0  0  0  0  0  0  0  0  0  0  0
  -30.4110  -12.4080   18.9290 C   0  0  0  0  0  2  0  0  0  0  0  0
  -29.3970  -12.6040   17.7810 C   0  0  0  0  0  2  0  0  0  0  0  0
  -27.9490  -12.4480   18.2910 C   0  0  0  0  0  2  0  0  0  0  0  0
  -27.6780  -13.2650   19.5820 C   0  0  0  0  0  3  0  0  0  0  0  0
  -28.7990  -13.0500   20.6240 C   0  0  0  0  0  2  0  0  0  0  0  0
  -30.0770  -13.3860   19.9780 N   0  0  0  0  0  0  0  0  0  0  0  0
  -31.8340  -14.7800   19.5800 O   0  0  0  0  0  0  0  0  0  0  0  0
  -29.9430  -15.6260   20.4920 N   0  0  0  0  0  0  0  0  0  0  0  0
  -29.0320  -15.3600   20.8340 H   0  0  0  0  0  0  0  0  0  0  0  0
  -25.3410  -13.8570   20.4750 C   0  0  0  0  0  0  0  0  0  0  0  0
  -24.2920  -13.0770   20.8820 C   0  0  0  0  0  0  0  0  0  0  0  0
  -24.7370  -11.7250   20.7670 C   0  0  0  0  0  0  0  0  0  0  0  0
  -26.3590  -12.9770   20.1390 N   0  0  0  0  0  0  0  0  0  0  0  0
  -26.0040  -11.6880   20.3720 N   0  0  0  0  0  0  0  0  0  0  0  0
  -24.0100  -10.4620   20.9540 C   0  0  0  0  0  0  0  0  0  0  0  0
  -24.4460   -9.4920   21.8840 C   0  0  0  0  0  3  0  0  0  0  0  0
  -23.7240   -8.2910   22.0580 C   0  0  0  0  0  3  0  0  0  0  0  0
  -22.5510   -8.0530   21.3030 C   0  0  0  0  0  0  0  0  0  0  0  0
  -22.1340   -9.0120   20.3630 C   0  0  0  0  0  3  0  0  0  0  0  0
  -22.8570  -10.2040   20.1860 C   0  0  0  0  0  3  0  0  0  0  0  0
  -21.8000   -6.9070   21.3860 O   0  0  0  0  0  0  0  0  0  0  0  0
  -21.6820   -6.2060   22.5600 C   0  0  0  0  0  0  0  0  0  0  0  0
  -21.1620   -6.7990   23.7320 C   0  0  0  0  0  3  0  0  0  0  0  0
  -20.9940   -6.0250   24.8980 C   0  0  0  0  0  3  0  0  0  0  0  0
  -21.3350   -4.6580   24.8900 C   0  0  0  0  0  0  0  0  0  0  0  0
  -21.8470   -4.0650   23.7240 C   0  0  0  0  0  3  0  0  0  0  0  0
  -22.0170   -4.8360   22.5610 C   0  0  0  0  0  0  0  0  0  0  0  0
  -22.4920   -4.2560   21.4330 F   0  0  0  0  0  0  0  0  0  0  0  0
  -21.1660   -3.9120   26.0070 F   0  0  0  0  0  0  0  0  0  0  0  0
  -22.9210  -13.5540   21.2620 C   0  0  0  0  0  0  0  0  0  0  0  0
  -22.2440  -12.8400   22.1540 N   0  0  0  0  0  0  0  0  0  0  0  0
  -22.4580  -14.5980   20.8040 O   0  0  0  0  0  0  0  0  0  0  0  0
  -22.6290  -11.9940   22.5470 H   0  0  0  0  0  0  0  0  0  0  0  0
  -21.3270  -13.1450   22.4460 H   0  0  0  0  0  0  0  0  0  0  0  0
  -25.5070  -15.2320   20.3450 N   0  0  0  0  0  0  0  0  0  0  0  0
  -24.7470  -15.8800   20.5180 H   0  0  0  0  0  0  0  0  0  0  0  0
  -26.3280  -15.6810   19.9610 H   0  0  0  0  0  0  0  0  0  0  0  0
  -28.8810  -22.5970   20.0080 C   0  0  0  0  0  2  0  0  0  0  0  0
  -29.2910  -24.0880   20.3310 C   0  0  0  0  0  3  0  0  0  0  0  0
  -29.5320  -24.1600   21.6420 F   0  0  0  0  0  0  0  0  0  0  0  0
  -28.1900  -25.1440   19.9550 C   0  0  0  0  0  2  0  0  0  0  0  0
  -28.4010  -26.5670   20.2460 O   0  0  0  0  0  0  0  0  0  0  0  0
  -24.6580  -31.8850   23.3030 C   0  0  0  0  0  0  0  0  0  0  0  0
  -27.2670  -27.3860   20.2000 C   0  0  0  0  0  0  0  0  0  0  0  0
  -23.4480  -30.4950   21.6590 C   0  0  0  0  0  3  0  0  0  0  0  0
  -24.8930  -28.9630   20.2170 C   0  0  0  0  0  0  0  0  0  0  0  0
  -25.9830  -30.8270   21.4650 C   0  0  0  0  0  2  0  0  0  0  0  0
  -26.0610  -29.4560   20.8130 C   0  0  0  0  0  0  0  0  0  0  0  0
  -27.2510  -28.6770   20.8000 C   0  0  0  0  0  3  0  0  0  0  0  0
  -26.0750  -26.9440   19.5760 C   0  0  0  0  0  3  0  0  0  0  0  0
  -24.9000  -27.7090   19.5920 C   0  0  0  0  0  3  0  0  0  0  0  0
  -23.6550  -29.8300   20.2740 C   0  0  0  0  0  2  0  0  0  0  0  0
  -24.7150  -31.0840   22.1990 N   0  0  0  0  0  0  0  0  0  0  0  0
  -23.5770  -32.1590   23.8430 O   0  0  0  0  0  0  0  0  0  0  0  0
  -22.7920  -29.4690   22.6130 C   0  0  0  0  0  0  0  0  0  0  0  0
  -21.4680  -29.2860   22.4810 N   0  0  0  0  0  0  0  0  0  0  0  0
  -23.4720  -28.8440   23.4290 O   0  0  0  0  0  0  0  0  0  0  0  0
  -20.9780  -29.8450   21.7960 H   0  0  0  0  0  0  0  0  0  0  0  0
  -18.0930  -28.0800   22.9630 C   0  0  0  0  0  0  0  0  0  0  0  0
  -20.6490  -28.3440   23.2450 C   0  0  0  0  0  3  0  0  0  0  0  0
  -20.7570  -26.9140   22.6660 C   0  0  0  0  0  2  0  0  0  0  0  0
  -19.6590  -26.5900   21.6470 C   0  0  0  0  0  2  0  0  0  0  0  0
  -18.2750  -26.7320   22.2870 C   0  0  0  0  0  2  0  0  0  0  0  0
  -19.2080  -28.8430   23.3980 C   0  0  0  0  0  0  0  0  0  0  0  0
  -18.9840  -30.1060   23.9900 C   0  0  0  0  0  3  0  0  0  0  0  0
  -17.6780  -30.6040   24.1520 C   0  0  0  0  0  3  0  0  0  0  0  0
  -16.5770  -29.8370   23.7340 C   0  0  0  0  0  3  0  0  0  0  0  0
  -16.7850  -28.5770   23.1460 C   0  0  0  0  0  3  0  0  0  0  0  0
  -25.9440  -32.5120   23.9230 C   0  0  0  0  0  3  0  0  0  0  0  0
  -26.4510  -31.7460   25.2060 C   0  0  1  0  0  0  0  0  0  0  0  0
  -25.3520  -31.5180   26.2700 C   0  0  0  0  0  1  0  0  0  0  0  0
  -27.0290  -30.3640   24.8240 C   0  0  0  0  0  1  0  0  0  0  0  0
  -27.6030  -32.5370   25.8690 C   0  0  0  0  0  1  0  0  0  0  0  0
  -25.6450  -33.9140   24.2410 N   0  0  0  0  0  0  0  0  0  0  0  0
  -25.9600  -34.9560   23.4580 C   0  0  0  0  0  0  0  0  0  0  0  0
  -26.6050  -34.8350   22.4120 O   0  0  0  0  0  0  0  0  0  0  0  0
  -25.0720  -34.0820   25.0540 H   0  0  0  0  0  0  0  0  0  0  0  0
  -24.2120  -36.7350   23.1340 C   0  0  0  0  0  1  0  0  0  0  0  0
  -25.4850  -36.3520   23.9050 C   0  0  0  0  0  3  0  0  0  0  0  0
  -27.6430  -37.2660   24.6390 C   0  0  0  0  0  1  0  0  0  0  0  0
  -26.5080  -37.4050   23.7300 N   0  0  0  0  0  0  0  0  0  0  0  0
  -26.1030  -38.3280   23.8660 H   0  0  0  0  0  0  0  0  0  0  0  0
  1  3  1  0
  2  1  1  0
  4  8  1  0
  5  7  1  0
  6  4  1  0
  6  9  1  0
  8 18  1  0
  8  5  1  0
  9  1  1  0
  9  7  1  0
 10 18  1  0
 11 16  1  0
 12 13  1  0
 12 11  1  0
 14 13  1  0
 14 23  1  0
 14 15  1  0
 16 10  1  0
 16 15  1  0
 17 10  2  0
 18 19  1  0
 20 21  2  0
 21 40  1  0
 22 21  1  0
 22 25  1  0
 23 24  1  0
 23 20  1  0
 24 22  2  0
 25 26  1  0
 26 27  2  0
 28 31  1  0
 28 27  1  0
 29 28  2  0
 30 29  1  0
 30 25  2  0
 31 32  1  0
 32 37  2  0
 32 33  1  0
 33 34  2  0
 35 34  1  0
 35 39  1  0
 36 35  2  0
 37 36  1  0
 38 37  1  0
 40 41  1  0
 41 44  1  0
 41 43  1  0
 42 40  2  0
 45 20  1  0
 45 46  1  0
 47 45  1  0
 48 49  1  0
 48  1  1  0
 49 50  1  0
 51 52  1  0
 51 49  1  0
 53 64  2  0
 54 52  1  0
 54 59  1  0
 55 63  1  0
 55 65  1  0
 56 62  1  0
 56 58  1  0
 57 63  1  0
 58 57  1  0
 59 58  2  0
 60 61  1  0
 60 54  2  0
 61 56  2  0
 62 55  1  0
 63 53  1  0
 65 67  2  0
 66 65  1  0
 68 66  1  0
 69 78  2  0
 69 74  1  0
 70 66  1  0
 70 74  1  0
 71 70  1  0
 72 73  1  0
 72 71  1  0
 73 69  1  0
 74 75  2  0
 75 76  1  0
 77 76  2  0
 78 77  1  0
 79 53  1  0
 79 84  1  0
 79 80  1  0
 80 83  1  1
 80 81  1  0
 82 80  1  0
 84 87  1  0
 85 89  1  0
 85 84  1  0
 86 85  2  0
 89 88  1  0
 91 92  1  0
 91 89  1  0
 91 90  1  0
M  ISO  4  10 100  18 100  51 101  52 101
M  END
>  <TORSDO>  (26) 
F 20

>  <SCORE>  (26) 
-12.970

>  <name>  (26) 
26

>  <ligand_id>  (26) 
26

>  <original_smiles>  (26) 
[H]c1c([H])c([H])c2c(c1[H])C([H])([H])C([H])([H])C([H])([H])C2([H])N([H])C(=O)C1([H])N(C(=O)C([H])(N([H])C(=O)C([H])(N([H])C([H])([H])[H])C([H])([H])[H])C(C([H])([H])[H])(C([H])([H])[H])C([H])([H])[H])C([H])([H])c2c([H])c(OC([H])([H])C([H])(F)C([H])([H])[N+]([H])([H])C3([H])C([H])([H])C([H])([H])C([H])(N([H])C(=O)N4C([H])([H])C([H])([H])C([H])([H])C([H])(n5nc(-c6c([H])c([H])c(Oc7c([H])c([H])c(F)c([H])c7F)c([H])c6[H])c(C(=O)N([H])[H])c5N([H])[H])C4([H])[H])C([H])([H])C3([H])[H])c([H])c([H])c2C1([H])[H]

>  <smiles>  (26) 
[H]c1c([H])c([H])c2c(c1[H])C([H])([H])C([H])([H])C([H])([H])C2([H])N([H])C(=O)C1([H])N(C(=O)C([H])(N([H])C(=O)C([H])(N([H])C([H])([H])[H])C([H])([H])[H])C(C([H])([H])[H])(C([H])([H])[H])C([H])([H])[H])C([H])([H])c2c([H])c(OC([H])([H])C([H])(F)C([H])([H])[N+]([H])([H])C3([H])C([H])([H])C([H])([H])C([H])(N([H])C(=O)N4C([H])([H])C([H])([H])C([H])([H])C([H])(n5nc(-c6c([H])c([H])c(Oc7c([H])c([H])c(F)c([H])c7F)c([H])c6[H])c(C(=O)N([H])[H])c5N([H])[H])C4([H])[H])C([H])([H])C3([H])[H])c([H])c([H])c2C1([H])[H]

$$$$
27:0:0
     RDKit          3D

 93102  0  0  1  0  0  0  0  0999 V2000
  -28.5120  -22.4650   20.9130 C   0  0  0  0  0  2  0  0  0  0  0  0
  -30.1110  -23.6640   19.5390 C   0  0  0  0  0  2  0  0  0  0  0  0
  -29.0240  -21.4730   19.8130 C   0  0  0  0  0  3  0  0  0  0  0  0
  -29.0430  -23.9190   20.6230 C   0  0  0  0  0  3  0  0  0  0  0  0
  -30.0800  -22.2350   19.1190 N   0  0  0  0  0  4  0  0  0  0  0  0
  -30.9440  -21.7860   19.3950 H   0  0  0  0  0  0  0  0  0  0  0  0
  -29.9880  -22.1390   18.1210 H   0  0  0  0  0  0  0  0  0  0  0  0
  -29.6980  -20.1140   20.3020 C   0  0  0  0  0  0  0  0  0  0  0  0
  -30.8850  -20.0910   20.6380 O   0  0  0  0  0  0  0  0  0  0  0  0
  -30.7350  -14.6640   20.0050 C   0  0  0  0  0  0  0  0  0  0  0  0
  -30.3630  -12.4560   18.9430 C   0  0  0  0  0  2  0  0  0  0  0  0
  -29.3670  -12.6340   17.7780 C   0  0  0  0  0  2  0  0  0  0  0  0
  -27.9210  -12.4830   18.2870 C   0  0  0  0  0  2  0  0  0  0  0  0
  -27.6420  -13.3310   19.5580 C   0  0  0  0  0  3  0  0  0  0  0  0
  -28.7640  -13.1920   20.6110 C   0  0  0  0  0  2  0  0  0  0  0  0
  -30.0350  -13.4890   19.9430 N   0  0  0  0  0  0  0  0  0  0  0  0
  -31.9030  -14.7180   19.6110 O   0  0  0  0  0  0  0  0  0  0  0  0
  -29.0400  -17.9090   18.9930 C   0  0  0  0  0  2  0  0  0  0  0  0
  -29.0780  -17.7850   21.5080 C   0  0  0  0  0  2  0  0  0  0  0  0
  -30.1450  -16.8100   19.0190 C   0  0  0  0  0  2  0  0  0  0  0  0
  -30.1410  -16.6380   21.3760 C   0  0  0  0  0  2  0  0  0  0  0  0
  -28.8970  -18.7550   20.2900 C   0  0  0  0  0  3  0  0  0  0  0  0
  -30.0190  -15.8370   20.1350 N   0  0  0  0  0  0  0  0  0  0  0  0
  -25.3080  -13.9240   20.4380 C   0  0  0  0  0  0  0  0  0  0  0  0
  -24.2570  -13.1490   20.8440 C   0  0  0  0  0  0  0  0  0  0  0  0
  -24.7010  -11.7950   20.7460 C   0  0  0  0  0  0  0  0  0  0  0  0
  -26.3270  -13.0430   20.1180 N   0  0  0  0  0  0  0  0  0  0  0  0
  -25.9720  -11.7550   20.3650 N   0  0  0  0  0  0  0  0  0  0  0  0
  -23.9720  -10.5340   20.9430 C   0  0  0  0  0  0  0  0  0  0  0  0
  -24.4050   -9.5660   21.8750 C   0  0  0  0  0  3  0  0  0  0  0  0
  -23.6740   -8.3710   22.0580 C   0  0  0  0  0  3  0  0  0  0  0  0
  -22.4950   -8.1380   21.3100 C   0  0  0  0  0  0  0  0  0  0  0  0
  -22.0820   -9.0960   20.3680 C   0  0  0  0  0  3  0  0  0  0  0  0
  -22.8130  -10.2810   20.1830 C   0  0  0  0  0  3  0  0  0  0  0  0
  -21.7360   -6.9970   21.4040 O   0  0  0  0  0  0  0  0  0  0  0  0
  -21.6350   -6.2940   22.5770 C   0  0  0  0  0  0  0  0  0  0  0  0
  -21.1520   -6.8870   23.7640 C   0  0  0  0  0  3  0  0  0  0  0  0
  -21.0010   -6.1080   24.9300 C   0  0  0  0  0  3  0  0  0  0  0  0
  -21.3200   -4.7380   24.9080 C   0  0  0  0  0  0  0  0  0  0  0  0
  -21.7950   -4.1440   23.7250 C   0  0  0  0  0  3  0  0  0  0  0  0
  -21.9490   -4.9200   22.5630 C   0  0  0  0  0  0  0  0  0  0  0  0
  -22.3870   -4.3380   21.4200 F   0  0  0  0  0  0  0  0  0  0  0  0
  -21.1670   -3.9880   26.0240 F   0  0  0  0  0  0  0  0  0  0  0  0
  -22.8840  -13.6310   21.2140 C   0  0  0  0  0  0  0  0  0  0  0  0
  -22.2030  -12.9160   22.1030 N   0  0  0  0  0  0  0  0  0  0  0  0
  -22.4290  -14.6770   20.7520 O   0  0  0  0  0  0  0  0  0  0  0  0
  -22.5850  -12.0660   22.4900 H   0  0  0  0  0  0  0  0  0  0  0  0
  -21.2860  -13.2210   22.3970 H   0  0  0  0  0  0  0  0  0  0  0  0
  -25.4800  -15.2980   20.2930 N   0  0  0  0  0  0  0  0  0  0  0  0
  -24.7340  -15.9600   20.4720 H   0  0  0  0  0  0  0  0  0  0  0  0
  -26.3310  -15.7350   19.9660 H   0  0  0  0  0  0  0  0  0  0  0  0
  -27.9650  -25.0280   20.2640 C   0  0  0  0  0  2  0  0  0  0  0  0
  -28.2880  -26.4760   20.3190 O   0  0  0  0  0  0  0  0  0  0  0  0
  -24.5990  -31.9160   23.2880 C   0  0  0  0  0  0  0  0  0  0  0  0
  -27.1950  -27.3550   20.2390 C   0  0  0  0  0  0  0  0  0  0  0  0
  -23.3930  -30.5170   21.6520 C   0  0  0  0  0  3  0  0  0  0  0  0
  -24.8410  -28.9760   20.2230 C   0  0  0  0  0  0  0  0  0  0  0  0
  -25.9350  -30.8360   21.4670 C   0  0  0  0  0  2  0  0  0  0  0  0
  -26.0120  -29.4600   20.8170 C   0  0  0  0  0  0  0  0  0  0  0  0
  -27.1960  -28.6620   20.8140 C   0  0  0  0  0  3  0  0  0  0  0  0
  -26.0000  -26.9320   19.6080 C   0  0  0  0  0  3  0  0  0  0  0  0
  -24.8380  -27.7180   19.6080 C   0  0  0  0  0  3  0  0  0  0  0  0
  -23.6040  -29.8470   20.2710 C   0  0  0  0  0  2  0  0  0  0  0  0
  -24.6620  -31.1070   22.1920 N   0  0  0  0  0  0  0  0  0  0  0  0
  -23.5160  -32.1950   23.8220 O   0  0  0  0  0  0  0  0  0  0  0  0
  -22.7350  -29.4960   22.6110 C   0  0  0  0  0  0  0  0  0  0  0  0
  -21.4100  -29.3070   22.4770 N   0  0  0  0  0  0  0  0  0  0  0  0
  -23.4140  -28.8790   23.4360 O   0  0  0  0  0  0  0  0  0  0  0  0
  -20.9220  -29.8600   21.7870 H   0  0  0  0  0  0  0  0  0  0  0  0
  -18.0380  -28.0930   22.9600 C   0  0  0  0  0  0  0  0  0  0  0  0
  -20.5920  -28.3700   23.2500 C   0  0  0  0  0  3  0  0  0  0  0  0
  -20.7070  -26.9340   22.6870 C   0  0  0  0  0  2  0  0  0  0  0  0
  -19.6160  -26.5970   21.6670 C   0  0  0  0  0  2  0  0  0  0  0  0
  -18.2280  -26.7390   22.2970 C   0  0  0  0  0  2  0  0  0  0  0  0
  -19.1480  -28.8660   23.3930 C   0  0  0  0  0  0  0  0  0  0  0  0
  -18.9170  -30.1320   23.9730 C   0  0  0  0  0  3  0  0  0  0  0  0
  -17.6080  -30.6280   24.1200 C   0  0  0  0  0  3  0  0  0  0  0  0
  -16.5120  -29.8520   23.7040 C   0  0  0  0  0  3  0  0  0  0  0  0
  -16.7280  -28.5860   23.1310 C   0  0  0  0  0  3  0  0  0  0  0  0
  -25.8830  -32.5480   23.9070 C   0  0  0  0  0  3  0  0  0  0  0  0
  -25.5740  -33.9470   24.2300 N   0  0  0  0  0  0  0  0  0  0  0  0
  -25.9020  -34.9960   23.4650 C   0  0  0  0  0  0  0  0  0  0  0  0
  -26.5640  -34.8860   22.4290 O   0  0  0  0  0  0  0  0  0  0  0  0
  -24.9790  -34.1070   25.0300 H   0  0  0  0  0  0  0  0  0  0  0  0
  -24.1650  -36.7820   23.1180 C   0  0  0  0  0  1  0  0  0  0  0  0
  -25.4170  -36.3870   23.9170 C   0  0  0  0  0  3  0  0  0  0  0  0
  -27.5580  -37.2850   24.7160 C   0  0  0  0  0  1  0  0  0  0  0  0
  -26.4460  -37.4400   23.7820 N   0  0  0  0  0  0  0  0  0  0  0  0
  -26.0400  -38.3620   23.9230 H   0  0  0  0  0  0  0  0  0  0  0  0
  -26.3970  -31.7810   25.1870 C   0  0  1  0  0  0  0  0  0  0  0  0
  -25.3000  -31.5420   26.2510 C   0  0  0  0  0  1  0  0  0  0  0  0
  -26.9840  -30.4030   24.7980 C   0  0  0  0  0  1  0  0  0  0  0  0
  -27.5460  -32.5770   25.8490 C   0  0  0  0  0  1  0  0  0  0  0  0
  2  4  1  0
  3  8  1  0
  3  1  1  0
  4 52  1  0
  4  1  1  0
  5  6  1  0
  5  2  1  0
  5  3  1  0
  7  5  1  0
  8  9  2  0
 10 23  1  0
 11 16  1  0
 12 13  1  0
 12 11  1  0
 14 13  1  0
 14 27  1  0
 14 15  1  0
 16 10  1  0
 16 15  1  0
 17 10  2  0
 18 20  1  0
 18 22  1  0
 20 23  1  0
 21 19  1  0
 22  8  1  0
 22 19  1  0
 23 21  1  0
 24 25  2  0
 25 44  1  0
 26 25  1  0
 26 29  1  0
 27 28  1  0
 27 24  1  0
 28 26  2  0
 29 30  1  0
 30 31  2  0
 32 35  1  0
 32 31  1  0
 33 32  2  0
 34 33  1  0
 34 29  2  0
 35 36  1  0
 36 37  1  0
 37 38  2  0
 39 38  1  0
 39 43  1  0
 40 39  2  0
 41 36  2  0
 41 40  1  0
 42 41  1  0
 44 45  1  0
 45 48  1  0
 45 47  1  0
 46 44  2  0
 49 24  1  0
 49 50  1  0
 51 49  1  0
 52 53  1  0
 54 65  2  0
 55 53  1  0
 55 60  1  0
 56 64  1  0
 56 66  1  0
 57 63  1  0
 57 59  1  0
 58 64  1  0
 59 58  1  0
 60 59  2  0
 61 62  1  0
 61 55  2  0
 62 57  2  0
 63 56  1  0
 64 54  1  0
 66 68  2  0
 67 66  1  0
 69 67  1  0
 70 79  2  0
 70 75  1  0
 71 67  1  0
 71 75  1  0
 72 71  1  0
 73 74  1  0
 73 72  1  0
 74 70  1  0
 75 76  2  0
 76 77  1  0
 78 77  2  0
 79 78  1  0
 80 54  1  0
 80 81  1  0
 80 90  1  0
 81 84  1  0
 82 86  1  0
 82 81  1  0
 83 82  2  0
 86 85  1  0
 88 86  1  0
 88 89  1  0
 88 87  1  0
 90 93  1  1
 90 91  1  0
 92 90  1  0
M  ISO  4  10 100  23 100  52 101  53 101
M  END
>  <TORSDO>  (27) 
F 18

>  <SCORE>  (27) 
-14.172

>  <name>  (27) 
27

>  <ligand_id>  (27) 
27

>  <original_smiles>  (27) 
[H]c1c([H])c([H])c2c(c1[H])C([H])([H])C([H])([H])C([H])([H])C2([H])N([H])C(=O)C1([H])N(C(=O)C([H])(N([H])C(=O)C([H])(N([H])C([H])([H])[H])C([H])([H])[H])C(C([H])([H])[H])(C([H])([H])[H])C([H])([H])[H])C([H])([H])c2c([H])c(OC([H])([H])C3([H])C([H])([H])C([H])(C(=O)C4([H])C([H])([H])C([H])([H])N(C(=O)N5C([H])([H])C([H])([H])C([H])([H])C([H])(n6nc(-c7c([H])c([H])c(Oc8c([H])c([H])c(F)c([H])c8F)c([H])c7[H])c(C(=O)N([H])[H])c6N([H])[H])C5([H])[H])C([H])([H])C4([H])[H])[N+]([H])([H])C3([H])[H])c([H])c([H])c2C1([H])[H]

>  <smiles>  (27) 
[H]c1c([H])c([H])c2c(c1[H])C([H])([H])C([H])([H])C([H])([H])C2([H])N([H])C(=O)C1([H])N(C(=O)C([H])(N([H])C(=O)C([H])(N([H])C([H])([H])[H])C([H])([H])[H])C(C([H])([H])[H])(C([H])([H])[H])C([H])([H])[H])C([H])([H])c2c([H])c(OC([H])([H])C3([H])C([H])([H])C([H])(C(=O)C4([H])C([H])([H])C([H])([H])N(C(=O)N5C([H])([H])C([H])([H])C([H])([H])C([H])(n6nc(-c7c([H])c([H])c(Oc8c([H])c([H])c(F)c([H])c8F)c([H])c7[H])c(C(=O)N([H])[H])c6N([H])[H])C5([H])[H])C([H])([H])C4([H])[H])[N+]([H])([H])C3([H])[H])c([H])c([H])c2C1([H])[H]

$$$$
28:0:0
     RDKit          3D

 96105  0  0  1  0  0  0  0  0999 V2000
  -29.0240  -22.4760   22.0830 C   0  0  0  0  0  2  0  0  0  0  0  0
  -30.1060  -23.6960   23.8430 C   0  0  0  0  0  2  0  0  0  0  0  0
  -29.7170  -21.4660   23.0230 C   0  0  0  0  0  3  0  0  0  0  0  0
  -30.8170  -22.3530   23.6170 C   0  0  0  0  0  3  0  0  0  0  0  0
  -28.9440  -23.7000   22.9210 N   0  0  1  0  0  4  0  0  0  0  0  0
  -31.7920  -22.5230   22.7180 F   0  0  0  0  0  0  0  0  0  0  0  0
  -28.1610  -23.5170   23.5310 H   0  0  0  0  0  0  0  0  0  0  0  0
  -30.1300  -19.7230   21.1350 C   0  0  0  0  0  3  0  0  0  0  0  0
  -30.7790  -19.2030   23.4210 C   0  0  0  0  0  3  0  0  0  0  0  0
  -30.6600  -18.4820   20.7150 C   0  0  0  0  0  3  0  0  0  0  0  0
  -31.3170  -17.9700   22.9990 C   0  0  0  0  0  3  0  0  0  0  0  0
  -30.2060  -20.1070   22.4960 C   0  0  0  0  0  0  0  0  0  0  0  0
  -31.2800  -17.6110   21.6350 C   0  0  0  0  0  0  0  0  0  0  0  0
  -31.9730  -16.3470   21.1410 C   0  0  0  0  0  2  0  0  0  0  0  0
  -31.2870  -14.4870   19.6240 C   0  0  0  0  0  0  0  0  0  0  0  0
  -30.7150  -12.3400   18.5340 C   0  0  0  0  0  2  0  0  0  0  0  0
  -29.6670  -12.5010   17.4160 C   0  0  0  0  0  2  0  0  0  0  0  0
  -28.2420  -12.4510   17.9940 C   0  0  0  0  0  2  0  0  0  0  0  0
  -28.0620  -13.3890   19.2160 C   0  0  0  0  0  3  0  0  0  0  0  0
  -29.2030  -13.1930   20.2380 C   0  0  0  0  0  2  0  0  0  0  0  0
  -30.4900  -13.3880   19.5440 N   0  0  0  0  0  0  0  0  0  0  0  0
  -32.2190  -14.6930   18.8390 O   0  0  0  0  0  0  0  0  0  0  0  0
  -31.0690  -15.2900   20.6780 N   0  0  0  0  0  0  0  0  0  0  0  0
  -30.2940  -15.0500   21.2780 H   0  0  0  0  0  0  0  0  0  0  0  0
  -25.8110  -14.1640   20.1940 C   0  0  0  0  0  0  0  0  0  0  0  0
  -24.7260  -13.4670   20.6590 C   0  0  0  0  0  0  0  0  0  0  0  0
  -25.0640  -12.0850   20.5400 C   0  0  0  0  0  0  0  0  0  0  0  0
  -26.7470  -13.2090   19.8310 N   0  0  0  0  0  0  0  0  0  0  0  0
  -26.3060  -11.9520   20.0910 N   0  0  0  0  0  0  0  0  0  0  0  0
  -24.2580  -10.8800   20.7760 C   0  0  0  0  0  0  0  0  0  0  0  0
  -24.6630   -9.8930   21.7010 C   0  0  0  0  0  3  0  0  0  0  0  0
  -23.8640   -8.7510   21.9270 C   0  0  0  0  0  3  0  0  0  0  0  0
  -22.6450   -8.5890   21.2270 C   0  0  0  0  0  0  0  0  0  0  0  0
  -22.2560   -9.5640   20.2920 C   0  0  0  0  0  3  0  0  0  0  0  0
  -23.0550  -10.6980   20.0640 C   0  0  0  0  0  3  0  0  0  0  0  0
  -21.8160   -7.5010   21.3610 O   0  0  0  0  0  0  0  0  0  0  0  0
  -21.7010   -6.8260   22.5500 C   0  0  0  0  0  0  0  0  0  0  0  0
  -21.2990   -7.4730   23.7380 C   0  0  0  0  0  3  0  0  0  0  0  0
  -21.1270   -6.7270   24.9230 C   0  0  0  0  0  3  0  0  0  0  0  0
  -21.3490   -5.3360   24.9190 C   0  0  0  0  0  0  0  0  0  0  0  0
  -21.7450   -4.6900   23.7360 C   0  0  0  0  0  3  0  0  0  0  0  0
  -21.9190   -5.4320   22.5540 C   0  0  0  0  0  0  0  0  0  0  0  0
  -22.2800   -4.8010   21.4110 F   0  0  0  0  0  0  0  0  0  0  0  0
  -21.1770   -4.6190   26.0540 F   0  0  0  0  0  0  0  0  0  0  0  0
  -23.4130  -14.0480   21.1000 C   0  0  0  0  0  0  0  0  0  0  0  0
  -22.7350  -13.3840   22.0310 N   0  0  0  0  0  0  0  0  0  0  0  0
  -23.0000  -15.1160   20.6510 O   0  0  0  0  0  0  0  0  0  0  0  0
  -23.0810  -12.5160   22.4100 H   0  0  0  0  0  0  0  0  0  0  0  0
  -21.8560  -13.7500   22.3680 H   0  0  0  0  0  0  0  0  0  0  0  0
  -26.0740  -15.5210   20.0310 N   0  0  0  0  0  0  0  0  0  0  0  0
  -25.3940  -16.2440   20.2380 H   0  0  0  0  0  0  0  0  0  0  0  0
  -26.9270  -15.8850   19.6210 H   0  0  0  0  0  0  0  0  0  0  0  0
  -28.5980  -25.0020   22.2880 C   0  0  0  0  0  2  0  0  0  0  0  0
  -29.7090  -25.6760   21.4490 C   0  0  0  0  0  2  0  0  0  0  0  0
  -29.2600  -27.0290   20.8660 C   0  0  0  0  0  2  0  0  0  0  0  0
  -28.2000  -26.8180   19.9250 O   0  0  0  0  0  0  0  0  0  0  0  0
  -24.5270  -31.9620   23.2310 C   0  0  0  0  0  0  0  0  0  0  0  0
  -27.0540  -27.5790   20.0290 C   0  0  0  0  0  0  0  0  0  0  0  0
  -23.2370  -30.5670   21.6370 C   0  0  0  0  0  3  0  0  0  0  0  0
  -24.6290  -29.0360   20.1460 C   0  0  0  0  0  0  0  0  0  0  0  0
  -25.7400  -30.9490   21.3090 C   0  0  0  0  0  2  0  0  0  0  0  0
  -25.8050  -29.5820   20.6740 C   0  0  0  0  0  0  0  0  0  0  0  0
  -27.0190  -28.8680   20.6100 C   0  0  0  0  0  3  0  0  0  0  0  0
  -25.8640  -27.0400   19.4990 C   0  0  0  0  0  3  0  0  0  0  0  0
  -24.6520  -27.7610   19.5520 C   0  0  0  0  0  3  0  0  0  0  0  0
  -23.3780  -29.8810   20.2490 C   0  0  0  0  0  2  0  0  0  0  0  0
  -24.5210  -31.1730   22.1190 N   0  0  0  0  0  0  0  0  0  0  0  0
  -23.4770  -32.2360   23.8260 O   0  0  0  0  0  0  0  0  0  0  0  0
  -22.6320  -29.5460   22.6250 C   0  0  0  0  0  0  0  0  0  0  0  0
  -21.3140  -29.3140   22.5110 N   0  0  0  0  0  0  0  0  0  0  0  0
  -23.3440  -28.9630   23.4460 O   0  0  0  0  0  0  0  0  0  0  0  0
  -20.8000  -29.8450   21.8220 H   0  0  0  0  0  0  0  0  0  0  0  0
  -18.0130  -27.9220   22.9530 C   0  0  0  0  0  0  0  0  0  0  0  0
  -20.5340  -28.3610   23.3000 C   0  0  0  0  0  3  0  0  0  0  0  0
  -20.7510  -26.9130   22.8030 C   0  0  0  0  0  2  0  0  0  0  0  0
  -19.7130  -26.4690   21.7690 C   0  0  0  0  0  2  0  0  0  0  0  0
  -18.3020  -26.5550   22.3570 C   0  0  0  0  0  2  0  0  0  0  0  0
  -19.0620  -28.7760   23.3810 C   0  0  0  0  0  0  0  0  0  0  0  0
  -18.7440  -30.0520   23.8930 C   0  0  0  0  0  3  0  0  0  0  0  0
  -17.4050  -30.4770   23.9820 C   0  0  0  0  0  3  0  0  0  0  0  0
  -16.3680  -29.6190   23.5750 C   0  0  0  0  0  3  0  0  0  0  0  0
  -16.6720  -28.3430   23.0660 C   0  0  0  0  0  3  0  0  0  0  0  0
  -25.8460  -32.5820   23.7910 C   0  0  0  0  0  3  0  0  0  0  0  0
  -25.5640  -33.9770   24.1510 N   0  0  0  0  0  0  0  0  0  0  0  0
  -25.8910  -35.0350   23.3980 C   0  0  0  0  0  0  0  0  0  0  0  0
  -26.5370  -34.9390   22.3490 O   0  0  0  0  0  0  0  0  0  0  0  0
  -24.9970  -34.1260   24.9710 H   0  0  0  0  0  0  0  0  0  0  0  0
  -24.1770  -36.8460   23.1080 C   0  0  0  0  0  1  0  0  0  0  0  0
  -25.4310  -36.4200   23.8850 C   0  0  0  0  0  3  0  0  0  0  0  0
  -27.5960  -37.2680   24.6730 C   0  0  0  0  0  1  0  0  0  0  0  0
  -26.4730  -37.4630   23.7610 N   0  0  0  0  0  0  0  0  0  0  0  0
  -26.0820  -38.3830   23.9400 H   0  0  0  0  0  0  0  0  0  0  0  0
  -26.4340  -31.7910   25.0240 C   0  0  1  0  0  0  0  0  0  0  0  0
  -25.4020  -31.5290   26.1450 C   0  0  0  0  0  1  0  0  0  0  0  0
  -26.9990  -30.4220   24.5700 C   0  0  0  0  0  1  0  0  0  0  0  0
  -27.6140  -32.5790   25.6420 C   0  0  0  0  0  1  0  0  0  0  0  0
  1  5  1  0
  1  3  1  0
  3 12  1  0
  3  4  1  0
  4  6  1  0
  4  2  1  0
  5  7  1  1
  5  2  1  0
  8 12  1  0
 10  8  2  0
 10 13  1  0
 11  9  1  0
 12  9  2  0
 13 11  2  0
 14 13  1  0
 15 23  1  0
 16 21  1  0
 17 18  1  0
 17 16  1  0
 19 18  1  0
 19 28  1  0
 19 20  1  0
 21 15  1  0
 21 20  1  0
 22 15  2  0
 23 14  1  0
 23 24  1  0
 25 26  2  0
 26 45  1  0
 27 26  1  0
 27 30  1  0
 28 29  1  0
 28 25  1  0
 29 27  2  0
 30 31  1  0
 31 32  2  0
 33 36  1  0
 33 32  1  0
 34 33  2  0
 35 34  1  0
 35 30  2  0
 36 37  1  0
 37 42  2  0
 37 38  1  0
 38 39  2  0
 40 39  1  0
 40 44  1  0
 41 40  2  0
 42 41  1  0
 43 42  1  0
 45 46  1  0
 46 49  1  0
 46 48  1  0
 47 45  2  0
 50 25  1  0
 50 51  1  0
 52 50  1  0
 53  5  1  0
 54 53  1  0
 55 54  1  0
 56 58  1  0
 56 55  1  0
 57 68  2  0
 58 63  1  0
 59 67  1  0
 59 69  1  0
 60 66  1  0
 60 62  1  0
 61 67  1  0
 62 61  1  0
 63 62  2  0
 64 65  1  0
 64 58  2  0
 65 60  2  0
 66 59  1  0
 67 57  1  0
 69 71  2  0
 70 69  1  0
 72 70  1  0
 73 82  2  0
 73 78  1  0
 74 70  1  0
 74 78  1  0
 75 74  1  0
 76 77  1  0
 76 75  1  0
 77 73  1  0
 78 79  2  0
 79 80  1  0
 81 80  2  0
 82 81  1  0
 83 57  1  0
 83 84  1  0
 83 93  1  0
 84 87  1  0
 85 89  1  0
 85 84  1  0
 86 85  2  0
 89 88  1  0
 91 89  1  0
 91 92  1  0
 91 90  1  0
 93 96  1  1
 93 94  1  0
 95 93  1  0
M  ISO  4  15 100  23 100  55 101  56 101
M  END
>  <TORSDO>  (28) 
F 21

>  <SCORE>  (28) 
-10.558

>  <name>  (28) 
28

>  <ligand_id>  (28) 
28

>  <original_smiles>  (28) 
[H]c1c([H])c([H])c2c(c1[H])C([H])([H])C([H])([H])C([H])([H])C2([H])N([H])C(=O)C1([H])N(C(=O)C([H])(N([H])C(=O)C([H])(N([H])C([H])([H])[H])C([H])([H])[H])C(C([H])([H])[H])(C([H])([H])[H])C([H])([H])[H])C([H])([H])c2c([H])c(OC([H])([H])C([H])([H])C([H])([H])[N+]3([H])C([H])([H])C([H])(F)C([H])(c4c([H])c([H])c(C([H])([H])N([H])C(=O)N5C([H])([H])C([H])([H])C([H])([H])C([H])(n6nc(-c7c([H])c([H])c(Oc8c([H])c([H])c(F)c([H])c8F)c([H])c7[H])c(C(=O)N([H])[H])c6N([H])[H])C5([H])[H])c([H])c4[H])C3([H])[H])c([H])c([H])c2C1([H])[H]

>  <smiles>  (28) 
[H]c1c([H])c([H])c2c(c1[H])C([H])([H])C([H])([H])C([H])([H])C2([H])N([H])C(=O)C1([H])N(C(=O)C([H])(N([H])C(=O)C([H])(N([H])C([H])([H])[H])C([H])([H])[H])C(C([H])([H])[H])(C([H])([H])[H])C([H])([H])[H])C([H])([H])c2c([H])c(OC([H])([H])C([H])([H])C([H])([H])[N+]3([H])C([H])([H])C([H])(F)C([H])(c4c([H])c([H])c(C([H])([H])N([H])C(=O)N5C([H])([H])C([H])([H])C([H])([H])C([H])(n6nc(-c7c([H])c([H])c(Oc8c([H])c([H])c(F)c([H])c8F)c([H])c7[H])c(C(=O)N([H])[H])c6N([H])[H])C5([H])[H])c([H])c4[H])C3([H])[H])c([H])c([H])c2C1([H])[H]

$$$$
29:0:0
     RDKit          3D

 93101  0  0  1  0  0  0  0  0999 V2000
  -27.1510  -22.2180   21.2980 C   0  0  0  0  0  2  0  0  0  0  0  0
  -27.6630  -21.3270   20.2380 N   0  0  0  0  0  4  0  0  0  0  0  0
  -26.9110  -21.1600   19.5850 H   0  0  0  0  0  0  0  0  0  0  0  0
  -27.9100  -20.4400   20.6510 H   0  0  0  0  0  0  0  0  0  0  0  0
  -28.8380  -21.8500   19.5030 C   0  0  0  0  0  2  0  0  0  0  0  0
  -29.9730  -20.8100   19.4370 C   0  0  0  0  0  2  0  0  0  0  0  0
  -30.9820  -21.2310   18.5230 O   0  0  0  0  0  0  0  0  0  0  0  0
  -29.4490  -27.7120   20.9930 C   0  0  0  0  0  0  0  0  0  0  0  0
  -30.9770  -22.5800   18.2840 C   0  0  0  0  0  0  0  0  0  0  0  0
  -30.0380  -27.5860   18.5920 C   0  0  0  0  0  3  0  0  0  0  0  0
  -30.9920  -25.3560   17.8050 C   0  0  0  0  0  0  0  0  0  0  0  0
  -30.9550  -25.8750   20.2530 C   0  0  0  0  0  2  0  0  0  0  0  0
  -30.9700  -24.8720   19.1200 C   0  0  0  0  0  0  0  0  0  0  0  0
  -30.9640  -23.4840   19.3650 C   0  0  0  0  0  3  0  0  0  0  0  0
  -30.9930  -23.0740   16.9630 C   0  0  0  0  0  3  0  0  0  0  0  0
  -30.9990  -24.4620   16.7190 C   0  0  0  0  0  3  0  0  0  0  0  0
  -31.0170  -26.8580   17.6320 C   0  0  0  0  0  2  0  0  0  0  0  0
  -30.1050  -27.0590   19.9930 N   0  0  0  0  0  0  0  0  0  0  0  0
  -28.8340  -28.7630   20.7720 O   0  0  0  0  0  0  0  0  0  0  0  0
  -28.6200  -27.5260   17.9830 C   0  0  0  0  0  0  0  0  0  0  0  0
  -28.5100  -27.8820   16.6930 N   0  0  0  0  0  0  0  0  0  0  0  0
  -27.6600  -27.1370   18.6530 O   0  0  0  0  0  0  0  0  0  0  0  0
  -29.3440  -28.1950   16.2160 H   0  0  0  0  0  0  0  0  0  0  0  0
  -27.2350  -27.8030   13.3150 C   0  0  0  0  0  0  0  0  0  0  0  0
  -27.2840  -27.8670   15.8990 C   0  0  0  0  0  3  0  0  0  0  0  0
  -26.6750  -26.4460   15.8430 C   0  0  0  0  0  2  0  0  0  0  0  0
  -27.1340  -25.6390   14.6250 C   0  0  0  0  0  2  0  0  0  0  0  0
  -26.7540  -26.3610   13.3290 C   0  0  0  0  0  2  0  0  0  0  0  0
  -27.4990  -28.5030   14.5210 C   0  0  0  0  0  0  0  0  0  0  0  0
  -27.9800  -29.8300   14.4520 C   0  0  0  0  0  3  0  0  0  0  0  0
  -28.1930  -30.4530   13.2090 C   0  0  0  0  0  3  0  0  0  0  0  0
  -27.9150  -29.7610   12.0180 C   0  0  0  0  0  3  0  0  0  0  0  0
  -27.4330  -28.4410   12.0730 C   0  0  0  0  0  3  0  0  0  0  0  0
  -29.4600  -27.1860   22.4630 C   0  0  0  0  0  3  0  0  0  0  0  0
  -28.2510  -26.2270   22.7890 C   0  0  1  0  0  0  0  0  0  0  0  0
  -26.8920  -26.7350   22.2510 C   0  0  0  0  0  1  0  0  0  0  0  0
  -28.4980  -24.8190   22.1990 C   0  0  0  0  0  1  0  0  0  0  0  0
  -28.1200  -26.0500   24.3210 C   0  0  0  0  0  1  0  0  0  0  0  0
  -29.4530  -28.3560   23.3490 N   0  0  0  0  0  0  0  0  0  0  0  0
  -30.5430  -28.8780   23.9280 C   0  0  0  0  0  0  0  0  0  0  0  0
  -31.6640  -28.3710   23.8240 O   0  0  0  0  0  0  0  0  0  0  0  0
  -28.5790  -28.8540   23.4350 H   0  0  0  0  0  0  0  0  0  0  0  0
  -30.7810  -31.3810   23.9110 C   0  0  0  0  0  1  0  0  0  0  0  0
  -30.3610  -30.1650   24.7530 C   0  0  0  0  0  3  0  0  0  0  0  0
  -30.5720  -29.2250   27.0110 C   0  0  0  0  0  1  0  0  0  0  0  0
  -31.1130  -30.1590   26.0270 N   0  0  0  0  0  0  0  0  0  0  0  0
  -31.1250  -31.0860   26.4430 H   0  0  0  0  0  0  0  0  0  0  0  0
  -25.6760  -22.5880   21.0440 C   0  0  0  0  0  2  0  0  0  0  0  0
  -25.4680  -23.5660   19.8730 C   0  0  0  0  0  2  0  0  0  0  0  0
  -24.3770  -23.1230   18.8940 C   0  0  0  0  0  0  0  0  0  0  0  0
  -24.6450  -22.4910   17.8680 O   0  0  0  0  0  0  0  0  0  0  0  0
  -22.9340  -23.4690   19.2640 C   0  0  0  0  0  2  0  0  0  0  0  0
  -19.4040  -26.7660   18.5370 C   0  0  0  0  0  0  0  0  0  0  0  0
  -17.1700  -27.3140   19.4380 C   0  0  0  0  0  2  0  0  0  0  0  0
  -17.1850  -27.4660   20.9720 C   0  0  0  0  0  2  0  0  0  0  0  0
  -17.0240  -26.1030   21.6700 C   0  0  0  0  0  2  0  0  0  0  0  0
  -17.9990  -25.0380   21.1100 C   0  0  0  0  0  3  0  0  0  0  0  0
  -17.9220  -25.0040   19.5730 C   0  0  0  0  0  2  0  0  0  0  0  0
  -18.2130  -26.3570   19.0500 N   0  0  0  0  0  0  0  0  0  0  0  0
  -19.7130  -27.9560   18.3990 O   0  0  0  0  0  0  0  0  0  0  0  0
  -21.0710  -23.6900   17.5300 C   0  0  0  0  0  2  0  0  0  0  0  0
  -20.1200  -24.8260   17.1650 C   0  0  0  0  0  2  0  0  0  0  0  0
  -21.5960  -25.6490   18.8670 C   0  0  0  0  0  2  0  0  0  0  0  0
  -22.2270  -24.3880   18.2460 C   0  0  0  0  0  3  0  0  0  0  0  0
  -20.2730  -25.7720   18.2660 N   0  0  0  0  0  0  0  0  0  0  0  0
  -18.6110  -22.6490   21.8670 C   0  0  0  0  0  0  0  0  0  0  0  0
  -17.8850  -21.6820   22.5090 C   0  0  0  0  0  0  0  0  0  0  0  0
  -16.5780  -22.2290   22.6990 C   0  0  0  0  0  0  0  0  0  0  0  0
  -17.7430  -23.7180   21.6860 N   0  0  0  0  0  0  0  0  0  0  0  0
  -16.4980  -23.4320   22.1460 N   0  0  0  0  0  0  0  0  0  0  0  0
  -15.4160  -21.6970   23.4240 C   0  0  0  0  0  0  0  0  0  0  0  0
  -14.2880  -21.1940   22.7370 C   0  0  0  0  0  3  0  0  0  0  0  0
  -13.1840  -20.6800   23.4530 C   0  0  0  0  0  3  0  0  0  0  0  0
  -13.2040  -20.6600   24.8680 C   0  0  0  0  0  0  0  0  0  0  0  0
  -14.3200  -21.1810   25.5470 C   0  0  0  0  0  3  0  0  0  0  0  0
  -15.4170  -21.6970   24.8360 C   0  0  0  0  0  3  0  0  0  0  0  0
  -12.1690  -20.1980   25.6460 O   0  0  0  0  0  0  0  0  0  0  0  0
  -11.5410  -19.0100   25.3760 C   0  0  0  0  0  0  0  0  0  0  0  0
  -12.2300  -17.7780   25.4140 C   0  0  0  0  0  3  0  0  0  0  0  0
  -11.5300  -16.5740   25.2020 C   0  0  0  0  0  3  0  0  0  0  0  0
  -10.1430  -16.5970   24.9600 C   0  0  0  0  0  0  0  0  0  0  0  0
   -9.4540  -17.8240   24.9250 C   0  0  0  0  0  3  0  0  0  0  0  0
  -10.1530  -19.0260   25.1370 C   0  0  0  0  0  0  0  0  0  0  0  0
   -9.4810  -20.2030   25.1240 F   0  0  0  0  0  0  0  0  0  0  0  0
   -9.4670  -15.4390   24.7640 F   0  0  0  0  0  0  0  0  0  0  0  0
  -18.3950  -20.3620   23.0110 C   0  0  0  0  0  0  0  0  0  0  0  0
  -17.5520  -19.3350   23.0070 N   0  0  0  0  0  0  0  0  0  0  0  0
  -19.5640  -20.2220   23.3710 O   0  0  0  0  0  0  0  0  0  0  0  0
  -16.5980  -19.4390   22.6940 H   0  0  0  0  0  0  0  0  0  0  0  0
  -17.8700  -18.4280   23.3180 H   0  0  0  0  0  0  0  0  0  0  0  0
  -19.9330  -22.7160   21.4360 N   0  0  0  0  0  0  0  0  0  0  0  0
  -20.5990  -21.9720   21.6130 H   0  0  0  0  0  0  0  0  0  0  0  0
  -20.3490  -23.5300   21.0020 H   0  0  0  0  0  0  0  0  0  0  0  0
  2  4  1  0
  2  1  1  0
  3  2  1  0
  5  2  1  0
  6  5  1  0
  7  6  1  0
  9  7  1  0
  9 14  1  0
 10 20  1  0
 10 18  1  0
 11 13  1  0
 13 14  2  0
 13 12  1  0
 15  9  2  0
 16 15  1  0
 16 11  2  0
 17 11  1  0
 17 10  1  0
 18 12  1  0
 18  8  1  0
 19  8  2  0
 20 22  2  0
 21 20  1  0
 23 21  1  0
 24 28  1  0
 24 29  1  0
 25 21  1  0
 26 25  1  0
 27 26  1  0
 28 27  1  0
 29 25  1  0
 30 29  2  0
 31 30  1  0
 32 33  1  0
 32 31  2  0
 33 24  2  0
 34  8  1  0
 34 35  1  0
 34 39  1  0
 35 38  1  1
 36 35  1  0
 37 35  1  0
 39 42  1  0
 39 40  1  0
 40 44  1  0
 41 40  2  0
 44 43  1  0
 44 46  1  0
 46 47  1  0
 46 45  1  0
 48  1  1  0
 49 48  1  0
 50 52  1  0
 50 49  1  0
 51 50  2  0
 53 59  1  0
 54 55  1  0
 55 56  1  0
 57 58  1  0
 57 56  1  0
 57 69  1  0
 59 54  1  0
 59 58  1  0
 60 53  2  0
 61 64  1  0
 62 61  1  0
 62 65  1  0
 64 63  1  0
 64 52  1  0
 65 53  1  0
 65 63  1  0
 66 67  2  0
 67 68  1  0
 67 86  1  0
 68 71  1  0
 69 66  1  0
 69 70  1  0
 70 68  2  0
 71 76  1  0
 72 71  2  0
 72 73  1  0
 73 74  2  0
 74 75  1  0
 74 77  1  0
 76 75  2  0
 78 79  1  0
 78 77  1  0
 80 79  2  0
 81 80  1  0
 82 81  2  0
 82 83  1  0
 83 78  2  0
 84 83  1  0
 85 81  1  0
 86 88  2  0
 87 86  1  0
 87 90  1  0
 89 87  1  0
 91 92  1  0
 91 66  1  0
 93 91  1  0
M  ISO  4   6 101   7 101  53 100  65 100
M  END
>  <TORSDO>  (29) 
F 23

>  <SCORE>  (29) 
-5.380

>  <name>  (29) 
29

>  <ligand_id>  (29) 
29

>  <original_smiles>  (29) 
[H]c1c([H])c([H])c2c(c1[H])C([H])([H])C([H])([H])C([H])([H])C2([H])N([H])C(=O)C1([H])N(C(=O)C([H])(N([H])C(=O)C([H])(N([H])C([H])([H])[H])C([H])([H])[H])C(C([H])([H])[H])(C([H])([H])[H])C([H])([H])[H])C([H])([H])c2c([H])c(OC([H])([H])C([H])([H])[N+]([H])([H])C([H])([H])C([H])([H])C([H])([H])C(=O)C([H])([H])C3([H])C([H])([H])N(C(=O)N4C([H])([H])C([H])([H])C([H])([H])C([H])(n5nc(-c6c([H])c([H])c(Oc7c([H])c([H])c(F)c([H])c7F)c([H])c6[H])c(C(=O)N([H])[H])c5N([H])[H])C4([H])[H])C([H])([H])C3([H])[H])c([H])c([H])c2C1([H])[H]

>  <smiles>  (29) 
[H]c1c([H])c([H])c2c(c1[H])C([H])([H])C([H])([H])C([H])([H])C2([H])N([H])C(=O)C1([H])N(C(=O)C([H])(N([H])C(=O)C([H])(N([H])C([H])([H])[H])C([H])([H])[H])C(C([H])([H])[H])(C([H])([H])[H])C([H])([H])[H])C([H])([H])c2c([H])c(OC([H])([H])C([H])([H])[N+]([H])([H])C([H])([H])C([H])([H])C([H])([H])C(=O)C([H])([H])C3([H])C([H])([H])N(C(=O)N4C([H])([H])C([H])([H])C([H])([H])C([H])(n5nc(-c6c([H])c([H])c(Oc7c([H])c([H])c(F)c([H])c7F)c([H])c6[H])c(C(=O)N([H])[H])c5N([H])[H])C4([H])[H])C([H])([H])C3([H])[H])c([H])c([H])c2C1([H])[H]

$$$$
30:0:0
     RDKit          3D

 99107  0  0  1  0  0  0  0  0999 V2000
  -24.0530  -21.8760   19.0920 C   0  0  0  0  0  2  0  0  0  0  0  0
  -25.2740  -21.1020   19.6370 C   0  0  0  0  0  2  0  0  0  0  0  0
  -25.8460  -19.9290   18.7780 C   0  0  0  0  0  2  0  0  0  0  0  0
  -26.8610  -19.1940   19.6670 C   0  0  0  0  0  2  0  0  0  0  0  0
  -28.3300  -17.2270   19.7300 C   0  0  0  0  0  0  0  0  0  0  0  0
  -27.7210  -18.1920   19.0120 N   0  0  0  0  0  0  0  0  0  0  0  0
  -27.8610  -16.8540   20.8100 O   0  0  0  0  0  0  0  0  0  0  0  0
  -28.0510  -18.4080   18.0900 H   0  0  0  0  0  0  0  0  0  0  0  0
  -31.1480  -14.8410   19.8690 C   0  0  0  0  0  0  0  0  0  0  0  0
  -30.8870  -12.5670   18.9620 C   0  0  0  0  0  2  0  0  0  0  0  0
  -29.9250  -12.6580   17.7580 C   0  0  0  0  0  2  0  0  0  0  0  0
  -28.4590  -12.5460   18.2320 C   0  0  0  0  0  2  0  0  0  0  0  0
  -28.1340  -13.5080   19.4100 C   0  0  0  0  0  3  0  0  0  0  0  0
  -29.2040  -13.3900   20.5150 C   0  0  0  0  0  2  0  0  0  0  0  0
  -30.5170  -13.6420   19.8910 N   0  0  0  0  0  0  0  0  0  0  0  0
  -32.2910  -14.9710   19.3870 O   0  0  0  0  0  0  0  0  0  0  0  0
  -30.7390  -18.8980   19.9820 C   0  0  0  0  0  2  0  0  0  0  0  0
  -30.7760  -18.2380   21.3910 C   0  0  0  0  0  2  0  0  0  0  0  0
  -30.6000  -17.8880   18.8270 C   0  0  0  0  0  2  0  0  0  0  0  0
  -31.0080  -16.7010   21.4190 C   0  0  0  0  0  2  0  0  0  0  0  0
  -29.7030  -16.7130   19.2540 C   0  0  0  0  0  3  0  0  0  0  0  0
  -30.4460  -15.9200   20.2790 N   0  0  0  0  0  0  0  0  0  0  0  0
  -25.7730  -14.1860   20.2090 C   0  0  0  0  0  0  0  0  0  0  0  0
  -24.7170  -13.4460   20.6400 C   0  0  0  0  0  0  0  0  0  0  0  0
  -25.1450  -12.0870   20.5880 C   0  0  0  0  0  0  0  0  0  0  0  0
  -26.7980  -13.2860   19.9490 N   0  0  0  0  0  0  0  0  0  0  0  0
  -26.4230  -12.0150   20.2280 N   0  0  0  0  0  0  0  0  0  0  0  0
  -24.3900  -10.8520   20.7880 C   0  0  0  0  0  0  0  0  0  0  0  0
  -24.7330   -9.9330   21.8020 C   0  0  0  0  0  3  0  0  0  0  0  0
  -23.9710   -8.7580   21.9860 C   0  0  0  0  0  3  0  0  0  0  0  0
  -22.8530   -8.5000   21.1530 C   0  0  0  0  0  0  0  0  0  0  0  0
  -22.5350   -9.4080   20.1250 C   0  0  0  0  0  3  0  0  0  0  0  0
  -23.3000  -10.5730   19.9410 C   0  0  0  0  0  3  0  0  0  0  0  0
  -22.0710   -7.3790   21.2450 O   0  0  0  0  0  0  0  0  0  0  0  0
  -21.8120   -6.7840   22.4540 C   0  0  0  0  0  0  0  0  0  0  0  0
  -21.1740   -7.4780   23.5080 C   0  0  0  0  0  3  0  0  0  0  0  0
  -20.8650   -6.8060   24.7060 C   0  0  0  0  0  3  0  0  0  0  0  0
  -21.1800   -5.4440   24.8530 C   0  0  0  0  0  0  0  0  0  0  0  0
  -21.8110   -4.7500   23.8070 C   0  0  0  0  0  3  0  0  0  0  0  0
  -22.1230   -5.4170   22.6100 C   0  0  0  0  0  0  0  0  0  0  0  0
  -22.7110   -4.7400   21.5960 F   0  0  0  0  0  0  0  0  0  0  0  0
  -20.8760   -4.7960   26.0050 F   0  0  0  0  0  0  0  0  0  0  0  0
  -23.3550  -13.9680   20.9980 C   0  0  0  0  0  0  0  0  0  0  0  0
  -22.6550  -13.2930   21.9020 N   0  0  0  0  0  0  0  0  0  0  0  0
  -22.9280  -15.0200   20.5220 O   0  0  0  0  0  0  0  0  0  0  0  0
  -23.0290  -12.4500   22.3170 H   0  0  0  0  0  0  0  0  0  0  0  0
  -21.7450  -13.6320   22.1750 H   0  0  0  0  0  0  0  0  0  0  0  0
  -25.8840  -15.5460   19.9920 N   0  0  0  0  0  0  0  0  0  0  0  0
  -25.0820  -16.1100   20.2470 H   0  0  0  0  0  0  0  0  0  0  0  0
  -26.7530  -16.0270   20.2340 H   0  0  0  0  0  0  0  0  0  0  0  0
  -24.4660  -22.9500   18.0720 C   0  0  0  0  0  2  0  0  0  0  0  0
  -25.3640  -23.9440   18.7230 N   0  0  0  0  0  4  0  0  0  0  0  0
  -25.4660  -23.6400   19.6850 H   0  0  0  0  0  0  0  0  0  0  0  0
  -24.8830  -24.8310   18.7170 H   0  0  0  0  0  0  0  0  0  0  0  0
  -26.6830  -24.0980   18.0440 C   0  0  0  0  0  2  0  0  0  0  0  0
  -27.9590  -24.5230   18.8510 C   0  0  0  0  0  3  0  0  0  0  0  0
  -28.5130  -23.3790   19.2920 F   0  0  0  0  0  0  0  0  0  0  0  0
  -27.9780  -25.5410   20.0450 C   0  0  0  0  0  2  0  0  0  0  0  0
  -28.2670  -26.9440   19.8060 O   0  0  0  0  0  0  0  0  0  0  0  0
  -24.6540  -31.9670   23.4510 C   0  0  0  0  0  0  0  0  0  0  0  0
  -27.1660  -27.7750   19.9200 C   0  0  0  0  0  0  0  0  0  0  0  0
  -23.4200  -30.7490   21.6940 C   0  0  0  0  0  3  0  0  0  0  0  0
  -24.8300  -29.3380   20.1210 C   0  0  0  0  0  0  0  0  0  0  0  0
  -25.9540  -31.0690   21.5230 C   0  0  0  0  0  2  0  0  0  0  0  0
  -26.0070  -29.7700   20.7430 C   0  0  0  0  0  0  0  0  0  0  0  0
  -27.1850  -28.9890   20.6490 C   0  0  0  0  0  3  0  0  0  0  0  0
  -25.9750  -27.3760   19.2920 C   0  0  0  0  0  3  0  0  0  0  0  0
  -24.8020  -28.1310   19.4060 C   0  0  0  0  0  3  0  0  0  0  0  0
  -23.6050  -30.2130   20.2560 C   0  0  0  0  0  2  0  0  0  0  0  0
  -24.7000  -31.2700   22.2810 N   0  0  0  0  0  0  0  0  0  0  0  0
  -23.5840  -32.2060   24.0180 O   0  0  0  0  0  0  0  0  0  0  0  0
  -22.7610  -29.6490   22.5630 C   0  0  0  0  0  0  0  0  0  0  0  0
  -21.4400  -29.4810   22.3990 N   0  0  0  0  0  0  0  0  0  0  0  0
  -23.4310  -28.9510   23.3230 O   0  0  0  0  0  0  0  0  0  0  0  0
  -20.9590  -30.1030   21.7500 H   0  0  0  0  0  0  0  0  0  0  0  0
  -18.0580  -28.2030   22.6990 C   0  0  0  0  0  0  0  0  0  0  0  0
  -20.6040  -28.4680   23.0450 C   0  0  0  0  0  3  0  0  0  0  0  0
  -20.7520  -27.0920   22.3640 C   0  0  0  0  0  2  0  0  0  0  0  0
  -19.6770  -26.8100   21.3160 C   0  0  0  0  0  2  0  0  0  0  0  0
  -18.2780  -26.9200   21.9060 C   0  0  0  0  0  2  0  0  0  0  0  0
  -19.1580  -28.9310   23.2240 C   0  0  0  0  0  0  0  0  0  0  0  0
  -18.9210  -30.1240   23.9360 C   0  0  0  0  0  3  0  0  0  0  0  0
  -17.6110  -30.6090   24.1080 C   0  0  0  0  0  3  0  0  0  0  0  0
  -16.5280  -29.8800   23.5730 C   0  0  0  0  0  3  0  0  0  0  0  0
  -16.7460  -28.6730   22.8740 C   0  0  0  0  0  3  0  0  0  0  0  0
  -25.9540  -32.5220   24.1100 C   0  0  0  0  0  3  0  0  0  0  0  0
  -26.4270  -31.6820   25.3590 C   0  0  1  0  0  0  0  0  0  0  0  0
  -25.3120  -31.4350   26.3980 C   0  0  0  0  0  1  0  0  0  0  0  0
  -26.9720  -30.3050   24.9150 C   0  0  0  0  0  1  0  0  0  0  0  0
  -27.5950  -32.4100   26.0650 C   0  0  0  0  0  1  0  0  0  0  0  0
  -25.6900  -33.9190   24.4910 N   0  0  0  0  0  0  0  0  0  0  0  0
  -26.0540  -34.9860   23.7680 C   0  0  0  0  0  0  0  0  0  0  0  0
  -26.7220  -34.9030   22.7340 O   0  0  0  0  0  0  0  0  0  0  0  0
  -25.0980  -34.0560   25.2950 H   0  0  0  0  0  0  0  0  0  0  0  0
  -24.3750  -36.8340   23.4810 C   0  0  0  0  0  1  0  0  0  0  0  0
  -25.6050  -36.3710   24.2760 C   0  0  0  0  0  3  0  0  0  0  0  0
  -27.7650  -37.1610   25.1350 C   0  0  0  0  0  1  0  0  0  0  0  0
  -26.6660  -37.3940   24.1980 N   0  0  0  0  0  0  0  0  0  0  0  0
  -26.2870  -38.3210   24.3750 H   0  0  0  0  0  0  0  0  0  0  0  0
  1  2  1  0
  3  2  1  0
  3  4  1  0
  5  7  2  0
  6  4  1  0
  6  5  1  0
  8  6  1  0
  9 15  1  0
  9 22  1  0
 10 15  1  0
 11 12  1  0
 11 10  1  0
 13 12  1  0
 13 26  1  0
 13 14  1  0
 15 14  1  0
 16  9  2  0
 17 18  1  0
 18 20  1  0
 19 21  1  0
 19 17  1  0
 21  5  1  0
 21 22  1  0
 22 20  1  0
 23 24  2  0
 24 43  1  0
 25 24  1  0
 25 28  1  0
 26 23  1  0
 26 27  1  0
 27 25  2  0
 28 29  1  0
 29 30  2  0
 31 34  1  0
 31 30  1  0
 32 31  2  0
 33 32  1  0
 33 28  2  0
 34 35  1  0
 35 40  2  0
 35 36  1  0
 36 37  2  0
 37 38  1  0
 38 42  1  0
 39 38  2  0
 40 39  1  0
 41 40  1  0
 43 44  1  0
 44 47  1  0
 44 46  1  0
 45 43  2  0
 48 23  1  0
 48 50  1  0
 48 49  1  0
 51 52  1  0
 51  1  1  0
 52 53  1  0
 54 52  1  0
 55 52  1  0
 55 56  1  0
 56 57  1  0
 56 58  1  0
 59 61  1  0
 59 58  1  0
 60 71  2  0
 61 66  1  0
 62 70  1  0
 62 72  1  0
 63 69  1  0
 63 65  1  0
 64 70  1  0
 65 64  1  0
 66 65  2  0
 67 68  1  0
 67 61  2  0
 68 63  2  0
 69 62  1  0
 70 60  1  0
 72 74  2  0
 73 72  1  0
 75 73  1  0
 76 85  2  0
 76 81  1  0
 77 73  1  0
 77 81  1  0
 78 77  1  0
 79 80  1  0
 79 78  1  0
 80 76  1  0
 81 82  2  0
 82 83  1  0
 84 83  2  0
 85 84  1  0
 86 60  1  0
 86 91  1  0
 86 87  1  0
 87 90  1  1
 87 88  1  0
 89 87  1  0
 91 94  1  0
 92 96  1  0
 92 91  1  0
 93 92  2  0
 96 95  1  0
 98 96  1  0
 98 99  1  0
 98 97  1  0
M  ISO  4   9 100  22 100  58 101  59 101
M  END
>  <TORSDO>  (30) 
F 25

>  <SCORE>  (30) 
-9.748

>  <name>  (30) 
30

>  <ligand_id>  (30) 
30

>  <original_smiles>  (30) 
[H]c1c([H])c([H])c2c(c1[H])C([H])([H])C([H])([H])C([H])([H])C2([H])N([H])C(=O)C1([H])N(C(=O)C([H])(N([H])C(=O)C([H])(N([H])C([H])([H])[H])C([H])([H])[H])C(C([H])([H])[H])(C([H])([H])[H])C([H])([H])[H])C([H])([H])c2c([H])c(OC([H])([H])C([H])(F)C([H])([H])[N+]([H])([H])C([H])([H])C([H])([H])C([H])([H])C([H])([H])C([H])([H])N([H])C(=O)C3([H])N(C(=O)N4C([H])([H])C([H])([H])C([H])([H])C([H])(n5nc(-c6c([H])c([H])c(Oc7c([H])c([H])c(F)c([H])c7F)c([H])c6[H])c(C(=O)N([H])[H])c5N([H])[H])C4([H])[H])C([H])([H])C([H])([H])C([H])([H])C3([H])[H])c([H])c([H])c2C1([H])[H]

>  <smiles>  (30) 
[H]c1c([H])c([H])c2c(c1[H])C([H])([H])C([H])([H])C([H])([H])C2([H])N([H])C(=O)C1([H])N(C(=O)C([H])(N([H])C(=O)C([H])(N([H])C([H])([H])[H])C([H])([H])[H])C(C([H])([H])[H])(C([H])([H])[H])C([H])([H])[H])C([H])([H])c2c([H])c(OC([H])([H])C([H])(F)C([H])([H])[N+]([H])([H])C([H])([H])C([H])([H])C([H])([H])C([H])([H])C([H])([H])N([H])C(=O)C3([H])N(C(=O)N4C([H])([H])C([H])([H])C([H])([H])C([H])(n5nc(-c6c([H])c([H])c(Oc7c([H])c([H])c(F)c([H])c7F)c([H])c6[H])c(C(=O)N([H])[H])c5N([H])[H])C4([H])[H])C([H])([H])C([H])([H])C([H])([H])C3([H])[H])c([H])c([H])c2C1([H])[H]

$$$$
31:0:0
     RDKit          3D

 97105  0  0  1  0  0  0  0  0999 V2000
  -30.9880  -21.7520   20.2860 C   0  0  0  0  0  3  0  0  0  0  0  0
  -29.9810  -22.7690   19.6860 C   0  0  0  0  0  2  0  0  0  0  0  0
  -29.1420  -23.5370   20.7350 C   0  0  0  0  0  2  0  0  0  0  0  0
  -28.0070  -24.3790   20.1150 C   0  0  0  0  0  2  0  0  0  0  0  0
  -28.4760  -25.6590   19.3890 C   0  0  0  0  0  2  0  0  0  0  0  0
  -28.3450  -26.8260   20.2030 O   0  0  0  0  0  0  0  0  0  0  0  0
  -24.5550  -31.9650   23.3270 C   0  0  0  0  0  0  0  0  0  0  0  0
  -27.1430  -27.5070   20.2180 C   0  0  0  0  0  0  0  0  0  0  0  0
  -23.3210  -30.5660   21.7040 C   0  0  0  0  0  3  0  0  0  0  0  0
  -24.7470  -29.0140   20.2720 C   0  0  0  0  0  0  0  0  0  0  0  0
  -25.8480  -30.9040   21.4820 C   0  0  0  0  0  2  0  0  0  0  0  0
  -25.9130  -29.5310   20.8460 C   0  0  0  0  0  0  0  0  0  0  0  0
  -27.1090  -28.7810   20.8260 C   0  0  0  0  0  3  0  0  0  0  0  0
  -25.9490  -26.9950   19.6530 C   0  0  0  0  0  3  0  0  0  0  0  0
  -24.7570  -27.7410   19.6800 C   0  0  0  0  0  3  0  0  0  0  0  0
  -23.5110  -29.8800   20.3260 C   0  0  0  0  0  2  0  0  0  0  0  0
  -24.5940  -31.1600   22.2280 N   0  0  0  0  0  0  0  0  0  0  0  0
  -23.4810  -32.2490   23.8770 O   0  0  0  0  0  0  0  0  0  0  0  0
  -22.6720  -29.5520   22.6740 C   0  0  0  0  0  0  0  0  0  0  0  0
  -21.3520  -29.3530   22.5340 N   0  0  0  0  0  0  0  0  0  0  0  0
  -23.3540  -28.9440   23.5030 O   0  0  0  0  0  0  0  0  0  0  0  0
  -20.8620  -29.8980   21.8380 H   0  0  0  0  0  0  0  0  0  0  0  0
  -17.9900  -28.1070   22.9890 C   0  0  0  0  0  0  0  0  0  0  0  0
  -20.5360  -28.4180   23.3090 C   0  0  0  0  0  3  0  0  0  0  0  0
  -20.6770  -26.9750   22.7710 C   0  0  0  0  0  2  0  0  0  0  0  0
  -19.6030  -26.6080   21.7420 C   0  0  0  0  0  2  0  0  0  0  0  0
  -18.2050  -26.7440   22.3520 C   0  0  0  0  0  2  0  0  0  0  0  0
  -19.0850  -28.9000   23.4240 C   0  0  0  0  0  0  0  0  0  0  0  0
  -18.8330  -30.1750   23.9730 C   0  0  0  0  0  3  0  0  0  0  0  0
  -17.5170  -30.6590   24.0950 C   0  0  0  0  0  3  0  0  0  0  0  0
  -16.4350  -29.8620   23.6830 C   0  0  0  0  0  3  0  0  0  0  0  0
  -16.6730  -28.5900   23.1330 C   0  0  0  0  0  3  0  0  0  0  0  0
  -25.8530  -32.5870   23.9310 C   0  0  0  0  0  3  0  0  0  0  0  0
  -26.3820  -31.8120   25.2020 C   0  0  1  0  0  0  0  0  0  0  0  0
  -25.3010  -31.5750   26.2830 C   0  0  0  0  0  1  0  0  0  0  0  0
  -26.9590  -30.4340   24.8020 C   0  0  0  0  0  1  0  0  0  0  0  0
  -27.5450  -32.6020   25.8500 C   0  0  0  0  0  1  0  0  0  0  0  0
  -25.5610  -33.9880   24.2610 N   0  0  0  0  0  0  0  0  0  0  0  0
  -25.8980  -35.0330   23.4950 C   0  0  0  0  0  0  0  0  0  0  0  0
  -26.5610  -34.9200   22.4600 O   0  0  0  0  0  0  0  0  0  0  0  0
  -24.9760  -34.1520   25.0670 H   0  0  0  0  0  0  0  0  0  0  0  0
  -24.1870  -36.8410   23.1370 C   0  0  0  0  0  1  0  0  0  0  0  0
  -25.4240  -36.4270   23.9490 C   0  0  0  0  0  3  0  0  0  0  0  0
  -27.5680  -37.2910   24.7780 C   0  0  0  0  0  1  0  0  0  0  0  0
  -26.4670  -37.4700   23.8340 N   0  0  0  0  0  0  0  0  0  0  0  0
  -26.0710  -38.3940   23.9800 H   0  0  0  0  0  0  0  0  0  0  0  0
  -31.4950  -20.7460   19.2110 C   0  0  0  0  0  2  0  0  0  0  0  0
  -32.1440  -19.4440   19.7490 C   0  0  0  0  0  2  0  0  0  0  0  0
  -30.7020  -14.4670   20.1330 C   0  0  0  0  0  0  0  0  0  0  0  0
  -30.3120  -12.3590   18.9240 C   0  0  0  0  0  2  0  0  0  0  0  0
  -29.3120  -12.6080   17.7770 C   0  0  0  0  0  2  0  0  0  0  0  0
  -27.8600  -12.4740   18.2770 C   0  0  0  0  0  2  0  0  0  0  0  0
  -27.5940  -13.2680   19.5830 C   0  0  0  0  0  3  0  0  0  0  0  0
  -28.7030  -13.0040   20.6250 C   0  0  0  0  0  2  0  0  0  0  0  0
  -30.0010  -13.3110   19.9990 N   0  0  0  0  0  0  0  0  0  0  0  0
  -31.7800  -14.6750   19.5700 O   0  0  0  0  0  0  0  0  0  0  0  0
  -30.7260  -17.1780   22.5020 C   0  0  0  0  0  2  0  0  0  0  0  0
  -30.2780  -15.7380   22.1700 C   0  0  0  0  0  2  0  0  0  0  0  0
  -29.5010  -16.5970   19.9480 C   0  0  0  0  0  2  0  0  0  0  0  0
  -31.7780  -17.7850   21.5470 C   0  0  0  0  0  2  0  0  0  0  0  0
  -30.5530  -17.5890   19.3830 C   0  0  0  0  0  2  0  0  0  0  0  0
  -30.0510  -15.4840   20.7420 N   0  0  0  0  0  0  0  0  0  0  0  0
  -31.1760  -18.4980   20.3880 N   0  0  2  0  0  4  0  0  0  0  0  0
  -30.4410  -19.0700   20.7720 H   0  0  0  0  0  0  0  0  0  0  0  0
  -25.2250  -13.8600   20.3990 C   0  0  0  0  0  0  0  0  0  0  0  0
  -24.1800  -13.0790   20.8100 C   0  0  0  0  0  0  0  0  0  0  0  0
  -24.6470  -11.7310   20.7520 C   0  0  0  0  0  0  0  0  0  0  0  0
  -26.2650  -12.9860   20.1190 N   0  0  0  0  0  0  0  0  0  0  0  0
  -25.9220  -11.7000   20.3870 N   0  0  0  0  0  0  0  0  0  0  0  0
  -23.9400  -10.4620   20.9680 C   0  0  0  0  0  0  0  0  0  0  0  0
  -24.3960   -9.5120   21.9070 C   0  0  0  0  0  3  0  0  0  0  0  0
  -23.6880   -8.3070   22.1080 C   0  0  0  0  0  3  0  0  0  0  0  0
  -22.5110   -8.0450   21.3700 C   0  0  0  0  0  0  0  0  0  0  0  0
  -22.0740   -8.9840   20.4190 C   0  0  0  0  0  3  0  0  0  0  0  0
  -22.7820  -10.1790   20.2160 C   0  0  0  0  0  3  0  0  0  0  0  0
  -21.7730   -6.8910   21.4810 O   0  0  0  0  0  0  0  0  0  0  0  0
  -21.7180   -6.1820   22.6530 C   0  0  0  0  0  0  0  0  0  0  0  0
  -21.2700   -6.7660   23.8580 C   0  0  0  0  0  3  0  0  0  0  0  0
  -21.1640   -5.9820   25.0230 C   0  0  0  0  0  3  0  0  0  0  0  0
  -21.4970   -4.6150   24.9850 C   0  0  0  0  0  0  0  0  0  0  0  0
  -21.9370   -4.0300   23.7860 C   0  0  0  0  0  3  0  0  0  0  0  0
  -22.0450   -4.8110   22.6220 C   0  0  0  0  0  0  0  0  0  0  0  0
  -22.4510   -4.2380   21.4630 F   0  0  0  0  0  0  0  0  0  0  0  0
  -21.3870   -3.8590   26.1040 F   0  0  0  0  0  0  0  0  0  0  0  0
  -22.7920  -13.5450   21.1490 C   0  0  0  0  0  0  0  0  0  0  0  0
  -22.1090  -12.8360   22.0390 N   0  0  0  0  0  0  0  0  0  0  0  0
  -22.3250  -14.5730   20.6580 O   0  0  0  0  0  0  0  0  0  0  0  0
  -22.5010  -12.0050   22.4570 H   0  0  0  0  0  0  0  0  0  0  0  0
  -21.1790  -13.1280   22.3090 H   0  0  0  0  0  0  0  0  0  0  0  0
  -25.3750  -15.2330   20.2230 N   0  0  0  0  0  0  0  0  0  0  0  0
  -24.6150  -15.8860   20.3750 H   0  0  0  0  0  0  0  0  0  0  0  0
  -26.2180  -15.6780   19.8800 H   0  0  0  0  0  0  0  0  0  0  0  0
  -32.1330  -22.4440   21.0790 C   0  0  0  0  0  2  0  0  0  0  0  0
  -32.9950  -23.3070   20.2480 N   0  0  0  0  0  4  0  0  0  0  0  0
  -33.5000  -22.7770   19.5620 H   0  0  0  0  0  0  0  0  0  0  0  0
  -33.6680  -23.7700   20.8340 H   0  0  0  0  0  0  0  0  0  0  0  0
  -32.4630  -24.0190   19.7810 H   0  0  0  0  0  0  0  0  0  0  0  0
  1 47  1  0
  1 93  1  0
  2  1  1  0
  2  3  1  0
  4  3  1  0
  5  4  1  0
  5  6  1  0
  6  8  1  0
  7 18  2  0
  8 13  1  0
  9 17  1  0
  9 19  1  0
 10 16  1  0
 10 12  1  0
 11 17  1  0
 12 11  1  0
 13 12  2  0
 14 15  1  0
 14  8  2  0
 15 10  2  0
 16  9  1  0
 17  7  1  0
 19 21  2  0
 20 19  1  0
 22 20  1  0
 23 32  2  0
 23 28  1  0
 24 20  1  0
 24 28  1  0
 25 24  1  0
 26 27  1  0
 26 25  1  0
 27 23  1  0
 28 29  2  0
 29 30  1  0
 31 30  2  0
 32 31  1  0
 33  7  1  0
 33 38  1  0
 33 34  1  0
 34 37  1  1
 34 35  1  0
 36 34  1  0
 38 41  1  0
 39 43  1  0
 39 38  1  0
 40 39  2  0
 43 42  1  0
 45 43  1  0
 45 46  1  0
 45 44  1  0
 47 48  1  0
 48 63  1  0
 49 62  1  0
 50 55  1  0
 51 52  1  0
 51 50  1  0
 53 52  1  0
 53 68  1  0
 53 54  1  0
 55 49  1  0
 55 54  1  0
 56 49  2  0
 58 57  1  0
 59 62  1  0
 60 57  1  0
 61 59  1  0
 61 63  1  0
 62 58  1  0
 63 64  1  1
 63 60  1  0
 65 66  2  0
 66 85  1  0
 67 66  1  0
 67 70  1  0
 68 69  1  0
 68 65  1  0
 69 67  2  0
 70 71  1  0
 71 72  2  0
 73 76  1  0
 73 72  1  0
 74 73  2  0
 75 74  1  0
 75 70  2  0
 76 77  1  0
 77 78  1  0
 78 79  2  0
 80 79  1  0
 80 84  1  0
 81 80  2  0
 82 77  2  0
 82 81  1  0
 83 82  1  0
 85 86  1  0
 86 89  1  0
 86 88  1  0
 87 85  2  0
 90 91  1  0
 90 65  1  0
 92 90  1  0
 94 96  1  0
 94 93  1  0
 95 94  1  0
 97 94  1  0
M  ISO  4   5 101   6 101  49 100  62 100
M  END
>  <TORSDO>  (31) 
F 24

>  <SCORE>  (31) 
-11.963

>  <name>  (31) 
31

>  <ligand_id>  (31) 
31

>  <original_smiles>  (31) 
[H]c1c([H])c([H])c2c(c1[H])C([H])([H])C([H])([H])C([H])([H])C2([H])N([H])C(=O)C1([H])N(C(=O)C([H])(N([H])C(=O)C([H])(N([H])C([H])([H])[H])C([H])([H])[H])C(C([H])([H])[H])(C([H])([H])[H])C([H])([H])[H])C([H])([H])c2c([H])c(OC([H])([H])C([H])([H])C([H])([H])C([H])([H])C([H])(C([H])([H])C([H])([H])[N+]3([H])C([H])([H])C([H])([H])N(C(=O)N4C([H])([H])C([H])([H])C([H])([H])C([H])(n5nc(-c6c([H])c([H])c(Oc7c([H])c([H])c(F)c([H])c7F)c([H])c6[H])c(C(=O)N([H])[H])c5N([H])[H])C4([H])[H])C([H])([H])C([H])([H])C3([H])[H])C([H])([H])[N+]([H])([H])[H])c([H])c([H])c2C1([H])[H]

>  <smiles>  (31) 
[H]c1c([H])c([H])c2c(c1[H])C([H])([H])C([H])([H])C([H])([H])C2([H])N([H])C(=O)C1([H])N(C(=O)C([H])(N([H])C(=O)C([H])(N([H])C([H])([H])[H])C([H])([H])[H])C(C([H])([H])[H])(C([H])([H])[H])C([H])([H])[H])C([H])([H])c2c([H])c(OC([H])([H])C([H])([H])C([H])([H])C([H])([H])C([H])(C([H])([H])C([H])([H])[N+]3([H])C([H])([H])C([H])([H])N(C(=O)N4C([H])([H])C([H])([H])C([H])([H])C([H])(n5nc(-c6c([H])c([H])c(Oc7c([H])c([H])c(F)c([H])c7F)c([H])c6[H])c(C(=O)N([H])[H])c5N([H])[H])C4([H])[H])C([H])([H])C([H])([H])C3([H])[H])C([H])([H])[N+]([H])([H])[H])c([H])c([H])c2C1([H])[H]

$$$$
32:0:0
     RDKit          3D

 94102  0  0  1  0  0  0  0  0999 V2000
  -26.6270  -21.2090   19.3380 C   0  0  0  0  0  2  0  0  0  0  0  0
  -27.8190  -21.0550   20.3050 C   0  0  0  0  0  2  0  0  0  0  0  0
  -29.1000  -18.9190   20.0910 C   0  0  0  0  0  0  0  0  0  0  0  0
  -28.0780  -19.6430   20.5600 N   0  0  0  0  0  0  0  0  0  0  0  0
  -29.9840  -19.3960   19.3780 O   0  0  0  0  0  0  0  0  0  0  0  0
  -27.4150  -19.1630   21.1550 H   0  0  0  0  0  0  0  0  0  0  0  0
  -31.1400  -14.4290   19.9200 C   0  0  0  0  0  0  0  0  0  0  0  0
  -30.7690  -12.2390   18.8530 C   0  0  0  0  0  2  0  0  0  0  0  0
  -29.7490  -12.4200   17.7090 C   0  0  0  0  0  2  0  0  0  0  0  0
  -28.3020  -12.3200   18.2370 C   0  0  0  0  0  2  0  0  0  0  0  0
  -28.0590  -13.2100   19.4860 C   0  0  0  0  0  3  0  0  0  0  0  0
  -29.1740  -12.9860   20.5300 C   0  0  0  0  0  2  0  0  0  0  0  0
  -30.4660  -13.2510   19.8750 N   0  0  0  0  0  0  0  0  0  0  0  0
  -32.2100  -14.6260   19.3320 O   0  0  0  0  0  0  0  0  0  0  0  0
  -29.7200  -17.2150   21.8800 C   0  0  0  0  0  2  0  0  0  0  0  0
  -30.6330  -15.9880   21.7620 C   0  0  0  0  0  2  0  0  0  0  0  0
  -29.9260  -16.5240   19.5670 C   0  0  0  0  0  2  0  0  0  0  0  0
  -29.1070  -17.4360   20.4930 C   0  0  0  0  0  3  0  0  0  0  0  0
  -30.4190  -15.4500   20.4220 N   0  0  0  0  0  0  0  0  0  0  0  0
  -25.7580  -13.9110   20.4090 C   0  0  0  0  0  0  0  0  0  0  0  0
  -24.6840  -13.1710   20.8340 C   0  0  0  0  0  0  0  0  0  0  0  0
  -25.0730  -11.8020   20.7080 C   0  0  0  0  0  0  0  0  0  0  0  0
  -26.7320  -12.9880   20.0560 N   0  0  0  0  0  0  0  0  0  0  0  0
  -26.3280  -11.7140   20.2890 N   0  0  0  0  0  0  0  0  0  0  0  0
  -24.3020  -10.5670   20.9010 C   0  0  0  0  0  0  0  0  0  0  0  0
  -24.6840   -9.6000   21.8580 C   0  0  0  0  0  3  0  0  0  0  0  0
  -23.9150   -8.4300   22.0390 C   0  0  0  0  0  3  0  0  0  0  0  0
  -22.7510   -8.2200   21.2620 C   0  0  0  0  0  0  0  0  0  0  0  0
  -22.3890   -9.1720   20.2940 C   0  0  0  0  0  3  0  0  0  0  0  0
  -23.1590  -10.3340   20.1110 C   0  0  0  0  0  3  0  0  0  0  0  0
  -21.9610   -7.0970   21.3460 O   0  0  0  0  0  0  0  0  0  0  0  0
  -21.7800   -6.4340   22.5320 C   0  0  0  0  0  0  0  0  0  0  0  0
  -21.2500   -7.0790   23.6730 C   0  0  0  0  0  3  0  0  0  0  0  0
  -21.0120   -6.3410   24.8490 C   0  0  0  0  0  3  0  0  0  0  0  0
  -21.2970   -4.9620   24.8890 C   0  0  0  0  0  0  0  0  0  0  0  0
  -21.8210   -4.3200   23.7530 C   0  0  0  0  0  3  0  0  0  0  0  0
  -22.0580   -5.0540   22.5780 C   0  0  0  0  0  0  0  0  0  0  0  0
  -22.5410   -4.4250   21.4790 F   0  0  0  0  0  0  0  0  0  0  0  0
  -21.0670   -4.2550   26.0180 F   0  0  0  0  0  0  0  0  0  0  0  0
  -23.3380  -13.6990   21.2390 C   0  0  0  0  0  0  0  0  0  0  0  0
  -22.6620  -13.0070   22.1540 N   0  0  0  0  0  0  0  0  0  0  0  0
  -22.8980  -14.7530   20.7870 O   0  0  0  0  0  0  0  0  0  0  0  0
  -23.0350  -12.1550   22.5420 H   0  0  0  0  0  0  0  0  0  0  0  0
  -21.7630  -13.3430   22.4680 H   0  0  0  0  0  0  0  0  0  0  0  0
  -25.9810  -15.2770   20.2680 N   0  0  0  0  0  0  0  0  0  0  0  0
  -25.2720  -15.9760   20.4500 H   0  0  0  0  0  0  0  0  0  0  0  0
  -26.8220  -15.6660   19.8600 H   0  0  0  0  0  0  0  0  0  0  0  0
  -26.1550  -22.6530   19.0730 C   0  0  0  0  0  2  0  0  0  0  0  0
  -27.1710  -23.5280   18.4260 N   0  0  0  0  0  4  0  0  0  0  0  0
  -26.6710  -24.0840   17.7470 H   0  0  0  0  0  0  0  0  0  0  0  0
  -27.8090  -22.9580   17.8900 H   0  0  0  0  0  0  0  0  0  0  0  0
  -27.9150  -24.4520   19.3320 C   0  0  0  0  0  2  0  0  0  0  0  0
  -28.3940  -25.7540   18.6290 C   0  0  0  0  0  2  0  0  0  0  0  0
  -28.3570  -26.9180   19.4840 O   0  0  0  0  0  0  0  0  0  0  0  0
  -24.5150  -31.7800   23.0880 C   0  0  0  0  0  0  0  0  0  0  0  0
  -27.1560  -27.5970   19.6170 C   0  0  0  0  0  0  0  0  0  0  0  0
  -23.2950  -30.4360   21.4150 C   0  0  0  0  0  3  0  0  0  0  0  0
  -24.7260  -29.0380   19.8530 C   0  0  0  0  0  0  0  0  0  0  0  0
  -25.8100  -30.8690   21.1600 C   0  0  0  0  0  2  0  0  0  0  0  0
  -25.8970  -29.5460   20.4250 C   0  0  0  0  0  0  0  0  0  0  0  0
  -27.1130  -28.8310   20.3100 C   0  0  0  0  0  3  0  0  0  0  0  0
  -25.9470  -27.0980   19.0730 C   0  0  0  0  0  3  0  0  0  0  0  0
  -24.7410  -27.8040   19.1930 C   0  0  0  0  0  3  0  0  0  0  0  0
  -23.4730  -29.8630   19.9910 C   0  0  0  0  0  2  0  0  0  0  0  0
  -24.5590  -31.0440   21.9420 N   0  0  0  0  0  0  0  0  0  0  0  0
  -23.4420  -31.9900   23.6710 O   0  0  0  0  0  0  0  0  0  0  0  0
  -22.7100  -29.3340   22.3280 C   0  0  0  0  0  0  0  0  0  0  0  0
  -21.3910  -29.1050   22.2190 N   0  0  0  0  0  0  0  0  0  0  0  0
  -23.4360  -28.6960   23.0930 O   0  0  0  0  0  0  0  0  0  0  0  0
  -20.8590  -29.6930   21.5930 H   0  0  0  0  0  0  0  0  0  0  0  0
  -18.0780  -27.7360   22.6970 C   0  0  0  0  0  0  0  0  0  0  0  0
  -20.6270  -28.0920   22.9470 C   0  0  0  0  0  3  0  0  0  0  0  0
  -20.7840  -26.7010   22.2870 C   0  0  0  0  0  2  0  0  0  0  0  0
  -19.6750  -26.3830   21.2800 C   0  0  0  0  0  2  0  0  0  0  0  0
  -18.3080  -26.4230   21.9660 C   0  0  0  0  0  2  0  0  0  0  0  0
  -19.1690  -28.5280   23.1430 C   0  0  0  0  0  0  0  0  0  0  0  0
  -18.9020  -29.7590   23.7840 C   0  0  0  0  0  3  0  0  0  0  0  0
  -17.5780  -30.1950   23.9840 C   0  0  0  0  0  3  0  0  0  0  0  0
  -16.5040  -29.3970   23.5550 C   0  0  0  0  0  3  0  0  0  0  0  0
  -16.7550  -28.1690   22.9190 C   0  0  0  0  0  3  0  0  0  0  0  0
  -25.8000  -32.4110   23.7060 C   0  0  0  0  0  3  0  0  0  0  0  0
  -25.4670  -33.7820   24.1160 N   0  0  0  0  0  0  0  0  0  0  0  0
  -25.7640  -34.8790   23.4050 C   0  0  0  0  0  0  0  0  0  0  0  0
  -26.4190  -34.8430   22.3590 O   0  0  0  0  0  0  0  0  0  0  0  0
  -24.8870  -33.8870   24.9380 H   0  0  0  0  0  0  0  0  0  0  0  0
  -23.9920  -36.6450   23.1690 C   0  0  0  0  0  1  0  0  0  0  0  0
  -25.2530  -36.2290   23.9430 C   0  0  0  0  0  3  0  0  0  0  0  0
  -27.3790  -37.1150   24.7930 C   0  0  0  0  0  1  0  0  0  0  0  0
  -26.2630  -37.3090   23.8710 N   0  0  0  0  0  0  0  0  0  0  0  0
  -25.8390  -38.2110   24.0700 H   0  0  0  0  0  0  0  0  0  0  0  0
  -26.3760  -31.5870   24.9230 C   0  0  1  0  0  0  0  0  0  0  0  0
  -25.3260  -31.2580   26.0090 C   0  0  0  0  0  1  0  0  0  0  0  0
  -26.9810  -30.2470   24.4420 C   0  0  0  0  0  1  0  0  0  0  0  0
  -27.5280  -32.3790   25.5880 C   0  0  0  0  0  1  0  0  0  0  0  0
  1  2  1  0
  2  4  1  0
  3  4  1  0
  4  6  1  0
  5  3  2  0
  7 19  1  0
  8 13  1  0
  9 10  1  0
  9  8  1  0
 11 10  1  0
 11 23  1  0
 11 12  1  0
 13  7  1  0
 13 12  1  0
 14  7  2  0
 16 15  1  0
 17 19  1  0
 17 18  1  0
 18  3  1  0
 18 15  1  0
 19 16  1  0
 20 21  2  0
 21 40  1  0
 22 21  1  0
 22 25  1  0
 23 24  1  0
 23 20  1  0
 24 22  2  0
 25 26  1  0
 26 27  2  0
 28 31  1  0
 28 27  1  0
 29 28  2  0
 30 29  1  0
 30 25  2  0
 31 32  1  0
 32 37  2  0
 32 33  1  0
 33 34  2  0
 34 35  1  0
 35 39  1  0
 36 35  2  0
 37 36  1  0
 38 37  1  0
 40 41  1  0
 41 44  1  0
 41 43  1  0
 42 40  2  0
 45 20  1  0
 45 46  1  0
 47 45  1  0
 48  1  1  0
 49 48  1  0
 49 52  1  0
 50 49  1  0
 51 49  1  0
 53 52  1  0
 53 54  1  0
 54 56  1  0
 55 66  2  0
 56 61  1  0
 57 65  1  0
 57 67  1  0
 58 64  1  0
 58 60  1  0
 59 65  1  0
 60 59  1  0
 61 60  2  0
 62 63  1  0
 62 56  2  0
 63 58  2  0
 64 57  1  0
 65 55  1  0
 67 69  2  0
 68 67  1  0
 70 68  1  0
 71 80  2  0
 71 76  1  0
 72 68  1  0
 72 76  1  0
 73 72  1  0
 74 75  1  0
 74 73  1  0
 75 71  1  0
 76 77  2  0
 77 78  1  0
 79 78  2  0
 80 79  1  0
 81 55  1  0
 81 82  1  0
 81 91  1  0
 82 85  1  0
 83 87  1  0
 83 82  1  0
 84 83  2  0
 87 86  1  0
 89 87  1  0
 89 90  1  0
 89 88  1  0
 91 94  1  1
 91 92  1  0
 93 91  1  0
M  ISO  4   7 100  19 100  53 101  54 101
M  END
>  <TORSDO>  (32) 
F 22

>  <SCORE>  (32) 
-12.256

>  <name>  (32) 
32

>  <ligand_id>  (32) 
32

>  <original_smiles>  (32) 
[H]c1c([H])c([H])c2c(c1[H])C([H])([H])C([H])([H])C([H])([H])C2([H])N([H])C(=O)C1([H])N(C(=O)C([H])(N([H])C(=O)C([H])(N([H])C([H])([H])[H])C([H])([H])[H])C(C([H])([H])[H])(C([H])([H])[H])C([H])([H])[H])C([H])([H])c2c([H])c(OC([H])([H])C([H])([H])[N+]([H])([H])C([H])([H])C([H])([H])C([H])([H])N([H])C(=O)C3([H])C([H])([H])N(C(=O)N4C([H])([H])C([H])([H])C([H])([H])C([H])(n5nc(-c6c([H])c([H])c(Oc7c([H])c([H])c(F)c([H])c7F)c([H])c6[H])c(C(=O)N([H])[H])c5N([H])[H])C4([H])[H])C([H])([H])C3([H])[H])c([H])c([H])c2C1([H])[H]

>  <smiles>  (32) 
[H]c1c([H])c([H])c2c(c1[H])C([H])([H])C([H])([H])C([H])([H])C2([H])N([H])C(=O)C1([H])N(C(=O)C([H])(N([H])C(=O)C([H])(N([H])C([H])([H])[H])C([H])([H])[H])C(C([H])([H])[H])(C([H])([H])[H])C([H])([H])[H])C([H])([H])c2c([H])c(OC([H])([H])C([H])([H])[N+]([H])([H])C([H])([H])C([H])([H])C([H])([H])N([H])C(=O)C3([H])C([H])([H])N(C(=O)N4C([H])([H])C([H])([H])C([H])([H])C([H])(n5nc(-c6c([H])c([H])c(Oc7c([H])c([H])c(F)c([H])c7F)c([H])c6[H])c(C(=O)N([H])[H])c5N([H])[H])C4([H])[H])C([H])([H])C3([H])[H])c([H])c([H])c2C1([H])[H]

$$$$
33:0:0
     RDKit          3D

 96104  0  0  1  0  0  0  0  0999 V2000
  -29.8490  -19.8010   20.1400 C   0  0  0  0  0  3  0  0  0  0  0  0
  -27.5800  -20.4920   19.6160 C   0  0  0  0  0  3  0  0  0  0  0  0
  -28.2340  -18.1250   19.4320 C   0  0  0  0  0  3  0  0  0  0  0  0
  -28.8690  -20.8710   20.0370 C   0  0  0  0  0  0  0  0  0  0  0  0
  -29.5610  -18.4100   19.8180 C   0  0  0  0  0  0  0  0  0  0  0  0
  -27.2640  -19.1460   19.3330 C   0  0  0  0  0  0  0  0  0  0  0  0
  -26.0010  -18.8300   18.9570 F   0  0  0  0  0  0  0  0  0  0  0  0
  -29.0790  -22.3710   20.5160 C   0  0  0  0  0  2  0  0  0  0  0  0
  -28.5480  -23.6540   19.6900 C   0  0  0  0  0  2  0  0  0  0  0  0
  -28.1750  -24.9960   20.5060 C   0  0  0  0  0  2  0  0  0  0  0  0
  -28.2840  -26.3690   19.9360 O   0  0  0  0  0  0  0  0  0  0  0  0
  -24.5680  -31.7220   23.1000 C   0  0  0  0  0  0  0  0  0  0  0  0
  -27.1710  -27.2220   19.9620 C   0  0  0  0  0  0  0  0  0  0  0  0
  -23.3660  -30.3750   21.4140 C   0  0  0  0  0  3  0  0  0  0  0  0
  -24.8180  -28.8470   19.9590 C   0  0  0  0  0  0  0  0  0  0  0  0
  -25.9070  -30.6860   21.2530 C   0  0  0  0  0  2  0  0  0  0  0  0
  -25.9840  -29.3200   20.5760 C   0  0  0  0  0  0  0  0  0  0  0  0
  -27.1680  -28.5210   20.5600 C   0  0  0  0  0  3  0  0  0  0  0  0
  -25.9860  -26.7980   19.3290 C   0  0  0  0  0  3  0  0  0  0  0  0
  -24.8220  -27.5950   19.3220 C   0  0  0  0  0  3  0  0  0  0  0  0
  -23.5830  -29.7270   20.0190 C   0  0  0  0  0  2  0  0  0  0  0  0
  -24.6310  -30.9460   21.9790 N   0  0  0  0  0  0  0  0  0  0  0  0
  -23.4830  -31.9910   23.6380 O   0  0  0  0  0  0  0  0  0  0  0  0
  -22.6910  -29.3420   22.3460 C   0  0  0  0  0  0  0  0  0  0  0  0
  -21.3600  -29.2010   22.2370 N   0  0  0  0  0  0  0  0  0  0  0  0
  -23.3680  -28.6660   23.1280 O   0  0  0  0  0  0  0  0  0  0  0  0
  -20.8740  -29.8000   21.5840 H   0  0  0  0  0  0  0  0  0  0  0  0
  -17.9610  -28.0930   22.7720 C   0  0  0  0  0  0  0  0  0  0  0  0
  -20.5320  -28.2490   22.9800 C   0  0  0  0  0  3  0  0  0  0  0  0
  -20.5660  -26.8470   22.3300 C   0  0  0  0  0  2  0  0  0  0  0  0
  -19.4320  -26.6230   21.3260 C   0  0  0  0  0  2  0  0  0  0  0  0
  -18.0700  -26.7840   22.0070 C   0  0  0  0  0  2  0  0  0  0  0  0
  -19.1160  -28.7910   23.2120 C   0  0  0  0  0  0  0  0  0  0  0  0
  -18.9590  -30.0260   23.8790 C   0  0  0  0  0  3  0  0  0  0  0  0
  -17.6770  -30.5620   24.1060 C   0  0  0  0  0  3  0  0  0  0  0  0
  -16.5350  -29.8580   23.6840 C   0  0  0  0  0  3  0  0  0  0  0  0
  -16.6790  -28.6250   23.0240 C   0  0  0  0  0  3  0  0  0  0  0  0
  -25.8520  -32.3310   23.7470 C   0  0  0  0  0  3  0  0  0  0  0  0
  -26.3550  -31.5270   25.0100 C   0  0  1  0  0  0  0  0  0  0  0  0
  -25.2530  -31.2800   26.0670 C   0  0  0  0  0  1  0  0  0  0  0  0
  -26.9280  -30.1540   24.5920 C   0  0  0  0  0  1  0  0  0  0  0  0
  -27.5090  -32.2960   25.6950 C   0  0  0  0  0  1  0  0  0  0  0  0
  -25.5490  -33.7240   24.1100 N   0  0  0  0  0  0  0  0  0  0  0  0
  -25.8830  -34.7930   23.3750 C   0  0  0  0  0  0  0  0  0  0  0  0
  -26.5440  -34.7110   22.3370 O   0  0  0  0  0  0  0  0  0  0  0  0
  -24.9640  -33.8590   24.9220 H   0  0  0  0  0  0  0  0  0  0  0  0
  -24.1580  -36.6020   23.0820 C   0  0  0  0  0  1  0  0  0  0  0  0
  -25.4050  -36.1720   23.8710 C   0  0  0  0  0  3  0  0  0  0  0  0
  -27.5470  -37.0370   24.7050 C   0  0  0  0  0  1  0  0  0  0  0  0
  -26.4400  -37.2240   23.7720 N   0  0  0  0  0  0  0  0  0  0  0  0
  -26.0380  -38.1440   23.9370 H   0  0  0  0  0  0  0  0  0  0  0  0
  -30.6590  -17.2570   19.7330 C   0  0  0  0  0  3  0  0  0  0  0  0
  -31.1790  -14.7390   20.2270 C   0  0  0  0  0  0  0  0  0  0  0  0
  -30.9040  -12.4460   19.2920 C   0  0  0  0  0  2  0  0  0  0  0  0
  -29.9830  -12.5410   18.0510 C   0  0  0  0  0  2  0  0  0  0  0  0
  -28.5050  -12.4340   18.4750 C   0  0  0  0  0  2  0  0  0  0  0  0
  -28.1590  -13.3780   19.6570 C   0  0  0  0  0  3  0  0  0  0  0  0
  -29.1940  -13.2680   20.7980 C   0  0  0  0  0  2  0  0  0  0  0  0
  -30.5170  -13.5360   20.2200 N   0  0  0  0  0  0  0  0  0  0  0  0
  -32.3550  -14.8000   19.8560 O   0  0  0  0  0  0  0  0  0  0  0  0
  -30.4260  -15.8920   20.3830 N   0  0  0  0  0  0  0  0  0  0  0  0
  -29.5010  -15.7370   20.7520 H   0  0  0  0  0  0  0  0  0  0  0  0
  -25.8120  -14.1100   20.3840 C   0  0  0  0  0  0  0  0  0  0  0  0
  -24.7000  -13.4030   20.7480 C   0  0  0  0  0  0  0  0  0  0  0  0
  -25.0770  -12.0250   20.6970 C   0  0  0  0  0  0  0  0  0  0  0  0
  -26.7980  -13.1710   20.1370 N   0  0  0  0  0  0  0  0  0  0  0  0
  -26.3640  -11.9100   20.3890 N   0  0  0  0  0  0  0  0  0  0  0  0
  -24.2750  -10.8080   20.8660 C   0  0  0  0  0  0  0  0  0  0  0  0
  -24.6480   -9.7950   21.7760 C   0  0  0  0  0  3  0  0  0  0  0  0
  -23.8460   -8.6440   21.9340 C   0  0  0  0  0  3  0  0  0  0  0  0
  -22.6580   -8.4960   21.1770 C   0  0  0  0  0  0  0  0  0  0  0  0
  -22.3020   -9.4980   20.2560 C   0  0  0  0  0  3  0  0  0  0  0  0
  -23.1040  -10.6400   20.0980 C   0  0  0  0  0  3  0  0  0  0  0  0
  -21.8330   -7.3990   21.2440 O   0  0  0  0  0  0  0  0  0  0  0  0
  -21.7230   -6.6510   22.3880 C   0  0  0  0  0  0  0  0  0  0  0  0
  -21.3140   -7.2200   23.6140 C   0  0  0  0  0  3  0  0  0  0  0  0
  -21.1500   -6.4020   24.7500 C   0  0  0  0  0  3  0  0  0  0  0  0
  -21.3800   -5.0160   24.6580 C   0  0  0  0  0  0  0  0  0  0  0  0
  -21.7800   -4.4470   23.4370 C   0  0  0  0  0  3  0  0  0  0  0  0
  -21.9480   -5.2620   22.3040 C   0  0  0  0  0  0  0  0  0  0  0  0
  -22.3130   -4.7060   21.1240 F   0  0  0  0  0  0  0  0  0  0  0  0
  -21.2120   -4.2280   25.7460 F   0  0  0  0  0  0  0  0  0  0  0  0
  -23.3360  -13.9640   21.0300 C   0  0  0  0  0  0  0  0  0  0  0  0
  -22.5760  -13.3170   21.9080 N   0  0  0  0  0  0  0  0  0  0  0  0
  -22.9580  -15.0130   20.5110 O   0  0  0  0  0  0  0  0  0  0  0  0
  -22.8970  -12.4710   22.3530 H   0  0  0  0  0  0  0  0  0  0  0  0
  -21.6620  -13.6800   22.1420 H   0  0  0  0  0  0  0  0  0  0  0  0
  -26.0620  -15.4680   20.2160 N   0  0  0  0  0  0  0  0  0  0  0  0
  -25.3210  -16.1560   20.2900 H   0  0  0  0  0  0  0  0  0  0  0  0
  -26.8880  -15.8220   19.7550 H   0  0  0  0  0  0  0  0  0  0  0  0
  -30.9500  -16.9460   18.2320 C   0  0  0  0  0  2  0  0  0  0  0  0
  -31.0070  -18.1090   17.2110 C   0  0  0  0  0  2  0  0  0  0  0  0
  -32.2450  -18.9060   17.2840 N   0  0  0  0  0  4  0  0  0  0  0  0
  -32.1930  -19.6640   16.6270 H   0  0  0  0  0  0  0  0  0  0  0  0
  -33.0470  -18.3510   17.0410 H   0  0  0  0  0  0  0  0  0  0  0  0
  -32.3900  -19.2950   18.1980 H   0  0  0  0  0  0  0  0  0  0  0  0
  2  4  2  0
  3  5  1  0
  4  1  1  0
  4  8  1  0
  5  1  2  0
  6  3  2  0
  6  2  1  0
  7  6  1  0
  9 10  1  0
  9  8  1  0
 11 13  1  0
 11 10  1  0
 12 23  2  0
 13 18  1  0
 14 22  1  0
 14 24  1  0
 15 21  1  0
 15 17  1  0
 16 22  1  0
 17 16  1  0
 18 17  2  0
 19 13  2  0
 20 19  1  0
 20 15  2  0
 21 14  1  0
 22 12  1  0
 24 26  2  0
 25 24  1  0
 27 25  1  0
 28 37  2  0
 28 33  1  0
 29 25  1  0
 29 33  1  0
 30 29  1  0
 31 32  1  0
 31 30  1  0
 32 28  1  0
 33 34  2  0
 34 35  1  0
 36 35  2  0
 37 36  1  0
 38 12  1  0
 38 43  1  0
 38 39  1  0
 39 42  1  1
 39 40  1  0
 41 39  1  0
 43 46  1  0
 44 48  1  0
 44 43  1  0
 45 44  2  0
 48 47  1  0
 50 48  1  0
 50 51  1  0
 50 49  1  0
 52 91  1  0
 52  5  1  0
 52 61  1  0
 53 61  1  0
 54 59  1  0
 55 56  1  0
 55 54  1  0
 57 56  1  0
 57 66  1  0
 57 58  1  0
 59 53  1  0
 59 58  1  0
 60 53  2  0
 61 62  1  0
 63 64  2  0
 64 83  1  0
 65 64  1  0
 65 68  1  0
 66 63  1  0
 66 67  1  0
 67 65  2  0
 68 69  1  0
 69 70  2  0
 71 74  1  0
 71 70  1  0
 72 71  2  0
 73 72  1  0
 73 68  2  0
 74 75  1  0
 75 76  1  0
 76 77  2  0
 78 77  1  0
 78 82  1  0
 79 78  2  0
 80 75  2  0
 80 79  1  0
 81 80  1  0
 83 84  1  0
 84 87  1  0
 84 86  1  0
 85 83  2  0
 88 89  1  0
 88 63  1  0
 90 88  1  0
 92 93  1  0
 92 91  1  0
 93 96  1  0
 94 93  1  0
 95 93  1  0
M  ISO  4  10 101  11 101  53 100  61 100
M  END
>  <TORSDO>  (33) 
F 23

>  <SCORE>  (33) 
-12.453

>  <name>  (33) 
33

>  <ligand_id>  (33) 
33

>  <original_smiles>  (33) 
[H]c1c([H])c([H])c2c(c1[H])C([H])([H])C([H])([H])C([H])([H])C2([H])N([H])C(=O)C1([H])N(C(=O)C([H])(N([H])C(=O)C([H])(N([H])C([H])([H])[H])C([H])([H])[H])C(C([H])([H])[H])(C([H])([H])[H])C([H])([H])[H])C([H])([H])c2c([H])c(OC([H])([H])C([H])([H])C([H])([H])c3c([H])c(F)c([H])c(C([H])(N([H])C(=O)N4C([H])([H])C([H])([H])C([H])([H])C([H])(n5nc(-c6c([H])c([H])c(Oc7c([H])c([H])c(F)c([H])c7F)c([H])c6[H])c(C(=O)N([H])[H])c5N([H])[H])C4([H])[H])C([H])([H])C([H])([H])[N+]([H])([H])[H])c3[H])c([H])c([H])c2C1([H])[H]

>  <smiles>  (33) 
[H]c1c([H])c([H])c2c(c1[H])C([H])([H])C([H])([H])C([H])([H])C2([H])N([H])C(=O)C1([H])N(C(=O)C([H])(N([H])C(=O)C([H])(N([H])C([H])([H])[H])C([H])([H])[H])C(C([H])([H])[H])(C([H])([H])[H])C([H])([H])[H])C([H])([H])c2c([H])c(OC([H])([H])C([H])([H])C([H])([H])c3c([H])c(F)c([H])c(C([H])(N([H])C(=O)N4C([H])([H])C([H])([H])C([H])([H])C([H])(n5nc(-c6c([H])c([H])c(Oc7c([H])c([H])c(F)c([H])c7F)c([H])c6[H])c(C(=O)N([H])[H])c5N([H])[H])C4([H])[H])C([H])([H])C([H])([H])[N+]([H])([H])[H])c3[H])c([H])c([H])c2C1([H])[H]

$$$$
34:0:0
     RDKit          3D

 89 97  0  0  1  0  0  0  0  0999 V2000
  -29.8300  -21.0990   19.9440 C   0  0  0  0  0  2  0  0  0  0  0  0
  -30.9890  -18.5050   22.5910 C   0  0  0  0  0  3  0  0  0  0  0  0
  -30.6310  -19.7060   21.9450 C   0  0  0  0  0  3  0  0  0  0  0  0
  -30.8190  -17.2530   21.9630 C   0  0  0  0  0  3  0  0  0  0  0  0
  -29.8950  -18.4050   20.0250 C   0  0  0  0  0  3  0  0  0  0  0  0
  -30.0760  -19.7010   20.6490 C   0  0  0  0  0  0  0  0  0  0  0  0
  -30.2810  -17.1600   20.6640 C   0  0  0  0  0  0  0  0  0  0  0  0
  -30.8160  -14.7030   20.0380 C   0  0  0  0  0  0  0  0  0  0  0  0
  -30.5310  -12.4740   18.9560 C   0  0  0  0  0  2  0  0  0  0  0  0
  -29.5260  -12.5920   17.7910 C   0  0  0  0  0  2  0  0  0  0  0  0
  -28.0790  -12.4320   18.2990 C   0  0  0  0  0  2  0  0  0  0  0  0
  -27.7830  -13.3040   19.5480 C   0  0  0  0  0  3  0  0  0  0  0  0
  -28.8960  -13.1600   20.6050 C   0  0  0  0  0  2  0  0  0  0  0  0
  -30.1650  -13.5000   19.9490 N   0  0  0  0  0  0  0  0  0  0  0  0
  -32.0060  -14.8060   19.7310 O   0  0  0  0  0  0  0  0  0  0  0  0
  -30.0120  -15.8180   20.1360 N   0  0  0  0  0  0  0  0  0  0  0  0
  -29.0320  -15.6080   20.0150 H   0  0  0  0  0  0  0  0  0  0  0  0
  -25.4460  -13.9310   20.4090 C   0  0  0  0  0  0  0  0  0  0  0  0
  -24.3850  -13.1730   20.8180 C   0  0  0  0  0  0  0  0  0  0  0  0
  -24.8200  -11.8130   20.7430 C   0  0  0  0  0  0  0  0  0  0  0  0
  -26.4590  -13.0370   20.1020 N   0  0  0  0  0  0  0  0  0  0  0  0
  -26.0930  -11.7580   20.3680 N   0  0  0  0  0  0  0  0  0  0  0  0
  -24.0820  -10.5620   20.9480 C   0  0  0  0  0  0  0  0  0  0  0  0
  -24.5210   -9.5880   21.8720 C   0  0  0  0  0  3  0  0  0  0  0  0
  -23.7830   -8.4010   22.0630 C   0  0  0  0  0  3  0  0  0  0  0  0
  -22.5930   -8.1780   21.3320 C   0  0  0  0  0  0  0  0  0  0  0  0
  -22.1740   -9.1400   20.3960 C   0  0  0  0  0  3  0  0  0  0  0  0
  -22.9100  -10.3200   20.2020 C   0  0  0  0  0  3  0  0  0  0  0  0
  -21.8260   -7.0430   21.4350 O   0  0  0  0  0  0  0  0  0  0  0  0
  -21.7690   -6.3170   22.5980 C   0  0  0  0  0  0  0  0  0  0  0  0
  -21.3220   -6.8870   23.8100 C   0  0  0  0  0  3  0  0  0  0  0  0
  -21.2120   -6.0870   24.9660 C   0  0  0  0  0  3  0  0  0  0  0  0
  -21.5370   -4.7180   24.9090 C   0  0  0  0  0  0  0  0  0  0  0  0
  -21.9750   -4.1480   23.7010 C   0  0  0  0  0  3  0  0  0  0  0  0
  -22.0880   -4.9460   22.5480 C   0  0  0  0  0  0  0  0  0  0  0  0
  -22.4920   -4.3860   21.3820 F   0  0  0  0  0  0  0  0  0  0  0  0
  -21.4240   -3.9470   26.0160 F   0  0  0  0  0  0  0  0  0  0  0  0
  -23.0120  -13.6700   21.1670 C   0  0  0  0  0  0  0  0  0  0  0  0
  -22.3120  -12.9690   22.0520 N   0  0  0  0  0  0  0  0  0  0  0  0
  -22.5690  -14.7120   20.6870 O   0  0  0  0  0  0  0  0  0  0  0  0
  -22.6860  -12.1260   22.4620 H   0  0  0  0  0  0  0  0  0  0  0  0
  -21.3910  -13.2780   22.3260 H   0  0  0  0  0  0  0  0  0  0  0  0
  -25.6250  -15.3020   20.2490 N   0  0  0  0  0  0  0  0  0  0  0  0
  -24.8710  -15.9630   20.4100 H   0  0  0  0  0  0  0  0  0  0  0  0
  -26.4530  -15.7390   19.8670 H   0  0  0  0  0  0  0  0  0  0  0  0
  -28.9790  -22.2680   20.6520 C   0  0  0  0  0  2  0  0  0  0  0  0
  -29.3590  -23.8210   20.4080 C   0  0  0  0  0  3  0  0  0  0  0  0
  -28.1980  -24.9220   20.4890 C   0  0  0  0  0  3  0  0  0  0  0  0
  -28.4680  -26.3950   20.4340 O   0  0  0  0  0  0  0  0  0  0  0  0
  -24.6710  -31.9050   23.2510 C   0  0  0  0  0  0  0  0  0  0  0  0
  -27.3590  -27.2670   20.3510 C   0  0  0  0  0  0  0  0  0  0  0  0
  -23.5090  -30.4660   21.6190 C   0  0  0  0  0  3  0  0  0  0  0  0
  -24.9960  -28.8940   20.2580 C   0  0  0  0  0  0  0  0  0  0  0  0
  -26.0540  -30.7840   21.4860 C   0  0  0  0  0  2  0  0  0  0  0  0
  -26.1540  -29.3920   20.8680 C   0  0  0  0  0  0  0  0  0  0  0  0
  -27.3410  -28.5920   20.9030 C   0  0  0  0  0  3  0  0  0  0  0  0
  -26.1720  -26.8370   19.7110 C   0  0  0  0  0  3  0  0  0  0  0  0
  -25.0090  -27.6230   19.6740 C   0  0  0  0  0  3  0  0  0  0  0  0
  -23.7560  -29.7650   20.2590 C   0  0  0  0  0  2  0  0  0  0  0  0
  -24.7620  -31.0690   22.1750 N   0  0  0  0  0  0  0  0  0  0  0  0
  -23.5760  -32.1880   23.7590 O   0  0  0  0  0  0  0  0  0  0  0  0
  -22.8310  -29.4660   22.5880 C   0  0  0  0  0  0  0  0  0  0  0  0
  -21.5050  -29.2890   22.4490 N   0  0  0  0  0  0  0  0  0  0  0  0
  -23.4980  -28.8520   23.4250 O   0  0  0  0  0  0  0  0  0  0  0  0
  -21.0250  -29.8330   21.7450 H   0  0  0  0  0  0  0  0  0  0  0  0
  -18.1240  -28.1100   22.9340 C   0  0  0  0  0  0  0  0  0  0  0  0
  -20.6760  -28.3710   23.2310 C   0  0  0  0  0  3  0  0  0  0  0  0
  -20.7800  -26.9260   22.6850 C   0  0  0  0  0  2  0  0  0  0  0  0
  -19.6950  -26.5950   21.6570 C   0  0  0  0  0  2  0  0  0  0  0  0
  -18.3100  -26.7460   22.2890 C   0  0  0  0  0  2  0  0  0  0  0  0
  -19.2370  -28.8800   23.3620 C   0  0  0  0  0  0  0  0  0  0  0  0
  -19.0120  -30.1560   23.9230 C   0  0  0  0  0  3  0  0  0  0  0  0
  -17.7050  -30.6610   24.0650 C   0  0  0  0  0  3  0  0  0  0  0  0
  -16.6050  -29.8850   23.6580 C   0  0  0  0  0  3  0  0  0  0  0  0
  -16.8160  -28.6130   23.0970 C   0  0  0  0  0  3  0  0  0  0  0  0
  -25.9380  -32.5590   23.8820 C   0  0  0  0  0  3  0  0  0  0  0  0
  -26.4440  -31.8100   25.1760 C   0  0  1  0  0  0  0  0  0  0  0  0
  -25.3390  -31.5700   26.2290 C   0  0  0  0  0  1  0  0  0  0  0  0
  -27.0510  -30.4350   24.8140 C   0  0  0  0  0  1  0  0  0  0  0  0
  -27.5740  -32.6270   25.8460 C   0  0  0  0  0  1  0  0  0  0  0  0
  -25.6080  -33.9570   24.1900 N   0  0  0  0  0  0  0  0  0  0  0  0
  -25.9470  -35.0070   23.4280 C   0  0  0  0  0  0  0  0  0  0  0  0
  -26.6390  -34.8980   22.4120 O   0  0  0  0  0  0  0  0  0  0  0  0
  -24.9900  -34.1150   24.9730 H   0  0  0  0  0  0  0  0  0  0  0  0
  -24.2160  -36.7850   23.0190 C   0  0  0  0  0  1  0  0  0  0  0  0
  -25.4390  -36.3950   23.8630 C   0  0  0  0  0  3  0  0  0  0  0  0
  -27.5440  -37.3040   24.7410 C   0  0  0  0  0  1  0  0  0  0  0  0
  -26.4670  -37.4540   23.7670 N   0  0  0  0  0  0  0  0  0  0  0  0
  -26.0510  -38.3720   23.8960 H   0  0  0  0  0  0  0  0  0  0  0  0
  1  6  1  0
  1 46  1  0
  3  2  2  0
  4  2  1  0
  5  6  2  0
  5  7  1  0
  6  3  1  0
  7  4  2  0
  8 16  1  0
  9 14  1  0
 10 11  1  0
 10  9  1  0
 12 11  1  0
 12 21  1  0
 12 13  1  0
 14  8  1  0
 14 13  1  0
 15  8  2  0
 16  7  1  0
 17 16  1  0
 18 19  2  0
 19 38  1  0
 20 19  1  0
 20 23  1  0
 21 22  1  0
 21 18  1  0
 22 20  2  0
 23 24  1  0
 24 25  2  0
 26 29  1  0
 26 25  1  0
 27 26  2  0
 28 27  1  0
 28 23  2  0
 29 30  1  0
 30 31  1  0
 31 32  2  0
 33 32  1  0
 33 37  1  0
 34 33  2  0
 35 30  2  0
 35 34  1  0
 36 35  1  0
 38 39  1  0
 39 42  1  0
 39 41  1  0
 40 38  2  0
 43 18  1  0
 43 44  1  0
 45 43  1  0
 47 48  2  0
 47 46  1  0
 49 48  1  0
 50 61  2  0
 51 49  1  0
 51 56  1  0
 52 60  1  0
 52 62  1  0
 53 59  1  0
 53 55  1  0
 54 60  1  0
 55 56  2  0
 55 54  1  0
 57 51  2  0
 58 57  1  0
 58 53  2  0
 59 52  1  0
 60 50  1  0
 62 64  2  0
 63 62  1  0
 65 63  1  0
 66 75  2  0
 66 71  1  0
 67 63  1  0
 67 71  1  0
 68 67  1  0
 69 70  1  0
 69 68  1  0
 70 66  1  0
 71 72  2  0
 72 73  1  0
 74 73  2  0
 75 74  1  0
 76 50  1  0
 76 81  1  0
 76 77  1  0
 77 80  1  1
 77 78  1  0
 79 77  1  0
 81 84  1  0
 82 86  1  0
 82 81  1  0
 83 82  2  0
 86 85  1  0
 88 86  1  0
 88 89  1  0
 88 87  1  0
M  ISO  4   8 100  16 100  48 101  49 101
M  END
>  <TORSDO>  (34) 
F 20

>  <SCORE>  (34) 
-13.521

>  <name>  (34) 
34

>  <ligand_id>  (34) 
34

>  <original_smiles>  (34) 
[H]c1c([H])c(N([H])C(=O)N2C([H])([H])C([H])([H])C([H])([H])C([H])(n3nc(-c4c([H])c([H])c(Oc5c([H])c([H])c(F)c([H])c5F)c([H])c4[H])c(C(=O)N([H])[H])c3N([H])[H])C2([H])[H])c([H])c(C([H])([H])C([H])([H])C([H])([H])C([H])([H])Oc2c([H])c([H])c3c(c2[H])C([H])([H])N(C(=O)C([H])(N([H])C(=O)C([H])(N([H])C([H])([H])[H])C([H])([H])[H])C(C([H])([H])[H])(C([H])([H])[H])C([H])([H])[H])C([H])(C(=O)N([H])C2([H])c4c([H])c([H])c([H])c([H])c4C([H])([H])C([H])([H])C2([H])[H])C3([H])[H])c1[H]

>  <smiles>  (34) 
[H]c1c([H])c(N([H])C(=O)N2C([H])([H])C([H])([H])C([H])([H])C([H])(n3nc(-c4c([H])c([H])c(Oc5c([H])c([H])c(F)c([H])c5F)c([H])c4[H])c(C(=O)N([H])[H])c3N([H])[H])C2([H])[H])c([H])c(C([H])([H])C([H])([H])C([H])([H])C([H])([H])Oc2c([H])c([H])c3c(c2[H])C([H])([H])N(C(=O)C([H])(N([H])C(=O)C([H])(N([H])C([H])([H])[H])C([H])([H])[H])C(C([H])([H])[H])(C([H])([H])[H])C([H])([H])[H])C([H])(C(=O)N([H])C2([H])c4c([H])c([H])c([H])c([H])c4C([H])([H])C([H])([H])C2([H])[H])C3([H])[H])c1[H]

$$$$
35:0:0
     RDKit          3D

 94103  0  0  1  0  0  0  0  0999 V2000
  -30.9610  -21.4620   17.7270 C   0  0  0  0  0  2  0  0  0  0  0  0
  -31.4970  -20.2890   18.5290 C   0  0  0  0  0  2  0  0  0  0  0  0
  -29.5620  -21.6140   18.3160 C   0  0  0  0  0  2  0  0  0  0  0  0
  -30.9230  -20.5170   19.9450 C   0  0  0  0  0  3  0  0  0  0  0  0
  -29.7080  -21.4110   19.7810 N   0  0  1  0  0  4  0  0  0  0  0  0
  -28.9010  -20.8750   20.0660 H   0  0  0  0  0  0  0  0  0  0  0  0
  -30.7720  -18.2800   23.0690 C   0  0  0  0  0  3  0  0  0  0  0  0
  -30.8210  -19.3890   22.2060 C   0  0  0  0  0  3  0  0  0  0  0  0
  -30.6760  -16.9770   22.5510 C   0  0  0  0  0  3  0  0  0  0  0  0
  -30.6840  -17.8860   20.2870 C   0  0  0  0  0  3  0  0  0  0  0  0
  -30.7730  -19.2260   20.8040 C   0  0  0  0  0  0  0  0  0  0  0  0
  -30.6450  -16.7550   21.1600 C   0  0  0  0  0  0  0  0  0  0  0  0
  -31.1420  -14.4000   20.2840 C   0  0  0  0  0  0  0  0  0  0  0  0
  -30.7960  -12.2350   19.1160 C   0  0  0  0  0  2  0  0  0  0  0  0
  -29.8350  -12.4740   17.9300 C   0  0  0  0  0  2  0  0  0  0  0  0
  -28.3600  -12.4010   18.3810 C   0  0  0  0  0  2  0  0  0  0  0  0
  -28.0810  -13.2410   19.6560 C   0  0  0  0  0  3  0  0  0  0  0  0
  -29.1390  -12.9390   20.7410 C   0  0  0  0  0  2  0  0  0  0  0  0
  -30.4660  -13.2190   20.1600 N   0  0  0  0  0  0  0  0  0  0  0  0
  -32.2850  -14.5650   19.8470 O   0  0  0  0  0  0  0  0  0  0  0  0
  -30.3630  -15.4100   20.7450 N   0  0  0  0  0  0  0  0  0  0  0  0
  -29.4630  -15.0680   21.0450 H   0  0  0  0  0  0  0  0  0  0  0  0
  -25.7330  -13.9890   20.3990 C   0  0  0  0  0  0  0  0  0  0  0  0
  -24.6250  -13.2800   20.7770 C   0  0  0  0  0  0  0  0  0  0  0  0
  -25.0050  -11.9030   20.7330 C   0  0  0  0  0  0  0  0  0  0  0  0
  -26.7210  -13.0480   20.1490 N   0  0  0  0  0  0  0  0  0  0  0  0
  -26.2860  -11.7880   20.4080 N   0  0  0  0  0  0  0  0  0  0  0  0
  -24.2080  -10.6860   20.9250 C   0  0  0  0  0  0  0  0  0  0  0  0
  -24.5900   -9.6930   21.8540 C   0  0  0  0  0  3  0  0  0  0  0  0
  -23.7990   -8.5380   22.0340 C   0  0  0  0  0  3  0  0  0  0  0  0
  -22.6100   -8.3690   21.2830 C   0  0  0  0  0  0  0  0  0  0  0  0
  -22.2480   -9.3490   20.3430 C   0  0  0  0  0  3  0  0  0  0  0  0
  -23.0390  -10.4950   20.1620 C   0  0  0  0  0  3  0  0  0  0  0  0
  -21.7930   -7.2690   21.3710 O   0  0  0  0  0  0  0  0  0  0  0  0
  -21.6890   -6.5390   22.5290 C   0  0  0  0  0  0  0  0  0  0  0  0
  -21.3030   -7.1330   23.7510 C   0  0  0  0  0  3  0  0  0  0  0  0
  -21.1420   -6.3350   24.9020 C   0  0  0  0  0  3  0  0  0  0  0  0
  -21.3560   -4.9460   24.8310 C   0  0  0  0  0  0  0  0  0  0  0  0
  -21.7370   -4.3530   23.6140 C   0  0  0  0  0  3  0  0  0  0  0  0
  -21.9000   -5.1480   22.4660 C   0  0  0  0  0  0  0  0  0  0  0  0
  -22.2460   -4.5680   21.2910 F   0  0  0  0  0  0  0  0  0  0  0  0
  -21.1940   -4.1780   25.9330 F   0  0  0  0  0  0  0  0  0  0  0  0
  -23.2620  -13.8380   21.0700 C   0  0  0  0  0  0  0  0  0  0  0  0
  -22.5100  -13.1860   21.9490 N   0  0  0  0  0  0  0  0  0  0  0  0
  -22.8750  -14.8850   20.5540 O   0  0  0  0  0  0  0  0  0  0  0  0
  -22.8370  -12.3380   22.3900 H   0  0  0  0  0  0  0  0  0  0  0  0
  -21.5940  -13.5400   22.1870 H   0  0  0  0  0  0  0  0  0  0  0  0
  -25.9790  -15.3490   20.2260 N   0  0  0  0  0  0  0  0  0  0  0  0
  -25.2540  -16.0470   20.3440 H   0  0  0  0  0  0  0  0  0  0  0  0
  -26.8440  -15.7350   19.8700 H   0  0  0  0  0  0  0  0  0  0  0  0
  -29.7000  -22.6860   20.6110 C   0  0  0  0  0  3  0  0  0  0  0  0
  -28.9910  -23.9700   20.0160 C   0  0  0  0  0  3  0  0  0  0  0  0
  -28.7620  -25.1700   20.9970 C   0  0  0  0  0  2  0  0  0  0  0  0
  -28.7600  -26.4880   20.3860 O   0  0  0  0  0  0  0  0  0  0  0  0
  -24.7490  -31.6790   23.2690 C   0  0  0  0  0  0  0  0  0  0  0  0
  -27.5750  -27.2060   20.3700 C   0  0  0  0  0  0  0  0  0  0  0  0
  -23.6290  -30.2390   21.5990 C   0  0  0  0  0  3  0  0  0  0  0  0
  -25.1600  -28.6960   20.2570 C   0  0  0  0  0  0  0  0  0  0  0  0
  -26.1560  -30.6270   21.4940 C   0  0  0  0  0  2  0  0  0  0  0  0
  -26.2890  -29.2440   20.8790 C   0  0  0  0  0  0  0  0  0  0  0  0
  -27.5020  -28.5110   20.9220 C   0  0  0  0  0  3  0  0  0  0  0  0
  -26.4280  -26.6740   19.7470 C   0  0  0  0  0  3  0  0  0  0  0  0
  -25.2260  -27.4110   19.6850 C   0  0  0  0  0  3  0  0  0  0  0  0
  -23.9030  -29.5400   20.2390 C   0  0  0  0  0  2  0  0  0  0  0  0
  -24.8610  -30.8650   22.1800 N   0  0  0  0  0  0  0  0  0  0  0  0
  -23.6430  -31.9430   23.7630 O   0  0  0  0  0  0  0  0  0  0  0  0
  -22.9500  -29.2250   22.5480 C   0  0  0  0  0  0  0  0  0  0  0  0
  -21.6340  -29.0240   22.3700 N   0  0  0  0  0  0  0  0  0  0  0  0
  -23.6080  -28.6190   23.3970 O   0  0  0  0  0  0  0  0  0  0  0  0
  -21.1650  -29.5650   21.6580 H   0  0  0  0  0  0  0  0  0  0  0  0
  -18.2600  -27.7810   22.7380 C   0  0  0  0  0  0  0  0  0  0  0  0
  -20.7980  -28.0840   23.1190 C   0  0  0  0  0  3  0  0  0  0  0  0
  -20.9500  -26.6480   22.5690 C   0  0  0  0  0  2  0  0  0  0  0  0
  -19.9000  -26.2930   21.5120 C   0  0  0  0  0  2  0  0  0  0  0  0
  -18.4880  -26.4240   22.0910 C   0  0  0  0  0  2  0  0  0  0  0  0
  -19.3460  -28.5670   23.2060 C   0  0  0  0  0  0  0  0  0  0  0  0
  -19.0820  -29.8350   23.7670 C   0  0  0  0  0  3  0  0  0  0  0  0
  -17.7630  -30.3180   23.8660 C   0  0  0  0  0  3  0  0  0  0  0  0
  -16.6910  -29.5280   23.4170 C   0  0  0  0  0  3  0  0  0  0  0  0
  -16.9400  -28.2620   22.8580 C   0  0  0  0  0  3  0  0  0  0  0  0
  -25.9990  -32.3350   23.9320 C   0  0  0  0  0  3  0  0  0  0  0  0
  -26.4790  -31.5840   25.2340 C   0  0  1  0  0  0  0  0  0  0  0  0
  -25.3510  -31.3430   26.2650 C   0  0  0  0  0  1  0  0  0  0  0  0
  -27.0930  -30.2110   24.8760 C   0  0  0  0  0  1  0  0  0  0  0  0
  -27.5950  -32.4000   25.9300 C   0  0  0  0  0  1  0  0  0  0  0  0
  -25.6590  -33.7320   24.2340 N   0  0  0  0  0  0  0  0  0  0  0  0
  -26.0000  -34.7810   23.4730 C   0  0  0  0  0  0  0  0  0  0  0  0
  -26.7040  -34.6750   22.4650 O   0  0  0  0  0  0  0  0  0  0  0  0
  -25.0340  -33.8870   25.0130 H   0  0  0  0  0  0  0  0  0  0  0  0
  -24.2490  -36.5350   23.0510 C   0  0  0  0  0  1  0  0  0  0  0  0
  -25.4770  -36.1670   23.8970 C   0  0  0  0  0  3  0  0  0  0  0  0
  -27.5780  -37.1000   24.7590 C   0  0  0  0  0  1  0  0  0  0  0  0
  -26.4930  -37.2370   23.7920 N   0  0  0  0  0  0  0  0  0  0  0  0
  -26.0680  -38.1500   23.9210 H   0  0  0  0  0  0  0  0  0  0  0  0
  1  3  1  0
  1  2  1  0
  2  4  1  0
  3  5  1  0
  4 11  1  0
  5  4  1  0
  5  6  1  1
  5 51  1  0
  8  7  2  0
  9  7  1  0
 10 11  2  0
 10 12  1  0
 11  8  1  0
 12  9  2  0
 13 21  1  0
 14 19  1  0
 15 16  1  0
 15 14  1  0
 17 16  1  0
 17 26  1  0
 17 18  1  0
 19 13  1  0
 19 18  1  0
 20 13  2  0
 21 22  1  0
 21 12  1  0
 23 24  2  0
 24 43  1  0
 25 24  1  0
 25 28  1  0
 26 23  1  0
 26 27  1  0
 27 25  2  0
 28 29  1  0
 29 30  2  0
 31 34  1  0
 31 30  1  0
 32 31  2  0
 33 32  1  0
 33 28  2  0
 34 35  1  0
 35 36  1  0
 36 37  2  0
 38 37  1  0
 38 42  1  0
 39 38  2  0
 40 35  2  0
 40 39  1  0
 41 40  1  0
 43 44  1  0
 44 47  1  0
 44 46  1  0
 45 43  2  0
 48 49  1  0
 48 23  1  0
 50 48  1  0
 52 51  2  0
 52 53  1  0
 54 53  1  0
 55 66  2  0
 56 54  1  0
 56 61  1  0
 57 65  1  0
 57 67  1  0
 58 60  1  0
 59 65  1  0
 60 61  2  0
 60 59  1  0
 62 56  2  0
 63 62  1  0
 63 58  2  0
 64 58  1  0
 64 57  1  0
 65 55  1  0
 67 69  2  0
 68 67  1  0
 70 68  1  0
 71 80  2  0
 71 76  1  0
 72 68  1  0
 72 76  1  0
 73 72  1  0
 74 75  1  0
 74 73  1  0
 75 71  1  0
 76 77  2  0
 77 78  1  0
 79 78  2  0
 80 79  1  0
 81 55  1  0
 81 86  1  0
 81 82  1  0
 82 85  1  1
 82 83  1  0
 84 82  1  0
 86 89  1  0
 87 91  1  0
 87 86  1  0
 88 87  2  0
 91 90  1  0
 93 91  1  0
 93 94  1  0
 93 92  1  0
M  ISO  4  13 100  21 100  53 101  54 101
M  END
>  <TORSDO>  (35) 
F 20

>  <SCORE>  (35) 
-13.059

>  <name>  (35) 
35

>  <ligand_id>  (35) 
35

>  <original_smiles>  (35) 
[H]c1c([H])c([H])c2c(c1[H])C([H])([H])C([H])([H])C([H])([H])C2([H])N([H])C(=O)C1([H])N(C(=O)C([H])(N([H])C(=O)C([H])(N([H])C([H])([H])[H])C([H])([H])[H])C(C([H])([H])[H])(C([H])([H])[H])C([H])([H])[H])C([H])([H])c2c([H])c(OC([H])([H])C([H])([H])C([H])([H])[N+]3([H])C([H])([H])C([H])([H])C([H])([H])C3([H])c3c([H])c([H])c([H])c(N([H])C(=O)N4C([H])([H])C([H])([H])C([H])([H])C([H])(n5nc(-c6c([H])c([H])c(Oc7c([H])c([H])c(F)c([H])c7F)c([H])c6[H])c(C(=O)N([H])[H])c5N([H])[H])C4([H])[H])c3[H])c([H])c([H])c2C1([H])[H]

>  <smiles>  (35) 
[H]c1c([H])c([H])c2c(c1[H])C([H])([H])C([H])([H])C([H])([H])C2([H])N([H])C(=O)C1([H])N(C(=O)C([H])(N([H])C(=O)C([H])(N([H])C([H])([H])[H])C([H])([H])[H])C(C([H])([H])[H])(C([H])([H])[H])C([H])([H])[H])C([H])([H])c2c([H])c(OC([H])([H])C([H])([H])C([H])([H])[N+]3([H])C([H])([H])C([H])([H])C([H])([H])C3([H])c3c([H])c([H])c([H])c(N([H])C(=O)N4C([H])([H])C([H])([H])C([H])([H])C([H])(n5nc(-c6c([H])c([H])c(Oc7c([H])c([H])c(F)c([H])c7F)c([H])c6[H])c(C(=O)N([H])[H])c5N([H])[H])C4([H])[H])c3[H])c([H])c([H])c2C1([H])[H]

$$$$
36:0:0
     RDKit          3D

 95103  0  0  1  0  0  0  0  0999 V2000
  -31.5690  -22.4410   21.1740 N   0  0  0  0  0  4  0  0  0  0  0  0
  -31.4040  -22.3330   20.1870 H   0  0  0  0  0  0  0  0  0  0  0  0
  -32.4080  -22.9980   21.2810 H   0  0  0  0  0  0  0  0  0  0  0  0
  -33.4090  -20.9080   21.4040 C   0  0  0  0  0  0  0  0  0  0  0  0
  -33.9240  -19.4930   21.6510 C   0  0  0  0  0  2  0  0  0  0  0  0
  -32.9180  -18.4280   21.1680 C   0  0  0  0  0  2  0  0  0  0  0  0
  -31.0700  -19.9670   21.2490 C   0  0  0  0  0  2  0  0  0  0  0  0
  -31.9410  -21.1390   21.7660 C   0  0  0  0  0  3  0  0  0  0  0  0
  -31.5710  -18.6630   21.7150 N   0  0  0  0  0  0  0  0  0  0  0  0
  -34.1590  -21.7940   20.9770 O   0  0  0  0  0  0  0  0  0  0  0  0
  -30.6290  -17.6160   21.3030 C   0  0  0  0  0  2  0  0  0  0  0  0
  -30.9480  -16.2570   21.9620 C   0  0  0  0  0  2  0  0  0  0  0  0
  -30.4870  -14.5270   20.2210 C   0  0  0  0  0  0  0  0  0  0  0  0
  -30.0770  -12.4990   18.8750 C   0  0  0  0  0  2  0  0  0  0  0  0
  -29.0090  -12.7030   17.7870 C   0  0  0  0  0  2  0  0  0  0  0  0
  -27.5970  -12.4680   18.3580 C   0  0  0  0  0  2  0  0  0  0  0  0
  -27.3510  -13.2530   19.6710 C   0  0  0  0  0  3  0  0  0  0  0  0
  -28.5090  -13.0230   20.6650 C   0  0  0  0  0  2  0  0  0  0  0  0
  -29.7760  -13.3900   20.0040 N   0  0  0  0  0  0  0  0  0  0  0  0
  -31.3970  -14.9130   19.4830 O   0  0  0  0  0  0  0  0  0  0  0  0
  -30.1960  -15.1570   21.3650 N   0  0  0  0  0  0  0  0  0  0  0  0
  -29.4410  -14.7680   21.9130 H   0  0  0  0  0  0  0  0  0  0  0  0
  -25.0120  -13.7400   20.6390 C   0  0  0  0  0  0  0  0  0  0  0  0
  -24.0130  -12.9100   21.0730 C   0  0  0  0  0  0  0  0  0  0  0  0
  -24.5150  -11.5810   20.9290 C   0  0  0  0  0  0  0  0  0  0  0  0
  -26.0580  -12.9110   20.2640 N   0  0  0  0  0  0  0  0  0  0  0  0
  -25.7670  -11.6040   20.4940 N   0  0  0  0  0  0  0  0  0  0  0  0
  -23.8560  -10.2830   21.1280 C   0  0  0  0  0  0  0  0  0  0  0  0
  -24.3370   -9.3480   22.0730 C   0  0  0  0  0  3  0  0  0  0  0  0
  -23.6770   -8.1140   22.2580 C   0  0  0  0  0  3  0  0  0  0  0  0
  -22.5230   -7.8060   21.4990 C   0  0  0  0  0  0  0  0  0  0  0  0
  -22.0620   -8.7310   20.5450 C   0  0  0  0  0  3  0  0  0  0  0  0
  -22.7230   -9.9560   20.3590 C   0  0  0  0  0  3  0  0  0  0  0  0
  -21.8320   -6.6230   21.5930 O   0  0  0  0  0  0  0  0  0  0  0  0
  -21.7660   -5.9190   22.7690 C   0  0  0  0  0  0  0  0  0  0  0  0
  -21.1990   -6.4700   23.9370 C   0  0  0  0  0  3  0  0  0  0  0  0
  -21.0890   -5.6880   25.1050 C   0  0  0  0  0  3  0  0  0  0  0  0
  -21.5360   -4.3530   25.1030 C   0  0  0  0  0  0  0  0  0  0  0  0
  -22.0980   -3.8000   23.9380 C   0  0  0  0  0  3  0  0  0  0  0  0
  -22.2110   -4.5810   22.7740 C   0  0  0  0  0  0  0  0  0  0  0  0
  -22.7320   -4.0360   21.6480 F   0  0  0  0  0  0  0  0  0  0  0  0
  -21.4260   -3.5990   26.2210 F   0  0  0  0  0  0  0  0  0  0  0  0
  -22.6350  -13.3170   21.5070 C   0  0  0  0  0  0  0  0  0  0  0  0
  -22.0390  -12.5760   22.4350 N   0  0  0  0  0  0  0  0  0  0  0  0
  -22.0950  -14.3270   21.0560 O   0  0  0  0  0  0  0  0  0  0  0  0
  -22.4900  -11.7580   22.8190 H   0  0  0  0  0  0  0  0  0  0  0  0
  -21.1170  -12.8270   22.7640 H   0  0  0  0  0  0  0  0  0  0  0  0
  -25.1130  -15.1220   20.5130 N   0  0  0  0  0  0  0  0  0  0  0  0
  -24.3440  -15.7470   20.7280 H   0  0  0  0  0  0  0  0  0  0  0  0
  -25.9220  -15.6040   20.1390 H   0  0  0  0  0  0  0  0  0  0  0  0
  -30.4370  -23.1180   21.8490 C   0  0  0  0  0  2  0  0  0  0  0  0
  -30.0380  -24.4570   21.1890 C   0  0  0  0  0  2  0  0  0  0  0  0
  -29.1120  -25.2770   22.1090 C   0  0  0  0  0  2  0  0  0  0  0  0
  -28.8460  -26.7200   21.6540 C   0  0  0  0  0  2  0  0  0  0  0  0
  -28.0510  -26.7360   20.4620 O   0  0  0  0  0  0  0  0  0  0  0  0
  -24.5560  -32.1570   23.4680 C   0  0  0  0  0  0  0  0  0  0  0  0
  -26.9450  -27.5570   20.4680 C   0  0  0  0  0  0  0  0  0  0  0  0
  -23.2470  -30.7800   21.8780 C   0  0  0  0  0  3  0  0  0  0  0  0
  -24.6030  -29.1460   20.4600 C   0  0  0  0  0  0  0  0  0  0  0  0
  -25.7750  -31.0310   21.6170 C   0  0  0  0  0  2  0  0  0  0  0  0
  -25.7880  -29.6450   21.0120 C   0  0  0  0  0  0  0  0  0  0  0  0
  -26.9600  -28.8660   21.0060 C   0  0  0  0  0  3  0  0  0  0  0  0
  -25.7500  -27.0740   19.8940 C   0  0  0  0  0  3  0  0  0  0  0  0
  -24.5780  -27.8570   19.8930 C   0  0  0  0  0  3  0  0  0  0  0  0
  -23.3940  -30.0540   20.5110 C   0  0  0  0  0  2  0  0  0  0  0  0
  -24.5460  -31.3380   22.3800 N   0  0  0  0  0  0  0  0  0  0  0  0
  -23.5010  -32.4920   24.0250 O   0  0  0  0  0  0  0  0  0  0  0  0
  -22.5700  -29.8140   22.8760 C   0  0  0  0  0  0  0  0  0  0  0  0
  -21.2520  -29.6170   22.7130 N   0  0  0  0  0  0  0  0  0  0  0  0
  -23.2290  -29.2410   23.7490 O   0  0  0  0  0  0  0  0  0  0  0  0
  -20.7870  -30.1290   21.9770 H   0  0  0  0  0  0  0  0  0  0  0  0
  -17.8790  -28.3830   23.1010 C   0  0  0  0  0  0  0  0  0  0  0  0
  -20.4110  -28.7230   23.5060 C   0  0  0  0  0  3  0  0  0  0  0  0
  -20.5760  -27.2550   23.0520 C   0  0  0  0  0  2  0  0  0  0  0  0
  -19.5470  -26.8290   22.0000 C   0  0  0  0  0  2  0  0  0  0  0  0
  -18.1230  -26.9910   22.5450 C   0  0  0  0  0  2  0  0  0  0  0  0
  -18.9550  -29.2030   23.5350 C   0  0  0  0  0  0  0  0  0  0  0  0
  -18.6760  -30.5050   24.0070 C   0  0  0  0  0  3  0  0  0  0  0  0
  -17.3550  -30.9890   24.0490 C   0  0  0  0  0  3  0  0  0  0  0  0
  -16.2940  -30.1680   23.6320 C   0  0  0  0  0  3  0  0  0  0  0  0
  -16.5550  -28.8670   23.1670 C   0  0  0  0  0  3  0  0  0  0  0  0
  -25.8850  -32.7340   24.0500 C   0  0  0  0  0  3  0  0  0  0  0  0
  -25.6610  -34.1540   24.3440 N   0  0  0  0  0  0  0  0  0  0  0  0
  -26.0680  -35.1640   23.5630 C   0  0  0  0  0  0  0  0  0  0  0  0
  -26.7440  -34.9950   22.5450 O   0  0  0  0  0  0  0  0  0  0  0  0
  -25.0700  -34.3640   25.1360 H   0  0  0  0  0  0  0  0  0  0  0  0
  -24.4790  -37.0590   23.1120 C   0  0  0  0  0  1  0  0  0  0  0  0
  -25.6600  -36.5920   23.9780 C   0  0  0  0  0  3  0  0  0  0  0  0
  -27.8130  -37.3520   24.8790 C   0  0  0  0  0  1  0  0  0  0  0  0
  -26.7650  -37.5690   23.8860 N   0  0  0  0  0  0  0  0  0  0  0  0
  -26.4170  -38.5180   23.9970 H   0  0  0  0  0  0  0  0  0  0  0  0
  -26.3850  -31.9690   25.3360 C   0  0  1  0  0  0  0  0  0  0  0  0
  -25.2910  -31.7880   26.4140 C   0  0  0  0  0  1  0  0  0  0  0  0
  -26.9200  -30.5680   24.9590 C   0  0  0  0  0  1  0  0  0  0  0  0
  -27.5670  -32.7350   25.9750 C   0  0  0  0  0  1  0  0  0  0  0  0
  1  3  1  0
  1 51  1  0
  2  1  1  0
  4  5  1  0
  4  8  1  0
  6  5  1  0
  6  9  1  0
  7  9  1  0
  7  8  1  0
  8  1  1  0
 10  4  2  0
 11  9  1  0
 11 12  1  0
 13 21  1  0
 14 19  1  0
 15 16  1  0
 15 14  1  0
 17 16  1  0
 17 26  1  0
 17 18  1  0
 19 13  1  0
 19 18  1  0
 20 13  2  0
 21 22  1  0
 21 12  1  0
 23 24  2  0
 24 43  1  0
 25 24  1  0
 25 28  1  0
 26 27  1  0
 26 23  1  0
 27 25  2  0
 28 29  1  0
 29 30  2  0
 31 34  1  0
 31 30  1  0
 32 31  2  0
 33 32  1  0
 33 28  2  0
 34 35  1  0
 35 40  2  0
 35 36  1  0
 36 37  2  0
 38 37  1  0
 38 42  1  0
 39 38  2  0
 40 39  1  0
 41 40  1  0
 43 44  1  0
 44 47  1  0
 44 46  1  0
 45 43  2  0
 48 23  1  0
 48 49  1  0
 50 48  1  0
 52 51  1  0
 52 53  1  0
 54 53  1  0
 55 57  1  0
 55 54  1  0
 56 67  2  0
 57 62  1  0
 58 66  1  0
 58 68  1  0
 59 65  1  0
 59 61  1  0
 60 66  1  0
 61 60  1  0
 62 61  2  0
 63 57  2  0
 64 63  1  0
 64 59  2  0
 65 58  1  0
 66 56  1  0
 68 70  2  0
 69 68  1  0
 71 69  1  0
 72 81  2  0
 72 77  1  0
 73 69  1  0
 73 77  1  0
 74 73  1  0
 75 76  1  0
 75 74  1  0
 76 72  1  0
 77 78  2  0
 78 79  1  0
 80 79  2  0
 81 80  1  0
 82 56  1  0
 82 83  1  0
 82 92  1  0
 83 86  1  0
 84 88  1  0
 84 83  1  0
 85 84  2  0
 88 87  1  0
 90 88  1  0
 90 91  1  0
 90 89  1  0
 92 95  1  1
 92 93  1  0
 94 92  1  0
M  ISO  4  13 100  21 100  54 101  55 101
M  END
>  <TORSDO>  (36) 
F 23

>  <SCORE>  (36) 
-12.014

>  <name>  (36) 
36

>  <ligand_id>  (36) 
36

>  <original_smiles>  (36) 
[H]c1c([H])c([H])c2c(c1[H])C([H])([H])C([H])([H])C([H])([H])C2([H])N([H])C(=O)C1([H])N(C(=O)C([H])(N([H])C(=O)C([H])(N([H])C([H])([H])[H])C([H])([H])[H])C(C([H])([H])[H])(C([H])([H])[H])C([H])([H])[H])C([H])([H])c2c([H])c(OC([H])([H])C([H])([H])C([H])([H])C([H])([H])[N+]([H])([H])C3([H])C(=O)C([H])([H])C([H])([H])N(C([H])([H])C([H])([H])N([H])C(=O)N4C([H])([H])C([H])([H])C([H])([H])C([H])(n5nc(-c6c([H])c([H])c(Oc7c([H])c([H])c(F)c([H])c7F)c([H])c6[H])c(C(=O)N([H])[H])c5N([H])[H])C4([H])[H])C3([H])[H])c([H])c([H])c2C1([H])[H]

>  <smiles>  (36) 
[H]c1c([H])c([H])c2c(c1[H])C([H])([H])C([H])([H])C([H])([H])C2([H])N([H])C(=O)C1([H])N(C(=O)C([H])(N([H])C(=O)C([H])(N([H])C([H])([H])[H])C([H])([H])[H])C(C([H])([H])[H])(C([H])([H])[H])C([H])([H])[H])C([H])([H])c2c([H])c(OC([H])([H])C([H])([H])C([H])([H])C([H])([H])[N+]([H])([H])C3([H])C(=O)C([H])([H])C([H])([H])N(C([H])([H])C([H])([H])N([H])C(=O)N4C([H])([H])C([H])([H])C([H])([H])C([H])(n5nc(-c6c([H])c([H])c(Oc7c([H])c([H])c(F)c([H])c7F)c([H])c6[H])c(C(=O)N([H])[H])c5N([H])[H])C4([H])[H])C3([H])[H])c([H])c([H])c2C1([H])[H]

$$$$
37:0:0
     RDKit          3D

 91100  0  0  1  0  0  0  0  0999 V2000
  -28.1210  -18.2400   19.5400 C   0  0  0  0  0  2  0  0  0  0  0  0
  -29.6430  -18.0240   21.3140 C   0  0  0  0  0  2  0  0  0  0  0  0
  -30.0960  -19.1610   18.6830 C   0  0  0  0  0  2  0  0  0  0  0  0
  -29.4580  -17.7680   18.9740 C   0  0  0  0  0  3  0  0  0  0  0  0
  -30.1700  -17.0890   20.1790 C   0  0  0  0  0  3  0  0  0  0  0  0
  -28.7840  -19.1230   20.5940 C   0  0  0  0  0  3  0  0  0  0  0  0
  -29.6620  -20.0450   19.8100 N   0  0  2  0  0  4  0  0  0  0  0  0
  -30.4750  -20.2530   20.3720 H   0  0  0  0  0  0  0  0  0  0  0  0
  -30.6340  -14.5470   20.0270 C   0  0  0  0  0  0  0  0  0  0  0  0
  -30.3100  -12.3420   18.9540 C   0  0  0  0  0  2  0  0  0  0  0  0
  -29.3040  -12.5260   17.7970 C   0  0  0  0  0  2  0  0  0  0  0  0
  -27.8540  -12.3980   18.3080 C   0  0  0  0  0  2  0  0  0  0  0  0
  -27.5880  -13.2450   19.5800 C   0  0  0  0  0  3  0  0  0  0  0  0
  -28.7030  -13.0410   20.6310 C   0  0  0  0  0  2  0  0  0  0  0  0
  -29.9860  -13.3470   19.9820 N   0  0  0  0  0  0  0  0  0  0  0  0
  -31.7830  -14.6850   19.5960 O   0  0  0  0  0  0  0  0  0  0  0  0
  -29.8630  -15.6280   20.3510 N   0  0  0  0  0  0  0  0  0  0  0  0
  -28.9340  -15.3980   20.6670 H   0  0  0  0  0  0  0  0  0  0  0  0
  -25.2560  -13.8830   20.4530 C   0  0  0  0  0  0  0  0  0  0  0  0
  -24.1950  -13.1270   20.8710 C   0  0  0  0  0  0  0  0  0  0  0  0
  -24.6210  -11.7670   20.7810 C   0  0  0  0  0  0  0  0  0  0  0  0
  -26.2630  -12.9850   20.1370 N   0  0  0  0  0  0  0  0  0  0  0  0
  -25.8890  -11.7050   20.3970 N   0  0  0  0  0  0  0  0  0  0  0  0
  -23.8770  -10.5160   20.9860 C   0  0  0  0  0  0  0  0  0  0  0  0
  -24.3230   -9.5350   21.8980 C   0  0  0  0  0  3  0  0  0  0  0  0
  -23.5800   -8.3490   22.0910 C   0  0  0  0  0  3  0  0  0  0  0  0
  -22.3790   -8.1390   21.3720 C   0  0  0  0  0  0  0  0  0  0  0  0
  -21.9530   -9.1100   20.4510 C   0  0  0  0  0  3  0  0  0  0  0  0
  -22.6950  -10.2860   20.2550 C   0  0  0  0  0  3  0  0  0  0  0  0
  -21.6060   -7.0070   21.4760 O   0  0  0  0  0  0  0  0  0  0  0  0
  -21.5600   -6.2710   22.6340 C   0  0  0  0  0  0  0  0  0  0  0  0
  -21.1220   -6.8300   23.8540 C   0  0  0  0  0  3  0  0  0  0  0  0
  -21.0230   -6.0200   25.0030 C   0  0  0  0  0  3  0  0  0  0  0  0
  -21.3510   -4.6530   24.9330 C   0  0  0  0  0  0  0  0  0  0  0  0
  -21.7810   -4.0940   23.7160 C   0  0  0  0  0  3  0  0  0  0  0  0
  -21.8820   -4.9010   22.5690 C   0  0  0  0  0  0  0  0  0  0  0  0
  -22.2760   -4.3530   21.3950 F   0  0  0  0  0  0  0  0  0  0  0  0
  -21.2480   -3.8720   26.0340 F   0  0  0  0  0  0  0  0  0  0  0  0
  -22.8280  -13.6300   21.2340 C   0  0  0  0  0  0  0  0  0  0  0  0
  -22.1320  -12.9290   22.1230 N   0  0  0  0  0  0  0  0  0  0  0  0
  -22.3860  -14.6760   20.7630 O   0  0  0  0  0  0  0  0  0  0  0  0
  -22.5030  -12.0790   22.5250 H   0  0  0  0  0  0  0  0  0  0  0  0
  -21.2170  -13.2460   22.4070 H   0  0  0  0  0  0  0  0  0  0  0  0
  -25.4390  -15.2530   20.2900 N   0  0  0  0  0  0  0  0  0  0  0  0
  -24.6830  -15.9130   20.4340 H   0  0  0  0  0  0  0  0  0  0  0  0
  -26.2480  -15.6700   19.8510 H   0  0  0  0  0  0  0  0  0  0  0  0
  -29.0980  -21.3790   19.3490 C   0  0  0  0  0  3  0  0  0  0  0  0
  -28.9010  -22.5370   20.4050 C   0  0  0  0  0  3  0  0  0  0  0  0
  -28.7860  -23.9980   19.8000 C   0  0  0  0  0  3  0  0  0  0  0  0
  -28.3790  -25.1570   20.7850 C   0  0  0  0  0  3  0  0  0  0  0  0
  -28.5290  -26.5330   20.3050 O   0  0  0  0  0  0  0  0  0  0  0  0
  -24.6500  -31.8110   23.2510 C   0  0  0  0  0  0  0  0  0  0  0  0
  -27.3850  -27.3220   20.2670 C   0  0  0  0  0  0  0  0  0  0  0  0
  -23.5000  -30.3960   21.5830 C   0  0  0  0  0  3  0  0  0  0  0  0
  -24.9980  -28.8610   20.1970 C   0  0  0  0  0  0  0  0  0  0  0  0
  -26.0310  -30.7580   21.4510 C   0  0  0  0  0  2  0  0  0  0  0  0
  -26.1420  -29.3810   20.8150 C   0  0  0  0  0  0  0  0  0  0  0  0
  -27.3420  -28.6220   20.8400 C   0  0  0  0  0  3  0  0  0  0  0  0
  -26.2250  -26.8320   19.6340 C   0  0  0  0  0  3  0  0  0  0  0  0
  -25.0360  -27.5890   19.5990 C   0  0  0  0  0  3  0  0  0  0  0  0
  -23.7510  -29.7200   20.2100 C   0  0  0  0  0  2  0  0  0  0  0  0
  -24.7450  -31.0050   22.1540 N   0  0  0  0  0  0  0  0  0  0  0  0
  -23.5530  -32.0740   23.7630 O   0  0  0  0  0  0  0  0  0  0  0  0
  -22.8300  -29.3720   22.5290 C   0  0  0  0  0  0  0  0  0  0  0  0
  -21.5030  -29.2050   22.3920 N   0  0  0  0  0  0  0  0  0  0  0  0
  -23.4990  -28.7330   23.3440 O   0  0  0  0  0  0  0  0  0  0  0  0
  -21.0210  -29.7690   21.7060 H   0  0  0  0  0  0  0  0  0  0  0  0
  -18.1120  -28.0570   22.8830 C   0  0  0  0  0  0  0  0  0  0  0  0
  -20.6750  -28.2660   23.1510 C   0  0  0  0  0  3  0  0  0  0  0  0
  -20.7540  -26.8450   22.5460 C   0  0  0  0  0  2  0  0  0  0  0  0
  -19.6430  -26.5610   21.5320 C   0  0  0  0  0  2  0  0  0  0  0  0
  -18.2650  -26.7180   22.1820 C   0  0  0  0  0  2  0  0  0  0  0  0
  -19.2440  -28.7910   23.3250 C   0  0  0  0  0  0  0  0  0  0  0  0
  -19.0480  -30.0480   23.9400 C   0  0  0  0  0  3  0  0  0  0  0  0
  -17.7520  -30.5660   24.1210 C   0  0  0  0  0  3  0  0  0  0  0  0
  -16.6340  -29.8280   23.6970 C   0  0  0  0  0  3  0  0  0  0  0  0
  -16.8150  -28.5760   23.0820 C   0  0  0  0  0  3  0  0  0  0  0  0
  -25.9120  -32.4560   23.9010 C   0  0  0  0  0  3  0  0  0  0  0  0
  -26.4000  -31.6980   25.1950 C   0  0  1  0  0  0  0  0  0  0  0  0
  -25.2800  -31.4590   26.2350 C   0  0  0  0  0  1  0  0  0  0  0  0
  -27.0030  -30.3230   24.8250 C   0  0  0  0  0  1  0  0  0  0  0  0
  -27.5280  -32.5030   25.8810 C   0  0  0  0  0  1  0  0  0  0  0  0
  -25.5870  -33.8540   24.2110 N   0  0  0  0  0  0  0  0  0  0  0  0
  -25.9270  -34.9030   23.4500 C   0  0  0  0  0  0  0  0  0  0  0  0
  -26.6180  -34.7940   22.4310 O   0  0  0  0  0  0  0  0  0  0  0  0
  -24.9770  -34.0120   25.0010 H   0  0  0  0  0  0  0  0  0  0  0  0
  -24.1930  -36.6770   23.0400 C   0  0  0  0  0  1  0  0  0  0  0  0
  -25.4200  -36.2910   23.8830 C   0  0  0  0  0  3  0  0  0  0  0  0
  -27.5260  -37.2010   24.7560 C   0  0  0  0  0  1  0  0  0  0  0  0
  -26.4460  -37.3530   23.7840 N   0  0  0  0  0  0  0  0  0  0  0  0
  -26.0290  -38.2700   23.9180 H   0  0  0  0  0  0  0  0  0  0  0  0
  3  7  1  0
  4  3  1  0
  4  1  1  0
  4  5  1  0
  5 17  1  0
  5  2  1  0
  6  1  1  0
  6  2  1  0
  7  8  1  1
  7  6  1  0
  9 17  1  0
 10 15  1  0
 11 12  1  0
 11 10  1  0
 13 12  1  0
 13 22  1  0
 13 14  1  0
 15  9  1  0
 15 14  1  0
 16  9  2  0
 17 18  1  0
 19 20  2  0
 20 39  1  0
 21 20  1  0
 21 24  1  0
 22 23  1  0
 22 19  1  0
 23 21  2  0
 24 25  1  0
 25 26  2  0
 27 30  1  0
 27 26  1  0
 28 27  2  0
 29 28  1  0
 29 24  2  0
 30 31  1  0
 31 32  1  0
 32 33  2  0
 34 33  1  0
 34 38  1  0
 35 34  2  0
 36 31  2  0
 36 35  1  0
 37 36  1  0
 39 40  1  0
 40 43  1  0
 40 42  1  0
 41 39  2  0
 44 45  1  0
 44 19  1  0
 46 44  1  0
 47  7  1  0
 47 48  2  0
 49 48  1  0
 49 50  2  0
 51 50  1  0
 52 63  2  0
 53 51  1  0
 53 58  1  0
 54 62  1  0
 54 64  1  0
 55 61  1  0
 55 57  1  0
 56 62  1  0
 57 58  2  0
 57 56  1  0
 59 53  2  0
 60 59  1  0
 60 55  2  0
 61 54  1  0
 62 52  1  0
 64 66  2  0
 65 64  1  0
 67 65  1  0
 68 77  2  0
 68 73  1  0
 69 65  1  0
 69 73  1  0
 70 69  1  0
 71 72  1  0
 71 70  1  0
 72 68  1  0
 73 74  2  0
 74 75  1  0
 76 75  2  0
 77 76  1  0
 78 52  1  0
 78 83  1  0
 78 79  1  0
 79 82  1  1
 79 80  1  0
 81 79  1  0
 83 86  1  0
 84 88  1  0
 84 83  1  0
 85 84  2  0
 88 87  1  0
 90 88  1  0
 90 91  1  0
 90 89  1  0
M  ISO  4   9 100  17 100  50 101  51 101
M  END
>  <TORSDO>  (37) 
F 20

>  <SCORE>  (37) 
-13.575

>  <name>  (37) 
37

>  <ligand_id>  (37) 
37

>  <original_smiles>  (37) 
[H]c1c([H])c([H])c2c(c1[H])C([H])([H])C([H])([H])C([H])([H])C2([H])N([H])C(=O)C1([H])N(C(=O)C([H])(N([H])C(=O)C([H])(N([H])C([H])([H])[H])C([H])([H])[H])C(C([H])([H])[H])(C([H])([H])[H])C([H])([H])[H])C([H])([H])c2c([H])c(OC([H])([H])C([H])([H])C([H])([H])C([H])([H])[N+]3([H])C([H])([H])C4([H])C([H])([H])C3([H])C([H])([H])C4([H])N([H])C(=O)N3C([H])([H])C([H])([H])C([H])([H])C([H])(n4nc(-c5c([H])c([H])c(Oc6c([H])c([H])c(F)c([H])c6F)c([H])c5[H])c(C(=O)N([H])[H])c4N([H])[H])C3([H])[H])c([H])c([H])c2C1([H])[H]

>  <smiles>  (37) 
[H]c1c([H])c([H])c2c(c1[H])C([H])([H])C([H])([H])C([H])([H])C2([H])N([H])C(=O)C1([H])N(C(=O)C([H])(N([H])C(=O)C([H])(N([H])C([H])([H])[H])C([H])([H])[H])C(C([H])([H])[H])(C([H])([H])[H])C([H])([H])[H])C([H])([H])c2c([H])c(OC([H])([H])C([H])([H])C([H])([H])C([H])([H])[N+]3([H])C([H])([H])C4([H])C([H])([H])C3([H])C([H])([H])C4([H])N([H])C(=O)N3C([H])([H])C([H])([H])C([H])([H])C([H])(n4nc(-c5c([H])c([H])c(Oc6c([H])c([H])c(F)c([H])c6F)c([H])c5[H])c(C(=O)N([H])[H])c4N([H])[H])C3([H])[H])c([H])c([H])c2C1([H])[H]

$$$$
38:0:0
     RDKit          3D

 91 99  0  0  1  0  0  0  0  0999 V2000
  -27.2420  -22.0460   20.3460 C   0  0  0  0  0  2  0  0  0  0  0  0
  -27.8760  -20.6680   20.0910 C   0  0  0  0  0  2  0  0  0  0  0  0
  -29.5020  -21.9090   21.2430 C   0  0  0  0  0  2  0  0  0  0  0  0
  -28.3140  -22.8930   21.0680 C   0  0  0  0  0  3  0  0  0  0  0  0
  -28.9530  -20.5350   21.0900 N   0  0  2  0  0  4  0  0  0  0  0  0
  -28.5090  -20.3150   21.9700 H   0  0  0  0  0  0  0  0  0  0  0  0
  -28.6510  -24.2080   20.3210 C   0  0  0  0  0  0  0  0  0  0  0  0
  -29.1430  -24.1880   19.1880 O   0  0  0  0  0  0  0  0  0  0  0  0
  -28.3290  -25.5350   21.0470 C   0  0  0  0  0  2  0  0  0  0  0  0
  -28.4320  -26.6920   20.1900 O   0  0  0  0  0  0  0  0  0  0  0  0
  -24.6190  -31.8840   23.2320 C   0  0  0  0  0  0  0  0  0  0  0  0
  -27.2860  -27.4530   20.1670 C   0  0  0  0  0  0  0  0  0  0  0  0
  -23.4220  -30.4800   21.5830 C   0  0  0  0  0  3  0  0  0  0  0  0
  -24.8880  -28.9480   20.1610 C   0  0  0  0  0  0  0  0  0  0  0  0
  -25.9460  -30.8510   21.3910 C   0  0  0  0  0  2  0  0  0  0  0  0
  -26.0420  -29.4810   20.7520 C   0  0  0  0  0  0  0  0  0  0  0  0
  -27.2470  -28.7420   20.7480 C   0  0  0  0  0  3  0  0  0  0  0  0
  -26.1200  -26.9340   19.5680 C   0  0  0  0  0  3  0  0  0  0  0  0
  -24.9220  -27.6760   19.5640 C   0  0  0  0  0  3  0  0  0  0  0  0
  -23.6390  -29.8010   20.2040 C   0  0  0  0  0  2  0  0  0  0  0  0
  -24.6800  -31.0860   22.1280 N   0  0  0  0  0  0  0  0  0  0  0  0
  -23.5350  -32.1500   23.7710 O   0  0  0  0  0  0  0  0  0  0  0  0
  -22.7720  -29.4560   22.5420 C   0  0  0  0  0  0  0  0  0  0  0  0
  -21.4470  -29.2730   22.4140 N   0  0  0  0  0  0  0  0  0  0  0  0
  -23.4560  -28.8290   23.3540 O   0  0  0  0  0  0  0  0  0  0  0  0
  -20.9560  -29.8320   21.7310 H   0  0  0  0  0  0  0  0  0  0  0  0
  -18.0760  -28.0700   22.9020 C   0  0  0  0  0  0  0  0  0  0  0  0
  -20.6320  -28.3310   23.1800 C   0  0  0  0  0  3  0  0  0  0  0  0
  -20.7380  -26.9020   22.6010 C   0  0  0  0  0  2  0  0  0  0  0  0
  -19.6390  -26.5800   21.5840 C   0  0  0  0  0  2  0  0  0  0  0  0
  -18.2560  -26.7230   22.2250 C   0  0  0  0  0  2  0  0  0  0  0  0
  -19.1920  -28.8330   23.3370 C   0  0  0  0  0  0  0  0  0  0  0  0
  -18.9710  -30.0950   23.9290 C   0  0  0  0  0  3  0  0  0  0  0  0
  -17.6650  -30.5950   24.0930 C   0  0  0  0  0  3  0  0  0  0  0  0
  -16.5630  -29.8290   23.6750 C   0  0  0  0  0  3  0  0  0  0  0  0
  -16.7690  -28.5680   23.0860 C   0  0  0  0  0  3  0  0  0  0  0  0
  -25.9000  -32.5190   23.8560 C   0  0  0  0  0  3  0  0  0  0  0  0
  -25.5880  -33.9160   24.1830 N   0  0  0  0  0  0  0  0  0  0  0  0
  -25.9190  -34.9670   23.4220 C   0  0  0  0  0  0  0  0  0  0  0  0
  -26.5910  -34.8630   22.3920 O   0  0  0  0  0  0  0  0  0  0  0  0
  -24.9920  -34.0710   24.9830 H   0  0  0  0  0  0  0  0  0  0  0  0
  -24.1850  -36.7530   23.0590 C   0  0  0  0  0  1  0  0  0  0  0  0
  -25.4260  -36.3550   23.8740 C   0  0  0  0  0  3  0  0  0  0  0  0
  -27.5560  -37.2480   24.7080 C   0  0  0  0  0  1  0  0  0  0  0  0
  -26.4560  -37.4100   23.7620 N   0  0  0  0  0  0  0  0  0  0  0  0
  -26.0450  -38.3290   23.9060 H   0  0  0  0  0  0  0  0  0  0  0  0
  -26.4180  -31.7490   25.1330 C   0  0  1  0  0  0  0  0  0  0  0  0
  -25.3250  -31.5090   26.1990 C   0  0  0  0  0  1  0  0  0  0  0  0
  -27.0030  -30.3720   24.7390 C   0  0  0  0  0  1  0  0  0  0  0  0
  -27.5650  -32.5460   25.7980 C   0  0  0  0  0  1  0  0  0  0  0  0
  -29.9630  -19.4620   20.8310 C   0  0  0  0  0  2  0  0  0  0  0  0
  -29.4120  -18.0050   20.9290 C   0  0  0  0  0  2  0  0  0  0  0  0
  -30.5280  -16.9260   20.8270 C   0  0  0  0  0  2  0  0  0  0  0  0
  -30.7210  -14.4890   20.3070 C   0  0  0  0  0  0  0  0  0  0  0  0
  -30.3980  -12.3310   19.1600 C   0  0  0  0  0  2  0  0  0  0  0  0
  -29.4430  -12.5340   17.9660 C   0  0  0  0  0  2  0  0  0  0  0  0
  -27.9740  -12.3970   18.4140 C   0  0  0  0  0  2  0  0  0  0  0  0
  -27.6520  -13.2360   19.6800 C   0  0  0  0  0  3  0  0  0  0  0  0
  -28.7200  -13.0220   20.7760 C   0  0  0  0  0  2  0  0  0  0  0  0
  -30.0370  -13.3190   20.1900 N   0  0  0  0  0  0  0  0  0  0  0  0
  -31.8460  -14.6540   19.8280 O   0  0  0  0  0  0  0  0  0  0  0  0
  -30.0420  -15.5300   20.8300 N   0  0  0  0  0  0  0  0  0  0  0  0
  -29.1200  -15.3440   21.1940 H   0  0  0  0  0  0  0  0  0  0  0  0
  -25.2590  -13.8440   20.4050 C   0  0  0  0  0  0  0  0  0  0  0  0
  -24.1950  -13.0710   20.7890 C   0  0  0  0  0  0  0  0  0  0  0  0
  -24.6590  -11.7200   20.7650 C   0  0  0  0  0  0  0  0  0  0  0  0
  -26.3040  -12.9620   20.1730 N   0  0  0  0  0  0  0  0  0  0  0  0
  -25.9470  -11.6810   20.4470 N   0  0  0  0  0  0  0  0  0  0  0  0
  -23.9380  -10.4570   20.9700 C   0  0  0  0  0  0  0  0  0  0  0  0
  -24.3810   -9.4980   21.9080 C   0  0  0  0  0  3  0  0  0  0  0  0
  -23.6600   -8.2990   22.1010 C   0  0  0  0  0  3  0  0  0  0  0  0
  -22.4830   -8.0520   21.3560 C   0  0  0  0  0  0  0  0  0  0  0  0
  -22.0590   -8.9990   20.4070 C   0  0  0  0  0  3  0  0  0  0  0  0
  -22.7810  -10.1890   20.2120 C   0  0  0  0  0  3  0  0  0  0  0  0
  -21.7330   -6.9050   21.4570 O   0  0  0  0  0  0  0  0  0  0  0  0
  -21.6910   -6.1730   22.6170 C   0  0  0  0  0  0  0  0  0  0  0  0
  -21.2650   -6.7380   23.8390 C   0  0  0  0  0  3  0  0  0  0  0  0
  -21.1710   -5.9320   24.9910 C   0  0  0  0  0  3  0  0  0  0  0  0
  -21.4920   -4.5630   24.9220 C   0  0  0  0  0  0  0  0  0  0  0  0
  -21.9110   -3.9980   23.7040 C   0  0  0  0  0  3  0  0  0  0  0  0
  -22.0070   -4.8010   22.5540 C   0  0  0  0  0  0  0  0  0  0  0  0
  -22.3900   -4.2480   21.3790 F   0  0  0  0  0  0  0  0  0  0  0  0
  -21.3940   -3.7860   26.0260 F   0  0  0  0  0  0  0  0  0  0  0  0
  -22.7990  -13.5470   21.0670 C   0  0  0  0  0  0  0  0  0  0  0  0
  -22.0800  -12.8580   21.9470 N   0  0  0  0  0  0  0  0  0  0  0  0
  -22.3540  -14.5650   20.5410 O   0  0  0  0  0  0  0  0  0  0  0  0
  -22.4520  -12.0350   22.3970 H   0  0  0  0  0  0  0  0  0  0  0  0
  -21.1440  -13.1610   22.1760 H   0  0  0  0  0  0  0  0  0  0  0  0
  -25.4210  -15.2120   20.2150 N   0  0  0  0  0  0  0  0  0  0  0  0
  -24.6560  -15.8680   20.3250 H   0  0  0  0  0  0  0  0  0  0  0  0
  -26.2650  -15.6430   19.8590 H   0  0  0  0  0  0  0  0  0  0  0  0
  1  4  1  0
  2  1  1  0
  2  5  1  0
  4  7  1  0
  4  3  1  0
  5  3  1  0
  5  6  1  1
  7  9  1  0
  8  7  2  0
 10  9  1  0
 11 22  2  0
 12 10  1  0
 12 17  1  0
 13 21  1  0
 13 23  1  0
 14 20  1  0
 14 16  1  0
 15 21  1  0
 16 15  1  0
 17 16  2  0
 18 12  2  0
 19 18  1  0
 19 14  2  0
 20 13  1  0
 21 11  1  0
 23 25  2  0
 24 23  1  0
 26 24  1  0
 27 36  2  0
 27 32  1  0
 28 24  1  0
 28 32  1  0
 29 28  1  0
 30 31  1  0
 30 29  1  0
 31 27  1  0
 32 33  2  0
 33 34  1  0
 35 34  2  0
 36 35  1  0
 37 11  1  0
 37 38  1  0
 37 47  1  0
 38 41  1  0
 39 43  1  0
 39 38  1  0
 40 39  2  0
 43 42  1  0
 45 43  1  0
 45 46  1  0
 45 44  1  0
 47 50  1  1
 47 48  1  0
 49 47  1  0
 51 52  1  0
 51  5  1  0
 53 62  1  0
 53 52  1  0
 54 62  1  0
 55 60  1  0
 56 57  1  0
 56 55  1  0
 58 57  1  0
 58 67  1  0
 58 59  1  0
 60 54  1  0
 60 59  1  0
 61 54  2  0
 62 63  1  0
 64 65  2  0
 65 84  1  0
 66 65  1  0
 66 69  1  0
 67 64  1  0
 67 68  1  0
 68 66  2  0
 69 70  1  0
 70 71  2  0
 72 75  1  0
 72 71  1  0
 73 72  2  0
 74 73  1  0
 74 69  2  0
 75 76  1  0
 76 77  1  0
 77 78  2  0
 79 78  1  0
 79 83  1  0
 80 79  2  0
 81 76  2  0
 81 80  1  0
 82 81  1  0
 84 85  1  0
 85 88  1  0
 85 87  1  0
 86 84  2  0
 89 90  1  0
 89 64  1  0
 91 89  1  0
M  ISO  4   9 101  10 101  54 100  62 100
M  END
>  <TORSDO>  (38) 
F 21

>  <SCORE>  (38) 
-13.356

>  <name>  (38) 
38

>  <ligand_id>  (38) 
38

>  <original_smiles>  (38) 
[H]c1c([H])c([H])c2c(c1[H])C([H])([H])C([H])([H])C([H])([H])C2([H])N([H])C(=O)C1([H])N(C(=O)C([H])(N([H])C(=O)C([H])(N([H])C([H])([H])[H])C([H])([H])[H])C(C([H])([H])[H])(C([H])([H])[H])C([H])([H])[H])C([H])([H])c2c([H])c(OC([H])([H])C(=O)C3([H])C([H])([H])C([H])([H])[N+]([H])(C([H])([H])C([H])([H])C([H])([H])N([H])C(=O)N4C([H])([H])C([H])([H])C([H])([H])C([H])(n5nc(-c6c([H])c([H])c(Oc7c([H])c([H])c(F)c([H])c7F)c([H])c6[H])c(C(=O)N([H])[H])c5N([H])[H])C4([H])[H])C3([H])[H])c([H])c([H])c2C1([H])[H]

>  <smiles>  (38) 
[H]c1c([H])c([H])c2c(c1[H])C([H])([H])C([H])([H])C([H])([H])C2([H])N([H])C(=O)C1([H])N(C(=O)C([H])(N([H])C(=O)C([H])(N([H])C([H])([H])[H])C([H])([H])[H])C(C([H])([H])[H])(C([H])([H])[H])C([H])([H])[H])C([H])([H])c2c([H])c(OC([H])([H])C(=O)C3([H])C([H])([H])C([H])([H])[N+]([H])(C([H])([H])C([H])([H])C([H])([H])N([H])C(=O)N4C([H])([H])C([H])([H])C([H])([H])C([H])(n5nc(-c6c([H])c([H])c(Oc7c([H])c([H])c(F)c([H])c7F)c([H])c6[H])c(C(=O)N([H])[H])c5N([H])[H])C4([H])[H])C3([H])[H])c([H])c([H])c2C1([H])[H]

$$$$
39:0:0
     RDKit          3D

 99107  0  0  1  0  0  0  0  0999 V2000
  -29.4740  -22.5710   24.5230 C   0  0  0  0  0  2  0  0  0  0  0  0
  -30.3840  -22.0000   23.4170 C   0  0  0  0  0  2  0  0  0  0  0  0
  -30.4610  -20.4610   23.4770 C   0  0  0  0  0  2  0  0  0  0  0  0
  -30.9490  -19.8600   22.2160 N   0  0  0  0  0  4  0  0  0  0  0  0
  -30.5870  -20.4200   21.4600 H   0  0  0  0  0  0  0  0  0  0  0  0
  -31.9550  -19.9080   22.1700 H   0  0  0  0  0  0  0  0  0  0  0  0
  -31.4040  -14.7270   20.0450 C   0  0  0  0  0  0  0  0  0  0  0  0
  -30.9230  -12.6180   18.8660 C   0  0  0  0  0  2  0  0  0  0  0  0
  -29.9760  -12.8900   17.6810 C   0  0  0  0  0  2  0  0  0  0  0  0
  -28.5050  -12.8290   18.1360 C   0  0  0  0  0  2  0  0  0  0  0  0
  -28.2370  -13.6720   19.4120 C   0  0  0  0  0  3  0  0  0  0  0  0
  -29.3010  -13.3960   20.4990 C   0  0  0  0  0  2  0  0  0  0  0  0
  -30.6310  -13.6150   19.9080 N   0  0  0  0  0  0  0  0  0  0  0  0
  -32.4930  -14.8510   19.4750 O   0  0  0  0  0  0  0  0  0  0  0  0
  -31.5420  -17.4280   22.4380 C   0  0  0  0  0  2  0  0  0  0  0  0
  -31.0780  -15.9970   22.0870 C   0  0  0  0  0  2  0  0  0  0  0  0
  -30.7990  -17.0380   19.8340 C   0  0  0  0  0  2  0  0  0  0  0  0
  -30.1020  -18.2560   20.4930 C   0  0  0  0  0  3  0  0  0  0  0  0
  -30.5020  -18.4640   21.9770 C   0  0  0  0  0  3  0  0  0  0  0  0
  -30.8310  -15.8010   20.6430 N   0  0  0  0  0  0  0  0  0  0  0  0
  -25.8970  -14.3860   20.2170 C   0  0  0  0  0  0  0  0  0  0  0  0
  -24.7930  -13.6640   20.5840 C   0  0  0  0  0  0  0  0  0  0  0  0
  -25.1670  -12.2900   20.4710 C   0  0  0  0  0  0  0  0  0  0  0  0
  -26.8800  -13.4560   19.9150 N   0  0  0  0  0  0  0  0  0  0  0  0
  -26.4440  -12.1870   20.1220 N   0  0  0  0  0  0  0  0  0  0  0  0
  -24.3650  -11.0680   20.6190 C   0  0  0  0  0  0  0  0  0  0  0  0
  -24.7270  -10.0550   21.5330 C   0  0  0  0  0  3  0  0  0  0  0  0
  -23.9310   -8.8980   21.6710 C   0  0  0  0  0  3  0  0  0  0  0  0
  -22.7580   -8.7460   20.8930 C   0  0  0  0  0  0  0  0  0  0  0  0
  -22.4150   -9.7480   19.9670 C   0  0  0  0  0  3  0  0  0  0  0  0
  -23.2110  -10.8970   19.8270 C   0  0  0  0  0  3  0  0  0  0  0  0
  -21.9380   -7.6450   20.9420 O   0  0  0  0  0  0  0  0  0  0  0  0
  -21.7360   -6.9490   22.1070 C   0  0  0  0  0  0  0  0  0  0  0  0
  -21.2440   -7.5750   23.2730 C   0  0  0  0  0  3  0  0  0  0  0  0
  -20.9840   -6.8090   24.4270 C   0  0  0  0  0  3  0  0  0  0  0  0
  -21.2060   -5.4180   24.4140 C   0  0  0  0  0  0  0  0  0  0  0  0
  -21.6920   -4.7920   23.2520 C   0  0  0  0  0  3  0  0  0  0  0  0
  -21.9530   -5.5570   22.1010 C   0  0  0  0  0  0  0  0  0  0  0  0
  -22.3990   -4.9450   20.9780 F   0  0  0  0  0  0  0  0  0  0  0  0
  -20.9500   -4.6800   25.5190 F   0  0  0  0  0  0  0  0  0  0  0  0
  -23.4370  -14.2140   20.9190 C   0  0  0  0  0  0  0  0  0  0  0  0
  -22.7030  -13.5450   21.7990 N   0  0  0  0  0  0  0  0  0  0  0  0
  -23.0400  -15.2750   20.4370 O   0  0  0  0  0  0  0  0  0  0  0  0
  -23.0350  -12.6870   22.2170 H   0  0  0  0  0  0  0  0  0  0  0  0
  -21.7930  -13.8970   22.0640 H   0  0  0  0  0  0  0  0  0  0  0  0
  -26.1360  -15.7480   20.0920 N   0  0  0  0  0  0  0  0  0  0  0  0
  -25.4040  -16.4340   20.2420 H   0  0  0  0  0  0  0  0  0  0  0  0
  -26.9660  -16.1350   19.6670 H   0  0  0  0  0  0  0  0  0  0  0  0
  -28.5730  -18.2010   20.3390 C   0  0  0  0  0  2  0  0  0  0  0  0
  -28.0440  -19.3910   20.6360 F   0  0  0  0  0  0  0  0  0  0  0  0
  -29.5460  -24.0980   24.7460 C   0  0  0  0  0  2  0  0  0  0  0  0
  -28.9400  -24.8960   23.6540 N   0  0  0  0  0  4  0  0  0  0  0  0
  -28.5320  -25.7210   24.0690 H   0  0  0  0  0  0  0  0  0  0  0  0
  -28.1870  -24.3790   23.2310 H   0  0  0  0  0  0  0  0  0  0  0  0
  -29.8900  -25.4080   22.6380 C   0  0  0  0  0  2  0  0  0  0  0  0
  -29.2620  -26.4860   21.7330 C   0  0  0  0  0  3  0  0  0  0  0  0
  -28.5290  -27.3040   22.4950 F   0  0  0  0  0  0  0  0  0  0  0  0
  -28.4350  -25.9330   20.5520 C   0  0  0  0  0  2  0  0  0  0  0  0
  -28.2460  -26.9290   19.5460 O   0  0  0  0  0  0  0  0  0  0  0  0
  -24.3870  -31.7450   23.0500 C   0  0  0  0  0  0  0  0  0  0  0  0
  -27.0600  -27.6070   19.6410 C   0  0  0  0  0  0  0  0  0  0  0  0
  -23.1660  -30.4080   21.3600 C   0  0  0  0  0  3  0  0  0  0  0  0
  -24.6190  -29.0020   19.8050 C   0  0  0  0  0  0  0  0  0  0  0  0
  -25.6670  -30.8680   21.1040 C   0  0  0  0  0  2  0  0  0  0  0  0
  -25.7750  -29.5410   20.3850 C   0  0  0  0  0  0  0  0  0  0  0  0
  -27.0010  -28.8540   20.2970 C   0  0  0  0  0  3  0  0  0  0  0  0
  -25.8940  -27.0680   19.0610 C   0  0  0  0  0  3  0  0  0  0  0  0
  -24.6720  -27.7640   19.1400 C   0  0  0  0  0  3  0  0  0  0  0  0
  -23.3500  -29.8130   19.9380 C   0  0  0  0  0  2  0  0  0  0  0  0
  -24.4270  -31.0180   21.8970 N   0  0  0  0  0  0  0  0  0  0  0  0
  -23.3170  -31.9510   23.6390 O   0  0  0  0  0  0  0  0  0  0  0  0
  -22.5770  -29.3140   22.2770 C   0  0  0  0  0  0  0  0  0  0  0  0
  -21.2570  -29.0910   22.1680 N   0  0  0  0  0  0  0  0  0  0  0  0
  -23.3020  -28.6680   23.0390 O   0  0  0  0  0  0  0  0  0  0  0  0
  -20.7310  -29.6660   21.5240 H   0  0  0  0  0  0  0  0  0  0  0  0
  -17.9430  -27.7370   22.6480 C   0  0  0  0  0  0  0  0  0  0  0  0
  -20.4930  -28.0830   22.9020 C   0  0  0  0  0  3  0  0  0  0  0  0
  -20.6430  -26.6880   22.2530 C   0  0  0  0  0  2  0  0  0  0  0  0
  -19.5410  -26.3720   21.2390 C   0  0  0  0  0  2  0  0  0  0  0  0
  -18.1640  -26.4300   21.9060 C   0  0  0  0  0  2  0  0  0  0  0  0
  -19.0380  -28.5210   23.1020 C   0  0  0  0  0  0  0  0  0  0  0  0
  -18.7780  -29.7460   23.7560 C   0  0  0  0  0  3  0  0  0  0  0  0
  -17.4580  -30.1880   23.9590 C   0  0  0  0  0  3  0  0  0  0  0  0
  -16.3790  -29.4000   23.5220 C   0  0  0  0  0  3  0  0  0  0  0  0
  -16.6220  -28.1770   22.8730 C   0  0  0  0  0  3  0  0  0  0  0  0
  -25.6760  -32.3740   23.6660 C   0  0  0  0  0  3  0  0  0  0  0  0
  -26.2460  -31.5500   24.8850 C   0  0  1  0  0  0  0  0  0  0  0  0
  -25.1900  -31.2300   25.9670 C   0  0  0  0  0  1  0  0  0  0  0  0
  -26.8530  -30.2130   24.4010 C   0  0  0  0  0  1  0  0  0  0  0  0
  -27.3960  -32.3390   25.5560 C   0  0  0  0  0  1  0  0  0  0  0  0
  -25.3470  -33.7470   24.0700 N   0  0  0  0  0  0  0  0  0  0  0  0
  -25.6680  -34.8410   23.3670 C   0  0  0  0  0  0  0  0  0  0  0  0
  -26.3410  -34.8020   22.3330 O   0  0  0  0  0  0  0  0  0  0  0  0
  -24.7460  -33.8530   24.8740 H   0  0  0  0  0  0  0  0  0  0  0  0
  -23.9200  -36.6280   23.0930 C   0  0  0  0  0  1  0  0  0  0  0  0
  -25.1600  -36.1970   23.8930 C   0  0  0  0  0  3  0  0  0  0  0  0
  -27.2750  -37.0640   24.7870 C   0  0  0  0  0  1  0  0  0  0  0  0
  -26.1800  -37.2670   23.8440 N   0  0  0  0  0  0  0  0  0  0  0  0
  -25.7620  -38.1750   24.0320 H   0  0  0  0  0  0  0  0  0  0  0  0
  1 51  1  0
  2  3  1  0
  2  1  1  0
  4  3  1  0
  5  4  1  0
  6  4  1  0
  7 20  1  0
  8 13  1  0
  9 10  1  0
  9  8  1  0
 11 10  1  0
 11 24  1  0
 11 12  1  0
 13  7  1  0
 13 12  1  0
 14  7  2  0
 16 15  1  0
 17 18  1  0
 17 20  1  0
 18 49  1  0
 18 19  1  0
 19  4  1  0
 19 15  1  0
 20 16  1  0
 21 22  2  0
 22 41  1  0
 23 22  1  0
 23 26  1  0
 24 25  1  0
 24 21  1  0
 25 23  2  0
 26 27  1  0
 27 28  2  0
 29 32  1  0
 29 28  1  0
 30 29  2  0
 31 30  1  0
 31 26  2  0
 32 33  1  0
 33 34  1  0
 34 35  2  0
 36 35  1  0
 36 40  1  0
 37 36  2  0
 38 33  2  0
 38 37  1  0
 39 38  1  0
 41 42  1  0
 42 45  1  0
 42 44  1  0
 43 41  2  0
 46 21  1  0
 46 47  1  0
 48 46  1  0
 49 50  1  0
 52 53  1  0
 52 51  1  0
 54 52  1  0
 55 52  1  0
 56 57  1  0
 56 55  1  0
 58 56  1  0
 59 61  1  0
 59 58  1  0
 60 71  2  0
 61 66  1  0
 62 70  1  0
 62 72  1  0
 63 69  1  0
 63 65  1  0
 64 70  1  0
 65 64  1  0
 66 65  2  0
 67 68  1  0
 67 61  2  0
 68 63  2  0
 69 62  1  0
 70 60  1  0
 72 74  2  0
 73 72  1  0
 75 73  1  0
 76 85  2  0
 76 81  1  0
 77 73  1  0
 77 81  1  0
 78 77  1  0
 79 80  1  0
 79 78  1  0
 80 76  1  0
 81 82  2  0
 82 83  1  0
 84 83  2  0
 85 84  1  0
 86 60  1  0
 86 91  1  0
 86 87  1  0
 87 90  1  1
 87 88  1  0
 89 87  1  0
 91 94  1  0
 92 96  1  0
 92 91  1  0
 93 92  2  0
 96 95  1  0
 98 96  1  0
 98 99  1  0
 98 97  1  0
M  ISO  4   7 100  20 100  58 101  59 101
M  END
>  <TORSDO>  (39) 
F 25

>  <SCORE>  (39) 
-9.301

>  <name>  (39) 
39

>  <ligand_id>  (39) 
39

>  <original_smiles>  (39) 
[H]c1c([H])c([H])c2c(c1[H])C([H])([H])C([H])([H])C([H])([H])C2([H])N([H])C(=O)C1([H])N(C(=O)C([H])(N([H])C(=O)C([H])(N([H])C([H])([H])[H])C([H])([H])[H])C(C([H])([H])[H])(C([H])([H])[H])C([H])([H])[H])C([H])([H])c2c([H])c(OC([H])([H])C([H])(F)C([H])([H])[N+]([H])([H])C([H])([H])C([H])([H])C([H])([H])C([H])([H])[N+]([H])([H])C3([H])C([H])([H])C([H])([H])N(C(=O)N4C([H])([H])C([H])([H])C([H])([H])C([H])(n5nc(-c6c([H])c([H])c(Oc7c([H])c([H])c(F)c([H])c7F)c([H])c6[H])c(C(=O)N([H])[H])c5N([H])[H])C4([H])[H])C([H])([H])C3([H])C([H])([H])F)c([H])c([H])c2C1([H])[H]

>  <smiles>  (39) 
[H]c1c([H])c([H])c2c(c1[H])C([H])([H])C([H])([H])C([H])([H])C2([H])N([H])C(=O)C1([H])N(C(=O)C([H])(N([H])C(=O)C([H])(N([H])C([H])([H])[H])C([H])([H])[H])C(C([H])([H])[H])(C([H])([H])[H])C([H])([H])[H])C([H])([H])c2c([H])c(OC([H])([H])C([H])(F)C([H])([H])[N+]([H])([H])C([H])([H])C([H])([H])C([H])([H])C([H])([H])[N+]([H])([H])C3([H])C([H])([H])C([H])([H])N(C(=O)N4C([H])([H])C([H])([H])C([H])([H])C([H])(n5nc(-c6c([H])c([H])c(Oc7c([H])c([H])c(F)c([H])c7F)c([H])c6[H])c(C(=O)N([H])[H])c5N([H])[H])C4([H])[H])C([H])([H])C3([H])C([H])([H])F)c([H])c([H])c2C1([H])[H]

$$$$
40:0:0
     RDKit          3D

 91 99  0  0  1  0  0  0  0  0999 V2000
  -30.4650  -21.9110   20.5490 N   0  0  0  0  0  4  0  0  0  0  0  0
  -29.5530  -21.9190   20.1250 H   0  0  0  0  0  0  0  0  0  0  0  0
  -31.1490  -21.8720   19.8110 H   0  0  0  0  0  0  0  0  0  0  0  0
  -30.5850  -20.6830   21.3810 C   0  0  0  0  0  2  0  0  0  0  0  0
  -31.6950  -18.6240   20.1450 C   0  0  0  0  0  2  0  0  0  0  0  0
  -30.7290  -17.9890   21.1200 C   0  0  0  0  0  3  0  0  0  0  0  0
  -30.4630  -19.3930   20.5580 C   0  0  0  0  0  3  0  0  0  0  0  0
  -29.8140  -16.8430   20.6730 C   0  0  0  0  0  2  0  0  0  0  0  0
  -30.6620  -14.4990   20.4590 C   0  0  0  0  0  0  0  0  0  0  0  0
  -30.3360  -12.3510   19.2830 C   0  0  0  0  0  2  0  0  0  0  0  0
  -29.3890  -12.5730   18.0830 C   0  0  0  0  0  2  0  0  0  0  0  0
  -27.9180  -12.4380   18.5230 C   0  0  0  0  0  2  0  0  0  0  0  0
  -27.5930  -13.2570   19.8000 C   0  0  0  0  0  3  0  0  0  0  0  0
  -28.6550  -13.0220   20.9000 C   0  0  0  0  0  2  0  0  0  0  0  0
  -29.9900  -13.3180   20.3390 N   0  0  0  0  0  0  0  0  0  0  0  0
  -31.7160  -14.7370   19.8650 O   0  0  0  0  0  0  0  0  0  0  0  0
  -30.0230  -15.4660   21.1520 N   0  0  0  0  0  0  0  0  0  0  0  0
  -29.2930  -15.1150   21.7560 H   0  0  0  0  0  0  0  0  0  0  0  0
  -25.1950  -13.8540   20.5340 C   0  0  0  0  0  0  0  0  0  0  0  0
  -24.1320  -13.0780   20.9130 C   0  0  0  0  0  0  0  0  0  0  0  0
  -24.5970  -11.7260   20.8730 C   0  0  0  0  0  0  0  0  0  0  0  0
  -26.2400  -12.9750   20.2860 N   0  0  0  0  0  0  0  0  0  0  0  0
  -25.8830  -11.6900   20.5410 N   0  0  0  0  0  0  0  0  0  0  0  0
  -23.8750  -10.4620   21.0700 C   0  0  0  0  0  0  0  0  0  0  0  0
  -24.3340   -9.4790   21.9760 C   0  0  0  0  0  3  0  0  0  0  0  0
  -23.6100   -8.2800   22.1570 C   0  0  0  0  0  3  0  0  0  0  0  0
  -22.4140   -8.0560   21.4350 C   0  0  0  0  0  0  0  0  0  0  0  0
  -21.9730   -9.0290   20.5180 C   0  0  0  0  0  3  0  0  0  0  0  0
  -22.6980  -10.2180   20.3340 C   0  0  0  0  0  3  0  0  0  0  0  0
  -21.6620   -6.9100   21.5280 O   0  0  0  0  0  0  0  0  0  0  0  0
  -21.6640   -6.1390   22.6620 C   0  0  0  0  0  0  0  0  0  0  0  0
  -21.3100   -6.6680   23.9230 C   0  0  0  0  0  3  0  0  0  0  0  0
  -21.2520   -5.8250   25.0500 C   0  0  0  0  0  3  0  0  0  0  0  0
  -21.5420   -4.4530   24.9180 C   0  0  0  0  0  0  0  0  0  0  0  0
  -21.8960   -3.9240   23.6650 C   0  0  0  0  0  3  0  0  0  0  0  0
  -21.9510   -4.7630   22.5380 C   0  0  0  0  0  0  0  0  0  0  0  0
  -22.2680   -4.2450   21.3280 F   0  0  0  0  0  0  0  0  0  0  0  0
  -21.4840   -3.6410   25.9990 F   0  0  0  0  0  0  0  0  0  0  0  0
  -22.7370  -13.5520   21.2080 C   0  0  0  0  0  0  0  0  0  0  0  0
  -22.0180  -12.8560   22.0830 N   0  0  0  0  0  0  0  0  0  0  0  0
  -22.2900  -14.5790   20.6970 O   0  0  0  0  0  0  0  0  0  0  0  0
  -22.3880  -12.0270   22.5290 H   0  0  0  0  0  0  0  0  0  0  0  0
  -21.0840  -13.1610   22.3160 H   0  0  0  0  0  0  0  0  0  0  0  0
  -25.3550  -15.2260   20.3690 N   0  0  0  0  0  0  0  0  0  0  0  0
  -24.6000  -15.8870   20.5160 H   0  0  0  0  0  0  0  0  0  0  0  0
  -26.2110  -15.6740   20.0630 H   0  0  0  0  0  0  0  0  0  0  0  0
  -30.6440  -23.1870   21.2910 C   0  0  0  0  0  2  0  0  0  0  0  0
  -30.1550  -24.4330   20.5050 C   0  0  0  0  0  2  0  0  0  0  0  0
  -30.2820  -25.7500   21.3160 C   0  0  0  0  0  2  0  0  0  0  0  0
  -29.6170  -27.0060   20.6970 C   0  0  0  0  0  2  0  0  0  0  0  0
  -28.3610  -26.6570   20.1110 O   0  0  0  0  0  0  0  0  0  0  0  0
  -24.5850  -31.9000   23.2450 C   0  0  0  0  0  0  0  0  0  0  0  0
  -27.2480  -27.4730   20.1760 C   0  0  0  0  0  0  0  0  0  0  0  0
  -23.3740  -30.4960   21.6060 C   0  0  0  0  0  3  0  0  0  0  0  0
  -24.8280  -28.9490   20.1930 C   0  0  0  0  0  0  0  0  0  0  0  0
  -25.8950  -30.8630   21.3980 C   0  0  0  0  0  2  0  0  0  0  0  0
  -25.9840  -29.4880   20.7720 C   0  0  0  0  0  0  0  0  0  0  0  0
  -27.1970  -28.7630   20.7630 C   0  0  0  0  0  3  0  0  0  0  0  0
  -26.0740  -26.9510   19.5980 C   0  0  0  0  0  3  0  0  0  0  0  0
  -24.8640  -27.6760   19.6050 C   0  0  0  0  0  3  0  0  0  0  0  0
  -23.5810  -29.8060   20.2300 C   0  0  0  0  0  2  0  0  0  0  0  0
  -24.6360  -31.0980   22.1430 N   0  0  0  0  0  0  0  0  0  0  0  0
  -23.5060  -32.1770   23.7860 O   0  0  0  0  0  0  0  0  0  0  0  0
  -22.7180  -29.4810   22.5710 C   0  0  0  0  0  0  0  0  0  0  0  0
  -21.3920  -29.3090   22.4470 N   0  0  0  0  0  0  0  0  0  0  0  0
  -23.3980  -28.8520   23.3840 O   0  0  0  0  0  0  0  0  0  0  0  0
  -20.9040  -29.8690   21.7640 H   0  0  0  0  0  0  0  0  0  0  0  0
  -18.0110  -28.1390   22.9540 C   0  0  0  0  0  0  0  0  0  0  0  0
  -20.5710  -28.3770   23.2200 C   0  0  0  0  0  3  0  0  0  0  0  0
  -20.6610  -26.9450   22.6440 C   0  0  0  0  0  2  0  0  0  0  0  0
  -19.5550  -26.6300   21.6320 C   0  0  0  0  0  2  0  0  0  0  0  0
  -18.1770  -26.7880   22.2810 C   0  0  0  0  0  2  0  0  0  0  0  0
  -19.1360  -28.8930   23.3800 C   0  0  0  0  0  0  0  0  0  0  0  0
  -18.9290  -30.1590   23.9680 C   0  0  0  0  0  3  0  0  0  0  0  0
  -17.6290  -30.6720   24.1360 C   0  0  0  0  0  3  0  0  0  0  0  0
  -16.5180  -29.9150   23.7230 C   0  0  0  0  0  3  0  0  0  0  0  0
  -16.7090  -28.6500   23.1400 C   0  0  0  0  0  3  0  0  0  0  0  0
  -25.8760  -32.5270   23.8580 C   0  0  0  0  0  3  0  0  0  0  0  0
  -25.5740  -33.9260   24.1900 N   0  0  0  0  0  0  0  0  0  0  0  0
  -25.9090  -34.9750   23.4280 C   0  0  0  0  0  0  0  0  0  0  0  0
  -26.5760  -34.8690   22.3960 O   0  0  0  0  0  0  0  0  0  0  0  0
  -24.9810  -34.0820   24.9920 H   0  0  0  0  0  0  0  0  0  0  0  0
  -24.1860  -36.7720   23.0720 C   0  0  0  0  0  1  0  0  0  0  0  0
  -25.4250  -36.3640   23.8840 C   0  0  0  0  0  3  0  0  0  0  0  0
  -27.5650  -37.2400   24.7130 C   0  0  0  0  0  1  0  0  0  0  0  0
  -26.4610  -37.4140   23.7720 N   0  0  0  0  0  0  0  0  0  0  0  0
  -26.0580  -38.3340   23.9250 H   0  0  0  0  0  0  0  0  0  0  0  0
  -26.4000  -31.7510   25.1280 C   0  0  1  0  0  0  0  0  0  0  0  0
  -25.3130  -31.5150   26.2020 C   0  0  0  0  0  1  0  0  0  0  0  0
  -26.9770  -30.3730   24.7260 C   0  0  0  0  0  1  0  0  0  0  0  0
  -27.5590  -32.5390   25.7830 C   0  0  0  0  0  1  0  0  0  0  0  0
  1 47  1  0
  1  4  1  0
  2  1  1  0
  3  1  1  0
  5  7  1  0
  5  6  1  0
  6  8  1  0
  7  6  1  0
  7  4  1  0
  8 17  1  0
  9 17  1  0
 10 15  1  0
 11 12  1  0
 11 10  1  0
 13 12  1  0
 13 22  1  0
 13 14  1  0
 15  9  1  0
 15 14  1  0
 16  9  2  0
 17 18  1  0
 19 20  2  0
 20 39  1  0
 21 20  1  0
 21 24  1  0
 22 19  1  0
 22 23  1  0
 23 21  2  0
 24 25  1  0
 25 26  2  0
 27 30  1  0
 27 26  1  0
 28 27  2  0
 29 28  1  0
 29 24  2  0
 30 31  1  0
 31 32  1  0
 32 33  2  0
 34 33  1  0
 34 38  1  0
 35 34  2  0
 36 31  2  0
 36 35  1  0
 37 36  1  0
 39 40  1  0
 40 43  1  0
 40 42  1  0
 41 39  2  0
 44 45  1  0
 44 19  1  0
 46 44  1  0
 48 47  1  0
 48 49  1  0
 50 49  1  0
 51 53  1  0
 51 50  1  0
 52 63  2  0
 53 58  1  0
 54 62  1  0
 54 64  1  0
 55 61  1  0
 55 57  1  0
 56 62  1  0
 57 56  1  0
 58 57  2  0
 59 60  1  0
 59 53  2  0
 60 55  2  0
 61 54  1  0
 62 52  1  0
 64 66  2  0
 65 64  1  0
 67 65  1  0
 68 77  2  0
 68 73  1  0
 69 65  1  0
 69 73  1  0
 70 69  1  0
 71 72  1  0
 71 70  1  0
 72 68  1  0
 73 74  2  0
 74 75  1  0
 76 75  2  0
 77 76  1  0
 78 52  1  0
 78 79  1  0
 78 88  1  0
 79 82  1  0
 80 84  1  0
 80 79  1  0
 81 80  2  0
 84 83  1  0
 86 84  1  0
 86 87  1  0
 86 85  1  0
 88 91  1  1
 88 89  1  0
 90 88  1  0
M  ISO  4   9 100  17 100  50 101  51 101
M  END
>  <TORSDO>  (40) 
F 23

>  <SCORE>  (40) 
-12.855

>  <name>  (40) 
40

>  <ligand_id>  (40) 
40

>  <original_smiles>  (40) 
[H]c1c([H])c([H])c2c(c1[H])C([H])([H])C([H])([H])C([H])([H])C2([H])N([H])C(=O)C1([H])N(C(=O)C([H])(N([H])C(=O)C([H])(N([H])C([H])([H])[H])C([H])([H])[H])C(C([H])([H])[H])(C([H])([H])[H])C([H])([H])[H])C([H])([H])c2c([H])c(OC([H])([H])C([H])([H])C([H])([H])C([H])([H])[N+]([H])([H])C([H])([H])C3([H])C([H])([H])C3([H])C([H])([H])N([H])C(=O)N3C([H])([H])C([H])([H])C([H])([H])C([H])(n4nc(-c5c([H])c([H])c(Oc6c([H])c([H])c(F)c([H])c6F)c([H])c5[H])c(C(=O)N([H])[H])c4N([H])[H])C3([H])[H])c([H])c([H])c2C1([H])[H]

>  <smiles>  (40) 
[H]c1c([H])c([H])c2c(c1[H])C([H])([H])C([H])([H])C([H])([H])C2([H])N([H])C(=O)C1([H])N(C(=O)C([H])(N([H])C(=O)C([H])(N([H])C([H])([H])[H])C([H])([H])[H])C(C([H])([H])[H])(C([H])([H])[H])C([H])([H])[H])C([H])([H])c2c([H])c(OC([H])([H])C([H])([H])C([H])([H])C([H])([H])[N+]([H])([H])C([H])([H])C3([H])C([H])([H])C3([H])C([H])([H])N([H])C(=O)N3C([H])([H])C([H])([H])C([H])([H])C([H])(n4nc(-c5c([H])c([H])c(Oc6c([H])c([H])c(F)c([H])c6F)c([H])c5[H])c(C(=O)N([H])[H])c4N([H])[H])C3([H])[H])c([H])c([H])c2C1([H])[H]

$$$$
41:0:0
     RDKit          3D

 94102  0  0  1  0  0  0  0  0999 V2000
  -32.2660  -20.8220   17.9100 C   0  0  0  0  0  2  0  0  0  0  0  0
  -29.4130  -19.1320   19.8790 C   0  0  0  0  0  2  0  0  0  0  0  0
  -30.4540  -17.4440   18.2740 C   0  0  0  0  0  2  0  0  0  0  0  0
  -30.6290  -20.0440   19.6110 C   0  0  0  0  0  2  0  0  0  0  0  0
  -31.6400  -18.4210   18.1020 C   0  0  0  0  0  2  0  0  0  0  0  0
  -29.6660  -17.6330   19.5970 C   0  0  0  0  0  3  0  0  0  0  0  0
  -31.2030  -19.8330   18.2600 N   0  0  2  0  0  4  0  0  0  0  0  0
  -30.4720  -19.9760   17.5800 H   0  0  0  0  0  0  0  0  0  0  0  0
  -30.6950  -14.5360   20.6270 C   0  0  0  0  0  0  0  0  0  0  0  0
  -30.3880  -12.4020   19.4660 C   0  0  0  0  0  2  0  0  0  0  0  0
  -29.4680  -12.6380   18.2490 C   0  0  0  0  0  2  0  0  0  0  0  0
  -27.9790  -12.5110   18.6420 C   0  0  0  0  0  2  0  0  0  0  0  0
  -27.6220  -13.3210   19.9170 C   0  0  0  0  0  3  0  0  0  0  0  0
  -28.6650  -13.0990   21.0390 C   0  0  0  0  0  2  0  0  0  0  0  0
  -30.0020  -13.3800   20.4880 N   0  0  0  0  0  0  0  0  0  0  0  0
  -31.8680  -14.6560   20.2590 O   0  0  0  0  0  0  0  0  0  0  0  0
  -30.3410  -16.8700   20.7510 C   0  0  0  0  0  0  0  0  0  0  0  0
  -29.9370  -15.6020   20.9230 N   0  0  0  0  0  0  0  0  0  0  0  0
  -31.2440  -17.3960   21.4070 O   0  0  0  0  0  0  0  0  0  0  0  0
  -28.9520  -15.4090   20.8320 H   0  0  0  0  0  0  0  0  0  0  0  0
  -25.1970  -13.9110   20.5570 C   0  0  0  0  0  0  0  0  0  0  0  0
  -24.1260  -13.1300   20.9060 C   0  0  0  0  0  0  0  0  0  0  0  0
  -24.5950  -11.7820   20.8860 C   0  0  0  0  0  0  0  0  0  0  0  0
  -26.2560  -13.0370   20.3620 N   0  0  0  0  0  0  0  0  0  0  0  0
  -25.8940  -11.7510   20.6110 N   0  0  0  0  0  0  0  0  0  0  0  0
  -23.8700  -10.5150   21.0570 C   0  0  0  0  0  0  0  0  0  0  0  0
  -24.2810   -9.5520   22.0060 C   0  0  0  0  0  3  0  0  0  0  0  0
  -23.5580   -8.3510   22.1680 C   0  0  0  0  0  3  0  0  0  0  0  0
  -22.4080   -8.1040   21.3830 C   0  0  0  0  0  0  0  0  0  0  0  0
  -22.0120   -9.0580   20.4270 C   0  0  0  0  0  3  0  0  0  0  0  0
  -22.7370  -10.2510   20.2620 C   0  0  0  0  0  3  0  0  0  0  0  0
  -21.6590   -6.9530   21.4520 O   0  0  0  0  0  0  0  0  0  0  0  0
  -21.5760   -6.2140   22.6040 C   0  0  0  0  0  0  0  0  0  0  0  0
  -21.0930   -6.7690   23.8090 C   0  0  0  0  0  3  0  0  0  0  0  0
  -20.9650   -5.9570   24.9550 C   0  0  0  0  0  3  0  0  0  0  0  0
  -21.3050   -4.5910   24.8910 C   0  0  0  0  0  0  0  0  0  0  0  0
  -21.7800   -4.0370   23.6900 C   0  0  0  0  0  3  0  0  0  0  0  0
  -21.9120   -4.8450   22.5490 C   0  0  0  0  0  0  0  0  0  0  0  0
  -22.3490   -4.3020   21.3860 F   0  0  0  0  0  0  0  0  0  0  0  0
  -21.1720   -3.8080   25.9860 F   0  0  0  0  0  0  0  0  0  0  0  0
  -22.7200  -13.5990   21.1460 C   0  0  0  0  0  0  0  0  0  0  0  0
  -21.9760  -12.8900   21.9890 N   0  0  0  0  0  0  0  0  0  0  0  0
  -22.2880  -14.6250   20.6230 O   0  0  0  0  0  0  0  0  0  0  0  0
  -22.3350  -12.0490   22.4160 H   0  0  0  0  0  0  0  0  0  0  0  0
  -21.0340  -13.1850   22.2030 H   0  0  0  0  0  0  0  0  0  0  0  0
  -25.3480  -15.2820   20.3650 N   0  0  0  0  0  0  0  0  0  0  0  0
  -24.5570  -15.9140   20.4090 H   0  0  0  0  0  0  0  0  0  0  0  0
  -26.1730  -15.7110   19.9670 H   0  0  0  0  0  0  0  0  0  0  0  0
  -31.7050  -22.1820   17.4280 C   0  0  0  0  0  2  0  0  0  0  0  0
  -31.5530  -23.2760   18.5100 C   0  0  0  0  0  2  0  0  0  0  0  0
  -30.3160  -24.1450   18.2360 C   0  0  0  0  0  2  0  0  0  0  0  0
  -30.0220  -25.1990   19.3130 C   0  0  0  0  0  2  0  0  0  0  0  0
  -28.6000  -25.7560   19.1660 C   0  0  0  0  0  2  0  0  0  0  0  0
  -28.4110  -26.8040   20.1060 O   0  0  0  0  0  0  0  0  0  0  0  0
  -24.5420  -31.8590   23.2210 C   0  0  0  0  0  0  0  0  0  0  0  0
  -27.2020  -27.4640   20.1080 C   0  0  0  0  0  0  0  0  0  0  0  0
  -23.3350  -30.4650   21.5730 C   0  0  0  0  0  3  0  0  0  0  0  0
  -24.7900  -28.9380   20.1420 C   0  0  0  0  0  0  0  0  0  0  0  0
  -25.8550  -30.8380   21.3670 C   0  0  0  0  0  2  0  0  0  0  0  0
  -25.9460  -29.4680   20.7320 C   0  0  0  0  0  0  0  0  0  0  0  0
  -27.1450  -28.7310   20.7240 C   0  0  0  0  0  3  0  0  0  0  0  0
  -26.0240  -26.9350   19.5250 C   0  0  0  0  0  3  0  0  0  0  0  0
  -24.8210  -27.6670   19.5460 C   0  0  0  0  0  3  0  0  0  0  0  0
  -23.5420  -29.7890   20.1920 C   0  0  0  0  0  2  0  0  0  0  0  0
  -24.5970  -31.0650   22.1150 N   0  0  0  0  0  0  0  0  0  0  0  0
  -23.4600  -32.1290   23.7610 O   0  0  0  0  0  0  0  0  0  0  0  0
  -22.6860  -29.4370   22.5260 C   0  0  0  0  0  0  0  0  0  0  0  0
  -21.3610  -29.2590   22.3960 N   0  0  0  0  0  0  0  0  0  0  0  0
  -23.3720  -28.8020   23.3340 O   0  0  0  0  0  0  0  0  0  0  0  0
  -20.8760  -29.8130   21.7040 H   0  0  0  0  0  0  0  0  0  0  0  0
  -17.9790  -28.1060   22.8990 C   0  0  0  0  0  0  0  0  0  0  0  0
  -20.5400  -28.3220   23.1610 C   0  0  0  0  0  3  0  0  0  0  0  0
  -20.6220  -26.9010   22.5570 C   0  0  0  0  0  2  0  0  0  0  0  0
  -19.5090  -26.6090   21.5460 C   0  0  0  0  0  2  0  0  0  0  0  0
  -18.1330  -26.7670   22.1970 C   0  0  0  0  0  2  0  0  0  0  0  0
  -19.1100  -28.8440   23.3350 C   0  0  0  0  0  0  0  0  0  0  0  0
  -18.9160  -30.1020   23.9450 C   0  0  0  0  0  3  0  0  0  0  0  0
  -17.6200  -30.6200   24.1280 C   0  0  0  0  0  3  0  0  0  0  0  0
  -16.5010  -29.8750   23.7150 C   0  0  0  0  0  3  0  0  0  0  0  0
  -16.6810  -28.6210   23.1060 C   0  0  0  0  0  3  0  0  0  0  0  0
  -25.8300  -32.4840   23.8430 C   0  0  0  0  0  3  0  0  0  0  0  0
  -25.5270  -33.8800   24.1780 N   0  0  0  0  0  0  0  0  0  0  0  0
  -25.8610  -34.9330   23.4200 C   0  0  0  0  0  0  0  0  0  0  0  0
  -26.5310  -34.8280   22.3880 O   0  0  0  0  0  0  0  0  0  0  0  0
  -24.9360  -34.0340   24.9830 H   0  0  0  0  0  0  0  0  0  0  0  0
  -24.1390  -36.7270   23.0530 C   0  0  0  0  0  1  0  0  0  0  0  0
  -25.3700  -36.3200   23.8770 C   0  0  0  0  0  3  0  0  0  0  0  0
  -27.4970  -37.1930   24.7360 C   0  0  0  0  0  1  0  0  0  0  0  0
  -26.4070  -37.3700   23.7820 N   0  0  0  0  0  0  0  0  0  0  0  0
  -26.0010  -38.2920   23.9280 H   0  0  0  0  0  0  0  0  0  0  0  0
  -26.3480  -31.7030   25.1120 C   0  0  1  0  0  0  0  0  0  0  0  0
  -25.2530  -31.4560   26.1750 C   0  0  0  0  0  1  0  0  0  0  0  0
  -26.9310  -30.3300   24.7030 C   0  0  0  0  0  1  0  0  0  0  0  0
  -27.4980  -32.4930   25.7800 C   0  0  0  0  0  1  0  0  0  0  0  0
  1  7  1  0
  3  6  1  0
  4  2  1  0
  5  7  1  0
  5  3  1  0
  6  2  1  0
  6 17  1  0
  7  4  1  0
  7  8  1  6
  9 18  1  0
 10 15  1  0
 11 12  1  0
 11 10  1  0
 13 12  1  0
 13 24  1  0
 13 14  1  0
 15  9  1  0
 15 14  1  0
 16  9  2  0
 17 18  1  0
 17 19  2  0
 20 18  1  0
 21 22  2  0
 22 41  1  0
 23 22  1  0
 23 26  1  0
 24 21  1  0
 24 25  1  0
 25 23  2  0
 26 27  1  0
 27 28  2  0
 29 32  1  0
 29 28  1  0
 30 29  2  0
 31 30  1  0
 31 26  2  0
 32 33  1  0
 33 34  1  0
 34 35  2  0
 36 35  1  0
 36 40  1  0
 37 36  2  0
 38 33  2  0
 38 37  1  0
 39 38  1  0
 41 42  1  0
 42 45  1  0
 42 44  1  0
 43 41  2  0
 46 47  1  0
 46 21  1  0
 48 46  1  0
 49  1  1  0
 49 50  1  0
 51 50  1  0
 51 52  1  0
 53 52  1  0
 53 54  1  0
 54 56  1  0
 55 66  2  0
 56 61  1  0
 57 65  1  0
 57 67  1  0
 58 64  1  0
 58 60  1  0
 59 65  1  0
 60 59  1  0
 61 60  2  0
 62 63  1  0
 62 56  2  0
 63 58  2  0
 64 57  1  0
 65 55  1  0
 67 69  2  0
 68 67  1  0
 70 68  1  0
 71 80  2  0
 71 76  1  0
 72 68  1  0
 72 76  1  0
 73 72  1  0
 74 75  1  0
 74 73  1  0
 75 71  1  0
 76 77  2  0
 77 78  1  0
 79 78  2  0
 80 79  1  0
 81 55  1  0
 81 82  1  0
 81 91  1  0
 82 85  1  0
 83 87  1  0
 83 82  1  0
 84 83  2  0
 87 86  1  0
 89 87  1  0
 89 90  1  0
 89 88  1  0
 91 94  1  1
 91 92  1  0
 93 91  1  0
M  ISO  4   9 100  18 100  53 101  54 101
M  END
>  <TORSDO>  (41) 
F 22

>  <SCORE>  (41) 
-13.056

>  <name>  (41) 
41

>  <ligand_id>  (41) 
41

>  <original_smiles>  (41) 
[H]c1c([H])c([H])c2c(c1[H])C([H])([H])C([H])([H])C([H])([H])C2([H])N([H])C(=O)C1([H])N(C(=O)C([H])(N([H])C(=O)C([H])(N([H])C([H])([H])[H])C([H])([H])[H])C(C([H])([H])[H])(C([H])([H])[H])C([H])([H])[H])C([H])([H])c2c([H])c(OC([H])([H])C([H])([H])C([H])([H])C([H])([H])C([H])([H])C([H])([H])[N+]3([H])C([H])([H])C([H])([H])C([H])(C(=O)N([H])C(=O)N4C([H])([H])C([H])([H])C([H])([H])C([H])(n5nc(-c6c([H])c([H])c(Oc7c([H])c([H])c(F)c([H])c7F)c([H])c6[H])c(C(=O)N([H])[H])c5N([H])[H])C4([H])[H])C([H])([H])C3([H])[H])c([H])c([H])c2C1([H])[H]

>  <smiles>  (41) 
[H]c1c([H])c([H])c2c(c1[H])C([H])([H])C([H])([H])C([H])([H])C2([H])N([H])C(=O)C1([H])N(C(=O)C([H])(N([H])C(=O)C([H])(N([H])C([H])([H])[H])C([H])([H])[H])C(C([H])([H])[H])(C([H])([H])[H])C([H])([H])[H])C([H])([H])c2c([H])c(OC([H])([H])C([H])([H])C([H])([H])C([H])([H])C([H])([H])C([H])([H])[N+]3([H])C([H])([H])C([H])([H])C([H])(C(=O)N([H])C(=O)N4C([H])([H])C([H])([H])C([H])([H])C([H])(n5nc(-c6c([H])c([H])c(Oc7c([H])c([H])c(F)c([H])c7F)c([H])c6[H])c(C(=O)N([H])[H])c5N([H])[H])C4([H])[H])C([H])([H])C3([H])[H])c([H])c([H])c2C1([H])[H]

$$$$
42:0:0
     RDKit          3D

 95103  0  0  1  0  0  0  0  0999 V2000
  -30.1090  -20.0360   21.9010 C   0  0  0  0  0  0  0  0  0  0  0  0
  -30.4070  -21.0470   21.0690 N   0  0  0  0  0  0  0  0  0  0  0  0
  -29.6790  -20.2250   23.0410 O   0  0  0  0  0  0  0  0  0  0  0  0
  -30.7710  -20.8010   20.1570 H   0  0  0  0  0  0  0  0  0  0  0  0
  -30.9030  -14.6660   20.0680 C   0  0  0  0  0  0  0  0  0  0  0  0
  -30.4780  -12.5400   18.9100 C   0  0  0  0  0  2  0  0  0  0  0  0
  -29.4910  -12.7770   17.7500 C   0  0  0  0  0  2  0  0  0  0  0  0
  -28.0370  -12.6560   18.2470 C   0  0  0  0  0  2  0  0  0  0  0  0
  -27.7690  -13.4890   19.5290 C   0  0  0  0  0  3  0  0  0  0  0  0
  -28.8690  -13.2620   20.5890 C   0  0  0  0  0  2  0  0  0  0  0  0
  -30.1710  -13.5250   19.9580 N   0  0  0  0  0  0  0  0  0  0  0  0
  -32.0120  -14.8020   19.5410 O   0  0  0  0  0  0  0  0  0  0  0  0
  -29.5160  -18.1680   20.2610 C   0  0  0  0  0  2  0  0  0  0  0  0
  -29.9840  -16.8300   19.6500 C   0  0  0  0  0  2  0  0  0  0  0  0
  -30.8210  -16.1380   21.9330 C   0  0  0  0  0  2  0  0  0  0  0  0
  -30.4280  -18.6020   21.4150 C   0  0  0  0  0  3  0  0  0  0  0  0
  -30.3180  -17.4900   22.4920 C   0  0  0  0  0  3  0  0  0  0  0  0
  -30.2840  -15.7400   20.6150 N   0  0  0  0  0  0  0  0  0  0  0  0
  -25.4180  -14.1220   20.3580 C   0  0  0  0  0  0  0  0  0  0  0  0
  -24.3560  -13.3600   20.7650 C   0  0  0  0  0  0  0  0  0  0  0  0
  -24.7950  -12.0010   20.6940 C   0  0  0  0  0  0  0  0  0  0  0  0
  -26.4360  -13.2270   20.0690 N   0  0  0  0  0  0  0  0  0  0  0  0
  -26.0680  -11.9480   20.3280 N   0  0  0  0  0  0  0  0  0  0  0  0
  -24.0580  -10.7460   20.8960 C   0  0  0  0  0  0  0  0  0  0  0  0
  -24.4810   -9.7900   21.8450 C   0  0  0  0  0  3  0  0  0  0  0  0
  -23.7480   -8.5990   22.0360 C   0  0  0  0  0  3  0  0  0  0  0  0
  -22.5780   -8.3580   21.2770 C   0  0  0  0  0  0  0  0  0  0  0  0
  -22.1760   -9.3030   20.3160 C   0  0  0  0  0  3  0  0  0  0  0  0
  -22.9100  -10.4830   20.1240 C   0  0  0  0  0  3  0  0  0  0  0  0
  -21.8160   -7.2190   21.3760 O   0  0  0  0  0  0  0  0  0  0  0  0
  -21.6910   -6.5350   22.5580 C   0  0  0  0  0  0  0  0  0  0  0  0
  -21.1810   -7.1480   23.7250 C   0  0  0  0  0  3  0  0  0  0  0  0
  -21.0080   -6.3890   24.8980 C   0  0  0  0  0  3  0  0  0  0  0  0
  -21.3320   -5.0200   24.9080 C   0  0  0  0  0  0  0  0  0  0  0  0
  -21.8350   -4.4080   23.7470 C   0  0  0  0  0  3  0  0  0  0  0  0
  -22.0120   -5.1630   22.5760 C   0  0  0  0  0  0  0  0  0  0  0  0
  -22.4760   -4.5630   21.4530 F   0  0  0  0  0  0  0  0  0  0  0  0
  -21.1590   -4.2880   26.0330 F   0  0  0  0  0  0  0  0  0  0  0  0
  -22.9800  -13.8510   21.1090 C   0  0  0  0  0  0  0  0  0  0  0  0
  -22.2870  -13.1590   22.0050 N   0  0  0  0  0  0  0  0  0  0  0  0
  -22.5290  -14.8850   20.6170 O   0  0  0  0  0  0  0  0  0  0  0  0
  -22.6640  -12.3230   22.4270 H   0  0  0  0  0  0  0  0  0  0  0  0
  -21.3650  -13.4690   22.2740 H   0  0  0  0  0  0  0  0  0  0  0  0
  -25.5990  -15.4920   20.1920 N   0  0  0  0  0  0  0  0  0  0  0  0
  -24.8580  -16.1660   20.3480 H   0  0  0  0  0  0  0  0  0  0  0  0
  -26.4520  -15.9140   19.8480 H   0  0  0  0  0  0  0  0  0  0  0  0
  -31.0190  -17.8120   23.7520 N   0  0  0  0  0  4  0  0  0  0  0  0
  -32.0170  -17.8030   23.6390 H   0  0  0  0  0  0  0  0  0  0  0  0
  -30.7710  -17.1580   24.4750 H   0  0  0  0  0  0  0  0  0  0  0  0
  -30.7330  -18.7310   24.0550 H   0  0  0  0  0  0  0  0  0  0  0  0
  -30.3590  -22.4770   21.3840 C   0  0  0  0  0  2  0  0  0  0  0  0
  -29.5350  -23.2640   20.3470 C   0  0  0  0  0  2  0  0  0  0  0  0
  -29.5550  -24.7910   20.5760 C   0  0  0  0  0  2  0  0  0  0  0  0
  -28.5440  -25.5360   19.6890 C   0  0  0  0  0  2  0  0  0  0  0  0
  -28.5160  -26.9310   20.0130 O   0  0  0  0  0  0  0  0  0  0  0  0
  -24.5370  -31.8970   23.1840 C   0  0  0  0  0  0  0  0  0  0  0  0
  -27.3030  -27.5970   20.0020 C   0  0  0  0  0  0  0  0  0  0  0  0
  -23.3640  -30.4910   21.5190 C   0  0  0  0  0  3  0  0  0  0  0  0
  -24.8570  -29.0270   20.0600 C   0  0  0  0  0  0  0  0  0  0  0  0
  -25.8770  -30.9280   21.3220 C   0  0  0  0  0  2  0  0  0  0  0  0
  -26.0010  -29.5730   20.6550 C   0  0  0  0  0  0  0  0  0  0  0  0
  -27.2220  -28.8620   20.6290 C   0  0  0  0  0  3  0  0  0  0  0  0
  -26.1390  -27.0750   19.3880 C   0  0  0  0  0  3  0  0  0  0  0  0
  -24.9200  -27.7740   19.4310 C   0  0  0  0  0  3  0  0  0  0  0  0
  -23.5880  -29.8460   20.1260 C   0  0  0  0  0  2  0  0  0  0  0  0
  -24.6100  -31.1200   22.0670 N   0  0  0  0  0  0  0  0  0  0  0  0
  -23.4500  -32.1260   23.7330 O   0  0  0  0  0  0  0  0  0  0  0  0
  -22.7500  -29.4320   22.4610 C   0  0  0  0  0  0  0  0  0  0  0  0
  -21.4380  -29.1870   22.3120 N   0  0  0  0  0  0  0  0  0  0  0  0
  -23.4510  -28.8330   23.2810 O   0  0  0  0  0  0  0  0  0  0  0  0
  -20.9300  -29.7270   21.6250 H   0  0  0  0  0  0  0  0  0  0  0  0
  -18.1260  -27.8040   22.7190 C   0  0  0  0  0  0  0  0  0  0  0  0
  -20.6560  -28.2060   23.0630 C   0  0  0  0  0  3  0  0  0  0  0  0
  -20.8560  -26.7810   22.4970 C   0  0  0  0  0  2  0  0  0  0  0  0
  -19.8050  -26.3960   21.4520 C   0  0  0  0  0  2  0  0  0  0  0  0
  -18.3980  -26.4660   22.0530 C   0  0  0  0  0  2  0  0  0  0  0  0
  -19.1870  -28.6280   23.1800 C   0  0  0  0  0  0  0  0  0  0  0  0
  -18.8820  -29.8790   23.7600 C   0  0  0  0  0  3  0  0  0  0  0  0
  -17.5480  -30.3070   23.8840 C   0  0  0  0  0  3  0  0  0  0  0  0
  -16.4990  -29.4810   23.4420 C   0  0  0  0  0  3  0  0  0  0  0  0
  -16.7900  -28.2320   22.8650 C   0  0  0  0  0  3  0  0  0  0  0  0
  -25.8070  -32.5530   23.8090 C   0  0  0  0  0  3  0  0  0  0  0  0
  -25.4640  -33.9380   24.1570 N   0  0  0  0  0  0  0  0  0  0  0  0
  -25.7570  -35.0060   23.4030 C   0  0  0  0  0  0  0  0  0  0  0  0
  -26.4170  -34.9320   22.3630 O   0  0  0  0  0  0  0  0  0  0  0  0
  -24.8770  -34.0670   24.9670 H   0  0  0  0  0  0  0  0  0  0  0  0
  -23.9680  -36.7440   23.0910 C   0  0  0  0  0  1  0  0  0  0  0  0
  -25.2340  -36.3740   23.8800 C   0  0  0  0  0  3  0  0  0  0  0  0
  -27.3530  -37.3190   24.6840 C   0  0  0  0  0  1  0  0  0  0  0  0
  -26.2300  -37.4600   23.7590 N   0  0  0  0  0  0  0  0  0  0  0  0
  -25.8000  -38.3660   23.9220 H   0  0  0  0  0  0  0  0  0  0  0  0
  -26.3500  -31.7780   25.0720 C   0  0  1  0  0  0  0  0  0  0  0  0
  -25.2640  -31.4830   26.1320 C   0  0  0  0  0  1  0  0  0  0  0  0
  -26.9830  -30.4310   24.6560 C   0  0  0  0  0  1  0  0  0  0  0  0
  -27.4690  -32.6030   25.7510 C   0  0  0  0  0  1  0  0  0  0  0  0
  1  3  2  0
  2 51  1  0
  2  1  1  0
  4  2  1  0
  5 18  1  0
  6 11  1  0
  7  8  1  0
  7  6  1  0
  9  8  1  0
  9 22  1  0
  9 10  1  0
 11  5  1  0
 11 10  1  0
 12  5  2  0
 13 16  1  0
 14 13  1  0
 14 18  1  0
 15 17  1  0
 16  1  1  0
 16 17  1  0
 17 47  1  0
 18 15  1  0
 19 20  2  0
 20 39  1  0
 21 20  1  0
 21 24  1  0
 22 23  1  0
 22 19  1  0
 23 21  2  0
 24 25  1  0
 25 26  2  0
 27 30  1  0
 27 26  1  0
 28 27  2  0
 29 28  1  0
 29 24  2  0
 30 31  1  0
 31 36  2  0
 31 32  1  0
 32 33  2  0
 33 34  1  0
 34 38  1  0
 35 34  2  0
 36 35  1  0
 37 36  1  0
 39 40  1  0
 40 43  1  0
 40 42  1  0
 41 39  2  0
 44 45  1  0
 44 19  1  0
 46 44  1  0
 47 50  1  0
 47 49  1  0
 48 47  1  0
 52 53  1  0
 52 51  1  0
 54 55  1  0
 54 53  1  0
 56 67  2  0
 57 55  1  0
 57 62  1  0
 58 66  1  0
 58 68  1  0
 59 65  1  0
 59 61  1  0
 60 66  1  0
 61 60  1  0
 62 61  2  0
 63 64  1  0
 63 57  2  0
 64 59  2  0
 65 58  1  0
 66 56  1  0
 68 70  2  0
 69 68  1  0
 71 69  1  0
 72 81  2  0
 72 77  1  0
 73 69  1  0
 73 77  1  0
 74 73  1  0
 75 76  1  0
 75 74  1  0
 76 72  1  0
 77 78  2  0
 78 79  1  0
 80 79  2  0
 81 80  1  0
 82 56  1  0
 82 83  1  0
 82 92  1  0
 83 86  1  0
 84 88  1  0
 84 83  1  0
 85 84  2  0
 88 87  1  0
 90 88  1  0
 90 91  1  0
 90 89  1  0
 92 95  1  1
 92 93  1  0
 94 92  1  0
M  ISO  4   5 100  18 100  54 101  55 101
M  END
>  <TORSDO>  (42) 
F 21

>  <SCORE>  (42) 
-12.346

>  <name>  (42) 
42

>  <ligand_id>  (42) 
42

>  <original_smiles>  (42) 
[H]c1c([H])c([H])c2c(c1[H])C([H])([H])C([H])([H])C([H])([H])C2([H])N([H])C(=O)C1([H])N(C(=O)C([H])(N([H])C(=O)C([H])(N([H])C([H])([H])[H])C([H])([H])[H])C(C([H])([H])[H])(C([H])([H])[H])C([H])([H])[H])C([H])([H])c2c([H])c(OC([H])([H])C([H])([H])C([H])([H])C([H])([H])N([H])C(=O)C3([H])C([H])([H])C([H])([H])N(C(=O)N4C([H])([H])C([H])([H])C([H])([H])C([H])(n5nc(-c6c([H])c([H])c(Oc7c([H])c([H])c(F)c([H])c7F)c([H])c6[H])c(C(=O)N([H])[H])c5N([H])[H])C4([H])[H])C([H])([H])C3([H])[N+]([H])([H])[H])c([H])c([H])c2C1([H])[H]

>  <smiles>  (42) 
[H]c1c([H])c([H])c2c(c1[H])C([H])([H])C([H])([H])C([H])([H])C2([H])N([H])C(=O)C1([H])N(C(=O)C([H])(N([H])C(=O)C([H])(N([H])C([H])([H])[H])C([H])([H])[H])C(C([H])([H])[H])(C([H])([H])[H])C([H])([H])[H])C([H])([H])c2c([H])c(OC([H])([H])C([H])([H])C([H])([H])C([H])([H])N([H])C(=O)C3([H])C([H])([H])C([H])([H])N(C(=O)N4C([H])([H])C([H])([H])C([H])([H])C([H])(n5nc(-c6c([H])c([H])c(Oc7c([H])c([H])c(F)c([H])c7F)c([H])c6[H])c(C(=O)N([H])[H])c5N([H])[H])C4([H])[H])C([H])([H])C3([H])[N+]([H])([H])[H])c([H])c([H])c2C1([H])[H]

$$$$
43:0:0
     RDKit          3D

 95103  0  0  1  0  0  0  0  0999 V2000
  -30.5690  -22.4700   23.9740 C   0  0  0  0  0  2  0  0  0  0  0  0
  -30.2450  -23.1550   22.6980 N   0  0  0  0  0  4  0  0  0  0  0  0
  -29.4820  -22.6740   22.2490 H   0  0  0  0  0  0  0  0  0  0  0  0
  -31.0480  -23.1090   22.0880 H   0  0  0  0  0  0  0  0  0  0  0  0
  -29.8560  -24.5780   22.8200 C   0  0  0  0  0  2  0  0  0  0  0  0
  -29.3680  -25.1330   21.4670 C   0  0  0  0  0  2  0  0  0  0  0  0
  -28.9720  -26.6170   21.4850 C   0  0  0  0  0  2  0  0  0  0  0  0
  -28.4010  -26.9090   20.2110 O   0  0  0  0  0  0  0  0  0  0  0  0
  -24.5190  -32.0170   23.3040 C   0  0  0  0  0  0  0  0  0  0  0  0
  -27.2430  -27.6440   20.2390 C   0  0  0  0  0  0  0  0  0  0  0  0
  -23.3390  -30.6040   21.6490 C   0  0  0  0  0  3  0  0  0  0  0  0
  -24.8220  -29.0880   20.2310 C   0  0  0  0  0  0  0  0  0  0  0  0
  -25.8550  -31.0040   21.4650 C   0  0  0  0  0  2  0  0  0  0  0  0
  -25.9630  -29.6330   20.8350 C   0  0  0  0  0  0  0  0  0  0  0  0
  -27.1750  -28.9150   20.8480 C   0  0  0  0  0  3  0  0  0  0  0  0
  -26.0970  -27.1100   19.6180 C   0  0  0  0  0  3  0  0  0  0  0  0
  -24.8810  -27.8220   19.6190 C   0  0  0  0  0  3  0  0  0  0  0  0
  -23.5650  -29.9280   20.2680 C   0  0  0  0  0  2  0  0  0  0  0  0
  -24.5880  -31.2220   22.1990 N   0  0  0  0  0  0  0  0  0  0  0  0
  -23.4320  -32.2770   23.8390 O   0  0  0  0  0  0  0  0  0  0  0  0
  -22.6940  -29.5740   22.6030 C   0  0  0  0  0  0  0  0  0  0  0  0
  -21.3760  -29.3660   22.4520 N   0  0  0  0  0  0  0  0  0  0  0  0
  -23.3750  -28.9640   23.4330 O   0  0  0  0  0  0  0  0  0  0  0  0
  -20.8880  -29.9110   21.7550 H   0  0  0  0  0  0  0  0  0  0  0  0
  -18.0170  -28.1060   22.8800 C   0  0  0  0  0  0  0  0  0  0  0  0
  -20.5620  -28.4160   23.2090 C   0  0  0  0  0  3  0  0  0  0  0  0
  -20.7070  -26.9850   22.6430 C   0  0  0  0  0  2  0  0  0  0  0  0
  -19.6350  -26.6330   21.6070 C   0  0  0  0  0  2  0  0  0  0  0  0
  -18.2360  -26.7550   22.2190 C   0  0  0  0  0  2  0  0  0  0  0  0
  -19.1110  -28.8920   23.3310 C   0  0  0  0  0  0  0  0  0  0  0  0
  -18.8560  -30.1560   23.9070 C   0  0  0  0  0  3  0  0  0  0  0  0
  -17.5390  -30.6340   24.0390 C   0  0  0  0  0  3  0  0  0  0  0  0
  -16.4580  -29.8430   23.6080 C   0  0  0  0  0  3  0  0  0  0  0  0
  -16.6980  -28.5820   23.0330 C   0  0  0  0  0  3  0  0  0  0  0  0
  -25.7960  -32.6580   23.9330 C   0  0  0  0  0  3  0  0  0  0  0  0
  -25.4890  -34.0630   24.2250 N   0  0  0  0  0  0  0  0  0  0  0  0
  -25.8440  -35.0950   23.4450 C   0  0  0  0  0  0  0  0  0  0  0  0
  -26.5370  -34.9610   22.4330 O   0  0  0  0  0  0  0  0  0  0  0  0
  -24.8740  -34.2400   25.0060 H   0  0  0  0  0  0  0  0  0  0  0  0
  -24.1340  -36.8840   23.0070 C   0  0  0  0  0  1  0  0  0  0  0  0
  -25.3530  -36.4960   23.8570 C   0  0  0  0  0  3  0  0  0  0  0  0
  -27.4710  -37.3910   24.7170 C   0  0  0  0  0  1  0  0  0  0  0  0
  -26.3940  -37.5400   23.7430 N   0  0  0  0  0  0  0  0  0  0  0  0
  -25.9900  -38.4650   23.8570 H   0  0  0  0  0  0  0  0  0  0  0  0
  -26.2900  -31.9120   25.2320 C   0  0  1  0  0  0  0  0  0  0  0  0
  -25.1760  -31.6940   26.2840 C   0  0  0  0  0  1  0  0  0  0  0  0
  -26.8800  -30.5280   24.8730 C   0  0  0  0  0  1  0  0  0  0  0  0
  -27.4270  -32.7180   25.9000 C   0  0  0  0  0  1  0  0  0  0  0  0
  -31.1920  -21.0660   23.7630 C   0  0  0  0  0  2  0  0  0  0  0  0
  -30.2140  -19.9920   23.2310 C   0  0  0  0  0  2  0  0  0  0  0  0
  -30.9260  -18.7880   22.7170 N   0  0  0  0  0  4  0  0  0  0  0  0
  -31.6620  -19.1030   22.1050 H   0  0  0  0  0  0  0  0  0  0  0  0
  -31.3740  -18.3270   23.4940 H   0  0  0  0  0  0  0  0  0  0  0  0
  -31.0820  -14.4500   20.4230 C   0  0  0  0  0  0  0  0  0  0  0  0
  -30.7270  -12.2300   19.4350 C   0  0  0  0  0  2  0  0  0  0  0  0
  -29.8310  -12.3570   18.1870 C   0  0  0  0  0  2  0  0  0  0  0  0
  -28.3420  -12.2850   18.5790 C   0  0  0  0  0  2  0  0  0  0  0  0
  -27.9770  -13.2190   19.7640 C   0  0  0  0  0  3  0  0  0  0  0  0
  -29.0030  -13.1010   20.9170 C   0  0  0  0  0  2  0  0  0  0  0  0
  -30.3490  -13.3060   20.3590 N   0  0  0  0  0  0  0  0  0  0  0  0
  -32.2600  -14.5140   20.0600 O   0  0  0  0  0  0  0  0  0  0  0  0
  -28.8400  -17.2850   19.8140 C   0  0  0  0  0  2  0  0  0  0  0  0
  -29.4270  -18.3670   20.7200 C   0  0  0  0  0  2  0  0  0  0  0  0
  -29.9240  -16.2680   19.4600 C   0  0  0  0  0  2  0  0  0  0  0  0
  -31.0550  -16.5840   21.5620 C   0  0  0  0  0  2  0  0  0  0  0  0
  -30.1320  -17.7720   21.9660 C   0  0  0  0  0  3  0  0  0  0  0  0
  -30.4060  -15.5930   20.6760 N   0  0  0  0  0  0  0  0  0  0  0  0
  -25.5900  -13.9220   20.4120 C   0  0  0  0  0  0  0  0  0  0  0  0
  -24.4870  -13.1950   20.7660 C   0  0  0  0  0  0  0  0  0  0  0  0
  -24.8990  -11.8280   20.7580 C   0  0  0  0  0  0  0  0  0  0  0  0
  -26.6080  -13.0010   20.2190 N   0  0  0  0  0  0  0  0  0  0  0  0
  -26.1950  -11.7360   20.4860 N   0  0  0  0  0  0  0  0  0  0  0  0
  -24.1240  -10.5950   20.9400 C   0  0  0  0  0  0  0  0  0  0  0  0
  -24.5070   -9.6150   21.8810 C   0  0  0  0  0  3  0  0  0  0  0  0
  -23.7340   -8.4460   22.0500 C   0  0  0  0  0  3  0  0  0  0  0  0
  -22.5640   -8.2510   21.2780 C   0  0  0  0  0  0  0  0  0  0  0  0
  -22.2000   -9.2210   20.3270 C   0  0  0  0  0  3  0  0  0  0  0  0
  -22.9730  -10.3810   20.1560 C   0  0  0  0  0  3  0  0  0  0  0  0
  -21.7650   -7.1360   21.3580 O   0  0  0  0  0  0  0  0  0  0  0  0
  -21.6600   -6.4080   22.5160 C   0  0  0  0  0  0  0  0  0  0  0  0
  -21.2110   -6.9890   23.7230 C   0  0  0  0  0  3  0  0  0  0  0  0
  -21.0510   -6.1900   24.8720 C   0  0  0  0  0  3  0  0  0  0  0  0
  -21.3300   -4.8110   24.8150 C   0  0  0  0  0  0  0  0  0  0  0  0
  -21.7720   -4.2300   23.6130 C   0  0  0  0  0  3  0  0  0  0  0  0
  -21.9340   -5.0270   22.4660 C   0  0  0  0  0  0  0  0  0  0  0  0
  -22.3390   -4.4590   21.3050 F   0  0  0  0  0  0  0  0  0  0  0  0
  -21.1680   -4.0410   25.9160 F   0  0  0  0  0  0  0  0  0  0  0  0
  -23.1020  -13.7270   20.9980 C   0  0  0  0  0  0  0  0  0  0  0  0
  -22.3360  -13.0810   21.8670 N   0  0  0  0  0  0  0  0  0  0  0  0
  -22.7100  -14.7530   20.4430 O   0  0  0  0  0  0  0  0  0  0  0  0
  -22.6640  -12.2510   22.3390 H   0  0  0  0  0  0  0  0  0  0  0  0
  -21.4050  -13.4210   22.0660 H   0  0  0  0  0  0  0  0  0  0  0  0
  -25.8030  -15.2830   20.2190 N   0  0  0  0  0  0  0  0  0  0  0  0
  -25.0510  -15.9600   20.2940 H   0  0  0  0  0  0  0  0  0  0  0  0
  -26.6660  -15.6810   19.8720 H   0  0  0  0  0  0  0  0  0  0  0  0
  2  5  1  0
  2  1  1  0
  3  2  1  0
  4  2  1  0
  6  7  1  0
  6  5  1  0
  8 10  1  0
  8  7  1  0
  9 20  2  0
 10 15  1  0
 11 19  1  0
 11 21  1  0
 12 18  1  0
 12 14  1  0
 13 19  1  0
 14 15  2  0
 14 13  1  0
 16 17  1  0
 16 10  2  0
 17 12  2  0
 18 11  1  0
 19  9  1  0
 21 23  2  0
 22 21  1  0
 24 22  1  0
 25 34  2  0
 25 30  1  0
 26 22  1  0
 26 30  1  0
 27 26  1  0
 28 29  1  0
 28 27  1  0
 29 25  1  0
 30 31  2  0
 31 32  1  0
 33 32  2  0
 34 33  1  0
 35  9  1  0
 35 36  1  0
 35 45  1  0
 36 39  1  0
 37 41  1  0
 37 36  1  0
 38 37  2  0
 41 40  1  0
 43 41  1  0
 43 44  1  0
 43 42  1  0
 45 48  1  1
 45 46  1  0
 47 45  1  0
 49  1  1  0
 50 49  1  0
 51 50  1  0
 51 53  1  0
 52 51  1  0
 54 67  1  0
 55 60  1  0
 56 57  1  0
 56 55  1  0
 58 57  1  0
 58 71  1  0
 58 59  1  0
 60 54  1  0
 60 59  1  0
 61 54  2  0
 62 63  1  0
 63 66  1  0
 64 62  1  0
 64 67  1  0
 65 66  1  0
 66 51  1  0
 67 65  1  0
 68 69  2  0
 69 88  1  0
 70 69  1  0
 70 73  1  0
 71 68  1  0
 71 72  1  0
 72 70  2  0
 73 74  1  0
 74 75  2  0
 76 79  1  0
 76 75  1  0
 77 76  2  0
 78 77  1  0
 78 73  2  0
 79 80  1  0
 80 81  1  0
 81 82  2  0
 83 82  1  0
 83 87  1  0
 84 83  2  0
 85 80  2  0
 85 84  1  0
 86 85  1  0
 88 89  1  0
 89 92  1  0
 89 91  1  0
 90 88  2  0
 93 94  1  0
 93 68  1  0
 95 93  1  0
M  ISO  4   7 101   8 101  54 100  67 100
M  END
>  <TORSDO>  (43) 
F 23

>  <SCORE>  (43) 
-12.324

>  <name>  (43) 
43

>  <ligand_id>  (43) 
43

>  <original_smiles>  (43) 
[H]c1c([H])c([H])c2c(c1[H])C([H])([H])C([H])([H])C([H])([H])C2([H])N([H])C(=O)C1([H])N(C(=O)C([H])(N([H])C(=O)C([H])(N([H])C([H])([H])[H])C([H])([H])[H])C(C([H])([H])[H])(C([H])([H])[H])C([H])([H])[H])C([H])([H])c2c([H])c(OC([H])([H])C([H])([H])C([H])([H])[N+]([H])([H])C([H])([H])C([H])([H])C([H])([H])[N+]([H])([H])C3([H])C([H])([H])N(C(=O)N4C([H])([H])C([H])([H])C([H])([H])C([H])(n5nc(-c6c([H])c([H])c(Oc7c([H])c([H])c(F)c([H])c7F)c([H])c6[H])c(C(=O)N([H])[H])c5N([H])[H])C4([H])[H])C([H])([H])C([H])([H])C3([H])[H])c([H])c([H])c2C1([H])[H]

>  <smiles>  (43) 
[H]c1c([H])c([H])c2c(c1[H])C([H])([H])C([H])([H])C([H])([H])C2([H])N([H])C(=O)C1([H])N(C(=O)C([H])(N([H])C(=O)C([H])(N([H])C([H])([H])[H])C([H])([H])[H])C(C([H])([H])[H])(C([H])([H])[H])C([H])([H])[H])C([H])([H])c2c([H])c(OC([H])([H])C([H])([H])C([H])([H])[N+]([H])([H])C([H])([H])C([H])([H])C([H])([H])[N+]([H])([H])C3([H])C([H])([H])N(C(=O)N4C([H])([H])C([H])([H])C([H])([H])C([H])(n5nc(-c6c([H])c([H])c(Oc7c([H])c([H])c(F)c([H])c7F)c([H])c6[H])c(C(=O)N([H])[H])c5N([H])[H])C4([H])[H])C([H])([H])C([H])([H])C3([H])[H])c([H])c([H])c2C1([H])[H]

$$$$
44:0:0
     RDKit          3D

100109  0  0  1  0  0  0  0  0999 V2000
  -26.1360  -23.0990   15.5600 C   0  0  0  0  0  2  0  0  0  0  0  0
  -26.4930  -21.6200   15.7560 C   0  0  0  0  0  2  0  0  0  0  0  0
  -27.4110  -23.9530   15.5400 C   0  0  0  0  0  2  0  0  0  0  0  0
  -28.5250  -22.3800   17.0710 C   0  0  0  0  0  2  0  0  0  0  0  0
  -27.3120  -21.4070   17.0460 C   0  0  0  0  0  3  0  0  0  0  0  0
  -28.1620  -23.7950   16.8090 N   0  0  1  0  0  4  0  0  0  0  0  0
  -27.5330  -24.0570   17.5480 H   0  0  0  0  0  0  0  0  0  0  0  0
  -27.8280  -19.9530   17.2290 C   0  0  0  0  0  2  0  0  0  0  0  0
  -26.9770  -18.7680   16.6790 C   0  0  0  0  0  2  0  0  0  0  0  0
  -28.8330  -17.2110   17.4410 C   0  0  0  0  0  3  0  0  0  0  0  0
  -27.6900  -16.6870   15.3500 C   0  0  0  0  0  3  0  0  0  0  0  0
  -29.6630  -15.4170   16.0210 C   0  0  0  0  0  3  0  0  0  0  0  0
  -27.8240  -17.5060   16.5000 C   0  0  0  0  0  0  0  0  0  0  0  0
  -29.7650  -16.1860   17.2080 C   0  0  0  0  0  0  0  0  0  0  0  0
  -28.6200  -15.6560   15.1060 C   0  0  0  0  0  0  0  0  0  0  0  0
  -28.5370  -14.9140   13.9750 F   0  0  0  0  0  0  0  0  0  0  0  0
  -32.0760  -15.2380   17.6710 C   0  0  0  0  0  1  0  0  0  0  0  0
  -30.8360  -15.9600   18.2690 C   0  0  0  0  0  3  0  0  0  0  0  0
  -30.7590  -14.4390   20.2830 C   0  0  0  0  0  0  0  0  0  0  0  0
  -30.3860  -12.2010   19.4770 C   0  0  0  0  0  2  0  0  0  0  0  0
  -29.4990  -12.3510   18.2280 C   0  0  0  0  0  2  0  0  0  0  0  0
  -28.0150  -12.2610   18.6380 C   0  0  0  0  0  2  0  0  0  0  0  0
  -27.6460  -13.2000   19.8210 C   0  0  0  0  0  3  0  0  0  0  0  0
  -28.6960  -13.1660   20.9580 C   0  0  0  0  0  2  0  0  0  0  0  0
  -30.0380  -13.3010   20.3780 N   0  0  0  0  0  0  0  0  0  0  0  0
  -31.9710  -14.5020   20.4560 O   0  0  0  0  0  0  0  0  0  0  0  0
  -30.1940  -15.3000   19.4270 N   0  0  0  0  0  0  0  0  0  0  0  0
  -29.1870  -15.2540   19.3710 H   0  0  0  0  0  0  0  0  0  0  0  0
  -25.2560  -13.8160   20.5520 C   0  0  0  0  0  0  0  0  0  0  0  0
  -24.1820  -13.0410   20.9130 C   0  0  0  0  0  0  0  0  0  0  0  0
  -24.6390  -11.6880   20.8710 C   0  0  0  0  0  0  0  0  0  0  0  0
  -26.2960  -12.9300   20.3170 N   0  0  0  0  0  0  0  0  0  0  0  0
  -25.9330  -11.6490   20.5790 N   0  0  0  0  0  0  0  0  0  0  0  0
  -23.9070  -10.4250   21.0360 C   0  0  0  0  0  0  0  0  0  0  0  0
  -24.3640   -9.4140   21.9130 C   0  0  0  0  0  3  0  0  0  0  0  0
  -23.6300   -8.2210   22.0770 C   0  0  0  0  0  3  0  0  0  0  0  0
  -22.4270   -8.0230   21.3570 C   0  0  0  0  0  0  0  0  0  0  0  0
  -21.9880   -9.0210   20.4700 C   0  0  0  0  0  3  0  0  0  0  0  0
  -22.7230  -10.2090   20.3050 C   0  0  0  0  0  3  0  0  0  0  0  0
  -21.6690   -6.8790   21.4240 O   0  0  0  0  0  0  0  0  0  0  0  0
  -21.6880   -6.0660   22.5290 C   0  0  0  0  0  0  0  0  0  0  0  0
  -21.3950   -6.5570   23.8210 C   0  0  0  0  0  3  0  0  0  0  0  0
  -21.3680   -5.6770   24.9220 C   0  0  0  0  0  3  0  0  0  0  0  0
  -21.6070   -4.3030   24.7300 C   0  0  0  0  0  0  0  0  0  0  0  0
  -21.8810   -3.8100   23.4430 C   0  0  0  0  0  3  0  0  0  0  0  0
  -21.9190   -4.6880   22.3450 C   0  0  0  0  0  0  0  0  0  0  0  0
  -22.1600   -4.2010   21.1050 F   0  0  0  0  0  0  0  0  0  0  0  0
  -21.5730   -3.4530   25.7840 F   0  0  0  0  0  0  0  0  0  0  0  0
  -22.7870  -13.5220   21.1880 C   0  0  0  0  0  0  0  0  0  0  0  0
  -22.0640  -12.8120   22.0460 N   0  0  0  0  0  0  0  0  0  0  0  0
  -22.3500  -14.5550   20.6840 O   0  0  0  0  0  0  0  0  0  0  0  0
  -22.4300  -11.9640   22.4500 H   0  0  0  0  0  0  0  0  0  0  0  0
  -21.1390  -13.1200   22.3080 H   0  0  0  0  0  0  0  0  0  0  0  0
  -25.4400  -15.1870   20.3860 N   0  0  0  0  0  0  0  0  0  0  0  0
  -24.6880  -15.8620   20.4760 H   0  0  0  0  0  0  0  0  0  0  0  0
  -26.3250  -15.6210   20.1480 H   0  0  0  0  0  0  0  0  0  0  0  0
  -29.3210  -24.7220   16.9240 C   0  0  0  0  0  2  0  0  0  0  0  0
  -28.9730  -25.9910   17.7260 C   0  0  0  0  0  2  0  0  0  0  0  0
  -28.6470  -25.6600   19.2020 C   0  0  0  0  0  2  0  0  0  0  0  0
  -28.4610  -26.8080   20.0290 O   0  0  0  0  0  0  0  0  0  0  0  0
  -24.6130  -31.8690   23.2260 C   0  0  0  0  0  0  0  0  0  0  0  0
  -27.2450  -27.4590   20.0590 C   0  0  0  0  0  0  0  0  0  0  0  0
  -23.4010  -30.4970   21.5540 C   0  0  0  0  0  3  0  0  0  0  0  0
  -24.8460  -28.9630   20.1160 C   0  0  0  0  0  0  0  0  0  0  0  0
  -25.9360  -30.8170   21.3960 C   0  0  0  0  0  2  0  0  0  0  0  0
  -26.0010  -29.4590   20.7330 C   0  0  0  0  0  0  0  0  0  0  0  0
  -27.1890  -28.7020   20.7250 C   0  0  0  0  0  3  0  0  0  0  0  0
  -26.0640  -26.9650   19.4570 C   0  0  0  0  0  3  0  0  0  0  0  0
  -24.8720  -27.7100   19.4820 C   0  0  0  0  0  3  0  0  0  0  0  0
  -23.6170  -29.8380   20.1620 C   0  0  0  0  0  2  0  0  0  0  0  0
  -24.6670  -31.0790   22.1140 N   0  0  0  0  0  0  0  0  0  0  0  0
  -23.5320  -32.1380   23.7660 O   0  0  0  0  0  0  0  0  0  0  0  0
  -22.7400  -29.4680   22.4960 C   0  0  0  0  0  0  0  0  0  0  0  0
  -21.4130  -29.3050   22.3750 N   0  0  0  0  0  0  0  0  0  0  0  0
  -23.4180  -28.8180   23.2960 O   0  0  0  0  0  0  0  0  0  0  0  0
  -20.9270  -29.8810   21.7030 H   0  0  0  0  0  0  0  0  0  0  0  0
  -18.0240  -28.1330   22.8520 C   0  0  0  0  0  0  0  0  0  0  0  0
  -20.5850  -28.3630   23.1300 C   0  0  0  0  0  3  0  0  0  0  0  0
  -20.6770  -26.9370   22.5400 C   0  0  0  0  0  2  0  0  0  0  0  0
  -19.5770  -26.6360   21.5200 C   0  0  0  0  0  2  0  0  0  0  0  0
  -18.1930  -26.7900   22.1590 C   0  0  0  0  0  2  0  0  0  0  0  0
  -19.1510  -28.8780   23.2910 C   0  0  0  0  0  0  0  0  0  0  0  0
  -18.9460  -30.1360   23.8950 C   0  0  0  0  0  3  0  0  0  0  0  0
  -17.6480  -30.6560   24.0520 C   0  0  0  0  0  3  0  0  0  0  0  0
  -16.5350  -29.9050   23.6350 C   0  0  0  0  0  3  0  0  0  0  0  0
  -16.7240  -28.6440   23.0440 C   0  0  0  0  0  3  0  0  0  0  0  0
  -25.9090  -32.4820   23.8520 C   0  0  0  0  0  3  0  0  0  0  0  0
  -25.6020  -33.8650   24.2450 N   0  0  0  0  0  0  0  0  0  0  0  0
  -25.9030  -34.9480   23.5160 C   0  0  0  0  0  0  0  0  0  0  0  0
  -26.5480  -34.8900   22.4650 O   0  0  0  0  0  0  0  0  0  0  0  0
  -25.0520  -33.9870   25.0810 H   0  0  0  0  0  0  0  0  0  0  0  0
  -24.1500  -36.7300   23.2650 C   0  0  0  0  0  1  0  0  0  0  0  0
  -25.4100  -36.3120   24.0370 C   0  0  0  0  0  3  0  0  0  0  0  0
  -27.5540  -37.1820   24.8480 C   0  0  0  0  0  1  0  0  0  0  0  0
  -26.4260  -37.3810   23.9450 N   0  0  0  0  0  0  0  0  0  0  0  0
  -26.0170  -38.2900   24.1450 H   0  0  0  0  0  0  0  0  0  0  0  0
  -26.4470  -31.6600   25.0870 C   0  0  1  0  0  0  0  0  0  0  0  0
  -25.3780  -31.3610   26.1620 C   0  0  0  0  0  1  0  0  0  0  0  0
  -27.0310  -30.3070   24.6300 C   0  0  0  0  0  1  0  0  0  0  0  0
  -27.6070  -32.4230   25.7640 C   0  0  0  0  0  1  0  0  0  0  0  0
  1  2  1  0
  2  5  1  0
  3  1  1  0
  3  6  1  0
  5  4  1  0
  5  8  1  0
  6 57  1  0
  6  4  1  0
  6  7  1  1
  9  8  1  0
 11 13  1  0
 12 14  2  0
 13  9  1  0
 13 10  2  0
 14 10  1  0
 14 18  1  0
 15 11  2  0
 15 12  1  0
 16 15  1  0
 18 17  1  0
 18 27  1  0
 19 25  1  0
 19 26  2  0
 20 25  1  0
 21 22  1  0
 21 20  1  0
 23 22  1  0
 23 32  1  0
 23 24  1  0
 25 24  1  0
 27 19  1  0
 28 27  1  0
 29 30  2  0
 30 49  1  0
 31 30  1  0
 31 34  1  0
 32 29  1  0
 32 33  1  0
 33 31  2  0
 34 35  1  0
 35 36  2  0
 37 40  1  0
 37 36  1  0
 38 37  2  0
 39 38  1  0
 39 34  2  0
 40 41  1  0
 41 42  1  0
 42 43  2  0
 44 43  1  0
 44 48  1  0
 45 44  2  0
 46 41  2  0
 46 45  1  0
 47 46  1  0
 49 50  1  0
 50 53  1  0
 50 52  1  0
 51 49  2  0
 54 55  1  0
 54 29  1  0
 56 54  1  0
 57 58  1  0
 58 59  1  0
 59 60  1  0
 60 62  1  0
 61 72  2  0
 62 67  1  0
 63 71  1  0
 63 73  1  0
 64 70  1  0
 64 66  1  0
 65 71  1  0
 66 65  1  0
 67 66  2  0
 68 69  1  0
 68 62  2  0
 69 64  2  0
 70 63  1  0
 71 61  1  0
 73 75  2  0
 74 73  1  0
 76 74  1  0
 77 86  2  0
 77 82  1  0
 78 74  1  0
 78 82  1  0
 79 78  1  0
 80 81  1  0
 80 79  1  0
 81 77  1  0
 82 83  2  0
 83 84  1  0
 85 84  2  0
 86 85  1  0
 87 61  1  0
 87 88  1  0
 87 97  1  0
 88 91  1  0
 89 93  1  0
 89 88  1  0
 90 89  2  0
 93 92  1  0
 95 93  1  0
 95 96  1  0
 95 94  1  0
 97100  1  1
 97 98  1  0
 99 97  1  0
M  ISO  4  19 100  27 100  59 101  60 101
M  END
>  <TORSDO>  (44) 
F 23

>  <SCORE>  (44) 
29.760

>  <name>  (44) 
44

>  <ligand_id>  (44) 
44

>  <original_smiles>  (44) 
[H]c1c([H])c([H])c2c(c1[H])C([H])([H])C([H])([H])C([H])([H])C2([H])N([H])C(=O)C1([H])N(C(=O)C([H])(N([H])C(=O)C([H])(N([H])C([H])([H])[H])C([H])([H])[H])C(C([H])([H])[H])(C([H])([H])[H])C([H])([H])[H])C([H])([H])c2c([H])c(OC([H])([H])C([H])([H])C([H])([H])[N+]3([H])C([H])([H])C([H])([H])C([H])([H])C([H])(C([H])([H])C([H])([H])c4c([H])c(F)c([H])c(C([H])(N([H])C(=O)N5C([H])([H])C([H])([H])C([H])([H])C([H])(n6nc(-c7c([H])c([H])c(Oc8c([H])c([H])c(F)c([H])c8F)c([H])c7[H])c(C(=O)N([H])[H])c6N([H])[H])C5([H])[H])C([H])([H])[H])c4[H])C3([H])[H])c([H])c([H])c2C1([H])[H]

>  <smiles>  (44) 
[H]c1c([H])c([H])c2c(c1[H])C([H])([H])C([H])([H])C([H])([H])C2([H])N([H])C(=O)C1([H])N(C(=O)C([H])(N([H])C(=O)C([H])(N([H])C([H])([H])[H])C([H])([H])[H])C(C([H])([H])[H])(C([H])([H])[H])C([H])([H])[H])C([H])([H])c2c([H])c(OC([H])([H])C([H])([H])C([H])([H])[N+]3([H])C([H])([H])C([H])([H])C([H])([H])C([H])(C([H])([H])C([H])([H])c4c([H])c(F)c([H])c(C([H])(N([H])C(=O)N5C([H])([H])C([H])([H])C([H])([H])C([H])(n6nc(-c7c([H])c([H])c(Oc8c([H])c([H])c(F)c([H])c8F)c([H])c7[H])c(C(=O)N([H])[H])c6N([H])[H])C5([H])[H])C([H])([H])[H])c4[H])C3([H])[H])c([H])c([H])c2C1([H])[H]

$$$$
45:0:0
     RDKit          3D

 93101  0  0  1  0  0  0  0  0999 V2000
  -29.4270  -21.4210   19.2040 N   0  0  0  0  0  4  0  0  0  0  0  0
  -29.7540  -21.7210   18.2990 H   0  0  0  0  0  0  0  0  0  0  0  0
  -28.5240  -21.0020   19.0520 H   0  0  0  0  0  0  0  0  0  0  0  0
  -29.2150  -22.6900   20.0360 C   0  0  0  0  0  3  0  0  0  0  0  0
  -28.8630  -24.0630   19.2820 C   0  0  0  0  0  3  0  0  0  0  0  0
  -28.4260  -25.3010   20.1880 C   0  0  0  0  0  2  0  0  0  0  0  0
  -28.5410  -26.6950   19.6950 O   0  0  0  0  0  0  0  0  0  0  0  0
  -24.5390  -31.6480   23.0870 C   0  0  0  0  0  0  0  0  0  0  0  0
  -27.3850  -27.4780   19.7300 C   0  0  0  0  0  0  0  0  0  0  0  0
  -23.4030  -30.2800   21.3720 C   0  0  0  0  0  3  0  0  0  0  0  0
  -24.9290  -28.9210   19.8360 C   0  0  0  0  0  0  0  0  0  0  0  0
  -25.9100  -30.7810   21.1810 C   0  0  0  0  0  2  0  0  0  0  0  0
  -26.0710  -29.4540   20.4480 C   0  0  0  0  0  0  0  0  0  0  0  0
  -27.3050  -28.7450   20.3850 C   0  0  0  0  0  3  0  0  0  0  0  0
  -26.2260  -26.9960   19.0920 C   0  0  0  0  0  3  0  0  0  0  0  0
  -25.0080  -27.7000   19.1470 C   0  0  0  0  0  3  0  0  0  0  0  0
  -23.6390  -29.7080   19.9480 C   0  0  0  0  0  2  0  0  0  0  0  0
  -24.6360  -30.9180   21.9370 N   0  0  0  0  0  0  0  0  0  0  0  0
  -23.4490  -31.8180   23.6510 O   0  0  0  0  0  0  0  0  0  0  0  0
  -22.8240  -29.1650   22.2730 C   0  0  0  0  0  0  0  0  0  0  0  0
  -21.5150  -28.8940   22.1370 N   0  0  0  0  0  0  0  0  0  0  0  0
  -23.5530  -28.5440   23.0520 O   0  0  0  0  0  0  0  0  0  0  0  0
  -20.9820  -29.4530   21.4850 H   0  0  0  0  0  0  0  0  0  0  0  0
  -18.2330  -27.4410   22.5830 C   0  0  0  0  0  0  0  0  0  0  0  0
  -20.7700  -27.8590   22.8560 C   0  0  0  0  0  3  0  0  0  0  0  0
  -20.9630  -26.4740   22.1950 C   0  0  0  0  0  2  0  0  0  0  0  0
  -19.8760  -26.1380   21.1680 C   0  0  0  0  0  2  0  0  0  0  0  0
  -18.4940  -26.1510   21.8270 C   0  0  0  0  0  2  0  0  0  0  0  0
  -19.3010  -28.2510   23.0530 C   0  0  0  0  0  0  0  0  0  0  0  0
  -19.0020  -29.4570   23.7230 C   0  0  0  0  0  3  0  0  0  0  0  0
  -17.6680  -29.8580   23.9250 C   0  0  0  0  0  3  0  0  0  0  0  0
  -16.6150  -29.0460   23.4700 C   0  0  0  0  0  3  0  0  0  0  0  0
  -16.8980  -27.8390   22.8060 C   0  0  0  0  0  3  0  0  0  0  0  0
  -25.7890  -32.3210   23.7330 C   0  0  0  0  0  3  0  0  0  0  0  0
  -25.4200  -33.7010   24.0790 N   0  0  0  0  0  0  0  0  0  0  0  0
  -25.7190  -34.7770   23.3400 C   0  0  0  0  0  0  0  0  0  0  0  0
  -26.4030  -34.7170   22.3150 O   0  0  0  0  0  0  0  0  0  0  0  0
  -24.8130  -33.8210   24.8770 H   0  0  0  0  0  0  0  0  0  0  0  0
  -23.9220  -36.5020   22.9970 C   0  0  0  0  0  1  0  0  0  0  0  0
  -25.1730  -36.1380   23.8120 C   0  0  0  0  0  3  0  0  0  0  0  0
  -27.2560  -37.1070   24.6800 C   0  0  0  0  0  1  0  0  0  0  0  0
  -26.1610  -37.2340   23.7220 N   0  0  0  0  0  0  0  0  0  0  0  0
  -25.7140  -38.1350   23.8690 H   0  0  0  0  0  0  0  0  0  0  0  0
  -26.3210  -31.5530   25.0050 C   0  0  1  0  0  0  0  0  0  0  0  0
  -25.2230  -31.2490   26.0510 C   0  0  0  0  0  1  0  0  0  0  0  0
  -26.9750  -30.2120   24.6020 C   0  0  0  0  0  1  0  0  0  0  0  0
  -27.4220  -32.3890   25.7000 C   0  0  0  0  0  1  0  0  0  0  0  0
  -30.4050  -20.3330   19.6740 C   0  0  0  0  0  3  0  0  0  0  0  0
  -30.4620  -18.7500   17.5160 C   0  0  0  0  0  2  0  0  0  0  0  0
  -30.2200  -18.8690   19.0330 C   0  0  0  0  0  3  0  0  0  0  0  0
  -31.2660  -17.6540   19.2380 C   0  0  0  0  0  3  0  0  0  0  0  0
  -31.5620  -17.7060   17.7200 C   0  0  0  0  0  3  0  0  0  0  0  0
  -32.7760  -18.2040   17.4660 F   0  0  0  0  0  0  0  0  0  0  0  0
  -31.5670  -15.1120   19.6340 C   0  0  0  0  0  0  0  0  0  0  0  0
  -31.3250  -12.7320   18.9680 C   0  0  0  0  0  2  0  0  0  0  0  0
  -30.3380  -12.6540   17.7840 C   0  0  0  0  0  2  0  0  0  0  0  0
  -28.8880  -12.5450   18.2980 C   0  0  0  0  0  2  0  0  0  0  0  0
  -28.5590  -13.5860   19.4040 C   0  0  0  0  0  3  0  0  0  0  0  0
  -29.6660  -13.6570   20.4750 C   0  0  0  0  0  2  0  0  0  0  0  0
  -30.9330  -13.9050   19.7780 N   0  0  0  0  0  0  0  0  0  0  0  0
  -32.7440  -15.1600   19.2780 O   0  0  0  0  0  0  0  0  0  0  0  0
  -30.7980  -16.2630   19.6410 N   0  0  0  0  0  0  0  0  0  0  0  0
  -29.8300  -16.1580   19.9060 H   0  0  0  0  0  0  0  0  0  0  0  0
  -26.2860  -14.2860   20.3680 C   0  0  0  0  0  0  0  0  0  0  0  0
  -25.2010  -13.5640   20.7840 C   0  0  0  0  0  0  0  0  0  0  0  0
  -25.5620  -12.1890   20.6370 C   0  0  0  0  0  0  0  0  0  0  0  0
  -27.2420  -13.3550   19.9920 N   0  0  0  0  0  0  0  0  0  0  0  0
  -26.8160  -12.0830   20.2130 N   0  0  0  0  0  0  0  0  0  0  0  0
  -24.7640  -10.9680   20.8150 C   0  0  0  0  0  0  0  0  0  0  0  0
  -25.1080   -9.9990   21.7820 C   0  0  0  0  0  3  0  0  0  0  0  0
  -24.3180   -8.8420   21.9480 C   0  0  0  0  0  3  0  0  0  0  0  0
  -23.1660   -8.6490   21.1470 C   0  0  0  0  0  0  0  0  0  0  0  0
  -22.8380   -9.6080   20.1730 C   0  0  0  0  0  3  0  0  0  0  0  0
  -23.6300  -10.7550   20.0050 C   0  0  0  0  0  3  0  0  0  0  0  0
  -22.3500   -7.5460   21.2240 O   0  0  0  0  0  0  0  0  0  0  0  0
  -22.0900   -6.9230   22.4180 C   0  0  0  0  0  0  0  0  0  0  0  0
  -21.4400   -7.5870   23.4800 C   0  0  0  0  0  3  0  0  0  0  0  0
  -21.1320   -6.8890   24.6650 C   0  0  0  0  0  3  0  0  0  0  0  0
  -21.4610   -5.5270   24.7870 C   0  0  0  0  0  0  0  0  0  0  0  0
  -22.1030   -4.8590   23.7260 C   0  0  0  0  0  3  0  0  0  0  0  0
  -22.4140   -5.5550   22.5450 C   0  0  0  0  0  0  0  0  0  0  0  0
  -23.0140   -4.9030   21.5200 F   0  0  0  0  0  0  0  0  0  0  0  0
  -21.1580   -4.8550   25.9210 F   0  0  0  0  0  0  0  0  0  0  0  0
  -23.8670  -14.1170   21.2000 C   0  0  0  0  0  0  0  0  0  0  0  0
  -23.1770  -13.4370   22.1080 N   0  0  0  0  0  0  0  0  0  0  0  0
  -23.4530  -15.1880   20.7580 O   0  0  0  0  0  0  0  0  0  0  0  0
  -23.5260  -12.5710   22.4920 H   0  0  0  0  0  0  0  0  0  0  0  0
  -22.2870  -13.7910   22.4280 H   0  0  0  0  0  0  0  0  0  0  0  0
  -26.5330  -15.6510   20.2510 N   0  0  0  0  0  0  0  0  0  0  0  0
  -25.8190  -16.3440   20.4480 H   0  0  0  0  0  0  0  0  0  0  0  0
  -27.3720  -16.0460   19.8450 H   0  0  0  0  0  0  0  0  0  0  0  0
  -29.2870  -19.7400   21.9730 C   0  0  0  0  0  1  0  0  0  0  0  0
  -30.5230  -20.2640   21.2220 C   0  0  0  0  0  2  0  0  0  0  0  0
  1 48  1  0
  1  4  1  0
  2  1  1  0
  3  1  1  0
  5  4  2  0
  5  6  1  0
  7  9  1  0
  7  6  1  0
  8 19  2  0
  9 14  1  0
 10 18  1  0
 10 20  1  0
 11 17  1  0
 11 13  1  0
 12 18  1  0
 13 12  1  0
 14 13  2  0
 15 16  1  0
 15  9  2  0
 16 11  2  0
 17 10  1  0
 18  8  1  0
 20 22  2  0
 21 20  1  0
 23 21  1  0
 24 33  2  0
 24 29  1  0
 25 21  1  0
 25 29  1  0
 26 25  1  0
 27 28  1  0
 27 26  1  0
 28 24  1  0
 29 30  2  0
 30 31  1  0
 32 31  2  0
 33 32  1  0
 34  8  1  0
 34 35  1  0
 34 44  1  0
 35 38  1  0
 36 40  1  0
 36 35  1  0
 37 36  2  0
 40 39  1  0
 42 40  1  0
 42 43  1  0
 42 41  1  0
 44 47  1  1
 44 45  1  0
 46 44  1  0
 48 93  1  0
 49 52  1  0
 49 50  1  0
 50 51  1  0
 50 48  1  0
 51 62  1  0
 52 53  1  0
 52 51  1  0
 54 62  1  0
 54 60  1  0
 55 60  1  0
 56 57  1  0
 56 55  1  0
 58 57  1  0
 58 67  1  0
 58 59  1  0
 60 59  1  0
 61 54  2  0
 62 63  1  0
 64 65  2  0
 65 84  1  0
 66 65  1  0
 66 69  1  0
 67 68  1  0
 67 64  1  0
 68 66  2  0
 69 70  1  0
 70 71  2  0
 72 75  1  0
 72 71  1  0
 73 72  2  0
 74 73  1  0
 74 69  2  0
 75 76  1  0
 76 81  2  0
 76 77  1  0
 77 78  2  0
 78 79  1  0
 79 83  1  0
 80 79  2  0
 81 80  1  0
 82 81  1  0
 84 85  1  0
 85 88  1  0
 85 87  1  0
 86 84  2  0
 89 64  1  0
 89 90  1  0
 91 89  1  0
 93 92  1  0
M  ISO  4   6 101   7 101  54 100  62 100
M  END
>  <TORSDO>  (45) 
F 22

>  <SCORE>  (45) 
-10.400

>  <name>  (45) 
45

>  <ligand_id>  (45) 
45

>  <original_smiles>  (45) 
[H]c1c([H])c([H])c2c(c1[H])C([H])([H])C([H])([H])C([H])([H])C2([H])N([H])C(=O)C1([H])N(C(=O)C([H])(N([H])C(=O)C([H])(N([H])C([H])([H])[H])C([H])([H])[H])C(C([H])([H])[H])(C([H])([H])[H])C([H])([H])[H])C([H])([H])c2c([H])c(OC([H])([H])C([H])([H])C([H])([H])[N+]([H])([H])C([H])(C([H])([H])C([H])([H])[H])C3([H])C([H])([H])C([H])(F)C3([H])N([H])C(=O)N3C([H])([H])C([H])([H])C([H])([H])C([H])(n4nc(-c5c([H])c([H])c(Oc6c([H])c([H])c(F)c([H])c6F)c([H])c5[H])c(C(=O)N([H])[H])c4N([H])[H])C3([H])[H])c([H])c([H])c2C1([H])[H]

>  <smiles>  (45) 
[H]c1c([H])c([H])c2c(c1[H])C([H])([H])C([H])([H])C([H])([H])C2([H])N([H])C(=O)C1([H])N(C(=O)C([H])(N([H])C(=O)C([H])(N([H])C([H])([H])[H])C([H])([H])[H])C(C([H])([H])[H])(C([H])([H])[H])C([H])([H])[H])C([H])([H])c2c([H])c(OC([H])([H])C([H])([H])C([H])([H])[N+]([H])([H])C([H])(C([H])([H])C([H])([H])[H])C3([H])C([H])([H])C([H])(F)C3([H])N([H])C(=O)N3C([H])([H])C([H])([H])C([H])([H])C([H])(n4nc(-c5c([H])c([H])c(Oc6c([H])c([H])c(F)c([H])c6F)c([H])c5[H])c(C(=O)N([H])[H])c4N([H])[H])C3([H])[H])c([H])c([H])c2C1([H])[H]

$$$$
46:0:0
     RDKit          3D

 95103  0  0  1  0  0  0  0  0999 V2000
  -29.7640  -22.3570   18.6690 N   0  0  0  0  0  4  0  0  0  0  0  0
  -29.3390  -21.9510   17.8520 H   0  0  0  0  0  0  0  0  0  0  0  0
  -30.4350  -23.0470   18.3640 H   0  0  0  0  0  0  0  0  0  0  0  0
  -30.4600  -21.3340   19.4830 C   0  0  0  0  0  2  0  0  0  0  0  0
  -31.3680  -20.4000   18.6580 C   0  0  0  0  0  2  0  0  0  0  0  0
  -32.1400  -19.3600   19.5180 C   0  0  0  0  0  2  0  0  0  0  0  0
  -30.7310  -14.3930   20.1300 C   0  0  0  0  0  0  0  0  0  0  0  0
  -30.2920  -12.2810   18.9380 C   0  0  0  0  0  2  0  0  0  0  0  0
  -29.3140  -12.5360   17.7750 C   0  0  0  0  0  2  0  0  0  0  0  0
  -27.8580  -12.4150   18.2660 C   0  0  0  0  0  2  0  0  0  0  0  0
  -27.5860  -13.2370   19.5540 C   0  0  0  0  0  3  0  0  0  0  0  0
  -28.6830  -12.9950   20.6150 C   0  0  0  0  0  2  0  0  0  0  0  0
  -29.9930  -13.2580   19.9940 N   0  0  0  0  0  0  0  0  0  0  0  0
  -31.8060  -14.5750   19.5510 O   0  0  0  0  0  0  0  0  0  0  0  0
  -31.1450  -17.0920   22.4230 C   0  0  0  0  0  2  0  0  0  0  0  0
  -30.5260  -15.6920   22.1860 C   0  0  0  0  0  2  0  0  0  0  0  0
  -29.5450  -16.5200   20.0480 C   0  0  0  0  0  2  0  0  0  0  0  0
  -32.0600  -17.6380   21.3020 C   0  0  0  0  0  2  0  0  0  0  0  0
  -30.5580  -17.4440   19.3330 C   0  0  0  0  0  2  0  0  0  0  0  0
  -30.1450  -15.4080   20.7980 N   0  0  0  0  0  0  0  0  0  0  0  0
  -31.2950  -18.3600   20.2460 N   0  0  2  0  0  4  0  0  0  0  0  0
  -30.6010  -18.8820   20.7570 H   0  0  0  0  0  0  0  0  0  0  0  0
  -25.2190  -13.8680   20.3470 C   0  0  0  0  0  0  0  0  0  0  0  0
  -24.1610  -13.1040   20.7600 C   0  0  0  0  0  0  0  0  0  0  0  0
  -24.6120  -11.7490   20.7220 C   0  0  0  0  0  0  0  0  0  0  0  0
  -26.2490  -12.9790   20.0850 N   0  0  0  0  0  0  0  0  0  0  0  0
  -25.8890  -11.7010   20.3670 N   0  0  0  0  0  0  0  0  0  0  0  0
  -23.8880  -10.4930   20.9530 C   0  0  0  0  0  0  0  0  0  0  0  0
  -24.3360   -9.5530   21.9040 C   0  0  0  0  0  3  0  0  0  0  0  0
  -23.6180   -8.3570   22.1220 C   0  0  0  0  0  3  0  0  0  0  0  0
  -22.4380   -8.0950   21.3870 C   0  0  0  0  0  0  0  0  0  0  0  0
  -22.0080   -9.0260   20.4250 C   0  0  0  0  0  3  0  0  0  0  0  0
  -22.7250  -10.2130   20.2070 C   0  0  0  0  0  3  0  0  0  0  0  0
  -21.6910   -6.9480   21.5090 O   0  0  0  0  0  0  0  0  0  0  0  0
  -21.6410   -6.2430   22.6850 C   0  0  0  0  0  0  0  0  0  0  0  0
  -21.2080   -6.8340   23.8910 C   0  0  0  0  0  3  0  0  0  0  0  0
  -21.1040   -6.0540   25.0600 C   0  0  0  0  0  3  0  0  0  0  0  0
  -21.4240   -4.6830   25.0240 C   0  0  0  0  0  0  0  0  0  0  0  0
  -21.8540   -4.0930   23.8230 C   0  0  0  0  0  3  0  0  0  0  0  0
  -21.9580   -4.8700   22.6550 C   0  0  0  0  0  0  0  0  0  0  0  0
  -22.3490   -4.2900   21.4950 F   0  0  0  0  0  0  0  0  0  0  0  0
  -21.3200   -3.9330   26.1450 F   0  0  0  0  0  0  0  0  0  0  0  0
  -22.7770  -13.5890   21.0860 C   0  0  0  0  0  0  0  0  0  0  0  0
  -22.0810  -12.8970   21.9810 N   0  0  0  0  0  0  0  0  0  0  0  0
  -22.3240  -14.6170   20.5810 O   0  0  0  0  0  0  0  0  0  0  0  0
  -22.4620  -12.0660   22.4080 H   0  0  0  0  0  0  0  0  0  0  0  0
  -21.1520  -13.2000   22.2410 H   0  0  0  0  0  0  0  0  0  0  0  0
  -25.3860  -15.2370   20.1520 N   0  0  0  0  0  0  0  0  0  0  0  0
  -24.6300  -15.9000   20.2860 H   0  0  0  0  0  0  0  0  0  0  0  0
  -26.2330  -15.6660   19.8050 H   0  0  0  0  0  0  0  0  0  0  0  0
  -28.7370  -23.1060   19.4280 C   0  0  0  0  0  2  0  0  0  0  0  0
  -28.9060  -24.6250   19.2500 C   0  0  0  0  0  3  0  0  0  0  0  0
  -30.2040  -24.9010   19.0830 F   0  0  0  0  0  0  0  0  0  0  0  0
  -28.3930  -25.4080   20.4710 C   0  0  0  0  0  2  0  0  0  0  0  0
  -28.4500  -26.8140   20.2330 O   0  0  0  0  0  0  0  0  0  0  0  0
  -24.5510  -31.9100   23.2550 C   0  0  0  0  0  0  0  0  0  0  0  0
  -27.2570  -27.4980   20.2120 C   0  0  0  0  0  0  0  0  0  0  0  0
  -23.3720  -30.5050   21.5940 C   0  0  0  0  0  3  0  0  0  0  0  0
  -24.8510  -28.9770   20.1880 C   0  0  0  0  0  0  0  0  0  0  0  0
  -25.8950  -30.8790   21.4280 C   0  0  0  0  0  2  0  0  0  0  0  0
  -25.9970  -29.5090   20.7920 C   0  0  0  0  0  0  0  0  0  0  0  0
  -27.2030  -28.7780   20.8000 C   0  0  0  0  0  3  0  0  0  0  0  0
  -26.0970  -26.9720   19.6000 C   0  0  0  0  0  3  0  0  0  0  0  0
  -24.8950  -27.7050   19.5880 C   0  0  0  0  0  3  0  0  0  0  0  0
  -23.6040  -29.8300   20.2140 C   0  0  0  0  0  2  0  0  0  0  0  0
  -24.6240  -31.1100   22.1530 N   0  0  0  0  0  0  0  0  0  0  0  0
  -23.4600  -32.1820   23.7750 O   0  0  0  0  0  0  0  0  0  0  0  0
  -22.7090  -29.4790   22.5400 C   0  0  0  0  0  0  0  0  0  0  0  0
  -21.3910  -29.2880   22.3830 N   0  0  0  0  0  0  0  0  0  0  0  0
  -23.3790  -28.8590   23.3700 O   0  0  0  0  0  0  0  0  0  0  0  0
  -20.9140  -29.8410   21.6860 H   0  0  0  0  0  0  0  0  0  0  0  0
  -18.0140  -28.0720   22.7890 C   0  0  0  0  0  0  0  0  0  0  0  0
  -20.5610  -28.3460   23.1340 C   0  0  0  0  0  3  0  0  0  0  0  0
  -20.6900  -26.9140   22.5650 C   0  0  0  0  0  2  0  0  0  0  0  0
  -19.6180  -26.5820   21.5230 C   0  0  0  0  0  2  0  0  0  0  0  0
  -18.2180  -26.7200   22.1270 C   0  0  0  0  0  2  0  0  0  0  0  0
  -19.1150  -28.8420   23.2470 C   0  0  0  0  0  0  0  0  0  0  0  0
  -18.8710  -30.1090   23.8220 C   0  0  0  0  0  3  0  0  0  0  0  0
  -17.5590  -30.6040   23.9450 C   0  0  0  0  0  3  0  0  0  0  0  0
  -16.4720  -29.8280   23.5070 C   0  0  0  0  0  3  0  0  0  0  0  0
  -16.7000  -28.5640   22.9340 C   0  0  0  0  0  3  0  0  0  0  0  0
  -25.8250  -32.5400   23.8960 C   0  0  0  0  0  3  0  0  0  0  0  0
  -26.3240  -31.7670   25.1770 C   0  0  1  0  0  0  0  0  0  0  0  0
  -25.2130  -31.5170   26.2230 C   0  0  0  0  0  1  0  0  0  0  0  0
  -26.9190  -30.3950   24.7820 C   0  0  0  0  0  1  0  0  0  0  0  0
  -27.4620  -32.5590   25.8620 C   0  0  0  0  0  1  0  0  0  0  0  0
  -25.5130  -33.9370   24.2200 N   0  0  0  0  0  0  0  0  0  0  0  0
  -25.8630  -34.9870   23.4650 C   0  0  0  0  0  0  0  0  0  0  0  0
  -26.5560  -34.8820   22.4490 O   0  0  0  0  0  0  0  0  0  0  0  0
  -24.8990  -34.0930   25.0050 H   0  0  0  0  0  0  0  0  0  0  0  0
  -24.1470  -36.7820   23.0690 C   0  0  0  0  0  1  0  0  0  0  0  0
  -25.3670  -36.3760   23.9100 C   0  0  0  0  0  3  0  0  0  0  0  0
  -27.4800  -37.2560   24.7960 C   0  0  0  0  0  1  0  0  0  0  0  0
  -26.4030  -37.4270   23.8230 N   0  0  0  0  0  0  0  0  0  0  0  0
  -25.9970  -38.3490   23.9590 H   0  0  0  0  0  0  0  0  0  0  0  0
  1 51  1  0
  1  4  1  0
  2  1  1  0
  3  1  1  0
  5  4  1  0
  5  6  1  0
  6 21  1  0
  7 20  1  0
  8 13  1  0
  9 10  1  0
  9  8  1  0
 11 10  1  0
 11 26  1  0
 11 12  1  0
 13  7  1  0
 13 12  1  0
 14  7  2  0
 16 15  1  0
 17 20  1  0
 18 15  1  0
 19 17  1  0
 19 21  1  0
 20 16  1  0
 21 22  1  1
 21 18  1  0
 23 24  2  0
 24 43  1  0
 25 24  1  0
 25 28  1  0
 26 23  1  0
 26 27  1  0
 27 25  2  0
 28 29  1  0
 29 30  2  0
 31 34  1  0
 31 30  1  0
 32 31  2  0
 33 32  1  0
 33 28  2  0
 34 35  1  0
 35 36  1  0
 36 37  2  0
 38 37  1  0
 38 42  1  0
 39 38  2  0
 40 35  2  0
 40 39  1  0
 41 40  1  0
 43 44  1  0
 44 47  1  0
 44 46  1  0
 45 43  2  0
 48 49  1  0
 48 23  1  0
 50 48  1  0
 52 53  1  0
 52 51  1  0
 52 54  1  0
 55 54  1  0
 56 67  2  0
 57 55  1  0
 57 62  1  0
 58 66  1  0
 58 68  1  0
 59 65  1  0
 59 61  1  0
 60 66  1  0
 61 62  2  0
 61 60  1  0
 63 57  2  0
 64 63  1  0
 64 59  2  0
 65 58  1  0
 66 56  1  0
 68 70  2  0
 69 68  1  0
 71 69  1  0
 72 81  2  0
 72 77  1  0
 73 69  1  0
 73 77  1  0
 74 73  1  0
 75 76  1  0
 75 74  1  0
 76 72  1  0
 77 78  2  0
 78 79  1  0
 80 79  2  0
 81 80  1  0
 82 56  1  0
 82 87  1  0
 82 83  1  0
 83 86  1  1
 83 84  1  0
 85 83  1  0
 87 90  1  0
 88 92  1  0
 88 87  1  0
 89 88  2  0
 92 91  1  0
 94 92  1  0
 94 95  1  0
 94 93  1  0
M  ISO  4   7 100  20 100  54 101  55 101
M  END
>  <TORSDO>  (46) 
F 22

>  <SCORE>  (46) 
-12.359

>  <name>  (46) 
46

>  <ligand_id>  (46) 
46

>  <original_smiles>  (46) 
[H]c1c([H])c([H])c2c(c1[H])C([H])([H])C([H])([H])C([H])([H])C2([H])N([H])C(=O)C1([H])N(C(=O)C([H])(N([H])C(=O)C([H])(N([H])C([H])([H])[H])C([H])([H])[H])C(C([H])([H])[H])(C([H])([H])[H])C([H])([H])[H])C([H])([H])c2c([H])c(OC([H])([H])C([H])(F)C([H])([H])[N+]([H])([H])C([H])([H])C([H])([H])C([H])([H])[N+]3([H])C([H])([H])C([H])([H])N(C(=O)N4C([H])([H])C([H])([H])C([H])([H])C([H])(n5nc(-c6c([H])c([H])c(Oc7c([H])c([H])c(F)c([H])c7F)c([H])c6[H])c(C(=O)N([H])[H])c5N([H])[H])C4([H])[H])C([H])([H])C([H])([H])C3([H])[H])c([H])c([H])c2C1([H])[H]

>  <smiles>  (46) 
[H]c1c([H])c([H])c2c(c1[H])C([H])([H])C([H])([H])C([H])([H])C2([H])N([H])C(=O)C1([H])N(C(=O)C([H])(N([H])C(=O)C([H])(N([H])C([H])([H])[H])C([H])([H])[H])C(C([H])([H])[H])(C([H])([H])[H])C([H])([H])[H])C([H])([H])c2c([H])c(OC([H])([H])C([H])(F)C([H])([H])[N+]([H])([H])C([H])([H])C([H])([H])C([H])([H])[N+]3([H])C([H])([H])C([H])([H])N(C(=O)N4C([H])([H])C([H])([H])C([H])([H])C([H])(n5nc(-c6c([H])c([H])c(Oc7c([H])c([H])c(F)c([H])c7F)c([H])c6[H])c(C(=O)N([H])[H])c5N([H])[H])C4([H])[H])C([H])([H])C([H])([H])C3([H])[H])c([H])c([H])c2C1([H])[H]

$$$$
47:0:0
     RDKit          3D

100108  0  0  1  0  0  0  0  0999 V2000
  -30.3780  -21.7600   21.8320 C   0  0  0  0  0  2  0  0  0  0  0  0
  -29.6810  -22.1660   23.1500 C   0  0  0  0  0  2  0  0  0  0  0  0
  -30.3880  -23.3080   23.9150 C   0  0  0  0  0  2  0  0  0  0  0  0
  -29.5360  -24.5020   24.1430 N   0  0  0  0  0  4  0  0  0  0  0  0
  -29.9090  -24.9350   24.9740 H   0  0  0  0  0  0  0  0  0  0  0  0
  -28.5890  -24.2450   24.3670 H   0  0  0  0  0  0  0  0  0  0  0  0
  -29.5940  -25.5600   23.0990 C   0  0  0  0  0  2  0  0  0  0  0  0
  -28.5650  -25.4050   21.9610 C   0  0  0  0  0  2  0  0  0  0  0  0
  -28.7470  -26.4450   20.8470 C   0  0  0  0  0  2  0  0  0  0  0  0
  -27.6400  -26.3590   19.9520 O   0  0  0  0  0  0  0  0  0  0  0  0
  -24.2570  -31.7960   23.1660 C   0  0  0  0  0  0  0  0  0  0  0  0
  -26.5490  -27.1900   20.0910 C   0  0  0  0  0  0  0  0  0  0  0  0
  -22.9120  -30.4530   21.5840 C   0  0  0  0  0  3  0  0  0  0  0  0
  -24.2210  -28.7980   20.1590 C   0  0  0  0  0  0  0  0  0  0  0  0
  -25.4360  -30.6660   21.2890 C   0  0  0  0  0  2  0  0  0  0  0  0
  -25.4230  -29.2750   20.6950 C   0  0  0  0  0  0  0  0  0  0  0  0
  -26.5870  -28.4830   20.6630 C   0  0  0  0  0  3  0  0  0  0  0  0
  -25.3280  -26.7180   19.5680 C   0  0  0  0  0  3  0  0  0  0  0  0
  -24.1630  -27.5110   19.5980 C   0  0  0  0  0  3  0  0  0  0  0  0
  -23.0350  -29.7310   20.2150 C   0  0  0  0  0  2  0  0  0  0  0  0
  -24.2240  -30.9870   22.0730 N   0  0  0  0  0  0  0  0  0  0  0  0
  -23.2140  -32.1430   23.7360 O   0  0  0  0  0  0  0  0  0  0  0  0
  -22.2290  -29.4890   22.5780 C   0  0  0  0  0  0  0  0  0  0  0  0
  -20.8980  -29.3530   22.4610 N   0  0  0  0  0  0  0  0  0  0  0  0
  -22.8930  -28.8600   23.4080 O   0  0  0  0  0  0  0  0  0  0  0  0
  -20.4220  -29.9070   21.7610 H   0  0  0  0  0  0  0  0  0  0  0  0
  -17.4910  -28.2840   22.9850 C   0  0  0  0  0  0  0  0  0  0  0  0
  -20.0520  -28.4740   23.2650 C   0  0  0  0  0  3  0  0  0  0  0  0
  -20.1140  -27.0180   22.7480 C   0  0  0  0  0  2  0  0  0  0  0  0
  -19.0090  -26.6890   21.7400 C   0  0  0  0  0  2  0  0  0  0  0  0
  -17.6290  -26.9030   22.3650 C   0  0  0  0  0  2  0  0  0  0  0  0
  -18.6300  -29.0280   23.3930 C   0  0  0  0  0  0  0  0  0  0  0  0
  -18.4460  -30.3210   23.9280 C   0  0  0  0  0  3  0  0  0  0  0  0
  -17.1570  -30.8690   24.0620 C   0  0  0  0  0  3  0  0  0  0  0  0
  -16.0330  -30.1220   23.6680 C   0  0  0  0  0  3  0  0  0  0  0  0
  -16.2010  -28.8320   23.1360 C   0  0  0  0  0  3  0  0  0  0  0  0
  -25.5980  -32.3510   23.7400 C   0  0  0  0  0  3  0  0  0  0  0  0
  -25.3700  -33.7540   24.1110 N   0  0  0  0  0  0  0  0  0  0  0  0
  -25.7390  -34.8070   23.3670 C   0  0  0  0  0  0  0  0  0  0  0  0
  -26.3790  -34.6950   22.3170 O   0  0  0  0  0  0  0  0  0  0  0  0
  -24.7940  -33.9190   24.9240 H   0  0  0  0  0  0  0  0  0  0  0  0
  -24.0970  -36.6960   23.1000 C   0  0  0  0  0  1  0  0  0  0  0  0
  -25.3370  -36.2100   23.8680 C   0  0  0  0  0  3  0  0  0  0  0  0
  -27.5370  -36.9570   24.6570 C   0  0  0  0  0  1  0  0  0  0  0  0
  -26.4210  -37.2100   23.7480 N   0  0  0  0  0  0  0  0  0  0  0  0
  -26.0720  -38.1470   23.9310 H   0  0  0  0  0  0  0  0  0  0  0  0
  -26.1400  -31.5290   24.9730 C   0  0  1  0  0  0  0  0  0  0  0  0
  -25.0870  -31.3020   26.0820 C   0  0  0  0  0  1  0  0  0  0  0  0
  -26.6530  -30.1440   24.5180 C   0  0  0  0  0  1  0  0  0  0  0  0
  -27.3460  -32.2620   25.6040 C   0  0  0  0  0  1  0  0  0  0  0  0
  -31.7550  -21.0900   22.0300 C   0  0  0  0  0  2  0  0  0  0  0  0
  -32.3120  -20.5520   20.7610 N   0  0  0  0  0  4  0  0  0  0  0  0
  -31.5510  -20.2880   20.1580 H   0  0  0  0  0  0  0  0  0  0  0  0
  -32.8090  -21.2910   20.2830 H   0  0  0  0  0  0  0  0  0  0  0  0
  -33.2430  -19.4060   20.9280 C   0  0  0  0  0  2  0  0  0  0  0  0
  -32.7440  -18.0720   20.3040 C   0  0  0  0  0  2  0  0  0  0  0  0
  -31.4450  -15.1190   19.9740 C   0  0  0  0  0  0  0  0  0  0  0  0
  -31.1980  -12.7860   19.1840 C   0  0  0  0  0  2  0  0  0  0  0  0
  -30.2670  -12.7100   17.9540 C   0  0  0  0  0  2  0  0  0  0  0  0
  -28.7950  -12.5640   18.3850 C   0  0  0  0  0  2  0  0  0  0  0  0
  -28.4000  -13.6100   19.4570 C   0  0  0  0  0  3  0  0  0  0  0  0
  -29.4400  -13.6210   20.5940 C   0  0  0  0  0  2  0  0  0  0  0  0
  -30.7770  -13.9220   20.0370 N   0  0  0  0  0  0  0  0  0  0  0  0
  -32.4130  -15.2700   19.2200 O   0  0  0  0  0  0  0  0  0  0  0  0
  -30.0810  -16.3680   21.8370 C   0  0  0  0  0  2  0  0  0  0  0  0
  -30.9340  -17.5680   22.2210 C   0  0  0  0  0  3  0  0  0  0  0  0
  -31.3220  -17.6440   20.7380 C   0  0  0  0  0  3  0  0  0  0  0  0
  -31.0490  -16.1720   20.7510 N   0  0  0  0  0  0  0  0  0  0  0  0
  -26.0540  -14.2980   20.2740 C   0  0  0  0  0  0  0  0  0  0  0  0
  -24.9730  -13.5630   20.6710 C   0  0  0  0  0  0  0  0  0  0  0  0
  -25.3730  -12.1930   20.5880 C   0  0  0  0  0  0  0  0  0  0  0  0
  -27.0510  -13.3800   19.9740 N   0  0  0  0  0  0  0  0  0  0  0  0
  -26.6450  -12.1070   20.2200 N   0  0  0  0  0  0  0  0  0  0  0  0
  -24.6020  -10.9600   20.7870 C   0  0  0  0  0  0  0  0  0  0  0  0
  -24.9610  -10.0170   21.7730 C   0  0  0  0  0  3  0  0  0  0  0  0
  -24.1980   -8.8410   21.9530 C   0  0  0  0  0  3  0  0  0  0  0  0
  -23.0570   -8.6040   21.1490 C   0  0  0  0  0  0  0  0  0  0  0  0
  -22.7170   -9.5370   20.1540 C   0  0  0  0  0  3  0  0  0  0  0  0
  -23.4810  -10.7020   19.9720 C   0  0  0  0  0  3  0  0  0  0  0  0
  -22.2710   -7.4800   21.2350 O   0  0  0  0  0  0  0  0  0  0  0  0
  -22.0290   -6.8630   22.4370 C   0  0  0  0  0  0  0  0  0  0  0  0
  -21.4550   -7.5510   23.5280 C   0  0  0  0  0  3  0  0  0  0  0  0
  -21.1600   -6.8600   24.7190 C   0  0  0  0  0  3  0  0  0  0  0  0
  -21.4250   -5.4800   24.8200 C   0  0  0  0  0  0  0  0  0  0  0  0
  -21.9950   -4.7940   23.7320 C   0  0  0  0  0  3  0  0  0  0  0  0
  -22.2930   -5.4850   22.5440 C   0  0  0  0  0  0  0  0  0  0  0  0
  -22.8210   -4.8120   21.4930 F   0  0  0  0  0  0  0  0  0  0  0  0
  -21.1350   -4.8140   25.9620 F   0  0  0  0  0  0  0  0  0  0  0  0
  -23.6070  -14.0900   21.0110 C   0  0  0  0  0  0  0  0  0  0  0  0
  -22.8970  -13.4210   21.9110 N   0  0  0  0  0  0  0  0  0  0  0  0
  -23.1820  -15.1340   20.5180 O   0  0  0  0  0  0  0  0  0  0  0  0
  -23.2490  -12.5780   22.3420 H   0  0  0  0  0  0  0  0  0  0  0  0
  -21.9840  -13.7610   22.1780 H   0  0  0  0  0  0  0  0  0  0  0  0
  -26.2680  -15.6660   20.1220 N   0  0  0  0  0  0  0  0  0  0  0  0
  -25.5170  -16.3370   20.2540 H   0  0  0  0  0  0  0  0  0  0  0  0
  -27.1210  -16.0850   19.7770 H   0  0  0  0  0  0  0  0  0  0  0  0
  -30.2030  -18.6990   22.8380 N   0  0  0  0  0  4  0  0  0  0  0  0
  -29.5340  -19.1230   22.2200 H   0  0  0  0  0  0  0  0  0  0  0  0
  -30.8360  -19.4030   23.1690 H   0  0  0  0  0  0  0  0  0  0  0  0
  -29.7020  -18.3760   23.6490 H   0  0  0  0  0  0  0  0  0  0  0  0
  1 51  1  0
  1  2  1  0
  2  3  1  0
  3  4  1  0
  4  6  1  0
  4  5  1  0
  7  4  1  0
  8  7  1  0
  9  8  1  0
 10 12  1  0
 10  9  1  0
 11 22  2  0
 12 17  1  0
 13 21  1  0
 13 23  1  0
 14 20  1  0
 14 16  1  0
 15 21  1  0
 16 15  1  0
 17 16  2  0
 18 19  1  0
 18 12  2  0
 19 14  2  0
 20 13  1  0
 21 11  1  0
 23 25  2  0
 24 23  1  0
 26 24  1  0
 27 36  2  0
 27 32  1  0
 28 24  1  0
 28 32  1  0
 29 28  1  0
 30 31  1  0
 30 29  1  0
 31 27  1  0
 32 33  2  0
 33 34  1  0
 35 34  2  0
 36 35  1  0
 37 11  1  0
 37 38  1  0
 37 47  1  0
 38 41  1  0
 39 43  1  0
 39 38  1  0
 40 39  2  0
 43 42  1  0
 45 43  1  0
 45 46  1  0
 45 44  1  0
 47 50  1  1
 47 48  1  0
 49 47  1  0
 52 55  1  0
 52 51  1  0
 53 52  1  0
 54 52  1  0
 56 55  1  0
 57 63  1  0
 57 68  1  0
 58 63  1  0
 59 60  1  0
 59 58  1  0
 61 60  1  0
 61 72  1  0
 61 62  1  0
 63 62  1  0
 64 57  2  0
 65 66  1  0
 66 97  1  0
 67 56  1  0
 67 68  1  0
 67 66  1  0
 68 65  1  0
 69 70  2  0
 70 89  1  0
 71 70  1  0
 71 74  1  0
 72 73  1  0
 72 69  1  0
 73 71  2  0
 74 75  1  0
 75 76  2  0
 77 80  1  0
 77 76  1  0
 78 77  2  0
 79 78  1  0
 79 74  2  0
 80 81  1  0
 81 86  2  0
 81 82  1  0
 82 83  2  0
 83 84  1  0
 84 88  1  0
 85 84  2  0
 86 85  1  0
 87 86  1  0
 89 90  1  0
 90 93  1  0
 90 92  1  0
 91 89  2  0
 94 95  1  0
 94 69  1  0
 96 94  1  0
 97 99  1  0
 97100  1  0
 98 97  1  0
M  ISO  4   9 101  10 101  57 100  68 100
M  END
>  <TORSDO>  (47) 
F 27

>  <SCORE>  (47) 
-10.053

>  <name>  (47) 
47

>  <ligand_id>  (47) 
47

>  <original_smiles>  (47) 
[H]c1c([H])c([H])c2c(c1[H])C([H])([H])C([H])([H])C([H])([H])C2([H])N([H])C(=O)C1([H])N(C(=O)C([H])(N([H])C(=O)C([H])(N([H])C([H])([H])[H])C([H])([H])[H])C(C([H])([H])[H])(C([H])([H])[H])C([H])([H])[H])C([H])([H])c2c([H])c(OC([H])([H])C([H])([H])C([H])([H])[N+]([H])([H])C([H])([H])C([H])([H])C([H])([H])C([H])([H])[N+]([H])([H])C([H])([H])C([H])([H])C3([H])N(C(=O)N4C([H])([H])C([H])([H])C([H])([H])C([H])(n5nc(-c6c([H])c([H])c(Oc7c([H])c([H])c(F)c([H])c7F)c([H])c6[H])c(C(=O)N([H])[H])c5N([H])[H])C4([H])[H])C([H])([H])C3([H])[N+]([H])([H])[H])c([H])c([H])c2C1([H])[H]

>  <smiles>  (47) 
[H]c1c([H])c([H])c2c(c1[H])C([H])([H])C([H])([H])C([H])([H])C2([H])N([H])C(=O)C1([H])N(C(=O)C([H])(N([H])C(=O)C([H])(N([H])C([H])([H])[H])C([H])([H])[H])C(C([H])([H])[H])(C([H])([H])[H])C([H])([H])[H])C([H])([H])c2c([H])c(OC([H])([H])C([H])([H])C([H])([H])[N+]([H])([H])C([H])([H])C([H])([H])C([H])([H])C([H])([H])[N+]([H])([H])C([H])([H])C([H])([H])C3([H])N(C(=O)N4C([H])([H])C([H])([H])C([H])([H])C([H])(n5nc(-c6c([H])c([H])c(Oc7c([H])c([H])c(F)c([H])c7F)c([H])c6[H])c(C(=O)N([H])[H])c5N([H])[H])C4([H])[H])C([H])([H])C3([H])[N+]([H])([H])[H])c([H])c([H])c2C1([H])[H]

$$$$
48:0:0
     RDKit          3D

 94102  0  0  1  0  0  0  0  0999 V2000
  -31.4620  -21.3610   22.1420 C   0  0  0  0  0  2  0  0  0  0  0  0
  -30.4660  -22.4250   22.0820 N   0  0  0  0  0  0  0  0  0  0  0  0
  -29.6780  -22.1130   21.5180 H   0  0  0  0  0  0  0  0  0  0  0  0
  -31.0380  -23.6130   21.4630 C   0  0  0  0  0  2  0  0  0  0  0  0
  -29.9370  -24.6710   21.3070 C   0  0  0  0  0  2  0  0  0  0  0  0
  -30.4320  -25.9310   20.5810 C   0  0  0  0  0  2  0  0  0  0  0  0
  -29.3700  -27.0370   20.5340 C   0  0  0  0  0  2  0  0  0  0  0  0
  -28.2490  -26.6110   19.7620 O   0  0  0  0  0  0  0  0  0  0  0  0
  -24.4530  -31.6610   23.0820 C   0  0  0  0  0  0  0  0  0  0  0  0
  -27.0900  -27.3540   19.8540 C   0  0  0  0  0  0  0  0  0  0  0  0
  -23.2120  -30.2660   21.4540 C   0  0  0  0  0  3  0  0  0  0  0  0
  -24.6450  -28.7740   19.9590 C   0  0  0  0  0  0  0  0  0  0  0  0
  -25.7140  -30.6840   21.1740 C   0  0  0  0  0  2  0  0  0  0  0  0
  -25.8030  -29.3250   20.5190 C   0  0  0  0  0  0  0  0  0  0  0  0
  -27.0220  -28.6250   20.4720 C   0  0  0  0  0  3  0  0  0  0  0  0
  -25.9180  -26.8100   19.2920 C   0  0  0  0  0  3  0  0  0  0  0  0
  -24.6940  -27.5090   19.3450 C   0  0  0  0  0  3  0  0  0  0  0  0
  -23.3850  -29.6050   20.0580 C   0  0  0  0  0  2  0  0  0  0  0  0
  -24.4780  -30.8840   21.9630 N   0  0  0  0  0  0  0  0  0  0  0  0
  -23.3890  -31.9080   23.6640 O   0  0  0  0  0  0  0  0  0  0  0  0
  -22.6100  -29.2220   22.4190 C   0  0  0  0  0  0  0  0  0  0  0  0
  -21.2920  -28.9930   22.3020 N   0  0  0  0  0  0  0  0  0  0  0  0
  -23.3240  -28.6200   23.2250 O   0  0  0  0  0  0  0  0  0  0  0  0
  -20.7760  -29.5380   21.6250 H   0  0  0  0  0  0  0  0  0  0  0  0
  -17.9730  -27.6650   22.7970 C   0  0  0  0  0  0  0  0  0  0  0  0
  -20.5160  -28.0260   23.0770 C   0  0  0  0  0  3  0  0  0  0  0  0
  -20.6770  -26.5980   22.5080 C   0  0  0  0  0  2  0  0  0  0  0  0
  -19.5950  -26.2270   21.4900 C   0  0  0  0  0  2  0  0  0  0  0  0
  -18.2060  -26.3210   22.1270 C   0  0  0  0  0  2  0  0  0  0  0  0
  -19.0570  -28.4730   23.2290 C   0  0  0  0  0  0  0  0  0  0  0  0
  -18.7870  -29.7290   23.8130 C   0  0  0  0  0  3  0  0  0  0  0  0
  -17.4640  -30.1810   23.9680 C   0  0  0  0  0  3  0  0  0  0  0  0
  -16.3920  -29.3710   23.5550 C   0  0  0  0  0  3  0  0  0  0  0  0
  -16.6480  -28.1130   22.9760 C   0  0  0  0  0  3  0  0  0  0  0  0
  -25.7530  -32.2970   23.6710 C   0  0  0  0  0  3  0  0  0  0  0  0
  -26.3460  -31.4890   24.8900 C   0  0  1  0  0  0  0  0  0  0  0  0
  -25.3040  -31.1690   25.9870 C   0  0  0  0  0  1  0  0  0  0  0  0
  -26.9570  -30.1510   24.4100 C   0  0  0  0  0  1  0  0  0  0  0  0
  -27.4930  -32.2940   25.5450 C   0  0  0  0  0  1  0  0  0  0  0  0
  -25.4340  -33.6750   24.0650 N   0  0  0  0  0  0  0  0  0  0  0  0
  -25.7260  -34.7590   23.3350 C   0  0  0  0  0  0  0  0  0  0  0  0
  -26.3680  -34.7070   22.2820 O   0  0  0  0  0  0  0  0  0  0  0  0
  -24.8650  -33.7900   24.8900 H   0  0  0  0  0  0  0  0  0  0  0  0
  -23.9610  -36.5310   23.0880 C   0  0  0  0  0  1  0  0  0  0  0  0
  -25.2270  -36.1190   23.8570 C   0  0  0  0  0  3  0  0  0  0  0  0
  -27.3650  -37.0040   24.6750 C   0  0  0  0  0  1  0  0  0  0  0  0
  -26.2400  -37.1930   23.7630 N   0  0  0  0  0  0  0  0  0  0  0  0
  -25.8240  -38.0990   23.9550 H   0  0  0  0  0  0  0  0  0  0  0  0
  -30.8030  -20.0130   22.5030 C   0  0  0  0  0  2  0  0  0  0  0  0
  -31.4290  -18.8980   21.7630 N   0  0  0  0  0  4  0  0  0  0  0  0
  -31.3580  -19.0810   20.7750 H   0  0  0  0  0  0  0  0  0  0  0  0
  -32.4090  -18.9000   21.9980 H   0  0  0  0  0  0  0  0  0  0  0  0
  -30.2900  -14.3190   19.7990 C   0  0  0  0  0  0  0  0  0  0  0  0
  -29.7720  -12.3330   18.4230 C   0  0  0  0  0  2  0  0  0  0  0  0
  -28.6520  -12.5930   17.3990 C   0  0  0  0  0  2  0  0  0  0  0  0
  -27.2670  -12.3720   18.0330 C   0  0  0  0  0  2  0  0  0  0  0  0
  -27.1100  -13.1110   19.3870 C   0  0  0  0  0  3  0  0  0  0  0  0
  -28.3170  -12.8200   20.3070 C   0  0  0  0  0  2  0  0  0  0  0  0
  -29.5500  -13.1960   19.5940 N   0  0  0  0  0  0  0  0  0  0  0  0
  -31.1670  -14.6970   19.0140 O   0  0  0  0  0  0  0  0  0  0  0  0
  -31.9480  -16.4700   21.7420 C   0  0  0  0  0  2  0  0  0  0  0  0
  -29.6030  -17.2630   21.2170 C   0  0  0  0  0  2  0  0  0  0  0  0
  -31.3770  -15.0450   21.8820 C   0  0  0  0  0  2  0  0  0  0  0  0
  -29.1190  -15.8070   21.3710 C   0  0  0  0  0  2  0  0  0  0  0  0
  -30.8830  -17.5480   22.0400 C   0  0  0  0  0  3  0  0  0  0  0  0
  -30.1900  -14.8590   21.0360 N   0  0  0  0  0  0  0  0  0  0  0  0
  -24.8040  -13.6000   20.4270 C   0  0  0  0  0  0  0  0  0  0  0  0
  -23.8290  -12.7730   20.9160 C   0  0  0  0  0  0  0  0  0  0  0  0
  -24.3370  -11.4430   20.7860 C   0  0  0  0  0  0  0  0  0  0  0  0
  -25.8440  -12.7700   20.0350 N   0  0  0  0  0  0  0  0  0  0  0  0
  -25.5720  -11.4670   20.3030 N   0  0  0  0  0  0  0  0  0  0  0  0
  -23.6960  -10.1470   21.0380 C   0  0  0  0  0  0  0  0  0  0  0  0
  -24.2290   -9.2290   21.9720 C   0  0  0  0  0  3  0  0  0  0  0  0
  -23.5860   -7.9960   22.2100 C   0  0  0  0  0  3  0  0  0  0  0  0
  -22.3970   -7.6700   21.5160 C   0  0  0  0  0  0  0  0  0  0  0  0
  -21.8840   -8.5760   20.5720 C   0  0  0  0  0  3  0  0  0  0  0  0
  -22.5270   -9.8010   20.3320 C   0  0  0  0  0  3  0  0  0  0  0  0
  -21.7170   -6.4850   21.6640 O   0  0  0  0  0  0  0  0  0  0  0  0
  -21.7050   -5.8070   22.8560 C   0  0  0  0  0  0  0  0  0  0  0  0
  -21.2370   -6.4030   24.0490 C   0  0  0  0  0  3  0  0  0  0  0  0
  -21.1760   -5.6470   25.2370 C   0  0  0  0  0  3  0  0  0  0  0  0
  -21.5730   -4.2970   25.2340 C   0  0  0  0  0  0  0  0  0  0  0  0
  -22.0350   -3.7000   24.0480 C   0  0  0  0  0  3  0  0  0  0  0  0
  -22.0960   -4.4530   22.8610 C   0  0  0  0  0  0  0  0  0  0  0  0
  -22.5210   -3.8660   21.7160 F   0  0  0  0  0  0  0  0  0  0  0  0
  -21.5080   -3.5690   26.3730 F   0  0  0  0  0  0  0  0  0  0  0  0
  -22.4640  -13.1800   21.3900 C   0  0  0  0  0  0  0  0  0  0  0  0
  -21.9070  -12.4560   22.3540 N   0  0  0  0  0  0  0  0  0  0  0  0
  -21.9020  -14.1770   20.9380 O   0  0  0  0  0  0  0  0  0  0  0  0
  -22.3750  -11.6490   22.7390 H   0  0  0  0  0  0  0  0  0  0  0  0
  -20.9970  -12.7110   22.7110 H   0  0  0  0  0  0  0  0  0  0  0  0
  -24.8860  -14.9800   20.2650 N   0  0  0  0  0  0  0  0  0  0  0  0
  -24.1130  -15.5960   20.4920 H   0  0  0  0  0  0  0  0  0  0  0  0
  -25.6630  -15.4630   19.8320 H   0  0  0  0  0  0  0  0  0  0  0  0
  1 49  1  0
  2  1  1  0
  3  2  1  0
  4  2  1  0
  5  4  1  0
  6  5  1  0
  7  6  1  0
  8 10  1  0
  8  7  1  0
  9 20  2  0
 10 15  1  0
 11 19  1  0
 11 21  1  0
 12 18  1  0
 12 14  1  0
 13 19  1  0
 14 13  1  0
 15 14  2  0
 16 17  1  0
 16 10  2  0
 17 12  2  0
 18 11  1  0
 19  9  1  0
 21 23  2  0
 22 21  1  0
 24 22  1  0
 25 34  2  0
 25 30  1  0
 26 22  1  0
 26 30  1  0
 27 26  1  0
 28 29  1  0
 28 27  1  0
 29 25  1  0
 30 31  2  0
 31 32  1  0
 33 32  2  0
 34 33  1  0
 35  9  1  0
 35 40  1  0
 35 36  1  0
 36 39  1  1
 36 37  1  0
 38 36  1  0
 40 43  1  0
 41 45  1  0
 41 40  1  0
 42 41  2  0
 45 44  1  0
 47 45  1  0
 47 48  1  0
 47 46  1  0
 50 52  1  0
 50 49  1  0
 51 50  1  0
 53 66  1  0
 54 59  1  0
 55 56  1  0
 55 54  1  0
 57 56  1  0
 57 70  1  0
 57 58  1  0
 59 53  1  0
 59 58  1  0
 60 53  2  0
 61 63  1  0
 61 65  1  0
 62 64  1  0
 62 65  1  0
 65 50  1  0
 66 64  1  0
 66 63  1  0
 67 68  2  0
 68 87  1  0
 69 68  1  0
 69 72  1  0
 70 71  1  0
 70 67  1  0
 71 69  2  0
 72 73  1  0
 73 74  2  0
 75 78  1  0
 75 74  1  0
 76 75  2  0
 77 76  1  0
 77 72  2  0
 78 79  1  0
 79 84  2  0
 79 80  1  0
 80 81  2  0
 82 81  1  0
 82 86  1  0
 83 82  2  0
 84 83  1  0
 85 84  1  0
 87 88  1  0
 88 91  1  0
 88 90  1  0
 89 87  2  0
 92 67  1  0
 92 93  1  0
 94 92  1  0
M  ISO  4   7 101   8 101  53 100  66 100
M  END
>  <TORSDO>  (48) 
F 23

>  <SCORE>  (48) 
-10.157

>  <name>  (48) 
48

>  <ligand_id>  (48) 
48

>  <original_smiles>  (48) 
[H]c1c([H])c([H])c2c(c1[H])C([H])([H])C([H])([H])C([H])([H])C2([H])N([H])C(=O)C1([H])N(C(=O)C([H])(N([H])C(=O)C([H])(N([H])C([H])([H])[H])C([H])([H])[H])C(C([H])([H])[H])(C([H])([H])[H])C([H])([H])[H])C([H])([H])c2c([H])c(OC([H])([H])C([H])([H])C([H])([H])C([H])([H])N([H])C([H])([H])C([H])([H])[N+]([H])([H])C3([H])C([H])([H])C([H])([H])N(C(=O)N4C([H])([H])C([H])([H])C([H])([H])C([H])(n5nc(-c6c([H])c([H])c(Oc7c([H])c([H])c(F)c([H])c7F)c([H])c6[H])c(C(=O)N([H])[H])c5N([H])[H])C4([H])[H])C([H])([H])C3([H])[H])c([H])c([H])c2C1([H])[H]

>  <smiles>  (48) 
[H]c1c([H])c([H])c2c(c1[H])C([H])([H])C([H])([H])C([H])([H])C2([H])N([H])C(=O)C1([H])N(C(=O)C([H])(N([H])C(=O)C([H])(N([H])C([H])([H])[H])C([H])([H])[H])C(C([H])([H])[H])(C([H])([H])[H])C([H])([H])[H])C([H])([H])c2c([H])c(OC([H])([H])C([H])([H])C([H])([H])C([H])([H])N([H])C([H])([H])C([H])([H])[N+]([H])([H])C3([H])C([H])([H])C([H])([H])N(C(=O)N4C([H])([H])C([H])([H])C([H])([H])C([H])(n5nc(-c6c([H])c([H])c(Oc7c([H])c([H])c(F)c([H])c7F)c([H])c6[H])c(C(=O)N([H])[H])c5N([H])[H])C4([H])[H])C([H])([H])C3([H])[H])c([H])c([H])c2C1([H])[H]

$$$$
49:0:0
     RDKit          3D

 96104  0  0  1  0  0  0  0  0999 V2000
  -29.2910  -23.1210   19.8810 C   0  0  0  0  0  3  0  0  0  0  0  0
  -27.2400  -19.9230   19.1010 C   0  0  0  0  0  3  0  0  0  0  0  0
  -28.1730  -18.8930   19.3080 C   0  0  0  0  0  3  0  0  0  0  0  0
  -27.6050  -21.2670   19.2890 C   0  0  0  0  0  3  0  0  0  0  0  0
  -29.8380  -20.5540   19.9490 C   0  0  0  0  0  3  0  0  0  0  0  0
  -29.4840  -19.1860   19.7340 C   0  0  0  0  0  0  0  0  0  0  0  0
  -28.9090  -21.6180   19.7140 C   0  0  0  0  0  0  0  0  0  0  0  0
  -30.4800  -18.0100   19.8500 C   0  0  0  0  0  2  0  0  0  0  0  0
  -30.3410  -17.0930   21.1140 C   0  0  0  0  0  2  0  0  0  0  0  0
  -30.7850  -14.6330   20.5000 C   0  0  0  0  0  0  0  0  0  0  0  0
  -30.5570  -12.4450   19.3740 C   0  0  0  0  0  2  0  0  0  0  0  0
  -29.6340  -12.6290   18.1520 C   0  0  0  0  0  2  0  0  0  0  0  0
  -28.1500  -12.4910   18.5490 C   0  0  0  0  0  2  0  0  0  0  0  0
  -27.7830  -13.3230   19.8070 C   0  0  0  0  0  3  0  0  0  0  0  0
  -28.8210  -13.1110   20.9330 C   0  0  0  0  0  2  0  0  0  0  0  0
  -30.1470  -13.4350   20.3820 N   0  0  0  0  0  0  0  0  0  0  0  0
  -31.9470  -14.8100   20.1300 O   0  0  0  0  0  0  0  0  0  0  0  0
  -29.9980  -15.6660   20.8850 N   0  0  0  0  0  0  0  0  0  0  0  0
  -29.0510  -15.4050   21.1120 H   0  0  0  0  0  0  0  0  0  0  0  0
  -25.3700  -13.9340   20.4540 C   0  0  0  0  0  0  0  0  0  0  0  0
  -24.2950  -13.1650   20.8110 C   0  0  0  0  0  0  0  0  0  0  0  0
  -24.7590  -11.8140   20.8080 C   0  0  0  0  0  0  0  0  0  0  0  0
  -26.4210  -13.0520   20.2610 N   0  0  0  0  0  0  0  0  0  0  0  0
  -26.0570  -11.7720   20.5330 N   0  0  0  0  0  0  0  0  0  0  0  0
  -24.0300  -10.5520   20.9960 C   0  0  0  0  0  0  0  0  0  0  0  0
  -24.4420   -9.5960   21.9500 C   0  0  0  0  0  3  0  0  0  0  0  0
  -23.7120   -8.4010   22.1270 C   0  0  0  0  0  3  0  0  0  0  0  0
  -22.5560   -8.1540   21.3490 C   0  0  0  0  0  0  0  0  0  0  0  0
  -22.1640   -9.0970   20.3840 C   0  0  0  0  0  3  0  0  0  0  0  0
  -22.8940  -10.2840   20.2060 C   0  0  0  0  0  3  0  0  0  0  0  0
  -21.8000   -7.0090   21.4340 O   0  0  0  0  0  0  0  0  0  0  0  0
  -21.7270   -6.2780   22.5920 C   0  0  0  0  0  0  0  0  0  0  0  0
  -21.2580   -6.8410   23.8000 C   0  0  0  0  0  3  0  0  0  0  0  0
  -21.1340   -6.0370   24.9500 C   0  0  0  0  0  3  0  0  0  0  0  0
  -21.4680   -4.6700   24.8940 C   0  0  0  0  0  0  0  0  0  0  0  0
  -21.9280   -4.1070   23.6910 C   0  0  0  0  0  3  0  0  0  0  0  0
  -22.0540   -4.9090   22.5430 C   0  0  0  0  0  0  0  0  0  0  0  0
  -22.4790   -4.3550   21.3810 F   0  0  0  0  0  0  0  0  0  0  0  0
  -21.3400   -3.8960   25.9970 F   0  0  0  0  0  0  0  0  0  0  0  0
  -22.8920  -13.6430   21.0440 C   0  0  0  0  0  0  0  0  0  0  0  0
  -22.1450  -12.9550   21.9030 N   0  0  0  0  0  0  0  0  0  0  0  0
  -22.4630  -14.6610   20.5000 O   0  0  0  0  0  0  0  0  0  0  0  0
  -22.5050  -12.1340   22.3660 H   0  0  0  0  0  0  0  0  0  0  0  0
  -21.2010  -13.2540   22.1020 H   0  0  0  0  0  0  0  0  0  0  0  0
  -25.5340  -15.3030   20.2560 N   0  0  0  0  0  0  0  0  0  0  0  0
  -24.7560  -15.9500   20.3290 H   0  0  0  0  0  0  0  0  0  0  0  0
  -26.3810  -15.7380   19.9140 H   0  0  0  0  0  0  0  0  0  0  0  0
  -29.9000  -23.7180   18.5870 C   0  0  0  0  0  2  0  0  0  0  0  0
  -31.1550  -22.9970   18.0520 C   0  0  0  0  0  2  0  0  0  0  0  0
  -31.8180  -23.7410   16.9640 N   0  0  0  0  0  4  0  0  0  0  0  0
  -31.2100  -23.8580   16.1730 H   0  0  0  0  0  0  0  0  0  0  0  0
  -32.6300  -23.2340   16.6550 H   0  0  0  0  0  0  0  0  0  0  0  0
  -32.1180  -24.6450   17.2810 H   0  0  0  0  0  0  0  0  0  0  0  0
  -28.1070  -24.0420   20.3620 C   0  0  0  0  0  2  0  0  0  0  0  0
  -28.4440  -25.4430   20.9810 C   0  0  0  0  0  2  0  0  0  0  0  0
  -28.3430  -26.6130   20.1330 O   0  0  0  0  0  0  0  0  0  0  0  0
  -24.5210  -31.8340   23.2500 C   0  0  0  0  0  0  0  0  0  0  0  0
  -27.1770  -27.3590   20.1950 C   0  0  0  0  0  0  0  0  0  0  0  0
  -23.3240  -30.4440   21.5880 C   0  0  0  0  0  3  0  0  0  0  0  0
  -24.7900  -28.8930   20.1810 C   0  0  0  0  0  0  0  0  0  0  0  0
  -25.8560  -30.7840   21.4180 C   0  0  0  0  0  2  0  0  0  0  0  0
  -25.9440  -29.4070   20.7840 C   0  0  0  0  0  0  0  0  0  0  0  0
  -27.1440  -28.6490   20.7850 C   0  0  0  0  0  3  0  0  0  0  0  0
  -26.0030  -26.8640   19.5920 C   0  0  0  0  0  3  0  0  0  0  0  0
  -24.8150  -27.6220   19.5800 C   0  0  0  0  0  3  0  0  0  0  0  0
  -23.5480  -29.7600   20.2110 C   0  0  0  0  0  2  0  0  0  0  0  0
  -24.5840  -31.0370   22.1430 N   0  0  0  0  0  0  0  0  0  0  0  0
  -23.4370  -32.1070   23.7830 O   0  0  0  0  0  0  0  0  0  0  0  0
  -22.6550  -29.4280   22.5420 C   0  0  0  0  0  0  0  0  0  0  0  0
  -21.3300  -29.2520   22.4040 N   0  0  0  0  0  0  0  0  0  0  0  0
  -23.3250  -28.7970   23.3660 O   0  0  0  0  0  0  0  0  0  0  0  0
  -20.8480  -29.8130   21.7130 H   0  0  0  0  0  0  0  0  0  0  0  0
  -17.9490  -28.0580   22.8590 C   0  0  0  0  0  0  0  0  0  0  0  0
  -20.5040  -28.3140   23.1630 C   0  0  0  0  0  3  0  0  0  0  0  0
  -20.6140  -26.8830   22.5870 C   0  0  0  0  0  2  0  0  0  0  0  0
  -19.5250  -26.5600   21.5600 C   0  0  0  0  0  2  0  0  0  0  0  0
  -18.1350  -26.7080   22.1860 C   0  0  0  0  0  2  0  0  0  0  0  0
  -19.0630  -28.8180   23.3050 C   0  0  0  0  0  0  0  0  0  0  0  0
  -18.8380  -30.0820   23.8960 C   0  0  0  0  0  3  0  0  0  0  0  0
  -17.5330  -30.5840   24.0460 C   0  0  0  0  0  3  0  0  0  0  0  0
  -16.4320  -29.8210   23.6160 C   0  0  0  0  0  3  0  0  0  0  0  0
  -16.6410  -28.5610   23.0280 C   0  0  0  0  0  3  0  0  0  0  0  0
  -25.8040  -32.4580   23.8820 C   0  0  0  0  0  3  0  0  0  0  0  0
  -26.2930  -31.6950   25.1740 C   0  0  1  0  0  0  0  0  0  0  0  0
  -25.1860  -31.4770   26.2300 C   0  0  0  0  0  1  0  0  0  0  0  0
  -26.8670  -30.3070   24.8000 C   0  0  0  0  0  1  0  0  0  0  0  0
  -27.4400  -32.4860   25.8440 C   0  0  0  0  0  1  0  0  0  0  0  0
  -25.5070  -33.8630   24.1920 N   0  0  0  0  0  0  0  0  0  0  0  0
  -25.8640  -34.9020   23.4280 C   0  0  0  0  0  0  0  0  0  0  0  0
  -26.5500  -34.7810   22.4090 O   0  0  0  0  0  0  0  0  0  0  0  0
  -24.9040  -34.0340   24.9830 H   0  0  0  0  0  0  0  0  0  0  0  0
  -24.1710  -36.7200   23.0200 C   0  0  0  0  0  1  0  0  0  0  0  0
  -25.3850  -36.3000   23.8630 C   0  0  0  0  0  3  0  0  0  0  0  0
  -27.5070  -37.1700   24.7440 C   0  0  0  0  0  1  0  0  0  0  0  0
  -26.4340  -37.3390   23.7690 N   0  0  0  0  0  0  0  0  0  0  0  0
  -26.0330  -38.2630   23.8980 H   0  0  0  0  0  0  0  0  0  0  0  0
  1 48  1  0
  1 54  1  0
  2  4  2  0
  2  3  1  0
  3  6  2  0
  4  7  1  0
  6  8  1  0
  6  5  1  0
  7  1  1  0
  7  5  2  0
  8  9  1  0
 10 18  1  0
 11 16  1  0
 12 13  1  0
 12 11  1  0
 14 13  1  0
 14 23  1  0
 14 15  1  0
 16 10  1  0
 16 15  1  0
 17 10  2  0
 18 19  1  0
 18  9  1  0
 20 21  2  0
 21 40  1  0
 22 21  1  0
 22 25  1  0
 23 20  1  0
 23 24  1  0
 24 22  2  0
 25 26  1  0
 26 27  2  0
 28 31  1  0
 28 27  1  0
 29 28  2  0
 30 29  1  0
 30 25  2  0
 31 32  1  0
 32 33  1  0
 33 34  2  0
 35 34  1  0
 35 39  1  0
 36 35  2  0
 37 32  2  0
 37 36  1  0
 38 37  1  0
 40 41  1  0
 41 44  1  0
 41 43  1  0
 42 40  2  0
 45 46  1  0
 45 20  1  0
 47 45  1  0
 49 48  1  0
 50 53  1  0
 50 49  1  0
 51 50  1  0
 52 50  1  0
 54 55  1  0
 56 58  1  0
 56 55  1  0
 57 68  2  0
 58 63  1  0
 59 67  1  0
 59 69  1  0
 60 66  1  0
 60 62  1  0
 61 67  1  0
 62 63  2  0
 62 61  1  0
 64 58  2  0
 65 64  1  0
 65 60  2  0
 66 59  1  0
 67 57  1  0
 69 71  2  0
 70 69  1  0
 72 70  1  0
 73 82  2  0
 73 78  1  0
 74 70  1  0
 74 78  1  0
 75 74  1  0
 76 77  1  0
 76 75  1  0
 77 73  1  0
 78 79  2  0
 79 80  1  0
 81 80  2  0
 82 81  1  0
 83 57  1  0
 83 88  1  0
 83 84  1  0
 84 87  1  1
 84 85  1  0
 86 84  1  0
 88 91  1  0
 89 93  1  0
 89 88  1  0
 90 89  2  0
 93 92  1  0
 95 93  1  0
 95 96  1  0
 95 94  1  0
M  ISO  4  10 100  18 100  55 101  56 101
M  END
>  <TORSDO>  (49) 
F 24

>  <SCORE>  (49) 
-12.651

>  <name>  (49) 
49

>  <ligand_id>  (49) 
49

>  <original_smiles>  (49) 
[H]c1c([H])c([H])c2c(c1[H])C([H])([H])C([H])([H])C([H])([H])C2([H])N([H])C(=O)C1([H])N(C(=O)C([H])(N([H])C(=O)C([H])(N([H])C([H])([H])[H])C([H])([H])[H])C(C([H])([H])[H])(C([H])([H])[H])C([H])([H])[H])C([H])([H])c2c([H])c(OC([H])([H])C([H])([H])C([H])(c3c([H])c([H])c([H])c(C([H])([H])C([H])([H])N([H])C(=O)N4C([H])([H])C([H])([H])C([H])([H])C([H])(n5nc(-c6c([H])c([H])c(Oc7c([H])c([H])c(F)c([H])c7F)c([H])c6[H])c(C(=O)N([H])[H])c5N([H])[H])C4([H])[H])c3[H])C([H])([H])C([H])([H])[N+]([H])([H])[H])c([H])c([H])c2C1([H])[H]

>  <smiles>  (49) 
[H]c1c([H])c([H])c2c(c1[H])C([H])([H])C([H])([H])C([H])([H])C2([H])N([H])C(=O)C1([H])N(C(=O)C([H])(N([H])C(=O)C([H])(N([H])C([H])([H])[H])C([H])([H])[H])C(C([H])([H])[H])(C([H])([H])[H])C([H])([H])[H])C([H])([H])c2c([H])c(OC([H])([H])C([H])([H])C([H])(c3c([H])c([H])c([H])c(C([H])([H])C([H])([H])N([H])C(=O)N4C([H])([H])C([H])([H])C([H])([H])C([H])(n5nc(-c6c([H])c([H])c(Oc7c([H])c([H])c(F)c([H])c7F)c([H])c6[H])c(C(=O)N([H])[H])c5N([H])[H])C4([H])[H])c3[H])C([H])([H])C([H])([H])[N+]([H])([H])[H])c([H])c([H])c2C1([H])[H]

$$$$
50:0:0
     RDKit          3D

 93101  0  0  1  0  0  0  0  0999 V2000
  -27.4180  -21.6560   20.8840 C   0  0  0  0  0  0  0  0  0  0  0  0
  -27.8260  -22.8880   21.1980 N   0  0  0  0  0  0  0  0  0  0  0  0
  -26.2470  -21.3970   20.5980 O   0  0  0  0  0  0  0  0  0  0  0  0
  -28.7910  -23.0220   21.4650 H   0  0  0  0  0  0  0  0  0  0  0  0
  -27.9980  -19.1540   20.5290 C   0  0  0  0  0  2  0  0  0  0  0  0
  -29.6630  -20.9320   19.9730 C   0  0  0  0  0  2  0  0  0  0  0  0
  -29.1320  -18.1050   20.6520 C   0  0  0  0  0  2  0  0  0  0  0  0
  -30.8240  -19.9590   20.1840 C   0  0  0  0  0  2  0  0  0  0  0  0
  -28.5020  -20.5650   20.9080 C   0  0  0  0  0  3  0  0  0  0  0  0
  -30.4250  -18.5000   19.8900 C   0  0  0  0  0  3  0  0  0  0  0  0
  -31.6250  -17.5740   20.2170 C   0  0  0  0  0  2  0  0  0  0  0  0
  -31.9190  -15.1250   19.8100 C   0  0  0  0  0  0  0  0  0  0  0  0
  -31.6120  -12.8120   19.0130 C   0  0  0  0  0  2  0  0  0  0  0  0
  -30.6740  -12.8250   17.7880 C   0  0  0  0  0  2  0  0  0  0  0  0
  -29.1920  -12.8000   18.2180 C   0  0  0  0  0  2  0  0  0  0  0  0
  -28.8760  -13.8500   19.3150 C   0  0  0  0  0  3  0  0  0  0  0  0
  -29.9100  -13.7580   20.4560 C   0  0  0  0  0  2  0  0  0  0  0  0
  -31.2450  -13.9480   19.8680 N   0  0  0  0  0  0  0  0  0  0  0  0
  -33.0070  -15.2530   19.2410 O   0  0  0  0  0  0  0  0  0  0  0  0
  -31.2510  -16.1680   20.3350 N   0  0  0  0  0  0  0  0  0  0  0  0
  -30.3740  -15.9630   20.7860 H   0  0  0  0  0  0  0  0  0  0  0  0
  -26.5700  -14.6860   20.0920 C   0  0  0  0  0  0  0  0  0  0  0  0
  -25.4400  -14.0140   20.4760 C   0  0  0  0  0  0  0  0  0  0  0  0
  -25.7640  -12.6230   20.4130 C   0  0  0  0  0  0  0  0  0  0  0  0
  -27.5130  -13.7080   19.8170 N   0  0  0  0  0  0  0  0  0  0  0  0
  -27.0320  -12.4620   20.0620 N   0  0  0  0  0  0  0  0  0  0  0  0
  -24.9250  -11.4330   20.6020 C   0  0  0  0  0  0  0  0  0  0  0  0
  -25.2270  -10.4670   21.5870 C   0  0  0  0  0  3  0  0  0  0  0  0
  -24.3960   -9.3410   21.7630 C   0  0  0  0  0  3  0  0  0  0  0  0
  -23.2490   -9.1740   20.9520 C   0  0  0  0  0  0  0  0  0  0  0  0
  -22.9620  -10.1280   19.9610 C   0  0  0  0  0  3  0  0  0  0  0  0
  -23.7940  -11.2460   19.7840 C   0  0  0  0  0  3  0  0  0  0  0  0
  -22.3950   -8.0990   21.0380 O   0  0  0  0  0  0  0  0  0  0  0  0
  -22.1450   -7.4700   22.2310 C   0  0  0  0  0  0  0  0  0  0  0  0
  -21.6240   -8.1620   23.3450 C   0  0  0  0  0  3  0  0  0  0  0  0
  -21.3200   -7.4620   24.5300 C   0  0  0  0  0  3  0  0  0  0  0  0
  -21.5240   -6.0700   24.5970 C   0  0  0  0  0  0  0  0  0  0  0  0
  -22.0400   -5.3790   23.4870 C   0  0  0  0  0  3  0  0  0  0  0  0
  -22.3460   -6.0760   22.3060 C   0  0  0  0  0  0  0  0  0  0  0  0
  -22.8240   -5.4010   21.2320 F   0  0  0  0  0  0  0  0  0  0  0  0
  -21.2230   -5.3980   25.7310 F   0  0  0  0  0  0  0  0  0  0  0  0
  -24.1060  -14.6210   20.8010 C   0  0  0  0  0  0  0  0  0  0  0  0
  -23.3510  -13.9940   21.6990 N   0  0  0  0  0  0  0  0  0  0  0  0
  -23.7420  -15.6780   20.2920 O   0  0  0  0  0  0  0  0  0  0  0  0
  -23.6610  -13.1360   22.1330 H   0  0  0  0  0  0  0  0  0  0  0  0
  -22.4530  -14.3800   21.9580 H   0  0  0  0  0  0  0  0  0  0  0  0
  -26.8670  -16.0340   19.9340 N   0  0  0  0  0  0  0  0  0  0  0  0
  -26.1840  -16.7640   20.0980 H   0  0  0  0  0  0  0  0  0  0  0  0
  -27.7530  -16.3870   19.6010 H   0  0  0  0  0  0  0  0  0  0  0  0
  -26.9650  -24.0600   21.2000 C   0  0  0  0  0  2  0  0  0  0  0  0
  -27.7770  -25.3530   21.3560 C   0  0  0  0  0  2  0  0  0  0  0  0
  -28.5880  -25.7710   20.0930 C   0  0  0  0  0  2  0  0  0  0  0  0
  -28.6910  -27.1920   19.9520 O   0  0  0  0  0  0  0  0  0  0  0  0
  -24.6840  -32.0130   23.2490 C   0  0  0  0  0  0  0  0  0  0  0  0
  -27.5020  -27.8820   19.9210 C   0  0  0  0  0  0  0  0  0  0  0  0
  -23.5220  -30.6590   21.5300 C   0  0  0  0  0  3  0  0  0  0  0  0
  -25.0450  -29.2740   20.0130 C   0  0  0  0  0  0  0  0  0  0  0  0
  -26.0310  -31.1340   21.3510 C   0  0  0  0  0  2  0  0  0  0  0  0
  -26.1760  -29.8080   20.6400 C   0  0  0  0  0  0  0  0  0  0  0  0
  -27.4060  -29.1170   20.6000 C   0  0  0  0  0  3  0  0  0  0  0  0
  -26.3580  -27.3720   19.2610 C   0  0  0  0  0  3  0  0  0  0  0  0
  -25.1280  -28.0560   19.3210 C   0  0  0  0  0  3  0  0  0  0  0  0
  -23.7560  -30.0600   20.1160 C   0  0  0  0  0  2  0  0  0  0  0  0
  -24.7640  -31.2780   22.1010 N   0  0  0  0  0  0  0  0  0  0  0  0
  -23.5950  -32.2100   23.8080 O   0  0  0  0  0  0  0  0  0  0  0  0
  -22.9210  -29.5590   22.4370 C   0  0  0  0  0  0  0  0  0  0  0  0
  -21.6110  -29.3100   22.2810 N   0  0  0  0  0  0  0  0  0  0  0  0
  -23.6310  -28.9330   23.2300 O   0  0  0  0  0  0  0  0  0  0  0  0
  -21.1000  -29.8360   21.5860 H   0  0  0  0  0  0  0  0  0  0  0  0
  -18.2970  -27.9770   22.6910 C   0  0  0  0  0  0  0  0  0  0  0  0
  -20.8370  -28.3110   23.0140 C   0  0  0  0  0  3  0  0  0  0  0  0
  -20.9950  -26.9080   22.3910 C   0  0  0  0  0  2  0  0  0  0  0  0
  -19.9340  -26.6170   21.3220 C   0  0  0  0  0  2  0  0  0  0  0  0
  -18.5270  -26.6890   21.9180 C   0  0  0  0  0  2  0  0  0  0  0  0
  -19.3820  -28.7490   23.1850 C   0  0  0  0  0  0  0  0  0  0  0  0
  -19.1140  -29.9630   23.8490 C   0  0  0  0  0  3  0  0  0  0  0  0
  -17.7910  -30.3990   24.0430 C   0  0  0  0  0  3  0  0  0  0  0  0
  -16.7190  -29.6290   23.5620 C   0  0  0  0  0  3  0  0  0  0  0  0
  -16.9710  -28.4200   22.8900 C   0  0  0  0  0  3  0  0  0  0  0  0
  -25.9510  -32.6600   23.8980 C   0  0  0  0  0  3  0  0  0  0  0  0
  -25.6150  -34.0500   24.2290 N   0  0  0  0  0  0  0  0  0  0  0  0
  -25.9640  -35.1140   23.4920 C   0  0  0  0  0  0  0  0  0  0  0  0
  -26.6740  -35.0260   22.4840 O   0  0  0  0  0  0  0  0  0  0  0  0
  -24.9890  -34.1920   25.0090 H   0  0  0  0  0  0  0  0  0  0  0  0
  -24.2290  -36.8900   23.0890 C   0  0  0  0  0  1  0  0  0  0  0  0
  -25.4430  -36.4900   23.9410 C   0  0  0  0  0  3  0  0  0  0  0  0
  -27.5310  -37.3920   24.8650 C   0  0  0  0  0  1  0  0  0  0  0  0
  -26.4650  -37.5570   23.8810 N   0  0  0  0  0  0  0  0  0  0  0  0
  -26.0400  -38.4690   24.0220 H   0  0  0  0  0  0  0  0  0  0  0  0
  -26.4580  -31.8850   25.1770 C   0  0  1  0  0  0  0  0  0  0  0  0
  -25.3450  -31.6080   26.2150 C   0  0  0  0  0  1  0  0  0  0  0  0
  -27.0850  -30.5290   24.7750 C   0  0  0  0  0  1  0  0  0  0  0  0
  -27.5690  -32.6980   25.8820 C   0  0  0  0  0  1  0  0  0  0  0  0
  1  2  1  0
  2 50  1  0
  2  4  1  0
  3  1  2  0
  5  7  1  0
  5  9  1  0
  6  8  1  0
  6  9  1  0
  9  1  1  0
 10  8  1  0
 10 11  1  0
 10  7  1  0
 11 20  1  0
 12 18  1  0
 12 20  1  0
 13 18  1  0
 14 15  1  0
 14 13  1  0
 16 15  1  0
 16 25  1  0
 16 17  1  0
 18 17  1  0
 19 12  2  0
 20 21  1  0
 22 23  2  0
 23 42  1  0
 24 23  1  0
 24 27  1  0
 25 26  1  0
 25 22  1  0
 26 24  2  0
 27 28  1  0
 28 29  2  0
 30 33  1  0
 30 29  1  0
 31 30  2  0
 32 31  1  0
 32 27  2  0
 33 34  1  0
 34 39  2  0
 34 35  1  0
 35 36  2  0
 36 37  1  0
 37 41  1  0
 38 37  2  0
 39 38  1  0
 40 39  1  0
 42 43  1  0
 43 46  1  0
 43 45  1  0
 44 42  2  0
 47 22  1  0
 47 48  1  0
 49 47  1  0
 50 51  1  0
 52 51  1  0
 53 52  1  0
 54 65  2  0
 55 53  1  0
 55 60  1  0
 56 64  1  0
 56 66  1  0
 57 63  1  0
 57 59  1  0
 58 64  1  0
 59 58  1  0
 60 59  2  0
 61 62  1  0
 61 55  2  0
 62 57  2  0
 63 56  1  0
 64 54  1  0
 66 68  2  0
 67 66  1  0
 69 67  1  0
 70 79  2  0
 70 75  1  0
 71 67  1  0
 71 75  1  0
 72 71  1  0
 73 74  1  0
 73 72  1  0
 74 70  1  0
 75 76  2  0
 76 77  1  0
 78 77  2  0
 79 78  1  0
 80 54  1  0
 80 81  1  0
 80 90  1  0
 81 84  1  0
 82 86  1  0
 82 81  1  0
 83 82  2  0
 86 85  1  0
 88 86  1  0
 88 89  1  0
 88 87  1  0
 90 93  1  1
 90 91  1  0
 92 90  1  0
M  ISO  4  12 100  20 100  52 101  53 101
M  END
>  <TORSDO>  (50) 
F 21

>  <SCORE>  (50) 
-9.856

>  <name>  (50) 
50

>  <ligand_id>  (50) 
50

>  <original_smiles>  (50) 
[H]c1c([H])c([H])c2c(c1[H])C([H])([H])C([H])([H])C([H])([H])C2([H])N([H])C(=O)C1([H])N(C(=O)C([H])(N([H])C(=O)C([H])(N([H])C([H])([H])[H])C([H])([H])[H])C(C([H])([H])[H])(C([H])([H])[H])C([H])([H])[H])C([H])([H])c2c([H])c(OC([H])([H])C([H])([H])C([H])([H])N([H])C(=O)C3([H])C([H])([H])C([H])([H])C([H])(C([H])([H])N([H])C(=O)N4C([H])([H])C([H])([H])C([H])([H])C([H])(n5nc(-c6c([H])c([H])c(Oc7c([H])c([H])c(F)c([H])c7F)c([H])c6[H])c(C(=O)N([H])[H])c5N([H])[H])C4([H])[H])C([H])([H])C3([H])[H])c([H])c([H])c2C1([H])[H]

>  <smiles>  (50) 
[H]c1c([H])c([H])c2c(c1[H])C([H])([H])C([H])([H])C([H])([H])C2([H])N([H])C(=O)C1([H])N(C(=O)C([H])(N([H])C(=O)C([H])(N([H])C([H])([H])[H])C([H])([H])[H])C(C([H])([H])[H])(C([H])([H])[H])C([H])([H])[H])C([H])([H])c2c([H])c(OC([H])([H])C([H])([H])C([H])([H])N([H])C(=O)C3([H])C([H])([H])C([H])([H])C([H])(C([H])([H])N([H])C(=O)N4C([H])([H])C([H])([H])C([H])([H])C([H])(n5nc(-c6c([H])c([H])c(Oc7c([H])c([H])c(F)c([H])c7F)c([H])c6[H])c(C(=O)N([H])[H])c5N([H])[H])C4([H])[H])C([H])([H])C3([H])[H])c([H])c([H])c2C1([H])[H]

$$$$
51:0:0
     RDKit          3D

 96103  0  0  1  0  0  0  0  0999 V2000
  -29.5840  -22.7620   23.8400 C   0  0  0  0  0  2  0  0  0  0  0  0
  -28.8620  -23.8120   23.0930 N   0  0  0  0  0  4  0  0  0  0  0  0
  -27.8990  -23.8400   23.3900 H   0  0  0  0  0  0  0  0  0  0  0  0
  -28.8800  -23.5770   22.1150 H   0  0  0  0  0  0  0  0  0  0  0  0
  -29.4320  -25.1640   23.2660 C   0  0  0  0  0  2  0  0  0  0  0  0
  -28.7240  -26.2120   22.3930 C   0  0  0  0  0  3  0  0  0  0  0  0
  -27.4310  -26.2280   22.7260 F   0  0  0  0  0  0  0  0  0  0  0  0
  -28.8800  -26.0000   20.8690 C   0  0  0  0  0  2  0  0  0  0  0  0
  -28.8010  -27.2310   20.1550 O   0  0  0  0  0  0  0  0  0  0  0  0
  -24.7180  -32.0540   23.3770 C   0  0  0  0  0  0  0  0  0  0  0  0
  -27.5820  -27.8570   20.1970 C   0  0  0  0  0  0  0  0  0  0  0  0
  -23.5810  -30.6320   21.6980 C   0  0  0  0  0  3  0  0  0  0  0  0
  -25.1080  -29.2010   20.2440 C   0  0  0  0  0  0  0  0  0  0  0  0
  -26.0800  -31.1310   21.5100 C   0  0  0  0  0  2  0  0  0  0  0  0
  -26.2340  -29.7830   20.8400 C   0  0  0  0  0  0  0  0  0  0  0  0
  -27.4760  -29.1190   20.8100 C   0  0  0  0  0  3  0  0  0  0  0  0
  -26.4450  -27.2690   19.6060 C   0  0  0  0  0  3  0  0  0  0  0  0
  -25.2060  -27.9400   19.6250 C   0  0  0  0  0  3  0  0  0  0  0  0
  -23.8220  -29.9920   20.3050 C   0  0  0  0  0  2  0  0  0  0  0  0
  -24.8100  -31.2860   22.2550 N   0  0  0  0  0  0  0  0  0  0  0  0
  -23.6240  -32.2590   23.9210 O   0  0  0  0  0  0  0  0  0  0  0  0
  -22.9800  -29.5600   22.6340 C   0  0  0  0  0  0  0  0  0  0  0  0
  -21.6780  -29.2830   22.4660 N   0  0  0  0  0  0  0  0  0  0  0  0
  -23.6830  -28.9800   23.4660 O   0  0  0  0  0  0  0  0  0  0  0  0
  -21.1670  -29.8080   21.7680 H   0  0  0  0  0  0  0  0  0  0  0  0
  -18.3950  -27.8220   22.8220 C   0  0  0  0  0  0  0  0  0  0  0  0
  -20.9080  -28.2830   23.2040 C   0  0  0  0  0  3  0  0  0  0  0  0
  -21.1520  -26.8650   22.6390 C   0  0  0  0  0  2  0  0  0  0  0  0
  -20.1240  -26.4550   21.5800 C   0  0  0  0  0  2  0  0  0  0  0  0
  -18.7090  -26.4900   22.1620 C   0  0  0  0  0  2  0  0  0  0  0  0
  -19.4290  -28.6710   23.2980 C   0  0  0  0  0  0  0  0  0  0  0  0
  -19.0840  -29.9150   23.8690 C   0  0  0  0  0  3  0  0  0  0  0  0
  -17.7370  -30.3110   23.9740 C   0  0  0  0  0  3  0  0  0  0  0  0
  -16.7170  -29.4590   23.5170 C   0  0  0  0  0  3  0  0  0  0  0  0
  -17.0470  -28.2170   22.9460 C   0  0  0  0  0  3  0  0  0  0  0  0
  -25.9730  -32.7290   24.0130 C   0  0  0  0  0  3  0  0  0  0  0  0
  -25.6180  -34.1200   24.3200 N   0  0  0  0  0  0  0  0  0  0  0  0
  -25.9470  -35.1740   23.5620 C   0  0  0  0  0  0  0  0  0  0  0  0
  -26.6540  -35.0800   22.5540 O   0  0  0  0  0  0  0  0  0  0  0  0
  -24.9940  -34.2670   25.1010 H   0  0  0  0  0  0  0  0  0  0  0  0
  -24.1840  -36.9130   23.1300 C   0  0  0  0  0  1  0  0  0  0  0  0
  -25.4070  -36.5520   23.9880 C   0  0  0  0  0  3  0  0  0  0  0  0
  -27.4910  -37.5000   24.8770 C   0  0  0  0  0  1  0  0  0  0  0  0
  -26.4140  -37.6320   23.8990 N   0  0  0  0  0  0  0  0  0  0  0  0
  -25.9800  -38.5420   24.0270 H   0  0  0  0  0  0  0  0  0  0  0  0
  -26.4940  -31.9860   25.3040 C   0  0  1  0  0  0  0  0  0  0  0  0
  -25.3890  -31.7090   26.3500 C   0  0  0  0  0  1  0  0  0  0  0  0
  -27.1410  -30.6320   24.9300 C   0  0  0  0  0  1  0  0  0  0  0  0
  -27.5960  -32.8300   25.9850 C   0  0  0  0  0  1  0  0  0  0  0  0
  -29.4480  -21.3860   23.1650 C   0  0  0  0  0  2  0  0  0  0  0  0
  -30.6590  -20.4770   23.4350 C   0  0  0  0  0  2  0  0  0  0  0  0
  -30.4970  -19.0850   22.8040 C   0  0  0  0  0  2  0  0  0  0  0  0
  -31.7250  -18.2740   22.9440 N   0  0  0  0  0  4  0  0  0  0  0  0
  -31.9300  -18.1790   23.9260 H   0  0  0  0  0  0  0  0  0  0  0  0
  -32.5020  -18.7620   22.5290 H   0  0  0  0  0  0  0  0  0  0  0  0
  -31.6510  -16.9250   22.3430 C   0  0  0  0  0  2  0  0  0  0  0  0
  -31.9350  -16.9520   20.8250 C   0  0  0  0  0  2  0  0  0  0  0  0
  -32.4670  -15.6300   20.2480 C   0  0  0  0  0  2  0  0  0  0  0  0
  -31.3270  -13.8560   18.9100 C   0  0  0  0  0  0  0  0  0  0  0  0
  -30.8310  -11.4900   18.4450 C   0  0  0  0  0  2  0  0  0  0  0  0
  -29.7150  -11.2410   17.4220 C   0  0  0  0  0  2  0  0  0  0  0  0
  -28.3420  -11.2400   18.1140 C   0  0  0  0  0  2  0  0  0  0  0  0
  -28.1290  -12.4970   18.9930 C   0  0  0  0  0  3  0  0  0  0  0  0
  -29.3310  -12.7300   19.9350 C   0  0  0  0  0  2  0  0  0  0  0  0
  -30.5720  -12.7570   19.1390 N   0  0  0  0  0  0  0  0  0  0  0  0
  -32.0670  -13.9910   17.9300 O   0  0  0  0  0  0  0  0  0  0  0  0
  -31.4080  -14.6580   19.9800 N   0  0  0  0  0  0  0  0  0  0  0  0
  -30.8220  -14.3890   20.7570 H   0  0  0  0  0  0  0  0  0  0  0  0
  -26.0780  -13.4360   20.2370 C   0  0  0  0  0  0  0  0  0  0  0  0
  -24.9780  -12.8260   20.7770 C   0  0  0  0  0  0  0  0  0  0  0  0
  -25.1600  -11.4250   20.5650 C   0  0  0  0  0  0  0  0  0  0  0  0
  -26.8710  -12.4160   19.7350 N   0  0  0  0  0  0  0  0  0  0  0  0
  -26.3310  -11.1960   19.9840 N   0  0  0  0  0  0  0  0  0  0  0  0
  -24.2620  -10.2930   20.8270 C   0  0  0  0  0  0  0  0  0  0  0  0
  -24.6500   -9.2160   21.6530 C   0  0  0  0  0  3  0  0  0  0  0  0
  -23.7630   -8.1490   21.9050 C   0  0  0  0  0  3  0  0  0  0  0  0
  -22.4700   -8.1510   21.3310 C   0  0  0  0  0  0  0  0  0  0  0  0
  -22.0940   -9.2150   20.4900 C   0  0  0  0  0  3  0  0  0  0  0  0
  -22.9820  -10.2750   20.2370 C   0  0  0  0  0  3  0  0  0  0  0  0
  -21.5490   -7.1450   21.4980 O   0  0  0  0  0  0  0  0  0  0  0  0
  -21.5010   -6.3980   22.6480 C   0  0  0  0  0  0  0  0  0  0  0  0
  -21.3250   -6.9920   23.9170 C   0  0  0  0  0  3  0  0  0  0  0  0
  -21.2120   -6.1820   25.0640 C   0  0  0  0  0  3  0  0  0  0  0  0
  -21.2640   -4.7810   24.9450 C   0  0  0  0  0  0  0  0  0  0  0  0
  -21.4330   -4.1870   23.6820 C   0  0  0  0  0  3  0  0  0  0  0  0
  -21.5480   -4.9940   22.5360 C   0  0  0  0  0  0  0  0  0  0  0  0
  -21.6890   -4.4160   21.3190 F   0  0  0  0  0  0  0  0  0  0  0  0
  -21.1460   -4.0020   26.0450 F   0  0  0  0  0  0  0  0  0  0  0  0
  -23.7790  -13.5050   21.3740 C   0  0  0  0  0  0  0  0  0  0  0  0
  -23.1510  -12.8830   22.3640 N   0  0  0  0  0  0  0  0  0  0  0  0
  -23.4220  -14.6200   20.9960 O   0  0  0  0  0  0  0  0  0  0  0  0
  -23.4540  -11.9760   22.6880 H   0  0  0  0  0  0  0  0  0  0  0  0
  -22.3520  -13.3170   22.8050 H   0  0  0  0  0  0  0  0  0  0  0  0
  -26.4600  -14.7690   20.1150 N   0  0  0  0  0  0  0  0  0  0  0  0
  -25.8690  -15.5330   20.4240 H   0  0  0  0  0  0  0  0  0  0  0  0
  -27.3050  -15.0830   19.6510 H   0  0  0  0  0  0  0  0  0  0  0  0
  2  5  1  0
  2  3  1  0
  2  1  1  0
  4  2  1  0
  6  7  1  0
  6  5  1  0
  8  6  1  0
  9 11  1  0
  9  8  1  0
 10 21  2  0
 11 16  1  0
 12 20  1  0
 12 22  1  0
 13 19  1  0
 13 15  1  0
 14 20  1  0
 15 14  1  0
 16 15  2  0
 17 18  1  0
 17 11  2  0
 18 13  2  0
 19 12  1  0
 20 10  1  0
 22 24  2  0
 23 22  1  0
 25 23  1  0
 26 35  2  0
 26 31  1  0
 27 23  1  0
 27 31  1  0
 28 27  1  0
 29 30  1  0
 29 28  1  0
 30 26  1  0
 31 32  2  0
 32 33  1  0
 34 33  2  0
 35 34  1  0
 36 10  1  0
 36 37  1  0
 36 46  1  0
 37 40  1  0
 38 42  1  0
 38 37  1  0
 39 38  2  0
 42 41  1  0
 44 42  1  0
 44 45  1  0
 44 43  1  0
 46 49  1  1
 46 47  1  0
 48 46  1  0
 50 51  1  0
 50  1  1  0
 52 53  1  0
 52 51  1  0
 53 54  1  0
 55 53  1  0
 56 53  1  0
 57 56  1  0
 58 57  1  0
 59 65  1  0
 59 67  1  0
 60 65  1  0
 61 62  1  0
 61 60  1  0
 63 62  1  0
 63 72  1  0
 63 64  1  0
 65 64  1  0
 66 59  2  0
 67 58  1  0
 67 68  1  0
 69 70  2  0
 70 89  1  0
 71 70  1  0
 71 74  1  0
 72 73  1  0
 72 69  1  0
 73 71  2  0
 74 75  1  0
 75 76  2  0
 77 80  1  0
 77 76  1  0
 78 77  2  0
 79 78  1  0
 79 74  2  0
 80 81  1  0
 81 82  1  0
 82 83  2  0
 84 83  1  0
 84 88  1  0
 85 84  2  0
 86 81  2  0
 86 85  1  0
 87 86  1  0
 89 90  1  0
 90 92  1  0
 90 93  1  0
 91 89  2  0
 94 69  1  0
 94 95  1  0
 96 94  1  0
M  ISO  4   8 101   9 101  59 100  67 100
M  END
>  <TORSDO>  (51) 
F 27

>  <SCORE>  (51) 
-7.748

>  <name>  (51) 
51

>  <ligand_id>  (51) 
51

>  <original_smiles>  (51) 
[H]c1c([H])c([H])c2c(c1[H])C([H])([H])C([H])([H])C([H])([H])C2([H])N([H])C(=O)C1([H])N(C(=O)C([H])(N([H])C(=O)C([H])(N([H])C([H])([H])[H])C([H])([H])[H])C(C([H])([H])[H])(C([H])([H])[H])C([H])([H])[H])C([H])([H])c2c([H])c(OC([H])([H])C([H])(F)C([H])([H])[N+]([H])([H])C([H])([H])C([H])([H])C([H])([H])C([H])([H])[N+]([H])([H])C([H])([H])C([H])([H])C([H])([H])N([H])C(=O)N3C([H])([H])C([H])([H])C([H])([H])C([H])(n4nc(-c5c([H])c([H])c(Oc6c([H])c([H])c(F)c([H])c6F)c([H])c5[H])c(C(=O)N([H])[H])c4N([H])[H])C3([H])[H])c([H])c([H])c2C1([H])[H]

>  <smiles>  (51) 
[H]c1c([H])c([H])c2c(c1[H])C([H])([H])C([H])([H])C([H])([H])C2([H])N([H])C(=O)C1([H])N(C(=O)C([H])(N([H])C(=O)C([H])(N([H])C([H])([H])[H])C([H])([H])[H])C(C([H])([H])[H])(C([H])([H])[H])C([H])([H])[H])C([H])([H])c2c([H])c(OC([H])([H])C([H])(F)C([H])([H])[N+]([H])([H])C([H])([H])C([H])([H])C([H])([H])C([H])([H])[N+]([H])([H])C([H])([H])C([H])([H])C([H])([H])N([H])C(=O)N3C([H])([H])C([H])([H])C([H])([H])C([H])(n4nc(-c5c([H])c([H])c(Oc6c([H])c([H])c(F)c([H])c6F)c([H])c5[H])c(C(=O)N([H])[H])c4N([H])[H])C3([H])[H])c([H])c([H])c2C1([H])[H]

$$$$
52:0:0
     RDKit          3D

 96105  0  0  1  0  0  0  0  0999 V2000
  -30.6540  -25.4760   17.4040 C   0  0  0  0  0  3  0  0  0  0  0  0
  -32.7690  -25.2470   16.2510 C   0  0  0  0  0  3  0  0  0  0  0  0
  -30.1670  -26.2840   16.3420 C   0  0  0  0  0  3  0  0  0  0  0  0
  -32.3110  -26.1060   15.2300 C   0  0  0  0  0  3  0  0  0  0  0  0
  -31.9580  -24.9160   17.3600 C   0  0  0  0  0  0  0  0  0  0  0  0
  -31.0100  -26.6480   15.2680 C   0  0  0  0  0  0  0  0  0  0  0  0
  -32.6060  -24.0350   18.4560 C   0  0  0  0  0  2  0  0  0  0  0  0
  -32.2590  -21.7820   17.1480 C   0  0  0  0  0  1  0  0  0  0  0  0
  -33.9570  -22.0340   18.9830 C   0  0  0  0  0  1  0  0  0  0  0  0
  -32.5320  -22.4540   18.5270 C   0  0  1  0  0  0  0  0  0  0  0  0
  -31.4330  -22.1000   19.6250 C   0  0  0  0  0  2  0  0  0  0  0  0
  -31.3830  -20.9310   20.4840 O   0  0  0  0  0  0  0  0  0  0  0  0
  -35.0590  -15.3680   18.1490 C   0  0  0  0  0  0  0  0  0  0  0  0
  -31.3160  -19.6930   19.9100 C   0  0  0  0  0  0  0  0  0  0  0  0
  -32.7320  -15.5530   17.3280 C   0  0  0  0  0  3  0  0  0  0  0  0
  -31.2460  -17.2160   18.5710 C   0  0  0  0  0  0  0  0  0  0  0  0
  -33.3820  -16.4640   19.6250 C   0  0  0  0  0  2  0  0  0  0  0  0
  -32.2990  -17.5060   19.4520 C   0  0  0  0  0  0  0  0  0  0  0  0
  -32.3360  -18.7420   20.1330 C   0  0  0  0  0  3  0  0  0  0  0  0
  -30.2200  -19.3510   19.0980 C   0  0  0  0  0  3  0  0  0  0  0  0
  -30.1980  -18.1310   18.3990 C   0  0  0  0  0  3  0  0  0  0  0  0
  -31.3040  -15.8940   17.8420 C   0  0  0  0  0  2  0  0  0  0  0  0
  -33.7860  -15.8080   18.3610 N   0  0  0  0  0  0  0  0  0  0  0  0
  -35.3540  -14.7280   17.1300 O   0  0  0  0  0  0  0  0  0  0  0  0
  -32.9870  -16.3100   16.0050 C   0  0  0  0  0  0  0  0  0  0  0  0
  -32.7080  -15.6420   14.8740 N   0  0  0  0  0  0  0  0  0  0  0  0
  -33.4100  -17.4680   16.0060 O   0  0  0  0  0  0  0  0  0  0  0  0
  -32.3560  -14.6990   14.9590 H   0  0  0  0  0  0  0  0  0  0  0  0
  -32.3980  -14.7900   11.3770 C   0  0  0  0  0  0  0  0  0  0  0  0
  -32.8370  -16.1660   13.5180 C   0  0  0  0  0  3  0  0  0  0  0  0
  -31.5810  -16.9840   13.1360 C   0  0  0  0  0  2  0  0  0  0  0  0
  -30.5320  -16.1510   12.3960 C   0  0  0  0  0  2  0  0  0  0  0  0
  -31.1320  -15.5870   11.1040 C   0  0  0  0  0  2  0  0  0  0  0  0
  -33.1960  -15.0600   12.5180 C   0  0  0  0  0  0  0  0  0  0  0  0
  -34.3570  -14.2900   12.7390 C   0  0  0  0  0  3  0  0  0  0  0  0
  -34.7220  -13.2670   11.8430 C   0  0  0  0  0  3  0  0  0  0  0  0
  -33.9350  -13.0120   10.7050 C   0  0  0  0  0  3  0  0  0  0  0  0
  -32.7740  -13.7710   10.4750 C   0  0  0  0  0  3  0  0  0  0  0  0
  -36.1990  -15.6240   19.1850 C   0  0  0  0  0  3  0  0  0  0  0  0
  -37.1990  -16.7600   18.7410 C   0  0  1  0  0  0  0  0  0  0  0  0
  -38.3320  -16.2650   17.8110 C   0  0  0  0  0  1  0  0  0  0  0  0
  -36.4410  -17.8860   18.0020 C   0  0  0  0  0  1  0  0  0  0  0  0
  -37.8500  -17.4010   19.9890 C   0  0  0  0  0  1  0  0  0  0  0  0
  -36.9060  -14.3570   19.3890 N   0  0  0  0  0  0  0  0  0  0  0  0
  -36.5890  -13.4500   20.3250 C   0  0  0  0  0  0  0  0  0  0  0  0
  -35.7010  -13.6340   21.1620 O   0  0  0  0  0  0  0  0  0  0  0  0
  -37.5970  -14.1160   18.6950 H   0  0  0  0  0  0  0  0  0  0  0  0
  -36.4650  -10.9740   19.8850 C   0  0  0  0  0  1  0  0  0  0  0  0
  -37.3800  -12.1280   20.3290 C   0  0  0  0  0  3  0  0  0  0  0  0
  -39.0850  -12.6880   22.0030 C   0  0  0  0  0  1  0  0  0  0  0  0
  -37.9800  -11.8040   21.6400 N   0  0  0  0  0  0  0  0  0  0  0  0
  -38.3260  -10.8480   21.6550 H   0  0  0  0  0  0  0  0  0  0  0  0
  -30.5560  -27.6140   14.1620 C   0  0  0  0  0  2  0  0  0  0  0  0
  -26.5770  -26.5910   10.3330 C   0  0  0  0  0  0  0  0  0  0  0  0
  -26.4900  -26.8870    7.8730 C   0  0  0  0  0  2  0  0  0  0  0  0
  -27.7130  -26.2270    7.1900 C   0  0  0  0  0  2  0  0  0  0  0  0
  -28.9190  -27.1940    7.1530 C   0  0  0  0  0  2  0  0  0  0  0  0
  -29.1890  -27.8290    8.5440 C   0  0  0  0  0  3  0  0  0  0  0  0
  -27.8860  -28.4030    9.1270 C   0  0  0  0  0  2  0  0  0  0  0  0
  -26.8910  -27.3240    9.2250 N   0  0  0  0  0  0  0  0  0  0  0  0
  -25.8240  -25.6120   10.2600 O   0  0  0  0  0  0  0  0  0  0  0  0
  -27.6260  -25.7340   12.3910 C   0  0  0  0  0  2  0  0  0  0  0  0
  -27.2270  -28.0700   12.2510 C   0  0  0  0  0  2  0  0  0  0  0  0
  -29.0000  -25.9650   13.0880 C   0  0  0  0  0  2  0  0  0  0  0  0
  -28.6430  -28.4050   12.7860 C   0  0  0  0  0  2  0  0  0  0  0  0
  -27.2960  -26.8290   11.4680 N   0  0  0  0  0  0  0  0  0  0  0  0
  -29.1700  -27.3290   13.6790 N   0  0  2  0  0  4  0  0  0  0  0  0
  -28.5980  -27.3530   14.5140 H   0  0  0  0  0  0  0  0  0  0  0  0
  -31.2960  -29.0730    9.3470 C   0  0  0  0  0  0  0  0  0  0  0  0
  -32.0030  -30.1110    8.8150 C   0  0  0  0  0  0  0  0  0  0  0  0
  -31.3120  -30.4850    7.6220 C   0  0  0  0  0  0  0  0  0  0  0  0
  -30.2290  -28.8530    8.4920 N   0  0  0  0  0  0  0  0  0  0  0  0
  -30.2140  -29.7540    7.4780 N   0  0  0  0  0  0  0  0  0  0  0  0
  -31.6640  -31.4490    6.5750 C   0  0  0  0  0  0  0  0  0  0  0  0
  -31.0590  -32.7240    6.5120 C   0  0  0  0  0  3  0  0  0  0  0  0
  -31.4260  -33.6430    5.5080 C   0  0  0  0  0  3  0  0  0  0  0  0
  -32.4130  -33.2930    4.5520 C   0  0  0  0  0  0  0  0  0  0  0  0
  -32.9900  -32.0120    4.6030 C   0  0  0  0  0  3  0  0  0  0  0  0
  -32.6190  -31.0970    5.6010 C   0  0  0  0  0  3  0  0  0  0  0  0
  -32.8160  -34.1120    3.5250 O   0  0  0  0  0  0  0  0  0  0  0  0
  -33.4950  -35.2800    3.7610 C   0  0  0  0  0  0  0  0  0  0  0  0
  -34.5730  -35.3440    4.6720 C   0  0  0  0  0  3  0  0  0  0  0  0
  -35.2860  -36.5480    4.8290 C   0  0  0  0  0  3  0  0  0  0  0  0
  -34.9350  -37.6830    4.0740 C   0  0  0  0  0  0  0  0  0  0  0  0
  -33.8650  -37.6180    3.1640 C   0  0  0  0  0  3  0  0  0  0  0  0
  -33.1480  -36.4200    3.0090 C   0  0  0  0  0  0  0  0  0  0  0  0
  -32.1330  -36.3580    2.1130 F   0  0  0  0  0  0  0  0  0  0  0  0
  -35.6300  -38.8350    4.2190 F   0  0  0  0  0  0  0  0  0  0  0  0
  -33.2950  -30.6780    9.3290 C   0  0  0  0  0  0  0  0  0  0  0  0
  -33.3180  -31.9650    9.6570 N   0  0  0  0  0  0  0  0  0  0  0  0
  -34.2840  -29.9580    9.4870 O   0  0  0  0  0  0  0  0  0  0  0  0
  -32.4980  -32.5460    9.5520 H   0  0  0  0  0  0  0  0  0  0  0  0
  -34.1660  -32.3790   10.0230 H   0  0  0  0  0  0  0  0  0  0  0  0
  -31.4780  -28.2730   10.4720 N   0  0  0  0  0  0  0  0  0  0  0  0
  -32.3640  -28.2920   10.9590 H   0  0  0  0  0  0  0  0  0  0  0  0
  -31.0210  -27.3780   10.5550 H   0  0  0  0  0  0  0  0  0  0  0  0
  2  5  2  0
  3  1  2  0
  4  6  2  0
  4  2  1  0
  5  1  1  0
  5  7  1  0
  6  3  1  0
  7 10  1  0
 10  8  1  6
 10  9  1  0
 10 11  1  0
 11 12  1  0
 13 23  1  0
 14 19  1  0
 14 12  1  0
 15 25  1  0
 15 22  1  0
 15 23  1  0
 16 18  1  0
 18 17  1  0
 18 19  2  0
 20 14  2  0
 21 16  2  0
 21 20  1  0
 22 16  1  0
 23 17  1  0
 24 13  2  0
 25 27  2  0
 26 28  1  0
 26 25  1  0
 29 34  1  0
 30 26  1  0
 31 30  1  0
 32 31  1  0
 33 29  1  0
 33 32  1  0
 34 35  2  0
 34 30  1  0
 36 35  1  0
 37 36  2  0
 38 37  1  0
 38 29  2  0
 39 13  1  0
 39 44  1  0
 40 39  1  0
 40 43  1  1
 41 40  1  0
 42 40  1  0
 44 45  1  0
 45 49  1  0
 45 46  2  0
 47 44  1  0
 49 48  1  0
 49 51  1  0
 51 52  1  0
 51 50  1  0
 53  6  1  0
 54 66  1  0
 55 60  1  0
 56 55  1  0
 57 56  1  0
 58 57  1  0
 58 59  1  0
 59 60  1  0
 60 54  1  0
 61 54  2  0
 62 64  1  0
 63 65  1  0
 64 67  1  0
 65 67  1  0
 66 63  1  0
 66 62  1  0
 67 53  1  0
 67 68  1  1
 69 94  1  0
 70 89  1  0
 70 69  2  0
 71 70  1  0
 72 58  1  0
 72 69  1  0
 73 71  2  0
 73 72  1  0
 74 71  1  0
 75 74  1  0
 76 75  2  0
 77 78  2  0
 77 76  1  0
 78 79  1  0
 79 74  2  0
 80 81  1  0
 80 77  1  0
 81 82  1  0
 82 83  2  0
 84 88  1  0
 84 83  1  0
 85 84  2  0
 86 85  1  0
 86 81  2  0
 87 86  1  0
 89 91  2  0
 89 90  1  0
 90 93  1  0
 92 90  1  0
 94 96  1  0
 94 95  1  0
M  ISO  4  11 101  12 101  54 100  66 100
M  END
>  <TORSDO>  (52) 
F 20

>  <SCORE>  (52) 
-4.231

>  <name>  (52) 
52

>  <ligand_id>  (52) 
52

>  <original_smiles>  (52) 
[H]c1c([H])c([H])c2c(c1[H])C([H])([H])C([H])([H])C([H])([H])C2([H])N([H])C(=O)C1([H])N(C(=O)C([H])(N([H])C(=O)C([H])(N([H])C([H])([H])[H])C([H])([H])[H])C(C([H])([H])[H])(C([H])([H])[H])C([H])([H])[H])C([H])([H])c2c([H])c(OC([H])([H])C(C([H])([H])[H])(C([H])([H])[H])C([H])([H])c3c([H])c([H])c(C([H])([H])[N+]4([H])C([H])([H])C([H])([H])N(C(=O)N5C([H])([H])C([H])([H])C([H])([H])C([H])(n6nc(-c7c([H])c([H])c(Oc8c([H])c([H])c(F)c([H])c8F)c([H])c7[H])c(C(=O)N([H])[H])c6N([H])[H])C5([H])[H])C([H])([H])C4([H])[H])c([H])c3[H])c([H])c([H])c2C1([H])[H]

>  <smiles>  (52) 
[H]c1c([H])c([H])c2c(c1[H])C([H])([H])C([H])([H])C([H])([H])C2([H])N([H])C(=O)C1([H])N(C(=O)C([H])(N([H])C(=O)C([H])(N([H])C([H])([H])[H])C([H])([H])[H])C(C([H])([H])[H])(C([H])([H])[H])C([H])([H])[H])C([H])([H])c2c([H])c(OC([H])([H])C(C([H])([H])[H])(C([H])([H])[H])C([H])([H])c3c([H])c([H])c(C([H])([H])[N+]4([H])C([H])([H])C([H])([H])N(C(=O)N5C([H])([H])C([H])([H])C([H])([H])C([H])(n6nc(-c7c([H])c([H])c(Oc8c([H])c([H])c(F)c([H])c8F)c([H])c7[H])c(C(=O)N([H])[H])c6N([H])[H])C5([H])[H])C([H])([H])C4([H])[H])c([H])c3[H])c([H])c([H])c2C1([H])[H]

$$$$
53:0:0
     RDKit          3D

 96104  0  0  1  0  0  0  0  0999 V2000
  -27.6170  -20.7810   18.8300 C   0  0  0  0  0  2  0  0  0  0  0  0
  -29.1180  -20.8810   19.1890 C   0  0  0  0  0  2  0  0  0  0  0  0
  -31.3370  -19.7650   19.1070 C   0  0  0  0  0  2  0  0  0  0  0  0
  -29.4590  -18.4720   19.8380 C   0  0  0  0  0  2  0  0  0  0  0  0
  -31.7880  -18.7820   20.1970 C   0  0  0  0  0  3  0  0  0  0  0  0
  -30.7390  -17.6640   20.1250 C   0  0  0  0  0  3  0  0  0  0  0  0
  -33.2450  -18.3130   20.0320 C   0  0  0  0  0  1  0  0  0  0  0  0
  -29.8670  -19.6130   18.9780 N   0  0  1  0  0  4  0  0  0  0  0  0
  -29.7140  -19.3320   18.0210 H   0  0  0  0  0  0  0  0  0  0  0  0
  -30.6770  -16.7660   21.3940 C   0  0  0  0  0  2  0  0  0  0  0  0
  -30.7130  -14.4310   20.5410 C   0  0  0  0  0  0  0  0  0  0  0  0
  -30.3580  -12.3100   19.3520 C   0  0  0  0  0  2  0  0  0  0  0  0
  -29.4270  -12.5460   18.1460 C   0  0  0  0  0  2  0  0  0  0  0  0
  -27.9500  -12.4270   18.5680 C   0  0  0  0  0  2  0  0  0  0  0  0
  -27.6180  -13.2620   19.8340 C   0  0  0  0  0  3  0  0  0  0  0  0
  -28.6630  -13.0140   20.9470 C   0  0  0  0  0  2  0  0  0  0  0  0
  -29.9970  -13.2880   20.3860 N   0  0  0  0  0  0  0  0  0  0  0  0
  -31.8260  -14.6020   20.0420 O   0  0  0  0  0  0  0  0  0  0  0  0
  -30.0900  -15.4390   21.1710 N   0  0  0  0  0  0  0  0  0  0  0  0
  -29.1800  -15.2480   21.5640 H   0  0  0  0  0  0  0  0  0  0  0  0
  -25.2150  -13.8930   20.5060 C   0  0  0  0  0  0  0  0  0  0  0  0
  -24.1370  -13.1320   20.8690 C   0  0  0  0  0  0  0  0  0  0  0  0
  -24.5890  -11.7760   20.8590 C   0  0  0  0  0  0  0  0  0  0  0  0
  -26.2580  -13.0030   20.3000 N   0  0  0  0  0  0  0  0  0  0  0  0
  -25.8830  -11.7260   20.5680 N   0  0  0  0  0  0  0  0  0  0  0  0
  -23.8520  -10.5200   21.0510 C   0  0  0  0  0  0  0  0  0  0  0  0
  -24.2770   -9.5510   21.9850 C   0  0  0  0  0  3  0  0  0  0  0  0
  -23.5420   -8.3600   22.1660 C   0  0  0  0  0  3  0  0  0  0  0  0
  -22.3660   -8.1310   21.4120 C   0  0  0  0  0  0  0  0  0  0  0  0
  -21.9590   -9.0890   20.4680 C   0  0  0  0  0  3  0  0  0  0  0  0
  -22.6950  -10.2710   20.2850 C   0  0  0  0  0  3  0  0  0  0  0  0
  -21.6020   -6.9910   21.5020 O   0  0  0  0  0  0  0  0  0  0  0  0
  -21.5600   -6.2420   22.6500 C   0  0  0  0  0  0  0  0  0  0  0  0
  -21.1670   -6.7950   23.8880 C   0  0  0  0  0  3  0  0  0  0  0  0
  -21.0710   -5.9730   25.0290 C   0  0  0  0  0  3  0  0  0  0  0  0
  -21.3590   -4.5980   24.9320 C   0  0  0  0  0  0  0  0  0  0  0  0
  -21.7460   -4.0440   23.6990 C   0  0  0  0  0  3  0  0  0  0  0  0
  -21.8440   -4.8640   22.5610 C   0  0  0  0  0  0  0  0  0  0  0  0
  -22.1960   -4.3200   21.3710 F   0  0  0  0  0  0  0  0  0  0  0  0
  -21.2600   -3.8070   26.0260 F   0  0  0  0  0  0  0  0  0  0  0  0
  -22.7370  -13.6210   21.1150 C   0  0  0  0  0  0  0  0  0  0  0  0
  -21.9920  -12.9400   21.9790 N   0  0  0  0  0  0  0  0  0  0  0  0
  -22.3120  -14.6430   20.5790 O   0  0  0  0  0  0  0  0  0  0  0  0
  -22.3460  -12.1130   22.4380 H   0  0  0  0  0  0  0  0  0  0  0  0
  -21.0520  -13.2470   22.1820 H   0  0  0  0  0  0  0  0  0  0  0  0
  -25.3910  -15.2610   20.3150 N   0  0  0  0  0  0  0  0  0  0  0  0
  -24.6310  -15.9240   20.4140 H   0  0  0  0  0  0  0  0  0  0  0  0
  -26.2490  -15.6880   19.9900 H   0  0  0  0  0  0  0  0  0  0  0  0
  -26.8010  -22.0860   18.9970 C   0  0  0  0  0  2  0  0  0  0  0  0
  -27.2710  -23.2130   18.1540 N   0  0  0  0  0  4  0  0  0  0  0  0
  -26.4480  -23.6910   17.8200 H   0  0  0  0  0  0  0  0  0  0  0  0
  -27.7490  -22.8680   17.3370 H   0  0  0  0  0  0  0  0  0  0  0  0
  -28.1000  -24.2040   18.8750 C   0  0  0  0  0  2  0  0  0  0  0  0
  -28.3820  -25.4650   18.0340 C   0  0  0  0  0  2  0  0  0  0  0  0
  -28.9940  -26.6050   18.8720 C   0  0  0  0  0  2  0  0  0  0  0  0
  -28.3710  -26.7820   20.1450 O   0  0  0  0  0  0  0  0  0  0  0  0
  -24.5740  -31.9100   23.2540 C   0  0  0  0  0  0  0  0  0  0  0  0
  -27.1940  -27.4910   20.1590 C   0  0  0  0  0  0  0  0  0  0  0  0
  -23.3520  -30.5080   21.6190 C   0  0  0  0  0  3  0  0  0  0  0  0
  -24.7940  -28.9690   20.1970 C   0  0  0  0  0  0  0  0  0  0  0  0
  -25.8750  -30.8710   21.4040 C   0  0  0  0  0  2  0  0  0  0  0  0
  -25.9530  -29.4980   20.7760 C   0  0  0  0  0  0  0  0  0  0  0  0
  -27.1580  -28.7620   20.7620 C   0  0  0  0  0  3  0  0  0  0  0  0
  -26.0100  -26.9540   19.6130 C   0  0  0  0  0  3  0  0  0  0  0  0
  -24.8140  -27.6920   19.6150 C   0  0  0  0  0  3  0  0  0  0  0  0
  -23.5480  -29.8200   20.2450 C   0  0  0  0  0  2  0  0  0  0  0  0
  -24.6190  -31.1110   22.1520 N   0  0  0  0  0  0  0  0  0  0  0  0
  -23.4950  -32.1900   23.7960 O   0  0  0  0  0  0  0  0  0  0  0  0
  -22.7020  -29.4920   22.5850 C   0  0  0  0  0  0  0  0  0  0  0  0
  -21.3770  -29.3160   22.4610 N   0  0  0  0  0  0  0  0  0  0  0  0
  -23.3860  -28.8650   23.3990 O   0  0  0  0  0  0  0  0  0  0  0  0
  -20.8890  -29.8800   21.7800 H   0  0  0  0  0  0  0  0  0  0  0  0
  -17.9980  -28.1430   22.9720 C   0  0  0  0  0  0  0  0  0  0  0  0
  -20.5580  -28.3850   23.2350 C   0  0  0  0  0  3  0  0  0  0  0  0
  -20.6460  -26.9500   22.6660 C   0  0  0  0  0  2  0  0  0  0  0  0
  -19.5390  -26.6320   21.6540 C   0  0  0  0  0  2  0  0  0  0  0  0
  -18.1610  -26.7890   22.3020 C   0  0  0  0  0  2  0  0  0  0  0  0
  -19.1220  -28.9000   23.3970 C   0  0  0  0  0  0  0  0  0  0  0  0
  -18.9140  -30.1660   23.9860 C   0  0  0  0  0  3  0  0  0  0  0  0
  -17.6140  -30.6800   24.1470 C   0  0  0  0  0  3  0  0  0  0  0  0
  -16.5040  -29.9210   23.7390 C   0  0  0  0  0  3  0  0  0  0  0  0
  -16.6950  -28.6540   23.1610 C   0  0  0  0  0  3  0  0  0  0  0  0
  -25.8650  -32.5340   23.8700 C   0  0  0  0  0  3  0  0  0  0  0  0
  -25.5690  -33.9350   24.1950 N   0  0  0  0  0  0  0  0  0  0  0  0
  -25.9050  -34.9810   23.4300 C   0  0  0  0  0  0  0  0  0  0  0  0
  -26.5730  -34.8690   22.3960 O   0  0  0  0  0  0  0  0  0  0  0  0
  -24.9810  -34.1030   24.9980 H   0  0  0  0  0  0  0  0  0  0  0  0
  -24.1880  -36.7820   23.0630 C   0  0  0  0  0  1  0  0  0  0  0  0
  -25.4230  -36.3720   23.8810 C   0  0  0  0  0  3  0  0  0  0  0  0
  -27.5590  -37.2420   24.7170 C   0  0  0  0  0  1  0  0  0  0  0  0
  -26.4610  -37.4190   23.7710 N   0  0  0  0  0  0  0  0  0  0  0  0
  -26.0600  -38.3410   23.9210 H   0  0  0  0  0  0  0  0  0  0  0  0
  -26.3910  -31.7620   25.1420 C   0  0  1  0  0  0  0  0  0  0  0  0
  -25.3050  -31.5150   26.2160 C   0  0  0  0  0  1  0  0  0  0  0  0
  -26.9710  -30.3880   24.7370 C   0  0  0  0  0  1  0  0  0  0  0  0
  -27.5510  -32.5550   25.7950 C   0  0  0  0  0  1  0  0  0  0  0  0
  1 49  1  0
  1  2  1  0
  3  5  1  0
  4  6  1  0
  5  7  1  0
  6  5  1  0
  6 10  1  0
  8  3  1  0
  8  2  1  0
  8  4  1  0
  8  9  1  6
 11 19  1  0
 12 17  1  0
 13 14  1  0
 13 12  1  0
 15 14  1  0
 15 24  1  0
 15 16  1  0
 17 11  1  0
 17 16  1  0
 18 11  2  0
 19 10  1  0
 19 20  1  0
 21 22  2  0
 22 41  1  0
 23 22  1  0
 23 26  1  0
 24 21  1  0
 24 25  1  0
 25 23  2  0
 26 27  1  0
 27 28  2  0
 29 32  1  0
 29 28  1  0
 30 29  2  0
 31 30  1  0
 31 26  2  0
 32 33  1  0
 33 34  1  0
 34 35  2  0
 36 35  1  0
 36 40  1  0
 37 36  2  0
 38 33  2  0
 38 37  1  0
 39 38  1  0
 41 42  1  0
 42 45  1  0
 42 44  1  0
 43 41  2  0
 46 47  1  0
 46 21  1  0
 48 46  1  0
 50 53  1  0
 50 49  1  0
 51 50  1  0
 52 50  1  0
 54 55  1  0
 54 53  1  0
 55 56  1  0
 56 58  1  0
 57 68  2  0
 58 63  1  0
 59 67  1  0
 59 69  1  0
 60 66  1  0
 60 62  1  0
 61 67  1  0
 62 61  1  0
 63 62  2  0
 64 65  1  0
 64 58  2  0
 65 60  2  0
 66 59  1  0
 67 57  1  0
 69 71  2  0
 70 69  1  0
 72 70  1  0
 73 82  2  0
 73 78  1  0
 74 70  1  0
 74 78  1  0
 75 74  1  0
 76 77  1  0
 76 75  1  0
 77 73  1  0
 78 79  2  0
 79 80  1  0
 81 80  2  0
 82 81  1  0
 83 57  1  0
 83 84  1  0
 83 93  1  0
 84 87  1  0
 85 89  1  0
 85 84  1  0
 86 85  2  0
 89 88  1  0
 91 89  1  0
 91 92  1  0
 91 90  1  0
 93 96  1  1
 93 94  1  0
 95 93  1  0
M  ISO  4  11 100  19 100  55 101  56 101
M  END
>  <TORSDO>  (53) 
F 24

>  <SCORE>  (53) 
-12.648

>  <name>  (53) 
53

>  <ligand_id>  (53) 
53

>  <original_smiles>  (53) 
[H]c1c([H])c([H])c2c(c1[H])C([H])([H])C([H])([H])C([H])([H])C2([H])N([H])C(=O)C1([H])N(C(=O)C([H])(N([H])C(=O)C([H])(N([H])C([H])([H])[H])C([H])([H])[H])C(C([H])([H])[H])(C([H])([H])[H])C([H])([H])[H])C([H])([H])c2c([H])c(OC([H])([H])C([H])([H])C([H])([H])[N+]([H])([H])C([H])([H])C([H])([H])C([H])([H])[N+]3([H])C([H])([H])C([H])(C([H])([H])[H])C([H])(C([H])([H])N([H])C(=O)N4C([H])([H])C([H])([H])C([H])([H])C([H])(n5nc(-c6c([H])c([H])c(Oc7c([H])c([H])c(F)c([H])c7F)c([H])c6[H])c(C(=O)N([H])[H])c5N([H])[H])C4([H])[H])C3([H])[H])c([H])c([H])c2C1([H])[H]

>  <smiles>  (53) 
[H]c1c([H])c([H])c2c(c1[H])C([H])([H])C([H])([H])C([H])([H])C2([H])N([H])C(=O)C1([H])N(C(=O)C([H])(N([H])C(=O)C([H])(N([H])C([H])([H])[H])C([H])([H])[H])C(C([H])([H])[H])(C([H])([H])[H])C([H])([H])[H])C([H])([H])c2c([H])c(OC([H])([H])C([H])([H])C([H])([H])[N+]([H])([H])C([H])([H])C([H])([H])C([H])([H])[N+]3([H])C([H])([H])C([H])(C([H])([H])[H])C([H])(C([H])([H])N([H])C(=O)N4C([H])([H])C([H])([H])C([H])([H])C([H])(n5nc(-c6c([H])c([H])c(Oc7c([H])c([H])c(F)c([H])c7F)c([H])c6[H])c(C(=O)N([H])[H])c5N([H])[H])C4([H])[H])C3([H])[H])c([H])c([H])c2C1([H])[H]

$$$$
54:0:0
     RDKit          3D

 96104  0  0  1  0  0  0  0  0999 V2000
  -29.0790  -19.2270   21.2480 C   0  0  0  0  0  2  0  0  0  0  0  0
  -29.1140  -20.6690   20.8090 N   0  0  0  0  0  4  0  0  0  0  0  0
  -29.7790  -20.8060   20.0690 H   0  0  0  0  0  0  0  0  0  0  0  0
  -28.2000  -20.8600   20.4270 H   0  0  0  0  0  0  0  0  0  0  0  0
  -29.3250  -21.7250   21.8470 C   0  0  0  0  0  2  0  0  0  0  0  0
  -28.4510  -23.0170   21.6670 C   0  0  0  0  0  2  0  0  0  0  0  0
  -28.9890  -24.2360   20.8450 C   0  0  0  0  0  2  0  0  0  0  0  0
  -28.1980  -25.5410   21.1720 C   0  0  0  0  0  2  0  0  0  0  0  0
  -28.4310  -26.6940   20.3240 O   0  0  0  0  0  0  0  0  0  0  0  0
  -24.5810  -31.9370   23.2470 C   0  0  0  0  0  0  0  0  0  0  0  0
  -27.3160  -27.5030   20.2330 C   0  0  0  0  0  0  0  0  0  0  0  0
  -23.4210  -30.5230   21.5820 C   0  0  0  0  0  3  0  0  0  0  0  0
  -24.9180  -29.0050   20.1780 C   0  0  0  0  0  0  0  0  0  0  0  0
  -25.9480  -30.9030   21.4320 C   0  0  0  0  0  2  0  0  0  0  0  0
  -26.0610  -29.5330   20.7930 C   0  0  0  0  0  0  0  0  0  0  0  0
  -27.2690  -28.7930   20.8190 C   0  0  0  0  0  3  0  0  0  0  0  0
  -26.1650  -27.0070   19.5850 C   0  0  0  0  0  3  0  0  0  0  0  0
  -24.9660  -27.7410   19.5650 C   0  0  0  0  0  3  0  0  0  0  0  0
  -23.6660  -29.8530   20.2050 C   0  0  0  0  0  2  0  0  0  0  0  0
  -24.6680  -31.1360   22.1450 N   0  0  0  0  0  0  0  0  0  0  0  0
  -23.4880  -32.1990   23.7640 O   0  0  0  0  0  0  0  0  0  0  0  0
  -22.7630  -29.4940   22.5320 C   0  0  0  0  0  0  0  0  0  0  0  0
  -21.4420  -29.3000   22.3810 N   0  0  0  0  0  0  0  0  0  0  0  0
  -23.4390  -28.8780   23.3620 O   0  0  0  0  0  0  0  0  0  0  0  0
  -20.9540  -29.8590   21.6930 H   0  0  0  0  0  0  0  0  0  0  0  0
  -18.0720  -28.0670   22.8140 C   0  0  0  0  0  0  0  0  0  0  0  0
  -20.6200  -28.3550   23.1360 C   0  0  0  0  0  3  0  0  0  0  0  0
  -20.7500  -26.9260   22.5630 C   0  0  0  0  0  2  0  0  0  0  0  0
  -19.6730  -26.5920   21.5260 C   0  0  0  0  0  2  0  0  0  0  0  0
  -18.2780  -26.7180   22.1450 C   0  0  0  0  0  2  0  0  0  0  0  0
  -19.1740  -28.8440   23.2640 C   0  0  0  0  0  0  0  0  0  0  0  0
  -18.9310  -30.1040   23.8500 C   0  0  0  0  0  3  0  0  0  0  0  0
  -17.6190  -30.5940   23.9860 C   0  0  0  0  0  3  0  0  0  0  0  0
  -16.5310  -29.8150   23.5530 C   0  0  0  0  0  3  0  0  0  0  0  0
  -16.7580  -28.5530   22.9730 C   0  0  0  0  0  3  0  0  0  0  0  0
  -25.8490  -32.5810   23.8870 C   0  0  0  0  0  3  0  0  0  0  0  0
  -25.5190  -33.9780   24.1990 N   0  0  0  0  0  0  0  0  0  0  0  0
  -25.8650  -35.0270   23.4400 C   0  0  0  0  0  0  0  0  0  0  0  0
  -26.5660  -34.9210   22.4290 O   0  0  0  0  0  0  0  0  0  0  0  0
  -24.8990  -34.1320   24.9810 H   0  0  0  0  0  0  0  0  0  0  0  0
  -24.1400  -36.8080   23.0220 C   0  0  0  0  0  1  0  0  0  0  0  0
  -25.3570  -36.4150   23.8750 C   0  0  0  0  0  3  0  0  0  0  0  0
  -27.4600  -37.3160   24.7650 C   0  0  0  0  0  1  0  0  0  0  0  0
  -26.3850  -37.4730   23.7880 N   0  0  0  0  0  0  0  0  0  0  0  0
  -25.9690  -38.3910   23.9160 H   0  0  0  0  0  0  0  0  0  0  0  0
  -26.3470  -31.8200   25.1770 C   0  0  1  0  0  0  0  0  0  0  0  0
  -25.2370  -31.5780   26.2260 C   0  0  0  0  0  1  0  0  0  0  0  0
  -26.9520  -30.4460   24.8030 C   0  0  0  0  0  1  0  0  0  0  0  0
  -27.4750  -32.6300   25.8580 C   0  0  0  0  0  1  0  0  0  0  0  0
  -30.3770  -18.3850   20.9930 C   0  0  0  0  0  2  0  0  0  0  0  0
  -30.4150  -17.1520   20.0000 C   0  0  0  0  0  0  0  0  0  0  0  0
  -30.7370  -14.6580   20.2580 C   0  0  0  0  0  0  0  0  0  0  0  0
  -30.3570  -12.5020   19.1410 C   0  0  0  0  0  2  0  0  0  0  0  0
  -29.4050  -12.7470   17.9510 C   0  0  0  0  0  2  0  0  0  0  0  0
  -27.9440  -12.5950   18.4080 C   0  0  0  0  0  2  0  0  0  0  0  0
  -27.6340  -13.4100   19.6940 C   0  0  0  0  0  3  0  0  0  0  0  0
  -28.7150  -13.2160   20.7820 C   0  0  0  0  0  2  0  0  0  0  0  0
  -30.0230  -13.4980   20.1730 N   0  0  0  0  0  0  0  0  0  0  0  0
  -31.8950  -14.7310   19.8470 O   0  0  0  0  0  0  0  0  0  0  0  0
  -30.0460  -15.7990   20.5360 N   0  0  0  0  0  4  0  0  0  0  0  0
  -29.1170  -15.6780   20.9060 H   0  0  0  0  0  0  0  0  0  0  0  0
  -25.2430  -13.9860   20.4340 C   0  0  0  0  0  0  0  0  0  0  0  0
  -24.1880  -13.2040   20.8150 C   0  0  0  0  0  0  0  0  0  0  0  0
  -24.6640  -11.8570   20.7850 C   0  0  0  0  0  0  0  0  0  0  0  0
  -26.2920  -13.1170   20.1930 N   0  0  0  0  0  0  0  0  0  0  0  0
  -25.9500  -11.8310   20.4640 N   0  0  0  0  0  0  0  0  0  0  0  0
  -23.9500  -10.5860   20.9810 C   0  0  0  0  0  0  0  0  0  0  0  0
  -24.3930   -9.6260   21.9170 C   0  0  0  0  0  3  0  0  0  0  0  0
  -23.6770   -8.4240   22.1010 C   0  0  0  0  0  3  0  0  0  0  0  0
  -22.5030   -8.1740   21.3510 C   0  0  0  0  0  0  0  0  0  0  0  0
  -22.0830   -9.1210   20.4000 C   0  0  0  0  0  3  0  0  0  0  0  0
  -22.8000  -10.3160   20.2120 C   0  0  0  0  0  3  0  0  0  0  0  0
  -21.7600   -7.0240   21.4480 O   0  0  0  0  0  0  0  0  0  0  0  0
  -21.7110   -6.2930   22.6060 C   0  0  0  0  0  0  0  0  0  0  0  0
  -21.2810   -6.8550   23.8290 C   0  0  0  0  0  3  0  0  0  0  0  0
  -21.1810   -6.0490   24.9790 C   0  0  0  0  0  3  0  0  0  0  0  0
  -21.5030   -4.6810   24.9120 C   0  0  0  0  0  0  0  0  0  0  0  0
  -21.9240   -4.1160   23.6940 C   0  0  0  0  0  3  0  0  0  0  0  0
  -22.0240   -4.9190   22.5460 C   0  0  0  0  0  0  0  0  0  0  0  0
  -22.4110   -4.3650   21.3710 F   0  0  0  0  0  0  0  0  0  0  0  0
  -21.4000   -3.9030   26.0150 F   0  0  0  0  0  0  0  0  0  0  0  0
  -22.7880  -13.6640   21.1040 C   0  0  0  0  0  0  0  0  0  0  0  0
  -22.0810  -12.9610   21.9820 N   0  0  0  0  0  0  0  0  0  0  0  0
  -22.3340  -14.6850   20.5890 O   0  0  0  0  0  0  0  0  0  0  0  0
  -22.4630  -12.1260   22.4050 H   0  0  0  0  0  0  0  0  0  0  0  0
  -21.1450  -13.2500   22.2310 H   0  0  0  0  0  0  0  0  0  0  0  0
  -25.3960  -15.3570   20.2500 N   0  0  0  0  0  0  0  0  0  0  0  0
  -24.6310  -16.0050   20.3900 H   0  0  0  0  0  0  0  0  0  0  0  0
  -26.2380  -15.8040   19.9150 H   0  0  0  0  0  0  0  0  0  0  0  0
  -28.3140  -17.3590   18.3680 C   0  0  0  0  0  2  0  0  0  0  0  0
  -28.0510  -18.3770   17.2410 C   0  0  0  0  0  2  0  0  0  0  0  0
  -30.3440  -18.5680   17.7680 C   0  0  0  0  0  2  0  0  0  0  0  0
  -29.8430  -17.3540   18.5640 C   0  0  0  0  0  3  0  0  0  0  0  0
  -29.3680  -18.7160   16.6790 N   0  0  0  0  0  4  0  0  0  0  0  0
  -29.3800  -19.6360   16.2690 H   0  0  0  0  0  0  0  0  0  0  0  0
  -29.5930  -18.0530   15.9570 H   0  0  0  0  0  0  0  0  0  0  0  0
  2  1  1  0
  2  5  1  0
  3  2  1  0
  4  2  1  0
  6  5  1  0
  7  8  1  0
  7  6  1  0
  9  8  1  0
 10 21  2  0
 11  9  1  0
 11 16  1  0
 12 20  1  0
 12 22  1  0
 13 19  1  0
 13 15  1  0
 14 20  1  0
 15 16  2  0
 15 14  1  0
 17 11  2  0
 18 17  1  0
 18 13  2  0
 19 12  1  0
 20 10  1  0
 22 24  2  0
 23 22  1  0
 25 23  1  0
 26 35  2  0
 26 31  1  0
 27 23  1  0
 27 31  1  0
 28 27  1  0
 29 30  1  0
 29 28  1  0
 30 26  1  0
 31 32  2  0
 32 33  1  0
 34 33  2  0
 35 34  1  0
 36 10  1  0
 36 37  1  0
 36 46  1  0
 37 40  1  0
 38 42  1  0
 38 37  1  0
 39 38  2  0
 42 41  1  0
 44 42  1  0
 44 45  1  0
 44 43  1  0
 46 49  1  1
 46 47  1  0
 48 46  1  0
 50  1  1  0
 51 60  2  3
 51 50  1  0
 52 60  1  0
 53 58  1  0
 54 55  1  0
 54 53  1  0
 56 55  1  0
 56 65  1  0
 56 57  1  0
 58 52  1  0
 58 57  1  0
 59 52  2  0
 60 61  1  0
 62 63  2  0
 63 82  1  0
 64 63  1  0
 64 67  1  0
 65 62  1  0
 65 66  1  0
 66 64  2  0
 67 68  1  0
 68 69  2  0
 70 73  1  0
 70 69  1  0
 71 70  2  0
 72 71  1  0
 72 67  2  0
 73 74  1  0
 74 75  1  0
 75 76  2  0
 77 76  1  0
 77 81  1  0
 78 77  2  0
 79 74  2  0
 79 78  1  0
 80 79  1  0
 82 83  1  0
 83 86  1  0
 83 85  1  0
 84 82  2  0
 87 88  1  0
 87 62  1  0
 89 87  1  0
 90 93  1  0
 91 90  1  0
 92 93  1  0
 93 51  1  0
 94 91  1  0
 94 92  1  0
 95 94  1  0
 96 94  1  0
M  ISO  4   8 101   9 101  52 100  60 100
M  END
>  <TORSDO>  (54) 
F 24

>  <SCORE>  (54) 
-12.365

>  <name>  (54) 
54

>  <ligand_id>  (54) 
54

>  <original_smiles>  (54) 
[H]c1c([H])c([H])c2c(c1[H])C([H])([H])C([H])([H])C([H])([H])C2([H])N([H])C(=O)C1([H])N(C(=O)C([H])(N([H])C(=O)C([H])(N([H])C([H])([H])[H])C([H])([H])[H])C(C([H])([H])[H])(C([H])([H])[H])C([H])([H])[H])C([H])([H])c2c([H])c(OC([H])([H])C([H])([H])C([H])([H])C([H])([H])[N+]([H])([H])C([H])([H])C([H])([H])C([H])(N([H])C(=O)N3C([H])([H])C([H])([H])C([H])([H])C([H])(n4nc(-c5c([H])c([H])c(Oc6c([H])c([H])c(F)c([H])c6F)c([H])c5[H])c(C(=O)N([H])[H])c4N([H])[H])C3([H])[H])C3([H])C([H])([H])C([H])([H])[N+]([H])([H])C3([H])[H])c([H])c([H])c2C1([H])[H]

>  <smiles>  (54) 
[H]c1c([H])c([H])c2c(c1[H])C([H])([H])C([H])([H])C([H])([H])C2([H])N([H])C(=O)C1([H])N(C(=O)C([H])(N([H])C(=O)C([H])(N([H])C([H])([H])[H])C([H])([H])[H])C(C([H])([H])[H])(C([H])([H])[H])C([H])([H])[H])C([H])([H])c2c([H])c(OC([H])([H])C([H])([H])C([H])([H])C([H])([H])[N+]([H])([H])C([H])([H])C([H])([H])C([H])(N([H])C(=O)N3C([H])([H])C([H])([H])C([H])([H])C([H])(n4nc(-c5c([H])c([H])c(Oc6c([H])c([H])c(F)c([H])c6F)c([H])c5[H])c(C(=O)N([H])[H])c4N([H])[H])C3([H])[H])C3([H])C([H])([H])C([H])([H])[N+]([H])([H])C3([H])[H])c([H])c([H])c2C1([H])[H]

$$$$
55:0:0
     RDKit          3D

 90 98  0  0  1  0  0  0  0  0999 V2000
  -28.9710  -21.7850   19.4090 C   0  0  0  0  0  2  0  0  0  0  0  0
  -27.2970  -18.8600   19.3390 C   0  0  0  0  0  2  0  0  0  0  0  0
  -28.3770  -18.4140   18.7130 C   0  0  0  0  0  2  0  0  0  0  0  0
  -27.6440  -19.8840   20.3890 C   0  0  0  0  0  2  0  0  0  0  0  0
  -29.6290  -19.0350   19.2650 C   0  0  0  0  0  3  0  0  0  0  0  0
  -29.0340  -20.3140   20.0370 N   0  0  1  0  0  4  0  0  0  0  0  0
  -29.5600  -20.4110   20.8940 H   0  0  0  0  0  0  0  0  0  0  0  0
  -30.5030  -17.7960   20.0130 C   0  0  0  0  0  2  0  0  0  0  0  0
  -30.9650  -15.0580   19.8130 C   0  0  0  0  0  0  0  0  0  0  0  0
  -30.7860  -12.6780   18.9610 C   0  0  0  0  0  2  0  0  0  0  0  0
  -29.7970  -12.6050   17.7750 C   0  0  0  0  0  2  0  0  0  0  0  0
  -28.3480  -12.4540   18.2760 C   0  0  0  0  0  2  0  0  0  0  0  0
  -28.0080  -13.4280   19.4340 C   0  0  0  0  0  3  0  0  0  0  0  0
  -29.1100  -13.4450   20.5120 C   0  0  0  0  0  2  0  0  0  0  0  0
  -30.3580  -13.8080   19.8300 N   0  0  0  0  0  0  0  0  0  0  0  0
  -32.1680  -15.1000   19.5280 O   0  0  0  0  0  0  0  0  0  0  0  0
  -30.1860  -16.2430   19.9160 N   0  0  0  0  0  0  0  0  0  0  0  0
  -29.2080  -16.0370   20.0610 H   0  0  0  0  0  0  0  0  0  0  0  0
  -25.7140  -14.1060   20.3380 C   0  0  0  0  0  0  0  0  0  0  0  0
  -24.6260  -13.3740   20.7290 C   0  0  0  0  0  0  0  0  0  0  0  0
  -25.0090  -12.0030   20.6140 C   0  0  0  0  0  0  0  0  0  0  0  0
  -26.6870  -13.1820   19.9970 N   0  0  0  0  0  0  0  0  0  0  0  0
  -26.2780  -11.9090   20.2320 N   0  0  0  0  0  0  0  0  0  0  0  0
  -24.2230  -10.7750   20.7900 C   0  0  0  0  0  0  0  0  0  0  0  0
  -24.6160   -9.7690   21.6980 C   0  0  0  0  0  3  0  0  0  0  0  0
  -23.8310   -8.6080   21.8660 C   0  0  0  0  0  3  0  0  0  0  0  0
  -22.6390   -8.4450   21.1230 C   0  0  0  0  0  0  0  0  0  0  0  0
  -22.2620   -9.4390   20.2050 C   0  0  0  0  0  3  0  0  0  0  0  0
  -23.0460  -10.5930   20.0360 C   0  0  0  0  0  3  0  0  0  0  0  0
  -21.8290   -7.3390   21.2000 O   0  0  0  0  0  0  0  0  0  0  0  0
  -21.7140   -6.6090   22.3550 C   0  0  0  0  0  0  0  0  0  0  0  0
  -21.2500   -7.1880   23.5590 C   0  0  0  0  0  3  0  0  0  0  0  0
  -21.0850   -6.3880   24.7060 C   0  0  0  0  0  3  0  0  0  0  0  0
  -21.3660   -5.0090   24.6510 C   0  0  0  0  0  0  0  0  0  0  0  0
  -21.8160   -4.4300   23.4520 C   0  0  0  0  0  3  0  0  0  0  0  0
  -21.9880   -5.2290   22.3060 C   0  0  0  0  0  0  0  0  0  0  0  0
  -22.4060   -4.6630   21.1480 F   0  0  0  0  0  0  0  0  0  0  0  0
  -21.1980   -4.2360   25.7490 F   0  0  0  0  0  0  0  0  0  0  0  0
  -23.2760  -13.9180   21.0920 C   0  0  0  0  0  0  0  0  0  0  0  0
  -22.5600  -13.2390   21.9810 N   0  0  0  0  0  0  0  0  0  0  0  0
  -22.8690  -14.9820   20.6280 O   0  0  0  0  0  0  0  0  0  0  0  0
  -22.9060  -12.3790   22.3800 H   0  0  0  0  0  0  0  0  0  0  0  0
  -21.6560  -13.5880   22.2670 H   0  0  0  0  0  0  0  0  0  0  0  0
  -25.9480  -15.4720   20.2170 N   0  0  0  0  0  0  0  0  0  0  0  0
  -25.2340  -16.1640   20.4200 H   0  0  0  0  0  0  0  0  0  0  0  0
  -26.7990  -15.8730   19.8460 H   0  0  0  0  0  0  0  0  0  0  0  0
  -28.6150  -23.2090   20.2830 C   0  0  0  0  0  3  0  0  0  0  0  0
  -27.4460  -23.0460   20.9020 F   0  0  0  0  0  0  0  0  0  0  0  0
  -28.4660  -24.7580   19.6400 C   0  0  0  0  0  2  0  0  0  0  0  0
  -28.3330  -26.1220   20.3900 O   0  0  0  0  0  0  0  0  0  0  0  0
  -24.5630  -31.7300   23.3190 C   0  0  0  0  0  0  0  0  0  0  0  0
  -27.2600  -27.0770   20.2810 C   0  0  0  0  0  0  0  0  0  0  0  0
  -23.4280  -30.3600   21.6140 C   0  0  0  0  0  3  0  0  0  0  0  0
  -24.9270  -28.8150   20.2140 C   0  0  0  0  0  0  0  0  0  0  0  0
  -25.9870  -30.6300   21.5500 C   0  0  0  0  0  2  0  0  0  0  0  0
  -26.0820  -29.2520   20.8710 C   0  0  0  0  0  0  0  0  0  0  0  0
  -27.2460  -28.3980   20.8890 C   0  0  0  0  0  3  0  0  0  0  0  0
  -26.0740  -26.7410   19.5890 C   0  0  0  0  0  3  0  0  0  0  0  0
  -24.9370  -27.5750   19.5610 C   0  0  0  0  0  3  0  0  0  0  0  0
  -23.6970  -29.7060   20.2350 C   0  0  0  0  0  2  0  0  0  0  0  0
  -24.6780  -30.9280   22.2170 N   0  0  0  0  0  0  0  0  0  0  0  0
  -23.4580  -32.0030   23.8090 O   0  0  0  0  0  0  0  0  0  0  0  0
  -22.7150  -29.3360   22.5340 C   0  0  0  0  0  0  0  0  0  0  0  0
  -21.3950  -29.1580   22.3450 N   0  0  0  0  0  0  0  0  0  0  0  0
  -23.3540  -28.7100   23.3830 O   0  0  0  0  0  0  0  0  0  0  0  0
  -20.9410  -29.7130   21.6340 H   0  0  0  0  0  0  0  0  0  0  0  0
  -18.0030  -27.9290   22.6800 C   0  0  0  0  0  0  0  0  0  0  0  0
  -20.5450  -28.2050   23.0650 C   0  0  0  0  0  3  0  0  0  0  0  0
  -20.6820  -26.7800   22.4770 C   0  0  0  0  0  2  0  0  0  0  0  0
  -19.6300  -26.4650   21.4090 C   0  0  0  0  0  2  0  0  0  0  0  0
  -18.2200  -26.5910   21.9940 C   0  0  0  0  0  2  0  0  0  0  0  0
  -19.0950  -28.6940   23.1680 C   0  0  0  0  0  0  0  0  0  0  0  0
  -18.8420  -29.9440   23.7710 C   0  0  0  0  0  3  0  0  0  0  0  0
  -17.5280  -30.4360   23.8860 C   0  0  0  0  0  3  0  0  0  0  0  0
  -16.4470  -29.6690   23.4150 C   0  0  0  0  0  3  0  0  0  0  0  0
  -16.6860  -28.4180   22.8210 C   0  0  0  0  0  3  0  0  0  0  0  0
  -25.8140  -32.3580   24.0030 C   0  0  0  0  0  3  0  0  0  0  0  0
  -26.2290  -31.6170   25.3350 C   0  0  1  0  0  0  0  0  0  0  0  0
  -25.0600  -31.4220   26.3300 C   0  0  0  0  0  1  0  0  0  0  0  0
  -26.8140  -30.2190   25.0280 C   0  0  0  0  0  1  0  0  0  0  0  0
  -27.3470  -32.4130   26.0460 C   0  0  0  0  0  1  0  0  0  0  0  0
  -25.5110  -33.7720   24.2750 N   0  0  0  0  0  0  0  0  0  0  0  0
  -25.8970  -34.8000   23.5070 C   0  0  0  0  0  0  0  0  0  0  0  0
  -26.6090  -34.6530   22.5100 O   0  0  0  0  0  0  0  0  0  0  0  0
  -24.8740  -33.9580   25.0360 H   0  0  0  0  0  0  0  0  0  0  0  0
  -24.2070  -36.6100   23.0470 C   0  0  0  0  0  1  0  0  0  0  0  0
  -25.4200  -36.2110   23.9040 C   0  0  0  0  0  3  0  0  0  0  0  0
  -27.5410  -37.1030   24.7670 C   0  0  0  0  0  1  0  0  0  0  0  0
  -26.4730  -37.2440   23.7800 N   0  0  0  0  0  0  0  0  0  0  0  0
  -26.0770  -38.1760   23.8740 H   0  0  0  0  0  0  0  0  0  0  0  0
  1  6  1  0
  1 47  1  0
  2  4  1  0
  3  5  1  0
  3  2  1  0
  5  8  1  0
  5  6  1  0
  6  4  1  0
  6  7  1  1
  9 15  1  0
  9 17  1  0
 10 15  1  0
 11 12  1  0
 11 10  1  0
 13 12  1  0
 13 22  1  0
 13 14  1  0
 15 14  1  0
 16  9  2  0
 17  8  1  0
 17 18  1  0
 19 20  2  0
 20 39  1  0
 21 20  1  0
 21 24  1  0
 22 23  1  0
 22 19  1  0
 23 21  2  0
 24 25  1  0
 25 26  2  0
 27 30  1  0
 27 26  1  0
 28 27  2  0
 29 28  1  0
 29 24  2  0
 30 31  1  0
 31 32  1  0
 32 33  2  0
 34 33  1  0
 34 38  1  0
 35 34  2  0
 36 31  2  0
 36 35  1  0
 37 36  1  0
 39 40  1  0
 40 43  1  0
 40 42  1  0
 41 39  2  0
 44 19  1  0
 44 45  1  0
 46 44  1  0
 47 48  1  0
 49 47  1  0
 49 50  1  0
 51 62  2  0
 52 50  1  0
 52 57  1  0
 53 61  1  0
 53 63  1  0
 54 60  1  0
 54 56  1  0
 55 61  1  0
 56 57  2  0
 56 55  1  0
 58 52  2  0
 59 58  1  0
 59 54  2  0
 60 53  1  0
 61 51  1  0
 63 65  2  0
 64 63  1  0
 66 64  1  0
 67 76  2  0
 67 72  1  0
 68 64  1  0
 68 72  1  0
 69 68  1  0
 70 71  1  0
 70 69  1  0
 71 67  1  0
 72 73  2  0
 73 74  1  0
 75 74  2  0
 76 75  1  0
 77 51  1  0
 77 82  1  0
 77 78  1  0
 78 81  1  1
 78 79  1  0
 80 78  1  0
 82 85  1  0
 83 87  1  0
 83 82  1  0
 84 83  2  0
 87 86  1  0
 89 90  1  0
 89 87  1  0
 89 88  1  0
M  ISO  4   9 100  17 100  49 101  50 101
M  END
>  <TORSDO>  (55) 
F 20

>  <SCORE>  (55) 
-13.656

>  <name>  (55) 
55

>  <ligand_id>  (55) 
55

>  <original_smiles>  (55) 
[H]C1=C([H])C([H])(C([H])([H])N([H])C(=O)N2C([H])([H])C([H])([H])C([H])([H])C([H])(n3nc(-c4c([H])c([H])c(Oc5c([H])c([H])c(F)c([H])c5F)c([H])c4[H])c(C(=O)N([H])[H])c3N([H])[H])C2([H])[H])[N+]([H])(C([H])([H])C([H])(F)C([H])([H])Oc2c([H])c([H])c3c(c2[H])C([H])([H])N(C(=O)C([H])(N([H])C(=O)C([H])(N([H])C([H])([H])[H])C([H])([H])[H])C(C([H])([H])[H])(C([H])([H])[H])C([H])([H])[H])C([H])(C(=O)N([H])C2([H])c4c([H])c([H])c([H])c([H])c4C([H])([H])C([H])([H])C2([H])[H])C3([H])[H])C1([H])[H]

>  <smiles>  (55) 
[H]C1=C([H])C([H])(C([H])([H])N([H])C(=O)N2C([H])([H])C([H])([H])C([H])([H])C([H])(n3nc(-c4c([H])c([H])c(Oc5c([H])c([H])c(F)c([H])c5F)c([H])c4[H])c(C(=O)N([H])[H])c3N([H])[H])C2([H])[H])[N+]([H])(C([H])([H])C([H])(F)C([H])([H])Oc2c([H])c([H])c3c(c2[H])C([H])([H])N(C(=O)C([H])(N([H])C(=O)C([H])(N([H])C([H])([H])[H])C([H])([H])[H])C(C([H])([H])[H])(C([H])([H])[H])C([H])([H])[H])C([H])(C(=O)N([H])C2([H])c4c([H])c([H])c([H])c([H])c4C([H])([H])C([H])([H])C2([H])[H])C3([H])[H])C1([H])[H]

$$$$
56:0:0
     RDKit          3D

 98107  0  0  1  0  0  0  0  0999 V2000
  -29.7100  -21.5800   20.9190 C   0  0  0  0  0  2  0  0  0  0  0  0
  -31.7560  -21.2490   22.3240 C   0  0  0  0  0  2  0  0  0  0  0  0
  -29.9650  -23.0920   20.9250 C   0  0  0  0  0  2  0  0  0  0  0  0
  -31.9880  -22.7720   22.3190 C   0  0  0  0  0  2  0  0  0  0  0  0
  -31.0390  -20.8270   21.0310 C   0  0  0  0  0  3  0  0  0  0  0  0
  -30.7200  -23.5280   22.1350 N   0  0  1  0  0  4  0  0  0  0  0  0
  -30.1500  -23.3270   22.9440 H   0  0  0  0  0  0  0  0  0  0  0  0
  -30.5590  -18.5110   22.0010 C   0  0  0  0  0  3  0  0  0  0  0  0
  -30.6010  -17.3870   19.4270 C   0  0  0  0  0  3  0  0  0  0  0  0
  -30.8320  -19.3300   20.8830 C   0  0  0  0  0  0  0  0  0  0  0  0
  -30.3440  -16.5600   20.5470 C   0  0  0  0  0  0  0  0  0  0  0  0
  -30.3140  -17.1350   21.8320 C   0  0  0  0  0  0  0  0  0  0  0  0
  -30.8480  -18.7570   19.5940 C   0  0  0  0  0  0  0  0  0  0  0  0
  -30.0340  -16.3610   22.9070 F   0  0  0  0  0  0  0  0  0  0  0  0
  -31.0760  -19.5240   18.5000 F   0  0  0  0  0  0  0  0  0  0  0  0
  -30.4990  -14.3080   19.5260 C   0  0  0  0  0  0  0  0  0  0  0  0
  -29.9810  -12.2550   18.2830 C   0  0  0  0  0  2  0  0  0  0  0  0
  -28.8560  -12.5390   17.2700 C   0  0  0  0  0  2  0  0  0  0  0  0
  -27.4740  -12.3550   17.9270 C   0  0  0  0  0  2  0  0  0  0  0  0
  -27.3500  -13.1040   19.2810 C   0  0  0  0  0  3  0  0  0  0  0  0
  -28.5710  -12.8170   20.1830 C   0  0  0  0  0  2  0  0  0  0  0  0
  -29.7940  -13.1530   19.4310 N   0  0  0  0  0  0  0  0  0  0  0  0
  -31.4620  -14.5620   18.7990 O   0  0  0  0  0  0  0  0  0  0  0  0
  -30.0590  -15.1720   20.4480 N   0  0  0  0  0  0  0  0  0  0  0  0
  -29.3870  -14.8160   21.1120 H   0  0  0  0  0  0  0  0  0  0  0  0
  -25.0970  -13.6220   20.4180 C   0  0  0  0  0  0  0  0  0  0  0  0
  -24.1100  -12.8080   20.9040 C   0  0  0  0  0  0  0  0  0  0  0  0
  -24.5650  -11.4700   20.6990 C   0  0  0  0  0  0  0  0  0  0  0  0
  -26.0940  -12.7780   19.9540 N   0  0  0  0  0  0  0  0  0  0  0  0
  -25.7850  -11.4740   20.1760 N   0  0  0  0  0  0  0  0  0  0  0  0
  -23.8880  -10.1840   20.9160 C   0  0  0  0  0  0  0  0  0  0  0  0
  -24.3720   -9.2430   21.8500 C   0  0  0  0  0  3  0  0  0  0  0  0
  -23.6940   -8.0230   22.0540 C   0  0  0  0  0  3  0  0  0  0  0  0
  -22.5170   -7.7340   21.3230 C   0  0  0  0  0  0  0  0  0  0  0  0
  -22.0520   -8.6660   20.3770 C   0  0  0  0  0  3  0  0  0  0  0  0
  -22.7320   -9.8770   20.1720 C   0  0  0  0  0  3  0  0  0  0  0  0
  -21.8050   -6.5640   21.4360 O   0  0  0  0  0  0  0  0  0  0  0  0
  -21.6320   -5.9410   22.6460 C   0  0  0  0  0  0  0  0  0  0  0  0
  -20.9860   -6.5790   23.7270 C   0  0  0  0  0  3  0  0  0  0  0  0
  -20.7660   -5.8780   24.9300 C   0  0  0  0  0  3  0  0  0  0  0  0
  -21.1840   -4.5390   25.0510 C   0  0  0  0  0  0  0  0  0  0  0  0
  -21.8240   -3.9000   23.9730 C   0  0  0  0  0  3  0  0  0  0  0  0
  -22.0440   -4.5990   22.7740 C   0  0  0  0  0  0  0  0  0  0  0  0
  -22.6420   -3.9720   21.7320 F   0  0  0  0  0  0  0  0  0  0  0  0
  -20.9680   -3.8620   26.2030 F   0  0  0  0  0  0  0  0  0  0  0  0
  -22.7760  -13.2410   21.4430 C   0  0  0  0  0  0  0  0  0  0  0  0
  -22.2180  -12.4830   22.3810 N   0  0  0  0  0  0  0  0  0  0  0  0
  -22.2420  -14.2830   21.0660 O   0  0  0  0  0  0  0  0  0  0  0  0
  -22.6660  -11.6390   22.7050 H   0  0  0  0  0  0  0  0  0  0  0  0
  -21.3300  -12.7520   22.7810 H   0  0  0  0  0  0  0  0  0  0  0  0
  -25.2220  -15.0050   20.3160 N   0  0  0  0  0  0  0  0  0  0  0  0
  -24.4820  -15.6370   20.5980 H   0  0  0  0  0  0  0  0  0  0  0  0
  -26.0110  -15.4800   19.8950 H   0  0  0  0  0  0  0  0  0  0  0  0
  -30.9440  -24.9930   22.1320 C   0  0  0  0  0  2  0  0  0  0  0  0
  -29.6500  -25.7770   22.4200 C   0  0  0  0  0  2  0  0  0  0  0  0
  -29.6590  -27.1910   21.8250 C   0  0  0  0  0  2  0  0  0  0  0  0
  -29.4980  -27.2240   20.2830 C   0  0  0  0  0  2  0  0  0  0  0  0
  -28.2740  -26.6450   19.8160 O   0  0  0  0  0  0  0  0  0  0  0  0
  -24.4490  -31.6850   23.0810 C   0  0  0  0  0  0  0  0  0  0  0  0
  -27.1130  -27.3880   19.8820 C   0  0  0  0  0  0  0  0  0  0  0  0
  -23.2210  -30.3090   21.4250 C   0  0  0  0  0  3  0  0  0  0  0  0
  -24.6670  -28.8100   19.9520 C   0  0  0  0  0  0  0  0  0  0  0  0
  -25.7270  -30.7190   21.1800 C   0  0  0  0  0  2  0  0  0  0  0  0
  -25.8180  -29.3640   20.5190 C   0  0  0  0  0  0  0  0  0  0  0  0
  -27.0380  -28.6710   20.4710 C   0  0  0  0  0  3  0  0  0  0  0  0
  -25.9410  -26.8340   19.3230 C   0  0  0  0  0  3  0  0  0  0  0  0
  -24.7210  -27.5420   19.3460 C   0  0  0  0  0  3  0  0  0  0  0  0
  -23.4100  -29.6470   20.0320 C   0  0  0  0  0  2  0  0  0  0  0  0
  -24.4850  -30.9160   21.9570 N   0  0  0  0  0  0  0  0  0  0  0  0
  -23.3770  -31.9360   23.6490 O   0  0  0  0  0  0  0  0  0  0  0  0
  -22.5960  -29.2670   22.3770 C   0  0  0  0  0  0  0  0  0  0  0  0
  -21.2800  -29.0440   22.2320 N   0  0  0  0  0  0  0  0  0  0  0  0
  -23.2910  -28.6580   23.1960 O   0  0  0  0  0  0  0  0  0  0  0  0
  -20.7830  -29.5880   21.5400 H   0  0  0  0  0  0  0  0  0  0  0  0
  -17.9450  -27.7320   22.6510 C   0  0  0  0  0  0  0  0  0  0  0  0
  -20.4820  -28.0800   22.9870 C   0  0  0  0  0  3  0  0  0  0  0  0
  -20.6510  -26.6530   22.4180 C   0  0  0  0  0  2  0  0  0  0  0  0
  -19.5870  -26.2890   21.3770 C   0  0  0  0  0  2  0  0  0  0  0  0
  -18.1850  -26.3880   21.9850 C   0  0  0  0  0  2  0  0  0  0  0  0
  -19.0240  -28.5340   23.1070 C   0  0  0  0  0  0  0  0  0  0  0  0
  -18.7480  -29.7910   23.6860 C   0  0  0  0  0  3  0  0  0  0  0  0
  -17.4230  -30.2480   23.8160 C   0  0  0  0  0  3  0  0  0  0  0  0
  -16.3570  -29.4440   23.3790 C   0  0  0  0  0  3  0  0  0  0  0  0
  -16.6180  -28.1870   22.8020 C   0  0  0  0  0  3  0  0  0  0  0  0
  -25.7440  -32.3070   23.6940 C   0  0  0  0  0  3  0  0  0  0  0  0
  -25.4360  -33.6930   24.0640 N   0  0  0  0  0  0  0  0  0  0  0  0
  -25.7740  -34.7670   23.3370 C   0  0  0  0  0  0  0  0  0  0  0  0
  -26.4510  -34.6930   22.3080 O   0  0  0  0  0  0  0  0  0  0  0  0
  -24.8310  -33.8250   24.8610 H   0  0  0  0  0  0  0  0  0  0  0  0
  -24.0630  -36.5790   23.0080 C   0  0  0  0  0  1  0  0  0  0  0  0
  -25.2840  -36.1420   23.8310 C   0  0  0  0  0  3  0  0  0  0  0  0
  -27.4020  -36.9870   24.7410 C   0  0  0  0  0  1  0  0  0  0  0  0
  -26.3240  -37.1920   23.7770 N   0  0  0  0  0  0  0  0  0  0  0  0
  -25.9190  -38.1080   23.9460 H   0  0  0  0  0  0  0  0  0  0  0  0
  -26.2960  -31.5030   24.9370 C   0  0  1  0  0  0  0  0  0  0  0  0
  -25.2260  -31.2200   26.0160 C   0  0  0  0  0  1  0  0  0  0  0  0
  -26.8900  -30.1480   24.4890 C   0  0  0  0  0  1  0  0  0  0  0  0
  -27.4470  -32.2930   25.6030 C   0  0  0  0  0  1  0  0  0  0  0  0
  1  3  1  0
  1  5  1  0
  3  6  1  0
  4  2  1  0
  5 10  1  0
  5  2  1  0
  6  4  1  0
  6  7  1  1
  9 13  2  0
  9 11  1  0
 10  8  2  0
 11 12  2  0
 12  8  1  0
 12 14  1  0
 13 10  1  0
 15 13  1  0
 16 24  1  0
 17 22  1  0
 18 19  1  0
 18 17  1  0
 20 19  1  0
 20 29  1  0
 20 21  1  0
 22 16  1  0
 22 21  1  0
 23 16  2  0
 24 11  1  0
 24 25  1  0
 26 27  2  0
 27 46  1  0
 28 27  1  0
 28 31  1  0
 29 30  1  0
 29 26  1  0
 30 28  2  0
 31 32  1  0
 32 33  2  0
 34 37  1  0
 34 33  1  0
 35 34  2  0
 36 35  1  0
 36 31  2  0
 37 38  1  0
 38 43  2  0
 38 39  1  0
 39 40  2  0
 40 41  1  0
 41 45  1  0
 42 41  2  0
 43 42  1  0
 44 43  1  0
 46 47  1  0
 47 49  1  0
 47 50  1  0
 48 46  2  0
 51 26  1  0
 51 52  1  0
 53 51  1  0
 54  6  1  0
 54 55  1  0
 56 55  1  0
 57 56  1  0
 58 60  1  0
 58 57  1  0
 59 70  2  0
 60 65  1  0
 61 69  1  0
 61 71  1  0
 62 68  1  0
 62 64  1  0
 63 69  1  0
 64 63  1  0
 65 64  2  0
 66 67  1  0
 66 60  2  0
 67 62  2  0
 68 61  1  0
 69 59  1  0
 71 73  2  0
 72 71  1  0
 74 72  1  0
 75 84  2  0
 75 80  1  0
 76 72  1  0
 76 80  1  0
 77 76  1  0
 78 79  1  0
 78 77  1  0
 79 75  1  0
 80 81  2  0
 81 82  1  0
 83 82  2  0
 84 83  1  0
 85 59  1  0
 85 86  1  0
 85 95  1  0
 86 89  1  0
 87 91  1  0
 87 86  1  0
 88 87  2  0
 91 90  1  0
 93 91  1  0
 93 94  1  0
 93 92  1  0
 95 98  1  1
 95 96  1  0
 97 95  1  0
M  ISO  4  16 100  24 100  57 101  58 101
M  END
>  <TORSDO>  (56) 
F 21

>  <SCORE>  (56) 
-9.990

>  <name>  (56) 
56

>  <ligand_id>  (56) 
56

>  <original_smiles>  (56) 
[H]c1c([H])c([H])c2c(c1[H])C([H])([H])C([H])([H])C([H])([H])C2([H])N([H])C(=O)C1([H])N(C(=O)C([H])(N([H])C(=O)C([H])(N([H])C([H])([H])[H])C([H])([H])[H])C(C([H])([H])[H])(C([H])([H])[H])C([H])([H])[H])C([H])([H])c2c([H])c(OC([H])([H])C([H])([H])C([H])([H])C([H])([H])[N+]3([H])C([H])([H])C([H])([H])C([H])(c4c([H])c(F)c(N([H])C(=O)N5C([H])([H])C([H])([H])C([H])([H])C([H])(n6nc(-c7c([H])c([H])c(Oc8c([H])c([H])c(F)c([H])c8F)c([H])c7[H])c(C(=O)N([H])[H])c6N([H])[H])C5([H])[H])c([H])c4F)C([H])([H])C3([H])[H])c([H])c([H])c2C1([H])[H]

>  <smiles>  (56) 
[H]c1c([H])c([H])c2c(c1[H])C([H])([H])C([H])([H])C([H])([H])C2([H])N([H])C(=O)C1([H])N(C(=O)C([H])(N([H])C(=O)C([H])(N([H])C([H])([H])[H])C([H])([H])[H])C(C([H])([H])[H])(C([H])([H])[H])C([H])([H])[H])C([H])([H])c2c([H])c(OC([H])([H])C([H])([H])C([H])([H])C([H])([H])[N+]3([H])C([H])([H])C([H])([H])C([H])(c4c([H])c(F)c(N([H])C(=O)N5C([H])([H])C([H])([H])C([H])([H])C([H])(n6nc(-c7c([H])c([H])c(Oc8c([H])c([H])c(F)c([H])c8F)c([H])c7[H])c(C(=O)N([H])[H])c6N([H])[H])C5([H])[H])c([H])c4F)C([H])([H])C3([H])[H])c([H])c([H])c2C1([H])[H]

$$$$
57:0:0
     RDKit          3D

 96105  0  0  1  0  0  0  0  0999 V2000
  -29.3730  -22.0450   18.3180 C   0  0  0  0  0  3  0  0  0  0  0  0
  -30.9100  -22.8210   20.0420 C   0  0  0  0  0  3  0  0  0  0  0  0
  -28.8080  -23.3360   18.2450 C   0  0  0  0  0  3  0  0  0  0  0  0
  -30.3420  -24.1100   19.9670 C   0  0  0  0  0  3  0  0  0  0  0  0
  -30.4440  -21.7860   19.2010 C   0  0  0  0  0  0  0  0  0  0  0  0
  -29.3000  -24.3810   19.0550 C   0  0  0  0  0  0  0  0  0  0  0  0
  -31.1590  -20.4380   19.1700 C   0  0  0  0  0  2  0  0  0  0  0  0
  -30.4880  -19.3020   19.9240 C   0  0  0  0  0  3  0  0  0  0  0  0
  -30.9090  -18.1030   19.8310 N   0  0  0  0  0  0  0  0  0  0  0  0
  -30.4080  -14.1880   19.0000 C   0  0  0  0  0  0  0  0  0  0  0  0
  -29.6320  -12.2780   17.6490 C   0  0  0  0  0  2  0  0  0  0  0  0
  -28.4590  -12.7230   16.7540 C   0  0  0  0  0  2  0  0  0  0  0  0
  -27.1200  -12.6040   17.5070 C   0  0  0  0  0  2  0  0  0  0  0  0
  -27.1650  -13.2570   18.9150 C   0  0  0  0  0  3  0  0  0  0  0  0
  -28.4190  -12.8010   19.6910 C   0  0  0  0  0  2  0  0  0  0  0  0
  -29.6030  -13.1030   18.8650 N   0  0  0  0  0  0  0  0  0  0  0  0
  -31.3700  -14.4120   18.2590 O   0  0  0  0  0  0  0  0  0  0  0  0
  -29.2790  -16.2470   19.6780 C   0  0  0  0  0  2  0  0  0  0  0  0
  -31.0720  -15.8030   20.7420 C   0  0  0  0  0  3  0  0  0  0  0  0
  -30.2090  -17.0620   20.5710 C   0  0  0  0  0  3  0  0  0  0  0  0
  -30.0680  -15.0430   19.9800 N   0  0  0  0  0  0  0  0  0  0  0  0
  -24.9920  -13.8900   20.1410 C   0  0  0  0  0  0  0  0  0  0  0  0
  -24.0080  -13.1260   20.7110 C   0  0  0  0  0  0  0  0  0  0  0  0
  -24.4160  -11.7680   20.5400 C   0  0  0  0  0  0  0  0  0  0  0  0
  -25.9390  -12.9960   19.6660 N   0  0  0  0  0  0  0  0  0  0  0  0
  -25.6060  -11.7140   19.9590 N   0  0  0  0  0  0  0  0  0  0  0  0
  -23.7140  -10.5140   20.8450 C   0  0  0  0  0  0  0  0  0  0  0  0
  -24.2670   -9.5530   21.7210 C   0  0  0  0  0  3  0  0  0  0  0  0
  -23.5660   -8.3630   22.0120 C   0  0  0  0  0  3  0  0  0  0  0  0
  -22.2980   -8.1260   21.4310 C   0  0  0  0  0  0  0  0  0  0  0  0
  -21.7630   -9.0750   20.5420 C   0  0  0  0  0  3  0  0  0  0  0  0
  -22.4640  -10.2560   20.2490 C   0  0  0  0  0  3  0  0  0  0  0  0
  -21.5570   -6.9870   21.6350 O   0  0  0  0  0  0  0  0  0  0  0  0
  -21.6250   -6.2870   22.8130 C   0  0  0  0  0  0  0  0  0  0  0  0
  -21.3630   -6.8980   24.0590 C   0  0  0  0  0  3  0  0  0  0  0  0
  -21.3760   -6.1250   25.2380 C   0  0  0  0  0  3  0  0  0  0  0  0
  -21.6400   -4.7430   25.1730 C   0  0  0  0  0  0  0  0  0  0  0  0
  -21.8940   -4.1330   23.9320 C   0  0  0  0  0  3  0  0  0  0  0  0
  -21.8840   -4.9030   22.7550 C   0  0  0  0  0  0  0  0  0  0  0  0
  -22.1100   -4.3060   21.5600 F   0  0  0  0  0  0  0  0  0  0  0  0
  -21.6430   -4.0000   26.3030 F   0  0  0  0  0  0  0  0  0  0  0  0
  -22.7160  -13.6200   21.2940 C   0  0  0  0  0  0  0  0  0  0  0  0
  -22.2130  -12.9520   22.3260 N   0  0  0  0  0  0  0  0  0  0  0  0
  -22.1690  -14.6360   20.8680 O   0  0  0  0  0  0  0  0  0  0  0  0
  -22.6710  -12.1300   22.6900 H   0  0  0  0  0  0  0  0  0  0  0  0
  -21.3570  -13.2680   22.7590 H   0  0  0  0  0  0  0  0  0  0  0  0
  -25.1490  -15.2620   19.9690 N   0  0  0  0  0  0  0  0  0  0  0  0
  -24.4430  -15.9280   20.2610 H   0  0  0  0  0  0  0  0  0  0  0  0
  -25.9140  -15.6910   19.4670 H   0  0  0  0  0  0  0  0  0  0  0  0
  -31.2130  -15.2260   22.1590 C   0  0  0  0  0  0  0  0  0  0  0  0
  -31.9440  -13.2800   23.5020 C   0  0  0  0  0  1  0  0  0  0  0  0
  -31.7470  -14.0030   22.2520 N   0  0  0  0  0  0  0  0  0  0  0  0
  -30.8350  -15.8530   23.1510 O   0  0  0  0  0  0  0  0  0  0  0  0
  -32.0480  -13.5500   21.3990 H   0  0  0  0  0  0  0  0  0  0  0  0
  -28.7790  -25.8010   18.8730 C   0  0  0  0  0  2  0  0  0  0  0  0
  -28.3360  -26.4060   20.0930 O   0  0  0  0  0  0  0  0  0  0  0  0
  -24.5240  -31.5150   23.2430 C   0  0  0  0  0  0  0  0  0  0  0  0
  -27.1570  -27.1210   20.0830 C   0  0  0  0  0  0  0  0  0  0  0  0
  -23.3250  -30.1750   21.5450 C   0  0  0  0  0  3  0  0  0  0  0  0
  -24.7770  -28.6480   20.1110 C   0  0  0  0  0  0  0  0  0  0  0  0
  -25.8570  -30.4960   21.4030 C   0  0  0  0  0  2  0  0  0  0  0  0
  -25.9310  -29.1400   20.7320 C   0  0  0  0  0  0  0  0  0  0  0  0
  -27.1200  -28.3770   20.7260 C   0  0  0  0  0  3  0  0  0  0  0  0
  -25.9750  -26.6250   19.4890 C   0  0  0  0  0  3  0  0  0  0  0  0
  -24.7900  -27.3850   19.4940 C   0  0  0  0  0  3  0  0  0  0  0  0
  -23.5460  -29.5250   20.1540 C   0  0  0  0  0  2  0  0  0  0  0  0
  -24.5860  -30.7420   22.1230 N   0  0  0  0  0  0  0  0  0  0  0  0
  -23.4380  -31.7940   23.7700 O   0  0  0  0  0  0  0  0  0  0  0  0
  -22.6400  -29.1420   22.4680 C   0  0  0  0  0  0  0  0  0  0  0  0
  -21.3280  -28.9350   22.2650 N   0  0  0  0  0  0  0  0  0  0  0  0
  -23.2870  -28.5280   23.3210 O   0  0  0  0  0  0  0  0  0  0  0  0
  -20.8690  -29.4840   21.5510 H   0  0  0  0  0  0  0  0  0  0  0  0
  -17.9710  -27.6260   22.5090 C   0  0  0  0  0  0  0  0  0  0  0  0
  -20.4850  -27.9840   22.9880 C   0  0  0  0  0  3  0  0  0  0  0  0
  -20.6870  -26.5460   22.4560 C   0  0  0  0  0  2  0  0  0  0  0  0
  -19.6860  -26.1620   21.3610 C   0  0  0  0  0  2  0  0  0  0  0  0
  -18.2510  -26.2690   21.8850 C   0  0  0  0  0  2  0  0  0  0  0  0
  -19.0210  -28.4370   23.0140 C   0  0  0  0  0  0  0  0  0  0  0  0
  -18.7100  -29.7040   23.5520 C   0  0  0  0  0  3  0  0  0  0  0  0
  -17.3790  -30.1610   23.5950 C   0  0  0  0  0  3  0  0  0  0  0  0
  -16.3410  -29.3470   23.1100 C   0  0  0  0  0  3  0  0  0  0  0  0
  -16.6370  -28.0800   22.5730 C   0  0  0  0  0  3  0  0  0  0  0  0
  -25.8100  -32.1070   23.9010 C   0  0  0  0  0  3  0  0  0  0  0  0
  -26.3050  -31.2820   25.1520 C   0  0  1  0  0  0  0  0  0  0  0  0
  -25.1950  -31.0000   26.1900 C   0  0  0  0  0  1  0  0  0  0  0  0
  -26.8950  -29.9230   24.7090 C   0  0  0  0  0  1  0  0  0  0  0  0
  -27.4450  -32.0460   25.8660 C   0  0  0  0  0  1  0  0  0  0  0  0
  -25.5140  -33.4960   24.2790 N   0  0  0  0  0  0  0  0  0  0  0  0
  -25.8320  -34.5680   23.5420 C   0  0  0  0  0  0  0  0  0  0  0  0
  -26.4790  -34.4930   22.4940 O   0  0  0  0  0  0  0  0  0  0  0  0
  -24.9390  -33.6290   25.0980 H   0  0  0  0  0  0  0  0  0  0  0  0
  -24.0990  -36.3700   23.2780 C   0  0  0  0  0  1  0  0  0  0  0  0
  -25.3570  -35.9430   24.0490 C   0  0  0  0  0  3  0  0  0  0  0  0
  -27.5120  -36.8030   24.8540 C   0  0  0  0  0  1  0  0  0  0  0  0
  -26.3890  -36.9980   23.9420 N   0  0  0  0  0  0  0  0  0  0  0  0
  -25.9870  -37.9140   24.1260 H   0  0  0  0  0  0  0  0  0  0  0  0
  1  5  1  0
  3  1  2  0
  3  6  1  0
  4  2  1  0
  5  2  2  0
  6  4  2  0
  7  5  1  0
  7  8  1  0
  9  8  2  0
 10 21  1  0
 11 16  1  0
 12 13  1  0
 12 11  1  0
 14 13  1  0
 14 25  1  0
 14 15  1  0
 16 10  1  0
 16 15  1  0
 17 10  2  0
 18 21  1  0
 18 20  1  0
 19 50  1  0
 20  9  1  0
 20 19  1  0
 21 19  1  0
 22 23  2  0
 23 42  1  0
 24 23  1  0
 24 27  1  0
 25 26  1  0
 25 22  1  0
 26 24  2  0
 27 28  1  0
 28 29  2  0
 30 33  1  0
 30 29  1  0
 31 30  2  0
 32 31  1  0
 32 27  2  0
 33 34  1  0
 34 35  1  0
 35 36  2  0
 37 36  1  0
 37 41  1  0
 38 37  2  0
 39 34  2  0
 39 38  1  0
 40 39  1  0
 42 43  1  0
 43 45  1  0
 43 46  1  0
 44 42  2  0
 47 22  1  0
 47 48  1  0
 49 47  1  0
 50 52  1  0
 50 53  2  0
 52 51  1  0
 54 52  1  0
 55  6  1  0
 55 56  1  0
 57 68  2  0
 58 56  1  0
 58 63  1  0
 59 67  1  0
 59 69  1  0
 60 66  1  0
 60 62  1  0
 61 67  1  0
 62 61  1  0
 63 62  2  0
 64 65  1  0
 64 58  2  0
 65 60  2  0
 66 59  1  0
 67 57  1  0
 69 71  2  0
 70 69  1  0
 72 70  1  0
 73 82  2  0
 73 78  1  0
 74 70  1  0
 74 78  1  0
 75 74  1  0
 76 77  1  0
 76 75  1  0
 77 73  1  0
 78 79  2  0
 79 80  1  0
 81 80  2  0
 82 81  1  0
 83 57  1  0
 83 88  1  0
 83 84  1  0
 84 87  1  1
 84 85  1  0
 86 84  1  0
 88 91  1  0
 89 93  1  0
 89 88  1  0
 90 89  2  0
 93 92  1  0
 95 93  1  0
 95 96  1  0
 95 94  1  0
M  ISO  4  10 100  21 100  55 101  56 101
M  END
>  <TORSDO>  (57) 
F 20

>  <SCORE>  (57) 
-5.150

>  <name>  (57) 
57

>  <ligand_id>  (57) 
57

>  <original_smiles>  (57) 
[H]C(=NC1([H])C([H])([H])N(C(=O)N2C([H])([H])C([H])([H])C([H])([H])C([H])(n3nc(-c4c([H])c([H])c(Oc5c([H])c([H])c(F)c([H])c5F)c([H])c4[H])c(C(=O)N([H])[H])c3N([H])[H])C2([H])[H])C1([H])C(=O)N([H])C([H])([H])[H])C([H])([H])c1c([H])c([H])c(C([H])([H])Oc2c([H])c([H])c3c(c2[H])C([H])([H])N(C(=O)C([H])(N([H])C(=O)C([H])(N([H])C([H])([H])[H])C([H])([H])[H])C(C([H])([H])[H])(C([H])([H])[H])C([H])([H])[H])C([H])(C(=O)N([H])C2([H])c4c([H])c([H])c([H])c([H])c4C([H])([H])C([H])([H])C2([H])[H])C3([H])[H])c([H])c1[H]

>  <smiles>  (57) 
[H]C(=NC1([H])C([H])([H])N(C(=O)N2C([H])([H])C([H])([H])C([H])([H])C([H])(n3nc(-c4c([H])c([H])c(Oc5c([H])c([H])c(F)c([H])c5F)c([H])c4[H])c(C(=O)N([H])[H])c3N([H])[H])C2([H])[H])C1([H])C(=O)N([H])C([H])([H])[H])C([H])([H])c1c([H])c([H])c(C([H])([H])Oc2c([H])c([H])c3c(c2[H])C([H])([H])N(C(=O)C([H])(N([H])C(=O)C([H])(N([H])C([H])([H])[H])C([H])([H])[H])C(C([H])([H])[H])(C([H])([H])[H])C([H])([H])[H])C([H])(C(=O)N([H])C2([H])c4c([H])c([H])c([H])c([H])c4C([H])([H])C([H])([H])C2([H])[H])C3([H])[H])c([H])c1[H]

$$$$
58:0:0
     RDKit          3D

 94102  0  0  1  0  0  0  0  0999 V2000
  -29.1880  -21.7040   20.6040 C   0  0  0  0  0  0  0  0  0  0  0  0
  -28.4830  -22.7710   20.1470 N   0  0  0  0  0  0  0  0  0  0  0  0
  -29.9540  -21.7890   21.5670 O   0  0  0  0  0  0  0  0  0  0  0  0
  -27.8770  -22.6010   19.3540 H   0  0  0  0  0  0  0  0  0  0  0  0
  -27.8830  -19.4690   20.4610 C   0  0  0  0  0  2  0  0  0  0  0  0
  -29.0170  -20.3290   19.8900 C   0  0  0  0  0  3  0  0  0  0  0  0
  -28.2110  -18.0400   19.9790 C   0  0  0  0  0  3  0  0  0  0  0  0
  -29.7610  -17.9930   19.9190 C   0  0  0  0  0  3  0  0  0  0  0  0
  -27.5570  -17.7310   18.6210 C   0  0  0  0  0  1  0  0  0  0  0  0
  -30.2020  -19.4320   19.9590 N   0  0  0  0  0  4  0  0  0  0  0  0
  -30.6400  -19.6400   20.8430 H   0  0  0  0  0  0  0  0  0  0  0  0
  -30.8580  -19.6590   19.2290 H   0  0  0  0  0  0  0  0  0  0  0  0
  -30.4130  -17.0470   20.9920 C   0  0  0  0  0  2  0  0  0  0  0  0
  -30.7390  -14.5750   20.4060 C   0  0  0  0  0  0  0  0  0  0  0  0
  -30.4450  -12.4090   19.2480 C   0  0  0  0  0  2  0  0  0  0  0  0
  -29.5000  -12.6120   18.0440 C   0  0  0  0  0  2  0  0  0  0  0  0
  -28.0260  -12.4780   18.4770 C   0  0  0  0  0  2  0  0  0  0  0  0
  -27.6950  -13.3100   19.7450 C   0  0  0  0  0  3  0  0  0  0  0  0
  -28.7520  -13.0810   20.8490 C   0  0  0  0  0  2  0  0  0  0  0  0
  -30.0700  -13.3930   20.2770 N   0  0  0  0  0  0  0  0  0  0  0  0
  -31.8790  -14.7420   19.9650 O   0  0  0  0  0  0  0  0  0  0  0  0
  -30.0150  -15.6140   20.8900 N   0  0  0  0  0  0  0  0  0  0  0  0
  -29.0900  -15.3780   21.2140 H   0  0  0  0  0  0  0  0  0  0  0  0
  -25.3000  -13.9280   20.4480 C   0  0  0  0  0  0  0  0  0  0  0  0
  -24.2290  -13.1630   20.8210 C   0  0  0  0  0  0  0  0  0  0  0  0
  -24.6840  -11.8090   20.8000 C   0  0  0  0  0  0  0  0  0  0  0  0
  -26.3410  -13.0410   20.2240 N   0  0  0  0  0  0  0  0  0  0  0  0
  -25.9750  -11.7620   20.4950 N   0  0  0  0  0  0  0  0  0  0  0  0
  -23.9520  -10.5520   20.9970 C   0  0  0  0  0  0  0  0  0  0  0  0
  -24.3780   -9.5870   21.9360 C   0  0  0  0  0  3  0  0  0  0  0  0
  -23.6450   -8.3950   22.1200 C   0  0  0  0  0  3  0  0  0  0  0  0
  -22.4740   -8.1580   21.3630 C   0  0  0  0  0  0  0  0  0  0  0  0
  -22.0660   -9.1110   20.4120 C   0  0  0  0  0  3  0  0  0  0  0  0
  -22.8010  -10.2950   20.2260 C   0  0  0  0  0  3  0  0  0  0  0  0
  -21.7130   -7.0170   21.4550 O   0  0  0  0  0  0  0  0  0  0  0  0
  -21.6550   -6.2830   22.6120 C   0  0  0  0  0  0  0  0  0  0  0  0
  -21.2180   -6.8450   23.8310 C   0  0  0  0  0  3  0  0  0  0  0  0
  -21.1080   -6.0360   24.9800 C   0  0  0  0  0  3  0  0  0  0  0  0
  -21.4270   -4.6670   24.9120 C   0  0  0  0  0  0  0  0  0  0  0  0
  -21.8590   -4.1040   23.6980 C   0  0  0  0  0  3  0  0  0  0  0  0
  -21.9700   -4.9090   22.5500 C   0  0  0  0  0  0  0  0  0  0  0  0
  -22.3660   -4.3580   21.3780 F   0  0  0  0  0  0  0  0  0  0  0  0
  -21.3140   -3.8880   26.0130 F   0  0  0  0  0  0  0  0  0  0  0  0
  -22.8340  -13.6490   21.0870 C   0  0  0  0  0  0  0  0  0  0  0  0
  -22.0990  -12.9620   21.9540 N   0  0  0  0  0  0  0  0  0  0  0  0
  -22.4050  -14.6760   20.5600 O   0  0  0  0  0  0  0  0  0  0  0  0
  -22.4580  -12.1320   22.4020 H   0  0  0  0  0  0  0  0  0  0  0  0
  -21.1630  -13.2710   22.1750 H   0  0  0  0  0  0  0  0  0  0  0  0
  -25.4710  -15.2960   20.2620 N   0  0  0  0  0  0  0  0  0  0  0  0
  -24.7020  -15.9500   20.3650 H   0  0  0  0  0  0  0  0  0  0  0  0
  -26.3080  -15.7250   19.8920 H   0  0  0  0  0  0  0  0  0  0  0  0
  -28.4030  -24.1410   20.7270 C   0  0  0  0  0  2  0  0  0  0  0  0
  -28.5350  -25.3050   19.6860 C   0  0  0  0  0  2  0  0  0  0  0  0
  -28.4200  -26.6520   20.2280 O   0  0  0  0  0  0  0  0  0  0  0  0
  -24.5650  -31.8780   23.2400 C   0  0  0  0  0  0  0  0  0  0  0  0
  -27.2330  -27.3800   20.1930 C   0  0  0  0  0  0  0  0  0  0  0  0
  -23.3770  -30.4770   21.5870 C   0  0  0  0  0  3  0  0  0  0  0  0
  -24.8420  -28.9310   20.1800 C   0  0  0  0  0  0  0  0  0  0  0  0
  -25.9100  -30.8180   21.4200 C   0  0  0  0  0  2  0  0  0  0  0  0
  -26.0000  -29.4430   20.7790 C   0  0  0  0  0  0  0  0  0  0  0  0
  -27.1940  -28.6770   20.7760 C   0  0  0  0  0  3  0  0  0  0  0  0
  -26.0430  -26.8900   19.6040 C   0  0  0  0  0  3  0  0  0  0  0  0
  -24.8630  -27.6570   19.5910 C   0  0  0  0  0  3  0  0  0  0  0  0
  -23.6030  -29.7980   20.2100 C   0  0  0  0  0  2  0  0  0  0  0  0
  -24.6360  -31.0740   22.1400 N   0  0  0  0  0  0  0  0  0  0  0  0
  -23.4780  -32.1520   23.7680 O   0  0  0  0  0  0  0  0  0  0  0  0
  -22.7100  -29.4580   22.5410 C   0  0  0  0  0  0  0  0  0  0  0  0
  -21.3850  -29.2840   22.4050 N   0  0  0  0  0  0  0  0  0  0  0  0
  -23.3830  -28.8290   23.3620 O   0  0  0  0  0  0  0  0  0  0  0  0
  -20.9020  -29.8430   21.7160 H   0  0  0  0  0  0  0  0  0  0  0  0
  -18.0020  -28.1080   22.8830 C   0  0  0  0  0  0  0  0  0  0  0  0
  -20.5600  -28.3460   23.1670 C   0  0  0  0  0  3  0  0  0  0  0  0
  -20.6560  -26.9190   22.5820 C   0  0  0  0  0  2  0  0  0  0  0  0
  -19.5550  -26.6100   21.5620 C   0  0  0  0  0  2  0  0  0  0  0  0
  -18.1720  -26.7610   22.2010 C   0  0  0  0  0  2  0  0  0  0  0  0
  -19.1240  -28.8590   23.3230 C   0  0  0  0  0  0  0  0  0  0  0  0
  -18.9120  -30.1200   23.9190 C   0  0  0  0  0  3  0  0  0  0  0  0
  -17.6100  -30.6310   24.0810 C   0  0  0  0  0  3  0  0  0  0  0  0
  -16.5030  -29.8760   23.6590 C   0  0  0  0  0  3  0  0  0  0  0  0
  -16.7000  -28.6160   23.0660 C   0  0  0  0  0  3  0  0  0  0  0  0
  -25.8440  -32.5100   23.8740 C   0  0  0  0  0  3  0  0  0  0  0  0
  -26.3390  -31.7490   25.1650 C   0  0  1  0  0  0  0  0  0  0  0  0
  -25.2300  -31.5240   26.2180 C   0  0  0  0  0  1  0  0  0  0  0  0
  -26.9230  -30.3660   24.7920 C   0  0  0  0  0  1  0  0  0  0  0  0
  -27.4820  -32.5450   25.8370 C   0  0  0  0  0  1  0  0  0  0  0  0
  -25.5370  -33.9120   24.1860 N   0  0  0  0  0  0  0  0  0  0  0  0
  -25.8860  -34.9570   23.4220 C   0  0  0  0  0  0  0  0  0  0  0  0
  -26.5730  -34.8390   22.4040 O   0  0  0  0  0  0  0  0  0  0  0  0
  -24.9290  -34.0780   24.9750 H   0  0  0  0  0  0  0  0  0  0  0  0
  -24.1770  -36.7560   23.0190 C   0  0  0  0  0  1  0  0  0  0  0  0
  -25.3980  -36.3510   23.8580 C   0  0  0  0  0  3  0  0  0  0  0  0
  -27.5190  -37.2310   24.7270 C   0  0  0  0  0  1  0  0  0  0  0  0
  -26.4390  -37.3970   23.7570 N   0  0  0  0  0  0  0  0  0  0  0  0
  -26.0350  -38.3200   23.8890 H   0  0  0  0  0  0  0  0  0  0  0  0
  1  3  2  0
  2  1  1  0
  2 52  1  0
  4  2  1  0
  6 10  1  0
  6  5  1  0
  6  1  1  0
  7  9  1  0
  7  5  1  0
  8 10  1  0
  8  7  1  0
  8 13  1  0
 10 11  1  0
 12 10  1  0
 14 22  1  0
 15 20  1  0
 16 17  1  0
 16 15  1  0
 18 17  1  0
 18 27  1  0
 18 19  1  0
 20 14  1  0
 20 19  1  0
 21 14  2  0
 22 13  1  0
 22 23  1  0
 24 25  2  0
 25 44  1  0
 26 25  1  0
 26 29  1  0
 27 24  1  0
 27 28  1  0
 28 26  2  0
 29 30  1  0
 30 31  2  0
 32 35  1  0
 32 31  1  0
 33 32  2  0
 34 33  1  0
 34 29  2  0
 35 36  1  0
 36 37  1  0
 37 38  2  0
 39 38  1  0
 39 43  1  0
 40 39  2  0
 41 36  2  0
 41 40  1  0
 42 41  1  0
 44 45  1  0
 45 48  1  0
 45 47  1  0
 46 44  2  0
 49 50  1  0
 49 24  1  0
 51 49  1  0
 53 54  1  0
 53 52  1  0
 55 66  2  0
 56 54  1  0
 56 61  1  0
 57 65  1  0
 57 67  1  0
 58 64  1  0
 58 60  1  0
 59 65  1  0
 60 59  1  0
 61 60  2  0
 62 56  2  0
 63 62  1  0
 63 58  2  0
 64 57  1  0
 65 55  1  0
 67 69  2  0
 68 67  1  0
 70 68  1  0
 71 80  2  0
 71 76  1  0
 72 68  1  0
 72 76  1  0
 73 72  1  0
 74 75  1  0
 74 73  1  0
 75 71  1  0
 76 77  2  0
 77 78  1  0
 79 78  2  0
 80 79  1  0
 81 55  1  0
 81 86  1  0
 81 82  1  0
 82 85  1  1
 82 83  1  0
 84 82  1  0
 86 89  1  0
 87 91  1  0
 87 86  1  0
 88 87  2  0
 91 90  1  0
 93 91  1  0
 93 94  1  0
 93 92  1  0
M  ISO  4  14 100  22 100  53 101  54 101
M  END
>  <TORSDO>  (58) 
F 20

>  <SCORE>  (58) 
-13.958

>  <name>  (58) 
58

>  <ligand_id>  (58) 
58

>  <original_smiles>  (58) 
[H]c1c([H])c([H])c2c(c1[H])C([H])([H])C([H])([H])C([H])([H])C2([H])N([H])C(=O)C1([H])N(C(=O)C([H])(N([H])C(=O)C([H])(N([H])C([H])([H])[H])C([H])([H])[H])C(C([H])([H])[H])(C([H])([H])[H])C([H])([H])[H])C([H])([H])c2c([H])c(OC([H])([H])C([H])([H])N([H])C(=O)C3([H])C([H])([H])C([H])(C([H])([H])[H])C([H])(C([H])([H])N([H])C(=O)N4C([H])([H])C([H])([H])C([H])([H])C([H])(n5nc(-c6c([H])c([H])c(Oc7c([H])c([H])c(F)c([H])c7F)c([H])c6[H])c(C(=O)N([H])[H])c5N([H])[H])C4([H])[H])[N+]3([H])[H])c([H])c([H])c2C1([H])[H]

>  <smiles>  (58) 
[H]c1c([H])c([H])c2c(c1[H])C([H])([H])C([H])([H])C([H])([H])C2([H])N([H])C(=O)C1([H])N(C(=O)C([H])(N([H])C(=O)C([H])(N([H])C([H])([H])[H])C([H])([H])[H])C(C([H])([H])[H])(C([H])([H])[H])C([H])([H])[H])C([H])([H])c2c([H])c(OC([H])([H])C([H])([H])N([H])C(=O)C3([H])C([H])([H])C([H])(C([H])([H])[H])C([H])(C([H])([H])N([H])C(=O)N4C([H])([H])C([H])([H])C([H])([H])C([H])(n5nc(-c6c([H])c([H])c(Oc7c([H])c([H])c(F)c([H])c7F)c([H])c6[H])c(C(=O)N([H])[H])c5N([H])[H])C4([H])[H])[N+]3([H])[H])c([H])c([H])c2C1([H])[H]

$$$$
59:0:0
     RDKit          3D

 95103  0  0  1  0  0  0  0  0999 V2000
  -27.8890  -19.6350   20.9390 C   0  0  0  0  0  2  0  0  0  0  0  0
  -29.3340  -19.1110   21.0380 C   0  0  0  0  0  2  0  0  0  0  0  0
  -28.0130  -19.4160   18.4440 C   0  0  0  0  0  2  0  0  0  0  0  0
  -27.6470  -20.3740   19.6050 C   0  0  0  0  0  3  0  0  0  0  0  0
  -29.7440  -18.2530   19.8140 C   0  0  0  0  0  3  0  0  0  0  0  0
  -29.4180  -18.9490   18.5420 N   0  0  0  0  0  4  0  0  0  0  0  0
  -30.0130  -19.7570   18.4330 H   0  0  0  0  0  0  0  0  0  0  0  0
  -29.6030  -18.3360   17.7630 H   0  0  0  0  0  0  0  0  0  0  0  0
  -28.4040  -21.7140   19.5210 C   0  0  0  0  0  0  0  0  0  0  0  0
  -29.2460  -21.9040   18.6360 O   0  0  0  0  0  0  0  0  0  0  0  0
  -28.1110  -22.7820   20.5790 C   0  0  0  0  0  2  0  0  0  0  0  0
  -28.9100  -24.0770   20.3460 C   0  0  0  0  0  2  0  0  0  0  0  0
  -28.6910  -25.1410   21.4340 C   0  0  0  0  0  2  0  0  0  0  0  0
  -29.3920  -26.4630   21.0830 C   0  0  0  0  0  2  0  0  0  0  0  0
  -28.9000  -26.9460   19.8350 O   0  0  0  0  0  0  0  0  0  0  0  0
  -24.7170  -31.6110   23.2000 C   0  0  0  0  0  0  0  0  0  0  0  0
  -27.6900  -27.5870   19.9020 C   0  0  0  0  0  0  0  0  0  0  0  0
  -23.6210  -30.2330   21.4580 C   0  0  0  0  0  3  0  0  0  0  0  0
  -25.1900  -28.8840   19.9680 C   0  0  0  0  0  0  0  0  0  0  0  0
  -26.1100  -30.7820   21.3130 C   0  0  0  0  0  2  0  0  0  0  0  0
  -26.2960  -29.4600   20.6050 C   0  0  0  0  0  0  0  0  0  0  0  0
  -27.5490  -28.8160   20.5780 C   0  0  0  0  0  3  0  0  0  0  0  0
  -26.5760  -27.0160   19.2550 C   0  0  0  0  0  3  0  0  0  0  0  0
  -25.3220  -27.6550   19.2950 C   0  0  0  0  0  3  0  0  0  0  0  0
  -23.8880  -29.6480   20.0460 C   0  0  0  0  0  2  0  0  0  0  0  0
  -24.8320  -30.8880   22.0510 N   0  0  0  0  0  0  0  0  0  0  0  0
  -23.6160  -31.7780   23.7430 O   0  0  0  0  0  0  0  0  0  0  0  0
  -23.0310  -29.1160   22.3480 C   0  0  0  0  0  0  0  0  0  0  0  0
  -21.7270  -28.8440   22.1780 N   0  0  0  0  0  0  0  0  0  0  0  0
  -23.7430  -28.4990   23.1450 O   0  0  0  0  0  0  0  0  0  0  0  0
  -21.2130  -29.4010   21.5090 H   0  0  0  0  0  0  0  0  0  0  0  0
  -18.4390  -27.3970   22.5320 C   0  0  0  0  0  0  0  0  0  0  0  0
  -20.9660  -27.8100   22.8760 C   0  0  0  0  0  3  0  0  0  0  0  0
  -21.1790  -26.4270   22.2200 C   0  0  0  0  0  2  0  0  0  0  0  0
  -20.1190  -26.0900   21.1650 C   0  0  0  0  0  2  0  0  0  0  0  0
  -18.7200  -26.1040   21.7860 C   0  0  0  0  0  2  0  0  0  0  0  0
  -19.4940  -28.2070   23.0300 C   0  0  0  0  0  0  0  0  0  0  0  0
  -19.1780  -29.4170   23.6840 C   0  0  0  0  0  3  0  0  0  0  0  0
  -17.8390  -29.8190   23.8490 C   0  0  0  0  0  3  0  0  0  0  0  0
  -16.7980  -29.0050   23.3690 C   0  0  0  0  0  3  0  0  0  0  0  0
  -17.0990  -27.7970   22.7150 C   0  0  0  0  0  3  0  0  0  0  0  0
  -25.9560  -32.2810   23.8750 C   0  0  0  0  0  3  0  0  0  0  0  0
  -25.5900  -33.6690   24.1870 N   0  0  0  0  0  0  0  0  0  0  0  0
  -25.9290  -34.7290   23.4410 C   0  0  0  0  0  0  0  0  0  0  0  0
  -26.6510  -34.6440   22.4440 O   0  0  0  0  0  0  0  0  0  0  0  0
  -24.9520  -33.8060   24.9570 H   0  0  0  0  0  0  0  0  0  0  0  0
  -24.1630  -36.4640   22.9960 C   0  0  0  0  0  1  0  0  0  0  0  0
  -25.3750  -36.1010   23.8680 C   0  0  0  0  0  3  0  0  0  0  0  0
  -27.4320  -37.0620   24.8060 C   0  0  0  0  0  1  0  0  0  0  0  0
  -26.3780  -37.1860   23.8020 N   0  0  0  0  0  0  0  0  0  0  0  0
  -25.9350  -38.0940   23.9180 H   0  0  0  0  0  0  0  0  0  0  0  0
  -26.4470  -31.5240   25.1700 C   0  0  1  0  0  0  0  0  0  0  0  0
  -25.3190  -31.2440   26.1910 C   0  0  0  0  0  1  0  0  0  0  0  0
  -27.0940  -30.1700   24.7980 C   0  0  0  0  0  1  0  0  0  0  0  0
  -27.5410  -32.3570   25.8820 C   0  0  0  0  0  1  0  0  0  0  0  0
  -31.2490  -17.9000   19.8650 C   0  0  0  0  0  2  0  0  0  0  0  0
  -31.6590  -16.9630   21.0260 C   0  0  0  0  0  2  0  0  0  0  0  0
  -31.5770  -14.6870   20.0330 C   0  0  0  0  0  0  0  0  0  0  0  0
  -31.1500  -12.5120   18.9630 C   0  0  0  0  0  2  0  0  0  0  0  0
  -30.1730  -12.6750   17.7840 C   0  0  0  0  0  2  0  0  0  0  0  0
  -28.7130  -12.6020   18.2690 C   0  0  0  0  0  2  0  0  0  0  0  0
  -28.4410  -13.5240   19.4870 C   0  0  0  0  0  3  0  0  0  0  0  0
  -29.5220  -13.3290   20.5740 C   0  0  0  0  0  2  0  0  0  0  0  0
  -30.8440  -13.5490   19.9580 N   0  0  0  0  0  0  0  0  0  0  0  0
  -32.5940  -14.8890   19.3630 O   0  0  0  0  0  0  0  0  0  0  0  0
  -31.1020  -15.6190   20.8690 N   0  0  0  0  0  0  0  0  0  0  0  0
  -30.2950  -15.3720   21.4220 H   0  0  0  0  0  0  0  0  0  0  0  0
  -26.1140  -14.2470   20.3230 C   0  0  0  0  0  0  0  0  0  0  0  0
  -25.0220  -13.5240   20.7240 C   0  0  0  0  0  0  0  0  0  0  0  0
  -25.4010  -12.1510   20.6310 C   0  0  0  0  0  0  0  0  0  0  0  0
  -27.0950  -13.3160   20.0180 N   0  0  0  0  0  0  0  0  0  0  0  0
  -26.6700  -12.0480   20.2550 N   0  0  0  0  0  0  0  0  0  0  0  0
  -24.6150  -10.9260   20.8200 C   0  0  0  0  0  0  0  0  0  0  0  0
  -24.9680   -9.9640   21.7920 C   0  0  0  0  0  3  0  0  0  0  0  0
  -24.1850   -8.8030   21.9670 C   0  0  0  0  0  3  0  0  0  0  0  0
  -23.0340   -8.5960   21.1690 C   0  0  0  0  0  0  0  0  0  0  0  0
  -22.7000   -9.5450   20.1880 C   0  0  0  0  0  3  0  0  0  0  0  0
  -23.4840  -10.6980   20.0110 C   0  0  0  0  0  3  0  0  0  0  0  0
  -22.2290   -7.4860   21.2520 O   0  0  0  0  0  0  0  0  0  0  0  0
  -22.0200   -6.8350   22.4420 C   0  0  0  0  0  0  0  0  0  0  0  0
  -21.4360   -7.4820   23.5520 C   0  0  0  0  0  3  0  0  0  0  0  0
  -21.1750   -6.7560   24.7320 C   0  0  0  0  0  3  0  0  0  0  0  0
  -21.4890   -5.3860   24.8010 C   0  0  0  0  0  0  0  0  0  0  0  0
  -22.0670   -4.7400   23.6940 C   0  0  0  0  0  3  0  0  0  0  0  0
  -22.3280   -5.4620   22.5170 C   0  0  0  0  0  0  0  0  0  0  0  0
  -22.8660   -4.8290   21.4470 F   0  0  0  0  0  0  0  0  0  0  0  0
  -21.2310   -4.6870   25.9320 F   0  0  0  0  0  0  0  0  0  0  0  0
  -23.6700  -14.0710   21.0830 C   0  0  0  0  0  0  0  0  0  0  0  0
  -22.9520  -13.3940   21.9730 N   0  0  0  0  0  0  0  0  0  0  0  0
  -23.2630  -15.1310   20.6100 O   0  0  0  0  0  0  0  0  0  0  0  0
  -23.2970  -12.5340   22.3730 H   0  0  0  0  0  0  0  0  0  0  0  0
  -22.0460  -13.7390   22.2550 H   0  0  0  0  0  0  0  0  0  0  0  0
  -26.3490  -15.6100   20.1740 N   0  0  0  0  0  0  0  0  0  0  0  0
  -25.6210  -16.2990   20.3240 H   0  0  0  0  0  0  0  0  0  0  0  0
  -27.1910  -15.9960   19.7730 H   0  0  0  0  0  0  0  0  0  0  0  0
  1  2  1  0
  3  6  1  0
  3  4  1  0
  4  9  1  0
  4  1  1  0
  5 56  1  0
  5  2  1  0
  6  5  1  0
  7  6  1  0
  8  6  1  0
  9 11  1  0
 10  9  2  0
 12 11  1  0
 12 13  1  0
 14 13  1  0
 15 17  1  0
 15 14  1  0
 16 27  2  0
 17 22  1  0
 18 26  1  0
 18 28  1  0
 19 25  1  0
 19 21  1  0
 20 26  1  0
 21 20  1  0
 22 21  2  0
 23 24  1  0
 23 17  2  0
 24 19  2  0
 25 18  1  0
 26 16  1  0
 28 30  2  0
 29 28  1  0
 31 29  1  0
 32 41  2  0
 32 37  1  0
 33 29  1  0
 33 37  1  0
 34 33  1  0
 35 36  1  0
 35 34  1  0
 36 32  1  0
 37 38  2  0
 38 39  1  0
 40 39  2  0
 41 40  1  0
 42 16  1  0
 42 43  1  0
 42 52  1  0
 43 46  1  0
 44 48  1  0
 44 43  1  0
 45 44  2  0
 48 47  1  0
 50 48  1  0
 50 51  1  0
 50 49  1  0
 52 55  1  1
 52 53  1  0
 54 52  1  0
 56 57  1  0
 58 66  1  0
 59 64  1  0
 60 61  1  0
 60 59  1  0
 62 61  1  0
 62 71  1  0
 62 63  1  0
 64 58  1  0
 64 63  1  0
 65 58  2  0
 66 57  1  0
 66 67  1  0
 68 69  2  0
 69 88  1  0
 70 69  1  0
 70 73  1  0
 71 72  1  0
 71 68  1  0
 72 70  2  0
 73 74  1  0
 74 75  2  0
 76 79  1  0
 76 75  1  0
 77 76  2  0
 78 77  1  0
 78 73  2  0
 79 80  1  0
 80 85  2  0
 80 81  1  0
 81 82  2  0
 82 83  1  0
 83 87  1  0
 84 83  2  0
 85 84  1  0
 86 85  1  0
 88 89  1  0
 89 92  1  0
 89 91  1  0
 90 88  2  0
 93 68  1  0
 93 94  1  0
 95 93  1  0
M  ISO  4  14 101  15 101  58 100  66 100
M  END
>  <TORSDO>  (59) 
F 23

>  <SCORE>  (59) 
-10.639

>  <name>  (59) 
59

>  <ligand_id>  (59) 
59

>  <original_smiles>  (59) 
[H]c1c([H])c([H])c2c(c1[H])C([H])([H])C([H])([H])C([H])([H])C2([H])N([H])C(=O)C1([H])N(C(=O)C([H])(N([H])C(=O)C([H])(N([H])C([H])([H])[H])C([H])([H])[H])C(C([H])([H])[H])(C([H])([H])[H])C([H])([H])[H])C([H])([H])c2c([H])c(OC([H])([H])C([H])([H])C([H])([H])C([H])([H])C(=O)C3([H])C([H])([H])C([H])([H])C([H])(C([H])([H])C([H])([H])N([H])C(=O)N4C([H])([H])C([H])([H])C([H])([H])C([H])(n5nc(-c6c([H])c([H])c(Oc7c([H])c([H])c(F)c([H])c7F)c([H])c6[H])c(C(=O)N([H])[H])c5N([H])[H])C4([H])[H])[N+]([H])([H])C3([H])[H])c([H])c([H])c2C1([H])[H]

>  <smiles>  (59) 
[H]c1c([H])c([H])c2c(c1[H])C([H])([H])C([H])([H])C([H])([H])C2([H])N([H])C(=O)C1([H])N(C(=O)C([H])(N([H])C(=O)C([H])(N([H])C([H])([H])[H])C([H])([H])[H])C(C([H])([H])[H])(C([H])([H])[H])C([H])([H])[H])C([H])([H])c2c([H])c(OC([H])([H])C([H])([H])C([H])([H])C([H])([H])C(=O)C3([H])C([H])([H])C([H])([H])C([H])(C([H])([H])C([H])([H])N([H])C(=O)N4C([H])([H])C([H])([H])C([H])([H])C([H])(n5nc(-c6c([H])c([H])c(Oc7c([H])c([H])c(F)c([H])c7F)c([H])c6[H])c(C(=O)N([H])[H])c5N([H])[H])C4([H])[H])[N+]([H])([H])C3([H])[H])c([H])c([H])c2C1([H])[H]

$$$$
60:0:0
     RDKit          3D

 94102  0  0  1  0  0  0  0  0999 V2000
  -26.3130  -21.3440   20.4880 C   0  0  0  0  0  2  0  0  0  0  0  0
  -30.1510  -21.5730   19.9060 C   0  0  0  0  0  2  0  0  0  0  0  0
  -30.4960  -20.4830   18.8760 C   0  0  0  0  0  2  0  0  0  0  0  0
  -28.9640  -18.6230   19.5820 C   0  0  0  0  0  2  0  0  0  0  0  0
  -28.6570  -21.9020   19.8490 C   0  0  0  0  0  2  0  0  0  0  0  0
  -27.9710  -19.4050   20.5330 C   0  0  0  0  0  2  0  0  0  0  0  0
  -30.4340  -19.1110   19.5860 C   0  0  0  0  0  3  0  0  0  0  0  0
  -27.7250  -20.8940   20.4420 N   0  0  2  0  0  4  0  0  0  0  0  0
  -27.9580  -21.0870   21.4130 H   0  0  0  0  0  0  0  0  0  0  0  0
  -31.6790  -18.1550   19.2940 C   0  0  0  0  0  2  0  0  0  0  0  0
  -32.4560  -15.8430   18.7810 C   0  0  0  0  0  0  0  0  0  0  0  0
  -32.3680  -13.3740   18.6050 C   0  0  0  0  0  2  0  0  0  0  0  0
  -31.3290  -13.0290   17.5120 C   0  0  0  0  0  2  0  0  0  0  0  0
  -29.8840  -13.0460   18.0600 C   0  0  0  0  0  2  0  0  0  0  0  0
  -29.5730  -14.2990   18.9160 C   0  0  0  0  0  3  0  0  0  0  0  0
  -30.7070  -14.5340   19.9440 C   0  0  0  0  0  2  0  0  0  0  0  0
  -31.9710  -14.6570   19.1940 N   0  0  0  0  0  0  0  0  0  0  0  0
  -33.5980  -15.9760   18.3000 O   0  0  0  0  0  0  0  0  0  0  0  0
  -31.5130  -16.8070   18.7790 N   0  0  0  0  0  0  0  0  0  0  0  0
  -30.6210  -16.3810   19.0070 H   0  0  0  0  0  0  0  0  0  0  0  0
  -27.4590  -15.2570   20.0260 C   0  0  0  0  0  0  0  0  0  0  0  0
  -26.3230  -14.6510   20.4900 C   0  0  0  0  0  0  0  0  0  0  0  0
  -26.5060  -13.2520   20.2740 C   0  0  0  0  0  0  0  0  0  0  0  0
  -28.2720  -14.2280   19.5740 N   0  0  0  0  0  0  0  0  0  0  0  0
  -27.7110  -13.0120   19.7790 N   0  0  0  0  0  0  0  0  0  0  0  0
  -25.5800  -12.1270   20.4610 C   0  0  0  0  0  0  0  0  0  0  0  0
  -25.8620  -11.0840   21.3720 C   0  0  0  0  0  3  0  0  0  0  0  0
  -24.9500  -10.0190   21.5410 C   0  0  0  0  0  3  0  0  0  0  0  0
  -23.7470   -9.9940   20.7990 C   0  0  0  0  0  0  0  0  0  0  0  0
  -23.4810  -11.0230   19.8800 C   0  0  0  0  0  3  0  0  0  0  0  0
  -24.3910  -12.0800   19.7070 C   0  0  0  0  0  3  0  0  0  0  0  0
  -22.8130   -8.9910   20.8820 O   0  0  0  0  0  0  0  0  0  0  0  0
  -22.5360   -8.3640   22.0700 C   0  0  0  0  0  0  0  0  0  0  0  0
  -22.0690   -9.0750   23.1970 C   0  0  0  0  0  3  0  0  0  0  0  0
  -21.7300   -8.3820   24.3760 C   0  0  0  0  0  3  0  0  0  0  0  0
  -21.8470   -6.9810   24.4280 C   0  0  0  0  0  0  0  0  0  0  0  0
  -22.3050   -6.2700   23.3060 C   0  0  0  0  0  3  0  0  0  0  0  0
  -22.6460   -6.9600   22.1290 C   0  0  0  0  0  0  0  0  0  0  0  0
  -23.0690   -6.2690   21.0420 F   0  0  0  0  0  0  0  0  0  0  0  0
  -21.5130   -6.3140   25.5570 F   0  0  0  0  0  0  0  0  0  0  0  0
  -25.0890  -15.3390   20.9970 C   0  0  0  0  0  0  0  0  0  0  0  0
  -24.3740  -14.7150   21.9310 N   0  0  0  0  0  0  0  0  0  0  0  0
  -24.7770  -16.4650   20.6100 O   0  0  0  0  0  0  0  0  0  0  0  0
  -24.6300  -13.7970   22.2680 H   0  0  0  0  0  0  0  0  0  0  0  0
  -23.5520  -15.1640   22.3170 H   0  0  0  0  0  0  0  0  0  0  0  0
  -27.8400  -16.5850   19.9240 N   0  0  0  0  0  0  0  0  0  0  0  0
  -27.2160  -17.3360   20.1870 H   0  0  0  0  0  0  0  0  0  0  0  0
  -28.6730  -16.9140   19.4570 H   0  0  0  0  0  0  0  0  0  0  0  0
  -25.5490  -21.5260   19.1410 C   0  0  0  0  0  2  0  0  0  0  0  0
  -25.4420  -22.9940   18.6720 C   0  0  0  0  0  2  0  0  0  0  0  0
  -26.7370  -23.6060   18.0440 C   0  0  0  0  0  2  0  0  0  0  0  0
  -27.3750  -24.7350   18.9000 C   0  0  0  0  0  3  0  0  0  0  0  0
  -28.5010  -25.5780   18.1940 C   0  0  0  0  0  3  0  0  0  0  0  0
  -29.0560  -26.7670   18.8550 O   0  0  0  0  0  0  0  0  0  0  0  0
  -26.3420  -29.9220   24.6860 C   0  0  0  0  0  0  0  0  0  0  0  0
  -28.1490  -27.6810   19.3680 C   0  0  0  0  0  0  0  0  0  0  0  0
  -24.9270  -29.8580   22.6650 C   0  0  0  0  0  3  0  0  0  0  0  0
  -26.0860  -29.2520   20.4880 C   0  0  0  0  0  0  0  0  0  0  0  0
  -27.4750  -29.8770   22.4650 C   0  0  0  0  0  2  0  0  0  0  0  0
  -27.3030  -29.1330   21.1600 C   0  0  0  0  0  0  0  0  0  0  0  0
  -28.3410  -28.3120   20.6250 C   0  0  0  0  0  3  0  0  0  0  0  0
  -26.9870  -27.9980   18.6350 C   0  0  0  0  0  3  0  0  0  0  0  0
  -25.9280  -28.7060   19.2100 C   0  0  0  0  0  3  0  0  0  0  0  0
  -24.9870  -30.0470   21.1270 C   0  0  0  0  0  2  0  0  0  0  0  0
  -26.2690  -29.8800   23.3250 N   0  0  0  0  0  0  0  0  0  0  0  0
  -25.3220  -29.9880   25.3920 O   0  0  0  0  0  0  0  0  0  0  0  0
  -24.1270  -28.5690   22.9510 C   0  0  0  0  0  0  0  0  0  0  0  0
  -22.8390  -28.5680   22.5610 N   0  0  0  0  0  0  0  0  0  0  0  0
  -24.6720  -27.5940   23.4830 O   0  0  0  0  0  0  0  0  0  0  0  0
  -22.5270  -29.3340   21.9690 H   0  0  0  0  0  0  0  0  0  0  0  0
  -19.4710  -27.4790   21.7810 C   0  0  0  0  0  0  0  0  0  0  0  0
  -21.8850  -27.4770   22.7180 C   0  0  0  0  0  3  0  0  0  0  0  0
  -22.1830  -26.3440   21.6880 C   0  0  0  0  0  2  0  0  0  0  0  0
  -21.3610  -26.4780   20.3900 C   0  0  0  0  0  2  0  0  0  0  0  0
  -19.8530  -26.4840   20.6850 C   0  0  0  0  0  2  0  0  0  0  0  0
  -20.4270  -27.9630   22.7240 C   0  0  0  0  0  0  0  0  0  0  0  0
  -20.0200  -28.9030   23.7110 C   0  0  0  0  0  3  0  0  0  0  0  0
  -18.6900  -29.3990   23.7280 C   0  0  0  0  0  3  0  0  0  0  0  0
  -17.7600  -28.9290   22.7840 C   0  0  0  0  0  3  0  0  0  0  0  0
  -18.1440  -27.9720   21.8320 C   0  0  0  0  0  3  0  0  0  0  0  0
  -27.7180  -29.9190   25.4190 C   0  0  0  0  0  3  0  0  0  0  0  0
  -27.6910  -30.9970   26.4090 N   0  0  0  0  0  0  0  0  0  0  0  0
  -28.2560  -32.2070   26.2470 C   0  0  0  0  0  0  0  0  0  0  0  0
  -28.9250  -32.5100   25.2540 O   0  0  0  0  0  0  0  0  0  0  0  0
  -27.1200  -30.8320   27.2250 H   0  0  0  0  0  0  0  0  0  0  0  0
  -26.9210  -34.2170   26.9440 C   0  0  0  0  0  1  0  0  0  0  0  0
  -28.0310  -33.2390   27.3580 C   0  0  0  0  0  3  0  0  0  0  0  0
  -30.2640  -33.1780   28.3750 C   0  0  0  0  0  1  0  0  0  0  0  0
  -29.2510  -33.9900   27.7110 N   0  0  0  0  0  0  0  0  0  0  0  0
  -29.0250  -34.7760   28.3090 H   0  0  0  0  0  0  0  0  0  0  0  0
  -28.0590  -28.5370   26.1000 C   0  0  1  0  0  0  0  0  0  0  0  0
  -26.9310  -27.9940   27.0060 C   0  0  0  0  0  1  0  0  0  0  0  0
  -28.3750  -27.4520   25.0400 C   0  0  0  0  0  1  0  0  0  0  0  0
  -29.3320  -28.6880   26.9640 C   0  0  0  0  0  1  0  0  0  0  0  0
  3  7  1  0
  3  2  1  0
  4  7  1  0
  4  6  1  0
  5  2  1  0
  5  8  1  0
  7 10  1  0
  8  1  1  0
  8  6  1  0
  8  9  1  1
 11 17  1  0
 12 17  1  0
 13 14  1  0
 13 12  1  0
 15 14  1  0
 15 24  1  0
 15 16  1  0
 17 16  1  0
 18 11  2  0
 19 11  1  0
 19 20  1  0
 19 10  1  0
 21 22  2  0
 22 41  1  0
 23 26  1  0
 23 22  1  0
 24 25  1  0
 24 21  1  0
 25 23  2  0
 26 27  1  0
 27 28  2  0
 29 32  1  0
 29 28  1  0
 30 29  2  0
 31 30  1  0
 31 26  2  0
 32 33  1  0
 33 38  2  0
 33 34  1  0
 34 35  2  0
 35 36  1  0
 36 40  1  0
 37 36  2  0
 38 37  1  0
 39 38  1  0
 41 42  1  0
 42 44  1  0
 42 45  1  0
 43 41  2  0
 46 21  1  0
 46 47  1  0
 48 46  1  0
 49  1  1  0
 50 49  1  0
 51 50  1  0
 51 52  1  0
 53 54  1  0
 53 52  2  0
 54 56  1  0
 55 66  2  0
 56 61  1  0
 57 67  1  0
 57 65  1  0
 58 64  1  0
 58 60  1  0
 59 65  1  0
 60 59  1  0
 61 60  2  0
 62 63  1  0
 62 56  2  0
 63 58  2  0
 64 57  1  0
 65 55  1  0
 67 69  2  0
 68 67  1  0
 70 68  1  0
 71 80  2  0
 71 76  1  0
 72 68  1  0
 72 76  1  0
 73 72  1  0
 74 75  1  0
 74 73  1  0
 75 71  1  0
 76 77  2  0
 77 78  1  0
 79 78  2  0
 80 79  1  0
 81 55  1  0
 81 91  1  0
 81 82  1  0
 82 85  1  0
 83 82  1  0
 83 87  1  0
 84 83  2  0
 87 86  1  0
 87 89  1  0
 89 90  1  0
 89 88  1  0
 91 94  1  1
 91 92  1  0
 93 91  1  0
M  ISO  4  11 100  19 100  53 101  54 101
M  END
>  <TORSDO>  (60) 
F 23

>  <SCORE>  (60) 
-4.323

>  <name>  (60) 
60

>  <ligand_id>  (60) 
60

>  <original_smiles>  (60) 
[H]c1c([H])c([H])c2c(c1[H])C([H])([H])C([H])([H])C([H])([H])C2([H])N([H])C(=O)C1([H])N(C(=O)C([H])(N([H])C(=O)C([H])(N([H])C([H])([H])[H])C([H])([H])[H])C(C([H])([H])[H])(C([H])([H])[H])C([H])([H])[H])C([H])([H])c2c([H])c(OC([H])([H])C([H])([H])C([H])([H])C([H])([H])C([H])([H])C([H])([H])[N+]3([H])C([H])([H])C([H])([H])C([H])([H])C([H])(C([H])([H])N([H])C(=O)N4C([H])([H])C([H])([H])C([H])([H])C([H])(n5nc(-c6c([H])c([H])c(Oc7c([H])c([H])c(F)c([H])c7F)c([H])c6[H])c(C(=O)N([H])[H])c5N([H])[H])C4([H])[H])C([H])([H])C3([H])[H])c([H])c([H])c2C1([H])[H]

>  <smiles>  (60) 
[H]c1c([H])c([H])c2c(c1[H])C([H])([H])C([H])([H])C([H])([H])C2([H])N([H])C(=O)C1([H])N(C(=O)C([H])(N([H])C(=O)C([H])(N([H])C([H])([H])[H])C([H])([H])[H])C(C([H])([H])[H])(C([H])([H])[H])C([H])([H])[H])C([H])([H])c2c([H])c(OC([H])([H])C([H])([H])C([H])([H])C([H])([H])C([H])([H])C([H])([H])[N+]3([H])C([H])([H])C([H])([H])C([H])([H])C([H])(C([H])([H])N([H])C(=O)N4C([H])([H])C([H])([H])C([H])([H])C([H])(n5nc(-c6c([H])c([H])c(Oc7c([H])c([H])c(F)c([H])c7F)c([H])c6[H])c(C(=O)N([H])[H])c5N([H])[H])C4([H])[H])C([H])([H])C3([H])[H])c([H])c([H])c2C1([H])[H]

$$$$
61:0:0
     RDKit          3D

 91 99  0  0  1  0  0  0  0  0999 V2000
  -28.4920  -20.8580   21.0920 C   0  0  0  0  0  0  0  0  0  0  0  0
  -28.4480  -22.0560   20.4880 N   0  0  0  0  0  0  0  0  0  0  0  0
  -28.7920  -20.7300   22.2800 O   0  0  0  0  0  0  0  0  0  0  0  0
  -28.2040  -22.0710   19.5060 H   0  0  0  0  0  0  0  0  0  0  0  0
  -28.1450  -19.6250   20.2400 C   0  0  0  0  0  2  0  0  0  0  0  0
  -31.0780  -14.6420   19.9970 C   0  0  0  0  0  0  0  0  0  0  0  0
  -30.7250  -12.4270   19.0020 C   0  0  0  0  0  2  0  0  0  0  0  0
  -29.7430  -12.5760   17.8200 C   0  0  0  0  0  2  0  0  0  0  0  0
  -28.2870  -12.4670   18.3130 C   0  0  0  0  0  2  0  0  0  0  0  0
  -27.9930  -13.3750   19.5380 C   0  0  0  0  0  3  0  0  0  0  0  0
  -29.0880  -13.2310   20.6180 C   0  0  0  0  0  2  0  0  0  0  0  0
  -30.3880  -13.4730   19.9760 N   0  0  0  0  0  0  0  0  0  0  0  0
  -32.2390  -14.7390   19.5830 O   0  0  0  0  0  0  0  0  0  0  0  0
  -29.2030  -17.6870   18.9360 C   0  0  0  0  0  2  0  0  0  0  0  0
  -29.2090  -17.5660   21.4250 C   0  0  0  0  0  2  0  0  0  0  0  0
  -30.3470  -16.6590   18.9220 C   0  0  0  0  0  2  0  0  0  0  0  0
  -30.3380  -16.5110   21.3530 C   0  0  0  0  0  2  0  0  0  0  0  0
  -29.2470  -18.5310   20.2200 C   0  0  0  0  0  3  0  0  0  0  0  0
  -30.3130  -15.7570   20.0890 N   0  0  0  0  0  0  0  0  0  0  0  0
  -25.6380  -14.0200   20.3480 C   0  0  0  0  0  0  0  0  0  0  0  0
  -24.5770  -13.2630   20.7670 C   0  0  0  0  0  0  0  0  0  0  0  0
  -25.0190  -11.9050   20.7300 C   0  0  0  0  0  0  0  0  0  0  0  0
  -26.6590  -13.1230   20.0810 N   0  0  0  0  0  0  0  0  0  0  0  0
  -26.2950  -11.8470   20.3700 N   0  0  0  0  0  0  0  0  0  0  0  0
  -24.2870  -10.6530   20.9590 C   0  0  0  0  0  0  0  0  0  0  0  0
  -24.6770   -9.7420   21.9650 C   0  0  0  0  0  3  0  0  0  0  0  0
  -23.9450   -8.5540   22.1780 C   0  0  0  0  0  3  0  0  0  0  0  0
  -22.8080   -8.2690   21.3830 C   0  0  0  0  0  0  0  0  0  0  0  0
  -22.4380   -9.1690   20.3680 C   0  0  0  0  0  3  0  0  0  0  0  0
  -23.1730  -10.3470   20.1530 C   0  0  0  0  0  3  0  0  0  0  0  0
  -22.0530   -7.1270   21.5020 O   0  0  0  0  0  0  0  0  0  0  0  0
  -21.8550   -6.5160   22.7150 C   0  0  0  0  0  0  0  0  0  0  0  0
  -21.2530   -7.1910   23.7990 C   0  0  0  0  0  3  0  0  0  0  0  0
  -21.0040   -6.5040   25.0050 C   0  0  0  0  0  3  0  0  0  0  0  0
  -21.3500   -5.1440   25.1260 C   0  0  0  0  0  0  0  0  0  0  0  0
  -21.9460   -4.4710   24.0450 C   0  0  0  0  0  3  0  0  0  0  0  0
  -22.1950   -5.1540   22.8430 C   0  0  0  0  0  0  0  0  0  0  0  0
  -22.7490   -4.4940   21.7970 F   0  0  0  0  0  0  0  0  0  0  0  0
  -21.1040   -4.4830   26.2810 F   0  0  0  0  0  0  0  0  0  0  0  0
  -23.1980  -13.7590   21.0940 C   0  0  0  0  0  0  0  0  0  0  0  0
  -22.5100  -13.0930   22.0140 N   0  0  0  0  0  0  0  0  0  0  0  0
  -22.7400  -14.7710   20.5660 O   0  0  0  0  0  0  0  0  0  0  0  0
  -22.8930  -12.2730   22.4610 H   0  0  0  0  0  0  0  0  0  0  0  0
  -21.5860  -13.4080   22.2770 H   0  0  0  0  0  0  0  0  0  0  0  0
  -25.8140  -15.3870   20.1520 N   0  0  0  0  0  0  0  0  0  0  0  0
  -25.0640  -16.0550   20.2960 H   0  0  0  0  0  0  0  0  0  0  0  0
  -26.6650  -15.8100   19.8090 H   0  0  0  0  0  0  0  0  0  0  0  0
  -28.7450  -23.3450   21.1170 C   0  0  0  0  0  2  0  0  0  0  0  0
  -28.4020  -24.5240   20.1800 C   0  0  0  0  0  2  0  0  0  0  0  0
  -28.7160  -25.9090   20.7860 C   0  0  0  0  0  2  0  0  0  0  0  0
  -28.5530  -26.9630   19.8310 O   0  0  0  0  0  0  0  0  0  0  0  0
  -24.6630  -31.8750   23.2020 C   0  0  0  0  0  0  0  0  0  0  0  0
  -27.3620  -27.6410   19.9140 C   0  0  0  0  0  0  0  0  0  0  0  0
  -23.4550  -30.4880   21.5470 C   0  0  0  0  0  3  0  0  0  0  0  0
  -24.9180  -29.0420   20.0370 C   0  0  0  0  0  0  0  0  0  0  0  0
  -25.9570  -30.9420   21.2900 C   0  0  0  0  0  2  0  0  0  0  0  0
  -26.0710  -29.5940   20.6090 C   0  0  0  0  0  0  0  0  0  0  0  0
  -27.2970  -28.9010   20.5460 C   0  0  0  0  0  3  0  0  0  0  0  0
  -26.1990  -27.0970   19.3330 C   0  0  0  0  0  3  0  0  0  0  0  0
  -24.9740  -27.7900   19.3980 C   0  0  0  0  0  3  0  0  0  0  0  0
  -23.6450  -29.8540   20.1420 C   0  0  0  0  0  2  0  0  0  0  0  0
  -24.7110  -31.1150   22.0720 N   0  0  0  0  0  0  0  0  0  0  0  0
  -23.5900  -32.0930   23.7810 O   0  0  0  0  0  0  0  0  0  0  0  0
  -22.8660  -29.4160   22.4920 C   0  0  0  0  0  0  0  0  0  0  0  0
  -21.5470  -29.1850   22.3850 N   0  0  0  0  0  0  0  0  0  0  0  0
  -23.5900  -28.7960   23.2750 O   0  0  0  0  0  0  0  0  0  0  0  0
  -21.0210  -29.7410   21.7260 H   0  0  0  0  0  0  0  0  0  0  0  0
  -18.2350  -27.8460   22.9090 C   0  0  0  0  0  0  0  0  0  0  0  0
  -20.7840  -28.1950   23.1430 C   0  0  0  0  0  3  0  0  0  0  0  0
  -20.9310  -26.7870   22.5230 C   0  0  0  0  0  2  0  0  0  0  0  0
  -19.8250  -26.4500   21.5180 C   0  0  0  0  0  2  0  0  0  0  0  0
  -18.4490  -26.5260   22.1860 C   0  0  0  0  0  2  0  0  0  0  0  0
  -19.3320  -28.6370   23.3420 C   0  0  0  0  0  0  0  0  0  0  0  0
  -19.0770  -29.8750   23.9710 C   0  0  0  0  0  3  0  0  0  0  0  0
  -17.7580  -30.3230   24.1740 C   0  0  0  0  0  3  0  0  0  0  0  0
  -16.6760  -29.5280   23.7590 C   0  0  0  0  0  3  0  0  0  0  0  0
  -16.9140  -28.2900   23.1330 C   0  0  0  0  0  3  0  0  0  0  0  0
  -25.9480  -32.5250   23.8070 C   0  0  0  0  0  3  0  0  0  0  0  0
  -26.5020  -31.7530   25.0670 C   0  0  1  0  0  0  0  0  0  0  0  0
  -25.4320  -31.4810   26.1500 C   0  0  0  0  0  1  0  0  0  0  0  0
  -27.1110  -30.3950   24.6490 C   0  0  0  0  0  1  0  0  0  0  0  0
  -27.6430  -32.5680   25.7200 C   0  0  0  0  0  1  0  0  0  0  0  0
  -25.6170  -33.9140   24.1500 N   0  0  0  0  0  0  0  0  0  0  0  0
  -25.9230  -34.9770   23.3940 C   0  0  0  0  0  0  0  0  0  0  0  0
  -26.5860  -34.8930   22.3570 O   0  0  0  0  0  0  0  0  0  0  0  0
  -25.0290  -34.0530   24.9590 H   0  0  0  0  0  0  0  0  0  0  0  0
  -24.1600  -36.7390   23.0650 C   0  0  0  0  0  1  0  0  0  0  0  0
  -25.4130  -36.3520   23.8650 C   0  0  0  0  0  3  0  0  0  0  0  0
  -27.5360  -37.2750   24.6880 C   0  0  0  0  0  1  0  0  0  0  0  0
  -26.4260  -37.4250   23.7510 N   0  0  0  0  0  0  0  0  0  0  0  0
  -26.0030  -38.3360   23.9060 H   0  0  0  0  0  0  0  0  0  0  0  0
  1  3  2  0
  2  1  1  0
  2 48  1  0
  4  2  1  0
  5  1  1  0
  6 19  1  0
  7 12  1  0
  8  9  1  0
  8  7  1  0
 10  9  1  0
 10 23  1  0
 10 11  1  0
 12  6  1  0
 12 11  1  0
 13  6  2  0
 14 18  1  0
 16 14  1  0
 16 19  1  0
 17 15  1  0
 18  5  1  0
 18 15  1  0
 19 17  1  0
 20 21  2  0
 21 40  1  0
 22 21  1  0
 22 25  1  0
 23 20  1  0
 23 24  1  0
 24 22  2  0
 25 26  1  0
 26 27  2  0
 28 31  1  0
 28 27  1  0
 29 28  2  0
 30 29  1  0
 30 25  2  0
 31 32  1  0
 32 37  2  0
 32 33  1  0
 33 34  2  0
 34 35  1  0
 35 39  1  0
 36 35  2  0
 37 36  1  0
 38 37  1  0
 40 41  1  0
 41 44  1  0
 41 43  1  0
 42 40  2  0
 45 46  1  0
 45 20  1  0
 47 45  1  0
 49 50  1  0
 49 48  1  0
 51 53  1  0
 51 50  1  0
 52 63  2  0
 53 58  1  0
 54 62  1  0
 54 64  1  0
 55 61  1  0
 55 57  1  0
 56 62  1  0
 57 56  1  0
 58 57  2  0
 59 60  1  0
 59 53  2  0
 60 55  2  0
 61 54  1  0
 62 52  1  0
 64 66  2  0
 65 64  1  0
 67 65  1  0
 68 77  2  0
 68 73  1  0
 69 65  1  0
 69 73  1  0
 70 69  1  0
 71 72  1  0
 71 70  1  0
 72 68  1  0
 73 74  2  0
 74 75  1  0
 76 75  2  0
 77 76  1  0
 78 52  1  0
 78 83  1  0
 78 79  1  0
 79 82  1  1
 79 80  1  0
 81 79  1  0
 83 86  1  0
 84 88  1  0
 84 83  1  0
 85 84  2  0
 88 87  1  0
 90 88  1  0
 90 91  1  0
 90 89  1  0
M  ISO  4   6 100  19 100  50 101  51 101
M  END
>  <TORSDO>  (61) 
F 20

>  <SCORE>  (61) 
-12.288

>  <name>  (61) 
61

>  <ligand_id>  (61) 
61

>  <original_smiles>  (61) 
[H]c1c([H])c([H])c2c(c1[H])C([H])([H])C([H])([H])C([H])([H])C2([H])N([H])C(=O)C1([H])N(C(=O)C([H])(N([H])C(=O)C([H])(N([H])C([H])([H])[H])C([H])([H])[H])C(C([H])([H])[H])(C([H])([H])[H])C([H])([H])[H])C([H])([H])c2c([H])c(OC([H])([H])C([H])([H])C([H])([H])N([H])C(=O)C([H])([H])C3([H])C([H])([H])C([H])([H])N(C(=O)N4C([H])([H])C([H])([H])C([H])([H])C([H])(n5nc(-c6c([H])c([H])c(Oc7c([H])c([H])c(F)c([H])c7F)c([H])c6[H])c(C(=O)N([H])[H])c5N([H])[H])C4([H])[H])C([H])([H])C3([H])[H])c([H])c([H])c2C1([H])[H]

>  <smiles>  (61) 
[H]c1c([H])c([H])c2c(c1[H])C([H])([H])C([H])([H])C([H])([H])C2([H])N([H])C(=O)C1([H])N(C(=O)C([H])(N([H])C(=O)C([H])(N([H])C([H])([H])[H])C([H])([H])[H])C(C([H])([H])[H])(C([H])([H])[H])C([H])([H])[H])C([H])([H])c2c([H])c(OC([H])([H])C([H])([H])C([H])([H])N([H])C(=O)C([H])([H])C3([H])C([H])([H])C([H])([H])N(C(=O)N4C([H])([H])C([H])([H])C([H])([H])C([H])(n5nc(-c6c([H])c([H])c(Oc7c([H])c([H])c(F)c([H])c7F)c([H])c6[H])c(C(=O)N([H])[H])c5N([H])[H])C4([H])[H])C([H])([H])C3([H])[H])c([H])c([H])c2C1([H])[H]

$$$$
62:0:0
     RDKit          3D

 96104  0  0  1  0  0  0  0  0999 V2000
  -28.0310  -20.9300   17.9690 C   0  0  0  0  0  0  0  0  0  0  0  0
  -29.2320  -21.0600   17.7010 O   0  0  0  0  0  0  0  0  0  0  0  0
  -27.3510  -19.5690   17.8490 C   0  0  0  0  0  2  0  0  0  0  0  0
  -27.6530  -18.9100   20.3050 C   0  0  0  0  0  3  0  0  0  0  0  0
  -28.3860  -18.2110   21.2860 C   0  0  0  0  0  3  0  0  0  0  0  0
  -28.8230  -17.6730   18.5630 C   0  0  0  0  0  3  0  0  0  0  0  0
  -27.9080  -18.6670   18.9400 C   0  0  0  0  0  0  0  0  0  0  0  0
  -29.6020  -17.0110   19.5360 C   0  0  0  0  0  0  0  0  0  0  0  0
  -29.3720  -17.2890   20.9030 C   0  0  0  0  0  0  0  0  0  0  0  0
  -30.1200  -16.6800   21.8530 F   0  0  0  0  0  0  0  0  0  0  0  0
  -30.7090  -16.0740   19.0990 C   0  0  0  0  0  2  0  0  0  0  0  0
  -31.3730  -13.7540   19.5250 C   0  0  0  0  0  0  0  0  0  0  0  0
  -30.9850  -11.4060   18.9740 C   0  0  0  0  0  2  0  0  0  0  0  0
  -29.9290  -11.3460   17.8520 C   0  0  0  0  0  2  0  0  0  0  0  0
  -28.5110  -11.3220   18.4520 C   0  0  0  0  0  2  0  0  0  0  0  0
  -28.2850  -12.4450   19.5000 C   0  0  0  0  0  3  0  0  0  0  0  0
  -29.4410  -12.4900   20.5290 C   0  0  0  0  0  2  0  0  0  0  0  0
  -30.7190  -12.6000   19.7860 N   0  0  0  0  0  0  0  0  0  0  0  0
  -32.4190  -13.8410   18.8700 O   0  0  0  0  0  0  0  0  0  0  0  0
  -30.6700  -14.8310   19.8420 N   0  0  0  0  0  0  0  0  0  0  0  0
  -29.8780  -14.6850   20.4470 H   0  0  0  0  0  0  0  0  0  0  0  0
  -26.1140  -13.2960   20.6000 C   0  0  0  0  0  0  0  0  0  0  0  0
  -25.0190  -12.6330   21.0730 C   0  0  0  0  0  0  0  0  0  0  0  0
  -25.2850  -11.2400   20.8950 C   0  0  0  0  0  0  0  0  0  0  0  0
  -26.9900  -12.3140   20.1590 N   0  0  0  0  0  0  0  0  0  0  0  0
  -26.5010  -11.0680   20.3930 N   0  0  0  0  0  0  0  0  0  0  0  0
  -24.4320  -10.0710   21.1080 C   0  0  0  0  0  0  0  0  0  0  0  0
  -24.7970   -9.0600   22.0200 C   0  0  0  0  0  3  0  0  0  0  0  0
  -23.9530   -7.9490   22.2310 C   0  0  0  0  0  3  0  0  0  0  0  0
  -22.7320   -7.8460   21.5230 C   0  0  0  0  0  0  0  0  0  0  0  0
  -22.3850   -8.8450   20.5980 C   0  0  0  0  0  3  0  0  0  0  0  0
  -23.2280   -9.9470   20.3870 C   0  0  0  0  0  3  0  0  0  0  0  0
  -21.8600   -6.7890   21.6390 O   0  0  0  0  0  0  0  0  0  0  0  0
  -21.7220   -6.0960   22.8140 C   0  0  0  0  0  0  0  0  0  0  0  0
  -21.2720   -6.7200   24.0000 C   0  0  0  0  0  3  0  0  0  0  0  0
  -21.0730   -5.9550   25.1650 C   0  0  0  0  0  3  0  0  0  0  0  0
  -21.3150   -4.5670   25.1480 C   0  0  0  0  0  0  0  0  0  0  0  0
  -21.7570   -3.9450   23.9670 C   0  0  0  0  0  3  0  0  0  0  0  0
  -21.9540   -4.7050   22.8030 C   0  0  0  0  0  0  0  0  0  0  0  0
  -22.3580   -4.0980   21.6610 F   0  0  0  0  0  0  0  0  0  0  0  0
  -21.1170   -3.8310   26.2650 F   0  0  0  0  0  0  0  0  0  0  0  0
  -23.7510  -13.2550   21.5820 C   0  0  0  0  0  0  0  0  0  0  0  0
  -23.0890  -12.6050   22.5310 N   0  0  0  0  0  0  0  0  0  0  0  0
  -23.3660  -14.3520   21.1780 O   0  0  0  0  0  0  0  0  0  0  0  0
  -23.4210  -11.7180   22.8800 H   0  0  0  0  0  0  0  0  0  0  0  0
  -22.2410  -13.0050   22.9120 H   0  0  0  0  0  0  0  0  0  0  0  0
  -26.4260  -14.6490   20.4920 N   0  0  0  0  0  0  0  0  0  0  0  0
  -25.7480  -15.3460   20.7750 H   0  0  0  0  0  0  0  0  0  0  0  0
  -27.2760  -15.0490   20.1210 H   0  0  0  0  0  0  0  0  0  0  0  0
  -27.2390  -22.1190   18.5080 C   0  0  0  0  0  2  0  0  0  0  0  0
  -28.2510  -22.9860   19.1450 N   0  0  0  0  0  4  0  0  0  0  0  0
  -29.1050  -22.6000   18.7790 H   0  0  0  0  0  0  0  0  0  0  0  0
  -28.2620  -22.7860   20.1330 H   0  0  0  0  0  0  0  0  0  0  0  0
  -28.2100  -24.4400   18.8640 C   0  0  0  0  0  2  0  0  0  0  0  0
  -28.0900  -25.2590   20.1650 C   0  0  0  0  0  2  0  0  0  0  0  0
  -28.2020  -26.6730   19.9620 O   0  0  0  0  0  0  0  0  0  0  0  0
  -24.4800  -31.8200   23.1760 C   0  0  0  0  0  0  0  0  0  0  0  0
  -27.0340  -27.4020   19.9940 C   0  0  0  0  0  0  0  0  0  0  0  0
  -23.2330  -30.4380   21.5420 C   0  0  0  0  0  3  0  0  0  0  0  0
  -24.6520  -28.9110   20.0810 C   0  0  0  0  0  0  0  0  0  0  0  0
  -25.7550  -30.7930   21.2970 C   0  0  0  0  0  2  0  0  0  0  0  0
  -25.8260  -29.4330   20.6350 C   0  0  0  0  0  0  0  0  0  0  0  0
  -27.0260  -28.6890   20.5800 C   0  0  0  0  0  3  0  0  0  0  0  0
  -25.8330  -26.8880   19.4500 C   0  0  0  0  0  3  0  0  0  0  0  0
  -24.6480  -27.6390   19.4880 C   0  0  0  0  0  3  0  0  0  0  0  0
  -23.4220  -29.7810   20.1490 C   0  0  0  0  0  2  0  0  0  0  0  0
  -24.5080  -31.0310   22.0640 N   0  0  0  0  0  0  0  0  0  0  0  0
  -23.4140  -32.0960   23.7390 O   0  0  0  0  0  0  0  0  0  0  0  0
  -22.5930  -29.4180   22.5070 C   0  0  0  0  0  0  0  0  0  0  0  0
  -21.2640  -29.2570   22.4120 N   0  0  0  0  0  0  0  0  0  0  0  0
  -23.2830  -28.7890   23.3120 O   0  0  0  0  0  0  0  0  0  0  0  0
  -20.7860  -29.7520   21.6770 H   0  0  0  0  0  0  0  0  0  0  0  0
  -17.8750  -28.1430   22.9620 C   0  0  0  0  0  0  0  0  0  0  0  0
  -20.4390  -28.3550   23.2090 C   0  0  0  0  0  3  0  0  0  0  0  0
  -20.4820  -26.9350   22.6080 C   0  0  0  0  0  2  0  0  0  0  0  0
  -19.3890  -26.7420   21.5530 C   0  0  0  0  0  2  0  0  0  0  0  0
  -18.0320  -26.8110   22.2420 C   0  0  0  0  0  2  0  0  0  0  0  0
  -19.0120  -28.8870   23.3900 C   0  0  0  0  0  0  0  0  0  0  0  0
  -18.8160  -30.1420   24.0130 C   0  0  0  0  0  3  0  0  0  0  0  0
  -17.5150  -30.6410   24.2160 C   0  0  0  0  0  3  0  0  0  0  0  0
  -16.3990  -29.8980   23.8010 C   0  0  0  0  0  3  0  0  0  0  0  0
  -16.5790  -28.6560   23.1700 C   0  0  0  0  0  3  0  0  0  0  0  0
  -25.7850  -32.4330   23.7780 C   0  0  0  0  0  3  0  0  0  0  0  0
  -25.4930  -33.8300   24.1300 N   0  0  0  0  0  0  0  0  0  0  0  0
  -25.8410  -34.8890   23.3900 C   0  0  0  0  0  0  0  0  0  0  0  0
  -26.5010  -34.7860   22.3520 O   0  0  0  0  0  0  0  0  0  0  0  0
  -24.9170  -33.9780   24.9430 H   0  0  0  0  0  0  0  0  0  0  0  0
  -24.1350  -36.7080   23.0700 C   0  0  0  0  0  1  0  0  0  0  0  0
  -25.3760  -36.2760   23.8690 C   0  0  0  0  0  3  0  0  0  0  0  0
  -27.5220  -37.1300   24.6970 C   0  0  0  0  0  1  0  0  0  0  0  0
  -26.4170  -37.3190   23.7620 N   0  0  0  0  0  0  0  0  0  0  0  0
  -26.0250  -38.2450   23.9130 H   0  0  0  0  0  0  0  0  0  0  0  0
  -26.3180  -31.6420   25.0350 C   0  0  1  0  0  0  0  0  0  0  0  0
  -25.2440  -31.3950   26.1190 C   0  0  0  0  0  1  0  0  0  0  0  0
  -26.8880  -30.2680   24.6110 C   0  0  0  0  0  1  0  0  0  0  0  0
  -27.4820  -32.4170   25.6930 C   0  0  0  0  0  1  0  0  0  0  0  0
  1 50  1  0
  2  1  2  0
  3  1  1  0
  3  7  1  0
  4  5  1  0
  6  7  1  0
  6  8  2  0
  7  4  2  0
  8  9  1  0
  9  5  2  0
  9 10  1  0
 11  8  1  0
 11 20  1  0
 12 18  1  0
 12 20  1  0
 13 18  1  0
 14 15  1  0
 14 13  1  0
 16 15  1  0
 16 25  1  0
 16 17  1  0
 18 17  1  0
 19 12  2  0
 20 21  1  0
 22 23  2  0
 23 42  1  0
 24 23  1  0
 24 27  1  0
 25 26  1  0
 25 22  1  0
 26 24  2  0
 27 28  1  0
 28 29  2  0
 30 33  1  0
 30 29  1  0
 31 30  2  0
 32 31  1  0
 32 27  2  0
 33 34  1  0
 34 35  1  0
 35 36  2  0
 37 36  1  0
 37 41  1  0
 38 37  2  0
 39 34  2  0
 39 38  1  0
 40 39  1  0
 42 43  1  0
 43 45  1  0
 43 46  1  0
 44 42  2  0
 47 22  1  0
 47 48  1  0
 49 47  1  0
 50 51  1  0
 51 53  1  0
 52 51  1  0
 54 51  1  0
 54 55  1  0
 56 58  1  0
 56 55  1  0
 57 68  2  0
 58 63  1  0
 59 67  1  0
 59 69  1  0
 60 66  1  0
 60 62  1  0
 61 67  1  0
 62 61  1  0
 63 62  2  0
 64 65  1  0
 64 58  2  0
 65 60  2  0
 66 59  1  0
 67 57  1  0
 69 71  2  0
 70 69  1  0
 72 70  1  0
 73 82  2  0
 73 78  1  0
 74 70  1  0
 74 78  1  0
 75 74  1  0
 76 77  1  0
 76 75  1  0
 77 73  1  0
 78 79  2  0
 79 80  1  0
 81 80  2  0
 82 81  1  0
 83 57  1  0
 83 84  1  0
 83 93  1  0
 84 87  1  0
 85 89  1  0
 85 84  1  0
 86 85  2  0
 89 88  1  0
 91 89  1  0
 91 92  1  0
 91 90  1  0
 93 96  1  1
 93 94  1  0
 95 93  1  0
M  ISO  4  12 100  20 100  55 101  56 101
M  END
>  <TORSDO>  (62) 
F 23

>  <SCORE>  (62) 
-10.861

>  <name>  (62) 
62

>  <ligand_id>  (62) 
62

>  <original_smiles>  (62) 
[H]c1c([H])c([H])c2c(c1[H])C([H])([H])C([H])([H])C([H])([H])C2([H])N([H])C(=O)C1([H])N(C(=O)C([H])(N([H])C(=O)C([H])(N([H])C([H])([H])[H])C([H])([H])[H])C(C([H])([H])[H])(C([H])([H])[H])C([H])([H])[H])C([H])([H])c2c([H])c(OC([H])([H])C([H])([H])[N+]([H])([H])C([H])([H])C(=O)C([H])([H])c3c([H])c([H])c(F)c(C([H])([H])N([H])C(=O)N4C([H])([H])C([H])([H])C([H])([H])C([H])(n5nc(-c6c([H])c([H])c(Oc7c([H])c([H])c(F)c([H])c7F)c([H])c6[H])c(C(=O)N([H])[H])c5N([H])[H])C4([H])[H])c3[H])c([H])c([H])c2C1([H])[H]

>  <smiles>  (62) 
[H]c1c([H])c([H])c2c(c1[H])C([H])([H])C([H])([H])C([H])([H])C2([H])N([H])C(=O)C1([H])N(C(=O)C([H])(N([H])C(=O)C([H])(N([H])C([H])([H])[H])C([H])([H])[H])C(C([H])([H])[H])(C([H])([H])[H])C([H])([H])[H])C([H])([H])c2c([H])c(OC([H])([H])C([H])([H])[N+]([H])([H])C([H])([H])C(=O)C([H])([H])c3c([H])c([H])c(F)c(C([H])([H])N([H])C(=O)N4C([H])([H])C([H])([H])C([H])([H])C([H])(n5nc(-c6c([H])c([H])c(Oc7c([H])c([H])c(F)c([H])c7F)c([H])c6[H])c(C(=O)N([H])[H])c5N([H])[H])C4([H])[H])c3[H])c([H])c([H])c2C1([H])[H]

$$$$
63:0:0
     RDKit          3D

 96104  0  0  1  0  0  0  0  0999 V2000
  -30.2210  -19.2500   22.9510 C   0  0  0  0  0  3  0  0  0  0  0  0
  -31.0240  -19.4100   20.6550 C   0  0  0  0  0  3  0  0  0  0  0  0
  -30.5170  -18.6340   21.7180 C   0  0  0  0  0  0  0  0  0  0  0  0
  -30.8600  -21.4220   22.0410 C   0  0  0  0  0  0  0  0  0  0  0  0
  -30.3890  -20.6370   23.1120 C   0  0  0  0  0  0  0  0  0  0  0  0
  -31.2010  -20.7990   20.8190 C   0  0  0  0  0  0  0  0  0  0  0  0
  -30.0640  -21.2190   24.2920 F   0  0  0  0  0  0  0  0  0  0  0  0
  -31.6630  -21.5400   19.7840 F   0  0  0  0  0  0  0  0  0  0  0  0
  -30.2380  -17.1540   21.5370 C   0  0  0  0  0  2  0  0  0  0  0  0
  -31.4910  -16.2720   21.6760 C   0  0  0  0  0  2  0  0  0  0  0  0
  -31.5470  -14.0980   20.4070 C   0  0  0  0  0  0  0  0  0  0  0  0
  -31.0270  -12.0230   19.1710 C   0  0  0  0  0  2  0  0  0  0  0  0
  -30.0260  -12.2950   18.0310 C   0  0  0  0  0  2  0  0  0  0  0  0
  -28.5760  -12.2460   18.5470 C   0  0  0  0  0  2  0  0  0  0  0  0
  -28.3680  -13.1130   19.8160 C   0  0  0  0  0  3  0  0  0  0  0  0
  -29.4520  -12.7760   20.8620 C   0  0  0  0  0  2  0  0  0  0  0  0
  -30.7790  -12.9920   20.2460 N   0  0  0  0  0  0  0  0  0  0  0  0
  -32.5330  -14.3630   19.7120 O   0  0  0  0  0  0  0  0  0  0  0  0
  -31.1290  -14.8880   21.4010 N   0  0  0  0  0  0  0  0  0  0  0  0
  -30.3620  -14.5160   21.9390 H   0  0  0  0  0  0  0  0  0  0  0  0
  -26.1160  -13.9110   20.7840 C   0  0  0  0  0  0  0  0  0  0  0  0
  -24.9840  -13.2280   21.1380 C   0  0  0  0  0  0  0  0  0  0  0  0
  -25.2620  -11.8480   20.8960 C   0  0  0  0  0  0  0  0  0  0  0  0
  -27.0220  -12.9500   20.3600 N   0  0  0  0  0  0  0  0  0  0  0  0
  -26.5110  -11.6980   20.4780 N   0  0  0  0  0  0  0  0  0  0  0  0
  -24.3950  -10.6660   20.9830 C   0  0  0  0  0  0  0  0  0  0  0  0
  -24.7300   -9.5610   21.7960 C   0  0  0  0  0  3  0  0  0  0  0  0
  -23.8690   -8.4450   21.8760 C   0  0  0  0  0  3  0  0  0  0  0  0
  -22.6600   -8.4270   21.1430 C   0  0  0  0  0  0  0  0  0  0  0  0
  -22.3410   -9.5200   20.3190 C   0  0  0  0  0  3  0  0  0  0  0  0
  -23.2010  -10.6280   20.2340 C   0  0  0  0  0  3  0  0  0  0  0  0
  -21.7770   -7.3740   21.1410 O   0  0  0  0  0  0  0  0  0  0  0  0
  -21.6280   -6.5590   22.2340 C   0  0  0  0  0  0  0  0  0  0  0  0
  -21.2180   -7.0600   23.4880 C   0  0  0  0  0  3  0  0  0  0  0  0
  -21.0070   -6.1770   24.5640 C   0  0  0  0  0  3  0  0  0  0  0  0
  -21.1970   -4.7930   24.3890 C   0  0  0  0  0  0  0  0  0  0  0  0
  -21.5990   -4.2910   23.1390 C   0  0  0  0  0  3  0  0  0  0  0  0
  -21.8110   -5.1710   22.0640 C   0  0  0  0  0  0  0  0  0  0  0  0
  -22.1790   -4.6800   20.8560 F   0  0  0  0  0  0  0  0  0  0  0  0
  -20.9860   -3.9430   25.4210 F   0  0  0  0  0  0  0  0  0  0  0  0
  -23.6830  -13.8230   21.5900 C   0  0  0  0  0  0  0  0  0  0  0  0
  -22.9430  -13.1140   22.4360 N   0  0  0  0  0  0  0  0  0  0  0  0
  -23.3370  -14.9500   21.2340 O   0  0  0  0  0  0  0  0  0  0  0  0
  -23.2350  -12.1990   22.7430 H   0  0  0  0  0  0  0  0  0  0  0  0
  -22.0740  -13.4940   22.7830 H   0  0  0  0  0  0  0  0  0  0  0  0
  -26.4440  -15.2640   20.7710 N   0  0  0  0  0  0  0  0  0  0  0  0
  -25.7740  -15.9840   21.0190 H   0  0  0  0  0  0  0  0  0  0  0  0
  -27.3200  -15.6400   20.4280 H   0  0  0  0  0  0  0  0  0  0  0  0
  -30.9740  -22.9300   22.2070 C   0  0  0  0  0  2  0  0  0  0  0  0
  -29.6510  -23.5970   22.2010 N   0  0  0  0  0  4  0  0  0  0  0  0
  -29.7200  -24.4590   22.7160 H   0  0  0  0  0  0  0  0  0  0  0  0
  -29.0080  -23.0110   22.7110 H   0  0  0  0  0  0  0  0  0  0  0  0
  -29.0700  -23.8790   20.8670 C   0  0  0  0  0  2  0  0  0  0  0  0
  -29.4470  -25.2710   20.3300 C   0  0  0  0  0  2  0  0  0  0  0  0
  -28.9430  -25.5100   18.8960 C   0  0  0  0  0  2  0  0  0  0  0  0
  -28.7260  -26.9040   18.6780 O   0  0  0  0  0  0  0  0  0  0  0  0
  -24.8050  -30.8060   23.1390 C   0  0  0  0  0  0  0  0  0  0  0  0
  -27.4750  -27.4050   18.9650 C   0  0  0  0  0  0  0  0  0  0  0  0
  -23.5450  -29.5890   21.3930 C   0  0  0  0  0  3  0  0  0  0  0  0
  -24.9520  -28.5370   19.5470 C   0  0  0  0  0  0  0  0  0  0  0  0
  -25.9700  -30.3010   20.9970 C   0  0  0  0  0  2  0  0  0  0  0  0
  -26.1130  -29.0950   20.0950 C   0  0  0  0  0  0  0  0  0  0  0  0
  -27.3760  -28.5360   19.8030 C   0  0  0  0  0  3  0  0  0  0  0  0
  -26.2920  -26.8530   18.4200 C   0  0  0  0  0  3  0  0  0  0  0  0
  -25.0360  -27.4120   18.7110 C   0  0  0  0  0  3  0  0  0  0  0  0
  -23.6420  -29.2050   19.8930 C   0  0  0  0  0  2  0  0  0  0  0  0
  -24.7980  -30.2370   21.9010 N   0  0  0  0  0  0  0  0  0  0  0  0
  -23.7820  -30.8350   23.8360 O   0  0  0  0  0  0  0  0  0  0  0  0
  -23.1380  -28.3330   22.1950 C   0  0  0  0  0  0  0  0  0  0  0  0
  -21.9040  -27.8560   21.9690 N   0  0  0  0  0  0  0  0  0  0  0  0
  -23.9300  -27.7950   22.9730 O   0  0  0  0  0  0  0  0  0  0  0  0
  -21.3140  -28.3600   21.3220 H   0  0  0  0  0  0  0  0  0  0  0  0
  -19.0510  -25.6430   21.8660 C   0  0  0  0  0  0  0  0  0  0  0  0
  -21.3150  -26.6640   22.5780 C   0  0  0  0  0  3  0  0  0  0  0  0
  -21.9590  -25.3750   22.0150 C   0  0  0  0  0  2  0  0  0  0  0  0
  -21.1950  -24.7910   20.8240 C   0  0  0  0  0  2  0  0  0  0  0  0
  -19.7530  -24.4580   21.2210 C   0  0  0  0  0  2  0  0  0  0  0  0
  -19.7870  -26.6860   22.4880 C   0  0  0  0  0  0  0  0  0  0  0  0
  -19.0870  -27.7810   23.0420 C   0  0  0  0  0  3  0  0  0  0  0  0
  -17.6830  -27.8410   22.9830 C   0  0  0  0  0  3  0  0  0  0  0  0
  -16.9590  -26.7980   22.3790 C   0  0  0  0  0  3  0  0  0  0  0  0
  -17.6440  -25.7000   21.8260 C   0  0  0  0  0  3  0  0  0  0  0  0
  -26.0910  -31.4670   23.7280 C   0  0  0  0  0  3  0  0  0  0  0  0
  -25.7310  -32.8210   24.1680 N   0  0  0  0  0  0  0  0  0  0  0  0
  -26.0620  -33.9450   23.5170 C   0  0  0  0  0  0  0  0  0  0  0  0
  -26.7770  -33.9500   22.5100 O   0  0  0  0  0  0  0  0  0  0  0  0
  -25.1020  -32.8890   24.9540 H   0  0  0  0  0  0  0  0  0  0  0  0
  -24.3130  -35.7290   23.2270 C   0  0  0  0  0  1  0  0  0  0  0  0
  -25.5140  -35.2740   24.0710 C   0  0  0  0  0  3  0  0  0  0  0  0
  -27.5760  -36.1180   25.1050 C   0  0  0  0  0  1  0  0  0  0  0  0
  -26.5250  -36.3530   24.1190 N   0  0  0  0  0  0  0  0  0  0  0  0
  -26.0870  -37.2460   24.3280 H   0  0  0  0  0  0  0  0  0  0  0  0
  -26.7260  -30.6390   24.9120 C   0  0  1  0  0  0  0  0  0  0  0  0
  -25.7200  -30.2820   26.0290 C   0  0  0  0  0  1  0  0  0  0  0  0
  -27.3380  -29.3170   24.3900 C   0  0  0  0  0  1  0  0  0  0  0  0
  -27.8840  -31.4440   25.5480 C   0  0  0  0  0  1  0  0  0  0  0  0
  1  5  1  0
  2  6  2  0
  2  3  1  0
  3  1  2  0
  4 49  1  0
  4  5  2  0
  5  7  1  0
  6  4  1  0
  8  6  1  0
  9 10  1  0
  9  3  1  0
 11 19  1  0
 12 17  1  0
 13 14  1  0
 13 12  1  0
 15 14  1  0
 15 24  1  0
 15 16  1  0
 17 11  1  0
 17 16  1  0
 18 11  2  0
 19 10  1  0
 19 20  1  0
 21 22  2  0
 22 41  1  0
 23 26  1  0
 23 22  1  0
 24 25  1  0
 24 21  1  0
 25 23  2  0
 26 27  1  0
 27 28  2  0
 29 28  1  0
 30 29  2  0
 31 30  1  0
 31 26  2  0
 32 29  1  0
 32 33  1  0
 33 34  1  0
 34 35  2  0
 36 35  1  0
 36 40  1  0
 37 36  2  0
 38 33  2  0
 38 37  1  0
 39 38  1  0
 41 42  1  0
 42 44  1  0
 42 45  1  0
 43 41  2  0
 46 21  1  0
 46 47  1  0
 48 46  1  0
 50 49  1  0
 50 52  1  0
 50 51  1  0
 53 50  1  0
 54 53  1  0
 55 54  1  0
 56 55  1  0
 56 58  1  0
 57 68  2  0
 58 63  1  0
 59 67  1  0
 59 69  1  0
 60 66  1  0
 60 62  1  0
 61 67  1  0
 62 61  1  0
 63 62  2  0
 64 65  1  0
 64 58  2  0
 65 60  2  0
 66 59  1  0
 67 57  1  0
 69 71  2  0
 70 69  1  0
 72 70  1  0
 73 78  1  0
 74 70  1  0
 75 74  1  0
 76 77  1  0
 76 75  1  0
 77 73  1  0
 78 74  1  0
 78 79  2  0
 80 79  1  0
 81 80  2  0
 82 73  2  0
 82 81  1  0
 83 57  1  0
 83 84  1  0
 83 93  1  0
 84 87  1  0
 85 89  1  0
 85 84  1  0
 86 85  2  0
 89 88  1  0
 89 91  1  0
 91 92  1  0
 91 90  1  0
 93 96  1  1
 93 94  1  0
 95 93  1  0
M  ISO  4  11 100  19 100  55 101  56 101
M  END
>  <TORSDO>  (63) 
F 23

>  <SCORE>  (63) 
-8.534

>  <name>  (63) 
63

>  <ligand_id>  (63) 
63

>  <original_smiles>  (63) 
[H]c1c([H])c([H])c2c(c1[H])C([H])([H])C([H])([H])C([H])([H])C2([H])N([H])C(=O)C1([H])N(C(=O)C([H])(N([H])C(=O)C([H])(N([H])C([H])([H])[H])C([H])([H])[H])C(C([H])([H])[H])(C([H])([H])[H])C([H])([H])[H])C([H])([H])c2c([H])c(OC([H])([H])C([H])([H])C([H])([H])[N+]([H])([H])C([H])([H])c3c(F)c([H])c(C([H])([H])C([H])([H])N([H])C(=O)N4C([H])([H])C([H])([H])C([H])([H])C([H])(n5nc(-c6c([H])c([H])c(Oc7c([H])c([H])c(F)c([H])c7F)c([H])c6[H])c(C(=O)N([H])[H])c5N([H])[H])C4([H])[H])c([H])c3F)c([H])c([H])c2C1([H])[H]

>  <smiles>  (63) 
[H]c1c([H])c([H])c2c(c1[H])C([H])([H])C([H])([H])C([H])([H])C2([H])N([H])C(=O)C1([H])N(C(=O)C([H])(N([H])C(=O)C([H])(N([H])C([H])([H])[H])C([H])([H])[H])C(C([H])([H])[H])(C([H])([H])[H])C([H])([H])[H])C([H])([H])c2c([H])c(OC([H])([H])C([H])([H])C([H])([H])[N+]([H])([H])C([H])([H])c3c(F)c([H])c(C([H])([H])C([H])([H])N([H])C(=O)N4C([H])([H])C([H])([H])C([H])([H])C([H])(n5nc(-c6c([H])c([H])c(Oc7c([H])c([H])c(F)c([H])c7F)c([H])c6[H])c(C(=O)N([H])[H])c5N([H])[H])C4([H])[H])c([H])c3F)c([H])c([H])c2C1([H])[H]

$$$$
64:0:0
     RDKit          3D

 97105  0  0  1  0  0  0  0  0999 V2000
  -28.9840  -19.9410   17.7300 C   0  0  0  0  0  2  0  0  0  0  0  0
  -30.3740  -18.1520   16.6230 C   0  0  0  0  0  2  0  0  0  0  0  0
  -31.5570  -17.2110   16.8210 C   0  0  0  0  0  2  0  0  0  0  0  0
  -29.6340  -17.8010   19.0080 C   0  0  0  0  0  2  0  0  0  0  0  0
  -30.0430  -18.8490   17.9490 C   0  0  0  0  0  3  0  0  0  0  0  0
  -30.7200  -16.7240   19.2390 C   0  0  0  0  0  3  0  0  0  0  0  0
  -31.2480  -16.1410   17.8790 C   0  0  0  0  0  3  0  0  0  0  0  0
  -30.8570  -14.6470   20.6380 C   0  0  0  0  0  0  0  0  0  0  0  0
  -30.5800  -12.4480   19.6530 C   0  0  0  0  0  2  0  0  0  0  0  0
  -29.7080  -12.6180   18.3900 C   0  0  0  0  0  2  0  0  0  0  0  0
  -28.2120  -12.5330   18.7460 C   0  0  0  0  0  2  0  0  0  0  0  0
  -27.8090  -13.3990   19.9700 C   0  0  0  0  0  3  0  0  0  0  0  0
  -28.8190  -13.2600   21.1340 C   0  0  0  0  0  2  0  0  0  0  0  0
  -30.1690  -13.4860   20.6030 N   0  0  0  0  0  0  0  0  0  0  0  0
  -32.0810  -14.7240   20.5500 O   0  0  0  0  0  0  0  0  0  0  0  0
  -30.1580  -15.6620   20.1080 N   0  0  0  0  0  0  0  0  0  0  0  0
  -29.1590  -15.5400   20.0900 H   0  0  0  0  0  0  0  0  0  0  0  0
  -25.3740  -13.9780   20.5640 C   0  0  0  0  0  0  0  0  0  0  0  0
  -24.3000  -13.1910   20.8850 C   0  0  0  0  0  0  0  0  0  0  0  0
  -24.7840  -11.8480   20.8930 C   0  0  0  0  0  0  0  0  0  0  0  0
  -26.4420  -13.1110   20.3960 N   0  0  0  0  0  0  0  0  0  0  0  0
  -26.0890  -11.8260   20.6570 N   0  0  0  0  0  0  0  0  0  0  0  0
  -24.0710  -10.5750   21.0530 C   0  0  0  0  0  0  0  0  0  0  0  0
  -24.4590   -9.6260   22.0250 C   0  0  0  0  0  3  0  0  0  0  0  0
  -23.7440   -8.4180   22.1730 C   0  0  0  0  0  3  0  0  0  0  0  0
  -22.6270   -8.1490   21.3470 C   0  0  0  0  0  0  0  0  0  0  0  0
  -22.2590   -9.0870   20.3640 C   0  0  0  0  0  3  0  0  0  0  0  0
  -22.9750  -10.2850   20.2160 C   0  0  0  0  0  3  0  0  0  0  0  0
  -21.8890   -6.9900   21.4010 O   0  0  0  0  0  0  0  0  0  0  0  0
  -21.7560   -6.2760   22.5650 C   0  0  0  0  0  0  0  0  0  0  0  0
  -21.2070   -6.8500   23.7330 C   0  0  0  0  0  3  0  0  0  0  0  0
  -21.0250   -6.0620   24.8850 C   0  0  0  0  0  3  0  0  0  0  0  0
  -21.3790   -4.7000   24.8720 C   0  0  0  0  0  0  0  0  0  0  0  0
  -21.9210   -4.1250   23.7080 C   0  0  0  0  0  3  0  0  0  0  0  0
  -22.1060   -4.9110   22.5570 C   0  0  0  0  0  0  0  0  0  0  0  0
  -22.6080   -4.3470   21.4320 F   0  0  0  0  0  0  0  0  0  0  0  0
  -21.1970   -3.9390   25.9760 F   0  0  0  0  0  0  0  0  0  0  0  0
  -22.8820  -13.6470   21.0750 C   0  0  0  0  0  0  0  0  0  0  0  0
  -22.1190  -12.9490   21.9080 N   0  0  0  0  0  0  0  0  0  0  0  0
  -22.4570  -14.6580   20.5200 O   0  0  0  0  0  0  0  0  0  0  0  0
  -22.4740  -12.1290   22.3800 H   0  0  0  0  0  0  0  0  0  0  0  0
  -21.1660  -13.2370   22.0770 H   0  0  0  0  0  0  0  0  0  0  0  0
  -25.5260  -15.3500   20.3820 N   0  0  0  0  0  0  0  0  0  0  0  0
  -24.7410  -15.9880   20.4420 H   0  0  0  0  0  0  0  0  0  0  0  0
  -26.3860  -15.8080   20.1100 H   0  0  0  0  0  0  0  0  0  0  0  0
  -32.4370  -15.2920   18.0590 N   0  0  0  0  0  4  0  0  0  0  0  0
  -33.2760  -15.8380   17.9810 H   0  0  0  0  0  0  0  0  0  0  0  0
  -32.4720  -14.5510   17.3810 H   0  0  0  0  0  0  0  0  0  0  0  0
  -32.4180  -14.9080   19.0010 H   0  0  0  0  0  0  0  0  0  0  0  0
  -28.9970  -20.9220   18.8290 N   0  0  0  0  0  4  0  0  0  0  0  0
  -29.9350  -20.9810   19.1920 H   0  0  0  0  0  0  0  0  0  0  0  0
  -28.3960  -20.5970   19.5690 H   0  0  0  0  0  0  0  0  0  0  0  0
  -28.5940  -22.2750   18.4150 C   0  0  0  0  0  2  0  0  0  0  0  0
  -28.5760  -23.2300   19.6100 C   0  0  0  0  0  2  0  0  0  0  0  0
  -28.3590  -24.6820   19.1760 C   0  0  0  0  0  2  0  0  0  0  0  0
  -28.2120  -25.6000   20.3920 C   0  0  0  0  0  2  0  0  0  0  0  0
  -28.2090  -26.9610   19.9930 O   0  0  0  0  0  0  0  0  0  0  0  0
  -24.4960  -32.0040   23.2860 C   0  0  0  0  0  0  0  0  0  0  0  0
  -27.0100  -27.6260   20.0570 C   0  0  0  0  0  0  0  0  0  0  0  0
  -23.2220  -30.6330   21.6680 C   0  0  0  0  0  3  0  0  0  0  0  0
  -24.6140  -29.1060   20.1760 C   0  0  0  0  0  0  0  0  0  0  0  0
  -25.7350  -30.9950   21.3770 C   0  0  0  0  0  2  0  0  0  0  0  0
  -25.7910  -29.6330   20.7210 C   0  0  0  0  0  0  0  0  0  0  0  0
  -26.9930  -28.9040   20.6510 C   0  0  0  0  0  3  0  0  0  0  0  0
  -25.8140  -27.0950   19.5240 C   0  0  0  0  0  3  0  0  0  0  0  0
  -24.6190  -27.8350   19.5740 C   0  0  0  0  0  3  0  0  0  0  0  0
  -23.3760  -29.9660   20.2740 C   0  0  0  0  0  2  0  0  0  0  0  0
  -24.5050  -31.2220   22.1700 N   0  0  0  0  0  0  0  0  0  0  0  0
  -23.4370  -32.2750   23.8680 O   0  0  0  0  0  0  0  0  0  0  0  0
  -22.6000  -29.6030   22.6360 C   0  0  0  0  0  0  0  0  0  0  0  0
  -21.2790  -29.3960   22.5180 N   0  0  0  0  0  0  0  0  0  0  0  0
  -23.3020  -28.9890   23.4440 O   0  0  0  0  0  0  0  0  0  0  0  0
  -20.7740  -29.9420   21.8340 H   0  0  0  0  0  0  0  0  0  0  0  0
  -17.9390  -28.1080   22.9970 C   0  0  0  0  0  0  0  0  0  0  0  0
  -20.4830  -28.4480   23.2970 C   0  0  0  0  0  3  0  0  0  0  0  0
  -20.6380  -27.0120   22.7460 C   0  0  0  0  0  2  0  0  0  0  0  0
  -19.5590  -26.6370   21.7250 C   0  0  0  0  0  2  0  0  0  0  0  0
  -18.1650  -26.7520   22.3500 C   0  0  0  0  0  2  0  0  0  0  0  0
  -19.0290  -28.9110   23.4280 C   0  0  0  0  0  0  0  0  0  0  0  0
  -18.7650  -30.1790   23.9910 C   0  0  0  0  0  3  0  0  0  0  0  0
  -17.4450  -30.6460   24.1280 C   0  0  0  0  0  3  0  0  0  0  0  0
  -16.3680  -29.8400   23.7170 C   0  0  0  0  0  3  0  0  0  0  0  0
  -16.6160  -28.5720   23.1580 C   0  0  0  0  0  3  0  0  0  0  0  0
  -25.8100  -32.6140   23.8690 C   0  0  0  0  0  3  0  0  0  0  0  0
  -25.5330  -34.0160   24.2080 N   0  0  0  0  0  0  0  0  0  0  0  0
  -25.8750  -35.0620   23.4440 C   0  0  0  0  0  0  0  0  0  0  0  0
  -26.5280  -34.9490   22.4030 O   0  0  0  0  0  0  0  0  0  0  0  0
  -24.9580  -34.1830   25.0200 H   0  0  0  0  0  0  0  0  0  0  0  0
  -24.1800  -36.8870   23.1010 C   0  0  0  0  0  1  0  0  0  0  0  0
  -25.4150  -36.4580   23.9080 C   0  0  0  0  0  3  0  0  0  0  0  0
  -27.5700  -37.2940   24.7350 C   0  0  0  0  0  1  0  0  0  0  0  0
  -26.4680  -37.4910   23.7970 N   0  0  0  0  0  0  0  0  0  0  0  0
  -26.0800  -38.4170   23.9530 H   0  0  0  0  0  0  0  0  0  0  0  0
  -26.3550  -31.8320   25.1250 C   0  0  1  0  0  0  0  0  0  0  0  0
  -25.2930  -31.6000   26.2250 C   0  0  0  0  0  1  0  0  0  0  0  0
  -26.9080  -30.4510   24.7040 C   0  0  0  0  0  1  0  0  0  0  0  0
  -27.5370  -32.6070   25.7550 C   0  0  0  0  0  1  0  0  0  0  0  0
  1 50  1  0
  2  3  1  0
  2  5  1  0
  3  7  1  0
  4  6  1  0
  5  1  1  0
  5  4  1  0
  6 16  1  0
  7 46  1  0
  7  6  1  0
  9 14  1  0
 10 11  1  0
 10  9  1  0
 12 11  1  0
 12 21  1  0
 12 13  1  0
 14  8  1  0
 14 13  1  0
 15  8  2  0
 16  8  1  0
 17 16  1  0
 18 19  2  0
 19 20  1  0
 19 38  1  0
 20 23  1  0
 21 18  1  0
 21 22  1  0
 22 20  2  0
 23 24  1  0
 24 25  2  0
 26 29  1  0
 26 25  1  0
 27 26  2  0
 28 27  1  0
 28 23  2  0
 29 30  1  0
 30 31  1  0
 31 32  2  0
 33 32  1  0
 33 37  1  0
 34 33  2  0
 35 30  2  0
 35 34  1  0
 36 35  1  0
 38 39  1  0
 39 42  1  0
 39 41  1  0
 40 38  2  0
 43 44  1  0
 43 18  1  0
 45 43  1  0
 46 49  1  0
 47 46  1  0
 48 46  1  0
 50 51  1  0
 50 52  1  0
 53 50  1  0
 53 54  1  0
 55 54  1  0
 55 56  1  0
 57 59  1  0
 57 56  1  0
 58 69  2  0
 59 64  1  0
 60 68  1  0
 60 70  1  0
 61 67  1  0
 61 63  1  0
 62 68  1  0
 63 62  1  0
 64 63  2  0
 65 66  1  0
 65 59  2  0
 66 61  2  0
 67 60  1  0
 68 58  1  0
 70 72  2  0
 71 70  1  0
 73 71  1  0
 74 83  2  0
 74 79  1  0
 75 71  1  0
 75 79  1  0
 76 75  1  0
 77 78  1  0
 77 76  1  0
 78 74  1  0
 79 80  2  0
 80 81  1  0
 82 81  2  0
 83 82  1  0
 84 58  1  0
 84 85  1  0
 84 94  1  0
 85 88  1  0
 86 90  1  0
 86 85  1  0
 87 86  2  0
 90 89  1  0
 92 90  1  0
 92 93  1  0
 92 91  1  0
 94 97  1  1
 94 95  1  0
 96 94  1  0
M  ISO  4   8 100  16 100  56 101  57 101
M  END
>  <TORSDO>  (64) 
F 23

>  <SCORE>  (64) 
-12.327

>  <name>  (64) 
64

>  <ligand_id>  (64) 
64

>  <original_smiles>  (64) 
[H]c1c([H])c([H])c2c(c1[H])C([H])([H])C([H])([H])C([H])([H])C2([H])N([H])C(=O)C1([H])N(C(=O)C([H])(N([H])C(=O)C([H])(N([H])C([H])([H])[H])C([H])([H])[H])C(C([H])([H])[H])(C([H])([H])[H])C([H])([H])[H])C([H])([H])c2c([H])c(OC([H])([H])C([H])([H])C([H])([H])C([H])([H])[N+]([H])([H])C([H])([H])C3([H])C([H])([H])C([H])([H])C([H])([N+]([H])([H])[H])C([H])(N([H])C(=O)N4C([H])([H])C([H])([H])C([H])([H])C([H])(n5nc(-c6c([H])c([H])c(Oc7c([H])c([H])c(F)c([H])c7F)c([H])c6[H])c(C(=O)N([H])[H])c5N([H])[H])C4([H])[H])C3([H])[H])c([H])c([H])c2C1([H])[H]

>  <smiles>  (64) 
[H]c1c([H])c([H])c2c(c1[H])C([H])([H])C([H])([H])C([H])([H])C2([H])N([H])C(=O)C1([H])N(C(=O)C([H])(N([H])C(=O)C([H])(N([H])C([H])([H])[H])C([H])([H])[H])C(C([H])([H])[H])(C([H])([H])[H])C([H])([H])[H])C([H])([H])c2c([H])c(OC([H])([H])C([H])([H])C([H])([H])C([H])([H])[N+]([H])([H])C([H])([H])C3([H])C([H])([H])C([H])([H])C([H])([N+]([H])([H])[H])C([H])(N([H])C(=O)N4C([H])([H])C([H])([H])C([H])([H])C([H])(n5nc(-c6c([H])c([H])c(Oc7c([H])c([H])c(F)c([H])c7F)c([H])c6[H])c(C(=O)N([H])[H])c5N([H])[H])C4([H])[H])C3([H])[H])c([H])c([H])c2C1([H])[H]

$$$$
65:0:0
     RDKit          3D

 95103  0  0  1  0  0  0  0  0999 V2000
  -29.7560  -21.9750   19.8990 N   0  0  0  0  0  4  0  0  0  0  0  0
  -30.4740  -22.3200   20.5180 H   0  0  0  0  0  0  0  0  0  0  0  0
  -28.9630  -21.7420   20.4730 H   0  0  0  0  0  0  0  0  0  0  0  0
  -30.2830  -20.7380   19.2820 C   0  0  0  0  0  2  0  0  0  0  0  0
  -29.2010  -19.6380   19.1850 C   0  0  0  0  0  2  0  0  0  0  0  0
  -29.9350  -17.6980   20.6860 C   0  0  0  0  0  0  0  0  0  0  0  0
  -29.7510  -18.2420   19.4610 C   0  0  0  0  0  3  0  0  0  0  0  0
  -29.7050  -18.4120   21.9980 C   0  0  0  0  0  2  0  0  0  0  0  0
  -31.2180  -16.4830   22.3370 C   0  0  0  0  0  2  0  0  0  0  0  0
  -30.4890  -16.3170   20.9910 C   0  0  0  0  0  3  0  0  0  0  0  0
  -30.6630  -17.7540   22.9970 C   0  0  0  0  0  3  0  0  0  0  0  0
  -30.0160  -17.4640   24.1280 F   0  0  0  0  0  0  0  0  0  0  0  0
  -31.9410  -14.6270   19.7130 C   0  0  0  0  0  0  0  0  0  0  0  0
  -31.3460  -12.5760   18.5020 C   0  0  0  0  0  2  0  0  0  0  0  0
  -30.3340  -12.9300   17.3930 C   0  0  0  0  0  2  0  0  0  0  0  0
  -28.8930  -12.8990   17.9400 C   0  0  0  0  0  2  0  0  0  0  0  0
  -28.7380  -13.6980   19.2640 C   0  0  0  0  0  3  0  0  0  0  0  0
  -29.8500  -13.2990   20.2620 C   0  0  0  0  0  2  0  0  0  0  0  0
  -31.1350  -13.5400   19.5950 N   0  0  0  0  0  0  0  0  0  0  0  0
  -33.0740  -14.6630   19.2310 O   0  0  0  0  0  0  0  0  0  0  0  0
  -31.3670  -15.8230   19.9260 N   0  0  0  0  0  0  0  0  0  0  0  0
  -31.9510  -16.5550   19.5540 H   0  0  0  0  0  0  0  0  0  0  0  0
  -26.4480  -14.4860   20.1400 C   0  0  0  0  0  0  0  0  0  0  0  0
  -25.3500  -13.7950   20.5750 C   0  0  0  0  0  0  0  0  0  0  0  0
  -25.6990  -12.4120   20.4980 C   0  0  0  0  0  0  0  0  0  0  0  0
  -27.4050  -13.5290   19.8330 N   0  0  0  0  0  0  0  0  0  0  0  0
  -26.9580  -12.2760   20.1020 N   0  0  0  0  0  0  0  0  0  0  0  0
  -24.8880  -11.2100   20.7200 C   0  0  0  0  0  0  0  0  0  0  0  0
  -25.2300  -10.2600   21.7080 C   0  0  0  0  0  3  0  0  0  0  0  0
  -24.4230   -9.1200   21.9150 C   0  0  0  0  0  3  0  0  0  0  0  0
  -23.2590   -8.9230   21.1360 C   0  0  0  0  0  0  0  0  0  0  0  0
  -22.9340   -9.8590   20.1380 C   0  0  0  0  0  3  0  0  0  0  0  0
  -23.7410  -10.9900   19.9290 C   0  0  0  0  0  3  0  0  0  0  0  0
  -22.4320   -7.8310   21.2510 O   0  0  0  0  0  0  0  0  0  0  0  0
  -22.1750   -7.2470   22.4650 C   0  0  0  0  0  0  0  0  0  0  0  0
  -21.6870   -7.9900   23.5610 C   0  0  0  0  0  3  0  0  0  0  0  0
  -21.3670   -7.3380   24.7690 C   0  0  0  0  0  3  0  0  0  0  0  0
  -21.5290   -5.9450   24.8810 C   0  0  0  0  0  0  0  0  0  0  0  0
  -22.0120   -5.2010   23.7910 C   0  0  0  0  0  3  0  0  0  0  0  0
  -22.3310   -5.8500   22.5840 C   0  0  0  0  0  0  0  0  0  0  0  0
  -22.7740   -5.1270   21.5280 F   0  0  0  0  0  0  0  0  0  0  0  0
  -21.2160   -5.3170   26.0380 F   0  0  0  0  0  0  0  0  0  0  0  0
  -24.0180  -14.3750   20.9520 C   0  0  0  0  0  0  0  0  0  0  0  0
  -23.3300  -13.7570   21.9060 N   0  0  0  0  0  0  0  0  0  0  0  0
  -23.6010  -15.4110   20.4350 O   0  0  0  0  0  0  0  0  0  0  0  0
  -23.6750  -12.9110   22.3350 H   0  0  0  0  0  0  0  0  0  0  0  0
  -22.4400  -14.1280   22.2080 H   0  0  0  0  0  0  0  0  0  0  0  0
  -26.7060  -15.8440   19.9630 N   0  0  0  0  0  0  0  0  0  0  0  0
  -25.9950  -16.5490   20.1130 H   0  0  0  0  0  0  0  0  0  0  0  0
  -27.5630  -16.2180   19.5730 H   0  0  0  0  0  0  0  0  0  0  0  0
  -29.3710  -23.0860   18.9940 C   0  0  0  0  0  2  0  0  0  0  0  0
  -28.7020  -24.2310   19.7960 C   0  0  0  0  0  3  0  0  0  0  0  0
  -27.4490  -23.8610   20.0760 F   0  0  0  0  0  0  0  0  0  0  0  0
  -28.6860  -25.6030   19.0890 C   0  0  0  0  0  2  0  0  0  0  0  0
  -28.4460  -26.6750   20.0200 O   0  0  0  0  0  0  0  0  0  0  0  0
  -24.5580  -31.7410   23.1910 C   0  0  0  0  0  0  0  0  0  0  0  0
  -27.2350  -27.3390   20.0490 C   0  0  0  0  0  0  0  0  0  0  0  0
  -23.3610  -30.3550   21.5280 C   0  0  0  0  0  3  0  0  0  0  0  0
  -24.8240  -28.8310   20.1000 C   0  0  0  0  0  0  0  0  0  0  0  0
  -25.8890  -30.7170   21.3470 C   0  0  0  0  0  2  0  0  0  0  0  0
  -25.9770  -29.3490   20.7000 C   0  0  0  0  0  0  0  0  0  0  0  0
  -27.1770  -28.6030   20.6830 C   0  0  0  0  0  3  0  0  0  0  0  0
  -26.0500  -26.8240   19.4720 C   0  0  0  0  0  3  0  0  0  0  0  0
  -24.8560  -27.5670   19.4860 C   0  0  0  0  0  3  0  0  0  0  0  0
  -23.5820  -29.6910   20.1410 C   0  0  0  0  0  2  0  0  0  0  0  0
  -24.6200  -30.9550   22.0780 N   0  0  0  0  0  0  0  0  0  0  0  0
  -23.4740  -32.0020   23.7300 O   0  0  0  0  0  0  0  0  0  0  0  0
  -22.7100  -29.3180   22.4730 C   0  0  0  0  0  0  0  0  0  0  0  0
  -21.3850  -29.1400   22.3420 N   0  0  0  0  0  0  0  0  0  0  0  0
  -23.3910  -28.6820   23.2810 O   0  0  0  0  0  0  0  0  0  0  0  0
  -20.9010  -29.7070   21.6600 H   0  0  0  0  0  0  0  0  0  0  0  0
  -18.0020  -27.9560   22.8110 C   0  0  0  0  0  0  0  0  0  0  0  0
  -20.5600  -28.1950   23.0930 C   0  0  0  0  0  3  0  0  0  0  0  0
  -20.6530  -26.7720   22.4900 C   0  0  0  0  0  2  0  0  0  0  0  0
  -19.5500  -26.4730   21.4690 C   0  0  0  0  0  2  0  0  0  0  0  0
  -18.1700  -26.6150   22.1150 C   0  0  0  0  0  2  0  0  0  0  0  0
  -19.1230  -28.7040   23.2540 C   0  0  0  0  0  0  0  0  0  0  0  0
  -18.9120  -29.9630   23.8580 C   0  0  0  0  0  3  0  0  0  0  0  0
  -17.6080  -30.4660   24.0340 C   0  0  0  0  0  3  0  0  0  0  0  0
  -16.5000  -29.7090   23.6110 C   0  0  0  0  0  3  0  0  0  0  0  0
  -16.7000  -28.4580   23.0020 C   0  0  0  0  0  3  0  0  0  0  0  0
  -25.8420  -32.3640   23.8240 C   0  0  0  0  0  3  0  0  0  0  0  0
  -25.5350  -33.7580   24.1620 N   0  0  0  0  0  0  0  0  0  0  0  0
  -25.8690  -34.8150   23.4110 C   0  0  0  0  0  0  0  0  0  0  0  0
  -26.5460  -34.7200   22.3820 O   0  0  0  0  0  0  0  0  0  0  0  0
  -24.9420  -33.9080   24.9660 H   0  0  0  0  0  0  0  0  0  0  0  0
  -24.1450  -36.6110   23.0500 C   0  0  0  0  0  1  0  0  0  0  0  0
  -25.3760  -36.2000   23.8740 C   0  0  0  0  0  3  0  0  0  0  0  0
  -27.5040  -37.0840   24.7280 C   0  0  0  0  0  1  0  0  0  0  0  0
  -26.4090  -37.2560   23.7750 N   0  0  0  0  0  0  0  0  0  0  0  0
  -26.0030  -38.1780   23.9200 H   0  0  0  0  0  0  0  0  0  0  0  0
  -26.3510  -31.5830   25.0960 C   0  0  1  0  0  0  0  0  0  0  0  0
  -25.2460  -31.3230   26.1480 C   0  0  0  0  0  1  0  0  0  0  0  0
  -26.9470  -30.2140   24.6940 C   0  0  0  0  0  1  0  0  0  0  0  0
  -27.4920  -32.3750   25.7760 C   0  0  0  0  0  1  0  0  0  0  0  0
  1  3  1  0
  1  2  1  0
  4  1  1  0
  5  4  1  0
  5  7  1  0
  6 10  1  0
  6  8  1  0
  7  6  2  0
  8 11  1  0
  9 11  1  0
 10 21  1  0
 10  9  1  0
 11 12  1  0
 13 21  1  0
 14 19  1  0
 15 16  1  0
 15 14  1  0
 17 16  1  0
 17 26  1  0
 17 18  1  0
 19 13  1  0
 19 18  1  0
 20 13  2  0
 22 21  1  0
 23 24  2  0
 24 43  1  0
 25 24  1  0
 25 28  1  0
 26 27  1  0
 26 23  1  0
 27 25  2  0
 28 29  1  0
 29 30  2  0
 31 34  1  0
 31 30  1  0
 32 31  2  0
 33 32  1  0
 33 28  2  0
 34 35  1  0
 35 40  2  0
 35 36  1  0
 36 37  2  0
 37 38  1  0
 38 42  1  0
 39 38  2  0
 40 39  1  0
 41 40  1  0
 43 44  1  0
 44 47  1  0
 44 46  1  0
 45 43  2  0
 48 49  1  0
 48 23  1  0
 50 48  1  0
 51 52  1  0
 51  1  1  0
 52 53  1  0
 54 52  1  0
 54 55  1  0
 55 57  1  0
 56 67  2  0
 57 62  1  0
 58 66  1  0
 58 68  1  0
 59 65  1  0
 59 61  1  0
 60 66  1  0
 61 60  1  0
 62 61  2  0
 63 64  1  0
 63 57  2  0
 64 59  2  0
 65 58  1  0
 66 56  1  0
 68 70  2  0
 69 68  1  0
 71 69  1  0
 72 81  2  0
 72 77  1  0
 73 69  1  0
 73 77  1  0
 74 73  1  0
 75 76  1  0
 75 74  1  0
 76 72  1  0
 77 78  2  0
 78 79  1  0
 80 79  2  0
 81 80  1  0
 82 56  1  0
 82 83  1  0
 82 92  1  0
 83 86  1  0
 84 88  1  0
 84 83  1  0
 85 84  2  0
 88 87  1  0
 90 88  1  0
 90 91  1  0
 90 89  1  0
 92 95  1  1
 92 93  1  0
 94 92  1  0
M  ISO  4  13 100  21 100  54 101  55 101
M  END
>  <TORSDO>  (65) 
F 22

>  <SCORE>  (65) 
-9.391

>  <name>  (65) 
65

>  <ligand_id>  (65) 
65

>  <original_smiles>  (65) 
[H]C(=C1C([H])([H])C([H])(F)C([H])([H])C1([H])N([H])C(=O)N1C([H])([H])C([H])([H])C([H])([H])C([H])(n2nc(-c3c([H])c([H])c(Oc4c([H])c([H])c(F)c([H])c4F)c([H])c3[H])c(C(=O)N([H])[H])c2N([H])[H])C1([H])[H])C([H])([H])C([H])([H])[N+]([H])([H])C([H])([H])C([H])(F)C([H])([H])Oc1c([H])c([H])c2c(c1[H])C([H])([H])N(C(=O)C([H])(N([H])C(=O)C([H])(N([H])C([H])([H])[H])C([H])([H])[H])C(C([H])([H])[H])(C([H])([H])[H])C([H])([H])[H])C([H])(C(=O)N([H])C1([H])c3c([H])c([H])c([H])c([H])c3C([H])([H])C([H])([H])C1([H])[H])C2([H])[H]

>  <smiles>  (65) 
[H]C(=C1C([H])([H])C([H])(F)C([H])([H])C1([H])N([H])C(=O)N1C([H])([H])C([H])([H])C([H])([H])C([H])(n2nc(-c3c([H])c([H])c(Oc4c([H])c([H])c(F)c([H])c4F)c([H])c3[H])c(C(=O)N([H])[H])c2N([H])[H])C1([H])[H])C([H])([H])C([H])([H])[N+]([H])([H])C([H])([H])C([H])(F)C([H])([H])Oc1c([H])c([H])c2c(c1[H])C([H])([H])N(C(=O)C([H])(N([H])C(=O)C([H])(N([H])C([H])([H])[H])C([H])([H])[H])C(C([H])([H])[H])(C([H])([H])[H])C([H])([H])[H])C([H])(C(=O)N([H])C1([H])c3c([H])c([H])c([H])c([H])c3C([H])([H])C([H])([H])C1([H])[H])C2([H])[H]

$$$$
66:0:0
     RDKit          3D

 98106  0  0  1  0  0  0  0  0999 V2000
  -30.8470  -23.1650   15.2510 C   0  0  0  0  0  2  0  0  0  0  0  0
  -30.5460  -22.1770   16.3690 C   0  0  0  0  0  2  0  0  0  0  0  0
  -30.2350  -24.4730   15.7340 C   0  0  0  0  0  2  0  0  0  0  0  0
  -29.8950  -23.0120   17.4910 C   0  0  0  0  0  3  0  0  0  0  0  0
  -30.3370  -24.3830   17.1880 N   0  0  0  0  0  0  0  0  0  0  0  0
  -30.2730  -22.5200   18.9200 C   0  0  1  0  0  0  0  0  0  0  0  0
  -31.5980  -22.5700   19.0720 F   0  0  0  0  0  0  0  0  0  0  0  0
  -29.7140  -23.3040   19.8430 F   0  0  0  0  0  0  0  0  0  0  0  0
  -29.7710  -21.0890   19.1540 C   0  0  0  0  0  0  0  0  0  0  0  0
  -28.6890  -20.7170   18.6820 O   0  0  0  0  0  0  0  0  0  0  0  0
  -30.6090  -20.1460   20.0270 C   0  0  0  0  0  2  0  0  0  0  0  0
  -29.9230  -18.8440   19.9570 N   0  0  0  0  0  4  0  0  0  0  0  0
  -29.8790  -18.5950   18.9830 H   0  0  0  0  0  0  0  0  0  0  0  0
  -28.9730  -19.0160   20.2450 H   0  0  0  0  0  0  0  0  0  0  0  0
  -30.4820  -17.7110   20.7100 C   0  0  0  0  0  2  0  0  0  0  0  0
  -29.4430  -16.5790   20.6660 C   0  0  0  0  0  2  0  0  0  0  0  0
  -30.6260  -14.4360   20.5400 C   0  0  0  0  0  0  0  0  0  0  0  0
  -30.3960  -12.3560   19.2620 C   0  0  0  0  0  2  0  0  0  0  0  0
  -29.4220  -12.6330   18.0950 C   0  0  0  0  0  2  0  0  0  0  0  0
  -27.9470  -12.4760   18.5270 C   0  0  0  0  0  2  0  0  0  0  0  0
  -27.6270  -13.2360   19.8410 C   0  0  0  0  0  3  0  0  0  0  0  0
  -28.6880  -12.8820   20.9120 C   0  0  0  0  0  2  0  0  0  0  0  0
  -30.0200  -13.2330   20.3760 N   0  0  0  0  0  0  0  0  0  0  0  0
  -31.6720  -14.7710   19.9760 O   0  0  0  0  0  0  0  0  0  0  0  0
  -29.8670  -15.3010   21.2180 N   0  0  0  0  0  0  0  0  0  0  0  0
  -29.1370  -14.8260   21.7290 H   0  0  0  0  0  0  0  0  0  0  0  0
  -25.2120  -13.8510   20.5160 C   0  0  0  0  0  0  0  0  0  0  0  0
  -24.1450  -13.0770   20.8870 C   0  0  0  0  0  0  0  0  0  0  0  0
  -24.6120  -11.7280   20.8640 C   0  0  0  0  0  0  0  0  0  0  0  0
  -26.2650  -12.9700   20.3020 N   0  0  0  0  0  0  0  0  0  0  0  0
  -25.9030  -11.6900   20.5600 N   0  0  0  0  0  0  0  0  0  0  0  0
  -23.8930  -10.4630   21.0600 C   0  0  0  0  0  0  0  0  0  0  0  0
  -24.3400   -9.4950   21.9860 C   0  0  0  0  0  3  0  0  0  0  0  0
  -23.6210   -8.2940   22.1700 C   0  0  0  0  0  3  0  0  0  0  0  0
  -22.4410   -8.0510   21.4290 C   0  0  0  0  0  0  0  0  0  0  0  0
  -22.0110   -9.0100   20.4930 C   0  0  0  0  0  3  0  0  0  0  0  0
  -22.7320  -10.2010   20.3080 C   0  0  0  0  0  3  0  0  0  0  0  0
  -21.6960   -6.9010   21.5190 O   0  0  0  0  0  0  0  0  0  0  0  0
  -21.6790   -6.1420   22.6630 C   0  0  0  0  0  0  0  0  0  0  0  0
  -21.2890   -6.6810   23.9080 C   0  0  0  0  0  3  0  0  0  0  0  0
  -21.2230   -5.8500   25.0440 C   0  0  0  0  0  3  0  0  0  0  0  0
  -21.5360   -4.4820   24.9350 C   0  0  0  0  0  0  0  0  0  0  0  0
  -21.9180   -3.9420   23.6950 C   0  0  0  0  0  3  0  0  0  0  0  0
  -21.9860   -4.7690   22.5610 C   0  0  0  0  0  0  0  0  0  0  0  0
  -22.3340   -4.2420   21.3630 F   0  0  0  0  0  0  0  0  0  0  0  0
  -21.4640   -3.6800   26.0250 F   0  0  0  0  0  0  0  0  0  0  0  0
  -22.7430  -13.5490   21.1560 C   0  0  0  0  0  0  0  0  0  0  0  0
  -22.0200  -12.8540   22.0270 N   0  0  0  0  0  0  0  0  0  0  0  0
  -22.3000  -14.5680   20.6300 O   0  0  0  0  0  0  0  0  0  0  0  0
  -22.3880  -12.0240   22.4690 H   0  0  0  0  0  0  0  0  0  0  0  0
  -21.0840  -13.1540   22.2570 H   0  0  0  0  0  0  0  0  0  0  0  0
  -25.3740  -15.2200   20.3280 N   0  0  0  0  0  0  0  0  0  0  0  0
  -24.6000  -15.8690   20.4120 H   0  0  0  0  0  0  0  0  0  0  0  0
  -26.2170  -15.6530   19.9720 H   0  0  0  0  0  0  0  0  0  0  0  0
  -29.5180  -25.4240   17.8170 C   0  0  0  0  0  2  0  0  0  0  0  0
  -30.3680  -26.2430   18.8060 C   0  0  0  0  0  2  0  0  0  0  0  0
  -29.5530  -27.3570   19.4780 C   0  0  0  0  0  2  0  0  0  0  0  0
  -28.4250  -26.7510   20.0910 O   0  0  0  0  0  0  0  0  0  0  0  0
  -24.6160  -31.8890   23.2100 C   0  0  0  0  0  0  0  0  0  0  0  0
  -27.2830  -27.5060   20.1140 C   0  0  0  0  0  0  0  0  0  0  0  0
  -23.4080  -30.4820   21.5710 C   0  0  0  0  0  3  0  0  0  0  0  0
  -24.8690  -28.9560   20.1410 C   0  0  0  0  0  0  0  0  0  0  0  0
  -25.9280  -30.8710   21.3580 C   0  0  0  0  0  2  0  0  0  0  0  0
  -26.0230  -29.5060   20.7150 C   0  0  0  0  0  0  0  0  0  0  0  0
  -27.2380  -28.7910   20.6970 C   0  0  0  0  0  3  0  0  0  0  0  0
  -26.1140  -26.9550   19.5560 C   0  0  0  0  0  3  0  0  0  0  0  0
  -24.9070  -27.6780   19.5560 C   0  0  0  0  0  3  0  0  0  0  0  0
  -23.6130  -29.7950   20.1940 C   0  0  0  0  0  2  0  0  0  0  0  0
  -24.6680  -31.0950   22.1060 N   0  0  0  0  0  0  0  0  0  0  0  0
  -23.5360  -32.1550   23.7570 O   0  0  0  0  0  0  0  0  0  0  0  0
  -22.7700  -29.4570   22.5360 C   0  0  0  0  0  0  0  0  0  0  0  0
  -21.4460  -29.2670   22.4130 N   0  0  0  0  0  0  0  0  0  0  0  0
  -23.4610  -28.8320   23.3450 O   0  0  0  0  0  0  0  0  0  0  0  0
  -20.9500  -29.8190   21.7270 H   0  0  0  0  0  0  0  0  0  0  0  0
  -18.0750  -28.0750   22.9310 C   0  0  0  0  0  0  0  0  0  0  0  0
  -20.6340  -28.3270   23.1870 C   0  0  0  0  0  3  0  0  0  0  0  0
  -20.7290  -26.8990   22.6020 C   0  0  0  0  0  2  0  0  0  0  0  0
  -19.6190  -26.5820   21.5940 C   0  0  0  0  0  2  0  0  0  0  0  0
  -18.2420  -26.7290   22.2460 C   0  0  0  0  0  2  0  0  0  0  0  0
  -19.1970  -28.8330   23.3570 C   0  0  0  0  0  0  0  0  0  0  0  0
  -18.9850  -30.0940   23.9520 C   0  0  0  0  0  3  0  0  0  0  0  0
  -17.6830  -30.6000   24.1250 C   0  0  0  0  0  3  0  0  0  0  0  0
  -16.5740  -29.8390   23.7180 C   0  0  0  0  0  3  0  0  0  0  0  0
  -16.7700  -28.5770   23.1270 C   0  0  0  0  0  3  0  0  0  0  0  0
  -25.9030  -32.5230   23.8270 C   0  0  0  0  0  3  0  0  0  0  0  0
  -26.4350  -31.7470   25.0950 C   0  0  1  0  0  0  0  0  0  0  0  0
  -25.3490  -31.4940   26.1660 C   0  0  0  0  0  1  0  0  0  0  0  0
  -27.0220  -30.3750   24.6880 C   0  0  0  0  0  1  0  0  0  0  0  0
  -27.5850  -32.5460   25.7550 C   0  0  0  0  0  1  0  0  0  0  0  0
  -25.5910  -33.9170   24.1620 N   0  0  0  0  0  0  0  0  0  0  0  0
  -25.9240  -34.9740   23.4080 C   0  0  0  0  0  0  0  0  0  0  0  0
  -26.5960  -34.8780   22.3780 O   0  0  0  0  0  0  0  0  0  0  0  0
  -24.9870  -34.0670   24.9560 H   0  0  0  0  0  0  0  0  0  0  0  0
  -24.1870  -36.7540   23.0570 C   0  0  0  0  0  1  0  0  0  0  0  0
  -25.4280  -36.3560   23.8720 C   0  0  0  0  0  3  0  0  0  0  0  0
  -27.5580  -37.2360   24.7130 C   0  0  0  0  0  1  0  0  0  0  0  0
  -26.4570  -37.4150   23.7700 N   0  0  0  0  0  0  0  0  0  0  0  0
  -26.0480  -38.3320   23.9300 H   0  0  0  0  0  0  0  0  0  0  0  0
  1  3  1  0
  1  2  1  0
  2  4  1  0
  3  5  1  0
  4  6  1  0
  5  4  1  0
  5 55  1  0
  6  7  1  6
  6  9  1  0
  6  8  1  0
  9 11  1  0
 10  9  2  0
 12 11  1  0
 12 14  1  0
 12 15  1  0
 13 12  1  0
 16 15  1  0
 16 25  1  0
 17 25  1  0
 18 23  1  0
 19 20  1  0
 19 18  1  0
 21 20  1  0
 21 30  1  0
 21 22  1  0
 23 17  1  0
 23 22  1  0
 24 17  2  0
 25 26  1  0
 27 28  2  0
 28 47  1  0
 29 28  1  0
 29 32  1  0
 30 27  1  0
 30 31  1  0
 31 29  2  0
 32 33  1  0
 33 34  2  0
 35 38  1  0
 35 34  1  0
 36 35  2  0
 37 36  1  0
 37 32  2  0
 38 39  1  0
 39 40  1  0
 40 41  2  0
 42 41  1  0
 42 46  1  0
 43 42  2  0
 44 39  2  0
 44 43  1  0
 45 44  1  0
 47 48  1  0
 48 51  1  0
 48 50  1  0
 49 47  2  0
 52 53  1  0
 52 27  1  0
 54 52  1  0
 55 56  1  0
 56 57  1  0
 57 58  1  0
 58 60  1  0
 59 70  2  0
 60 65  1  0
 61 69  1  0
 61 71  1  0
 62 68  1  0
 62 64  1  0
 63 69  1  0
 64 63  1  0
 65 64  2  0
 66 67  1  0
 66 60  2  0
 67 62  2  0
 68 61  1  0
 69 59  1  0
 71 73  2  0
 72 71  1  0
 74 72  1  0
 75 84  2  0
 75 80  1  0
 76 72  1  0
 76 80  1  0
 77 76  1  0
 78 79  1  0
 78 77  1  0
 79 75  1  0
 80 81  2  0
 81 82  1  0
 83 82  2  0
 84 83  1  0
 85 59  1  0
 85 90  1  0
 85 86  1  0
 86 89  1  1
 86 87  1  0
 88 86  1  0
 90 93  1  0
 91 95  1  0
 91 90  1  0
 92 91  2  0
 95 94  1  0
 97 95  1  0
 97 98  1  0
 97 96  1  0
M  ISO  4  17 100  25 100  57 101  58 101
M  END
>  <TORSDO>  (66) 
F 25

>  <SCORE>  (66) 
-12.213

>  <name>  (66) 
66

>  <ligand_id>  (66) 
66

>  <original_smiles>  (66) 
[H]c1c([H])c([H])c2c(c1[H])C([H])([H])C([H])([H])C([H])([H])C2([H])N([H])C(=O)C1([H])N(C(=O)C([H])(N([H])C(=O)C([H])(N([H])C([H])([H])[H])C([H])([H])[H])C(C([H])([H])[H])(C([H])([H])[H])C([H])([H])[H])C([H])([H])c2c([H])c(OC([H])([H])C([H])([H])C([H])([H])N3C([H])([H])C([H])([H])C([H])([H])C3([H])C(F)(F)C(=O)C([H])([H])[N+]([H])([H])C([H])([H])C([H])([H])N([H])C(=O)N3C([H])([H])C([H])([H])C([H])([H])C([H])(n4nc(-c5c([H])c([H])c(Oc6c([H])c([H])c(F)c([H])c6F)c([H])c5[H])c(C(=O)N([H])[H])c4N([H])[H])C3([H])[H])c([H])c([H])c2C1([H])[H]

>  <smiles>  (66) 
[H]c1c([H])c([H])c2c(c1[H])C([H])([H])C([H])([H])C([H])([H])C2([H])N([H])C(=O)C1([H])N(C(=O)C([H])(N([H])C(=O)C([H])(N([H])C([H])([H])[H])C([H])([H])[H])C(C([H])([H])[H])(C([H])([H])[H])C([H])([H])[H])C([H])([H])c2c([H])c(OC([H])([H])C([H])([H])C([H])([H])N3C([H])([H])C([H])([H])C([H])([H])C3([H])C(F)(F)C(=O)C([H])([H])[N+]([H])([H])C([H])([H])C([H])([H])N([H])C(=O)N3C([H])([H])C([H])([H])C([H])([H])C([H])(n4nc(-c5c([H])c([H])c(Oc6c([H])c([H])c(F)c([H])c6F)c([H])c5[H])c(C(=O)N([H])[H])c4N([H])[H])C3([H])[H])c([H])c([H])c2C1([H])[H]

$$$$
67:0:0
     RDKit          3D

 96103  0  0  1  0  0  0  0  0999 V2000
  -25.8300  -23.0770   21.1930 N   0  0  0  0  0  0  0  0  0  0  0  0
  -25.0570  -23.0060   21.8480 H   0  0  0  0  0  0  0  0  0  0  0  0
  -25.5750  -22.0740   20.1730 C   0  0  0  0  0  2  0  0  0  0  0  0
  -26.6240  -22.0620   19.0330 C   0  0  0  0  0  2  0  0  0  0  0  0
  -27.7760  -21.0420   19.1760 C   0  0  0  0  0  2  0  0  0  0  0  0
  -27.2930  -19.6000   19.4510 C   0  0  0  0  0  2  0  0  0  0  0  0
  -28.1820  -18.8260   20.3330 N   0  0  0  0  0  4  0  0  0  0  0  0
  -28.5720  -19.4100   21.0590 H   0  0  0  0  0  0  0  0  0  0  0  0
  -27.5940  -18.1420   20.7820 H   0  0  0  0  0  0  0  0  0  0  0  0
  -29.2450  -18.0890   19.6480 C   0  0  0  0  0  2  0  0  0  0  0  0
  -29.7660  -16.9700   20.5610 C   0  0  0  0  0  2  0  0  0  0  0  0
  -31.4110  -15.1120   20.1530 C   0  0  0  0  0  0  0  0  0  0  0  0
  -31.1180  -12.8250   19.3400 C   0  0  0  0  0  2  0  0  0  0  0  0
  -30.2210  -12.8670   18.0900 C   0  0  0  0  0  2  0  0  0  0  0  0
  -28.7360  -12.7710   18.4950 C   0  0  0  0  0  2  0  0  0  0  0  0
  -28.3530  -13.7730   19.6230 C   0  0  0  0  0  3  0  0  0  0  0  0
  -29.3870  -13.7120   20.7750 C   0  0  0  0  0  2  0  0  0  0  0  0
  -30.7110  -13.9490   20.1910 N   0  0  0  0  0  0  0  0  0  0  0  0
  -32.5990  -15.1840   19.8530 O   0  0  0  0  0  0  0  0  0  0  0  0
  -30.7070  -16.1810   19.7940 N   0  0  0  0  0  0  0  0  0  0  0  0
  -31.3110  -16.7740   19.2430 H   0  0  0  0  0  0  0  0  0  0  0  0
  -25.9690  -14.4680   20.2950 C   0  0  0  0  0  0  0  0  0  0  0  0
  -24.8710  -13.7410   20.6620 C   0  0  0  0  0  0  0  0  0  0  0  0
  -25.2830  -12.3720   20.6350 C   0  0  0  0  0  0  0  0  0  0  0  0
  -26.9870  -13.5510   20.0880 N   0  0  0  0  0  0  0  0  0  0  0  0
  -26.5750  -12.2830   20.3450 N   0  0  0  0  0  0  0  0  0  0  0  0
  -24.5090  -11.1370   20.8160 C   0  0  0  0  0  0  0  0  0  0  0  0
  -24.8640  -10.1840   21.7960 C   0  0  0  0  0  3  0  0  0  0  0  0
  -24.0970   -9.0120   21.9660 C   0  0  0  0  0  3  0  0  0  0  0  0
  -22.9610   -8.7850   21.1540 C   0  0  0  0  0  0  0  0  0  0  0  0
  -22.6230   -9.7270   20.1660 C   0  0  0  0  0  3  0  0  0  0  0  0
  -23.3910  -10.8910   19.9950 C   0  0  0  0  0  3  0  0  0  0  0  0
  -22.1720   -7.6640   21.2300 O   0  0  0  0  0  0  0  0  0  0  0  0
  -21.9970   -6.9810   22.4080 C   0  0  0  0  0  0  0  0  0  0  0  0
  -21.4840   -7.6110   23.5610 C   0  0  0  0  0  3  0  0  0  0  0  0
  -21.2560   -6.8600   24.7330 C   0  0  0  0  0  3  0  0  0  0  0  0
  -21.5310   -5.4790   24.7500 C   0  0  0  0  0  0  0  0  0  0  0  0
  -22.0390   -4.8490   23.5990 C   0  0  0  0  0  3  0  0  0  0  0  0
  -22.2670   -5.5980   22.4300 C   0  0  0  0  0  0  0  0  0  0  0  0
  -22.7340   -4.9810   21.3180 F   0  0  0  0  0  0  0  0  0  0  0  0
  -21.3050   -4.7570   25.8710 F   0  0  0  0  0  0  0  0  0  0  0  0
  -23.4880  -14.2670   20.9130 C   0  0  0  0  0  0  0  0  0  0  0  0
  -22.7320  -13.6080   21.7820 N   0  0  0  0  0  0  0  0  0  0  0  0
  -23.0910  -15.2970   20.3700 O   0  0  0  0  0  0  0  0  0  0  0  0
  -23.0750  -12.7790   22.2440 H   0  0  0  0  0  0  0  0  0  0  0  0
  -21.8030  -13.9390   21.9960 H   0  0  0  0  0  0  0  0  0  0  0  0
  -26.1790  -15.8280   20.0790 N   0  0  0  0  0  0  0  0  0  0  0  0
  -25.3000  -16.3310   19.9870 H   0  0  0  0  0  0  0  0  0  0  0  0
  -26.7790  -16.0060   19.2870 H   0  0  0  0  0  0  0  0  0  0  0  0
  -27.0380  -22.8440   21.9800 C   0  0  0  0  0  2  0  0  0  0  0  0
  -28.1480  -23.8890   21.7040 C   0  0  2  0  0  0  0  0  0  0  0  0
  -29.1590  -23.2760   21.0840 F   0  0  0  0  0  0  0  0  0  0  0  0
  -28.5880  -24.3240   22.8870 F   0  0  0  0  0  0  0  0  0  0  0  0
  -27.7230  -25.1060   20.8550 C   0  0  0  0  0  2  0  0  0  0  0  0
  -28.8110  -26.1890   20.7250 C   0  0  0  0  0  2  0  0  0  0  0  0
  -28.5630  -27.1450   19.6880 O   0  0  0  0  0  0  0  0  0  0  0  0
  -24.6780  -31.9220   23.2760 C   0  0  0  0  0  0  0  0  0  0  0  0
  -27.3930  -27.8500   19.8040 C   0  0  0  0  0  0  0  0  0  0  0  0
  -23.4900  -30.6380   21.5260 C   0  0  0  0  0  3  0  0  0  0  0  0
  -24.9650  -29.2720   19.9580 C   0  0  0  0  0  0  0  0  0  0  0  0
  -26.0020  -31.0850   21.3410 C   0  0  0  0  0  2  0  0  0  0  0  0
  -26.1140  -29.7770   20.5830 C   0  0  0  0  0  0  0  0  0  0  0  0
  -27.3330  -29.0700   20.5110 C   0  0  0  0  0  3  0  0  0  0  0  0
  -26.2330  -27.3590   19.1670 C   0  0  0  0  0  3  0  0  0  0  0  0
  -25.0180  -28.0590   19.2480 C   0  0  0  0  0  3  0  0  0  0  0  0
  -23.7040  -30.0920   20.0880 C   0  0  0  0  0  2  0  0  0  0  0  0
  -24.7440  -31.2220   22.1080 N   0  0  0  0  0  0  0  0  0  0  0  0
  -23.5960  -32.1200   23.8440 O   0  0  0  0  0  0  0  0  0  0  0  0
  -22.8740  -29.5220   22.3990 C   0  0  0  0  0  0  0  0  0  0  0  0
  -21.5600  -29.3050   22.2490 N   0  0  0  0  0  0  0  0  0  0  0  0
  -23.5780  -28.8600   23.1650 O   0  0  0  0  0  0  0  0  0  0  0  0
  -21.0530  -29.9110   21.6200 H   0  0  0  0  0  0  0  0  0  0  0  0
  -18.2330  -27.9300   22.5960 C   0  0  0  0  0  0  0  0  0  0  0  0
  -20.7730  -28.2750   22.9300 C   0  0  0  0  0  3  0  0  0  0  0  0
  -20.9480  -26.8970   22.2530 C   0  0  0  0  0  2  0  0  0  0  0  0
  -19.8670  -26.5930   21.2070 C   0  0  0  0  0  2  0  0  0  0  0  0
  -18.4790  -26.6300   21.8510 C   0  0  0  0  0  2  0  0  0  0  0  0
  -19.3130  -28.7070   23.0930 C   0  0  0  0  0  0  0  0  0  0  0  0
  -19.0360  -29.9180   23.7650 C   0  0  0  0  0  3  0  0  0  0  0  0
  -17.7100  -30.3520   23.9530 C   0  0  0  0  0  3  0  0  0  0  0  0
  -16.6430  -29.5750   23.4680 C   0  0  0  0  0  3  0  0  0  0  0  0
  -16.9050  -28.3660   22.7960 C   0  0  0  0  0  3  0  0  0  0  0  0
  -25.9540  -32.5280   23.9370 C   0  0  0  0  0  3  0  0  0  0  0  0
  -25.6390  -33.9090   24.3210 N   0  0  0  0  0  0  0  0  0  0  0  0
  -25.9900  -34.9910   23.6150 C   0  0  0  0  0  0  0  0  0  0  0  0
  -26.6840  -34.9330   22.5950 O   0  0  0  0  0  0  0  0  0  0  0  0
  -25.0310  -34.0300   25.1170 H   0  0  0  0  0  0  0  0  0  0  0  0
  -24.2720  -36.8000   23.2940 C   0  0  0  0  0  1  0  0  0  0  0  0
  -25.4930  -36.3620   24.1180 C   0  0  0  0  0  3  0  0  0  0  0  0
  -27.6100  -37.2020   25.0320 C   0  0  0  0  0  1  0  0  0  0  0  0
  -26.5300  -37.4140   24.0740 N   0  0  0  0  0  0  0  0  0  0  0  0
  -26.1230  -38.3300   24.2440 H   0  0  0  0  0  0  0  0  0  0  0  0
  -26.4590  -31.7040   25.1840 C   0  0  1  0  0  0  0  0  0  0  0  0
  -25.3540  -31.4160   26.2280 C   0  0  0  0  0  1  0  0  0  0  0  0
  -27.0580  -30.3520   24.7360 C   0  0  0  0  0  1  0  0  0  0  0  0
  -27.6020  -32.4730   25.8910 C   0  0  0  0  0  1  0  0  0  0  0  0
  1  2  1  0
  1 50  1  0
  3  1  1  0
  4  5  1  0
  4  3  1  0
  5  6  1  0
  6  7  1  0
  7  9  1  0
  7  8  1  0
 10  7  1  0
 10 11  1  0
 12 18  1  0
 13 18  1  0
 14 15  1  0
 14 13  1  0
 16 15  1  0
 16 25  1  0
 16 17  1  0
 18 17  1  0
 19 12  2  0
 20 12  1  0
 20 11  1  0
 21 20  1  0
 22 23  2  0
 23 42  1  0
 24 23  1  0
 24 27  1  0
 25 22  1  0
 25 26  1  0
 26 24  2  0
 27 28  1  0
 28 29  2  0
 30 33  1  0
 30 29  1  0
 31 30  2  0
 32 31  1  0
 32 27  2  0
 33 34  1  0
 34 39  2  0
 34 35  1  0
 35 36  2  0
 36 37  1  0
 37 41  1  0
 38 37  2  0
 39 38  1  0
 40 39  1  0
 42 43  1  0
 43 46  1  0
 43 45  1  0
 44 42  2  0
 47 22  1  0
 48 47  1  0
 49 47  1  0
 51 50  1  0
 51 53  1  1
 52 51  1  0
 54 51  1  0
 55 54  1  0
 56 58  1  0
 56 55  1  0
 57 68  2  0
 58 63  1  0
 59 67  1  0
 59 69  1  0
 60 66  1  0
 60 62  1  0
 61 67  1  0
 62 61  1  0
 63 62  2  0
 64 65  1  0
 64 58  2  0
 65 60  2  0
 66 59  1  0
 67 57  1  0
 69 71  2  0
 70 69  1  0
 72 70  1  0
 73 82  2  0
 73 78  1  0
 74 70  1  0
 74 78  1  0
 75 74  1  0
 76 77  1  0
 76 75  1  0
 77 73  1  0
 78 79  2  0
 79 80  1  0
 81 80  2  0
 82 81  1  0
 83 57  1  0
 83 84  1  0
 83 93  1  0
 84 87  1  0
 85 89  1  0
 85 84  1  0
 86 85  2  0
 89 88  1  0
 91 89  1  0
 91 92  1  0
 91 90  1  0
 93 96  1  1
 93 94  1  0
 95 93  1  0
M  ISO  4  12 100  20 100  55 101  56 101
M  END
>  <TORSDO>  (67) 
F 27

>  <SCORE>  (67) 
-9.616

>  <name>  (67) 
67

>  <ligand_id>  (67) 
67

>  <original_smiles>  (67) 
[H]c1c([H])c([H])c2c(c1[H])C([H])([H])C([H])([H])C([H])([H])C2([H])N([H])C(=O)C1([H])N(C(=O)C([H])(N([H])C(=O)C([H])(N([H])C([H])([H])[H])C([H])([H])[H])C(C([H])([H])[H])(C([H])([H])[H])C([H])([H])[H])C([H])([H])c2c([H])c(OC([H])([H])C([H])([H])C(F)(F)C([H])([H])N([H])C([H])([H])C([H])([H])C([H])([H])C([H])([H])[N+]([H])([H])C([H])([H])C([H])([H])N([H])C(=O)N3C([H])([H])C([H])([H])C([H])([H])C([H])(n4nc(-c5c([H])c([H])c(Oc6c([H])c([H])c(F)c([H])c6F)c([H])c5[H])c(C(=O)N([H])[H])c4N([H])[H])C3([H])[H])c([H])c([H])c2C1([H])[H]

>  <smiles>  (67) 
[H]c1c([H])c([H])c2c(c1[H])C([H])([H])C([H])([H])C([H])([H])C2([H])N([H])C(=O)C1([H])N(C(=O)C([H])(N([H])C(=O)C([H])(N([H])C([H])([H])[H])C([H])([H])[H])C(C([H])([H])[H])(C([H])([H])[H])C([H])([H])[H])C([H])([H])c2c([H])c(OC([H])([H])C([H])([H])C(F)(F)C([H])([H])N([H])C([H])([H])C([H])([H])C([H])([H])C([H])([H])[N+]([H])([H])C([H])([H])C([H])([H])N([H])C(=O)N3C([H])([H])C([H])([H])C([H])([H])C([H])(n4nc(-c5c([H])c([H])c(Oc6c([H])c([H])c(F)c([H])c6F)c([H])c5[H])c(C(=O)N([H])[H])c4N([H])[H])C3([H])[H])c([H])c([H])c2C1([H])[H]

$$$$
68:0:0
     RDKit          3D

 96104  0  0  1  0  0  0  0  0999 V2000
  -26.9830  -21.2160   19.5760 C   0  0  0  0  0  2  0  0  0  0  0  0
  -28.6970  -21.2100   17.7440 C   0  0  0  0  0  2  0  0  0  0  0  0
  -26.3850  -22.5140   18.9960 C   0  0  0  0  0  2  0  0  0  0  0  0
  -28.1020  -22.5280   17.1970 C   0  0  0  0  0  2  0  0  0  0  0  0
  -27.6110  -20.3690   18.4530 C   0  0  0  0  0  3  0  0  0  0  0  0
  -27.3840  -23.3180   18.2370 N   0  0  2  0  0  4  0  0  0  0  0  0
  -26.8200  -23.9780   17.7200 H   0  0  0  0  0  0  0  0  0  0  0  0
  -28.0290  -18.0110   17.8320 C   0  0  0  0  0  1  0  0  0  0  0  0
  -28.0690  -19.0240   18.9200 N   0  0  1  0  0  4  0  0  0  0  0  0
  -27.3620  -18.7280   19.5790 H   0  0  0  0  0  0  0  0  0  0  0  0
  -29.3560  -19.0080   19.6690 C   0  0  0  0  0  2  0  0  0  0  0  0
  -29.4680  -17.8010   20.6210 C   0  0  0  0  0  2  0  0  0  0  0  0
  -30.8830  -17.6330   21.2050 C   0  0  0  0  0  2  0  0  0  0  0  0
  -31.0260  -16.4460   22.1810 C   0  0  0  0  0  2  0  0  0  0  0  0
  -30.9250  -14.4730   20.6400 C   0  0  0  0  0  0  0  0  0  0  0  0
  -30.5280  -12.5020   19.2110 C   0  0  0  0  0  2  0  0  0  0  0  0
  -29.5630  -12.8320   18.0560 C   0  0  0  0  0  2  0  0  0  0  0  0
  -28.0980  -12.6690   18.5030 C   0  0  0  0  0  2  0  0  0  0  0  0
  -27.7980  -13.3980   19.8390 C   0  0  0  0  0  3  0  0  0  0  0  0
  -28.8620  -13.0440   20.9000 C   0  0  0  0  0  2  0  0  0  0  0  0
  -30.1950  -13.3660   20.3520 N   0  0  0  0  0  0  0  0  0  0  0  0
  -31.9420  -14.8010   20.0200 O   0  0  0  0  0  0  0  0  0  0  0  0
  -30.4620  -15.2000   21.6630 N   0  0  0  0  0  0  0  0  0  0  0  0
  -29.6440  -14.8380   22.1310 H   0  0  0  0  0  0  0  0  0  0  0  0
  -25.3900  -13.9750   20.5490 C   0  0  0  0  0  0  0  0  0  0  0  0
  -24.3300  -13.1880   20.9090 C   0  0  0  0  0  0  0  0  0  0  0  0
  -24.8060  -11.8420   20.8640 C   0  0  0  0  0  0  0  0  0  0  0  0
  -26.4460  -13.1080   20.3110 N   0  0  0  0  0  0  0  0  0  0  0  0
  -26.0950  -11.8200   20.5540 N   0  0  0  0  0  0  0  0  0  0  0  0
  -24.0940  -10.5700   21.0420 C   0  0  0  0  0  0  0  0  0  0  0  0
  -24.5190   -9.6120   21.9890 C   0  0  0  0  0  3  0  0  0  0  0  0
  -23.8090   -8.4050   22.1540 C   0  0  0  0  0  3  0  0  0  0  0  0
  -22.6580   -8.1450   21.3720 C   0  0  0  0  0  0  0  0  0  0  0  0
  -22.2530   -9.0920   20.4150 C   0  0  0  0  0  3  0  0  0  0  0  0
  -22.9640  -10.2910   20.2480 C   0  0  0  0  0  3  0  0  0  0  0  0
  -21.9200   -6.9890   21.4450 O   0  0  0  0  0  0  0  0  0  0  0  0
  -21.8270   -6.2670   22.6070 C   0  0  0  0  0  0  0  0  0  0  0  0
  -21.3110   -6.8290   23.7960 C   0  0  0  0  0  3  0  0  0  0  0  0
  -21.1680   -6.0330   24.9480 C   0  0  0  0  0  3  0  0  0  0  0  0
  -21.5310   -4.6730   24.9140 C   0  0  0  0  0  0  0  0  0  0  0  0
  -22.0410   -4.1090   23.7310 C   0  0  0  0  0  3  0  0  0  0  0  0
  -22.1850   -4.9040   22.5800 C   0  0  0  0  0  0  0  0  0  0  0  0
  -22.6570   -4.3500   21.4360 F   0  0  0  0  0  0  0  0  0  0  0  0
  -21.3880   -3.9040   26.0190 F   0  0  0  0  0  0  0  0  0  0  0  0
  -22.9280  -13.6470   21.1920 C   0  0  0  0  0  0  0  0  0  0  0  0
  -22.2140  -12.9390   22.0580 N   0  0  0  0  0  0  0  0  0  0  0  0
  -22.4740  -14.6690   20.6780 O   0  0  0  0  0  0  0  0  0  0  0  0
  -22.5930  -12.1110   22.4940 H   0  0  0  0  0  0  0  0  0  0  0  0
  -21.2730  -13.2280   22.2900 H   0  0  0  0  0  0  0  0  0  0  0  0
  -25.5420  -15.3500   20.3880 N   0  0  0  0  0  0  0  0  0  0  0  0
  -24.7770  -16.0000   20.5290 H   0  0  0  0  0  0  0  0  0  0  0  0
  -26.4100  -15.7950   20.1280 H   0  0  0  0  0  0  0  0  0  0  0  0
  -28.2540  -24.1820   19.0810 C   0  0  0  0  0  2  0  0  0  0  0  0
  -28.6460  -25.4820   18.3430 C   0  0  0  0  0  2  0  0  0  0  0  0
  -29.2410  -26.5820   19.2490 C   0  0  0  0  0  2  0  0  0  0  0  0
  -28.5360  -26.8230   20.4700 O   0  0  0  0  0  0  0  0  0  0  0  0
  -24.5880  -31.9820   23.3610 C   0  0  0  0  0  0  0  0  0  0  0  0
  -27.3620  -27.5370   20.4070 C   0  0  0  0  0  0  0  0  0  0  0  0
  -23.4370  -30.5350   21.7160 C   0  0  0  0  0  3  0  0  0  0  0  0
  -24.9420  -28.9930   20.3580 C   0  0  0  0  0  0  0  0  0  0  0  0
  -25.9630  -30.9230   21.5740 C   0  0  0  0  0  2  0  0  0  0  0  0
  -26.0800  -29.5450   20.9610 C   0  0  0  0  0  0  0  0  0  0  0  0
  -27.2920  -28.8200   20.9910 C   0  0  0  0  0  3  0  0  0  0  0  0
  -26.1960  -26.9790   19.8400 C   0  0  0  0  0  3  0  0  0  0  0  0
  -24.9930  -27.7050   19.8010 C   0  0  0  0  0  3  0  0  0  0  0  0
  -23.6880  -29.8340   20.3550 C   0  0  0  0  0  2  0  0  0  0  0  0
  -24.6790  -31.1620   22.2750 N   0  0  0  0  0  0  0  0  0  0  0  0
  -23.4910  -32.2510   23.8680 O   0  0  0  0  0  0  0  0  0  0  0  0
  -22.7740  -29.5240   22.6770 C   0  0  0  0  0  0  0  0  0  0  0  0
  -21.4600  -29.3090   22.5040 N   0  0  0  0  0  0  0  0  0  0  0  0
  -23.4400  -28.9350   23.5330 O   0  0  0  0  0  0  0  0  0  0  0  0
  -20.9850  -29.8380   21.7870 H   0  0  0  0  0  0  0  0  0  0  0  0
  -18.0890  -28.0790   22.9220 C   0  0  0  0  0  0  0  0  0  0  0  0
  -20.6320  -28.3740   23.2670 C   0  0  0  0  0  3  0  0  0  0  0  0
  -20.7710  -26.9340   22.7210 C   0  0  0  0  0  2  0  0  0  0  0  0
  -19.7040  -26.5790   21.6790 C   0  0  0  0  0  2  0  0  0  0  0  0
  -18.3020  -26.7190   22.2780 C   0  0  0  0  0  2  0  0  0  0  0  0
  -19.1840  -28.8630   23.3710 C   0  0  0  0  0  0  0  0  0  0  0  0
  -18.9330  -30.1350   23.9300 C   0  0  0  0  0  3  0  0  0  0  0  0
  -17.6180  -30.6240   24.0450 C   0  0  0  0  0  3  0  0  0  0  0  0
  -16.5360  -29.8360   23.6150 C   0  0  0  0  0  3  0  0  0  0  0  0
  -16.7720  -28.5670   23.0570 C   0  0  0  0  0  3  0  0  0  0  0  0
  -25.8520  -32.6350   24.0000 C   0  0  0  0  0  3  0  0  0  0  0  0
  -25.5290  -34.0400   24.2790 N   0  0  0  0  0  0  0  0  0  0  0  0
  -25.8970  -35.0720   23.5070 C   0  0  0  0  0  0  0  0  0  0  0  0
  -26.6150  -34.9410   22.5120 O   0  0  0  0  0  0  0  0  0  0  0  0
  -24.8980  -34.2160   25.0470 H   0  0  0  0  0  0  0  0  0  0  0  0
  -24.2010  -36.8590   23.0050 C   0  0  0  0  0  1  0  0  0  0  0  0
  -25.3870  -36.4710   23.9020 C   0  0  0  0  0  3  0  0  0  0  0  0
  -27.4650  -37.3720   24.8490 C   0  0  0  0  0  1  0  0  0  0  0  0
  -26.4290  -37.5190   23.8310 N   0  0  0  0  0  0  0  0  0  0  0  0
  -26.0180  -38.4430   23.9280 H   0  0  0  0  0  0  0  0  0  0  0  0
  -26.3360  -31.9030   25.3110 C   0  0  1  0  0  0  0  0  0  0  0  0
  -25.2080  -31.6630   26.3420 C   0  0  0  0  0  1  0  0  0  0  0  0
  -26.9640  -30.5310   24.9700 C   0  0  0  0  0  1  0  0  0  0  0  0
  -27.4430  -32.7360   25.9990 C   0  0  0  0  0  1  0  0  0  0  0  0
  2  5  1  0
  3  1  1  0
  4  2  1  0
  4  6  1  0
  5  9  1  0
  5  1  1  0
  6  3  1  0
  6 53  1  0
  6  7  1  6
  8  9  1  0
  9 10  1  1
  9 11  1  0
 11 12  1  0
 12 13  1  0
 13 14  1  0
 15 23  1  0
 16 21  1  0
 17 18  1  0
 17 16  1  0
 19 18  1  0
 19 28  1  0
 19 20  1  0
 21 15  1  0
 21 20  1  0
 22 15  2  0
 23 24  1  0
 23 14  1  0
 25 26  2  0
 26 45  1  0
 27 26  1  0
 27 30  1  0
 28 25  1  0
 28 29  1  0
 29 27  2  0
 30 31  1  0
 31 32  2  0
 33 36  1  0
 33 32  1  0
 34 33  2  0
 35 34  1  0
 35 30  2  0
 36 37  1  0
 37 38  1  0
 38 39  2  0
 40 39  1  0
 40 44  1  0
 41 40  2  0
 42 37  2  0
 42 41  1  0
 43 42  1  0
 45 46  1  0
 46 49  1  0
 46 48  1  0
 47 45  2  0
 50 51  1  0
 50 25  1  0
 52 50  1  0
 54 53  1  0
 54 55  1  0
 55 56  1  0
 57 68  2  0
 58 56  1  0
 58 63  1  0
 59 67  1  0
 59 69  1  0
 60 62  1  0
 61 67  1  0
 62 63  2  0
 62 61  1  0
 64 58  2  0
 65 64  1  0
 65 60  2  0
 66 60  1  0
 66 59  1  0
 67 57  1  0
 69 71  2  0
 70 69  1  0
 72 70  1  0
 73 82  2  0
 73 78  1  0
 74 70  1  0
 74 78  1  0
 75 74  1  0
 76 77  1  0
 76 75  1  0
 77 73  1  0
 78 79  2  0
 79 80  1  0
 81 80  2  0
 82 81  1  0
 83 57  1  0
 83 84  1  0
 83 93  1  0
 84 87  1  0
 85 89  1  0
 85 84  1  0
 86 85  2  0
 89 88  1  0
 91 89  1  0
 91 92  1  0
 91 90  1  0
 93 96  1  1
 93 94  1  0
 95 93  1  0
M  ISO  4  15 100  23 100  55 101  56 101
M  END
>  <TORSDO>  (68) 
F 24

>  <SCORE>  (68) 
-12.034

>  <name>  (68) 
68

>  <ligand_id>  (68) 
68

>  <original_smiles>  (68) 
[H]c1c([H])c([H])c2c(c1[H])C([H])([H])C([H])([H])C([H])([H])C2([H])N([H])C(=O)C1([H])N(C(=O)C([H])(N([H])C(=O)C([H])(N([H])C([H])([H])[H])C([H])([H])[H])C(C([H])([H])[H])(C([H])([H])[H])C([H])([H])[H])C([H])([H])c2c([H])c(OC([H])([H])C([H])([H])C([H])([H])[N+]3([H])C([H])([H])C([H])([H])C([H])([N+]([H])(C([H])([H])[H])C([H])([H])C([H])([H])C([H])([H])C([H])([H])N([H])C(=O)N4C([H])([H])C([H])([H])C([H])([H])C([H])(n5nc(-c6c([H])c([H])c(Oc7c([H])c([H])c(F)c([H])c7F)c([H])c6[H])c(C(=O)N([H])[H])c5N([H])[H])C4([H])[H])C([H])([H])C3([H])[H])c([H])c([H])c2C1([H])[H]

>  <smiles>  (68) 
[H]c1c([H])c([H])c2c(c1[H])C([H])([H])C([H])([H])C([H])([H])C2([H])N([H])C(=O)C1([H])N(C(=O)C([H])(N([H])C(=O)C([H])(N([H])C([H])([H])[H])C([H])([H])[H])C(C([H])([H])[H])(C([H])([H])[H])C([H])([H])[H])C([H])([H])c2c([H])c(OC([H])([H])C([H])([H])C([H])([H])[N+]3([H])C([H])([H])C([H])([H])C([H])([N+]([H])(C([H])([H])[H])C([H])([H])C([H])([H])C([H])([H])C([H])([H])N([H])C(=O)N4C([H])([H])C([H])([H])C([H])([H])C([H])(n5nc(-c6c([H])c([H])c(Oc7c([H])c([H])c(F)c([H])c7F)c([H])c6[H])c(C(=O)N([H])[H])c5N([H])[H])C4([H])[H])C([H])([H])C3([H])[H])c([H])c([H])c2C1([H])[H]

$$$$
69:0:0
     RDKit          3D

 95103  0  0  1  0  0  0  0  0999 V2000
  -30.2620  -22.0040   20.3780 C   0  0  0  0  0  2  0  0  0  0  0  0
  -29.3150  -22.8260   21.2530 C   0  0  0  0  0  0  0  0  0  0  0  0
  -29.2200  -24.1330   20.9900 N   0  0  0  0  0  0  0  0  0  0  0  0
  -28.7210  -22.2870   22.1880 O   0  0  0  0  0  0  0  0  0  0  0  0
  -29.7100  -24.5010   20.1850 H   0  0  0  0  0  0  0  0  0  0  0  0
  -28.5820  -25.1080   21.8640 C   0  0  0  0  0  2  0  0  0  0  0  0
  -28.9920  -26.5270   21.4480 C   0  0  0  0  0  2  0  0  0  0  0  0
  -28.4390  -26.8090   20.1630 O   0  0  0  0  0  0  0  0  0  0  0  0
  -24.5200  -31.8980   23.2250 C   0  0  0  0  0  0  0  0  0  0  0  0
  -27.2720  -27.5290   20.1810 C   0  0  0  0  0  0  0  0  0  0  0  0
  -23.3530  -30.4880   21.5560 C   0  0  0  0  0  3  0  0  0  0  0  0
  -24.8470  -28.9700   20.1530 C   0  0  0  0  0  0  0  0  0  0  0  0
  -25.8700  -30.8880   21.3940 C   0  0  0  0  0  2  0  0  0  0  0  0
  -25.9820  -29.5190   20.7620 C   0  0  0  0  0  0  0  0  0  0  0  0
  -27.1950  -28.8060   20.7790 C   0  0  0  0  0  3  0  0  0  0  0  0
  -26.1300  -26.9870   19.5590 C   0  0  0  0  0  3  0  0  0  0  0  0
  -24.9140  -27.6990   19.5510 C   0  0  0  0  0  3  0  0  0  0  0  0
  -23.5890  -29.8080   20.1790 C   0  0  0  0  0  2  0  0  0  0  0  0
  -24.5970  -31.1050   22.1170 N   0  0  0  0  0  0  0  0  0  0  0  0
  -23.4280  -32.1550   23.7510 O   0  0  0  0  0  0  0  0  0  0  0  0
  -22.6990  -29.4570   22.5020 C   0  0  0  0  0  0  0  0  0  0  0  0
  -21.3760  -29.2750   22.3630 N   0  0  0  0  0  0  0  0  0  0  0  0
  -23.3770  -28.8250   23.3150 O   0  0  0  0  0  0  0  0  0  0  0  0
  -20.8890  -29.8400   21.6810 H   0  0  0  0  0  0  0  0  0  0  0  0
  -17.9940  -28.1000   22.8330 C   0  0  0  0  0  0  0  0  0  0  0  0
  -20.5520  -28.3290   23.1150 C   0  0  0  0  0  3  0  0  0  0  0  0
  -20.6440  -26.9090   22.5120 C   0  0  0  0  0  2  0  0  0  0  0  0
  -19.5410  -26.6130   21.4910 C   0  0  0  0  0  2  0  0  0  0  0  0
  -18.1600  -26.7590   22.1360 C   0  0  0  0  0  2  0  0  0  0  0  0
  -19.1180  -28.8430   23.2780 C   0  0  0  0  0  0  0  0  0  0  0  0
  -18.9110  -30.1000   23.8880 C   0  0  0  0  0  3  0  0  0  0  0  0
  -17.6100  -30.6110   24.0590 C   0  0  0  0  0  3  0  0  0  0  0  0
  -16.5000  -29.8620   23.6340 C   0  0  0  0  0  3  0  0  0  0  0  0
  -16.6920  -28.6090   23.0250 C   0  0  0  0  0  3  0  0  0  0  0  0
  -25.7920  -32.5360   23.8680 C   0  0  0  0  0  3  0  0  0  0  0  0
  -25.4750  -33.9350   24.1830 N   0  0  0  0  0  0  0  0  0  0  0  0
  -25.8270  -34.9820   23.4260 C   0  0  0  0  0  0  0  0  0  0  0  0
  -26.5270  -34.8740   22.4150 O   0  0  0  0  0  0  0  0  0  0  0  0
  -24.8630  -34.0950   24.9710 H   0  0  0  0  0  0  0  0  0  0  0  0
  -24.1170  -36.7740   22.9970 C   0  0  0  0  0  1  0  0  0  0  0  0
  -25.3220  -36.3720   23.8610 C   0  0  0  0  0  3  0  0  0  0  0  0
  -27.4200  -37.2540   24.7800 C   0  0  0  0  0  1  0  0  0  0  0  0
  -26.3600  -37.4230   23.7900 N   0  0  0  0  0  0  0  0  0  0  0  0
  -25.9480  -38.3430   23.9210 H   0  0  0  0  0  0  0  0  0  0  0  0
  -26.2900  -31.7710   25.1550 C   0  0  1  0  0  0  0  0  0  0  0  0
  -25.1780  -31.5260   26.2020 C   0  0  0  0  0  1  0  0  0  0  0  0
  -26.8920  -30.3990   24.7720 C   0  0  0  0  0  1  0  0  0  0  0  0
  -27.4190  -32.5760   25.8390 C   0  0  0  0  0  1  0  0  0  0  0  0
  -31.3530  -21.3140   21.2240 C   0  0  0  0  0  2  0  0  0  0  0  0
  -31.5890  -18.1450   23.4200 C   0  0  0  0  0  2  0  0  0  0  0  0
  -30.6040  -17.0750   22.9150 C   0  0  0  0  0  2  0  0  0  0  0  0
  -30.6500  -17.6860   20.4460 C   0  0  0  0  0  2  0  0  0  0  0  0
  -31.3180  -19.6160   23.0240 C   0  0  0  0  0  2  0  0  0  0  0  0
  -31.5230  -18.9460   20.5830 C   0  0  0  0  0  2  0  0  0  0  0  0
  -30.9620  -16.6050   21.4960 C   0  0  0  0  0  3  0  0  0  0  0  0
  -31.0070  -19.9100   21.5920 N   0  0  2  0  0  4  0  0  0  0  0  0
  -30.0010  -19.8590   21.5360 H   0  0  0  0  0  0  0  0  0  0  0  0
  -30.7440  -14.4840   20.2370 C   0  0  0  0  0  0  0  0  0  0  0  0
  -30.3040  -12.4390   18.9410 C   0  0  0  0  0  2  0  0  0  0  0  0
  -29.2990  -12.7170   17.8080 C   0  0  0  0  0  2  0  0  0  0  0  0
  -27.8530  -12.5630   18.3150 C   0  0  0  0  0  2  0  0  0  0  0  0
  -27.5960  -13.3400   19.6350 C   0  0  0  0  0  3  0  0  0  0  0  0
  -28.7060  -13.0570   20.6710 C   0  0  0  0  0  2  0  0  0  0  0  0
  -30.0090  -13.3580   20.0500 N   0  0  0  0  0  0  0  0  0  0  0  0
  -31.7590  -14.7390   19.5820 O   0  0  0  0  0  0  0  0  0  0  0  0
  -30.2940  -15.3420   21.1650 N   0  0  0  0  0  0  0  0  0  0  0  0
  -29.4580  -15.0890   21.6690 H   0  0  0  0  0  0  0  0  0  0  0  0
  -25.2310  -13.9140   20.4770 C   0  0  0  0  0  0  0  0  0  0  0  0
  -24.1880  -13.1250   20.8820 C   0  0  0  0  0  0  0  0  0  0  0  0
  -24.6540  -11.7780   20.7940 C   0  0  0  0  0  0  0  0  0  0  0  0
  -26.2700  -13.0460   20.1730 N   0  0  0  0  0  0  0  0  0  0  0  0
  -25.9270  -11.7540   20.4170 N   0  0  0  0  0  0  0  0  0  0  0  0
  -23.9470  -10.5060   20.9900 C   0  0  0  0  0  0  0  0  0  0  0  0
  -24.4070   -9.5390   21.9100 C   0  0  0  0  0  3  0  0  0  0  0  0
  -23.6990   -8.3320   22.0940 C   0  0  0  0  0  3  0  0  0  0  0  0
  -22.5160   -8.0830   21.3580 C   0  0  0  0  0  0  0  0  0  0  0  0
  -22.0750   -9.0400   20.4280 C   0  0  0  0  0  3  0  0  0  0  0  0
  -22.7840  -10.2390   20.2410 C   0  0  0  0  0  3  0  0  0  0  0  0
  -21.7780   -6.9290   21.4530 O   0  0  0  0  0  0  0  0  0  0  0  0
  -21.7300   -6.1980   22.6130 C   0  0  0  0  0  0  0  0  0  0  0  0
  -21.2670   -6.7530   23.8250 C   0  0  0  0  0  3  0  0  0  0  0  0
  -21.1690   -5.9470   24.9760 C   0  0  0  0  0  3  0  0  0  0  0  0
  -21.5230   -4.5860   24.9170 C   0  0  0  0  0  0  0  0  0  0  0  0
  -21.9790   -4.0300   23.7080 C   0  0  0  0  0  3  0  0  0  0  0  0
  -22.0790   -4.8330   22.5590 C   0  0  0  0  0  0  0  0  0  0  0  0
  -22.4980   -4.2860   21.3930 F   0  0  0  0  0  0  0  0  0  0  0  0
  -21.4210   -3.8090   26.0210 F   0  0  0  0  0  0  0  0  0  0  0  0
  -22.8040  -13.5860   21.2390 C   0  0  0  0  0  0  0  0  0  0  0  0
  -22.1230  -12.8580   22.1180 N   0  0  0  0  0  0  0  0  0  0  0  0
  -22.3360  -14.6250   20.7750 O   0  0  0  0  0  0  0  0  0  0  0  0
  -22.5140  -12.0170   22.5160 H   0  0  0  0  0  0  0  0  0  0  0  0
  -21.1960  -13.1470   22.3970 H   0  0  0  0  0  0  0  0  0  0  0  0
  -25.3790  -15.2890   20.3240 N   0  0  0  0  0  0  0  0  0  0  0  0
  -24.6180  -15.9390   20.4890 H   0  0  0  0  0  0  0  0  0  0  0  0
  -26.2160  -15.7410   19.9740 H   0  0  0  0  0  0  0  0  0  0  0  0
  1 49  1  0
  1  2  1  0
  2  4  2  0
  3  2  1  0
  3  6  1  0
  5  3  1  0
  7  6  1  0
  8 10  1  0
  8  7  1  0
  9 20  2  0
 10 15  1  0
 11 19  1  0
 11 21  1  0
 12 18  1  0
 12 14  1  0
 13 19  1  0
 14 15  2  0
 14 13  1  0
 16 10  2  0
 17 16  1  0
 17 12  2  0
 18 11  1  0
 19  9  1  0
 21 23  2  0
 22 21  1  0
 24 22  1  0
 25 34  2  0
 25 30  1  0
 26 22  1  0
 26 30  1  0
 27 26  1  0
 28 29  1  0
 28 27  1  0
 29 25  1  0
 30 31  2  0
 31 32  1  0
 33 32  2  0
 34 33  1  0
 35  9  1  0
 35 36  1  0
 35 45  1  0
 36 39  1  0
 37 41  1  0
 37 36  1  0
 38 37  2  0
 41 40  1  0
 43 41  1  0
 43 44  1  0
 43 42  1  0
 45 48  1  1
 45 46  1  0
 47 45  1  0
 49 56  1  0
 51 50  1  0
 52 54  1  0
 52 55  1  0
 53 50  1  0
 54 56  1  0
 55 66  1  0
 55 51  1  0
 56 53  1  0
 56 57  1  1
 58 66  1  0
 59 64  1  0
 60 61  1  0
 60 59  1  0
 62 61  1  0
 62 71  1  0
 62 63  1  0
 64 58  1  0
 64 63  1  0
 65 58  2  0
 66 67  1  0
 68 69  2  0
 69 88  1  0
 70 69  1  0
 70 73  1  0
 71 72  1  0
 71 68  1  0
 72 70  2  0
 73 74  1  0
 74 75  2  0
 76 79  1  0
 76 75  1  0
 77 76  2  0
 78 77  1  0
 78 73  2  0
 79 80  1  0
 80 81  1  0
 81 82  2  0
 83 82  1  0
 83 87  1  0
 84 83  2  0
 85 80  2  0
 85 84  1  0
 86 85  1  0
 88 89  1  0
 89 92  1  0
 89 91  1  0
 90 88  2  0
 93 68  1  0
 93 94  1  0
 95 93  1  0
M  ISO  4   7 101   8 101  58 100  66 100
M  END
>  <TORSDO>  (69) 
F 21

>  <SCORE>  (69) 
-12.784

>  <name>  (69) 
69

>  <ligand_id>  (69) 
69

>  <original_smiles>  (69) 
[H]c1c([H])c([H])c2c(c1[H])C([H])([H])C([H])([H])C([H])([H])C2([H])N([H])C(=O)C1([H])N(C(=O)C([H])(N([H])C(=O)C([H])(N([H])C([H])([H])[H])C([H])([H])[H])C(C([H])([H])[H])(C([H])([H])[H])C([H])([H])[H])C([H])([H])c2c([H])c(OC([H])([H])C([H])([H])N([H])C(=O)C([H])([H])C([H])([H])[N+]3([H])C([H])([H])C([H])([H])C([H])([H])C([H])(N([H])C(=O)N4C([H])([H])C([H])([H])C([H])([H])C([H])(n5nc(-c6c([H])c([H])c(Oc7c([H])c([H])c(F)c([H])c7F)c([H])c6[H])c(C(=O)N([H])[H])c5N([H])[H])C4([H])[H])C([H])([H])C3([H])[H])c([H])c([H])c2C1([H])[H]

>  <smiles>  (69) 
[H]c1c([H])c([H])c2c(c1[H])C([H])([H])C([H])([H])C([H])([H])C2([H])N([H])C(=O)C1([H])N(C(=O)C([H])(N([H])C(=O)C([H])(N([H])C([H])([H])[H])C([H])([H])[H])C(C([H])([H])[H])(C([H])([H])[H])C([H])([H])[H])C([H])([H])c2c([H])c(OC([H])([H])C([H])([H])N([H])C(=O)C([H])([H])C([H])([H])[N+]3([H])C([H])([H])C([H])([H])C([H])([H])C([H])(N([H])C(=O)N4C([H])([H])C([H])([H])C([H])([H])C([H])(n5nc(-c6c([H])c([H])c(Oc7c([H])c([H])c(F)c([H])c7F)c([H])c6[H])c(C(=O)N([H])[H])c5N([H])[H])C4([H])[H])C([H])([H])C3([H])[H])c([H])c([H])c2C1([H])[H]

$$$$
70:0:0
     RDKit          3D

 93102  0  0  1  0  0  0  0  0999 V2000
  -30.3860  -15.4660   20.2130 C   0  0  0  0  0  0  0  0  0  0  0  0
  -30.4450  -12.9260   19.6250 C   0  0  0  0  0  2  0  0  0  0  0  0
  -29.5690  -12.4860   18.4260 C   0  0  0  0  0  2  0  0  0  0  0  0
  -28.1290  -12.2010   18.8800 C   0  0  0  0  0  2  0  0  0  0  0  0
  -27.6010  -13.2920   19.8440 C   0  0  0  0  0  3  0  0  0  0  0  0
  -28.6130  -13.6670   20.9490 C   0  0  0  0  0  2  0  0  0  0  0  0
  -29.8250  -14.1510   20.2620 N   0  0  0  0  0  0  0  0  0  0  0  0
  -31.6250  -15.4280   20.1520 O   0  0  0  0  0  0  0  0  0  0  0  0
  -28.5870  -18.6760   18.6270 C   0  0  0  0  0  2  0  0  0  0  0  0
  -28.6710  -17.1090   19.0290 C   0  0  0  0  0  2  0  0  0  0  0  0
  -28.8930  -19.5620   19.8600 C   0  0  0  0  0  3  0  0  0  0  0  0
  -30.0100  -18.3390   20.4220 C   0  0  0  0  0  3  0  0  0  0  0  0
  -29.6620  -16.7860   20.1010 N   0  0  0  0  0  0  0  0  0  0  0  0
  -25.2530  -13.8700   20.6390 C   0  0  0  0  0  0  0  0  0  0  0  0
  -24.1800  -13.1030   20.9980 C   0  0  0  0  0  0  0  0  0  0  0  0
  -24.6250  -11.7470   20.9360 C   0  0  0  0  0  0  0  0  0  0  0  0
  -26.2780  -12.9840   20.3680 N   0  0  0  0  0  0  0  0  0  0  0  0
  -25.9140  -11.6980   20.6160 N   0  0  0  0  0  0  0  0  0  0  0  0
  -23.8770  -10.4930   21.1010 C   0  0  0  0  0  0  0  0  0  0  0  0
  -24.2910   -9.4980   22.0140 C   0  0  0  0  0  3  0  0  0  0  0  0
  -23.5410   -8.3130   22.1720 C   0  0  0  0  0  3  0  0  0  0  0  0
  -22.3610   -8.1140   21.4160 C   0  0  0  0  0  0  0  0  0  0  0  0
  -21.9630   -9.0980   20.4930 C   0  0  0  0  0  3  0  0  0  0  0  0
  -22.7140  -10.2750   20.3340 C   0  0  0  0  0  3  0  0  0  0  0  0
  -21.5820   -6.9840   21.4850 O   0  0  0  0  0  0  0  0  0  0  0  0
  -21.5190   -6.2210   22.6240 C   0  0  0  0  0  0  0  0  0  0  0  0
  -21.1200   -6.7660   23.8640 C   0  0  0  0  0  3  0  0  0  0  0  0
  -21.0020   -5.9320   24.9940 C   0  0  0  0  0  3  0  0  0  0  0  0
  -21.2720   -4.5550   24.8850 C   0  0  0  0  0  0  0  0  0  0  0  0
  -21.6670   -4.0110   23.6500 C   0  0  0  0  0  3  0  0  0  0  0  0
  -21.7860   -4.8410   22.5220 C   0  0  0  0  0  0  0  0  0  0  0  0
  -22.1450   -4.3070   21.3290 F   0  0  0  0  0  0  0  0  0  0  0  0
  -21.1520   -3.7510   25.9680 F   0  0  0  0  0  0  0  0  0  0  0  0
  -22.7930  -13.6000   21.2810 C   0  0  0  0  0  0  0  0  0  0  0  0
  -22.0600  -12.9060   22.1430 N   0  0  0  0  0  0  0  0  0  0  0  0
  -22.3700  -14.6370   20.7730 O   0  0  0  0  0  0  0  0  0  0  0  0
  -22.4150  -12.0660   22.5740 H   0  0  0  0  0  0  0  0  0  0  0  0
  -21.1270  -13.2200   22.3770 H   0  0  0  0  0  0  0  0  0  0  0  0
  -25.4360  -15.2420   20.4890 N   0  0  0  0  0  0  0  0  0  0  0  0
  -24.6780  -15.9030   20.6120 H   0  0  0  0  0  0  0  0  0  0  0  0
  -26.2870  -15.6710   20.1520 H   0  0  0  0  0  0  0  0  0  0  0  0
  -29.0480  -21.2520   19.7720 N   0  0  0  0  0  4  0  0  0  0  0  0
  -29.9430  -21.4040   19.3330 H   0  0  0  0  0  0  0  0  0  0  0  0
  -29.1700  -21.5250   20.7340 H   0  0  0  0  0  0  0  0  0  0  0  0
  -28.1260  -22.5340   19.1760 C   0  0  0  0  0  2  0  0  0  0  0  0
  -27.8470  -24.2380   19.7880 C   0  0  0  0  0  2  0  0  0  0  0  0
  -27.7650  -25.8170   19.2400 O   0  0  0  0  0  0  0  0  0  0  0  0
  -24.5440  -31.6800   22.8840 C   0  0  0  0  0  0  0  0  0  0  0  0
  -26.7520  -26.9060   19.4270 C   0  0  0  0  0  0  0  0  0  0  0  0
  -23.1980  -30.4010   21.2680 C   0  0  0  0  0  3  0  0  0  0  0  0
  -24.4970  -28.8410   19.6620 C   0  0  0  0  0  0  0  0  0  0  0  0
  -25.7520  -30.5690   20.9320 C   0  0  0  0  0  2  0  0  0  0  0  0
  -25.7400  -29.1910   20.2020 C   0  0  0  0  0  0  0  0  0  0  0  0
  -26.8620  -28.2510   20.0520 C   0  0  0  0  0  3  0  0  0  0  0  0
  -25.4730  -26.7120   18.8580 C   0  0  0  0  0  3  0  0  0  0  0  0
  -24.3870  -27.6240   18.9680 C   0  0  0  0  0  3  0  0  0  0  0  0
  -23.3080  -29.7870   19.8440 C   0  0  0  0  0  2  0  0  0  0  0  0
  -24.5270  -30.9070   21.7490 N   0  0  0  0  0  0  0  0  0  0  0  0
  -23.5050  -31.9580   23.5040 O   0  0  0  0  0  0  0  0  0  0  0  0
  -22.5560  -29.3680   22.2300 C   0  0  0  0  0  0  0  0  0  0  0  0
  -21.2170  -29.2260   22.1930 N   0  0  0  0  0  0  0  0  0  0  0  0
  -23.2690  -28.6900   22.9750 O   0  0  0  0  0  0  0  0  0  0  0  0
  -20.6920  -29.8200   21.5670 H   0  0  0  0  0  0  0  0  0  0  0  0
  -17.8690  -27.9870   22.8390 C   0  0  0  0  0  0  0  0  0  0  0  0
  -20.4390  -28.2600   22.9750 C   0  0  0  0  0  3  0  0  0  0  0  0
  -20.5170  -26.8480   22.3470 C   0  0  0  0  0  2  0  0  0  0  0  0
  -19.3650  -26.5550   21.3820 C   0  0  0  0  0  2  0  0  0  0  0  0
  -18.0170  -26.6650   22.1020 C   0  0  0  0  0  2  0  0  0  0  0  0
  -19.0050  -28.7420   23.2350 C   0  0  0  0  0  0  0  0  0  0  0  0
  -18.8090  -29.9770   23.8910 C   0  0  0  0  0  3  0  0  0  0  0  0
  -17.5110  -30.4570   24.1480 C   0  0  0  0  0  3  0  0  0  0  0  0
  -16.3910  -29.6990   23.7650 C   0  0  0  0  0  3  0  0  0  0  0  0
  -16.5720  -28.4650   23.1160 C   0  0  0  0  0  3  0  0  0  0  0  0
  -25.8710  -32.2670   23.4510 C   0  0  0  0  0  3  0  0  0  0  0  0
  -26.5150  -31.3640   24.5740 C   0  0  1  0  0  0  0  0  0  0  0  0
  -25.5380  -31.0030   25.7180 C   0  0  0  0  0  1  0  0  0  0  0  0
  -27.0480  -30.0410   23.9810 C   0  0  0  0  0  1  0  0  0  0  0  0
  -27.7310  -32.0890   25.1970 C   0  0  0  0  0  1  0  0  0  0  0  0
  -25.5860  -33.6100   23.9880 N   0  0  0  0  0  0  0  0  0  0  0  0
  -25.8640  -34.7620   23.3620 C   0  0  0  0  0  0  0  0  0  0  0  0
  -26.4510  -34.8040   22.2780 O   0  0  0  0  0  0  0  0  0  0  0  0
  -25.0560  -33.6480   24.8460 H   0  0  0  0  0  0  0  0  0  0  0  0
  -24.1210  -36.5800   23.4050 C   0  0  0  0  0  1  0  0  0  0  0  0
  -25.4240  -36.0740   24.0450 C   0  0  0  0  0  3  0  0  0  0  0  0
  -27.6270  -36.8570   24.8030 C   0  0  0  0  0  1  0  0  0  0  0  0
  -26.4480  -37.1410   23.9890 N   0  0  0  0  0  0  0  0  0  0  0  0
  -26.0600  -38.0290   24.2950 H   0  0  0  0  0  0  0  0  0  0  0  0
  -30.3350  -18.4270   21.9400 C   0  0  0  0  0  2  0  0  0  0  0  0
  -32.3280  -20.6860   23.5080 C   0  0  0  0  0  2  0  0  0  0  0  0
  -32.2210  -20.0760   22.1120 C   0  0  0  0  0  2  0  0  0  0  0  0
  -31.1230  -19.8180   23.8500 C   0  0  0  0  0  2  0  0  0  0  0  0
  -30.8230  -19.7470   22.4170 N   0  0  2  0  0  4  0  0  0  0  0  0
  -30.2210  -20.5180   22.1820 H   0  0  0  0  0  0  0  0  0  0  0  0
  1  7  1  0
  2  7  1  0
  3  4  1  0
  3  2  1  0
  5  4  1  0
  5 17  1  0
  5  6  1  0
  7  6  1  0
  8  1  2  0
  9 10  1  0
  9 11  1  0
 10 13  1  0
 11 42  1  0
 11 12  1  0
 12 88  1  0
 13  1  1  0
 13 12  1  0
 14 15  2  0
 15 34  1  0
 16 15  1  0
 16 19  1  0
 17 18  1  0
 17 14  1  0
 18 16  2  0
 19 20  1  0
 20 21  2  0
 22 25  1  0
 22 21  1  0
 23 22  2  0
 24 23  1  0
 24 19  2  0
 25 26  1  0
 26 27  1  0
 27 28  2  0
 29 28  1  0
 29 33  1  0
 30 29  2  0
 31 26  2  0
 31 30  1  0
 32 31  1  0
 34 35  1  0
 35 38  1  0
 35 37  1  0
 36 34  2  0
 39 40  1  0
 39 14  1  0
 41 39  1  0
 42 44  1  0
 43 42  1  0
 45 42  1  0
 45 46  1  0
 47 49  1  0
 47 46  1  0
 48 59  2  0
 49 54  1  0
 50 58  1  0
 50 60  1  0
 51 57  1  0
 51 53  1  0
 52 58  1  0
 53 52  1  0
 54 53  2  0
 55 56  1  0
 55 49  2  0
 56 51  2  0
 57 50  1  0
 58 48  1  0
 60 62  2  0
 61 60  1  0
 63 61  1  0
 64 73  2  0
 64 69  1  0
 65 61  1  0
 65 69  1  0
 66 65  1  0
 67 68  1  0
 67 66  1  0
 68 64  1  0
 69 70  2  0
 70 71  1  0
 72 71  2  0
 73 72  1  0
 74 48  1  0
 74 79  1  0
 74 75  1  0
 75 78  1  1
 75 76  1  0
 77 75  1  0
 79 82  1  0
 80 79  1  0
 80 84  1  0
 81 80  2  0
 84 83  1  0
 86 84  1  0
 86 87  1  0
 86 85  1  0
 88 92  1  0
 89 91  1  0
 90 92  1  0
 90 89  1  0
 92 91  1  0
 92 93  1  6
M  ISO  4   1 100  13 100  46 101  47 101
M  END
>  <TORSDO>  (70) 
F 20

>  <SCORE>  (70) 
-15.211

>  <name>  (70) 
70

>  <ligand_id>  (70) 
70

>  <original_smiles>  (70) 
[H]c1c([H])c([H])c2c(c1[H])C([H])([H])C([H])([H])C([H])([H])C2([H])N([H])C(=O)C1([H])N(C(=O)C([H])(N([H])C(=O)C([H])(N([H])C([H])([H])[H])C([H])([H])[H])C(C([H])([H])[H])(C([H])([H])[H])C([H])([H])[H])C([H])([H])c2c([H])c(OC([H])([H])C([H])([H])[N+]([H])([H])C3([H])C([H])([H])C([H])([H])N(C(=O)N4C([H])([H])C([H])([H])C([H])([H])C([H])(n5nc(-c6c([H])c([H])c(Oc7c([H])c([H])c(F)c([H])c7F)c([H])c6[H])c(C(=O)N([H])[H])c5N([H])[H])C4([H])[H])C3([H])C([H])([H])[N+]3([H])C([H])([H])C([H])([H])C3([H])[H])c([H])c([H])c2C1([H])[H]

>  <smiles>  (70) 
[H]c1c([H])c([H])c2c(c1[H])C([H])([H])C([H])([H])C([H])([H])C2([H])N([H])C(=O)C1([H])N(C(=O)C([H])(N([H])C(=O)C([H])(N([H])C([H])([H])[H])C([H])([H])[H])C(C([H])([H])[H])(C([H])([H])[H])C([H])([H])[H])C([H])([H])c2c([H])c(OC([H])([H])C([H])([H])[N+]([H])([H])C3([H])C([H])([H])C([H])([H])N(C(=O)N4C([H])([H])C([H])([H])C([H])([H])C([H])(n5nc(-c6c([H])c([H])c(Oc7c([H])c([H])c(F)c([H])c7F)c([H])c6[H])c(C(=O)N([H])[H])c5N([H])[H])C4([H])[H])C3([H])C([H])([H])[N+]3([H])C([H])([H])C([H])([H])C3([H])[H])c([H])c([H])c2C1([H])[H]

$$$$
71:0:0
     RDKit          3D

 97102  0  0  1  0  0  0  0  0999 V2000
  -25.0550  -23.5180   20.3190 C   0  0  0  0  0  2  0  0  0  0  0  0
  -24.1680  -24.1730   19.1000 C   0  0  0  0  0  2  0  0  0  0  0  0
  -23.1520  -23.2240   18.1980 C   0  0  0  0  0  2  0  0  0  0  0  0
  -22.6720  -23.3660   16.6870 N   0  0  0  0  0  4  0  0  0  0  0  0
  -22.0340  -24.1400   16.7310 H   0  0  0  0  0  0  0  0  0  0  0  0
  -22.0740  -22.5690   16.5340 H   0  0  0  0  0  0  0  0  0  0  0  0
  -23.4530  -23.5890   15.2810 C   0  0  0  0  0  1  0  0  0  0  0  0
  -26.0200  -25.4190   15.2470 C   0  0  0  0  0  1  0  0  0  0  0  0
  -26.0360  -27.3410   15.9300 O   0  0  0  0  0  1  0  0  0  0  0  0
  -31.2400  -27.6260   14.9290 C   0  0  0  0  0  0  0  0  0  0  0  0
  -26.2330  -28.4330   17.0010 C   0  0  0  0  0  3  0  0  0  0  0  0
  -29.5250  -26.1920   15.8520 C   0  0  0  0  0  3  0  0  0  0  0  0
  -28.0640  -27.0130   17.8090 C   0  0  0  0  0  3  0  0  0  0  0  0
  -29.9670  -28.4100   16.9590 C   0  0  0  0  0  2  0  0  0  0  0  0
  -28.5210  -28.2760   17.4080 C   0  0  0  0  0  3  0  0  0  0  0  0
  -27.4840  -29.1700   17.1090 C   0  0  0  0  0  2  0  0  0  0  0  0
  -25.8830  -27.9790   18.2480 C   0  0  0  0  0  2  0  0  0  0  0  0
  -26.7610  -26.9010   18.3880 C   0  0  0  0  0  2  0  0  0  0  0  0
  -28.8170  -25.8590   17.2210 C   0  0  0  0  0  2  0  0  0  0  0  0
  -30.3210  -27.4240   15.9140 N   0  0  0  0  0  0  0  0  0  0  0  0
  -31.4650  -26.7720   14.0540 O   0  0  0  0  0  0  0  0  0  0  0  0
  -28.6410  -26.3770   14.6130 C   0  0  0  0  0  3  0  0  0  0  0  0
  -29.1620  -27.0150   13.6180 N   0  0  0  0  0  0  0  0  0  0  0  0
  -27.4860  -25.9690   14.5150 O   0  0  0  0  0  0  0  0  0  0  0  0
  -30.0650  -27.4610   13.6840 H   0  0  0  0  0  0  0  0  0  0  0  0
  -29.1870  -29.4950   11.2580 C   0  0  0  0  0  0  0  0  0  0  0  0
  -28.5490  -26.9080   12.3310 C   0  0  0  0  0  2  0  0  0  0  0  0
  -29.2040  -25.5480   10.9100 C   0  0  0  0  0 15  0  0  0  0  0  0
  -30.6600  -26.9780    9.6350 C   0  0  0  0  0  1  0  0  0  0  0  0
  -30.4690  -28.8240   10.2540 C   0  0  0  0  0  2  0  0  0  0  0  0
  -28.4540  -28.6300   12.2220 C   0  0  0  0  0  0  0  0  0  0  0  0
  -27.5100  -29.2860   13.1030 C   0  0  0  0  0  3  0  0  0  0  0  0
  -27.1330  -30.6510   13.0350 C   0  0  0  0  0  3  0  0  0  0  0  0
  -27.6470  -31.4310   11.9880 C   0  0  0  0  0  3  0  0  0  0  0  0
  -28.6360  -30.8540   11.1220 C   0  0  0  0  0  3  0  0  0  0  0  0
  -32.0630  -28.9310   14.8840 C   0  0  0  0  0  3  0  0  0  0  0  0
  -31.6280  -29.9090   13.7280 C   0  0  1  0  0  0  0  0  0  0  0  0
  -31.5300  -29.2420   12.3350 C   0  0  0  0  0  1  0  0  0  0  0  0
  -30.2570  -30.5520   14.0390 C   0  0  0  0  0  1  0  0  0  0  0  0
  -32.6480  -31.0640   13.6340 C   0  0  0  0  0  1  0  0  0  0  0  0
  -33.4530  -28.5070   14.7120 N   0  0  0  0  0  0  0  0  0  0  0  0
  -34.3110  -28.3410   15.7230 C   0  0  0  0  0  0  0  0  0  0  0  0
  -34.0380  -28.6370   16.8890 O   0  0  0  0  0  0  0  0  0  0  0  0
  -33.7320  -28.1960   13.7930 H   0  0  0  0  0  0  0  0  0  0  0  0
  -35.7640  -26.2860   15.7940 C   0  0  0  0  0  1  0  0  0  0  0  0
  -35.6970  -27.7650   15.3820 C   0  0  0  0  0  3  0  0  0  0  0  0
  -36.9730  -29.8580   15.4660 C   0  0  0  0  0  1  0  0  0  0  0  0
  -36.8050  -28.5130   16.0100 N   0  0  0  0  0  0  0  0  0  0  0  0
  -37.6830  -28.0150   15.8940 H   0  0  0  0  0  0  0  0  0  0  0  0
  -26.6940  -23.3320   20.3700 C   0  0  0  0  0  2  0  0  0  0  0  0
  -27.7770  -22.7650   18.1120 C   0  0  0  0  0  1  0  0  0  0  0  0
  -27.4500  -22.1610   19.4830 C   0  0  0  0  0  3  0  0  0  0  0  0
  -28.7230  -21.2970   20.0900 C   0  0  0  0  0  2  0  0  0  0  0  0
  -33.4710  -17.7810   18.3650 C   0  0  0  0  0  0  0  0  0  0  0  0
  -35.8920  -17.2620   18.9130 C   0  0  0  0  0  2  0  0  0  0  0  0
  -36.2440  -17.6150   20.3810 C   0  0  0  0  0  2  0  0  0  0  0  0
  -36.5320  -19.1210   20.5510 C   0  0  0  0  0  2  0  0  0  0  0  0
  -35.4910  -19.9990   19.8120 C   0  0  0  0  0  3  0  0  0  0  0  0
  -35.3520  -19.5130   18.3530 C   0  0  0  0  0  2  0  0  0  0  0  0
  -34.7990  -18.1680   18.4520 N   0  0  0  0  0  0  0  0  0  0  0  0
  -33.2670  -16.5590   18.2880 O   0  0  0  0  0  0  0  0  0  0  0  0
  -30.9800  -18.1510   18.7800 C   0  0  0  0  0  2  0  0  0  0  0  0
  -29.8100  -19.0400   19.4420 C   0  0  0  0  0  2  0  0  0  0  0  0
  -31.1970  -20.9380   19.3390 C   0  0  0  0  0  2  0  0  0  0  0  0
  -32.2350  -20.1640   18.4140 C   0  0  0  0  0  3  0  0  0  0  0  0
  -32.0500  -20.5000   16.9180 C   0  0  0  0  0  1  0  0  0  0  0  0
  -32.3790  -18.6800   18.6030 N   0  0  0  0  0  0  0  0  0  0  0  0
  -29.7710  -20.5330   19.2040 N   0  0  2  0  0  4  0  0  0  0  0  0
  -29.5030  -20.6720   18.2410 H   0  0  0  0  0  0  0  0  0  0  0  0
  -35.1020  -22.4450   20.4650 C   0  0  0  0  0  0  0  0  0  0  0  0
  -35.8580  -23.5720   20.2870 C   0  0  0  0  0  0  0  0  0  0  0  0
  -37.0360  -23.1430   19.6050 C   0  0  0  0  0  0  0  0  0  0  0  0
  -35.8150  -21.4140   19.8800 N   0  0  0  0  0  0  0  0  0  0  0  0
  -36.9630  -21.8530   19.3120 N   0  0  0  0  0  0  0  0  0  0  0  0
  -38.2630  -23.8710   19.2700 C   0  0  0  0  0  0  0  0  0  0  0  0
  -38.6730  -24.0390   17.9310 C   0  0  0  0  0  3  0  0  0  0  0  0
  -39.8480  -24.7590   17.6280 C   0  0  0  0  0  3  0  0  0  0  0  0
  -40.6250  -25.3200   18.6690 C   0  0  0  0  0  0  0  0  0  0  0  0
  -40.2240  -25.1260   20.0040 C   0  0  0  0  0  3  0  0  0  0  0  0
  -39.0580  -24.4030   20.3050 C   0  0  0  0  0  3  0  0  0  0  0  0
  -41.7950  -26.0130   18.4670 O   0  0  0  0  0  0  0  0  0  0  0  0
  -41.9760  -26.8190   17.3720 C   0  0  0  0  0  0  0  0  0  0  0  0
  -41.1210  -27.9100   17.1040 C   0  0  0  0  0  3  0  0  0  0  0  0
  -41.3890  -28.7630   16.0150 C   0  0  0  0  0  3  0  0  0  0  0  0
  -42.5070  -28.5260   15.1920 C   0  0  0  0  0  0  0  0  0  0  0  0
  -43.3590  -27.4410   15.4580 C   0  0  0  0  0  3  0  0  0  0  0  0
  -43.0980  -26.5930   16.5490 C   0  0  0  0  0  0  0  0  0  0  0  0
  -43.9370  -25.5650   16.8160 F   0  0  0  0  0  0  0  0  0  0  0  0
  -42.7650  -29.3470   14.1450 F   0  0  0  0  0  0  0  0  0  0  0  0
  -35.5650  -24.9380   20.8330 C   0  0  0  0  0  0  0  0  0  0  0  0
  -36.0360  -25.9810   20.1580 N   0  0  0  0  0  0  0  0  0  0  0  0
  -34.8850  -25.0890   21.8450 O   0  0  0  0  0  0  0  0  0  0  0  0
  -36.5920  -25.8600   19.3240 H   0  0  0  0  0  0  0  0  0  0  0  0
  -35.8460  -26.9160   20.4910 H   0  0  0  0  0  0  0  0  0  0  0  0
  -33.8960  -22.2050   21.1050 N   0  0  0  0  0  0  0  0  0  0  0  0
  -33.4200  -22.9470   21.6050 H   0  0  0  0  0  0  0  0  0  0  0  0
  -33.6370  -21.2690   21.3980 H   0  0  0  0  0  0  0  0  0  0  0  0
  1 50  1  0
  2  1  1  0
  3  2  1  0
  4  5  1  0
  4  3  1  0
  6  4  1  0
  7  4  1  0
 10 20  1  0
 11  9  1  0
 11 16  1  0
 11 17  1  0
 12 22  1  0
 12 20  1  0
 12 19  1  0
 13 19  1  0
 13 18  1  0
 15 14  1  0
 15 13  1  0
 16 15  1  0
 17 18  1  0
 20 14  1  0
 21 10  2  0
 22 24  1  0
 23 25  1  0
 23 22  1  0
 24  8  1  0
 26 31  1  0
 27 23  1  0
 29 30  1  0
 30 26  1  0
 31 27  1  0
 31 32  2  0
 33 32  1  0
 34 33  2  0
 35 26  2  0
 35 34  1  0
 36 10  1  0
 37 39  1  1
 37 36  1  0
 38 37  1  0
 40 37  1  0
 41 36  1  0
 41 42  1  0
 42 43  2  0
 44 41  1  0
 46 42  1  0
 46 45  1  0
 46 48  1  0
 47 48  1  0
 49 48  1  0
 52 51  1  0
 52 53  1  0
 52 50  1  0
 54 60  1  0
 54 67  1  0
 55 56  1  0
 56 57  1  0
 58 59  1  0
 58 73  1  0
 58 57  1  0
 59 60  1  0
 60 55  1  0
 61 54  2  0
 62 63  1  0
 65 66  1  0
 65 67  1  0
 65 64  1  0
 67 62  1  0
 68 64  1  0
 68 63  1  0
 68 53  1  0
 68 69  1  6
 70 95  1  0
 71 70  2  0
 71 90  1  0
 72 71  1  0
 73 70  1  0
 74 72  2  0
 74 73  1  0
 75 72  1  0
 75 80  1  0
 76 75  2  0
 77 76  1  0
 77 78  2  0
 78 79  1  0
 79 80  2  0
 81 78  1  0
 82 81  1  0
 83 82  1  0
 84 83  2  0
 85 86  2  0
 85 84  1  0
 86 87  1  0
 87 88  1  0
 87 82  2  0
 89 85  1  0
 90 92  2  0
 91 94  1  0
 91 90  1  0
 93 91  1  0
 95 97  1  0
 95 96  1  0
M  ISO  4   8 101   9 101  54 100  67 100
M  END
>  <TORSDO>  (71) 
F 24

>  <SCORE>  (71) 
2.355

>  <name>  (71) 
71

>  <ligand_id>  (71) 
71

>  <original_smiles>  (71) 
[H]c1c([H])c([H])c2c(c1[H])C([H])([H])C([H])([H])C([H])([H])C2([H])N([H])C(=O)C1([H])N(C(=O)C([H])(N([H])C(=O)C([H])(N([H])C([H])([H])[H])C([H])([H])[H])C(C([H])([H])[H])(C([H])([H])[H])C([H])([H])[H])C([H])([H])c2c([H])c(OC([H])([H])C([H])([H])[N+]([H])([H])C([H])([H])C([H])([H])C([H])([H])C([H])([H])C([H])(C([H])([H])[H])C([H])([H])[N+]3([H])C([H])([H])C([H])([H])N(C(=O)N4C([H])([H])C([H])([H])C([H])([H])C([H])(n5nc(-c6c([H])c([H])c(Oc7c([H])c([H])c(F)c([H])c7F)c([H])c6[H])c(C(=O)N([H])[H])c5N([H])[H])C4([H])[H])C([H])(C([H])([H])[H])C3([H])[H])c([H])c([H])c2C1([H])[H]

>  <smiles>  (71) 
[H]c1c([H])c([H])c2c(c1[H])C([H])([H])C([H])([H])C([H])([H])C2([H])N([H])C(=O)C1([H])N(C(=O)C([H])(N([H])C(=O)C([H])(N([H])C([H])([H])[H])C([H])([H])[H])C(C([H])([H])[H])(C([H])([H])[H])C([H])([H])[H])C([H])([H])c2c([H])c(OC([H])([H])C([H])([H])[N+]([H])([H])C([H])([H])C([H])([H])C([H])([H])C([H])([H])C([H])(C([H])([H])[H])C([H])([H])[N+]3([H])C([H])([H])C([H])([H])N(C(=O)N4C([H])([H])C([H])([H])C([H])([H])C([H])(n5nc(-c6c([H])c([H])c(Oc7c([H])c([H])c(F)c([H])c7F)c([H])c6[H])c(C(=O)N([H])[H])c5N([H])[H])C4([H])[H])C([H])(C([H])([H])[H])C3([H])[H])c([H])c([H])c2C1([H])[H]

$$$$
72:0:0
     RDKit          3D

 97105  0  0  1  0  0  0  0  0999 V2000
  -26.4500  -21.7740   21.1810 C   0  0  0  0  0  2  0  0  0  0  0  0
  -27.7630  -21.3030   20.5300 C   0  0  0  0  0  2  0  0  0  0  0  0
  -27.8210  -19.7850   20.3650 C   0  0  0  0  0  2  0  0  0  0  0  0
  -29.3370  -17.8270   20.2720 C   0  0  0  0  0  2  0  0  0  0  0  0
  -29.2440  -19.2960   18.2480 C   0  0  0  0  0  2  0  0  0  0  0  0
  -30.7610  -17.3580   18.2130 C   0  0  0  0  0  2  0  0  0  0  0  0
  -29.1530  -19.2640   19.7960 C   0  0  0  0  0  3  0  0  0  0  0  0
  -30.6490  -17.2210   19.7690 C   0  0  0  0  0  3  0  0  0  0  0  0
  -30.7460  -18.9540   16.3160 C   0  0  0  0  0  1  0  0  0  0  0  0
  -30.5480  -18.7640   17.7750 N   0  0  1  0  0  4  0  0  0  0  0  0
  -31.2640  -19.3200   18.2170 H   0  0  0  0  0  0  0  0  0  0  0  0
  -31.3410  -14.8170   19.8090 C   0  0  0  0  0  0  0  0  0  0  0  0
  -31.0380  -12.5330   18.9790 C   0  0  0  0  0  2  0  0  0  0  0  0
  -30.0750  -12.5880   17.7760 C   0  0  0  0  0  2  0  0  0  0  0  0
  -28.6120  -12.4830   18.2450 C   0  0  0  0  0  2  0  0  0  0  0  0
  -28.2750  -13.4760   19.3900 C   0  0  0  0  0  3  0  0  0  0  0  0
  -29.3580  -13.4270   20.4970 C   0  0  0  0  0  2  0  0  0  0  0  0
  -30.6840  -13.6360   19.8790 N   0  0  0  0  0  0  0  0  0  0  0  0
  -32.4120  -14.9900   19.2250 O   0  0  0  0  0  0  0  0  0  0  0  0
  -30.6300  -15.8480   20.2540 N   0  0  0  0  0  0  0  0  0  0  0  0
  -29.8310  -15.5930   20.8130 H   0  0  0  0  0  0  0  0  0  0  0  0
  -25.9230  -14.1360   20.2180 C   0  0  0  0  0  0  0  0  0  0  0  0
  -24.8550  -13.3830   20.6280 C   0  0  0  0  0  0  0  0  0  0  0  0
  -25.2770  -12.0230   20.5580 C   0  0  0  0  0  0  0  0  0  0  0  0
  -26.9350  -13.2310   19.9270 N   0  0  0  0  0  0  0  0  0  0  0  0
  -26.5490  -11.9540   20.1830 N   0  0  0  0  0  0  0  0  0  0  0  0
  -24.5300  -10.7770   20.7690 C   0  0  0  0  0  0  0  0  0  0  0  0
  -24.8820   -9.8730   21.7940 C   0  0  0  0  0  3  0  0  0  0  0  0
  -24.1410   -8.6900   21.9920 C   0  0  0  0  0  3  0  0  0  0  0  0
  -23.0290   -8.4030   21.1660 C   0  0  0  0  0  0  0  0  0  0  0  0
  -22.6960   -9.2950   20.1310 C   0  0  0  0  0  3  0  0  0  0  0  0
  -23.4410  -10.4710   19.9310 C   0  0  0  0  0  3  0  0  0  0  0  0
  -22.2670   -7.2660   21.2680 O   0  0  0  0  0  0  0  0  0  0  0  0
  -21.9990   -6.6810   22.4810 C   0  0  0  0  0  0  0  0  0  0  0  0
  -21.3380   -7.3780   23.5140 C   0  0  0  0  0  3  0  0  0  0  0  0
  -21.0160   -6.7180   24.7170 C   0  0  0  0  0  3  0  0  0  0  0  0
  -21.3440   -5.3600   24.8850 C   0  0  0  0  0  0  0  0  0  0  0  0
  -21.9950   -4.6610   23.8510 C   0  0  0  0  0  3  0  0  0  0  0  0
  -22.3160   -5.3180   22.6520 C   0  0  0  0  0  0  0  0  0  0  0  0
  -22.9250   -4.6340   21.6530 F   0  0  0  0  0  0  0  0  0  0  0  0
  -21.0300   -4.7220   26.0360 F   0  0  0  0  0  0  0  0  0  0  0  0
  -23.4850  -13.8910   20.9770 C   0  0  0  0  0  0  0  0  0  0  0  0
  -22.7970  -13.2190   21.8890 N   0  0  0  0  0  0  0  0  0  0  0  0
  -23.0410  -14.9210   20.4740 O   0  0  0  0  0  0  0  0  0  0  0  0
  -23.1760  -12.3950   22.3270 H   0  0  0  0  0  0  0  0  0  0  0  0
  -21.8730  -13.5380   22.1510 H   0  0  0  0  0  0  0  0  0  0  0  0
  -26.1110  -15.5050   20.0540 N   0  0  0  0  0  0  0  0  0  0  0  0
  -25.3710  -16.1790   20.2260 H   0  0  0  0  0  0  0  0  0  0  0  0
  -26.9660  -15.9360   19.7280 H   0  0  0  0  0  0  0  0  0  0  0  0
  -26.1250  -23.2240   20.8060 C   0  0  0  0  0  2  0  0  0  0  0  0
  -26.1010  -23.3810   19.3350 N   0  0  0  0  0  4  0  0  0  0  0  0
  -25.1880  -23.1300   18.9830 H   0  0  0  0  0  0  0  0  0  0  0  0
  -26.7490  -22.7200   18.9420 H   0  0  0  0  0  0  0  0  0  0  0  0
  -26.4640  -24.7280   18.8660 C   0  0  0  0  0  2  0  0  0  0  0  0
  -27.9960  -24.9790   18.8390 C   0  0  0  0  0  2  0  0  0  0  0  0
  -28.5250  -26.3230   18.2540 C   0  0  0  0  0  2  0  0  0  0  0  0
  -28.4680  -27.4570   19.1380 O   0  0  0  0  0  0  0  0  0  0  0  0
  -24.5550  -31.8090   23.2220 C   0  0  0  0  0  0  0  0  0  0  0  0
  -27.2600  -28.0970   19.3150 C   0  0  0  0  0  0  0  0  0  0  0  0
  -23.3420  -30.5510   21.4830 C   0  0  0  0  0  3  0  0  0  0  0  0
  -24.7830  -29.3800   19.7470 C   0  0  0  0  0  0  0  0  0  0  0  0
  -25.8170  -31.1300   21.1870 C   0  0  0  0  0  2  0  0  0  0  0  0
  -25.9450  -29.8770   20.3530 C   0  0  0  0  0  0  0  0  0  0  0  0
  -27.1810  -29.2200   20.1700 C   0  0  0  0  0  3  0  0  0  0  0  0
  -26.0910  -27.6980   18.6340 C   0  0  0  0  0  3  0  0  0  0  0  0
  -24.8480  -28.2740   18.8980 C   0  0  0  0  0  3  0  0  0  0  0  0
  -23.4920  -30.1090   20.0060 C   0  0  0  0  0  2  0  0  0  0  0  0
  -24.5930  -31.1740   22.0190 N   0  0  0  0  0  0  0  0  0  0  0  0
  -23.4980  -31.9150   23.8610 O   0  0  0  0  0  0  0  0  0  0  0  0
  -22.8520  -29.3450   22.3160 C   0  0  0  0  0  0  0  0  0  0  0  0
  -21.5600  -28.9990   22.1610 N   0  0  0  0  0  0  0  0  0  0  0  0
  -23.6230  -28.7320   23.0580 O   0  0  0  0  0  0  0  0  0  0  0  0
  -20.9890  -29.5630   21.5500 H   0  0  0  0  0  0  0  0  0  0  0  0
  -18.4160  -27.2380   22.4010 C   0  0  0  0  0  0  0  0  0  0  0  0
  -20.8880  -27.8730   22.8130 C   0  0  0  0  0  3  0  0  0  0  0  0
  -21.2410  -26.5390   22.1160 C   0  0  0  0  0  2  0  0  0  0  0  0
  -20.2340  -26.1470   21.0300 C   0  0  0  0  0  2  0  0  0  0  0  0
  -18.8300  -26.0030   21.6200 C   0  0  0  0  0  2  0  0  0  0  0  0
  -19.3820  -28.1280   22.9460 C   0  0  0  0  0  0  0  0  0  0  0  0
  -18.9420  -29.2870   23.6160 C   0  0  0  0  0  3  0  0  0  0  0  0
  -17.5680  -29.5600   23.7580 C   0  0  0  0  0  3  0  0  0  0  0  0
  -16.6180  -28.6680   23.2350 C   0  0  0  0  0  3  0  0  0  0  0  0
  -17.0430  -27.5110   22.5610 C   0  0  0  0  0  3  0  0  0  0  0  0
  -25.8350  -32.4560   23.8360 C   0  0  0  0  0  3  0  0  0  0  0  0
  -25.4940  -33.8360   24.2050 N   0  0  0  0  0  0  0  0  0  0  0  0
  -25.7620  -34.9140   23.4560 C   0  0  0  0  0  0  0  0  0  0  0  0
  -26.4030  -34.8610   22.4010 O   0  0  0  0  0  0  0  0  0  0  0  0
  -24.9150  -33.9550   25.0250 H   0  0  0  0  0  0  0  0  0  0  0  0
  -23.9510  -36.6400   23.2100 C   0  0  0  0  0  1  0  0  0  0  0  0
  -25.2420  -36.2740   23.9570 C   0  0  0  0  0  3  0  0  0  0  0  0
  -27.3760  -37.2290   24.7060 C   0  0  0  0  0  1  0  0  0  0  0  0
  -26.2270  -37.3680   23.8120 N   0  0  0  0  0  0  0  0  0  0  0  0
  -25.7920  -38.2690   23.9910 H   0  0  0  0  0  0  0  0  0  0  0  0
  -26.3990  -31.6610   25.0770 C   0  0  1  0  0  0  0  0  0  0  0  0
  -25.3340  -31.3550   26.1540 C   0  0  0  0  0  1  0  0  0  0  0  0
  -27.0130  -30.3110   24.6380 C   0  0  0  0  0  1  0  0  0  0  0  0
  -27.5370  -32.4670   25.7450 C   0  0  0  0  0  1  0  0  0  0  0  0
  2  1  1  0
  3  2  1  0
  5  7  1  0
  6  8  1  0
  7  4  1  0
  7  3  1  0
  8 20  1  0
  8  4  1  0
  9 10  1  0
 10  6  1  0
 10 11  1  1
 10  5  1  0
 12 18  1  0
 12 20  1  0
 13 18  1  0
 14 15  1  0
 14 13  1  0
 16 15  1  0
 16 25  1  0
 16 17  1  0
 18 17  1  0
 19 12  2  0
 20 21  1  0
 22 23  2  0
 23 42  1  0
 24 23  1  0
 24 27  1  0
 25 26  1  0
 25 22  1  0
 26 24  2  0
 27 28  1  0
 28 29  2  0
 30 33  1  0
 30 29  1  0
 31 30  2  0
 32 31  1  0
 32 27  2  0
 33 34  1  0
 34 39  2  0
 34 35  1  0
 35 36  2  0
 36 37  1  0
 37 41  1  0
 38 37  2  0
 39 38  1  0
 40 39  1  0
 42 43  1  0
 43 46  1  0
 43 45  1  0
 44 42  2  0
 47 22  1  0
 47 48  1  0
 49 47  1  0
 50  1  1  0
 51 50  1  0
 52 51  1  0
 53 51  1  0
 54 51  1  0
 55 54  1  0
 56 55  1  0
 56 57  1  0
 57 59  1  0
 58 69  2  0
 59 64  1  0
 60 68  1  0
 60 70  1  0
 61 67  1  0
 61 63  1  0
 62 68  1  0
 63 62  1  0
 64 63  2  0
 65 66  1  0
 65 59  2  0
 66 61  2  0
 67 60  1  0
 68 58  1  0
 70 72  2  0
 71 70  1  0
 73 71  1  0
 74 83  2  0
 74 79  1  0
 75 71  1  0
 75 79  1  0
 76 75  1  0
 77 78  1  0
 77 76  1  0
 78 74  1  0
 79 80  2  0
 80 81  1  0
 82 81  2  0
 83 82  1  0
 84 58  1  0
 84 85  1  0
 84 94  1  0
 85 88  1  0
 86 90  1  0
 86 85  1  0
 87 86  2  0
 90 89  1  0
 92 90  1  0
 92 93  1  0
 92 91  1  0
 94 97  1  1
 94 95  1  0
 96 94  1  0
M  ISO  4  12 100  20 100  56 101  57 101
M  END
>  <TORSDO>  (72) 
F 24

>  <SCORE>  (72) 
-9.291

>  <name>  (72) 
72

>  <ligand_id>  (72) 
72

>  <original_smiles>  (72) 
[H]c1c([H])c([H])c2c(c1[H])C([H])([H])C([H])([H])C([H])([H])C2([H])N([H])C(=O)C1([H])N(C(=O)C([H])(N([H])C(=O)C([H])(N([H])C([H])([H])[H])C([H])([H])[H])C(C([H])([H])[H])(C([H])([H])[H])C([H])([H])[H])C([H])([H])c2c([H])c(OC([H])([H])C([H])([H])C([H])([H])[N+]([H])([H])C([H])([H])C([H])([H])C([H])([H])C([H])([H])C3([H])C([H])([H])C([H])(N([H])C(=O)N4C([H])([H])C([H])([H])C([H])([H])C([H])(n5nc(-c6c([H])c([H])c(Oc7c([H])c([H])c(F)c([H])c7F)c([H])c6[H])c(C(=O)N([H])[H])c5N([H])[H])C4([H])[H])C([H])([H])[N+]([H])(C([H])([H])[H])C3([H])[H])c([H])c([H])c2C1([H])[H]

>  <smiles>  (72) 
[H]c1c([H])c([H])c2c(c1[H])C([H])([H])C([H])([H])C([H])([H])C2([H])N([H])C(=O)C1([H])N(C(=O)C([H])(N([H])C(=O)C([H])(N([H])C([H])([H])[H])C([H])([H])[H])C(C([H])([H])[H])(C([H])([H])[H])C([H])([H])[H])C([H])([H])c2c([H])c(OC([H])([H])C([H])([H])C([H])([H])[N+]([H])([H])C([H])([H])C([H])([H])C([H])([H])C([H])([H])C3([H])C([H])([H])C([H])(N([H])C(=O)N4C([H])([H])C([H])([H])C([H])([H])C([H])(n5nc(-c6c([H])c([H])c(Oc7c([H])c([H])c(F)c([H])c7F)c([H])c6[H])c(C(=O)N([H])[H])c5N([H])[H])C4([H])[H])C([H])([H])[N+]([H])(C([H])([H])[H])C3([H])[H])c([H])c([H])c2C1([H])[H]

$$$$
73:0:0
     RDKit          3D

 97105  0  0  1  0  0  0  0  0999 V2000
  -30.9730  -19.7660   20.3680 C   0  0  0  0  0  2  0  0  0  0  0  0
  -30.5740  -17.4410   23.2500 C   0  0  0  0  0  2  0  0  0  0  0  0
  -30.9830  -19.7880   22.8460 C   0  0  0  0  0  2  0  0  0  0  0  0
  -30.5400  -18.8160   23.9440 C   0  0  0  0  0  3  0  0  0  0  0  0
  -30.8800  -17.7500   21.7690 C   0  0  0  0  0  3  0  0  0  0  0  0
  -30.4820  -19.1640   21.6220 N   0  0  0  0  0  0  0  0  0  0  0  0
  -31.3750  -18.9220   25.1580 N   0  0  0  0  0  4  0  0  0  0  0  0
  -32.3570  -18.8130   24.9680 H   0  0  0  0  0  0  0  0  0  0  0  0
  -31.0990  -18.2410   25.8430 H   0  0  0  0  0  0  0  0  0  0  0  0
  -31.2460  -19.8260   25.5800 H   0  0  0  0  0  0  0  0  0  0  0  0
  -30.2100  -16.8340   20.7110 C   0  0  0  0  0  2  0  0  0  0  0  0
  -30.9500  -14.4550   20.3790 C   0  0  0  0  0  0  0  0  0  0  0  0
  -30.6570  -12.3250   19.1580 C   0  0  0  0  0  2  0  0  0  0  0  0
  -29.7090  -12.5620   17.9560 C   0  0  0  0  0  2  0  0  0  0  0  0
  -28.2300  -12.4650   18.3850 C   0  0  0  0  0  2  0  0  0  0  0  0
  -27.9170  -13.2810   19.6650 C   0  0  0  0  0  3  0  0  0  0  0  0
  -28.9580  -12.9730   20.7680 C   0  0  0  0  0  2  0  0  0  0  0  0
  -30.2980  -13.2710   20.2260 N   0  0  0  0  0  0  0  0  0  0  0  0
  -32.0350  -14.7040   19.8430 O   0  0  0  0  0  0  0  0  0  0  0  0
  -30.2320  -15.4000   21.0170 N   0  0  0  0  0  0  0  0  0  0  0  0
  -29.4050  -15.0450   21.4720 H   0  0  0  0  0  0  0  0  0  0  0  0
  -25.5150  -13.9400   20.3370 C   0  0  0  0  0  0  0  0  0  0  0  0
  -24.4360  -13.1910   20.7160 C   0  0  0  0  0  0  0  0  0  0  0  0
  -24.8800  -11.8330   20.7180 C   0  0  0  0  0  0  0  0  0  0  0  0
  -26.5520  -13.0420   20.1310 N   0  0  0  0  0  0  0  0  0  0  0  0
  -26.1700  -11.7710   20.4140 N   0  0  0  0  0  0  0  0  0  0  0  0
  -24.1400  -10.5830   20.9300 C   0  0  0  0  0  0  0  0  0  0  0  0
  -24.5440   -9.6410   21.9010 C   0  0  0  0  0  3  0  0  0  0  0  0
  -23.8060   -8.4550   22.1030 C   0  0  0  0  0  3  0  0  0  0  0  0
  -22.6490   -8.2020   21.3260 C   0  0  0  0  0  0  0  0  0  0  0  0
  -22.2630   -9.1310   20.3450 C   0  0  0  0  0  3  0  0  0  0  0  0
  -23.0030  -10.3100   20.1450 C   0  0  0  0  0  3  0  0  0  0  0  0
  -21.8880   -7.0630   21.4310 O   0  0  0  0  0  0  0  0  0  0  0  0
  -21.7810   -6.3730   22.6100 C   0  0  0  0  0  0  0  0  0  0  0  0
  -21.3220   -6.9900   23.7960 C   0  0  0  0  0  3  0  0  0  0  0  0
  -21.1630   -6.2270   24.9690 C   0  0  0  0  0  3  0  0  0  0  0  0
  -21.4550   -4.8510   24.9590 C   0  0  0  0  0  0  0  0  0  0  0  0
  -21.9080   -4.2340   23.7800 C   0  0  0  0  0  3  0  0  0  0  0  0
  -22.0690   -4.9930   22.6070 C   0  0  0  0  0  0  0  0  0  0  0  0
  -22.4870   -4.3900   21.4680 F   0  0  0  0  0  0  0  0  0  0  0  0
  -21.2940   -4.1170   26.0830 F   0  0  0  0  0  0  0  0  0  0  0  0
  -23.0420  -13.6950   20.9670 C   0  0  0  0  0  0  0  0  0  0  0  0
  -22.3010  -13.0350   21.8530 N   0  0  0  0  0  0  0  0  0  0  0  0
  -22.6150  -14.7070   20.4160 O   0  0  0  0  0  0  0  0  0  0  0  0
  -22.6580  -12.2170   22.3230 H   0  0  0  0  0  0  0  0  0  0  0  0
  -21.3720  -13.3680   22.0740 H   0  0  0  0  0  0  0  0  0  0  0  0
  -25.6960  -15.3050   20.1350 N   0  0  0  0  0  0  0  0  0  0  0  0
  -24.9410  -15.9710   20.2430 H   0  0  0  0  0  0  0  0  0  0  0  0
  -26.5400  -15.7220   19.7620 H   0  0  0  0  0  0  0  0  0  0  0  0
  -30.9660  -21.3200   20.2820 C   0  0  0  0  0  2  0  0  0  0  0  0
  -29.6320  -21.9520   20.1040 N   0  0  0  0  0  4  0  0  0  0  0  0
  -29.1430  -21.4860   19.3550 H   0  0  0  0  0  0  0  0  0  0  0  0
  -29.1010  -21.8130   20.9480 H   0  0  0  0  0  0  0  0  0  0  0  0
  -29.7310  -23.4080   19.7990 C   0  0  0  0  0  2  0  0  0  0  0  0
  -28.3840  -24.1790   19.7670 C   0  0  0  0  0  2  0  0  0  0  0  0
  -28.5200  -25.6330   19.2230 C   0  0  0  0  0  2  0  0  0  0  0  0
  -28.2880  -26.6740   20.1830 O   0  0  0  0  0  0  0  0  0  0  0  0
  -24.5160  -31.8960   23.2060 C   0  0  0  0  0  0  0  0  0  0  0  0
  -27.1020  -27.3850   20.1600 C   0  0  0  0  0  0  0  0  0  0  0  0
  -23.2910  -30.5080   21.5640 C   0  0  0  0  0  3  0  0  0  0  0  0
  -24.7230  -28.9260   20.1640 C   0  0  0  0  0  0  0  0  0  0  0  0
  -25.8220  -30.8190   21.3750 C   0  0  0  0  0  2  0  0  0  0  0  0
  -25.8860  -29.4350   20.7530 C   0  0  0  0  0  0  0  0  0  0  0  0
  -27.0710  -28.6660   20.7560 C   0  0  0  0  0  3  0  0  0  0  0  0
  -25.9130  -26.8800   19.5830 C   0  0  0  0  0  3  0  0  0  0  0  0
  -24.7280  -27.6420   19.5890 C   0  0  0  0  0  3  0  0  0  0  0  0
  -23.5000  -29.8150   20.1890 C   0  0  0  0  0  2  0  0  0  0  0  0
  -24.5610  -31.0910   22.1080 N   0  0  0  0  0  0  0  0  0  0  0  0
  -23.4380  -32.1900   23.7430 O   0  0  0  0  0  0  0  0  0  0  0  0
  -22.6140  -29.5050   22.5280 C   0  0  0  0  0  0  0  0  0  0  0  0
  -21.2920  -29.3250   22.3770 N   0  0  0  0  0  0  0  0  0  0  0  0
  -23.2780  -28.8920   23.3700 O   0  0  0  0  0  0  0  0  0  0  0  0
  -20.8160  -29.8730   21.6720 H   0  0  0  0  0  0  0  0  0  0  0  0
  -17.9110  -28.1170   22.7940 C   0  0  0  0  0  0  0  0  0  0  0  0
  -20.4560  -28.4040   23.1500 C   0  0  0  0  0  3  0  0  0  0  0  0
  -20.5880  -26.9560   22.6240 C   0  0  0  0  0  2  0  0  0  0  0  0
  -19.5270  -26.5960   21.5790 C   0  0  0  0  0  2  0  0  0  0  0  0
  -18.1210  -26.7500   22.1660 C   0  0  0  0  0  2  0  0  0  0  0  0
  -19.0100  -28.9010   23.2420 C   0  0  0  0  0  0  0  0  0  0  0  0
  -18.7600  -30.1790   23.7880 C   0  0  0  0  0  3  0  0  0  0  0  0
  -17.4470  -30.6760   23.8890 C   0  0  0  0  0  3  0  0  0  0  0  0
  -16.3640  -29.8920   23.4570 C   0  0  0  0  0  3  0  0  0  0  0  0
  -16.5970  -28.6130   22.9160 C   0  0  0  0  0  3  0  0  0  0  0  0
  -25.8120  -32.5080   23.8250 C   0  0  0  0  0  3  0  0  0  0  0  0
  -25.5200  -33.9020   24.1740 N   0  0  0  0  0  0  0  0  0  0  0  0
  -25.8620  -34.9610   23.4270 C   0  0  0  0  0  0  0  0  0  0  0  0
  -26.5280  -34.8640   22.3920 O   0  0  0  0  0  0  0  0  0  0  0  0
  -24.9270  -34.0530   24.9780 H   0  0  0  0  0  0  0  0  0  0  0  0
  -24.1500  -36.7740   23.0910 C   0  0  0  0  0  1  0  0  0  0  0  0
  -25.3860  -36.3480   23.9000 C   0  0  0  0  0  3  0  0  0  0  0  0
  -27.5320  -37.1960   24.7400 C   0  0  0  0  0  1  0  0  0  0  0  0
  -26.4290  -37.3920   23.8030 N   0  0  0  0  0  0  0  0  0  0  0  0
  -26.0330  -38.3120   23.9710 H   0  0  0  0  0  0  0  0  0  0  0  0
  -26.3330  -31.7170   25.0860 C   0  0  1  0  0  0  0  0  0  0  0  0
  -25.2470  -31.4800   26.1630 C   0  0  0  0  0  1  0  0  0  0  0  0
  -26.8970  -30.3380   24.6690 C   0  0  0  0  0  1  0  0  0  0  0  0
  -27.4960  -32.4930   25.7490 C   0  0  0  0  0  1  0  0  0  0  0  0
  1  6  1  0
  2  4  1  0
  3  4  1  0
  4  7  1  0
  5 11  1  0
  5  2  1  0
  6  5  1  0
  6  3  1  0
  7 10  1  0
  7  9  1  0
  8  7  1  0
 11 20  1  0
 12 20  1  0
 13 18  1  0
 14 15  1  0
 14 13  1  0
 16 15  1  0
 16 25  1  0
 16 17  1  0
 18 12  1  0
 18 17  1  0
 19 12  2  0
 20 21  1  0
 22 23  2  0
 23 24  1  0
 23 42  1  0
 24 27  1  0
 25 22  1  0
 25 26  1  0
 26 24  2  0
 27 28  1  0
 28 29  2  0
 30 33  1  0
 30 29  1  0
 31 30  2  0
 32 31  1  0
 32 27  2  0
 33 34  1  0
 34 35  1  0
 35 36  2  0
 37 36  1  0
 37 41  1  0
 38 37  2  0
 39 34  2  0
 39 38  1  0
 40 39  1  0
 42 43  1  0
 43 46  1  0
 43 45  1  0
 44 42  2  0
 47 48  1  0
 47 22  1  0
 49 47  1  0
 50  1  1  0
 51 50  1  0
 51 53  1  0
 52 51  1  0
 54 51  1  0
 55 54  1  0
 56 55  1  0
 56 57  1  0
 58 69  2  0
 59 57  1  0
 59 64  1  0
 60 68  1  0
 60 70  1  0
 61 67  1  0
 61 63  1  0
 62 68  1  0
 63 64  2  0
 63 62  1  0
 65 66  1  0
 65 59  2  0
 66 61  2  0
 67 60  1  0
 68 58  1  0
 70 72  2  0
 71 70  1  0
 73 71  1  0
 74 83  2  0
 74 79  1  0
 75 71  1  0
 75 79  1  0
 76 75  1  0
 77 78  1  0
 77 76  1  0
 78 74  1  0
 79 80  2  0
 80 81  1  0
 82 81  2  0
 83 82  1  0
 84 58  1  0
 84 85  1  0
 84 94  1  0
 85 88  1  0
 86 90  1  0
 86 85  1  0
 87 86  2  0
 90 89  1  0
 92 90  1  0
 92 93  1  0
 92 91  1  0
 94 97  1  1
 94 95  1  0
 96 94  1  0
M  ISO  4  12 100  20 100  56 101  57 101
M  END
>  <TORSDO>  (73) 
F 24

>  <SCORE>  (73) 
-9.638

>  <name>  (73) 
73

>  <ligand_id>  (73) 
73

>  <original_smiles>  (73) 
[H]c1c([H])c([H])c2c(c1[H])C([H])([H])C([H])([H])C([H])([H])C2([H])N([H])C(=O)C1([H])N(C(=O)C([H])(N([H])C(=O)C([H])(N([H])C([H])([H])[H])C([H])([H])[H])C(C([H])([H])[H])(C([H])([H])[H])C([H])([H])[H])C([H])([H])c2c([H])c(OC([H])([H])C([H])([H])C([H])([H])[N+]([H])([H])C([H])([H])C([H])([H])N3C([H])([H])C([H])([N+]([H])([H])[H])C([H])([H])C3([H])C([H])([H])N([H])C(=O)N3C([H])([H])C([H])([H])C([H])([H])C([H])(n4nc(-c5c([H])c([H])c(Oc6c([H])c([H])c(F)c([H])c6F)c([H])c5[H])c(C(=O)N([H])[H])c4N([H])[H])C3([H])[H])c([H])c([H])c2C1([H])[H]

>  <smiles>  (73) 
[H]c1c([H])c([H])c2c(c1[H])C([H])([H])C([H])([H])C([H])([H])C2([H])N([H])C(=O)C1([H])N(C(=O)C([H])(N([H])C(=O)C([H])(N([H])C([H])([H])[H])C([H])([H])[H])C(C([H])([H])[H])(C([H])([H])[H])C([H])([H])[H])C([H])([H])c2c([H])c(OC([H])([H])C([H])([H])C([H])([H])[N+]([H])([H])C([H])([H])C([H])([H])N3C([H])([H])C([H])([N+]([H])([H])[H])C([H])([H])C3([H])C([H])([H])N([H])C(=O)N3C([H])([H])C([H])([H])C([H])([H])C([H])(n4nc(-c5c([H])c([H])c(Oc6c([H])c([H])c(F)c([H])c6F)c([H])c5[H])c(C(=O)N([H])[H])c4N([H])[H])C3([H])[H])c([H])c([H])c2C1([H])[H]

$$$$
74:0:0
     RDKit          3D

 90 98  0  0  1  0  0  0  0  0999 V2000
  -29.9950  -21.8880   20.8810 C   0  0  0  0  0  2  0  0  0  0  0  0
  -29.1250  -22.9440   20.1610 C   0  0  0  0  0  2  0  0  0  0  0  0
  -29.3800  -24.4290   20.5120 C   0  0  0  0  0  2  0  0  0  0  0  0
  -28.2540  -25.3060   19.9270 C   0  0  0  0  0  2  0  0  0  0  0  0
  -28.3720  -26.7070   20.2090 O   0  0  0  0  0  0  0  0  0  0  0  0
  -24.5720  -31.8890   23.2660 C   0  0  0  0  0  0  0  0  0  0  0  0
  -27.2010  -27.4460   20.1680 C   0  0  0  0  0  0  0  0  0  0  0  0
  -23.3600  -30.4940   21.6240 C   0  0  0  0  0  3  0  0  0  0  0  0
  -24.8070  -28.9650   20.1890 C   0  0  0  0  0  0  0  0  0  0  0  0
  -25.8880  -30.8470   21.4240 C   0  0  0  0  0  2  0  0  0  0  0  0
  -25.9680  -29.4800   20.7780 C   0  0  0  0  0  0  0  0  0  0  0  0
  -27.1660  -28.7270   20.7670 C   0  0  0  0  0  3  0  0  0  0  0  0
  -26.0180  -26.9600   19.5560 C   0  0  0  0  0  3  0  0  0  0  0  0
  -24.8270  -27.7030   19.5760 C   0  0  0  0  0  3  0  0  0  0  0  0
  -23.5640  -29.8230   20.2410 C   0  0  0  0  0  2  0  0  0  0  0  0
  -24.6250  -31.0910   22.1620 N   0  0  0  0  0  0  0  0  0  0  0  0
  -23.4920  -32.1620   23.8090 O   0  0  0  0  0  0  0  0  0  0  0  0
  -22.7100  -29.4690   22.5820 C   0  0  0  0  0  0  0  0  0  0  0  0
  -21.3870  -29.2830   22.4510 N   0  0  0  0  0  0  0  0  0  0  0  0
  -23.3940  -28.8450   23.3970 O   0  0  0  0  0  0  0  0  0  0  0  0
  -20.8960  -29.8410   21.7660 H   0  0  0  0  0  0  0  0  0  0  0  0
  -18.0140  -28.0790   22.9370 C   0  0  0  0  0  0  0  0  0  0  0  0
  -20.5690  -28.3450   23.2190 C   0  0  0  0  0  3  0  0  0  0  0  0
  -20.6790  -26.9130   22.6470 C   0  0  0  0  0  2  0  0  0  0  0  0
  -19.5820  -26.5860   21.6280 C   0  0  0  0  0  2  0  0  0  0  0  0
  -18.1980  -26.7290   22.2660 C   0  0  0  0  0  2  0  0  0  0  0  0
  -19.1280  -28.8460   23.3700 C   0  0  0  0  0  0  0  0  0  0  0  0
  -18.9040  -30.1100   23.9550 C   0  0  0  0  0  3  0  0  0  0  0  0
  -17.5980  -30.6090   24.1130 C   0  0  0  0  0  3  0  0  0  0  0  0
  -16.4980  -29.8400   23.6960 C   0  0  0  0  0  3  0  0  0  0  0  0
  -16.7060  -28.5780   23.1130 C   0  0  0  0  0  3  0  0  0  0  0  0
  -25.8610  -32.5150   23.8850 C   0  0  0  0  0  3  0  0  0  0  0  0
  -25.5590  -33.9160   24.2060 N   0  0  0  0  0  0  0  0  0  0  0  0
  -25.8950  -34.9620   23.4400 C   0  0  0  0  0  0  0  0  0  0  0  0
  -26.5630  -34.8490   22.4080 O   0  0  0  0  0  0  0  0  0  0  0  0
  -24.9660  -34.0790   25.0070 H   0  0  0  0  0  0  0  0  0  0  0  0
  -24.1750  -36.7590   23.0730 C   0  0  0  0  0  1  0  0  0  0  0  0
  -25.4130  -36.3550   23.8870 C   0  0  0  0  0  3  0  0  0  0  0  0
  -27.5520  -37.2350   24.7120 C   0  0  0  0  0  1  0  0  0  0  0  0
  -26.4500  -37.4040   23.7680 N   0  0  0  0  0  0  0  0  0  0  0  0
  -26.0480  -38.3250   23.9110 H   0  0  0  0  0  0  0  0  0  0  0  0
  -26.3760  -31.7460   25.1620 C   0  0  1  0  0  0  0  0  0  0  0  0
  -25.2840  -31.5190   26.2340 C   0  0  0  0  0  1  0  0  0  0  0  0
  -26.9500  -30.3640   24.7720 C   0  0  0  0  0  1  0  0  0  0  0  0
  -27.5320  -32.5370   25.8190 C   0  0  0  0  0  1  0  0  0  0  0  0
  -29.5710  -20.4690   20.4340 C   0  0  0  0  0  2  0  0  0  0  0  0
  -30.2300  -19.3410   21.1450 N   0  0  0  0  0  4  0  0  0  0  0  0
  -31.2230  -19.3700   20.9780 H   0  0  0  0  0  0  0  0  0  0  0  0
  -30.0820  -19.4570   22.1350 H   0  0  0  0  0  0  0  0  0  0  0  0
  -30.6660  -14.5040   20.5100 C   0  0  0  0  0  0  0  0  0  0  0  0
  -30.3740  -12.3160   19.4390 C   0  0  0  0  0  2  0  0  0  0  0  0
  -29.4600  -12.4880   18.2080 C   0  0  0  0  0  2  0  0  0  0  0  0
  -27.9770  -12.3560   18.6120 C   0  0  0  0  0  2  0  0  0  0  0  0
  -27.6050  -13.2170   19.8480 C   0  0  0  0  0  3  0  0  0  0  0  0
  -28.6460  -13.0700   20.9820 C   0  0  0  0  0  2  0  0  0  0  0  0
  -29.9770  -13.3360   20.4170 N   0  0  0  0  0  0  0  0  0  0  0  0
  -31.8660  -14.6060   20.2440 O   0  0  0  0  0  0  0  0  0  0  0  0
  -29.8570  -17.6770   19.2740 C   0  0  0  0  0  2  0  0  0  0  0  0
  -29.5020  -16.1960   19.2620 C   0  0  0  0  0  2  0  0  0  0  0  0
  -30.2790  -16.7690   21.4250 C   0  0  0  0  0  2  0  0  0  0  0  0
  -29.6830  -18.0170   20.7430 C   0  0  0  0  0  3  0  0  0  0  0  0
  -29.9040  -15.6230   20.5650 N   0  0  0  0  0  0  0  0  0  0  0  0
  -25.1960  -13.8460   20.4920 C   0  0  0  0  0  0  0  0  0  0  0  0
  -24.1180  -13.0790   20.8440 C   0  0  0  0  0  0  0  0  0  0  0  0
  -24.5820  -11.7280   20.8500 C   0  0  0  0  0  0  0  0  0  0  0  0
  -26.2460  -12.9570   20.3050 N   0  0  0  0  0  0  0  0  0  0  0  0
  -25.8790  -11.6820   20.5800 N   0  0  0  0  0  0  0  0  0  0  0  0
  -23.8550  -10.4680   21.0400 C   0  0  0  0  0  0  0  0  0  0  0  0
  -24.2770   -9.5090   21.9870 C   0  0  0  0  0  3  0  0  0  0  0  0
  -23.5510   -8.3110   22.1630 C   0  0  0  0  0  3  0  0  0  0  0  0
  -22.3900   -8.0660   21.3930 C   0  0  0  0  0  0  0  0  0  0  0  0
  -21.9890   -9.0120   20.4340 C   0  0  0  0  0  3  0  0  0  0  0  0
  -22.7160  -10.2010   20.2540 C   0  0  0  0  0  3  0  0  0  0  0  0
  -21.6370   -6.9200   21.4790 O   0  0  0  0  0  0  0  0  0  0  0  0
  -21.5790   -6.1830   22.6340 C   0  0  0  0  0  0  0  0  0  0  0  0
  -21.1470   -6.7440   23.8560 C   0  0  0  0  0  3  0  0  0  0  0  0
  -21.0360   -5.9330   25.0030 C   0  0  0  0  0  3  0  0  0  0  0  0
  -21.3470   -4.5620   24.9290 C   0  0  0  0  0  0  0  0  0  0  0  0
  -21.7740   -4.0010   23.7120 C   0  0  0  0  0  3  0  0  0  0  0  0
  -21.8860   -4.8090   22.5680 C   0  0  0  0  0  0  0  0  0  0  0  0
  -22.2770   -4.2590   21.3920 F   0  0  0  0  0  0  0  0  0  0  0  0
  -21.2330   -3.7800   26.0280 F   0  0  0  0  0  0  0  0  0  0  0  0
  -22.7130  -13.5580   21.0680 C   0  0  0  0  0  0  0  0  0  0  0  0
  -21.9620  -12.8740   21.9230 N   0  0  0  0  0  0  0  0  0  0  0  0
  -22.2880  -14.5740   20.5180 O   0  0  0  0  0  0  0  0  0  0  0  0
  -22.3190  -12.0520   22.3890 H   0  0  0  0  0  0  0  0  0  0  0  0
  -21.0170  -13.1740   22.1160 H   0  0  0  0  0  0  0  0  0  0  0  0
  -25.3660  -15.2130   20.2950 N   0  0  0  0  0  0  0  0  0  0  0  0
  -24.6000  -15.8730   20.3800 H   0  0  0  0  0  0  0  0  0  0  0  0
  -26.2350  -15.6470   20.0150 H   0  0  0  0  0  0  0  0  0  0  0  0
  2  3  1  0
  2  1  1  0
  4  5  1  0
  4  3  1  0
  6 17  2  0
  7  5  1  0
  7 12  1  0
  8 16  1  0
  8 18  1  0
  9 15  1  0
  9 11  1  0
 10 16  1  0
 11 10  1  0
 12 11  2  0
 13 14  1  0
 13  7  2  0
 14  9  2  0
 15  8  1  0
 16  6  1  0
 18 20  2  0
 19 18  1  0
 21 19  1  0
 22 31  2  0
 22 27  1  0
 23 19  1  0
 23 27  1  0
 24 23  1  0
 25 26  1  0
 25 24  1  0
 26 22  1  0
 27 28  2  0
 28 29  1  0
 30 29  2  0
 31 30  1  0
 32  6  1  0
 32 33  1  0
 32 42  1  0
 33 36  1  0
 34 38  1  0
 34 33  1  0
 35 34  2  0
 38 37  1  0
 40 38  1  0
 40 41  1  0
 40 39  1  0
 42 45  1  1
 42 43  1  0
 44 42  1  0
 46  1  1  0
 46 47  1  0
 47 49  1  0
 48 47  1  0
 50 62  1  0
 51 56  1  0
 52 53  1  0
 52 51  1  0
 54 53  1  0
 54 66  1  0
 54 55  1  0
 56 50  1  0
 56 55  1  0
 57 50  2  0
 58 61  1  0
 59 58  1  0
 59 62  1  0
 61 47  1  0
 61 60  1  0
 62 60  1  0
 63 64  2  0
 64 65  1  0
 64 83  1  0
 65 68  1  0
 66 63  1  0
 66 67  1  0
 67 65  2  0
 68 69  1  0
 69 70  2  0
 71 74  1  0
 71 70  1  0
 72 71  2  0
 73 72  1  0
 73 68  2  0
 74 75  1  0
 75 76  1  0
 76 77  2  0
 78 77  1  0
 78 82  1  0
 79 78  2  0
 80 75  2  0
 80 79  1  0
 81 80  1  0
 83 84  1  0
 84 87  1  0
 84 86  1  0
 85 83  2  0
 88 89  1  0
 88 63  1  0
 90 88  1  0
M  ISO  4   4 101   5 101  50 100  62 100
M  END
>  <TORSDO>  (74) 
F 21

>  <SCORE>  (74) 
-13.483

>  <name>  (74) 
74

>  <ligand_id>  (74) 
74

>  <original_smiles>  (74) 
[H]c1c([H])c([H])c2c(c1[H])C([H])([H])C([H])([H])C([H])([H])C2([H])N([H])C(=O)C1([H])N(C(=O)C([H])(N([H])C(=O)C([H])(N([H])C([H])([H])[H])C([H])([H])[H])C(C([H])([H])[H])(C([H])([H])[H])C([H])([H])[H])C([H])([H])c2c([H])c(OC([H])([H])C([H])([H])C([H])([H])C([H])([H])C([H])([H])[N+]([H])([H])C3([H])C([H])([H])N(C(=O)N4C([H])([H])C([H])([H])C([H])([H])C([H])(n5nc(-c6c([H])c([H])c(Oc7c([H])c([H])c(F)c([H])c7F)c([H])c6[H])c(C(=O)N([H])[H])c5N([H])[H])C4([H])[H])C([H])([H])C3([H])[H])c([H])c([H])c2C1([H])[H]

>  <smiles>  (74) 
[H]c1c([H])c([H])c2c(c1[H])C([H])([H])C([H])([H])C([H])([H])C2([H])N([H])C(=O)C1([H])N(C(=O)C([H])(N([H])C(=O)C([H])(N([H])C([H])([H])[H])C([H])([H])[H])C(C([H])([H])[H])(C([H])([H])[H])C([H])([H])[H])C([H])([H])c2c([H])c(OC([H])([H])C([H])([H])C([H])([H])C([H])([H])C([H])([H])[N+]([H])([H])C3([H])C([H])([H])N(C(=O)N4C([H])([H])C([H])([H])C([H])([H])C([H])(n5nc(-c6c([H])c([H])c(Oc7c([H])c([H])c(F)c([H])c7F)c([H])c6[H])c(C(=O)N([H])[H])c5N([H])[H])C4([H])[H])C([H])([H])C3([H])[H])c([H])c([H])c2C1([H])[H]

$$$$
75:0:0
     RDKit          3D

 94102  0  0  1  0  0  0  0  0999 V2000
  -27.1830  -21.2420   21.3040 C   0  0  0  0  0  2  0  0  0  0  0  0
  -29.8070  -20.0720   18.7790 C   0  0  0  0  0  2  0  0  0  0  0  0
  -29.8260  -18.5370   20.7950 C   0  0  0  0  0  2  0  0  0  0  0  0
  -28.4190  -20.5660   19.2240 C   0  0  0  0  0  2  0  0  0  0  0  0
  -28.4370  -19.0890   21.1640 C   0  0  0  0  0  2  0  0  0  0  0  0
  -30.1070  -18.6400   19.2770 C   0  0  0  0  0  3  0  0  0  0  0  0
  -28.3160  -20.4930   20.7040 N   0  0  2  0  0  4  0  0  0  0  0  0
  -29.1320  -20.9620   21.0640 H   0  0  0  0  0  0  0  0  0  0  0  0
  -31.5540  -18.2450   18.9030 C   0  0  0  0  0  2  0  0  0  0  0  0
  -32.1840  -17.1110   19.7390 C   0  0  0  0  0  2  0  0  0  0  0  0
  -31.7180  -14.8150   18.8940 C   0  0  0  0  0  0  0  0  0  0  0  0
  -31.3370  -12.4110   18.4970 C   0  0  0  0  0  2  0  0  0  0  0  0
  -30.2680  -12.1580   17.4190 C   0  0  0  0  0  2  0  0  0  0  0  0
  -28.8610  -12.1460   18.0440 C   0  0  0  0  0  2  0  0  0  0  0  0
  -28.6040  -13.3820   18.9450 C   0  0  0  0  0  3  0  0  0  0  0  0
  -29.7690  -13.5960   19.9360 C   0  0  0  0  0  2  0  0  0  0  0  0
  -31.0290  -13.6790   19.1720 N   0  0  0  0  0  0  0  0  0  0  0  0
  -32.6140  -14.8770   18.0460 O   0  0  0  0  0  0  0  0  0  0  0  0
  -31.4290  -15.8610   19.6780 N   0  0  0  0  0  0  0  0  0  0  0  0
  -30.6950  -15.7270   20.3600 H   0  0  0  0  0  0  0  0  0  0  0  0
  -26.4840  -14.2810   20.0980 C   0  0  0  0  0  0  0  0  0  0  0  0
  -25.3830  -13.6480   20.6100 C   0  0  0  0  0  0  0  0  0  0  0  0
  -25.6110  -12.2490   20.4270 C   0  0  0  0  0  0  0  0  0  0  0  0
  -27.3220  -13.2760   19.6390 N   0  0  0  0  0  0  0  0  0  0  0  0
  -26.8080  -12.0450   19.8910 N   0  0  0  0  0  0  0  0  0  0  0  0
  -24.7370  -11.0970   20.6790 C   0  0  0  0  0  0  0  0  0  0  0  0
  -25.1010  -10.0790   21.5870 C   0  0  0  0  0  3  0  0  0  0  0  0
  -24.2350   -8.9890   21.8260 C   0  0  0  0  0  3  0  0  0  0  0  0
  -22.9920   -8.9110   21.1550 C   0  0  0  0  0  0  0  0  0  0  0  0
  -22.6450   -9.9150   20.2360 C   0  0  0  0  0  3  0  0  0  0  0  0
  -23.5100  -10.9960   19.9960 C   0  0  0  0  0  3  0  0  0  0  0  0
  -22.0990   -7.8760   21.3040 O   0  0  0  0  0  0  0  0  0  0  0  0
  -21.9360   -7.2320   22.5040 C   0  0  0  0  0  0  0  0  0  0  0  0
  -21.5520   -7.9220   23.6750 C   0  0  0  0  0  3  0  0  0  0  0  0
  -21.3300   -7.2110   24.8710 C   0  0  0  0  0  3  0  0  0  0  0  0
  -21.4820   -5.8110   24.8970 C   0  0  0  0  0  0  0  0  0  0  0  0
  -21.8590   -5.1230   23.7310 C   0  0  0  0  0  3  0  0  0  0  0  0
  -22.0830   -5.8310   22.5370 C   0  0  0  0  0  0  0  0  0  0  0  0
  -22.4260   -5.1590   21.4120 F   0  0  0  0  0  0  0  0  0  0  0  0
  -21.2600   -5.1270   26.0430 F   0  0  0  0  0  0  0  0  0  0  0  0
  -24.1460  -14.3010   21.1530 C   0  0  0  0  0  0  0  0  0  0  0  0
  -23.4890  -13.6640   22.1160 N   0  0  0  0  0  0  0  0  0  0  0  0
  -23.7810  -15.4080   20.7570 O   0  0  0  0  0  0  0  0  0  0  0  0
  -23.8000  -12.7670   22.4540 H   0  0  0  0  0  0  0  0  0  0  0  0
  -22.6620  -14.0810   22.5200 H   0  0  0  0  0  0  0  0  0  0  0  0
  -26.8330  -15.6220   19.9670 N   0  0  0  0  0  0  0  0  0  0  0  0
  -26.2020  -16.3720   20.2280 H   0  0  0  0  0  0  0  0  0  0  0  0
  -27.6730  -15.9510   19.5090 H   0  0  0  0  0  0  0  0  0  0  0  0
  -27.3640  -22.7700   21.1580 C   0  0  0  0  0  2  0  0  0  0  0  0
  -28.6770  -23.3240   21.7630 C   0  0  0  0  0  2  0  0  0  0  0  0
  -29.3290  -24.4240   20.9050 C   0  0  0  0  0  2  0  0  0  0  0  0
  -28.4600  -25.6820   20.7490 C   0  0  0  0  0  2  0  0  0  0  0  0
  -29.1270  -26.7970   19.9120 C   0  0  0  0  0  2  0  0  0  0  0  0
  -28.3360  -27.1200   18.7710 O   0  0  0  0  0  0  0  0  0  0  0  0
  -24.7660  -31.6770   22.9360 C   0  0  0  0  0  0  0  0  0  0  0  0
  -27.1800  -27.8140   19.0290 C   0  0  0  0  0  0  0  0  0  0  0  0
  -23.4270  -30.4650   21.2450 C   0  0  0  0  0  3  0  0  0  0  0  0
  -24.7600  -29.1840   19.4870 C   0  0  0  0  0  0  0  0  0  0  0  0
  -25.9060  -30.9430   20.8500 C   0  0  0  0  0  2  0  0  0  0  0  0
  -25.9560  -29.6730   20.0290 C   0  0  0  0  0  0  0  0  0  0  0  0
  -27.1690  -28.9910   19.8080 C   0  0  0  0  0  3  0  0  0  0  0  0
  -25.9750  -27.3350   18.4780 C   0  0  0  0  0  3  0  0  0  0  0  0
  -24.7610  -28.0110   18.7120 C   0  0  0  0  0  3  0  0  0  0  0  0
  -23.5060  -29.9790   19.7730 C   0  0  0  0  0  2  0  0  0  0  0  0
  -24.7230  -31.0340   21.7350 N   0  0  0  0  0  0  0  0  0  0  0  0
  -23.7410  -31.8350   23.6140 O   0  0  0  0  0  0  0  0  0  0  0  0
  -22.8990  -29.3030   22.1160 C   0  0  0  0  0  0  0  0  0  0  0  0
  -21.5820  -29.0550   22.0450 N   0  0  0  0  0  0  0  0  0  0  0  0
  -23.6700  -28.6320   22.8060 O   0  0  0  0  0  0  0  0  0  0  0  0
  -21.0200  -29.6480   21.4490 H   0  0  0  0  0  0  0  0  0  0  0  0
  -18.3330  -27.5500   22.5250 C   0  0  0  0  0  0  0  0  0  0  0  0
  -20.8690  -27.9890   22.7480 C   0  0  0  0  0  3  0  0  0  0  0  0
  -21.0650  -26.6290   22.0390 C   0  0  0  0  0  2  0  0  0  0  0  0
  -19.9570  -26.3130   21.0300 C   0  0  0  0  0  2  0  0  0  0  0  0
  -18.5900  -26.2860   21.7200 C   0  0  0  0  0  2  0  0  0  0  0  0
  -19.4030  -28.3600   22.9910 C   0  0  0  0  0  0  0  0  0  0  0  0
  -19.1070  -29.5420   23.7030 C   0  0  0  0  0  3  0  0  0  0  0  0
  -17.7740  -29.9230   23.9450 C   0  0  0  0  0  3  0  0  0  0  0  0
  -16.7190  -29.1100   23.4940 C   0  0  0  0  0  3  0  0  0  0  0  0
  -17.0000  -27.9240   22.7930 C   0  0  0  0  0  3  0  0  0  0  0  0
  -26.0960  -32.2630   23.5030 C   0  0  0  0  0  3  0  0  0  0  0  0
  -25.8100  -33.6170   23.9910 N   0  0  0  0  0  0  0  0  0  0  0  0
  -26.1170  -34.7420   23.3300 C   0  0  0  0  0  0  0  0  0  0  0  0
  -26.7430  -34.7470   22.2670 O   0  0  0  0  0  0  0  0  0  0  0  0
  -25.2520  -33.6880   24.8300 H   0  0  0  0  0  0  0  0  0  0  0  0
  -24.3950  -36.5700   23.2250 C   0  0  0  0  0  1  0  0  0  0  0  0
  -25.6550  -36.0740   23.9510 C   0  0  0  0  0  3  0  0  0  0  0  0
  -27.8240  -36.8470   24.8070 C   0  0  0  0  0  1  0  0  0  0  0  0
  -26.6950  -37.1280   23.9230 N   0  0  0  0  0  0  0  0  0  0  0  0
  -26.3020  -38.0260   24.1880 H   0  0  0  0  0  0  0  0  0  0  0  0
  -26.7300  -31.3760   24.6430 C   0  0  1  0  0  0  0  0  0  0  0  0
  -25.7400  -31.0200   25.7780 C   0  0  0  0  0  1  0  0  0  0  0  0
  -27.2750  -30.0500   24.0620 C   0  0  0  0  0  1  0  0  0  0  0  0
  -27.9360  -32.1140   25.2690 C   0  0  0  0  0  1  0  0  0  0  0  0
  2  4  1  0
  2  6  1  0
  3  5  1  0
  4  7  1  0
  6  9  1  0
  6  3  1  0
  7  8  1  1
  7  5  1  0
  7  1  1  0
  9 10  1  0
 11 17  1  0
 11 19  1  0
 12 17  1  0
 13 14  1  0
 13 12  1  0
 15 14  1  0
 15 24  1  0
 15 16  1  0
 17 16  1  0
 18 11  2  0
 19 10  1  0
 19 20  1  0
 21 22  2  0
 22 41  1  0
 23 22  1  0
 23 26  1  0
 24 25  1  0
 24 21  1  0
 25 23  2  0
 26 27  1  0
 27 28  2  0
 29 32  1  0
 29 28  1  0
 30 29  2  0
 31 30  1  0
 31 26  2  0
 32 33  1  0
 33 38  2  0
 33 34  1  0
 34 35  2  0
 35 36  1  0
 36 40  1  0
 37 36  2  0
 38 37  1  0
 39 38  1  0
 41 42  1  0
 42 44  1  0
 42 45  1  0
 43 41  2  0
 46 21  1  0
 46 47  1  0
 48 46  1  0
 49  1  1  0
 49 50  1  0
 51 50  1  0
 52 51  1  0
 53 52  1  0
 54 56  1  0
 54 53  1  0
 55 66  2  0
 56 61  1  0
 57 65  1  0
 57 67  1  0
 58 64  1  0
 58 60  1  0
 59 65  1  0
 60 59  1  0
 61 60  2  0
 62 63  1  0
 62 56  2  0
 63 58  2  0
 64 57  1  0
 65 55  1  0
 67 69  2  0
 68 67  1  0
 70 68  1  0
 71 80  2  0
 71 76  1  0
 72 68  1  0
 72 76  1  0
 73 72  1  0
 74 75  1  0
 74 73  1  0
 75 71  1  0
 76 77  2  0
 77 78  1  0
 79 78  2  0
 80 79  1  0
 81 55  1  0
 81 82  1  0
 81 91  1  0
 82 85  1  0
 83 87  1  0
 83 82  1  0
 84 83  2  0
 87 86  1  0
 89 87  1  0
 89 90  1  0
 89 88  1  0
 91 94  1  1
 91 92  1  0
 93 91  1  0
M  ISO  4  11 100  19 100  53 101  54 101
M  END
>  <TORSDO>  (75) 
F 24

>  <SCORE>  (75) 
-8.139

>  <name>  (75) 
75

>  <ligand_id>  (75) 
75

>  <original_smiles>  (75) 
[H]c1c([H])c([H])c2c(c1[H])C([H])([H])C([H])([H])C([H])([H])C2([H])N([H])C(=O)C1([H])N(C(=O)C([H])(N([H])C(=O)C([H])(N([H])C([H])([H])[H])C([H])([H])[H])C(C([H])([H])[H])(C([H])([H])[H])C([H])([H])[H])C([H])([H])c2c([H])c(OC([H])([H])C([H])([H])C([H])([H])C([H])([H])C([H])([H])C([H])([H])[N+]3([H])C([H])([H])C([H])([H])C([H])(C([H])([H])C([H])([H])N([H])C(=O)N4C([H])([H])C([H])([H])C([H])([H])C([H])(n5nc(-c6c([H])c([H])c(Oc7c([H])c([H])c(F)c([H])c7F)c([H])c6[H])c(C(=O)N([H])[H])c5N([H])[H])C4([H])[H])C([H])([H])C3([H])[H])c([H])c([H])c2C1([H])[H]

>  <smiles>  (75) 
[H]c1c([H])c([H])c2c(c1[H])C([H])([H])C([H])([H])C([H])([H])C2([H])N([H])C(=O)C1([H])N(C(=O)C([H])(N([H])C(=O)C([H])(N([H])C([H])([H])[H])C([H])([H])[H])C(C([H])([H])[H])(C([H])([H])[H])C([H])([H])[H])C([H])([H])c2c([H])c(OC([H])([H])C([H])([H])C([H])([H])C([H])([H])C([H])([H])C([H])([H])[N+]3([H])C([H])([H])C([H])([H])C([H])(C([H])([H])C([H])([H])N([H])C(=O)N4C([H])([H])C([H])([H])C([H])([H])C([H])(n5nc(-c6c([H])c([H])c(Oc7c([H])c([H])c(F)c([H])c7F)c([H])c6[H])c(C(=O)N([H])[H])c5N([H])[H])C4([H])[H])C([H])([H])C3([H])[H])c([H])c([H])c2C1([H])[H]

$$$$
76:0:0
     RDKit          3D

 96103  0  0  1  0  0  0  0  0999 V2000
  -28.7410  -21.8110   21.7490 C   0  0  0  0  0  2  0  0  0  0  0  0
  -29.1520  -23.1610   21.3230 N   0  0  0  0  0  4  0  0  0  0  0  0
  -30.1560  -23.1950   21.2320 H   0  0  0  0  0  0  0  0  0  0  0  0
  -28.8860  -23.7980   22.0580 H   0  0  0  0  0  0  0  0  0  0  0  0
  -28.5650  -23.6840   20.0730 C   0  0  0  0  0  2  0  0  0  0  0  0
  -28.2750  -25.1790   20.2540 C   0  0  0  0  0  3  0  0  0  0  0  0
  -27.1600  -25.2910   20.9830 F   0  0  0  0  0  0  0  0  0  0  0  0
  -28.1720  -25.9690   18.9400 C   0  0  0  0  0  2  0  0  0  0  0  0
  -28.3280  -27.3550   19.2380 O   0  0  0  0  0  0  0  0  0  0  0  0
  -25.9010  -31.2240   24.6730 C   0  0  0  0  0  0  0  0  0  0  0  0
  -27.2680  -28.0870   19.7250 C   0  0  0  0  0  0  0  0  0  0  0  0
  -24.2750  -30.8070   22.8540 C   0  0  0  0  0  3  0  0  0  0  0  0
  -25.2320  -29.7640   20.7370 C   0  0  0  0  0  0  0  0  0  0  0  0
  -26.7910  -30.8300   22.3780 C   0  0  0  0  0  2  0  0  0  0  0  0
  -26.5240  -29.8360   21.2680 C   0  0  0  0  0  0  0  0  0  0  0  0
  -27.5420  -29.0010   20.7640 C   0  0  0  0  0  3  0  0  0  0  0  0
  -25.9500  -28.0080   19.2130 C   0  0  0  0  0  3  0  0  0  0  0  0
  -24.9360  -28.8450   19.7160 C   0  0  0  0  0  3  0  0  0  0  0  0
  -24.2000  -30.7070   21.3090 C   0  0  0  0  0  2  0  0  0  0  0  0
  -25.6820  -30.9410   23.3570 N   0  0  0  0  0  0  0  0  0  0  0  0
  -24.9580  -31.4180   25.4530 O   0  0  0  0  0  0  0  0  0  0  0  0
  -23.5230  -29.5990   23.4560 C   0  0  0  0  0  0  0  0  0  0  0  0
  -22.2260  -29.4840   23.1320 N   0  0  0  0  0  0  0  0  0  0  0  0
  -24.1090  -28.7730   24.1630 O   0  0  0  0  0  0  0  0  0  0  0  0
  -21.8180  -30.2070   22.5560 H   0  0  0  0  0  0  0  0  0  0  0  0
  -18.9470  -28.0680   22.5940 C   0  0  0  0  0  0  0  0  0  0  0  0
  -21.3250  -28.4100   23.5460 C   0  0  0  0  0  3  0  0  0  0  0  0
  -21.6880  -27.0790   22.8470 C   0  0  0  0  0  2  0  0  0  0  0  0
  -20.9050  -26.8460   21.5520 C   0  0  0  0  0  2  0  0  0  0  0  0
  -19.3980  -26.8340   21.8290 C   0  0  0  0  0  2  0  0  0  0  0  0
  -19.8570  -28.8160   23.3870 C   0  0  0  0  0  0  0  0  0  0  0  0
  -19.3960  -29.9730   24.0500 C   0  0  0  0  0  3  0  0  0  0  0  0
  -18.0550  -30.3850   23.9310 C   0  0  0  0  0  3  0  0  0  0  0  0
  -17.1540  -29.6300   23.1620 C   0  0  0  0  0  3  0  0  0  0  0  0
  -17.5990  -28.4730   22.4970 C   0  0  0  0  0  3  0  0  0  0  0  0
  -27.3450  -31.3410   25.2570 C   0  0  0  0  0  3  0  0  0  0  0  0
  -27.4100  -32.5900   26.0280 N   0  0  0  0  0  0  0  0  0  0  0  0
  -28.0370  -33.7020   25.6200 C   0  0  0  0  0  0  0  0  0  0  0  0
  -28.6870  -33.7570   24.5730 O   0  0  0  0  0  0  0  0  0  0  0  0
  -26.8540  -32.6300   26.8690 H   0  0  0  0  0  0  0  0  0  0  0  0
  -26.8940  -35.9230   25.9090 C   0  0  0  0  0  1  0  0  0  0  0  0
  -27.9210  -34.9520   26.5120 C   0  0  0  0  0  3  0  0  0  0  0  0
  -30.1650  -34.8840   27.5060 C   0  0  0  0  0  1  0  0  0  0  0  0
  -29.2070  -35.6520   26.7150 N   0  0  0  0  0  0  0  0  0  0  0  0
  -29.0650  -36.5490   27.1690 H   0  0  0  0  0  0  0  0  0  0  0  0
  -27.7580  -30.1100   26.1550 C   0  0  1  0  0  0  0  0  0  0  0  0
  -26.7280  -29.7720   27.2590 C   0  0  0  0  0  1  0  0  0  0  0  0
  -27.9600  -28.8460   25.2880 C   0  0  0  0  0  1  0  0  0  0  0  0
  -29.1200  -30.3890   26.8380 C   0  0  0  0  0  1  0  0  0  0  0  0
  -29.9440  -21.0700   22.3620 C   0  0  0  0  0  2  0  0  0  0  0  0
  -29.6570  -19.6260   22.8110 C   0  0  0  0  0  2  0  0  0  0  0  0
  -30.9650  -18.8990   23.1810 C   0  0  0  0  0  2  0  0  0  0  0  0
  -30.7680  -17.5170   23.8500 C   0  0  0  0  0  2  0  0  0  0  0  0
  -31.5830  -16.4610   23.2020 N   0  0  0  0  0  4  0  0  0  0  0  0
  -31.6430  -15.6860   23.8440 H   0  0  0  0  0  0  0  0  0  0  0  0
  -32.5180  -16.8170   23.0750 H   0  0  0  0  0  0  0  0  0  0  0  0
  -31.0540  -15.9790   21.9050 C   0  0  0  0  0  2  0  0  0  0  0  0
  -31.5470  -14.5660   21.5220 C   0  0  0  0  0  2  0  0  0  0  0  0
  -31.8200  -13.3420   19.3310 C   0  0  0  0  0  0  0  0  0  0  0  0
  -31.0730  -11.1390   18.5160 C   0  0  0  0  0  2  0  0  0  0  0  0
  -30.0010  -11.2790   17.4180 C   0  0  0  0  0  2  0  0  0  0  0  0
  -28.5930  -11.3990   18.0300 C   0  0  0  0  0  2  0  0  0  0  0  0
  -28.5230  -12.4480   19.1700 C   0  0  0  0  0  3  0  0  0  0  0  0
  -29.6820  -12.2550   20.1640 C   0  0  0  0  0  2  0  0  0  0  0  0
  -30.9620  -12.2900   19.4300 N   0  0  0  0  0  0  0  0  0  0  0  0
  -32.7340  -13.3840   18.5020 O   0  0  0  0  0  0  0  0  0  0  0  0
  -31.5700  -14.4390   20.0600 N   0  0  0  0  0  0  0  0  0  0  0  0
  -32.0110  -15.2410   19.6330 H   0  0  0  0  0  0  0  0  0  0  0  0
  -26.4950  -13.4550   20.3980 C   0  0  0  0  0  0  0  0  0  0  0  0
  -25.3410  -12.8910   20.8750 C   0  0  0  0  0  0  0  0  0  0  0  0
  -25.4410  -11.4950   20.5960 C   0  0  0  0  0  0  0  0  0  0  0  0
  -27.2330  -12.4130   19.8610 N   0  0  0  0  0  0  0  0  0  0  0  0
  -26.6090  -11.2180   20.0330 N   0  0  0  0  0  0  0  0  0  0  0  0
  -24.4610  -10.4150   20.7690 C   0  0  0  0  0  0  0  0  0  0  0  0
  -24.7250   -9.2950   21.5900 C   0  0  0  0  0  3  0  0  0  0  0  0
  -23.7540   -8.2840   21.7550 C   0  0  0  0  0  3  0  0  0  0  0  0
  -22.5030   -8.3870   21.1000 C   0  0  0  0  0  0  0  0  0  0  0  0
  -22.2570   -9.4900   20.2650 C   0  0  0  0  0  3  0  0  0  0  0  0
  -23.2260  -10.4910   20.0950 C   0  0  0  0  0  3  0  0  0  0  0  0
  -21.5090   -7.4390   21.1850 O   0  0  0  0  0  0  0  0  0  0  0  0
  -21.2030   -6.8230   22.3720 C   0  0  0  0  0  0  0  0  0  0  0  0
  -21.0700   -7.5490   23.5780 C   0  0  0  0  0  3  0  0  0  0  0  0
  -20.6710   -6.8900   24.7560 C   0  0  0  0  0  3  0  0  0  0  0  0
  -20.4110   -5.5060   24.7370 C   0  0  0  0  0  0  0  0  0  0  0  0
  -20.5450   -4.7810   23.5400 C   0  0  0  0  0  3  0  0  0  0  0  0
  -20.9340   -5.4400   22.3590 C   0  0  0  0  0  0  0  0  0  0  0  0
  -21.0360   -4.7400   21.2030 F   0  0  0  0  0  0  0  0  0  0  0  0
  -20.0250   -4.8740   25.8700 F   0  0  0  0  0  0  0  0  0  0  0  0
  -24.1730  -13.6210   21.4710 C   0  0  0  0  0  0  0  0  0  0  0  0
  -23.4890  -13.0150   22.4400 N   0  0  0  0  0  0  0  0  0  0  0  0
  -23.8840  -14.7590   21.1120 O   0  0  0  0  0  0  0  0  0  0  0  0
  -23.7340  -12.0900   22.7580 H   0  0  0  0  0  0  0  0  0  0  0  0
  -22.7070  -13.4890   22.8690 H   0  0  0  0  0  0  0  0  0  0  0  0
  -26.9710  -14.7620   20.3590 N   0  0  0  0  0  0  0  0  0  0  0  0
  -26.4040  -15.5490   20.6520 H   0  0  0  0  0  0  0  0  0  0  0  0
  -27.8430  -15.0430   19.9290 H   0  0  0  0  0  0  0  0  0  0  0  0
  1 50  1  0
  2  1  1  0
  2  4  1  0
  3  2  1  0
  5  6  1  0
  5  2  1  0
  6  7  1  0
  8  9  1  0
  8  6  1  0
  9 11  1  0
 10 21  2  0
 11 16  1  0
 12 20  1  0
 12 22  1  0
 13 15  1  0
 13 19  1  0
 14 20  1  0
 15 14  1  0
 16 15  2  0
 17 18  1  0
 17 11  2  0
 18 13  2  0
 19 12  1  0
 20 10  1  0
 22 24  2  0
 23 22  1  0
 25 23  1  0
 26 31  1  0
 27 23  1  0
 28 27  1  0
 29 30  1  0
 29 28  1  0
 30 26  1  0
 31 27  1  0
 31 32  2  0
 33 32  1  0
 34 33  2  0
 35 26  2  0
 35 34  1  0
 36 10  1  0
 36 37  1  0
 36 46  1  0
 37 40  1  0
 38 37  1  0
 38 42  1  0
 39 38  2  0
 42 41  1  0
 42 44  1  0
 44 45  1  0
 44 43  1  0
 46 49  1  1
 46 47  1  0
 48 46  1  0
 50 51  1  0
 51 52  1  0
 52 53  1  0
 54 55  1  0
 54 53  1  0
 56 54  1  0
 57 54  1  0
 58 57  1  0
 59 65  1  0
 59 67  1  0
 60 65  1  0
 61 62  1  0
 61 60  1  0
 63 62  1  0
 63 72  1  0
 63 64  1  0
 65 64  1  0
 66 59  2  0
 67 58  1  0
 68 67  1  0
 69 70  2  0
 70 89  1  0
 71 74  1  0
 71 70  1  0
 72 73  1  0
 72 69  1  0
 73 71  2  0
 74 75  1  0
 75 76  2  0
 77 80  1  0
 77 76  1  0
 78 77  2  0
 79 78  1  0
 79 74  2  0
 80 81  1  0
 81 82  1  0
 82 83  2  0
 84 83  1  0
 84 88  1  0
 85 84  2  0
 86 81  2  0
 86 85  1  0
 87 86  1  0
 89 90  1  0
 90 92  1  0
 90 93  1  0
 91 89  2  0
 94 69  1  0
 94 95  1  0
 96 94  1  0
M  ISO  4   8 101   9 101  59 100  67 100
M  END
>  <TORSDO>  (76) 
F 27

>  <SCORE>  (76) 
-4.134

>  <name>  (76) 
76

>  <ligand_id>  (76) 
76

>  <original_smiles>  (76) 
[H]c1c([H])c([H])c2c(c1[H])C([H])([H])C([H])([H])C([H])([H])C2([H])N([H])C(=O)C1([H])N(C(=O)C([H])(N([H])C(=O)C([H])(N([H])C([H])([H])[H])C([H])([H])[H])C(C([H])([H])[H])(C([H])([H])[H])C([H])([H])[H])C([H])([H])c2c([H])c(OC([H])([H])C([H])(F)C([H])([H])[N+]([H])([H])C([H])([H])C([H])([H])C([H])([H])C([H])([H])C([H])([H])[N+]([H])([H])C([H])([H])C([H])([H])N([H])C(=O)N3C([H])([H])C([H])([H])C([H])([H])C([H])(n4nc(-c5c([H])c([H])c(Oc6c([H])c([H])c(F)c([H])c6F)c([H])c5[H])c(C(=O)N([H])[H])c4N([H])[H])C3([H])[H])c([H])c([H])c2C1([H])[H]

>  <smiles>  (76) 
[H]c1c([H])c([H])c2c(c1[H])C([H])([H])C([H])([H])C([H])([H])C2([H])N([H])C(=O)C1([H])N(C(=O)C([H])(N([H])C(=O)C([H])(N([H])C([H])([H])[H])C([H])([H])[H])C(C([H])([H])[H])(C([H])([H])[H])C([H])([H])[H])C([H])([H])c2c([H])c(OC([H])([H])C([H])(F)C([H])([H])[N+]([H])([H])C([H])([H])C([H])([H])C([H])([H])C([H])([H])C([H])([H])[N+]([H])([H])C([H])([H])C([H])([H])N([H])C(=O)N3C([H])([H])C([H])([H])C([H])([H])C([H])(n4nc(-c5c([H])c([H])c(Oc6c([H])c([H])c(F)c([H])c6F)c([H])c5[H])c(C(=O)N([H])[H])c4N([H])[H])C3([H])[H])c([H])c([H])c2C1([H])[H]

$$$$
77:0:0
     RDKit          3D

 99108  0  0  1  0  0  0  0  0999 V2000
  -29.4070  -21.7900   22.5340 C   0  0  0  0  0  2  0  0  0  0  0  0
  -28.0160  -21.0590   20.5000 C   0  0  0  0  0  2  0  0  0  0  0  0
  -28.3310  -22.8510   22.7960 C   0  0  0  0  0  2  0  0  0  0  0  0
  -27.0360  -22.1940   20.8500 C   0  0  0  0  0  2  0  0  0  0  0  0
  -28.8600  -20.5940   21.7200 C   0  0  0  0  0  3  0  0  0  0  0  0
  -27.7930  -23.2920   21.4900 N   0  0  1  0  0  4  0  0  0  0  0  0
  -28.5900  -23.4290   20.8910 H   0  0  0  0  0  0  0  0  0  0  0  0
  -30.3420  -19.5510   19.9410 C   0  0  0  0  0  3  0  0  0  0  0  0
  -31.4100  -18.7340   19.5330 C   0  0  0  0  0  3  0  0  0  0  0  0
  -31.8550  -18.1640   21.8590 C   0  0  0  0  0  3  0  0  0  0  0  0
  -30.0070  -19.6760   21.3060 C   0  0  0  0  0  0  0  0  0  0  0  0
  -32.1680  -18.0330   20.4890 C   0  0  0  0  0  0  0  0  0  0  0  0
  -30.7770  -18.9780   22.2670 C   0  0  0  0  0  0  0  0  0  0  0  0
  -30.4930  -19.0900   23.5870 F   0  0  0  0  0  0  0  0  0  0  0  0
  -33.3220  -17.1630   20.0210 C   0  0  0  0  0  2  0  0  0  0  0  0
  -33.2010  -15.6850   20.4210 C   0  0  0  0  0  2  0  0  0  0  0  0
  -31.8550  -14.3490   18.8010 C   0  0  0  0  0  0  0  0  0  0  0  0
  -31.3510  -12.0120   18.2110 C   0  0  0  0  0  2  0  0  0  0  0  0
  -30.2240  -11.7830   17.1960 C   0  0  0  0  0  2  0  0  0  0  0  0
  -28.8630  -11.7390   17.9090 C   0  0  0  0  0  2  0  0  0  0  0  0
  -28.6460  -12.9670   18.8290 C   0  0  0  0  0  3  0  0  0  0  0  0
  -29.8540  -13.1810   19.7630 C   0  0  0  0  0  2  0  0  0  0  0  0
  -31.0830  -13.2510   18.9510 N   0  0  0  0  0  0  0  0  0  0  0  0
  -32.6000  -14.5460   17.8330 O   0  0  0  0  0  0  0  0  0  0  0  0
  -31.9870  -15.0170   19.9530 N   0  0  0  0  0  0  0  0  0  0  0  0
  -31.3330  -14.7440   20.6730 H   0  0  0  0  0  0  0  0  0  0  0  0
  -26.6780  -13.8290   20.2470 C   0  0  0  0  0  0  0  0  0  0  0  0
  -25.5570  -13.2090   20.7270 C   0  0  0  0  0  0  0  0  0  0  0  0
  -25.6550  -11.8430   20.3180 C   0  0  0  0  0  0  0  0  0  0  0  0
  -27.4030  -12.8490   19.5860 N   0  0  0  0  0  0  0  0  0  0  0  0
  -26.8010  -11.6360   19.6810 N   0  0  0  0  0  0  0  0  0  0  0  0
  -24.7000  -10.7350   20.4460 C   0  0  0  0  0  0  0  0  0  0  0  0
  -25.0330   -9.5480   21.1340 C   0  0  0  0  0  3  0  0  0  0  0  0
  -24.0920   -8.5050   21.2570 C   0  0  0  0  0  3  0  0  0  0  0  0
  -22.8020   -8.6410   20.6930 C   0  0  0  0  0  0  0  0  0  0  0  0
  -22.4830   -9.8140   19.9870 C   0  0  0  0  0  3  0  0  0  0  0  0
  -23.4230  -10.8520   19.8610 C   0  0  0  0  0  3  0  0  0  0  0  0
  -21.8310   -7.6710   20.7410 O   0  0  0  0  0  0  0  0  0  0  0  0
  -21.6860   -6.8500   21.8300 C   0  0  0  0  0  0  0  0  0  0  0  0
  -21.4660   -7.3660   23.1260 C   0  0  0  0  0  3  0  0  0  0  0  0
  -21.2530   -6.4870   24.2070 C   0  0  0  0  0  3  0  0  0  0  0  0
  -21.2520   -5.0950   23.9940 C   0  0  0  0  0  0  0  0  0  0  0  0
  -21.4660   -4.5800   22.7030 C   0  0  0  0  0  3  0  0  0  0  0  0
  -21.6800   -5.4560   21.6240 C   0  0  0  0  0  0  0  0  0  0  0  0
  -21.8650   -4.9550   20.3790 F   0  0  0  0  0  0  0  0  0  0  0  0
  -21.0390   -4.2490   25.0300 F   0  0  0  0  0  0  0  0  0  0  0  0
  -24.4080  -13.8610   21.4430 C   0  0  0  0  0  0  0  0  0  0  0  0
  -23.7520  -13.1340   22.3390 N   0  0  0  0  0  0  0  0  0  0  0  0
  -24.1160  -15.0390   21.2380 O   0  0  0  0  0  0  0  0  0  0  0  0
  -24.0040  -12.1740   22.5200 H   0  0  0  0  0  0  0  0  0  0  0  0
  -22.9870  -13.5440   22.8550 H   0  0  0  0  0  0  0  0  0  0  0  0
  -27.1360  -15.1440   20.3030 N   0  0  0  0  0  0  0  0  0  0  0  0
  -26.6000  -15.8890   20.7330 H   0  0  0  0  0  0  0  0  0  0  0  0
  -28.0010  -15.4640   19.8860 H   0  0  0  0  0  0  0  0  0  0  0  0
  -27.1400  -24.6200   21.4990 C   0  0  0  0  0  2  0  0  0  0  0  0
  -27.8790  -25.6000   20.5650 C   0  0  0  0  0  2  0  0  0  0  0  0
  -29.3530  -25.8990   20.9460 C   0  0  0  0  0  2  0  0  0  0  0  0
  -30.0950  -26.8250   19.9480 C   0  0  0  0  0  2  0  0  0  0  0  0
  -29.9700  -28.2100   20.2750 O   0  0  0  0  0  0  0  0  0  0  0  0
  -25.4850  -31.7140   24.5270 C   0  0  0  0  0  0  0  0  0  0  0  0
  -28.7000  -28.7260   20.4060 C   0  0  0  0  0  0  0  0  0  0  0  0
  -24.4740  -30.6330   22.5460 C   0  0  0  0  0  3  0  0  0  0  0  0
  -26.1110  -29.7910   20.7850 C   0  0  0  0  0  0  0  0  0  0  0  0
  -26.9150  -31.4090   22.5090 C   0  0  0  0  0  2  0  0  0  0  0  0
  -27.1880  -30.2910   21.5250 C   0  0  0  0  0  0  0  0  0  0  0  0
  -28.4840  -29.7590   21.3430 C   0  0  0  0  0  3  0  0  0  0  0  0
  -27.6060  -28.2630   19.6380 C   0  0  0  0  0  3  0  0  0  0  0  0
  -26.3130  -28.7720   19.8410 C   0  0  0  0  0  3  0  0  0  0  0  0
  -24.7510  -30.3970   21.0390 C   0  0  0  0  0  2  0  0  0  0  0  0
  -25.6400  -31.2550   23.2540 N   0  0  0  0  0  0  0  0  0  0  0  0
  -24.3860  -31.6650   25.0980 O   0  0  0  0  0  0  0  0  0  0  0  0
  -24.0160  -29.3020   23.1820 C   0  0  0  0  0  0  0  0  0  0  0  0
  -22.8430  -28.8120   22.7500 N   0  0  0  0  0  0  0  0  0  0  0  0
  -24.7170  -28.7250   24.0160 O   0  0  0  0  0  0  0  0  0  0  0  0
  -22.3310  -29.3520   22.0690 H   0  0  0  0  0  0  0  0  0  0  0  0
  -20.0950  -26.5570   22.1010 C   0  0  0  0  0  0  0  0  0  0  0  0
  -22.2220  -27.5590   23.1760 C   0  0  0  0  0  3  0  0  0  0  0  0
  -22.9700  -26.3370   22.5920 C   0  0  0  0  0  2  0  0  0  0  0  0
  -22.3790  -25.8450   21.2680 C   0  0  0  0  0  2  0  0  0  0  0  0
  -20.9100  -25.4490   21.4540 C   0  0  0  0  0  2  0  0  0  0  0  0
  -20.7140  -27.5570   22.8970 C   0  0  0  0  0  0  0  0  0  0  0  0
  -19.9190  -28.5830   23.4520 C   0  0  0  0  0  3  0  0  0  0  0  0
  -18.5300  -28.6180   23.2240 C   0  0  0  0  0  3  0  0  0  0  0  0
  -17.9190  -27.6150   22.4530 C   0  0  0  0  0  3  0  0  0  0  0  0
  -18.6990  -26.5860   21.8950 C   0  0  0  0  0  3  0  0  0  0  0  0
  -26.6750  -32.3430   25.3180 C   0  0  0  0  0  3  0  0  0  0  0  0
  -26.3360  -33.7470   25.5790 N   0  0  0  0  0  0  0  0  0  0  0  0
  -26.8030  -34.7820   24.8680 C   0  0  0  0  0  0  0  0  0  0  0  0
  -27.6270  -34.6520   23.9580 O   0  0  0  0  0  0  0  0  0  0  0  0
  -25.6110  -33.9210   26.2590 H   0  0  0  0  0  0  0  0  0  0  0  0
  -25.1840  -36.5890   24.2100 C   0  0  0  0  0  1  0  0  0  0  0  0
  -26.2660  -36.1820   25.2220 C   0  0  0  0  0  3  0  0  0  0  0  0
  -28.2800  -37.0090   26.3550 C   0  0  0  0  0  1  0  0  0  0  0  0
  -27.3200  -37.2180   25.2740 N   0  0  0  0  0  0  0  0  0  0  0  0
  -26.9140  -38.1440   25.3870 H   0  0  0  0  0  0  0  0  0  0  0  0
  -27.0000  -31.5840   26.6610 C   0  0  1  0  0  0  0  0  0  0  0  0
  -25.7520  -31.2930   27.5300 C   0  0  0  0  0  1  0  0  0  0  0  0
  -27.6900  -30.2310   26.3700 C   0  0  0  0  0  1  0  0  0  0  0  0
  -27.9970  -32.4130   27.5040 C   0  0  0  0  0  1  0  0  0  0  0  0
  1  3  1  0
  2  4  1  0
  2  5  1  0
  4  6  1  0
  5 11  1  0
  5  1  1  0
  6 55  1  0
  6  3  1  0
  6  7  1  6
  8 11  1  0
  9  8  2  0
  9 12  1  0
 10 13  1  0
 11 13  2  0
 12 10  2  0
 13 14  1  0
 15 16  1  0
 15 12  1  0
 17 23  1  0
 17 25  1  0
 18 23  1  0
 19 20  1  0
 19 18  1  0
 21 20  1  0
 21 30  1  0
 21 22  1  0
 23 22  1  0
 24 17  2  0
 25 16  1  0
 25 26  1  0
 27 52  1  0
 27 28  2  0
 28 47  1  0
 29 32  1  0
 29 28  1  0
 30 31  1  0
 30 27  1  0
 31 29  2  0
 32 33  1  0
 33 34  2  0
 35 38  1  0
 35 34  1  0
 36 35  2  0
 37 36  1  0
 37 32  2  0
 38 39  1  0
 39 40  1  0
 40 41  2  0
 42 41  1  0
 42 46  1  0
 43 42  2  0
 44 39  2  0
 44 43  1  0
 45 44  1  0
 47 48  1  0
 48 50  1  0
 48 51  1  0
 49 47  2  0
 52 53  1  0
 54 52  1  0
 56 57  1  0
 56 55  1  0
 58 59  1  0
 58 57  1  0
 59 61  1  0
 60 71  2  0
 61 66  1  0
 62 72  1  0
 62 70  1  0
 63 69  1  0
 63 65  1  0
 64 70  1  0
 65 64  1  0
 66 65  2  0
 67 68  1  0
 67 61  2  0
 68 63  2  0
 69 62  1  0
 70 60  1  0
 72 74  2  0
 73 72  1  0
 75 73  1  0
 76 81  1  0
 77 73  1  0
 78 77  1  0
 79 80  1  0
 79 78  1  0
 80 76  1  0
 81 77  1  0
 81 82  2  0
 83 82  1  0
 84 83  2  0
 85 76  2  0
 85 84  1  0
 86 60  1  0
 86 87  1  0
 86 96  1  0
 87 90  1  0
 88 92  1  0
 88 87  1  0
 89 88  2  0
 92 91  1  0
 92 94  1  0
 94 95  1  0
 94 93  1  0
 96 99  1  1
 96 97  1  0
 98 96  1  0
M  ISO  4  17 100  25 100  58 101  59 101
M  END
>  <TORSDO>  (77) 
F 23

>  <SCORE>  (77) 
-3.991

>  <name>  (77) 
77

>  <ligand_id>  (77) 
77

>  <original_smiles>  (77) 
[H]c1c([H])c([H])c2c(c1[H])C([H])([H])C([H])([H])C([H])([H])C2([H])N([H])C(=O)C1([H])N(C(=O)C([H])(N([H])C(=O)C([H])(N([H])C([H])([H])[H])C([H])([H])[H])C(C([H])([H])[H])(C([H])([H])[H])C([H])([H])[H])C([H])([H])c2c([H])c(OC([H])([H])C([H])([H])C([H])([H])C([H])([H])[N+]3([H])C([H])([H])C([H])([H])C([H])(c4c([H])c([H])c(C([H])([H])C([H])([H])N([H])C(=O)N5C([H])([H])C([H])([H])C([H])([H])C([H])(n6nc(-c7c([H])c([H])c(Oc8c([H])c([H])c(F)c([H])c8F)c([H])c7[H])c(C(=O)N([H])[H])c6N([H])[H])C5([H])[H])c([H])c4F)C([H])([H])C3([H])[H])c([H])c([H])c2C1([H])[H]

>  <smiles>  (77) 
[H]c1c([H])c([H])c2c(c1[H])C([H])([H])C([H])([H])C([H])([H])C2([H])N([H])C(=O)C1([H])N(C(=O)C([H])(N([H])C(=O)C([H])(N([H])C([H])([H])[H])C([H])([H])[H])C(C([H])([H])[H])(C([H])([H])[H])C([H])([H])[H])C([H])([H])c2c([H])c(OC([H])([H])C([H])([H])C([H])([H])C([H])([H])[N+]3([H])C([H])([H])C([H])([H])C([H])(c4c([H])c([H])c(C([H])([H])C([H])([H])N([H])C(=O)N5C([H])([H])C([H])([H])C([H])([H])C([H])(n6nc(-c7c([H])c([H])c(Oc8c([H])c([H])c(F)c([H])c8F)c([H])c7[H])c(C(=O)N([H])[H])c6N([H])[H])C5([H])[H])c([H])c4F)C([H])([H])C3([H])[H])c([H])c([H])c2C1([H])[H]

$$$$
78:0:0
     RDKit          3D

 95103  0  0  1  0  0  0  0  0999 V2000
  -29.3330  -20.6020   19.8420 C   0  0  0  0  0  2  0  0  0  0  0  0
  -28.8250  -21.8670   19.2580 N   0  0  0  0  0  4  0  0  0  0  0  0
  -29.5350  -22.2230   18.6380 H   0  0  0  0  0  0  0  0  0  0  0  0
  -27.9970  -21.6760   18.7140 H   0  0  0  0  0  0  0  0  0  0  0  0
  -28.5160  -22.9220   20.2610 C   0  0  0  0  0  2  0  0  0  0  0  0
  -28.5150  -24.3390   19.6390 C   0  0  0  0  0  2  0  0  0  0  0  0
  -28.4640  -25.4600   20.6910 C   0  0  0  0  0  2  0  0  0  0  0  0
  -28.5480  -26.7470   20.0720 O   0  0  0  0  0  0  0  0  0  0  0  0
  -24.7810  -31.9190   23.1090 C   0  0  0  0  0  0  0  0  0  0  0  0
  -27.3730  -27.4570   20.0620 C   0  0  0  0  0  0  0  0  0  0  0  0
  -23.5400  -30.4880   21.5180 C   0  0  0  0  0  3  0  0  0  0  0  0
  -24.9680  -28.9280   20.0890 C   0  0  0  0  0  0  0  0  0  0  0  0
  -26.0550  -30.8640   21.2450 C   0  0  0  0  0  2  0  0  0  0  0  0
  -26.1320  -29.4810   20.6360 C   0  0  0  0  0  0  0  0  0  0  0  0
  -27.3410  -28.7540   20.6140 C   0  0  0  0  0  3  0  0  0  0  0  0
  -26.1970  -26.9140   19.5030 C   0  0  0  0  0  3  0  0  0  0  0  0
  -24.9930  -27.6420   19.5170 C   0  0  0  0  0  3  0  0  0  0  0  0
  -23.7160  -29.7760   20.1510 C   0  0  0  0  0  2  0  0  0  0  0  0
  -24.8120  -31.1050   22.0150 N   0  0  0  0  0  0  0  0  0  0  0  0
  -23.7110  -32.1940   23.6710 O   0  0  0  0  0  0  0  0  0  0  0  0
  -22.9110  -29.4820   22.5110 C   0  0  0  0  0  0  0  0  0  0  0  0
  -21.5950  -29.2520   22.3780 N   0  0  0  0  0  0  0  0  0  0  0  0
  -23.6070  -28.9030   23.3490 O   0  0  0  0  0  0  0  0  0  0  0  0
  -21.0920  -29.7660   21.6680 H   0  0  0  0  0  0  0  0  0  0  0  0
  -18.2620  -27.9490   22.8540 C   0  0  0  0  0  0  0  0  0  0  0  0
  -20.8010  -28.3170   23.1720 C   0  0  0  0  0  3  0  0  0  0  0  0
  -20.9740  -26.8670   22.6640 C   0  0  0  0  0  2  0  0  0  0  0  0
  -19.9100  -26.4550   21.6420 C   0  0  0  0  0  2  0  0  0  0  0  0
  -18.5070  -26.5800   22.2450 C   0  0  0  0  0  2  0  0  0  0  0  0
  -19.3390  -28.7720   23.2740 C   0  0  0  0  0  0  0  0  0  0  0  0
  -19.0580  -30.0550   23.7930 C   0  0  0  0  0  3  0  0  0  0  0  0
  -17.7300  -30.5100   23.9070 C   0  0  0  0  0  3  0  0  0  0  0  0
  -16.6660  -29.6830   23.5040 C   0  0  0  0  0  3  0  0  0  0  0  0
  -16.9330  -28.4060   22.9800 C   0  0  0  0  0  3  0  0  0  0  0  0
  -26.0780  -32.5640   23.6930 C   0  0  0  0  0  3  0  0  0  0  0  0
  -25.7430  -33.9240   24.1320 N   0  0  0  0  0  0  0  0  0  0  0  0
  -25.9760  -35.0320   23.4160 C   0  0  0  0  0  0  0  0  0  0  0  0
  -26.5730  -35.0190   22.3370 O   0  0  0  0  0  0  0  0  0  0  0  0
  -25.2120  -34.0050   24.9870 H   0  0  0  0  0  0  0  0  0  0  0  0
  -24.1500  -36.7570   23.2980 C   0  0  0  0  0  1  0  0  0  0  0  0
  -25.4660  -36.3670   23.9900 C   0  0  0  0  0  3  0  0  0  0  0  0
  -27.6230  -37.2980   24.7020 C   0  0  0  0  0  1  0  0  0  0  0  0
  -26.4410  -37.4730   23.8630 N   0  0  0  0  0  0  0  0  0  0  0  0
  -26.0090  -38.3630   24.1010 H   0  0  0  0  0  0  0  0  0  0  0  0
  -26.6990  -31.7340   24.8820 C   0  0  1  0  0  0  0  0  0  0  0  0
  -25.6720  -31.3230   25.9630 C   0  0  0  0  0  1  0  0  0  0  0  0
  -27.3690  -30.4470   24.3490 C   0  0  0  0  0  1  0  0  0  0  0  0
  -27.8080  -32.5610   25.5740 C   0  0  0  0  0  1  0  0  0  0  0  0
  -30.1340  -19.7160   18.8510 C   0  0  0  0  0  2  0  0  0  0  0  0
  -30.2210  -17.2850   19.6010 C   0  0  0  0  0  0  0  0  0  0  0  0
  -30.6900  -18.5420   19.5270 N   0  0  0  0  0  0  0  0  0  0  0  0
  -29.2730  -16.8640   18.9350 O   0  0  0  0  0  0  0  0  0  0  0  0
  -31.5180  -18.7130   20.0780 H   0  0  0  0  0  0  0  0  0  0  0  0
  -31.2040  -14.3710   19.2600 C   0  0  0  0  0  0  0  0  0  0  0  0
  -30.5010  -12.3640   17.9990 C   0  0  0  0  0  2  0  0  0  0  0  0
  -29.3690  -12.6630   17.0030 C   0  0  0  0  0  2  0  0  0  0  0  0
  -27.9910  -12.5740   17.6850 C   0  0  0  0  0  2  0  0  0  0  0  0
  -27.9320  -13.3810   19.0080 C   0  0  0  0  0  3  0  0  0  0  0  0
  -29.1490  -13.0590   19.9050 C   0  0  0  0  0  2  0  0  0  0  0  0
  -30.3860  -13.2900   19.1340 N   0  0  0  0  0  0  0  0  0  0  0  0
  -32.0050  -14.7220   18.3870 O   0  0  0  0  0  0  0  0  0  0  0  0
  -30.1710  -16.5510   22.0320 C   0  0  0  0  0  3  0  0  0  0  0  0
  -31.8100  -15.1580   22.8930 C   0  0  0  0  0  2  0  0  0  0  0  0
  -31.7880  -14.2820   21.6070 C   0  0  0  0  0  2  0  0  0  0  0  0
  -30.8970  -16.4210   20.6920 C   0  0  0  0  0  3  0  0  0  0  0  0
  -30.5700  -15.9130   23.0650 N   0  0  0  0  0  0  0  0  0  0  0  0
  -31.1800  -14.9850   20.4570 N   0  0  0  0  0  0  0  0  0  0  0  0
  -25.7660  -14.1030   20.2080 C   0  0  0  0  0  0  0  0  0  0  0  0
  -24.7170  -13.3760   20.7170 C   0  0  0  0  0  0  0  0  0  0  0  0
  -25.0450  -12.0040   20.5020 C   0  0  0  0  0  0  0  0  0  0  0  0
  -26.6660  -13.1690   19.7130 N   0  0  0  0  0  0  0  0  0  0  0  0
  -26.2450  -11.8980   19.9480 N   0  0  0  0  0  0  0  0  0  0  0  0
  -24.2560  -10.7830   20.7340 C   0  0  0  0  0  0  0  0  0  0  0  0
  -24.6940   -9.7780   21.6230 C   0  0  0  0  0  3  0  0  0  0  0  0
  -23.9090   -8.6270   21.8460 C   0  0  0  0  0  3  0  0  0  0  0  0
  -22.6710   -8.4710   21.1810 C   0  0  0  0  0  0  0  0  0  0  0  0
  -22.2510   -9.4640   20.2780 C   0  0  0  0  0  3  0  0  0  0  0  0
  -23.0360  -10.6060   20.0530 C   0  0  0  0  0  3  0  0  0  0  0  0
  -21.8540   -7.3710   21.3140 O   0  0  0  0  0  0  0  0  0  0  0  0
  -21.7450   -6.6930   22.5020 C   0  0  0  0  0  0  0  0  0  0  0  0
  -21.3390   -7.3380   23.6910 C   0  0  0  0  0  3  0  0  0  0  0  0
  -21.1700   -6.5940   24.8760 C   0  0  0  0  0  3  0  0  0  0  0  0
  -21.3980   -5.2060   24.8740 C   0  0  0  0  0  0  0  0  0  0  0  0
  -21.7980   -4.5600   23.6900 C   0  0  0  0  0  3  0  0  0  0  0  0
  -21.9660   -5.3010   22.5080 C   0  0  0  0  0  0  0  0  0  0  0  0
  -22.3290   -4.6700   21.3650 F   0  0  0  0  0  0  0  0  0  0  0  0
  -21.2290   -4.4880   26.0090 F   0  0  0  0  0  0  0  0  0  0  0  0
  -23.4420  -13.9280   21.2890 C   0  0  0  0  0  0  0  0  0  0  0  0
  -22.8650  -13.2530   22.2800 N   0  0  0  0  0  0  0  0  0  0  0  0
  -22.9730  -14.9890   20.8910 O   0  0  0  0  0  0  0  0  0  0  0  0
  -23.2520  -12.3870   22.6210 H   0  0  0  0  0  0  0  0  0  0  0  0
  -22.0170  -13.6120   22.7000 H   0  0  0  0  0  0  0  0  0  0  0  0
  -26.0240  -15.4680   20.1160 N   0  0  0  0  0  0  0  0  0  0  0  0
  -25.3800  -16.1770   20.4480 H   0  0  0  0  0  0  0  0  0  0  0  0
  -26.8860  -15.8640   19.7560 H   0  0  0  0  0  0  0  0  0  0  0  0
  2  1  1  0
  2  5  1  0
  3  2  1  0
  4  2  1  0
  6  5  1  0
  6  7  1  0
  8  7  1  0
  9 20  2  0
 10  8  1  0
 10 15  1  0
 11 19  1  0
 11 21  1  0
 12 18  1  0
 12 14  1  0
 13 19  1  0
 14 13  1  0
 15 14  2  0
 16 17  1  0
 16 10  2  0
 17 12  2  0
 18 11  1  0
 19  9  1  0
 21 23  2  0
 22 21  1  0
 24 22  1  0
 25 34  2  0
 25 30  1  0
 26 22  1  0
 26 30  1  0
 27 26  1  0
 28 29  1  0
 28 27  1  0
 29 25  1  0
 30 31  2  0
 31 32  1  0
 33 32  2  0
 34 33  1  0
 35  9  1  0
 35 36  1  0
 35 45  1  0
 36 39  1  0
 37 41  1  0
 37 36  1  0
 38 37  2  0
 41 40  1  0
 43 41  1  0
 43 44  1  0
 43 42  1  0
 45 48  1  1
 45 46  1  0
 47 45  1  0
 49 51  1  0
 49  1  1  0
 51 50  1  0
 51 53  1  0
 52 50  2  0
 54 67  1  0
 55 60  1  0
 56 57  1  0
 56 55  1  0
 58 57  1  0
 58 71  1  0
 58 59  1  0
 60 54  1  0
 60 59  1  0
 61 54  2  0
 62 66  2  0
 63 66  1  0
 64 63  1  0
 65 50  1  0
 65 62  1  0
 67 65  1  0
 67 64  1  0
 68 69  2  0
 69 88  1  0
 70 69  1  0
 70 73  1  0
 71 72  1  0
 71 68  1  0
 72 70  2  0
 73 74  1  0
 74 75  2  0
 76 79  1  0
 76 75  1  0
 77 76  2  0
 78 77  1  0
 78 73  2  0
 79 80  1  0
 80 85  2  0
 80 81  1  0
 81 82  2  0
 83 82  1  0
 83 87  1  0
 84 83  2  0
 85 84  1  0
 86 85  1  0
 88 89  1  0
 89 91  1  0
 89 92  1  0
 90 88  2  0
 93 68  1  0
 93 94  1  0
 95 93  1  0
M  ISO  4   7 101   8 101  54 100  67 100
M  END
>  <TORSDO>  (78) 
F 22

>  <SCORE>  (78) 
-7.938

>  <name>  (78) 
78

>  <ligand_id>  (78) 
78

>  <original_smiles>  (78) 
[H]C1=NC([H])([H])C([H])([H])N(C(=O)N2C([H])([H])C([H])([H])C([H])([H])C([H])(n3nc(-c4c([H])c([H])c(Oc5c([H])c([H])c(F)c([H])c5F)c([H])c4[H])c(C(=O)N([H])[H])c3N([H])[H])C2([H])[H])C1([H])C(=O)N([H])C([H])([H])C([H])([H])[N+]([H])([H])C([H])([H])C([H])([H])C([H])([H])Oc1c([H])c([H])c2c(c1[H])C([H])([H])N(C(=O)C([H])(N([H])C(=O)C([H])(N([H])C([H])([H])[H])C([H])([H])[H])C(C([H])([H])[H])(C([H])([H])[H])C([H])([H])[H])C([H])(C(=O)N([H])C1([H])c3c([H])c([H])c([H])c([H])c3C([H])([H])C([H])([H])C1([H])[H])C2([H])[H]

>  <smiles>  (78) 
[H]C1=NC([H])([H])C([H])([H])N(C(=O)N2C([H])([H])C([H])([H])C([H])([H])C([H])(n3nc(-c4c([H])c([H])c(Oc5c([H])c([H])c(F)c([H])c5F)c([H])c4[H])c(C(=O)N([H])[H])c3N([H])[H])C2([H])[H])C1([H])C(=O)N([H])C([H])([H])C([H])([H])[N+]([H])([H])C([H])([H])C([H])([H])C([H])([H])Oc1c([H])c([H])c2c(c1[H])C([H])([H])N(C(=O)C([H])(N([H])C(=O)C([H])(N([H])C([H])([H])[H])C([H])([H])[H])C(C([H])([H])[H])(C([H])([H])[H])C([H])([H])[H])C([H])(C(=O)N([H])C1([H])c3c([H])c([H])c([H])c([H])c3C([H])([H])C([H])([H])C1([H])[H])C2([H])[H]

$$$$
79:0:0
     RDKit          3D

 97105  0  0  1  0  0  0  0  0999 V2000
  -27.9530  -21.2780   19.1490 C   0  0  0  0  0  2  0  0  0  0  0  0
  -29.5600  -19.4370   19.7500 C   0  0  0  0  0  2  0  0  0  0  0  0
  -27.4740  -18.8630   18.7990 C   0  0  0  0  0  2  0  0  0  0  0  0
  -29.6190  -17.9190   19.5430 C   0  0  0  0  0  3  0  0  0  0  0  0
  -28.1630  -17.5370   19.1840 C   0  0  0  0  0  3  0  0  0  0  0  0
  -28.5010  -19.9270   18.8420 N   0  0  1  0  0  4  0  0  0  0  0  0
  -28.8910  -19.9590   17.9100 H   0  0  0  0  0  0  0  0  0  0  0  0
  -30.7190  -14.9240   21.4240 C   0  0  0  0  0  0  0  0  0  0  0  0
  -30.6760  -12.6680   20.5180 C   0  0  0  0  0  2  0  0  0  0  0  0
  -29.9320  -12.7480   19.1720 C   0  0  0  0  0  2  0  0  0  0  0  0
  -28.4130  -12.5740   19.3840 C   0  0  0  0  0  2  0  0  0  0  0  0
  -27.8360  -13.4680   20.5190 C   0  0  0  0  0  3  0  0  0  0  0  0
  -28.7310  -13.4210   21.7810 C   0  0  0  0  0  2  0  0  0  0  0  0
  -30.1140  -13.7150   21.3730 N   0  0  0  0  0  0  0  0  0  0  0  0
  -31.9450  -15.0540   21.4510 O   0  0  0  0  0  0  0  0  0  0  0  0
  -30.2960  -17.1830   20.7210 C   0  0  0  0  0  0  0  0  0  0  0  0
  -29.9170  -15.9220   21.0090 N   0  0  0  0  0  0  0  0  0  0  0  0
  -31.2050  -17.7700   21.3180 O   0  0  0  0  0  0  0  0  0  0  0  0
  -29.0140  -15.6190   20.6900 H   0  0  0  0  0  0  0  0  0  0  0  0
  -25.3470  -13.9870   20.9150 C   0  0  0  0  0  0  0  0  0  0  0  0
  -24.2650  -13.1750   21.1140 C   0  0  0  0  0  0  0  0  0  0  0  0
  -24.7700  -11.8390   21.1160 C   0  0  0  0  0  0  0  0  0  0  0  0
  -26.4430  -13.1440   20.8120 N   0  0  0  0  0  0  0  0  0  0  0  0
  -26.0910  -11.8460   20.9900 N   0  0  0  0  0  0  0  0  0  0  0  0
  -24.0680  -10.5510   21.1700 C   0  0  0  0  0  0  0  0  0  0  0  0
  -24.4400   -9.5470   22.0920 C   0  0  0  0  0  3  0  0  0  0  0  0
  -23.7370   -8.3240   22.1400 C   0  0  0  0  0  3  0  0  0  0  0  0
  -22.6500   -8.0960   21.2620 C   0  0  0  0  0  0  0  0  0  0  0  0
  -22.2990   -9.0890   20.3300 C   0  0  0  0  0  3  0  0  0  0  0  0
  -23.0050  -10.3030   20.2800 C   0  0  0  0  0  3  0  0  0  0  0  0
  -21.9280   -6.9270   21.2200 O   0  0  0  0  0  0  0  0  0  0  0  0
  -21.8100   -6.1150   22.3190 C   0  0  0  0  0  0  0  0  0  0  0  0
  -21.2600   -6.5800   23.5320 C   0  0  0  0  0  3  0  0  0  0  0  0
  -21.0920   -5.6920   24.6120 C   0  0  0  0  0  3  0  0  0  0  0  0
  -21.4650   -4.3420   24.4810 C   0  0  0  0  0  0  0  0  0  0  0  0
  -22.0120   -3.8770   23.2730 C   0  0  0  0  0  3  0  0  0  0  0  0
  -22.1800   -4.7610   22.1940 C   0  0  0  0  0  0  0  0  0  0  0  0
  -22.6870   -4.3050   21.0230 F   0  0  0  0  0  0  0  0  0  0  0  0
  -21.2980   -3.4870   25.5170 F   0  0  0  0  0  0  0  0  0  0  0  0
  -22.8300  -13.6070   21.2040 C   0  0  0  0  0  0  0  0  0  0  0  0
  -22.0130  -12.8730   21.9520 N   0  0  0  0  0  0  0  0  0  0  0  0
  -22.4360  -14.6320   20.6470 O   0  0  0  0  0  0  0  0  0  0  0  0
  -22.3400  -12.0450   22.4280 H   0  0  0  0  0  0  0  0  0  0  0  0
  -21.0450  -13.1470   22.0520 H   0  0  0  0  0  0  0  0  0  0  0  0
  -25.4820  -15.3670   20.7940 N   0  0  0  0  0  0  0  0  0  0  0  0
  -24.6690  -15.9710   20.8270 H   0  0  0  0  0  0  0  0  0  0  0  0
  -26.3490  -15.8750   20.7130 H   0  0  0  0  0  0  0  0  0  0  0  0
  -28.0390  -16.4720   18.0770 C   0  0  0  0  0  2  0  0  0  0  0  0
  -28.5800  -16.9130   16.9400 F   0  0  0  0  0  0  0  0  0  0  0  0
  -28.6860  -22.4520   18.4540 C   0  0  0  0  0  2  0  0  0  0  0  0
  -30.0620  -22.8820   19.0200 C   0  0  0  0  0  2  0  0  0  0  0  0
  -30.0110  -23.5460   20.3470 N   0  0  0  0  0  4  0  0  0  0  0  0
  -30.8900  -23.3260   20.7890 H   0  0  0  0  0  0  0  0  0  0  0  0
  -29.3040  -23.1450   20.9440 H   0  0  0  0  0  0  0  0  0  0  0  0
  -29.9320  -25.0320   20.3460 C   0  0  0  0  0  2  0  0  0  0  0  0
  -28.5360  -25.5980   20.0250 C   0  0  0  0  0  2  0  0  0  0  0  0
  -28.5370  -26.9940   20.3060 O   0  0  0  0  0  0  0  0  0  0  0  0
  -24.6620  -32.0200   23.4790 C   0  0  0  0  0  0  0  0  0  0  0  0
  -27.3330  -27.6640   20.3060 C   0  0  0  0  0  0  0  0  0  0  0  0
  -23.4610  -30.6440   21.8100 C   0  0  0  0  0  3  0  0  0  0  0  0
  -24.9190  -29.1420   20.3570 C   0  0  0  0  0  0  0  0  0  0  0  0
  -25.9820  -31.0220   21.6190 C   0  0  0  0  0  2  0  0  0  0  0  0
  -26.0720  -29.6660   20.9520 C   0  0  0  0  0  0  0  0  0  0  0  0
  -27.2790  -28.9330   20.9230 C   0  0  0  0  0  3  0  0  0  0  0  0
  -26.1570  -27.1480   19.7100 C   0  0  0  0  0  3  0  0  0  0  0  0
  -24.9560  -27.8810   19.7330 C   0  0  0  0  0  3  0  0  0  0  0  0
  -23.6720  -29.9920   20.4170 C   0  0  0  0  0  2  0  0  0  0  0  0
  -24.7200  -31.2410   22.3620 N   0  0  0  0  0  0  0  0  0  0  0  0
  -23.5800  -32.2770   24.0250 O   0  0  0  0  0  0  0  0  0  0  0  0
  -22.8130  -29.6000   22.7500 C   0  0  0  0  0  0  0  0  0  0  0  0
  -21.4990  -29.3820   22.5860 N   0  0  0  0  0  0  0  0  0  0  0  0
  -23.4930  -28.9910   23.5810 O   0  0  0  0  0  0  0  0  0  0  0  0
  -21.0150  -29.9270   21.8860 H   0  0  0  0  0  0  0  0  0  0  0  0
  -18.1530  -28.0760   22.9590 C   0  0  0  0  0  0  0  0  0  0  0  0
  -20.6860  -28.4220   23.3300 C   0  0  0  0  0  3  0  0  0  0  0  0
  -20.8610  -26.9920   22.7690 C   0  0  0  0  0  2  0  0  0  0  0  0
  -19.8110  -26.6260   21.7140 C   0  0  0  0  0  2  0  0  0  0  0  0
  -18.4010  -26.7290   22.3040 C   0  0  0  0  0  2  0  0  0  0  0  0
  -19.2270  -28.8790   23.4270 C   0  0  0  0  0  0  0  0  0  0  0  0
  -18.9440  -30.1390   23.9960 C   0  0  0  0  0  3  0  0  0  0  0  0
  -17.6170  -30.5950   24.1070 C   0  0  0  0  0  3  0  0  0  0  0  0
  -16.5550  -29.7900   23.6570 C   0  0  0  0  0  3  0  0  0  0  0  0
  -16.8260  -28.5320   23.0880 C   0  0  0  0  0  3  0  0  0  0  0  0
  -25.9490  -32.6410   24.1100 C   0  0  0  0  0  3  0  0  0  0  0  0
  -25.6580  -34.0490   24.4080 N   0  0  0  0  0  0  0  0  0  0  0  0
  -26.0230  -35.0810   23.6350 C   0  0  0  0  0  0  0  0  0  0  0  0
  -26.7130  -34.9460   22.6200 O   0  0  0  0  0  0  0  0  0  0  0  0
  -25.0560  -34.2290   25.2000 H   0  0  0  0  0  0  0  0  0  0  0  0
  -24.3310  -36.8880   23.2010 C   0  0  0  0  0  1  0  0  0  0  0  0
  -25.5460  -36.4840   24.0520 C   0  0  0  0  0  3  0  0  0  0  0  0
  -27.6720  -37.3510   24.9200 C   0  0  0  0  0  1  0  0  0  0  0  0
  -26.5970  -37.5190   23.9460 N   0  0  0  0  0  0  0  0  0  0  0  0
  -26.2000  -38.4480   24.0690 H   0  0  0  0  0  0  0  0  0  0  0  0
  -26.4350  -31.8830   25.4060 C   0  0  1  0  0  0  0  0  0  0  0  0
  -25.3220  -31.6670   26.4560 C   0  0  0  0  0  1  0  0  0  0  0  0
  -27.0160  -30.4970   25.0400 C   0  0  0  0  0  1  0  0  0  0  0  0
  -27.5800  -32.6770   26.0790 C   0  0  0  0  0  1  0  0  0  0  0  0
  3  6  1  0
  3  5  1  0
  4  2  1  0
  4 16  1  0
  5 48  1  0
  5  4  1  0
  6  1  1  0
  6  2  1  0
  6  7  1  6
  8 15  2  0
  9 14  1  0
 10 11  1  0
 10  9  1  0
 12 11  1  0
 12 23  1  0
 12 13  1  0
 14  8  1  0
 14 13  1  0
 16 17  1  0
 16 18  2  0
 17  8  1  0
 19 17  1  0
 20 21  2  0
 21 22  1  0
 21 40  1  0
 22 25  1  0
 23 20  1  0
 23 24  1  0
 24 22  2  0
 25 26  1  0
 26 27  2  0
 28 27  1  0
 29 28  2  0
 30 29  1  0
 30 25  2  0
 31 28  1  0
 31 32  1  0
 32 33  1  0
 33 34  2  0
 35 34  1  0
 35 39  1  0
 36 35  2  0
 37 32  2  0
 37 36  1  0
 38 37  1  0
 40 41  1  0
 41 44  1  0
 41 43  1  0
 42 40  2  0
 45 46  1  0
 45 20  1  0
 47 45  1  0
 49 48  1  0
 50 51  1  0
 50  1  1  0
 51 52  1  0
 52 53  1  0
 52 54  1  0
 55 52  1  0
 56 57  1  0
 56 55  1  0
 57 59  1  0
 58 69  2  0
 59 64  1  0
 60 68  1  0
 60 70  1  0
 61 67  1  0
 61 63  1  0
 62 68  1  0
 63 62  1  0
 64 63  2  0
 65 66  1  0
 65 59  2  0
 66 61  2  0
 67 60  1  0
 68 58  1  0
 70 72  2  0
 71 70  1  0
 73 71  1  0
 74 83  2  0
 74 79  1  0
 75 71  1  0
 75 79  1  0
 76 75  1  0
 77 78  1  0
 77 76  1  0
 78 74  1  0
 79 80  2  0
 80 81  1  0
 82 81  2  0
 83 82  1  0
 84 58  1  0
 84 85  1  0
 84 94  1  0
 85 88  1  0
 86 90  1  0
 86 85  1  0
 87 86  2  0
 90 89  1  0
 92 90  1  0
 92 93  1  0
 92 91  1  0
 94 97  1  1
 94 95  1  0
 96 94  1  0
M  ISO  4   8 100  17 100  56 101  57 101
M  END
>  <TORSDO>  (79) 
F 23

>  <SCORE>  (79) 
-9.912

>  <name>  (79) 
79

>  <ligand_id>  (79) 
79

>  <original_smiles>  (79) 
[H]c1c([H])c([H])c2c(c1[H])C([H])([H])C([H])([H])C([H])([H])C2([H])N([H])C(=O)C1([H])N(C(=O)C([H])(N([H])C(=O)C([H])(N([H])C([H])([H])[H])C([H])([H])[H])C(C([H])([H])[H])(C([H])([H])[H])C([H])([H])[H])C([H])([H])c2c([H])c(OC([H])([H])C([H])([H])[N+]([H])([H])C([H])([H])C([H])([H])C([H])([H])[N+]3([H])C([H])([H])C([H])(C(=O)N([H])C(=O)N4C([H])([H])C([H])([H])C([H])([H])C([H])(n5nc(-c6c([H])c([H])c(Oc7c([H])c([H])c(F)c([H])c7F)c([H])c6[H])c(C(=O)N([H])[H])c5N([H])[H])C4([H])[H])C([H])(C([H])([H])F)C3([H])[H])c([H])c([H])c2C1([H])[H]

>  <smiles>  (79) 
[H]c1c([H])c([H])c2c(c1[H])C([H])([H])C([H])([H])C([H])([H])C2([H])N([H])C(=O)C1([H])N(C(=O)C([H])(N([H])C(=O)C([H])(N([H])C([H])([H])[H])C([H])([H])[H])C(C([H])([H])[H])(C([H])([H])[H])C([H])([H])[H])C([H])([H])c2c([H])c(OC([H])([H])C([H])([H])[N+]([H])([H])C([H])([H])C([H])([H])C([H])([H])[N+]3([H])C([H])([H])C([H])(C(=O)N([H])C(=O)N4C([H])([H])C([H])([H])C([H])([H])C([H])(n5nc(-c6c([H])c([H])c(Oc7c([H])c([H])c(F)c([H])c7F)c([H])c6[H])c(C(=O)N([H])[H])c5N([H])[H])C4([H])[H])C([H])(C([H])([H])F)C3([H])[H])c([H])c([H])c2C1([H])[H]

$$$$
80:0:0
     RDKit          3D

 95103  0  0  1  0  0  0  0  0999 V2000
  -28.8690  -20.8920   21.4640 N   0  0  0  0  0  4  0  0  0  0  0  0
  -29.1160  -21.0020   22.4360 H   0  0  0  0  0  0  0  0  0  0  0  0
  -27.9390  -20.5060   21.4370 H   0  0  0  0  0  0  0  0  0  0  0  0
  -30.2130  -18.3380   18.8450 C   0  0  0  0  0  0  0  0  0  0  0  0
  -29.4470  -19.5500   19.4000 C   0  0  0  0  0  2  0  0  0  0  0  0
  -29.9290  -18.6420   21.7110 C   0  0  0  0  0  2  0  0  0  0  0  0
  -29.8220  -19.9240   20.8560 C   0  0  0  0  0  3  0  0  0  0  0  0
  -31.0070  -17.7000   21.1370 C   0  0  0  0  0  3  0  0  0  0  0  0
  -30.8480  -17.5200   19.6940 N   0  0  0  0  0  0  0  0  0  0  0  0
  -30.2060  -18.1140   17.6350 O   0  0  0  0  0  0  0  0  0  0  0  0
  -31.3140  -16.7050   19.3040 H   0  0  0  0  0  0  0  0  0  0  0  0
  -31.0990  -16.3470   21.8940 C   0  0  0  0  0  2  0  0  0  0  0  0
  -30.7840  -14.4090   20.3480 C   0  0  0  0  0  0  0  0  0  0  0  0
  -30.3660  -12.3480   19.0580 C   0  0  0  0  0  2  0  0  0  0  0  0
  -29.3960  -12.6020   17.8890 C   0  0  0  0  0  2  0  0  0  0  0  0
  -27.9340  -12.4680   18.3550 C   0  0  0  0  0  2  0  0  0  0  0  0
  -27.6430  -13.2820   19.6430 C   0  0  0  0  0  3  0  0  0  0  0  0
  -28.7160  -13.0080   20.7200 C   0  0  0  0  0  2  0  0  0  0  0  0
  -30.0410  -13.2930   20.1370 N   0  0  0  0  0  0  0  0  0  0  0  0
  -31.8100  -14.6710   19.7140 O   0  0  0  0  0  0  0  0  0  0  0  0
  -30.3440  -15.2310   21.3100 N   0  0  0  0  0  0  0  0  0  0  0  0
  -29.4820  -14.9710   21.7660 H   0  0  0  0  0  0  0  0  0  0  0  0
  -25.2600  -13.9090   20.3890 C   0  0  0  0  0  0  0  0  0  0  0  0
  -24.1940  -13.1450   20.7810 C   0  0  0  0  0  0  0  0  0  0  0  0
  -24.6460  -11.7910   20.7470 C   0  0  0  0  0  0  0  0  0  0  0  0
  -26.2950  -13.0210   20.1450 N   0  0  0  0  0  0  0  0  0  0  0  0
  -25.9300  -11.7420   20.4150 N   0  0  0  0  0  0  0  0  0  0  0  0
  -23.9150  -10.5330   20.9570 C   0  0  0  0  0  0  0  0  0  0  0  0
  -24.3570   -9.5690   21.8900 C   0  0  0  0  0  3  0  0  0  0  0  0
  -23.6290   -8.3760   22.0860 C   0  0  0  0  0  3  0  0  0  0  0  0
  -22.4440   -8.1390   21.3490 C   0  0  0  0  0  0  0  0  0  0  0  0
  -22.0220   -9.0910   20.4040 C   0  0  0  0  0  3  0  0  0  0  0  0
  -22.7510  -10.2750   20.2070 C   0  0  0  0  0  3  0  0  0  0  0  0
  -21.6860   -6.9980   21.4540 O   0  0  0  0  0  0  0  0  0  0  0  0
  -21.6470   -6.2630   22.6120 C   0  0  0  0  0  0  0  0  0  0  0  0
  -21.2460   -6.8320   23.8410 C   0  0  0  0  0  3  0  0  0  0  0  0
  -21.1540   -6.0240   24.9920 C   0  0  0  0  0  3  0  0  0  0  0  0
  -21.4520   -4.6500   24.9160 C   0  0  0  0  0  0  0  0  0  0  0  0
  -21.8460   -4.0830   23.6930 C   0  0  0  0  0  3  0  0  0  0  0  0
  -21.9400   -4.8870   22.5430 C   0  0  0  0  0  0  0  0  0  0  0  0
  -22.3000   -4.3300   21.3610 F   0  0  0  0  0  0  0  0  0  0  0  0
  -21.3560   -3.8730   26.0200 F   0  0  0  0  0  0  0  0  0  0  0  0
  -22.8040  -13.6320   21.0790 C   0  0  0  0  0  0  0  0  0  0  0  0
  -22.0890  -12.9420   21.9600 N   0  0  0  0  0  0  0  0  0  0  0  0
  -22.3630  -14.6580   20.5650 O   0  0  0  0  0  0  0  0  0  0  0  0
  -22.4590  -12.1110   22.3990 H   0  0  0  0  0  0  0  0  0  0  0  0
  -21.1570  -13.2490   22.2010 H   0  0  0  0  0  0  0  0  0  0  0  0
  -25.4300  -15.2780   20.2030 N   0  0  0  0  0  0  0  0  0  0  0  0
  -24.6710  -15.9400   20.3210 H   0  0  0  0  0  0  0  0  0  0  0  0
  -26.2830  -15.7070   19.8650 H   0  0  0  0  0  0  0  0  0  0  0  0
  -28.8450  -22.2480   20.8590 C   0  0  0  0  0  2  0  0  0  0  0  0
  -27.7910  -23.1580   21.5250 C   0  0  0  0  0  2  0  0  0  0  0  0
  -27.5020  -24.4660   20.7600 C   0  0  0  0  0  2  0  0  0  0  0  0
  -28.4490  -25.6480   21.0690 C   0  0  0  0  0  2  0  0  0  0  0  0
  -28.3500  -26.7290   20.1310 O   0  0  0  0  0  0  0  0  0  0  0  0
  -24.5760  -31.9040   23.2560 C   0  0  0  0  0  0  0  0  0  0  0  0
  -27.1870  -27.4590   20.1740 C   0  0  0  0  0  0  0  0  0  0  0  0
  -23.3540  -30.4980   21.6270 C   0  0  0  0  0  3  0  0  0  0  0  0
  -24.7950  -28.9560   20.1970 C   0  0  0  0  0  0  0  0  0  0  0  0
  -25.8770  -30.8560   21.4090 C   0  0  0  0  0  2  0  0  0  0  0  0
  -25.9560  -29.4810   20.7800 C   0  0  0  0  0  0  0  0  0  0  0  0
  -27.1560  -28.7370   20.7720 C   0  0  0  0  0  3  0  0  0  0  0  0
  -26.0180  -26.9560   19.5630 C   0  0  0  0  0  3  0  0  0  0  0  0
  -24.8190  -27.6900   19.5890 C   0  0  0  0  0  3  0  0  0  0  0  0
  -23.5510  -29.8140   20.2490 C   0  0  0  0  0  2  0  0  0  0  0  0
  -24.6200  -31.1000   22.1560 N   0  0  0  0  0  0  0  0  0  0  0  0
  -23.4990  -32.1790   23.8030 O   0  0  0  0  0  0  0  0  0  0  0  0
  -22.7110  -29.4790   22.5960 C   0  0  0  0  0  0  0  0  0  0  0  0
  -21.3870  -29.2900   22.4720 N   0  0  0  0  0  0  0  0  0  0  0  0
  -23.3990  -28.8610   23.4130 O   0  0  0  0  0  0  0  0  0  0  0  0
  -20.8940  -29.8410   21.7820 H   0  0  0  0  0  0  0  0  0  0  0  0
  -18.0190  -28.0840   22.9740 C   0  0  0  0  0  0  0  0  0  0  0  0
  -20.5750  -28.3560   23.2490 C   0  0  0  0  0  3  0  0  0  0  0  0
  -20.6850  -26.9200   22.6850 C   0  0  0  0  0  2  0  0  0  0  0  0
  -19.5860  -26.5840   21.6720 C   0  0  0  0  0  2  0  0  0  0  0  0
  -18.2030  -26.7290   22.3120 C   0  0  0  0  0  2  0  0  0  0  0  0
  -19.1340  -28.8540   23.4000 C   0  0  0  0  0  0  0  0  0  0  0  0
  -18.9090  -30.1230   23.9770 C   0  0  0  0  0  3  0  0  0  0  0  0
  -17.6020  -30.6210   24.1350 C   0  0  0  0  0  3  0  0  0  0  0  0
  -16.5010  -29.8480   23.7270 C   0  0  0  0  0  3  0  0  0  0  0  0
  -16.7110  -28.5810   23.1530 C   0  0  0  0  0  3  0  0  0  0  0  0
  -25.8690  -32.5330   23.8620 C   0  0  0  0  0  3  0  0  0  0  0  0
  -25.5650  -33.9310   24.1960 N   0  0  0  0  0  0  0  0  0  0  0  0
  -25.8970  -34.9820   23.4350 C   0  0  0  0  0  0  0  0  0  0  0  0
  -26.5650  -34.8780   22.4020 O   0  0  0  0  0  0  0  0  0  0  0  0
  -24.9740  -34.0860   24.9990 H   0  0  0  0  0  0  0  0  0  0  0  0
  -24.1760  -36.7790   23.0790 C   0  0  0  0  0  1  0  0  0  0  0  0
  -25.4120  -36.3700   23.8950 C   0  0  0  0  0  3  0  0  0  0  0  0
  -27.5490  -37.2430   24.7320 C   0  0  0  0  0  1  0  0  0  0  0  0
  -26.4500  -37.4200   23.7870 N   0  0  0  0  0  0  0  0  0  0  0  0
  -26.0460  -38.3420   23.9360 H   0  0  0  0  0  0  0  0  0  0  0  0
  -26.4030  -31.7580   25.1300 C   0  0  1  0  0  0  0  0  0  0  0  0
  -25.3230  -31.5160   26.2100 C   0  0  0  0  0  1  0  0  0  0  0  0
  -26.9810  -30.3830   24.7240 C   0  0  0  0  0  1  0  0  0  0  0  0
  -27.5620  -32.5510   25.7780 C   0  0  0  0  0  1  0  0  0  0  0  0
  1  2  1  0
  3  1  1  0
  4  5  1  0
  4  9  1  0
  5  7  1  0
  7  1  1  0
  7  6  1  0
  8  6  1  0
  8 12  1  0
  9  8  1  0
 10  4  2  0
 11  9  1  0
 13 21  1  0
 14 19  1  0
 15 16  1  0
 15 14  1  0
 17 16  1  0
 17 26  1  0
 17 18  1  0
 19 13  1  0
 19 18  1  0
 20 13  2  0
 21 22  1  0
 21 12  1  0
 23 24  2  0
 24 43  1  0
 25 24  1  0
 25 28  1  0
 26 23  1  0
 26 27  1  0
 27 25  2  0
 28 29  1  0
 29 30  2  0
 31 34  1  0
 31 30  1  0
 32 31  2  0
 33 32  1  0
 33 28  2  0
 34 35  1  0
 35 36  1  0
 36 37  2  0
 38 37  1  0
 38 42  1  0
 39 38  2  0
 40 35  2  0
 40 39  1  0
 41 40  1  0
 43 44  1  0
 44 47  1  0
 44 46  1  0
 45 43  2  0
 48 49  1  0
 48 23  1  0
 50 48  1  0
 51  1  1  0
 51 52  1  0
 53 54  1  0
 53 52  1  0
 55 57  1  0
 55 54  1  0
 56 67  2  0
 57 62  1  0
 58 66  1  0
 58 68  1  0
 59 65  1  0
 59 61  1  0
 60 66  1  0
 61 60  1  0
 62 61  2  0
 63 64  1  0
 63 57  2  0
 64 59  2  0
 65 58  1  0
 66 56  1  0
 68 70  2  0
 69 68  1  0
 71 69  1  0
 72 81  2  0
 72 77  1  0
 73 69  1  0
 73 77  1  0
 74 73  1  0
 75 76  1  0
 75 74  1  0
 76 72  1  0
 77 78  2  0
 78 79  1  0
 80 79  2  0
 81 80  1  0
 82 56  1  0
 82 83  1  0
 82 92  1  0
 83 86  1  0
 84 88  1  0
 84 83  1  0
 85 84  2  0
 88 87  1  0
 90 88  1  0
 90 91  1  0
 90 89  1  0
 92 95  1  1
 92 93  1  0
 94 92  1  0
M  ISO  4  13 100  21 100  54 101  55 101
M  END
>  <TORSDO>  (80) 
F 22

>  <SCORE>  (80) 
-13.141

>  <name>  (80) 
80

>  <ligand_id>  (80) 
80

>  <original_smiles>  (80) 
[H]c1c([H])c([H])c2c(c1[H])C([H])([H])C([H])([H])C([H])([H])C2([H])N([H])C(=O)C1([H])N(C(=O)C([H])(N([H])C(=O)C([H])(N([H])C([H])([H])[H])C([H])([H])[H])C(C([H])([H])[H])(C([H])([H])[H])C([H])([H])[H])C([H])([H])c2c([H])c(OC([H])([H])C([H])([H])C([H])([H])C([H])([H])[N+]([H])([H])C3([H])C([H])([H])C(=O)N([H])C([H])(C([H])([H])N([H])C(=O)N4C([H])([H])C([H])([H])C([H])([H])C([H])(n5nc(-c6c([H])c([H])c(Oc7c([H])c([H])c(F)c([H])c7F)c([H])c6[H])c(C(=O)N([H])[H])c5N([H])[H])C4([H])[H])C3([H])[H])c([H])c([H])c2C1([H])[H]

>  <smiles>  (80) 
[H]c1c([H])c([H])c2c(c1[H])C([H])([H])C([H])([H])C([H])([H])C2([H])N([H])C(=O)C1([H])N(C(=O)C([H])(N([H])C(=O)C([H])(N([H])C([H])([H])[H])C([H])([H])[H])C(C([H])([H])[H])(C([H])([H])[H])C([H])([H])[H])C([H])([H])c2c([H])c(OC([H])([H])C([H])([H])C([H])([H])C([H])([H])[N+]([H])([H])C3([H])C([H])([H])C(=O)N([H])C([H])(C([H])([H])N([H])C(=O)N4C([H])([H])C([H])([H])C([H])([H])C([H])(n5nc(-c6c([H])c([H])c(Oc7c([H])c([H])c(F)c([H])c7F)c([H])c6[H])c(C(=O)N([H])[H])c5N([H])[H])C4([H])[H])C3([H])[H])c([H])c([H])c2C1([H])[H]

$$$$
81:0:0
     RDKit          3D

 97105  0  0  1  0  0  0  0  0999 V2000
  -29.5700  -18.0830   20.5390 C   0  0  0  0  0  0  0  0  0  0  0  0
  -31.9350  -17.3060   21.1380 C   0  0  0  0  0  2  0  0  0  0  0  0
  -32.9620  -18.0600   20.2640 C   0  0  0  0  0  2  0  0  0  0  0  0
  -31.2750  -19.7280   19.4230 C   0  0  0  0  0  2  0  0  0  0  0  0
  -30.1240  -19.5440   20.4560 C   0  0  0  0  0  3  0  0  0  0  0  0
  -30.6190  -16.9710   20.3770 C   0  0  0  0  0  3  0  0  0  0  0  0
  -28.3590  -17.7660   20.7600 N   0  0  0  0  0  0  0  0  0  0  0  0
  -32.6210  -19.4750   20.0000 N   0  0  0  0  0  4  0  0  0  0  0  0
  -27.7600  -18.5830   20.8400 H   0  0  0  0  0  0  0  0  0  0  0  0
  -33.3050  -19.8220   19.3430 H   0  0  0  0  0  0  0  0  0  0  0  0
  -32.7430  -20.0220   20.8370 H   0  0  0  0  0  0  0  0  0  0  0  0
  -30.7040  -14.5020   20.3340 C   0  0  0  0  0  0  0  0  0  0  0  0
  -30.3050  -12.3550   19.2300 C   0  0  0  0  0  2  0  0  0  0  0  0
  -29.3700  -12.5830   18.0270 C   0  0  0  0  0  2  0  0  0  0  0  0
  -27.9010  -12.4700   18.4670 C   0  0  0  0  0  2  0  0  0  0  0  0
  -27.5790  -13.3030   19.7390 C   0  0  0  0  0  3  0  0  0  0  0  0
  -28.6490  -13.1140   20.8420 C   0  0  0  0  0  2  0  0  0  0  0  0
  -29.9670  -13.3640   20.2450 N   0  0  0  0  0  0  0  0  0  0  0  0
  -31.8430  -14.5770   19.8750 O   0  0  0  0  0  0  0  0  0  0  0  0
  -30.0850  -15.6290   20.7220 N   0  0  0  0  0  0  0  0  0  0  0  0
  -29.1170  -15.6020   21.0130 H   0  0  0  0  0  0  0  0  0  0  0  0
  -25.1810  -13.8940   20.4520 C   0  0  0  0  0  0  0  0  0  0  0  0
  -24.1180  -13.1180   20.8250 C   0  0  0  0  0  0  0  0  0  0  0  0
  -24.5840  -11.7670   20.8000 C   0  0  0  0  0  0  0  0  0  0  0  0
  -26.2320  -13.0180   20.2280 N   0  0  0  0  0  0  0  0  0  0  0  0
  -25.8760  -11.7330   20.4950 N   0  0  0  0  0  0  0  0  0  0  0  0
  -23.8610  -10.5020   20.9950 C   0  0  0  0  0  0  0  0  0  0  0  0
  -24.2950   -9.5430   21.9380 C   0  0  0  0  0  3  0  0  0  0  0  0
  -23.5740   -8.3420   22.1240 C   0  0  0  0  0  3  0  0  0  0  0  0
  -22.4070   -8.0920   21.3640 C   0  0  0  0  0  0  0  0  0  0  0  0
  -21.9930   -9.0390   20.4100 C   0  0  0  0  0  3  0  0  0  0  0  0
  -22.7140  -10.2300   20.2250 C   0  0  0  0  0  3  0  0  0  0  0  0
  -21.6590   -6.9430   21.4570 O   0  0  0  0  0  0  0  0  0  0  0  0
  -21.6030   -6.2110   22.6160 C   0  0  0  0  0  0  0  0  0  0  0  0
  -21.1600   -6.7760   23.8330 C   0  0  0  0  0  3  0  0  0  0  0  0
  -21.0530   -5.9700   24.9840 C   0  0  0  0  0  3  0  0  0  0  0  0
  -21.3790   -4.6010   24.9200 C   0  0  0  0  0  0  0  0  0  0  0  0
  -21.8130   -4.0360   23.7070 C   0  0  0  0  0  3  0  0  0  0  0  0
  -21.9220   -4.8400   22.5590 C   0  0  0  0  0  0  0  0  0  0  0  0
  -22.3220   -4.2860   21.3880 F   0  0  0  0  0  0  0  0  0  0  0  0
  -21.2680   -3.8250   26.0220 F   0  0  0  0  0  0  0  0  0  0  0  0
  -22.7180  -13.5870   21.0990 C   0  0  0  0  0  0  0  0  0  0  0  0
  -21.9960  -12.8870   21.9660 N   0  0  0  0  0  0  0  0  0  0  0  0
  -22.2760  -14.6110   20.5800 O   0  0  0  0  0  0  0  0  0  0  0  0
  -22.3690  -12.0590   22.4080 H   0  0  0  0  0  0  0  0  0  0  0  0
  -21.0570  -13.1820   22.1930 H   0  0  0  0  0  0  0  0  0  0  0  0
  -25.3430  -15.2630   20.2670 N   0  0  0  0  0  0  0  0  0  0  0  0
  -24.5820  -15.9240   20.3750 H   0  0  0  0  0  0  0  0  0  0  0  0
  -26.2120  -15.7050   19.9890 H   0  0  0  0  0  0  0  0  0  0  0  0
  -29.0770  -20.6760   20.2720 C   0  0  0  0  0  0  0  0  0  0  0  0
  -29.3250  -21.8250   20.9300 N   0  0  0  0  0  0  0  0  0  0  0  0
  -28.0830  -20.5290   19.5570 O   0  0  0  0  0  0  0  0  0  0  0  0
  -30.1710  -21.8640   21.4840 H   0  0  0  0  0  0  0  0  0  0  0  0
  -28.4290  -22.9770   21.0680 C   0  0  0  0  0  2  0  0  0  0  0  0
  -29.0120  -24.2990   20.5130 C   0  0  0  0  0  2  0  0  0  0  0  0
  -28.1370  -25.4920   20.9500 C   0  0  0  0  0  2  0  0  0  0  0  0
  -28.3620  -26.7180   20.2350 O   0  0  0  0  0  0  0  0  0  0  0  0
  -24.5700  -31.9410   23.2500 C   0  0  0  0  0  0  0  0  0  0  0  0
  -27.2280  -27.4980   20.1880 C   0  0  0  0  0  0  0  0  0  0  0  0
  -23.3720  -30.5290   21.6120 C   0  0  0  0  0  3  0  0  0  0  0  0
  -24.8340  -28.9960   20.1920 C   0  0  0  0  0  0  0  0  0  0  0  0
  -25.8990  -30.8920   21.4210 C   0  0  0  0  0  2  0  0  0  0  0  0
  -25.9900  -29.5220   20.7840 C   0  0  0  0  0  0  0  0  0  0  0  0
  -27.1940  -28.7780   20.7850 C   0  0  0  0  0  3  0  0  0  0  0  0
  -26.0610  -26.9960   19.5690 C   0  0  0  0  0  3  0  0  0  0  0  0
  -24.8620  -27.7290   19.5840 C   0  0  0  0  0  3  0  0  0  0  0  0
  -23.5890  -29.8480   20.2370 C   0  0  0  0  0  2  0  0  0  0  0  0
  -24.6320  -31.1360   22.1540 N   0  0  0  0  0  0  0  0  0  0  0  0
  -23.4860  -32.2170   23.7810 O   0  0  0  0  0  0  0  0  0  0  0  0
  -22.7210  -29.5090   22.5720 C   0  0  0  0  0  0  0  0  0  0  0  0
  -21.3950  -29.3320   22.4430 N   0  0  0  0  0  0  0  0  0  0  0  0
  -23.4030  -28.8810   23.3850 O   0  0  0  0  0  0  0  0  0  0  0  0
  -20.9110  -29.8940   21.7580 H   0  0  0  0  0  0  0  0  0  0  0  0
  -18.0130  -28.1630   22.9570 C   0  0  0  0  0  0  0  0  0  0  0  0
  -20.5750  -28.3970   23.2120 C   0  0  0  0  0  3  0  0  0  0  0  0
  -20.6610  -26.9700   22.6260 C   0  0  0  0  0  2  0  0  0  0  0  0
  -19.5490  -26.6630   21.6160 C   0  0  0  0  0  2  0  0  0  0  0  0
  -18.1740  -26.8160   22.2710 C   0  0  0  0  0  2  0  0  0  0  0  0
  -19.1420  -28.9120   23.3820 C   0  0  0  0  0  0  0  0  0  0  0  0
  -18.9410  -30.1730   23.9830 C   0  0  0  0  0  3  0  0  0  0  0  0
  -17.6430  -30.6910   24.1570 C   0  0  0  0  0  3  0  0  0  0  0  0
  -16.5280  -29.9390   23.7480 C   0  0  0  0  0  3  0  0  0  0  0  0
  -16.7140  -28.6760   23.1570 C   0  0  0  0  0  3  0  0  0  0  0  0
  -25.8510  -32.5730   23.8730 C   0  0  0  0  0  3  0  0  0  0  0  0
  -26.3650  -31.8110   25.1550 C   0  0  1  0  0  0  0  0  0  0  0  0
  -25.2660  -31.5700   26.2210 C   0  0  0  0  0  1  0  0  0  0  0  0
  -26.9570  -30.4330   24.7690 C   0  0  0  0  0  1  0  0  0  0  0  0
  -27.5120  -32.6110   25.8170 C   0  0  0  0  0  1  0  0  0  0  0  0
  -25.5410  -33.9740   24.1890 N   0  0  0  0  0  0  0  0  0  0  0  0
  -25.8860  -35.0210   23.4260 C   0  0  0  0  0  0  0  0  0  0  0  0
  -26.5720  -34.9100   22.4060 O   0  0  0  0  0  0  0  0  0  0  0  0
  -24.9310  -34.1350   24.9780 H   0  0  0  0  0  0  0  0  0  0  0  0
  -24.1740  -36.8180   23.0260 C   0  0  0  0  0  1  0  0  0  0  0  0
  -25.3960  -36.4140   23.8640 C   0  0  0  0  0  3  0  0  0  0  0  0
  -27.5170  -37.2920   24.7310 C   0  0  0  0  0  1  0  0  0  0  0  0
  -26.4350  -37.4600   23.7660 N   0  0  0  0  0  0  0  0  0  0  0  0
  -26.0290  -38.3820   23.9010 H   0  0  0  0  0  0  0  0  0  0  0  0
  1  7  2  0
  3  2  1  0
  4  8  1  0
  4  5  1  0
  5 50  1  0
  5  1  1  0
  6  1  1  0
  6 20  1  0
  6  2  1  0
  7  9  1  0
  8  3  1  0
  8 11  1  0
 10  8  1  0
 12 20  1  0
 13 18  1  0
 14 15  1  0
 14 13  1  0
 16 15  1  0
 16 25  1  0
 16 17  1  0
 18 12  1  0
 18 17  1  0
 19 12  2  0
 20 21  1  0
 22 23  2  0
 23 42  1  0
 24 23  1  0
 24 27  1  0
 25 22  1  0
 25 26  1  0
 26 24  2  0
 27 28  1  0
 28 29  2  0
 30 33  1  0
 30 29  1  0
 31 30  2  0
 32 31  1  0
 32 27  2  0
 33 34  1  0
 34 35  1  0
 35 36  2  0
 37 36  1  0
 37 41  1  0
 38 37  2  0
 39 34  2  0
 39 38  1  0
 40 39  1  0
 42 43  1  0
 43 46  1  0
 43 45  1  0
 44 42  2  0
 47 48  1  0
 47 22  1  0
 49 47  1  0
 50 51  1  0
 51 54  1  0
 51 53  1  0
 52 50  2  0
 55 56  1  0
 55 54  1  0
 57 56  1  0
 58 69  2  0
 59 57  1  0
 59 64  1  0
 60 68  1  0
 60 70  1  0
 61 67  1  0
 61 63  1  0
 62 68  1  0
 63 64  2  0
 63 62  1  0
 65 66  1  0
 65 59  2  0
 66 61  2  0
 67 60  1  0
 68 58  1  0
 70 72  2  0
 71 70  1  0
 73 71  1  0
 74 83  2  0
 74 79  1  0
 75 71  1  0
 75 79  1  0
 76 75  1  0
 77 78  1  0
 77 76  1  0
 78 74  1  0
 79 80  2  0
 80 81  1  0
 82 81  2  0
 83 82  1  0
 84 58  1  0
 84 89  1  0
 84 85  1  0
 85 88  1  1
 85 86  1  0
 87 85  1  0
 89 92  1  0
 90 94  1  0
 90 89  1  0
 91 90  2  0
 94 93  1  0
 96 94  1  0
 96 97  1  0
 96 95  1  0
M  ISO  4  12 100  20 100  56 101  57 101
M  END
>  <TORSDO>  (81) 
F 20

>  <SCORE>  (81) 
-14.112

>  <name>  (81) 
81

>  <ligand_id>  (81) 
81

>  <original_smiles>  (81) 
[H]N=C1C([H])(C(=O)N([H])C([H])([H])C([H])([H])C([H])([H])Oc2c([H])c([H])c3c(c2[H])C([H])([H])N(C(=O)C([H])(N([H])C(=O)C([H])(N([H])C([H])([H])[H])C([H])([H])[H])C(C([H])([H])[H])(C([H])([H])[H])C([H])([H])[H])C([H])(C(=O)N([H])C2([H])c4c([H])c([H])c([H])c([H])c4C([H])([H])C([H])([H])C2([H])[H])C3([H])[H])C([H])([H])[N+]([H])([H])C([H])([H])C([H])([H])C1([H])N([H])C(=O)N1C([H])([H])C([H])([H])C([H])([H])C([H])(n2nc(-c3c([H])c([H])c(Oc4c([H])c([H])c(F)c([H])c4F)c([H])c3[H])c(C(=O)N([H])[H])c2N([H])[H])C1([H])[H]

>  <smiles>  (81) 
[H]N=C1C([H])(C(=O)N([H])C([H])([H])C([H])([H])C([H])([H])Oc2c([H])c([H])c3c(c2[H])C([H])([H])N(C(=O)C([H])(N([H])C(=O)C([H])(N([H])C([H])([H])[H])C([H])([H])[H])C(C([H])([H])[H])(C([H])([H])[H])C([H])([H])[H])C([H])(C(=O)N([H])C2([H])c4c([H])c([H])c([H])c([H])c4C([H])([H])C([H])([H])C2([H])[H])C3([H])[H])C([H])([H])[N+]([H])([H])C([H])([H])C([H])([H])C1([H])N([H])C(=O)N1C([H])([H])C([H])([H])C([H])([H])C([H])(n2nc(-c3c([H])c([H])c(Oc4c([H])c([H])c(F)c([H])c4F)c([H])c3[H])c(C(=O)N([H])[H])c2N([H])[H])C1([H])[H]

$$$$
82:0:0
     RDKit          3D

 96105  0  0  1  0  0  0  0  0999 V2000
  -31.4410  -21.8440   15.8580 C   0  0  0  0  0  2  0  0  0  0  0  0
  -32.1570  -21.8280   17.2070 C   0  0  0  0  0  2  0  0  0  0  0  0
  -29.9560  -22.0750   16.1790 C   0  0  0  0  0  2  0  0  0  0  0  0
  -31.0530  -21.9030   18.2790 C   0  0  0  0  0  3  0  0  0  0  0  0
  -29.8540  -22.4790   17.6070 N   0  0  1  0  0  4  0  0  0  0  0  0
  -29.0320  -22.0330   17.9810 H   0  0  0  0  0  0  0  0  0  0  0  0
  -30.7680  -19.2960   18.3400 C   0  0  0  0  0  3  0  0  0  0  0  0
  -30.6790  -18.0740   19.0630 C   0  0  0  0  0  3  0  0  0  0  0  0
  -30.7020  -20.5460   20.4110 C   0  0  0  0  0  3  0  0  0  0  0  0
  -30.8030  -20.5530   19.0040 C   0  0  0  0  0  0  0  0  0  0  0  0
  -30.6230  -18.0800   20.4740 C   0  0  0  0  0  0  0  0  0  0  0  0
  -30.6320  -19.3370   21.1290 C   0  0  0  0  0  0  0  0  0  0  0  0
  -30.6190  -19.3880   22.4810 F   0  0  0  0  0  0  0  0  0  0  0  0
  -30.6650  -16.8040   21.3380 C   0  0  0  0  0  2  0  0  0  0  0  0
  -30.7580  -14.4640   20.4440 C   0  0  0  0  0  0  0  0  0  0  0  0
  -30.4140  -12.2890   19.3390 C   0  0  0  0  0  2  0  0  0  0  0  0
  -29.4850  -12.4820   18.1270 C   0  0  0  0  0  2  0  0  0  0  0  0
  -28.0100  -12.3680   18.5570 C   0  0  0  0  0  2  0  0  0  0  0  0
  -27.6710  -13.2430   19.7960 C   0  0  0  0  0  3  0  0  0  0  0  0
  -28.7160  -13.0550   20.9130 C   0  0  0  0  0  2  0  0  0  0  0  0
  -30.0440  -13.3110   20.3300 N   0  0  0  0  0  0  0  0  0  0  0  0
  -31.9280  -14.5670   20.0770 O   0  0  0  0  0  0  0  0  0  0  0  0
  -30.0730  -15.5510   20.8320 N   0  0  0  0  0  0  0  0  0  0  0  0
  -29.0860  -15.4240   20.9990 H   0  0  0  0  0  0  0  0  0  0  0  0
  -25.2810  -13.8930   20.4900 C   0  0  0  0  0  0  0  0  0  0  0  0
  -24.2000  -13.1340   20.8550 C   0  0  0  0  0  0  0  0  0  0  0  0
  -24.6430  -11.7750   20.8410 C   0  0  0  0  0  0  0  0  0  0  0  0
  -26.3140  -12.9920   20.2740 N   0  0  0  0  0  0  0  0  0  0  0  0
  -25.9340  -11.7170   20.5460 N   0  0  0  0  0  0  0  0  0  0  0  0
  -23.8980  -10.5250   21.0330 C   0  0  0  0  0  0  0  0  0  0  0  0
  -24.3130   -9.5550   21.9710 C   0  0  0  0  0  3  0  0  0  0  0  0
  -23.5710   -8.3680   22.1480 C   0  0  0  0  0  3  0  0  0  0  0  0
  -22.3950   -8.1460   21.3910 C   0  0  0  0  0  0  0  0  0  0  0  0
  -22.0010   -9.1040   20.4420 C   0  0  0  0  0  3  0  0  0  0  0  0
  -22.7430  -10.2830   20.2640 C   0  0  0  0  0  3  0  0  0  0  0  0
  -21.6230   -7.0130   21.4790 O   0  0  0  0  0  0  0  0  0  0  0  0
  -21.5670   -6.2680   22.6290 C   0  0  0  0  0  0  0  0  0  0  0  0
  -21.1550   -6.8300   23.8580 C   0  0  0  0  0  3  0  0  0  0  0  0
  -21.0420   -6.0160   25.0010 C   0  0  0  0  0  3  0  0  0  0  0  0
  -21.3310   -4.6390   24.9190 C   0  0  0  0  0  0  0  0  0  0  0  0
  -21.7340   -4.0780   23.6930 C   0  0  0  0  0  3  0  0  0  0  0  0
  -21.8470   -4.8910   22.5520 C   0  0  0  0  0  0  0  0  0  0  0  0
  -22.2180   -4.3410   21.3700 F   0  0  0  0  0  0  0  0  0  0  0  0
  -21.2160   -3.8520   26.0140 F   0  0  0  0  0  0  0  0  0  0  0  0
  -22.8060  -13.6340   21.1030 C   0  0  0  0  0  0  0  0  0  0  0  0
  -22.0590  -12.9530   21.9680 N   0  0  0  0  0  0  0  0  0  0  0  0
  -22.3850  -14.6610   20.5710 O   0  0  0  0  0  0  0  0  0  0  0  0
  -22.4130  -12.1270   22.4250 H   0  0  0  0  0  0  0  0  0  0  0  0
  -21.1210  -13.2650   22.1780 H   0  0  0  0  0  0  0  0  0  0  0  0
  -25.4700  -15.2540   20.3050 N   0  0  0  0  0  0  0  0  0  0  0  0
  -24.7130  -15.9240   20.3960 H   0  0  0  0  0  0  0  0  0  0  0  0
  -26.3320  -15.6740   19.9750 H   0  0  0  0  0  0  0  0  0  0  0  0
  -29.6730  -23.9700   17.7170 C   0  0  0  0  0  2  0  0  0  0  0  0
  -29.2950  -24.5820   19.1010 C   0  0  0  0  0  2  0  0  0  0  0  0
  -29.0230  -26.1150   18.9820 C   0  0  0  0  0  2  0  0  0  0  0  0
  -28.5180  -26.7280   20.1790 O   0  0  0  0  0  0  0  0  0  0  0  0
  -24.6130  -31.8620   23.2060 C   0  0  0  0  0  0  0  0  0  0  0  0
  -27.3360  -27.4450   20.1290 C   0  0  0  0  0  0  0  0  0  0  0  0
  -23.4320  -30.4510   21.5490 C   0  0  0  0  0  3  0  0  0  0  0  0
  -24.9120  -28.9110   20.1500 C   0  0  0  0  0  0  0  0  0  0  0  0
  -25.9560  -30.8170   21.3880 C   0  0  0  0  0  2  0  0  0  0  0  0
  -26.0560  -29.4470   20.7480 C   0  0  0  0  0  0  0  0  0  0  0  0
  -27.2660  -28.7110   20.7540 C   0  0  0  0  0  3  0  0  0  0  0  0
  -26.1720  -26.9230   19.5270 C   0  0  0  0  0  3  0  0  0  0  0  0
  -24.9600  -27.6440   19.5410 C   0  0  0  0  0  3  0  0  0  0  0  0
  -23.6640  -29.7620   20.1770 C   0  0  0  0  0  2  0  0  0  0  0  0
  -24.6830  -31.0610   22.1050 N   0  0  0  0  0  0  0  0  0  0  0  0
  -23.5270  -32.1330   23.7350 O   0  0  0  0  0  0  0  0  0  0  0  0
  -22.7670  -29.4370   22.5110 C   0  0  0  0  0  0  0  0  0  0  0  0
  -21.4420  -29.2620   22.3760 N   0  0  0  0  0  0  0  0  0  0  0  0
  -23.4410  -28.8060   23.3290 O   0  0  0  0  0  0  0  0  0  0  0  0
  -20.9580  -29.8210   21.6880 H   0  0  0  0  0  0  0  0  0  0  0  0
  -18.0580  -28.0890   22.8640 C   0  0  0  0  0  0  0  0  0  0  0  0
  -20.6170  -28.3260   23.1420 C   0  0  0  0  0  3  0  0  0  0  0  0
  -20.7110  -26.8980   22.5570 C   0  0  0  0  0  2  0  0  0  0  0  0
  -19.6110  -26.5910   21.5390 C   0  0  0  0  0  2  0  0  0  0  0  0
  -18.2270  -26.7430   22.1810 C   0  0  0  0  0  2  0  0  0  0  0  0
  -19.1800  -28.8410   23.3010 C   0  0  0  0  0  0  0  0  0  0  0  0
  -18.9720  -30.1010   23.9010 C   0  0  0  0  0  3  0  0  0  0  0  0
  -17.6710  -30.6110   24.0670 C   0  0  0  0  0  3  0  0  0  0  0  0
  -16.5620  -29.8570   23.6440 C   0  0  0  0  0  3  0  0  0  0  0  0
  -16.7570  -28.5980   23.0500 C   0  0  0  0  0  3  0  0  0  0  0  0
  -25.8890  -32.4970   23.8410 C   0  0  0  0  0  3  0  0  0  0  0  0
  -25.5730  -33.8910   24.1740 N   0  0  0  0  0  0  0  0  0  0  0  0
  -25.9100  -34.9490   23.4220 C   0  0  0  0  0  0  0  0  0  0  0  0
  -26.5860  -34.8510   22.3930 O   0  0  0  0  0  0  0  0  0  0  0  0
  -24.9690  -34.0420   24.9700 H   0  0  0  0  0  0  0  0  0  0  0  0
  -24.1750  -36.7350   23.0580 C   0  0  0  0  0  1  0  0  0  0  0  0
  -25.4120  -36.3350   23.8790 C   0  0  0  0  0  3  0  0  0  0  0  0
  -27.5390  -37.2240   24.7250 C   0  0  0  0  0  1  0  0  0  0  0  0
  -26.4440  -37.3900   23.7740 N   0  0  0  0  0  0  0  0  0  0  0  0
  -26.0340  -38.3090   23.9190 H   0  0  0  0  0  0  0  0  0  0  0  0
  -26.4000  -31.7260   25.1190 C   0  0  1  0  0  0  0  0  0  0  0  0
  -25.2980  -31.4830   26.1780 C   0  0  0  0  0  1  0  0  0  0  0  0
  -26.9900  -30.3510   24.7270 C   0  0  0  0  0  1  0  0  0  0  0  0
  -27.5450  -32.5180   25.7920 C   0  0  0  0  0  1  0  0  0  0  0  0
  1  3  1  0
  1  2  1  0
  2  4  1  0
  3  5  1  0
  4 10  1  0
  5 53  1  0
  5  6  1  1
  5  4  1  0
  7 10  2  0
  7  8  1  0
  8 11  2  0
  9 12  2  0
 10  9  1  0
 11 12  1  0
 11 14  1  0
 12 13  1  0
 15 23  1  0
 16 21  1  0
 17 18  1  0
 17 16  1  0
 19 18  1  0
 19 28  1  0
 19 20  1  0
 21 15  1  0
 21 20  1  0
 22 15  2  0
 23 24  1  0
 23 14  1  0
 25 26  2  0
 26 45  1  0
 27 26  1  0
 27 30  1  0
 28 25  1  0
 28 29  1  0
 29 27  2  0
 30 31  1  0
 31 32  2  0
 33 36  1  0
 33 32  1  0
 34 33  2  0
 35 34  1  0
 35 30  2  0
 36 37  1  0
 37 38  1  0
 38 39  2  0
 40 39  1  0
 40 44  1  0
 41 40  2  0
 42 37  2  0
 42 41  1  0
 43 42  1  0
 45 46  1  0
 46 49  1  0
 46 48  1  0
 47 45  2  0
 50 51  1  0
 50 25  1  0
 52 50  1  0
 53 54  1  0
 55 54  1  0
 55 56  1  0
 57 68  2  0
 58 56  1  0
 58 63  1  0
 59 67  1  0
 59 69  1  0
 60 66  1  0
 60 62  1  0
 61 67  1  0
 62 63  2  0
 62 61  1  0
 64 65  1  0
 64 58  2  0
 65 60  2  0
 66 59  1  0
 67 57  1  0
 69 71  2  0
 70 69  1  0
 72 70  1  0
 73 82  2  0
 73 78  1  0
 74 70  1  0
 74 78  1  0
 75 74  1  0
 76 77  1  0
 76 75  1  0
 77 73  1  0
 78 79  2  0
 79 80  1  0
 81 80  2  0
 82 81  1  0
 83 57  1  0
 83 84  1  0
 83 93  1  0
 84 87  1  0
 85 89  1  0
 85 84  1  0
 86 85  2  0
 89 88  1  0
 91 89  1  0
 91 92  1  0
 91 90  1  0
 93 96  1  1
 93 94  1  0
 95 93  1  0
M  ISO  4  15 100  23 100  55 101  56 101
M  END
>  <TORSDO>  (82) 
F 21

>  <SCORE>  (82) 
-13.521

>  <name>  (82) 
82

>  <ligand_id>  (82) 
82

>  <original_smiles>  (82) 
[H]c1c([H])c([H])c2c(c1[H])C([H])([H])C([H])([H])C([H])([H])C2([H])N([H])C(=O)C1([H])N(C(=O)C([H])(N([H])C(=O)C([H])(N([H])C([H])([H])[H])C([H])([H])[H])C(C([H])([H])[H])(C([H])([H])[H])C([H])([H])[H])C([H])([H])c2c([H])c(OC([H])([H])C([H])([H])C([H])([H])[N+]3([H])C([H])([H])C([H])([H])C([H])([H])C3([H])c3c([H])c([H])c(C([H])([H])N([H])C(=O)N4C([H])([H])C([H])([H])C([H])([H])C([H])(n5nc(-c6c([H])c([H])c(Oc7c([H])c([H])c(F)c([H])c7F)c([H])c6[H])c(C(=O)N([H])[H])c5N([H])[H])C4([H])[H])c(F)c3[H])c([H])c([H])c2C1([H])[H]

>  <smiles>  (82) 
[H]c1c([H])c([H])c2c(c1[H])C([H])([H])C([H])([H])C([H])([H])C2([H])N([H])C(=O)C1([H])N(C(=O)C([H])(N([H])C(=O)C([H])(N([H])C([H])([H])[H])C([H])([H])[H])C(C([H])([H])[H])(C([H])([H])[H])C([H])([H])[H])C([H])([H])c2c([H])c(OC([H])([H])C([H])([H])C([H])([H])[N+]3([H])C([H])([H])C([H])([H])C([H])([H])C3([H])c3c([H])c([H])c(C([H])([H])N([H])C(=O)N4C([H])([H])C([H])([H])C([H])([H])C([H])(n5nc(-c6c([H])c([H])c(Oc7c([H])c([H])c(F)c([H])c7F)c([H])c6[H])c(C(=O)N([H])[H])c5N([H])[H])C4([H])[H])c(F)c3[H])c([H])c([H])c2C1([H])[H]

$$$$
83:0:0
     RDKit          3D

 95104  0  0  1  0  0  0  0  0999 V2000
  -31.0660  -15.2170   19.8200 C   0  0  0  0  0  0  0  0  0  0  0  0
  -30.9850  -12.7400   19.2620 C   0  0  0  0  0  2  0  0  0  0  0  0
  -30.0430  -12.4470   18.0740 C   0  0  0  0  0  2  0  0  0  0  0  0
  -28.5950  -12.2600   18.5620 C   0  0  0  0  0  2  0  0  0  0  0  0
  -28.1640  -13.3570   19.5690 C   0  0  0  0  0  3  0  0  0  0  0  0
  -29.2290  -13.6170   20.6530 C   0  0  0  0  0  2  0  0  0  0  0  0
  -30.4730  -13.9590   19.9510 N   0  0  0  0  0  0  0  0  0  0  0  0
  -32.2910  -15.2270   19.6520 O   0  0  0  0  0  0  0  0  0  0  0  0
  -29.3620  -18.1520   18.0920 C   0  0  0  0  0  2  0  0  0  0  0  0
  -29.3440  -16.6530   18.5870 C   0  0  0  0  0  2  0  0  0  0  0  0
  -30.6690  -17.9090   20.0210 C   0  0  0  0  0  3  0  0  0  0  0  0
  -29.6550  -19.0120   19.3250 C   0  0  0  0  0  3  0  0  0  0  0  0
  -30.3030  -16.4310   19.6980 N   0  0  0  0  0  0  0  0  0  0  0  0
  -30.2290  -17.3820   23.8010 C   0  0  0  0  0  3  0  0  0  0  0  0
  -30.1730  -17.1800   22.4090 C   0  0  0  0  0  3  0  0  0  0  0  0
  -30.8380  -18.5410   24.3210 C   0  0  0  0  0  3  0  0  0  0  0  0
  -31.3350  -19.2950   22.0550 C   0  0  0  0  0  3  0  0  0  0  0  0
  -30.7310  -18.1330   21.5260 C   0  0  0  0  0  0  0  0  0  0  0  0
  -31.3890  -19.4970   23.4480 C   0  0  0  0  0  0  0  0  0  0  0  0
  -31.9700  -20.6140   23.9480 F   0  0  0  0  0  0  0  0  0  0  0  0
  -25.8850  -14.0340   20.5140 C   0  0  0  0  0  0  0  0  0  0  0  0
  -24.7870  -13.3070   20.8760 C   0  0  0  0  0  0  0  0  0  0  0  0
  -25.1470  -11.9360   20.7020 C   0  0  0  0  0  0  0  0  0  0  0  0
  -26.8430  -13.1100   20.1320 N   0  0  0  0  0  0  0  0  0  0  0  0
  -26.4140  -11.8360   20.3140 N   0  0  0  0  0  0  0  0  0  0  0  0
  -24.3400  -10.7160   20.8240 C   0  0  0  0  0  0  0  0  0  0  0  0
  -24.7960   -9.5970   21.5540 C   0  0  0  0  0  3  0  0  0  0  0  0
  -23.9920   -8.4440   21.6740 C   0  0  0  0  0  3  0  0  0  0  0  0
  -22.7160   -8.4020   21.0620 C   0  0  0  0  0  0  0  0  0  0  0  0
  -22.2770   -9.5100   20.3170 C   0  0  0  0  0  3  0  0  0  0  0  0
  -23.0810  -10.6540   20.1940 C   0  0  0  0  0  3  0  0  0  0  0  0
  -21.8760   -7.3150   21.1050 O   0  0  0  0  0  0  0  0  0  0  0  0
  -22.0060   -6.3420   22.0630 C   0  0  0  0  0  0  0  0  0  0  0  0
  -21.9190   -6.6380   23.4410 C   0  0  0  0  0  3  0  0  0  0  0  0
  -21.9880   -5.5980   24.3890 C   0  0  0  0  0  3  0  0  0  0  0  0
  -22.1340   -4.2640   23.9640 C   0  0  0  0  0  0  0  0  0  0  0  0
  -22.2160   -3.9670   22.5920 C   0  0  0  0  0  3  0  0  0  0  0  0
  -22.1490   -5.0040   21.6440 C   0  0  0  0  0  0  0  0  0  0  0  0
  -22.2070   -4.7110   20.3230 F   0  0  0  0  0  0  0  0  0  0  0  0
  -22.1930   -3.2650   24.8740 F   0  0  0  0  0  0  0  0  0  0  0  0
  -23.4470  -13.8550   21.2670 C   0  0  0  0  0  0  0  0  0  0  0  0
  -22.7240  -13.1480   22.1280 N   0  0  0  0  0  0  0  0  0  0  0  0
  -23.0540  -14.9420   20.8460 O   0  0  0  0  0  0  0  0  0  0  0  0
  -23.0570  -12.2670   22.4890 H   0  0  0  0  0  0  0  0  0  0  0  0
  -21.8250  -13.4950   22.4330 H   0  0  0  0  0  0  0  0  0  0  0  0
  -26.1400  -15.4010   20.4480 N   0  0  0  0  0  0  0  0  0  0  0  0
  -25.4280  -16.0910   20.6640 H   0  0  0  0  0  0  0  0  0  0  0  0
  -27.0000  -15.8090   20.1090 H   0  0  0  0  0  0  0  0  0  0  0  0
  -30.0030  -20.5610   19.1350 N   0  0  0  0  0  4  0  0  0  0  0  0
  -30.5920  -20.6330   18.3220 H   0  0  0  0  0  0  0  0  0  0  0  0
  -30.5900  -20.7870   19.9210 H   0  0  0  0  0  0  0  0  0  0  0  0
  -28.9530  -21.7580   19.0610 C   0  0  0  0  0  2  0  0  0  0  0  0
  -29.3530  -23.4100   19.1980 C   0  0  0  0  0  3  0  0  0  0  0  0
  -28.2720  -24.7190   19.1760 C   0  0  0  0  0  3  0  0  0  0  0  0
  -28.5350  -26.2470   19.4110 O   0  0  0  0  0  0  0  0  0  0  0  0
  -24.9050  -31.5740   23.0260 C   0  0  0  0  0  0  0  0  0  0  0  0
  -27.4650  -27.2230   19.4690 C   0  0  0  0  0  0  0  0  0  0  0  0
  -23.6810  -30.3320   21.2830 C   0  0  0  0  0  3  0  0  0  0  0  0
  -25.1130  -28.9320   19.6710 C   0  0  0  0  0  0  0  0  0  0  0  0
  -26.2270  -30.6520   21.0830 C   0  0  0  0  0  2  0  0  0  0  0  0
  -26.3030  -29.3330   20.2910 C   0  0  0  0  0  0  0  0  0  0  0  0
  -27.4790  -28.4970   20.1720 C   0  0  0  0  0  3  0  0  0  0  0  0
  -26.2450  -26.9300   18.8210 C   0  0  0  0  0  3  0  0  0  0  0  0
  -25.0970  -27.7470   18.9200 C   0  0  0  0  0  3  0  0  0  0  0  0
  -23.8760  -29.8010   19.8380 C   0  0  0  0  0  2  0  0  0  0  0  0
  -24.9590  -30.8690   21.8540 N   0  0  0  0  0  0  0  0  0  0  0  0
  -23.8300  -31.7860   23.6060 O   0  0  0  0  0  0  0  0  0  0  0  0
  -23.0410  -29.2230   22.1550 C   0  0  0  0  0  0  0  0  0  0  0  0
  -21.7160  -29.0300   22.0280 N   0  0  0  0  0  0  0  0  0  0  0  0
  -23.7380  -28.5420   22.9110 O   0  0  0  0  0  0  0  0  0  0  0  0
  -21.2070  -29.6380   21.4000 H   0  0  0  0  0  0  0  0  0  0  0  0
  -18.3960  -27.6160   22.3570 C   0  0  0  0  0  0  0  0  0  0  0  0
  -20.9270  -28.0060   22.7180 C   0  0  0  0  0  3  0  0  0  0  0  0
  -21.1270  -26.6160   22.0670 C   0  0  0  0  0  2  0  0  0  0  0  0
  -20.0740  -26.2930   21.0010 C   0  0  0  0  0  2  0  0  0  0  0  0
  -18.6700  -26.3210   21.6100 C   0  0  0  0  0  2  0  0  0  0  0  0
  -19.4550  -28.4140   22.8640 C   0  0  0  0  0  0  0  0  0  0  0  0
  -19.1460  -29.6230   23.5240 C   0  0  0  0  0  3  0  0  0  0  0  0
  -17.8100  -30.0370   23.6800 C   0  0  0  0  0  3  0  0  0  0  0  0
  -16.7640  -29.2360   23.1870 C   0  0  0  0  0  3  0  0  0  0  0  0
  -17.0590  -28.0270   22.5320 C   0  0  0  0  0  3  0  0  0  0  0  0
  -26.1900  -32.1640   23.6830 C   0  0  0  0  0  3  0  0  0  0  0  0
  -26.7340  -31.2850   24.8770 C   0  0  1  0  0  0  0  0  0  0  0  0
  -25.6650  -30.9530   25.9440 C   0  0  0  0  0  1  0  0  0  0  0  0
  -27.3090  -29.9470   24.3590 C   0  0  0  0  0  1  0  0  0  0  0  0
  -27.8990  -32.0220   25.5790 C   0  0  0  0  0  1  0  0  0  0  0  0
  -25.8700  -33.5220   24.1530 N   0  0  0  0  0  0  0  0  0  0  0  0
  -26.2470  -34.6510   23.5400 C   0  0  0  0  0  0  0  0  0  0  0  0
  -26.9670  -34.6570   22.5370 O   0  0  0  0  0  0  0  0  0  0  0  0
  -25.2360  -33.5910   24.9350 H   0  0  0  0  0  0  0  0  0  0  0  0
  -24.5730  -36.5150   23.2970 C   0  0  0  0  0  1  0  0  0  0  0  0
  -25.7510  -35.9860   24.1310 C   0  0  0  0  0  3  0  0  0  0  0  0
  -27.8380  -36.7180   25.2000 C   0  0  0  0  0  1  0  0  0  0  0  0
  -26.8040  -37.0220   24.2140 N   0  0  0  0  0  0  0  0  0  0  0  0
  -26.4010  -37.9260   24.4450 H   0  0  0  0  0  0  0  0  0  0  0  0
  1  7  1  0
  2  7  1  0
  3  4  1  0
  3  2  1  0
  5  4  1  0
  5 24  1  0
  5  6  1  0
  7  6  1  0
  8  1  2  0
  9 10  1  0
  9 12  1  0
 10 13  1  0
 11 18  1  0
 12 49  1  0
 12 11  1  0
 13  1  1  0
 13 11  1  0
 14 16  1  0
 15 14  2  0
 17 19  1  0
 18 17  2  0
 18 15  1  0
 19 20  1  0
 19 16  2  0
 21 22  2  0
 22 41  1  0
 23 26  1  0
 23 22  1  0
 24 25  1  0
 24 21  1  0
 25 23  2  0
 26 27  1  0
 27 28  2  0
 29 32  1  0
 29 28  1  0
 30 29  2  0
 31 30  1  0
 31 26  2  0
 32 33  1  0
 33 34  1  0
 34 35  2  0
 36 35  1  0
 36 40  1  0
 37 36  2  0
 38 33  2  0
 38 37  1  0
 39 38  1  0
 41 42  1  0
 42 45  1  0
 42 44  1  0
 43 41  2  0
 46 21  1  0
 46 47  1  0
 48 46  1  0
 49 51  1  0
 50 49  1  0
 52 49  1  0
 52 53  1  0
 54 53  2  0
 54 55  1  0
 55 57  1  0
 56 67  2  0
 57 62  1  0
 58 66  1  0
 58 68  1  0
 59 65  1  0
 59 61  1  0
 60 66  1  0
 61 60  1  0
 62 61  2  0
 63 64  1  0
 63 57  2  0
 64 59  2  0
 65 58  1  0
 66 56  1  0
 68 70  2  0
 69 68  1  0
 71 69  1  0
 72 81  2  0
 72 77  1  0
 73 69  1  0
 73 77  1  0
 74 73  1  0
 75 76  1  0
 75 74  1  0
 76 72  1  0
 77 78  2  0
 78 79  1  0
 80 79  2  0
 81 80  1  0
 82 56  1  0
 82 87  1  0
 82 83  1  0
 83 86  1  1
 83 84  1  0
 85 83  1  0
 87 90  1  0
 88 92  1  0
 88 87  1  0
 89 88  2  0
 92 91  1  0
 92 94  1  0
 94 95  1  0
 94 93  1  0
M  ISO  4   1 100  13 100  54 101  55 101
M  END
>  <TORSDO>  (83) 
F 20

>  <SCORE>  (83) 
-10.478

>  <name>  (83) 
83

>  <ligand_id>  (83) 
83

>  <original_smiles>  (83) 
[H]c1c([H])c([H])c2c(c1[H])C([H])([H])C([H])([H])C([H])([H])C2([H])N([H])C(=O)C1([H])N(C(=O)C([H])(N([H])C(=O)C([H])(N([H])C([H])([H])[H])C([H])([H])[H])C(C([H])([H])[H])(C([H])([H])[H])C([H])([H])[H])C([H])([H])c2c([H])c(OC([H])([H])C([H])([H])C([H])([H])[N+]([H])([H])C3([H])C([H])(c4c([H])c([H])c([H])c(F)c4[H])N(C(=O)N4C([H])([H])C([H])([H])C([H])([H])C([H])(n5nc(-c6c([H])c([H])c(Oc7c([H])c([H])c(F)c([H])c7F)c([H])c6[H])c(C(=O)N([H])[H])c5N([H])[H])C4([H])[H])C([H])([H])C3([H])[H])c([H])c([H])c2C1([H])[H]

>  <smiles>  (83) 
[H]c1c([H])c([H])c2c(c1[H])C([H])([H])C([H])([H])C([H])([H])C2([H])N([H])C(=O)C1([H])N(C(=O)C([H])(N([H])C(=O)C([H])(N([H])C([H])([H])[H])C([H])([H])[H])C(C([H])([H])[H])(C([H])([H])[H])C([H])([H])[H])C([H])([H])c2c([H])c(OC([H])([H])C([H])([H])C([H])([H])[N+]([H])([H])C3([H])C([H])(c4c([H])c([H])c([H])c(F)c4[H])N(C(=O)N4C([H])([H])C([H])([H])C([H])([H])C([H])(n5nc(-c6c([H])c([H])c(Oc7c([H])c([H])c(F)c([H])c7F)c([H])c6[H])c(C(=O)N([H])[H])c5N([H])[H])C4([H])[H])C([H])([H])C3([H])[H])c([H])c([H])c2C1([H])[H]

$$$$
84:0:0
     RDKit          3D

 89 96  0  0  1  0  0  0  0  0999 V2000
  -29.3040  -21.7940   20.7680 C   0  0  0  0  0  2  0  0  0  0  0  0
  -29.2340  -20.4210   20.1920 N   0  0  0  0  0  4  0  0  0  0  0  0
  -29.6640  -20.4280   19.2820 H   0  0  0  0  0  0  0  0  0  0  0  0
  -28.2640  -20.1820   20.0710 H   0  0  0  0  0  0  0  0  0  0  0  0
  -29.8940  -19.3700   21.0170 C   0  0  0  0  0  2  0  0  0  0  0  0
  -29.6000  -17.9110   20.5590 C   0  0  0  0  0  2  0  0  0  0  0  0
  -30.3930  -16.8460   21.3670 C   0  0  0  0  0  2  0  0  0  0  0  0
  -30.6750  -14.4820   20.4980 C   0  0  0  0  0  0  0  0  0  0  0  0
  -30.3900  -12.3340   19.3100 C   0  0  0  0  0  2  0  0  0  0  0  0
  -29.4420  -12.5410   18.1100 C   0  0  0  0  0  2  0  0  0  0  0  0
  -27.9680  -12.4030   18.5400 C   0  0  0  0  0  2  0  0  0  0  0  0
  -27.6340  -13.2330   19.8080 C   0  0  0  0  0  3  0  0  0  0  0  0
  -28.6860  -12.9880   20.9130 C   0  0  0  0  0  2  0  0  0  0  0  0
  -30.0110  -13.3040   20.3490 N   0  0  0  0  0  0  0  0  0  0  0  0
  -31.7930  -14.6900   20.0170 O   0  0  0  0  0  0  0  0  0  0  0  0
  -29.9730  -15.4590   21.1030 N   0  0  0  0  0  0  0  0  0  0  0  0
  -29.0630  -15.1870   21.4450 H   0  0  0  0  0  0  0  0  0  0  0  0
  -25.2320  -13.8500   20.4980 C   0  0  0  0  0  0  0  0  0  0  0  0
  -24.1610  -13.0810   20.8670 C   0  0  0  0  0  0  0  0  0  0  0  0
  -24.6220  -11.7290   20.8500 C   0  0  0  0  0  0  0  0  0  0  0  0
  -26.2780  -12.9660   20.2800 N   0  0  0  0  0  0  0  0  0  0  0  0
  -25.9130  -11.6860   20.5490 N   0  0  0  0  0  0  0  0  0  0  0  0
  -23.8940  -10.4680   21.0450 C   0  0  0  0  0  0  0  0  0  0  0  0
  -24.3350   -9.4990   21.9730 C   0  0  0  0  0  3  0  0  0  0  0  0
  -23.6090   -8.3020   22.1560 C   0  0  0  0  0  3  0  0  0  0  0  0
  -22.4290   -8.0670   21.4120 C   0  0  0  0  0  0  0  0  0  0  0  0
  -22.0070   -9.0260   20.4730 C   0  0  0  0  0  3  0  0  0  0  0  0
  -22.7340  -10.2140   20.2880 C   0  0  0  0  0  3  0  0  0  0  0  0
  -21.6740   -6.9230   21.5040 O   0  0  0  0  0  0  0  0  0  0  0  0
  -21.6450   -6.1710   22.6510 C   0  0  0  0  0  0  0  0  0  0  0  0
  -21.2550   -6.7180   23.8920 C   0  0  0  0  0  3  0  0  0  0  0  0
  -21.1730   -5.8930   25.0320 C   0  0  0  0  0  3  0  0  0  0  0  0
  -21.4710   -4.5210   24.9300 C   0  0  0  0  0  0  0  0  0  0  0  0
  -21.8550   -3.9730   23.6940 C   0  0  0  0  0  3  0  0  0  0  0  0
  -21.9390   -4.7960   22.5560 C   0  0  0  0  0  0  0  0  0  0  0  0
  -22.2890   -4.2580   21.3630 F   0  0  0  0  0  0  0  0  0  0  0  0
  -21.3860   -3.7250   26.0230 F   0  0  0  0  0  0  0  0  0  0  0  0
  -22.7630  -13.5610   21.1310 C   0  0  0  0  0  0  0  0  0  0  0  0
  -22.0320  -12.8710   21.9980 N   0  0  0  0  0  0  0  0  0  0  0  0
  -22.3270  -14.5830   20.6020 O   0  0  0  0  0  0  0  0  0  0  0  0
  -22.3970  -12.0440   22.4470 H   0  0  0  0  0  0  0  0  0  0  0  0
  -21.0930  -13.1750   22.2190 H   0  0  0  0  0  0  0  0  0  0  0  0
  -25.3990  -15.2190   20.3110 N   0  0  0  0  0  0  0  0  0  0  0  0
  -24.6330  -15.8760   20.4080 H   0  0  0  0  0  0  0  0  0  0  0  0
  -26.2510  -15.6510   19.9720 H   0  0  0  0  0  0  0  0  0  0  0  0
  -28.8280  -22.9140   19.8000 C   0  0  0  0  0  2  0  0  0  0  0  0
  -28.7280  -24.3180   20.4610 C   0  0  0  0  0  2  0  0  0  0  0  0
  -28.6050  -25.4930   19.4610 C   0  0  0  0  0  2  0  0  0  0  0  0
  -28.4420  -26.7560   20.1310 O   0  0  0  0  0  0  0  0  0  0  0  0
  -24.5920  -31.8930   23.2270 C   0  0  0  0  0  0  0  0  0  0  0  0
  -27.2340  -27.4350   20.1360 C   0  0  0  0  0  0  0  0  0  0  0  0
  -23.3830  -30.4910   21.5910 C   0  0  0  0  0  3  0  0  0  0  0  0
  -24.8310  -28.9490   20.1680 C   0  0  0  0  0  0  0  0  0  0  0  0
  -25.9110  -30.8420   21.3900 C   0  0  0  0  0  2  0  0  0  0  0  0
  -25.9920  -29.4710   20.7500 C   0  0  0  0  0  0  0  0  0  0  0  0
  -27.1920  -28.7200   20.7300 C   0  0  0  0  0  3  0  0  0  0  0  0
  -26.0390  -26.9190   19.5780 C   0  0  0  0  0  3  0  0  0  0  0  0
  -24.8490  -27.6720   19.5860 C   0  0  0  0  0  3  0  0  0  0  0  0
  -23.5900  -29.8110   20.2130 C   0  0  0  0  0  2  0  0  0  0  0  0
  -24.6470  -31.0910   22.1270 N   0  0  0  0  0  0  0  0  0  0  0  0
  -23.5110  -32.1670   23.7680 O   0  0  0  0  0  0  0  0  0  0  0  0
  -22.7340  -29.4680   22.5520 C   0  0  0  0  0  0  0  0  0  0  0  0
  -21.4080  -29.2870   22.4280 N   0  0  0  0  0  0  0  0  0  0  0  0
  -23.4190  -28.8420   23.3650 O   0  0  0  0  0  0  0  0  0  0  0  0
  -20.9170  -29.8430   21.7430 H   0  0  0  0  0  0  0  0  0  0  0  0
  -18.0330  -28.1050   22.9370 C   0  0  0  0  0  0  0  0  0  0  0  0
  -20.5920  -28.3520   23.2010 C   0  0  0  0  0  3  0  0  0  0  0  0
  -20.6880  -26.9220   22.6220 C   0  0  0  0  0  2  0  0  0  0  0  0
  -19.5810  -26.6050   21.6120 C   0  0  0  0  0  2  0  0  0  0  0  0
  -18.2010  -26.7560   22.2600 C   0  0  0  0  0  2  0  0  0  0  0  0
  -19.1560  -28.8620   23.3640 C   0  0  0  0  0  0  0  0  0  0  0  0
  -18.9450  -30.1270   23.9560 C   0  0  0  0  0  3  0  0  0  0  0  0
  -17.6420  -30.6340   24.1250 C   0  0  0  0  0  3  0  0  0  0  0  0
  -16.5340  -29.8730   23.7150 C   0  0  0  0  0  3  0  0  0  0  0  0
  -16.7290  -28.6100   23.1260 C   0  0  0  0  0  3  0  0  0  0  0  0
  -25.8790  -32.5250   23.8440 C   0  0  0  0  0  3  0  0  0  0  0  0
  -26.4040  -31.7510   25.1150 C   0  0  1  0  0  0  0  0  0  0  0  0
  -25.3170  -31.5050   26.1870 C   0  0  0  0  0  1  0  0  0  0  0  0
  -26.9900  -30.3760   24.7150 C   0  0  0  0  0  1  0  0  0  0  0  0
  -27.5570  -32.5460   25.7730 C   0  0  0  0  0  1  0  0  0  0  0  0
  -25.5680  -33.9200   24.1780 N   0  0  0  0  0  0  0  0  0  0  0  0
  -25.8980  -34.9750   23.4210 C   0  0  0  0  0  0  0  0  0  0  0  0
  -26.5680  -34.8750   22.3890 O   0  0  0  0  0  0  0  0  0  0  0  0
  -24.9690  -34.0710   24.9780 H   0  0  0  0  0  0  0  0  0  0  0  0
  -24.1660  -36.7650   23.0700 C   0  0  0  0  0  1  0  0  0  0  0  0
  -25.4080  -36.3620   23.8810 C   0  0  0  0  0  3  0  0  0  0  0  0
  -27.5420  -37.2450   24.7130 C   0  0  0  0  0  1  0  0  0  0  0  0
  -26.4390  -37.4170   23.7720 N   0  0  0  0  0  0  0  0  0  0  0  0
  -26.0320  -38.3360   23.9250 H   0  0  0  0  0  0  0  0  0  0  0  0
  2  1  1  0
  2  5  1  0
  3  2  1  0
  4  2  1  0
  6  5  1  0
  6  7  1  0
  8 16  1  0
  9 14  1  0
 10 11  1  0
 10  9  1  0
 12 11  1  0
 12 21  1  0
 12 13  1  0
 14  8  1  0
 14 13  1  0
 15  8  2  0
 16  7  1  0
 16 17  1  0
 18 19  2  0
 19 38  1  0
 20 19  1  0
 20 23  1  0
 21 18  1  0
 21 22  1  0
 22 20  2  0
 23 24  1  0
 24 25  2  0
 26 29  1  0
 26 25  1  0
 27 26  2  0
 28 27  1  0
 28 23  2  0
 29 30  1  0
 30 31  1  0
 31 32  2  0
 33 32  1  0
 33 37  1  0
 34 33  2  0
 35 30  2  0
 35 34  1  0
 36 35  1  0
 38 39  1  0
 39 42  1  0
 39 41  1  0
 40 38  2  0
 43 44  1  0
 43 18  1  0
 45 43  1  0
 46 47  1  0
 46  1  1  0
 48 49  1  0
 48 47  1  0
 49 51  1  0
 50 61  2  0
 51 56  1  0
 52 60  1  0
 52 62  1  0
 53 59  1  0
 53 55  1  0
 54 60  1  0
 55 54  1  0
 56 55  2  0
 57 58  1  0
 57 51  2  0
 58 53  2  0
 59 52  1  0
 60 50  1  0
 62 64  2  0
 63 62  1  0
 65 63  1  0
 66 75  2  0
 66 71  1  0
 67 63  1  0
 67 71  1  0
 68 67  1  0
 69 70  1  0
 69 68  1  0
 70 66  1  0
 71 72  2  0
 72 73  1  0
 74 73  2  0
 75 74  1  0
 76 50  1  0
 76 81  1  0
 76 77  1  0
 77 80  1  1
 77 78  1  0
 79 77  1  0
 81 84  1  0
 82 86  1  0
 82 81  1  0
 83 82  2  0
 86 85  1  0
 88 86  1  0
 88 89  1  0
 88 87  1  0
M  ISO  4   8 100  16 100  48 101  49 101
M  END
>  <TORSDO>  (84) 
F 23

>  <SCORE>  (84) 
-12.653

>  <name>  (84) 
84

>  <ligand_id>  (84) 
84

>  <original_smiles>  (84) 
[H]c1c([H])c([H])c2c(c1[H])C([H])([H])C([H])([H])C([H])([H])C2([H])N([H])C(=O)C1([H])N(C(=O)C([H])(N([H])C(=O)C([H])(N([H])C([H])([H])[H])C([H])([H])[H])C(C([H])([H])[H])(C([H])([H])[H])C([H])([H])[H])C([H])([H])c2c([H])c(OC([H])([H])C([H])([H])C([H])([H])C([H])([H])[N+]([H])([H])C([H])([H])C([H])([H])C([H])([H])N([H])C(=O)N3C([H])([H])C([H])([H])C([H])([H])C([H])(n4nc(-c5c([H])c([H])c(Oc6c([H])c([H])c(F)c([H])c6F)c([H])c5[H])c(C(=O)N([H])[H])c4N([H])[H])C3([H])[H])c([H])c([H])c2C1([H])[H]

>  <smiles>  (84) 
[H]c1c([H])c([H])c2c(c1[H])C([H])([H])C([H])([H])C([H])([H])C2([H])N([H])C(=O)C1([H])N(C(=O)C([H])(N([H])C(=O)C([H])(N([H])C([H])([H])[H])C([H])([H])[H])C(C([H])([H])[H])(C([H])([H])[H])C([H])([H])[H])C([H])([H])c2c([H])c(OC([H])([H])C([H])([H])C([H])([H])C([H])([H])[N+]([H])([H])C([H])([H])C([H])([H])C([H])([H])N([H])C(=O)N3C([H])([H])C([H])([H])C([H])([H])C([H])(n4nc(-c5c([H])c([H])c(Oc6c([H])c([H])c(F)c([H])c6F)c([H])c5[H])c(C(=O)N([H])[H])c4N([H])[H])C3([H])[H])c([H])c([H])c2C1([H])[H]

$$$$
85:0:0
     RDKit          3D

 96104  0  0  1  0  0  0  0  0999 V2000
  -32.6790  -21.4910   21.6410 C   0  0  0  0  0  2  0  0  0  0  0  0
  -32.4690  -20.0130   22.0570 C   0  0  0  0  0  2  0  0  0  0  0  0
  -29.9730  -17.4990   22.8470 C   0  0  0  0  0  2  0  0  0  0  0  0
  -29.6690  -19.1430   20.9250 C   0  0  0  0  0  2  0  0  0  0  0  0
  -31.1570  -18.3520   23.3700 C   0  0  0  0  0  2  0  0  0  0  0  0
  -29.9540  -20.1090   22.0920 C   0  0  0  0  0  2  0  0  0  0  0  0
  -29.7550  -17.6510   21.3260 C   0  0  0  0  0  3  0  0  0  0  0  0
  -31.2060  -19.7380   22.8080 N   0  0  2  0  0  4  0  0  0  0  0  0
  -31.2450  -20.3380   23.6210 H   0  0  0  0  0  0  0  0  0  0  0  0
  -30.8210  -16.8880   20.5150 C   0  0  0  0  0  2  0  0  0  0  0  0
  -31.2720  -14.5180   19.9390 C   0  0  0  0  0  0  0  0  0  0  0  0
  -30.9150  -12.3520   18.8250 C   0  0  0  0  0  2  0  0  0  0  0  0
  -29.9150  -12.5500   17.6670 C   0  0  0  0  0  2  0  0  0  0  0  0
  -28.4600  -12.4400   18.1640 C   0  0  0  0  0  2  0  0  0  0  0  0
  -28.1940  -13.3130   19.4170 C   0  0  0  0  0  3  0  0  0  0  0  0
  -29.2880  -13.0690   20.4820 C   0  0  0  0  0  2  0  0  0  0  0  0
  -30.6010  -13.3420   19.8640 N   0  0  0  0  0  0  0  0  0  0  0  0
  -32.3110  -14.7640   19.3180 O   0  0  0  0  0  0  0  0  0  0  0  0
  -30.6400  -15.4520   20.6560 N   0  0  0  0  0  0  0  0  0  0  0  0
  -29.8200  -15.1410   21.1550 H   0  0  0  0  0  0  0  0  0  0  0  0
  -25.8530  -13.9910   20.2540 C   0  0  0  0  0  0  0  0  0  0  0  0
  -24.7800  -13.2470   20.6690 C   0  0  0  0  0  0  0  0  0  0  0  0
  -25.1930  -11.8830   20.5900 C   0  0  0  0  0  0  0  0  0  0  0  0
  -26.8550  -13.0800   19.9560 N   0  0  0  0  0  0  0  0  0  0  0  0
  -26.4630  -11.8050   20.2100 N   0  0  0  0  0  0  0  0  0  0  0  0
  -24.4380  -10.6410   20.7980 C   0  0  0  0  0  0  0  0  0  0  0  0
  -24.8250   -9.6980   21.7760 C   0  0  0  0  0  3  0  0  0  0  0  0
  -24.0730   -8.5200   21.9690 C   0  0  0  0  0  3  0  0  0  0  0  0
  -22.9210   -8.2760   21.1850 C   0  0  0  0  0  0  0  0  0  0  0  0
  -22.5550   -9.2050   20.1980 C   0  0  0  0  0  3  0  0  0  0  0  0
  -23.3070  -10.3760   20.0020 C   0  0  0  0  0  3  0  0  0  0  0  0
  -22.1440   -7.1470   21.2860 O   0  0  0  0  0  0  0  0  0  0  0  0
  -21.9490   -6.5130   22.4870 C   0  0  0  0  0  0  0  0  0  0  0  0
  -21.3890   -7.1780   23.5990 C   0  0  0  0  0  3  0  0  0  0  0  0
  -21.1420   -6.4700   24.7920 C   0  0  0  0  0  3  0  0  0  0  0  0
  -21.4430   -5.0970   24.8710 C   0  0  0  0  0  0  0  0  0  0  0  0
  -21.9950   -4.4320   23.7620 C   0  0  0  0  0  3  0  0  0  0  0  0
  -22.2450   -5.1370   22.5730 C   0  0  0  0  0  0  0  0  0  0  0  0
  -22.7580   -4.4870   21.5010 F   0  0  0  0  0  0  0  0  0  0  0  0
  -21.1990   -4.4130   26.0140 F   0  0  0  0  0  0  0  0  0  0  0  0
  -23.4160  -13.7640   21.0260 C   0  0  0  0  0  0  0  0  0  0  0  0
  -22.7210  -13.0840   21.9320 N   0  0  0  0  0  0  0  0  0  0  0  0
  -22.9780  -14.8040   20.5370 O   0  0  0  0  0  0  0  0  0  0  0  0
  -23.0860  -12.2410   22.3490 H   0  0  0  0  0  0  0  0  0  0  0  0
  -21.8080  -13.4130   22.2140 H   0  0  0  0  0  0  0  0  0  0  0  0
  -26.0530  -15.3580   20.0890 N   0  0  0  0  0  0  0  0  0  0  0  0
  -25.3080  -16.0310   20.2360 H   0  0  0  0  0  0  0  0  0  0  0  0
  -26.8990  -15.7760   19.7220 H   0  0  0  0  0  0  0  0  0  0  0  0
  -32.1110  -21.8450   20.2460 C   0  0  0  0  0  2  0  0  0  0  0  0
  -31.9920  -23.3060   20.0430 N   0  0  0  0  0  4  0  0  0  0  0  0
  -31.9540  -23.7460   20.9470 H   0  0  0  0  0  0  0  0  0  0  0  0
  -32.8200  -23.6440   19.5760 H   0  0  0  0  0  0  0  0  0  0  0  0
  -30.7840  -23.7280   19.2940 C   0  0  0  0  0  2  0  0  0  0  0  0
  -30.4880  -25.2180   19.5120 C   0  0  0  0  0  2  0  0  0  0  0  0
  -29.0570  -25.6280   19.1410 C   0  0  0  0  0  2  0  0  0  0  0  0
  -28.8920  -26.9350   19.6680 O   0  0  0  0  0  0  0  0  0  0  0  0
  -24.7130  -31.5300   23.0700 C   0  0  0  0  0  0  0  0  0  0  0  0
  -27.6390  -27.5000   19.7080 C   0  0  0  0  0  0  0  0  0  0  0  0
  -23.5970  -30.1680   21.3330 C   0  0  0  0  0  3  0  0  0  0  0  0
  -25.1410  -28.8160   19.8210 C   0  0  0  0  0  0  0  0  0  0  0  0
  -26.0920  -30.6970   21.1730 C   0  0  0  0  0  2  0  0  0  0  0  0
  -26.2600  -29.3810   20.4450 C   0  0  0  0  0  0  0  0  0  0  0  0
  -27.5070  -28.7270   20.3890 C   0  0  0  0  0  3  0  0  0  0  0  0
  -26.5000  -26.9320   19.0900 C   0  0  0  0  0  3  0  0  0  0  0  0
  -25.2540  -27.5870   19.1460 C   0  0  0  0  0  3  0  0  0  0  0  0
  -23.8480  -29.5910   19.9150 C   0  0  0  0  0  2  0  0  0  0  0  0
  -24.8180  -30.8100   21.9180 N   0  0  0  0  0  0  0  0  0  0  0  0
  -23.6170  -31.7020   23.6210 O   0  0  0  0  0  0  0  0  0  0  0  0
  -23.0090  -29.0480   22.2200 C   0  0  0  0  0  0  0  0  0  0  0  0
  -21.6980  -28.7960   22.0690 N   0  0  0  0  0  0  0  0  0  0  0  0
  -23.7260  -28.4130   22.9960 O   0  0  0  0  0  0  0  0  0  0  0  0
  -21.1790  -29.3650   21.4140 H   0  0  0  0  0  0  0  0  0  0  0  0
  -18.3940  -27.3970   22.4800 C   0  0  0  0  0  0  0  0  0  0  0  0
  -20.9360  -27.7640   22.7710 C   0  0  0  0  0  3  0  0  0  0  0  0
  -21.1110  -26.3870   22.0910 C   0  0  0  0  0  2  0  0  0  0  0  0
  -20.0230  -26.0830   21.0560 C   0  0  0  0  0  2  0  0  0  0  0  0
  -18.6380  -26.1110   21.7090 C   0  0  0  0  0  2  0  0  0  0  0  0
  -19.4740  -28.1830   22.9640 C   0  0  0  0  0  0  0  0  0  0  0  0
  -19.1940  -29.3880   23.6430 C   0  0  0  0  0  3  0  0  0  0  0  0
  -17.8660  -29.8090   23.8440 C   0  0  0  0  0  3  0  0  0  0  0  0
  -16.8000  -29.0210   23.3770 C   0  0  0  0  0  3  0  0  0  0  0  0
  -17.0660  -27.8160   22.7000 C   0  0  0  0  0  3  0  0  0  0  0  0
  -25.9600  -32.1920   23.7380 C   0  0  0  0  0  3  0  0  0  0  0  0
  -25.5880  -33.5660   24.0990 N   0  0  0  0  0  0  0  0  0  0  0  0
  -25.9040  -34.6530   23.3830 C   0  0  0  0  0  0  0  0  0  0  0  0
  -26.6110  -34.6070   22.3720 O   0  0  0  0  0  0  0  0  0  0  0  0
  -24.9610  -33.6740   24.8830 H   0  0  0  0  0  0  0  0  0  0  0  0
  -24.1290  -36.3950   23.0090 C   0  0  0  0  0  1  0  0  0  0  0  0
  -25.3480  -36.0060   23.8630 C   0  0  0  0  0  3  0  0  0  0  0  0
  -27.4050  -36.9380   24.8250 C   0  0  0  0  0  1  0  0  0  0  0  0
  -26.3460  -37.0970   23.8310 N   0  0  0  0  0  0  0  0  0  0  0  0
  -25.9000  -37.9980   23.9830 H   0  0  0  0  0  0  0  0  0  0  0  0
  -26.4830  -31.4030   25.0000 C   0  0  1  0  0  0  0  0  0  0  0  0
  -25.3780  -31.0850   26.0350 C   0  0  0  0  0  1  0  0  0  0  0  0
  -27.1340  -30.0650   24.5780 C   0  0  0  0  0  1  0  0  0  0  0  0
  -27.5850  -32.2240   25.7130 C   0  0  0  0  0  1  0  0  0  0  0  0
  1  2  1  0
  2  8  1  0
  3  5  1  0
  4  7  1  0
  4  6  1  0
  6  8  1  0
  7 10  1  0
  7  3  1  0
  8  5  1  0
  8  9  1  1
 10 19  1  0
 11 19  1  0
 12 17  1  0
 13 14  1  0
 13 12  1  0
 15 14  1  0
 15 24  1  0
 15 16  1  0
 17 11  1  0
 17 16  1  0
 18 11  2  0
 19 20  1  0
 21 22  2  0
 22 41  1  0
 23 22  1  0
 23 26  1  0
 24 25  1  0
 24 21  1  0
 25 23  2  0
 26 27  1  0
 27 28  2  0
 29 32  1  0
 29 28  1  0
 30 29  2  0
 31 30  1  0
 31 26  2  0
 32 33  1  0
 33 38  2  0
 33 34  1  0
 34 35  2  0
 35 36  1  0
 36 40  1  0
 37 36  2  0
 38 37  1  0
 39 38  1  0
 41 42  1  0
 42 45  1  0
 42 44  1  0
 43 41  2  0
 46 47  1  0
 46 21  1  0
 48 46  1  0
 49  1  1  0
 50 49  1  0
 50 51  1  0
 52 50  1  0
 53 54  1  0
 53 50  1  0
 55 54  1  0
 55 56  1  0
 56 58  1  0
 57 68  2  0
 58 63  1  0
 59 67  1  0
 59 69  1  0
 60 66  1  0
 60 62  1  0
 61 67  1  0
 62 61  1  0
 63 62  2  0
 64 65  1  0
 64 58  2  0
 65 60  2  0
 66 59  1  0
 67 57  1  0
 69 71  2  0
 70 69  1  0
 72 70  1  0
 73 82  2  0
 73 78  1  0
 74 70  1  0
 74 78  1  0
 75 74  1  0
 76 77  1  0
 76 75  1  0
 77 73  1  0
 78 79  2  0
 79 80  1  0
 81 80  2  0
 82 81  1  0
 83 57  1  0
 83 84  1  0
 83 93  1  0
 84 87  1  0
 85 89  1  0
 85 84  1  0
 86 85  2  0
 89 88  1  0
 91 89  1  0
 91 92  1  0
 91 90  1  0
 93 96  1  1
 93 94  1  0
 95 93  1  0
M  ISO  4  11 100  19 100  55 101  56 101
M  END
>  <TORSDO>  (85) 
F 24

>  <SCORE>  (85) 
-9.690

>  <name>  (85) 
85

>  <ligand_id>  (85) 
85

>  <original_smiles>  (85) 
[H]c1c([H])c([H])c2c(c1[H])C([H])([H])C([H])([H])C([H])([H])C2([H])N([H])C(=O)C1([H])N(C(=O)C([H])(N([H])C(=O)C([H])(N([H])C([H])([H])[H])C([H])([H])[H])C(C([H])([H])[H])(C([H])([H])[H])C([H])([H])[H])C([H])([H])c2c([H])c(OC([H])([H])C([H])([H])C([H])([H])[N+]([H])([H])C([H])([H])C([H])([H])C([H])([H])[N+]3([H])C([H])([H])C([H])([H])C([H])(C([H])([H])N([H])C(=O)N4C([H])([H])C([H])([H])C([H])([H])C([H])(n5nc(-c6c([H])c([H])c(Oc7c([H])c([H])c(F)c([H])c7F)c([H])c6[H])c(C(=O)N([H])[H])c5N([H])[H])C4([H])[H])C([H])([H])C3([H])[H])c([H])c([H])c2C1([H])[H]

>  <smiles>  (85) 
[H]c1c([H])c([H])c2c(c1[H])C([H])([H])C([H])([H])C([H])([H])C2([H])N([H])C(=O)C1([H])N(C(=O)C([H])(N([H])C(=O)C([H])(N([H])C([H])([H])[H])C([H])([H])[H])C(C([H])([H])[H])(C([H])([H])[H])C([H])([H])[H])C([H])([H])c2c([H])c(OC([H])([H])C([H])([H])C([H])([H])[N+]([H])([H])C([H])([H])C([H])([H])C([H])([H])[N+]3([H])C([H])([H])C([H])([H])C([H])(C([H])([H])N([H])C(=O)N4C([H])([H])C([H])([H])C([H])([H])C([H])(n5nc(-c6c([H])c([H])c(Oc7c([H])c([H])c(F)c([H])c7F)c([H])c6[H])c(C(=O)N([H])[H])c5N([H])[H])C4([H])[H])C([H])([H])C3([H])[H])c([H])c([H])c2C1([H])[H]

$$$$
86:0:0
     RDKit          3D

 96104  0  0  1  0  0  0  0  0999 V2000
  -30.5960  -22.3720   23.4830 C   0  0  0  0  0  2  0  0  0  0  0  0
  -31.0450  -21.2390   22.5400 C   0  0  0  0  0  2  0  0  0  0  0  0
  -30.7850  -19.8040   23.0490 C   0  0  0  0  0  2  0  0  0  0  0  0
  -29.6870  -18.9440   20.9670 C   0  0  0  0  0  2  0  0  0  0  0  0
  -30.9490  -17.4090   22.2830 C   0  0  0  0  0  2  0  0  0  0  0  0
  -29.3040  -17.5060   20.5700 C   0  0  0  0  0  3  0  0  0  0  0  0
  -30.5290  -16.6940   20.9950 C   0  0  0  0  0  3  0  0  0  0  0  0
  -28.9140  -17.3300   19.0950 C   0  0  0  0  0  1  0  0  0  0  0  0
  -30.8210  -18.8380   21.9240 N   0  0  2  0  0  4  0  0  0  0  0  0
  -31.6550  -19.0430   21.3950 H   0  0  0  0  0  0  0  0  0  0  0  0
  -30.9010  -14.2950   20.4750 C   0  0  0  0  0  0  0  0  0  0  0  0
  -30.5840  -12.1690   19.2760 C   0  0  0  0  0  2  0  0  0  0  0  0
  -29.6530  -12.3970   18.0680 C   0  0  0  0  0  2  0  0  0  0  0  0
  -28.1730  -12.2700   18.4820 C   0  0  0  0  0  2  0  0  0  0  0  0
  -27.8330  -13.0980   19.7480 C   0  0  0  0  0  3  0  0  0  0  0  0
  -28.8720  -12.8490   20.8660 C   0  0  0  0  0  2  0  0  0  0  0  0
  -30.2130  -13.1340   20.3220 N   0  0  0  0  0  0  0  0  0  0  0  0
  -31.9940  -14.5110   19.9410 O   0  0  0  0  0  0  0  0  0  0  0  0
  -30.2470  -15.2620   21.1320 N   0  0  0  0  0  0  0  0  0  0  0  0
  -29.3710  -14.9960   21.5590 H   0  0  0  0  0  0  0  0  0  0  0  0
  -25.4170  -13.7210   20.3890 C   0  0  0  0  0  0  0  0  0  0  0  0
  -24.3460  -12.9560   20.7640 C   0  0  0  0  0  0  0  0  0  0  0  0
  -24.8130  -11.6060   20.7840 C   0  0  0  0  0  0  0  0  0  0  0  0
  -26.4700  -12.8370   20.2070 N   0  0  0  0  0  0  0  0  0  0  0  0
  -26.1080  -11.5620   20.5000 N   0  0  0  0  0  0  0  0  0  0  0  0
  -24.0890  -10.3460   21.0030 C   0  0  0  0  0  0  0  0  0  0  0  0
  -24.4890   -9.4280   21.9990 C   0  0  0  0  0  3  0  0  0  0  0  0
  -23.7670   -8.2330   22.2010 C   0  0  0  0  0  3  0  0  0  0  0  0
  -22.6300   -7.9460   21.4070 C   0  0  0  0  0  0  0  0  0  0  0  0
  -22.2510   -8.8530   20.4020 C   0  0  0  0  0  3  0  0  0  0  0  0
  -22.9730  -10.0400   20.1980 C   0  0  0  0  0  3  0  0  0  0  0  0
  -21.8830   -6.7980   21.5160 O   0  0  0  0  0  0  0  0  0  0  0  0
  -21.7620   -6.1290   22.7070 C   0  0  0  0  0  0  0  0  0  0  0  0
  -21.2360   -6.7490   23.8610 C   0  0  0  0  0  3  0  0  0  0  0  0
  -21.0640   -6.0040   25.0440 C   0  0  0  0  0  3  0  0  0  0  0  0
  -21.4070   -4.6400   25.0740 C   0  0  0  0  0  0  0  0  0  0  0  0
  -21.9260   -4.0180   23.9250 C   0  0  0  0  0  3  0  0  0  0  0  0
  -22.1000   -4.7610   22.7440 C   0  0  0  0  0  0  0  0  0  0  0  0
  -22.5800   -4.1530   21.6330 F   0  0  0  0  0  0  0  0  0  0  0  0
  -21.2350   -3.9220   26.2080 F   0  0  0  0  0  0  0  0  0  0  0  0
  -22.9420  -13.4350   20.9990 C   0  0  0  0  0  0  0  0  0  0  0  0
  -22.2030  -12.7630   21.8750 N   0  0  0  0  0  0  0  0  0  0  0  0
  -22.5070  -14.4410   20.4400 O   0  0  0  0  0  0  0  0  0  0  0  0
  -22.5650  -11.9490   22.3490 H   0  0  0  0  0  0  0  0  0  0  0  0
  -21.2600  -13.0680   22.0740 H   0  0  0  0  0  0  0  0  0  0  0  0
  -25.5820  -15.0850   20.1700 N   0  0  0  0  0  0  0  0  0  0  0  0
  -24.8110  -15.7410   20.2380 H   0  0  0  0  0  0  0  0  0  0  0  0
  -26.4360  -15.5130   19.8360 H   0  0  0  0  0  0  0  0  0  0  0  0
  -30.8590  -23.7600   22.8560 C   0  0  0  0  0  2  0  0  0  0  0  0
  -29.7820  -24.7410   23.1320 N   0  0  0  0  0  4  0  0  0  0  0  0
  -29.7060  -24.8910   24.1270 H   0  0  0  0  0  0  0  0  0  0  0  0
  -28.9110  -24.3440   22.8210 H   0  0  0  0  0  0  0  0  0  0  0  0
  -29.9780  -26.0480   22.4570 C   0  0  0  0  0  2  0  0  0  0  0  0
  -28.6750  -26.6480   21.8850 C   0  0  0  0  0  2  0  0  0  0  0  0
  -27.9730  -25.7460   20.8460 C   0  0  0  0  0  2  0  0  0  0  0  0
  -27.5140  -26.4590   19.7050 O   0  0  0  0  0  0  0  0  0  0  0  0
  -24.2240  -31.7710   23.1320 C   0  0  0  0  0  0  0  0  0  0  0  0
  -26.3980  -27.2330   19.8750 C   0  0  0  0  0  0  0  0  0  0  0  0
  -22.8400  -30.4930   21.5260 C   0  0  0  0  0  3  0  0  0  0  0  0
  -24.1110  -28.8710   20.0220 C   0  0  0  0  0  0  0  0  0  0  0  0
  -25.3680  -30.6770   21.2140 C   0  0  0  0  0  2  0  0  0  0  0  0
  -25.3240  -29.3120   20.5630 C   0  0  0  0  0  0  0  0  0  0  0  0
  -26.4720  -28.4970   20.4950 C   0  0  0  0  0  3  0  0  0  0  0  0
  -25.1730  -26.7950   19.3320 C   0  0  0  0  0  3  0  0  0  0  0  0
  -24.0240  -27.6080   19.4100 C   0  0  0  0  0  3  0  0  0  0  0  0
  -22.9350  -29.8180   20.1310 C   0  0  0  0  0  2  0  0  0  0  0  0
  -24.1650  -30.9920   22.0170 N   0  0  0  0  0  0  0  0  0  0  0  0
  -23.1930  -32.1130   23.7290 O   0  0  0  0  0  0  0  0  0  0  0  0
  -22.1610  -29.5070   22.5030 C   0  0  0  0  0  0  0  0  0  0  0  0
  -20.8240  -29.4050   22.4140 N   0  0  0  0  0  0  0  0  0  0  0  0
  -22.8310  -28.8360   23.2920 O   0  0  0  0  0  0  0  0  0  0  0  0
  -20.3480  -29.9940   21.7450 H   0  0  0  0  0  0  0  0  0  0  0  0
  -17.4040  -28.4020   22.9790 C   0  0  0  0  0  0  0  0  0  0  0  0
  -19.9750  -28.5150   23.2050 C   0  0  0  0  0  3  0  0  0  0  0  0
  -19.9880  -27.0790   22.6300 C   0  0  0  0  0  2  0  0  0  0  0  0
  -18.8500  -26.8170   21.6390 C   0  0  0  0  0  2  0  0  0  0  0  0
  -17.4900  -27.0420   22.3060 C   0  0  0  0  0  2  0  0  0  0  0  0
  -18.5710  -29.0990   23.3880 C   0  0  0  0  0  0  0  0  0  0  0  0
  -18.4350  -30.3740   23.9780 C   0  0  0  0  0  3  0  0  0  0  0  0
  -17.1640  -30.9500   24.1660 C   0  0  0  0  0  3  0  0  0  0  0  0
  -16.0110  -30.2480   23.7790 C   0  0  0  0  0  3  0  0  0  0  0  0
  -16.1310  -28.9760   23.1900 C   0  0  0  0  0  3  0  0  0  0  0  0
  -25.5840  -32.2900   23.6970 C   0  0  0  0  0  3  0  0  0  0  0  0
  -25.3920  -33.6900   24.0950 N   0  0  0  0  0  0  0  0  0  0  0  0
  -25.7900  -34.7460   23.3730 C   0  0  0  0  0  0  0  0  0  0  0  0
  -26.4260  -34.6370   22.3210 O   0  0  0  0  0  0  0  0  0  0  0  0
  -24.8270  -33.8530   24.9150 H   0  0  0  0  0  0  0  0  0  0  0  0
  -24.2050  -36.6810   23.1240 C   0  0  0  0  0  1  0  0  0  0  0  0
  -25.4180  -36.1460   23.9000 C   0  0  0  0  0  3  0  0  0  0  0  0
  -27.6240  -36.8210   24.7390 C   0  0  0  0  0  1  0  0  0  0  0  0
  -26.5300  -37.1180   23.8190 N   0  0  0  0  0  0  0  0  0  0  0  0
  -26.2000  -38.0610   24.0130 H   0  0  0  0  0  0  0  0  0  0  0  0
  -26.1230  -31.4330   24.9060 C   0  0  1  0  0  0  0  0  0  0  0  0
  -25.0810  -31.2200   26.0270 C   0  0  0  0  0  1  0  0  0  0  0  0
  -26.5890  -30.0400   24.4190 C   0  0  0  0  0  1  0  0  0  0  0  0
  -27.3580  -32.1220   25.5300 C   0  0  0  0  0  1  0  0  0  0  0  0
  2  3  1  0
  2  1  1  0
  4  9  1  0
  6  8  1  0
  6  4  1  0
  6  7  1  0
  7 19  1  0
  7  5  1  0
  9  5  1  0
  9  3  1  0
  9 10  1  6
 11 19  1  0
 12 17  1  0
 13 14  1  0
 13 12  1  0
 15 14  1  0
 15 24  1  0
 15 16  1  0
 17 11  1  0
 17 16  1  0
 18 11  2  0
 19 20  1  0
 21 22  2  0
 22 23  1  0
 22 41  1  0
 23 26  1  0
 24 21  1  0
 24 25  1  0
 25 23  2  0
 26 27  1  0
 27 28  2  0
 29 32  1  0
 29 28  1  0
 30 29  2  0
 31 30  1  0
 31 26  2  0
 32 33  1  0
 33 38  2  0
 33 34  1  0
 34 35  2  0
 35 36  1  0
 36 40  1  0
 37 36  2  0
 38 37  1  0
 39 38  1  0
 41 42  1  0
 42 45  1  0
 42 44  1  0
 43 41  2  0
 46 47  1  0
 46 21  1  0
 48 46  1  0
 49 50  1  0
 49  1  1  0
 50 51  1  0
 52 50  1  0
 53 50  1  0
 54 53  1  0
 55 54  1  0
 56 58  1  0
 56 55  1  0
 57 68  2  0
 58 63  1  0
 59 67  1  0
 59 69  1  0
 60 66  1  0
 60 62  1  0
 61 67  1  0
 62 61  1  0
 63 62  2  0
 64 65  1  0
 64 58  2  0
 65 60  2  0
 66 59  1  0
 67 57  1  0
 69 71  2  0
 70 69  1  0
 72 70  1  0
 73 82  2  0
 73 78  1  0
 74 70  1  0
 74 78  1  0
 75 74  1  0
 76 77  1  0
 76 75  1  0
 77 73  1  0
 78 79  2  0
 79 80  1  0
 81 80  2  0
 82 81  1  0
 83 57  1  0
 83 84  1  0
 83 93  1  0
 84 87  1  0
 85 89  1  0
 85 84  1  0
 86 85  2  0
 89 88  1  0
 91 89  1  0
 91 92  1  0
 91 90  1  0
 93 96  1  1
 93 94  1  0
 95 93  1  0
M  ISO  4  11 100  19 100  55 101  56 101
M  END
>  <TORSDO>  (86) 
F 24

>  <SCORE>  (86) 
-10.775

>  <name>  (86) 
86

>  <ligand_id>  (86) 
86

>  <original_smiles>  (86) 
[H]c1c([H])c([H])c2c(c1[H])C([H])([H])C([H])([H])C([H])([H])C2([H])N([H])C(=O)C1([H])N(C(=O)C([H])(N([H])C(=O)C([H])(N([H])C([H])([H])[H])C([H])([H])[H])C(C([H])([H])[H])(C([H])([H])[H])C([H])([H])[H])C([H])([H])c2c([H])c(OC([H])([H])C([H])([H])C([H])([H])[N+]([H])([H])C([H])([H])C([H])([H])C([H])([H])C([H])([H])[N+]3([H])C([H])([H])C([H])(N([H])C(=O)N4C([H])([H])C([H])([H])C([H])([H])C([H])(n5nc(-c6c([H])c([H])c(Oc7c([H])c([H])c(F)c([H])c7F)c([H])c6[H])c(C(=O)N([H])[H])c5N([H])[H])C4([H])[H])C([H])(C([H])([H])[H])C3([H])[H])c([H])c([H])c2C1([H])[H]

>  <smiles>  (86) 
[H]c1c([H])c([H])c2c(c1[H])C([H])([H])C([H])([H])C([H])([H])C2([H])N([H])C(=O)C1([H])N(C(=O)C([H])(N([H])C(=O)C([H])(N([H])C([H])([H])[H])C([H])([H])[H])C(C([H])([H])[H])(C([H])([H])[H])C([H])([H])[H])C([H])([H])c2c([H])c(OC([H])([H])C([H])([H])C([H])([H])[N+]([H])([H])C([H])([H])C([H])([H])C([H])([H])C([H])([H])[N+]3([H])C([H])([H])C([H])(N([H])C(=O)N4C([H])([H])C([H])([H])C([H])([H])C([H])(n5nc(-c6c([H])c([H])c(Oc7c([H])c([H])c(F)c([H])c7F)c([H])c6[H])c(C(=O)N([H])[H])c5N([H])[H])C4([H])[H])C([H])(C([H])([H])[H])C3([H])[H])c([H])c([H])c2C1([H])[H]

$$$$
87:0:0
     RDKit          3D

 95103  0  0  1  0  0  0  0  0999 V2000
  -30.2560  -21.5460   19.2420 C   0  0  0  0  0  2  0  0  0  0  0  0
  -29.8840  -22.8460   19.8420 N   0  0  0  0  0  4  0  0  0  0  0  0
  -28.8800  -22.9160   19.8560 H   0  0  0  0  0  0  0  0  0  0  0  0
  -30.2130  -22.8680   20.7930 H   0  0  0  0  0  0  0  0  0  0  0  0
  -30.4500  -23.9950   19.0950 C   0  0  0  0  0  2  0  0  0  0  0  0
  -30.0760  -25.3770   19.6680 C   0  0  0  0  0  2  0  0  0  0  0  0
  -28.6260  -25.8230   19.4140 C   0  0  0  0  0  2  0  0  0  0  0  0
  -28.5010  -27.1490   19.9180 O   0  0  0  0  0  0  0  0  0  0  0  0
  -24.4630  -31.9380   23.2220 C   0  0  0  0  0  0  0  0  0  0  0  0
  -27.2690  -27.7650   19.9300 C   0  0  0  0  0  0  0  0  0  0  0  0
  -23.3000  -30.5590   21.5280 C   0  0  0  0  0  3  0  0  0  0  0  0
  -24.8030  -29.1450   20.0300 C   0  0  0  0  0  0  0  0  0  0  0  0
  -25.8030  -31.0350   21.3280 C   0  0  0  0  0  2  0  0  0  0  0  0
  -25.9390  -29.6980   20.6310 C   0  0  0  0  0  0  0  0  0  0  0  0
  -27.1710  -29.0140   20.5800 C   0  0  0  0  0  3  0  0  0  0  0  0
  -26.1120  -27.2160   19.3260 C   0  0  0  0  0  3  0  0  0  0  0  0
  -24.8830  -27.9020   19.3770 C   0  0  0  0  0  3  0  0  0  0  0  0
  -23.5240  -29.9450   20.1210 C   0  0  0  0  0  2  0  0  0  0  0  0
  -24.5400  -31.1900   22.0850 N   0  0  0  0  0  0  0  0  0  0  0  0
  -23.3770  -32.1430   23.7820 O   0  0  0  0  0  0  0  0  0  0  0  0
  -22.7000  -29.4730   22.4490 C   0  0  0  0  0  0  0  0  0  0  0  0
  -21.3900  -29.2190   22.2990 N   0  0  0  0  0  0  0  0  0  0  0  0
  -23.4100  -28.8610   23.2510 O   0  0  0  0  0  0  0  0  0  0  0  0
  -20.8740  -29.7700   21.6260 H   0  0  0  0  0  0  0  0  0  0  0  0
  -18.0940  -27.7960   22.6850 C   0  0  0  0  0  0  0  0  0  0  0  0
  -20.6210  -28.2120   23.0290 C   0  0  0  0  0  3  0  0  0  0  0  0
  -20.8300  -26.8050   22.4230 C   0  0  0  0  0  2  0  0  0  0  0  0
  -19.7770  -26.4360   21.3740 C   0  0  0  0  0  2  0  0  0  0  0  0
  -18.3730  -26.4770   21.9850 C   0  0  0  0  0  2  0  0  0  0  0  0
  -19.1490  -28.6190   23.1610 C   0  0  0  0  0  0  0  0  0  0  0  0
  -18.8340  -29.8530   23.7700 C   0  0  0  0  0  3  0  0  0  0  0  0
  -17.4960  -30.2650   23.9130 C   0  0  0  0  0  3  0  0  0  0  0  0
  -16.4550  -29.4400   23.4550 C   0  0  0  0  0  3  0  0  0  0  0  0
  -16.7540  -28.2080   22.8460 C   0  0  0  0  0  3  0  0  0  0  0  0
  -25.7300  -32.5910   23.8600 C   0  0  0  0  0  3  0  0  0  0  0  0
  -25.3920  -33.9820   24.1860 N   0  0  0  0  0  0  0  0  0  0  0  0
  -25.7250  -35.0410   23.4360 C   0  0  0  0  0  0  0  0  0  0  0  0
  -26.4190  -34.9510   22.4200 O   0  0  0  0  0  0  0  0  0  0  0  0
  -24.7760  -34.1250   24.9730 H   0  0  0  0  0  0  0  0  0  0  0  0
  -23.9840  -36.8120   23.0360 C   0  0  0  0  0  1  0  0  0  0  0  0
  -25.2040  -36.4200   23.8840 C   0  0  0  0  0  3  0  0  0  0  0  0
  -27.2950  -37.3340   24.7910 C   0  0  0  0  0  1  0  0  0  0  0  0
  -26.2240  -37.4870   23.8100 N   0  0  0  0  0  0  0  0  0  0  0  0
  -25.8000  -38.4020   23.9440 H   0  0  0  0  0  0  0  0  0  0  0  0
  -26.2480  -31.8260   25.1380 C   0  0  1  0  0  0  0  0  0  0  0  0
  -25.1480  -31.5650   26.1930 C   0  0  0  0  0  1  0  0  0  0  0  0
  -26.8640  -30.4610   24.7480 C   0  0  0  0  0  1  0  0  0  0  0  0
  -27.3750  -32.6420   25.8160 C   0  0  0  0  0  1  0  0  0  0  0  0
  -29.5480  -20.3430   19.9080 C   0  0  0  0  0  2  0  0  0  0  0  0
  -29.4630  -17.6880   17.3620 C   0  0  0  0  0  2  0  0  0  0  0  0
  -29.4420  -19.1500   17.7630 C   0  0  0  0  0  2  0  0  0  0  0  0
  -29.1200  -17.9120   19.7700 C   0  0  0  0  0  3  0  0  0  0  0  0
  -28.7910  -17.0080   18.5460 C   0  0  0  0  0  3  0  0  0  0  0  0
  -27.2780  -16.8390   18.3080 C   0  0  0  0  0  1  0  0  0  0  0  0
  -29.7980  -19.0900   19.1810 N   0  0  0  0  0  0  0  0  0  0  0  0
  -30.5290  -14.8820   21.2770 C   0  0  0  0  0  0  0  0  0  0  0  0
  -30.4190  -12.7200   20.1570 C   0  0  0  0  0  2  0  0  0  0  0  0
  -29.5910  -12.9300   18.8710 C   0  0  0  0  0  2  0  0  0  0  0  0
  -28.0870  -12.7440   19.1530 C   0  0  0  0  0  2  0  0  0  0  0  0
  -27.5980  -13.5280   20.4010 C   0  0  0  0  0  3  0  0  0  0  0  0
  -28.5590  -13.3510   21.6000 C   0  0  0  0  0  2  0  0  0  0  0  0
  -29.9200  -13.6770   21.1470 N   0  0  0  0  0  0  0  0  0  0  0  0
  -31.7510  -15.0220   21.1940 O   0  0  0  0  0  0  0  0  0  0  0  0
  -30.0110  -17.1830   20.8170 C   0  0  0  0  0  0  0  0  0  0  0  0
  -29.6780  -15.9090   21.0940 N   0  0  0  0  0  0  0  0  0  0  0  0
  -30.9810  -17.7670   21.3180 O   0  0  0  0  0  0  0  0  0  0  0  0
  -28.7430  -15.6300   20.8570 H   0  0  0  0  0  0  0  0  0  0  0  0
  -25.1410  -14.0300   20.9810 C   0  0  0  0  0  0  0  0  0  0  0  0
  -24.0640  -13.2090   21.1770 C   0  0  0  0  0  0  0  0  0  0  0  0
  -24.5560  -11.8750   21.0460 C   0  0  0  0  0  0  0  0  0  0  0  0
  -26.2200  -13.1910   20.7460 N   0  0  0  0  0  0  0  0  0  0  0  0
  -25.8680  -11.8850   20.8450 N   0  0  0  0  0  0  0  0  0  0  0  0
  -23.8470  -10.5900   21.0440 C   0  0  0  0  0  0  0  0  0  0  0  0
  -24.2480   -9.5230   21.8780 C   0  0  0  0  0  3  0  0  0  0  0  0
  -23.5380   -8.3030   21.8710 C   0  0  0  0  0  3  0  0  0  0  0  0
  -22.4140   -8.1420   21.0270 C   0  0  0  0  0  0  0  0  0  0  0  0
  -22.0340   -9.1980   20.1810 C   0  0  0  0  0  3  0  0  0  0  0  0
  -22.7440  -10.4100   20.1850 C   0  0  0  0  0  3  0  0  0  0  0  0
  -21.6790   -6.9840   20.9350 O   0  0  0  0  0  0  0  0  0  0  0  0
  -21.5960   -6.1010   21.9810 C   0  0  0  0  0  0  0  0  0  0  0  0
  -21.0780   -6.4820   23.2390 C   0  0  0  0  0  3  0  0  0  0  0  0
  -20.9450   -5.5240   24.2630 C   0  0  0  0  0  3  0  0  0  0  0  0
  -21.3200   -4.1880   24.0330 C   0  0  0  0  0  0  0  0  0  0  0  0
  -21.8320   -3.8050   22.7810 C   0  0  0  0  0  3  0  0  0  0  0  0
  -21.9670   -4.7600   21.7570 C   0  0  0  0  0  0  0  0  0  0  0  0
  -22.4410   -4.3830   20.5450 F   0  0  0  0  0  0  0  0  0  0  0  0
  -21.1850   -3.2670   25.0150 F   0  0  0  0  0  0  0  0  0  0  0  0
  -22.6390  -13.6360   21.3810 C   0  0  0  0  0  0  0  0  0  0  0  0
  -21.8640  -12.8510   22.1190 N   0  0  0  0  0  0  0  0  0  0  0  0
  -22.2180  -14.6980   20.9230 O   0  0  0  0  0  0  0  0  0  0  0  0
  -22.2150  -11.9900   22.5090 H   0  0  0  0  0  0  0  0  0  0  0  0
  -20.9050  -13.1150   22.2970 H   0  0  0  0  0  0  0  0  0  0  0  0
  -25.2840  -15.4140   20.9640 N   0  0  0  0  0  0  0  0  0  0  0  0
  -24.4840  -16.0280   21.0760 H   0  0  0  0  0  0  0  0  0  0  0  0
  -26.1400  -15.9190   20.7840 H   0  0  0  0  0  0  0  0  0  0  0  0
  1  2  1  0
  1 49  1  0
  2  3  1  0
  2  4  1  0
  5  6  1  0
  5  2  1  0
  7  6  1  0
  7  8  1  0
  8 10  1  0
  9 20  2  0
 10 15  1  0
 11 19  1  0
 11 21  1  0
 12 18  1  0
 12 14  1  0
 13 19  1  0
 14 13  1  0
 15 14  2  0
 16 17  1  0
 16 10  2  0
 17 12  2  0
 18 11  1  0
 19  9  1  0
 21 23  2  0
 22 21  1  0
 24 22  1  0
 25 34  2  0
 25 30  1  0
 26 22  1  0
 26 30  1  0
 27 26  1  0
 28 29  1  0
 28 27  1  0
 29 25  1  0
 30 31  2  0
 31 32  1  0
 33 32  2  0
 34 33  1  0
 35  9  1  0
 35 36  1  0
 35 45  1  0
 36 39  1  0
 37 41  1  0
 37 36  1  0
 38 37  2  0
 41 40  1  0
 43 41  1  0
 43 44  1  0
 43 42  1  0
 45 48  1  1
 45 46  1  0
 47 45  1  0
 50 51  1  0
 50 53  1  0
 51 55  1  0
 52 64  1  0
 53 54  1  0
 53 52  1  0
 55 52  1  0
 55 49  1  0
 57 62  1  0
 58 59  1  0
 58 57  1  0
 60 59  1  0
 60 71  1  0
 60 61  1  0
 62 56  1  0
 62 61  1  0
 63 56  2  0
 64 65  1  0
 64 66  2  0
 65 56  1  0
 67 65  1  0
 68 69  2  0
 69 88  1  0
 70 69  1  0
 71 72  1  0
 71 68  1  0
 72 70  2  0
 73 70  1  0
 73 74  1  0
 75 74  2  0
 76 75  1  0
 77 78  1  0
 77 76  2  0
 78 73  2  0
 79 76  1  0
 79 80  1  0
 80 81  1  0
 81 82  2  0
 83 82  1  0
 83 87  1  0
 84 83  2  0
 85 80  2  0
 85 84  1  0
 86 85  1  0
 88 89  1  0
 89 92  1  0
 89 91  1  0
 90 88  2  0
 93 68  1  0
 93 94  1  0
 95 93  1  0
M  ISO  4   7 101   8 101  56 100  65 100
M  END
>  <TORSDO>  (87) 
F 22

>  <SCORE>  (87) 
-10.946

>  <name>  (87) 
87

>  <ligand_id>  (87) 
87

>  <original_smiles>  (87) 
[H]c1c([H])c([H])c2c(c1[H])C([H])([H])C([H])([H])C([H])([H])C2([H])N([H])C(=O)C1([H])N(C(=O)C([H])(N([H])C(=O)C([H])(N([H])C([H])([H])[H])C([H])([H])[H])C(C([H])([H])[H])(C([H])([H])[H])C([H])([H])[H])C([H])([H])c2c([H])c(OC([H])([H])C([H])([H])C([H])([H])[N+]([H])([H])C([H])([H])C([H])([H])N3C([H])([H])C([H])([H])C([H])(C([H])([H])[H])C3([H])C(=O)N([H])C(=O)N3C([H])([H])C([H])([H])C([H])([H])C([H])(n4nc(-c5c([H])c([H])c(Oc6c([H])c([H])c(F)c([H])c6F)c([H])c5[H])c(C(=O)N([H])[H])c4N([H])[H])C3([H])[H])c([H])c([H])c2C1([H])[H]

>  <smiles>  (87) 
[H]c1c([H])c([H])c2c(c1[H])C([H])([H])C([H])([H])C([H])([H])C2([H])N([H])C(=O)C1([H])N(C(=O)C([H])(N([H])C(=O)C([H])(N([H])C([H])([H])[H])C([H])([H])[H])C(C([H])([H])[H])(C([H])([H])[H])C([H])([H])[H])C([H])([H])c2c([H])c(OC([H])([H])C([H])([H])C([H])([H])[N+]([H])([H])C([H])([H])C([H])([H])N3C([H])([H])C([H])([H])C([H])(C([H])([H])[H])C3([H])C(=O)N([H])C(=O)N3C([H])([H])C([H])([H])C([H])([H])C([H])(n4nc(-c5c([H])c([H])c(Oc6c([H])c([H])c(F)c([H])c6F)c([H])c5[H])c(C(=O)N([H])[H])c4N([H])[H])C3([H])[H])c([H])c([H])c2C1([H])[H]

$$$$
88:0:0
     RDKit          3D

 93101  0  0  1  0  0  0  0  0999 V2000
  -29.4960  -21.5790   20.4980 C   0  0  0  0  0  2  0  0  0  0  0  0
  -31.5410  -18.6680   21.9470 C   0  0  0  0  0  2  0  0  0  0  0  0
  -29.3570  -17.7840   21.0910 C   0  0  0  0  0  2  0  0  0  0  0  0
  -31.2550  -20.0030   21.2360 C   0  0  0  0  0  2  0  0  0  0  0  0
  -29.1120  -19.1380   20.3950 C   0  0  0  0  0  2  0  0  0  0  0  0
  -30.8640  -17.4870   21.2290 C   0  0  0  0  0  3  0  0  0  0  0  0
  -29.7940  -20.2540   21.1010 N   0  0  2  0  0  4  0  0  0  0  0  0
  -29.4040  -20.2730   22.0310 H   0  0  0  0  0  0  0  0  0  0  0  0
  -31.1600  -16.1600   21.9590 C   0  0  0  0  0  2  0  0  0  0  0  0
  -30.7800  -14.3480   20.2810 C   0  0  0  0  0  0  0  0  0  0  0  0
  -30.3070  -12.3490   18.9130 C   0  0  0  0  0  2  0  0  0  0  0  0
  -29.3080  -12.6460   17.7810 C   0  0  0  0  0  2  0  0  0  0  0  0
  -27.8580  -12.5050   18.2800 C   0  0  0  0  0  2  0  0  0  0  0  0
  -27.6050  -13.2870   19.5960 C   0  0  0  0  0  3  0  0  0  0  0  0
  -28.7000  -12.9670   20.6360 C   0  0  0  0  0  2  0  0  0  0  0  0
  -30.0180  -13.2510   20.0360 N   0  0  0  0  0  0  0  0  0  0  0  0
  -31.7480  -14.6760   19.5880 O   0  0  0  0  0  0  0  0  0  0  0  0
  -30.4460  -15.0210   21.3880 N   0  0  0  0  0  0  0  0  0  0  0  0
  -29.6620  -14.6600   21.9110 H   0  0  0  0  0  0  0  0  0  0  0  0
  -25.2400  -13.9130   20.4010 C   0  0  0  0  0  0  0  0  0  0  0  0
  -24.1810  -13.1480   20.8080 C   0  0  0  0  0  0  0  0  0  0  0  0
  -24.6280  -11.7920   20.7490 C   0  0  0  0  0  0  0  0  0  0  0  0
  -26.2670  -13.0240   20.1230 N   0  0  0  0  0  0  0  0  0  0  0  0
  -25.9030  -11.7440   20.3860 N   0  0  0  0  0  0  0  0  0  0  0  0
  -23.8990  -10.5340   20.9610 C   0  0  0  0  0  0  0  0  0  0  0  0
  -24.3530   -9.5640   21.8820 C   0  0  0  0  0  3  0  0  0  0  0  0
  -23.6270   -8.3710   22.0800 C   0  0  0  0  0  3  0  0  0  0  0  0
  -22.4320   -8.1390   21.3580 C   0  0  0  0  0  0  0  0  0  0  0  0
  -21.9960   -9.0980   20.4270 C   0  0  0  0  0  3  0  0  0  0  0  0
  -22.7240  -10.2830   20.2250 C   0  0  0  0  0  3  0  0  0  0  0  0
  -21.6740   -6.9990   21.4670 O   0  0  0  0  0  0  0  0  0  0  0  0
  -21.6450   -6.2610   22.6230 C   0  0  0  0  0  0  0  0  0  0  0  0
  -21.2600   -6.8260   23.8580 C   0  0  0  0  0  3  0  0  0  0  0  0
  -21.1770   -6.0160   25.0080 C   0  0  0  0  0  3  0  0  0  0  0  0
  -21.4700   -4.6410   24.9250 C   0  0  0  0  0  0  0  0  0  0  0  0
  -21.8480   -4.0760   23.6950 C   0  0  0  0  0  3  0  0  0  0  0  0
  -21.9320   -4.8830   22.5460 C   0  0  0  0  0  0  0  0  0  0  0  0
  -22.2770   -4.3290   21.3590 F   0  0  0  0  0  0  0  0  0  0  0  0
  -21.3830   -3.8610   26.0270 F   0  0  0  0  0  0  0  0  0  0  0  0
  -22.7990  -13.6340   21.1420 C   0  0  0  0  0  0  0  0  0  0  0  0
  -22.1030  -12.9370   22.0330 N   0  0  0  0  0  0  0  0  0  0  0  0
  -22.3490  -14.6670   20.6500 O   0  0  0  0  0  0  0  0  0  0  0  0
  -22.4810  -12.1000   22.4530 H   0  0  0  0  0  0  0  0  0  0  0  0
  -21.1780  -13.2440   22.2990 H   0  0  0  0  0  0  0  0  0  0  0  0
  -25.4100  -15.2840   20.2250 N   0  0  0  0  0  0  0  0  0  0  0  0
  -24.6560  -15.9460   20.3680 H   0  0  0  0  0  0  0  0  0  0  0  0
  -26.2560  -15.7140   19.8730 H   0  0  0  0  0  0  0  0  0  0  0  0
  -29.5330  -22.7220   21.5340 C   0  0  0  0  0  2  0  0  0  0  0  0
  -29.3890  -24.1110   20.8860 C   0  0  0  0  0  2  0  0  0  0  0  0
  -29.2230  -25.2470   21.9130 C   0  0  0  0  0  3  0  0  0  0  0  0
  -28.0570  -25.1050   22.5470 F   0  0  0  0  0  0  0  0  0  0  0  0
  -29.3080  -26.6550   21.2960 C   0  0  0  0  0  2  0  0  0  0  0  0
  -28.4620  -26.7340   20.1480 O   0  0  0  0  0  0  0  0  0  0  0  0
  -24.6050  -31.8950   23.2490 C   0  0  0  0  0  0  0  0  0  0  0  0
  -27.3080  -27.4770   20.2250 C   0  0  0  0  0  0  0  0  0  0  0  0
  -23.4140  -30.4750   21.6060 C   0  0  0  0  0  3  0  0  0  0  0  0
  -24.8890  -28.9340   20.2080 C   0  0  0  0  0  0  0  0  0  0  0  0
  -25.9330  -30.8580   21.4180 C   0  0  0  0  0  2  0  0  0  0  0  0
  -26.0330  -29.4820   20.8000 C   0  0  0  0  0  0  0  0  0  0  0  0
  -27.2450  -28.7630   20.8090 C   0  0  0  0  0  3  0  0  0  0  0  0
  -26.1520  -26.9400   19.6250 C   0  0  0  0  0  3  0  0  0  0  0  0
  -24.9390  -27.6580   19.6190 C   0  0  0  0  0  3  0  0  0  0  0  0
  -23.6360  -29.7820   20.2340 C   0  0  0  0  0  2  0  0  0  0  0  0
  -24.6680  -31.0910   22.1510 N   0  0  0  0  0  0  0  0  0  0  0  0
  -23.5200  -32.1650   23.7810 O   0  0  0  0  0  0  0  0  0  0  0  0
  -22.7640  -29.4580   22.5700 C   0  0  0  0  0  0  0  0  0  0  0  0
  -21.4410  -29.2710   22.4330 N   0  0  0  0  0  0  0  0  0  0  0  0
  -23.4440  -28.8410   23.3930 O   0  0  0  0  0  0  0  0  0  0  0  0
  -20.9550  -29.8220   21.7400 H   0  0  0  0  0  0  0  0  0  0  0  0
  -18.0660  -28.0800   22.9150 C   0  0  0  0  0  0  0  0  0  0  0  0
  -20.6220  -28.3370   23.2030 C   0  0  0  0  0  3  0  0  0  0  0  0
  -20.7270  -26.9040   22.6320 C   0  0  0  0  0  2  0  0  0  0  0  0
  -19.6300  -26.5780   21.6110 C   0  0  0  0  0  2  0  0  0  0  0  0
  -18.2450  -26.7280   22.2470 C   0  0  0  0  0  2  0  0  0  0  0  0
  -19.1820  -28.8420   23.3500 C   0  0  0  0  0  0  0  0  0  0  0  0
  -18.9620  -30.1090   23.9330 C   0  0  0  0  0  3  0  0  0  0  0  0
  -17.6570  -30.6130   24.0870 C   0  0  0  0  0  3  0  0  0  0  0  0
  -16.5550  -29.8480   23.6690 C   0  0  0  0  0  3  0  0  0  0  0  0
  -16.7590  -28.5830   23.0900 C   0  0  0  0  0  3  0  0  0  0  0  0
  -25.8870  -32.5310   23.8730 C   0  0  0  0  0  3  0  0  0  0  0  0
  -25.5740  -33.9300   24.1940 N   0  0  0  0  0  0  0  0  0  0  0  0
  -25.9050  -34.9770   23.4280 C   0  0  0  0  0  0  0  0  0  0  0  0
  -26.5800  -34.8690   22.4000 O   0  0  0  0  0  0  0  0  0  0  0  0
  -24.9740  -34.0880   24.9910 H   0  0  0  0  0  0  0  0  0  0  0  0
  -24.1640  -36.7540   23.0580 C   0  0  0  0  0  1  0  0  0  0  0  0
  -25.4100  -36.3670   23.8720 C   0  0  0  0  0  3  0  0  0  0  0  0
  -27.5420  -37.2700   24.6890 C   0  0  0  0  0  1  0  0  0  0  0  0
  -26.4360  -37.4240   23.7470 N   0  0  0  0  0  0  0  0  0  0  0  0
  -26.0250  -38.3440   23.8880 H   0  0  0  0  0  0  0  0  0  0  0  0
  -26.4030  -31.7650   25.1530 C   0  0  1  0  0  0  0  0  0  0  0  0
  -25.3080  -31.5230   26.2160 C   0  0  0  0  0  1  0  0  0  0  0  0
  -26.9950  -30.3900   24.7620 C   0  0  0  0  0  1  0  0  0  0  0  0
  -27.5480  -32.5670   25.8180 C   0  0  0  0  0  1  0  0  0  0  0  0
  1  7  1  0
  1 48  1  0
  3  6  1  0
  4  2  1  0
  5  3  1  0
  5  7  1  0
  6  2  1  0
  6  9  1  0
  7  4  1  0
  7  8  1  1
 10 18  1  0
 11 16  1  0
 12 13  1  0
 12 11  1  0
 14 13  1  0
 14 23  1  0
 14 15  1  0
 16 10  1  0
 16 15  1  0
 17 10  2  0
 18 19  1  0
 18  9  1  0
 20 21  2  0
 21 40  1  0
 22 21  1  0
 22 25  1  0
 23 24  1  0
 23 20  1  0
 24 22  2  0
 25 26  1  0
 26 27  2  0
 28 31  1  0
 28 27  1  0
 29 28  2  0
 30 29  1  0
 30 25  2  0
 31 32  1  0
 32 33  1  0
 33 34  2  0
 35 34  1  0
 35 39  1  0
 36 35  2  0
 37 32  2  0
 37 36  1  0
 38 37  1  0
 40 41  1  0
 41 44  1  0
 41 43  1  0
 42 40  2  0
 45 46  1  0
 45 20  1  0
 47 45  1  0
 49 48  1  0
 49 50  1  0
 50 51  1  0
 52 50  1  0
 53 55  1  0
 53 52  1  0
 54 65  2  0
 55 60  1  0
 56 64  1  0
 56 66  1  0
 57 63  1  0
 57 59  1  0
 58 64  1  0
 59 60  2  0
 59 58  1  0
 61 55  2  0
 62 61  1  0
 62 57  2  0
 63 56  1  0
 64 54  1  0
 66 68  2  0
 67 66  1  0
 69 67  1  0
 70 79  2  0
 70 75  1  0
 71 67  1  0
 71 75  1  0
 72 71  1  0
 73 74  1  0
 73 72  1  0
 74 70  1  0
 75 76  2  0
 76 77  1  0
 78 77  2  0
 79 78  1  0
 80 54  1  0
 80 81  1  0
 80 90  1  0
 81 84  1  0
 82 86  1  0
 82 81  1  0
 83 82  2  0
 86 85  1  0
 88 86  1  0
 88 89  1  0
 88 87  1  0
 90 93  1  1
 90 91  1  0
 92 90  1  0
M  ISO  4  10 100  18 100  52 101  53 101
M  END
>  <TORSDO>  (88) 
F 22

>  <SCORE>  (88) 
-13.290

>  <name>  (88) 
88

>  <ligand_id>  (88) 
88

>  <original_smiles>  (88) 
[H]c1c([H])c([H])c2c(c1[H])C([H])([H])C([H])([H])C([H])([H])C2([H])N([H])C(=O)C1([H])N(C(=O)C([H])(N([H])C(=O)C([H])(N([H])C([H])([H])[H])C([H])([H])[H])C(C([H])([H])[H])(C([H])([H])[H])C([H])([H])[H])C([H])([H])c2c([H])c(OC([H])([H])C([H])(F)C([H])([H])C([H])([H])C([H])([H])[N+]3([H])C([H])([H])C([H])([H])C([H])(C([H])([H])N([H])C(=O)N4C([H])([H])C([H])([H])C([H])([H])C([H])(n5nc(-c6c([H])c([H])c(Oc7c([H])c([H])c(F)c([H])c7F)c([H])c6[H])c(C(=O)N([H])[H])c5N([H])[H])C4([H])[H])C([H])([H])C3([H])[H])c([H])c([H])c2C1([H])[H]

>  <smiles>  (88) 
[H]c1c([H])c([H])c2c(c1[H])C([H])([H])C([H])([H])C([H])([H])C2([H])N([H])C(=O)C1([H])N(C(=O)C([H])(N([H])C(=O)C([H])(N([H])C([H])([H])[H])C([H])([H])[H])C(C([H])([H])[H])(C([H])([H])[H])C([H])([H])[H])C([H])([H])c2c([H])c(OC([H])([H])C([H])(F)C([H])([H])C([H])([H])C([H])([H])[N+]3([H])C([H])([H])C([H])([H])C([H])(C([H])([H])N([H])C(=O)N4C([H])([H])C([H])([H])C([H])([H])C([H])(n5nc(-c6c([H])c([H])c(Oc7c([H])c([H])c(F)c([H])c7F)c([H])c6[H])c(C(=O)N([H])[H])c5N([H])[H])C4([H])[H])C([H])([H])C3([H])[H])c([H])c([H])c2C1([H])[H]

$$$$
89:0:0
     RDKit          3D

 96104  0  0  1  0  0  0  0  0999 V2000
  -30.2350  -22.9740   23.4780 C   0  0  0  0  0  2  0  0  0  0  0  0
  -29.5900  -23.2630   22.1820 N   0  0  0  0  0  4  0  0  0  0  0  0
  -29.2100  -22.3920   21.8400 H   0  0  0  0  0  0  0  0  0  0  0  0
  -30.2960  -23.5670   21.5320 H   0  0  0  0  0  0  0  0  0  0  0  0
  -28.4940  -24.2550   22.2430 C   0  0  0  0  0  2  0  0  0  0  0  0
  -27.6650  -24.2980   20.9450 C   0  0  0  0  0  3  0  0  0  0  0  0
  -27.4470  -23.0480   20.5280 F   0  0  0  0  0  0  0  0  0  0  0  0
  -28.2830  -25.1320   19.7970 C   0  0  0  0  0  2  0  0  0  0  0  0
  -28.2910  -26.5350   20.0770 O   0  0  0  0  0  0  0  0  0  0  0  0
  -24.4960  -31.6910   23.1310 C   0  0  0  0  0  0  0  0  0  0  0  0
  -27.1060  -27.2400   20.0430 C   0  0  0  0  0  0  0  0  0  0  0  0
  -23.2860  -30.3230   21.4640 C   0  0  0  0  0  3  0  0  0  0  0  0
  -24.7300  -28.7760   20.0440 C   0  0  0  0  0  0  0  0  0  0  0  0
  -25.8200  -30.6410   21.2990 C   0  0  0  0  0  2  0  0  0  0  0  0
  -25.8880  -29.2760   20.6500 C   0  0  0  0  0  0  0  0  0  0  0  0
  -27.0760  -28.5150   20.6470 C   0  0  0  0  0  3  0  0  0  0  0  0
  -25.9260  -26.7520   19.4300 C   0  0  0  0  0  3  0  0  0  0  0  0
  -24.7440  -27.5120   19.4320 C   0  0  0  0  0  3  0  0  0  0  0  0
  -23.5000  -29.6510   20.0800 C   0  0  0  0  0  2  0  0  0  0  0  0
  -24.5530  -30.8990   22.0240 N   0  0  0  0  0  0  0  0  0  0  0  0
  -23.4130  -31.9770   23.6600 O   0  0  0  0  0  0  0  0  0  0  0  0
  -22.6090  -29.3030   22.4070 C   0  0  0  0  0  0  0  0  0  0  0  0
  -21.2840  -29.1450   22.2630 N   0  0  0  0  0  0  0  0  0  0  0  0
  -23.2730  -28.6560   23.2220 O   0  0  0  0  0  0  0  0  0  0  0  0
  -20.8130  -29.7200   21.5770 H   0  0  0  0  0  0  0  0  0  0  0  0
  -17.8810  -28.0200   22.7110 C   0  0  0  0  0  0  0  0  0  0  0  0
  -20.4400  -28.2170   23.0130 C   0  0  0  0  0  3  0  0  0  0  0  0
  -20.5180  -26.7910   22.4200 C   0  0  0  0  0  2  0  0  0  0  0  0
  -19.4190  -26.5050   21.3910 C   0  0  0  0  0  2  0  0  0  0  0  0
  -18.0350  -26.6740   22.0230 C   0  0  0  0  0  2  0  0  0  0  0  0
  -19.0110  -28.7510   23.1620 C   0  0  0  0  0  0  0  0  0  0  0  0
  -18.8150  -30.0120   23.7640 C   0  0  0  0  0  3  0  0  0  0  0  0
  -17.5200  -30.5410   23.9230 C   0  0  0  0  0  3  0  0  0  0  0  0
  -16.4030  -29.8060   23.4900 C   0  0  0  0  0  3  0  0  0  0  0  0
  -16.5850  -28.5470   22.8890 C   0  0  0  0  0  3  0  0  0  0  0  0
  -25.7850  -32.2930   23.7720 C   0  0  0  0  0  3  0  0  0  0  0  0
  -25.4910  -33.6890   24.1240 N   0  0  0  0  0  0  0  0  0  0  0  0
  -25.8460  -34.7500   23.3870 C   0  0  0  0  0  0  0  0  0  0  0  0
  -26.5250  -34.6570   22.3610 O   0  0  0  0  0  0  0  0  0  0  0  0
  -24.8880  -33.8360   24.9190 H   0  0  0  0  0  0  0  0  0  0  0  0
  -24.1450  -36.5700   23.0430 C   0  0  0  0  0  1  0  0  0  0  0  0
  -25.3690  -36.1350   23.8640 C   0  0  0  0  0  3  0  0  0  0  0  0
  -27.5010  -36.9770   24.7400 C   0  0  0  0  0  1  0  0  0  0  0  0
  -26.4160  -37.1760   23.7840 N   0  0  0  0  0  0  0  0  0  0  0  0
  -26.0210  -38.1000   23.9400 H   0  0  0  0  0  0  0  0  0  0  0  0
  -26.2860  -31.4930   25.0360 C   0  0  1  0  0  0  0  0  0  0  0  0
  -25.1840  -31.2500   26.0940 C   0  0  0  0  0  1  0  0  0  0  0  0
  -26.8550  -30.1170   24.6190 C   0  0  0  0  0  1  0  0  0  0  0  0
  -27.4410  -32.2610   25.7200 C   0  0  0  0  0  1  0  0  0  0  0  0
  -31.4780  -22.0920   23.2770 C   0  0  0  0  0  2  0  0  0  0  0  0
  -30.5920  -18.5130   24.0030 C   0  0  0  0  0  2  0  0  0  0  0  0
  -30.1820  -17.7870   22.7070 C   0  0  0  0  0  2  0  0  0  0  0  0
  -31.1390  -19.2440   20.8650 C   0  0  0  0  0  2  0  0  0  0  0  0
  -31.4570  -19.7830   23.9190 C   0  0  0  0  0  2  0  0  0  0  0  0
  -31.8020  -20.3870   21.6390 C   0  0  0  0  0  2  0  0  0  0  0  0
  -31.1670  -17.8450   21.5210 C   0  0  0  0  0  3  0  0  0  0  0  0
  -31.0760  -20.7360   22.8660 N   0  0  0  0  0  0  0  0  0  0  0  0
  -30.7740  -16.8180   20.4350 C   0  0  0  0  0  2  0  0  0  0  0  0
  -31.2230  -14.3900   20.4830 C   0  0  0  0  0  0  0  0  0  0  0  0
  -30.8650  -12.2150   19.3990 C   0  0  0  0  0  2  0  0  0  0  0  0
  -29.9690  -12.4330   18.1620 C   0  0  0  0  0  2  0  0  0  0  0  0
  -28.4770  -12.3810   18.5460 C   0  0  0  0  0  2  0  0  0  0  0  0
  -28.1420  -13.2620   19.7780 C   0  0  0  0  0  3  0  0  0  0  0  0
  -29.1520  -13.0200   20.9240 C   0  0  0  0  0  2  0  0  0  0  0  0
  -30.5090  -13.2380   20.3940 N   0  0  0  0  0  0  0  0  0  0  0  0
  -32.3570  -14.5190   20.0110 O   0  0  0  0  0  0  0  0  0  0  0  0
  -30.5320  -15.4530   20.9160 N   0  0  0  0  0  0  0  0  0  0  0  0
  -29.6250  -15.2630   21.3170 H   0  0  0  0  0  0  0  0  0  0  0  0
  -25.7660  -13.9980   20.4470 C   0  0  0  0  0  0  0  0  0  0  0  0
  -24.6460  -13.2830   20.7800 C   0  0  0  0  0  0  0  0  0  0  0  0
  -25.0260  -11.9070   20.7250 C   0  0  0  0  0  0  0  0  0  0  0  0
  -26.7620  -13.0620   20.2190 N   0  0  0  0  0  0  0  0  0  0  0  0
  -26.3170  -11.7970   20.4410 N   0  0  0  0  0  0  0  0  0  0  0  0
  -24.2230  -10.6860   20.8750 C   0  0  0  0  0  0  0  0  0  0  0  0
  -24.5680   -9.6870   21.8110 C   0  0  0  0  0  3  0  0  0  0  0  0
  -23.7710   -8.5310   21.9490 C   0  0  0  0  0  3  0  0  0  0  0  0
  -22.6150   -8.3640   21.1490 C   0  0  0  0  0  0  0  0  0  0  0  0
  -22.2900   -9.3520   20.2030 C   0  0  0  0  0  3  0  0  0  0  0  0
  -23.0860  -10.5010   20.0640 C   0  0  0  0  0  3  0  0  0  0  0  0
  -21.7970   -7.2620   21.1960 O   0  0  0  0  0  0  0  0  0  0  0  0
  -21.6150   -6.5510   22.3550 C   0  0  0  0  0  0  0  0  0  0  0  0
  -21.1370   -7.1580   23.5360 C   0  0  0  0  0  3  0  0  0  0  0  0
  -20.9000   -6.3750   24.6830 C   0  0  0  0  0  3  0  0  0  0  0  0
  -21.1280   -4.9860   24.6490 C   0  0  0  0  0  0  0  0  0  0  0  0
  -21.5970   -4.3790   23.4710 C   0  0  0  0  0  3  0  0  0  0  0  0
  -21.8370   -5.1590   22.3260 C   0  0  0  0  0  0  0  0  0  0  0  0
  -22.2710   -4.5650   21.1880 F   0  0  0  0  0  0  0  0  0  0  0  0
  -20.8910   -4.2330   25.7480 F   0  0  0  0  0  0  0  0  0  0  0  0
  -23.2730  -13.8370   21.0380 C   0  0  0  0  0  0  0  0  0  0  0  0
  -22.5020  -13.1830   21.9000 N   0  0  0  0  0  0  0  0  0  0  0  0
  -22.8960  -14.8830   20.5120 O   0  0  0  0  0  0  0  0  0  0  0  0
  -22.8200  -12.3340   22.3460 H   0  0  0  0  0  0  0  0  0  0  0  0
  -21.5790  -13.5310   22.1140 H   0  0  0  0  0  0  0  0  0  0  0  0
  -26.0180  -15.3590   20.3020 N   0  0  0  0  0  0  0  0  0  0  0  0
  -25.2970  -16.0620   20.4120 H   0  0  0  0  0  0  0  0  0  0  0  0
  -26.9000  -15.7430   19.9840 H   0  0  0  0  0  0  0  0  0  0  0  0
  2  5  1  0
  2  1  1  0
  3  2  1  0
  4  2  1  0
  6  7  1  0
  6  5  1  0
  8  9  1  0
  8  6  1  0
 10 21  2  0
 11  9  1  0
 11 16  1  0
 12 20  1  0
 12 22  1  0
 13 19  1  0
 13 15  1  0
 14 20  1  0
 15 14  1  0
 16 15  2  0
 17 18  1  0
 17 11  2  0
 18 13  2  0
 19 12  1  0
 20 10  1  0
 22 24  2  0
 23 22  1  0
 25 23  1  0
 26 35  2  0
 26 31  1  0
 27 23  1  0
 27 31  1  0
 28 27  1  0
 29 30  1  0
 29 28  1  0
 30 26  1  0
 31 32  2  0
 32 33  1  0
 34 33  2  0
 35 34  1  0
 36 10  1  0
 36 37  1  0
 36 46  1  0
 37 40  1  0
 38 42  1  0
 38 37  1  0
 39 38  2  0
 42 41  1  0
 44 42  1  0
 44 45  1  0
 44 43  1  0
 46 49  1  1
 46 47  1  0
 48 46  1  0
 50  1  1  0
 52 51  1  0
 53 56  1  0
 53 55  1  0
 54 51  1  0
 55 57  1  0
 56 58  1  0
 56 52  1  0
 57 50  1  0
 57 54  1  0
 58 67  1  0
 59 67  1  0
 60 65  1  0
 61 62  1  0
 61 60  1  0
 63 62  1  0
 63 72  1  0
 63 64  1  0
 65 59  1  0
 65 64  1  0
 66 59  2  0
 67 68  1  0
 69 70  2  0
 70 89  1  0
 71 70  1  0
 71 74  1  0
 72 73  1  0
 72 69  1  0
 73 71  2  0
 74 75  1  0
 75 76  2  0
 77 80  1  0
 77 76  1  0
 78 77  2  0
 79 78  1  0
 79 74  2  0
 80 81  1  0
 81 82  1  0
 82 83  2  0
 84 83  1  0
 84 88  1  0
 85 84  2  0
 86 81  2  0
 86 85  1  0
 87 86  1  0
 89 90  1  0
 90 93  1  0
 90 92  1  0
 91 89  2  0
 94 95  1  0
 94 69  1  0
 96 94  1  0
M  ISO  4   8 101   9 101  59 100  67 100
M  END
>  <TORSDO>  (89) 
F 23

>  <SCORE>  (89) 
-11.044

>  <name>  (89) 
89

>  <ligand_id>  (89) 
89

>  <original_smiles>  (89) 
[H]c1c([H])c([H])c2c(c1[H])C([H])([H])C([H])([H])C([H])([H])C2([H])N([H])C(=O)C1([H])N(C(=O)C([H])(N([H])C(=O)C([H])(N([H])C([H])([H])[H])C([H])([H])[H])C(C([H])([H])[H])(C([H])([H])[H])C([H])([H])[H])C([H])([H])c2c([H])c(OC([H])([H])C([H])(F)C([H])([H])[N+]([H])([H])C([H])([H])C([H])([H])N3C([H])([H])C([H])([H])C([H])([H])C([H])(C([H])([H])N([H])C(=O)N4C([H])([H])C([H])([H])C([H])([H])C([H])(n5nc(-c6c([H])c([H])c(Oc7c([H])c([H])c(F)c([H])c7F)c([H])c6[H])c(C(=O)N([H])[H])c5N([H])[H])C4([H])[H])C([H])([H])C3([H])[H])c([H])c([H])c2C1([H])[H]

>  <smiles>  (89) 
[H]c1c([H])c([H])c2c(c1[H])C([H])([H])C([H])([H])C([H])([H])C2([H])N([H])C(=O)C1([H])N(C(=O)C([H])(N([H])C(=O)C([H])(N([H])C([H])([H])[H])C([H])([H])[H])C(C([H])([H])[H])(C([H])([H])[H])C([H])([H])[H])C([H])([H])c2c([H])c(OC([H])([H])C([H])(F)C([H])([H])[N+]([H])([H])C([H])([H])C([H])([H])N3C([H])([H])C([H])([H])C([H])([H])C([H])(C([H])([H])N([H])C(=O)N4C([H])([H])C([H])([H])C([H])([H])C([H])(n5nc(-c6c([H])c([H])c(Oc7c([H])c([H])c(F)c([H])c7F)c([H])c6[H])c(C(=O)N([H])[H])c5N([H])[H])C4([H])[H])C([H])([H])C3([H])[H])c([H])c([H])c2C1([H])[H]

$$$$
90:0:0
     RDKit          3D

 94102  0  0  1  0  0  0  0  0999 V2000
  -29.3170  -21.0690   19.8520 C   0  0  0  0  0  0  0  0  0  0  0  0
  -29.6910  -22.2830   20.2890 N   0  0  0  0  0  0  0  0  0  0  0  0
  -29.1930  -20.7980   18.6560 O   0  0  0  0  0  0  0  0  0  0  0  0
  -29.7740  -22.4050   21.2900 H   0  0  0  0  0  0  0  0  0  0  0  0
  -30.2500  -19.1930   21.3680 C   0  0  0  0  0  2  0  0  0  0  0  0
  -28.6630  -17.6850   20.3560 C   0  0  0  0  0  2  0  0  0  0  0  0
  -29.0210  -20.0010   20.9160 C   0  0  0  0  0  3  0  0  0  0  0  0
  -30.1700  -17.8570   20.6190 C   0  0  0  0  0  3  0  0  0  0  0  0
  -28.0420  -19.0280   20.4080 N   0  0  0  0  0  4  0  0  0  0  0  0
  -27.2000  -19.0450   20.9600 H   0  0  0  0  0  0  0  0  0  0  0  0
  -27.8290  -19.3460   19.4730 H   0  0  0  0  0  0  0  0  0  0  0  0
  -30.8670  -16.6980   21.3720 C   0  0  0  0  0  2  0  0  0  0  0  0
  -31.0050  -14.4500   20.2500 C   0  0  0  0  0  0  0  0  0  0  0  0
  -30.6620  -12.3100   19.0660 C   0  0  0  0  0  2  0  0  0  0  0  0
  -29.6740  -12.5010   17.8970 C   0  0  0  0  0  2  0  0  0  0  0  0
  -28.2110  -12.3900   18.3730 C   0  0  0  0  0  2  0  0  0  0  0  0
  -27.9240  -13.2410   19.6400 C   0  0  0  0  0  3  0  0  0  0  0  0
  -29.0060  -12.9870   20.7120 C   0  0  0  0  0  2  0  0  0  0  0  0
  -30.3180  -13.2860   20.1100 N   0  0  0  0  0  0  0  0  0  0  0  0
  -32.0830  -14.6800   19.6940 O   0  0  0  0  0  0  0  0  0  0  0  0
  -30.3770  -15.3740   20.9900 N   0  0  0  0  0  0  0  0  0  0  0  0
  -29.4840  -15.0920   21.3690 H   0  0  0  0  0  0  0  0  0  0  0  0
  -25.5620  -13.8950   20.4280 C   0  0  0  0  0  0  0  0  0  0  0  0
  -24.4890  -13.1410   20.8250 C   0  0  0  0  0  0  0  0  0  0  0  0
  -24.9190  -11.7810   20.7590 C   0  0  0  0  0  0  0  0  0  0  0  0
  -26.5800  -12.9930   20.1560 N   0  0  0  0  0  0  0  0  0  0  0  0
  -26.1970  -11.7150   20.4080 N   0  0  0  0  0  0  0  0  0  0  0  0
  -24.1720  -10.5310   20.9530 C   0  0  0  0  0  0  0  0  0  0  0  0
  -24.5790   -9.5690   21.9040 C   0  0  0  0  0  3  0  0  0  0  0  0
  -23.8340   -8.3830   22.0840 C   0  0  0  0  0  3  0  0  0  0  0  0
  -22.6690   -8.1520   21.3150 C   0  0  0  0  0  0  0  0  0  0  0  0
  -22.2820   -9.1030   20.3550 C   0  0  0  0  0  3  0  0  0  0  0  0
  -23.0270  -10.2810   20.1720 C   0  0  0  0  0  3  0  0  0  0  0  0
  -21.8990   -7.0190   21.4050 O   0  0  0  0  0  0  0  0  0  0  0  0
  -21.7840   -6.3180   22.5780 C   0  0  0  0  0  0  0  0  0  0  0  0
  -21.2720   -6.9100   23.7540 C   0  0  0  0  0  3  0  0  0  0  0  0
  -21.1060   -6.1340   24.9180 C   0  0  0  0  0  3  0  0  0  0  0  0
  -21.4410   -4.7670   24.9080 C   0  0  0  0  0  0  0  0  0  0  0  0
  -21.9460   -4.1740   23.7370 C   0  0  0  0  0  3  0  0  0  0  0  0
  -22.1140   -4.9480   22.5750 C   0  0  0  0  0  0  0  0  0  0  0  0
  -22.5800   -4.3660   21.4430 F   0  0  0  0  0  0  0  0  0  0  0  0
  -21.2750   -4.0200   26.0240 F   0  0  0  0  0  0  0  0  0  0  0  0
  -23.1120  -13.6440   21.1460 C   0  0  0  0  0  0  0  0  0  0  0  0
  -22.3950  -12.9470   22.0230 N   0  0  0  0  0  0  0  0  0  0  0  0
  -22.6820  -14.6880   20.6590 O   0  0  0  0  0  0  0  0  0  0  0  0
  -22.7580  -12.1020   22.4380 H   0  0  0  0  0  0  0  0  0  0  0  0
  -21.4720  -13.2640   22.2800 H   0  0  0  0  0  0  0  0  0  0  0  0
  -25.7490  -15.2620   20.2560 N   0  0  0  0  0  0  0  0  0  0  0  0
  -24.9770  -15.9150   20.3410 H   0  0  0  0  0  0  0  0  0  0  0  0
  -26.5580  -15.6580   19.7960 H   0  0  0  0  0  0  0  0  0  0  0  0
  -30.0240  -23.4330   19.4450 C   0  0  0  0  0  2  0  0  0  0  0  0
  -29.7400  -24.7750   20.1550 C   0  0  0  0  0  2  0  0  0  0  0  0
  -28.5230  -25.5110   19.5780 C   0  0  0  0  0  2  0  0  0  0  0  0
  -28.4330  -26.7960   20.1830 O   0  0  0  0  0  0  0  0  0  0  0  0
  -24.5780  -31.9050   23.2310 C   0  0  0  0  0  0  0  0  0  0  0  0
  -27.2320  -27.4710   20.1550 C   0  0  0  0  0  0  0  0  0  0  0  0
  -23.3700  -30.4900   21.6000 C   0  0  0  0  0  3  0  0  0  0  0  0
  -24.8260  -28.9560   20.1760 C   0  0  0  0  0  0  0  0  0  0  0  0
  -25.8930  -30.8630   21.3920 C   0  0  0  0  0  2  0  0  0  0  0  0
  -25.9790  -29.4880   20.7620 C   0  0  0  0  0  0  0  0  0  0  0  0
  -27.1810  -28.7500   20.7560 C   0  0  0  0  0  3  0  0  0  0  0  0
  -26.0560  -26.9530   19.5610 C   0  0  0  0  0  3  0  0  0  0  0  0
  -24.8560  -27.6880   19.5730 C   0  0  0  0  0  3  0  0  0  0  0  0
  -23.5790  -29.8090   20.2210 C   0  0  0  0  0  2  0  0  0  0  0  0
  -24.6330  -31.0990   22.1320 N   0  0  0  0  0  0  0  0  0  0  0  0
  -23.4960  -32.1800   23.7700 O   0  0  0  0  0  0  0  0  0  0  0  0
  -22.7270  -29.4690   22.5640 C   0  0  0  0  0  0  0  0  0  0  0  0
  -21.4040  -29.2770   22.4340 N   0  0  0  0  0  0  0  0  0  0  0  0
  -23.4140  -28.8520   23.3820 O   0  0  0  0  0  0  0  0  0  0  0  0
  -20.9130  -29.8270   21.7430 H   0  0  0  0  0  0  0  0  0  0  0  0
  -18.0310  -28.0910   22.9440 C   0  0  0  0  0  0  0  0  0  0  0  0
  -20.5900  -28.3410   23.2060 C   0  0  0  0  0  3  0  0  0  0  0  0
  -20.6860  -26.9110   22.6290 C   0  0  0  0  0  2  0  0  0  0  0  0
  -19.5790  -26.5920   21.6180 C   0  0  0  0  0  2  0  0  0  0  0  0
  -18.2010  -26.7420   22.2680 C   0  0  0  0  0  2  0  0  0  0  0  0
  -19.1530  -28.8500   23.3710 C   0  0  0  0  0  0  0  0  0  0  0  0
  -18.9410  -30.1150   23.9610 C   0  0  0  0  0  3  0  0  0  0  0  0
  -17.6390  -30.6220   24.1280 C   0  0  0  0  0  3  0  0  0  0  0  0
  -16.5310  -29.8590   23.7210 C   0  0  0  0  0  3  0  0  0  0  0  0
  -16.7280  -28.5970   23.1340 C   0  0  0  0  0  3  0  0  0  0  0  0
  -25.8660  -32.5380   23.8450 C   0  0  0  0  0  3  0  0  0  0  0  0
  -25.5530  -33.9330   24.1800 N   0  0  0  0  0  0  0  0  0  0  0  0
  -25.8730  -34.9870   23.4180 C   0  0  0  0  0  0  0  0  0  0  0  0
  -26.5390  -34.8890   22.3850 O   0  0  0  0  0  0  0  0  0  0  0  0
  -24.9630  -34.0820   24.9870 H   0  0  0  0  0  0  0  0  0  0  0  0
  -24.1370  -36.7710   23.0630 C   0  0  0  0  0  1  0  0  0  0  0  0
  -25.3770  -36.3710   23.8790 C   0  0  0  0  0  3  0  0  0  0  0  0
  -27.5030  -37.2640   24.7220 C   0  0  0  0  0  1  0  0  0  0  0  0
  -26.4030  -37.4300   23.7730 N   0  0  0  0  0  0  0  0  0  0  0  0
  -25.9900  -38.3470   23.9210 H   0  0  0  0  0  0  0  0  0  0  0  0
  -26.3990  -31.7620   25.1120 C   0  0  1  0  0  0  0  0  0  0  0  0
  -25.3110  -31.5030   26.1820 C   0  0  0  0  0  1  0  0  0  0  0  0
  -26.9940  -30.3940   24.7020 C   0  0  0  0  0  1  0  0  0  0  0  0
  -27.5450  -32.5620   25.7740 C   0  0  0  0  0  1  0  0  0  0  0  0
  1  2  1  0
  2  4  1  0
  3  1  2  0
  6  9  1  0
  6  8  1  0
  7  1  1  0
  7  5  1  0
  8  5  1  0
  8 12  1  0
  9  7  1  0
  9 10  1  0
 11  9  1  0
 13 21  1  0
 14 19  1  0
 15 16  1  0
 15 14  1  0
 17 16  1  0
 17 26  1  0
 17 18  1  0
 19 13  1  0
 19 18  1  0
 20 13  2  0
 21 22  1  0
 21 12  1  0
 23 24  2  0
 24 43  1  0
 25 24  1  0
 25 28  1  0
 26 27  1  0
 26 23  1  0
 27 25  2  0
 28 29  1  0
 29 30  2  0
 31 34  1  0
 31 30  1  0
 32 31  2  0
 33 32  1  0
 33 28  2  0
 34 35  1  0
 35 36  1  0
 36 37  2  0
 38 37  1  0
 38 42  1  0
 39 38  2  0
 40 35  2  0
 40 39  1  0
 41 40  1  0
 43 44  1  0
 44 47  1  0
 44 46  1  0
 45 43  2  0
 48 49  1  0
 48 23  1  0
 50 48  1  0
 51 52  1  0
 51  2  1  0
 53 52  1  0
 53 54  1  0
 55 66  2  0
 56 54  1  0
 56 61  1  0
 57 65  1  0
 57 67  1  0
 58 64  1  0
 58 60  1  0
 59 65  1  0
 60 59  1  0
 61 60  2  0
 62 63  1  0
 62 56  2  0
 63 58  2  0
 64 57  1  0
 65 55  1  0
 67 69  2  0
 68 67  1  0
 70 68  1  0
 71 80  2  0
 71 76  1  0
 72 68  1  0
 72 76  1  0
 73 72  1  0
 74 75  1  0
 74 73  1  0
 75 71  1  0
 76 77  2  0
 77 78  1  0
 79 78  2  0
 80 79  1  0
 81 55  1  0
 81 82  1  0
 81 91  1  0
 82 85  1  0
 83 87  1  0
 83 82  1  0
 84 83  2  0
 87 86  1  0
 89 87  1  0
 89 90  1  0
 89 88  1  0
 91 94  1  1
 91 92  1  0
 93 91  1  0
M  ISO  4  13 100  21 100  53 101  54 101
M  END
>  <TORSDO>  (90) 
F 21

>  <SCORE>  (90) 
-13.603

>  <name>  (90) 
90

>  <ligand_id>  (90) 
90

>  <original_smiles>  (90) 
[H]c1c([H])c([H])c2c(c1[H])C([H])([H])C([H])([H])C([H])([H])C2([H])N([H])C(=O)C1([H])N(C(=O)C([H])(N([H])C(=O)C([H])(N([H])C([H])([H])[H])C([H])([H])[H])C(C([H])([H])[H])(C([H])([H])[H])C([H])([H])[H])C([H])([H])c2c([H])c(OC([H])([H])C([H])([H])C([H])([H])N([H])C(=O)C3([H])C([H])([H])C([H])(C([H])([H])N([H])C(=O)N4C([H])([H])C([H])([H])C([H])([H])C([H])(n5nc(-c6c([H])c([H])c(Oc7c([H])c([H])c(F)c([H])c7F)c([H])c6[H])c(C(=O)N([H])[H])c5N([H])[H])C4([H])[H])C([H])([H])[N+]3([H])[H])c([H])c([H])c2C1([H])[H]

>  <smiles>  (90) 
[H]c1c([H])c([H])c2c(c1[H])C([H])([H])C([H])([H])C([H])([H])C2([H])N([H])C(=O)C1([H])N(C(=O)C([H])(N([H])C(=O)C([H])(N([H])C([H])([H])[H])C([H])([H])[H])C(C([H])([H])[H])(C([H])([H])[H])C([H])([H])[H])C([H])([H])c2c([H])c(OC([H])([H])C([H])([H])C([H])([H])N([H])C(=O)C3([H])C([H])([H])C([H])(C([H])([H])N([H])C(=O)N4C([H])([H])C([H])([H])C([H])([H])C([H])(n5nc(-c6c([H])c([H])c(Oc7c([H])c([H])c(F)c([H])c7F)c([H])c6[H])c(C(=O)N([H])[H])c5N([H])[H])C4([H])[H])C([H])([H])[N+]3([H])[H])c([H])c([H])c2C1([H])[H]

$$$$
91:0:0
     RDKit          3D

 97105  0  0  1  0  0  0  0  0999 V2000
  -29.6350  -24.5070   21.9760 C   0  0  0  0  0  0  0  0  0  0  0  0
  -30.5940  -24.0800   22.6360 O   0  0  0  0  0  0  0  0  0  0  0  0
  -28.9650  -23.5630   20.9600 C   0  0  0  0  0  2  0  0  0  0  0  0
  -30.7140  -20.2590   20.0160 C   0  0  0  0  0  2  0  0  0  0  0  0
  -29.9840  -20.1440   22.4050 C   0  0  0  0  0  2  0  0  0  0  0  0
  -29.7750  -21.4750   19.8190 C   0  0  0  0  0  2  0  0  0  0  0  0
  -29.0770  -21.3720   22.1710 C   0  0  0  0  0  2  0  0  0  0  0  0
  -30.1850  -19.3140   21.1200 C   0  0  0  0  0  3  0  0  0  0  0  0
  -29.6260  -22.2330   21.0890 N   0  0  2  0  0  4  0  0  0  0  0  0
  -30.5570  -22.5020   21.3870 H   0  0  0  0  0  0  0  0  0  0  0  0
  -31.0560  -18.0490   21.3690 C   0  0  0  0  0  2  0  0  0  0  0  0
  -31.0300  -17.0360   20.1980 C   0  0  0  0  0  2  0  0  0  0  0  0
  -31.4880  -14.5910   20.0450 C   0  0  0  0  0  0  0  0  0  0  0  0
  -31.0480  -12.4170   18.9710 C   0  0  0  0  0  2  0  0  0  0  0  0
  -30.0970  -12.6480   17.7760 C   0  0  0  0  0  2  0  0  0  0  0  0
  -28.6250  -12.6110   18.2340 C   0  0  0  0  0  2  0  0  0  0  0  0
  -28.3640  -13.5050   19.4770 C   0  0  0  0  0  3  0  0  0  0  0  0
  -29.4220  -13.2450   20.5750 C   0  0  0  0  0  2  0  0  0  0  0  0
  -30.7590  -13.4450   19.9850 N   0  0  0  0  0  0  0  0  0  0  0  0
  -32.5730  -14.7280   19.4730 O   0  0  0  0  0  0  0  0  0  0  0  0
  -30.8660  -15.6370   20.6190 N   0  0  0  0  0  0  0  0  0  0  0  0
  -30.0150  -15.4170   21.1150 H   0  0  0  0  0  0  0  0  0  0  0  0
  -26.0340  -14.2860   20.2530 C   0  0  0  0  0  0  0  0  0  0  0  0
  -24.9220  -13.5950   20.6460 C   0  0  0  0  0  0  0  0  0  0  0  0
  -25.2750  -12.2120   20.5840 C   0  0  0  0  0  0  0  0  0  0  0  0
  -27.0040  -13.3310   19.9850 N   0  0  0  0  0  0  0  0  0  0  0  0
  -26.5490  -12.0770   20.2400 N   0  0  0  0  0  0  0  0  0  0  0  0
  -24.4580  -11.0080   20.7800 C   0  0  0  0  0  0  0  0  0  0  0  0
  -24.8170  -10.0220   21.7260 C   0  0  0  0  0  3  0  0  0  0  0  0
  -24.0080   -8.8800   21.9110 C   0  0  0  0  0  3  0  0  0  0  0  0
  -22.8270   -8.7160   21.1480 C   0  0  0  0  0  0  0  0  0  0  0  0
  -22.4890   -9.6880   20.1900 C   0  0  0  0  0  3  0  0  0  0  0  0
  -23.2960  -10.8230   20.0030 C   0  0  0  0  0  3  0  0  0  0  0  0
  -21.9940   -7.6280   21.2400 O   0  0  0  0  0  0  0  0  0  0  0  0
  -21.8390   -6.9370   22.4160 C   0  0  0  0  0  0  0  0  0  0  0  0
  -21.4120   -7.5710   23.6020 C   0  0  0  0  0  3  0  0  0  0  0  0
  -21.2000   -6.8090   24.7690 C   0  0  0  0  0  3  0  0  0  0  0  0
  -21.4050   -5.4170   24.7480 C   0  0  0  0  0  0  0  0  0  0  0  0
  -21.8240   -4.7830   23.5660 C   0  0  0  0  0  3  0  0  0  0  0  0
  -22.0380   -5.5420   22.4010 C   0  0  0  0  0  0  0  0  0  0  0  0
  -22.4230   -4.9240   21.2590 F   0  0  0  0  0  0  0  0  0  0  0  0
  -21.1940   -4.6850   25.8670 F   0  0  0  0  0  0  0  0  0  0  0  0
  -23.5740  -14.1750   20.9670 C   0  0  0  0  0  0  0  0  0  0  0  0
  -22.8250  -13.5350   21.8580 N   0  0  0  0  0  0  0  0  0  0  0  0
  -23.1960  -15.2300   20.4610 O   0  0  0  0  0  0  0  0  0  0  0  0
  -23.1450  -12.6820   22.2930 H   0  0  0  0  0  0  0  0  0  0  0  0
  -21.9210  -13.9080   22.1100 H   0  0  0  0  0  0  0  0  0  0  0  0
  -26.2990  -15.6420   20.0830 N   0  0  0  0  0  0  0  0  0  0  0  0
  -25.5830  -16.3480   20.2150 H   0  0  0  0  0  0  0  0  0  0  0  0
  -27.1700  -16.0210   19.7310 H   0  0  0  0  0  0  0  0  0  0  0  0
  -29.1120  -25.9540   22.1490 C   0  0  0  0  0  3  0  0  0  0  0  0
  -29.8080  -26.4850   23.3470 N   0  0  0  0  0  4  0  0  0  0  0  0
  -30.7950  -26.3080   23.2510 H   0  0  0  0  0  0  0  0  0  0  0  0
  -29.5060  -25.9870   24.1670 H   0  0  0  0  0  0  0  0  0  0  0  0
  -29.6550  -27.4670   23.4880 H   0  0  0  0  0  0  0  0  0  0  0  0
  -29.3880  -26.8520   20.9130 C   0  0  0  0  0  2  0  0  0  0  0  0
  -28.3460  -26.7620   19.9410 O   0  0  0  0  0  0  0  0  0  0  0  0
  -24.5510  -31.9130   23.2020 C   0  0  0  0  0  0  0  0  0  0  0  0
  -27.2140  -27.5470   20.0480 C   0  0  0  0  0  0  0  0  0  0  0  0
  -23.3390  -30.5260   21.5500 C   0  0  0  0  0  3  0  0  0  0  0  0
  -24.7940  -29.0160   20.0970 C   0  0  0  0  0  0  0  0  0  0  0  0
  -25.8540  -30.9140   21.3300 C   0  0  0  0  0  2  0  0  0  0  0  0
  -25.9470  -29.5470   20.6850 C   0  0  0  0  0  0  0  0  0  0  0  0
  -27.1600  -28.8240   20.6640 C   0  0  0  0  0  3  0  0  0  0  0  0
  -26.0450  -27.0340   19.4500 C   0  0  0  0  0  3  0  0  0  0  0  0
  -24.8360  -27.7560   19.4760 C   0  0  0  0  0  3  0  0  0  0  0  0
  -23.5400  -29.8600   20.1620 C   0  0  0  0  0  2  0  0  0  0  0  0
  -24.6010  -31.1310   22.0870 N   0  0  0  0  0  0  0  0  0  0  0  0
  -23.4760  -32.1680   23.7590 O   0  0  0  0  0  0  0  0  0  0  0  0
  -22.7050  -29.4890   22.5040 C   0  0  0  0  0  0  0  0  0  0  0  0
  -21.3810  -29.3040   22.3880 N   0  0  0  0  0  0  0  0  0  0  0  0
  -23.4010  -28.8560   23.3030 O   0  0  0  0  0  0  0  0  0  0  0  0
  -20.8830  -29.8660   21.7120 H   0  0  0  0  0  0  0  0  0  0  0  0
  -18.0150  -28.0990   22.9120 C   0  0  0  0  0  0  0  0  0  0  0  0
  -20.5760  -28.3510   23.1550 C   0  0  0  0  0  3  0  0  0  0  0  0
  -20.6690  -26.9330   22.5490 C   0  0  0  0  0  2  0  0  0  0  0  0
  -19.5530  -26.6280   21.5460 C   0  0  0  0  0  2  0  0  0  0  0  0
  -18.1810  -26.7610   22.2120 C   0  0  0  0  0  2  0  0  0  0  0  0
  -19.1400  -28.8530   23.3410 C   0  0  0  0  0  0  0  0  0  0  0  0
  -18.9300  -30.1040   23.9580 C   0  0  0  0  0  3  0  0  0  0  0  0
  -17.6290  -30.6030   24.1510 C   0  0  0  0  0  3  0  0  0  0  0  0
  -16.5180  -29.8460   23.7380 C   0  0  0  0  0  3  0  0  0  0  0  0
  -16.7130  -28.5960   23.1250 C   0  0  0  0  0  3  0  0  0  0  0  0
  -25.8390  -32.5440   23.8190 C   0  0  0  0  0  3  0  0  0  0  0  0
  -26.3700  -31.7630   25.0840 C   0  0  1  0  0  0  0  0  0  0  0  0
  -25.2860  -31.5110   26.1570 C   0  0  0  0  0  1  0  0  0  0  0  0
  -26.9590  -30.3910   24.6760 C   0  0  0  0  0  1  0  0  0  0  0  0
  -27.5200  -32.5590   25.7440 C   0  0  0  0  0  1  0  0  0  0  0  0
  -25.5290  -33.9380   24.1590 N   0  0  0  0  0  0  0  0  0  0  0  0
  -25.8670  -34.9960   23.4090 C   0  0  0  0  0  0  0  0  0  0  0  0
  -26.5460  -34.8990   22.3830 O   0  0  0  0  0  0  0  0  0  0  0  0
  -24.9160  -34.0850   24.9490 H   0  0  0  0  0  0  0  0  0  0  0  0
  -24.1430  -36.7950   23.0510 C   0  0  0  0  0  1  0  0  0  0  0  0
  -25.3750  -36.3810   23.8710 C   0  0  0  0  0  3  0  0  0  0  0  0
  -27.5070  -37.2560   24.7240 C   0  0  0  0  0  1  0  0  0  0  0  0
  -26.4110  -37.4330   23.7750 N   0  0  0  0  0  0  0  0  0  0  0  0
  -26.0040  -38.3530   23.9200 H   0  0  0  0  0  0  0  0  0  0  0  0
  1 51  1  0
  1  2  2  0
  3  9  1  0
  3  1  1  0
  4  8  1  0
  6  4  1  0
  6  9  1  0
  7  5  1  0
  8 11  1  0
  8  5  1  0
  9 10  1  1
  9  7  1  0
 12 21  1  0
 12 11  1  0
 13 21  1  0
 14 19  1  0
 15 16  1  0
 15 14  1  0
 17 16  1  0
 17 26  1  0
 17 18  1  0
 19 13  1  0
 19 18  1  0
 20 13  2  0
 21 22  1  0
 23 24  2  0
 24 43  1  0
 25 24  1  0
 25 28  1  0
 26 27  1  0
 26 23  1  0
 27 25  2  0
 28 29  1  0
 29 30  2  0
 31 34  1  0
 31 30  1  0
 32 31  2  0
 33 32  1  0
 33 28  2  0
 34 35  1  0
 35 36  1  0
 36 37  2  0
 38 37  1  0
 38 42  1  0
 39 38  2  0
 40 35  2  0
 40 39  1  0
 41 40  1  0
 43 44  1  0
 44 47  1  0
 44 46  1  0
 45 43  2  0
 48 49  1  0
 48 23  1  0
 50 48  1  0
 51 56  1  0
 51 52  1  0
 52 55  1  0
 52 54  1  0
 53 52  1  0
 57 59  1  0
 57 56  1  0
 58 69  2  0
 59 64  1  0
 60 68  1  0
 60 70  1  0
 61 67  1  0
 61 63  1  0
 62 68  1  0
 63 62  1  0
 64 63  2  0
 65 66  1  0
 65 59  2  0
 66 61  2  0
 67 60  1  0
 68 58  1  0
 70 72  2  0
 71 70  1  0
 73 71  1  0
 74 83  2  0
 74 79  1  0
 75 71  1  0
 75 79  1  0
 76 75  1  0
 77 78  1  0
 77 76  1  0
 78 74  1  0
 79 80  2  0
 80 81  1  0
 82 81  2  0
 83 82  1  0
 84 58  1  0
 84 89  1  0
 84 85  1  0
 85 88  1  1
 85 86  1  0
 87 85  1  0
 89 92  1  0
 90 94  1  0
 90 89  1  0
 91 90  2  0
 94 93  1  0
 96 94  1  0
 96 97  1  0
 96 95  1  0
M  ISO  4  13 100  21 100  56 101  57 101
M  END
>  <TORSDO>  (91) 
F 23

>  <SCORE>  (91) 
-11.698

>  <name>  (91) 
91

>  <ligand_id>  (91) 
91

>  <original_smiles>  (91) 
[H]c1c([H])c([H])c2c(c1[H])C([H])([H])C([H])([H])C([H])([H])C2([H])N([H])C(=O)C1([H])N(C(=O)C([H])(N([H])C(=O)C([H])(N([H])C([H])([H])[H])C([H])([H])[H])C(C([H])([H])[H])(C([H])([H])[H])C([H])([H])[H])C([H])([H])c2c([H])c(OC([H])([H])C([H])(C(=O)C([H])([H])[N+]3([H])C([H])([H])C([H])([H])C([H])(C([H])([H])C([H])([H])N([H])C(=O)N4C([H])([H])C([H])([H])C([H])([H])C([H])(n5nc(-c6c([H])c([H])c(Oc7c([H])c([H])c(F)c([H])c7F)c([H])c6[H])c(C(=O)N([H])[H])c5N([H])[H])C4([H])[H])C([H])([H])C3([H])[H])[N+]([H])([H])[H])c([H])c([H])c2C1([H])[H]

>  <smiles>  (91) 
[H]c1c([H])c([H])c2c(c1[H])C([H])([H])C([H])([H])C([H])([H])C2([H])N([H])C(=O)C1([H])N(C(=O)C([H])(N([H])C(=O)C([H])(N([H])C([H])([H])[H])C([H])([H])[H])C(C([H])([H])[H])(C([H])([H])[H])C([H])([H])[H])C([H])([H])c2c([H])c(OC([H])([H])C([H])(C(=O)C([H])([H])[N+]3([H])C([H])([H])C([H])([H])C([H])(C([H])([H])C([H])([H])N([H])C(=O)N4C([H])([H])C([H])([H])C([H])([H])C([H])(n5nc(-c6c([H])c([H])c(Oc7c([H])c([H])c(F)c([H])c7F)c([H])c6[H])c(C(=O)N([H])[H])c5N([H])[H])C4([H])[H])C([H])([H])C3([H])[H])[N+]([H])([H])[H])c([H])c([H])c2C1([H])[H]

$$$$
92:0:0
     RDKit          3D

 93101  0  0  1  0  0  0  0  0999 V2000
  -28.1840  -19.3810   20.3670 C   0  0  0  0  0  0  0  0  0  0  0  0
  -28.3870  -20.7120   20.3230 N   0  0  0  0  0  0  0  0  0  0  0  0
  -27.1740  -18.9600   20.9260 O   0  0  0  0  0  0  0  0  0  0  0  0
  -27.6520  -21.2510   20.7620 H   0  0  0  0  0  0  0  0  0  0  0  0
  -29.1390  -18.3520   19.7260 C   0  0  0  0  0  2  0  0  0  0  0  0
  -31.2920  -16.8480   22.5930 C   0  0  0  0  0  2  0  0  0  0  0  0
  -30.0190  -17.5560   22.0880 C   0  0  0  0  0  2  0  0  0  0  0  0
  -32.1840  -16.6480   21.3600 C   0  0  0  0  0  2  0  0  0  0  0  0
  -30.3270  -17.9480   20.6370 C   0  0  0  0  0  3  0  0  0  0  0  0
  -31.2470  -16.8040   20.1530 C   0  0  0  0  0  3  0  0  0  0  0  0
  -31.1260  -14.4350   19.3590 C   0  0  0  0  0  0  0  0  0  0  0  0
  -30.6680  -12.1610   18.5260 C   0  0  0  0  0  2  0  0  0  0  0  0
  -29.6150  -12.2180   17.4020 C   0  0  0  0  0  2  0  0  0  0  0  0
  -28.1910  -12.1800   17.9880 C   0  0  0  0  0  2  0  0  0  0  0  0
  -27.9910  -13.1910   19.1510 C   0  0  0  0  0  3  0  0  0  0  0  0
  -29.1470  -13.0970   20.1710 C   0  0  0  0  0  2  0  0  0  0  0  0
  -30.4080  -13.2860   19.4350 N   0  0  0  0  0  0  0  0  0  0  0  0
  -32.1940  -14.5180   18.7410 O   0  0  0  0  0  0  0  0  0  0  0  0
  -30.5680  -15.5170   19.9310 N   0  0  0  0  0  0  0  0  0  0  0  0
  -29.6740  -15.3840   20.3780 H   0  0  0  0  0  0  0  0  0  0  0  0
  -25.7660  -13.9780   20.1750 C   0  0  0  0  0  0  0  0  0  0  0  0
  -24.6840  -13.2900   20.6500 C   0  0  0  0  0  0  0  0  0  0  0  0
  -25.0090  -11.9040   20.5220 C   0  0  0  0  0  0  0  0  0  0  0  0
  -26.6870  -13.0190   19.7870 N   0  0  0  0  0  0  0  0  0  0  0  0
  -26.2430  -11.7620   20.0540 N   0  0  0  0  0  0  0  0  0  0  0  0
  -24.1980  -10.7060   20.7670 C   0  0  0  0  0  0  0  0  0  0  0  0
  -24.6150   -9.7060   21.6740 C   0  0  0  0  0  3  0  0  0  0  0  0
  -23.8120   -8.5700   21.9080 C   0  0  0  0  0  3  0  0  0  0  0  0
  -22.5750   -8.4250   21.2370 C   0  0  0  0  0  0  0  0  0  0  0  0
  -22.1730   -9.4120   20.3190 C   0  0  0  0  0  3  0  0  0  0  0  0
  -22.9760  -10.5410   20.0840 C   0  0  0  0  0  3  0  0  0  0  0  0
  -21.7400   -7.3430   21.3820 O   0  0  0  0  0  0  0  0  0  0  0  0
  -21.6580   -6.6510   22.5620 C   0  0  0  0  0  0  0  0  0  0  0  0
  -21.3020   -7.2820   23.7740 C   0  0  0  0  0  3  0  0  0  0  0  0
  -21.1620   -6.5200   24.9500 C   0  0  0  0  0  3  0  0  0  0  0  0
  -21.3680   -5.1270   24.9180 C   0  0  0  0  0  0  0  0  0  0  0  0
  -21.7160   -4.4960   23.7100 C   0  0  0  0  0  3  0  0  0  0  0  0
  -21.8580   -5.2570   22.5360 C   0  0  0  0  0  0  0  0  0  0  0  0
  -22.1740   -4.6410   21.3700 F   0  0  0  0  0  0  0  0  0  0  0  0
  -21.2260   -4.3920   26.0440 F   0  0  0  0  0  0  0  0  0  0  0  0
  -23.3800  -13.8770   21.1090 C   0  0  0  0  0  0  0  0  0  0  0  0
  -22.7100  -13.2220   22.0510 N   0  0  0  0  0  0  0  0  0  0  0  0
  -22.9670  -14.9470   20.6650 O   0  0  0  0  0  0  0  0  0  0  0  0
  -23.0600  -12.3560   22.4310 H   0  0  0  0  0  0  0  0  0  0  0  0
  -21.8380  -13.5940   22.3990 H   0  0  0  0  0  0  0  0  0  0  0  0
  -26.0400  -15.3340   20.0250 N   0  0  0  0  0  0  0  0  0  0  0  0
  -25.3700  -16.0530   20.2840 H   0  0  0  0  0  0  0  0  0  0  0  0
  -26.8990  -15.7130   19.6450 H   0  0  0  0  0  0  0  0  0  0  0  0
  -29.4590  -21.5240   19.7400 C   0  0  0  0  0  2  0  0  0  0  0  0
  -28.8740  -22.8380   19.1400 C   0  0  0  0  0  2  0  0  0  0  0  0
  -29.1470  -24.1790   19.8870 C   0  0  0  0  0  2  0  0  0  0  0  0
  -28.0760  -25.2440   19.5350 C   0  0  0  0  0  2  0  0  0  0  0  0
  -28.2870  -26.6140   19.9580 O   0  0  0  0  0  0  0  0  0  0  0  0
  -24.8040  -31.8990   23.3100 C   0  0  0  0  0  0  0  0  0  0  0  0
  -27.1600  -27.4350   19.9850 C   0  0  0  0  0  0  0  0  0  0  0  0
  -23.4840  -30.5790   21.6940 C   0  0  0  0  0  3  0  0  0  0  0  0
  -24.8240  -29.0490   20.1550 C   0  0  0  0  0  0  0  0  0  0  0  0
  -26.0140  -30.8580   21.3890 C   0  0  0  0  0  2  0  0  0  0  0  0
  -26.0270  -29.5030   20.7080 C   0  0  0  0  0  0  0  0  0  0  0  0
  -27.1970  -28.7020   20.6290 C   0  0  0  0  0  3  0  0  0  0  0  0
  -25.9350  -27.0340   19.3970 C   0  0  0  0  0  3  0  0  0  0  0  0
  -24.7750  -27.8160   19.4920 C   0  0  0  0  0  3  0  0  0  0  0  0
  -23.6100  -29.9410   20.2880 C   0  0  0  0  0  2  0  0  0  0  0  0
  -24.7910  -31.1230   22.1890 N   0  0  0  0  0  0  0  0  0  0  0  0
  -23.7570  -32.1850   23.9060 O   0  0  0  0  0  0  0  0  0  0  0  0
  -22.8510  -29.5440   22.6550 C   0  0  0  0  0  0  0  0  0  0  0  0
  -21.5280  -29.3420   22.5330 N   0  0  0  0  0  0  0  0  0  0  0  0
  -23.5440  -28.9270   23.4670 O   0  0  0  0  0  0  0  0  0  0  0  0
  -21.0260  -29.8950   21.8540 H   0  0  0  0  0  0  0  0  0  0  0  0
  -18.1950  -28.0010   22.9550 C   0  0  0  0  0  0  0  0  0  0  0  0
  -20.7290  -28.3880   23.3030 C   0  0  0  0  0  3  0  0  0  0  0  0
  -20.9200  -26.9490   22.7760 C   0  0  0  0  0  2  0  0  0  0  0  0
  -19.8670  -26.5370   21.7410 C   0  0  0  0  0  2  0  0  0  0  0  0
  -18.4580  -26.6410   22.3330 C   0  0  0  0  0  2  0  0  0  0  0  0
  -19.2630  -28.8260   23.3990 C   0  0  0  0  0  0  0  0  0  0  0  0
  -18.9660  -30.0960   23.9410 C   0  0  0  0  0  3  0  0  0  0  0  0
  -17.6350  -30.5400   24.0440 C   0  0  0  0  0  3  0  0  0  0  0  0
  -16.5820  -29.7160   23.6150 C   0  0  0  0  0  3  0  0  0  0  0  0
  -16.8630  -28.4480   23.0760 C   0  0  0  0  0  3  0  0  0  0  0  0
  -26.1350  -32.4820   23.8810 C   0  0  0  0  0  3  0  0  0  0  0  0
  -25.8830  -33.8810   24.2480 N   0  0  0  0  0  0  0  0  0  0  0  0
  -26.2100  -34.9350   23.4890 C   0  0  0  0  0  0  0  0  0  0  0  0
  -26.8270  -34.8300   22.4250 O   0  0  0  0  0  0  0  0  0  0  0  0
  -25.3320  -34.0380   25.0800 H   0  0  0  0  0  0  0  0  0  0  0  0
  -24.5160  -36.7790   23.2450 C   0  0  0  0  0  1  0  0  0  0  0  0
  -25.7830  -36.3290   23.9880 C   0  0  0  0  0  3  0  0  0  0  0  0
  -27.9820  -37.1420   24.7200 C   0  0  0  0  0  1  0  0  0  0  0  0
  -26.8380  -37.3540   23.8360 N   0  0  0  0  0  0  0  0  0  0  0  0
  -26.4670  -38.2820   24.0170 H   0  0  0  0  0  0  0  0  0  0  0  0
  -26.6840  -31.6700   25.1180 C   0  0  1  0  0  0  0  0  0  0  0  0
  -25.6310  -31.4330   26.2250 C   0  0  0  0  0  1  0  0  0  0  0  0
  -27.2170  -30.2890   24.6710 C   0  0  0  0  0  1  0  0  0  0  0  0
  -27.8810  -32.4210   25.7470 C   0  0  0  0  0  1  0  0  0  0  0  0
  1  3  2  0
  2  1  1  0
  2  4  1  0
  5  1  1  0
  7  6  1  0
  8  6  1  0
  9  5  1  0
  9  7  1  0
 10 19  1  0
 10  9  1  0
 10  8  1  0
 11 17  1  0
 11 19  1  0
 12 17  1  0
 13 14  1  0
 13 12  1  0
 15 14  1  0
 15 24  1  0
 15 16  1  0
 17 16  1  0
 18 11  2  0
 19 20  1  0
 21 22  2  0
 22 41  1  0
 23 22  1  0
 23 26  1  0
 24 25  1  0
 24 21  1  0
 25 23  2  0
 26 27  1  0
 27 28  2  0
 29 32  1  0
 29 28  1  0
 30 29  2  0
 31 30  1  0
 31 26  2  0
 32 33  1  0
 33 34  1  0
 34 35  2  0
 36 35  1  0
 36 40  1  0
 37 36  2  0
 38 33  2  0
 38 37  1  0
 39 38  1  0
 41 42  1  0
 42 45  1  0
 42 44  1  0
 43 41  2  0
 46 21  1  0
 46 47  1  0
 48 46  1  0
 49  2  1  0
 50 49  1  0
 50 51  1  0
 52 51  1  0
 52 53  1  0
 53 55  1  0
 54 65  2  0
 55 60  1  0
 56 64  1  0
 56 66  1  0
 57 63  1  0
 57 59  1  0
 58 64  1  0
 59 58  1  0
 60 59  2  0
 61 62  1  0
 61 55  2  0
 62 57  2  0
 63 56  1  0
 64 54  1  0
 66 68  2  0
 67 66  1  0
 69 67  1  0
 70 79  2  0
 70 75  1  0
 71 67  1  0
 71 75  1  0
 72 71  1  0
 73 74  1  0
 73 72  1  0
 74 70  1  0
 75 76  2  0
 76 77  1  0
 78 77  2  0
 79 78  1  0
 80 54  1  0
 80 81  1  0
 80 90  1  0
 81 84  1  0
 82 86  1  0
 82 81  1  0
 83 82  2  0
 86 85  1  0
 88 86  1  0
 88 89  1  0
 88 87  1  0
 90 93  1  1
 90 91  1  0
 92 90  1  0
M  ISO  4  11 100  19 100  52 101  53 101
M  END
>  <TORSDO>  (92) 
F 22

>  <SCORE>  (92) 
-10.644

>  <name>  (92) 
92

>  <ligand_id>  (92) 
92

>  <original_smiles>  (92) 
[H]c1c([H])c([H])c2c(c1[H])C([H])([H])C([H])([H])C([H])([H])C2([H])N([H])C(=O)C1([H])N(C(=O)C([H])(N([H])C(=O)C([H])(N([H])C([H])([H])[H])C([H])([H])[H])C(C([H])([H])[H])(C([H])([H])[H])C([H])([H])[H])C([H])([H])c2c([H])c(OC([H])([H])C([H])([H])C([H])([H])C([H])([H])N([H])C(=O)C([H])([H])C3([H])C([H])([H])C([H])([H])C([H])([H])C3([H])N([H])C(=O)N3C([H])([H])C([H])([H])C([H])([H])C([H])(n4nc(-c5c([H])c([H])c(Oc6c([H])c([H])c(F)c([H])c6F)c([H])c5[H])c(C(=O)N([H])[H])c4N([H])[H])C3([H])[H])c([H])c([H])c2C1([H])[H]

>  <smiles>  (92) 
[H]c1c([H])c([H])c2c(c1[H])C([H])([H])C([H])([H])C([H])([H])C2([H])N([H])C(=O)C1([H])N(C(=O)C([H])(N([H])C(=O)C([H])(N([H])C([H])([H])[H])C([H])([H])[H])C(C([H])([H])[H])(C([H])([H])[H])C([H])([H])[H])C([H])([H])c2c([H])c(OC([H])([H])C([H])([H])C([H])([H])C([H])([H])N([H])C(=O)C([H])([H])C3([H])C([H])([H])C([H])([H])C([H])([H])C3([H])N([H])C(=O)N3C([H])([H])C([H])([H])C([H])([H])C([H])(n4nc(-c5c([H])c([H])c(Oc6c([H])c([H])c(F)c([H])c6F)c([H])c5[H])c(C(=O)N([H])[H])c4N([H])[H])C3([H])[H])c([H])c([H])c2C1([H])[H]

$$$$
93:0:0
     RDKit          3D

 91 99  0  0  1  0  0  0  0  0999 V2000
  -29.1820  -22.1350   20.1350 C   0  0  0  0  0  0  0  0  0  0  0  0
  -29.7090  -23.1160   20.9070 N   0  0  0  0  0  0  0  0  0  0  0  0
  -28.4610  -22.3620   19.1580 O   0  0  0  0  0  0  0  0  0  0  0  0
  -30.2780  -22.7760   21.6790 H   0  0  0  0  0  0  0  0  0  0  0  0
  -28.3680  -19.8740   21.1510 C   0  0  0  0  0  2  0  0  0  0  0  0
  -28.7970  -18.3930   21.0550 C   0  0  0  0  0  2  0  0  0  0  0  0
  -29.9930  -19.7120   19.3800 C   0  0  0  0  0  2  0  0  0  0  0  0
  -29.5340  -20.6590   20.5280 C   0  0  0  0  0  3  0  0  0  0  0  0
  -29.5120  -18.2550   19.7000 C   0  0  0  0  0  3  0  0  0  0  0  0
  -30.6320  -17.1570   19.6640 C   0  0  0  0  0  2  0  0  0  0  0  0
  -30.9700  -14.6730   19.7780 C   0  0  0  0  0  0  0  0  0  0  0  0
  -30.6770  -12.3980   18.8770 C   0  0  0  0  0  2  0  0  0  0  0  0
  -29.6690  -12.4750   17.7120 C   0  0  0  0  0  2  0  0  0  0  0  0
  -28.2220  -12.3490   18.2310 C   0  0  0  0  0  2  0  0  0  0  0  0
  -27.9300  -13.2800   19.4420 C   0  0  0  0  0  3  0  0  0  0  0  0
  -29.0500  -13.1950   20.4990 C   0  0  0  0  0  2  0  0  0  0  0  0
  -30.3260  -13.4710   19.8230 N   0  0  0  0  0  0  0  0  0  0  0  0
  -32.1070  -14.7880   19.3200 O   0  0  0  0  0  0  0  0  0  0  0  0
  -30.2190  -15.7730   20.0250 N   0  0  0  0  0  0  0  0  0  0  0  0
  -29.2790  -15.6220   20.3590 H   0  0  0  0  0  0  0  0  0  0  0  0
  -25.6280  -13.9220   20.3890 C   0  0  0  0  0  0  0  0  0  0  0  0
  -24.5660  -13.1670   20.8070 C   0  0  0  0  0  0  0  0  0  0  0  0
  -24.9730  -11.8040   20.6720 C   0  0  0  0  0  0  0  0  0  0  0  0
  -26.6150  -13.0210   20.0220 N   0  0  0  0  0  0  0  0  0  0  0  0
  -26.2300  -11.7390   20.2470 N   0  0  0  0  0  0  0  0  0  0  0  0
  -24.2180  -10.5590   20.8590 C   0  0  0  0  0  0  0  0  0  0  0  0
  -24.5860   -9.6120   21.8410 C   0  0  0  0  0  3  0  0  0  0  0  0
  -23.8300   -8.4340   22.0190 C   0  0  0  0  0  3  0  0  0  0  0  0
  -22.6940   -8.1910   21.2110 C   0  0  0  0  0  0  0  0  0  0  0  0
  -22.3450   -9.1250   20.2200 C   0  0  0  0  0  3  0  0  0  0  0  0
  -23.1000  -10.2970   20.0410 C   0  0  0  0  0  3  0  0  0  0  0  0
  -21.9170   -7.0610   21.2930 O   0  0  0  0  0  0  0  0  0  0  0  0
  -21.6450   -6.4570   22.4950 C   0  0  0  0  0  0  0  0  0  0  0  0
  -20.9760   -7.1390   23.5330 C   0  0  0  0  0  3  0  0  0  0  0  0
  -20.6550   -6.4620   24.7270 C   0  0  0  0  0  3  0  0  0  0  0  0
  -20.9940   -5.1030   24.8770 C   0  0  0  0  0  0  0  0  0  0  0  0
  -21.6530   -4.4200   23.8400 C   0  0  0  0  0  3  0  0  0  0  0  0
  -21.9760   -5.0960   22.6500 C   0  0  0  0  0  0  0  0  0  0  0  0
  -22.5930   -4.4290   21.6450 F   0  0  0  0  0  0  0  0  0  0  0  0
  -20.6770   -4.4510   26.0200 F   0  0  0  0  0  0  0  0  0  0  0  0
  -23.2130  -13.6790   21.2140 C   0  0  0  0  0  0  0  0  0  0  0  0
  -22.5290  -12.9800   22.1120 N   0  0  0  0  0  0  0  0  0  0  0  0
  -22.7740  -14.7380   20.7670 O   0  0  0  0  0  0  0  0  0  0  0  0
  -22.8930  -12.1280   22.5110 H   0  0  0  0  0  0  0  0  0  0  0  0
  -21.6240  -13.3120   22.4150 H   0  0  0  0  0  0  0  0  0  0  0  0
  -25.8250  -15.2950   20.2750 N   0  0  0  0  0  0  0  0  0  0  0  0
  -25.0830  -15.9530   20.4900 H   0  0  0  0  0  0  0  0  0  0  0  0
  -26.6530  -15.7470   19.9120 H   0  0  0  0  0  0  0  0  0  0  0  0
  -29.6940  -24.6050   20.7960 C   0  0  0  0  0  2  0  0  0  0  0  0
  -28.5730  -25.3110   19.9720 C   0  0  0  0  0  2  0  0  0  0  0  0
  -28.5940  -26.7400   20.2330 O   0  0  0  0  0  0  0  0  0  0  0  0
  -24.5440  -31.7760   23.2630 C   0  0  0  0  0  0  0  0  0  0  0  0
  -27.4040  -27.4500   20.1740 C   0  0  0  0  0  0  0  0  0  0  0  0
  -23.4290  -30.3750   21.5560 C   0  0  0  0  0  3  0  0  0  0  0  0
  -24.9670  -28.9090   20.1390 C   0  0  0  0  0  0  0  0  0  0  0  0
  -25.9530  -30.7990   21.4500 C   0  0  0  0  0  2  0  0  0  0  0  0
  -26.0950  -29.4480   20.7730 C   0  0  0  0  0  0  0  0  0  0  0  0
  -27.3130  -28.7270   20.7830 C   0  0  0  0  0  3  0  0  0  0  0  0
  -26.2610  -26.9400   19.5190 C   0  0  0  0  0  3  0  0  0  0  0  0
  -25.0480  -27.6550   19.5090 C   0  0  0  0  0  3  0  0  0  0  0  0
  -23.6990  -29.7300   20.1700 C   0  0  0  0  0  2  0  0  0  0  0  0
  -24.6570  -31.0000   22.1470 N   0  0  0  0  0  0  0  0  0  0  0  0
  -23.4380  -32.0050   23.7740 O   0  0  0  0  0  0  0  0  0  0  0  0
  -22.7820  -29.3160   22.4760 C   0  0  0  0  0  0  0  0  0  0  0  0
  -21.4730  -29.0810   22.3000 N   0  0  0  0  0  0  0  0  0  0  0  0
  -23.4610  -28.7060   23.3090 O   0  0  0  0  0  0  0  0  0  0  0  0
  -20.9840  -29.6270   21.6020 H   0  0  0  0  0  0  0  0  0  0  0  0
  -18.1260  -27.7740   22.6840 C   0  0  0  0  0  0  0  0  0  0  0  0
  -20.6680  -28.0970   23.0230 C   0  0  0  0  0  3  0  0  0  0  0  0
  -20.8270  -26.6870   22.4070 C   0  0  0  0  0  2  0  0  0  0  0  0
  -19.7560  -26.3640   21.3600 C   0  0  0  0  0  2  0  0  0  0  0  0
  -18.3570  -26.4510   21.9750 C   0  0  0  0  0  2  0  0  0  0  0  0
  -19.2100  -28.5560   23.1620 C   0  0  0  0  0  0  0  0  0  0  0  0
  -18.9390  -29.7980   23.7770 C   0  0  0  0  0  3  0  0  0  0  0  0
  -17.6150  -30.2530   23.9250 C   0  0  0  0  0  3  0  0  0  0  0  0
  -16.5450  -29.4660   23.4640 C   0  0  0  0  0  3  0  0  0  0  0  0
  -16.8030  -28.2290   22.8480 C   0  0  0  0  0  3  0  0  0  0  0  0
  -25.7900  -32.4320   23.9350 C   0  0  0  0  0  3  0  0  0  0  0  0
  -26.2450  -31.7010   25.2580 C   0  0  1  0  0  0  0  0  0  0  0  0
  -25.0960  -31.4700   26.2680 C   0  0  0  0  0  1  0  0  0  0  0  0
  -26.8720  -30.3250   24.9330 C   0  0  0  0  0  1  0  0  0  0  0  0
  -27.3430  -32.5330   25.9620 C   0  0  0  0  0  1  0  0  0  0  0  0
  -25.4550  -33.8360   24.2100 N   0  0  0  0  0  0  0  0  0  0  0  0
  -25.7890  -34.8660   23.4180 C   0  0  0  0  0  0  0  0  0  0  0  0
  -26.4770  -34.7360   22.4030 O   0  0  0  0  0  0  0  0  0  0  0  0
  -24.8500  -34.0130   24.9980 H   0  0  0  0  0  0  0  0  0  0  0  0
  -24.0310  -36.6100   22.9830 C   0  0  0  0  0  1  0  0  0  0  0  0
  -25.2760  -36.2640   23.8180 C   0  0  0  0  0  3  0  0  0  0  0  0
  -27.3850  -37.2250   24.6300 C   0  0  0  0  0  1  0  0  0  0  0  0
  -26.2910  -37.3290   23.6670 N   0  0  0  0  0  0  0  0  0  0  0  0
  -25.8640  -38.2470   23.7670 H   0  0  0  0  0  0  0  0  0  0  0  0
  1  2  1  0
  2  4  1  0
  3  1  2  0
  6  5  1  0
  7  9  1  0
  7  8  1  0
  8  1  1  0
  8  5  1  0
  9 10  1  0
  9  6  1  0
 10 19  1  0
 11 17  1  0
 11 19  1  0
 12 17  1  0
 13 14  1  0
 13 12  1  0
 15 14  1  0
 15 24  1  0
 15 16  1  0
 17 16  1  0
 18 11  2  0
 19 20  1  0
 21 22  2  0
 22 41  1  0
 23 22  1  0
 23 26  1  0
 24 25  1  0
 24 21  1  0
 25 23  2  0
 26 27  1  0
 27 28  2  0
 29 32  1  0
 29 28  1  0
 30 29  2  0
 31 30  1  0
 31 26  2  0
 32 33  1  0
 33 38  2  0
 33 34  1  0
 34 35  2  0
 35 36  1  0
 36 40  1  0
 37 36  2  0
 38 37  1  0
 39 38  1  0
 41 42  1  0
 42 45  1  0
 42 44  1  0
 43 41  2  0
 46 21  1  0
 46 47  1  0
 48 46  1  0
 49  2  1  0
 50 51  1  0
 50 49  1  0
 52 63  2  0
 53 51  1  0
 53 58  1  0
 54 62  1  0
 54 64  1  0
 55 61  1  0
 55 57  1  0
 56 62  1  0
 57 58  2  0
 57 56  1  0
 59 53  2  0
 60 59  1  0
 60 55  2  0
 61 54  1  0
 62 52  1  0
 64 66  2  0
 65 64  1  0
 67 65  1  0
 68 77  2  0
 68 73  1  0
 69 65  1  0
 69 73  1  0
 70 69  1  0
 71 72  1  0
 71 70  1  0
 72 68  1  0
 73 74  2  0
 74 75  1  0
 76 75  2  0
 77 76  1  0
 78 52  1  0
 78 83  1  0
 78 79  1  0
 79 82  1  1
 79 80  1  0
 81 79  1  0
 83 86  1  0
 84 88  1  0
 84 83  1  0
 85 84  2  0
 88 87  1  0
 90 91  1  0
 90 88  1  0
 90 89  1  0
M  ISO  4  11 100  19 100  50 101  51 101
M  END
>  <TORSDO>  (93) 
F 20

>  <SCORE>  (93) 
-12.278

>  <name>  (93) 
93

>  <ligand_id>  (93) 
93

>  <original_smiles>  (93) 
[H]c1c([H])c([H])c2c(c1[H])C([H])([H])C([H])([H])C([H])([H])C2([H])N([H])C(=O)C1([H])N(C(=O)C([H])(N([H])C(=O)C([H])(N([H])C([H])([H])[H])C([H])([H])[H])C(C([H])([H])[H])(C([H])([H])[H])C([H])([H])[H])C([H])([H])c2c([H])c(OC([H])([H])C([H])([H])N([H])C(=O)C3([H])C([H])([H])C([H])([H])C([H])(C([H])([H])N([H])C(=O)N4C([H])([H])C([H])([H])C([H])([H])C([H])(n5nc(-c6c([H])c([H])c(Oc7c([H])c([H])c(F)c([H])c7F)c([H])c6[H])c(C(=O)N([H])[H])c5N([H])[H])C4([H])[H])C3([H])[H])c([H])c([H])c2C1([H])[H]

>  <smiles>  (93) 
[H]c1c([H])c([H])c2c(c1[H])C([H])([H])C([H])([H])C([H])([H])C2([H])N([H])C(=O)C1([H])N(C(=O)C([H])(N([H])C(=O)C([H])(N([H])C([H])([H])[H])C([H])([H])[H])C(C([H])([H])[H])(C([H])([H])[H])C([H])([H])[H])C([H])([H])c2c([H])c(OC([H])([H])C([H])([H])N([H])C(=O)C3([H])C([H])([H])C([H])([H])C([H])(C([H])([H])N([H])C(=O)N4C([H])([H])C([H])([H])C([H])([H])C([H])(n5nc(-c6c([H])c([H])c(Oc7c([H])c([H])c(F)c([H])c7F)c([H])c6[H])c(C(=O)N([H])[H])c5N([H])[H])C4([H])[H])C3([H])[H])c([H])c([H])c2C1([H])[H]

$$$$
94:0:0
     RDKit          3D

 94102  0  0  1  0  0  0  0  0999 V2000
  -29.8590  -21.9860   21.9450 C   0  0  0  0  0  2  0  0  0  0  0  0
  -30.4890  -23.3890   21.9200 C   0  0  0  0  0  3  0  0  0  0  0  0
  -30.9660  -23.6810   23.1310 F   0  0  0  0  0  0  0  0  0  0  0  0
  -29.4960  -24.4880   21.5130 C   0  0  0  0  0  2  0  0  0  0  0  0
  -30.1870  -25.8230   21.1810 C   0  0  0  0  0  2  0  0  0  0  0  0
  -29.2060  -26.9950   21.0680 C   0  0  0  0  0  2  0  0  0  0  0  0
  -28.2430  -26.7340   20.0500 O   0  0  0  0  0  0  0  0  0  0  0  0
  -24.3980  -31.8900   23.1330 C   0  0  0  0  0  0  0  0  0  0  0  0
  -27.0970  -27.4980   20.0730 C   0  0  0  0  0  0  0  0  0  0  0  0
  -23.2050  -30.4870   21.4760 C   0  0  0  0  0  3  0  0  0  0  0  0
  -24.6780  -28.9580   20.0600 C   0  0  0  0  0  0  0  0  0  0  0  0
  -25.7230  -30.8700   21.2920 C   0  0  0  0  0  2  0  0  0  0  0  0
  -25.8200  -29.5000   20.6590 C   0  0  0  0  0  0  0  0  0  0  0  0
  -27.0290  -28.7800   20.6680 C   0  0  0  0  0  3  0  0  0  0  0  0
  -25.9420  -26.9670   19.4640 C   0  0  0  0  0  3  0  0  0  0  0  0
  -24.7310  -27.6860   19.4600 C   0  0  0  0  0  3  0  0  0  0  0  0
  -23.4260  -29.8050   20.0970 C   0  0  0  0  0  2  0  0  0  0  0  0
  -24.4590  -31.0960   22.0270 N   0  0  0  0  0  0  0  0  0  0  0  0
  -23.3130  -32.1570   23.6680 O   0  0  0  0  0  0  0  0  0  0  0  0
  -22.5520  -29.4630   22.4300 C   0  0  0  0  0  0  0  0  0  0  0  0
  -21.2280  -29.2820   22.2940 N   0  0  0  0  0  0  0  0  0  0  0  0
  -23.2310  -28.8350   23.2460 O   0  0  0  0  0  0  0  0  0  0  0  0
  -20.7420  -29.8420   21.6080 H   0  0  0  0  0  0  0  0  0  0  0  0
  -17.8510  -28.0940   22.7610 C   0  0  0  0  0  0  0  0  0  0  0  0
  -20.4060  -28.3430   23.0550 C   0  0  0  0  0  3  0  0  0  0  0  0
  -20.5100  -26.9150   22.4730 C   0  0  0  0  0  2  0  0  0  0  0  0
  -19.4160  -26.5990   21.4490 C   0  0  0  0  0  2  0  0  0  0  0  0
  -18.0290  -26.7460   22.0830 C   0  0  0  0  0  2  0  0  0  0  0  0
  -18.9680  -28.8500   23.2030 C   0  0  0  0  0  0  0  0  0  0  0  0
  -18.7480  -30.1130   23.7950 C   0  0  0  0  0  3  0  0  0  0  0  0
  -17.4450  -30.6190   23.9500 C   0  0  0  0  0  3  0  0  0  0  0  0
  -16.3410  -29.8590   23.5260 C   0  0  0  0  0  3  0  0  0  0  0  0
  -16.5450  -28.5970   22.9370 C   0  0  0  0  0  3  0  0  0  0  0  0
  -25.6800  -32.5190   23.7630 C   0  0  0  0  0  3  0  0  0  0  0  0
  -25.3630  -33.9090   24.1150 N   0  0  0  0  0  0  0  0  0  0  0  0
  -25.6940  -34.9750   23.3730 C   0  0  0  0  0  0  0  0  0  0  0  0
  -26.3710  -34.8910   22.3440 O   0  0  0  0  0  0  0  0  0  0  0  0
  -24.7650  -34.0480   24.9160 H   0  0  0  0  0  0  0  0  0  0  0  0
  -23.9540  -36.7580   23.0390 C   0  0  0  0  0  1  0  0  0  0  0  0
  -25.1950  -36.3520   23.8500 C   0  0  0  0  0  3  0  0  0  0  0  0
  -27.3240  -37.2360   24.6940 C   0  0  0  0  0  1  0  0  0  0  0  0
  -26.2210  -37.4140   23.7540 N   0  0  0  0  0  0  0  0  0  0  0  0
  -25.8080  -38.3280   23.9190 H   0  0  0  0  0  0  0  0  0  0  0  0
  -26.2090  -31.7280   25.0220 C   0  0  1  0  0  0  0  0  0  0  0  0
  -25.1210  -31.4610   26.0880 C   0  0  0  0  0  1  0  0  0  0  0  0
  -26.8020  -30.3650   24.5980 C   0  0  0  0  0  1  0  0  0  0  0  0
  -27.3530  -32.5190   25.6970 C   0  0  0  0  0  1  0  0  0  0  0  0
  -30.8780  -20.8910   22.3200 C   0  0  0  0  0  2  0  0  0  0  0  0
  -29.8380  -17.7190   20.4200 C   0  0  0  0  0  2  0  0  0  0  0  0
  -30.3720  -19.1410   20.6540 C   0  0  0  0  0  2  0  0  0  0  0  0
  -31.0950  -18.5100   22.9310 C   0  0  0  0  0  2  0  0  0  0  0  0
  -30.5610  -17.0710   22.7300 C   0  0  0  0  0  3  0  0  0  0  0  0
  -30.6410  -16.6930   21.2370 C   0  0  0  0  0  3  0  0  0  0  0  0
  -31.3130  -16.0670   23.6230 C   0  0  0  0  0  1  0  0  0  0  0  0
  -30.3700  -19.5100   22.0980 N   0  0  1  0  0  4  0  0  0  0  0  0
  -29.4130  -19.5010   22.4170 H   0  0  0  0  0  0  0  0  0  0  0  0
  -30.6450  -14.4730   20.1080 C   0  0  0  0  0  0  0  0  0  0  0  0
  -30.2240  -12.3870   18.8680 C   0  0  0  0  0  2  0  0  0  0  0  0
  -29.2110  -12.6400   17.7360 C   0  0  0  0  0  2  0  0  0  0  0  0
  -27.7650  -12.5060   18.2520 C   0  0  0  0  0  2  0  0  0  0  0  0
  -27.5190  -13.3170   19.5520 C   0  0  0  0  0  3  0  0  0  0  0  0
  -28.6290  -13.0360   20.5870 C   0  0  0  0  0  2  0  0  0  0  0  0
  -29.9320  -13.3290   19.9580 N   0  0  0  0  0  0  0  0  0  0  0  0
  -31.6580  -14.7350   19.4530 O   0  0  0  0  0  0  0  0  0  0  0  0
  -30.1400  -15.3410   20.9930 N   0  0  0  0  0  0  0  0  0  0  0  0
  -29.3170  -15.0450   21.4970 H   0  0  0  0  0  0  0  0  0  0  0  0
  -25.1660  -13.9380   20.3980 C   0  0  0  0  0  0  0  0  0  0  0  0
  -24.1140  -13.1690   20.8210 C   0  0  0  0  0  0  0  0  0  0  0  0
  -24.5630  -11.8140   20.7480 C   0  0  0  0  0  0  0  0  0  0  0  0
  -26.1900  -13.0510   20.1010 N   0  0  0  0  0  0  0  0  0  0  0  0
  -25.8310  -11.7690   20.3650 N   0  0  0  0  0  0  0  0  0  0  0  0
  -23.8400  -10.5550   20.9680 C   0  0  0  0  0  0  0  0  0  0  0  0
  -24.3090   -9.5830   21.8780 C   0  0  0  0  0  3  0  0  0  0  0  0
  -23.5880   -8.3870   22.0850 C   0  0  0  0  0  3  0  0  0  0  0  0
  -22.3830   -8.1560   21.3790 C   0  0  0  0  0  0  0  0  0  0  0  0
  -21.9320   -9.1160   20.4570 C   0  0  0  0  0  3  0  0  0  0  0  0
  -22.6550  -10.3030   20.2480 C   0  0  0  0  0  3  0  0  0  0  0  0
  -21.6290   -7.0130   21.4970 O   0  0  0  0  0  0  0  0  0  0  0  0
  -21.6100   -6.2780   22.6550 C   0  0  0  0  0  0  0  0  0  0  0  0
  -21.2440   -6.8490   23.8940 C   0  0  0  0  0  3  0  0  0  0  0  0
  -21.1720   -6.0420   25.0470 C   0  0  0  0  0  3  0  0  0  0  0  0
  -21.4550   -4.6660   24.9620 C   0  0  0  0  0  0  0  0  0  0  0  0
  -21.8130   -4.0950   23.7290 C   0  0  0  0  0  3  0  0  0  0  0  0
  -21.8880   -4.8980   22.5780 C   0  0  0  0  0  0  0  0  0  0  0  0
  -22.2140   -4.3400   21.3870 F   0  0  0  0  0  0  0  0  0  0  0  0
  -21.3770   -3.8880   26.0670 F   0  0  0  0  0  0  0  0  0  0  0  0
  -22.7390  -13.6520   21.1830 C   0  0  0  0  0  0  0  0  0  0  0  0
  -22.0670  -12.9600   22.0950 N   0  0  0  0  0  0  0  0  0  0  0  0
  -22.2720  -14.6790   20.6900 O   0  0  0  0  0  0  0  0  0  0  0  0
  -22.4580  -12.1300   22.5150 H   0  0  0  0  0  0  0  0  0  0  0  0
  -21.1470  -13.2660   22.3800 H   0  0  0  0  0  0  0  0  0  0  0  0
  -25.3310  -15.3090   20.2250 N   0  0  0  0  0  0  0  0  0  0  0  0
  -24.5780  -15.9710   20.3810 H   0  0  0  0  0  0  0  0  0  0  0  0
  -26.1680  -15.7420   19.8550 H   0  0  0  0  0  0  0  0  0  0  0  0
  1 48  1  0
  2  1  1  0
  2  3  1  0
  4  2  1  0
  5  4  1  0
  6  5  1  0
  7  9  1  0
  7  6  1  0
  8 19  2  0
  9 14  1  0
 10 18  1  0
 10 20  1  0
 11 17  1  0
 11 13  1  0
 12 18  1  0
 13 14  2  0
 13 12  1  0
 15  9  2  0
 16 15  1  0
 16 11  2  0
 17 10  1  0
 18  8  1  0
 20 22  2  0
 21 20  1  0
 23 21  1  0
 24 33  2  0
 24 29  1  0
 25 21  1  0
 25 29  1  0
 26 25  1  0
 27 28  1  0
 27 26  1  0
 28 24  1  0
 29 30  2  0
 30 31  1  0
 32 31  2  0
 33 32  1  0
 34  8  1  0
 34 35  1  0
 34 44  1  0
 35 38  1  0
 36 40  1  0
 36 35  1  0
 37 36  2  0
 40 39  1  0
 42 40  1  0
 42 43  1  0
 42 41  1  0
 44 47  1  1
 44 45  1  0
 46 44  1  0
 49 50  1  0
 49 53  1  0
 50 55  1  0
 52 51  1  0
 52 54  1  0
 53 65  1  0
 53 52  1  0
 55 48  1  0
 55 56  1  1
 55 51  1  0
 57 65  1  0
 58 63  1  0
 59 60  1  0
 59 58  1  0
 61 60  1  0
 61 70  1  0
 61 62  1  0
 63 57  1  0
 63 62  1  0
 64 57  2  0
 65 66  1  0
 67 68  2  0
 68 87  1  0
 69 68  1  0
 69 72  1  0
 70 71  1  0
 70 67  1  0
 71 69  2  0
 72 73  1  0
 73 74  2  0
 75 78  1  0
 75 74  1  0
 76 75  2  0
 77 76  1  0
 77 72  2  0
 78 79  1  0
 79 80  1  0
 80 81  2  0
 82 81  1  0
 82 86  1  0
 83 82  2  0
 84 79  2  0
 84 83  1  0
 85 84  1  0
 87 88  1  0
 88 91  1  0
 88 90  1  0
 89 87  2  0
 92 93  1  0
 92 67  1  0
 94 92  1  0
M  ISO  4   6 101   7 101  57 100  65 100
M  END
>  <TORSDO>  (94) 
F 22

>  <SCORE>  (94) 
-10.043

>  <name>  (94) 
94

>  <ligand_id>  (94) 
94

>  <original_smiles>  (94) 
[H]c1c([H])c([H])c2c(c1[H])C([H])([H])C([H])([H])C([H])([H])C2([H])N([H])C(=O)C1([H])N(C(=O)C([H])(N([H])C(=O)C([H])(N([H])C([H])([H])[H])C([H])([H])[H])C(C([H])([H])[H])(C([H])([H])[H])C([H])([H])[H])C([H])([H])c2c([H])c(OC([H])([H])C([H])([H])C([H])([H])C([H])(F)C([H])([H])C([H])([H])[N+]3([H])C([H])([H])C([H])([H])C([H])(N([H])C(=O)N4C([H])([H])C([H])([H])C([H])([H])C([H])(n5nc(-c6c([H])c([H])c(Oc7c([H])c([H])c(F)c([H])c7F)c([H])c6[H])c(C(=O)N([H])[H])c5N([H])[H])C4([H])[H])C([H])(C([H])([H])[H])C3([H])[H])c([H])c([H])c2C1([H])[H]

>  <smiles>  (94) 
[H]c1c([H])c([H])c2c(c1[H])C([H])([H])C([H])([H])C([H])([H])C2([H])N([H])C(=O)C1([H])N(C(=O)C([H])(N([H])C(=O)C([H])(N([H])C([H])([H])[H])C([H])([H])[H])C(C([H])([H])[H])(C([H])([H])[H])C([H])([H])[H])C([H])([H])c2c([H])c(OC([H])([H])C([H])([H])C([H])([H])C([H])(F)C([H])([H])C([H])([H])[N+]3([H])C([H])([H])C([H])([H])C([H])(N([H])C(=O)N4C([H])([H])C([H])([H])C([H])([H])C([H])(n5nc(-c6c([H])c([H])c(Oc7c([H])c([H])c(F)c([H])c7F)c([H])c6[H])c(C(=O)N([H])[H])c5N([H])[H])C4([H])[H])C([H])(C([H])([H])[H])C3([H])[H])c([H])c([H])c2C1([H])[H]

$$$$
95:0:0
     RDKit          3D

 94102  0  0  1  0  0  0  0  0999 V2000
  -30.4580  -21.3130   20.9810 C   0  0  0  0  0  0  0  0  0  0  0  0
  -31.1530  -21.9440   20.0230 N   0  0  0  0  0  0  0  0  0  0  0  0
  -29.9030  -21.9040   21.9090 O   0  0  0  0  0  0  0  0  0  0  0  0
  -31.5460  -21.3520   19.3030 H   0  0  0  0  0  0  0  0  0  0  0  0
  -31.6400  -19.0880   21.1170 C   0  0  0  0  0  3  0  0  0  0  0  0
  -31.6670  -17.6780   21.1340 C   0  0  0  0  0  3  0  0  0  0  0  0
  -29.2850  -17.6470   20.6720 C   0  0  0  0  0  3  0  0  0  0  0  0
  -30.4390  -19.8040   20.8890 C   0  0  0  0  0  0  0  0  0  0  0  0
  -29.2460  -19.0620   20.6550 C   0  0  0  0  0  0  0  0  0  0  0  0
  -30.4820  -16.9380   20.9190 C   0  0  0  0  0  0  0  0  0  0  0  0
  -27.9110  -19.7440   20.3710 C   0  0  0  0  0  1  0  0  0  0  0  0
  -31.0960  -14.5720   20.2640 C   0  0  0  0  0  0  0  0  0  0  0  0
  -30.7880  -12.4250   19.0850 C   0  0  0  0  0  2  0  0  0  0  0  0
  -29.8230  -12.6520   17.9020 C   0  0  0  0  0  2  0  0  0  0  0  0
  -28.3530  -12.5240   18.3550 C   0  0  0  0  0  2  0  0  0  0  0  0
  -28.0490  -13.3440   19.6390 C   0  0  0  0  0  3  0  0  0  0  0  0
  -29.1200  -13.0740   20.7190 C   0  0  0  0  0  2  0  0  0  0  0  0
  -30.4400  -13.3880   20.1410 N   0  0  0  0  0  0  0  0  0  0  0  0
  -32.1910  -14.7870   19.7320 O   0  0  0  0  0  0  0  0  0  0  0  0
  -30.4040  -15.5100   20.9450 N   0  0  0  0  0  0  0  0  0  0  0  0
  -29.5710  -15.1380   21.3730 H   0  0  0  0  0  0  0  0  0  0  0  0
  -25.6730  -13.9750   20.4090 C   0  0  0  0  0  0  0  0  0  0  0  0
  -24.6040  -13.2110   20.7910 C   0  0  0  0  0  0  0  0  0  0  0  0
  -25.0450  -11.8540   20.7250 C   0  0  0  0  0  0  0  0  0  0  0  0
  -26.7010  -13.0830   20.1400 N   0  0  0  0  0  0  0  0  0  0  0  0
  -26.3260  -11.8000   20.3850 N   0  0  0  0  0  0  0  0  0  0  0  0
  -24.3060  -10.5990   20.9130 C   0  0  0  0  0  0  0  0  0  0  0  0
  -24.6990   -9.6480   21.8800 C   0  0  0  0  0  3  0  0  0  0  0  0
  -23.9630   -8.4580   22.0560 C   0  0  0  0  0  3  0  0  0  0  0  0
  -22.8180   -8.2100   21.2630 C   0  0  0  0  0  0  0  0  0  0  0  0
  -22.4410   -9.1480   20.2860 C   0  0  0  0  0  3  0  0  0  0  0  0
  -23.1800  -10.3310   20.1090 C   0  0  0  0  0  3  0  0  0  0  0  0
  -22.0580   -7.0670   21.3440 O   0  0  0  0  0  0  0  0  0  0  0  0
  -21.8920   -6.3940   22.5270 C   0  0  0  0  0  0  0  0  0  0  0  0
  -21.3410   -7.0180   23.6670 C   0  0  0  0  0  3  0  0  0  0  0  0
  -21.1200   -6.2700   24.8420 C   0  0  0  0  0  3  0  0  0  0  0  0
  -21.4440   -4.9000   24.8760 C   0  0  0  0  0  0  0  0  0  0  0  0
  -21.9930   -4.2780   23.7410 C   0  0  0  0  0  3  0  0  0  0  0  0
  -22.2130   -5.0220   22.5690 C   0  0  0  0  0  0  0  0  0  0  0  0
  -22.7190   -4.4110   21.4700 F   0  0  0  0  0  0  0  0  0  0  0  0
  -21.2290   -4.1810   26.0020 F   0  0  0  0  0  0  0  0  0  0  0  0
  -23.2190  -13.7020   21.1030 C   0  0  0  0  0  0  0  0  0  0  0  0
  -22.5150  -13.0280   22.0060 N   0  0  0  0  0  0  0  0  0  0  0  0
  -22.7700  -14.7230   20.5820 O   0  0  0  0  0  0  0  0  0  0  0  0
  -22.8910  -12.2040   22.4500 H   0  0  0  0  0  0  0  0  0  0  0  0
  -21.5890  -13.3440   22.2560 H   0  0  0  0  0  0  0  0  0  0  0  0
  -25.8530  -15.3460   20.2480 N   0  0  0  0  0  0  0  0  0  0  0  0
  -25.0970  -16.0070   20.3860 H   0  0  0  0  0  0  0  0  0  0  0  0
  -26.6890  -15.7750   19.8700 H   0  0  0  0  0  0  0  0  0  0  0  0
  -31.6500  -23.3210   20.0750 C   0  0  0  0  0  2  0  0  0  0  0  0
  -30.5890  -24.4300   20.2580 C   0  0  0  0  0  2  0  0  0  0  0  0
  -29.4950  -24.5030   19.1710 C   0  0  0  0  0  2  0  0  0  0  0  0
  -29.2030  -25.9470   18.7160 C   0  0  0  0  0  2  0  0  0  0  0  0
  -28.8410  -26.7860   19.8200 O   0  0  0  0  0  0  0  0  0  0  0  0
  -24.6720  -31.5500   23.0580 C   0  0  0  0  0  0  0  0  0  0  0  0
  -27.6070  -27.4010   19.8300 C   0  0  0  0  0  0  0  0  0  0  0  0
  -23.5710  -30.1630   21.3320 C   0  0  0  0  0  3  0  0  0  0  0  0
  -25.1250  -28.7610   19.8800 C   0  0  0  0  0  0  0  0  0  0  0  0
  -26.0760  -30.6580   21.2030 C   0  0  0  0  0  2  0  0  0  0  0  0
  -26.2420  -29.3210   20.5110 C   0  0  0  0  0  0  0  0  0  0  0  0
  -27.4810  -28.6440   20.4920 C   0  0  0  0  0  3  0  0  0  0  0  0
  -26.4610  -26.8350   19.2250 C   0  0  0  0  0  3  0  0  0  0  0  0
  -25.2260  -27.5110   19.2440 C   0  0  0  0  0  3  0  0  0  0  0  0
  -23.8420  -29.5600   19.9290 C   0  0  0  0  0  2  0  0  0  0  0  0
  -24.7900  -30.8030   21.9240 N   0  0  0  0  0  0  0  0  0  0  0  0
  -23.5690  -31.7420   23.5870 O   0  0  0  0  0  0  0  0  0  0  0  0
  -22.9550  -29.0680   22.2320 C   0  0  0  0  0  0  0  0  0  0  0  0
  -21.6420  -28.8370   22.0790 N   0  0  0  0  0  0  0  0  0  0  0  0
  -23.6570  -28.4330   23.0250 O   0  0  0  0  0  0  0  0  0  0  0  0
  -21.1350  -29.4050   21.4130 H   0  0  0  0  0  0  0  0  0  0  0  0
  -18.3100  -27.5050   22.4990 C   0  0  0  0  0  0  0  0  0  0  0  0
  -20.8570  -27.8310   22.7930 C   0  0  0  0  0  3  0  0  0  0  0  0
  -21.0090  -26.4390   22.1380 C   0  0  0  0  0  2  0  0  0  0  0  0
  -19.9200  -26.1380   21.1040 C   0  0  0  0  0  2  0  0  0  0  0  0
  -18.5320  -26.2030   21.7480 C   0  0  0  0  0  2  0  0  0  0  0  0
  -19.4020  -28.2770   22.9750 C   0  0  0  0  0  0  0  0  0  0  0  0
  -19.1410  -29.4970   23.6360 C   0  0  0  0  0  3  0  0  0  0  0  0
  -17.8210  -29.9460   23.8240 C   0  0  0  0  0  3  0  0  0  0  0  0
  -16.7430  -29.1710   23.3630 C   0  0  0  0  0  3  0  0  0  0  0  0
  -16.9880  -27.9520   22.7060 C   0  0  0  0  0  3  0  0  0  0  0  0
  -25.9130  -32.2160   23.7320 C   0  0  0  0  0  3  0  0  0  0  0  0
  -25.5350  -33.5880   24.0930 N   0  0  0  0  0  0  0  0  0  0  0  0
  -25.8430  -34.6760   23.3730 C   0  0  0  0  0  0  0  0  0  0  0  0
  -26.5480  -34.6320   22.3610 O   0  0  0  0  0  0  0  0  0  0  0  0
  -24.9130  -33.6950   24.8810 H   0  0  0  0  0  0  0  0  0  0  0  0
  -24.0440  -36.3960   23.0190 C   0  0  0  0  0  1  0  0  0  0  0  0
  -25.2810  -36.0270   23.8530 C   0  0  0  0  0  3  0  0  0  0  0  0
  -27.3480  -36.9890   24.7640 C   0  0  0  0  0  1  0  0  0  0  0  0
  -26.2650  -37.1290   23.7950 N   0  0  0  0  0  0  0  0  0  0  0  0
  -25.8120  -38.0250   23.9550 H   0  0  0  0  0  0  0  0  0  0  0  0
  -26.4320  -31.4290   24.9970 C   0  0  1  0  0  0  0  0  0  0  0  0
  -25.3250  -31.1130   26.0310 C   0  0  0  0  0  1  0  0  0  0  0  0
  -27.0860  -30.0930   24.5750 C   0  0  0  0  0  1  0  0  0  0  0  0
  -27.5260  -32.2530   25.7150 C   0  0  0  0  0  1  0  0  0  0  0  0
  1  3  2  0
  2 50  1  0
  2  1  1  0
  4  2  1  0
  5  6  1  0
  7 10  1  0
  8  1  1  0
  8  5  2  0
  9  7  2  0
  9  8  1  0
 10 20  1  0
 10  6  2  0
 11  9  1  0
 12 20  1  0
 13 18  1  0
 14 15  1  0
 14 13  1  0
 16 15  1  0
 16 25  1  0
 16 17  1  0
 18 12  1  0
 18 17  1  0
 19 12  2  0
 20 21  1  0
 22 23  2  0
 23 42  1  0
 24 23  1  0
 24 27  1  0
 25 26  1  0
 25 22  1  0
 26 24  2  0
 27 28  1  0
 28 29  2  0
 30 33  1  0
 30 29  1  0
 31 30  2  0
 32 31  1  0
 32 27  2  0
 33 34  1  0
 34 39  2  0
 34 35  1  0
 35 36  2  0
 36 37  1  0
 37 41  1  0
 38 37  2  0
 39 38  1  0
 40 39  1  0
 42 43  1  0
 43 46  1  0
 43 45  1  0
 44 42  2  0
 47 48  1  0
 47 22  1  0
 49 47  1  0
 50 51  1  0
 52 51  1  0
 53 52  1  0
 53 54  1  0
 54 56  1  0
 55 66  2  0
 56 61  1  0
 57 65  1  0
 57 67  1  0
 58 64  1  0
 58 60  1  0
 59 65  1  0
 60 59  1  0
 61 60  2  0
 62 63  1  0
 62 56  2  0
 63 58  2  0
 64 57  1  0
 65 55  1  0
 67 69  2  0
 68 67  1  0
 70 68  1  0
 71 80  2  0
 71 76  1  0
 72 68  1  0
 72 76  1  0
 73 72  1  0
 74 75  1  0
 74 73  1  0
 75 71  1  0
 76 77  2  0
 77 78  1  0
 79 78  2  0
 80 79  1  0
 81 55  1  0
 81 82  1  0
 81 91  1  0
 82 85  1  0
 83 87  1  0
 83 82  1  0
 84 83  2  0
 87 86  1  0
 89 87  1  0
 89 90  1  0
 89 88  1  0
 91 94  1  1
 91 92  1  0
 93 91  1  0
M  ISO  4  12 100  20 100  53 101  54 101
M  END
>  <TORSDO>  (95) 
F 21

>  <SCORE>  (95) 
-12.755

>  <name>  (95) 
95

>  <ligand_id>  (95) 
95

>  <original_smiles>  (95) 
[H]c1c([H])c([H])c2c(c1[H])C([H])([H])C([H])([H])C([H])([H])C2([H])N([H])C(=O)C1([H])N(C(=O)C([H])(N([H])C(=O)C([H])(N([H])C([H])([H])[H])C([H])([H])[H])C(C([H])([H])[H])(C([H])([H])[H])C([H])([H])[H])C([H])([H])c2c([H])c(OC([H])([H])C([H])([H])C([H])([H])C([H])([H])N([H])C(=O)c3c([H])c([H])c(N([H])C(=O)N4C([H])([H])C([H])([H])C([H])([H])C([H])(n5nc(-c6c([H])c([H])c(Oc7c([H])c([H])c(F)c([H])c7F)c([H])c6[H])c(C(=O)N([H])[H])c5N([H])[H])C4([H])[H])c([H])c3C([H])([H])[H])c([H])c([H])c2C1([H])[H]

>  <smiles>  (95) 
[H]c1c([H])c([H])c2c(c1[H])C([H])([H])C([H])([H])C([H])([H])C2([H])N([H])C(=O)C1([H])N(C(=O)C([H])(N([H])C(=O)C([H])(N([H])C([H])([H])[H])C([H])([H])[H])C(C([H])([H])[H])(C([H])([H])[H])C([H])([H])[H])C([H])([H])c2c([H])c(OC([H])([H])C([H])([H])C([H])([H])C([H])([H])N([H])C(=O)c3c([H])c([H])c(N([H])C(=O)N4C([H])([H])C([H])([H])C([H])([H])C([H])(n5nc(-c6c([H])c([H])c(Oc7c([H])c([H])c(F)c([H])c7F)c([H])c6[H])c(C(=O)N([H])[H])c5N([H])[H])C4([H])[H])c([H])c3C([H])([H])[H])c([H])c([H])c2C1([H])[H]

$$$$
96:0:0
     RDKit          3D

 95103  0  0  1  0  0  0  0  0999 V2000
  -32.5330  -23.0240   19.9650 C   0  0  0  0  0  2  0  0  0  0  0  0
  -31.7550  -23.9610   20.8140 N   0  0  0  0  0  4  0  0  0  0  0  0
  -32.3230  -24.7860   20.9370 H   0  0  0  0  0  0  0  0  0  0  0  0
  -31.6280  -23.5680   21.7320 H   0  0  0  0  0  0  0  0  0  0  0  0
  -30.4520  -24.4070   20.2700 C   0  0  0  0  0  2  0  0  0  0  0  0
  -29.6270  -25.1590   21.3290 C   0  0  0  0  0  2  0  0  0  0  0  0
  -28.2410  -25.6030   20.8410 C   0  0  0  0  0  2  0  0  0  0  0  0
  -28.3340  -26.8110   20.0880 O   0  0  0  0  0  0  0  0  0  0  0  0
  -24.5470  -31.9300   23.2120 C   0  0  0  0  0  0  0  0  0  0  0  0
  -27.1670  -27.5310   20.0850 C   0  0  0  0  0  0  0  0  0  0  0  0
  -23.3200  -30.5280   21.5810 C   0  0  0  0  0  3  0  0  0  0  0  0
  -24.7600  -28.9990   20.1340 C   0  0  0  0  0  0  0  0  0  0  0  0
  -25.8380  -30.9050   21.3450 C   0  0  0  0  0  2  0  0  0  0  0  0
  -25.9220  -29.5380   20.7030 C   0  0  0  0  0  0  0  0  0  0  0  0
  -27.1300  -28.8120   20.6720 C   0  0  0  0  0  3  0  0  0  0  0  0
  -25.9910  -26.9930   19.5180 C   0  0  0  0  0  3  0  0  0  0  0  0
  -24.7880  -27.7250   19.5390 C   0  0  0  0  0  3  0  0  0  0  0  0
  -23.5110  -29.8480   20.1990 C   0  0  0  0  0  2  0  0  0  0  0  0
  -24.5870  -31.1350   22.1050 N   0  0  0  0  0  0  0  0  0  0  0  0
  -23.4730  -32.1980   23.7690 O   0  0  0  0  0  0  0  0  0  0  0  0
  -22.6860  -29.5040   22.5490 C   0  0  0  0  0  0  0  0  0  0  0  0
  -21.3600  -29.3220   22.4410 N   0  0  0  0  0  0  0  0  0  0  0  0
  -23.3830  -28.8750   23.3510 O   0  0  0  0  0  0  0  0  0  0  0  0
  -20.8600  -29.8800   21.7630 H   0  0  0  0  0  0  0  0  0  0  0  0
  -17.9930  -28.1290   22.9760 C   0  0  0  0  0  0  0  0  0  0  0  0
  -20.5540  -28.3820   23.2190 C   0  0  0  0  0  3  0  0  0  0  0  0
  -20.6490  -26.9530   22.6340 C   0  0  0  0  0  2  0  0  0  0  0  0
  -19.5330  -26.6360   21.6340 C   0  0  0  0  0  2  0  0  0  0  0  0
  -18.1590  -26.7800   22.2960 C   0  0  0  0  0  2  0  0  0  0  0  0
  -19.1180  -28.8880   23.3950 C   0  0  0  0  0  0  0  0  0  0  0  0
  -18.9090  -30.1510   23.9920 C   0  0  0  0  0  3  0  0  0  0  0  0
  -17.6080  -30.6550   24.1730 C   0  0  0  0  0  3  0  0  0  0  0  0
  -16.4980  -29.8920   23.7730 C   0  0  0  0  0  3  0  0  0  0  0  0
  -16.6910  -28.6320   23.1790 C   0  0  0  0  0  3  0  0  0  0  0  0
  -25.8410  -32.5600   23.8160 C   0  0  0  0  0  3  0  0  0  0  0  0
  -25.5370  -33.9550   24.1570 N   0  0  0  0  0  0  0  0  0  0  0  0
  -25.8670  -35.0110   23.4000 C   0  0  0  0  0  0  0  0  0  0  0  0
  -26.5320  -34.9110   22.3650 O   0  0  0  0  0  0  0  0  0  0  0  0
  -24.9480  -34.1070   24.9610 H   0  0  0  0  0  0  0  0  0  0  0  0
  -24.1460  -36.8090   23.0500 C   0  0  0  0  0  1  0  0  0  0  0  0
  -25.3830  -36.3970   23.8650 C   0  0  0  0  0  3  0  0  0  0  0  0
  -27.5180  -37.2660   24.7090 C   0  0  0  0  0  1  0  0  0  0  0  0
  -26.4190  -37.4470   23.7640 N   0  0  0  0  0  0  0  0  0  0  0  0
  -26.0180  -38.3670   23.9160 H   0  0  0  0  0  0  0  0  0  0  0  0
  -26.3820  -31.7810   25.0780 C   0  0  1  0  0  0  0  0  0  0  0  0
  -25.3060  -31.5360   26.1630 C   0  0  0  0  0  1  0  0  0  0  0  0
  -26.9610  -30.4090   24.6640 C   0  0  0  0  0  1  0  0  0  0  0  0
  -27.5410  -32.5740   25.7260 C   0  0  0  0  0  1  0  0  0  0  0  0
  -31.9150  -21.6090   19.8120 C   0  0  0  0  0  2  0  0  0  0  0  0
  -31.8010  -20.8060   21.1330 C   0  0  0  0  0  2  0  0  0  0  0  0
  -31.5810  -17.0610   21.9820 C   0  0  0  0  0  2  0  0  0  0  0  0
  -29.8950  -17.5890   20.1790 C   0  0  0  0  0  2  0  0  0  0  0  0
  -31.7710  -18.5790   22.1910 C   0  0  0  0  0  2  0  0  0  0  0  0
  -30.1230  -19.0910   20.4400 C   0  0  0  0  0  2  0  0  0  0  0  0
  -30.1710  -16.7480   21.4410 C   0  0  0  0  0  3  0  0  0  0  0  0
  -31.4970  -19.3570   20.9500 N   0  0  1  0  0  4  0  0  0  0  0  0
  -32.1450  -19.0160   20.2550 H   0  0  0  0  0  0  0  0  0  0  0  0
  -30.4660  -14.4940   20.3110 C   0  0  0  0  0  0  0  0  0  0  0  0
  -30.1290  -12.4230   19.0160 C   0  0  0  0  0  2  0  0  0  0  0  0
  -29.1320  -12.6800   17.8670 C   0  0  0  0  0  2  0  0  0  0  0  0
  -27.6790  -12.4980   18.3510 C   0  0  0  0  0  2  0  0  0  0  0  0
  -27.3870  -13.2730   19.6630 C   0  0  0  0  0  3  0  0  0  0  0  0
  -28.4840  -12.9890   20.7150 C   0  0  0  0  0  2  0  0  0  0  0  0
  -29.7930  -13.3290   20.1240 N   0  0  0  0  0  0  0  0  0  0  0  0
  -31.4700  -14.8070   19.6660 O   0  0  0  0  0  0  0  0  0  0  0  0
  -29.9150  -15.3190   21.2140 N   0  0  0  0  0  0  0  0  0  0  0  0
  -29.1290  -14.9270   21.7140 H   0  0  0  0  0  0  0  0  0  0  0  0
  -24.9940  -13.8170   20.4470 C   0  0  0  0  0  0  0  0  0  0  0  0
  -23.9570  -13.0150   20.8450 C   0  0  0  0  0  0  0  0  0  0  0  0
  -24.4510  -11.6750   20.7850 C   0  0  0  0  0  0  0  0  0  0  0  0
  -26.0540  -12.9640   20.1780 N   0  0  0  0  0  0  0  0  0  0  0  0
  -25.7300  -11.6710   20.4340 N   0  0  0  0  0  0  0  0  0  0  0  0
  -23.7640  -10.3930   20.9890 C   0  0  0  0  0  0  0  0  0  0  0  0
  -24.2390   -9.4400   21.9160 C   0  0  0  0  0  3  0  0  0  0  0  0
  -23.5520   -8.2210   22.1060 C   0  0  0  0  0  3  0  0  0  0  0  0
  -22.3760   -7.9480   21.3690 C   0  0  0  0  0  0  0  0  0  0  0  0
  -21.9190   -8.8900   20.4310 C   0  0  0  0  0  3  0  0  0  0  0  0
  -22.6080  -10.1000   20.2380 C   0  0  0  0  0  3  0  0  0  0  0  0
  -21.6570   -6.7810   21.4690 O   0  0  0  0  0  0  0  0  0  0  0  0
  -21.6370   -6.0450   22.6260 C   0  0  0  0  0  0  0  0  0  0  0  0
  -21.2050   -6.5960   23.8520 C   0  0  0  0  0  3  0  0  0  0  0  0
  -21.1350   -5.7840   25.0020 C   0  0  0  0  0  3  0  0  0  0  0  0
  -21.4850   -4.4240   24.9280 C   0  0  0  0  0  0  0  0  0  0  0  0
  -21.9110   -3.8720   23.7070 C   0  0  0  0  0  3  0  0  0  0  0  0
  -21.9830   -4.6800   22.5580 C   0  0  0  0  0  0  0  0  0  0  0  0
  -22.3730   -4.1390   21.3790 F   0  0  0  0  0  0  0  0  0  0  0  0
  -21.4110   -3.6420   26.0300 F   0  0  0  0  0  0  0  0  0  0  0  0
  -22.5580  -13.4530   21.1700 C   0  0  0  0  0  0  0  0  0  0  0  0
  -21.8800  -12.7310   22.0550 N   0  0  0  0  0  0  0  0  0  0  0  0
  -22.0750  -14.4700   20.6750 O   0  0  0  0  0  0  0  0  0  0  0  0
  -22.2830  -11.9080   22.4780 H   0  0  0  0  0  0  0  0  0  0  0  0
  -20.9420  -13.0060   22.3140 H   0  0  0  0  0  0  0  0  0  0  0  0
  -25.1180  -15.1920   20.2770 N   0  0  0  0  0  0  0  0  0  0  0  0
  -24.3400  -15.8290   20.4170 H   0  0  0  0  0  0  0  0  0  0  0  0
  -25.9500  -15.6540   19.9310 H   0  0  0  0  0  0  0  0  0  0  0  0
  1  2  1  0
  2  3  1  0
  2  4  1  0
  5  2  1  0
  5  6  1  0
  7  6  1  0
  8  7  1  0
  9 20  2  0
 10  8  1  0
 10 15  1  0
 11 19  1  0
 11 21  1  0
 12 18  1  0
 12 14  1  0
 13 19  1  0
 14 13  1  0
 15 14  2  0
 16 17  1  0
 16 10  2  0
 17 12  2  0
 18 11  1  0
 19  9  1  0
 21 23  2  0
 22 21  1  0
 24 22  1  0
 25 34  2  0
 25 30  1  0
 26 22  1  0
 26 30  1  0
 27 26  1  0
 28 29  1  0
 28 27  1  0
 29 25  1  0
 30 31  2  0
 31 32  1  0
 33 32  2  0
 34 33  1  0
 35  9  1  0
 35 36  1  0
 35 45  1  0
 36 39  1  0
 37 41  1  0
 37 36  1  0
 38 37  2  0
 41 40  1  0
 43 41  1  0
 43 44  1  0
 43 42  1  0
 45 48  1  1
 45 46  1  0
 47 45  1  0
 49  1  1  0
 49 50  1  0
 51 53  1  0
 52 54  1  0
 52 55  1  0
 54 56  1  0
 55 66  1  0
 55 51  1  0
 56 50  1  0
 56 53  1  0
 56 57  1  6
 58 66  1  0
 59 64  1  0
 60 61  1  0
 60 59  1  0
 62 61  1  0
 62 71  1  0
 62 63  1  0
 64 58  1  0
 64 63  1  0
 65 58  2  0
 66 67  1  0
 68 69  2  0
 69 88  1  0
 70 69  1  0
 70 73  1  0
 71 72  1  0
 71 68  1  0
 72 70  2  0
 73 74  1  0
 74 75  2  0
 76 79  1  0
 76 75  1  0
 77 76  2  0
 78 77  1  0
 78 73  2  0
 79 80  1  0
 80 81  1  0
 81 82  2  0
 83 82  1  0
 83 87  1  0
 84 83  2  0
 85 80  2  0
 85 84  1  0
 86 85  1  0
 88 89  1  0
 89 92  1  0
 89 91  1  0
 90 88  2  0
 93 94  1  0
 93 68  1  0
 95 93  1  0
M  ISO  4   7 101   8 101  58 100  66 100
M  END
>  <TORSDO>  (96) 
F 23

>  <SCORE>  (96) 
-12.329

>  <name>  (96) 
96

>  <ligand_id>  (96) 
96

>  <original_smiles>  (96) 
[H]c1c([H])c([H])c2c(c1[H])C([H])([H])C([H])([H])C([H])([H])C2([H])N([H])C(=O)C1([H])N(C(=O)C([H])(N([H])C(=O)C([H])(N([H])C([H])([H])[H])C([H])([H])[H])C(C([H])([H])[H])(C([H])([H])[H])C([H])([H])[H])C([H])([H])c2c([H])c(OC([H])([H])C([H])([H])C([H])([H])[N+]([H])([H])C([H])([H])C([H])([H])C([H])([H])[N+]3([H])C([H])([H])C([H])([H])C([H])(N([H])C(=O)N4C([H])([H])C([H])([H])C([H])([H])C([H])(n5nc(-c6c([H])c([H])c(Oc7c([H])c([H])c(F)c([H])c7F)c([H])c6[H])c(C(=O)N([H])[H])c5N([H])[H])C4([H])[H])C([H])([H])C3([H])[H])c([H])c([H])c2C1([H])[H]

>  <smiles>  (96) 
[H]c1c([H])c([H])c2c(c1[H])C([H])([H])C([H])([H])C([H])([H])C2([H])N([H])C(=O)C1([H])N(C(=O)C([H])(N([H])C(=O)C([H])(N([H])C([H])([H])[H])C([H])([H])[H])C(C([H])([H])[H])(C([H])([H])[H])C([H])([H])[H])C([H])([H])c2c([H])c(OC([H])([H])C([H])([H])C([H])([H])[N+]([H])([H])C([H])([H])C([H])([H])C([H])([H])[N+]3([H])C([H])([H])C([H])([H])C([H])(N([H])C(=O)N4C([H])([H])C([H])([H])C([H])([H])C([H])(n5nc(-c6c([H])c([H])c(Oc7c([H])c([H])c(F)c([H])c7F)c([H])c6[H])c(C(=O)N([H])[H])c5N([H])[H])C4([H])[H])C([H])([H])C3([H])[H])c([H])c([H])c2C1([H])[H]

$$$$
97:0:0
     RDKit          3D

 96104  0  0  1  0  0  0  0  0999 V2000
  -29.3750  -21.0430   16.9480 C   0  0  0  0  0  2  0  0  0  0  0  0
  -29.2010  -20.1600   18.2160 C   0  0  0  0  0  2  0  0  0  0  0  0
  -30.5430  -19.9270   18.9610 C   0  0  0  0  0  2  0  0  0  0  0  0
  -30.8260  -14.2810   20.1120 C   0  0  0  0  0  0  0  0  0  0  0  0
  -30.2970  -12.1740   18.9430 C   0  0  0  0  0  2  0  0  0  0  0  0
  -29.3190  -12.3860   17.7730 C   0  0  0  0  0  2  0  0  0  0  0  0
  -27.8670  -12.2550   18.2720 C   0  0  0  0  0  2  0  0  0  0  0  0
  -27.5970  -13.1150   19.5260 C   0  0  0  0  0  3  0  0  0  0  0  0
  -28.7020  -12.9380   20.6010 C   0  0  0  0  0  2  0  0  0  0  0  0
  -30.0100  -13.1900   19.9720 N   0  0  0  0  0  0  0  0  0  0  0  0
  -31.9450  -14.2970   19.6070 O   0  0  0  0  0  0  0  0  0  0  0  0
  -32.3360  -17.0870   20.7400 C   0  0  0  0  0  2  0  0  0  0  0  0
  -28.7470  -17.4140   21.0010 C   0  0  0  0  0  2  0  0  0  0  0  0
  -31.3730  -16.1850   21.5760 C   0  0  0  0  0  2  0  0  0  0  0  0
  -29.2520  -16.1560   20.2500 C   0  0  0  0  0  2  0  0  0  0  0  0
  -31.9550  -18.5570   20.4530 C   0  0  0  0  0  2  0  0  0  0  0  0
  -29.5630  -18.7240   20.9470 C   0  0  0  0  0  2  0  0  0  0  0  0
  -30.3940  -15.3900   20.7900 N   0  0  0  0  0  0  0  0  0  0  0  0
  -30.5960  -18.7410   19.8720 N   0  0  1  0  0  4  0  0  0  0  0  0
  -30.4370  -17.9380   19.2860 H   0  0  0  0  0  0  0  0  0  0  0  0
  -25.2610  -13.7920   20.3470 C   0  0  0  0  0  0  0  0  0  0  0  0
  -24.1880  -13.0470   20.7620 C   0  0  0  0  0  0  0  0  0  0  0  0
  -24.6170  -11.6860   20.7180 C   0  0  0  0  0  0  0  0  0  0  0  0
  -26.2670  -12.8810   20.0700 N   0  0  0  0  0  0  0  0  0  0  0  0
  -25.8900  -11.6130   20.3610 N   0  0  0  0  0  0  0  0  0  0  0  0
  -23.8710  -10.4410   20.9290 C   0  0  0  0  0  0  0  0  0  0  0  0
  -24.3030   -9.4770   21.8650 C   0  0  0  0  0  3  0  0  0  0  0  0
  -23.5660   -8.2900   22.0610 C   0  0  0  0  0  3  0  0  0  0  0  0
  -22.3800   -8.0620   21.3190 C   0  0  0  0  0  0  0  0  0  0  0  0
  -21.9690   -9.0140   20.3710 C   0  0  0  0  0  3  0  0  0  0  0  0
  -22.7090  -10.1940   20.1730 C   0  0  0  0  0  3  0  0  0  0  0  0
  -21.6120   -6.9290   21.4280 O   0  0  0  0  0  0  0  0  0  0  0  0
  -21.5500   -6.2120   22.5950 C   0  0  0  0  0  0  0  0  0  0  0  0
  -21.1240   -6.7950   23.8080 C   0  0  0  0  0  3  0  0  0  0  0  0
  -21.0130   -6.0060   24.9690 C   0  0  0  0  0  3  0  0  0  0  0  0
  -21.3120   -4.6310   24.9180 C   0  0  0  0  0  0  0  0  0  0  0  0
  -21.7260   -4.0450   23.7080 C   0  0  0  0  0  3  0  0  0  0  0  0
  -21.8420   -4.8340   22.5500 C   0  0  0  0  0  0  0  0  0  0  0  0
  -22.2230   -4.2620   21.3820 F   0  0  0  0  0  0  0  0  0  0  0  0
  -21.1960   -3.8670   26.0290 F   0  0  0  0  0  0  0  0  0  0  0  0
  -22.8140  -13.5530   21.0890 C   0  0  0  0  0  0  0  0  0  0  0  0
  -22.1060  -12.8630   21.9770 N   0  0  0  0  0  0  0  0  0  0  0  0
  -22.3740  -14.5880   20.5910 O   0  0  0  0  0  0  0  0  0  0  0  0
  -22.4760  -12.0250   22.4000 H   0  0  0  0  0  0  0  0  0  0  0  0
  -21.1840  -13.1780   22.2450 H   0  0  0  0  0  0  0  0  0  0  0  0
  -25.4560  -15.1590   20.1590 N   0  0  0  0  0  0  0  0  0  0  0  0
  -24.7190  -15.8380   20.3060 H   0  0  0  0  0  0  0  0  0  0  0  0
  -26.2890  -15.5670   19.7580 H   0  0  0  0  0  0  0  0  0  0  0  0
  -28.1120  -21.8150   16.4710 C   0  0  0  0  0  2  0  0  0  0  0  0
  -28.1500  -23.2630   16.8010 N   0  0  0  0  0  4  0  0  0  0  0  0
  -27.3620  -23.7090   16.3560 H   0  0  0  0  0  0  0  0  0  0  0  0
  -28.9770  -23.6580   16.3840 H   0  0  0  0  0  0  0  0  0  0  0  0
  -28.1220  -23.5930   18.2450 C   0  0  0  0  0  2  0  0  0  0  0  0
  -28.5620  -25.0440   18.5240 C   0  0  0  0  0  2  0  0  0  0  0  0
  -28.6320  -25.3430   20.0410 C   0  0  0  0  0  2  0  0  0  0  0  0
  -28.6050  -26.7420   20.3660 O   0  0  0  0  0  0  0  0  0  0  0  0
  -24.6830  -31.9220   23.3070 C   0  0  0  0  0  0  0  0  0  0  0  0
  -27.3960  -27.4180   20.3770 C   0  0  0  0  0  0  0  0  0  0  0  0
  -23.5050  -30.4680   21.6910 C   0  0  0  0  0  3  0  0  0  0  0  0
  -24.9840  -28.9010   20.3360 C   0  0  0  0  0  0  0  0  0  0  0  0
  -26.0270  -30.8430   21.5000 C   0  0  0  0  0  2  0  0  0  0  0  0
  -26.1360  -29.4550   20.9090 C   0  0  0  0  0  0  0  0  0  0  0  0
  -27.3460  -28.7220   20.9190 C   0  0  0  0  0  3  0  0  0  0  0  0
  -26.2040  -26.8590   19.8570 C   0  0  0  0  0  3  0  0  0  0  0  0
  -25.0120  -27.5990   19.8140 C   0  0  0  0  0  3  0  0  0  0  0  0
  -23.7350  -29.7500   20.3370 C   0  0  0  0  0  2  0  0  0  0  0  0
  -24.7580  -31.0940   22.2280 N   0  0  0  0  0  0  0  0  0  0  0  0
  -23.5920  -32.2040   23.8240 O   0  0  0  0  0  0  0  0  0  0  0  0
  -22.8480  -29.4680   22.6690 C   0  0  0  0  0  0  0  0  0  0  0  0
  -21.5270  -29.2750   22.5230 N   0  0  0  0  0  0  0  0  0  0  0  0
  -23.5220  -28.8680   23.5100 O   0  0  0  0  0  0  0  0  0  0  0  0
  -21.0460  -29.8130   21.8160 H   0  0  0  0  0  0  0  0  0  0  0  0
  -18.1550  -28.0590   22.9890 C   0  0  0  0  0  0  0  0  0  0  0  0
  -20.7040  -28.3510   23.3020 C   0  0  0  0  0  3  0  0  0  0  0  0
  -20.8350  -26.9060   22.7690 C   0  0  0  0  0  2  0  0  0  0  0  0
  -19.7510  -26.5420   21.7460 C   0  0  0  0  0  2  0  0  0  0  0  0
  -18.3570  -26.6900   22.3600 C   0  0  0  0  0  2  0  0  0  0  0  0
  -19.2600  -28.8440   23.4170 C   0  0  0  0  0  0  0  0  0  0  0  0
  -19.0160  -30.1220   23.9630 C   0  0  0  0  0  3  0  0  0  0  0  0
  -17.7050  -30.6130   24.0940 C   0  0  0  0  0  3  0  0  0  0  0  0
  -16.6160  -29.8270   23.6790 C   0  0  0  0  0  3  0  0  0  0  0  0
  -16.8440  -28.5540   23.1270 C   0  0  0  0  0  3  0  0  0  0  0  0
  -25.9550  -32.5770   23.9300 C   0  0  0  0  0  3  0  0  0  0  0  0
  -26.4740  -31.8330   25.2230 C   0  0  1  0  0  0  0  0  0  0  0  0
  -25.3720  -31.6010   26.2840 C   0  0  0  0  0  1  0  0  0  0  0  0
  -27.0830  -30.4590   24.8560 C   0  0  0  0  0  1  0  0  0  0  0  0
  -27.6070  -32.6570   25.8790 C   0  0  0  0  0  1  0  0  0  0  0  0
  -25.6280  -33.9770   24.2320 N   0  0  0  0  0  0  0  0  0  0  0  0
  -25.9560  -35.0190   23.4600 C   0  0  0  0  0  0  0  0  0  0  0  0
  -26.6340  -34.9080   22.4350 O   0  0  0  0  0  0  0  0  0  0  0  0
  -25.0220  -34.1410   25.0230 H   0  0  0  0  0  0  0  0  0  0  0  0
  -24.2060  -36.7790   23.0670 C   0  0  0  0  0  1  0  0  0  0  0  0
  -25.4490  -36.4070   23.8920 C   0  0  0  0  0  3  0  0  0  0  0  0
  -27.5650  -37.3300   24.7180 C   0  0  0  0  0  1  0  0  0  0  0  0
  -26.4640  -37.4740   23.7690 N   0  0  0  0  0  0  0  0  0  0  0  0
  -26.0450  -38.3890   23.9070 H   0  0  0  0  0  0  0  0  0  0  0  0
  1  2  1  0
  2  3  1  0
  3 19  1  0
  4 18  1  0
  5 10  1  0
  6  7  1  0
  6  5  1  0
  8  7  1  0
  8 24  1  0
  8  9  1  0
 10  4  1  0
 10  9  1  0
 11  4  2  0
 12 14  1  0
 15 18  1  0
 15 13  1  0
 16 12  1  0
 17 13  1  0
 18 14  1  0
 19 16  1  0
 19 17  1  0
 19 20  1  6
 21 22  2  0
 22 41  1  0
 23 22  1  0
 23 26  1  0
 24 21  1  0
 24 25  1  0
 25 23  2  0
 26 27  1  0
 27 28  2  0
 29 32  1  0
 29 28  1  0
 30 29  2  0
 31 30  1  0
 31 26  2  0
 32 33  1  0
 33 34  1  0
 34 35  2  0
 36 35  1  0
 36 40  1  0
 37 36  2  0
 38 33  2  0
 38 37  1  0
 39 38  1  0
 41 42  1  0
 42 45  1  0
 42 44  1  0
 43 41  2  0
 46 47  1  0
 46 21  1  0
 48 46  1  0
 49 50  1  0
 49  1  1  0
 50 53  1  0
 51 50  1  0
 52 50  1  0
 53 54  1  0
 54 55  1  0
 55 56  1  0
 56 58  1  0
 57 68  2  0
 58 63  1  0
 59 67  1  0
 59 69  1  0
 60 66  1  0
 60 62  1  0
 61 67  1  0
 62 63  2  0
 62 61  1  0
 64 58  2  0
 65 64  1  0
 65 60  2  0
 66 59  1  0
 67 57  1  0
 69 71  2  0
 70 69  1  0
 72 70  1  0
 73 82  2  0
 73 78  1  0
 74 70  1  0
 74 78  1  0
 75 74  1  0
 76 77  1  0
 76 75  1  0
 77 73  1  0
 78 79  2  0
 79 80  1  0
 81 80  2  0
 82 81  1  0
 83 57  1  0
 83 88  1  0
 83 84  1  0
 84 87  1  1
 84 85  1  0
 86 84  1  0
 88 91  1  0
 89 93  1  0
 89 88  1  0
 90 89  2  0
 93 92  1  0
 95 93  1  0
 95 96  1  0
 95 94  1  0
M  ISO  4   4 100  18 100  55 101  56 101
M  END
>  <TORSDO>  (97) 
F 23

>  <SCORE>  (97) 
-11.114

>  <name>  (97) 
97

>  <ligand_id>  (97) 
97

>  <original_smiles>  (97) 
[H]c1c([H])c([H])c2c(c1[H])C([H])([H])C([H])([H])C([H])([H])C2([H])N([H])C(=O)C1([H])N(C(=O)C([H])(N([H])C(=O)C([H])(N([H])C([H])([H])[H])C([H])([H])[H])C(C([H])([H])[H])(C([H])([H])[H])C([H])([H])[H])C([H])([H])c2c([H])c(OC([H])([H])C([H])([H])C([H])([H])[N+]([H])([H])C([H])([H])C([H])([H])C([H])([H])C([H])([H])[N+]3([H])C([H])([H])C([H])([H])C([H])([H])N(C(=O)N4C([H])([H])C([H])([H])C([H])([H])C([H])(n5nc(-c6c([H])c([H])c(Oc7c([H])c([H])c(F)c([H])c7F)c([H])c6[H])c(C(=O)N([H])[H])c5N([H])[H])C4([H])[H])C([H])([H])C([H])([H])C3([H])[H])c([H])c([H])c2C1([H])[H]

>  <smiles>  (97) 
[H]c1c([H])c([H])c2c(c1[H])C([H])([H])C([H])([H])C([H])([H])C2([H])N([H])C(=O)C1([H])N(C(=O)C([H])(N([H])C(=O)C([H])(N([H])C([H])([H])[H])C([H])([H])[H])C(C([H])([H])[H])(C([H])([H])[H])C([H])([H])[H])C([H])([H])c2c([H])c(OC([H])([H])C([H])([H])C([H])([H])[N+]([H])([H])C([H])([H])C([H])([H])C([H])([H])C([H])([H])[N+]3([H])C([H])([H])C([H])([H])C([H])([H])N(C(=O)N4C([H])([H])C([H])([H])C([H])([H])C([H])(n5nc(-c6c([H])c([H])c(Oc7c([H])c([H])c(F)c([H])c7F)c([H])c6[H])c(C(=O)N([H])[H])c5N([H])[H])C4([H])[H])C([H])([H])C([H])([H])C3([H])[H])c([H])c([H])c2C1([H])[H]

$$$$
98:0:0
     RDKit          3D

 95103  0  0  1  0  0  0  0  0999 V2000
  -28.6650  -23.7860   20.7000 C   0  0  0  0  0  3  0  0  0  0  0  0
  -28.1780  -22.2560   20.3750 C   0  0  0  0  0  2  0  0  0  0  0  0
  -30.3810  -18.6730   18.8700 C   0  0  0  0  0  3  0  0  0  0  0  0
  -30.2710  -19.8690   18.1300 C   0  0  0  0  0  3  0  0  0  0  0  0
  -29.2270  -19.7770   20.7090 C   0  0  0  0  0  3  0  0  0  0  0  0
  -29.8750  -18.5840   20.1780 C   0  0  0  0  0  0  0  0  0  0  0  0
  -29.0880  -21.0160   19.9590 C   0  0  0  0  0  0  0  0  0  0  0  0
  -29.6330  -21.0130   18.6570 C   0  0  0  0  0  0  0  0  0  0  0  0
  -29.4890  -22.1060   17.8730 F   0  0  0  0  0  0  0  0  0  0  0  0
  -30.2130  -17.2670   20.9940 C   0  0  0  0  0  2  0  0  0  0  0  0
  -30.6270  -14.7630   20.2680 C   0  0  0  0  0  0  0  0  0  0  0  0
  -30.4210  -12.5000   19.2310 C   0  0  0  0  0  2  0  0  0  0  0  0
  -29.4600  -12.5730   18.0220 C   0  0  0  0  0  2  0  0  0  0  0  0
  -27.9990  -12.3990   18.4780 C   0  0  0  0  0  2  0  0  0  0  0  0
  -27.6420  -13.2860   19.7010 C   0  0  0  0  0  3  0  0  0  0  0  0
  -28.7150  -13.1970   20.8040 C   0  0  0  0  0  2  0  0  0  0  0  0
  -30.0000  -13.5430   20.1860 N   0  0  0  0  0  0  0  0  0  0  0  0
  -31.8120  -14.8830   19.9490 O   0  0  0  0  0  0  0  0  0  0  0  0
  -29.8390  -15.8670   20.5370 N   0  0  0  0  0  0  0  0  0  0  0  0
  -28.8590  -15.6520   20.6500 H   0  0  0  0  0  0  0  0  0  0  0  0
  -25.2600  -13.8810   20.4460 C   0  0  0  0  0  0  0  0  0  0  0  0
  -24.1990  -13.1090   20.8330 C   0  0  0  0  0  0  0  0  0  0  0  0
  -24.6650  -11.7570   20.8140 C   0  0  0  0  0  0  0  0  0  0  0  0
  -26.3040  -12.9990   20.2100 N   0  0  0  0  0  0  0  0  0  0  0  0
  -25.9550  -11.7190   20.4940 N   0  0  0  0  0  0  0  0  0  0  0  0
  -23.9450  -10.4950   21.0240 C   0  0  0  0  0  0  0  0  0  0  0  0
  -24.3830   -9.5410   21.9680 C   0  0  0  0  0  3  0  0  0  0  0  0
  -23.6620   -8.3450   22.1640 C   0  0  0  0  0  3  0  0  0  0  0  0
  -22.4930   -8.0920   21.4100 C   0  0  0  0  0  0  0  0  0  0  0  0
  -22.0730   -9.0340   20.4540 C   0  0  0  0  0  3  0  0  0  0  0  0
  -22.7950  -10.2210   20.2570 C   0  0  0  0  0  3  0  0  0  0  0  0
  -21.7420   -6.9460   21.5120 O   0  0  0  0  0  0  0  0  0  0  0  0
  -21.6900   -6.2220   22.6770 C   0  0  0  0  0  0  0  0  0  0  0  0
  -21.2500   -6.7910   23.8910 C   0  0  0  0  0  3  0  0  0  0  0  0
  -21.1450   -5.9950   25.0470 C   0  0  0  0  0  3  0  0  0  0  0  0
  -21.4720   -4.6270   24.9940 C   0  0  0  0  0  0  0  0  0  0  0  0
  -21.9070   -4.0550   23.7860 C   0  0  0  0  0  3  0  0  0  0  0  0
  -22.0130   -4.8500   22.6300 C   0  0  0  0  0  0  0  0  0  0  0  0
  -22.4120   -4.2890   21.4650 F   0  0  0  0  0  0  0  0  0  0  0  0
  -21.3660   -3.8580   26.1050 F   0  0  0  0  0  0  0  0  0  0  0  0
  -22.8030  -13.5850   21.1120 C   0  0  0  0  0  0  0  0  0  0  0  0
  -22.0840  -12.8940   21.9880 N   0  0  0  0  0  0  0  0  0  0  0  0
  -22.3600  -14.6050   20.5870 O   0  0  0  0  0  0  0  0  0  0  0  0
  -22.4620  -12.0670   22.4270 H   0  0  0  0  0  0  0  0  0  0  0  0
  -21.1500  -13.1970   22.2240 H   0  0  0  0  0  0  0  0  0  0  0  0
  -25.4170  -15.2490   20.2510 N   0  0  0  0  0  0  0  0  0  0  0  0
  -24.6380  -15.8890   20.3330 H   0  0  0  0  0  0  0  0  0  0  0  0
  -26.2400  -15.6760   19.8400 H   0  0  0  0  0  0  0  0  0  0  0  0
  -28.0630  -24.2150   22.0630 C   0  0  0  0  0  2  0  0  0  0  0  0
  -28.6220  -23.4970   23.2250 N   0  0  0  0  0  4  0  0  0  0  0  0
  -28.4620  -22.5110   23.1640 H   0  0  0  0  0  0  0  0  0  0  0  0
  -28.1840  -23.8330   24.0660 H   0  0  0  0  0  0  0  0  0  0  0  0
  -29.6100  -23.6660   23.3020 H   0  0  0  0  0  0  0  0  0  0  0  0
  -28.2640  -24.9800   19.6780 C   0  0  0  0  0  2  0  0  0  0  0  0
  -28.3030  -26.4390   20.0880 O   0  0  0  0  0  0  0  0  0  0  0  0
  -24.6180  -31.8810   23.2000 C   0  0  0  0  0  0  0  0  0  0  0  0
  -27.1770  -27.3020   20.0630 C   0  0  0  0  0  0  0  0  0  0  0  0
  -23.3940  -30.4920   21.5720 C   0  0  0  0  0  3  0  0  0  0  0  0
  -24.8220  -28.9560   20.1130 C   0  0  0  0  0  0  0  0  0  0  0  0
  -25.9370  -30.8030   21.3550 C   0  0  0  0  0  2  0  0  0  0  0  0
  -26.0050  -29.4270   20.6930 C   0  0  0  0  0  0  0  0  0  0  0  0
  -27.1830  -28.6120   20.6570 C   0  0  0  0  0  3  0  0  0  0  0  0
  -25.9590  -26.9030   19.4600 C   0  0  0  0  0  3  0  0  0  0  0  0
  -24.8030  -27.7030   19.4910 C   0  0  0  0  0  3  0  0  0  0  0  0
  -23.5910  -29.8350   20.1840 C   0  0  0  0  0  2  0  0  0  0  0  0
  -24.6700  -31.0780   22.0980 N   0  0  0  0  0  0  0  0  0  0  0  0
  -23.5420  -32.1510   23.7510 O   0  0  0  0  0  0  0  0  0  0  0  0
  -22.7500  -29.4650   22.5340 C   0  0  0  0  0  0  0  0  0  0  0  0
  -21.4210  -29.2860   22.4310 N   0  0  0  0  0  0  0  0  0  0  0  0
  -23.4440  -28.8350   23.3360 O   0  0  0  0  0  0  0  0  0  0  0  0
  -20.9230  -29.8490   21.7580 H   0  0  0  0  0  0  0  0  0  0  0  0
  -18.0540  -28.0770   22.9740 C   0  0  0  0  0  0  0  0  0  0  0  0
  -20.6130  -28.3400   23.2060 C   0  0  0  0  0  3  0  0  0  0  0  0
  -20.7120  -26.9140   22.6210 C   0  0  0  0  0  2  0  0  0  0  0  0
  -19.5940  -26.5940   21.6190 C   0  0  0  0  0  2  0  0  0  0  0  0
  -18.2220  -26.7310   22.2870 C   0  0  0  0  0  2  0  0  0  0  0  0
  -19.1760  -28.8390   23.3900 C   0  0  0  0  0  0  0  0  0  0  0  0
  -18.9640  -30.0980   23.9940 C   0  0  0  0  0  3  0  0  0  0  0  0
  -17.6610  -30.5940   24.1820 C   0  0  0  0  0  3  0  0  0  0  0  0
  -16.5520  -29.8280   23.7810 C   0  0  0  0  0  3  0  0  0  0  0  0
  -16.7490  -28.5720   23.1820 C   0  0  0  0  0  3  0  0  0  0  0  0
  -25.9070  -32.5150   23.8080 C   0  0  0  0  0  3  0  0  0  0  0  0
  -25.5930  -33.9070   24.1560 N   0  0  0  0  0  0  0  0  0  0  0  0
  -25.9060  -34.9720   23.4030 C   0  0  0  0  0  0  0  0  0  0  0  0
  -26.5570  -34.8810   22.3580 O   0  0  0  0  0  0  0  0  0  0  0  0
  -25.0080  -34.0490   24.9670 H   0  0  0  0  0  0  0  0  0  0  0  0
  -24.1600  -36.7580   23.1030 C   0  0  0  0  0  1  0  0  0  0  0  0
  -25.4200  -36.3520   23.8850 C   0  0  0  0  0  3  0  0  0  0  0  0
  -27.5650  -37.2420   24.6860 C   0  0  0  0  0  1  0  0  0  0  0  0
  -26.4450  -37.4130   23.7630 N   0  0  0  0  0  0  0  0  0  0  0  0
  -26.0360  -38.3300   23.9230 H   0  0  0  0  0  0  0  0  0  0  0  0
  -26.4430  -31.7360   25.0710 C   0  0  1  0  0  0  0  0  0  0  0  0
  -25.3650  -31.4860   26.1530 C   0  0  0  0  0  1  0  0  0  0  0  0
  -27.0270  -30.3640   24.6610 C   0  0  0  0  0  1  0  0  0  0  0  0
  -27.6020  -32.5290   25.7200 C   0  0  0  0  0  1  0  0  0  0  0  0
  1 54  1  0
  1 49  1  0
  2  1  1  0
  3  6  1  0
  4  8  1  0
  4  3  2  0
  6  5  2  0
  6 10  1  0
  7  2  1  0
  7  5  1  0
  8  7  2  0
  9  8  1  0
 11 19  1  0
 12 17  1  0
 13 14  1  0
 13 12  1  0
 15 14  1  0
 15 24  1  0
 15 16  1  0
 17 11  1  0
 17 16  1  0
 18 11  2  0
 19 20  1  0
 19 10  1  0
 21 22  2  0
 22 41  1  0
 23 22  1  0
 23 26  1  0
 24 21  1  0
 24 25  1  0
 25 23  2  0
 26 27  1  0
 27 28  2  0
 29 32  1  0
 29 28  1  0
 30 29  2  0
 31 30  1  0
 31 26  2  0
 32 33  1  0
 33 34  1  0
 34 35  2  0
 36 35  1  0
 36 40  1  0
 37 36  2  0
 38 33  2  0
 38 37  1  0
 39 38  1  0
 41 42  1  0
 42 45  1  0
 42 44  1  0
 43 41  2  0
 46 47  1  0
 46 21  1  0
 48 46  1  0
 49 50  1  0
 50 53  1  0
 50 52  1  0
 51 50  1  0
 54 55  1  0
 56 67  2  0
 57 55  1  0
 57 62  1  0
 58 66  1  0
 58 68  1  0
 59 65  1  0
 59 61  1  0
 60 66  1  0
 61 60  1  0
 62 61  2  0
 63 64  1  0
 63 57  2  0
 64 59  2  0
 65 58  1  0
 66 56  1  0
 68 70  2  0
 69 68  1  0
 71 69  1  0
 72 81  2  0
 72 77  1  0
 73 69  1  0
 73 77  1  0
 74 73  1  0
 75 76  1  0
 75 74  1  0
 76 72  1  0
 77 78  2  0
 78 79  1  0
 80 79  2  0
 81 80  1  0
 82 56  1  0
 82 83  1  0
 82 92  1  0
 83 86  1  0
 84 88  1  0
 84 83  1  0
 85 84  2  0
 88 87  1  0
 90 88  1  0
 90 91  1  0
 90 89  1  0
 92 95  1  1
 92 93  1  0
 94 92  1  0
M  ISO  4  11 100  19 100  54 101  55 101
M  END
>  <TORSDO>  (98) 
F 22

>  <SCORE>  (98) 
-12.991

>  <name>  (98) 
98

>  <ligand_id>  (98) 
98

>  <original_smiles>  (98) 
[H]c1c([H])c([H])c2c(c1[H])C([H])([H])C([H])([H])C([H])([H])C2([H])N([H])C(=O)C1([H])N(C(=O)C([H])(N([H])C(=O)C([H])(N([H])C([H])([H])[H])C([H])([H])[H])C(C([H])([H])[H])(C([H])([H])[H])C([H])([H])[H])C([H])([H])c2c([H])c(OC([H])([H])C([H])(C([H])([H])c3c([H])c(C([H])([H])N([H])C(=O)N4C([H])([H])C([H])([H])C([H])([H])C([H])(n5nc(-c6c([H])c([H])c(Oc7c([H])c([H])c(F)c([H])c7F)c([H])c6[H])c(C(=O)N([H])[H])c5N([H])[H])C4([H])[H])c([H])c([H])c3F)C([H])([H])[N+]([H])([H])[H])c([H])c([H])c2C1([H])[H]

>  <smiles>  (98) 
[H]c1c([H])c([H])c2c(c1[H])C([H])([H])C([H])([H])C([H])([H])C2([H])N([H])C(=O)C1([H])N(C(=O)C([H])(N([H])C(=O)C([H])(N([H])C([H])([H])[H])C([H])([H])[H])C(C([H])([H])[H])(C([H])([H])[H])C([H])([H])[H])C([H])([H])c2c([H])c(OC([H])([H])C([H])(C([H])([H])c3c([H])c(C([H])([H])N([H])C(=O)N4C([H])([H])C([H])([H])C([H])([H])C([H])(n5nc(-c6c([H])c([H])c(Oc7c([H])c([H])c(F)c([H])c7F)c([H])c6[H])c(C(=O)N([H])[H])c5N([H])[H])C4([H])[H])c([H])c([H])c3F)C([H])([H])[N+]([H])([H])[H])c([H])c([H])c2C1([H])[H]

$$$$
